RYL.pdb
     RDKit          3D

 32 32  0  0  1  0  0  0  0  0999 V2000
   30.8596  -23.7904  -17.6702 N   0  0  0  0  0  0  0  0  0  0  0  0
   30.8442  -23.4148  -19.0500 C   0  0  0  0  0  0  0  0  0  0  0  0
   31.4020  -24.1827  -19.9007 N   0  0  0  0  0  0  0  0  0  0  0  0
   30.2191  -22.2058  -19.4810 N   0  0  0  0  0  0  0  0  0  0  0  0
   29.5720  -21.3079  -18.5024 C   0  0  0  0  0  0  0  0  0  0  0  0
   28.1067  -21.4145  -18.7423 C   0  0  0  0  0  0  0  0  0  0  0  0
   27.2241  -21.1985  -17.5679 C   0  0  0  0  0  0  0  0  0  0  0  0
   27.4791  -22.1338  -16.4394 C   0  0  2  0  0  0  0  0  0  0  0  0
   27.4941  -23.5336  -16.8340 N   0  0  0  0  0  0  0  0  0  0  0  0
   26.4258  -22.0375  -15.3840 C   0  0  0  0  0  0  0  0  0  0  0  0
   25.3484  -22.6409  -15.5970 O   0  0  0  0  0  0  0  0  0  0  0  0
   31.5610  -23.9948  -20.9035 O   0  0  0  0  0  0  0  0  0  0  0  0
   21.7005  -20.9279   -8.0978 C   0  0  0  0  0  0  0  0  0  0  0  0
   22.7117  -20.8518   -9.0429 C   0  0  0  0  0  0  0  0  0  0  0  0
   22.8535  -19.7280   -9.8285 C   0  0  0  0  0  0  0  0  0  0  0  0
   23.8865  -19.6841  -10.7741 C   0  0  0  0  0  0  0  0  0  0  0  0
   24.7526  -20.7402  -10.9258 C   0  0  0  0  0  0  0  0  0  0  0  0
   25.8286  -20.7032  -11.9052 C   0  0  2  0  0  0  0  0  0  0  0  0
   25.4946  -21.2555  -13.2490 N   0  0  0  0  0  0  0  0  0  0  0  0
   26.5652  -21.3189  -14.1770 C   0  0  0  0  0  0  0  0  0  0  0  0
   24.3407  -20.4629  -13.7909 O   0  0  0  0  0  0  0  0  0  0  0  0
   24.5560  -19.2887  -14.1521 C   0  0  0  0  0  0  0  0  0  0  0  0
   24.5810  -21.8430  -10.1261 C   0  0  0  0  0  0  0  0  0  0  0  0
   23.5646  -21.9152   -9.1785 C   0  0  0  0  0  0  0  0  0  0  0  0
   22.5139  -18.6497  -17.3663 C   0  0  2  0  0  0  0  0  0  0  0  0
   22.6649  -19.9930  -16.7630 C   0  0  0  0  0  0  0  0  0  0  0  0
   22.7325  -21.0901  -17.8326 C   0  0  0  0  0  0  0  0  0  0  0  0
   21.6726  -20.4023  -15.7647 C   0  0  2  0  0  0  0  0  0  0  0  0
   21.8957  -20.1269  -14.3350 N   0  0  0  0  0  0  0  0  0  0  0  0
   23.0446  -20.9986  -13.9005 C   0  0  0  0  0  0  0  0  0  0  0  0
   20.8587  -20.4011  -13.3533 O   0  0  0  0  0  0  0  0  0  0  0  0
   20.9235  -21.4761  -12.4418 O   0  0  0  0  0  0  0  0  0  0  0  0
  2  3  2  0
  2  1  1  0
  4  2  1  0
  5  4  1  0
  6  5  1  0
  7  6  1  0
  8 10  1  0
  8  7  1  0
  8  9  1  6
 10 11  2  0
 13 14  2  0
 13 12  1  0
 15 14  1  0
 16 15  2  0
 17 16  1  0
 18 17  1  1
 18 20  1  0
 19 10  1  0
 19 18  1  0
 20 29  1  0
 20 21  2  0
 22 16  1  0
 22 23  2  0
 23 13  1  0
 25 24  1  6
 25 27  1  0
 26 25  1  0
 28 27  1  6
 28 30  1  0
 29 28  1  0
 30 32  2  0
 30 31  1  0
M  END
$$$$
