LIC.pdb
     RDKit          3D

 23 22  0  0  1  0  0  0  0  0999 V2000
   18.0687  -13.5598  -19.6605 C   0  0  0  0  0  0  0  0  0  0  0  0
   17.0015  -13.4842  -18.5465 C   0  0  2  0  0  0  0  0  0  0  0  0
   15.7168  -13.1441  -19.2722 C   0  0  0  0  0  0  0  0  0  0  0  0
   17.3535  -12.3972  -17.5751 C   0  0  0  0  0  0  0  0  0  0  0  0
   18.6180  -12.5464  -16.8253 C   0  0  2  0  0  0  0  0  0  0  0  0
   18.5353  -13.7572  -15.9720 N   0  0  0  0  0  0  0  0  0  0  0  0
   19.0850  -11.4550  -15.9928 C   0  0  0  0  0  0  0  0  0  0  0  0
   18.4739  -11.1415  -14.9070 O   0  0  0  0  0  0  0  0  0  0  0  0
   23.7812  -11.1103  -14.1163 C   0  0  0  0  0  0  0  0  0  0  0  0
   22.3233  -10.8296  -14.3489 C   0  0  0  0  0  0  0  0  0  0  0  0
   22.1049   -9.5886  -15.2379 C   0  0  2  0  0  0  0  0  0  0  0  0
   22.7082   -8.3931  -14.5725 C   0  0  0  0  0  0  0  0  0  0  0  0
   20.5862   -9.4873  -15.4077 C   0  0  2  0  0  0  0  0  0  0  0  0
   20.2182  -10.6417  -16.2561 N   0  0  0  0  0  0  0  0  0  0  0  0
   20.1387   -8.2424  -16.0285 C   0  0  0  0  0  0  0  0  0  0  0  0
   20.5005   -7.9797  -17.2197 O   0  0  0  0  0  0  0  0  0  0  0  0
   19.3138   -7.2906  -15.3895 N   0  0  0  0  0  0  0  0  0  0  0  0
   18.9536   -6.0214  -15.9949 C   0  0  1  0  0  0  0  0  0  0  0  0
   17.6309   -6.0214  -16.6848 C   0  0  0  0  0  0  0  0  0  0  0  0
   16.3013   -6.7862  -15.7247 S   0  0  0  0  0  0  0  0  0  0  0  0
   19.0573   -4.9035  -15.0075 C   0  0  0  0  0  0  0  0  0  0  0  0
   19.3327   -5.0789  -13.6764 O   0  0  0  0  0  0  0  0  0  0  0  0
   18.8799   -3.7375  -15.4345 O   0  0  0  0  0  0  0  0  0  0  0  0
  2  1  1  6
  2  3  1  0
  4  5  1  0
  4  2  1  0
  5  7  1  0
  5  6  1  1
  7  8  2  0
  9 10  1  0
 10 11  1  0
 11 13  1  0
 11 12  1  1
 13 14  1  6
 14  7  1  0
 15 16  2  0
 15 13  1  0
 17 15  1  0
 18 17  1  0
 18 21  1  0
 18 19  1  1
 20 19  1  0
 21 22  1  0
 23 21  2  0
M  END
$$$$
