LIC.pdb
     RDKit          3D

 23 22  0  0  1  0  0  0  0  0999 V2000
   23.3746  -15.0960  -21.2547 C   0  0  0  0  0  0  0  0  0  0  0  0
   22.0552  -15.1246  -20.4523 C   0  0  2  0  0  0  0  0  0  0  0  0
   20.9956  -14.6968  -21.4458 C   0  0  0  0  0  0  0  0  0  0  0  0
   22.1273  -14.1483  -19.3161 C   0  0  0  0  0  0  0  0  0  0  0  0
   23.1752  -14.3736  -18.2989 C   0  0  2  0  0  0  0  0  0  0  0  0
   22.8895  -15.6403  -17.5814 N   0  0  0  0  0  0  0  0  0  0  0  0
   23.4299  -13.3529  -17.3012 C   0  0  0  0  0  0  0  0  0  0  0  0
   22.6477  -13.2019  -16.2931 O   0  0  0  0  0  0  0  0  0  0  0  0
   28.0569  -12.8724  -15.2756 C   0  0  0  0  0  0  0  0  0  0  0  0
   26.5711  -12.6902  -15.4084 C   0  0  0  0  0  0  0  0  0  0  0  0
   26.2061  -11.3297  -16.0361 C   0  0  2  0  0  0  0  0  0  0  0  0
   26.6081  -10.2325  -15.1031 C   0  0  0  0  0  0  0  0  0  0  0  0
   24.6952  -11.3990  -16.2768 C   0  0  2  0  0  0  0  0  0  0  0  0
   24.5197  -12.4434  -17.3095 N   0  0  0  0  0  0  0  0  0  0  0  0
   24.1062  -10.1401  -16.7279 C   0  0  0  0  0  0  0  0  0  0  0  0
   24.3247   -9.7455  -17.9176 O   0  0  0  0  0  0  0  0  0  0  0  0
   23.2924   -9.3130  -15.9226 N   0  0  0  0  0  0  0  0  0  0  0  0
   22.6785   -8.0910  -16.4094 C   0  0  1  0  0  0  0  0  0  0  0  0
   21.6151   -8.3018  -17.4343 C   0  0  0  0  0  0  0  0  0  0  0  0
   20.5974   -6.8391  -17.7490 S   0  0  0  0  0  0  0  0  0  0  0  0
   22.1897   -7.2445  -15.2781 C   0  0  0  0  0  0  0  0  0  0  0  0
   22.0666   -7.6867  -13.9867 O   0  0  0  0  0  0  0  0  0  0  0  0
   21.8761   -6.0581  -15.5380 O   0  0  0  0  0  0  0  0  0  0  0  0
  2  1  1  6
  2  3  1  0
  4  5  1  0
  4  2  1  0
  5  7  1  0
  5  6  1  1
  7  8  2  0
  9 10  1  0
 10 11  1  0
 11 13  1  0
 11 12  1  1
 13 14  1  6
 14  7  1  0
 15 16  2  0
 15 13  1  0
 17 15  1  0
 18 17  1  0
 18 21  1  0
 18 19  1  6
 20 19  1  0
 21 22  1  0
 23 21  2  0
M  END
$$$$
