LIC.pdb
     RDKit          3D

 23 22  0  0  1  0  0  0  0  0999 V2000
   28.9848  -17.7934  -15.8243 C   0  0  0  0  0  0  0  0  0  0  0  0
   28.0824  -18.6323  -16.7558 C   0  0  2  0  0  0  0  0  0  0  0  0
   27.4415  -17.6183  -17.6799 C   0  0  0  0  0  0  0  0  0  0  0  0
   27.0326  -19.3379  -15.9499 C   0  0  0  0  0  0  0  0  0  0  0  0
   27.4989  -20.3020  -14.9318 C   0  0  2  0  0  0  0  0  0  0  0  0
   28.2183  -21.4098  -15.6071 N   0  0  0  0  0  0  0  0  0  0  0  0
   26.5395  -20.8943  -14.0202 C   0  0  0  0  0  0  0  0  0  0  0  0
   25.9043  -21.9668  -14.3316 O   0  0  0  0  0  0  0  0  0  0  0  0
   27.1403  -20.7764   -8.7964 C   0  0  0  0  0  0  0  0  0  0  0  0
   26.5387  -21.2914  -10.0736 C   0  0  0  0  0  0  0  0  0  0  0  0
   25.3180  -20.4602  -10.5177 C   0  0  2  0  0  0  0  0  0  0  0  0
   24.1747  -20.7301   -9.5925 C   0  0  0  0  0  0  0  0  0  0  0  0
   25.0475  -20.8966  -11.9606 C   0  0  2  0  0  0  0  0  0  0  0  0
   26.2025  -20.3933  -12.7356 N   0  0  0  0  0  0  0  0  0  0  0  0
   23.8012  -20.3740  -12.5165 C   0  0  0  0  0  0  0  0  0  0  0  0
   23.6989  -19.1259  -12.7412 O   0  0  0  0  0  0  0  0  0  0  0  0
   22.6788  -21.1714  -12.8317 N   0  0  0  0  0  0  0  0  0  0  0  0
   21.4745  -20.6376  -13.4413 C   0  0  1  0  0  0  0  0  0  0  0  0
   21.2246  -21.1152  -14.8324 C   0  0  0  0  0  0  0  0  0  0  0  0
   21.5347  -22.8821  -15.0698 S   0  0  0  0  0  0  0  0  0  0  0  0
   20.2833  -20.8554  -12.5644 C   0  0  0  0  0  0  0  0  0  0  0  0
   20.2812  -21.6691  -11.4615 O   0  0  0  0  0  0  0  0  0  0  0  0
   19.2261  -20.2511  -12.8656 O   0  0  0  0  0  0  0  0  0  0  0  0
  2  1  1  1
  2  3  1  0
  4  5  1  0
  4  2  1  0
  5  7  1  0
  5  6  1  6
  7  8  2  0
  9 10  1  0
 10 11  1  0
 11 13  1  0
 11 12  1  1
 13 14  1  6
 14  7  1  0
 15 16  2  0
 15 13  1  0
 17 15  1  0
 18 17  1  0
 18 21  1  0
 18 19  1  6
 20 19  1  0
 21 22  1  0
 23 21  2  0
M  END
$$$$
