LIC.pdb
     RDKit          3D

 23 22  0  0  1  0  0  0  0  0999 V2000
   27.7536  -11.1532  -20.2785 C   0  0  0  0  0  0  0  0  0  0  0  0
   26.5089  -11.4940  -21.1272 C   0  0  2  0  0  0  0  0  0  0  0  0
   26.6358  -10.6204  -22.3574 C   0  0  0  0  0  0  0  0  0  0  0  0
   25.2628  -11.1462  -20.3686 C   0  0  0  0  0  0  0  0  0  0  0  0
   25.0629  -11.8057  -19.0614 C   0  0  2  0  0  0  0  0  0  0  0  0
   24.8787  -13.2620  -19.2767 N   0  0  0  0  0  0  0  0  0  0  0  0
   23.9949  -11.3529  -18.1916 C   0  0  0  0  0  0  0  0  0  0  0  0
   22.7722  -11.3570  -18.5864 O   0  0  0  0  0  0  0  0  0  0  0  0
   22.5842  -13.6099  -14.0960 C   0  0  0  0  0  0  0  0  0  0  0  0
   22.5444  -12.6121  -15.2190 C   0  0  0  0  0  0  0  0  0  0  0  0
   23.0434  -11.2210  -14.7784 C   0  0  2  0  0  0  0  0  0  0  0  0
   22.1473  -10.6934  -13.7038 C   0  0  0  0  0  0  0  0  0  0  0  0
   23.0260  -10.3735  -16.0539 C   0  0  2  0  0  0  0  0  0  0  0  0
   24.1563  -10.8777  -16.8638 N   0  0  0  0  0  0  0  0  0  0  0  0
   23.1757   -8.9393  -15.8174 C   0  0  0  0  0  0  0  0  0  0  0  0
   24.2750   -8.5002  -15.3510 O   0  0  0  0  0  0  0  0  0  0  0  0
   22.1680   -7.9843  -16.0770 N   0  0  0  0  0  0  0  0  0  0  0  0
   22.3083   -6.5767  -15.7515 C   0  0  1  0  0  0  0  0  0  0  0  0
   22.2001   -5.6598  -16.9233 C   0  0  0  0  0  0  0  0  0  0  0  0
   22.0959   -3.9087  -16.4791 S   0  0  0  0  0  0  0  0  0  0  0  0
   21.3714   -6.1798  -14.6561 C   0  0  0  0  0  0  0  0  0  0  0  0
   20.2800   -6.9164  -14.2758 O   0  0  0  0  0  0  0  0  0  0  0  0
   21.6083   -5.1048  -14.0546 O   0  0  0  0  0  0  0  0  0  0  0  0
  2  1  1  1
  2  3  1  0
  4  5  1  0
  4  2  1  0
  5  7  1  0
  5  6  1  6
  7  8  2  0
  9 10  1  0
 10 11  1  0
 11 13  1  0
 11 12  1  1
 13 14  1  6
 14  7  1  0
 15 16  2  0
 15 13  1  0
 17 15  1  0
 18 17  1  0
 18 21  1  0
 18 19  1  6
 20 19  1  0
 21 22  1  0
 23 21  2  0
M  END
$$$$
