LIC.pdb
     RDKit          3D

 23 22  0  0  1  0  0  0  0  0999 V2000
   29.0936  -20.6412   -4.7785 C   0  0  0  0  0  0  0  0  0  0  0  0
   27.8243  -19.7614   -4.7518 C   0  0  2  0  0  0  0  0  0  0  0  0
   27.1052  -20.1684   -3.4830 C   0  0  0  0  0  0  0  0  0  0  0  0
   26.9726  -20.0575   -5.9502 C   0  0  0  0  0  0  0  0  0  0  0  0
   27.5825  -19.8471   -7.2796 C   0  0  2  0  0  0  0  0  0  0  0  0
   28.4271  -18.6282   -7.2377 N   0  0  0  0  0  0  0  0  0  0  0  0
   26.7283  -19.7482   -8.4470 C   0  0  0  0  0  0  0  0  0  0  0  0
   26.2157  -18.6241   -8.7996 O   0  0  0  0  0  0  0  0  0  0  0  0
   29.1907  -21.3220  -12.1637 C   0  0  0  0  0  0  0  0  0  0  0  0
   28.0853  -20.6210  -11.4256 C   0  0  0  0  0  0  0  0  0  0  0  0
   26.7248  -21.3225  -11.6134 C   0  0  2  0  0  0  0  0  0  0  0  0
   26.3035  -21.2063  -13.0435 C   0  0  0  0  0  0  0  0  0  0  0  0
   25.7775  -20.6127  -10.6417 C   0  0  2  0  0  0  0  0  0  0  0  0
   26.3735  -20.8225   -9.3043 N   0  0  0  0  0  0  0  0  0  0  0  0
   24.4076  -21.1206  -10.6684 C   0  0  0  0  0  0  0  0  0  0  0  0
   24.1625  -22.2667  -10.1733 O   0  0  0  0  0  0  0  0  0  0  0  0
   23.3119  -20.4153  -11.2133 N   0  0  0  0  0  0  0  0  0  0  0  0
   21.9668  -20.9586  -11.2641 C   0  0  1  0  0  0  0  0  0  0  0  0
   20.8973  -19.9925  -10.8788 C   0  0  0  0  0  0  0  0  0  0  0  0
   21.5203  -18.3746  -10.3609 S   0  0  0  0  0  0  0  0  0  0  0  0
   21.6874  -21.5853  -12.5925 C   0  0  0  0  0  0  0  0  0  0  0  0
   20.6584  -22.4597  -12.8268 O   0  0  0  0  0  0  0  0  0  0  0  0
   22.4476  -21.2851  -13.5441 O   0  0  0  0  0  0  0  0  0  0  0  0
  2  1  1  6
  2  3  1  0
  4  5  1  0
  4  2  1  0
  5  7  1  0
  5  6  1  1
  7  8  2  0
  9 10  1  0
 10 11  1  0
 11 13  1  0
 11 12  1  6
 13 14  1  1
 14  7  1  0
 15 16  2  0
 15 13  1  0
 17 15  1  0
 18 17  1  0
 18 21  1  0
 18 19  1  6
 20 19  1  0
 21 22  1  0
 23 21  2  0
M  END
$$$$
