LIC.pdb
     RDKit          3D

 23 22  0  0  1  0  0  0  0  0999 V2000
   21.2939  -22.9012  -11.4835 C   0  0  0  0  0  0  0  0  0  0  0  0
   21.0118  -21.5574  -10.7761 C   0  0  2  0  0  0  0  0  0  0  0  0
   19.7052  -21.0793  -11.3736 C   0  0  0  0  0  0  0  0  0  0  0  0
   22.1097  -20.5812  -11.0778 C   0  0  0  0  0  0  0  0  0  0  0  0
   23.4755  -20.9492  -10.6504 C   0  0  2  0  0  0  0  0  0  0  0  0
   23.5615  -20.8583   -9.1721 N   0  0  0  0  0  0  0  0  0  0  0  0
   24.6104  -20.2335  -11.2000 C   0  0  0  0  0  0  0  0  0  0  0  0
   24.9683  -19.0944  -10.7256 O   0  0  0  0  0  0  0  0  0  0  0  0
   29.1976  -21.8520  -10.9178 C   0  0  0  0  0  0  0  0  0  0  0  0
   28.0333  -20.9451  -11.2008 C   0  0  0  0  0  0  0  0  0  0  0  0
   27.7730  -20.7879  -12.7127 C   0  0  2  0  0  0  0  0  0  0  0  0
   28.9906  -20.2160  -13.3657 C   0  0  0  0  0  0  0  0  0  0  0  0
   26.5469  -19.8752  -12.8091 C   0  0  2  0  0  0  0  0  0  0  0  0
   25.4281  -20.6794  -12.2712 N   0  0  0  0  0  0  0  0  0  0  0  0
   26.2411  -19.4311  -14.1673 C   0  0  0  0  0  0  0  0  0  0  0  0
   25.7657  -20.2676  -14.9998 O   0  0  0  0  0  0  0  0  0  0  0  0
   26.4367  -18.1118  -14.6320 N   0  0  0  0  0  0  0  0  0  0  0  0
   26.1485  -17.7013  -15.9942 C   0  0  1  0  0  0  0  0  0  0  0  0
   26.0467  -16.2251  -16.1842 C   0  0  0  0  0  0  0  0  0  0  0  0
   25.9523  -15.7120  -17.9169 S   0  0  0  0  0  0  0  0  0  0  0  0
   27.1136  -18.3132  -16.9583 C   0  0  0  0  0  0  0  0  0  0  0  0
   28.4736  -18.3099  -16.7884 O   0  0  0  0  0  0  0  0  0  0  0  0
   26.6386  -18.8608  -17.9820 O   0  0  0  0  0  0  0  0  0  0  0  0
  2  1  1  6
  2  3  1  0
  4  5  1  0
  4  2  1  0
  5  7  1  0
  5  6  1  1
  7  8  2  0
  9 10  1  0
 10 11  1  0
 11 13  1  0
 11 12  1  6
 13 14  1  6
 14  7  1  0
 15 16  2  0
 15 13  1  0
 17 15  1  0
 18 17  1  0
 18 21  1  0
 18 19  1  1
 20 19  1  0
 21 22  1  0
 23 21  2  0
M  END
$$$$
