LIC.pdb
     RDKit          3D

 23 22  0  0  1  0  0  0  0  0999 V2000
   20.9888  -17.4803  -18.1807 C   0  0  0  0  0  0  0  0  0  0  0  0
   20.2382  -17.2426  -16.8519 C   0  0  2  0  0  0  0  0  0  0  0  0
   18.7851  -17.1042  -17.2545 C   0  0  0  0  0  0  0  0  0  0  0  0
   20.7231  -15.9763  -16.2110 C   0  0  0  0  0  0  0  0  0  0  0  0
   22.1475  -15.9202  -15.8216 C   0  0  2  0  0  0  0  0  0  0  0  0
   22.4407  -17.0404  -14.8942 N   0  0  0  0  0  0  0  0  0  0  0  0
   22.6752  -14.7084  -15.2255 C   0  0  0  0  0  0  0  0  0  0  0  0
   22.3570  -14.3658  -14.0287 O   0  0  0  0  0  0  0  0  0  0  0  0
   27.6173  -13.6656  -15.4076 C   0  0  0  0  0  0  0  0  0  0  0  0
   26.1791  -13.5755  -14.9815 C   0  0  0  0  0  0  0  0  0  0  0  0
   25.4609  -12.3651  -15.6120 C   0  0  2  0  0  0  0  0  0  0  0  0
   26.0736  -11.1034  -15.0938 C   0  0  0  0  0  0  0  0  0  0  0  0
   23.9897  -12.5313  -15.2200 C   0  0  2  0  0  0  0  0  0  0  0  0
   23.5657  -13.7989  -15.8536 N   0  0  0  0  0  0  0  0  0  0  0  0
   23.1293  -11.4353  -15.6601 C   0  0  0  0  0  0  0  0  0  0  0  0
   22.7486  -11.3960  -16.8735 O   0  0  0  0  0  0  0  0  0  0  0  0
   22.6777  -10.3955  -14.8176 N   0  0  0  0  0  0  0  0  0  0  0  0
   21.7881   -9.3409  -15.2686 C   0  0  1  0  0  0  0  0  0  0  0  0
   20.3650   -9.7603  -15.4249 C   0  0  0  0  0  0  0  0  0  0  0  0
   19.2071   -8.3807  -15.5985 S   0  0  0  0  0  0  0  0  0  0  0  0
   21.9103   -8.1258  -14.4061 C   0  0  0  0  0  0  0  0  0  0  0  0
   21.4387   -6.8871  -14.7548 O   0  0  0  0  0  0  0  0  0  0  0  0
   22.4811   -8.2597  -13.2972 O   0  0  0  0  0  0  0  0  0  0  0  0
  2  1  1  6
  2  3  1  0
  4  5  1  0
  4  2  1  0
  5  7  1  0
  5  6  1  1
  7  8  2  0
  9 10  1  0
 10 11  1  0
 11 13  1  0
 11 12  1  1
 13 14  1  6
 14  7  1  0
 15 16  2  0
 15 13  1  0
 17 15  1  0
 18 17  1  0
 18 21  1  0
 18 19  1  1
 20 19  1  0
 21 22  1  0
 23 21  2  0
M  END
$$$$
