LIC.pdb
     RDKit          3D

 23 22  0  0  1  0  0  0  0  0999 V2000
   29.1880  -17.5701  -15.9402 C   0  0  0  0  0  0  0  0  0  0  0  0
   27.6613  -17.3384  -15.9726 C   0  0  2  0  0  0  0  0  0  0  0  0
   27.4085  -16.3131  -14.8874 C   0  0  0  0  0  0  0  0  0  0  0  0
   26.9439  -18.6172  -15.6571 C   0  0  0  0  0  0  0  0  0  0  0  0
   27.5555  -19.5010  -14.6431 C   0  0  2  0  0  0  0  0  0  0  0  0
   28.5628  -20.3689  -15.3013 N   0  0  0  0  0  0  0  0  0  0  0  0
   26.7048  -20.3526  -13.8349 C   0  0  0  0  0  0  0  0  0  0  0  0
   26.4046  -21.5424  -14.2158 O   0  0  0  0  0  0  0  0  0  0  0  0
   26.9070  -20.4201   -8.5835 C   0  0  0  0  0  0  0  0  0  0  0  0
   26.5283  -20.9874   -9.9225 C   0  0  0  0  0  0  0  0  0  0  0  0
   25.1861  -20.4253  -10.4334 C   0  0  2  0  0  0  0  0  0  0  0  0
   24.0713  -20.9857   -9.6093 C   0  0  0  0  0  0  0  0  0  0  0  0
   25.1200  -20.8394  -11.9063 C   0  0  2  0  0  0  0  0  0  0  0  0
   26.1306  -19.9997  -12.5857 N   0  0  0  0  0  0  0  0  0  0  0  0
   23.8083  -20.6457  -12.5206 C   0  0  0  0  0  0  0  0  0  0  0  0
   23.3823  -19.4619  -12.7102 O   0  0  0  0  0  0  0  0  0  0  0  0
   22.9622  -21.6997  -12.9303 N   0  0  0  0  0  0  0  0  0  0  0  0
   21.6452  -21.4818  -13.5004 C   0  0  1  0  0  0  0  0  0  0  0  0
   21.2745  -22.4426  -14.5798 C   0  0  0  0  0  0  0  0  0  0  0  0
   19.5318  -22.3703  -15.0615 S   0  0  0  0  0  0  0  0  0  0  0  0
   20.5983  -21.4238  -12.4345 C   0  0  0  0  0  0  0  0  0  0  0  0
   20.4924  -22.3317  -11.4132 O   0  0  0  0  0  0  0  0  0  0  0  0
   19.7713  -20.4822  -12.4878 O   0  0  0  0  0  0  0  0  0  0  0  0
  2  1  1  1
  2  3  1  0
  4  5  1  0
  4  2  1  0
  5  7  1  0
  5  6  1  6
  7  8  2  0
  9 10  1  0
 10 11  1  0
 11 13  1  0
 11 12  1  1
 13 14  1  6
 14  7  1  0
 15 16  2  0
 15 13  1  0
 17 15  1  0
 18 17  1  0
 18 21  1  0
 18 19  1  6
 20 19  1  0
 21 22  1  0
 23 21  2  0
M  END
$$$$
