LIC.pdb
     RDKit          3D

 23 22  0  0  1  0  0  0  0  0999 V2000
   18.8055  -10.6951  -13.8255 C   0  0  0  0  0  0  0  0  0  0  0  0
   17.5194  -10.5089  -14.6603 C   0  0  2  0  0  0  0  0  0  0  0  0
   18.0101  -10.0660  -16.0225 C   0  0  0  0  0  0  0  0  0  0  0  0
   16.6612   -9.4438  -14.0451 C   0  0  0  0  0  0  0  0  0  0  0  0
   16.1295   -9.7046  -12.6913 C   0  0  2  0  0  0  0  0  0  0  0  0
   15.2554  -10.9025  -12.7365 N   0  0  0  0  0  0  0  0  0  0  0  0
   15.4033   -8.6585  -11.9980 C   0  0  0  0  0  0  0  0  0  0  0  0
   14.3014   -8.1938  -12.4677 O   0  0  0  0  0  0  0  0  0  0  0  0
   13.3418   -8.7811   -7.3931 C   0  0  0  0  0  0  0  0  0  0  0  0
   13.6714   -8.2551   -8.7616 C   0  0  0  0  0  0  0  0  0  0  0  0
   14.8463   -7.2566   -8.7331 C   0  0  2  0  0  0  0  0  0  0  0  0
   14.4771   -6.0852   -7.8802 C   0  0  0  0  0  0  0  0  0  0  0  0
   15.0864   -6.8880  -10.2001 C   0  0  2  0  0  0  0  0  0  0  0  0
   15.7949   -8.0516  -10.7761 N   0  0  0  0  0  0  0  0  0  0  0  0
   15.8772   -5.6734  -10.3866 C   0  0  0  0  0  0  0  0  0  0  0  0
   17.0912   -5.6606  -10.0061 O   0  0  0  0  0  0  0  0  0  0  0  0
   15.3819   -4.4882  -10.9736 N   0  0  0  0  0  0  0  0  0  0  0  0
   16.1745   -3.2794  -11.1067 C   0  0  1  0  0  0  0  0  0  0  0  0
   16.5207   -2.9215  -12.5130 C   0  0  0  0  0  0  0  0  0  0  0  0
   16.9594   -4.3410  -13.5459 S   0  0  0  0  0  0  0  0  0  0  0  0
   15.5355   -2.1331  -10.3904 C   0  0  0  0  0  0  0  0  0  0  0  0
   16.1683   -0.9473  -10.1225 O   0  0  0  0  0  0  0  0  0  0  0  0
   14.3468   -2.2762  -10.0163 O   0  0  0  0  0  0  0  0  0  0  0  0
  2  1  1  1
  2  3  1  0
  4  5  1  0
  4  2  1  0
  5  7  1  0
  5  6  1  6
  7  8  2  0
  9 10  1  0
 10 11  1  0
 11 13  1  0
 11 12  1  1
 13 14  1  1
 14  7  1  0
 15 16  2  0
 15 13  1  0
 17 15  1  0
 18 17  1  0
 18 21  1  0
 18 19  1  6
 20 19  1  0
 21 22  1  0
 23 21  2  0
M  END
$$$$
