LIC.pdb
     RDKit          3D

 23 22  0  0  1  0  0  0  0  0999 V2000
   22.1760  -22.5999   -8.8206 C   0  0  0  0  0  0  0  0  0  0  0  0
   22.3363  -21.1700   -8.2591 C   0  0  2  0  0  0  0  0  0  0  0  0
   20.9223  -20.6361   -8.1671 C   0  0  0  0  0  0  0  0  0  0  0  0
   23.1461  -20.3368   -9.2074 C   0  0  0  0  0  0  0  0  0  0  0  0
   24.5486  -20.7435   -9.4335 C   0  0  2  0  0  0  0  0  0  0  0  0
   25.3056  -20.5982   -8.1659 N   0  0  0  0  0  0  0  0  0  0  0  0
   25.3174  -20.0974  -10.4793 C   0  0  0  0  0  0  0  0  0  0  0  0
   25.8041  -18.9201  -10.3127 O   0  0  0  0  0  0  0  0  0  0  0  0
   29.7365  -21.1944  -11.5621 C   0  0  0  0  0  0  0  0  0  0  0  0
   28.4372  -20.4414  -11.6183 C   0  0  0  0  0  0  0  0  0  0  0  0
   27.6854  -20.6777  -12.9439 C   0  0  2  0  0  0  0  0  0  0  0  0
   28.5235  -20.1860  -14.0805 C   0  0  0  0  0  0  0  0  0  0  0  0
   26.3651  -19.9170  -12.7896 C   0  0  2  0  0  0  0  0  0  0  0  0
   25.6170  -20.6560  -11.7493 N   0  0  0  0  0  0  0  0  0  0  0  0
   25.5767  -19.8384  -14.0175 C   0  0  0  0  0  0  0  0  0  0  0  0
   25.0566  -20.8999  -14.4882 O   0  0  0  0  0  0  0  0  0  0  0  0
   25.3430  -18.6436  -14.7335 N   0  0  0  0  0  0  0  0  0  0  0  0
   24.6053  -18.6007  -15.9829 C   0  0  1  0  0  0  0  0  0  0  0  0
   24.3178  -17.2244  -16.4815 C   0  0  0  0  0  0  0  0  0  0  0  0
   23.4867  -17.1835  -18.0883 S   0  0  0  0  0  0  0  0  0  0  0  0
   25.2684  -19.4363  -17.0305 C   0  0  0  0  0  0  0  0  0  0  0  0
   26.5906  -19.3282  -17.3744 O   0  0  0  0  0  0  0  0  0  0  0  0
   24.5618  -20.2855  -17.6247 O   0  0  0  0  0  0  0  0  0  0  0  0
  2  1  1  6
  2  3  1  0
  4  5  1  0
  4  2  1  0
  5  7  1  0
  5  6  1  1
  7  8  2  0
  9 10  1  0
 10 11  1  0
 11 13  1  0
 11 12  1  6
 13 14  1  1
 14  7  1  0
 15 16  2  0
 15 13  1  0
 17 15  1  0
 18 17  1  0
 18 21  1  0
 18 19  1  6
 20 19  1  0
 21 22  1  0
 23 21  2  0
M  END
$$$$
