YHQ.pdb
     RDKit          3D

 32 33  0  0  1  0  0  0  0  0999 V2000
    8.3714  -11.7040   22.0764 O   0  0  0  0  0  0  0  0  0  0  0  0
    7.9407  -12.8540   21.4546 C   0  0  0  0  0  0  0  0  0  0  0  0
    7.9857  -12.9326   20.0797 C   0  0  0  0  0  0  0  0  0  0  0  0
    7.5533  -14.0859   19.4646 C   0  0  0  0  0  0  0  0  0  0  0  0
    7.0889  -15.1295   20.2118 C   0  0  0  0  0  0  0  0  0  0  0  0
    6.6202  -16.3573   19.5515 C   0  0  0  0  0  0  0  0  0  0  0  0
    7.6918  -17.1592   18.8778 C   0  0  2  0  0  0  0  0  0  0  0  0
    7.0453  -18.3514   18.3240 N   0  0  0  0  0  0  0  0  0  0  0  0
    8.6604  -17.6257   19.8925 C   0  0  0  0  0  0  0  0  0  0  0  0
    8.3963  -18.5523   20.7065 O   0  0  0  0  0  0  0  0  0  0  0  0
    7.0395  -15.0622   21.5860 C   0  0  0  0  0  0  0  0  0  0  0  0
    7.4696  -13.9129   22.2142 C   0  0  0  0  0  0  0  0  0  0  0  0
    9.9852  -17.0444   20.0185 N   0  0  0  0  0  0  0  0  0  0  0  0
   10.8847  -17.4527   21.0471 C   0  0  1  0  0  0  0  0  0  0  0  0
   12.2540  -17.6357   20.5318 C   0  0  0  0  0  0  0  0  0  0  0  0
   12.4818  -18.7370   19.6017 C   0  0  0  0  0  0  0  0  0  0  0  0
   11.7374  -19.7592   19.1136 C   0  0  0  0  0  0  0  0  0  0  0  0
   12.4390  -20.5193   18.2232 N   0  0  0  0  0  0  0  0  0  0  0  0
   13.6467  -19.9340   18.1735 C   0  0  0  0  0  0  0  0  0  0  0  0
   13.6984  -18.8714   18.9841 N   0  0  0  0  0  0  0  0  0  0  0  0
   10.8172  -16.5692   22.2437 C   0  0  0  0  0  0  0  0  0  0  0  0
   10.5812  -15.3459   22.1932 O   0  0  0  0  0  0  0  0  0  0  0  0
    6.1264  -17.5845   25.0988 N   0  0  0  0  0  0  0  0  0  0  0  0
    6.6773  -16.2946   25.2923 C   0  0  0  0  0  0  0  0  0  0  0  0
    6.0020  -15.2412   25.1808 O   0  0  0  0  0  0  0  0  0  0  0  0
    8.0980  -16.2101   25.6353 C   0  0  0  0  0  0  0  0  0  0  0  0
    8.9618  -16.6816   24.5285 C   0  0  0  0  0  0  0  0  0  0  0  0
   10.4477  -16.5146   24.7222 C   0  0  2  0  0  0  0  0  0  0  0  0
   11.0337  -17.1524   23.5138 N   0  0  0  0  0  0  0  0  0  0  0  0
   10.8510  -17.2645   25.9283 C   0  0  0  0  0  0  0  0  0  0  0  0
   10.7033  -16.8187   27.0983 O   0  0  0  0  0  0  0  0  0  0  0  0
   11.4163  -18.5172   25.7665 O   0  0  0  0  0  0  0  0  0  0  0  0
  2  1  1  0
  2  3  2  0
  4  3  1  0
  5  4  2  0
  6  7  1  0
  6  5  1  0
  7  8  1  1
  9  7  1  0
  9 13  1  0
 10  9  2  0
 11 12  2  0
 11  5  1  0
 12  2  1  0
 14 15  1  6
 14 13  1  0
 16 15  1  0
 16 17  2  0
 18 17  1  0
 19 18  1  0
 20 19  2  0
 20 16  1  0
 21 14  1  0
 22 21  2  0
 23 24  1  0
 24 26  1  0
 24 25  2  0
 26 27  1  0
 28 27  1  6
 28 30  1  0
 28 29  1  0
 29 21  1  0
 30 32  1  0
 31 30  2  0
M  END
$$$$
