YHQ.pdb
     RDKit          3D

 32 33  0  0  1  0  0  0  0  0999 V2000
    7.3555  -11.3584   28.8821 O   0  0  0  0  0  0  0  0  0  0  0  0
    7.1446  -11.9555   27.6600 C   0  0  0  0  0  0  0  0  0  0  0  0
    8.2291  -12.3655   26.9155 C   0  0  0  0  0  0  0  0  0  0  0  0
    8.0106  -12.9619   25.6941 C   0  0  0  0  0  0  0  0  0  0  0  0
    6.7374  -13.1403   25.2354 C   0  0  0  0  0  0  0  0  0  0  0  0
    6.5073  -13.7706   23.9266 C   0  0  0  0  0  0  0  0  0  0  0  0
    6.2214  -15.2407   23.9765 C   0  0  2  0  0  0  0  0  0  0  0  0
    6.3449  -15.6499   25.3778 N   0  0  0  0  0  0  0  0  0  0  0  0
    7.2660  -15.9650   23.2219 C   0  0  0  0  0  0  0  0  0  0  0  0
    8.1021  -16.7259   23.7813 O   0  0  0  0  0  0  0  0  0  0  0  0
    5.6464  -12.7349   25.9707 C   0  0  0  0  0  0  0  0  0  0  0  0
    5.8516  -12.1364   27.1955 C   0  0  0  0  0  0  0  0  0  0  0  0
    7.3979  -15.8468   21.7805 N   0  0  0  0  0  0  0  0  0  0  0  0
    8.4151  -16.5442   21.0644 C   0  0  1  0  0  0  0  0  0  0  0  0
    8.3737  -16.2374   19.6228 C   0  0  0  0  0  0  0  0  0  0  0  0
    9.2627  -16.9945   18.7475 C   0  0  0  0  0  0  0  0  0  0  0  0
   10.1323  -18.0217   18.9082 C   0  0  0  0  0  0  0  0  0  0  0  0
   10.7132  -18.3856   17.7280 N   0  0  0  0  0  0  0  0  0  0  0  0
   10.1743  -17.5490   16.8263 C   0  0  0  0  0  0  0  0  0  0  0  0
    9.3080  -16.7114   17.4068 N   0  0  0  0  0  0  0  0  0  0  0  0
    9.7631  -16.3595   21.6691 C   0  0  0  0  0  0  0  0  0  0  0  0
   10.2482  -15.2489   21.9621 O   0  0  0  0  0  0  0  0  0  0  0  0
   11.2513  -19.6102   26.1030 N   0  0  0  0  0  0  0  0  0  0  0  0
   12.5796  -19.1538   25.9240 C   0  0  0  0  0  0  0  0  0  0  0  0
   13.5029  -19.4071   26.7375 O   0  0  0  0  0  0  0  0  0  0  0  0
   12.8650  -18.3526   24.7325 C   0  0  0  0  0  0  0  0  0  0  0  0
   11.6593  -18.1624   23.8937 C   0  0  0  0  0  0  0  0  0  0  0  0
   11.8472  -17.3754   22.6214 C   0  0  2  0  0  0  0  0  0  0  0  0
   10.5399  -17.5128   21.9268 N   0  0  0  0  0  0  0  0  0  0  0  0
   12.9078  -18.0209   21.8225 C   0  0  0  0  0  0  0  0  0  0  0  0
   12.6847  -18.9610   21.0126 O   0  0  0  0  0  0  0  0  0  0  0  0
   14.2082  -17.5710   21.9686 O   0  0  0  0  0  0  0  0  0  0  0  0
  2  1  1  0
  2  3  2  0
  4  3  1  0
  5  4  2  0
  6  7  1  0
  6  5  1  0
  7  8  1  1
  9  7  1  0
  9 13  1  0
 10  9  2  0
 11 12  2  0
 11  5  1  0
 12  2  1  0
 14 15  1  6
 14 13  1  0
 16 15  1  0
 16 17  2  0
 18 17  1  0
 19 18  1  0
 20 19  2  0
 20 16  1  0
 21 14  1  0
 22 21  2  0
 23 24  1  0
 24 26  1  0
 24 25  2  0
 26 27  1  0
 28 27  1  1
 28 30  1  0
 28 29  1  0
 29 21  1  0
 30 32  1  0
 31 30  2  0
M  END
$$$$
