YHQ.pdb
     RDKit          3D

 32 33  0  0  1  0  0  0  0  0999 V2000
    8.8388  -13.3779   27.8769 O   0  0  0  0  0  0  0  0  0  0  0  0
    8.2161  -14.0336   26.8392 C   0  0  0  0  0  0  0  0  0  0  0  0
    8.1149  -15.4073   26.8756 C   0  0  0  0  0  0  0  0  0  0  0  0
    7.4908  -16.0565   25.8343 C   0  0  0  0  0  0  0  0  0  0  0  0
    6.9836  -15.3435   24.7866 C   0  0  0  0  0  0  0  0  0  0  0  0
    6.3244  -16.0404   23.6717 C   0  0  0  0  0  0  0  0  0  0  0  0
    7.1934  -16.2765   22.4741 C   0  0  2  0  0  0  0  0  0  0  0  0
    6.3746  -16.9872   21.4887 N   0  0  0  0  0  0  0  0  0  0  0  0
    8.3009  -17.1815   22.8479 C   0  0  0  0  0  0  0  0  0  0  0  0
    8.1488  -18.4286   22.9607 O   0  0  0  0  0  0  0  0  0  0  0  0
    7.0788  -13.9710   24.7396 C   0  0  0  0  0  0  0  0  0  0  0  0
    7.7013  -13.3088   25.7762 C   0  0  0  0  0  0  0  0  0  0  0  0
    9.6423  -16.6910   23.1108 N   0  0  0  0  0  0  0  0  0  0  0  0
   10.7043  -17.5748   23.4636 C   0  0  1  0  0  0  0  0  0  0  0  0
   11.9019  -17.3450   22.6346 C   0  0  0  0  0  0  0  0  0  0  0  0
   11.7175  -17.2814   21.1884 C   0  0  0  0  0  0  0  0  0  0  0  0
   10.6629  -17.1034   20.3556 C   0  0  0  0  0  0  0  0  0  0  0  0
   11.0445  -17.1008   19.0452 N   0  0  0  0  0  0  0  0  0  0  0  0
   12.3743  -17.2830   19.0912 C   0  0  0  0  0  0  0  0  0  0  0  0
   12.7999  -17.3932   20.3544 N   0  0  0  0  0  0  0  0  0  0  0  0
   10.9875  -17.5667   24.9253 C   0  0  0  0  0  0  0  0  0  0  0  0
   10.8794  -16.5575   25.6496 O   0  0  0  0  0  0  0  0  0  0  0  0
    9.9752  -15.1786   29.1248 N   0  0  0  0  0  0  0  0  0  0  0  0
   11.2351  -15.8074   29.2738 C   0  0  0  0  0  0  0  0  0  0  0  0
   12.2574  -15.1985   29.6767 O   0  0  0  0  0  0  0  0  0  0  0  0
   11.3259  -17.2290   28.9363 C   0  0  0  0  0  0  0  0  0  0  0  0
   11.3613  -17.4473   27.4719 C   0  0  0  0  0  0  0  0  0  0  0  0
   11.4398  -18.8808   27.0112 C   0  0  2  0  0  0  0  0  0  0  0  0
   11.4041  -18.7761   25.5286 N   0  0  0  0  0  0  0  0  0  0  0  0
   10.2395  -19.5943   27.4908 C   0  0  0  0  0  0  0  0  0  0  0  0
   10.2221  -20.2799   28.5487 O   0  0  0  0  0  0  0  0  0  0  0  0
    9.0779  -19.5045   26.7441 O   0  0  0  0  0  0  0  0  0  0  0  0
  2  1  1  0
  2  3  2  0
  4  3  1  0
  5  4  2  0
  6  7  1  0
  6  5  1  0
  7  8  1  6
  9  7  1  0
  9 13  1  0
 10  9  2  0
 11 12  2  0
 11  5  1  0
 12  2  1  0
 14 15  1  6
 14 13  1  0
 16 15  1  0
 16 17  2  0
 18 17  1  0
 19 18  1  0
 20 19  2  0
 20 16  1  0
 21 14  1  0
 22 21  2  0
 23 24  1  0
 24 26  1  0
 24 25  2  0
 26 27  1  0
 28 27  1  1
 28 30  1  0
 28 29  1  0
 29 21  1  0
 30 32  1  0
 31 30  2  0
M  END
$$$$
