YHQ.pdb
     RDKit          3D

 32 33  0  0  1  0  0  0  0  0999 V2000
    5.7198  -10.6034   27.9143 O   0  0  0  0  0  0  0  0  0  0  0  0
    6.1628  -11.8006   27.3997 C   0  0  0  0  0  0  0  0  0  0  0  0
    7.4245  -12.2477   27.7265 C   0  0  0  0  0  0  0  0  0  0  0  0
    7.8609  -13.4461   27.2081 C   0  0  0  0  0  0  0  0  0  0  0  0
    7.0509  -14.1732   26.3844 C   0  0  0  0  0  0  0  0  0  0  0  0
    7.5228  -15.4492   25.8257 C   0  0  0  0  0  0  0  0  0  0  0  0
    6.5436  -16.1460   24.9308 C   0  0  2  0  0  0  0  0  0  0  0  0
    6.4239  -17.5212   25.4216 N   0  0  0  0  0  0  0  0  0  0  0  0
    7.1029  -16.2227   23.5645 C   0  0  0  0  0  0  0  0  0  0  0  0
    7.6751  -17.2564   23.1231 O   0  0  0  0  0  0  0  0  0  0  0  0
    5.7886  -13.7364   26.0511 C   0  0  0  0  0  0  0  0  0  0  0  0
    5.3395  -12.5380   26.5637 C   0  0  0  0  0  0  0  0  0  0  0  0
    7.0293  -15.1073   22.6375 N   0  0  0  0  0  0  0  0  0  0  0  0
    7.6768  -15.1483   21.3675 C   0  0  1  0  0  0  0  0  0  0  0  0
    7.2417  -14.0393   20.4986 C   0  0  0  0  0  0  0  0  0  0  0  0
    7.8451  -13.9459   19.1731 C   0  0  0  0  0  0  0  0  0  0  0  0
    8.5751  -13.0181   18.5070 C   0  0  0  0  0  0  0  0  0  0  0  0
    8.9246  -13.4461   17.2591 N   0  0  0  0  0  0  0  0  0  0  0  0
    8.3869  -14.6736   17.1716 C   0  0  0  0  0  0  0  0  0  0  0  0
    7.7394  -14.9950   18.2969 N   0  0  0  0  0  0  0  0  0  0  0  0
    9.1567  -15.2582   21.4883 C   0  0  0  0  0  0  0  0  0  0  0  0
    9.8186  -14.7535   22.4167 O   0  0  0  0  0  0  0  0  0  0  0  0
   11.6056  -17.6144   24.3134 N   0  0  0  0  0  0  0  0  0  0  0  0
   12.5390  -18.2961   23.4955 C   0  0  0  0  0  0  0  0  0  0  0  0
   13.5910  -18.8134   23.9471 O   0  0  0  0  0  0  0  0  0  0  0  0
   12.2445  -18.3878   22.0644 C   0  0  0  0  0  0  0  0  0  0  0  0
   11.0324  -17.6186   21.7001 C   0  0  0  0  0  0  0  0  0  0  0  0
   11.2351  -16.4560   20.7618 C   0  0  2  0  0  0  0  0  0  0  0  0
    9.8536  -15.9783   20.4904 N   0  0  0  0  0  0  0  0  0  0  0  0
   11.8435  -16.9601   19.5146 C   0  0  0  0  0  0  0  0  0  0  0  0
   13.0875  -17.0945   19.3602 O   0  0  0  0  0  0  0  0  0  0  0  0
   11.0081  -17.3028   18.4661 O   0  0  0  0  0  0  0  0  0  0  0  0
  2  1  1  0
  2  3  2  0
  4  3  1  0
  5  4  2  0
  6  7  1  0
  6  5  1  0
  7  8  1  1
  9  7  1  0
  9 13  1  0
 10  9  2  0
 11 12  2  0
 11  5  1  0
 12  2  1  0
 14 15  1  1
 14 13  1  0
 16 15  1  0
 16 17  2  0
 18 17  1  0
 19 18  1  0
 20 19  2  0
 20 16  1  0
 21 14  1  0
 22 21  2  0
 23 24  1  0
 24 26  1  0
 24 25  2  0
 26 27  1  0
 28 27  1  1
 28 30  1  0
 28 29  1  0
 29 21  1  0
 30 32  1  0
 31 30  2  0
M  END
$$$$
