YHQ.pdb
     RDKit          3D

 32 33  0  0  1  0  0  0  0  0999 V2000
    5.7344  -10.3746   26.5469 O   0  0  0  0  0  0  0  0  0  0  0  0
    6.1587  -11.6214   26.1470 C   0  0  0  0  0  0  0  0  0  0  0  0
    5.2287  -12.6209   25.9612 C   0  0  0  0  0  0  0  0  0  0  0  0
    5.6603  -13.8655   25.5611 C   0  0  0  0  0  0  0  0  0  0  0  0
    6.9895  -14.0972   25.3544 C   0  0  0  0  0  0  0  0  0  0  0  0
    7.4485  -15.4301   24.9347 C   0  0  0  0  0  0  0  0  0  0  0  0
    7.7102  -15.5731   23.4663 C   0  0  2  0  0  0  0  0  0  0  0  0
    6.5438  -16.2472   22.8908 N   0  0  0  0  0  0  0  0  0  0  0  0
    8.8692  -16.4682   23.2640 C   0  0  0  0  0  0  0  0  0  0  0  0
    8.7534  -17.7223   23.1948 O   0  0  0  0  0  0  0  0  0  0  0  0
    7.9275  -13.1063   25.5368 C   0  0  0  0  0  0  0  0  0  0  0  0
    7.5084  -11.8554   25.9372 C   0  0  0  0  0  0  0  0  0  0  0  0
   10.2228  -15.9591   23.1312 N   0  0  0  0  0  0  0  0  0  0  0  0
   11.3527  -16.8289   23.1513 C   0  0  1  0  0  0  0  0  0  0  0  0
   12.3144  -16.4967   22.0841 C   0  0  0  0  0  0  0  0  0  0  0  0
   11.9120  -16.7657   20.7074 C   0  0  0  0  0  0  0  0  0  0  0  0
   10.7494  -16.7127   20.0126 C   0  0  0  0  0  0  0  0  0  0  0  0
   10.9244  -17.0509   18.7020 N   0  0  0  0  0  0  0  0  0  0  0  0
   12.2373  -17.3160   18.6048 C   0  0  0  0  0  0  0  0  0  0  0  0
   12.8479  -17.1538   19.7837 N   0  0  0  0  0  0  0  0  0  0  0  0
   11.9756  -16.9191   24.5006 C   0  0  0  0  0  0  0  0  0  0  0  0
   12.5302  -15.9623   25.0764 O   0  0  0  0  0  0  0  0  0  0  0  0
   11.1213  -15.3188   28.4158 N   0  0  0  0  0  0  0  0  0  0  0  0
   10.8224  -16.4179   29.2570 C   0  0  0  0  0  0  0  0  0  0  0  0
   10.7778  -16.3259   30.5090 O   0  0  0  0  0  0  0  0  0  0  0  0
   10.5586  -17.7078   28.6167 C   0  0  0  0  0  0  0  0  0  0  0  0
   10.7751  -17.6516   27.1527 C   0  0  0  0  0  0  0  0  0  0  0  0
   12.0829  -18.2070   26.6482 C   0  0  2  0  0  0  0  0  0  0  0  0
   11.9358  -18.1646   25.1694 N   0  0  0  0  0  0  0  0  0  0  0  0
   12.2027  -19.6080   27.0985 C   0  0  0  0  0  0  0  0  0  0  0  0
   11.6457  -20.5718   26.5068 O   0  0  0  0  0  0  0  0  0  0  0  0
   12.9641  -19.8755   28.2225 O   0  0  0  0  0  0  0  0  0  0  0  0
  2  1  1  0
  2  3  2  0
  4  3  1  0
  5  4  2  0
  6  7  1  0
  6  5  1  0
  7  8  1  6
  9  7  1  0
  9 13  1  0
 10  9  2  0
 11 12  2  0
 11  5  1  0
 12  2  1  0
 14 15  1  6
 14 13  1  0
 16 15  1  0
 16 17  2  0
 18 17  1  0
 19 18  1  0
 20 19  2  0
 20 16  1  0
 21 14  1  0
 22 21  2  0
 23 24  1  0
 24 26  1  0
 24 25  2  0
 26 27  1  0
 28 27  1  1
 28 30  1  0
 28 29  1  0
 29 21  1  0
 30 32  1  0
 31 30  2  0
M  END
$$$$
