YHQ.pdb
     RDKit          3D

 32 33  0  0  1  0  0  0  0  0999 V2000
    6.5447  -10.3881   26.6581 O   0  0  0  0  0  0  0  0  0  0  0  0
    6.5441  -11.7322   26.3612 C   0  0  0  0  0  0  0  0  0  0  0  0
    7.4883  -12.2289   25.4893 C   0  0  0  0  0  0  0  0  0  0  0  0
    7.4817  -13.5743   25.1970 C   0  0  0  0  0  0  0  0  0  0  0  0
    6.5516  -14.3955   25.7657 C   0  0  0  0  0  0  0  0  0  0  0  0
    6.5420  -15.8310   25.4454 C   0  0  0  0  0  0  0  0  0  0  0  0
    6.3785  -16.1511   23.9908 C   0  0  2  0  0  0  0  0  0  0  0  0
    5.6938  -17.4441   23.9148 N   0  0  0  0  0  0  0  0  0  0  0  0
    7.7124  -16.3328   23.3801 C   0  0  0  0  0  0  0  0  0  0  0  0
    8.3654  -17.4068   23.4846 O   0  0  0  0  0  0  0  0  0  0  0  0
    5.6036  -13.9104   26.6382 C   0  0  0  0  0  0  0  0  0  0  0  0
    5.5994  -12.5651   26.9394 C   0  0  0  0  0  0  0  0  0  0  0  0
    8.3606  -15.2812   22.6164 N   0  0  0  0  0  0  0  0  0  0  0  0
    9.6453  -15.4703   22.0271 C   0  0  1  0  0  0  0  0  0  0  0  0
    9.8919  -14.5072   20.9382 C   0  0  0  0  0  0  0  0  0  0  0  0
    8.9286  -14.4683   19.8427 C   0  0  0  0  0  0  0  0  0  0  0  0
    7.8282  -15.1807   19.4979 C   0  0  0  0  0  0  0  0  0  0  0  0
    7.2533  -14.7068   18.3543 N   0  0  0  0  0  0  0  0  0  0  0  0
    8.0344  -13.6736   17.9992 C   0  0  0  0  0  0  0  0  0  0  0  0
    9.0381  -13.5104   18.8680 N   0  0  0  0  0  0  0  0  0  0  0  0
   10.7350  -15.5070   23.0411 C   0  0  0  0  0  0  0  0  0  0  0  0
   11.0260  -14.5496   23.7849 O   0  0  0  0  0  0  0  0  0  0  0  0
   10.4333  -19.9119   27.0449 N   0  0  0  0  0  0  0  0  0  0  0  0
   10.9162  -18.6588   27.4938 C   0  0  0  0  0  0  0  0  0  0  0  0
   10.5279  -18.1212   28.5608 O   0  0  0  0  0  0  0  0  0  0  0  0
   11.9096  -17.9787   26.6609 C   0  0  0  0  0  0  0  0  0  0  0  0
   11.3624  -17.6184   25.3327 C   0  0  0  0  0  0  0  0  0  0  0  0
   12.3072  -16.9209   24.3870 C   0  0  2  0  0  0  0  0  0  0  0  0
   11.4849  -16.6993   23.1684 N   0  0  0  0  0  0  0  0  0  0  0  0
   13.4227  -17.8372   24.0773 C   0  0  0  0  0  0  0  0  0  0  0  0
   14.4600  -17.9248   24.7885 O   0  0  0  0  0  0  0  0  0  0  0  0
   13.3237  -18.6390   22.9539 O   0  0  0  0  0  0  0  0  0  0  0  0
  2  1  1  0
  2  3  2  0
  4  3  1  0
  5  4  2  0
  6  7  1  0
  6  5  1  0
  7  8  1  1
  9  7  1  0
  9 13  1  0
 10  9  2  0
 11 12  2  0
 11  5  1  0
 12  2  1  0
 14 15  1  6
 14 13  1  0
 16 15  1  0
 16 17  2  0
 18 17  1  0
 19 18  1  0
 20 19  2  0
 20 16  1  0
 21 14  1  0
 22 21  2  0
 23 24  1  0
 24 26  1  0
 24 25  2  0
 26 27  1  0
 28 27  1  1
 28 30  1  0
 28 29  1  0
 29 21  1  0
 30 32  1  0
 31 30  2  0
M  END
$$$$
