YHQ.pdb
     RDKit          3D

 32 33  0  0  1  0  0  0  0  0999 V2000
   11.0184  -14.9724   29.7681 O   0  0  0  0  0  0  0  0  0  0  0  0
    9.9233  -15.0066   28.9350 C   0  0  0  0  0  0  0  0  0  0  0  0
    9.0932  -16.1061   28.9598 C   0  0  0  0  0  0  0  0  0  0  0  0
    7.9997  -16.1334   28.1238 C   0  0  0  0  0  0  0  0  0  0  0  0
    7.7493  -15.0845   27.2869 C   0  0  0  0  0  0  0  0  0  0  0  0
    6.5849  -15.1200   26.3892 C   0  0  0  0  0  0  0  0  0  0  0  0
    6.4575  -16.3689   25.5712 C   0  0  2  0  0  0  0  0  0  0  0  0
    6.9623  -17.4698   26.3955 N   0  0  0  0  0  0  0  0  0  0  0  0
    7.3443  -16.2706   24.3925 C   0  0  0  0  0  0  0  0  0  0  0  0
    8.3120  -17.0575   24.2046 O   0  0  0  0  0  0  0  0  0  0  0  0
    8.5717  -13.9809   27.2536 C   0  0  0  0  0  0  0  0  0  0  0  0
    9.6700  -13.9411   28.0859 C   0  0  0  0  0  0  0  0  0  0  0  0
    7.1578  -15.2568   23.3696 N   0  0  0  0  0  0  0  0  0  0  0  0
    7.9397  -15.2471   22.1770 C   0  0  1  0  0  0  0  0  0  0  0  0
    7.5327  -14.1599   21.2681 C   0  0  0  0  0  0  0  0  0  0  0  0
    7.9775  -14.2403   19.8805 C   0  0  0  0  0  0  0  0  0  0  0  0
    8.7565  -15.0862   19.1629 C   0  0  0  0  0  0  0  0  0  0  0  0
    8.8381  -14.7142   17.8523 N   0  0  0  0  0  0  0  0  0  0  0  0
    8.0817  -13.6069   17.7787 C   0  0  0  0  0  0  0  0  0  0  0  0
    7.5582  -13.3035   18.9715 N   0  0  0  0  0  0  0  0  0  0  0  0
    9.4019  -15.2667   22.4569 C   0  0  0  0  0  0  0  0  0  0  0  0
    9.9599  -14.5315   23.2953 O   0  0  0  0  0  0  0  0  0  0  0  0
   12.0467  -19.5609   24.4675 N   0  0  0  0  0  0  0  0  0  0  0  0
   13.2424  -18.8200   24.3055 C   0  0  0  0  0  0  0  0  0  0  0  0
   14.3205  -19.1338   24.8688 O   0  0  0  0  0  0  0  0  0  0  0  0
   13.1952  -17.6401   23.4401 C   0  0  0  0  0  0  0  0  0  0  0  0
   11.8184  -17.3492   22.9783 C   0  0  0  0  0  0  0  0  0  0  0  0
   11.6698  -16.2243   21.9854 C   0  0  2  0  0  0  0  0  0  0  0  0
   10.2063  -16.1734   21.7283 N   0  0  0  0  0  0  0  0  0  0  0  0
   12.3822  -16.5947   20.7464 C   0  0  0  0  0  0  0  0  0  0  0  0
   11.8014  -17.0708   19.7338 O   0  0  0  0  0  0  0  0  0  0  0  0
   13.7524  -16.4085   20.6939 O   0  0  0  0  0  0  0  0  0  0  0  0
  2  1  1  0
  2  3  2  0
  4  3  1  0
  5  4  2  0
  6  7  1  0
  6  5  1  0
  7  8  1  1
  9  7  1  0
  9 13  1  0
 10  9  2  0
 11 12  2  0
 11  5  1  0
 12  2  1  0
 14 15  1  1
 14 13  1  0
 16 15  1  0
 16 17  2  0
 18 17  1  0
 19 18  1  0
 20 19  2  0
 20 16  1  0
 21 14  1  0
 22 21  2  0
 23 24  1  0
 24 26  1  0
 24 25  2  0
 26 27  1  0
 28 27  1  1
 28 30  1  0
 28 29  1  0
 29 21  1  0
 30 32  1  0
 31 30  2  0
M  END
$$$$
