YHQ.pdb
     RDKit          3D

 32 33  0  0  1  0  0  0  0  0999 V2000
    7.3995  -12.6250   16.6710 O   0  0  0  0  0  0  0  0  0  0  0  0
    7.6382  -13.1752   17.9100 C   0  0  0  0  0  0  0  0  0  0  0  0
    8.3141  -14.3728   17.9953 C   0  0  0  0  0  0  0  0  0  0  0  0
    8.5493  -14.9171   19.2378 C   0  0  0  0  0  0  0  0  0  0  0  0
    8.1164  -14.2746   20.3616 C   0  0  0  0  0  0  0  0  0  0  0  0
    8.3621  -14.8625   21.6872 C   0  0  0  0  0  0  0  0  0  0  0  0
    8.0598  -16.3263   21.7934 C   0  0  2  0  0  0  0  0  0  0  0  0
    6.6011  -16.4569   21.8322 N   0  0  0  0  0  0  0  0  0  0  0  0
    8.5730  -16.8364   23.0825 C   0  0  0  0  0  0  0  0  0  0  0  0
    7.8615  -16.8887   24.1227 O   0  0  0  0  0  0  0  0  0  0  0  0
    7.4402  -13.0777   20.2884 C   0  0  0  0  0  0  0  0  0  0  0  0
    7.1984  -12.5219   19.0502 C   0  0  0  0  0  0  0  0  0  0  0  0
    9.9364  -17.3126   23.2355 N   0  0  0  0  0  0  0  0  0  0  0  0
   10.4283  -17.7770   24.4909 C   0  0  1  0  0  0  0  0  0  0  0  0
   11.4622  -18.8143   24.3205 C   0  0  0  0  0  0  0  0  0  0  0  0
   12.0764  -19.3577   25.5276 C   0  0  0  0  0  0  0  0  0  0  0  0
   12.0040  -19.0878   26.8540 C   0  0  0  0  0  0  0  0  0  0  0  0
   12.7856  -19.9322   27.5881 N   0  0  0  0  0  0  0  0  0  0  0  0
   13.3469  -20.7381   26.6721 C   0  0  0  0  0  0  0  0  0  0  0  0
   12.9415  -20.4175   25.4384 N   0  0  0  0  0  0  0  0  0  0  0  0
   10.8518  -16.6619   25.3821 C   0  0  0  0  0  0  0  0  0  0  0  0
   11.4072  -15.6210   24.9785 O   0  0  0  0  0  0  0  0  0  0  0  0
    8.2310  -12.5731   27.0955 N   0  0  0  0  0  0  0  0  0  0  0  0
    7.6430  -13.8314   27.3706 C   0  0  0  0  0  0  0  0  0  0  0  0
    6.4006  -14.0171   27.3744 O   0  0  0  0  0  0  0  0  0  0  0  0
    8.5423  -14.9493   27.6618 C   0  0  0  0  0  0  0  0  0  0  0  0
    9.9548  -14.6110   27.3723 C   0  0  0  0  0  0  0  0  0  0  0  0
   10.9750  -15.6767   27.6835 C   0  0  2  0  0  0  0  0  0  0  0  0
   10.6096  -16.7908   26.7695 N   0  0  0  0  0  0  0  0  0  0  0  0
   10.7964  -16.1021   29.0860 C   0  0  0  0  0  0  0  0  0  0  0  0
   10.2304  -17.1803   29.4123 O   0  0  0  0  0  0  0  0  0  0  0  0
   11.2748  -15.2785   30.0899 O   0  0  0  0  0  0  0  0  0  0  0  0
  2  1  1  0
  2  3  2  0
  4  3  1  0
  5  4  2  0
  6  7  1  0
  6  5  1  0
  7  8  1  1
  9  7  1  0
  9 13  1  0
 10  9  2  0
 11 12  2  0
 11  5  1  0
 12  2  1  0
 14 15  1  6
 14 13  1  0
 16 15  1  0
 16 17  2  0
 18 17  1  0
 19 18  1  0
 20 19  2  0
 20 16  1  0
 21 14  1  0
 22 21  2  0
 23 24  1  0
 24 26  1  0
 24 25  2  0
 26 27  1  0
 28 27  1  6
 28 30  1  0
 28 29  1  0
 29 21  1  0
 30 32  1  0
 31 30  2  0
M  END
$$$$
