YHQ.pdb
     RDKit          3D

 32 33  0  0  1  0  0  0  0  0999 V2000
    6.1216  -10.4335   27.2342 O   0  0  0  0  0  0  0  0  0  0  0  0
    6.4083  -11.6922   26.7565 C   0  0  0  0  0  0  0  0  0  0  0  0
    5.9556  -12.7939   27.4493 C   0  0  0  0  0  0  0  0  0  0  0  0
    6.2461  -14.0497   26.9656 C   0  0  0  0  0  0  0  0  0  0  0  0
    6.9713  -14.1923   25.8181 C   0  0  0  0  0  0  0  0  0  0  0  0
    7.2869  -15.5352   25.3081 C   0  0  0  0  0  0  0  0  0  0  0  0
    6.7925  -15.8151   23.9215 C   0  0  2  0  0  0  0  0  0  0  0  0
    5.9013  -16.9742   24.0143 N   0  0  0  0  0  0  0  0  0  0  0  0
    7.9331  -16.2149   23.0702 C   0  0  0  0  0  0  0  0  0  0  0  0
    8.1931  -17.4208   22.8074 O   0  0  0  0  0  0  0  0  0  0  0  0
    7.4286  -13.0989   25.1176 C   0  0  0  0  0  0  0  0  0  0  0  0
    7.1444  -11.8358   25.5913 C   0  0  0  0  0  0  0  0  0  0  0  0
    8.8325  -15.2402   22.4785 N   0  0  0  0  0  0  0  0  0  0  0  0
    9.8974  -15.6346   21.6158 C   0  0  1  0  0  0  0  0  0  0  0  0
   10.1321  -14.6413   20.5517 C   0  0  0  0  0  0  0  0  0  0  0  0
    9.1020  -14.4944   19.5285 C   0  0  0  0  0  0  0  0  0  0  0  0
    7.9465  -15.1333   19.2219 C   0  0  0  0  0  0  0  0  0  0  0  0
    7.3224  -14.5682   18.1478 N   0  0  0  0  0  0  0  0  0  0  0  0
    8.1298  -13.5542   17.7964 C   0  0  0  0  0  0  0  0  0  0  0  0
    9.1955  -13.4884   18.6018 N   0  0  0  0  0  0  0  0  0  0  0  0
   11.1306  -15.9987   22.3663 C   0  0  0  0  0  0  0  0  0  0  0  0
   12.2261  -15.4196   22.2278 O   0  0  0  0  0  0  0  0  0  0  0  0
   11.4579  -18.3367   29.2403 N   0  0  0  0  0  0  0  0  0  0  0  0
   10.9111  -18.0094   27.9758 C   0  0  0  0  0  0  0  0  0  0  0  0
    9.6749  -17.9217   27.7698 O   0  0  0  0  0  0  0  0  0  0  0  0
   11.8467  -17.7684   26.8759 C   0  0  0  0  0  0  0  0  0  0  0  0
   11.1429  -17.4401   25.6148 C   0  0  0  0  0  0  0  0  0  0  0  0
   12.0142  -17.1196   24.4268 C   0  0  2  0  0  0  0  0  0  0  0  0
   11.0551  -17.0652   23.2920 N   0  0  0  0  0  0  0  0  0  0  0  0
   12.9627  -18.2331   24.2264 C   0  0  0  0  0  0  0  0  0  0  0  0
   12.7793  -19.1509   23.3817 O   0  0  0  0  0  0  0  0  0  0  0  0
   14.1084  -18.2697   25.0016 O   0  0  0  0  0  0  0  0  0  0  0  0
  2  1  1  0
  2  3  2  0
  4  3  1  0
  5  4  2  0
  6  7  1  0
  6  5  1  0
  7  8  1  1
  9  7  1  0
  9 13  1  0
 10  9  2  0
 11 12  2  0
 11  5  1  0
 12  2  1  0
 14 15  1  6
 14 13  1  0
 16 15  1  0
 16 17  2  0
 18 17  1  0
 19 18  1  0
 20 19  2  0
 20 16  1  0
 21 14  1  0
 22 21  2  0
 23 24  1  0
 24 26  1  0
 24 25  2  0
 26 27  1  0
 28 27  1  1
 28 30  1  0
 28 29  1  0
 29 21  1  0
 30 32  1  0
 31 30  2  0
M  END
$$$$
