EYT.pdb
     RDKit          3D

 29 29  0  0  1  0  0  0  0  0999 V2000
    8.0970  -12.6343   18.3458 N   0  0  0  0  0  0  0  0  0  0  0  0
    7.9717  -14.0258   18.8014 C   0  0  1  0  0  0  0  0  0  0  0  0
    8.9804  -14.8279   18.0281 C   0  0  0  0  0  0  0  0  0  0  0  0
    8.4382  -16.0011   17.3027 C   0  0  0  0  0  0  0  0  0  0  0  0
    8.9056  -16.0633   15.9175 C   0  0  0  0  0  0  0  0  0  0  0  0
    9.9797  -16.5999   15.5906 O   0  0  0  0  0  0  0  0  0  0  0  0
    8.3078  -14.1196   20.2461 C   0  0  0  0  0  0  0  0  0  0  0  0
    9.2903  -13.4662   20.6653 O   0  0  0  0  0  0  0  0  0  0  0  0
    8.1526  -15.5117   14.8750 O   0  0  0  0  0  0  0  0  0  0  0  0
    7.2645  -11.4162   27.7126 O   0  0  0  0  0  0  0  0  0  0  0  0
    7.1055  -12.3471   26.6963 C   0  0  0  0  0  0  0  0  0  0  0  0
    7.0757  -13.7020   26.8748 C   0  0  0  0  0  0  0  0  0  0  0  0
    6.9148  -14.5826   25.8250 C   0  0  0  0  0  0  0  0  0  0  0  0
    6.7774  -14.1240   24.5518 C   0  0  0  0  0  0  0  0  0  0  0  0
    6.5984  -14.9710   23.3594 C   0  0  0  0  0  0  0  0  0  0  0  0
    7.8104  -15.0404   22.4832 C   0  0  2  0  0  0  0  0  0  0  0  0
    7.5159  -14.9341   21.0900 N   0  0  0  0  0  0  0  0  0  0  0  0
    8.4971  -16.3457   22.7948 C   0  0  0  0  0  0  0  0  0  0  0  0
    7.9045  -17.4493   22.6395 O   0  0  0  0  0  0  0  0  0  0  0  0
    6.8055  -12.7553   24.3559 C   0  0  0  0  0  0  0  0  0  0  0  0
    6.9666  -11.8661   25.4038 C   0  0  0  0  0  0  0  0  0  0  0  0
   11.9558  -17.4642   21.4959 C   0  0  0  0  0  0  0  0  0  0  0  0
   11.9553  -17.5544   23.0098 C   0  0  1  0  0  0  0  0  0  0  0  0
   12.6518  -16.4911   23.5329 O   0  0  0  0  0  0  0  0  0  0  0  0
   10.5320  -17.5904   23.5285 C   0  0  2  0  0  0  0  0  0  0  0  0
    9.8349  -16.3555   23.2726 N   0  0  0  0  0  0  0  0  0  0  0  0
   10.5526  -17.8404   24.9885 C   0  0  0  0  0  0  0  0  0  0  0  0
   11.0841  -19.0182   25.5261 O   0  0  0  0  0  0  0  0  0  0  0  0
   10.0911  -16.9957   25.7780 O   0  0  0  0  0  0  0  0  0  0  0  0
  2  1  1  6
  3  2  1  0
  4  3  1  0
  4  5  1  0
  5  9  1  0
  5  6  2  0
  7  2  1  0
  7  8  2  0
 10 11  1  0
 11 12  2  0
 12 13  1  0
 14 13  2  0
 14 15  1  0
 16 15  1  1
 16 17  1  0
 17  7  1  0
 18 16  1  0
 19 18  2  0
 20 14  1  0
 21 11  1  0
 21 20  2  0
 23 22  1  6
 23 25  1  0
 24 23  1  0
 25 27  1  0
 25 26  1  1
 26 18  1  0
 27 28  1  0
 29 27  2  0
M  END
$$$$
