EYT.pdb
     RDKit          3D

 29 29  0  0  1  0  0  0  0  0999 V2000
   10.1970  -16.7587   18.7228 N   0  0  0  0  0  0  0  0  0  0  0  0
    9.0041  -16.9315   19.5634 C   0  0  1  0  0  0  0  0  0  0  0  0
    8.8695  -18.4049   19.8277 C   0  0  0  0  0  0  0  0  0  0  0  0
    9.4484  -19.2919   18.7910 C   0  0  0  0  0  0  0  0  0  0  0  0
    9.8587  -20.5875   19.3335 C   0  0  0  0  0  0  0  0  0  0  0  0
    9.7876  -20.8658   20.5444 O   0  0  0  0  0  0  0  0  0  0  0  0
    9.1945  -16.2384   20.8643 C   0  0  0  0  0  0  0  0  0  0  0  0
   10.3641  -16.0883   21.2854 O   0  0  0  0  0  0  0  0  0  0  0  0
   10.3602  -21.5939   18.5007 O   0  0  0  0  0  0  0  0  0  0  0  0
    7.3126  -11.8068   28.2773 O   0  0  0  0  0  0  0  0  0  0  0  0
    7.3007  -12.3480   26.9999 C   0  0  0  0  0  0  0  0  0  0  0  0
    8.0839  -11.9229   25.9634 C   0  0  0  0  0  0  0  0  0  0  0  0
    8.0299  -12.4993   24.7112 C   0  0  0  0  0  0  0  0  0  0  0  0
    7.1792  -13.5305   24.4601 C   0  0  0  0  0  0  0  0  0  0  0  0
    7.0403  -14.2201   23.1654 C   0  0  0  0  0  0  0  0  0  0  0  0
    8.2136  -15.0808   22.8130 C   0  0  2  0  0  0  0  0  0  0  0  0
    8.0615  -15.7765   21.5754 N   0  0  0  0  0  0  0  0  0  0  0  0
    8.4047  -16.0437   23.9571 C   0  0  0  0  0  0  0  0  0  0  0  0
    7.5184  -16.8926   24.2519 O   0  0  0  0  0  0  0  0  0  0  0  0
    6.3805  -13.9715   25.4994 C   0  0  0  0  0  0  0  0  0  0  0  0
    6.4291  -13.3982   26.7579 C   0  0  0  0  0  0  0  0  0  0  0  0
   11.6626  -18.6217   26.5062 C   0  0  0  0  0  0  0  0  0  0  0  0
   11.3301  -17.5856   25.4499 C   0  0  1  0  0  0  0  0  0  0  0  0
   11.4837  -18.1384   24.2008 O   0  0  0  0  0  0  0  0  0  0  0  0
    9.9209  -17.0675   25.6544 C   0  0  2  0  0  0  0  0  0  0  0  0
    9.5966  -16.0114   24.7293 N   0  0  0  0  0  0  0  0  0  0  0  0
    9.7868  -16.5563   27.0383 C   0  0  0  0  0  0  0  0  0  0  0  0
    9.6254  -17.4184   28.1290 O   0  0  0  0  0  0  0  0  0  0  0  0
    9.8155  -15.3320   27.2622 O   0  0  0  0  0  0  0  0  0  0  0  0
  2  1  1  6
  3  2  1  0
  4  3  1  0
  4  5  1  0
  5  9  1  0
  5  6  2  0
  7  2  1  0
  7  8  2  0
 10 11  1  0
 11 12  2  0
 12 13  1  0
 14 13  2  0
 14 15  1  0
 16 15  1  1
 16 17  1  0
 17  7  1  0
 18 16  1  0
 19 18  2  0
 20 14  1  0
 21 11  1  0
 21 20  2  0
 23 22  1  1
 23 25  1  0
 24 23  1  0
 25 27  1  0
 25 26  1  6
 26 18  1  0
 27 28  1  0
 29 27  2  0
M  END
$$$$
