EYT.pdb
     RDKit          3D

 29 29  0  0  1  0  0  0  0  0999 V2000
   10.1191  -16.6370   19.3752 N   0  0  0  0  0  0  0  0  0  0  0  0
    8.8582  -16.5884   20.1285 C   0  0  1  0  0  0  0  0  0  0  0  0
    8.3726  -18.0053   20.2533 C   0  0  0  0  0  0  0  0  0  0  0  0
    8.2698  -18.7562   18.9796 C   0  0  0  0  0  0  0  0  0  0  0  0
    7.6602  -20.0743   19.1587 C   0  0  0  0  0  0  0  0  0  0  0  0
    8.1009  -21.1020   18.6126 O   0  0  0  0  0  0  0  0  0  0  0  0
    9.1027  -16.0558   21.4944 C   0  0  0  0  0  0  0  0  0  0  0  0
   10.2029  -16.3083   22.0362 O   0  0  0  0  0  0  0  0  0  0  0  0
    6.5314  -20.2449   19.9678 O   0  0  0  0  0  0  0  0  0  0  0  0
    7.6762  -11.9221   29.2026 O   0  0  0  0  0  0  0  0  0  0  0  0
    7.6616  -12.3512   27.8834 C   0  0  0  0  0  0  0  0  0  0  0  0
    8.7397  -12.3328   27.0433 C   0  0  0  0  0  0  0  0  0  0  0  0
    8.6674  -12.7728   25.7378 C   0  0  0  0  0  0  0  0  0  0  0  0
    7.4982  -13.2495   25.2319 C   0  0  0  0  0  0  0  0  0  0  0  0
    7.3077  -13.7455   23.8576 C   0  0  0  0  0  0  0  0  0  0  0  0
    8.2760  -14.8178   23.4652 C   0  0  2  0  0  0  0  0  0  0  0  0
    8.0962  -15.2902   22.1297 N   0  0  0  0  0  0  0  0  0  0  0  0
    8.1133  -15.9360   24.4630 C   0  0  0  0  0  0  0  0  0  0  0  0
    6.9807  -16.4397   24.7013 O   0  0  0  0  0  0  0  0  0  0  0  0
    6.3987  -13.2744   26.0704 C   0  0  0  0  0  0  0  0  0  0  0  0
    6.4637  -12.8347   27.3808 C   0  0  0  0  0  0  0  0  0  0  0  0
    9.0218  -19.3321   24.2926 C   0  0  0  0  0  0  0  0  0  0  0  0
    9.8047  -18.8087   25.4813 C   0  0  1  0  0  0  0  0  0  0  0  0
   11.0970  -18.5408   25.0974 O   0  0  0  0  0  0  0  0  0  0  0  0
    9.1302  -17.5751   26.0464 C   0  0  2  0  0  0  0  0  0  0  0  0
    9.2423  -16.4462   25.1580 N   0  0  0  0  0  0  0  0  0  0  0  0
    9.7538  -17.2319   27.3456 C   0  0  0  0  0  0  0  0  0  0  0  0
    9.7096  -18.1066   28.4372 O   0  0  0  0  0  0  0  0  0  0  0  0
   10.3383  -16.1428   27.4947 O   0  0  0  0  0  0  0  0  0  0  0  0
  2  1  1  6
  3  2  1  0
  4  3  1  0
  4  5  1  0
  5  9  1  0
  5  6  2  0
  7  2  1  0
  7  8  2  0
 10 11  1  0
 11 12  2  0
 12 13  1  0
 14 13  2  0
 14 15  1  0
 16 15  1  1
 16 17  1  0
 17  7  1  0
 18 16  1  0
 19 18  2  0
 20 14  1  0
 21 11  1  0
 21 20  2  0
 23 22  1  6
 23 25  1  0
 24 23  1  0
 25 27  1  0
 25 26  1  6
 26 18  1  0
 27 28  1  0
 29 27  2  0
M  END
$$$$
