EYT.pdb
     RDKit          3D

 29 29  0  0  1  0  0  0  0  0999 V2000
    9.5652  -15.7327   19.3718 N   0  0  0  0  0  0  0  0  0  0  0  0
    8.5547  -16.0201   20.3993 C   0  0  1  0  0  0  0  0  0  0  0  0
    8.0843  -17.4279   20.1634 C   0  0  0  0  0  0  0  0  0  0  0  0
    7.3308  -17.6437   18.9054 C   0  0  0  0  0  0  0  0  0  0  0  0
    6.7871  -18.9987   18.8082 C   0  0  0  0  0  0  0  0  0  0  0  0
    5.5881  -19.2615   19.0127 O   0  0  0  0  0  0  0  0  0  0  0  0
    9.1705  -15.9530   21.7503 C   0  0  0  0  0  0  0  0  0  0  0  0
   10.3404  -16.3783   21.8854 O   0  0  0  0  0  0  0  0  0  0  0  0
    7.6053  -20.0837   18.4746 O   0  0  0  0  0  0  0  0  0  0  0  0
   10.4942  -14.0697   30.2425 O   0  0  0  0  0  0  0  0  0  0  0  0
    9.9011  -14.2305   28.9987 C   0  0  0  0  0  0  0  0  0  0  0  0
    9.0413  -15.2402   28.6672 C   0  0  0  0  0  0  0  0  0  0  0  0
    8.4802  -15.3511   27.4117 C   0  0  0  0  0  0  0  0  0  0  0  0
    8.7686  -14.4420   26.4420 C   0  0  0  0  0  0  0  0  0  0  0  0
    8.2270  -14.4620   25.0718 C   0  0  0  0  0  0  0  0  0  0  0  0
    8.9788  -15.3615   24.1406 C   0  0  2  0  0  0  0  0  0  0  0  0
    8.4236  -15.4169   22.8262 N   0  0  0  0  0  0  0  0  0  0  0  0
    9.0003  -16.7270   24.7788 C   0  0  0  0  0  0  0  0  0  0  0  0
    7.9304  -17.3473   25.0313 O   0  0  0  0  0  0  0  0  0  0  0  0
    9.6370  -13.4146   26.7629 C   0  0  0  0  0  0  0  0  0  0  0  0
   10.2036  -13.2970   28.0197 C   0  0  0  0  0  0  0  0  0  0  0  0
   10.1809  -19.9545   23.5860 C   0  0  0  0  0  0  0  0  0  0  0  0
   11.0115  -19.6497   24.8177 C   0  0  1  0  0  0  0  0  0  0  0  0
   12.2421  -19.1722   24.4344 O   0  0  0  0  0  0  0  0  0  0  0  0
   10.2856  -18.6565   25.7024 C   0  0  2  0  0  0  0  0  0  0  0  0
   10.2363  -17.3441   25.1097 N   0  0  0  0  0  0  0  0  0  0  0  0
   10.9788  -18.5714   27.0088 C   0  0  0  0  0  0  0  0  0  0  0  0
   11.0474  -19.6659   27.8783 O   0  0  0  0  0  0  0  0  0  0  0  0
   11.5223  -17.5094   27.3646 O   0  0  0  0  0  0  0  0  0  0  0  0
  2  1  1  6
  3  2  1  0
  4  3  1  0
  4  5  1  0
  5  9  1  0
  5  6  2  0
  7  2  1  0
  7  8  2  0
 10 11  1  0
 11 12  2  0
 12 13  1  0
 14 13  2  0
 14 15  1  0
 16 15  1  1
 16 17  1  0
 17  7  1  0
 18 16  1  0
 19 18  2  0
 20 14  1  0
 21 11  1  0
 21 20  2  0
 23 22  1  6
 23 25  1  0
 24 23  1  0
 25 27  1  0
 25 26  1  6
 26 18  1  0
 27 28  1  0
 29 27  2  0
M  END
$$$$
