EYT.pdb
     RDKit          3D

 29 29  0  0  1  0  0  0  0  0999 V2000
   10.8198  -16.6799   19.1503 N   0  0  0  0  0  0  0  0  0  0  0  0
    9.8639  -17.2793   20.0919 C   0  0  1  0  0  0  0  0  0  0  0  0
   10.3596  -18.6666   20.3891 C   0  0  0  0  0  0  0  0  0  0  0  0
   10.5889  -19.5268   19.2041 C   0  0  0  0  0  0  0  0  0  0  0  0
   11.0202  -20.8760   19.5713 C   0  0  0  0  0  0  0  0  0  0  0  0
   11.2059  -21.7771   18.7333 O   0  0  0  0  0  0  0  0  0  0  0  0
    9.8486  -16.5062   21.3613 C   0  0  0  0  0  0  0  0  0  0  0  0
   10.9475  -16.2139   21.8855 O   0  0  0  0  0  0  0  0  0  0  0  0
   11.2483  -21.2235   20.9074 O   0  0  0  0  0  0  0  0  0  0  0  0
    6.9384  -11.5871   28.0845 O   0  0  0  0  0  0  0  0  0  0  0  0
    7.0834  -12.2663   26.8835 C   0  0  0  0  0  0  0  0  0  0  0  0
    7.9548  -11.9192   25.8892 C   0  0  0  0  0  0  0  0  0  0  0  0
    8.0567  -12.6327   24.7129 C   0  0  0  0  0  0  0  0  0  0  0  0
    7.2786  -13.7276   24.4980 C   0  0  0  0  0  0  0  0  0  0  0  0
    7.3051  -14.5625   23.2842 C   0  0  0  0  0  0  0  0  0  0  0  0
    8.5608  -15.3635   23.1321 C   0  0  2  0  0  0  0  0  0  0  0  0
    8.6077  -16.1306   21.9286 N   0  0  0  0  0  0  0  0  0  0  0  0
    8.6588  -16.2518   24.3461 C   0  0  0  0  0  0  0  0  0  0  0  0
    7.7648  -17.1042   24.6061 O   0  0  0  0  0  0  0  0  0  0  0  0
    6.3922  -14.0910   25.4953 C   0  0  0  0  0  0  0  0  0  0  0  0
    6.2844  -13.3801   26.6776 C   0  0  0  0  0  0  0  0  0  0  0  0
   10.8202  -18.9247   24.9346 C   0  0  0  0  0  0  0  0  0  0  0  0
   11.1177  -17.9948   26.0951 C   0  0  1  0  0  0  0  0  0  0  0  0
   12.2746  -17.2981   25.8396 O   0  0  0  0  0  0  0  0  0  0  0  0
    9.9488  -17.0582   26.3243 C   0  0  2  0  0  0  0  0  0  0  0  0
    9.7691  -16.1435   25.2256 N   0  0  0  0  0  0  0  0  0  0  0  0
   10.1825  -16.2835   27.5652 C   0  0  0  0  0  0  0  0  0  0  0  0
   10.3046  -16.9088   28.8113 O   0  0  0  0  0  0  0  0  0  0  0  0
   10.2765  -15.0428   27.5239 O   0  0  0  0  0  0  0  0  0  0  0  0
  2  1  1  6
  3  2  1  0
  4  3  1  0
  4  5  1  0
  5  9  1  0
  5  6  2  0
  7  2  1  0
  7  8  2  0
 10 11  1  0
 11 12  2  0
 12 13  1  0
 14 13  2  0
 14 15  1  0
 16 15  1  1
 16 17  1  0
 17  7  1  0
 18 16  1  0
 19 18  2  0
 20 14  1  0
 21 11  1  0
 21 20  2  0
 23 22  1  6
 23 25  1  0
 24 23  1  0
 25 27  1  0
 25 26  1  6
 26 18  1  0
 27 28  1  0
 29 27  2  0
M  END
$$$$
