EYT.pdb
     RDKit          3D

 29 29  0  0  1  0  0  0  0  0999 V2000
    8.7225  -17.7754   19.5214 N   0  0  0  0  0  0  0  0  0  0  0  0
    9.9795  -17.8590   20.2781 C   0  0  1  0  0  0  0  0  0  0  0  0
   11.0689  -17.3717   19.3646 C   0  0  0  0  0  0  0  0  0  0  0  0
   10.7924  -17.5111   17.9151 C   0  0  0  0  0  0  0  0  0  0  0  0
   11.9885  -17.8711   17.1529 C   0  0  0  0  0  0  0  0  0  0  0  0
   12.1702  -19.0068   16.6778 O   0  0  0  0  0  0  0  0  0  0  0  0
    9.9222  -16.9589   21.4594 C   0  0  0  0  0  0  0  0  0  0  0  0
   10.9993  -16.6574   22.0222 O   0  0  0  0  0  0  0  0  0  0  0  0
   13.0041  -16.9375   16.9179 O   0  0  0  0  0  0  0  0  0  0  0  0
    7.1486  -11.5125   27.7191 O   0  0  0  0  0  0  0  0  0  0  0  0
    7.1454  -12.3717   26.6298 C   0  0  0  0  0  0  0  0  0  0  0  0
    6.3983  -13.5125   26.5361 C   0  0  0  0  0  0  0  0  0  0  0  0
    6.4349  -14.3312   25.4263 C   0  0  0  0  0  0  0  0  0  0  0  0
    7.2311  -14.0254   24.3667 C   0  0  0  0  0  0  0  0  0  0  0  0
    7.3468  -14.8240   23.1338 C   0  0  0  0  0  0  0  0  0  0  0  0
    8.5701  -15.6860   23.0877 C   0  0  2  0  0  0  0  0  0  0  0  0
    8.6675  -16.4780   21.9036 N   0  0  0  0  0  0  0  0  0  0  0  0
    8.5363  -16.5538   24.3199 C   0  0  0  0  0  0  0  0  0  0  0  0
    7.5009  -17.2045   24.6328 O   0  0  0  0  0  0  0  0  0  0  0  0
    7.9928  -12.8740   24.4472 C   0  0  0  0  0  0  0  0  0  0  0  0
    7.9612  -12.0481   25.5569 C   0  0  0  0  0  0  0  0  0  0  0  0
   10.1947  -19.5990   24.8998 C   0  0  0  0  0  0  0  0  0  0  0  0
   10.6979  -18.7091   26.0200 C   0  0  1  0  0  0  0  0  0  0  0  0
   11.9471  -18.2326   25.7012 O   0  0  0  0  0  0  0  0  0  0  0  0
    9.7211  -17.5765   26.2637 C   0  0  2  0  0  0  0  0  0  0  0  0
    9.6796  -16.6547   25.1570 N   0  0  0  0  0  0  0  0  0  0  0  0
   10.1209  -16.8445   27.4880 C   0  0  0  0  0  0  0  0  0  0  0  0
   10.1295  -17.4611   28.7444 O   0  0  0  0  0  0  0  0  0  0  0  0
   10.4622  -15.6491   27.4230 O   0  0  0  0  0  0  0  0  0  0  0  0
  2  1  1  6
  3  2  1  0
  4  3  1  0
  4  5  1  0
  5  9  1  0
  5  6  2  0
  7  2  1  0
  7  8  2  0
 10 11  1  0
 11 12  2  0
 12 13  1  0
 14 13  2  0
 14 15  1  0
 16 15  1  6
 16 17  1  0
 17  7  1  0
 18 16  1  0
 19 18  2  0
 20 14  1  0
 21 11  1  0
 21 20  2  0
 23 22  1  6
 23 25  1  0
 24 23  1  0
 25 27  1  0
 25 26  1  6
 26 18  1  0
 27 28  1  0
 29 27  2  0
M  END
$$$$
