EYT.pdb
     RDKit          3D

 29 29  0  0  1  0  0  0  0  0999 V2000
    9.0412  -18.4943   20.1425 N   0  0  0  0  0  0  0  0  0  0  0  0
   10.3480  -17.8993   20.4552 C   0  0  1  0  0  0  0  0  0  0  0  0
   10.8165  -17.2021   19.2090 C   0  0  0  0  0  0  0  0  0  0  0  0
   11.0428  -18.0801   18.0366 C   0  0  0  0  0  0  0  0  0  0  0  0
   11.6500  -17.3638   16.9143 C   0  0  0  0  0  0  0  0  0  0  0  0
   11.1127  -17.2829   15.7947 O   0  0  0  0  0  0  0  0  0  0  0  0
   10.2000  -16.8848   21.5312 C   0  0  0  0  0  0  0  0  0  0  0  0
   11.2085  -16.2153   21.8515 O   0  0  0  0  0  0  0  0  0  0  0  0
   12.8870  -16.7239   17.0494 O   0  0  0  0  0  0  0  0  0  0  0  0
    6.6548  -11.8464   27.8280 O   0  0  0  0  0  0  0  0  0  0  0  0
    6.9044  -12.5807   26.6777 C   0  0  0  0  0  0  0  0  0  0  0  0
    7.6807  -12.1595   25.6344 C   0  0  0  0  0  0  0  0  0  0  0  0
    7.8946  -12.9334   24.5126 C   0  0  0  0  0  0  0  0  0  0  0  0
    7.3296  -14.1659   24.4039 C   0  0  0  0  0  0  0  0  0  0  0  0
    7.4914  -15.0755   23.2560 C   0  0  0  0  0  0  0  0  0  0  0  0
    8.7896  -15.8213   23.2574 C   0  0  2  0  0  0  0  0  0  0  0  0
    8.9395  -16.7109   22.1506 N   0  0  0  0  0  0  0  0  0  0  0  0
    8.8608  -16.5662   24.5660 C   0  0  0  0  0  0  0  0  0  0  0  0
    7.9019  -17.2854   24.9617 O   0  0  0  0  0  0  0  0  0  0  0  0
    6.5415  -14.6055   25.4519 C   0  0  0  0  0  0  0  0  0  0  0  0
    6.3224  -13.8350   26.5801 C   0  0  0  0  0  0  0  0  0  0  0  0
   11.3266  -19.1820   25.3811 C   0  0  0  0  0  0  0  0  0  0  0  0
   11.4561  -18.1319   26.4676 C   0  0  1  0  0  0  0  0  0  0  0  0
   12.5536  -17.3438   26.2152 O   0  0  0  0  0  0  0  0  0  0  0  0
   10.1890  -17.3046   26.5456 C   0  0  2  0  0  0  0  0  0  0  0  0
   10.0190  -16.4704   25.3831 N   0  0  0  0  0  0  0  0  0  0  0  0
   10.2416  -16.4472   27.7526 C   0  0  0  0  0  0  0  0  0  0  0  0
   10.2576  -16.9914   29.0418 O   0  0  0  0  0  0  0  0  0  0  0  0
   10.2731  -15.2075   27.6426 O   0  0  0  0  0  0  0  0  0  0  0  0
  2  1  1  6
  3  2  1  0
  4  3  1  0
  4  5  1  0
  5  9  1  0
  5  6  2  0
  7  2  1  0
  7  8  2  0
 10 11  1  0
 11 12  2  0
 12 13  1  0
 14 13  2  0
 14 15  1  0
 16 15  1  6
 16 17  1  0
 17  7  1  0
 18 16  1  0
 19 18  2  0
 20 14  1  0
 21 11  1  0
 21 20  2  0
 23 22  1  6
 23 25  1  0
 24 23  1  0
 25 27  1  0
 25 26  1  6
 26 18  1  0
 27 28  1  0
 29 27  2  0
M  END
$$$$
