EYT.pdb
     RDKit          3D

 29 29  0  0  1  0  0  0  0  0999 V2000
   10.4103  -16.5045   18.6637 N   0  0  0  0  0  0  0  0  0  0  0  0
    9.2864  -16.9173   19.5158 C   0  0  1  0  0  0  0  0  0  0  0  0
    9.4054  -18.4040   19.7006 C   0  0  0  0  0  0  0  0  0  0  0  0
    9.0330  -19.2226   18.5224 C   0  0  0  0  0  0  0  0  0  0  0  0
    9.0546  -20.6567   18.8123 C   0  0  0  0  0  0  0  0  0  0  0  0
    9.6150  -21.4867   18.0737 O   0  0  0  0  0  0  0  0  0  0  0  0
    9.3954  -16.2700   20.8493 C   0  0  0  0  0  0  0  0  0  0  0  0
   10.5164  -16.2569   21.4071 O   0  0  0  0  0  0  0  0  0  0  0  0
    8.4340  -21.1725   19.9555 O   0  0  0  0  0  0  0  0  0  0  0  0
    7.0910  -11.9881   28.2398 O   0  0  0  0  0  0  0  0  0  0  0  0
    7.1611  -12.4896   26.9482 C   0  0  0  0  0  0  0  0  0  0  0  0
    8.0820  -12.1114   26.0115 C   0  0  0  0  0  0  0  0  0  0  0  0
    8.1046  -12.6447   24.7394 C   0  0  0  0  0  0  0  0  0  0  0  0
    7.1937  -13.5835   24.3663 C   0  0  0  0  0  0  0  0  0  0  0  0
    7.1262  -14.2202   23.0391 C   0  0  0  0  0  0  0  0  0  0  0  0
    8.3144  -15.0733   22.7199 C   0  0  2  0  0  0  0  0  0  0  0  0
    8.2429  -15.6968   21.4372 N   0  0  0  0  0  0  0  0  0  0  0  0
    8.4187  -16.1008   23.8179 C   0  0  0  0  0  0  0  0  0  0  0  0
    7.4988  -16.9424   24.0150 O   0  0  0  0  0  0  0  0  0  0  0  0
    6.2557  -13.9761   25.3036 C   0  0  0  0  0  0  0  0  0  0  0  0
    6.2269  -13.4456   26.5812 C   0  0  0  0  0  0  0  0  0  0  0  0
   10.5161  -18.9324   24.0999 C   0  0  0  0  0  0  0  0  0  0  0  0
   10.8673  -18.1051   25.3214 C   0  0  1  0  0  0  0  0  0  0  0  0
   12.0341  -17.4166   25.0890 O   0  0  0  0  0  0  0  0  0  0  0  0
    9.7287  -17.1634   25.6572 C   0  0  2  0  0  0  0  0  0  0  0  0
    9.5647  -16.1396   24.6566 N   0  0  0  0  0  0  0  0  0  0  0  0
    9.9974  -16.5224   26.9654 C   0  0  0  0  0  0  0  0  0  0  0  0
   10.0482  -17.2634   28.1516 O   0  0  0  0  0  0  0  0  0  0  0  0
   10.1865  -15.2940   27.0370 O   0  0  0  0  0  0  0  0  0  0  0  0
  2  1  1  6
  3  2  1  0
  4  3  1  0
  4  5  1  0
  5  9  1  0
  5  6  2  0
  7  2  1  0
  7  8  2  0
 10 11  1  0
 11 12  2  0
 12 13  1  0
 14 13  2  0
 14 15  1  0
 16 15  1  1
 16 17  1  0
 17  7  1  0
 18 16  1  0
 19 18  2  0
 20 14  1  0
 21 11  1  0
 21 20  2  0
 23 22  1  6
 23 25  1  0
 24 23  1  0
 25 27  1  0
 25 26  1  6
 26 18  1  0
 27 28  1  0
 29 27  2  0
M  END
$$$$
