EYT.pdb
     RDKit          3D

 29 29  0  0  1  0  0  0  0  0999 V2000
    7.8169  -13.7374   19.6513 N   0  0  0  0  0  0  0  0  0  0  0  0
    7.1688  -14.4352   20.7705 C   0  0  1  0  0  0  0  0  0  0  0  0
    6.8772  -15.8325   20.3000 C   0  0  0  0  0  0  0  0  0  0  0  0
    8.0517  -16.7324   20.2148 C   0  0  0  0  0  0  0  0  0  0  0  0
    7.7078  -18.0455   19.6683 C   0  0  0  0  0  0  0  0  0  0  0  0
    7.3714  -18.2164   18.4825 O   0  0  0  0  0  0  0  0  0  0  0  0
    8.0997  -14.5157   21.9264 C   0  0  0  0  0  0  0  0  0  0  0  0
    9.3297  -14.5202   21.6921 O   0  0  0  0  0  0  0  0  0  0  0  0
    7.7414  -19.1929   20.4685 O   0  0  0  0  0  0  0  0  0  0  0  0
   11.2143  -14.9129   30.1359 O   0  0  0  0  0  0  0  0  0  0  0  0
   10.3991  -14.6985   29.0340 C   0  0  0  0  0  0  0  0  0  0  0  0
   10.2973  -13.5165   28.3550 C   0  0  0  0  0  0  0  0  0  0  0  0
    9.4682  -13.3600   27.2635 C   0  0  0  0  0  0  0  0  0  0  0  0
    8.7090  -14.3964   26.8168 C   0  0  0  0  0  0  0  0  0  0  0  0
    7.7932  -14.3424   25.6637 C   0  0  0  0  0  0  0  0  0  0  0  0
    8.4385  -14.7138   24.3648 C   0  0  2  0  0  0  0  0  0  0  0  0
    7.5717  -14.5836   23.2376 N   0  0  0  0  0  0  0  0  0  0  0  0
    8.9273  -16.1321   24.5128 C   0  0  0  0  0  0  0  0  0  0  0  0
    8.1178  -17.0929   24.6349 O   0  0  0  0  0  0  0  0  0  0  0  0
    8.8016  -15.5987   27.4940 C   0  0  0  0  0  0  0  0  0  0  0  0
    9.6308  -15.7631   28.5894 C   0  0  0  0  0  0  0  0  0  0  0  0
   10.7787  -18.1159   22.0960 C   0  0  0  0  0  0  0  0  0  0  0  0
   11.6494  -18.0995   23.3376 C   0  0  1  0  0  0  0  0  0  0  0  0
   12.6704  -17.1946   23.1699 O   0  0  0  0  0  0  0  0  0  0  0  0
   10.8122  -17.7671   24.5560 C   0  0  2  0  0  0  0  0  0  0  0  0
   10.3197  -16.4135   24.5171 N   0  0  0  0  0  0  0  0  0  0  0  0
   11.6344  -17.9477   25.7750 C   0  0  0  0  0  0  0  0  0  0  0  0
   12.1856  -19.1887   26.1139 O   0  0  0  0  0  0  0  0  0  0  0  0
   11.8548  -16.9853   26.5334 O   0  0  0  0  0  0  0  0  0  0  0  0
  2  1  1  6
  3  2  1  0
  4  3  1  0
  4  5  1  0
  5  9  1  0
  5  6  2  0
  7  2  1  0
  7  8  2  0
 10 11  1  0
 11 12  2  0
 12 13  1  0
 14 13  2  0
 14 15  1  0
 16 15  1  1
 16 17  1  0
 17  7  1  0
 18 16  1  0
 19 18  2  0
 20 14  1  0
 21 11  1  0
 21 20  2  0
 23 22  1  6
 23 25  1  0
 24 23  1  0
 25 27  1  0
 25 26  1  6
 26 18  1  0
 27 28  1  0
 29 27  2  0
M  END
$$$$
