EYT.pdb
     RDKit          3D

 29 29  0  0  1  0  0  0  0  0999 V2000
    9.8110  -18.4698   19.1199 N   0  0  0  0  0  0  0  0  0  0  0  0
   11.0748  -17.7217   19.1698 C   0  0  1  0  0  0  0  0  0  0  0  0
   11.1951  -16.9857   17.8650 C   0  0  0  0  0  0  0  0  0  0  0  0
   11.4589  -17.8343   16.6788 C   0  0  0  0  0  0  0  0  0  0  0  0
   11.5682  -17.0509   15.4477 C   0  0  0  0  0  0  0  0  0  0  0  0
   11.3360  -15.8292   15.4018 O   0  0  0  0  0  0  0  0  0  0  0  0
   11.0301  -16.7217   20.2685 C   0  0  0  0  0  0  0  0  0  0  0  0
   12.0445  -16.0131   20.4608 O   0  0  0  0  0  0  0  0  0  0  0  0
   11.9458  -17.6499   14.2408 O   0  0  0  0  0  0  0  0  0  0  0  0
    7.2073  -12.5464   17.1226 O   0  0  0  0  0  0  0  0  0  0  0  0
    7.5844  -13.0538   18.3576 C   0  0  0  0  0  0  0  0  0  0  0  0
    8.5450  -12.5120   19.1651 C   0  0  0  0  0  0  0  0  0  0  0  0
    8.8800  -13.0603   20.3860 C   0  0  0  0  0  0  0  0  0  0  0  0
    8.2537  -14.1805   20.8368 C   0  0  0  0  0  0  0  0  0  0  0  0
    8.5291  -14.8481   22.1212 C   0  0  0  0  0  0  0  0  0  0  0  0
    9.7870  -15.6600   22.1198 C   0  0  2  0  0  0  0  0  0  0  0  0
    9.8570  -16.6046   21.0513 N   0  0  0  0  0  0  0  0  0  0  0  0
    9.8608  -16.3486   23.4588 C   0  0  0  0  0  0  0  0  0  0  0  0
    8.8382  -16.4691   24.1889 O   0  0  0  0  0  0  0  0  0  0  0  0
    7.2794  -14.7399   20.0304 C   0  0  0  0  0  0  0  0  0  0  0  0
    6.9382  -14.1956   18.8048 C   0  0  0  0  0  0  0  0  0  0  0  0
   10.5501  -19.8281   23.9792 C   0  0  0  0  0  0  0  0  0  0  0  0
   11.6109  -19.1108   24.7916 C   0  0  1  0  0  0  0  0  0  0  0  0
   12.7982  -19.1125   24.0991 O   0  0  0  0  0  0  0  0  0  0  0  0
   11.1587  -17.6995   25.1075 C   0  0  2  0  0  0  0  0  0  0  0  0
   11.0936  -16.8783   23.9253 N   0  0  0  0  0  0  0  0  0  0  0  0
   12.1062  -17.0889   26.0688 C   0  0  0  0  0  0  0  0  0  0  0  0
   12.8722  -15.9662   25.7350 O   0  0  0  0  0  0  0  0  0  0  0  0
   12.2419  -17.5690   27.2094 O   0  0  0  0  0  0  0  0  0  0  0  0
  2  1  1  6
  3  2  1  0
  4  3  1  0
  4  5  1  0
  5  9  1  0
  5  6  2  0
  7  2  1  0
  7  8  2  0
 10 11  1  0
 11 12  2  0
 12 13  1  0
 14 13  2  0
 14 15  1  0
 16 15  1  1
 16 17  1  0
 17  7  1  0
 18 16  1  0
 19 18  2  0
 20 14  1  0
 21 11  1  0
 21 20  2  0
 23 22  1  6
 23 25  1  0
 24 23  1  0
 25 27  1  0
 25 26  1  6
 26 18  1  0
 27 28  1  0
 29 27  2  0
M  END
$$$$
