EYT.pdb
     RDKit          3D

 29 29  0  0  1  0  0  0  0  0999 V2000
   10.0380  -17.2947   18.7798 N   0  0  0  0  0  0  0  0  0  0  0  0
    9.7361  -18.0220   20.0205 C   0  0  1  0  0  0  0  0  0  0  0  0
   10.7228  -19.1519   20.1121 C   0  0  0  0  0  0  0  0  0  0  0  0
   10.5825  -20.0231   21.3028 C   0  0  0  0  0  0  0  0  0  0  0  0
   11.5839  -21.0898   21.3326 C   0  0  0  0  0  0  0  0  0  0  0  0
   12.3947  -21.2809   20.4082 O   0  0  0  0  0  0  0  0  0  0  0  0
    9.9355  -17.1308   21.1932 C   0  0  0  0  0  0  0  0  0  0  0  0
   11.0407  -16.5546   21.3132 O   0  0  0  0  0  0  0  0  0  0  0  0
   11.6788  -21.9619   22.4227 O   0  0  0  0  0  0  0  0  0  0  0  0
    7.3853  -11.9885   18.5721 O   0  0  0  0  0  0  0  0  0  0  0  0
    7.5879  -12.6866   19.7538 C   0  0  0  0  0  0  0  0  0  0  0  0
    8.5443  -12.3886   20.6837 C   0  0  0  0  0  0  0  0  0  0  0  0
    8.7008  -13.1191   21.8435 C   0  0  0  0  0  0  0  0  0  0  0  0
    7.8930  -14.1813   22.1067 C   0  0  0  0  0  0  0  0  0  0  0  0
    7.9693  -15.0278   23.3104 C   0  0  0  0  0  0  0  0  0  0  0  0
    9.0286  -16.0832   23.2377 C   0  0  2  0  0  0  0  0  0  0  0  0
    8.8824  -16.9647   22.1239 N   0  0  0  0  0  0  0  0  0  0  0  0
    8.9767  -16.8408   24.5400 C   0  0  0  0  0  0  0  0  0  0  0  0
    7.8750  -17.1573   25.0685 O   0  0  0  0  0  0  0  0  0  0  0  0
    6.9205  -14.4947   21.1748 C   0  0  0  0  0  0  0  0  0  0  0  0
    6.7577  -13.7667   20.0094 C   0  0  0  0  0  0  0  0  0  0  0  0
   10.5862  -20.2114   25.2433 C   0  0  0  0  0  0  0  0  0  0  0  0
   11.1114  -19.2164   26.2601 C   0  0  1  0  0  0  0  0  0  0  0  0
   12.3701  -18.8052   25.8916 O   0  0  0  0  0  0  0  0  0  0  0  0
   10.1604  -18.0427   26.3791 C   0  0  2  0  0  0  0  0  0  0  0  0
   10.1778  -17.2147   25.1999 N   0  0  0  0  0  0  0  0  0  0  0  0
   10.5443  -17.2226   27.5516 C   0  0  0  0  0  0  0  0  0  0  0  0
   10.5138  -17.7383   28.8523 O   0  0  0  0  0  0  0  0  0  0  0  0
   10.9072  -16.0412   27.4012 O   0  0  0  0  0  0  0  0  0  0  0  0
  2  1  1  6
  3  2  1  0
  4  3  1  0
  4  5  1  0
  5  9  1  0
  5  6  2  0
  7  2  1  0
  7  8  2  0
 10 11  1  0
 11 12  2  0
 12 13  1  0
 14 13  2  0
 14 15  1  0
 16 15  1  1
 16 17  1  0
 17  7  1  0
 18 16  1  0
 19 18  2  0
 20 14  1  0
 21 11  1  0
 21 20  2  0
 23 22  1  6
 23 25  1  0
 24 23  1  0
 25 27  1  0
 25 26  1  6
 26 18  1  0
 27 28  1  0
 29 27  2  0
M  END
$$$$
