FPF.pdb
     RDKit          3D

 30 32  0  0  1  0  0  0  0  0999 V2000
    9.6406  -17.1675   17.8073 N   0  0  0  0  0  0  0  0  0  0  0  0
    9.2082  -17.8868   18.9589 C   0  0  1  0  0  0  0  0  0  0  0  0
   10.3157  -18.7535   19.5024 C   0  0  0  0  0  0  0  0  0  0  0  0
   10.2826  -20.1356   18.9808 C   0  0  0  0  0  0  0  0  0  0  0  0
    9.2910  -20.5307   18.0768 C   0  0  0  0  0  0  0  0  0  0  0  0
    9.2707  -21.7976   17.5809 C   0  0  0  0  0  0  0  0  0  0  0  0
   10.2166  -22.7360   17.9441 C   0  0  0  0  0  0  0  0  0  0  0  0
   11.2104  -22.3847   18.8325 C   0  0  0  0  0  0  0  0  0  0  0  0
   11.2187  -21.0937   19.3282 C   0  0  0  0  0  0  0  0  0  0  0  0
    8.6149  -17.0798   20.0354 C   0  0  0  0  0  0  0  0  0  0  0  0
    9.2744  -16.0546   20.3939 O   0  0  0  0  0  0  0  0  0  0  0  0
    7.4003  -17.3702   20.6697 N   0  0  0  0  0  0  0  0  0  0  0  0
    6.5065  -18.4861   20.4766 C   0  0  0  0  0  0  0  0  0  0  0  0
    5.1469  -17.9009   20.8919 C   0  0  0  0  0  0  0  0  0  0  0  0
    5.5018  -17.0804   22.0789 C   0  0  0  0  0  0  0  0  0  0  0  0
    6.8371  -16.4803   21.6993 C   0  0  1  0  0  0  0  0  0  0  0  0
    7.6938  -16.4906   22.9323 C   0  0  0  0  0  0  0  0  0  0  0  0
    8.3591  -17.5289   23.1957 O   0  0  0  0  0  0  0  0  0  0  0  0
    7.7855  -15.3858   23.8082 N   0  0  0  0  0  0  0  0  0  0  0  0
    8.7421  -15.3709   24.9305 C   0  0  1  0  0  0  0  0  0  0  0  0
    8.9672  -13.9505   25.3055 C   0  0  0  0  0  0  0  0  0  0  0  0
    7.7905  -13.2444   25.8507 C   0  0  0  0  0  0  0  0  0  0  0  0
    6.7999  -12.7072   25.0886 C   0  0  0  0  0  0  0  0  0  0  0  0
    5.7431  -12.0738   25.7035 C   0  0  0  0  0  0  0  0  0  0  0  0
    5.6752  -11.9767   27.0742 C   0  0  0  0  0  0  0  0  0  0  0  0
    6.6674  -12.5137   27.8571 C   0  0  0  0  0  0  0  0  0  0  0  0
    7.7193  -13.1452   27.2232 C   0  0  0  0  0  0  0  0  0  0  0  0
    8.1145  -16.1509   26.0165 C   0  0  0  0  0  0  0  0  0  0  0  0
    8.9075  -16.5932   27.0614 O   0  0  0  0  0  0  0  0  0  0  0  0
    6.8953  -16.4345   26.0396 O   0  0  0  0  0  0  0  0  0  0  0  0
  2  1  1  6
  2  3  1  0
  3  4  1  0
  4  9  1  0
  5  4  2  0
  5  6  1  0
  6  7  2  0
  7  8  1  0
  9  8  2  0
 10 12  1  0
 10  2  1  0
 11 10  2  0
 12 16  1  0
 13 12  1  0
 13 14  1  0
 14 15  1  0
 15 16  1  0
 16 17  1  1
 17 18  2  0
 19 17  1  0
 20 28  1  0
 20 19  1  0
 20 21  1  1
 22 23  2  0
 22 21  1  0
 24 23  1  0
 25 24  2  0
 26 25  1  0
 26 27  2  0
 27 22  1  0
 28 29  1  0
 30 28  2  0
M  END
$$$$
