FPF.pdb
     RDKit          3D

 30 32  0  0  1  0  0  0  0  0999 V2000
    5.5753  -18.0381   25.1755 N   0  0  0  0  0  0  0  0  0  0  0  0
    6.0765  -16.7064   25.0977 C   0  0  1  0  0  0  0  0  0  0  0  0
    6.0664  -16.0449   26.4525 C   0  0  0  0  0  0  0  0  0  0  0  0
    6.1392  -14.5707   26.3811 C   0  0  0  0  0  0  0  0  0  0  0  0
    4.9762  -13.8078   26.2333 C   0  0  0  0  0  0  0  0  0  0  0  0
    5.0400  -12.4495   26.1868 C   0  0  0  0  0  0  0  0  0  0  0  0
    6.2407  -11.7741   26.2825 C   0  0  0  0  0  0  0  0  0  0  0  0
    7.4092  -12.4908   26.4294 C   0  0  0  0  0  0  0  0  0  0  0  0
    7.3291  -13.8706   26.4753 C   0  0  0  0  0  0  0  0  0  0  0  0
    7.3934  -16.5514   24.4624 C   0  0  0  0  0  0  0  0  0  0  0  0
    8.2976  -17.3574   24.8463 O   0  0  0  0  0  0  0  0  0  0  0  0
    7.6981  -15.5926   23.4877 N   0  0  0  0  0  0  0  0  0  0  0  0
    6.9554  -14.4231   23.0852 C   0  0  0  0  0  0  0  0  0  0  0  0
    7.4045  -14.2273   21.6281 C   0  0  0  0  0  0  0  0  0  0  0  0
    8.8575  -14.5304   21.6985 C   0  0  0  0  0  0  0  0  0  0  0  0
    8.9250  -15.6809   22.6776 C   0  0  1  0  0  0  0  0  0  0  0  0
   10.1395  -15.4637   23.5332 C   0  0  0  0  0  0  0  0  0  0  0  0
   10.3564  -14.3087   23.9905 O   0  0  0  0  0  0  0  0  0  0  0  0
   11.0481  -16.4992   23.8472 N   0  0  0  0  0  0  0  0  0  0  0  0
   12.3322  -16.2195   24.5163 C   0  0  1  0  0  0  0  0  0  0  0  0
   12.2729  -16.8328   25.8688 C   0  0  0  0  0  0  0  0  0  0  0  0
   11.6175  -16.0140   26.9082 C   0  0  0  0  0  0  0  0  0  0  0  0
   10.5781  -16.4405   27.6753 C   0  0  0  0  0  0  0  0  0  0  0  0
   10.0452  -15.5936   28.6214 C   0  0  0  0  0  0  0  0  0  0  0  0
   10.5476  -14.3256   28.8012 C   0  0  0  0  0  0  0  0  0  0  0  0
   11.5965  -13.8805   28.0346 C   0  0  0  0  0  0  0  0  0  0  0  0
   12.1182  -14.7433   27.0910 C   0  0  0  0  0  0  0  0  0  0  0  0
   13.3790  -16.8222   23.6663 C   0  0  0  0  0  0  0  0  0  0  0  0
   12.9937  -17.6001   22.5879 O   0  0  0  0  0  0  0  0  0  0  0  0
   14.6037  -16.6649   23.8731 O   0  0  0  0  0  0  0  0  0  0  0  0
  2  1  1  1
  2  3  1  0
  3  4  1  0
  4  9  1  0
  5  4  2  0
  5  6  1  0
  6  7  2  0
  7  8  1  0
  9  8  2  0
 10 12  1  0
 10  2  1  0
 11 10  2  0
 12 16  1  0
 13 12  1  0
 13 14  1  0
 14 15  1  0
 15 16  1  0
 16 17  1  1
 17 18  2  0
 19 17  1  0
 20 28  1  0
 20 19  1  0
 20 21  1  1
 22 23  2  0
 22 21  1  0
 24 23  1  0
 25 24  2  0
 26 25  1  0
 26 27  2  0
 27 22  1  0
 28 29  1  0
 30 28  2  0
M  END
$$$$
