FPF.pdb
     RDKit          3D

 30 32  0  0  1  0  0  0  0  0999 V2000
    5.4860  -17.7886   24.8631 N   0  0  0  0  0  0  0  0  0  0  0  0
    6.2915  -16.6170   24.7674 C   0  0  1  0  0  0  0  0  0  0  0  0
    6.6770  -16.1127   26.1350 C   0  0  0  0  0  0  0  0  0  0  0  0
    6.6145  -14.6410   26.2518 C   0  0  0  0  0  0  0  0  0  0  0  0
    7.6873  -13.8483   25.8310 C   0  0  0  0  0  0  0  0  0  0  0  0
    7.6233  -12.4921   25.9201 C   0  0  0  0  0  0  0  0  0  0  0  0
    6.5103  -11.8480   26.4234 C   0  0  0  0  0  0  0  0  0  0  0  0
    5.4321  -12.5947   26.8482 C   0  0  0  0  0  0  0  0  0  0  0  0
    5.5110  -13.9720   26.7515 C   0  0  0  0  0  0  0  0  0  0  0  0
    7.4794  -16.7222   23.9074 C   0  0  0  0  0  0  0  0  0  0  0  0
    8.1853  -17.7684   24.0546 O   0  0  0  0  0  0  0  0  0  0  0  0
    7.8656  -15.7616   22.9639 N   0  0  0  0  0  0  0  0  0  0  0  0
    7.3037  -14.4604   22.6944 C   0  0  0  0  0  0  0  0  0  0  0  0
    7.6638  -14.2407   21.2161 C   0  0  0  0  0  0  0  0  0  0  0  0
    9.0449  -14.7837   21.1399 C   0  0  0  0  0  0  0  0  0  0  0  0
    8.9920  -15.9948   22.0441 C   0  0  1  0  0  0  0  0  0  0  0  0
   10.2892  -16.0410   22.7988 C   0  0  0  0  0  0  0  0  0  0  0  0
   11.2630  -15.3668   22.3661 O   0  0  0  0  0  0  0  0  0  0  0  0
   10.4632  -16.8076   23.9729 N   0  0  0  0  0  0  0  0  0  0  0  0
   11.7696  -16.8892   24.6520 C   0  0  1  0  0  0  0  0  0  0  0  0
   12.1574  -15.5079   25.0398 C   0  0  0  0  0  0  0  0  0  0  0  0
   11.5424  -15.0021   26.2834 C   0  0  0  0  0  0  0  0  0  0  0  0
   10.5841  -14.0374   26.3252 C   0  0  0  0  0  0  0  0  0  0  0  0
   10.0747  -13.6441   27.5427 C   0  0  0  0  0  0  0  0  0  0  0  0
   10.5202  -14.2115   28.7142 C   0  0  0  0  0  0  0  0  0  0  0  0
   11.4871  -15.1863   28.6883 C   0  0  0  0  0  0  0  0  0  0  0  0
   11.9862  -15.5681   27.4587 C   0  0  0  0  0  0  0  0  0  0  0  0
   11.5719  -17.7712   25.8201 C   0  0  0  0  0  0  0  0  0  0  0  0
   10.2990  -18.2449   26.0877 O   0  0  0  0  0  0  0  0  0  0  0  0
   12.5021  -18.1135   26.5850 O   0  0  0  0  0  0  0  0  0  0  0  0
  2  1  1  1
  2  3  1  0
  3  4  1  0
  4  9  1  0
  5  4  2  0
  5  6  1  0
  6  7  2  0
  7  8  1  0
  9  8  2  0
 10 12  1  0
 10  2  1  0
 11 10  2  0
 12 16  1  0
 13 12  1  0
 13 14  1  0
 14 15  1  0
 15 16  1  0
 16 17  1  1
 17 18  2  0
 19 17  1  0
 20 28  1  0
 20 19  1  0
 20 21  1  1
 22 23  2  0
 22 21  1  0
 24 23  1  0
 25 24  2  0
 26 25  1  0
 26 27  2  0
 27 22  1  0
 28 29  1  0
 30 28  2  0
M  END
$$$$
