FPF.pdb
     RDKit          3D

 30 32  0  0  1  0  0  0  0  0999 V2000
    5.5444  -17.8806   20.1899 N   0  0  0  0  0  0  0  0  0  0  0  0
    6.0077  -16.7834   20.9724 C   0  0  1  0  0  0  0  0  0  0  0  0
    5.5928  -16.9341   22.4140 C   0  0  0  0  0  0  0  0  0  0  0  0
    6.1071  -15.8557   23.2836 C   0  0  0  0  0  0  0  0  0  0  0  0
    7.0493  -16.1339   24.2793 C   0  0  0  0  0  0  0  0  0  0  0  0
    7.5381  -15.1386   25.0680 C   0  0  0  0  0  0  0  0  0  0  0  0
    7.1301  -13.8275   24.9209 C   0  0  0  0  0  0  0  0  0  0  0  0
    6.2031  -13.5132   23.9502 C   0  0  0  0  0  0  0  0  0  0  0  0
    5.7152  -14.5347   23.1560 C   0  0  0  0  0  0  0  0  0  0  0  0
    7.4459  -16.4914   20.8817 C   0  0  0  0  0  0  0  0  0  0  0  0
    8.2299  -17.4432   21.1879 O   0  0  0  0  0  0  0  0  0  0  0  0
    7.9838  -15.2589   20.4897 N   0  0  0  0  0  0  0  0  0  0  0  0
    7.3154  -14.0107   20.2132 C   0  0  0  0  0  0  0  0  0  0  0  0
    8.2767  -13.3284   19.2264 C   0  0  0  0  0  0  0  0  0  0  0  0
    9.6081  -13.6603   19.7967 C   0  0  0  0  0  0  0  0  0  0  0  0
    9.4316  -15.0802   20.2866 C   0  0  1  0  0  0  0  0  0  0  0  0
   10.1658  -15.1930   21.5914 C   0  0  0  0  0  0  0  0  0  0  0  0
   10.2531  -14.1707   22.3246 O   0  0  0  0  0  0  0  0  0  0  0  0
   10.7619  -16.3961   22.0312 N   0  0  0  0  0  0  0  0  0  0  0  0
   11.9539  -16.3919   22.8993 C   0  0  1  0  0  0  0  0  0  0  0  0
   11.5937  -15.6703   24.1477 C   0  0  0  0  0  0  0  0  0  0  0  0
   10.3458  -16.1155   24.7997 C   0  0  0  0  0  0  0  0  0  0  0  0
    9.4485  -15.2779   25.3863 C   0  0  0  0  0  0  0  0  0  0  0  0
    8.3122  -15.8016   25.9615 C   0  0  0  0  0  0  0  0  0  0  0  0
    8.0722  -17.1562   25.9516 C   0  0  0  0  0  0  0  0  0  0  0  0
    8.9686  -18.0145   25.3636 C   0  0  0  0  0  0  0  0  0  0  0  0
   10.1024  -17.4717   24.7917 C   0  0  0  0  0  0  0  0  0  0  0  0
   12.2918  -17.8092   23.1415 C   0  0  0  0  0  0  0  0  0  0  0  0
   13.4319  -18.1062   23.8683 O   0  0  0  0  0  0  0  0  0  0  0  0
   11.5959  -18.7607   22.7199 O   0  0  0  0  0  0  0  0  0  0  0  0
  2  1  1  6
  2  3  1  0
  3  4  1  0
  4  9  1  0
  5  4  2  0
  5  6  1  0
  6  7  2  0
  7  8  1  0
  9  8  2  0
 10 12  1  0
 10  2  1  0
 11 10  2  0
 12 16  1  0
 13 12  1  0
 13 14  1  0
 14 15  1  0
 15 16  1  0
 16 17  1  1
 17 18  2  0
 19 17  1  0
 20 28  1  0
 20 19  1  0
 20 21  1  1
 22 23  2  0
 22 21  1  0
 24 23  1  0
 25 24  2  0
 26 25  1  0
 26 27  2  0
 27 22  1  0
 28 29  1  0
 30 28  2  0
M  END
$$$$
