FPF.pdb
     RDKit          3D

 30 32  0  0  1  0  0  0  0  0999 V2000
    5.4015  -18.2087   23.8933 N   0  0  0  0  0  0  0  0  0  0  0  0
    5.9985  -16.9200   24.0099 C   0  0  1  0  0  0  0  0  0  0  0  0
    6.0239  -16.4639   25.4467 C   0  0  0  0  0  0  0  0  0  0  0  0
    6.4833  -15.0685   25.6064 C   0  0  0  0  0  0  0  0  0  0  0  0
    7.2395  -14.4500   24.6053 C   0  0  0  0  0  0  0  0  0  0  0  0
    7.6467  -13.1590   24.7427 C   0  0  0  0  0  0  0  0  0  0  0  0
    7.3348  -12.4132   25.8623 C   0  0  0  0  0  0  0  0  0  0  0  0
    6.5907  -12.9874   26.8708 C   0  0  0  0  0  0  0  0  0  0  0  0
    6.1835  -14.3001   26.7175 C   0  0  0  0  0  0  0  0  0  0  0  0
    7.3290  -16.7708   23.4020 C   0  0  0  0  0  0  0  0  0  0  0  0
    8.2535  -17.4881   23.8973 O   0  0  0  0  0  0  0  0  0  0  0  0
    7.6257  -15.9069   22.3401 N   0  0  0  0  0  0  0  0  0  0  0  0
    6.7669  -14.9835   21.6392 C   0  0  0  0  0  0  0  0  0  0  0  0
    7.4326  -14.8920   20.2565 C   0  0  0  0  0  0  0  0  0  0  0  0
    8.8783  -14.8706   20.5991 C   0  0  0  0  0  0  0  0  0  0  0  0
    8.9755  -15.8414   21.7546 C   0  0  1  0  0  0  0  0  0  0  0  0
    9.9505  -15.2624   22.7387 C   0  0  0  0  0  0  0  0  0  0  0  0
    9.9683  -14.0126   22.9058 O   0  0  0  0  0  0  0  0  0  0  0  0
   10.8474  -16.0594   23.4848 N   0  0  0  0  0  0  0  0  0  0  0  0
   11.3235  -15.6411   24.8164 C   0  0  1  0  0  0  0  0  0  0  0  0
   10.1426  -15.5952   25.7177 C   0  0  0  0  0  0  0  0  0  0  0  0
   10.4347  -15.2769   27.1298 C   0  0  0  0  0  0  0  0  0  0  0  0
   10.7609  -16.2034   28.0710 C   0  0  0  0  0  0  0  0  0  0  0  0
   11.0197  -15.7940   29.3601 C   0  0  0  0  0  0  0  0  0  0  0  0
   10.9531  -14.4648   29.7087 C   0  0  0  0  0  0  0  0  0  0  0  0
   10.6249  -13.5177   28.7699 C   0  0  0  0  0  0  0  0  0  0  0  0
   10.3688  -13.9465   27.4824 C   0  0  0  0  0  0  0  0  0  0  0  0
   12.3164  -16.6515   25.2346 C   0  0  0  0  0  0  0  0  0  0  0  0
   12.2049  -17.9388   24.7377 O   0  0  0  0  0  0  0  0  0  0  0  0
   13.2584  -16.4016   26.0204 O   0  0  0  0  0  0  0  0  0  0  0  0
  2  1  1  1
  2  3  1  0
  3  4  1  0
  4  9  1  0
  5  4  2  0
  5  6  1  0
  6  7  2  0
  7  8  1  0
  9  8  2  0
 10 12  1  0
 10  2  1  0
 11 10  2  0
 12 16  1  0
 13 12  1  0
 13 14  1  0
 14 15  1  0
 15 16  1  0
 16 17  1  1
 17 18  2  0
 19 17  1  0
 20 28  1  0
 20 19  1  0
 20 21  1  1
 22 23  2  0
 22 21  1  0
 24 23  1  0
 25 24  2  0
 26 25  1  0
 26 27  2  0
 27 22  1  0
 28 29  1  0
 30 28  2  0
M  END
$$$$
