FPF.pdb
     RDKit          3D

 30 32  0  0  1  0  0  0  0  0999 V2000
   12.6985  -14.1691   19.7120 N   0  0  0  0  0  0  0  0  0  0  0  0
   11.2994  -14.1323   19.9801 C   0  0  1  0  0  0  0  0  0  0  0  0
   10.5530  -15.0939   19.0905 C   0  0  0  0  0  0  0  0  0  0  0  0
    9.1393  -14.7173   18.8829 C   0  0  0  0  0  0  0  0  0  0  0  0
    8.8087  -13.5745   18.1471 C   0  0  0  0  0  0  0  0  0  0  0  0
    7.5071  -13.2372   17.9388 C   0  0  0  0  0  0  0  0  0  0  0  0
    6.4694  -13.9992   18.4386 C   0  0  0  0  0  0  0  0  0  0  0  0
    6.7546  -15.1332   19.1687 C   0  0  0  0  0  0  0  0  0  0  0  0
    8.0819  -15.4640   19.3722 C   0  0  0  0  0  0  0  0  0  0  0  0
   10.9087  -14.3259   21.3843 C   0  0  0  0  0  0  0  0  0  0  0  0
   11.8475  -14.6120   22.1913 O   0  0  0  0  0  0  0  0  0  0  0  0
    9.5984  -14.2170   21.8673 N   0  0  0  0  0  0  0  0  0  0  0  0
    8.3656  -14.0214   21.1440 C   0  0  0  0  0  0  0  0  0  0  0  0
    7.4754  -13.3218   22.1840 C   0  0  0  0  0  0  0  0  0  0  0  0
    7.8121  -14.0509   23.4343 C   0  0  0  0  0  0  0  0  0  0  0  0
    9.3004  -14.2877   23.3079 C   0  0  1  0  0  0  0  0  0  0  0  0
    9.5761  -15.6655   23.8373 C   0  0  0  0  0  0  0  0  0  0  0  0
    9.5748  -16.6334   23.0291 O   0  0  0  0  0  0  0  0  0  0  0  0
    9.8372  -15.9215   25.2021 N   0  0  0  0  0  0  0  0  0  0  0  0
   10.4646  -17.1815   25.6422 C   0  0  1  0  0  0  0  0  0  0  0  0
   11.4808  -16.8378   26.6709 C   0  0  0  0  0  0  0  0  0  0  0  0
   10.9734  -16.0891   27.8381 C   0  0  0  0  0  0  0  0  0  0  0  0
   10.6181  -16.6629   29.0193 C   0  0  0  0  0  0  0  0  0  0  0  0
   10.1616  -15.8670   30.0462 C   0  0  0  0  0  0  0  0  0  0  0  0
   10.0600  -14.5034   29.8948 C   0  0  0  0  0  0  0  0  0  0  0  0
   10.4147  -13.9094   28.7086 C   0  0  0  0  0  0  0  0  0  0  0  0
   10.8703  -14.7230   27.6900 C   0  0  0  0  0  0  0  0  0  0  0  0
    9.3733  -18.0182   26.1813 C   0  0  0  0  0  0  0  0  0  0  0  0
    9.6502  -19.3294   26.5285 O   0  0  0  0  0  0  0  0  0  0  0  0
    8.2041  -17.5997   26.3402 O   0  0  0  0  0  0  0  0  0  0  0  0
  2  1  1  1
  2  3  1  0
  3  4  1  0
  4  9  1  0
  5  4  2  0
  5  6  1  0
  6  7  2  0
  7  8  1  0
  9  8  2  0
 10 12  1  0
 10  2  1  0
 11 10  2  0
 12 16  1  0
 13 12  1  0
 13 14  1  0
 14 15  1  0
 15 16  1  0
 16 17  1  6
 17 18  2  0
 19 17  1  0
 20 28  1  0
 20 19  1  0
 20 21  1  1
 22 23  2  0
 22 21  1  0
 24 23  1  0
 25 24  2  0
 26 25  1  0
 26 27  2  0
 27 22  1  0
 28 29  1  0
 30 28  2  0
M  END
$$$$
