FPF.pdb
     RDKit          3D

 30 32  0  0  1  0  0  0  0  0999 V2000
   11.4954  -17.8024   19.2759 N   0  0  0  0  0  0  0  0  0  0  0  0
   10.1455  -17.7645   19.7309 C   0  0  1  0  0  0  0  0  0  0  0  0
    9.7002  -19.1207   20.2163 C   0  0  0  0  0  0  0  0  0  0  0  0
    9.6198  -20.1275   19.1378 C   0  0  0  0  0  0  0  0  0  0  0  0
    8.5809  -20.0856   18.2021 C   0  0  0  0  0  0  0  0  0  0  0  0
    8.5165  -21.0006   17.1971 C   0  0  0  0  0  0  0  0  0  0  0  0
    9.4623  -21.9974   17.0594 C   0  0  0  0  0  0  0  0  0  0  0  0
   10.5019  -22.0717   17.9617 C   0  0  0  0  0  0  0  0  0  0  0  0
   10.5548  -21.1351   18.9777 C   0  0  0  0  0  0  0  0  0  0  0  0
    9.8337  -16.7346   20.7329 C   0  0  0  0  0  0  0  0  0  0  0  0
   10.7578  -16.4631   21.5616 O   0  0  0  0  0  0  0  0  0  0  0  0
    8.6109  -16.0573   20.8230 N   0  0  0  0  0  0  0  0  0  0  0  0
    7.4361  -16.1672   19.9928 C   0  0  0  0  0  0  0  0  0  0  0  0
    6.7879  -14.7817   20.1461 C   0  0  0  0  0  0  0  0  0  0  0  0
    6.9846  -14.4954   21.5908 C   0  0  0  0  0  0  0  0  0  0  0  0
    8.3626  -15.0521   21.8705 C   0  0  1  0  0  0  0  0  0  0  0  0
    8.3119  -15.7010   23.2236 C   0  0  0  0  0  0  0  0  0  0  0  0
    8.0778  -16.9382   23.2907 O   0  0  0  0  0  0  0  0  0  0  0  0
    8.5162  -14.9832   24.4233 N   0  0  0  0  0  0  0  0  0  0  0  0
    8.6362  -15.6724   25.7214 C   0  0  1  0  0  0  0  0  0  0  0  0
    8.7554  -14.6275   26.7716 C   0  0  0  0  0  0  0  0  0  0  0  0
    7.6615  -13.6362   26.8068 C   0  0  0  0  0  0  0  0  0  0  0  0
    7.0568  -13.2047   27.9465 C   0  0  0  0  0  0  0  0  0  0  0  0
    6.0481  -12.2709   27.8636 C   0  0  0  0  0  0  0  0  0  0  0  0
    5.6442  -11.7696   26.6478 C   0  0  0  0  0  0  0  0  0  0  0  0
    6.2448  -12.1954   25.4885 C   0  0  0  0  0  0  0  0  0  0  0  0
    7.2544  -13.1320   25.5908 C   0  0  0  0  0  0  0  0  0  0  0  0
    7.4133  -16.4874   25.8693 C   0  0  0  0  0  0  0  0  0  0  0  0
    6.3976  -16.3368   24.9409 O   0  0  0  0  0  0  0  0  0  0  0  0
    7.2476  -17.3114   26.7972 O   0  0  0  0  0  0  0  0  0  0  0  0
  2  1  1  1
  2  3  1  0
  3  4  1  0
  4  9  1  0
  5  4  2  0
  5  6  1  0
  6  7  2  0
  7  8  1  0
  9  8  2  0
 10 12  1  0
 10  2  1  0
 11 10  2  0
 12 16  1  0
 13 12  1  0
 13 14  1  0
 14 15  1  0
 15 16  1  0
 16 17  1  1
 17 18  2  0
 19 17  1  0
 20 28  1  0
 20 19  1  0
 20 21  1  1
 22 23  2  0
 22 21  1  0
 24 23  1  0
 25 24  2  0
 26 25  1  0
 26 27  2  0
 27 22  1  0
 28 29  1  0
 30 28  2  0
M  END
$$$$
