FPF.pdb
     RDKit          3D

 30 32  0  0  1  0  0  0  0  0999 V2000
    8.9986  -15.3753   18.6388 N   0  0  0  0  0  0  0  0  0  0  0  0
    8.1653  -15.8083   19.7107 C   0  0  1  0  0  0  0  0  0  0  0  0
    7.6504  -17.2039   19.4655 C   0  0  0  0  0  0  0  0  0  0  0  0
    6.6970  -17.6624   20.4971 C   0  0  0  0  0  0  0  0  0  0  0  0
    5.3200  -17.4946   20.3172 C   0  0  0  0  0  0  0  0  0  0  0  0
    4.4400  -17.9336   21.2575 C   0  0  0  0  0  0  0  0  0  0  0  0
    4.8632  -18.5560   22.4154 C   0  0  0  0  0  0  0  0  0  0  0  0
    6.2126  -18.7402   22.6289 C   0  0  0  0  0  0  0  0  0  0  0  0
    7.0954  -18.2892   21.6646 C   0  0  0  0  0  0  0  0  0  0  0  0
    8.7460  -15.7064   21.0577 C   0  0  0  0  0  0  0  0  0  0  0  0
    9.8979  -16.2206   21.2101 O   0  0  0  0  0  0  0  0  0  0  0  0
    8.1185  -15.0937   22.1498 N   0  0  0  0  0  0  0  0  0  0  0  0
    6.7974  -14.5225   22.2489 C   0  0  0  0  0  0  0  0  0  0  0  0
    6.9708  -13.4695   23.3555 C   0  0  0  0  0  0  0  0  0  0  0  0
    7.8472  -14.1710   24.3290 C   0  0  0  0  0  0  0  0  0  0  0  0
    8.8035  -14.9392   23.4444 C   0  0  1  0  0  0  0  0  0  0  0  0
    9.0242  -16.2776   24.0882 C   0  0  0  0  0  0  0  0  0  0  0  0
    9.4276  -17.2327   23.3705 O   0  0  0  0  0  0  0  0  0  0  0  0
    8.7994  -16.5103   25.4635 N   0  0  0  0  0  0  0  0  0  0  0  0
    9.6107  -17.4802   26.2224 C   0  0  1  0  0  0  0  0  0  0  0  0
   10.7310  -16.7307   26.8486 C   0  0  0  0  0  0  0  0  0  0  0  0
   10.3358  -15.5712   27.6731 C   0  0  0  0  0  0  0  0  0  0  0  0
    9.0525  -15.1500   27.8353 C   0  0  0  0  0  0  0  0  0  0  0  0
    8.7963  -14.0574   28.6334 C   0  0  0  0  0  0  0  0  0  0  0  0
    9.8173  -13.3875   29.2673 C   0  0  0  0  0  0  0  0  0  0  0  0
   11.1178  -13.8006   29.1132 C   0  0  0  0  0  0  0  0  0  0  0  0
   11.3559  -14.8979   28.3094 C   0  0  0  0  0  0  0  0  0  0  0  0
    8.7043  -18.0828   27.2209 C   0  0  0  0  0  0  0  0  0  0  0  0
    7.3945  -17.6390   27.2834 O   0  0  0  0  0  0  0  0  0  0  0  0
    9.0626  -18.9791   28.0182 O   0  0  0  0  0  0  0  0  0  0  0  0
  2  1  1  6
  2  3  1  0
  3  4  1  0
  4  9  1  0
  5  4  2  0
  5  6  1  0
  6  7  2  0
  7  8  1  0
  9  8  2  0
 10 12  1  0
 10  2  1  0
 11 10  2  0
 12 16  1  0
 13 12  1  0
 13 14  1  0
 14 15  1  0
 15 16  1  0
 16 17  1  1
 17 18  2  0
 19 17  1  0
 20 28  1  0
 20 19  1  0
 20 21  1  1
 22 23  2  0
 22 21  1  0
 24 23  1  0
 25 24  2  0
 26 25  1  0
 26 27  2  0
 27 22  1  0
 28 29  1  0
 30 28  2  0
M  END
$$$$
