FPF.pdb
     RDKit          3D

 30 32  0  0  1  0  0  0  0  0999 V2000
    5.7292  -17.0930   22.8241 N   0  0  0  0  0  0  0  0  0  0  0  0
    7.0085  -16.9546   22.2119 C   0  0  1  0  0  0  0  0  0  0  0  0
    7.0555  -15.7344   21.3274 C   0  0  0  0  0  0  0  0  0  0  0  0
    7.4266  -14.5025   22.0542 C   0  0  0  0  0  0  0  0  0  0  0  0
    6.9809  -14.2873   23.3624 C   0  0  0  0  0  0  0  0  0  0  0  0
    7.3379  -13.1624   24.0396 C   0  0  0  0  0  0  0  0  0  0  0  0
    8.1455  -12.1970   23.4715 C   0  0  0  0  0  0  0  0  0  0  0  0
    8.6054  -12.3730   22.1839 C   0  0  0  0  0  0  0  0  0  0  0  0
    8.2349  -13.5211   21.5078 C   0  0  0  0  0  0  0  0  0  0  0  0
    8.1623  -16.9706   23.1232 C   0  0  0  0  0  0  0  0  0  0  0  0
    7.9265  -17.3353   24.3172 O   0  0  0  0  0  0  0  0  0  0  0  0
    9.4677  -16.6156   22.7597 N   0  0  0  0  0  0  0  0  0  0  0  0
    9.9407  -15.9424   21.5746 C   0  0  0  0  0  0  0  0  0  0  0  0
   11.3833  -16.4590   21.4503 C   0  0  0  0  0  0  0  0  0  0  0  0
   11.8427  -16.4660   22.8634 C   0  0  0  0  0  0  0  0  0  0  0  0
   10.6192  -16.9262   23.6238 C   0  0  1  0  0  0  0  0  0  0  0  0
   10.5587  -16.1251   24.8923 C   0  0  0  0  0  0  0  0  0  0  0  0
   10.7125  -14.8753   24.8241 O   0  0  0  0  0  0  0  0  0  0  0  0
   10.3365  -16.7132   26.1576 N   0  0  0  0  0  0  0  0  0  0  0  0
   10.7072  -16.0189   27.4047 C   0  0  1  0  0  0  0  0  0  0  0  0
    9.4571  -15.7866   28.1741 C   0  0  0  0  0  0  0  0  0  0  0  0
    8.5490  -14.7650   27.6151 C   0  0  0  0  0  0  0  0  0  0  0  0
    7.3977  -15.0479   26.9480 C   0  0  0  0  0  0  0  0  0  0  0  0
    6.6215  -14.0145   26.4727 C   0  0  0  0  0  0  0  0  0  0  0  0
    6.9932  -12.7035   26.6622 C   0  0  0  0  0  0  0  0  0  0  0  0
    8.1526  -12.4019   27.3334 C   0  0  0  0  0  0  0  0  0  0  0  0
    8.9183  -13.4508   27.8030 C   0  0  0  0  0  0  0  0  0  0  0  0
   11.6483  -16.9131   28.1093 C   0  0  0  0  0  0  0  0  0  0  0  0
   12.3195  -16.4301   29.2195 O   0  0  0  0  0  0  0  0  0  0  0  0
   11.8713  -18.0918   27.7512 O   0  0  0  0  0  0  0  0  0  0  0  0
  2  1  1  1
  2  3  1  0
  3  4  1  0
  4  9  1  0
  5  4  2  0
  5  6  1  0
  6  7  2  0
  7  8  1  0
  9  8  2  0
 10 12  1  0
 10  2  1  0
 11 10  2  0
 12 16  1  0
 13 12  1  0
 13 14  1  0
 14 15  1  0
 15 16  1  0
 16 17  1  1
 17 18  2  0
 19 17  1  0
 20 28  1  0
 20 19  1  0
 20 21  1  1
 22 23  2  0
 22 21  1  0
 24 23  1  0
 25 24  2  0
 26 25  1  0
 26 27  2  0
 27 22  1  0
 28 29  1  0
 30 28  2  0
M  END
$$$$
