FPF.pdb
     RDKit          3D

 30 32  0  0  1  0  0  0  0  0999 V2000
    5.5204  -18.1167   24.7666 N   0  0  0  0  0  0  0  0  0  0  0  0
    6.2032  -16.8666   24.7241 C   0  0  1  0  0  0  0  0  0  0  0  0
    6.6427  -16.4435   26.1029 C   0  0  0  0  0  0  0  0  0  0  0  0
    7.1812  -15.0681   26.1458 C   0  0  0  0  0  0  0  0  0  0  0  0
    8.5310  -14.8243   25.8715 C   0  0  0  0  0  0  0  0  0  0  0  0
    9.0239  -13.5562   25.8917 C   0  0  0  0  0  0  0  0  0  0  0  0
    8.2227  -12.4690   26.1803 C   0  0  0  0  0  0  0  0  0  0  0  0
    6.8867  -12.6685   26.4556 C   0  0  0  0  0  0  0  0  0  0  0  0
    6.3995  -13.9625   26.4312 C   0  0  0  0  0  0  0  0  0  0  0  0
    7.3269  -16.7799   23.7798 C   0  0  0  0  0  0  0  0  0  0  0  0
    8.2739  -17.6076   23.9602 O   0  0  0  0  0  0  0  0  0  0  0  0
    7.4099  -15.8622   22.7247 N   0  0  0  0  0  0  0  0  0  0  0  0
    6.4160  -14.9432   22.2259 C   0  0  0  0  0  0  0  0  0  0  0  0
    6.8295  -14.7697   20.7554 C   0  0  0  0  0  0  0  0  0  0  0  0
    8.3115  -14.7088   20.8457 C   0  0  0  0  0  0  0  0  0  0  0  0
    8.6356  -15.7224   21.9203 C   0  0  1  0  0  0  0  0  0  0  0  0
    9.7486  -15.1488   22.7489 C   0  0  0  0  0  0  0  0  0  0  0  0
    9.8332  -13.8956   22.8605 O   0  0  0  0  0  0  0  0  0  0  0  0
   10.7036  -15.9546   23.4085 N   0  0  0  0  0  0  0  0  0  0  0  0
   11.1789  -15.6293   24.7660 C   0  0  1  0  0  0  0  0  0  0  0  0
   10.0308  -15.8025   25.6937 C   0  0  0  0  0  0  0  0  0  0  0  0
   10.2296  -15.2674   27.0556 C   0  0  0  0  0  0  0  0  0  0  0  0
   10.1695  -13.9464   27.3745 C   0  0  0  0  0  0  0  0  0  0  0  0
   10.3655  -13.5576   28.6810 C   0  0  0  0  0  0  0  0  0  0  0  0
   10.6207  -14.4840   29.6656 C   0  0  0  0  0  0  0  0  0  0  0  0
   10.6847  -15.8212   29.3593 C   0  0  0  0  0  0  0  0  0  0  0  0
   10.4855  -16.1925   28.0442 C   0  0  0  0  0  0  0  0  0  0  0  0
   12.2840  -16.5670   25.0509 C   0  0  0  0  0  0  0  0  0  0  0  0
   12.1699  -17.8787   24.6232 O   0  0  0  0  0  0  0  0  0  0  0  0
   13.3239  -16.2340   25.6634 O   0  0  0  0  0  0  0  0  0  0  0  0
  2  1  1  1
  2  3  1  0
  3  4  1  0
  4  9  1  0
  5  4  2  0
  5  6  1  0
  6  7  2  0
  7  8  1  0
  9  8  2  0
 10 12  1  0
 10  2  1  0
 11 10  2  0
 12 16  1  0
 13 12  1  0
 13 14  1  0
 14 15  1  0
 15 16  1  0
 16 17  1  1
 17 18  2  0
 19 17  1  0
 20 28  1  0
 20 19  1  0
 20 21  1  1
 22 23  2  0
 22 21  1  0
 24 23  1  0
 25 24  2  0
 26 25  1  0
 26 27  2  0
 27 22  1  0
 28 29  1  0
 30 28  2  0
M  END
$$$$
