FPF.pdb
     RDKit          3D

 30 32  0  0  1  0  0  0  0  0999 V2000
    6.6503  -16.9486   26.0502 N   0  0  0  0  0  0  0  0  0  0  0  0
    6.5780  -16.4786   24.7069 C   0  0  1  0  0  0  0  0  0  0  0  0
    6.1732  -15.0270   24.6630 C   0  0  0  0  0  0  0  0  0  0  0  0
    6.9669  -14.1735   25.5714 C   0  0  0  0  0  0  0  0  0  0  0  0
    8.2402  -13.7303   25.1989 C   0  0  0  0  0  0  0  0  0  0  0  0
    8.9642  -12.9286   26.0262 C   0  0  0  0  0  0  0  0  0  0  0  0
    8.4789  -12.5230   27.2538 C   0  0  0  0  0  0  0  0  0  0  0  0
    7.2276  -12.9385   27.6566 C   0  0  0  0  0  0  0  0  0  0  0  0
    6.5031  -13.7528   26.8054 C   0  0  0  0  0  0  0  0  0  0  0  0
    7.7754  -16.7010   23.8829 C   0  0  0  0  0  0  0  0  0  0  0  0
    8.5385  -17.6482   24.2501 O   0  0  0  0  0  0  0  0  0  0  0  0
    8.1123  -15.9487   22.7504 N   0  0  0  0  0  0  0  0  0  0  0  0
    7.3749  -14.8974   22.0928 C   0  0  0  0  0  0  0  0  0  0  0  0
    7.8863  -14.9854   20.6457 C   0  0  0  0  0  0  0  0  0  0  0  0
    9.3381  -15.2392   20.8352 C   0  0  0  0  0  0  0  0  0  0  0  0
    9.3750  -16.1712   22.0257 C   0  0  1  0  0  0  0  0  0  0  0  0
   10.5475  -15.7642   22.8706 C   0  0  0  0  0  0  0  0  0  0  0  0
   11.1701  -14.7095   22.5702 O   0  0  0  0  0  0  0  0  0  0  0  0
   10.9812  -16.5132   23.9874 N   0  0  0  0  0  0  0  0  0  0  0  0
   12.0965  -16.0538   24.8358 C   0  0  1  0  0  0  0  0  0  0  0  0
   11.7467  -14.6991   25.3369 C   0  0  0  0  0  0  0  0  0  0  0  0
   10.6908  -14.6576   26.3684 C   0  0  0  0  0  0  0  0  0  0  0  0
   10.2007  -13.5126   26.9155 C   0  0  0  0  0  0  0  0  0  0  0  0
    9.2097  -13.5900   27.8685 C   0  0  0  0  0  0  0  0  0  0  0  0
    8.7098  -14.8058   28.2743 C   0  0  0  0  0  0  0  0  0  0  0  0
    9.1944  -15.9705   27.7315 C   0  0  0  0  0  0  0  0  0  0  0  0
   10.1879  -15.8736   26.7772 C   0  0  0  0  0  0  0  0  0  0  0  0
   12.2216  -17.0453   25.9234 C   0  0  0  0  0  0  0  0  0  0  0  0
   11.3710  -18.1375   25.9287 O   0  0  0  0  0  0  0  0  0  0  0  0
   13.0621  -16.9472   26.8462 O   0  0  0  0  0  0  0  0  0  0  0  0
  2  1  1  1
  2  3  1  0
  3  4  1  0
  4  9  1  0
  5  4  2  0
  5  6  1  0
  6  7  2  0
  7  8  1  0
  9  8  2  0
 10 12  1  0
 10  2  1  0
 11 10  2  0
 12 16  1  0
 13 12  1  0
 13 14  1  0
 14 15  1  0
 15 16  1  0
 16 17  1  1
 17 18  2  0
 19 17  1  0
 20 28  1  0
 20 19  1  0
 20 21  1  1
 22 23  2  0
 22 21  1  0
 24 23  1  0
 25 24  2  0
 26 25  1  0
 26 27  2  0
 27 22  1  0
 28 29  1  0
 30 28  2  0
M  END
$$$$
