FPF.pdb
     RDKit          3D

 30 32  0  0  1  0  0  0  0  0999 V2000
    6.5479  -19.3816   21.0630 N   0  0  0  0  0  0  0  0  0  0  0  0
    6.6609  -18.5103   22.1850 C   0  0  1  0  0  0  0  0  0  0  0  0
    6.6887  -19.2905   23.4748 C   0  0  0  0  0  0  0  0  0  0  0  0
    6.7158  -18.4296   24.6754 C   0  0  0  0  0  0  0  0  0  0  0  0
    7.8132  -18.4531   25.5424 C   0  0  0  0  0  0  0  0  0  0  0  0
    7.8480  -17.6468   26.6379 C   0  0  0  0  0  0  0  0  0  0  0  0
    6.8142  -16.7814   26.9371 C   0  0  0  0  0  0  0  0  0  0  0  0
    5.7152  -16.7289   26.1065 C   0  0  0  0  0  0  0  0  0  0  0  0
    5.6937  -17.5538   24.9967 C   0  0  0  0  0  0  0  0  0  0  0  0
    7.7738  -17.5502   22.1436 C   0  0  0  0  0  0  0  0  0  0  0  0
    8.9423  -18.0463   22.1975 O   0  0  0  0  0  0  0  0  0  0  0  0
    7.6222  -16.1607   22.0522 N   0  0  0  0  0  0  0  0  0  0  0  0
    6.4349  -15.3542   22.1978 C   0  0  0  0  0  0  0  0  0  0  0  0
    6.7633  -14.1188   21.3438 C   0  0  0  0  0  0  0  0  0  0  0  0
    8.1950  -13.8815   21.6632 C   0  0  0  0  0  0  0  0  0  0  0  0
    8.7652  -15.2789   21.7602 C   0  0  1  0  0  0  0  0  0  0  0  0
    9.7394  -15.2814   22.9027 C   0  0  0  0  0  0  0  0  0  0  0  0
   10.9015  -14.8334   22.7052 O   0  0  0  0  0  0  0  0  0  0  0  0
    9.4079  -15.7640   24.1886 N   0  0  0  0  0  0  0  0  0  0  0  0
   10.2374  -15.4485   25.3663 C   0  0  1  0  0  0  0  0  0  0  0  0
    9.3226  -15.2947   26.5275 C   0  0  0  0  0  0  0  0  0  0  0  0
    8.3116  -14.2259   26.4012 C   0  0  0  0  0  0  0  0  0  0  0  0
    7.0947  -14.2486   27.0088 C   0  0  0  0  0  0  0  0  0  0  0  0
    6.2292  -13.1932   26.8263 C   0  0  0  0  0  0  0  0  0  0  0  0
    6.5768  -12.1190   26.0401 C   0  0  0  0  0  0  0  0  0  0  0  0
    7.8016  -12.0816   25.4200 C   0  0  0  0  0  0  0  0  0  0  0  0
    8.6565  -13.1486   25.6143 C   0  0  0  0  0  0  0  0  0  0  0  0
   11.1715  -16.5813   25.5271 C   0  0  0  0  0  0  0  0  0  0  0  0
   11.0651  -17.6586   24.6642 O   0  0  0  0  0  0  0  0  0  0  0  0
   12.0591  -16.6170   26.4093 O   0  0  0  0  0  0  0  0  0  0  0  0
  2  1  1  6
  2  3  1  0
  3  4  1  0
  4  9  1  0
  5  4  2  0
  5  6  1  0
  6  7  2  0
  7  8  1  0
  9  8  2  0
 10 12  1  0
 10  2  1  0
 11 10  2  0
 12 16  1  0
 13 12  1  0
 13 14  1  0
 14 15  1  0
 15 16  1  0
 16 17  1  1
 17 18  2  0
 19 17  1  0
 20 28  1  0
 20 19  1  0
 20 21  1  1
 22 23  2  0
 22 21  1  0
 24 23  1  0
 25 24  2  0
 26 25  1  0
 26 27  2  0
 27 22  1  0
 28 29  1  0
 30 28  2  0
M  END
$$$$
