FPF.pdb
     RDKit          3D

 30 32  0  0  1  0  0  0  0  0999 V2000
    6.2670  -18.4300   21.4859 N   0  0  0  0  0  0  0  0  0  0  0  0
    7.0486  -17.2407   21.5585 C   0  0  1  0  0  0  0  0  0  0  0  0
    6.1702  -16.0251   21.7131 C   0  0  0  0  0  0  0  0  0  0  0  0
    6.9026  -14.7526   21.5461 C   0  0  0  0  0  0  0  0  0  0  0  0
    7.2629  -13.9882   22.6607 C   0  0  0  0  0  0  0  0  0  0  0  0
    7.9542  -12.8260   22.5096 C   0  0  0  0  0  0  0  0  0  0  0  0
    8.3252  -12.3571   21.2647 C   0  0  0  0  0  0  0  0  0  0  0  0
    7.9888  -13.0825   20.1417 C   0  0  0  0  0  0  0  0  0  0  0  0
    7.2865  -14.2618   20.3105 C   0  0  0  0  0  0  0  0  0  0  0  0
    8.1151  -17.2333   22.5707 C   0  0  0  0  0  0  0  0  0  0  0  0
    7.7747  -17.5827   23.7439 O   0  0  0  0  0  0  0  0  0  0  0  0
    9.4453  -16.8721   22.3215 N   0  0  0  0  0  0  0  0  0  0  0  0
   10.0406  -16.3249   21.1268 C   0  0  0  0  0  0  0  0  0  0  0  0
   11.5003  -16.7949   21.2353 C   0  0  0  0  0  0  0  0  0  0  0  0
   11.7859  -16.6172   22.6827 C   0  0  0  0  0  0  0  0  0  0  0  0
   10.4917  -17.0329   23.3455 C   0  0  1  0  0  0  0  0  0  0  0  0
   10.2585  -16.0910   24.4913 C   0  0  0  0  0  0  0  0  0  0  0  0
    9.6119  -15.0297   24.2775 O   0  0  0  0  0  0  0  0  0  0  0  0
   10.7326  -16.3450   25.7978 N   0  0  0  0  0  0  0  0  0  0  0  0
   10.2711  -15.5511   26.9517 C   0  0  1  0  0  0  0  0  0  0  0  0
    8.7942  -15.6971   27.0312 C   0  0  0  0  0  0  0  0  0  0  0  0
    8.0229  -14.4520   26.8439 C   0  0  0  0  0  0  0  0  0  0  0  0
    6.7540  -14.4044   26.3559 C   0  0  0  0  0  0  0  0  0  0  0  0
    6.1251  -13.1861   26.2277 C   0  0  0  0  0  0  0  0  0  0  0  0
    6.7604  -12.0193   26.5851 C   0  0  0  0  0  0  0  0  0  0  0  0
    8.0414  -12.0509   27.0791 C   0  0  0  0  0  0  0  0  0  0  0  0
    8.6562  -13.2814   27.2008 C   0  0  0  0  0  0  0  0  0  0  0  0
   10.9597  -16.1059   28.1348 C   0  0  0  0  0  0  0  0  0  0  0  0
   11.3111  -15.2480   29.1628 O   0  0  0  0  0  0  0  0  0  0  0  0
   11.2440  -17.3192   28.2553 O   0  0  0  0  0  0  0  0  0  0  0  0
  2  1  1  1
  2  3  1  0
  3  4  1  0
  4  9  1  0
  5  4  2  0
  5  6  1  0
  6  7  2  0
  7  8  1  0
  9  8  2  0
 10 12  1  0
 10  2  1  0
 11 10  2  0
 12 16  1  0
 13 12  1  0
 13 14  1  0
 14 15  1  0
 15 16  1  0
 16 17  1  1
 17 18  2  0
 19 17  1  0
 20 28  1  0
 20 19  1  0
 20 21  1  1
 22 23  2  0
 22 21  1  0
 24 23  1  0
 25 24  2  0
 26 25  1  0
 26 27  2  0
 27 22  1  0
 28 29  1  0
 30 28  2  0
M  END
$$$$
