MST.pdb
     RDKit          3D

 22 21  0  0  1  0  0  0  0  0999 V2000
   -2.5264  -31.5693   32.5951 C   0  0  0  0  0  0  0  0  0  0  0  0
   -2.6544  -29.7451   32.6995 S   0  0  0  0  0  0  0  0  0  0  0  0
   -2.3493  -29.0960   31.0502 C   0  0  0  0  0  0  0  0  0  0  0  0
   -2.3414  -27.5627   31.0500 C   0  0  0  0  0  0  0  0  0  0  0  0
   -2.1421  -27.1387   29.6117 C   0  0  2  0  0  0  0  0  0  0  0  0
   -0.7328  -27.2711   29.3196 N   0  0  0  0  0  0  0  0  0  0  0  0
   -2.5771  -25.7654   29.3578 C   0  0  0  0  0  0  0  0  0  0  0  0
   -1.8891  -24.7427   29.6185 O   0  0  0  0  0  0  0  0  0  0  0  0
   -4.5383  -22.6656   26.7574 O   0  0  0  0  0  0  0  0  0  0  0  0
   -4.0207  -23.9444   27.0231 C   0  0  0  0  0  0  0  0  0  0  0  0
   -4.3535  -24.2124   28.4971 C   0  0  2  0  0  0  0  0  0  0  0  0
   -3.8532  -25.5396   28.7804 N   0  0  0  0  0  0  0  0  0  0  0  0
   -5.8174  -24.2121   28.7100 C   0  0  0  0  0  0  0  0  0  0  0  0
   -6.4964  -25.1638   28.2712 O   0  0  0  0  0  0  0  0  0  0  0  0
   -7.6806  -23.1771   32.0847 C   0  0  0  0  0  0  0  0  0  0  0  0
   -8.3069  -22.5575   30.8774 C   0  0  1  0  0  0  0  0  0  0  0  0
   -7.9346  -21.2195   30.8251 O   0  0  0  0  0  0  0  0  0  0  0  0
   -7.9209  -23.2898   29.6085 C   0  0  2  0  0  0  0  0  0  0  0  0
   -6.4995  -23.1740   29.3956 N   0  0  0  0  0  0  0  0  0  0  0  0
   -8.7130  -22.8335   28.4593 C   0  0  0  0  0  0  0  0  0  0  0  0
   -8.1958  -22.2897   27.4514 O   0  0  0  0  0  0  0  0  0  0  0  0
  -10.0873  -23.0012   28.4692 O   0  0  0  0  0  0  0  0  0  0  0  0
  2  1  1  0
  3  2  1  0
  3  4  1  0
  4  5  1  0
  5  7  1  0
  5  6  1  1
  7 12  1  0
  7  8  2  0
  9 10  1  0
 11 10  1  6
 11 13  1  0
 12 11  1  0
 13 14  2  0
 16 15  1  1
 16 18  1  0
 16 17  1  0
 18 20  1  0
 19 13  1  0
 18 19  1  6
 20 22  1  0
 21 20  2  0
M  END
$$$$
