MST.pdb
     RDKit          3D

 22 21  0  0  1  0  0  0  0  0999 V2000
    8.5564  -11.8115   20.2665 C   0  0  0  0  0  0  0  0  0  0  0  0
    7.8945  -12.2189   18.6078 S   0  0  0  0  0  0  0  0  0  0  0  0
    8.2394  -13.9589   18.3111 C   0  0  0  0  0  0  0  0  0  0  0  0
    8.0059  -14.7943   19.5755 C   0  0  0  0  0  0  0  0  0  0  0  0
    8.5062  -16.1873   19.2632 C   0  0  2  0  0  0  0  0  0  0  0  0
    7.6179  -16.7465   18.2696 N   0  0  0  0  0  0  0  0  0  0  0  0
    8.5467  -17.0547   20.4403 C   0  0  0  0  0  0  0  0  0  0  0  0
    7.5569  -17.6942   20.8858 O   0  0  0  0  0  0  0  0  0  0  0  0
   12.1807  -17.6825   22.1646 O   0  0  0  0  0  0  0  0  0  0  0  0
   11.2292  -18.7109   22.2684 C   0  0  0  0  0  0  0  0  0  0  0  0
    9.8742  -17.9952   22.3538 C   0  0  2  0  0  0  0  0  0  0  0  0
    9.7677  -17.2051   21.1471 N   0  0  0  0  0  0  0  0  0  0  0  0
    9.8406  -17.0784   23.5143 C   0  0  0  0  0  0  0  0  0  0  0  0
   10.5350  -16.0409   23.4906 O   0  0  0  0  0  0  0  0  0  0  0  0
    7.5147  -14.7443   24.9378 C   0  0  0  0  0  0  0  0  0  0  0  0
    7.8183  -15.7348   26.0150 C   0  0  1  0  0  0  0  0  0  0  0  0
    6.7794  -16.6563   26.0720 O   0  0  0  0  0  0  0  0  0  0  0  0
    9.1519  -16.4170   25.7883 C   0  0  2  0  0  0  0  0  0  0  0  0
    9.0504  -17.3191   24.6680 N   0  0  0  0  0  0  0  0  0  0  0  0
    9.6388  -17.0706   27.0098 C   0  0  0  0  0  0  0  0  0  0  0  0
    9.8651  -18.3050   27.0751 O   0  0  0  0  0  0  0  0  0  0  0  0
    9.8632  -16.3116   28.1457 O   0  0  0  0  0  0  0  0  0  0  0  0
  2  1  1  0
  3  2  1  0
  3  4  1  0
  4  5  1  0
  5  7  1  0
  5  6  1  6
  7 12  1  0
  7  8  2  0
  9 10  1  0
 11 10  1  6
 11 13  1  0
 12 11  1  0
 13 14  2  0
 16 15  1  6
 16 18  1  0
 16 17  1  0
 18 20  1  0
 19 13  1  0
 18 19  1  6
 20 22  1  0
 21 20  2  0
M  END
$$$$
