MST.pdb
     RDKit          3D

 22 21  0  0  1  0  0  0  0  0999 V2000
    8.3233  -11.5934   19.1525 C   0  0  0  0  0  0  0  0  0  0  0  0
    8.4382  -12.9284   20.4015 S   0  0  0  0  0  0  0  0  0  0  0  0
    6.7575  -13.4333   20.7953 C   0  0  0  0  0  0  0  0  0  0  0  0
    6.7327  -14.3980   21.9868 C   0  0  0  0  0  0  0  0  0  0  0  0
    7.5925  -15.5794   21.5953 C   0  0  2  0  0  0  0  0  0  0  0  0
    6.8188  -16.3843   20.6776 N   0  0  0  0  0  0  0  0  0  0  0  0
    8.0046  -16.3882   22.7424 C   0  0  0  0  0  0  0  0  0  0  0  0
    7.2215  -17.0950   23.4312 O   0  0  0  0  0  0  0  0  0  0  0  0
   11.9122  -17.1532   23.1740 O   0  0  0  0  0  0  0  0  0  0  0  0
   10.9798  -18.0380   23.7411 C   0  0  0  0  0  0  0  0  0  0  0  0
    9.8499  -17.1440   24.2696 C   0  0  2  0  0  0  0  0  0  0  0  0
    9.3700  -16.3970   23.1278 N   0  0  0  0  0  0  0  0  0  0  0  0
   10.3679  -16.1841   25.2689 C   0  0  0  0  0  0  0  0  0  0  0  0
   11.2596  -15.3773   24.9325 O   0  0  0  0  0  0  0  0  0  0  0  0
    9.4425  -13.1408   26.9539 C   0  0  0  0  0  0  0  0  0  0  0  0
    9.6320  -14.1812   28.0100 C   0  0  1  0  0  0  0  0  0  0  0  0
    8.3861  -14.6918   28.3544 O   0  0  0  0  0  0  0  0  0  0  0  0
   10.5727  -15.2774   27.5533 C   0  0  2  0  0  0  0  0  0  0  0  0
    9.8987  -16.1312   26.6069 N   0  0  0  0  0  0  0  0  0  0  0  0
   11.1367  -16.0141   28.6915 C   0  0  0  0  0  0  0  0  0  0  0  0
   11.7513  -15.4471   29.6297 O   0  0  0  0  0  0  0  0  0  0  0  0
   10.9951  -17.3900   28.7503 O   0  0  0  0  0  0  0  0  0  0  0  0
  2  1  1  0
  3  2  1  0
  3  4  1  0
  4  5  1  0
  5  7  1  0
  5  6  1  6
  7 12  1  0
  7  8  2  0
  9 10  1  0
 11 10  1  6
 11 13  1  0
 12 11  1  0
 13 14  2  0
 16 15  1  6
 16 18  1  0
 16 17  1  0
 18 20  1  0
 19 13  1  0
 18 19  1  6
 20 22  1  0
 21 20  2  0
M  END
$$$$
