MST.pdb
     RDKit          3D

 22 21  0  0  1  0  0  0  0  0999 V2000
    8.1856  -11.3214   20.7069 C   0  0  0  0  0  0  0  0  0  0  0  0
    7.8120  -12.2341   19.1633 S   0  0  0  0  0  0  0  0  0  0  0  0
    8.2279  -13.9597   19.4528 C   0  0  0  0  0  0  0  0  0  0  0  0
    7.5576  -14.4857   20.7276 C   0  0  0  0  0  0  0  0  0  0  0  0
    7.9071  -15.9548   20.8167 C   0  0  2  0  0  0  0  0  0  0  0  0
    6.9720  -16.6672   19.9759 N   0  0  0  0  0  0  0  0  0  0  0  0
    7.8439  -16.4730   22.1831 C   0  0  0  0  0  0  0  0  0  0  0  0
    6.7959  -16.9094   22.7295 O   0  0  0  0  0  0  0  0  0  0  0  0
   10.9661  -18.1082   25.0694 O   0  0  0  0  0  0  0  0  0  0  0  0
    9.8358  -18.3226   24.2629 C   0  0  0  0  0  0  0  0  0  0  0  0
    9.0467  -17.0076   24.3222 C   0  0  2  0  0  0  0  0  0  0  0  0
    9.0250  -16.4982   22.9688 N   0  0  0  0  0  0  0  0  0  0  0  0
    9.7400  -16.0212   25.1793 C   0  0  0  0  0  0  0  0  0  0  0  0
   10.7458  -15.4294   24.7349 O   0  0  0  0  0  0  0  0  0  0  0  0
    8.8776  -12.7002   26.4534 C   0  0  0  0  0  0  0  0  0  0  0  0
    9.1572  -13.5787   27.6297 C   0  0  1  0  0  0  0  0  0  0  0  0
    7.9458  -14.0237   28.1454 O   0  0  0  0  0  0  0  0  0  0  0  0
   10.0610  -14.7373   27.2605 C   0  0  2  0  0  0  0  0  0  0  0  0
    9.3169  -15.7080   26.4969 N   0  0  0  0  0  0  0  0  0  0  0  0
   10.7112  -15.3136   28.4443 C   0  0  0  0  0  0  0  0  0  0  0  0
   10.5833  -16.5209   28.7688 O   0  0  0  0  0  0  0  0  0  0  0  0
   11.5013  -14.5089   29.2474 O   0  0  0  0  0  0  0  0  0  0  0  0
  2  1  1  0
  3  2  1  0
  3  4  1  0
  4  5  1  0
  5  7  1  0
  5  6  1  6
  7 12  1  0
  7  8  2  0
  9 10  1  0
 11 10  1  6
 11 13  1  0
 12 11  1  0
 13 14  2  0
 16 15  1  6
 16 18  1  0
 16 17  1  0
 18 20  1  0
 19 13  1  0
 18 19  1  1
 20 22  1  0
 21 20  2  0
M  END
$$$$
