MST.pdb
     RDKit          3D

 22 21  0  0  1  0  0  0  0  0999 V2000
    5.8099  -11.3634   26.8150 C   0  0  0  0  0  0  0  0  0  0  0  0
    6.9220  -12.6103   26.0643 S   0  0  0  0  0  0  0  0  0  0  0  0
    6.6888  -14.1451   26.9723 C   0  0  0  0  0  0  0  0  0  0  0  0
    7.6356  -15.2393   26.4650 C   0  0  0  0  0  0  0  0  0  0  0  0
    7.0154  -15.7842   25.1975 C   0  0  2  0  0  0  0  0  0  0  0  0
    6.0490  -16.7841   25.5914 N   0  0  0  0  0  0  0  0  0  0  0  0
    7.9998  -16.3727   24.2896 C   0  0  0  0  0  0  0  0  0  0  0  0
    8.4221  -17.5569   24.3706 O   0  0  0  0  0  0  0  0  0  0  0  0
   10.3043  -15.7230   20.1336 O   0  0  0  0  0  0  0  0  0  0  0  0
    9.4563  -15.1418   21.0912 C   0  0  0  0  0  0  0  0  0  0  0  0
    9.4995  -16.0939   22.2942 C   0  0  2  0  0  0  0  0  0  0  0  0
    8.5317  -15.5814   23.2390 N   0  0  0  0  0  0  0  0  0  0  0  0
   10.8331  -16.0667   22.9337 C   0  0  0  0  0  0  0  0  0  0  0  0
   11.1313  -15.1100   23.6787 O   0  0  0  0  0  0  0  0  0  0  0  0
   12.5804  -18.4331   25.4037 C   0  0  0  0  0  0  0  0  0  0  0  0
   13.3614  -18.2974   24.1368 C   0  0  1  0  0  0  0  0  0  0  0  0
   13.0742  -19.3867   23.3229 O   0  0  0  0  0  0  0  0  0  0  0  0
   13.0654  -16.9881   23.4344 C   0  0  2  0  0  0  0  0  0  0  0  0
   11.8039  -17.0837   22.7427 N   0  0  0  0  0  0  0  0  0  0  0  0
   14.1719  -16.5830   22.5581 C   0  0  0  0  0  0  0  0  0  0  0  0
   15.3201  -16.3167   22.9936 O   0  0  0  0  0  0  0  0  0  0  0  0
   13.9597  -16.4852   21.1935 O   0  0  0  0  0  0  0  0  0  0  0  0
  2  1  1  0
  3  2  1  0
  3  4  1  0
  4  5  1  0
  5  7  1  0
  5  6  1  1
  7 12  1  0
  7  8  2  0
  9 10  1  0
 11 10  1  6
 11 13  1  0
 12 11  1  0
 13 14  2  0
 16 15  1  1
 16 18  1  0
 16 17  1  0
 18 20  1  0
 19 13  1  0
 18 19  1  6
 20 22  1  0
 21 20  2  0
M  END
$$$$
