MST.pdb
     RDKit          3D

 22 21  0  0  1  0  0  0  0  0999 V2000
    8.5493  -11.4282   18.7267 C   0  0  0  0  0  0  0  0  0  0  0  0
    7.9272  -11.9379   20.3724 S   0  0  0  0  0  0  0  0  0  0  0  0
    7.8243  -13.7335   20.3684 C   0  0  0  0  0  0  0  0  0  0  0  0
    7.3715  -14.2664   21.7330 C   0  0  0  0  0  0  0  0  0  0  0  0
    7.4594  -15.7743   21.6511 C   0  0  2  0  0  0  0  0  0  0  0  0
    6.2142  -16.2439   21.0872 N   0  0  0  0  0  0  0  0  0  0  0  0
    7.6857  -16.4027   22.9525 C   0  0  0  0  0  0  0  0  0  0  0  0
    6.7825  -16.6177   23.8041 O   0  0  0  0  0  0  0  0  0  0  0  0
   11.3078  -18.0333   23.5584 O   0  0  0  0  0  0  0  0  0  0  0  0
   10.2407  -18.5833   24.2882 C   0  0  0  0  0  0  0  0  0  0  0  0
    9.3096  -17.4007   24.5881 C   0  0  2  0  0  0  0  0  0  0  0  0
    8.9987  -16.8074   23.3063 N   0  0  0  0  0  0  0  0  0  0  0  0
   10.0023  -16.3874   25.4138 C   0  0  0  0  0  0  0  0  0  0  0  0
   10.8940  -15.6849   24.8938 O   0  0  0  0  0  0  0  0  0  0  0  0
    9.4047  -13.1571   26.9335 C   0  0  0  0  0  0  0  0  0  0  0  0
    9.7258  -14.1059   28.0427 C   0  0  1  0  0  0  0  0  0  0  0  0
    8.5348  -14.5210   28.6265 O   0  0  0  0  0  0  0  0  0  0  0  0
   10.5423  -15.2842   27.5524 C   0  0  2  0  0  0  0  0  0  0  0  0
    9.7029  -16.1690   26.7833 N   0  0  0  0  0  0  0  0  0  0  0  0
   11.2303  -15.9621   28.6585 C   0  0  0  0  0  0  0  0  0  0  0  0
   11.0671  -17.1818   28.9136 O   0  0  0  0  0  0  0  0  0  0  0  0
   12.0979  -15.2441   29.4637 O   0  0  0  0  0  0  0  0  0  0  0  0
  2  1  1  0
  3  2  1  0
  3  4  1  0
  4  5  1  0
  5  7  1  0
  5  6  1  1
  7 12  1  0
  7  8  2  0
  9 10  1  0
 11 10  1  6
 11 13  1  0
 12 11  1  0
 13 14  2  0
 16 15  1  6
 16 18  1  0
 16 17  1  0
 18 20  1  0
 19 13  1  0
 18 19  1  1
 20 22  1  0
 21 20  2  0
M  END
$$$$
