MST.pdb
     RDKit          3D

 22 21  0  0  1  0  0  0  0  0999 V2000
    7.4433  -11.5514   20.8135 C   0  0  0  0  0  0  0  0  0  0  0  0
    8.1711  -12.3304   19.3240 S   0  0  0  0  0  0  0  0  0  0  0  0
    8.1922  -14.1060   19.6099 C   0  0  0  0  0  0  0  0  0  0  0  0
    7.9839  -14.4316   21.0937 C   0  0  0  0  0  0  0  0  0  0  0  0
    8.0006  -15.9401   21.2044 C   0  0  2  0  0  0  0  0  0  0  0  0
    6.7881  -16.4264   20.5860 N   0  0  0  0  0  0  0  0  0  0  0  0
    8.0769  -16.4083   22.5881 C   0  0  0  0  0  0  0  0  0  0  0  0
    7.0862  -16.5081   23.3599 O   0  0  0  0  0  0  0  0  0  0  0  0
   11.6320  -18.0152   23.8613 O   0  0  0  0  0  0  0  0  0  0  0  0
   10.4104  -18.5342   24.3222 C   0  0  0  0  0  0  0  0  0  0  0  0
    9.4849  -17.3175   24.4587 C   0  0  2  0  0  0  0  0  0  0  0  0
    9.3366  -16.7818   23.1235 N   0  0  0  0  0  0  0  0  0  0  0  0
   10.1086  -16.2803   25.3093 C   0  0  0  0  0  0  0  0  0  0  0  0
   11.0224  -15.5734   24.8355 O   0  0  0  0  0  0  0  0  0  0  0  0
    9.0000  -13.1607   27.1274 C   0  0  0  0  0  0  0  0  0  0  0  0
    9.5657  -14.1267   28.1176 C   0  0  1  0  0  0  0  0  0  0  0  0
    8.5127  -14.7590   28.7678 O   0  0  0  0  0  0  0  0  0  0  0  0
   10.4901  -15.1287   27.4566 C   0  0  2  0  0  0  0  0  0  0  0  0
    9.7179  -16.0432   26.6525 N   0  0  0  0  0  0  0  0  0  0  0  0
   11.3428  -15.8078   28.4405 C   0  0  0  0  0  0  0  0  0  0  0  0
   11.3296  -17.0536   28.6049 O   0  0  0  0  0  0  0  0  0  0  0  0
   12.2025  -15.0612   29.2279 O   0  0  0  0  0  0  0  0  0  0  0  0
  2  1  1  0
  3  2  1  0
  3  4  1  0
  4  5  1  0
  5  7  1  0
  5  6  1  1
  7 12  1  0
  7  8  2  0
  9 10  1  0
 11 10  1  6
 11 13  1  0
 12 11  1  0
 13 14  2  0
 16 15  1  6
 16 18  1  0
 16 17  1  0
 18 20  1  0
 19 13  1  0
 18 19  1  1
 20 22  1  0
 21 20  2  0
M  END
$$$$
