MST.pdb
     RDKit          3D

 22 21  0  0  1  0  0  0  0  0999 V2000
    7.3199  -11.1340   26.6001 C   0  0  0  0  0  0  0  0  0  0  0  0
    5.9250  -11.9424   27.4696 S   0  0  0  0  0  0  0  0  0  0  0  0
    5.6098  -13.5025   26.6322 C   0  0  0  0  0  0  0  0  0  0  0  0
    6.8647  -14.0084   25.9106 C   0  0  0  0  0  0  0  0  0  0  0  0
    6.4641  -15.2853   25.2056 C   0  0  2  0  0  0  0  0  0  0  0  0
    6.1498  -16.2567   26.2286 N   0  0  0  0  0  0  0  0  0  0  0  0
    7.5141  -15.8054   24.3299 C   0  0  0  0  0  0  0  0  0  0  0  0
    8.2265  -16.8103   24.5944 O   0  0  0  0  0  0  0  0  0  0  0  0
    9.3681  -15.3682   19.9022 O   0  0  0  0  0  0  0  0  0  0  0  0
    8.5987  -14.7498   20.9019 C   0  0  0  0  0  0  0  0  0  0  0  0
    8.6917  -15.6858   22.1147 C   0  0  2  0  0  0  0  0  0  0  0  0
    7.7695  -15.1558   23.0948 N   0  0  0  0  0  0  0  0  0  0  0  0
   10.0528  -15.6564   22.6934 C   0  0  0  0  0  0  0  0  0  0  0  0
   10.4218  -14.6476   23.3299 O   0  0  0  0  0  0  0  0  0  0  0  0
   12.0524  -17.8233   25.2525 C   0  0  0  0  0  0  0  0  0  0  0  0
   12.6665  -17.8283   23.8900 C   0  0  1  0  0  0  0  0  0  0  0  0
   12.2632  -18.9823   23.2288 O   0  0  0  0  0  0  0  0  0  0  0  0
   12.3002  -16.5844   23.1065 C   0  0  2  0  0  0  0  0  0  0  0  0
   10.9730  -16.7283   22.5616 N   0  0  0  0  0  0  0  0  0  0  0  0
   13.3093  -16.2719   22.0864 C   0  0  0  0  0  0  0  0  0  0  0  0
   14.5065  -16.0175   22.3716 O   0  0  0  0  0  0  0  0  0  0  0  0
   12.9450  -16.2523   20.7509 O   0  0  0  0  0  0  0  0  0  0  0  0
  2  1  1  0
  3  2  1  0
  3  4  1  0
  4  5  1  0
  5  7  1  0
  5  6  1  1
  7 12  1  0
  7  8  2  0
  9 10  1  0
 11 10  1  6
 11 13  1  0
 12 11  1  0
 13 14  2  0
 16 15  1  1
 16 18  1  0
 16 17  1  0
 18 20  1  0
 19 13  1  0
 18 19  1  6
 20 22  1  0
 21 20  2  0
M  END
$$$$
