MST.pdb
     RDKit          3D

 22 21  0  0  1  0  0  0  0  0999 V2000
    8.1938  -11.4268   20.0446 C   0  0  0  0  0  0  0  0  0  0  0  0
    7.8722  -12.4566   18.5644 S   0  0  0  0  0  0  0  0  0  0  0  0
    8.5293  -14.0958   18.9049 C   0  0  0  0  0  0  0  0  0  0  0  0
    8.2413  -14.5198   20.3501 C   0  0  0  0  0  0  0  0  0  0  0  0
    8.7625  -15.9329   20.4905 C   0  0  2  0  0  0  0  0  0  0  0  0
    7.9937  -16.7623   19.5906 N   0  0  0  0  0  0  0  0  0  0  0  0
    8.6550  -16.4460   21.8561 C   0  0  0  0  0  0  0  0  0  0  0  0
    7.6182  -16.9774   22.3356 O   0  0  0  0  0  0  0  0  0  0  0  0
   12.0453  -17.0277   23.7818 O   0  0  0  0  0  0  0  0  0  0  0  0
   10.9395  -17.7585   24.2476 C   0  0  0  0  0  0  0  0  0  0  0  0
    9.7406  -16.8131   24.0910 C   0  0  2  0  0  0  0  0  0  0  0  0
    9.7763  -16.3530   22.7203 N   0  0  0  0  0  0  0  0  0  0  0  0
    9.8825  -15.6389   24.9795 C   0  0  0  0  0  0  0  0  0  0  0  0
   10.6969  -14.7419   24.6773 O   0  0  0  0  0  0  0  0  0  0  0  0
    7.7526  -12.7914   25.9876 C   0  0  0  0  0  0  0  0  0  0  0  0
    8.1326  -13.5419   27.2228 C   0  0  1  0  0  0  0  0  0  0  0  0
    7.0689  -14.3588   27.5871 O   0  0  0  0  0  0  0  0  0  0  0  0
    9.4027  -14.3430   27.0224 C   0  0  2  0  0  0  0  0  0  0  0  0
    9.1320  -15.4760   26.1726 N   0  0  0  0  0  0  0  0  0  0  0  0
   10.0121  -14.7191   28.3045 C   0  0  0  0  0  0  0  0  0  0  0  0
   10.2579  -15.9117   28.6152 O   0  0  0  0  0  0  0  0  0  0  0  0
   10.3356  -13.7329   29.2206 O   0  0  0  0  0  0  0  0  0  0  0  0
  2  1  1  0
  3  2  1  0
  3  4  1  0
  4  5  1  0
  5  7  1  0
  5  6  1  6
  7 12  1  0
  7  8  2  0
  9 10  1  0
 11 10  1  6
 11 13  1  0
 12 11  1  0
 13 14  2  0
 16 15  1  6
 16 18  1  0
 16 17  1  0
 18 20  1  0
 19 13  1  0
 18 19  1  1
 20 22  1  0
 21 20  2  0
M  END
$$$$
