MST.pdb
     RDKit          3D

 22 21  0  0  1  0  0  0  0  0999 V2000
    7.8241  -11.5261   27.6414 C   0  0  0  0  0  0  0  0  0  0  0  0
    6.7469  -11.1235   26.2157 S   0  0  0  0  0  0  0  0  0  0  0  0
    6.1540  -12.6819   25.5414 C   0  0  0  0  0  0  0  0  0  0  0  0
    7.2652  -13.7383   25.5258 C   0  0  0  0  0  0  0  0  0  0  0  0
    6.7132  -14.9249   24.7672 C   0  0  2  0  0  0  0  0  0  0  0  0
    5.6072  -15.4464   25.5377 N   0  0  0  0  0  0  0  0  0  0  0  0
    7.7085  -15.9747   24.5502 C   0  0  0  0  0  0  0  0  0  0  0  0
    7.9095  -16.9368   25.3384 O   0  0  0  0  0  0  0  0  0  0  0  0
   10.6076  -15.4520   21.7691 O   0  0  0  0  0  0  0  0  0  0  0  0
    9.9207  -16.6673   21.6103 C   0  0  0  0  0  0  0  0  0  0  0  0
    9.3968  -17.0165   23.0100 C   0  0  2  0  0  0  0  0  0  0  0  0
    8.5151  -15.9327   23.3838 N   0  0  0  0  0  0  0  0  0  0  0  0
   10.5081  -17.0693   23.9850 C   0  0  0  0  0  0  0  0  0  0  0  0
   10.9952  -16.0014   24.4109 O   0  0  0  0  0  0  0  0  0  0  0  0
   10.6742  -18.4184   27.5016 C   0  0  0  0  0  0  0  0  0  0  0  0
   11.7027  -19.0931   26.6527 C   0  0  1  0  0  0  0  0  0  0  0  0
   11.2015  -20.3246   26.2479 O   0  0  0  0  0  0  0  0  0  0  0  0
   12.0968  -18.2384   25.4655 C   0  0  2  0  0  0  0  0  0  0  0  0
   11.0567  -18.2854   24.4680 N   0  0  0  0  0  0  0  0  0  0  0  0
   13.4143  -18.6183   24.9400 C   0  0  0  0  0  0  0  0  0  0  0  0
   13.5801  -19.0511   23.7719 O   0  0  0  0  0  0  0  0  0  0  0  0
   14.5307  -18.5017   25.7504 O   0  0  0  0  0  0  0  0  0  0  0  0
  2  1  1  0
  3  2  1  0
  3  4  1  0
  4  5  1  0
  5  7  1  0
  5  6  1  1
  7 12  1  0
  7  8  2  0
  9 10  1  0
 11 10  1  6
 11 13  1  0
 12 11  1  0
 13 14  2  0
 16 15  1  6
 16 18  1  0
 16 17  1  0
 18 20  1  0
 19 13  1  0
 18 19  1  6
 20 22  1  0
 21 20  2  0
M  END
$$$$
