MST.pdb
     RDKit          3D

 22 21  0  0  1  0  0  0  0  0999 V2000
    7.5586  -11.6305   20.1619 C   0  0  0  0  0  0  0  0  0  0  0  0
    7.9426  -12.4683   18.5789 S   0  0  0  0  0  0  0  0  0  0  0  0
    8.3057  -14.1875   18.9624 C   0  0  0  0  0  0  0  0  0  0  0  0
    7.9121  -14.5294   20.4044 C   0  0  0  0  0  0  0  0  0  0  0  0
    8.1921  -16.0052   20.5830 C   0  0  2  0  0  0  0  0  0  0  0  0
    7.2847  -16.7195   19.7139 N   0  0  0  0  0  0  0  0  0  0  0  0
    8.0172  -16.4546   21.9640 C   0  0  0  0  0  0  0  0  0  0  0  0
    6.9211  -16.8376   22.4529 O   0  0  0  0  0  0  0  0  0  0  0  0
    9.8688  -18.4154   25.7501 O   0  0  0  0  0  0  0  0  0  0  0  0
    9.9967  -18.0402   24.4022 C   0  0  0  0  0  0  0  0  0  0  0  0
    9.0372  -16.8558   24.2239 C   0  0  2  0  0  0  0  0  0  0  0  0
    9.1383  -16.4710   22.8333 N   0  0  0  0  0  0  0  0  0  0  0  0
    9.4632  -15.7092   25.0558 C   0  0  0  0  0  0  0  0  0  0  0  0
   10.4706  -15.0533   24.7179 O   0  0  0  0  0  0  0  0  0  0  0  0
    7.9174  -12.4020   25.9178 C   0  0  0  0  0  0  0  0  0  0  0  0
    8.1773  -13.1671   27.1751 C   0  0  1  0  0  0  0  0  0  0  0  0
    6.9905  -13.7665   27.5797 O   0  0  0  0  0  0  0  0  0  0  0  0
    9.2793  -14.1901   26.9900 C   0  0  2  0  0  0  0  0  0  0  0  0
    8.7785  -15.3102   26.2327 N   0  0  0  0  0  0  0  0  0  0  0  0
    9.8720  -14.5840   28.2745 C   0  0  0  0  0  0  0  0  0  0  0  0
    9.8909  -15.7744   28.6767 O   0  0  0  0  0  0  0  0  0  0  0  0
   10.4375  -13.6178   29.0890 O   0  0  0  0  0  0  0  0  0  0  0  0
  2  1  1  0
  3  2  1  0
  3  4  1  0
  4  5  1  0
  5  7  1  0
  5  6  1  6
  7 12  1  0
  7  8  2  0
  9 10  1  0
 11 10  1  6
 11 13  1  0
 12 11  1  0
 13 14  2  0
 16 15  1  6
 16 18  1  0
 16 17  1  0
 18 20  1  0
 19 13  1  0
 18 19  1  1
 20 22  1  0
 21 20  2  0
M  END
$$$$
