MYM.pdb
     RDKit          3D

 29 29  0  0  1  0  0  0  0  0999 V2000
    7.6781  -12.0382   19.0493 C   0  0  0  0  0  0  0  0  0  0  0  0
    7.4549  -13.5651   18.1325 S   0  0  0  0  0  0  0  0  0  0  0  0
    7.6620  -14.9817   19.2310 C   0  0  0  0  0  0  0  0  0  0  0  0
    8.3093  -14.5319   20.5256 C   0  0  0  0  0  0  0  0  0  0  0  0
    8.9086  -15.7057   21.2730 C   0  0  2  0  0  0  0  0  0  0  0  0
    7.8485  -16.6717   21.5400 N   0  0  0  0  0  0  0  0  0  0  0  0
    9.4930  -15.3016   22.5646 C   0  0  0  0  0  0  0  0  0  0  0  0
   10.5774  -14.6279   22.6228 O   0  0  0  0  0  0  0  0  0  0  0  0
    5.8561  -10.2304   26.8549 O   0  0  0  0  0  0  0  0  0  0  0  0
    6.5010  -11.4471   26.6676 C   0  0  0  0  0  0  0  0  0  0  0  0
    5.7480  -12.5690   26.4364 C   0  0  0  0  0  0  0  0  0  0  0  0
    6.3841  -13.7689   26.2517 C   0  0  0  0  0  0  0  0  0  0  0  0
    7.7653  -13.8616   26.2953 C   0  0  0  0  0  0  0  0  0  0  0  0
    8.3681  -15.2008   26.0871 C   0  0  0  0  0  0  0  0  0  0  0  0
    9.5132  -15.1994   25.0995 C   0  0  2  0  0  0  0  0  0  0  0  0
    8.9145  -15.6189   23.8217 N   0  0  0  0  0  0  0  0  0  0  0  0
   10.6277  -16.0845   25.4736 C   0  0  0  0  0  0  0  0  0  0  0  0
   11.3431  -15.6752   26.4534 O   0  0  0  0  0  0  0  0  0  0  0  0
    8.5380  -12.7361   26.5278 C   0  0  0  0  0  0  0  0  0  0  0  0
    7.8951  -11.5355   26.7123 C   0  0  0  0  0  0  0  0  0  0  0  0
   11.4771  -21.6138   29.1352 C   0  0  0  0  0  0  0  0  0  0  0  0
   11.0247  -20.1246   28.1966 S   0  0  0  0  0  0  0  0  0  0  0  0
   10.6145  -20.6142   26.4805 C   0  0  0  0  0  0  0  0  0  0  0  0
   10.2235  -19.4207   25.6896 C   0  0  0  0  0  0  0  0  0  0  0  0
   11.3710  -18.4414   25.5788 C   0  0  2  0  0  0  0  0  0  0  0  0
   10.8991  -17.2954   24.8114 N   0  0  0  0  0  0  0  0  0  0  0  0
   12.4692  -19.0677   24.8191 C   0  0  0  0  0  0  0  0  0  0  0  0
   13.5093  -19.6756   25.5493 O   0  0  0  0  0  0  0  0  0  0  0  0
   12.5213  -19.0848   23.5629 O   0  0  0  0  0  0  0  0  0  0  0  0
  1  2  1  0
  3  4  1  0
  3  2  1  0
  5  4  1  0
  5  6  1  1
  7  5  1  0
  8  7  2  0
  9 10  1  0
 10 11  2  0
 10 20  1  0
 11 12  1  0
 12 13  2  0
 13 14  1  0
 15 14  1  1
 15 16  1  0
 16  7  1  0
 17 15  1  0
 17 26  1  0
 18 17  2  0
 19 13  1  0
 20 19  2  0
 22 21  1  0
 23 22  1  0
 24 23  1  0
 25 24  1  6
 25 26  1  0
 27 25  1  0
 27 28  1  0
 29 27  2  0
M  END
$$$$
