MYM.pdb
     RDKit          3D

 29 29  0  0  1  0  0  0  0  0999 V2000
    6.0321  -12.8118   27.4536 C   0  0  0  0  0  0  0  0  0  0  0  0
    7.3642  -14.0075   27.3191 S   0  0  0  0  0  0  0  0  0  0  0  0
    7.4341  -14.6690   25.6416 C   0  0  0  0  0  0  0  0  0  0  0  0
    6.3591  -15.7227   25.4645 C   0  0  0  0  0  0  0  0  0  0  0  0
    6.2997  -16.2062   24.0298 C   0  0  2  0  0  0  0  0  0  0  0  0
    5.4753  -17.4088   23.9826 N   0  0  0  0  0  0  0  0  0  0  0  0
    7.6337  -16.5469   23.5031 C   0  0  0  0  0  0  0  0  0  0  0  0
    8.0198  -17.7611   23.4036 O   0  0  0  0  0  0  0  0  0  0  0  0
    7.2092  -13.7978   17.1989 O   0  0  0  0  0  0  0  0  0  0  0  0
    7.9810  -14.0026   18.3363 C   0  0  0  0  0  0  0  0  0  0  0  0
    8.6668  -15.1820   18.4698 C   0  0  0  0  0  0  0  0  0  0  0  0
    9.4279  -15.3840   19.5917 C   0  0  0  0  0  0  0  0  0  0  0  0
    9.5120  -14.4206   20.5832 C   0  0  0  0  0  0  0  0  0  0  0  0
   10.3572  -14.7255   21.7634 C   0  0  0  0  0  0  0  0  0  0  0  0
    9.8993  -15.9432   22.5343 C   0  0  2  0  0  0  0  0  0  0  0  0
    8.5786  -15.5787   23.0726 N   0  0  0  0  0  0  0  0  0  0  0  0
   10.8140  -16.3472   23.6139 C   0  0  0  0  0  0  0  0  0  0  0  0
   12.0422  -16.4649   23.2720 O   0  0  0  0  0  0  0  0  0  0  0  0
    8.8245  -13.2246   20.4609 C   0  0  0  0  0  0  0  0  0  0  0  0
    8.0629  -13.0273   19.3341 C   0  0  0  0  0  0  0  0  0  0  0  0
    9.0390  -13.1130   29.0571 C   0  0  0  0  0  0  0  0  0  0  0  0
    9.6349  -14.8299   29.0380 S   0  0  0  0  0  0  0  0  0  0  0  0
   10.3732  -15.1769   27.3986 C   0  0  0  0  0  0  0  0  0  0  0  0
   10.7452  -16.6104   27.3002 C   0  0  0  0  0  0  0  0  0  0  0  0
   11.3659  -16.9205   25.9560 C   0  0  2  0  0  0  0  0  0  0  0  0
   10.3837  -16.5899   24.9310 N   0  0  0  0  0  0  0  0  0  0  0  0
   11.6335  -18.3684   25.8698 C   0  0  0  0  0  0  0  0  0  0  0  0
   12.6814  -18.8901   26.6535 O   0  0  0  0  0  0  0  0  0  0  0  0
   10.9776  -19.1519   25.1370 O   0  0  0  0  0  0  0  0  0  0  0  0
  1  2  1  0
  3  4  1  0
  3  2  1  0
  5  4  1  0
  5  6  1  1
  7  5  1  0
  8  7  2  0
  9 10  1  0
 10 11  2  0
 10 20  1  0
 11 12  1  0
 12 13  2  0
 13 14  1  0
 15 14  1  1
 15 16  1  0
 16  7  1  0
 17 15  1  0
 17 26  1  0
 18 17  2  0
 19 13  1  0
 20 19  2  0
 22 21  1  0
 23 22  1  0
 24 23  1  0
 25 24  1  1
 25 26  1  0
 27 25  1  0
 27 28  1  0
 29 27  2  0
M  END
$$$$
