MYM.pdb
     RDKit          3D

 29 29  0  0  1  0  0  0  0  0999 V2000
    6.9610  -11.3906   25.5399 C   0  0  0  0  0  0  0  0  0  0  0  0
    6.0482  -12.1862   26.8650 S   0  0  0  0  0  0  0  0  0  0  0  0
    5.1736  -13.6321   26.2318 C   0  0  0  0  0  0  0  0  0  0  0  0
    5.8444  -14.1176   24.9623 C   0  0  0  0  0  0  0  0  0  0  0  0
    6.6527  -15.3733   25.2180 C   0  0  2  0  0  0  0  0  0  0  0  0
    7.4966  -15.1482   26.3865 N   0  0  0  0  0  0  0  0  0  0  0  0
    7.5286  -15.7108   24.0813 C   0  0  0  0  0  0  0  0  0  0  0  0
    7.1692  -16.5551   23.1918 O   0  0  0  0  0  0  0  0  0  0  0  0
    6.3956  -13.7971   18.0034 O   0  0  0  0  0  0  0  0  0  0  0  0
    7.3356  -13.9759   19.0112 C   0  0  0  0  0  0  0  0  0  0  0  0
    7.9846  -15.1794   19.1080 C   0  0  0  0  0  0  0  0  0  0  0  0
    8.9117  -15.3557   20.1020 C   0  0  0  0  0  0  0  0  0  0  0  0
    9.1985  -14.3426   21.0017 C   0  0  0  0  0  0  0  0  0  0  0  0
   10.2138  -14.6225   22.0463 C   0  0  0  0  0  0  0  0  0  0  0  0
    9.8180  -15.7371   22.9884 C   0  0  2  0  0  0  0  0  0  0  0  0
    8.8135  -15.1402   23.8838 N   0  0  0  0  0  0  0  0  0  0  0  0
   10.9403  -16.2984   23.7570 C   0  0  0  0  0  0  0  0  0  0  0  0
   12.0238  -15.6176   23.7151 O   0  0  0  0  0  0  0  0  0  0  0  0
    8.5503  -13.1218   20.9153 C   0  0  0  0  0  0  0  0  0  0  0  0
    7.6218  -12.9505   19.9167 C   0  0  0  0  0  0  0  0  0  0  0  0
   11.1780  -15.3915   29.7023 C   0  0  0  0  0  0  0  0  0  0  0  0
   10.6230  -14.6451   28.1408 S   0  0  0  0  0  0  0  0  0  0  0  0
   11.4317  -15.5215   26.7512 C   0  0  0  0  0  0  0  0  0  0  0  0
   11.1190  -16.9711   26.8118 C   0  0  0  0  0  0  0  0  0  0  0  0
   11.7200  -17.7072   25.6348 C   0  0  2  0  0  0  0  0  0  0  0  0
   10.8438  -17.4955   24.4893 N   0  0  0  0  0  0  0  0  0  0  0  0
   11.7356  -19.1531   25.9258 C   0  0  0  0  0  0  0  0  0  0  0  0
   12.7181  -19.6334   26.8138 O   0  0  0  0  0  0  0  0  0  0  0  0
   10.9219  -19.9698   25.4240 O   0  0  0  0  0  0  0  0  0  0  0  0
  1  2  1  0
  3  4  1  0
  3  2  1  0
  5  4  1  0
  5  6  1  1
  7  5  1  0
  8  7  2  0
  9 10  1  0
 10 11  2  0
 10 20  1  0
 11 12  1  0
 12 13  2  0
 13 14  1  0
 15 14  1  6
 15 16  1  0
 16  7  1  0
 17 15  1  0
 17 26  1  0
 18 17  2  0
 19 13  1  0
 20 19  2  0
 22 21  1  0
 23 22  1  0
 24 23  1  0
 25 24  1  1
 25 26  1  0
 27 25  1  0
 27 28  1  0
 29 27  2  0
M  END
$$$$
