MYM.pdb
     RDKit          3D

 29 29  0  0  1  0  0  0  0  0999 V2000
    9.2508  -12.2946   18.9531 C   0  0  0  0  0  0  0  0  0  0  0  0
    8.4431  -13.4137   20.1007 S   0  0  0  0  0  0  0  0  0  0  0  0
    6.9313  -14.0689   19.3647 C   0  0  0  0  0  0  0  0  0  0  0  0
    6.1905  -14.9093   20.3856 C   0  0  0  0  0  0  0  0  0  0  0  0
    6.9480  -16.1843   20.6961 C   0  0  2  0  0  0  0  0  0  0  0  0
    6.3090  -17.2850   19.9832 N   0  0  0  0  0  0  0  0  0  0  0  0
    6.9320  -16.5029   22.1353 C   0  0  0  0  0  0  0  0  0  0  0  0
    5.8358  -16.5820   22.7875 O   0  0  0  0  0  0  0  0  0  0  0  0
    9.0505  -20.3560   29.7197 O   0  0  0  0  0  0  0  0  0  0  0  0
    8.9111  -19.8938   28.4165 C   0  0  0  0  0  0  0  0  0  0  0  0
   10.0309  -19.5117   27.7242 C   0  0  0  0  0  0  0  0  0  0  0  0
    9.8934  -19.0559   26.4390 C   0  0  0  0  0  0  0  0  0  0  0  0
    8.6489  -18.9769   25.8363 C   0  0  0  0  0  0  0  0  0  0  0  0
    8.5942  -18.4695   24.4436 C   0  0  0  0  0  0  0  0  0  0  0  0
    8.0644  -17.0572   24.3369 C   0  0  2  0  0  0  0  0  0  0  0  0
    8.1044  -16.7430   22.8993 N   0  0  0  0  0  0  0  0  0  0  0  0
    8.8315  -16.0696   25.1126 C   0  0  0  0  0  0  0  0  0  0  0  0
    9.9471  -15.7163   24.5931 O   0  0  0  0  0  0  0  0  0  0  0  0
    7.5096  -19.3597   26.5242 C   0  0  0  0  0  0  0  0  0  0  0  0
    7.6531  -19.8161   27.8125 C   0  0  0  0  0  0  0  0  0  0  0  0
    5.2258  -10.8355   27.1283 C   0  0  0  0  0  0  0  0  0  0  0  0
    6.1949  -11.9821   28.1526 S   0  0  0  0  0  0  0  0  0  0  0  0
    7.4065  -12.8437   27.0836 C   0  0  0  0  0  0  0  0  0  0  0  0
    8.2682  -13.7319   27.9030 C   0  0  0  0  0  0  0  0  0  0  0  0
    9.1944  -14.5488   27.0294 C   0  0  2  0  0  0  0  0  0  0  0  0
    8.3836  -15.5432   26.3377 N   0  0  0  0  0  0  0  0  0  0  0  0
   10.1547  -15.2704   27.8853 C   0  0  0  0  0  0  0  0  0  0  0  0
    9.9055  -16.6317   28.1483 O   0  0  0  0  0  0  0  0  0  0  0  0
   11.1752  -14.7338   28.3870 O   0  0  0  0  0  0  0  0  0  0  0  0
  1  2  1  0
  3  4  1  0
  3  2  1  0
  5  4  1  0
  5  6  1  6
  7  5  1  0
  8  7  2  0
  9 10  1  0
 10 11  2  0
 10 20  1  0
 11 12  1  0
 12 13  2  0
 13 14  1  0
 15 14  1  6
 15 16  1  0
 16  7  1  0
 17 15  1  0
 17 26  1  0
 18 17  2  0
 19 13  1  0
 20 19  2  0
 22 21  1  0
 23 22  1  0
 24 23  1  0
 25 24  1  1
 25 26  1  0
 27 25  1  0
 27 28  1  0
 29 27  2  0
M  END
$$$$
