MYM.pdb
     RDKit          3D

 29 29  0  0  1  0  0  0  0  0999 V2000
    8.6923  -12.1911   17.7969 C   0  0  0  0  0  0  0  0  0  0  0  0
    8.4434  -13.2776   19.2039 S   0  0  0  0  0  0  0  0  0  0  0  0
    6.9588  -14.2740   18.9605 C   0  0  0  0  0  0  0  0  0  0  0  0
    6.6891  -15.0982   20.2035 C   0  0  0  0  0  0  0  0  0  0  0  0
    7.9750  -15.6574   20.7774 C   0  0  2  0  0  0  0  0  0  0  0  0
    8.2471  -16.9388   20.1355 N   0  0  0  0  0  0  0  0  0  0  0  0
    7.8811  -15.8863   22.2306 C   0  0  0  0  0  0  0  0  0  0  0  0
    7.6069  -14.9343   23.0380 O   0  0  0  0  0  0  0  0  0  0  0  0
    8.8071  -20.3769   29.8654 O   0  0  0  0  0  0  0  0  0  0  0  0
    8.6230  -19.9957   28.5417 C   0  0  0  0  0  0  0  0  0  0  0  0
    9.7093  -19.9490   27.7070 C   0  0  0  0  0  0  0  0  0  0  0  0
    9.5278  -19.5730   26.4015 C   0  0  0  0  0  0  0  0  0  0  0  0
    8.2722  -19.2424   25.9193 C   0  0  0  0  0  0  0  0  0  0  0  0
    8.1696  -18.8446   24.4941 C   0  0  0  0  0  0  0  0  0  0  0  0
    7.9851  -17.3570   24.2952 C   0  0  2  0  0  0  0  0  0  0  0  0
    8.0824  -17.1524   22.8406 N   0  0  0  0  0  0  0  0  0  0  0  0
    8.9710  -16.5305   25.0096 C   0  0  0  0  0  0  0  0  0  0  0  0
   10.1439  -16.5158   24.4963 O   0  0  0  0  0  0  0  0  0  0  0  0
    7.1662  -19.2854   26.7517 C   0  0  0  0  0  0  0  0  0  0  0  0
    7.3540  -19.6632   28.0597 C   0  0  0  0  0  0  0  0  0  0  0  0
    5.2947  -12.1627   28.5058 C   0  0  0  0  0  0  0  0  0  0  0  0
    6.8915  -11.9889   27.6554 S   0  0  0  0  0  0  0  0  0  0  0  0
    7.6515  -13.6465   27.4888 C   0  0  0  0  0  0  0  0  0  0  0  0
    8.9919  -13.5321   26.8619 C   0  0  0  0  0  0  0  0  0  0  0  0
    9.6489  -14.8883   26.7307 C   0  0  2  0  0  0  0  0  0  0  0  0
    8.6611  -15.8039   26.1735 N   0  0  0  0  0  0  0  0  0  0  0  0
   10.0105  -15.3819   28.0728 C   0  0  0  0  0  0  0  0  0  0  0  0
    9.3242  -16.5098   28.5642 O   0  0  0  0  0  0  0  0  0  0  0  0
   10.8932  -14.8493   28.7926 O   0  0  0  0  0  0  0  0  0  0  0  0
  1  2  1  0
  3  4  1  0
  3  2  1  0
  5  4  1  0
  5  6  1  6
  7  5  1  0
  8  7  2  0
  9 10  1  0
 10 11  2  0
 10 20  1  0
 11 12  1  0
 12 13  2  0
 13 14  1  0
 15 14  1  6
 15 16  1  0
 16  7  1  0
 17 15  1  0
 17 26  1  0
 18 17  2  0
 19 13  1  0
 20 19  2  0
 22 21  1  0
 23 22  1  0
 24 23  1  0
 25 24  1  1
 25 26  1  0
 27 25  1  0
 27 28  1  0
 29 27  2  0
M  END
$$$$
