MYM.pdb
     RDKit          3D

 29 29  0  0  1  0  0  0  0  0999 V2000
   10.9257  -22.0511   24.1185 C   0  0  0  0  0  0  0  0  0  0  0  0
   12.0067  -20.9100   23.2517 S   0  0  0  0  0  0  0  0  0  0  0  0
   11.4053  -20.6445   21.5711 C   0  0  0  0  0  0  0  0  0  0  0  0
    9.8952  -20.5165   21.5849 C   0  0  0  0  0  0  0  0  0  0  0  0
    9.4384  -19.3488   20.7343 C   0  0  2  0  0  0  0  0  0  0  0  0
   10.3119  -19.2578   19.5694 N   0  0  0  0  0  0  0  0  0  0  0  0
    9.5140  -18.0690   21.4618 C   0  0  0  0  0  0  0  0  0  0  0  0
   10.4795  -17.2529   21.2746 O   0  0  0  0  0  0  0  0  0  0  0  0
    6.5310  -11.3706   26.5681 O   0  0  0  0  0  0  0  0  0  0  0  0
    6.7113  -12.5212   25.8099 C   0  0  0  0  0  0  0  0  0  0  0  0
    6.1426  -13.6933   26.2363 C   0  0  0  0  0  0  0  0  0  0  0  0
    6.3205  -14.8280   25.4885 C   0  0  0  0  0  0  0  0  0  0  0  0
    7.0608  -14.8059   24.3182 C   0  0  0  0  0  0  0  0  0  0  0  0
    7.2030  -16.0812   23.5743 C   0  0  0  0  0  0  0  0  0  0  0  0
    8.6089  -16.3370   23.0797 C   0  0  2  0  0  0  0  0  0  0  0  0
    8.5443  -17.6455   22.4084 N   0  0  0  0  0  0  0  0  0  0  0  0
    9.6263  -16.3412   24.1430 C   0  0  0  0  0  0  0  0  0  0  0  0
   10.3735  -15.3024   24.1862 O   0  0  0  0  0  0  0  0  0  0  0  0
    7.6406  -13.6285   23.8758 C   0  0  0  0  0  0  0  0  0  0  0  0
    7.4591  -12.4937   24.6294 C   0  0  0  0  0  0  0  0  0  0  0  0
    9.3460  -12.6394   28.0219 C   0  0  0  0  0  0  0  0  0  0  0  0
   10.2428  -14.0548   28.7260 S   0  0  0  0  0  0  0  0  0  0  0  0
   10.8958  -15.0772   27.3544 C   0  0  0  0  0  0  0  0  0  0  0  0
   10.0301  -16.2649   27.1472 C   0  0  0  0  0  0  0  0  0  0  0  0
   10.6730  -17.2470   26.1931 C   0  0  2  0  0  0  0  0  0  0  0  0
    9.7782  -17.4030   25.0530 N   0  0  0  0  0  0  0  0  0  0  0  0
   10.7877  -18.5599   26.8555 C   0  0  0  0  0  0  0  0  0  0  0  0
   11.8051  -18.7238   27.8159 O   0  0  0  0  0  0  0  0  0  0  0  0
   10.0283  -19.5306   26.6063 O   0  0  0  0  0  0  0  0  0  0  0  0
  1  2  1  0
  3  4  1  0
  3  2  1  0
  5  4  1  0
  5  6  1  6
  7  5  1  0
  8  7  2  0
  9 10  1  0
 10 11  2  0
 10 20  1  0
 11 12  1  0
 12 13  2  0
 13 14  1  0
 15 14  1  1
 15 16  1  0
 16  7  1  0
 17 15  1  0
 17 26  1  0
 18 17  2  0
 19 13  1  0
 20 19  2  0
 22 21  1  0
 23 22  1  0
 24 23  1  0
 25 24  1  1
 25 26  1  0
 27 25  1  0
 27 28  1  0
 29 27  2  0
M  END
$$$$
