MYM.pdb
     RDKit          3D

 29 29  0  0  1  0  0  0  0  0999 V2000
    8.5391  -12.4570   26.3470 C   0  0  0  0  0  0  0  0  0  0  0  0
    7.3672  -13.3034   27.4111 S   0  0  0  0  0  0  0  0  0  0  0  0
    6.3502  -14.4315   26.4367 C   0  0  0  0  0  0  0  0  0  0  0  0
    7.1626  -15.6550   26.0623 C   0  0  0  0  0  0  0  0  0  0  0  0
    7.1803  -15.8601   24.5612 C   0  0  2  0  0  0  0  0  0  0  0  0
    5.8182  -16.1363   24.1178 N   0  0  0  0  0  0  0  0  0  0  0  0
    8.0280  -16.9997   24.1665 C   0  0  0  0  0  0  0  0  0  0  0  0
    8.1649  -18.0208   24.9227 O   0  0  0  0  0  0  0  0  0  0  0  0
    7.0192  -13.3877   17.7268 O   0  0  0  0  0  0  0  0  0  0  0  0
    7.5846  -13.7030   18.9565 C   0  0  0  0  0  0  0  0  0  0  0  0
    7.7242  -15.0214   19.3046 C   0  0  0  0  0  0  0  0  0  0  0  0
    8.2818  -15.3323   20.5175 C   0  0  0  0  0  0  0  0  0  0  0  0
    8.7020  -14.3404   21.3880 C   0  0  0  0  0  0  0  0  0  0  0  0
    9.2916  -14.7687   22.6799 C   0  0  0  0  0  0  0  0  0  0  0  0
    9.8761  -16.1628   22.6431 C   0  0  2  0  0  0  0  0  0  0  0  0
    8.7461  -17.0574   22.9431 N   0  0  0  0  0  0  0  0  0  0  0  0
   10.9806  -16.3744   23.5921 C   0  0  0  0  0  0  0  0  0  0  0  0
   11.9880  -15.5995   23.4372 O   0  0  0  0  0  0  0  0  0  0  0  0
    8.5670  -13.0045   21.0488 C   0  0  0  0  0  0  0  0  0  0  0  0
    8.0073  -12.6985   19.8315 C   0  0  0  0  0  0  0  0  0  0  0  0
    9.8443  -12.9035   27.9791 C   0  0  0  0  0  0  0  0  0  0  0  0
    9.4525  -14.5596   28.6171 S   0  0  0  0  0  0  0  0  0  0  0  0
   10.6748  -15.7495   27.9515 C   0  0  0  0  0  0  0  0  0  0  0  0
   10.3638  -16.0604   26.5339 C   0  0  0  0  0  0  0  0  0  0  0  0
   11.3853  -17.0099   25.9482 C   0  0  2  0  0  0  0  0  0  0  0  0
   10.9457  -17.3534   24.6016 N   0  0  0  0  0  0  0  0  0  0  0  0
   11.4031  -18.2516   26.7440 C   0  0  0  0  0  0  0  0  0  0  0  0
   10.9845  -19.4405   26.1149 O   0  0  0  0  0  0  0  0  0  0  0  0
   11.7701  -18.2995   27.9457 O   0  0  0  0  0  0  0  0  0  0  0  0
  1  2  1  0
  3  4  1  0
  3  2  1  0
  5  4  1  0
  5  6  1  1
  7  5  1  0
  8  7  2  0
  9 10  1  0
 10 11  2  0
 10 20  1  0
 11 12  1  0
 12 13  2  0
 13 14  1  0
 15 14  1  1
 15 16  1  0
 16  7  1  0
 17 15  1  0
 17 26  1  0
 18 17  2  0
 19 13  1  0
 20 19  2  0
 22 21  1  0
 23 22  1  0
 24 23  1  0
 25 24  1  1
 25 26  1  0
 27 25  1  0
 27 28  1  0
 29 27  2  0
M  END
$$$$
