MYM.pdb
     RDKit          3D

 29 29  0  0  1  0  0  0  0  0999 V2000
    6.3975  -11.9083   20.0088 C   0  0  0  0  0  0  0  0  0  0  0  0
    7.4955  -13.2354   20.5141 S   0  0  0  0  0  0  0  0  0  0  0  0
    6.5412  -14.7242   20.8735 C   0  0  0  0  0  0  0  0  0  0  0  0
    7.4467  -15.7742   21.4857 C   0  0  0  0  0  0  0  0  0  0  0  0
    8.6957  -15.9718   20.6510 C   0  0  2  0  0  0  0  0  0  0  0  0
    8.4081  -16.9619   19.6189 N   0  0  0  0  0  0  0  0  0  0  0  0
    9.8280  -16.4667   21.4546 C   0  0  0  0  0  0  0  0  0  0  0  0
   10.0619  -17.7172   21.5759 O   0  0  0  0  0  0  0  0  0  0  0  0
   14.5147  -15.3170   17.2878 O   0  0  0  0  0  0  0  0  0  0  0  0
   14.1513  -15.3341   18.6291 C   0  0  0  0  0  0  0  0  0  0  0  0
   13.5452  -14.2285   19.1669 C   0  0  0  0  0  0  0  0  0  0  0  0
   13.1869  -14.2453   20.4898 C   0  0  0  0  0  0  0  0  0  0  0  0
   13.4273  -15.3549   21.2829 C   0  0  0  0  0  0  0  0  0  0  0  0
   13.0083  -15.2839   22.7040 C   0  0  0  0  0  0  0  0  0  0  0  0
   11.7977  -16.1337   23.0186 C   0  0  2  0  0  0  0  0  0  0  0  0
   10.7319  -15.6167   22.1446 N   0  0  0  0  0  0  0  0  0  0  0  0
   11.3866  -16.0908   24.4310 C   0  0  0  0  0  0  0  0  0  0  0  0
   12.2733  -16.4801   25.2685 O   0  0  0  0  0  0  0  0  0  0  0  0
   14.0388  -16.4786   20.7523 C   0  0  0  0  0  0  0  0  0  0  0  0
   14.3959  -16.4564   19.4254 C   0  0  0  0  0  0  0  0  0  0  0  0
    6.3276  -11.5153   25.8224 C   0  0  0  0  0  0  0  0  0  0  0  0
    7.1992  -12.7066   26.8827 S   0  0  0  0  0  0  0  0  0  0  0  0
    8.2737  -13.7521   25.8313 C   0  0  0  0  0  0  0  0  0  0  0  0
    8.3791  -15.1159   26.4074 C   0  0  0  0  0  0  0  0  0  0  0  0
    9.7833  -15.6599   26.2646 C   0  0  2  0  0  0  0  0  0  0  0  0
   10.1147  -15.6557   24.8452 N   0  0  0  0  0  0  0  0  0  0  0  0
    9.8082  -17.0605   26.7264 C   0  0  0  0  0  0  0  0  0  0  0  0
    9.5162  -18.0672   25.7852 O   0  0  0  0  0  0  0  0  0  0  0  0
   10.0748  -17.3959   27.9085 O   0  0  0  0  0  0  0  0  0  0  0  0
  1  2  1  0
  3  4  1  0
  3  2  1  0
  5  4  1  0
  5  6  1  6
  7  5  1  0
  8  7  2  0
  9 10  1  0
 10 11  2  0
 10 20  1  0
 11 12  1  0
 12 13  2  0
 13 14  1  0
 15 14  1  1
 15 16  1  0
 16  7  1  0
 17 15  1  0
 17 26  1  0
 18 17  2  0
 19 13  1  0
 20 19  2  0
 22 21  1  0
 23 22  1  0
 24 23  1  0
 25 24  1  6
 25 26  1  0
 27 25  1  0
 27 28  1  0
 29 27  2  0
M  END
$$$$
