MYM.pdb
     RDKit          3D

 29 29  0  0  1  0  0  0  0  0999 V2000
    6.9470  -12.0469   26.2050 C   0  0  0  0  0  0  0  0  0  0  0  0
    5.3786  -12.7273   25.6580 S   0  0  0  0  0  0  0  0  0  0  0  0
    5.3135  -14.4950   26.0148 C   0  0  0  0  0  0  0  0  0  0  0  0
    6.6088  -15.1505   25.5791 C   0  0  0  0  0  0  0  0  0  0  0  0
    6.4562  -15.8150   24.2260 C   0  0  2  0  0  0  0  0  0  0  0  0
    5.6342  -17.0090   24.3891 N   0  0  0  0  0  0  0  0  0  0  0  0
    7.7535  -16.2284   23.6610 C   0  0  0  0  0  0  0  0  0  0  0  0
    8.1096  -17.4555   23.6399 O   0  0  0  0  0  0  0  0  0  0  0  0
    6.8356  -13.5311   17.4806 O   0  0  0  0  0  0  0  0  0  0  0  0
    7.7180  -13.7738   18.5265 C   0  0  0  0  0  0  0  0  0  0  0  0
    8.4608  -14.9259   18.5146 C   0  0  0  0  0  0  0  0  0  0  0  0
    9.3310  -15.1653   19.5461 C   0  0  0  0  0  0  0  0  0  0  0  0
    9.4682  -14.2663   20.5907 C   0  0  0  0  0  0  0  0  0  0  0  0
   10.4317  -14.6081   21.6654 C   0  0  0  0  0  0  0  0  0  0  0  0
    9.9790  -15.7573   22.5378 C   0  0  2  0  0  0  0  0  0  0  0  0
    8.6935  -15.3203   23.1065 N   0  0  0  0  0  0  0  0  0  0  0  0
   10.9312  -16.1126   23.6020 C   0  0  0  0  0  0  0  0  0  0  0  0
   12.1646  -16.0903   23.2592 O   0  0  0  0  0  0  0  0  0  0  0  0
    8.7241  -13.0985   20.6151 C   0  0  0  0  0  0  0  0  0  0  0  0
    7.8531  -12.8635   19.5783 C   0  0  0  0  0  0  0  0  0  0  0  0
   10.4989  -13.7727   29.6324 C   0  0  0  0  0  0  0  0  0  0  0  0
   11.8622  -13.7106   28.4321 S   0  0  0  0  0  0  0  0  0  0  0  0
   11.3404  -14.5767   26.9055 C   0  0  0  0  0  0  0  0  0  0  0  0
   11.2500  -16.0373   27.1537 C   0  0  0  0  0  0  0  0  0  0  0  0
   11.5370  -16.8223   25.8929 C   0  0  2  0  0  0  0  0  0  0  0  0
   10.5294  -16.4539   24.9061 N   0  0  0  0  0  0  0  0  0  0  0  0
   11.3831  -18.2619   26.1744 C   0  0  0  0  0  0  0  0  0  0  0  0
   12.3869  -18.8930   26.9351 O   0  0  0  0  0  0  0  0  0  0  0  0
   10.4084  -18.9465   25.7716 O   0  0  0  0  0  0  0  0  0  0  0  0
  1  2  1  0
  3  4  1  0
  3  2  1  0
  5  4  1  0
  5  6  1  1
  7  5  1  0
  8  7  2  0
  9 10  1  0
 10 11  2  0
 10 20  1  0
 11 12  1  0
 12 13  2  0
 13 14  1  0
 15 14  1  1
 15 16  1  0
 16  7  1  0
 17 15  1  0
 17 26  1  0
 18 17  2  0
 19 13  1  0
 20 19  2  0
 22 21  1  0
 23 22  1  0
 24 23  1  0
 25 24  1  1
 25 26  1  0
 27 25  1  0
 27 28  1  0
 29 27  2  0
M  END
$$$$
