MYM.pdb
     RDKit          3D

 29 29  0  0  1  0  0  0  0  0999 V2000
    8.5272  -12.3327   17.4743 C   0  0  0  0  0  0  0  0  0  0  0  0
    8.2730  -13.8534   16.5551 S   0  0  0  0  0  0  0  0  0  0  0  0
    8.7163  -15.2741   17.5756 C   0  0  0  0  0  0  0  0  0  0  0  0
    9.3285  -14.7953   18.8768 C   0  0  0  0  0  0  0  0  0  0  0  0
    9.7364  -15.9639   19.7508 C   0  0  2  0  0  0  0  0  0  0  0  0
    8.7369  -17.0168   19.6082 N   0  0  0  0  0  0  0  0  0  0  0  0
    9.8079  -15.5930   21.1757 C   0  0  0  0  0  0  0  0  0  0  0  0
   10.7340  -14.8327   21.6200 O   0  0  0  0  0  0  0  0  0  0  0  0
    6.1973  -11.7381   27.8075 O   0  0  0  0  0  0  0  0  0  0  0  0
    6.4860  -12.7279   26.8756 C   0  0  0  0  0  0  0  0  0  0  0  0
    7.6613  -12.6567   26.1738 C   0  0  0  0  0  0  0  0  0  0  0  0
    7.9459  -13.6329   25.2548 C   0  0  0  0  0  0  0  0  0  0  0  0
    7.0692  -14.6808   25.0281 C   0  0  0  0  0  0  0  0  0  0  0  0
    7.4576  -15.6906   24.0135 C   0  0  0  0  0  0  0  0  0  0  0  0
    8.8865  -15.5497   23.5391 C   0  0  2  0  0  0  0  0  0  0  0  0
    8.8767  -16.0384   22.1505 N   0  0  0  0  0  0  0  0  0  0  0  0
    9.8631  -16.2928   24.3512 C   0  0  0  0  0  0  0  0  0  0  0  0
   10.1645  -17.4567   23.9111 O   0  0  0  0  0  0  0  0  0  0  0  0
    5.8784  -14.7650   25.7303 C   0  0  0  0  0  0  0  0  0  0  0  0
    5.5981  -13.7836   26.6506 C   0  0  0  0  0  0  0  0  0  0  0  0
   11.8163  -15.3288   30.8708 C   0  0  0  0  0  0  0  0  0  0  0  0
   11.0812  -14.2050   29.6462 S   0  0  0  0  0  0  0  0  0  0  0  0
   10.5484  -15.1858   28.1946 C   0  0  0  0  0  0  0  0  0  0  0  0
   11.7250  -15.8170   27.5462 C   0  0  0  0  0  0  0  0  0  0  0  0
   11.3126  -16.6156   26.3295 C   0  0  2  0  0  0  0  0  0  0  0  0
   10.4325  -15.7741   25.5282 N   0  0  0  0  0  0  0  0  0  0  0  0
   10.5349  -17.7912   26.7639 C   0  0  0  0  0  0  0  0  0  0  0  0
   11.2475  -18.9176   27.2200 O   0  0  0  0  0  0  0  0  0  0  0  0
    9.2785  -17.8360   26.7466 O   0  0  0  0  0  0  0  0  0  0  0  0
  1  2  1  0
  3  4  1  0
  3  2  1  0
  5  4  1  0
  5  6  1  1
  7  5  1  0
  8  7  2  0
  9 10  1  0
 10 11  2  0
 10 20  1  0
 11 12  1  0
 12 13  2  0
 13 14  1  0
 15 14  1  1
 15 16  1  0
 16  7  1  0
 17 15  1  0
 17 26  1  0
 18 17  2  0
 19 13  1  0
 20 19  2  0
 22 21  1  0
 23 22  1  0
 24 23  1  0
 25 24  1  1
 25 26  1  0
 27 25  1  0
 27 28  1  0
 29 27  2  0
M  END
$$$$
