MYM.pdb
     RDKit          3D

 29 29  0  0  1  0  0  0  0  0999 V2000
    8.0808  -17.3334   14.5819 C   0  0  0  0  0  0  0  0  0  0  0  0
    8.7351  -17.2744   16.2523 S   0  0  0  0  0  0  0  0  0  0  0  0
    9.0701  -15.5654   16.7251 C   0  0  0  0  0  0  0  0  0  0  0  0
    9.3573  -15.4952   18.2117 C   0  0  0  0  0  0  0  0  0  0  0  0
    8.5814  -14.3697   18.8650 C   0  0  2  0  0  0  0  0  0  0  0  0
    9.0024  -13.1095   18.2627 N   0  0  0  0  0  0  0  0  0  0  0  0
    8.8350  -14.2892   20.3149 C   0  0  0  0  0  0  0  0  0  0  0  0
    9.9790  -13.9502   20.7727 O   0  0  0  0  0  0  0  0  0  0  0  0
    7.3603  -13.1292   28.9244 O   0  0  0  0  0  0  0  0  0  0  0  0
    7.2625  -13.3183   27.5510 C   0  0  0  0  0  0  0  0  0  0  0  0
    6.5133  -14.3636   27.0765 C   0  0  0  0  0  0  0  0  0  0  0  0
    6.4168  -14.5501   25.7220 C   0  0  0  0  0  0  0  0  0  0  0  0
    7.0609  -13.7038   24.8348 C   0  0  0  0  0  0  0  0  0  0  0  0
    6.9031  -13.9824   23.3865 C   0  0  0  0  0  0  0  0  0  0  0  0
    8.1476  -14.5512   22.7429 C   0  0  2  0  0  0  0  0  0  0  0  0
    7.8538  -14.5744   21.3006 N   0  0  0  0  0  0  0  0  0  0  0  0
    8.5126  -15.8921   23.2269 C   0  0  0  0  0  0  0  0  0  0  0  0
    8.6750  -16.7752   22.3142 O   0  0  0  0  0  0  0  0  0  0  0  0
    7.8209  -12.6439   25.3007 C   0  0  0  0  0  0  0  0  0  0  0  0
    7.9141  -12.4615   26.6597 C   0  0  0  0  0  0  0  0  0  0  0  0
   13.3657  -14.9461   23.3475 C   0  0  0  0  0  0  0  0  0  0  0  0
   13.7897  -16.2265   24.5657 S   0  0  0  0  0  0  0  0  0  0  0  0
   12.2583  -17.1057   25.0505 C   0  0  0  0  0  0  0  0  0  0  0  0
   11.0678  -16.3264   24.6285 C   0  0  0  0  0  0  0  0  0  0  0  0
    9.7885  -17.0379   25.0096 C   0  0  2  0  0  0  0  0  0  0  0  0
    8.6749  -16.1958   24.5907 N   0  0  0  0  0  0  0  0  0  0  0  0
    9.7257  -17.1662   26.4776 C   0  0  0  0  0  0  0  0  0  0  0  0
   10.0078  -18.4270   27.0391 O   0  0  0  0  0  0  0  0  0  0  0  0
    9.4349  -16.2133   27.2448 O   0  0  0  0  0  0  0  0  0  0  0  0
  1  2  1  0
  3  4  1  0
  3  2  1  0
  5  4  1  0
  5  6  1  6
  7  5  1  0
  8  7  2  0
  9 10  1  0
 10 11  2  0
 10 20  1  0
 11 12  1  0
 12 13  2  0
 13 14  1  0
 15 14  1  1
 15 16  1  0
 16  7  1  0
 17 15  1  0
 17 26  1  0
 18 17  2  0
 19 13  1  0
 20 19  2  0
 22 21  1  0
 23 22  1  0
 24 23  1  0
 25 24  1  1
 25 26  1  0
 27 25  1  0
 27 28  1  0
 29 27  2  0
M  END
$$$$
