MYM.pdb
     RDKit          3D

 29 29  0  0  1  0  0  0  0  0999 V2000
    7.2014  -11.4662   26.8679 C   0  0  0  0  0  0  0  0  0  0  0  0
    5.4895  -11.9553   27.0960 S   0  0  0  0  0  0  0  0  0  0  0  0
    5.1095  -13.3798   26.0554 C   0  0  0  0  0  0  0  0  0  0  0  0
    5.9829  -14.5515   26.4574 C   0  0  0  0  0  0  0  0  0  0  0  0
    6.2996  -15.4307   25.2648 C   0  0  2  0  0  0  0  0  0  0  0  0
    6.1840  -16.8253   25.6768 N   0  0  0  0  0  0  0  0  0  0  0  0
    7.6693  -15.2152   24.7644 C   0  0  0  0  0  0  0  0  0  0  0  0
    8.0000  -14.1300   24.1760 O   0  0  0  0  0  0  0  0  0  0  0  0
   10.5236  -14.5798   30.4969 O   0  0  0  0  0  0  0  0  0  0  0  0
   10.6347  -15.1133   29.2185 C   0  0  0  0  0  0  0  0  0  0  0  0
   10.9910  -14.2883   28.1834 C   0  0  0  0  0  0  0  0  0  0  0  0
   11.1005  -14.8145   26.9226 C   0  0  0  0  0  0  0  0  0  0  0  0
   10.8578  -16.1569   26.6831 C   0  0  0  0  0  0  0  0  0  0  0  0
   10.9977  -16.6391   25.2874 C   0  0  0  0  0  0  0  0  0  0  0  0
   10.0517  -15.9652   24.3191 C   0  0  2  0  0  0  0  0  0  0  0  0
    8.7109  -16.1716   24.8908 N   0  0  0  0  0  0  0  0  0  0  0  0
   10.1248  -16.4908   22.9466 C   0  0  0  0  0  0  0  0  0  0  0  0
    9.9252  -17.7505   22.8342 O   0  0  0  0  0  0  0  0  0  0  0  0
   10.4972  -17.0015   27.7197 C   0  0  0  0  0  0  0  0  0  0  0  0
   10.3890  -16.4687   28.9819 C   0  0  0  0  0  0  0  0  0  0  0  0
    8.2044  -12.4662   18.7618 C   0  0  0  0  0  0  0  0  0  0  0  0
    7.6284  -13.4923   20.1469 S   0  0  0  0  0  0  0  0  0  0  0  0
    8.1737  -15.2177   19.8658 C   0  0  0  0  0  0  0  0  0  0  0  0
    9.6329  -15.2536   19.5969 C   0  0  0  0  0  0  0  0  0  0  0  0
   10.3267  -16.2561   20.4924 C   0  0  2  0  0  0  0  0  0  0  0  0
   10.3938  -15.6794   21.8295 N   0  0  0  0  0  0  0  0  0  0  0  0
   11.7098  -16.4512   20.0188 C   0  0  0  0  0  0  0  0  0  0  0  0
   11.8929  -17.0296   18.7474 O   0  0  0  0  0  0  0  0  0  0  0  0
   12.7238  -16.1293   20.6891 O   0  0  0  0  0  0  0  0  0  0  0  0
  1  2  1  0
  3  4  1  0
  3  2  1  0
  5  4  1  0
  5  6  1  1
  7  5  1  0
  8  7  2  0
  9 10  1  0
 10 11  2  0
 10 20  1  0
 11 12  1  0
 12 13  2  0
 13 14  1  0
 15 14  1  1
 15 16  1  0
 16  7  1  0
 17 15  1  0
 17 26  1  0
 18 17  2  0
 19 13  1  0
 20 19  2  0
 22 21  1  0
 23 22  1  0
 24 23  1  0
 25 24  1  6
 25 26  1  0
 27 25  1  0
 27 28  1  0
 29 27  2  0
M  END
$$$$
