MYM.pdb
     RDKit          3D

 29 29  0  0  1  0  0  0  0  0999 V2000
    8.9307  -11.9174   19.9346 C   0  0  0  0  0  0  0  0  0  0  0  0
    8.4500  -12.6232   18.3557 S   0  0  0  0  0  0  0  0  0  0  0  0
    8.6227  -14.4188   18.4030 C   0  0  0  0  0  0  0  0  0  0  0  0
    8.5173  -14.9030   19.8354 C   0  0  0  0  0  0  0  0  0  0  0  0
    8.8966  -16.3657   19.9465 C   0  0  2  0  0  0  0  0  0  0  0  0
    7.9152  -17.1536   19.2087 N   0  0  0  0  0  0  0  0  0  0  0  0
    8.8992  -16.8339   21.3443 C   0  0  0  0  0  0  0  0  0  0  0  0
    7.8138  -17.1378   21.9465 O   0  0  0  0  0  0  0  0  0  0  0  0
   12.2666  -19.0770   29.2874 O   0  0  0  0  0  0  0  0  0  0  0  0
   12.0194  -18.8232   27.9436 C   0  0  0  0  0  0  0  0  0  0  0  0
   12.8420  -17.9589   27.2689 C   0  0  0  0  0  0  0  0  0  0  0  0
   12.5980  -17.7085   25.9436 C   0  0  0  0  0  0  0  0  0  0  0  0
   11.5406  -18.3120   25.2835 C   0  0  0  0  0  0  0  0  0  0  0  0
   11.3502  -17.9809   23.8502 C   0  0  0  0  0  0  0  0  0  0  0  0
   10.0485  -17.2665   23.5644 C   0  0  2  0  0  0  0  0  0  0  0  0
   10.0789  -16.9829   22.1202 N   0  0  0  0  0  0  0  0  0  0  0  0
    9.8615  -16.0295   24.3393 C   0  0  0  0  0  0  0  0  0  0  0  0
   10.6269  -15.0581   24.0080 O   0  0  0  0  0  0  0  0  0  0  0  0
   10.7019  -19.1873   25.9531 C   0  0  0  0  0  0  0  0  0  0  0  0
   10.9511  -19.4348   27.2818 C   0  0  0  0  0  0  0  0  0  0  0  0
    5.6623  -11.2048   25.5831 C   0  0  0  0  0  0  0  0  0  0  0  0
    5.6532  -12.3281   27.0119 S   0  0  0  0  0  0  0  0  0  0  0  0
    7.3167  -13.0743   27.1827 C   0  0  0  0  0  0  0  0  0  0  0  0
    7.4509  -14.2354   26.2679 C   0  0  0  0  0  0  0  0  0  0  0  0
    8.8885  -14.6981   26.1831 C   0  0  2  0  0  0  0  0  0  0  0  0
    8.9140  -15.9090   25.3720 N   0  0  0  0  0  0  0  0  0  0  0  0
    9.3624  -15.0536   27.5339 C   0  0  0  0  0  0  0  0  0  0  0  0
    9.5683  -16.4176   27.8193 O   0  0  0  0  0  0  0  0  0  0  0  0
    9.5889  -14.2058   28.4343 O   0  0  0  0  0  0  0  0  0  0  0  0
  1  2  1  0
  3  4  1  0
  3  2  1  0
  5  4  1  0
  5  6  1  6
  7  5  1  0
  8  7  2  0
  9 10  1  0
 10 11  2  0
 10 20  1  0
 11 12  1  0
 12 13  2  0
 13 14  1  0
 15 14  1  1
 15 16  1  0
 16  7  1  0
 17 15  1  0
 17 26  1  0
 18 17  2  0
 19 13  1  0
 20 19  2  0
 22 21  1  0
 23 22  1  0
 24 23  1  0
 25 24  1  1
 25 26  1  0
 27 25  1  0
 27 28  1  0
 29 27  2  0
M  END
$$$$
