MYM.pdb
     RDKit          3D

 29 29  0  0  1  0  0  0  0  0999 V2000
    8.1383  -11.9943   20.5879 C   0  0  0  0  0  0  0  0  0  0  0  0
    7.7255  -13.2813   19.4068 S   0  0  0  0  0  0  0  0  0  0  0  0
    8.9987  -14.5601   19.4157 C   0  0  0  0  0  0  0  0  0  0  0  0
    9.1925  -15.0760   20.8276 C   0  0  0  0  0  0  0  0  0  0  0  0
   10.3115  -16.0958   20.8874 C   0  0  2  0  0  0  0  0  0  0  0  0
    9.9579  -17.2190   20.0263 N   0  0  0  0  0  0  0  0  0  0  0  0
   10.5176  -16.6145   22.2518 C   0  0  0  0  0  0  0  0  0  0  0  0
   10.1886  -17.8085   22.5667 O   0  0  0  0  0  0  0  0  0  0  0  0
   11.3022  -15.8587   31.0471 O   0  0  0  0  0  0  0  0  0  0  0  0
   11.3286  -15.6285   29.6768 C   0  0  0  0  0  0  0  0  0  0  0  0
   11.9081  -16.5625   28.8578 C   0  0  0  0  0  0  0  0  0  0  0  0
   11.9341  -16.3355   27.5063 C   0  0  0  0  0  0  0  0  0  0  0  0
   11.3875  -15.1849   26.9627 C   0  0  0  0  0  0  0  0  0  0  0  0
   11.4627  -15.0213   25.4904 C   0  0  0  0  0  0  0  0  0  0  0  0
   10.9143  -16.2037   24.7237 C   0  0  2  0  0  0  0  0  0  0  0  0
   11.0851  -15.8499   23.3049 N   0  0  0  0  0  0  0  0  0  0  0  0
    9.5067  -16.5110   25.0233 C   0  0  0  0  0  0  0  0  0  0  0  0
    9.3235  -17.4136   25.9126 O   0  0  0  0  0  0  0  0  0  0  0  0
   10.7989  -14.2332   27.7786 C   0  0  0  0  0  0  0  0  0  0  0  0
   10.7754  -14.4660   29.1329 C   0  0  0  0  0  0  0  0  0  0  0  0
    5.9388  -11.0173   26.5146 C   0  0  0  0  0  0  0  0  0  0  0  0
    5.6977  -12.2217   25.1750 S   0  0  0  0  0  0  0  0  0  0  0  0
    6.5123  -13.7930   25.6445 C   0  0  0  0  0  0  0  0  0  0  0  0
    6.2856  -14.8180   24.5953 C   0  0  0  0  0  0  0  0  0  0  0  0
    7.0758  -16.0754   24.8831 C   0  0  2  0  0  0  0  0  0  0  0  0
    8.4303  -15.8673   24.3864 N   0  0  0  0  0  0  0  0  0  0  0  0
    6.4892  -17.1983   24.1279 C   0  0  0  0  0  0  0  0  0  0  0  0
    6.2091  -16.9957   22.7622 O   0  0  0  0  0  0  0  0  0  0  0  0
    6.2294  -18.3171   24.6396 O   0  0  0  0  0  0  0  0  0  0  0  0
  1  2  1  0
  3  4  1  0
  3  2  1  0
  5  4  1  0
  5  6  1  6
  7  5  1  0
  8  7  2  0
  9 10  1  0
 10 11  2  0
 10 20  1  0
 11 12  1  0
 12 13  2  0
 13 14  1  0
 15 14  1  1
 15 16  1  0
 16  7  1  0
 17 15  1  0
 17 26  1  0
 18 17  2  0
 19 13  1  0
 20 19  2  0
 22 21  1  0
 23 22  1  0
 24 23  1  0
 25 24  1  6
 25 26  1  0
 27 25  1  0
 27 28  1  0
 29 27  2  0
M  END
$$$$
