MYM.pdb
     RDKit          3D

 29 29  0  0  1  0  0  0  0  0999 V2000
    9.5457  -12.5934   19.0949 C   0  0  0  0  0  0  0  0  0  0  0  0
    8.7345  -13.1985   17.6123 S   0  0  0  0  0  0  0  0  0  0  0  0
    8.4442  -14.9744   17.7476 C   0  0  0  0  0  0  0  0  0  0  0  0
    7.9152  -15.3002   19.1300 C   0  0  0  0  0  0  0  0  0  0  0  0
    7.8659  -16.7974   19.3569 C   0  0  2  0  0  0  0  0  0  0  0  0
    6.8066  -17.3551   18.5232 N   0  0  0  0  0  0  0  0  0  0  0  0
    7.5680  -17.1368   20.7602 C   0  0  0  0  0  0  0  0  0  0  0  0
    6.3954  -16.9887   21.2463 O   0  0  0  0  0  0  0  0  0  0  0  0
    9.2781  -19.7570   29.1032 O   0  0  0  0  0  0  0  0  0  0  0  0
    9.1932  -19.5802   27.7274 C   0  0  0  0  0  0  0  0  0  0  0  0
   10.2998  -19.1472   27.0440 C   0  0  0  0  0  0  0  0  0  0  0  0
   10.2159  -18.9727   25.6871 C   0  0  0  0  0  0  0  0  0  0  0  0
    9.0381  -19.2259   25.0039 C   0  0  0  0  0  0  0  0  0  0  0  0
    9.0377  -19.0075   23.5367 C   0  0  0  0  0  0  0  0  0  0  0  0
    8.2790  -17.7704   23.1116 C   0  0  2  0  0  0  0  0  0  0  0  0
    8.5349  -17.6444   21.6674 N   0  0  0  0  0  0  0  0  0  0  0  0
    8.6796  -16.5475   23.8254 C   0  0  0  0  0  0  0  0  0  0  0  0
    9.8208  -16.0717   23.4931 O   0  0  0  0  0  0  0  0  0  0  0  0
    7.9127  -19.6638   25.6819 C   0  0  0  0  0  0  0  0  0  0  0  0
    8.0024  -19.8371   27.0422 C   0  0  0  0  0  0  0  0  0  0  0  0
    5.6451  -12.0100   28.9376 C   0  0  0  0  0  0  0  0  0  0  0  0
    5.8644  -11.8633   27.1394 S   0  0  0  0  0  0  0  0  0  0  0  0
    7.3906  -12.7540   26.6594 C   0  0  0  0  0  0  0  0  0  0  0  0
    7.0538  -13.9148   25.7980 C   0  0  0  0  0  0  0  0  0  0  0  0
    8.2999  -14.6679   25.3881 C   0  0  2  0  0  0  0  0  0  0  0  0
    7.8765  -15.9347   24.8043 N   0  0  0  0  0  0  0  0  0  0  0  0
    9.0976  -14.9733   26.5906 C   0  0  0  0  0  0  0  0  0  0  0  0
    8.7502  -16.1173   27.3356 O   0  0  0  0  0  0  0  0  0  0  0  0
   10.0634  -14.2681   26.9790 O   0  0  0  0  0  0  0  0  0  0  0  0
  1  2  1  0
  3  4  1  0
  3  2  1  0
  5  4  1  0
  5  6  1  6
  7  5  1  0
  8  7  2  0
  9 10  1  0
 10 11  2  0
 10 20  1  0
 11 12  1  0
 12 13  2  0
 13 14  1  0
 15 14  1  1
 15 16  1  0
 16  7  1  0
 17 15  1  0
 17 26  1  0
 18 17  2  0
 19 13  1  0
 20 19  2  0
 22 21  1  0
 23 22  1  0
 24 23  1  0
 25 24  1  1
 25 26  1  0
 27 25  1  0
 27 28  1  0
 29 27  2  0
M  END
$$$$
