MYM.pdb
     RDKit          3D

 29 29  0  0  1  0  0  0  0  0999 V2000
    8.0623  -12.1289   20.3121 C   0  0  0  0  0  0  0  0  0  0  0  0
    7.4736  -12.8455   18.7752 S   0  0  0  0  0  0  0  0  0  0  0  0
    7.2311  -14.6225   18.9747 C   0  0  0  0  0  0  0  0  0  0  0  0
    7.4668  -15.0095   20.4210 C   0  0  0  0  0  0  0  0  0  0  0  0
    7.1919  -16.4828   20.6437 C   0  0  2  0  0  0  0  0  0  0  0  0
    5.8096  -16.7558   20.2657 N   0  0  0  0  0  0  0  0  0  0  0  0
    7.3641  -16.8726   22.0549 C   0  0  0  0  0  0  0  0  0  0  0  0
    6.4027  -16.7835   22.8921 O   0  0  0  0  0  0  0  0  0  0  0  0
    4.9293  -22.6639   23.0075 O   0  0  0  0  0  0  0  0  0  0  0  0
    5.9830  -21.7890   23.2433 C   0  0  0  0  0  0  0  0  0  0  0  0
    6.2258  -21.3727   24.5266 C   0  0  0  0  0  0  0  0  0  0  0  0
    7.2650  -20.5098   24.7591 C   0  0  0  0  0  0  0  0  0  0  0  0
    8.0654  -20.0570   23.7235 C   0  0  0  0  0  0  0  0  0  0  0  0
    9.1655  -19.1233   24.0671 C   0  0  0  0  0  0  0  0  0  0  0  0
    8.7577  -17.6679   24.0200 C   0  0  2  0  0  0  0  0  0  0  0  0
    8.5826  -17.3676   22.5895 N   0  0  0  0  0  0  0  0  0  0  0  0
    9.7328  -16.7526   24.6339 C   0  0  0  0  0  0  0  0  0  0  0  0
   10.6548  -17.3183   25.3189 O   0  0  0  0  0  0  0  0  0  0  0  0
    7.8313  -20.4697   22.4224 C   0  0  0  0  0  0  0  0  0  0  0  0
    6.7881  -21.3350   22.1950 C   0  0  0  0  0  0  0  0  0  0  0  0
    6.4432  -10.8819   27.4989 C   0  0  0  0  0  0  0  0  0  0  0  0
    7.1044  -11.8183   26.0885 S   0  0  0  0  0  0  0  0  0  0  0  0
    7.0692  -13.6023   26.4999 C   0  0  0  0  0  0  0  0  0  0  0  0
    7.6713  -14.3917   25.3966 C   0  0  0  0  0  0  0  0  0  0  0  0
    9.1645  -14.5417   25.5867 C   0  0  2  0  0  0  0  0  0  0  0  0
    9.6686  -15.3551   24.4872 N   0  0  0  0  0  0  0  0  0  0  0  0
    9.4208  -15.2749   26.8406 C   0  0  0  0  0  0  0  0  0  0  0  0
    9.7539  -14.5230   27.9843 O   0  0  0  0  0  0  0  0  0  0  0  0
    9.3572  -16.5270   26.9366 O   0  0  0  0  0  0  0  0  0  0  0  0
  1  2  1  0
  3  4  1  0
  3  2  1  0
  5  4  1  0
  5  6  1  1
  7  5  1  0
  8  7  2  0
  9 10  1  0
 10 11  2  0
 10 20  1  0
 11 12  1  0
 12 13  2  0
 13 14  1  0
 15 14  1  6
 15 16  1  0
 16  7  1  0
 17 15  1  0
 17 26  1  0
 18 17  2  0
 19 13  1  0
 20 19  2  0
 22 21  1  0
 23 22  1  0
 24 23  1  0
 25 24  1  6
 25 26  1  0
 27 25  1  0
 27 28  1  0
 29 27  2  0
M  END
$$$$
