NWR.pdb
     RDKit          3D

 34 35  0  0  1  0  0  0  0  0999 V2000
    7.9073  -17.0174   17.5515 N   0  0  0  0  0  0  0  0  0  0  0  0
    7.8258  -17.6093   18.8297 C   0  0  0  0  0  0  0  0  0  0  0  0
    7.0961  -18.6219   19.0054 O   0  0  0  0  0  0  0  0  0  0  0  0
    8.6083  -17.0256   19.9627 C   0  0  0  0  0  0  0  0  0  0  0  0
    7.7987  -17.1447   21.2422 C   0  0  2  0  0  0  0  0  0  0  0  0
    6.6500  -16.2793   21.0657 N   0  0  0  0  0  0  0  0  0  0  0  0
    8.5666  -16.6906   22.4152 C   0  0  0  0  0  0  0  0  0  0  0  0
    9.3538  -15.7217   22.3362 O   0  0  0  0  0  0  0  0  0  0  0  0
    8.4613  -17.3190   23.6976 N   0  0  0  0  0  0  0  0  0  0  0  0
    9.2499  -16.9208   24.8102 C   0  0  1  0  0  0  0  0  0  0  0  0
    8.3881  -16.5498   26.0017 C   0  0  0  0  0  0  0  0  0  0  0  0
    7.4475  -15.4607   25.6739 C   0  0  0  0  0  0  0  0  0  0  0  0
    6.1591  -15.5794   25.1629 C   0  0  0  0  0  0  0  0  0  0  0  0
    5.6155  -14.3624   25.0359 N   0  0  0  0  0  0  0  0  0  0  0  0
    6.5034  -13.4423   25.4461 C   0  0  0  0  0  0  0  0  0  0  0  0
    6.4207  -12.0684   25.5014 C   0  0  0  0  0  0  0  0  0  0  0  0
    7.4773  -11.3140   25.9558 C   0  0  0  0  0  0  0  0  0  0  0  0
    8.6025  -11.9640   26.3470 C   0  0  0  0  0  0  0  0  0  0  0  0
    8.7096  -13.3283   26.3019 C   0  0  0  0  0  0  0  0  0  0  0  0
    7.6619  -14.1200   25.8501 C   0  0  0  0  0  0  0  0  0  0  0  0
   10.1948  -17.9719   25.2674 C   0  0  0  0  0  0  0  0  0  0  0  0
    9.6812  -19.0179   25.7470 O   0  0  0  0  0  0  0  0  0  0  0  0
   15.4984  -14.4788   22.8275 N   0  0  0  0  0  0  0  0  0  0  0  0
   16.3362  -15.5903   22.5487 C   0  0  0  0  0  0  0  0  0  0  0  0
   17.2772  -15.4706   21.6970 N   0  0  0  0  0  0  0  0  0  0  0  0
   16.1918  -16.8559   23.1707 N   0  0  0  0  0  0  0  0  0  0  0  0
   14.9065  -17.4312   23.3422 C   0  0  0  0  0  0  0  0  0  0  0  0
   14.5485  -17.7685   24.7645 C   0  0  0  0  0  0  0  0  0  0  0  0
   13.7277  -18.9967   24.8249 C   0  0  0  0  0  0  0  0  0  0  0  0
   12.5023  -18.8978   25.6818 C   0  0  2  0  0  0  0  0  0  0  0  0
   11.5991  -17.8660   25.1967 N   0  0  0  0  0  0  0  0  0  0  0  0
   12.7339  -18.8053   27.1195 C   0  0  0  0  0  0  0  0  0  0  0  0
   13.5050  -19.8299   27.7096 O   0  0  0  0  0  0  0  0  0  0  0  0
   12.3328  -17.9305   27.8898 O   0  0  0  0  0  0  0  0  0  0  0  0
  2  4  1  0
  2  1  1  0
  3  2  2  0
  5  4  1  0
  5  7  1  0
  5  6  1  6
  7  8  2  0
  9 10  1  0
  9  7  1  0
 11 12  1  0
 10 11  1  1
 12 13  2  0
 14 13  1  0
 15 14  1  0
 16 15  2  0
 17 16  1  0
 18 19  1  0
 18 17  2  0
 19 20  2  0
 20 15  1  0
 20 12  1  0
 21 10  1  0
 21 22  2  0
 23 24  1  0
 24 26  1  0
 25 24  2  0
 26 27  1  0
 28 27  1  0
 28 29  1  0
 30 29  1  6
 30 31  1  0
 30 32  1  0
 31 21  1  0
 32 34  2  0
 32 33  1  0
M  END
$$$$
