NWR.pdb
     RDKit          3D

 34 35  0  0  1  0  0  0  0  0999 V2000
    8.1789  -15.8806   15.9425 N   0  0  0  0  0  0  0  0  0  0  0  0
    8.0620  -14.5281   16.3271 C   0  0  0  0  0  0  0  0  0  0  0  0
    7.9152  -13.6375   15.4474 O   0  0  0  0  0  0  0  0  0  0  0  0
    8.1142  -14.1680   17.7777 C   0  0  0  0  0  0  0  0  0  0  0  0
    8.4541  -15.4070   18.5878 C   0  0  2  0  0  0  0  0  0  0  0  0
    7.3173  -16.2948   18.4491 N   0  0  0  0  0  0  0  0  0  0  0  0
    8.6438  -15.0885   20.0141 C   0  0  0  0  0  0  0  0  0  0  0  0
    9.7040  -14.5661   20.4237 O   0  0  0  0  0  0  0  0  0  0  0  0
    7.6432  -15.3520   21.0038 N   0  0  0  0  0  0  0  0  0  0  0  0
    7.9055  -15.2637   22.3973 C   0  0  1  0  0  0  0  0  0  0  0  0
    6.6237  -15.1689   23.2023 C   0  0  0  0  0  0  0  0  0  0  0  0
    6.8928  -14.8416   24.6160 C   0  0  0  0  0  0  0  0  0  0  0  0
    7.1352  -15.7289   25.6596 C   0  0  0  0  0  0  0  0  0  0  0  0
    7.3706  -15.0415   26.7843 N   0  0  0  0  0  0  0  0  0  0  0  0
    7.2909  -13.7278   26.5182 C   0  0  0  0  0  0  0  0  0  0  0  0
    7.4443  -12.6293   27.3352 C   0  0  0  0  0  0  0  0  0  0  0  0
    7.3054  -11.3539   26.8391 C   0  0  0  0  0  0  0  0  0  0  0  0
    7.0126  -11.2112   25.5217 C   0  0  0  0  0  0  0  0  0  0  0  0
    6.8555  -12.2867   24.6889 C   0  0  0  0  0  0  0  0  0  0  0  0
    6.9901  -13.5874   25.1565 C   0  0  0  0  0  0  0  0  0  0  0  0
    8.6669  -16.4240   22.9269 C   0  0  0  0  0  0  0  0  0  0  0  0
    8.3847  -17.5507   22.4378 O   0  0  0  0  0  0  0  0  0  0  0  0
   16.0650  -16.2061   21.2394 N   0  0  0  0  0  0  0  0  0  0  0  0
   15.5692  -15.0338   20.6110 C   0  0  0  0  0  0  0  0  0  0  0  0
   16.3844  -14.1268   20.2393 N   0  0  0  0  0  0  0  0  0  0  0  0
   14.1933  -14.7995   20.3634 N   0  0  0  0  0  0  0  0  0  0  0  0
   13.2287  -15.7968   20.6589 C   0  0  0  0  0  0  0  0  0  0  0  0
   12.9739  -16.0161   22.1259 C   0  0  0  0  0  0  0  0  0  0  0  0
   11.5391  -15.8515   22.4425 C   0  0  0  0  0  0  0  0  0  0  0  0
   11.0721  -16.5835   23.6639 C   0  0  2  0  0  0  0  0  0  0  0  0
    9.6621  -16.3367   23.9220 N   0  0  0  0  0  0  0  0  0  0  0  0
   11.8943  -16.4225   24.8585 C   0  0  0  0  0  0  0  0  0  0  0  0
   13.2350  -16.8563   24.7745 O   0  0  0  0  0  0  0  0  0  0  0  0
   11.5556  -15.9482   25.9447 O   0  0  0  0  0  0  0  0  0  0  0  0
  2  4  1  0
  2  1  1  0
  3  2  2  0
  5  4  1  0
  5  7  1  0
  5  6  1  1
  7  8  2  0
  9 10  1  0
  9  7  1  0
 11 12  1  0
 10 11  1  1
 12 13  2  0
 14 13  1  0
 15 14  1  0
 16 15  2  0
 17 16  1  0
 18 19  1  0
 18 17  2  0
 19 20  2  0
 20 15  1  0
 20 12  1  0
 21 10  1  0
 21 22  2  0
 23 24  1  0
 24 26  1  0
 25 24  2  0
 26 27  1  0
 28 27  1  0
 28 29  1  0
 30 29  1  6
 30 31  1  0
 30 32  1  0
 31 21  1  0
 32 34  2  0
 32 33  1  0
M  END
$$$$
