NWR.pdb
     RDKit          3D

 34 35  0  0  1  0  0  0  0  0999 V2000
    6.2654  -13.2698   18.2444 N   0  0  0  0  0  0  0  0  0  0  0  0
    7.4121  -14.0347   18.5458 C   0  0  0  0  0  0  0  0  0  0  0  0
    7.9169  -14.7804   17.6639 O   0  0  0  0  0  0  0  0  0  0  0  0
    8.0152  -13.9504   19.9117 C   0  0  0  0  0  0  0  0  0  0  0  0
    8.3513  -15.3501   20.3963 C   0  0  2  0  0  0  0  0  0  0  0  0
    7.0796  -16.0016   20.6371 N   0  0  0  0  0  0  0  0  0  0  0  0
    9.1212  -15.3199   21.6526 C   0  0  0  0  0  0  0  0  0  0  0  0
   10.2313  -14.7470   21.7160 O   0  0  0  0  0  0  0  0  0  0  0  0
    8.6544  -15.9336   22.8592 N   0  0  0  0  0  0  0  0  0  0  0  0
    9.3889  -15.8847   24.0743 C   0  0  1  0  0  0  0  0  0  0  0  0
    8.5131  -16.2066   25.2699 C   0  0  0  0  0  0  0  0  0  0  0  0
    7.4149  -15.2317   25.4172 C   0  0  0  0  0  0  0  0  0  0  0  0
    6.0508  -15.4647   25.2754 C   0  0  0  0  0  0  0  0  0  0  0  0
    5.3769  -14.3346   25.5235 N   0  0  0  0  0  0  0  0  0  0  0  0
    6.2517  -13.3612   25.8242 C   0  0  0  0  0  0  0  0  0  0  0  0
    6.0544  -12.0356   26.1426 C   0  0  0  0  0  0  0  0  0  0  0  0
    7.1190  -11.2061   26.4084 C   0  0  0  0  0  0  0  0  0  0  0  0
    8.3680  -11.7330   26.3469 C   0  0  0  0  0  0  0  0  0  0  0  0
    8.5906  -13.0470   26.0329 C   0  0  0  0  0  0  0  0  0  0  0  0
    7.5390  -13.9121   25.7604 C   0  0  0  0  0  0  0  0  0  0  0  0
   10.5345  -16.8298   24.1073 C   0  0  0  0  0  0  0  0  0  0  0  0
   10.2993  -18.0099   23.7326 O   0  0  0  0  0  0  0  0  0  0  0  0
   19.1071  -15.4728   22.6564 N   0  0  0  0  0  0  0  0  0  0  0  0
   18.9794  -16.8774   22.8166 C   0  0  0  0  0  0  0  0  0  0  0  0
   19.9781  -17.6315   22.5735 N   0  0  0  0  0  0  0  0  0  0  0  0
   17.7847  -17.5124   23.2395 N   0  0  0  0  0  0  0  0  0  0  0  0
   16.5788  -16.7742   23.3543 C   0  0  0  0  0  0  0  0  0  0  0  0
   15.4082  -17.5532   23.8909 C   0  0  0  0  0  0  0  0  0  0  0  0
   14.1859  -16.7216   23.9113 C   0  0  0  0  0  0  0  0  0  0  0  0
   12.9649  -17.4038   24.4493 C   0  0  2  0  0  0  0  0  0  0  0  0
   11.8372  -16.4883   24.5250 N   0  0  0  0  0  0  0  0  0  0  0  0
   13.1487  -18.1652   25.6804 C   0  0  0  0  0  0  0  0  0  0  0  0
   12.4773  -17.6937   26.8292 O   0  0  0  0  0  0  0  0  0  0  0  0
   13.8271  -19.1818   25.8403 O   0  0  0  0  0  0  0  0  0  0  0  0
  2  4  1  0
  2  1  1  0
  3  2  2  0
  5  4  1  0
  5  7  1  0
  5  6  1  1
  7  8  2  0
  9 10  1  0
  9  7  1  0
 11 12  1  0
 10 11  1  1
 12 13  2  0
 14 13  1  0
 15 14  1  0
 16 15  2  0
 17 16  1  0
 18 19  1  0
 18 17  2  0
 19 20  2  0
 20 15  1  0
 20 12  1  0
 21 10  1  0
 21 22  2  0
 23 24  1  0
 24 26  1  0
 25 24  2  0
 26 27  1  0
 28 27  1  0
 28 29  1  0
 30 29  1  1
 30 31  1  0
 30 32  1  0
 31 21  1  0
 32 34  2  0
 32 33  1  0
M  END
$$$$
