NWR.pdb
     RDKit          3D

 34 35  0  0  1  0  0  0  0  0999 V2000
   12.0446  -16.6636   19.7244 N   0  0  0  0  0  0  0  0  0  0  0  0
   11.2932  -15.4859   19.9220 C   0  0  0  0  0  0  0  0  0  0  0  0
   11.2870  -14.5909   19.0347 O   0  0  0  0  0  0  0  0  0  0  0  0
   10.5118  -15.3145   21.1856 C   0  0  0  0  0  0  0  0  0  0  0  0
   10.7356  -16.5224   22.0788 C   0  0  2  0  0  0  0  0  0  0  0  0
    9.7385  -17.4969   21.6840 N   0  0  0  0  0  0  0  0  0  0  0  0
   10.5446  -16.1890   23.5015 C   0  0  0  0  0  0  0  0  0  0  0  0
   11.2164  -15.2870   24.0493 O   0  0  0  0  0  0  0  0  0  0  0  0
    9.5939  -16.8646   24.3321 N   0  0  0  0  0  0  0  0  0  0  0  0
    9.4154  -16.5445   25.7047 C   0  0  1  0  0  0  0  0  0  0  0  0
    7.9472  -16.4180   26.0627 C   0  0  0  0  0  0  0  0  0  0  0  0
    7.3077  -15.2974   25.3460 C   0  0  0  0  0  0  0  0  0  0  0  0
    6.5153  -15.3641   24.2045 C   0  0  0  0  0  0  0  0  0  0  0  0
    6.0934  -14.1351   23.8817 N   0  0  0  0  0  0  0  0  0  0  0  0
    6.5819  -13.2573   24.7728 C   0  0  0  0  0  0  0  0  0  0  0  0
    6.4403  -11.8903   24.8657 C   0  0  0  0  0  0  0  0  0  0  0  0
    7.0506  -11.1829   25.8752 C   0  0  0  0  0  0  0  0  0  0  0  0
    7.7960  -11.8723   26.7756 C   0  0  0  0  0  0  0  0  0  0  0  0
    7.9521  -13.2308   26.7054 C   0  0  0  0  0  0  0  0  0  0  0  0
    7.3490  -13.9756   25.7004 C   0  0  0  0  0  0  0  0  0  0  0  0
   10.0021  -17.5527   26.6246 C   0  0  0  0  0  0  0  0  0  0  0  0
    9.3250  -17.8394   27.6482 O   0  0  0  0  0  0  0  0  0  0  0  0
   15.6122  -16.2300   24.4285 N   0  0  0  0  0  0  0  0  0  0  0  0
   15.0860  -17.1476   23.4819 C   0  0  0  0  0  0  0  0  0  0  0  0
   14.8404  -16.7546   22.2943 N   0  0  0  0  0  0  0  0  0  0  0  0
   14.8089  -18.5060   23.7777 N   0  0  0  0  0  0  0  0  0  0  0  0
   14.5188  -18.9087   25.1066 C   0  0  0  0  0  0  0  0  0  0  0  0
   13.1928  -19.5980   25.2841 C   0  0  0  0  0  0  0  0  0  0  0  0
   12.9473  -19.9108   26.7081 C   0  0  0  0  0  0  0  0  0  0  0  0
   11.7777  -19.2011   27.3198 C   0  0  2  0  0  0  0  0  0  0  0  0
   11.2435  -18.1898   26.4212 N   0  0  0  0  0  0  0  0  0  0  0  0
   11.9742  -18.6959   28.6745 C   0  0  0  0  0  0  0  0  0  0  0  0
   11.6124  -17.3525   28.9139 O   0  0  0  0  0  0  0  0  0  0  0  0
   12.4230  -19.3073   29.6461 O   0  0  0  0  0  0  0  0  0  0  0  0
  2  4  1  0
  2  1  1  0
  3  2  2  0
  5  4  1  0
  5  7  1  0
  5  6  1  6
  7  8  2  0
  9 10  1  0
  9  7  1  0
 11 12  1  0
 10 11  1  1
 12 13  2  0
 14 13  1  0
 15 14  1  0
 16 15  2  0
 17 16  1  0
 18 19  1  0
 18 17  2  0
 19 20  2  0
 20 15  1  0
 20 12  1  0
 21 10  1  0
 21 22  2  0
 23 24  1  0
 24 26  1  0
 25 24  2  0
 26 27  1  0
 28 27  1  0
 28 29  1  0
 30 29  1  6
 30 31  1  0
 30 32  1  0
 31 21  1  0
 32 34  2  0
 32 33  1  0
M  END
$$$$
