NWR.pdb
     RDKit          3D

 34 35  0  0  1  0  0  0  0  0999 V2000
    7.7411  -16.4404   17.5236 N   0  0  0  0  0  0  0  0  0  0  0  0
    7.0872  -16.7442   18.7364 C   0  0  0  0  0  0  0  0  0  0  0  0
    6.1563  -17.5937   18.7500 O   0  0  0  0  0  0  0  0  0  0  0  0
    7.5084  -16.0519   19.9934 C   0  0  0  0  0  0  0  0  0  0  0  0
    7.9746  -17.0878   21.0016 C   0  0  2  0  0  0  0  0  0  0  0  0
    6.7696  -17.6472   21.5802 N   0  0  0  0  0  0  0  0  0  0  0  0
    8.7835  -16.4783   22.0722 C   0  0  0  0  0  0  0  0  0  0  0  0
    9.5741  -15.5399   21.8295 O   0  0  0  0  0  0  0  0  0  0  0  0
    8.7159  -16.9143   23.4344 N   0  0  0  0  0  0  0  0  0  0  0  0
    9.6146  -16.4478   24.4309 C   0  0  1  0  0  0  0  0  0  0  0  0
    8.9307  -16.3035   25.7768 C   0  0  0  0  0  0  0  0  0  0  0  0
    7.7744  -15.3892   25.7034 C   0  0  0  0  0  0  0  0  0  0  0  0
    6.4400  -15.7257   25.5001 C   0  0  0  0  0  0  0  0  0  0  0  0
    5.6900  -14.6170   25.5340 N   0  0  0  0  0  0  0  0  0  0  0  0
    6.4858  -13.5577   25.7526 C   0  0  0  0  0  0  0  0  0  0  0  0
    6.1944  -12.2158   25.8617 C   0  0  0  0  0  0  0  0  0  0  0  0
    7.1893  -11.2914   26.0802 C   0  0  0  0  0  0  0  0  0  0  0  0
    8.4653  -11.7415   26.1843 C   0  0  0  0  0  0  0  0  0  0  0  0
    8.7809  -13.0698   26.0798 C   0  0  0  0  0  0  0  0  0  0  0  0
    7.8012  -14.0294   25.8608 C   0  0  0  0  0  0  0  0  0  0  0  0
   10.7850  -17.3404   24.6314 C   0  0  0  0  0  0  0  0  0  0  0  0
   10.5670  -18.4241   25.2367 O   0  0  0  0  0  0  0  0  0  0  0  0
   15.2661  -18.3866   17.9985 N   0  0  0  0  0  0  0  0  0  0  0  0
   14.1943  -19.2522   18.3406 C   0  0  0  0  0  0  0  0  0  0  0  0
   13.5445  -19.8440   17.4171 N   0  0  0  0  0  0  0  0  0  0  0  0
   13.7890  -19.5083   19.6746 N   0  0  0  0  0  0  0  0  0  0  0  0
   14.0814  -18.5799   20.7065 C   0  0  0  0  0  0  0  0  0  0  0  0
   13.6196  -18.9919   22.0784 C   0  0  0  0  0  0  0  0  0  0  0  0
   14.0483  -18.0094   23.0966 C   0  0  0  0  0  0  0  0  0  0  0  0
   13.2068  -17.9740   24.3361 C   0  0  2  0  0  0  0  0  0  0  0  0
   12.0934  -17.0490   24.1937 N   0  0  0  0  0  0  0  0  0  0  0  0
   13.9267  -17.7910   25.5921 C   0  0  0  0  0  0  0  0  0  0  0  0
   14.2972  -16.4713   25.9294 O   0  0  0  0  0  0  0  0  0  0  0  0
   14.2542  -18.6595   26.4031 O   0  0  0  0  0  0  0  0  0  0  0  0
  2  4  1  0
  2  1  1  0
  3  2  2  0
  5  4  1  0
  5  7  1  0
  5  6  1  1
  7  8  2  0
  9 10  1  0
  9  7  1  0
 11 12  1  0
 10 11  1  1
 12 13  2  0
 14 13  1  0
 15 14  1  0
 16 15  2  0
 17 16  1  0
 18 19  1  0
 18 17  2  0
 19 20  2  0
 20 15  1  0
 20 12  1  0
 21 10  1  0
 21 22  2  0
 23 24  1  0
 24 26  1  0
 25 24  2  0
 26 27  1  0
 28 27  1  0
 28 29  1  0
 30 29  1  6
 30 31  1  0
 30 32  1  0
 31 21  1  0
 32 34  2  0
 32 33  1  0
M  END
$$$$
