NWR.pdb
     RDKit          3D

 34 35  0  0  1  0  0  0  0  0999 V2000
    7.8532  -13.9332   17.1971 N   0  0  0  0  0  0  0  0  0  0  0  0
    7.1241  -14.5813   18.2164 C   0  0  0  0  0  0  0  0  0  0  0  0
    6.1764  -15.3550   17.9132 O   0  0  0  0  0  0  0  0  0  0  0  0
    7.4861  -14.3408   19.6474 C   0  0  0  0  0  0  0  0  0  0  0  0
    8.1849  -15.5713   20.1992 C   0  0  2  0  0  0  0  0  0  0  0  0
    7.1366  -16.5353   20.4666 N   0  0  0  0  0  0  0  0  0  0  0  0
    8.8966  -15.2746   21.4551 C   0  0  0  0  0  0  0  0  0  0  0  0
    9.7368  -14.3501   21.5184 O   0  0  0  0  0  0  0  0  0  0  0  0
    8.6743  -16.0130   22.6616 N   0  0  0  0  0  0  0  0  0  0  0  0
    9.4546  -15.8159   23.8323 C   0  0  1  0  0  0  0  0  0  0  0  0
    8.6614  -16.1159   25.0896 C   0  0  0  0  0  0  0  0  0  0  0  0
    7.5355  -15.1768   25.2589 C   0  0  0  0  0  0  0  0  0  0  0  0
    6.1770  -15.4536   25.1433 C   0  0  0  0  0  0  0  0  0  0  0  0
    5.4721  -14.3457   25.4051 N   0  0  0  0  0  0  0  0  0  0  0  0
    6.3208  -13.3448   25.6896 C   0  0  0  0  0  0  0  0  0  0  0  0
    6.0872  -12.0263   26.0128 C   0  0  0  0  0  0  0  0  0  0  0  0
    7.1295  -11.1629   26.2586 C   0  0  0  0  0  0  0  0  0  0  0  0
    8.3934  -11.6494   26.1726 C   0  0  0  0  0  0  0  0  0  0  0  0
    8.6520  -12.9556   25.8534 C   0  0  0  0  0  0  0  0  0  0  0  0
    7.6236  -13.8540   25.6006 C   0  0  0  0  0  0  0  0  0  0  0  0
   10.6745  -16.6625   23.8753 C   0  0  0  0  0  0  0  0  0  0  0  0
   10.4915  -17.9089   23.9075 O   0  0  0  0  0  0  0  0  0  0  0  0
   19.0023  -15.7973   21.2043 N   0  0  0  0  0  0  0  0  0  0  0  0
   19.0587  -16.8604   22.1434 C   0  0  0  0  0  0  0  0  0  0  0  0
   20.1198  -17.5608   22.2373 N   0  0  0  0  0  0  0  0  0  0  0  0
   17.9864  -17.2027   23.0049 N   0  0  0  0  0  0  0  0  0  0  0  0
   16.7581  -16.4960   22.9412 C   0  0  0  0  0  0  0  0  0  0  0  0
   15.6700  -17.0363   23.8296 C   0  0  0  0  0  0  0  0  0  0  0  0
   14.4182  -16.2687   23.6571 C   0  0  0  0  0  0  0  0  0  0  0  0
   13.1670  -17.0070   24.0245 C   0  0  2  0  0  0  0  0  0  0  0  0
   11.9924  -16.1610   23.8827 N   0  0  0  0  0  0  0  0  0  0  0  0
   13.1940  -17.7146   25.3003 C   0  0  0  0  0  0  0  0  0  0  0  0
   13.7408  -17.0231   26.4028 O   0  0  0  0  0  0  0  0  0  0  0  0
   12.7925  -18.8562   25.5343 O   0  0  0  0  0  0  0  0  0  0  0  0
  2  4  1  0
  2  1  1  0
  3  2  2  0
  5  4  1  0
  5  7  1  0
  5  6  1  1
  7  8  2  0
  9 10  1  0
  9  7  1  0
 11 12  1  0
 10 11  1  1
 12 13  2  0
 14 13  1  0
 15 14  1  0
 16 15  2  0
 17 16  1  0
 18 19  1  0
 18 17  2  0
 19 20  2  0
 20 15  1  0
 20 12  1  0
 21 10  1  0
 21 22  2  0
 23 24  1  0
 24 26  1  0
 25 24  2  0
 26 27  1  0
 28 27  1  0
 28 29  1  0
 30 29  1  1
 30 31  1  0
 30 32  1  0
 31 21  1  0
 32 34  2  0
 32 33  1  0
M  END
$$$$
