NWR.pdb
     RDKit          3D

 34 35  0  0  1  0  0  0  0  0999 V2000
    8.3885  -14.0700   15.6087 N   0  0  0  0  0  0  0  0  0  0  0  0
    7.4591  -14.6625   16.4895 C   0  0  0  0  0  0  0  0  0  0  0  0
    6.5929  -15.4610   16.0414 O   0  0  0  0  0  0  0  0  0  0  0  0
    7.5138  -14.3341   17.9475 C   0  0  0  0  0  0  0  0  0  0  0  0
    8.1490  -15.4926   18.6967 C   0  0  2  0  0  0  0  0  0  0  0  0
    7.1856  -16.5737   18.6442 N   0  0  0  0  0  0  0  0  0  0  0  0
    8.4106  -15.1501   20.1060 C   0  0  0  0  0  0  0  0  0  0  0  0
    9.3577  -14.3968   20.4224 O   0  0  0  0  0  0  0  0  0  0  0  0
    7.6103  -15.6493   21.1833 N   0  0  0  0  0  0  0  0  0  0  0  0
    7.9444  -15.4323   22.5470 C   0  0  1  0  0  0  0  0  0  0  0  0
    6.7808  -15.7529   23.4653 C   0  0  0  0  0  0  0  0  0  0  0  0
    7.0860  -15.4119   24.8684 C   0  0  0  0  0  0  0  0  0  0  0  0
    7.4750  -16.2779   25.8853 C   0  0  0  0  0  0  0  0  0  0  0  0
    7.6933  -15.5799   27.0068 N   0  0  0  0  0  0  0  0  0  0  0  0
    7.4606  -14.2798   26.7646 C   0  0  0  0  0  0  0  0  0  0  0  0
    7.5378  -13.1790   27.5891 C   0  0  0  0  0  0  0  0  0  0  0  0
    7.2385  -11.9212   27.1196 C   0  0  0  0  0  0  0  0  0  0  0  0
    6.8647  -11.7983   25.8208 C   0  0  0  0  0  0  0  0  0  0  0  0
    6.7804  -12.8765   24.9810 C   0  0  0  0  0  0  0  0  0  0  0  0
    7.0767  -14.1597   25.4219 C   0  0  0  0  0  0  0  0  0  0  0  0
    9.0983  -16.2472   23.0065 C   0  0  0  0  0  0  0  0  0  0  0  0
    9.0465  -17.4821   22.7605 O   0  0  0  0  0  0  0  0  0  0  0  0
   17.0638  -13.8446   21.1858 N   0  0  0  0  0  0  0  0  0  0  0  0
   16.8589  -15.2394   21.0198 C   0  0  0  0  0  0  0  0  0  0  0  0
   17.6605  -15.9103   20.2900 N   0  0  0  0  0  0  0  0  0  0  0  0
   15.7952  -15.9528   21.6272 N   0  0  0  0  0  0  0  0  0  0  0  0
   14.9749  -15.3298   22.6025 C   0  0  0  0  0  0  0  0  0  0  0  0
   13.9394  -16.2269   23.2254 C   0  0  0  0  0  0  0  0  0  0  0  0
   12.6050  -15.5909   23.1977 C   0  0  0  0  0  0  0  0  0  0  0  0
   11.4954  -16.4224   23.7661 C   0  0  2  0  0  0  0  0  0  0  0  0
   10.2196  -15.7284   23.6861 N   0  0  0  0  0  0  0  0  0  0  0  0
   11.7375  -16.9941   25.0866 C   0  0  0  0  0  0  0  0  0  0  0  0
   11.4526  -16.1739   26.1997 O   0  0  0  0  0  0  0  0  0  0  0  0
   12.1656  -18.1194   25.3506 O   0  0  0  0  0  0  0  0  0  0  0  0
  2  4  1  0
  2  1  1  0
  3  2  2  0
  5  4  1  0
  5  7  1  0
  5  6  1  1
  7  8  2  0
  9 10  1  0
  9  7  1  0
 11 12  1  0
 10 11  1  1
 12 13  2  0
 14 13  1  0
 15 14  1  0
 16 15  2  0
 17 16  1  0
 18 19  1  0
 18 17  2  0
 19 20  2  0
 20 15  1  0
 20 12  1  0
 21 10  1  0
 21 22  2  0
 23 24  1  0
 24 26  1  0
 25 24  2  0
 26 27  1  0
 28 27  1  0
 28 29  1  0
 30 29  1  1
 30 31  1  0
 30 32  1  0
 31 21  1  0
 32 34  2  0
 32 33  1  0
M  END
$$$$
