NWR.pdb
     RDKit          3D

 34 35  0  0  1  0  0  0  0  0999 V2000
   10.6626  -15.4110   17.6660 N   0  0  0  0  0  0  0  0  0  0  0  0
    9.8876  -16.1123   18.6137 C   0  0  0  0  0  0  0  0  0  0  0  0
    9.1908  -17.0966   18.2476 O   0  0  0  0  0  0  0  0  0  0  0  0
    9.9030  -15.6770   20.0445 C   0  0  0  0  0  0  0  0  0  0  0  0
   10.2507  -16.8653   20.9241 C   0  0  2  0  0  0  0  0  0  0  0  0
    9.2036  -17.8420   20.7020 N   0  0  0  0  0  0  0  0  0  0  0  0
   10.2701  -16.4977   22.3511 C   0  0  0  0  0  0  0  0  0  0  0  0
   11.0469  -15.6163   22.7805 O   0  0  0  0  0  0  0  0  0  0  0  0
    9.4149  -17.1155   23.3193 N   0  0  0  0  0  0  0  0  0  0  0  0
    9.5093  -16.8376   24.7094 C   0  0  1  0  0  0  0  0  0  0  0  0
    8.1451  -16.5887   25.3233 C   0  0  0  0  0  0  0  0  0  0  0  0
    7.5886  -15.2882   24.9020 C   0  0  0  0  0  0  0  0  0  0  0  0
    6.9259  -14.9952   23.7145 C   0  0  0  0  0  0  0  0  0  0  0  0
    6.5427  -13.7123   23.7221 N   0  0  0  0  0  0  0  0  0  0  0  0
    6.9314  -13.1471   24.8765 C   0  0  0  0  0  0  0  0  0  0  0  0
    6.7814  -11.8618   25.3489 C   0  0  0  0  0  0  0  0  0  0  0  0
    7.2781  -11.4978   26.5789 C   0  0  0  0  0  0  0  0  0  0  0  0
    7.9199  -12.4426   27.3117 C   0  0  0  0  0  0  0  0  0  0  0  0
    8.0818  -13.7267   26.8648 C   0  0  0  0  0  0  0  0  0  0  0  0
    7.5918  -14.1280   25.6289 C   0  0  0  0  0  0  0  0  0  0  0  0
   10.1425  -17.9338   25.4865 C   0  0  0  0  0  0  0  0  0  0  0  0
   10.2179  -19.0550   24.9160 O   0  0  0  0  0  0  0  0  0  0  0  0
    9.3437  -22.1966   31.9988 N   0  0  0  0  0  0  0  0  0  0  0  0
   10.4578  -22.8748   31.4386 C   0  0  0  0  0  0  0  0  0  0  0  0
   11.0082  -23.8237   32.0883 N   0  0  0  0  0  0  0  0  0  0  0  0
   11.0122  -22.5587   30.1729 N   0  0  0  0  0  0  0  0  0  0  0  0
   10.4602  -21.5159   29.3854 C   0  0  0  0  0  0  0  0  0  0  0  0
   11.0990  -21.3367   28.0345 C   0  0  0  0  0  0  0  0  0  0  0  0
   10.5271  -20.1686   27.3313 C   0  0  0  0  0  0  0  0  0  0  0  0
   11.2705  -18.8829   27.5312 C   0  0  2  0  0  0  0  0  0  0  0  0
   10.6502  -17.7929   26.7945 N   0  0  0  0  0  0  0  0  0  0  0  0
   12.7145  -18.9417   27.3294 C   0  0  0  0  0  0  0  0  0  0  0  0
   13.1985  -18.5544   26.0612 O   0  0  0  0  0  0  0  0  0  0  0  0
   13.5723  -19.2929   28.1418 O   0  0  0  0  0  0  0  0  0  0  0  0
  2  4  1  0
  2  1  1  0
  3  2  2  0
  5  4  1  0
  5  7  1  0
  5  6  1  1
  7  8  2  0
  9 10  1  0
  9  7  1  0
 11 12  1  0
 10 11  1  1
 12 13  2  0
 14 13  1  0
 15 14  1  0
 16 15  2  0
 17 16  1  0
 18 19  1  0
 18 17  2  0
 19 20  2  0
 20 15  1  0
 20 12  1  0
 21 10  1  0
 21 22  2  0
 23 24  1  0
 24 26  1  0
 25 24  2  0
 26 27  1  0
 28 27  1  0
 28 29  1  0
 30 29  1  6
 30 31  1  0
 30 32  1  0
 31 21  1  0
 32 34  2  0
 32 33  1  0
M  END
$$$$
