NWR.pdb
     RDKit          3D

 34 35  0  0  1  0  0  0  0  0999 V2000
    7.2361  -17.0613   18.0203 N   0  0  0  0  0  0  0  0  0  0  0  0
    7.4331  -15.6951   18.3125 C   0  0  0  0  0  0  0  0  0  0  0  0
    7.1087  -14.8205   17.4649 O   0  0  0  0  0  0  0  0  0  0  0  0
    8.0263  -15.3015   19.6277 C   0  0  0  0  0  0  0  0  0  0  0  0
    8.3441  -16.5535   20.4267 C   0  0  2  0  0  0  0  0  0  0  0  0
    7.0655  -17.1622   20.7339 N   0  0  0  0  0  0  0  0  0  0  0  0
    9.0384  -16.2325   21.6864 C   0  0  0  0  0  0  0  0  0  0  0  0
   10.1434  -15.6461   21.6834 O   0  0  0  0  0  0  0  0  0  0  0  0
    8.5008  -16.5655   22.9710 N   0  0  0  0  0  0  0  0  0  0  0  0
    9.2551  -16.4458   24.1689 C   0  0  1  0  0  0  0  0  0  0  0  0
    8.3652  -16.4875   25.3962 C   0  0  0  0  0  0  0  0  0  0  0  0
    7.3714  -15.3963   25.3841 C   0  0  0  0  0  0  0  0  0  0  0  0
    6.0277  -15.4782   25.0335 C   0  0  0  0  0  0  0  0  0  0  0  0
    5.4525  -14.2789   25.1873 N   0  0  0  0  0  0  0  0  0  0  0  0
    6.3729  -13.4061   25.6278 C   0  0  0  0  0  0  0  0  0  0  0  0
    6.2766  -12.0647   25.9260 C   0  0  0  0  0  0  0  0  0  0  0  0
    7.3728  -11.3559   26.3596 C   0  0  0  0  0  0  0  0  0  0  0  0
    8.5509  -12.0179   26.4840 C   0  0  0  0  0  0  0  0  0  0  0  0
    8.6727  -13.3506   26.1943 C   0  0  0  0  0  0  0  0  0  0  0  0
    7.5862  -14.0962   25.7557 C   0  0  0  0  0  0  0  0  0  0  0  0
   10.2721  -17.5161   24.3327 C   0  0  0  0  0  0  0  0  0  0  0  0
    9.9094  -18.6853   24.0333 O   0  0  0  0  0  0  0  0  0  0  0  0
   15.1131  -21.1922   21.5976 N   0  0  0  0  0  0  0  0  0  0  0  0
   16.3990  -20.5916   21.5730 C   0  0  0  0  0  0  0  0  0  0  0  0
   17.4267  -21.3145   21.3574 N   0  0  0  0  0  0  0  0  0  0  0  0
   16.6211  -19.2066   21.7774 N   0  0  0  0  0  0  0  0  0  0  0  0
   15.5435  -18.3463   22.1107 C   0  0  0  0  0  0  0  0  0  0  0  0
   14.7261  -18.7854   23.2956 C   0  0  0  0  0  0  0  0  0  0  0  0
   13.5941  -17.8627   23.5267 C   0  0  0  0  0  0  0  0  0  0  0  0
   12.6597  -18.2697   24.6252 C   0  0  2  0  0  0  0  0  0  0  0  0
   11.5873  -17.3015   24.7937 N   0  0  0  0  0  0  0  0  0  0  0  0
   13.2840  -18.6365   25.8920 C   0  0  0  0  0  0  0  0  0  0  0  0
   14.1631  -19.7409   25.8748 O   0  0  0  0  0  0  0  0  0  0  0  0
   13.1347  -18.0923   26.9879 O   0  0  0  0  0  0  0  0  0  0  0  0
  2  4  1  0
  2  1  1  0
  3  2  2  0
  5  4  1  0
  5  7  1  0
  5  6  1  1
  7  8  2  0
  9 10  1  0
  9  7  1  0
 11 12  1  0
 10 11  1  1
 12 13  2  0
 14 13  1  0
 15 14  1  0
 16 15  2  0
 17 16  1  0
 18 19  1  0
 18 17  2  0
 19 20  2  0
 20 15  1  0
 20 12  1  0
 21 10  1  0
 21 22  2  0
 23 24  1  0
 24 26  1  0
 25 24  2  0
 26 27  1  0
 28 27  1  0
 28 29  1  0
 30 29  1  6
 30 31  1  0
 30 32  1  0
 31 21  1  0
 32 34  2  0
 32 33  1  0
M  END
$$$$
