NWR.pdb
     RDKit          3D

 34 35  0  0  1  0  0  0  0  0999 V2000
   10.6526  -16.6892   15.8633 N   0  0  0  0  0  0  0  0  0  0  0  0
    9.9647  -17.2962   16.9353 C   0  0  0  0  0  0  0  0  0  0  0  0
    9.1959  -18.2702   16.7146 O   0  0  0  0  0  0  0  0  0  0  0  0
   10.1573  -16.7740   18.3235 C   0  0  0  0  0  0  0  0  0  0  0  0
    8.8025  -16.4412   18.9241 C   0  0  2  0  0  0  0  0  0  0  0  0
    8.2659  -15.3637   18.1174 N   0  0  0  0  0  0  0  0  0  0  0  0
    8.9246  -15.9822   20.3191 C   0  0  0  0  0  0  0  0  0  0  0  0
    9.9828  -15.4630   20.7379 O   0  0  0  0  0  0  0  0  0  0  0  0
    7.8576  -16.0992   21.2668 N   0  0  0  0  0  0  0  0  0  0  0  0
    8.0057  -15.7361   22.6322 C   0  0  1  0  0  0  0  0  0  0  0  0
    6.6664  -15.6663   23.3404 C   0  0  0  0  0  0  0  0  0  0  0  0
    6.8140  -15.2198   24.7393 C   0  0  0  0  0  0  0  0  0  0  0  0
    6.8551  -16.0126   25.8817 C   0  0  0  0  0  0  0  0  0  0  0  0
    7.0356  -15.2362   26.9575 N   0  0  0  0  0  0  0  0  0  0  0  0
    7.1145  -13.9550   26.5634 C   0  0  0  0  0  0  0  0  0  0  0  0
    7.2872  -12.7959   27.2874 C   0  0  0  0  0  0  0  0  0  0  0  0
    7.3283  -11.5711   26.6625 C   0  0  0  0  0  0  0  0  0  0  0  0
    7.1933  -11.5399   25.3126 C   0  0  0  0  0  0  0  0  0  0  0  0
    7.0208  -12.6776   24.5704 C   0  0  0  0  0  0  0  0  0  0  0  0
    6.9760  -13.9299   25.1689 C   0  0  0  0  0  0  0  0  0  0  0  0
    8.8563  -16.6794   23.4026 C   0  0  0  0  0  0  0  0  0  0  0  0
    8.7143  -17.9041   23.1416 O   0  0  0  0  0  0  0  0  0  0  0  0
   17.3434  -18.5487   22.9203 N   0  0  0  0  0  0  0  0  0  0  0  0
   15.9927  -18.9753   23.0142 C   0  0  0  0  0  0  0  0  0  0  0  0
   15.7304  -20.2205   23.0911 N   0  0  0  0  0  0  0  0  0  0  0  0
   14.8892  -18.0857   23.0286 N   0  0  0  0  0  0  0  0  0  0  0  0
   14.5601  -17.3660   24.2060 C   0  0  0  0  0  0  0  0  0  0  0  0
   13.2485  -17.7495   24.8365 C   0  0  0  0  0  0  0  0  0  0  0  0
   12.1542  -16.8853   24.3449 C   0  0  0  0  0  0  0  0  0  0  0  0
   10.8036  -17.1843   24.9213 C   0  0  2  0  0  0  0  0  0  0  0  0
    9.7896  -16.2899   24.3852 N   0  0  0  0  0  0  0  0  0  0  0  0
   10.7392  -17.2930   26.3750 C   0  0  0  0  0  0  0  0  0  0  0  0
    9.9029  -16.3760   27.0476 O   0  0  0  0  0  0  0  0  0  0  0  0
   11.3338  -18.0978   27.0948 O   0  0  0  0  0  0  0  0  0  0  0  0
  2  4  1  0
  2  1  1  0
  3  2  2  0
  5  4  1  0
  5  7  1  0
  5  6  1  6
  7  8  2  0
  9 10  1  0
  9  7  1  0
 11 12  1  0
 10 11  1  1
 12 13  2  0
 14 13  1  0
 15 14  1  0
 16 15  2  0
 17 16  1  0
 18 19  1  0
 18 17  2  0
 19 20  2  0
 20 15  1  0
 20 12  1  0
 21 10  1  0
 21 22  2  0
 23 24  1  0
 24 26  1  0
 25 24  2  0
 26 27  1  0
 28 27  1  0
 28 29  1  0
 30 29  1  1
 30 31  1  0
 30 32  1  0
 31 21  1  0
 32 34  2  0
 32 33  1  0
M  END
$$$$
