NWR.pdb
     RDKit          3D

 34 35  0  0  1  0  0  0  0  0999 V2000
    9.8276  -16.6668   18.8757 N   0  0  0  0  0  0  0  0  0  0  0  0
    9.3471  -15.4048   19.2849 C   0  0  0  0  0  0  0  0  0  0  0  0
    8.8258  -14.6291   18.4393 O   0  0  0  0  0  0  0  0  0  0  0  0
    9.4633  -15.0031   20.7208 C   0  0  0  0  0  0  0  0  0  0  0  0
   10.2208  -16.0782   21.4804 C   0  0  2  0  0  0  0  0  0  0  0  0
    9.5790  -17.3314   21.1380 N   0  0  0  0  0  0  0  0  0  0  0  0
   10.1347  -15.8768   22.9377 C   0  0  0  0  0  0  0  0  0  0  0  0
   10.7642  -14.9538   23.5004 O   0  0  0  0  0  0  0  0  0  0  0  0
    9.3382  -16.7105   23.7868 N   0  0  0  0  0  0  0  0  0  0  0  0
    9.3550  -16.5961   25.2027 C   0  0  1  0  0  0  0  0  0  0  0  0
    7.9881  -16.8661   25.8014 C   0  0  0  0  0  0  0  0  0  0  0  0
    7.1727  -15.6379   25.8703 C   0  0  0  0  0  0  0  0  0  0  0  0
    5.7872  -15.5358   25.7989 C   0  0  0  0  0  0  0  0  0  0  0  0
    5.4264  -14.2538   25.9367 N   0  0  0  0  0  0  0  0  0  0  0  0
    6.5291  -13.5043   26.0963 C   0  0  0  0  0  0  0  0  0  0  0  0
    6.6816  -12.1459   26.2668 C   0  0  0  0  0  0  0  0  0  0  0  0
    7.9306  -11.5859   26.4023 C   0  0  0  0  0  0  0  0  0  0  0  0
    9.0067  -12.4117   26.3626 C   0  0  0  0  0  0  0  0  0  0  0  0
    8.8818  -13.7649   26.1945 C   0  0  0  0  0  0  0  0  0  0  0  0
    7.6362  -14.3630   26.0560 C   0  0  0  0  0  0  0  0  0  0  0  0
   10.3083  -17.5290   25.8567 C   0  0  0  0  0  0  0  0  0  0  0  0
   10.6206  -18.5608   25.2040 O   0  0  0  0  0  0  0  0  0  0  0  0
   14.7560  -21.2927   29.7255 N   0  0  0  0  0  0  0  0  0  0  0  0
   14.8820  -20.8111   31.0549 C   0  0  0  0  0  0  0  0  0  0  0  0
   15.2402  -21.6098   31.9818 N   0  0  0  0  0  0  0  0  0  0  0  0
   14.6294  -19.4674   31.4288 N   0  0  0  0  0  0  0  0  0  0  0  0
   14.0597  -18.5572   30.5018 C   0  0  0  0  0  0  0  0  0  0  0  0
   12.6519  -18.8814   30.0799 C   0  0  0  0  0  0  0  0  0  0  0  0
   12.1273  -17.8519   29.1574 C   0  0  0  0  0  0  0  0  0  0  0  0
   11.5254  -18.3833   27.8921 C   0  0  2  0  0  0  0  0  0  0  0  0
   10.8681  -17.3292   27.1354 N   0  0  0  0  0  0  0  0  0  0  0  0
   10.6917  -19.5727   28.0314 C   0  0  0  0  0  0  0  0  0  0  0  0
    9.3092  -19.3644   28.2262 O   0  0  0  0  0  0  0  0  0  0  0  0
   11.0530  -20.7507   27.9994 O   0  0  0  0  0  0  0  0  0  0  0  0
  2  4  1  0
  2  1  1  0
  3  2  2  0
  5  4  1  0
  5  7  1  0
  5  6  1  1
  7  8  2  0
  9 10  1  0
  9  7  1  0
 11 12  1  0
 10 11  1  1
 12 13  2  0
 14 13  1  0
 15 14  1  0
 16 15  2  0
 17 16  1  0
 18 19  1  0
 18 17  2  0
 19 20  2  0
 20 15  1  0
 20 12  1  0
 21 10  1  0
 21 22  2  0
 23 24  1  0
 24 26  1  0
 25 24  2  0
 26 27  1  0
 28 27  1  0
 28 29  1  0
 30 29  1  1
 30 31  1  0
 30 32  1  0
 31 21  1  0
 32 34  2  0
 32 33  1  0
M  END
$$$$
