NWR.pdb
     RDKit          3D

 34 35  0  0  1  0  0  0  0  0999 V2000
    8.9010  -18.1723   18.9300 N   0  0  0  0  0  0  0  0  0  0  0  0
    8.6858  -16.7793   18.9927 C   0  0  0  0  0  0  0  0  0  0  0  0
    8.3269  -16.1541   17.9588 O   0  0  0  0  0  0  0  0  0  0  0  0
    8.8872  -16.0608   20.2887 C   0  0  0  0  0  0  0  0  0  0  0  0
    9.4775  -17.0219   21.3059 C   0  0  2  0  0  0  0  0  0  0  0  0
    8.3844  -17.8759   21.7245 N   0  0  0  0  0  0  0  0  0  0  0  0
   10.0084  -16.3098   22.4819 C   0  0  0  0  0  0  0  0  0  0  0  0
   10.9779  -15.5261   22.3790 O   0  0  0  0  0  0  0  0  0  0  0  0
    9.4568  -16.4672   23.7939 N   0  0  0  0  0  0  0  0  0  0  0  0
   10.0653  -15.9093   24.9501 C   0  0  1  0  0  0  0  0  0  0  0  0
    9.0955  -15.8407   26.1140 C   0  0  0  0  0  0  0  0  0  0  0  0
    7.8936  -15.0545   25.7742 C   0  0  0  0  0  0  0  0  0  0  0  0
    6.6921  -15.5256   25.2549 C   0  0  0  0  0  0  0  0  0  0  0  0
    5.8349  -14.5062   25.1180 N   0  0  0  0  0  0  0  0  0  0  0  0
    6.4311  -13.3756   25.5296 C   0  0  0  0  0  0  0  0  0  0  0  0
    5.9722  -12.0777   25.5774 C   0  0  0  0  0  0  0  0  0  0  0  0
    6.7759  -11.0597   26.0352 C   0  0  0  0  0  0  0  0  0  0  0  0
    8.0336  -11.3728   26.4375 C   0  0  0  0  0  0  0  0  0  0  0  0
    8.5133  -12.6548   26.4001 C   0  0  0  0  0  0  0  0  0  0  0  0
    7.7283  -13.7061   25.9450 C   0  0  0  0  0  0  0  0  0  0  0  0
   11.2513  -16.6726   25.4166 C   0  0  0  0  0  0  0  0  0  0  0  0
   12.2777  -15.9978   25.6981 O   0  0  0  0  0  0  0  0  0  0  0  0
    9.8800  -22.2710   30.1803 N   0  0  0  0  0  0  0  0  0  0  0  0
   10.8541  -21.4494   30.8057 C   0  0  0  0  0  0  0  0  0  0  0  0
   11.3183  -21.7809   31.9458 N   0  0  0  0  0  0  0  0  0  0  0  0
   11.3571  -20.2549   30.2316 N   0  0  0  0  0  0  0  0  0  0  0  0
   11.1951  -19.9985   28.8458 C   0  0  0  0  0  0  0  0  0  0  0  0
   12.3640  -20.3998   27.9869 C   0  0  0  0  0  0  0  0  0  0  0  0
   12.0764  -20.1563   26.5572 C   0  0  0  0  0  0  0  0  0  0  0  0
   12.4520  -18.7938   26.0590 C   0  0  2  0  0  0  0  0  0  0  0  0
   11.2911  -18.0751   25.5576 N   0  0  0  0  0  0  0  0  0  0  0  0
   13.5822  -18.7396   25.1377 C   0  0  0  0  0  0  0  0  0  0  0  0
   14.8617  -18.5603   25.7064 O   0  0  0  0  0  0  0  0  0  0  0  0
   13.5543  -18.8323   23.9089 O   0  0  0  0  0  0  0  0  0  0  0  0
  2  4  1  0
  2  1  1  0
  3  2  2  0
  5  4  1  0
  5  7  1  0
  5  6  1  1
  7  8  2  0
  9 10  1  0
  9  7  1  0
 11 12  1  0
 10 11  1  1
 12 13  2  0
 14 13  1  0
 15 14  1  0
 16 15  2  0
 17 16  1  0
 18 19  1  0
 18 17  2  0
 19 20  2  0
 20 15  1  0
 20 12  1  0
 21 10  1  0
 21 22  2  0
 23 24  1  0
 24 26  1  0
 25 24  2  0
 26 27  1  0
 28 27  1  0
 28 29  1  0
 30 29  1  6
 30 31  1  0
 30 32  1  0
 31 21  1  0
 32 34  2  0
 32 33  1  0
M  END
$$$$
