NWR.pdb
     RDKit          3D

 34 35  0  0  1  0  0  0  0  0999 V2000
    8.5072  -12.7299   18.0122 N   0  0  0  0  0  0  0  0  0  0  0  0
    7.7594  -13.6201   18.8115 C   0  0  0  0  0  0  0  0  0  0  0  0
    6.9012  -14.3721   18.2763 O   0  0  0  0  0  0  0  0  0  0  0  0
    7.9953  -13.6596   20.2878 C   0  0  0  0  0  0  0  0  0  0  0  0
    8.6519  -14.9795   20.6533 C   0  0  2  0  0  0  0  0  0  0  0  0
    7.5990  -15.9736   20.5996 N   0  0  0  0  0  0  0  0  0  0  0  0
    9.2138  -14.9480   22.0154 C   0  0  0  0  0  0  0  0  0  0  0  0
   10.0441  -14.0748   22.3514 O   0  0  0  0  0  0  0  0  0  0  0  0
    8.8505  -15.8985   23.0228 N   0  0  0  0  0  0  0  0  0  0  0  0
    9.4885  -15.9484   24.2911 C   0  0  1  0  0  0  0  0  0  0  0  0
    8.5144  -16.3198   25.3925 C   0  0  0  0  0  0  0  0  0  0  0  0
    7.3439  -15.4209   25.4086 C   0  0  0  0  0  0  0  0  0  0  0  0
    6.0477  -15.7105   24.9946 C   0  0  0  0  0  0  0  0  0  0  0  0
    5.2645  -14.6444   25.2016 N   0  0  0  0  0  0  0  0  0  0  0  0
    6.0013  -13.6586   25.7386 C   0  0  0  0  0  0  0  0  0  0  0  0
    5.6594  -12.3798   26.1199 C   0  0  0  0  0  0  0  0  0  0  0  0
    6.5984  -11.5239   26.6469 C   0  0  0  0  0  0  0  0  0  0  0  0
    7.8706  -11.9773   26.7791 C   0  0  0  0  0  0  0  0  0  0  0  0
    8.2358  -13.2438   26.4080 C   0  0  0  0  0  0  0  0  0  0  0  0
    7.3130  -14.1337   25.8740 C   0  0  0  0  0  0  0  0  0  0  0  0
   10.6047  -16.9269   24.3497 C   0  0  0  0  0  0  0  0  0  0  0  0
   10.6613  -17.6527   25.3784 O   0  0  0  0  0  0  0  0  0  0  0  0
   13.2483  -19.0717   16.4417 N   0  0  0  0  0  0  0  0  0  0  0  0
   13.7060  -18.3708   17.5881 C   0  0  0  0  0  0  0  0  0  0  0  0
   14.4020  -17.3127   17.4421 N   0  0  0  0  0  0  0  0  0  0  0  0
   13.4334  -18.7802   18.9176 N   0  0  0  0  0  0  0  0  0  0  0  0
   12.5919  -18.0009   19.7524 C   0  0  0  0  0  0  0  0  0  0  0  0
   12.2227  -18.6481   21.0601 C   0  0  0  0  0  0  0  0  0  0  0  0
   13.2392  -18.3633   22.0952 C   0  0  0  0  0  0  0  0  0  0  0  0
   12.6884  -18.0204   23.4460 C   0  0  2  0  0  0  0  0  0  0  0  0
   11.5800  -17.0840   23.3435 N   0  0  0  0  0  0  0  0  0  0  0  0
   13.6664  -17.6189   24.4517 C   0  0  0  0  0  0  0  0  0  0  0  0
   13.8617  -16.2329   24.6351 O   0  0  0  0  0  0  0  0  0  0  0  0
   14.3504  -18.3521   25.1685 O   0  0  0  0  0  0  0  0  0  0  0  0
  2  4  1  0
  2  1  1  0
  3  2  2  0
  5  4  1  0
  5  7  1  0
  5  6  1  1
  7  8  2  0
  9 10  1  0
  9  7  1  0
 11 12  1  0
 10 11  1  1
 12 13  2  0
 14 13  1  0
 15 14  1  0
 16 15  2  0
 17 16  1  0
 18 19  1  0
 18 17  2  0
 19 20  2  0
 20 15  1  0
 20 12  1  0
 21 10  1  0
 21 22  2  0
 23 24  1  0
 24 26  1  0
 25 24  2  0
 26 27  1  0
 28 27  1  0
 28 29  1  0
 30 29  1  6
 30 31  1  0
 30 32  1  0
 31 21  1  0
 32 34  2  0
 32 33  1  0
M  END
$$$$
