RMQ.pdb
     RDKit          3D

 29 28  0  0  1  0  0  0  0  0999 V2000
   17.4112  -13.1029  -21.7321 N   0  0  0  0  0  0  0  0  0  0  0  0
   17.3309  -14.0532  -20.6569 C   0  0  0  0  0  0  0  0  0  0  0  0
   17.5179  -15.3126  -20.8919 N   0  0  0  0  0  0  0  0  0  0  0  0
   17.0527  -13.6454  -19.3290 N   0  0  0  0  0  0  0  0  0  0  0  0
   17.9943  -12.9360  -18.4981 C   0  0  0  0  0  0  0  0  0  0  0  0
   18.4761  -11.6667  -19.1630 C   0  0  0  0  0  0  0  0  0  0  0  0
   19.3623  -10.8405  -18.2907 C   0  0  0  0  0  0  0  0  0  0  0  0
   20.1036  -11.7021  -17.3205 C   0  0  2  0  0  0  0  0  0  0  0  0
   19.2272  -12.5958  -16.5872 N   0  0  0  0  0  0  0  0  0  0  0  0
   20.9177  -10.8641  -16.3796 C   0  0  0  0  0  0  0  0  0  0  0  0
   20.3961  -10.5262  -15.3049 O   0  0  0  0  0  0  0  0  0  0  0  0
   17.5518  -16.0240  -20.1561 C   0  0  0  0  0  0  0  0  0  0  0  0
   27.6145  -10.6178  -16.4096 S   0  0  0  0  0  0  0  0  0  0  0  0
   26.9536  -10.4224  -14.7108 C   0  0  0  0  0  0  0  0  0  0  0  0
   25.3638   -9.5253  -14.7797 C   0  0  0  0  0  0  0  0  0  0  0  0
   24.4124  -10.2466  -15.6625 C   0  0  1  0  0  0  0  0  0  0  0  0
   23.0234   -9.6617  -15.7061 N   0  0  0  0  0  0  0  0  0  0  0  0
   22.2528  -10.4454  -16.6686 C   0  0  0  0  0  0  0  0  0  0  0  0
   23.0133   -8.2291  -16.0276 O   0  0  0  0  0  0  0  0  0  0  0  0
   23.5218   -7.8562  -17.1111 N   0  0  0  0  0  0  0  0  0  0  0  0
   18.4712   -4.2159  -16.3665 C   0  0  0  0  0  0  0  0  0  0  0  0
   19.5875   -3.3115  -16.2778 O   0  0  0  0  0  0  0  0  0  0  0  0
   19.3429   -2.1203  -16.4820 C   0  0  0  0  0  0  0  0  0  0  0  0
   20.8882   -3.8589  -15.9649 C   0  0  0  0  0  0  0  0  0  0  0  0
   21.0874   -5.3003  -15.7684 C   0  0  1  0  0  0  0  0  0  0  0  0
   22.4656   -5.8000  -15.5325 N   0  0  0  0  0  0  0  0  0  0  0  0
   22.4616   -7.2278  -15.1909 C   0  0  0  0  0  0  0  0  0  0  0  0
   23.2067   -5.0542  -14.5330 O   0  0  0  0  0  0  0  0  0  0  0  0
   23.2131   -5.4477  -13.1848 O   0  0  0  0  0  0  0  0  0  0  0  0
  1  2  1  0
  2  3  2  0
  4  5  1  0
  4  2  1  0
  6  5  1  0
  7  6  1  0
  8 10  1  0
  8  7  1  0
  8  9  1  1
 10 11  2  0
 13 12  1  0
 13 14  1  0
 15 14  1  0
 16 15  1  1
 17 16  1  0
 17 10  1  0
 18 16  1  0
 18 19  2  0
 20 21  1  0
 21 22  2  0
 23 21  1  0
 23 24  1  0
 25 24  1  6
 25 26  1  0
 25 27  1  0
 26 18  1  0
 27 28  1  0
 29 27  2  0
M  END
$$$$
