RMQ.pdb
     RDKit          3D

 29 28  0  0  1  0  0  0  0  0999 V2000
   23.0927  -18.0237  -15.9715 N   0  0  0  0  0  0  0  0  0  0  0  0
   23.8507  -17.9780  -17.1917 C   0  0  0  0  0  0  0  0  0  0  0  0
   23.2396  -17.8794  -18.3289 N   0  0  0  0  0  0  0  0  0  0  0  0
   25.2662  -18.0352  -17.1855 N   0  0  0  0  0  0  0  0  0  0  0  0
   26.0287  -19.0121  -17.9233 C   0  0  0  0  0  0  0  0  0  0  0  0
   26.8554  -19.8819  -17.0038 C   0  0  0  0  0  0  0  0  0  0  0  0
   26.7657  -19.4798  -15.5688 C   0  0  0  0  0  0  0  0  0  0  0  0
   27.6949  -20.2965  -14.7304 C   0  0  2  0  0  0  0  0  0  0  0  0
   28.5583  -21.1490  -15.5257 N   0  0  0  0  0  0  0  0  0  0  0  0
   26.9311  -21.1038  -13.7229 C   0  0  0  0  0  0  0  0  0  0  0  0
   27.4210  -22.1828  -13.3529 O   0  0  0  0  0  0  0  0  0  0  0  0
   23.7192  -17.9296  -19.2324 C   0  0  0  0  0  0  0  0  0  0  0  0
   27.0094  -19.4602   -7.7524 S   0  0  0  0  0  0  0  0  0  0  0  0
   27.3327  -21.1473   -8.3928 C   0  0  0  0  0  0  0  0  0  0  0  0
   26.0057  -21.6168   -9.5572 C   0  0  0  0  0  0  0  0  0  0  0  0
   26.3219  -21.1110  -10.9170 C   0  0  2  0  0  0  0  0  0  0  0  0
   25.1907  -21.2148  -11.9085 N   0  0  0  0  0  0  0  0  0  0  0  0
   25.6781  -20.6842  -13.1795 C   0  0  0  0  0  0  0  0  0  0  0  0
   23.9692  -20.5352  -11.4594 O   0  0  0  0  0  0  0  0  0  0  0  0
   24.0427  -19.3267  -11.1344 N   0  0  0  0  0  0  0  0  0  0  0  0
   21.7672  -22.9081  -15.8838 C   0  0  0  0  0  0  0  0  0  0  0  0
   20.9734  -21.7075  -15.9046 O   0  0  0  0  0  0  0  0  0  0  0  0
   20.2441  -21.5518  -16.8866 C   0  0  0  0  0  0  0  0  0  0  0  0
   21.0917  -20.7901  -14.7938 C   0  0  0  0  0  0  0  0  0  0  0  0
   22.0645  -21.0104  -13.7163 C   0  0  1  0  0  0  0  0  0  0  0  0
   21.6038  -20.8921  -12.3098 N   0  0  0  0  0  0  0  0  0  0  0  0
   22.6988  -21.1558  -11.3682 C   0  0  0  0  0  0  0  0  0  0  0  0
   20.4610  -21.7248  -11.9853 O   0  0  0  0  0  0  0  0  0  0  0  0
   20.5765  -22.8107  -11.1022 O   0  0  0  0  0  0  0  0  0  0  0  0
  1  2  1  0
  2  3  2  0
  4  5  1  0
  4  2  1  0
  6  5  1  0
  7  6  1  0
  8 10  1  0
  8  7  1  0
  8  9  1  6
 10 11  2  0
 13 12  1  0
 13 14  1  0
 15 14  1  0
 16 15  1  6
 17 16  1  0
 17 10  1  0
 18 16  1  0
 18 19  2  0
 20 21  1  0
 21 22  2  0
 23 21  1  0
 23 24  1  0
 25 24  1  6
 25 26  1  0
 25 27  1  0
 26 18  1  0
 27 28  1  0
 29 27  2  0
M  END
$$$$
