RMQ.pdb
     RDKit          3D

 29 28  0  0  1  0  0  0  0  0999 V2000
   25.5523  -22.2177  -19.0018 N   0  0  0  0  0  0  0  0  0  0  0  0
   24.6548  -21.1995  -19.4745 C   0  0  0  0  0  0  0  0  0  0  0  0
   24.5568  -20.9627  -20.7436 N   0  0  0  0  0  0  0  0  0  0  0  0
   23.8613  -20.4399  -18.5798 N   0  0  0  0  0  0  0  0  0  0  0  0
   24.3999  -19.7086  -17.4595 C   0  0  0  0  0  0  0  0  0  0  0  0
   25.4506  -20.5103  -16.7256 C   0  0  0  0  0  0  0  0  0  0  0  0
   25.7227  -20.0084  -15.3462 C   0  0  0  0  0  0  0  0  0  0  0  0
   26.7427  -20.8608  -14.6634 C   0  0  2  0  0  0  0  0  0  0  0  0
   27.2332  -21.9298  -15.5126 N   0  0  0  0  0  0  0  0  0  0  0  0
   26.2018  -21.4089  -13.3761 C   0  0  0  0  0  0  0  0  0  0  0  0
   26.0555  -22.6383  -13.2855 O   0  0  0  0  0  0  0  0  0  0  0  0
   23.9511  -20.2360  -21.1359 C   0  0  0  0  0  0  0  0  0  0  0  0
   28.1323  -20.3413   -7.4942 S   0  0  0  0  0  0  0  0  0  0  0  0
   26.3796  -19.8486   -7.2786 C   0  0  0  0  0  0  0  0  0  0  0  0
   25.3577  -20.6799   -8.5441 C   0  0  0  0  0  0  0  0  0  0  0  0
   25.7714  -20.2384   -9.9001 C   0  0  2  0  0  0  0  0  0  0  0  0
   25.3568  -21.1606  -11.0187 N   0  0  0  0  0  0  0  0  0  0  0  0
   25.8532  -20.5815  -12.2647 C   0  0  0  0  0  0  0  0  0  0  0  0
   23.9086  -21.3986  -11.0598 O   0  0  0  0  0  0  0  0  0  0  0  0
   23.3357  -21.7805  -10.0121 N   0  0  0  0  0  0  0  0  0  0  0  0
   20.1459  -23.6174   -8.7678 C   0  0  0  0  0  0  0  0  0  0  0  0
   19.2105  -23.0418   -9.6983 O   0  0  0  0  0  0  0  0  0  0  0  0
   18.0155  -23.2246   -9.4550 C   0  0  0  0  0  0  0  0  0  0  0  0
   19.7336  -22.3091  -10.8290 C   0  0  0  0  0  0  0  0  0  0  0  0
   21.1758  -22.0977  -11.0062 C   0  0  1  0  0  0  0  0  0  0  0  0
   21.6412  -21.3489  -12.2010 N   0  0  0  0  0  0  0  0  0  0  0  0
   23.1039  -21.2234  -12.2126 C   0  0  0  0  0  0  0  0  0  0  0  0
   21.0313  -20.0423  -12.3600 O   0  0  0  0  0  0  0  0  0  0  0  0
   20.0127  -19.8220  -13.3016 O   0  0  0  0  0  0  0  0  0  0  0  0
  1  2  1  0
  2  3  2  0
  4  5  1  0
  4  2  1  0
  6  5  1  0
  7  6  1  0
  8 10  1  0
  8  7  1  0
  8  9  1  6
 10 11  2  0
 13 12  1  0
 13 14  1  0
 15 14  1  0
 16 15  1  1
 17 16  1  0
 17 10  1  0
 18 16  1  0
 18 19  2  0
 20 21  1  0
 21 22  2  0
 23 21  1  0
 23 24  1  0
 25 24  1  6
 25 26  1  0
 25 27  1  0
 26 18  1  0
 27 28  1  0
 29 27  2  0
M  END
$$$$
