RMQ.pdb
     RDKit          3D

 29 28  0  0  1  0  0  0  0  0999 V2000
   17.4884  -21.4666  -12.5670 N   0  0  0  0  0  0  0  0  0  0  0  0
   17.9449  -22.8260  -12.6632 C   0  0  0  0  0  0  0  0  0  0  0  0
   17.2232  -23.7860  -12.1794 N   0  0  0  0  0  0  0  0  0  0  0  0
   19.1766  -23.1502  -13.2835 N   0  0  0  0  0  0  0  0  0  0  0  0
   20.4634  -22.8035  -12.7321 C   0  0  0  0  0  0  0  0  0  0  0  0
   20.6366  -21.3056  -12.6243 C   0  0  0  0  0  0  0  0  0  0  0  0
   21.9838  -20.8993  -12.1254 C   0  0  0  0  0  0  0  0  0  0  0  0
   23.0576  -21.3810  -13.0464 C   0  0  2  0  0  0  0  0  0  0  0  0
   23.5167  -22.7167  -12.7155 N   0  0  0  0  0  0  0  0  0  0  0  0
   24.2051  -20.4154  -13.0759 C   0  0  0  0  0  0  0  0  0  0  0  0
   24.6449  -20.0042  -11.9902 O   0  0  0  0  0  0  0  0  0  0  0  0
   17.4687  -24.7761  -12.2702 C   0  0  0  0  0  0  0  0  0  0  0  0
   30.5817  -20.9994  -11.3094 S   0  0  0  0  0  0  0  0  0  0  0  0
   29.0279  -21.5842  -12.0871 C   0  0  0  0  0  0  0  0  0  0  0  0
   28.1830  -20.1747  -12.8849 C   0  0  0  0  0  0  0  0  0  0  0  0
   26.9951  -20.6545  -13.6356 C   0  0  2  0  0  0  0  0  0  0  0  0
   26.2130  -19.5738  -14.3383 N   0  0  0  0  0  0  0  0  0  0  0  0
   24.8039  -19.9568  -14.2894 C   0  0  0  0  0  0  0  0  0  0  0  0
   26.6717  -19.3339  -15.7122 O   0  0  0  0  0  0  0  0  0  0  0  0
   26.3214  -20.1376  -16.6082 N   0  0  0  0  0  0  0  0  0  0  0  0
   27.0695  -13.7047  -18.3683 C   0  0  0  0  0  0  0  0  0  0  0  0
   25.9769  -14.5413  -17.9459 O   0  0  0  0  0  0  0  0  0  0  0  0
   24.8729  -13.9982  -17.8641 C   0  0  0  0  0  0  0  0  0  0  0  0
   26.2525  -15.9294  -17.6517 C   0  0  0  0  0  0  0  0  0  0  0  0
   27.6031  -16.4895  -17.7873 C   0  0  2  0  0  0  0  0  0  0  0  0
   27.8045  -17.9324  -17.5006 N   0  0  0  0  0  0  0  0  0  0  0  0
   27.4902  -18.2447  -16.1010 C   0  0  0  0  0  0  0  0  0  0  0  0
   29.1273  -18.4267  -17.8328 O   0  0  0  0  0  0  0  0  0  0  0  0
   29.6267  -18.3515  -19.1433 O   0  0  0  0  0  0  0  0  0  0  0  0
  1  2  1  0
  2  3  2  0
  4  5  1  0
  4  2  1  0
  6  5  1  0
  7  6  1  0
  8 10  1  0
  8  7  1  0
  8  9  1  1
 10 11  2  0
 13 12  1  0
 13 14  1  0
 15 14  1  0
 16 15  1  1
 17 16  1  0
 17 10  1  0
 18 16  1  0
 18 19  2  0
 20 21  1  0
 21 22  2  0
 23 21  1  0
 23 24  1  0
 25 24  1  6
 25 26  1  0
 25 27  1  0
 26 18  1  0
 27 28  1  0
 29 27  2  0
M  END
$$$$
