RMQ.pdb
     RDKit          3D

 29 28  0  0  1  0  0  0  0  0999 V2000
   23.3890  -25.5516  -16.2434 N   0  0  0  0  0  0  0  0  0  0  0  0
   24.5264  -26.2493  -15.7095 C   0  0  0  0  0  0  0  0  0  0  0  0
   24.5693  -27.5427  -15.7510 N   0  0  0  0  0  0  0  0  0  0  0  0
   25.6180  -25.5529  -15.1346 N   0  0  0  0  0  0  0  0  0  0  0  0
   25.8431  -24.1389  -15.3082 C   0  0  0  0  0  0  0  0  0  0  0  0
   24.5445  -23.3649  -15.3054 C   0  0  0  0  0  0  0  0  0  0  0  0
   24.2180  -22.7603  -13.9800 C   0  0  0  0  0  0  0  0  0  0  0  0
   25.3314  -21.8815  -13.5094 C   0  0  2  0  0  0  0  0  0  0  0  0
   25.7502  -22.1907  -12.1553 N   0  0  0  0  0  0  0  0  0  0  0  0
   24.9552  -20.4347  -13.6333 C   0  0  0  0  0  0  0  0  0  0  0  0
   24.0254  -20.0148  -12.9259 O   0  0  0  0  0  0  0  0  0  0  0  0
   25.3998  -28.0871  -15.5007 C   0  0  0  0  0  0  0  0  0  0  0  0
   28.0237  -16.0136  -17.7285 S   0  0  0  0  0  0  0  0  0  0  0  0
   27.6420  -15.1553  -16.1541 C   0  0  0  0  0  0  0  0  0  0  0  0
   26.1711  -15.9218  -15.3886 C   0  0  0  0  0  0  0  0  0  0  0  0
   26.3803  -17.3845  -15.2412 C   0  0  2  0  0  0  0  0  0  0  0  0
   25.2410  -18.1226  -14.5849 N   0  0  0  0  0  0  0  0  0  0  0  0
   25.6170  -19.5330  -14.5222 C   0  0  0  0  0  0  0  0  0  0  0  0
   23.9577  -17.9241  -15.2700 O   0  0  0  0  0  0  0  0  0  0  0  0
   23.7080  -18.6176  -16.2840 N   0  0  0  0  0  0  0  0  0  0  0  0
   18.3783  -17.1767  -12.5767 C   0  0  0  0  0  0  0  0  0  0  0  0
   18.0886  -17.2926  -13.9819 O   0  0  0  0  0  0  0  0  0  0  0  0
   16.9028  -17.4435  -14.2845 C   0  0  0  0  0  0  0  0  0  0  0  0
   19.1906  -17.2276  -14.9150 C   0  0  0  0  0  0  0  0  0  0  0  0
   20.5661  -16.9835  -14.4630 C   0  0  2  0  0  0  0  0  0  0  0  0
   21.6434  -16.9019  -15.4816 N   0  0  0  0  0  0  0  0  0  0  0  0
   22.9701  -16.9946  -14.8600 C   0  0  0  0  0  0  0  0  0  0  0  0
   21.5747  -15.7259  -16.3282 O   0  0  0  0  0  0  0  0  0  0  0  0
   20.7994  -15.7139  -17.4993 O   0  0  0  0  0  0  0  0  0  0  0  0
  1  2  1  0
  2  3  2  0
  4  5  1  0
  4  2  1  0
  6  5  1  0
  7  6  1  0
  8 10  1  0
  8  7  1  0
  8  9  1  1
 10 11  2  0
 13 12  1  0
 13 14  1  0
 15 14  1  0
 16 15  1  1
 17 16  1  0
 17 10  1  0
 18 16  1  0
 18 19  2  0
 20 21  1  0
 21 22  2  0
 23 21  1  0
 23 24  1  0
 25 24  1  6
 25 26  1  0
 25 27  1  0
 26 18  1  0
 27 28  1  0
 29 27  2  0
M  END
$$$$
