RMQ.pdb
     RDKit          3D

 29 28  0  0  1  0  0  0  0  0999 V2000
   29.9552  -22.1612  -18.8551 N   0  0  0  0  0  0  0  0  0  0  0  0
   29.5028  -23.2154  -17.9892 C   0  0  0  0  0  0  0  0  0  0  0  0
   29.9465  -24.4208  -18.1520 N   0  0  0  0  0  0  0  0  0  0  0  0
   28.5756  -22.9694  -16.9467 N   0  0  0  0  0  0  0  0  0  0  0  0
   27.8722  -21.7210  -16.7825 C   0  0  0  0  0  0  0  0  0  0  0  0
   28.7533  -20.6650  -16.1548 C   0  0  0  0  0  0  0  0  0  0  0  0
   28.6445  -20.6104  -14.6669 C   0  0  0  0  0  0  0  0  0  0  0  0
   27.3529  -19.9832  -14.2524 C   0  0  2  0  0  0  0  0  0  0  0  0
   27.4535  -18.5429  -14.1116 N   0  0  0  0  0  0  0  0  0  0  0  0
   26.8403  -20.6074  -12.9884 C   0  0  0  0  0  0  0  0  0  0  0  0
   27.5615  -21.4435  -12.4208 O   0  0  0  0  0  0  0  0  0  0  0  0
   29.6164  -25.2213  -17.6052 C   0  0  0  0  0  0  0  0  0  0  0  0
   27.1358  -20.4279   -5.9366 S   0  0  0  0  0  0  0  0  0  0  0  0
   27.3805  -19.9104   -7.6783 C   0  0  0  0  0  0  0  0  0  0  0  0
   26.0477  -20.6134   -8.7110 C   0  0  0  0  0  0  0  0  0  0  0  0
   26.2921  -20.2943  -10.1405 C   0  0  1  0  0  0  0  0  0  0  0  0
   25.2023  -20.7397  -11.0825 N   0  0  0  0  0  0  0  0  0  0  0  0
   25.5709  -20.2812  -12.4198 C   0  0  0  0  0  0  0  0  0  0  0  0
   23.8706  -20.2665  -10.6849 O   0  0  0  0  0  0  0  0  0  0  0  0
   23.7707  -19.1301  -10.1652 N   0  0  0  0  0  0  0  0  0  0  0  0
   22.1182  -18.4331  -15.2172 C   0  0  0  0  0  0  0  0  0  0  0  0
   22.1499  -19.8708  -15.1536 O   0  0  0  0  0  0  0  0  0  0  0  0
   22.3403  -20.4607  -16.2195 C   0  0  0  0  0  0  0  0  0  0  0  0
   21.9562  -20.5030  -13.8682 C   0  0  0  0  0  0  0  0  0  0  0  0
   21.6826  -19.7162  -12.6591 C   0  0  1  0  0  0  0  0  0  0  0  0
   21.4360  -20.4370  -11.3846 N   0  0  0  0  0  0  0  0  0  0  0  0
   22.6770  -21.0116  -10.8507 C   0  0  0  0  0  0  0  0  0  0  0  0
   20.4124  -21.4615  -11.4682 O   0  0  0  0  0  0  0  0  0  0  0  0
   19.0482  -21.1393  -11.3791 O   0  0  0  0  0  0  0  0  0  0  0  0
  1  2  1  0
  2  3  2  0
  4  5  1  0
  4  2  1  0
  6  5  1  0
  7  6  1  0
  8 10  1  0
  8  7  1  0
  8  9  1  1
 10 11  2  0
 13 12  1  0
 13 14  1  0
 15 14  1  0
 16 15  1  6
 17 16  1  0
 17 10  1  0
 18 16  1  0
 18 19  2  0
 20 21  1  0
 21 22  2  0
 23 21  1  0
 23 24  1  0
 25 24  1  1
 25 26  1  0
 25 27  1  0
 26 18  1  0
 27 28  1  0
 29 27  2  0
M  END
$$$$
