RMQ.pdb
     RDKit          3D

 29 28  0  0  1  0  0  0  0  0999 V2000
   28.2790  -18.3033  -17.9692 N   0  0  0  0  0  0  0  0  0  0  0  0
   27.9724  -17.0309  -17.3753 C   0  0  0  0  0  0  0  0  0  0  0  0
   27.8969  -15.9726  -18.1173 N   0  0  0  0  0  0  0  0  0  0  0  0
   27.7442  -16.9005  -15.9832 N   0  0  0  0  0  0  0  0  0  0  0  0
   27.9624  -17.9656  -15.0355 C   0  0  0  0  0  0  0  0  0  0  0  0
   26.9046  -19.0391  -15.1525 C   0  0  0  0  0  0  0  0  0  0  0  0
   26.3928  -19.5130  -13.8325 C   0  0  0  0  0  0  0  0  0  0  0  0
   27.1315  -20.7322  -13.3842 C   0  0  2  0  0  0  0  0  0  0  0  0
   27.0883  -21.8010  -14.3641 N   0  0  0  0  0  0  0  0  0  0  0  0
   26.6190  -21.2061  -12.0564 C   0  0  0  0  0  0  0  0  0  0  0  0
   25.6566  -21.9902  -12.0528 O   0  0  0  0  0  0  0  0  0  0  0  0
   27.7095  -15.0366  -17.7463 C   0  0  0  0  0  0  0  0  0  0  0  0
   27.1434  -19.8305   -4.2145 S   0  0  0  0  0  0  0  0  0  0  0  0
   27.8576  -19.6587   -5.8943 C   0  0  0  0  0  0  0  0  0  0  0  0
   26.6782  -20.3189   -7.1233 C   0  0  0  0  0  0  0  0  0  0  0  0
   27.2902  -20.2969   -8.4760 C   0  0  2  0  0  0  0  0  0  0  0  0
   26.4087  -20.8304   -9.5769 N   0  0  0  0  0  0  0  0  0  0  0  0
   27.1883  -20.7952  -10.8120 C   0  0  0  0  0  0  0  0  0  0  0  0
   25.1419  -20.0992   -9.7035 O   0  0  0  0  0  0  0  0  0  0  0  0
   25.1612  -18.9540  -10.2131 N   0  0  0  0  0  0  0  0  0  0  0  0
   22.6233  -20.9014  -14.2558 C   0  0  0  0  0  0  0  0  0  0  0  0
   21.3960  -20.5397  -13.5962 O   0  0  0  0  0  0  0  0  0  0  0  0
   20.3950  -20.4576  -14.3115 C   0  0  0  0  0  0  0  0  0  0  0  0
   21.4302  -20.3010  -12.1710 C   0  0  0  0  0  0  0  0  0  0  0  0
   22.6583  -20.4933  -11.3895 C   0  0  1  0  0  0  0  0  0  0  0  0
   22.6166  -20.2349   -9.9280 N   0  0  0  0  0  0  0  0  0  0  0  0
   23.8850  -20.6033   -9.2871 C   0  0  0  0  0  0  0  0  0  0  0  0
   21.5109  -20.8753   -9.2411 O   0  0  0  0  0  0  0  0  0  0  0  0
   21.7311  -21.8441   -8.2485 O   0  0  0  0  0  0  0  0  0  0  0  0
  1  2  1  0
  2  3  2  0
  4  5  1  0
  4  2  1  0
  6  5  1  0
  7  6  1  0
  8 10  1  0
  8  7  1  0
  8  9  1  6
 10 11  2  0
 13 12  1  0
 13 14  1  0
 15 14  1  0
 16 15  1  1
 17 16  1  0
 17 10  1  0
 18 16  1  0
 18 19  2  0
 20 21  1  0
 21 22  2  0
 23 21  1  0
 23 24  1  0
 25 24  1  6
 25 26  1  0
 25 27  1  0
 26 18  1  0
 27 28  1  0
 29 27  2  0
M  END
$$$$
