RMQ.pdb
     RDKit          3D

 29 28  0  0  1  0  0  0  0  0999 V2000
   38.7851  -11.9265  -14.3598 N   0  0  0  0  0  0  0  0  0  0  0  0
   38.7948  -11.0260  -15.4800 C   0  0  0  0  0  0  0  0  0  0  0  0
   39.8626  -10.9041  -16.2020 N   0  0  0  0  0  0  0  0  0  0  0  0
   37.6533  -10.2604  -15.8231 N   0  0  0  0  0  0  0  0  0  0  0  0
   36.3947  -10.3469  -15.1241 C   0  0  0  0  0  0  0  0  0  0  0  0
   35.3588   -9.4267  -15.7286 C   0  0  0  0  0  0  0  0  0  0  0  0
   34.5355  -10.0777  -16.7903 C   0  0  0  0  0  0  0  0  0  0  0  0
   33.4558   -9.1585  -17.2621 C   0  0  2  0  0  0  0  0  0  0  0  0
   33.0387   -8.2184  -16.2390 N   0  0  0  0  0  0  0  0  0  0  0  0
   32.2829   -9.9375  -17.7795 C   0  0  0  0  0  0  0  0  0  0  0  0
   32.4783  -10.7229  -18.7208 O   0  0  0  0  0  0  0  0  0  0  0  0
   39.9443  -10.2427  -16.9797 C   0  0  0  0  0  0  0  0  0  0  0  0
   26.3584  -14.3414  -15.6399 S   0  0  0  0  0  0  0  0  0  0  0  0
   27.5177  -12.9786  -15.2402 C   0  0  0  0  0  0  0  0  0  0  0  0
   28.1322  -12.2330  -16.7905 C   0  0  0  0  0  0  0  0  0  0  0  0
   29.2393  -11.2886  -16.4951 C   0  0  2  0  0  0  0  0  0  0  0  0
   29.8726  -10.6577  -17.7093 N   0  0  0  0  0  0  0  0  0  0  0  0
   30.9667   -9.8121  -17.2378 C   0  0  0  0  0  0  0  0  0  0  0  0
   28.9146   -9.9109  -18.5341 O   0  0  0  0  0  0  0  0  0  0  0  0
   28.7077   -8.7041  -18.2649 N   0  0  0  0  0  0  0  0  0  0  0  0
   29.5013   -8.9175  -24.3453 C   0  0  0  0  0  0  0  0  0  0  0  0
   28.1387   -8.4797  -24.1908 O   0  0  0  0  0  0  0  0  0  0  0  0
   27.6313   -7.9195  -25.1650 C   0  0  0  0  0  0  0  0  0  0  0  0
   27.4814   -8.7226  -22.9266 C   0  0  0  0  0  0  0  0  0  0  0  0
   28.1539   -9.4419  -21.8373 C   0  0  1  0  0  0  0  0  0  0  0  0
   27.4154   -9.6564  -20.5671 N   0  0  0  0  0  0  0  0  0  0  0  0
   28.2011  -10.4640  -19.6259 C   0  0  0  0  0  0  0  0  0  0  0  0
   26.0965  -10.2365  -20.7356 O   0  0  0  0  0  0  0  0  0  0  0  0
   24.9503   -9.4297  -20.8247 O   0  0  0  0  0  0  0  0  0  0  0  0
  1  2  1  0
  2  3  2  0
  4  5  1  0
  4  2  1  0
  6  5  1  0
  7  6  1  0
  8 10  1  0
  8  7  1  0
  8  9  1  1
 10 11  2  0
 13 12  1  0
 13 14  1  0
 15 14  1  0
 16 15  1  6
 17 16  1  0
 17 10  1  0
 18 16  1  0
 18 19  2  0
 20 21  1  0
 21 22  2  0
 23 21  1  0
 23 24  1  0
 25 24  1  1
 25 26  1  0
 25 27  1  0
 26 18  1  0
 27 28  1  0
 29 27  2  0
M  END
$$$$
