RMQ.pdb
     RDKit          3D

 29 28  0  0  1  0  0  0  0  0999 V2000
   15.5856   -7.1052  -18.6229 N   0  0  0  0  0  0  0  0  0  0  0  0
   16.1360   -8.1826  -19.3988 C   0  0  0  0  0  0  0  0  0  0  0  0
   15.5635   -8.5422  -20.5029 N   0  0  0  0  0  0  0  0  0  0  0  0
   17.3044   -8.8692  -18.9860 N   0  0  0  0  0  0  0  0  0  0  0  0
   17.5157   -9.3485  -17.6423 C   0  0  0  0  0  0  0  0  0  0  0  0
   16.2497   -9.2724  -16.8195 C   0  0  0  0  0  0  0  0  0  0  0  0
   16.4041   -9.8269  -15.4420 C   0  0  0  0  0  0  0  0  0  0  0  0
   17.8481  -10.0083  -15.1023 C   0  0  2  0  0  0  0  0  0  0  0  0
   18.3412  -11.3266  -15.4537 N   0  0  0  0  0  0  0  0  0  0  0  0
   18.0934   -9.7172  -13.6514 C   0  0  0  0  0  0  0  0  0  0  0  0
   18.0537  -10.6683  -12.8545 O   0  0  0  0  0  0  0  0  0  0  0  0
   15.9135   -9.2980  -21.0988 C   0  0  0  0  0  0  0  0  0  0  0  0
   22.6936   -6.5344   -8.4354 S   0  0  0  0  0  0  0  0  0  0  0  0
   22.1479   -6.7555  -10.1717 C   0  0  0  0  0  0  0  0  0  0  0  0
   20.4401   -7.4036  -10.1910 C   0  0  0  0  0  0  0  0  0  0  0  0
   20.0204   -7.6853  -11.5872 C   0  0  2  0  0  0  0  0  0  0  0  0
   18.5992   -8.1666  -11.7348 N   0  0  0  0  0  0  0  0  0  0  0  0
   18.3676   -8.4048  -13.1575 C   0  0  0  0  0  0  0  0  0  0  0  0
   17.6160   -7.2375  -11.1641 O   0  0  0  0  0  0  0  0  0  0  0  0
   17.3527   -6.1855  -11.7929 N   0  0  0  0  0  0  0  0  0  0  0  0
   12.8286   -8.5309   -7.0510 C   0  0  0  0  0  0  0  0  0  0  0  0
   12.8706   -7.0925   -7.0884 O   0  0  0  0  0  0  0  0  0  0  0  0
   12.0165   -6.5036   -6.4221 C   0  0  0  0  0  0  0  0  0  0  0  0
   13.8908   -6.4588   -7.8927 C   0  0  0  0  0  0  0  0  0  0  0  0
   14.9187   -7.2441   -8.5875 C   0  0  1  0  0  0  0  0  0  0  0  0
   15.9257   -6.5255   -9.4086 N   0  0  0  0  0  0  0  0  0  0  0  0
   16.9351   -7.4497   -9.9399 C   0  0  0  0  0  0  0  0  0  0  0  0
   16.5753   -5.4234   -8.7246 O   0  0  0  0  0  0  0  0  0  0  0  0
   16.0187   -4.1339   -8.7259 O   0  0  0  0  0  0  0  0  0  0  0  0
  1  2  1  0
  2  3  2  0
  4  5  1  0
  4  2  1  0
  6  5  1  0
  7  6  1  0
  8 10  1  0
  8  7  1  0
  8  9  1  1
 10 11  2  0
 13 12  1  0
 13 14  1  0
 15 14  1  0
 16 15  1  1
 17 16  1  0
 17 10  1  0
 18 16  1  0
 18 19  2  0
 20 21  1  0
 21 22  2  0
 23 21  1  0
 23 24  1  0
 25 24  1  6
 25 26  1  0
 25 27  1  0
 26 18  1  0
 27 28  1  0
 29 27  2  0
M  END
$$$$
