RMQ.pdb
     RDKit          3D

 29 28  0  0  1  0  0  0  0  0999 V2000
   20.7788  -16.1030  -18.8972 N   0  0  0  0  0  0  0  0  0  0  0  0
   19.4881  -16.5164  -18.4190 C   0  0  0  0  0  0  0  0  0  0  0  0
   18.9379  -17.5899  -18.8894 N   0  0  0  0  0  0  0  0  0  0  0  0
   18.7930  -15.7749  -17.4321 N   0  0  0  0  0  0  0  0  0  0  0  0
   19.0237  -14.3744  -17.1763 C   0  0  0  0  0  0  0  0  0  0  0  0
   20.0724  -14.1702  -16.1068 C   0  0  0  0  0  0  0  0  0  0  0  0
   20.2422  -12.7413  -15.7086 C   0  0  0  0  0  0  0  0  0  0  0  0
   21.1056  -12.0166  -16.6898 C   0  0  2  0  0  0  0  0  0  0  0  0
   21.8268  -12.9178  -17.5685 N   0  0  0  0  0  0  0  0  0  0  0  0
   22.0515  -11.0911  -15.9834 C   0  0  0  0  0  0  0  0  0  0  0  0
   21.5836  -10.3331  -15.1188 O   0  0  0  0  0  0  0  0  0  0  0  0
   18.0089  -17.9164  -18.6081 C   0  0  0  0  0  0  0  0  0  0  0  0
   28.7394  -10.7567  -16.2798 S   0  0  0  0  0  0  0  0  0  0  0  0
   27.8333  -12.2516  -15.7271 C   0  0  0  0  0  0  0  0  0  0  0  0
   26.1499  -11.7778  -15.1993 C   0  0  0  0  0  0  0  0  0  0  0  0
   25.7472  -10.5127  -15.8644 C   0  0  2  0  0  0  0  0  0  0  0  0
   24.3259  -10.0846  -15.5999 N   0  0  0  0  0  0  0  0  0  0  0  0
   23.4519  -11.0490  -16.2636 C   0  0  0  0  0  0  0  0  0  0  0  0
   24.0521   -8.7069  -16.0274 O   0  0  0  0  0  0  0  0  0  0  0  0
   24.2430   -8.4049  -17.2290 N   0  0  0  0  0  0  0  0  0  0  0  0
   19.6995   -6.7993  -18.4067 C   0  0  0  0  0  0  0  0  0  0  0  0
   20.1300   -5.4869  -18.0013 O   0  0  0  0  0  0  0  0  0  0  0  0
   19.4754   -4.5380  -18.4390 C   0  0  0  0  0  0  0  0  0  0  0  0
   21.2785   -5.3826  -17.1300 C   0  0  0  0  0  0  0  0  0  0  0  0
   21.9564   -6.5755  -16.6071 C   0  0  1  0  0  0  0  0  0  0  0  0
   23.0789   -6.3922  -15.6526 N   0  0  0  0  0  0  0  0  0  0  0  0
   23.5804   -7.6840  -15.1680 C   0  0  0  0  0  0  0  0  0  0  0  0
   22.7700   -5.5283  -14.5288 O   0  0  0  0  0  0  0  0  0  0  0  0
   22.2673   -6.0485  -13.3249 O   0  0  0  0  0  0  0  0  0  0  0  0
  1  2  1  0
  2  3  2  0
  4  5  1  0
  4  2  1  0
  6  5  1  0
  7  6  1  0
  8 10  1  0
  8  7  1  0
  8  9  1  1
 10 11  2  0
 13 12  1  0
 13 14  1  0
 15 14  1  0
 16 15  1  1
 17 16  1  0
 17 10  1  0
 18 16  1  0
 18 19  2  0
 20 21  1  0
 21 22  2  0
 23 21  1  0
 23 24  1  0
 25 24  1  6
 25 26  1  0
 25 27  1  0
 26 18  1  0
 27 28  1  0
 29 27  2  0
M  END
$$$$
