RMQ.pdb
     RDKit          3D

 29 28  0  0  1  0  0  0  0  0999 V2000
   10.6450  -20.0370   -1.9378 N   0  0  0  0  0  0  0  0  0  0  0  0
   11.0668  -21.2564   -2.5707 C   0  0  0  0  0  0  0  0  0  0  0  0
   10.4356  -21.6960   -3.6122 N   0  0  0  0  0  0  0  0  0  0  0  0
   12.1702  -21.9993   -2.0831 N   0  0  0  0  0  0  0  0  0  0  0  0
   12.5677  -22.0208   -0.6969 C   0  0  0  0  0  0  0  0  0  0  0  0
   13.8112  -22.8547   -0.4881 C   0  0  0  0  0  0  0  0  0  0  0  0
   14.6508  -22.3905    0.6558 C   0  0  0  0  0  0  0  0  0  0  0  0
   15.4816  -21.2131    0.2600 C   0  0  2  0  0  0  0  0  0  0  0  0
   16.1196  -21.3906   -1.0307 N   0  0  0  0  0  0  0  0  0  0  0  0
   16.4981  -20.9001    1.3179 C   0  0  0  0  0  0  0  0  0  0  0  0
   16.7459  -21.7768    2.1612 O   0  0  0  0  0  0  0  0  0  0  0  0
   10.7436  -22.5067   -4.1570 C   0  0  0  0  0  0  0  0  0  0  0  0
   21.8947  -17.3924    0.3909 S   0  0  0  0  0  0  0  0  0  0  0  0
   21.2825  -16.6905    1.9700 C   0  0  0  0  0  0  0  0  0  0  0  0
   20.1954  -17.9071    2.7916 C   0  0  0  0  0  0  0  0  0  0  0  0
   19.1784  -18.4075    1.8323 C   0  0  1  0  0  0  0  0  0  0  0  0
   18.2052  -19.4056    2.4068 N   0  0  0  0  0  0  0  0  0  0  0  0
   17.1831  -19.6484    1.3914 C   0  0  0  0  0  0  0  0  0  0  0  0
   17.6228  -18.9711    3.6825 O   0  0  0  0  0  0  0  0  0  0  0  0
   16.6358  -18.1986    3.6566 N   0  0  0  0  0  0  0  0  0  0  0  0
   18.6587  -21.4142    9.6323 C   0  0  0  0  0  0  0  0  0  0  0  0
   17.6245  -20.4265    9.7966 O   0  0  0  0  0  0  0  0  0  0  0  0
   17.1380  -20.3277   10.9253 C   0  0  0  0  0  0  0  0  0  0  0  0
   17.2391  -19.6417    8.6456 C   0  0  0  0  0  0  0  0  0  0  0  0
   17.8512  -19.8586    7.3286 C   0  0  2  0  0  0  0  0  0  0  0  0
   17.4858  -18.9439    6.2175 N   0  0  0  0  0  0  0  0  0  0  0  0
   18.1022  -19.3694    4.9549 C   0  0  0  0  0  0  0  0  0  0  0  0
   17.7896  -17.5482    6.4707 O   0  0  0  0  0  0  0  0  0  0  0  0
   16.8415  -16.6881    7.0485 O   0  0  0  0  0  0  0  0  0  0  0  0
  1  2  1  0
  2  3  2  0
  4  5  1  0
  4  2  1  0
  6  5  1  0
  7  6  1  0
  8 10  1  0
  8  7  1  0
  8  9  1  6
 10 11  2  0
 13 12  1  0
 13 14  1  0
 15 14  1  0
 16 15  1  6
 17 16  1  0
 17 10  1  0
 18 16  1  0
 18 19  2  0
 20 21  1  0
 21 22  2  0
 23 21  1  0
 23 24  1  0
 25 24  1  6
 25 26  1  0
 25 27  1  0
 26 18  1  0
 27 28  1  0
 29 27  2  0
M  END
$$$$
