RMQ.pdb
     RDKit          3D

 29 28  0  0  1  0  0  0  0  0999 V2000
   25.6667  -19.8083  -20.2069 N   0  0  0  0  0  0  0  0  0  0  0  0
   26.0075  -18.6512  -20.9883 C   0  0  0  0  0  0  0  0  0  0  0  0
   27.0443  -18.6770  -21.7633 N   0  0  0  0  0  0  0  0  0  0  0  0
   25.2291  -17.4686  -20.9364 N   0  0  0  0  0  0  0  0  0  0  0  0
   24.9900  -16.7231  -19.7251 C   0  0  0  0  0  0  0  0  0  0  0  0
   23.7686  -17.2299  -18.9925 C   0  0  0  0  0  0  0  0  0  0  0  0
   23.4726  -16.4734  -17.7400 C   0  0  0  0  0  0  0  0  0  0  0  0
   24.7040  -16.3256  -16.9063 C   0  0  2  0  0  0  0  0  0  0  0  0
   24.8153  -17.3554  -15.8905 N   0  0  0  0  0  0  0  0  0  0  0  0
   24.7676  -14.9598  -16.2893 C   0  0  0  0  0  0  0  0  0  0  0  0
   24.0780  -14.7474  -15.2791 O   0  0  0  0  0  0  0  0  0  0  0  0
   27.3356  -17.8832  -22.3411 C   0  0  0  0  0  0  0  0  0  0  0  0
   29.4723  -11.0734  -17.8741 S   0  0  0  0  0  0  0  0  0  0  0  0
   28.8903  -10.0608  -16.4609 C   0  0  0  0  0  0  0  0  0  0  0  0
   27.2641  -10.6785  -15.9033 C   0  0  0  0  0  0  0  0  0  0  0  0
   27.0302  -12.0442  -16.4373 C   0  0  1  0  0  0  0  0  0  0  0  0
   25.6665  -12.6141  -16.1392 N   0  0  0  0  0  0  0  0  0  0  0  0
   25.5805  -13.9078  -16.8125 C   0  0  0  0  0  0  0  0  0  0  0  0
   24.5714  -11.7165  -16.5276 O   0  0  0  0  0  0  0  0  0  0  0  0
   24.1922  -11.7186  -17.7225 N   0  0  0  0  0  0  0  0  0  0  0  0
   20.4513   -8.5615  -12.6115 C   0  0  0  0  0  0  0  0  0  0  0  0
   20.9145   -7.6196  -13.5966 O   0  0  0  0  0  0  0  0  0  0  0  0
   20.5773   -6.4452  -13.4305 C   0  0  0  0  0  0  0  0  0  0  0  0
   21.7227   -8.1137  -14.6884 C   0  0  0  0  0  0  0  0  0  0  0  0
   21.9919   -9.5473  -14.8567 C   0  0  1  0  0  0  0  0  0  0  0  0
   22.7784   -9.9874  -16.0368 N   0  0  0  0  0  0  0  0  0  0  0  0
   23.9048  -10.8396  -15.6365 C   0  0  0  0  0  0  0  0  0  0  0  0
   23.2524   -8.9023  -16.8749 O   0  0  0  0  0  0  0  0  0  0  0  0
   24.5202   -8.3302  -16.6805 O   0  0  0  0  0  0  0  0  0  0  0  0
  1  2  1  0
  2  3  2  0
  4  5  1  0
  4  2  1  0
  6  5  1  0
  7  6  1  0
  8 10  1  0
  8  7  1  0
  8  9  1  1
 10 11  2  0
 13 12  1  0
 13 14  1  0
 15 14  1  0
 16 15  1  1
 17 16  1  0
 17 10  1  0
 18 16  1  0
 18 19  2  0
 20 21  1  0
 21 22  2  0
 23 21  1  0
 23 24  1  0
 25 24  1  6
 25 26  1  0
 25 27  1  0
 26 18  1  0
 27 28  1  0
 29 27  2  0
M  END
$$$$
