IPR.pdb
     RDKit          3D

 27 27  0  0  1  0  0  0  0  0999 V2000
   26.1061  -14.0420  -16.9656 C   0  0  0  0  0  0  0  0  0  0  0  0
   27.0834  -15.1540  -16.9965 C   0  0  0  0  0  0  0  0  0  0  0  0
   26.5204  -16.4226  -16.4269 C   0  0  2  0  0  0  0  0  0  0  0  0
   26.3651  -16.2619  -14.9005 C   0  0  0  0  0  0  0  0  0  0  0  0
   27.4730  -17.5711  -16.6528 C   0  0  2  0  0  0  0  0  0  0  0  0
   27.8734  -17.6438  -18.0104 N   0  0  0  0  0  0  0  0  0  0  0  0
   26.9607  -18.8430  -16.0849 C   0  0  0  0  0  0  0  0  0  0  0  0
   26.2290  -19.5065  -16.9266 O   0  0  0  0  0  0  0  0  0  0  0  0
   27.1962  -19.3270  -14.8127 N   0  0  0  0  0  0  0  0  0  0  0  0
   27.8867  -18.8145  -13.6916 C   0  0  0  0  0  0  0  0  0  0  0  0
   28.8248  -20.0001  -13.3897 C   0  0  0  0  0  0  0  0  0  0  0  0
   27.8906  -21.1641  -13.6388 C   0  0  0  0  0  0  0  0  0  0  0  0
   26.6709  -20.6139  -14.3352 C   0  0  1  0  0  0  0  0  0  0  0  0
   25.5004  -20.4552  -13.4538 C   0  0  0  0  0  0  0  0  0  0  0  0
   25.4131  -19.4824  -12.6929 O   0  0  0  0  0  0  0  0  0  0  0  0
   18.0231  -23.0388  -14.2657 N   0  0  0  0  0  0  0  0  0  0  0  0
   17.6706  -22.0842  -13.2892 C   0  0  0  0  0  0  0  0  0  0  0  0
   16.4545  -22.0066  -12.8899 N   0  0  0  0  0  0  0  0  0  0  0  0
   18.6788  -21.2314  -12.7719 N   0  0  0  0  0  0  0  0  0  0  0  0
   19.9892  -21.2814  -13.3404 C   0  0  0  0  0  0  0  0  0  0  0  0
   20.9094  -22.2609  -12.6116 C   0  0  0  0  0  0  0  0  0  0  0  0
   22.2243  -22.2640  -13.3225 C   0  0  0  0  0  0  0  0  0  0  0  0
   23.1995  -21.2588  -12.7650 C   0  0  2  0  0  0  0  0  0  0  0  0
   24.4466  -21.3971  -13.4453 N   0  0  0  0  0  0  0  0  0  0  0  0
   23.4256  -21.6019  -11.3204 C   0  0  0  0  0  0  0  0  0  0  0  0
   22.6548  -21.0562  -10.3160 O   0  0  0  0  0  0  0  0  0  0  0  0
   24.3368  -22.4060  -10.9968 O   0  0  0  0  0  0  0  0  0  0  0  0
  1  2  1  0
  3  2  1  0
  3  5  1  0
  3  4  1  1
  5  7  1  0
  5  6  1  6
  7  8  2  0
  9 13  1  0
  9  7  1  0
 10  9  1  0
 11 12  1  0
 11 10  1  0
 12 13  1  0
 13 14  1  1
 14 15  2  0
 16 17  1  0
 17 19  1  0
 17 18  2  0
 19 20  1  0
 20 21  1  0
 21 22  1  0
 23 22  1  6
 23 25  1  0
 24 23  1  0
 24 14  1  0
 25 27  2  0
 25 26  1  0
M  END
$$$$
