IPR.pdb
     RDKit          3D

 27 27  0  0  1  0  0  0  0  0999 V2000
   23.2890  -20.3777  -17.6063 C   0  0  0  0  0  0  0  0  0  0  0  0
   24.2521  -21.3464  -17.0348 C   0  0  0  0  0  0  0  0  0  0  0  0
   25.6001  -20.7337  -16.7933 C   0  0  2  0  0  0  0  0  0  0  0  0
   26.2756  -20.4555  -18.1521 C   0  0  0  0  0  0  0  0  0  0  0  0
   26.4919  -21.6968  -16.0486 C   0  0  2  0  0  0  0  0  0  0  0  0
   26.7268  -22.8691  -16.8098 N   0  0  0  0  0  0  0  0  0  0  0  0
   26.0208  -21.9377  -14.6620 C   0  0  0  0  0  0  0  0  0  0  0  0
   25.6907  -23.1756  -14.4551 O   0  0  0  0  0  0  0  0  0  0  0  0
   25.9192  -20.9975  -13.6552 N   0  0  0  0  0  0  0  0  0  0  0  0
   26.1835  -19.6110  -13.5916 C   0  0  0  0  0  0  0  0  0  0  0  0
   27.1147  -19.5718  -12.3634 C   0  0  0  0  0  0  0  0  0  0  0  0
   26.4319  -20.5797  -11.4648 C   0  0  0  0  0  0  0  0  0  0  0  0
   25.4216  -21.3155  -12.3093 C   0  0  1  0  0  0  0  0  0  0  0  0
   24.0318  -20.8716  -12.1004 C   0  0  0  0  0  0  0  0  0  0  0  0
   23.5460  -19.9741  -12.8013 O   0  0  0  0  0  0  0  0  0  0  0  0
   18.4836  -24.1843   -6.1444 N   0  0  0  0  0  0  0  0  0  0  0  0
   17.5894  -23.8959   -7.1963 C   0  0  0  0  0  0  0  0  0  0  0  0
   16.3589  -24.2416   -7.0937 N   0  0  0  0  0  0  0  0  0  0  0  0
   18.0801  -23.2258   -8.3459 N   0  0  0  0  0  0  0  0  0  0  0  0
   19.4822  -22.9704   -8.4550 C   0  0  0  0  0  0  0  0  0  0  0  0
   19.8329  -22.1292   -9.6824 C   0  0  0  0  0  0  0  0  0  0  0  0
   21.3231  -22.0635   -9.7778 C   0  0  0  0  0  0  0  0  0  0  0  0
   21.8046  -21.2607  -10.9592 C   0  0  2  0  0  0  0  0  0  0  0  0
   23.2122  -21.4481  -11.1037 N   0  0  0  0  0  0  0  0  0  0  0  0
   21.5653  -19.8110  -10.6479 C   0  0  0  0  0  0  0  0  0  0  0  0
   20.3537  -19.2047  -10.9028 O   0  0  0  0  0  0  0  0  0  0  0  0
   22.4812  -19.1138  -10.1411 O   0  0  0  0  0  0  0  0  0  0  0  0
  1  2  1  0
  3  2  1  0
  3  5  1  0
  3  4  1  6
  5  7  1  0
  5  6  1  6
  7  8  2  0
  9 13  1  0
  9  7  1  0
 10  9  1  0
 11 12  1  0
 11 10  1  0
 12 13  1  0
 13 14  1  6
 14 15  2  0
 16 17  1  0
 17 19  1  0
 17 18  2  0
 19 20  1  0
 20 21  1  0
 21 22  1  0
 23 22  1  1
 23 25  1  0
 24 23  1  0
 24 14  1  0
 25 27  2  0
 25 26  1  0
M  END
$$$$
