IPR.pdb
     RDKit          3D

 27 27  0  0  1  0  0  0  0  0999 V2000
   19.8672  -19.8161  -17.3208 C   0  0  0  0  0  0  0  0  0  0  0  0
   21.0452  -19.0276  -17.7491 C   0  0  0  0  0  0  0  0  0  0  0  0
   22.2802  -19.3831  -16.9750 C   0  0  2  0  0  0  0  0  0  0  0  0
   22.0326  -19.1025  -15.4785 C   0  0  0  0  0  0  0  0  0  0  0  0
   23.4378  -18.5129  -17.3993 C   0  0  2  0  0  0  0  0  0  0  0  0
   23.5791  -18.5017  -18.8095 N   0  0  0  0  0  0  0  0  0  0  0  0
   24.6796  -18.8293  -16.6507 C   0  0  0  0  0  0  0  0  0  0  0  0
   25.3349  -19.8227  -17.1683 O   0  0  0  0  0  0  0  0  0  0  0  0
   25.1451  -18.1817  -15.5229 N   0  0  0  0  0  0  0  0  0  0  0  0
   24.6137  -17.1645  -14.6987 C   0  0  0  0  0  0  0  0  0  0  0  0
   25.7897  -16.1677  -14.7114 C   0  0  0  0  0  0  0  0  0  0  0  0
   26.9623  -17.1202  -14.6249 C   0  0  0  0  0  0  0  0  0  0  0  0
   26.4285  -18.5069  -14.8846 C   0  0  1  0  0  0  0  0  0  0  0  0
   26.2647  -19.3217  -13.6675 C   0  0  0  0  0  0  0  0  0  0  0  0
   25.1859  -19.3353  -13.0601 O   0  0  0  0  0  0  0  0  0  0  0  0
   32.9844  -22.4169   -9.3521 N   0  0  0  0  0  0  0  0  0  0  0  0
   32.2108  -22.3091  -10.5265 C   0  0  0  0  0  0  0  0  0  0  0  0
   32.5647  -22.9510  -11.5787 N   0  0  0  0  0  0  0  0  0  0  0  0
   31.0543  -21.4885  -10.5101 N   0  0  0  0  0  0  0  0  0  0  0  0
   30.0522  -21.7208   -9.5176 C   0  0  0  0  0  0  0  0  0  0  0  0
   28.6479  -21.8241  -10.1129 C   0  0  0  0  0  0  0  0  0  0  0  0
   28.6166  -20.9881  -11.3515 C   0  0  0  0  0  0  0  0  0  0  0  0
   27.2602  -20.9556  -12.0082 C   0  0  2  0  0  0  0  0  0  0  0  0
   27.3212  -20.1084  -13.1553 N   0  0  0  0  0  0  0  0  0  0  0  0
   26.3006  -20.3368  -11.0325 C   0  0  0  0  0  0  0  0  0  0  0  0
   25.4347  -21.1029  -10.2816 O   0  0  0  0  0  0  0  0  0  0  0  0
   26.2700  -19.0887  -10.8813 O   0  0  0  0  0  0  0  0  0  0  0  0
  1  2  1  0
  3  2  1  0
  3  5  1  0
  3  4  1  1
  5  7  1  0
  5  6  1  6
  7  8  2  0
  9 13  1  0
  9  7  1  0
 10  9  1  0
 11 12  1  0
 11 10  1  0
 12 13  1  0
 13 14  1  1
 14 15  2  0
 16 17  1  0
 17 19  1  0
 17 18  2  0
 19 20  1  0
 20 21  1  0
 21 22  1  0
 23 22  1  1
 23 25  1  0
 24 23  1  0
 24 14  1  0
 25 27  2  0
 25 26  1  0
M  END
$$$$
