IPR.pdb
     RDKit          3D

 27 27  0  0  1  0  0  0  0  0999 V2000
   29.1038  -19.9854   -4.8809 C   0  0  0  0  0  0  0  0  0  0  0  0
   27.6780  -19.6143   -4.7320 C   0  0  0  0  0  0  0  0  0  0  0  0
   26.8691  -19.9637   -5.9462 C   0  0  2  0  0  0  0  0  0  0  0  0
   27.0847  -21.4541   -6.2811 C   0  0  0  0  0  0  0  0  0  0  0  0
   27.3418  -19.1723   -7.1410 C   0  0  2  0  0  0  0  0  0  0  0  0
   27.5390  -17.8094   -6.8061 N   0  0  0  0  0  0  0  0  0  0  0  0
   26.4939  -19.4041   -8.3369 C   0  0  0  0  0  0  0  0  0  0  0  0
   25.4785  -18.5979   -8.3925 O   0  0  0  0  0  0  0  0  0  0  0  0
   26.7024  -20.3529   -9.3189 N   0  0  0  0  0  0  0  0  0  0  0  0
   27.6352  -21.4032   -9.4715 C   0  0  0  0  0  0  0  0  0  0  0  0
   28.1831  -21.0732  -10.8743 C   0  0  0  0  0  0  0  0  0  0  0  0
   26.9110  -20.6527  -11.5776 C   0  0  0  0  0  0  0  0  0  0  0  0
   25.8564  -20.4669  -10.5153 C   0  0  1  0  0  0  0  0  0  0  0  0
   24.8963  -21.5815  -10.4252 C   0  0  0  0  0  0  0  0  0  0  0  0
   25.2899  -22.7345  -10.2055 O   0  0  0  0  0  0  0  0  0  0  0  0
   17.5566  -22.7611   -7.6620 N   0  0  0  0  0  0  0  0  0  0  0  0
   17.9489  -24.1135   -7.7430 C   0  0  0  0  0  0  0  0  0  0  0  0
   17.0566  -25.0340   -7.7149 N   0  0  0  0  0  0  0  0  0  0  0  0
   19.3292  -24.4191   -7.8549 N   0  0  0  0  0  0  0  0  0  0  0  0
   20.2631  -23.3536   -8.0434 C   0  0  0  0  0  0  0  0  0  0  0  0
   20.2356  -22.7922   -9.4651 C   0  0  0  0  0  0  0  0  0  0  0  0
   21.3806  -21.8408   -9.6003 C   0  0  0  0  0  0  0  0  0  0  0  0
   22.4908  -22.3726  -10.4701 C   0  0  2  0  0  0  0  0  0  0  0  0
   23.5070  -21.3768  -10.5844 N   0  0  0  0  0  0  0  0  0  0  0  0
   21.9202  -22.6038  -11.8401 C   0  0  0  0  0  0  0  0  0  0  0  0
   21.2175  -23.7487  -12.1494 O   0  0  0  0  0  0  0  0  0  0  0  0
   22.0762  -21.7427  -12.7433 O   0  0  0  0  0  0  0  0  0  0  0  0
  1  2  1  0
  3  2  1  0
  3  5  1  0
  3  4  1  6
  5  7  1  0
  5  6  1  1
  7  8  2  0
  9 13  1  0
  9  7  1  0
 10  9  1  0
 11 12  1  0
 11 10  1  0
 12 13  1  0
 13 14  1  1
 14 15  2  0
 16 17  1  0
 17 19  1  0
 17 18  2  0
 19 20  1  0
 20 21  1  0
 21 22  1  0
 23 22  1  1
 23 25  1  0
 24 23  1  0
 24 14  1  0
 25 27  2  0
 25 26  1  0
M  END
$$$$
