IPR.pdb
     RDKit          3D

 27 27  0  0  1  0  0  0  0  0999 V2000
   26.1833  -25.7429  -19.2545 C   0  0  0  0  0  0  0  0  0  0  0  0
   26.6183  -24.3551  -18.9759 C   0  0  0  0  0  0  0  0  0  0  0  0
   25.7026  -23.6532  -18.0169 C   0  0  2  0  0  0  0  0  0  0  0  0
   24.2817  -23.6149  -18.6166 C   0  0  0  0  0  0  0  0  0  0  0  0
   26.1369  -22.2208  -17.8248 C   0  0  2  0  0  0  0  0  0  0  0  0
   27.5108  -22.1442  -17.4855 N   0  0  0  0  0  0  0  0  0  0  0  0
   25.2281  -21.4774  -16.9170 C   0  0  0  0  0  0  0  0  0  0  0  0
   25.5487  -21.6155  -15.6671 O   0  0  0  0  0  0  0  0  0  0  0  0
   24.1445  -20.7070  -17.2916 N   0  0  0  0  0  0  0  0  0  0  0  0
   23.4901  -20.4862  -18.5242 C   0  0  0  0  0  0  0  0  0  0  0  0
   23.5128  -18.9452  -18.5674 C   0  0  0  0  0  0  0  0  0  0  0  0
   23.2173  -18.6224  -17.1189 C   0  0  0  0  0  0  0  0  0  0  0  0
   23.3641  -19.9050  -16.3388 C   0  0  1  0  0  0  0  0  0  0  0  0
   22.0815  -20.5382  -15.9834 C   0  0  0  0  0  0  0  0  0  0  0  0
   21.4665  -21.2217  -16.8124 O   0  0  0  0  0  0  0  0  0  0  0  0
   24.4862  -20.3100   -9.6851 N   0  0  0  0  0  0  0  0  0  0  0  0
   24.8722  -21.1553  -10.7460 C   0  0  0  0  0  0  0  0  0  0  0  0
   26.1093  -21.4571  -10.8969 N   0  0  0  0  0  0  0  0  0  0  0  0
   23.8736  -21.6521  -11.6220 N   0  0  0  0  0  0  0  0  0  0  0  0
   22.5019  -21.3566  -11.3497 C   0  0  0  0  0  0  0  0  0  0  0  0
   21.5428  -22.1311  -12.2538 C   0  0  0  0  0  0  0  0  0  0  0  0
   20.4745  -21.1853  -12.6994 C   0  0  0  0  0  0  0  0  0  0  0  0
   20.3675  -21.0793  -14.1992 C   0  0  2  0  0  0  0  0  0  0  0  0
   21.5136  -20.3900  -14.6977 N   0  0  0  0  0  0  0  0  0  0  0  0
   19.1595  -20.2418  -14.5078 C   0  0  0  0  0  0  0  0  0  0  0  0
   17.8829  -20.7583  -14.4429 O   0  0  0  0  0  0  0  0  0  0  0  0
   19.2940  -19.0353  -14.8360 O   0  0  0  0  0  0  0  0  0  0  0  0
  1  2  1  0
  3  2  1  0
  3  5  1  0
  3  4  1  6
  5  7  1  0
  5  6  1  1
  7  8  2  0
  9 13  1  0
  9  7  1  0
 10  9  1  0
 11 12  1  0
 11 10  1  0
 12 13  1  0
 13 14  1  6
 14 15  2  0
 16 17  1  0
 17 19  1  0
 17 18  2  0
 19 20  1  0
 20 21  1  0
 21 22  1  0
 23 22  1  1
 23 25  1  0
 24 23  1  0
 24 14  1  0
 25 27  2  0
 25 26  1  0
M  END
$$$$
