IPR.pdb
     RDKit          3D

 27 27  0  0  1  0  0  0  0  0999 V2000
   23.7583  -13.0905  -15.8245 C   0  0  0  0  0  0  0  0  0  0  0  0
   24.3848  -14.1422  -16.6576 C   0  0  0  0  0  0  0  0  0  0  0  0
   24.5587  -15.4316  -15.9107 C   0  0  2  0  0  0  0  0  0  0  0  0
   25.6394  -15.2418  -14.8264 C   0  0  0  0  0  0  0  0  0  0  0  0
   25.0519  -16.5159  -16.8373 C   0  0  2  0  0  0  0  0  0  0  0  0
   24.2258  -16.6237  -17.9838 N   0  0  0  0  0  0  0  0  0  0  0  0
   25.2971  -17.7936  -16.1231 C   0  0  0  0  0  0  0  0  0  0  0  0
   24.2327  -18.5312  -16.0403 O   0  0  0  0  0  0  0  0  0  0  0  0
   26.4966  -18.2137  -15.5818 N   0  0  0  0  0  0  0  0  0  0  0  0
   27.7612  -17.6018  -15.4321 C   0  0  0  0  0  0  0  0  0  0  0  0
   28.6577  -18.6782  -16.0763 C   0  0  0  0  0  0  0  0  0  0  0  0
   28.0018  -19.9366  -15.5510 C   0  0  0  0  0  0  0  0  0  0  0  0
   26.6755  -19.5320  -14.9572 C   0  0  1  0  0  0  0  0  0  0  0  0
   26.6756  -19.4652  -13.4849 C   0  0  0  0  0  0  0  0  0  0  0  0
   27.3938  -18.6494  -12.8923 O   0  0  0  0  0  0  0  0  0  0  0  0
   19.2842  -19.4764  -10.7075 N   0  0  0  0  0  0  0  0  0  0  0  0
   19.5324  -20.5661  -11.5678 C   0  0  0  0  0  0  0  0  0  0  0  0
   18.5563  -21.1137  -12.1936 N   0  0  0  0  0  0  0  0  0  0  0  0
   20.8647  -21.0284  -11.7181 N   0  0  0  0  0  0  0  0  0  0  0  0
   21.9325  -20.2645  -11.1529 C   0  0  0  0  0  0  0  0  0  0  0  0
   23.3092  -20.8299  -11.5027 C   0  0  0  0  0  0  0  0  0  0  0  0
   24.3376  -19.9199  -10.9123 C   0  0  0  0  0  0  0  0  0  0  0  0
   25.7476  -20.3031  -11.2824 C   0  0  2  0  0  0  0  0  0  0  0  0
   25.8646  -20.3204  -12.7048 N   0  0  0  0  0  0  0  0  0  0  0  0
   25.9806  -21.7016  -10.7868 C   0  0  0  0  0  0  0  0  0  0  0  0
   26.1559  -21.9769   -9.4474 O   0  0  0  0  0  0  0  0  0  0  0  0
   26.0204  -22.6614  -11.5986 O   0  0  0  0  0  0  0  0  0  0  0  0
  1  2  1  0
  3  2  1  0
  3  5  1  0
  3  4  1  1
  5  7  1  0
  5  6  1  6
  7  8  2  0
  9 13  1  0
  9  7  1  0
 10  9  1  0
 11 12  1  0
 11 10  1  0
 12 13  1  0
 13 14  1  1
 14 15  2  0
 16 17  1  0
 17 19  1  0
 17 18  2  0
 19 20  1  0
 20 21  1  0
 21 22  1  0
 23 22  1  6
 23 25  1  0
 24 23  1  0
 24 14  1  0
 25 27  2  0
 25 26  1  0
M  END
$$$$
