IPR.pdb
     RDKit          3D

 27 27  0  0  1  0  0  0  0  0999 V2000
   22.5820  -21.4528   -8.5372 C   0  0  0  0  0  0  0  0  0  0  0  0
   23.9886  -20.9900   -8.5430 C   0  0  0  0  0  0  0  0  0  0  0  0
   24.5090  -20.7679   -9.9325 C   0  0  2  0  0  0  0  0  0  0  0  0
   24.6163  -22.1285  -10.6516 C   0  0  0  0  0  0  0  0  0  0  0  0
   25.8998  -20.1838   -9.8881 C   0  0  2  0  0  0  0  0  0  0  0  0
   25.9770  -19.1170   -8.9583 N   0  0  0  0  0  0  0  0  0  0  0  0
   26.4180  -19.8689  -11.2428 C   0  0  0  0  0  0  0  0  0  0  0  0
   25.8761  -18.8040  -11.7492 O   0  0  0  0  0  0  0  0  0  0  0  0
   27.3683  -20.5849  -11.9445 N   0  0  0  0  0  0  0  0  0  0  0  0
   28.0272  -21.8126  -11.7102 C   0  0  0  0  0  0  0  0  0  0  0  0
   29.4940  -21.3628  -11.8626 C   0  0  0  0  0  0  0  0  0  0  0  0
   29.3729  -20.4125  -13.0340 C   0  0  0  0  0  0  0  0  0  0  0  0
   27.9023  -20.1494  -13.2426 C   0  0  1  0  0  0  0  0  0  0  0  0
   27.3171  -20.8921  -14.3731 C   0  0  0  0  0  0  0  0  0  0  0  0
   27.3263  -22.1300  -14.3847 O   0  0  0  0  0  0  0  0  0  0  0  0
   20.7194  -21.7171  -13.1904 N   0  0  0  0  0  0  0  0  0  0  0  0
   21.1825  -20.3878  -13.1019 C   0  0  0  0  0  0  0  0  0  0  0  0
   20.7792  -19.6396  -12.1417 N   0  0  0  0  0  0  0  0  0  0  0  0
   22.0884  -19.9129  -14.0843 N   0  0  0  0  0  0  0  0  0  0  0  0
   22.4894  -20.7890  -15.1402 C   0  0  0  0  0  0  0  0  0  0  0  0
   23.9912  -21.0746  -15.1289 C   0  0  0  0  0  0  0  0  0  0  0  0
   24.5608  -20.5634  -16.4128 C   0  0  0  0  0  0  0  0  0  0  0  0
   26.0353  -20.8410  -16.5568 C   0  0  2  0  0  0  0  0  0  0  0  0
   26.7305  -20.2256  -15.4727 N   0  0  0  0  0  0  0  0  0  0  0  0
   26.4964  -20.1858  -17.8272 C   0  0  0  0  0  0  0  0  0  0  0  0
   26.1720  -20.6965  -19.0660 O   0  0  0  0  0  0  0  0  0  0  0  0
   27.1978  -19.1429  -17.7820 O   0  0  0  0  0  0  0  0  0  0  0  0
  1  2  1  0
  3  2  1  0
  3  5  1  0
  3  4  1  6
  5  7  1  0
  5  6  1  1
  7  8  2  0
  9 13  1  0
  9  7  1  0
 10  9  1  0
 11 12  1  0
 11 10  1  0
 12 13  1  0
 13 14  1  6
 14 15  2  0
 16 17  1  0
 17 19  1  0
 17 18  2  0
 19 20  1  0
 20 21  1  0
 21 22  1  0
 23 22  1  1
 23 25  1  0
 24 23  1  0
 24 14  1  0
 25 27  2  0
 25 26  1  0
M  END
$$$$
