IPR.pdb
     RDKit          3D

 27 27  0  0  1  0  0  0  0  0999 V2000
   23.2671  -20.9827   -7.7075 C   0  0  0  0  0  0  0  0  0  0  0  0
   24.5038  -21.1132   -8.5115 C   0  0  0  0  0  0  0  0  0  0  0  0
   24.3121  -20.6586   -9.9284 C   0  0  2  0  0  0  0  0  0  0  0  0
   23.2849  -21.5808  -10.6168 C   0  0  0  0  0  0  0  0  0  0  0  0
   25.6020  -20.7834  -10.7018 C   0  0  2  0  0  0  0  0  0  0  0  0
   26.6883  -20.2332   -9.9766 N   0  0  0  0  0  0  0  0  0  0  0  0
   25.4689  -20.2903  -12.0953 C   0  0  0  0  0  0  0  0  0  0  0  0
   25.5011  -18.9952  -12.1715 O   0  0  0  0  0  0  0  0  0  0  0  0
   25.3235  -21.0654  -13.2293 N   0  0  0  0  0  0  0  0  0  0  0  0
   25.1441  -22.4506  -13.4419 C   0  0  0  0  0  0  0  0  0  0  0  0
   26.2840  -22.7176  -14.4450 C   0  0  0  0  0  0  0  0  0  0  0  0
   26.1935  -21.4760  -15.3053 C   0  0  0  0  0  0  0  0  0  0  0  0
   25.2938  -20.5019  -14.5864 C   0  0  1  0  0  0  0  0  0  0  0  0
   23.9295  -20.4291  -15.1391 C   0  0  0  0  0  0  0  0  0  0  0  0
   23.0655  -21.2446  -14.7912 O   0  0  0  0  0  0  0  0  0  0  0  0
   19.8634  -13.9543  -16.8494 N   0  0  0  0  0  0  0  0  0  0  0  0
   20.6167  -13.9563  -15.6571 C   0  0  0  0  0  0  0  0  0  0  0  0
   20.6060  -12.9215  -14.8998 N   0  0  0  0  0  0  0  0  0  0  0  0
   21.3698  -15.1117  -15.3265 N   0  0  0  0  0  0  0  0  0  0  0  0
   22.3547  -15.5854  -16.2476 C   0  0  0  0  0  0  0  0  0  0  0  0
   21.8764  -16.7964  -17.0487 C   0  0  0  0  0  0  0  0  0  0  0  0
   21.7052  -17.9340  -16.0943 C   0  0  0  0  0  0  0  0  0  0  0  0
   22.2579  -19.2342  -16.6198 C   0  0  2  0  0  0  0  0  0  0  0  0
   23.5619  -19.4365  -16.0758 N   0  0  0  0  0  0  0  0  0  0  0  0
   22.3994  -19.0961  -18.1086 C   0  0  0  0  0  0  0  0  0  0  0  0
   21.3022  -19.0810  -18.9432 O   0  0  0  0  0  0  0  0  0  0  0  0
   23.5398  -18.9902  -18.6281 O   0  0  0  0  0  0  0  0  0  0  0  0
  1  2  1  0
  3  2  1  0
  3  5  1  0
  3  4  1  6
  5  7  1  0
  5  6  1  1
  7  8  2  0
  9 13  1  0
  9  7  1  0
 10  9  1  0
 11 12  1  0
 11 10  1  0
 12 13  1  0
 13 14  1  6
 14 15  2  0
 16 17  1  0
 17 19  1  0
 17 18  2  0
 19 20  1  0
 20 21  1  0
 21 22  1  0
 23 22  1  1
 23 25  1  0
 24 23  1  0
 24 14  1  0
 25 27  2  0
 25 26  1  0
M  END
$$$$
