IPR.pdb
     RDKit          3D

 27 27  0  0  1  0  0  0  0  0999 V2000
   24.3958  -25.8764  -17.2191 C   0  0  0  0  0  0  0  0  0  0  0  0
   24.7542  -24.5087  -16.7791 C   0  0  0  0  0  0  0  0  0  0  0  0
   23.9710  -24.0743  -15.5755 C   0  0  2  0  0  0  0  0  0  0  0  0
   22.4697  -24.0649  -15.9303 C   0  0  0  0  0  0  0  0  0  0  0  0
   24.3394  -22.6633  -15.1871 C   0  0  2  0  0  0  0  0  0  0  0  0
   25.7458  -22.5020  -15.1204 N   0  0  0  0  0  0  0  0  0  0  0  0
   23.6012  -22.2031  -13.9846 C   0  0  0  0  0  0  0  0  0  0  0  0
   24.1703  -22.5719  -12.8782 O   0  0  0  0  0  0  0  0  0  0  0  0
   22.4346  -21.4636  -13.9714 N   0  0  0  0  0  0  0  0  0  0  0  0
   21.5551  -21.0197  -14.9842 C   0  0  0  0  0  0  0  0  0  0  0  0
   21.5023  -19.5149  -14.6528 C   0  0  0  0  0  0  0  0  0  0  0  0
   21.4653  -19.5646  -13.1409 C   0  0  0  0  0  0  0  0  0  0  0  0
   21.8092  -20.9758  -12.7340 C   0  0  1  0  0  0  0  0  0  0  0  0
   20.6431  -21.7830  -12.3331 C   0  0  0  0  0  0  0  0  0  0  0  0
   19.7643  -22.0708  -13.1564 O   0  0  0  0  0  0  0  0  0  0  0  0
   18.8687  -25.7570   -5.3292 N   0  0  0  0  0  0  0  0  0  0  0  0
   17.5646  -25.7460   -5.8661 C   0  0  0  0  0  0  0  0  0  0  0  0
   16.6930  -26.5788   -5.4289 N   0  0  0  0  0  0  0  0  0  0  0  0
   17.2514  -24.8065   -6.8813 N   0  0  0  0  0  0  0  0  0  0  0  0
   18.3132  -24.0899   -7.5154 C   0  0  0  0  0  0  0  0  0  0  0  0
   17.8073  -23.0728   -8.5385 C   0  0  0  0  0  0  0  0  0  0  0  0
   19.0000  -22.4082   -9.1468 C   0  0  0  0  0  0  0  0  0  0  0  0
   19.3646  -22.9699  -10.4971 C   0  0  2  0  0  0  0  0  0  0  0  0
   20.4874  -22.2527  -11.0093 N   0  0  0  0  0  0  0  0  0  0  0  0
   18.2042  -22.7220  -11.4179 C   0  0  0  0  0  0  0  0  0  0  0  0
   17.8213  -21.4468  -11.7752 O   0  0  0  0  0  0  0  0  0  0  0  0
   17.5513  -23.6894  -11.8865 O   0  0  0  0  0  0  0  0  0  0  0  0
  1  2  1  0
  3  2  1  0
  3  5  1  0
  3  4  1  6
  5  7  1  0
  5  6  1  1
  7  8  2  0
  9 13  1  0
  9  7  1  0
 10  9  1  0
 11 12  1  0
 11 10  1  0
 12 13  1  0
 13 14  1  6
 14 15  2  0
 16 17  1  0
 17 19  1  0
 17 18  2  0
 19 20  1  0
 20 21  1  0
 21 22  1  0
 23 22  1  1
 23 25  1  0
 24 23  1  0
 24 14  1  0
 25 27  2  0
 25 26  1  0
M  END
$$$$
