IPR.pdb
     RDKit          3D

 27 27  0  0  1  0  0  0  0  0999 V2000
   24.9979  -21.7802  -19.2767 C   0  0  0  0  0  0  0  0  0  0  0  0
   26.0210  -22.1051  -18.2566 C   0  0  0  0  0  0  0  0  0  0  0  0
   25.4295  -22.2606  -16.8867 C   0  0  2  0  0  0  0  0  0  0  0  0
   24.7831  -20.9250  -16.4645 C   0  0  0  0  0  0  0  0  0  0  0  0
   26.5091  -22.5645  -15.8770 C   0  0  2  0  0  0  0  0  0  0  0  0
   27.2641  -23.7005  -16.2619 N   0  0  0  0  0  0  0  0  0  0  0  0
   25.9825  -22.6065  -14.4901 C   0  0  0  0  0  0  0  0  0  0  0  0
   25.7378  -23.8151  -14.0857 O   0  0  0  0  0  0  0  0  0  0  0  0
   25.7535  -21.5216  -13.6663 N   0  0  0  0  0  0  0  0  0  0  0  0
   25.8836  -20.1256  -13.8411 C   0  0  0  0  0  0  0  0  0  0  0  0
   26.7582  -19.7828  -12.6185 C   0  0  0  0  0  0  0  0  0  0  0  0
   26.1385  -20.6835  -11.5724 C   0  0  0  0  0  0  0  0  0  0  0  0
   25.2358  -21.6507  -12.2969 C   0  0  1  0  0  0  0  0  0  0  0  0
   23.8033  -21.3179  -12.1999 C   0  0  0  0  0  0  0  0  0  0  0  0
   23.2800  -20.5468  -13.0150 O   0  0  0  0  0  0  0  0  0  0  0  0
   18.2582  -25.2676   -6.6848 N   0  0  0  0  0  0  0  0  0  0  0  0
   17.3339  -24.6372   -7.5436 C   0  0  0  0  0  0  0  0  0  0  0  0
   16.0818  -24.8831   -7.4159 N   0  0  0  0  0  0  0  0  0  0  0  0
   17.8188  -23.7420   -8.5308 N   0  0  0  0  0  0  0  0  0  0  0  0
   19.2298  -23.6189   -8.7233 C   0  0  0  0  0  0  0  0  0  0  0  0
   19.5857  -22.7074   -9.8979 C   0  0  0  0  0  0  0  0  0  0  0  0
   21.0751  -22.5916   -9.9483 C   0  0  0  0  0  0  0  0  0  0  0  0
   21.5635  -21.7501  -11.0996 C   0  0  2  0  0  0  0  0  0  0  0  0
   22.9840  -21.8610  -11.1844 N   0  0  0  0  0  0  0  0  0  0  0  0
   21.2340  -20.3190  -10.7849 C   0  0  0  0  0  0  0  0  0  0  0  0
   22.0671  -19.5351  -10.0155 O   0  0  0  0  0  0  0  0  0  0  0  0
   20.1751  -19.8027  -11.2250 O   0  0  0  0  0  0  0  0  0  0  0  0
  1  2  1  0
  3  2  1  0
  3  5  1  0
  3  4  1  1
  5  7  1  0
  5  6  1  6
  7  8  2  0
  9 13  1  0
  9  7  1  0
 10  9  1  0
 11 12  1  0
 11 10  1  0
 12 13  1  0
 13 14  1  6
 14 15  2  0
 16 17  1  0
 17 19  1  0
 17 18  2  0
 19 20  1  0
 20 21  1  0
 21 22  1  0
 23 22  1  1
 23 25  1  0
 24 23  1  0
 24 14  1  0
 25 27  2  0
 25 26  1  0
M  END
$$$$
