IPR.pdb
     RDKit          3D

 27 27  0  0  1  0  0  0  0  0999 V2000
   19.8329  -19.8000  -15.1534 C   0  0  0  0  0  0  0  0  0  0  0  0
   20.4564  -18.5941  -15.7447 C   0  0  0  0  0  0  0  0  0  0  0  0
   21.9441  -18.7316  -15.8817 C   0  0  2  0  0  0  0  0  0  0  0  0
   22.5621  -18.9171  -14.4805 C   0  0  0  0  0  0  0  0  0  0  0  0
   22.5395  -17.4717  -16.4610 C   0  0  2  0  0  0  0  0  0  0  0  0
   21.8209  -17.0462  -17.6061 N   0  0  0  0  0  0  0  0  0  0  0  0
   24.0072  -17.5826  -16.6515 C   0  0  0  0  0  0  0  0  0  0  0  0
   24.3229  -18.2526  -17.7171 O   0  0  0  0  0  0  0  0  0  0  0  0
   24.9834  -17.0574  -15.8272 N   0  0  0  0  0  0  0  0  0  0  0  0
   24.9446  -16.3581  -14.6002 C   0  0  0  0  0  0  0  0  0  0  0  0
   25.7990  -15.1279  -14.9657 C   0  0  0  0  0  0  0  0  0  0  0  0
   26.8806  -15.7788  -15.8000 C   0  0  0  0  0  0  0  0  0  0  0  0
   26.4207  -17.1821  -16.1075 C   0  0  1  0  0  0  0  0  0  0  0  0
   27.0700  -18.2176  -15.2839 C   0  0  0  0  0  0  0  0  0  0  0  0
   27.2199  -18.0505  -14.0664 O   0  0  0  0  0  0  0  0  0  0  0  0
   24.2311  -21.1774  -10.5357 N   0  0  0  0  0  0  0  0  0  0  0  0
   25.4078  -20.6327   -9.9807 C   0  0  0  0  0  0  0  0  0  0  0  0
   25.4984  -20.4841   -8.7102 N   0  0  0  0  0  0  0  0  0  0  0  0
   26.4657  -20.2628  -10.8498 N   0  0  0  0  0  0  0  0  0  0  0  0
   26.2234  -20.2165  -12.2577 C   0  0  0  0  0  0  0  0  0  0  0  0
   26.8427  -21.4007  -13.0002 C   0  0  0  0  0  0  0  0  0  0  0  0
   26.6615  -21.1639  -14.4649 C   0  0  0  0  0  0  0  0  0  0  0  0
   27.8942  -20.6074  -15.1303 C   0  0  2  0  0  0  0  0  0  0  0  0
   27.5398  -19.4255  -15.8477 N   0  0  0  0  0  0  0  0  0  0  0  0
   28.3668  -21.6248  -16.1290 C   0  0  0  0  0  0  0  0  0  0  0  0
   29.0918  -22.7335  -15.7475 O   0  0  0  0  0  0  0  0  0  0  0  0
   28.1050  -21.4803  -17.3506 O   0  0  0  0  0  0  0  0  0  0  0  0
  1  2  1  0
  3  2  1  0
  3  5  1  0
  3  4  1  1
  5  7  1  0
  5  6  1  6
  7  8  2  0
  9 13  1  0
  9  7  1  0
 10  9  1  0
 11 12  1  0
 11 10  1  0
 12 13  1  0
 13 14  1  1
 14 15  2  0
 16 17  1  0
 17 19  1  0
 17 18  2  0
 19 20  1  0
 20 21  1  0
 21 22  1  0
 23 22  1  6
 23 25  1  0
 24 23  1  0
 24 14  1  0
 25 27  2  0
 25 26  1  0
M  END
$$$$
