IPR.pdb
     RDKit          3D

 27 27  0  0  1  0  0  0  0  0999 V2000
   27.6472  -20.4251   -3.4093 C   0  0  0  0  0  0  0  0  0  0  0  0
   28.1993  -19.6346   -4.5331 C   0  0  0  0  0  0  0  0  0  0  0  0
   27.5289  -19.9537   -5.8369 C   0  0  2  0  0  0  0  0  0  0  0  0
   27.7878  -21.4340   -6.1852 C   0  0  0  0  0  0  0  0  0  0  0  0
   28.1243  -19.1295   -6.9521 C   0  0  2  0  0  0  0  0  0  0  0  0
   28.1601  -17.7548   -6.6090 N   0  0  0  0  0  0  0  0  0  0  0  0
   27.4987  -19.4286   -8.2643 C   0  0  0  0  0  0  0  0  0  0  0  0
   26.4763  -18.6695   -8.5143 O   0  0  0  0  0  0  0  0  0  0  0  0
   27.9061  -20.3918   -9.1667 N   0  0  0  0  0  0  0  0  0  0  0  0
   28.6452  -21.5893   -9.0407 C   0  0  0  0  0  0  0  0  0  0  0  0
   29.7268  -21.3508  -10.1133 C   0  0  0  0  0  0  0  0  0  0  0  0
   28.8990  -20.7065  -11.2039 C   0  0  0  0  0  0  0  0  0  0  0  0
   27.5667  -20.3452  -10.5960 C   0  0  1  0  0  0  0  0  0  0  0  0
   26.4774  -21.2729  -10.9494 C   0  0  0  0  0  0  0  0  0  0  0  0
   26.4333  -22.4080  -10.4570 O   0  0  0  0  0  0  0  0  0  0  0  0
   18.7591  -22.1472  -13.1639 N   0  0  0  0  0  0  0  0  0  0  0  0
   18.6245  -21.5985  -11.8716 C   0  0  0  0  0  0  0  0  0  0  0  0
   17.6307  -21.9430  -11.1380 N   0  0  0  0  0  0  0  0  0  0  0  0
   19.5998  -20.6751  -11.4162 N   0  0  0  0  0  0  0  0  0  0  0  0
   20.6826  -20.3259  -12.2815 C   0  0  0  0  0  0  0  0  0  0  0  0
   21.7788  -21.3911  -12.3110 C   0  0  0  0  0  0  0  0  0  0  0  0
   23.0821  -20.7097  -12.0440 C   0  0  0  0  0  0  0  0  0  0  0  0
   24.2633  -21.6427  -12.1220 C   0  0  2  0  0  0  0  0  0  0  0  0
   25.4550  -20.9046  -11.8530 N   0  0  0  0  0  0  0  0  0  0  0  0
   24.3470  -22.1486  -13.5338 C   0  0  0  0  0  0  0  0  0  0  0  0
   23.6828  -23.2874  -13.9368 O   0  0  0  0  0  0  0  0  0  0  0  0
   25.0356  -21.5318  -14.3864 O   0  0  0  0  0  0  0  0  0  0  0  0
  1  2  1  0
  3  2  1  0
  3  5  1  0
  3  4  1  6
  5  7  1  0
  5  6  1  1
  7  8  2  0
  9 13  1  0
  9  7  1  0
 10  9  1  0
 11 12  1  0
 11 10  1  0
 12 13  1  0
 13 14  1  1
 14 15  2  0
 16 17  1  0
 17 19  1  0
 17 18  2  0
 19 20  1  0
 20 21  1  0
 21 22  1  0
 23 22  1  6
 23 25  1  0
 24 23  1  0
 24 14  1  0
 25 27  2  0
 25 26  1  0
M  END
$$$$
