IPR.pdb
     RDKit          3D

 27 27  0  0  1  0  0  0  0  0999 V2000
   30.7128  -22.0881  -10.8417 C   0  0  0  0  0  0  0  0  0  0  0  0
   29.7077  -21.1047  -10.3776 C   0  0  0  0  0  0  0  0  0  0  0  0
   28.5051  -21.0541  -11.2731 C   0  0  2  0  0  0  0  0  0  0  0  0
   28.9506  -20.6310  -12.6882 C   0  0  0  0  0  0  0  0  0  0  0  0
   27.5300  -20.0091  -10.7889 C   0  0  2  0  0  0  0  0  0  0  0  0
   27.0953  -20.2879   -9.4691 N   0  0  0  0  0  0  0  0  0  0  0  0
   26.4398  -19.7654  -11.7660 C   0  0  0  0  0  0  0  0  0  0  0  0
   25.2725  -20.0926  -11.3031 O   0  0  0  0  0  0  0  0  0  0  0  0
   26.5803  -19.2518  -13.0406 N   0  0  0  0  0  0  0  0  0  0  0  0
   27.6799  -19.1189  -13.9179 C   0  0  0  0  0  0  0  0  0  0  0  0
   27.5791  -17.6164  -14.2483 C   0  0  0  0  0  0  0  0  0  0  0  0
   26.0791  -17.4589  -14.3709 C   0  0  0  0  0  0  0  0  0  0  0  0
   25.4536  -18.7146  -13.8165 C   0  0  1  0  0  0  0  0  0  0  0  0
   24.9800  -19.6526  -14.8500 C   0  0  0  0  0  0  0  0  0  0  0  0
   25.7876  -20.2964  -15.5327 O   0  0  0  0  0  0  0  0  0  0  0  0
   17.7576  -23.6258  -13.0043 N   0  0  0  0  0  0  0  0  0  0  0  0
   18.9891  -23.2273  -12.4440 C   0  0  0  0  0  0  0  0  0  0  0  0
   19.1244  -23.1976  -11.1692 N   0  0  0  0  0  0  0  0  0  0  0  0
   20.0510  -22.8687  -13.3130 N   0  0  0  0  0  0  0  0  0  0  0  0
   19.8051  -22.8031  -14.7194 C   0  0  0  0  0  0  0  0  0  0  0  0
   21.0811  -22.5726  -15.5293 C   0  0  0  0  0  0  0  0  0  0  0  0
   21.7830  -21.3895  -14.9447 C   0  0  0  0  0  0  0  0  0  0  0  0
   23.0130  -20.9902  -15.7192 C   0  0  2  0  0  0  0  0  0  0  0  0
   23.6023  -19.8491  -15.0963 N   0  0  0  0  0  0  0  0  0  0  0  0
   22.5682  -20.5823  -17.0945 C   0  0  0  0  0  0  0  0  0  0  0  0
   22.1950  -21.5119  -18.0417 O   0  0  0  0  0  0  0  0  0  0  0  0
   22.5278  -19.3658  -17.4110 O   0  0  0  0  0  0  0  0  0  0  0  0
  1  2  1  0
  3  2  1  0
  3  5  1  0
  3  4  1  6
  5  7  1  0
  5  6  1  1
  7  8  2  0
  9 13  1  0
  9  7  1  0
 10  9  1  0
 11 12  1  0
 11 10  1  0
 12 13  1  0
 13 14  1  6
 14 15  2  0
 16 17  1  0
 17 19  1  0
 17 18  2  0
 19 20  1  0
 20 21  1  0
 21 22  1  0
 23 22  1  1
 23 25  1  0
 24 23  1  0
 24 14  1  0
 25 27  2  0
 25 26  1  0
M  END
$$$$
