KPF.pdb
     RDKit          3D

 28 29  0  0  1  0  0  0  0  0999 V2000
   10.3786  -17.4017   17.7008 N   0  0  0  0  0  0  0  0  0  0  0  0
    9.2468  -16.7925   18.1718 C   0  0  1  0  0  0  0  0  0  0  0  0
    8.0668  -17.6778   18.3555 C   0  0  0  0  0  0  0  0  0  0  0  0
    8.1072  -19.1101   18.4337 C   0  0  0  0  0  0  0  0  0  0  0  0
    8.5969  -19.9832   19.4791 C   0  0  0  0  0  0  0  0  0  0  0  0
    8.4331  -21.4490   19.3228 C   0  0  0  0  0  0  0  0  0  0  0  0
    9.1596  -22.0329   20.5104 N   0  0  0  0  0  0  0  0  0  0  0  0
    9.4052  -16.0226   19.4521 C   0  0  0  0  0  0  0  0  0  0  0  0
   10.5985  -16.0768   19.9028 O   0  0  0  0  0  0  0  0  0  0  0  0
    8.3879  -15.3085   20.1139 N   0  0  0  0  0  0  0  0  0  0  0  0
    6.9771  -15.1279   19.8816 C   0  0  0  0  0  0  0  0  0  0  0  0
    6.8450  -13.6118   19.9781 C   0  0  0  0  0  0  0  0  0  0  0  0
    7.9230  -13.2270   20.9604 C   0  0  0  0  0  0  0  0  0  0  0  0
    8.6048  -14.5261   21.3254 C   0  0  1  0  0  0  0  0  0  0  0  0
    8.0496  -15.1858   22.5160 C   0  0  0  0  0  0  0  0  0  0  0  0
    7.0551  -15.9467   22.3562 O   0  0  0  0  0  0  0  0  0  0  0  0
    8.5696  -15.0058   23.7975 N   0  0  0  0  0  0  0  0  0  0  0  0
    8.1885  -15.7868   24.9581 C   0  0  1  0  0  0  0  0  0  0  0  0
    8.3995  -15.0350   26.2125 C   0  0  0  0  0  0  0  0  0  0  0  0
    7.6479  -13.7729   26.3296 C   0  0  0  0  0  0  0  0  0  0  0  0
    6.6571  -13.5984   27.2586 C   0  0  0  0  0  0  0  0  0  0  0  0
    5.9515  -12.4199   27.3820 C   0  0  0  0  0  0  0  0  0  0  0  0
    6.2386  -11.3720   26.5467 C   0  0  0  0  0  0  0  0  0  0  0  0
    7.2278  -11.5057   25.5972 C   0  0  0  0  0  0  0  0  0  0  0  0
    7.9262  -12.7045   25.4932 C   0  0  0  0  0  0  0  0  0  0  0  0
    6.8220  -16.3559   24.7846 C   0  0  0  0  0  0  0  0  0  0  0  0
    6.3186  -17.4543   25.4132 O   0  0  0  0  0  0  0  0  0  0  0  0
    6.0431  -15.7529   23.9582 O   0  0  0  0  0  0  0  0  0  0  0  0
  2  1  1  1
  3  2  1  0
  3  4  1  0
  5  4  1  0
  5  6  1  0
  6  7  1  0
  8 10  1  0
  8  2  1  0
  9  8  2  0
 10 14  1  0
 11 12  1  0
 11 10  1  0
 12 13  1  0
 13 14  1  0
 14 15  1  1
 15 17  1  0
 16 15  2  0
 17 18  1  0
 18 19  1  1
 19 20  1  0
 20 21  2  0
 21 22  1  0
 23 22  2  0
 24 23  1  0
 25 24  2  0
 25 20  1  0
 26 27  1  0
 26 18  1  0
 28 26  2  0
M  END
$$$$
