KPF.pdb
     RDKit          3D

 28 29  0  0  1  0  0  0  0  0999 V2000
    5.8360  -16.9208   20.9327 N   0  0  0  0  0  0  0  0  0  0  0  0
    7.1861  -17.0057   21.1420 C   0  0  1  0  0  0  0  0  0  0  0  0
    8.0162  -16.0164   20.4056 C   0  0  0  0  0  0  0  0  0  0  0  0
    7.7526  -14.6082   20.3236 C   0  0  0  0  0  0  0  0  0  0  0  0
    8.4235  -13.5660   19.5763 C   0  0  0  0  0  0  0  0  0  0  0  0
    7.9163  -12.1756   19.6735 C   0  0  0  0  0  0  0  0  0  0  0  0
    8.9332  -11.3553   18.9172 N   0  0  0  0  0  0  0  0  0  0  0  0
    7.6287  -16.9495   22.5766 C   0  0  0  0  0  0  0  0  0  0  0  0
    6.6703  -16.6507   23.3654 O   0  0  0  0  0  0  0  0  0  0  0  0
    8.9345  -17.1915   23.0448 N   0  0  0  0  0  0  0  0  0  0  0  0
   10.2294  -17.2506   22.4151 C   0  0  0  0  0  0  0  0  0  0  0  0
   10.7714  -18.5685   22.9582 C   0  0  0  0  0  0  0  0  0  0  0  0
   10.1314  -18.6771   24.3197 C   0  0  0  0  0  0  0  0  0  0  0  0
    9.2581  -17.4491   24.4433 C   0  0  1  0  0  0  0  0  0  0  0  0
    9.9187  -16.2997   25.0784 C   0  0  0  0  0  0  0  0  0  0  0  0
   10.8214  -15.7061   24.4253 O   0  0  0  0  0  0  0  0  0  0  0  0
    9.5935  -15.8461   26.3564 N   0  0  0  0  0  0  0  0  0  0  0  0
   10.4478  -15.0079   27.1749 C   0  0  1  0  0  0  0  0  0  0  0  0
   10.0298  -13.5916   27.1238 C   0  0  0  0  0  0  0  0  0  0  0  0
    8.6002  -13.3617   26.8498 C   0  0  0  0  0  0  0  0  0  0  0  0
    7.6277  -14.2231   27.2827 C   0  0  0  0  0  0  0  0  0  0  0  0
    6.2864  -14.0152   27.0381 C   0  0  0  0  0  0  0  0  0  0  0  0
    5.8939  -12.9082   26.3319 C   0  0  0  0  0  0  0  0  0  0  0  0
    6.8403  -12.0162   25.8774 C   0  0  0  0  0  0  0  0  0  0  0  0
    8.1873  -12.2477   26.1378 C   0  0  0  0  0  0  0  0  0  0  0  0
   10.5870  -15.5766   28.5454 C   0  0  0  0  0  0  0  0  0  0  0  0
    9.9021  -16.6391   29.0526 O   0  0  0  0  0  0  0  0  0  0  0  0
   11.4343  -15.0066   29.3267 O   0  0  0  0  0  0  0  0  0  0  0  0
  2  1  1  1
  3  2  1  0
  3  4  1  0
  5  4  1  0
  5  6  1  0
  6  7  1  0
  8 10  1  0
  8  2  1  0
  9  8  2  0
 10 14  1  0
 11 12  1  0
 11 10  1  0
 12 13  1  0
 13 14  1  0
 14 15  1  6
 15 17  1  0
 16 15  2  0
 17 18  1  0
 18 19  1  1
 19 20  1  0
 20 21  2  0
 21 22  1  0
 23 22  2  0
 24 23  1  0
 25 24  2  0
 25 20  1  0
 26 27  1  0
 26 18  1  0
 28 26  2  0
M  END
$$$$
