KPF.pdb
     RDKit          3D

 28 29  0  0  1  0  0  0  0  0999 V2000
    7.7409  -13.7065   21.0977 N   0  0  0  0  0  0  0  0  0  0  0  0
    7.2475  -14.0756   22.3200 C   0  0  1  0  0  0  0  0  0  0  0  0
    6.8594  -15.5044   22.4540 C   0  0  0  0  0  0  0  0  0  0  0  0
    7.1820  -16.5439   21.5189 C   0  0  0  0  0  0  0  0  0  0  0  0
    7.6260  -17.9039   21.7380 C   0  0  0  0  0  0  0  0  0  0  0  0
    7.8562  -18.7799   20.5634 C   0  0  0  0  0  0  0  0  0  0  0  0
    8.2677  -20.1034   21.1618 N   0  0  0  0  0  0  0  0  0  0  0  0
    8.1229  -13.7595   23.4993 C   0  0  0  0  0  0  0  0  0  0  0  0
    9.3434  -13.5942   23.1631 O   0  0  0  0  0  0  0  0  0  0  0  0
    7.6938  -13.6466   24.8357 N   0  0  0  0  0  0  0  0  0  0  0  0
    6.4160  -13.7680   25.4910 C   0  0  0  0  0  0  0  0  0  0  0  0
    6.3838  -12.4962   26.3317 C   0  0  0  0  0  0  0  0  0  0  0  0
    7.8374  -12.2478   26.6489 C   0  0  0  0  0  0  0  0  0  0  0  0
    8.5880  -13.3595   25.9515 C   0  0  1  0  0  0  0  0  0  0  0  0
    8.8262  -14.5447   26.7878 C   0  0  0  0  0  0  0  0  0  0  0  0
    7.8353  -15.2750   27.0679 O   0  0  0  0  0  0  0  0  0  0  0  0
   10.0854  -14.8888   27.2786 N   0  0  0  0  0  0  0  0  0  0  0  0
   10.4102  -16.1611   27.8933 C   0  0  1  0  0  0  0  0  0  0  0  0
   11.4626  -16.8753   27.1413 C   0  0  0  0  0  0  0  0  0  0  0  0
   11.2082  -17.0444   25.6997 C   0  0  0  0  0  0  0  0  0  0  0  0
   10.4334  -18.0623   25.2110 C   0  0  0  0  0  0  0  0  0  0  0  0
   10.1829  -18.2268   23.8648 C   0  0  0  0  0  0  0  0  0  0  0  0
   10.7263  -17.3467   22.9658 C   0  0  0  0  0  0  0  0  0  0  0  0
   11.5127  -16.3086   23.4152 C   0  0  0  0  0  0  0  0  0  0  0  0
   11.7499  -16.1633   24.7784 C   0  0  0  0  0  0  0  0  0  0  0  0
   10.6796  -15.9895   29.3491 C   0  0  0  0  0  0  0  0  0  0  0  0
   10.9175  -16.9835   30.2493 O   0  0  0  0  0  0  0  0  0  0  0  0
   10.6845  -14.7854   29.8001 O   0  0  0  0  0  0  0  0  0  0  0  0
  2  1  1  6
  3  2  1  0
  3  4  1  0
  5  4  1  0
  5  6  1  0
  6  7  1  0
  8 10  1  0
  8  2  1  0
  9  8  2  0
 10 14  1  0
 11 12  1  0
 11 10  1  0
 12 13  1  0
 13 14  1  0
 14 15  1  1
 15 17  1  0
 16 15  2  0
 17 18  1  0
 18 19  1  6
 19 20  1  0
 20 21  2  0
 21 22  1  0
 23 22  2  0
 24 23  1  0
 25 24  2  0
 25 20  1  0
 26 27  1  0
 26 18  1  0
 28 26  2  0
M  END
$$$$
