KPF.pdb
     RDKit          3D

 28 29  0  0  1  0  0  0  0  0999 V2000
    7.4218  -18.7555   19.3729 N   0  0  0  0  0  0  0  0  0  0  0  0
    7.0623  -17.8535   20.3377 C   0  0  1  0  0  0  0  0  0  0  0  0
    6.4066  -18.4255   21.5431 C   0  0  0  0  0  0  0  0  0  0  0  0
    5.7184  -19.6835   21.5961 C   0  0  0  0  0  0  0  0  0  0  0  0
    4.9529  -20.2946   22.6617 C   0  0  0  0  0  0  0  0  0  0  0  0
    4.3322  -21.6212   22.4274 C   0  0  0  0  0  0  0  0  0  0  0  0
    3.5899  -21.9156   23.7085 N   0  0  0  0  0  0  0  0  0  0  0  0
    8.1609  -16.9575   20.8350 C   0  0  0  0  0  0  0  0  0  0  0  0
    9.3197  -17.4330   20.5877 O   0  0  0  0  0  0  0  0  0  0  0  0
    7.9832  -15.7287   21.4992 N   0  0  0  0  0  0  0  0  0  0  0  0
    6.8373  -15.0317   22.0265 C   0  0  0  0  0  0  0  0  0  0  0  0
    7.0281  -13.6404   21.4321 C   0  0  0  0  0  0  0  0  0  0  0  0
    8.5267  -13.5062   21.3260 C   0  0  0  0  0  0  0  0  0  0  0  0
    9.0763  -14.8215   21.8294 C   0  0  1  0  0  0  0  0  0  0  0  0
    9.3908  -14.8348   23.2654 C   0  0  0  0  0  0  0  0  0  0  0  0
   10.3564  -14.1250   23.6621 O   0  0  0  0  0  0  0  0  0  0  0  0
    8.6757  -15.5910   24.1937 N   0  0  0  0  0  0  0  0  0  0  0  0
    9.0431  -15.7457   25.5877 C   0  0  1  0  0  0  0  0  0  0  0  0
    7.8721  -15.6034   26.4776 C   0  0  0  0  0  0  0  0  0  0  0  0
    7.1582  -14.3174   26.3855 C   0  0  0  0  0  0  0  0  0  0  0  0
    5.8972  -14.2201   25.8605 C   0  0  0  0  0  0  0  0  0  0  0  0
    5.2168  -13.0236   25.7750 C   0  0  0  0  0  0  0  0  0  0  0  0
    5.8135  -11.8753   26.2264 C   0  0  0  0  0  0  0  0  0  0  0  0
    7.0819  -11.9287   26.7613 C   0  0  0  0  0  0  0  0  0  0  0  0
    7.7474  -13.1482   26.8374 C   0  0  0  0  0  0  0  0  0  0  0  0
    9.8413  -16.9883   25.7875 C   0  0  0  0  0  0  0  0  0  0  0  0
   10.0736  -17.9573   24.8589 O   0  0  0  0  0  0  0  0  0  0  0  0
   10.3586  -17.1647   26.9514 O   0  0  0  0  0  0  0  0  0  0  0  0
  2  1  1  6
  3  2  1  0
  3  4  1  0
  5  4  1  0
  5  6  1  0
  6  7  1  0
  8 10  1  0
  8  2  1  0
  9  8  2  0
 10 14  1  0
 11 12  1  0
 11 10  1  0
 12 13  1  0
 13 14  1  0
 14 15  1  1
 15 17  1  0
 16 15  2  0
 17 18  1  0
 18 19  1  1
 19 20  1  0
 20 21  2  0
 21 22  1  0
 23 22  2  0
 24 23  1  0
 25 24  2  0
 25 20  1  0
 26 27  1  0
 26 18  1  0
 28 26  2  0
M  END
$$$$
