KPF.pdb
     RDKit          3D

 28 29  0  0  1  0  0  0  0  0999 V2000
    7.3874  -18.8873   19.6317 N   0  0  0  0  0  0  0  0  0  0  0  0
    6.9871  -17.7363   20.2553 C   0  0  1  0  0  0  0  0  0  0  0  0
    6.1293  -17.9182   21.4557 C   0  0  0  0  0  0  0  0  0  0  0  0
    6.0140  -19.1281   22.2186 C   0  0  0  0  0  0  0  0  0  0  0  0
    6.8760  -19.6839   23.2398 C   0  0  0  0  0  0  0  0  0  0  0  0
    6.2655  -20.4538   24.3508 C   0  0  0  0  0  0  0  0  0  0  0  0
    6.1497  -21.8585   23.8101 N   0  0  0  0  0  0  0  0  0  0  0  0
    8.0874  -16.7953   20.6564 C   0  0  0  0  0  0  0  0  0  0  0  0
    9.2446  -17.3095   20.4940 O   0  0  0  0  0  0  0  0  0  0  0  0
    7.9125  -15.4904   21.1559 N   0  0  0  0  0  0  0  0  0  0  0  0
    6.7600  -14.6825   21.4656 C   0  0  0  0  0  0  0  0  0  0  0  0
    7.1000  -13.3806   20.7480 C   0  0  0  0  0  0  0  0  0  0  0  0
    8.6065  -13.3318   20.8037 C   0  0  0  0  0  0  0  0  0  0  0  0
    9.0157  -14.6045   21.5097 C   0  0  1  0  0  0  0  0  0  0  0  0
    9.1678  -14.4657   22.9652 C   0  0  0  0  0  0  0  0  0  0  0  0
    8.9144  -13.3403   23.4779 O   0  0  0  0  0  0  0  0  0  0  0  0
    9.5769  -15.5128   23.7906 N   0  0  0  0  0  0  0  0  0  0  0  0
    9.2545  -15.6247   25.1998 C   0  0  1  0  0  0  0  0  0  0  0  0
    7.8032  -15.4827   25.4385 C   0  0  0  0  0  0  0  0  0  0  0  0
    7.3580  -14.1429   25.8608 C   0  0  0  0  0  0  0  0  0  0  0  0
    8.2173  -13.2290   26.4099 C   0  0  0  0  0  0  0  0  0  0  0  0
    7.8138  -11.9701   26.8027 C   0  0  0  0  0  0  0  0  0  0  0  0
    6.5024  -11.6038   26.6472 C   0  0  0  0  0  0  0  0  0  0  0  0
    5.6043  -12.4935   26.0995 C   0  0  0  0  0  0  0  0  0  0  0  0
    6.0362  -13.7574   25.7101 C   0  0  0  0  0  0  0  0  0  0  0  0
    9.8751  -16.8460   25.7869 C   0  0  0  0  0  0  0  0  0  0  0  0
   10.2490  -17.0176   27.0853 O   0  0  0  0  0  0  0  0  0  0  0  0
   10.0806  -17.8330   24.9890 O   0  0  0  0  0  0  0  0  0  0  0  0
  2  1  1  1
  3  2  1  0
  3  4  1  0
  5  4  1  0
  5  6  1  0
  6  7  1  0
  8 10  1  0
  8  2  1  0
  9  8  2  0
 10 14  1  0
 11 12  1  0
 11 10  1  0
 12 13  1  0
 13 14  1  0
 14 15  1  1
 15 17  1  0
 16 15  2  0
 17 18  1  0
 18 19  1  6
 19 20  1  0
 20 21  2  0
 21 22  1  0
 23 22  2  0
 24 23  1  0
 25 24  2  0
 25 20  1  0
 26 27  1  0
 26 18  1  0
 28 26  2  0
M  END
$$$$
