KPF.pdb
     RDKit          3D

 28 29  0  0  1  0  0  0  0  0999 V2000
   11.2704  -16.9474   18.7139 N   0  0  0  0  0  0  0  0  0  0  0  0
    9.9901  -16.9575   19.1980 C   0  0  1  0  0  0  0  0  0  0  0  0
    9.3393  -18.2920   19.2720 C   0  0  0  0  0  0  0  0  0  0  0  0
    8.1636  -18.6840   18.5486 C   0  0  0  0  0  0  0  0  0  0  0  0
    7.4413  -19.9382   18.5328 C   0  0  0  0  0  0  0  0  0  0  0  0
    6.2140  -20.0472   17.7072 C   0  0  0  0  0  0  0  0  0  0  0  0
    5.7839  -21.4852   17.8688 N   0  0  0  0  0  0  0  0  0  0  0  0
    9.7955  -16.3136   20.5414 C   0  0  0  0  0  0  0  0  0  0  0  0
   10.8707  -16.2999   21.2297 O   0  0  0  0  0  0  0  0  0  0  0  0
    8.5896  -15.7731   21.0277 N   0  0  0  0  0  0  0  0  0  0  0  0
    7.2266  -15.7839   20.5599 C   0  0  0  0  0  0  0  0  0  0  0  0
    6.8630  -14.3057   20.6494 C   0  0  0  0  0  0  0  0  0  0  0  0
    7.6946  -13.8087   21.8056 C   0  0  0  0  0  0  0  0  0  0  0  0
    8.4857  -15.0115   22.2671 C   0  0  1  0  0  0  0  0  0  0  0  0
    7.8400  -15.7844   23.3380 C   0  0  0  0  0  0  0  0  0  0  0  0
    7.4304  -16.9456   23.0597 O   0  0  0  0  0  0  0  0  0  0  0  0
    7.6631  -15.2921   24.6308 N   0  0  0  0  0  0  0  0  0  0  0  0
    8.1975  -15.9112   25.8281 C   0  0  1  0  0  0  0  0  0  0  0  0
    7.6929  -15.2540   27.0515 C   0  0  0  0  0  0  0  0  0  0  0  0
    7.1339  -13.9037   26.8616 C   0  0  0  0  0  0  0  0  0  0  0  0
    5.8333  -13.6999   26.4848 C   0  0  0  0  0  0  0  0  0  0  0  0
    5.2973  -12.4413   26.3103 C   0  0  0  0  0  0  0  0  0  0  0  0
    6.0854  -11.3390   26.5152 C   0  0  0  0  0  0  0  0  0  0  0  0
    7.4001  -11.4993   26.8945 C   0  0  0  0  0  0  0  0  0  0  0  0
    7.9173  -12.7796   27.0649 C   0  0  0  0  0  0  0  0  0  0  0  0
    8.0145  -17.3896   25.7834 C   0  0  0  0  0  0  0  0  0  0  0  0
    7.3074  -18.0882   24.8522 O   0  0  0  0  0  0  0  0  0  0  0  0
    8.5762  -18.0721   26.7171 O   0  0  0  0  0  0  0  0  0  0  0  0
  2  1  1  1
  3  2  1  0
  3  4  1  0
  5  4  1  0
  5  6  1  0
  6  7  1  0
  8 10  1  0
  8  2  1  0
  9  8  2  0
 10 14  1  0
 11 12  1  0
 11 10  1  0
 12 13  1  0
 13 14  1  0
 14 15  1  1
 15 17  1  0
 16 15  2  0
 17 18  1  0
 18 19  1  1
 19 20  1  0
 20 21  2  0
 21 22  1  0
 23 22  2  0
 24 23  1  0
 25 24  2  0
 25 20  1  0
 26 27  1  0
 26 18  1  0
 28 26  2  0
M  END
$$$$
