KPF.pdb
     RDKit          3D

 28 29  0  0  1  0  0  0  0  0999 V2000
    6.5439  -18.5814   19.5823 N   0  0  0  0  0  0  0  0  0  0  0  0
    6.3598  -17.3424   20.1346 C   0  0  1  0  0  0  0  0  0  0  0  0
    5.3820  -17.2735   21.2522 C   0  0  0  0  0  0  0  0  0  0  0  0
    3.9692  -17.4959   21.1346 C   0  0  0  0  0  0  0  0  0  0  0  0
    3.2217  -18.7180   20.9287 C   0  0  0  0  0  0  0  0  0  0  0  0
    1.7634  -18.6308   20.6723 C   0  0  0  0  0  0  0  0  0  0  0  0
    1.3188  -20.0691   20.5612 N   0  0  0  0  0  0  0  0  0  0  0  0
    7.6042  -16.6504   20.6139 C   0  0  0  0  0  0  0  0  0  0  0  0
    8.6223  -17.4204   20.5932 O   0  0  0  0  0  0  0  0  0  0  0  0
    7.6877  -15.3121   21.0436 N   0  0  0  0  0  0  0  0  0  0  0  0
    6.7128  -14.3058   21.3810 C   0  0  0  0  0  0  0  0  0  0  0  0
    7.2078  -13.1173   20.5640 C   0  0  0  0  0  0  0  0  0  0  0  0
    8.7012  -13.3228   20.5140 C   0  0  0  0  0  0  0  0  0  0  0  0
    8.9467  -14.6107   21.2669 C   0  0  1  0  0  0  0  0  0  0  0  0
    9.2318  -14.4290   22.6975 C   0  0  0  0  0  0  0  0  0  0  0  0
    9.0984  -13.2705   23.1808 O   0  0  0  0  0  0  0  0  0  0  0  0
    9.6397  -15.4708   23.5301 N   0  0  0  0  0  0  0  0  0  0  0  0
    9.3012  -15.5826   24.9355 C   0  0  1  0  0  0  0  0  0  0  0  0
    7.8529  -15.3973   25.1623 C   0  0  0  0  0  0  0  0  0  0  0  0
    7.4602  -14.0904   25.7186 C   0  0  0  0  0  0  0  0  0  0  0  0
    8.2482  -13.4110   26.6088 C   0  0  0  0  0  0  0  0  0  0  0  0
    7.8943  -12.1846   27.1312 C   0  0  0  0  0  0  0  0  0  0  0  0
    6.7078  -11.6099   26.7571 C   0  0  0  0  0  0  0  0  0  0  0  0
    5.8846  -12.2603   25.8641 C   0  0  0  0  0  0  0  0  0  0  0  0
    6.2643  -13.4963   25.3505 C   0  0  0  0  0  0  0  0  0  0  0  0
    9.8782  -16.8266   25.5191 C   0  0  0  0  0  0  0  0  0  0  0  0
   10.2454  -17.0151   26.8171 O   0  0  0  0  0  0  0  0  0  0  0  0
   10.0493  -17.8179   24.7184 O   0  0  0  0  0  0  0  0  0  0  0  0
  2  1  1  1
  3  2  1  0
  3  4  1  0
  5  4  1  0
  5  6  1  0
  6  7  1  0
  8 10  1  0
  8  2  1  0
  9  8  2  0
 10 14  1  0
 11 12  1  0
 11 10  1  0
 12 13  1  0
 13 14  1  0
 14 15  1  1
 15 17  1  0
 16 15  2  0
 17 18  1  0
 18 19  1  6
 19 20  1  0
 20 21  2  0
 21 22  1  0
 23 22  2  0
 24 23  1  0
 25 24  2  0
 25 20  1  0
 26 27  1  0
 26 18  1  0
 28 26  2  0
M  END
$$$$
