KPF.pdb
     RDKit          3D

 28 29  0  0  1  0  0  0  0  0999 V2000
    6.6506  -18.5428   19.2608 N   0  0  0  0  0  0  0  0  0  0  0  0
    6.4734  -17.3570   19.9213 C   0  0  1  0  0  0  0  0  0  0  0  0
    5.5853  -17.4089   21.1124 C   0  0  0  0  0  0  0  0  0  0  0  0
    5.3547  -18.5677   21.9266 C   0  0  0  0  0  0  0  0  0  0  0  0
    6.2761  -19.3795   22.6929 C   0  0  0  0  0  0  0  0  0  0  0  0
    5.7979  -20.6642   23.2592 C   0  0  0  0  0  0  0  0  0  0  0  0
    7.0145  -21.2476   23.9364 N   0  0  0  0  0  0  0  0  0  0  0  0
    7.7303  -16.6589   20.3571 C   0  0  0  0  0  0  0  0  0  0  0  0
    8.7722  -17.3662   20.1471 O   0  0  0  0  0  0  0  0  0  0  0  0
    7.8014  -15.3756   20.9325 N   0  0  0  0  0  0  0  0  0  0  0  0
    6.8172  -14.4207   21.3756 C   0  0  0  0  0  0  0  0  0  0  0  0
    7.3046  -13.1451   20.6968 C   0  0  0  0  0  0  0  0  0  0  0  0
    8.7998  -13.3320   20.6299 C   0  0  0  0  0  0  0  0  0  0  0  0
    9.0539  -14.6932   21.2365 C   0  0  1  0  0  0  0  0  0  0  0  0
    9.3336  -14.6687   22.6795 C   0  0  0  0  0  0  0  0  0  0  0  0
    9.8974  -13.6425   23.1515 O   0  0  0  0  0  0  0  0  0  0  0  0
    9.0069  -15.7200   23.5357 N   0  0  0  0  0  0  0  0  0  0  0  0
    9.3745  -15.7857   24.9367 C   0  0  1  0  0  0  0  0  0  0  0  0
    9.4775  -14.4388   25.5355 C   0  0  0  0  0  0  0  0  0  0  0  0
    8.1975  -13.7413   25.7516 C   0  0  0  0  0  0  0  0  0  0  0  0
    7.2962  -13.5425   24.7400 C   0  0  0  0  0  0  0  0  0  0  0  0
    6.0926  -12.8970   24.9315 C   0  0  0  0  0  0  0  0  0  0  0  0
    5.7712  -12.4264   26.1779 C   0  0  0  0  0  0  0  0  0  0  0  0
    6.6501  -12.6047   27.2237 C   0  0  0  0  0  0  0  0  0  0  0  0
    7.8578  -13.2600   27.0052 C   0  0  0  0  0  0  0  0  0  0  0  0
    8.4916  -16.7372   25.6690 C   0  0  0  0  0  0  0  0  0  0  0  0
    8.7005  -17.2336   26.9200 O   0  0  0  0  0  0  0  0  0  0  0  0
    7.4304  -17.1307   25.0589 O   0  0  0  0  0  0  0  0  0  0  0  0
  2  1  1  1
  3  2  1  0
  3  4  1  0
  5  4  1  0
  5  6  1  0
  6  7  1  0
  8 10  1  0
  8  2  1  0
  9  8  2  0
 10 14  1  0
 11 12  1  0
 11 10  1  0
 12 13  1  0
 13 14  1  0
 14 15  1  1
 15 17  1  0
 16 15  2  0
 17 18  1  0
 18 19  1  1
 19 20  1  0
 20 21  2  0
 21 22  1  0
 23 22  2  0
 24 23  1  0
 25 24  2  0
 25 20  1  0
 26 27  1  0
 26 18  1  0
 28 26  2  0
M  END
$$$$
