KPF.pdb
     RDKit          3D

 28 29  0  0  1  0  0  0  0  0999 V2000
    8.5618  -18.2637   18.3726 N   0  0  0  0  0  0  0  0  0  0  0  0
    7.8512  -17.3943   19.1555 C   0  0  1  0  0  0  0  0  0  0  0  0
    6.8516  -18.0145   20.0644 C   0  0  0  0  0  0  0  0  0  0  0  0
    6.4060  -19.3772   20.0028 C   0  0  0  0  0  0  0  0  0  0  0  0
    6.6471  -20.4887   20.8979 C   0  0  0  0  0  0  0  0  0  0  0  0
    6.2709  -21.8550   20.4602 C   0  0  0  0  0  0  0  0  0  0  0  0
    4.7614  -21.8426   20.4594 N   0  0  0  0  0  0  0  0  0  0  0  0
    8.6693  -16.4572   19.9980 C   0  0  0  0  0  0  0  0  0  0  0  0
    9.8611  -16.8809   20.1717 O   0  0  0  0  0  0  0  0  0  0  0  0
    8.2195  -15.2431   20.5515 N   0  0  0  0  0  0  0  0  0  0  0  0
    6.9295  -14.6101   20.6629 C   0  0  0  0  0  0  0  0  0  0  0  0
    7.2339  -13.2076   20.1478 C   0  0  0  0  0  0  0  0  0  0  0  0
    8.6747  -12.9941   20.5401 C   0  0  0  0  0  0  0  0  0  0  0  0
    9.0943  -14.2815   21.2125 C   0  0  1  0  0  0  0  0  0  0  0  0
    8.9177  -14.2861   22.6719 C   0  0  0  0  0  0  0  0  0  0  0  0
    8.1738  -13.3999   23.1766 O   0  0  0  0  0  0  0  0  0  0  0  0
    9.5321  -15.2166   23.5096 N   0  0  0  0  0  0  0  0  0  0  0  0
    9.2852  -15.3318   24.9337 C   0  0  1  0  0  0  0  0  0  0  0  0
    7.8406  -15.2841   25.2406 C   0  0  0  0  0  0  0  0  0  0  0  0
    7.3463  -13.9997   25.7675 C   0  0  0  0  0  0  0  0  0  0  0  0
    8.1601  -12.9071   25.9054 C   0  0  0  0  0  0  0  0  0  0  0  0
    7.7075  -11.6983   26.3911 C   0  0  0  0  0  0  0  0  0  0  0  0
    6.3934  -11.5691   26.7581 C   0  0  0  0  0  0  0  0  0  0  0  0
    5.5405  -12.6441   26.6361 C   0  0  0  0  0  0  0  0  0  0  0  0
    6.0210  -13.8529   26.1426 C   0  0  0  0  0  0  0  0  0  0  0  0
   10.0138  -16.5013   25.5018 C   0  0  0  0  0  0  0  0  0  0  0  0
   10.2950  -16.7166   26.8169 O   0  0  0  0  0  0  0  0  0  0  0  0
   10.4195  -17.3926   24.6686 O   0  0  0  0  0  0  0  0  0  0  0  0
  2  1  1  1
  3  2  1  0
  3  4  1  0
  5  4  1  0
  5  6  1  0
  6  7  1  0
  8 10  1  0
  8  2  1  0
  9  8  2  0
 10 14  1  0
 11 12  1  0
 11 10  1  0
 12 13  1  0
 13 14  1  0
 14 15  1  1
 15 17  1  0
 16 15  2  0
 17 18  1  0
 18 19  1  6
 19 20  1  0
 20 21  2  0
 21 22  1  0
 23 22  2  0
 24 23  1  0
 25 24  2  0
 25 20  1  0
 26 27  1  0
 26 18  1  0
 28 26  2  0
M  END
$$$$
