KPF.pdb
     RDKit          3D

 28 29  0  0  1  0  0  0  0  0999 V2000
    8.0057  -18.4856   19.0789 N   0  0  0  0  0  0  0  0  0  0  0  0
    7.3925  -17.4873   19.7868 C   0  0  1  0  0  0  0  0  0  0  0  0
    6.3456  -17.9268   20.7465 C   0  0  0  0  0  0  0  0  0  0  0  0
    6.4652  -19.0273   21.6595 C   0  0  0  0  0  0  0  0  0  0  0  0
    6.0854  -20.4166   21.5156 C   0  0  0  0  0  0  0  0  0  0  0  0
    6.2993  -21.3392   22.6571 C   0  0  0  0  0  0  0  0  0  0  0  0
    5.9185  -22.6957   22.1150 N   0  0  0  0  0  0  0  0  0  0  0  0
    8.3076  -16.5689   20.5457 C   0  0  0  0  0  0  0  0  0  0  0  0
    9.5036  -17.0130   20.5953 O   0  0  0  0  0  0  0  0  0  0  0  0
    7.9369  -15.3510   21.1476 N   0  0  0  0  0  0  0  0  0  0  0  0
    6.6759  -14.6975   21.3918 C   0  0  0  0  0  0  0  0  0  0  0  0
    6.9507  -13.2969   20.8552 C   0  0  0  0  0  0  0  0  0  0  0  0
    8.4271  -13.1099   21.1008 C   0  0  0  0  0  0  0  0  0  0  0  0
    8.8904  -14.4084   21.7214 C   0  0  1  0  0  0  0  0  0  0  0  0
    8.8620  -14.4194   23.1911 C   0  0  0  0  0  0  0  0  0  0  0  0
    8.3409  -13.4296   23.7762 O   0  0  0  0  0  0  0  0  0  0  0  0
    9.3821  -15.4645   23.9541 N   0  0  0  0  0  0  0  0  0  0  0  0
    9.3175  -15.5394   25.4007 C   0  0  1  0  0  0  0  0  0  0  0  0
    7.9733  -15.1884   25.9038 C   0  0  0  0  0  0  0  0  0  0  0  0
    7.7268  -13.7494   26.1040 C   0  0  0  0  0  0  0  0  0  0  0  0
    8.6967  -12.9017   26.5685 C   0  0  0  0  0  0  0  0  0  0  0  0
    8.4798  -11.5524   26.7536 C   0  0  0  0  0  0  0  0  0  0  0  0
    7.2483  -11.0226   26.4690 C   0  0  0  0  0  0  0  0  0  0  0  0
    6.2439  -11.8406   26.0001 C   0  0  0  0  0  0  0  0  0  0  0  0
    6.4878  -13.1986   25.8209 C   0  0  0  0  0  0  0  0  0  0  0  0
    9.8533  -16.8430   25.8852 C   0  0  0  0  0  0  0  0  0  0  0  0
   10.2062  -17.9083   25.1135 O   0  0  0  0  0  0  0  0  0  0  0  0
    9.9929  -16.9763   27.1564 O   0  0  0  0  0  0  0  0  0  0  0  0
  2  1  1  1
  3  2  1  0
  3  4  1  0
  5  4  1  0
  5  6  1  0
  6  7  1  0
  8 10  1  0
  8  2  1  0
  9  8  2  0
 10 14  1  0
 11 12  1  0
 11 10  1  0
 12 13  1  0
 13 14  1  0
 14 15  1  1
 15 17  1  0
 16 15  2  0
 17 18  1  0
 18 19  1  6
 19 20  1  0
 20 21  2  0
 21 22  1  0
 23 22  2  0
 24 23  1  0
 25 24  2  0
 25 20  1  0
 26 27  1  0
 26 18  1  0
 28 26  2  0
M  END
$$$$
