KPF.pdb
     RDKit          3D

 28 29  0  0  1  0  0  0  0  0999 V2000
    7.9746  -18.3733   18.8337 N   0  0  0  0  0  0  0  0  0  0  0  0
    7.4155  -17.5375   19.7624 C   0  0  1  0  0  0  0  0  0  0  0  0
    6.6555  -18.2024   20.8535 C   0  0  0  0  0  0  0  0  0  0  0  0
    6.2001  -19.5631   20.8388 C   0  0  0  0  0  0  0  0  0  0  0  0
    6.9358  -20.8014   20.6955 C   0  0  0  0  0  0  0  0  0  0  0  0
    6.6817  -21.9005   21.6584 C   0  0  0  0  0  0  0  0  0  0  0  0
    6.3284  -23.0826   20.7884 N   0  0  0  0  0  0  0  0  0  0  0  0
    8.3591  -16.5750   20.4258 C   0  0  0  0  0  0  0  0  0  0  0  0
    9.5809  -16.8466   20.1737 O   0  0  0  0  0  0  0  0  0  0  0  0
    7.9875  -15.4858   21.2372 N   0  0  0  0  0  0  0  0  0  0  0  0
    6.7428  -15.0465   21.8156 C   0  0  0  0  0  0  0  0  0  0  0  0
    6.7221  -13.5763   21.4113 C   0  0  0  0  0  0  0  0  0  0  0  0
    8.1830  -13.2033   21.3679 C   0  0  0  0  0  0  0  0  0  0  0  0
    8.9243  -14.4747   21.7137 C   0  0  1  0  0  0  0  0  0  0  0  0
    9.2234  -14.6292   23.1447 C   0  0  0  0  0  0  0  0  0  0  0  0
   10.1881  -13.9669   23.6183 O   0  0  0  0  0  0  0  0  0  0  0  0
    8.4949  -15.4680   23.9878 N   0  0  0  0  0  0  0  0  0  0  0  0
    8.8095  -15.7083   25.3827 C   0  0  1  0  0  0  0  0  0  0  0  0
    7.7424  -15.2090   26.2744 C   0  0  0  0  0  0  0  0  0  0  0  0
    7.6343  -13.7427   26.3749 C   0  0  0  0  0  0  0  0  0  0  0  0
    6.4465  -13.0856   26.1946 C   0  0  0  0  0  0  0  0  0  0  0  0
    6.3317  -11.7148   26.2924 C   0  0  0  0  0  0  0  0  0  0  0  0
    7.4423  -10.9643   26.5781 C   0  0  0  0  0  0  0  0  0  0  0  0
    8.6575  -11.5856   26.7663 C   0  0  0  0  0  0  0  0  0  0  0  0
    8.7472  -12.9702   26.6631 C   0  0  0  0  0  0  0  0  0  0  0  0
    9.1985  -17.1308   25.5975 C   0  0  0  0  0  0  0  0  0  0  0  0
    9.8487  -17.6354   26.6828 O   0  0  0  0  0  0  0  0  0  0  0  0
    8.8935  -17.9627   24.6658 O   0  0  0  0  0  0  0  0  0  0  0  0
  2  1  1  1
  3  2  1  0
  3  4  1  0
  5  4  1  0
  5  6  1  0
  6  7  1  0
  8 10  1  0
  8  2  1  0
  9  8  2  0
 10 14  1  0
 11 12  1  0
 11 10  1  0
 12 13  1  0
 13 14  1  0
 14 15  1  1
 15 17  1  0
 16 15  2  0
 17 18  1  0
 18 19  1  1
 19 20  1  0
 20 21  2  0
 21 22  1  0
 23 22  2  0
 24 23  1  0
 25 24  2  0
 25 20  1  0
 26 27  1  0
 26 18  1  0
 28 26  2  0
M  END
$$$$
