KPF.pdb
     RDKit          3D

 28 29  0  0  1  0  0  0  0  0999 V2000
    8.0560  -18.4645   17.4924 N   0  0  0  0  0  0  0  0  0  0  0  0
    7.4263  -17.3998   18.0787 C   0  0  1  0  0  0  0  0  0  0  0  0
    6.0918  -17.6849   18.6686 C   0  0  0  0  0  0  0  0  0  0  0  0
    5.8040  -18.7350   19.6032 C   0  0  0  0  0  0  0  0  0  0  0  0
    4.5444  -19.1859   20.1555 C   0  0  0  0  0  0  0  0  0  0  0  0
    4.5421  -20.3463   21.0792 C   0  0  0  0  0  0  0  0  0  0  0  0
    4.2996  -19.7381   22.4394 N   0  0  0  0  0  0  0  0  0  0  0  0
    8.2133  -16.6772   19.1349 C   0  0  0  0  0  0  0  0  0  0  0  0
    9.2748  -17.3073   19.4608 O   0  0  0  0  0  0  0  0  0  0  0  0
    7.8631  -15.4475   19.7247 N   0  0  0  0  0  0  0  0  0  0  0  0
    6.7016  -14.5973   19.6538 C   0  0  0  0  0  0  0  0  0  0  0  0
    7.3357  -13.2396   19.3713 C   0  0  0  0  0  0  0  0  0  0  0  0
    8.6753  -13.3277   20.0588 C   0  0  0  0  0  0  0  0  0  0  0  0
    8.7242  -14.7187   20.6490 C   0  0  1  0  0  0  0  0  0  0  0  0
    8.2437  -14.8037   22.0356 C   0  0  0  0  0  0  0  0  0  0  0  0
    7.0208  -14.5742   22.2489 O   0  0  0  0  0  0  0  0  0  0  0  0
    9.0738  -15.1218   23.1102 N   0  0  0  0  0  0  0  0  0  0  0  0
    8.9827  -14.5218   24.4270 C   0  0  1  0  0  0  0  0  0  0  0  0
    7.5925  -14.5180   24.9277 C   0  0  0  0  0  0  0  0  0  0  0  0
    7.3203  -13.5864   26.0366 C   0  0  0  0  0  0  0  0  0  0  0  0
    6.2771  -12.7000   26.0042 C   0  0  0  0  0  0  0  0  0  0  0  0
    6.0087  -11.8281   27.0384 C   0  0  0  0  0  0  0  0  0  0  0  0
    6.8106  -11.8336   28.1498 C   0  0  0  0  0  0  0  0  0  0  0  0
    7.8717  -12.7092   28.2229 C   0  0  0  0  0  0  0  0  0  0  0  0
    8.1213  -13.5797   27.1667 C   0  0  0  0  0  0  0  0  0  0  0  0
    9.9855  -15.1235   25.3507 C   0  0  0  0  0  0  0  0  0  0  0  0
   10.8822  -16.1016   25.0434 O   0  0  0  0  0  0  0  0  0  0  0  0
   10.0039  -14.6782   26.5568 O   0  0  0  0  0  0  0  0  0  0  0  0
  2  1  1  1
  3  2  1  0
  3  4  1  0
  5  4  1  0
  5  6  1  0
  6  7  1  0
  8 10  1  0
  8  2  1  0
  9  8  2  0
 10 14  1  0
 11 12  1  0
 11 10  1  0
 12 13  1  0
 13 14  1  0
 14 15  1  1
 15 17  1  0
 16 15  2  0
 17 18  1  0
 18 19  1  1
 19 20  1  0
 20 21  2  0
 21 22  1  0
 23 22  2  0
 24 23  1  0
 25 24  2  0
 25 20  1  0
 26 27  1  0
 26 18  1  0
 28 26  2  0
M  END
$$$$
