KPF.pdb
     RDKit          3D

 28 29  0  0  1  0  0  0  0  0999 V2000
    9.3448  -13.5663   17.6832 N   0  0  0  0  0  0  0  0  0  0  0  0
    8.4869  -14.1489   18.5767 C   0  0  1  0  0  0  0  0  0  0  0  0
    8.1361  -15.5673   18.3029 C   0  0  0  0  0  0  0  0  0  0  0  0
    9.0142  -16.5430   17.7230 C   0  0  0  0  0  0  0  0  0  0  0  0
   10.1608  -17.2282   18.2805 C   0  0  0  0  0  0  0  0  0  0  0  0
   10.8183  -18.2906   17.4811 C   0  0  0  0  0  0  0  0  0  0  0  0
   12.0258  -18.6784   18.3000 N   0  0  0  0  0  0  0  0  0  0  0  0
    8.9037  -14.0838   20.0186 C   0  0  0  0  0  0  0  0  0  0  0  0
   10.1065  -13.6781   20.1549 O   0  0  0  0  0  0  0  0  0  0  0  0
    8.0980  -14.4189   21.1239 N   0  0  0  0  0  0  0  0  0  0  0  0
    6.8154  -15.0592   21.2708 C   0  0  0  0  0  0  0  0  0  0  0  0
    6.0954  -14.0874   22.1995 C   0  0  0  0  0  0  0  0  0  0  0  0
    7.2103  -13.5065   23.0329 C   0  0  0  0  0  0  0  0  0  0  0  0
    8.4720  -14.1534   22.5083 C   0  0  1  0  0  0  0  0  0  0  0  0
    8.8632  -15.3789   23.2197 C   0  0  0  0  0  0  0  0  0  0  0  0
    8.3572  -16.4692   22.8340 O   0  0  0  0  0  0  0  0  0  0  0  0
    9.7574  -15.3847   24.2898 N   0  0  0  0  0  0  0  0  0  0  0  0
   10.2158  -16.5783   24.9736 C   0  0  1  0  0  0  0  0  0  0  0  0
   11.2158  -16.2590   26.0134 C   0  0  0  0  0  0  0  0  0  0  0  0
   10.7221  -15.4479   27.1404 C   0  0  0  0  0  0  0  0  0  0  0  0
   10.7624  -15.8963   28.4336 C   0  0  0  0  0  0  0  0  0  0  0  0
   10.3094  -15.1439   29.4969 C   0  0  0  0  0  0  0  0  0  0  0  0
    9.7920  -13.8958   29.2672 C   0  0  0  0  0  0  0  0  0  0  0  0
    9.7323  -13.4065   27.9807 C   0  0  0  0  0  0  0  0  0  0  0  0
   10.1966  -14.1846   26.9249 C   0  0  0  0  0  0  0  0  0  0  0  0
    9.0598  -17.3961   25.4383 C   0  0  0  0  0  0  0  0  0  0  0  0
    9.1046  -18.6883   25.8664 O   0  0  0  0  0  0  0  0  0  0  0  0
    7.9067  -16.8272   25.4313 O   0  0  0  0  0  0  0  0  0  0  0  0
  2  1  1  6
  3  2  1  0
  3  4  1  0
  5  4  1  0
  5  6  1  0
  6  7  1  0
  8 10  1  0
  8  2  1  0
  9  8  2  0
 10 14  1  0
 11 12  1  0
 11 10  1  0
 12 13  1  0
 13 14  1  0
 14 15  1  1
 15 17  1  0
 16 15  2  0
 17 18  1  0
 18 19  1  1
 19 20  1  0
 20 21  2  0
 21 22  1  0
 23 22  2  0
 24 23  1  0
 25 24  2  0
 25 20  1  0
 26 27  1  0
 26 18  1  0
 28 26  2  0
M  END
$$$$
