KPF.pdb
     RDKit          3D

 28 29  0  0  1  0  0  0  0  0999 V2000
    8.5226  -17.4370   16.5417 N   0  0  0  0  0  0  0  0  0  0  0  0
    7.8628  -16.6176   17.4176 C   0  0  1  0  0  0  0  0  0  0  0  0
    6.7118  -17.2304   18.1315 C   0  0  0  0  0  0  0  0  0  0  0  0
    6.5383  -18.6335   18.3770 C   0  0  0  0  0  0  0  0  0  0  0  0
    7.0574  -19.4766   19.4327 C   0  0  0  0  0  0  0  0  0  0  0  0
    6.7634  -20.9300   19.3983 C   0  0  0  0  0  0  0  0  0  0  0  0
    7.5183  -21.4900   20.5795 N   0  0  0  0  0  0  0  0  0  0  0  0
    8.7155  -15.9631   18.4671 C   0  0  0  0  0  0  0  0  0  0  0  0
    9.9351  -16.3342   18.3977 O   0  0  0  0  0  0  0  0  0  0  0  0
    8.2683  -15.0416   19.4335 N   0  0  0  0  0  0  0  0  0  0  0  0
    6.9874  -14.4595   19.7451 C   0  0  0  0  0  0  0  0  0  0  0  0
    7.3373  -12.9772   19.8191 C   0  0  0  0  0  0  0  0  0  0  0  0
    8.7661  -12.9771   20.3024 C   0  0  0  0  0  0  0  0  0  0  0  0
    9.1359  -14.4368   20.4377 C   0  0  1  0  0  0  0  0  0  0  0  0
    8.9047  -14.9968   21.7771 C   0  0  0  0  0  0  0  0  0  0  0  0
    7.7157  -15.2674   22.1037 O   0  0  0  0  0  0  0  0  0  0  0  0
    9.9322  -15.2364   22.6891 N   0  0  0  0  0  0  0  0  0  0  0  0
    9.8652  -16.1996   23.7708 C   0  0  1  0  0  0  0  0  0  0  0  0
    9.5723  -17.5589   23.2710 C   0  0  0  0  0  0  0  0  0  0  0  0
   10.5970  -18.1448   22.3888 C   0  0  0  0  0  0  0  0  0  0  0  0
   10.3374  -19.2240   21.5869 C   0  0  0  0  0  0  0  0  0  0  0  0
   11.2861  -19.7768   20.7526 C   0  0  0  0  0  0  0  0  0  0  0  0
   12.5458  -19.2384   20.7145 C   0  0  0  0  0  0  0  0  0  0  0  0
   12.8494  -18.1524   21.5059 C   0  0  0  0  0  0  0  0  0  0  0  0
   11.8746  -17.6121   22.3387 C   0  0  0  0  0  0  0  0  0  0  0  0
   11.0669  -16.0933   24.6460 C   0  0  0  0  0  0  0  0  0  0  0  0
   11.2574  -16.7263   25.8369 O   0  0  0  0  0  0  0  0  0  0  0  0
   12.0152  -15.3265   24.2388 O   0  0  0  0  0  0  0  0  0  0  0  0
  2  1  1  1
  3  2  1  0
  3  4  1  0
  5  4  1  0
  5  6  1  0
  6  7  1  0
  8 10  1  0
  8  2  1  0
  9  8  2  0
 10 14  1  0
 11 12  1  0
 11 10  1  0
 12 13  1  0
 13 14  1  0
 14 15  1  1
 15 17  1  0
 16 15  2  0
 17 18  1  0
 18 19  1  6
 19 20  1  0
 20 21  2  0
 21 22  1  0
 23 22  2  0
 24 23  1  0
 25 24  2  0
 25 20  1  0
 26 27  1  0
 26 18  1  0
 28 26  2  0
M  END
$$$$
