KPF.pdb
     RDKit          3D

 28 29  0  0  1  0  0  0  0  0999 V2000
    5.7878  -18.7510   19.4201 N   0  0  0  0  0  0  0  0  0  0  0  0
    5.8045  -17.4023   19.6534 C   0  0  1  0  0  0  0  0  0  0  0  0
    4.8366  -16.9117   20.6696 C   0  0  0  0  0  0  0  0  0  0  0  0
    3.5297  -17.4564   20.9028 C   0  0  0  0  0  0  0  0  0  0  0  0
    3.1248  -18.7491   21.4125 C   0  0  0  0  0  0  0  0  0  0  0  0
    1.6780  -19.0646   21.4961 C   0  0  0  0  0  0  0  0  0  0  0  0
    1.6369  -20.5024   21.9542 N   0  0  0  0  0  0  0  0  0  0  0  0
    7.1399  -16.8204   20.0212 C   0  0  0  0  0  0  0  0  0  0  0  0
    8.0179  -17.7233   20.2309 O   0  0  0  0  0  0  0  0  0  0  0  0
    7.4371  -15.4485   20.1323 N   0  0  0  0  0  0  0  0  0  0  0  0
    6.6495  -14.2439   20.0583 C   0  0  0  0  0  0  0  0  0  0  0  0
    7.4651  -13.4075   19.0783 C   0  0  0  0  0  0  0  0  0  0  0  0
    8.8826  -13.8598   19.3252 C   0  0  0  0  0  0  0  0  0  0  0  0
    8.7751  -14.9284   20.3893 C   0  0  1  0  0  0  0  0  0  0  0  0
    8.9188  -14.4282   21.7642 C   0  0  0  0  0  0  0  0  0  0  0  0
    9.1445  -13.1961   21.9207 O   0  0  0  0  0  0  0  0  0  0  0  0
    8.8188  -15.2497   22.8868 N   0  0  0  0  0  0  0  0  0  0  0  0
    8.7231  -14.7705   24.2519 C   0  0  1  0  0  0  0  0  0  0  0  0
    7.3390  -14.3849   24.5969 C   0  0  0  0  0  0  0  0  0  0  0  0
    7.1932  -13.5678   25.8146 C   0  0  0  0  0  0  0  0  0  0  0  0
    7.3988  -14.0828   27.0666 C   0  0  0  0  0  0  0  0  0  0  0  0
    7.2716  -13.3265   28.2128 C   0  0  0  0  0  0  0  0  0  0  0  0
    6.9228  -12.0049   28.1128 C   0  0  0  0  0  0  0  0  0  0  0  0
    6.7060  -11.4470   26.8719 C   0  0  0  0  0  0  0  0  0  0  0  0
    6.8414  -12.2307   25.7304 C   0  0  0  0  0  0  0  0  0  0  0  0
    9.3650  -15.7309   25.1936 C   0  0  0  0  0  0  0  0  0  0  0  0
    9.9537  -15.4246   26.3830 O   0  0  0  0  0  0  0  0  0  0  0  0
    9.3662  -16.9693   24.8479 O   0  0  0  0  0  0  0  0  0  0  0  0
  2  1  1  1
  3  2  1  0
  3  4  1  0
  5  4  1  0
  5  6  1  0
  6  7  1  0
  8 10  1  0
  8  2  1  0
  9  8  2  0
 10 14  1  0
 11 12  1  0
 11 10  1  0
 12 13  1  0
 13 14  1  0
 14 15  1  1
 15 17  1  0
 16 15  2  0
 17 18  1  0
 18 19  1  1
 19 20  1  0
 20 21  2  0
 21 22  1  0
 23 22  2  0
 24 23  1  0
 25 24  2  0
 25 20  1  0
 26 27  1  0
 26 18  1  0
 28 26  2  0
M  END
$$$$
