KPF.pdb
     RDKit          3D

 28 29  0  0  1  0  0  0  0  0999 V2000
    5.5625  -18.7747   19.6716 N   0  0  0  0  0  0  0  0  0  0  0  0
    5.5722  -17.4670   20.0763 C   0  0  1  0  0  0  0  0  0  0  0  0
    4.6031  -17.1165   21.1477 C   0  0  0  0  0  0  0  0  0  0  0  0
    3.3390  -17.7592   21.3671 C   0  0  0  0  0  0  0  0  0  0  0  0
    3.0225  -19.0306   21.9820 C   0  0  0  0  0  0  0  0  0  0  0  0
    1.6339  -19.2782   22.4407 C   0  0  0  0  0  0  0  0  0  0  0  0
    1.1188  -20.3464   21.5066 N   0  0  0  0  0  0  0  0  0  0  0  0
    6.9049  -16.9297   20.5147 C   0  0  0  0  0  0  0  0  0  0  0  0
    7.8015  -17.8377   20.5537 O   0  0  0  0  0  0  0  0  0  0  0  0
    7.1817  -15.5908   20.8515 N   0  0  0  0  0  0  0  0  0  0  0  0
    6.3632  -14.4317   21.1040 C   0  0  0  0  0  0  0  0  0  0  0  0
    7.0305  -13.3890   20.2136 C   0  0  0  0  0  0  0  0  0  0  0  0
    8.4779  -13.8131   20.1999 C   0  0  0  0  0  0  0  0  0  0  0  0
    8.5289  -15.0664   21.0439 C   0  0  1  0  0  0  0  0  0  0  0  0
    8.8314  -14.8274   22.4625 C   0  0  0  0  0  0  0  0  0  0  0  0
    8.2472  -13.8652   23.0339 O   0  0  0  0  0  0  0  0  0  0  0  0
    9.7268  -15.6094   23.1915 N   0  0  0  0  0  0  0  0  0  0  0  0
   10.2249  -15.2767   24.5120 C   0  0  1  0  0  0  0  0  0  0  0  0
    9.1300  -15.1924   25.5007 C   0  0  0  0  0  0  0  0  0  0  0  0
    9.5435  -14.8771   26.8795 C   0  0  0  0  0  0  0  0  0  0  0  0
    9.5765  -13.5933   27.3548 C   0  0  0  0  0  0  0  0  0  0  0  0
    9.9554  -13.2866   28.6449 C   0  0  0  0  0  0  0  0  0  0  0  0
   10.3196  -14.2953   29.4980 C   0  0  0  0  0  0  0  0  0  0  0  0
   10.3012  -15.6014   29.0600 C   0  0  0  0  0  0  0  0  0  0  0  0
    9.9143  -15.8852   27.7541 C   0  0  0  0  0  0  0  0  0  0  0  0
   11.3517  -16.1752   24.8919 C   0  0  0  0  0  0  0  0  0  0  0  0
   11.3995  -17.5260   24.7244 O   0  0  0  0  0  0  0  0  0  0  0  0
   12.3777  -15.6214   25.4340 O   0  0  0  0  0  0  0  0  0  0  0  0
  2  1  1  1
  3  2  1  0
  3  4  1  0
  5  4  1  0
  5  6  1  0
  6  7  1  0
  8 10  1  0
  8  2  1  0
  9  8  2  0
 10 14  1  0
 11 12  1  0
 11 10  1  0
 12 13  1  0
 13 14  1  0
 14 15  1  1
 15 17  1  0
 16 15  2  0
 17 18  1  0
 18 19  1  1
 19 20  1  0
 20 21  2  0
 21 22  1  0
 23 22  2  0
 24 23  1  0
 25 24  2  0
 25 20  1  0
 26 27  1  0
 26 18  1  0
 28 26  2  0
M  END
$$$$
