AKF.pdb
     RDKit          3D

 26 26  0  0  1  0  0  0  0  0999 V2000
    7.2879  -19.7563   22.4347 C   0  0  0  0  0  0  0  0  0  0  0  0
    7.5656  -18.9738   21.1773 C   0  0  2  0  0  0  0  0  0  0  0  0
    8.1511  -19.8784   20.2088 N   0  0  0  0  0  0  0  0  0  0  0  0
    8.4841  -17.8465   21.3864 C   0  0  0  0  0  0  0  0  0  0  0  0
    9.7348  -17.9692   21.3140 O   0  0  0  0  0  0  0  0  0  0  0  0
    7.9772  -16.5553   21.6832 N   0  0  0  0  0  0  0  0  0  0  0  0
    8.8434  -15.3708   21.8028 C   0  0  1  0  0  0  0  0  0  0  0  0
    8.1820  -14.1866   21.1501 C   0  0  0  0  0  0  0  0  0  0  0  0
    7.8181  -14.5194   19.7351 C   0  0  0  0  0  0  0  0  0  0  0  0
    8.3320  -13.4587   18.7600 C   0  0  0  0  0  0  0  0  0  0  0  0
    7.8456  -13.6986   17.3503 C   0  0  0  0  0  0  0  0  0  0  0  0
    8.2604  -12.5389   16.5721 N   0  0  0  0  0  0  0  0  0  0  0  0
    9.2229  -15.1627   23.2073 C   0  0  0  0  0  0  0  0  0  0  0  0
   10.0398  -14.3111   23.6136 O   0  0  0  0  0  0  0  0  0  0  0  0
    8.6513  -15.9656   24.2635 N   0  0  0  0  0  0  0  0  0  0  0  0
    9.0067  -15.7619   25.6683 C   0  0  1  0  0  0  0  0  0  0  0  0
    7.7918  -15.5703   26.5098 C   0  0  0  0  0  0  0  0  0  0  0  0
    7.3562  -14.1649   26.4851 C   0  0  0  0  0  0  0  0  0  0  0  0
    6.1204  -13.7406   26.0740 C   0  0  0  0  0  0  0  0  0  0  0  0
    5.7389  -12.4029   26.0738 C   0  0  0  0  0  0  0  0  0  0  0  0
    6.6237  -11.4384   26.5011 C   0  0  0  0  0  0  0  0  0  0  0  0
    7.8681  -11.8518   26.9162 C   0  0  0  0  0  0  0  0  0  0  0  0
    8.2318  -13.1698   26.9120 C   0  0  0  0  0  0  0  0  0  0  0  0
    9.7875  -16.9238   26.1342 C   0  0  0  0  0  0  0  0  0  0  0  0
   10.2457  -17.0737   27.2936 O   0  0  0  0  0  0  0  0  0  0  0  0
   10.0477  -17.9583   25.2115 O   0  0  0  0  0  0  0  0  0  0  0  0
  2  4  1  0
  2  1  1  1
  3  2  1  0
  4  5  2  0
  6  7  1  0
  6  4  1  0
  7  8  1  1
  8  9  1  0
 10  9  1  0
 11 10  1  0
 12 11  1  0
 13 14  2  0
 13  7  1  0
 15 13  1  0
 16 24  1  0
 16 15  1  0
 16 17  1  1
 18 17  1  0
 19 18  2  0
 20 19  1  0
 21 20  2  0
 21 22  1  0
 22 23  2  0
 23 18  1  0
 24 26  1  0
 25 24  2  0
M  END
$$$$
