AKF.pdb
     RDKit          3D

 26 26  0  0  1  0  0  0  0  0999 V2000
    7.4756  -20.6082   20.9885 C   0  0  0  0  0  0  0  0  0  0  0  0
    7.4664  -19.7101   22.1983 C   0  0  2  0  0  0  0  0  0  0  0  0
    6.0860  -19.4839   22.5759 N   0  0  0  0  0  0  0  0  0  0  0  0
    8.1102  -18.4110   21.9615 C   0  0  0  0  0  0  0  0  0  0  0  0
    9.3245  -18.3039   21.6476 O   0  0  0  0  0  0  0  0  0  0  0  0
    7.3652  -17.2099   22.0823 N   0  0  0  0  0  0  0  0  0  0  0  0
    7.9594  -15.8815   21.8586 C   0  0  1  0  0  0  0  0  0  0  0  0
    6.8852  -14.9001   21.4728 C   0  0  0  0  0  0  0  0  0  0  0  0
    7.5058  -13.6111   21.0273 C   0  0  0  0  0  0  0  0  0  0  0  0
    7.7161  -13.5845   19.5123 C   0  0  0  0  0  0  0  0  0  0  0  0
    8.3596  -12.2986   19.0499 C   0  0  0  0  0  0  0  0  0  0  0  0
    8.5297  -12.4223   17.6083 N   0  0  0  0  0  0  0  0  0  0  0  0
    8.7613  -15.4843   23.0244 C   0  0  0  0  0  0  0  0  0  0  0  0
    9.5710  -14.5349   23.0514 O   0  0  0  0  0  0  0  0  0  0  0  0
    8.6642  -16.1971   24.2772 N   0  0  0  0  0  0  0  0  0  0  0  0
    9.3412  -15.7297   25.4873 C   0  0  1  0  0  0  0  0  0  0  0  0
    8.3724  -15.5166   26.5993 C   0  0  0  0  0  0  0  0  0  0  0  0
    7.6675  -14.2349   26.4389 C   0  0  0  0  0  0  0  0  0  0  0  0
    6.3111  -14.1053   26.2986 C   0  0  0  0  0  0  0  0  0  0  0  0
    5.6769  -12.8751   26.1593 C   0  0  0  0  0  0  0  0  0  0  0  0
    6.4216  -11.7169   26.1585 C   0  0  0  0  0  0  0  0  0  0  0  0
    7.7849  -11.8339   26.2983 C   0  0  0  0  0  0  0  0  0  0  0  0
    8.3971  -13.0488   26.4347 C   0  0  0  0  0  0  0  0  0  0  0  0
   10.3670  -16.7188   25.8699 C   0  0  0  0  0  0  0  0  0  0  0  0
   10.5811  -17.8078   25.2825 O   0  0  0  0  0  0  0  0  0  0  0  0
   11.1808  -16.4297   26.9849 O   0  0  0  0  0  0  0  0  0  0  0  0
  2  4  1  0
  2  1  1  6
  3  2  1  0
  4  5  2  0
  6  7  1  0
  6  4  1  0
  7  8  1  1
  8  9  1  0
 10  9  1  0
 11 10  1  0
 12 11  1  0
 13 14  2  0
 13  7  1  0
 15 13  1  0
 16 24  1  0
 16 15  1  0
 16 17  1  1
 18 17  1  0
 19 18  2  0
 20 19  1  0
 21 20  2  0
 21 22  1  0
 22 23  2  0
 23 18  1  0
 24 26  1  0
 25 24  2  0
M  END
$$$$
