AKF.pdb
     RDKit          3D

 26 26  0  0  1  0  0  0  0  0999 V2000
    6.8764  -19.5569   20.3432 C   0  0  0  0  0  0  0  0  0  0  0  0
    7.0062  -18.9159   21.7006 C   0  0  2  0  0  0  0  0  0  0  0  0
    5.7004  -18.4218   22.0877 N   0  0  0  0  0  0  0  0  0  0  0  0
    7.9604  -17.7992   21.7261 C   0  0  0  0  0  0  0  0  0  0  0  0
    9.1766  -17.9404   21.4338 O   0  0  0  0  0  0  0  0  0  0  0  0
    7.5297  -16.4973   22.0894 N   0  0  0  0  0  0  0  0  0  0  0  0
    8.4377  -15.3386   22.1129 C   0  0  1  0  0  0  0  0  0  0  0  0
    7.8374  -14.2035   21.3275 C   0  0  0  0  0  0  0  0  0  0  0  0
    7.7497  -14.5741   19.8783 C   0  0  0  0  0  0  0  0  0  0  0  0
    8.1202  -13.3963   18.9752 C   0  0  0  0  0  0  0  0  0  0  0  0
    7.9164  -13.7146   17.5129 C   0  0  0  0  0  0  0  0  0  0  0  0
    8.2636  -12.5048   16.7792 N   0  0  0  0  0  0  0  0  0  0  0  0
    8.7927  -15.0035   23.4991 C   0  0  0  0  0  0  0  0  0  0  0  0
    8.6922  -13.8711   24.0142 O   0  0  0  0  0  0  0  0  0  0  0  0
    9.3059  -16.0065   24.4033 N   0  0  0  0  0  0  0  0  0  0  0  0
    9.2307  -15.8489   25.8562 C   0  0  1  0  0  0  0  0  0  0  0  0
    7.8159  -15.7745   26.3182 C   0  0  0  0  0  0  0  0  0  0  0  0
    7.3432  -14.3809   26.3297 C   0  0  0  0  0  0  0  0  0  0  0  0
    6.1020  -13.9770   25.9144 C   0  0  0  0  0  0  0  0  0  0  0  0
    5.6849  -12.6504   25.9490 C   0  0  0  0  0  0  0  0  0  0  0  0
    6.5380  -11.6763   26.4172 C   0  0  0  0  0  0  0  0  0  0  0  0
    7.7875  -12.0693   26.8368 C   0  0  0  0  0  0  0  0  0  0  0  0
    8.1863  -13.3765   26.7982 C   0  0  0  0  0  0  0  0  0  0  0  0
    9.9300  -16.9809   26.4937 C   0  0  0  0  0  0  0  0  0  0  0  0
   10.3602  -17.9983   25.8966 O   0  0  0  0  0  0  0  0  0  0  0  0
   10.1391  -16.9285   27.8875 O   0  0  0  0  0  0  0  0  0  0  0  0
  2  4  1  0
  2  1  1  6
  3  2  1  0
  4  5  2  0
  6  7  1  0
  6  4  1  0
  7  8  1  1
  8  9  1  0
 10  9  1  0
 11 10  1  0
 12 11  1  0
 13 14  2  0
 13  7  1  0
 15 13  1  0
 16 24  1  0
 16 15  1  0
 16 17  1  1
 18 17  1  0
 19 18  2  0
 20 19  1  0
 21 20  2  0
 21 22  1  0
 22 23  2  0
 23 18  1  0
 24 26  1  0
 25 24  2  0
M  END
$$$$
