AKF.pdb
     RDKit          3D

 26 26  0  0  1  0  0  0  0  0999 V2000
    7.7789  -12.2474   20.0701 C   0  0  0  0  0  0  0  0  0  0  0  0
    7.9734  -13.6575   19.5762 C   0  0  2  0  0  0  0  0  0  0  0  0
    6.9507  -13.9290   18.5865 N   0  0  0  0  0  0  0  0  0  0  0  0
    7.8782  -14.6640   20.6421 C   0  0  0  0  0  0  0  0  0  0  0  0
    6.7792  -15.0173   21.1442 O   0  0  0  0  0  0  0  0  0  0  0  0
    9.0495  -15.2826   21.1497 N   0  0  0  0  0  0  0  0  0  0  0  0
    9.0070  -16.3648   22.1471 C   0  0  1  0  0  0  0  0  0  0  0  0
    9.8911  -17.5005   21.7062 C   0  0  0  0  0  0  0  0  0  0  0  0
    9.2733  -18.2058   20.5374 C   0  0  0  0  0  0  0  0  0  0  0  0
   10.1618  -19.3465   20.0378 C   0  0  0  0  0  0  0  0  0  0  0  0
    9.5628  -20.0533   18.8449 C   0  0  0  0  0  0  0  0  0  0  0  0
   10.5746  -20.9904   18.3749 N   0  0  0  0  0  0  0  0  0  0  0  0
    9.3138  -15.8330   23.4824 C   0  0  0  0  0  0  0  0  0  0  0  0
   10.2681  -15.0758   23.7538 O   0  0  0  0  0  0  0  0  0  0  0  0
    8.4954  -16.1644   24.6258 N   0  0  0  0  0  0  0  0  0  0  0  0
    8.8681  -15.7682   25.9843 C   0  0  1  0  0  0  0  0  0  0  0  0
    7.6689  -15.3908   26.7843 C   0  0  0  0  0  0  0  0  0  0  0  0
    7.2977  -13.9881   26.5384 C   0  0  0  0  0  0  0  0  0  0  0  0
    6.1135  -13.5828   25.9820 C   0  0  0  0  0  0  0  0  0  0  0  0
    5.7916  -12.2457   25.7735 C   0  0  0  0  0  0  0  0  0  0  0  0
    6.6855  -11.2620   26.1329 C   0  0  0  0  0  0  0  0  0  0  0  0
    7.8785  -11.6564   26.6923 C   0  0  0  0  0  0  0  0  0  0  0  0
    8.1838  -12.9740   26.8926 C   0  0  0  0  0  0  0  0  0  0  0  0
    9.5925  -16.8838   26.6226 C   0  0  0  0  0  0  0  0  0  0  0  0
   10.1404  -16.8429   27.7517 O   0  0  0  0  0  0  0  0  0  0  0  0
    9.6845  -18.1018   25.9175 O   0  0  0  0  0  0  0  0  0  0  0  0
  2  4  1  0
  2  1  1  1
  3  2  1  0
  4  5  2  0
  6  7  1  0
  6  4  1  0
  7  8  1  6
  8  9  1  0
 10  9  1  0
 11 10  1  0
 12 11  1  0
 13 14  2  0
 13  7  1  0
 15 13  1  0
 16 24  1  0
 16 15  1  0
 16 17  1  1
 18 17  1  0
 19 18  2  0
 20 19  1  0
 21 20  2  0
 21 22  1  0
 22 23  2  0
 23 18  1  0
 24 26  1  0
 25 24  2  0
M  END
$$$$
