AKF.pdb
     RDKit          3D

 26 26  0  0  1  0  0  0  0  0999 V2000
    8.1258  -11.9811   19.9384 C   0  0  0  0  0  0  0  0  0  0  0  0
    8.1975  -13.3579   19.3305 C   0  0  2  0  0  0  0  0  0  0  0  0
    7.2858  -13.3971   18.2051 N   0  0  0  0  0  0  0  0  0  0  0  0
    7.8338  -14.4269   20.2704 C   0  0  0  0  0  0  0  0  0  0  0  0
    6.6404  -14.6777   20.5824 O   0  0  0  0  0  0  0  0  0  0  0  0
    8.8405  -15.2275   20.8687 N   0  0  0  0  0  0  0  0  0  0  0  0
    8.5317  -16.3332   21.7905 C   0  0  1  0  0  0  0  0  0  0  0  0
    9.1292  -17.6133   21.2706 C   0  0  0  0  0  0  0  0  0  0  0  0
    8.2190  -18.2251   20.2496 C   0  0  0  0  0  0  0  0  0  0  0  0
    8.8557  -19.4524   19.5951 C   0  0  0  0  0  0  0  0  0  0  0  0
    7.9289  -20.1124   18.6017 C   0  0  0  0  0  0  0  0  0  0  0  0
    6.9452  -20.8469   19.3862 N   0  0  0  0  0  0  0  0  0  0  0  0
    8.9380  -15.9790   23.1577 C   0  0  0  0  0  0  0  0  0  0  0  0
   10.0482  -15.5082   23.4795 O   0  0  0  0  0  0  0  0  0  0  0  0
    8.0405  -16.1590   24.2753 N   0  0  0  0  0  0  0  0  0  0  0  0
    8.4858  -15.9929   25.6593 C   0  0  1  0  0  0  0  0  0  0  0  0
    7.3752  -15.5138   26.5295 C   0  0  0  0  0  0  0  0  0  0  0  0
    7.3145  -14.0435   26.5362 C   0  0  0  0  0  0  0  0  0  0  0  0
    8.4028  -13.2194   26.4232 C   0  0  0  0  0  0  0  0  0  0  0  0
    8.3068  -11.8317   26.4230 C   0  0  0  0  0  0  0  0  0  0  0  0
    7.0738  -11.2305   26.5408 C   0  0  0  0  0  0  0  0  0  0  0  0
    5.9731  -12.0473   26.6554 C   0  0  0  0  0  0  0  0  0  0  0  0
    6.0798  -13.4104   26.6542 C   0  0  0  0  0  0  0  0  0  0  0  0
    9.0131  -17.2819   26.1465 C   0  0  0  0  0  0  0  0  0  0  0  0
    8.8740  -18.3885   25.5698 O   0  0  0  0  0  0  0  0  0  0  0  0
    9.7346  -17.2854   27.3584 O   0  0  0  0  0  0  0  0  0  0  0  0
  2  4  1  0
  2  1  1  1
  3  2  1  0
  4  5  2  0
  6  7  1  0
  6  4  1  0
  7  8  1  6
  8  9  1  0
 10  9  1  0
 11 10  1  0
 12 11  1  0
 13 14  2  0
 13  7  1  0
 15 13  1  0
 16 24  1  0
 16 15  1  0
 16 17  1  1
 18 17  1  0
 19 18  2  0
 20 19  1  0
 21 20  2  0
 21 22  1  0
 22 23  2  0
 23 18  1  0
 24 26  1  0
 25 24  2  0
M  END
$$$$
