AKF.pdb
     RDKit          3D

 26 26  0  0  1  0  0  0  0  0999 V2000
    7.8491  -12.0857   20.3900 C   0  0  0  0  0  0  0  0  0  0  0  0
    7.9866  -13.4035   19.6725 C   0  0  2  0  0  0  0  0  0  0  0  0
    6.9296  -13.4867   18.6851 N   0  0  0  0  0  0  0  0  0  0  0  0
    7.8894  -14.5644   20.5676 C   0  0  0  0  0  0  0  0  0  0  0  0
    6.7921  -15.1141   20.8475 O   0  0  0  0  0  0  0  0  0  0  0  0
    9.0568  -15.1138   21.1573 N   0  0  0  0  0  0  0  0  0  0  0  0
    9.0210  -16.2911   22.0407 C   0  0  1  0  0  0  0  0  0  0  0  0
    9.8412  -17.4028   21.4433 C   0  0  0  0  0  0  0  0  0  0  0  0
    9.3557  -17.7102   20.0594 C   0  0  0  0  0  0  0  0  0  0  0  0
   10.1873  -18.8156   19.4064 C   0  0  0  0  0  0  0  0  0  0  0  0
    9.6328  -19.2262   18.0628 C   0  0  0  0  0  0  0  0  0  0  0  0
   10.5202  -20.2638   17.5544 N   0  0  0  0  0  0  0  0  0  0  0  0
    9.4089  -15.9097   23.4060 C   0  0  0  0  0  0  0  0  0  0  0  0
   10.4957  -15.3858   23.7256 O   0  0  0  0  0  0  0  0  0  0  0  0
    8.5195  -16.1242   24.5239 N   0  0  0  0  0  0  0  0  0  0  0  0
    8.9546  -15.9269   25.9071 C   0  0  1  0  0  0  0  0  0  0  0  0
    7.8177  -15.5111   26.7762 C   0  0  0  0  0  0  0  0  0  0  0  0
    7.5016  -14.0878   26.5766 C   0  0  0  0  0  0  0  0  0  0  0  0
    6.2577  -13.6026   26.2708 C   0  0  0  0  0  0  0  0  0  0  0  0
    5.9929  -12.2478   26.0991 C   0  0  0  0  0  0  0  0  0  0  0  0
    7.0089  -11.3288   26.2364 C   0  0  0  0  0  0  0  0  0  0  0  0
    8.2628  -11.8036   26.5429 C   0  0  0  0  0  0  0  0  0  0  0  0
    8.5110  -13.1378   26.7095 C   0  0  0  0  0  0  0  0  0  0  0  0
    9.5573  -17.1807   26.3989 C   0  0  0  0  0  0  0  0  0  0  0  0
   10.1273  -17.3266   27.5081 O   0  0  0  0  0  0  0  0  0  0  0  0
    9.4949  -18.3160   25.5644 O   0  0  0  0  0  0  0  0  0  0  0  0
  2  4  1  0
  2  1  1  1
  3  2  1  0
  4  5  2  0
  6  7  1  0
  6  4  1  0
  7  8  1  6
  8  9  1  0
 10  9  1  0
 11 10  1  0
 12 11  1  0
 13 14  2  0
 13  7  1  0
 15 13  1  0
 16 24  1  0
 16 15  1  0
 16 17  1  1
 18 17  1  0
 19 18  2  0
 20 19  1  0
 21 20  2  0
 21 22  1  0
 22 23  2  0
 23 18  1  0
 24 26  1  0
 25 24  2  0
M  END
$$$$
