AKF.pdb
     RDKit          3D

 26 26  0  0  1  0  0  0  0  0999 V2000
    6.3877  -19.3764   24.7346 C   0  0  0  0  0  0  0  0  0  0  0  0
    6.1744  -19.0995   23.2689 C   0  0  2  0  0  0  0  0  0  0  0  0
    6.3793  -20.3384   22.5461 N   0  0  0  0  0  0  0  0  0  0  0  0
    7.0883  -18.0825   22.7316 C   0  0  0  0  0  0  0  0  0  0  0  0
    8.2841  -18.3368   22.4317 O   0  0  0  0  0  0  0  0  0  0  0  0
    6.6400  -16.7518   22.5299 N   0  0  0  0  0  0  0  0  0  0  0  0
    7.5370  -15.6702   22.0903 C   0  0  1  0  0  0  0  0  0  0  0  0
    6.7251  -14.4968   21.6109 C   0  0  0  0  0  0  0  0  0  0  0  0
    7.6275  -13.4591   21.0159 C   0  0  0  0  0  0  0  0  0  0  0  0
    7.7329  -13.6121   19.4975 C   0  0  0  0  0  0  0  0  0  0  0  0
    8.6691  -12.5961   18.8870 C   0  0  0  0  0  0  0  0  0  0  0  0
    8.7065  -12.8815   17.4589 N   0  0  0  0  0  0  0  0  0  0  0  0
    8.5034  -15.3533   23.1511 C   0  0  0  0  0  0  0  0  0  0  0  0
    9.4815  -14.5878   23.0286 O   0  0  0  0  0  0  0  0  0  0  0  0
    8.3837  -15.9319   24.4694 N   0  0  0  0  0  0  0  0  0  0  0  0
    9.2640  -15.5376   25.5698 C   0  0  1  0  0  0  0  0  0  0  0  0
    8.4837  -15.2316   26.8019 C   0  0  0  0  0  0  0  0  0  0  0  0
    7.7984  -13.9353   26.6772 C   0  0  0  0  0  0  0  0  0  0  0  0
    6.4503  -13.7831   26.4879 C   0  0  0  0  0  0  0  0  0  0  0  0
    5.8344  -12.5401   26.3845 C   0  0  0  0  0  0  0  0  0  0  0  0
    6.5895  -11.3922   26.4725 C   0  0  0  0  0  0  0  0  0  0  0  0
    7.9446  -11.5319   26.6622 C   0  0  0  0  0  0  0  0  0  0  0  0
    8.5389  -12.7591   26.7625 C   0  0  0  0  0  0  0  0  0  0  0  0
   10.2295  -16.6251   25.8190 C   0  0  0  0  0  0  0  0  0  0  0  0
   11.1150  -16.6208   26.7091 O   0  0  0  0  0  0  0  0  0  0  0  0
   10.1630  -17.7693   24.9969 O   0  0  0  0  0  0  0  0  0  0  0  0
  2  4  1  0
  2  1  1  1
  3  2  1  0
  4  5  2  0
  6  7  1  0
  6  4  1  0
  7  8  1  1
  8  9  1  0
 10  9  1  0
 11 10  1  0
 12 11  1  0
 13 14  2  0
 13  7  1  0
 15 13  1  0
 16 24  1  0
 16 15  1  0
 16 17  1  1
 18 17  1  0
 19 18  2  0
 20 19  1  0
 21 20  2  0
 21 22  1  0
 22 23  2  0
 23 18  1  0
 24 26  1  0
 25 24  2  0
M  END
$$$$
