AKF.pdb
     RDKit          3D

 26 26  0  0  1  0  0  0  0  0999 V2000
    8.0561  -11.9371   20.1151 C   0  0  0  0  0  0  0  0  0  0  0  0
    8.1365  -13.2973   19.4721 C   0  0  2  0  0  0  0  0  0  0  0  0
    7.1891  -13.3299   18.3764 N   0  0  0  0  0  0  0  0  0  0  0  0
    7.8267  -14.3957   20.3973 C   0  0  0  0  0  0  0  0  0  0  0  0
    6.6487  -14.6905   20.7287 O   0  0  0  0  0  0  0  0  0  0  0  0
    8.8706  -15.1755   20.9582 N   0  0  0  0  0  0  0  0  0  0  0  0
    8.6207  -16.2620   21.9199 C   0  0  1  0  0  0  0  0  0  0  0  0
    9.1605  -17.5581   21.3773 C   0  0  0  0  0  0  0  0  0  0  0  0
    8.2320  -18.1027   20.3349 C   0  0  0  0  0  0  0  0  0  0  0  0
    8.7498  -19.4208   19.7567 C   0  0  0  0  0  0  0  0  0  0  0  0
    7.8700  -19.9382   18.6434 C   0  0  0  0  0  0  0  0  0  0  0  0
    8.5348  -21.1214   18.1136 N   0  0  0  0  0  0  0  0  0  0  0  0
    9.1361  -15.8913   23.2454 C   0  0  0  0  0  0  0  0  0  0  0  0
   10.2364  -15.3438   23.4626 O   0  0  0  0  0  0  0  0  0  0  0  0
    8.3706  -16.1462   24.4438 N   0  0  0  0  0  0  0  0  0  0  0  0
    8.9008  -15.8557   25.7764 C   0  0  1  0  0  0  0  0  0  0  0  0
    7.8202  -15.4138   26.7023 C   0  0  0  0  0  0  0  0  0  0  0  0
    7.4866  -13.9983   26.4774 C   0  0  0  0  0  0  0  0  0  0  0  0
    8.2051  -12.9417   26.9711 C   0  0  0  0  0  0  0  0  0  0  0  0
    7.8659  -11.6145   26.7294 C   0  0  0  0  0  0  0  0  0  0  0  0
    6.7615  -11.3188   25.9620 C   0  0  0  0  0  0  0  0  0  0  0  0
    6.0315  -12.3712   25.4608 C   0  0  0  0  0  0  0  0  0  0  0  0
    6.3749  -13.6719   25.7050 C   0  0  0  0  0  0  0  0  0  0  0  0
    9.5718  -17.0634   26.2943 C   0  0  0  0  0  0  0  0  0  0  0  0
   10.2254  -17.1289   27.3644 O   0  0  0  0  0  0  0  0  0  0  0  0
    9.4792  -18.2482   25.5349 O   0  0  0  0  0  0  0  0  0  0  0  0
  2  4  1  0
  2  1  1  1
  3  2  1  0
  4  5  2  0
  6  7  1  0
  6  4  1  0
  7  8  1  6
  8  9  1  0
 10  9  1  0
 11 10  1  0
 12 11  1  0
 13 14  2  0
 13  7  1  0
 15 13  1  0
 16 24  1  0
 16 15  1  0
 16 17  1  1
 18 17  1  0
 19 18  2  0
 20 19  1  0
 21 20  2  0
 21 22  1  0
 22 23  2  0
 23 18  1  0
 24 26  1  0
 25 24  2  0
M  END
$$$$
