AKF.pdb
     RDKit          3D

 26 26  0  0  1  0  0  0  0  0999 V2000
    8.6260  -12.1277   19.8145 C   0  0  0  0  0  0  0  0  0  0  0  0
    8.1390  -13.4615   19.3102 C   0  0  2  0  0  0  0  0  0  0  0  0
    6.9730  -13.2272   18.4828 N   0  0  0  0  0  0  0  0  0  0  0  0
    7.7746  -14.3912   20.3877 C   0  0  0  0  0  0  0  0  0  0  0  0
    6.6788  -14.3193   21.0030 O   0  0  0  0  0  0  0  0  0  0  0  0
    8.6677  -15.4226   20.7763 N   0  0  0  0  0  0  0  0  0  0  0  0
    8.2780  -16.5061   21.6938 C   0  0  1  0  0  0  0  0  0  0  0  0
    8.7926  -17.8228   21.1767 C   0  0  0  0  0  0  0  0  0  0  0  0
    8.3324  -18.9370   22.0667 C   0  0  0  0  0  0  0  0  0  0  0  0
    8.9352  -20.2777   21.6433 C   0  0  0  0  0  0  0  0  0  0  0  0
    8.3919  -21.4281   22.4574 C   0  0  0  0  0  0  0  0  0  0  0  0
    9.1613  -22.6027   22.0689 N   0  0  0  0  0  0  0  0  0  0  0  0
    8.6960  -16.1813   23.0648 C   0  0  0  0  0  0  0  0  0  0  0  0
    9.8240  -15.7595   23.3926 O   0  0  0  0  0  0  0  0  0  0  0  0
    7.7898  -16.3345   24.1794 N   0  0  0  0  0  0  0  0  0  0  0  0
    8.1803  -15.9891   25.5467 C   0  0  1  0  0  0  0  0  0  0  0  0
    7.0300  -15.4300   26.3113 C   0  0  0  0  0  0  0  0  0  0  0  0
    7.0925  -13.9602   26.3478 C   0  0  0  0  0  0  0  0  0  0  0  0
    8.2025  -13.2372   26.6961 C   0  0  0  0  0  0  0  0  0  0  0  0
    8.2286  -11.8465   26.7096 C   0  0  0  0  0  0  0  0  0  0  0  0
    7.1011  -11.1370   26.3616 C   0  0  0  0  0  0  0  0  0  0  0  0
    5.9797  -11.8517   26.0101 C   0  0  0  0  0  0  0  0  0  0  0  0
    5.9661  -13.2188   26.0005 C   0  0  0  0  0  0  0  0  0  0  0  0
    8.7108  -17.1964   26.2086 C   0  0  0  0  0  0  0  0  0  0  0  0
    9.2608  -17.2240   27.3370 O   0  0  0  0  0  0  0  0  0  0  0  0
    8.5972  -18.4269   25.5288 O   0  0  0  0  0  0  0  0  0  0  0  0
  2  4  1  0
  2  1  1  1
  3  2  1  0
  4  5  2  0
  6  7  1  0
  6  4  1  0
  7  8  1  6
  8  9  1  0
 10  9  1  0
 11 10  1  0
 12 11  1  0
 13 14  2  0
 13  7  1  0
 15 13  1  0
 16 24  1  0
 16 15  1  0
 16 17  1  1
 18 17  1  0
 19 18  2  0
 20 19  1  0
 21 20  2  0
 21 22  1  0
 22 23  2  0
 23 18  1  0
 24 26  1  0
 25 24  2  0
M  END
$$$$
