AKF.pdb
     RDKit          3D

 26 26  0  0  1  0  0  0  0  0999 V2000
    5.9817  -18.7753   25.2777 C   0  0  0  0  0  0  0  0  0  0  0  0
    5.9900  -18.5089   23.7948 C   0  0  2  0  0  0  0  0  0  0  0  0
    5.9424  -19.7856   23.1116 N   0  0  0  0  0  0  0  0  0  0  0  0
    7.1804  -17.7758   23.3436 C   0  0  0  0  0  0  0  0  0  0  0  0
    8.2797  -18.3445   23.1139 O   0  0  0  0  0  0  0  0  0  0  0  0
    7.1257  -16.3717   23.1485 N   0  0  0  0  0  0  0  0  0  0  0  0
    8.3043  -15.5771   22.7648 C   0  0  1  0  0  0  0  0  0  0  0  0
    7.8657  -14.3175   22.0672 C   0  0  0  0  0  0  0  0  0  0  0  0
    7.4962  -14.6211   20.6472 C   0  0  0  0  0  0  0  0  0  0  0  0
    8.0568  -13.5717   19.6856 C   0  0  0  0  0  0  0  0  0  0  0  0
    7.5792  -13.7857   18.2688 C   0  0  0  0  0  0  0  0  0  0  0  0
    8.1099  -12.6768   17.4869 N   0  0  0  0  0  0  0  0  0  0  0  0
    9.1691  -15.3605   23.9332 C   0  0  0  0  0  0  0  0  0  0  0  0
    9.0572  -14.4211   24.7472 O   0  0  0  0  0  0  0  0  0  0  0  0
   10.2583  -16.2603   24.2349 N   0  0  0  0  0  0  0  0  0  0  0  0
   11.1504  -16.0400   25.3737 C   0  0  1  0  0  0  0  0  0  0  0  0
   10.4300  -16.2191   26.6658 C   0  0  0  0  0  0  0  0  0  0  0  0
    9.7601  -14.9718   27.0671 C   0  0  0  0  0  0  0  0  0  0  0  0
    8.5158  -14.5860   26.6437 C   0  0  0  0  0  0  0  0  0  0  0  0
    7.9084  -13.4032   27.0523 C   0  0  0  0  0  0  0  0  0  0  0  0
    8.5645  -12.5613   27.9219 C   0  0  0  0  0  0  0  0  0  0  0  0
    9.8149  -12.9374   28.3541 C   0  0  0  0  0  0  0  0  0  0  0  0
   10.4019  -14.1027   27.9456 C   0  0  0  0  0  0  0  0  0  0  0  0
   12.2870  -16.9756   25.2747 C   0  0  0  0  0  0  0  0  0  0  0  0
   13.2454  -17.0427   26.0831 O   0  0  0  0  0  0  0  0  0  0  0  0
   12.3111  -17.8738   24.1876 O   0  0  0  0  0  0  0  0  0  0  0  0
  2  4  1  0
  2  1  1  1
  3  2  1  0
  4  5  2  0
  6  7  1  0
  6  4  1  0
  7  8  1  1
  8  9  1  0
 10  9  1  0
 11 10  1  0
 12 11  1  0
 13 14  2  0
 13  7  1  0
 15 13  1  0
 16 24  1  0
 16 15  1  0
 16 17  1  1
 18 17  1  0
 19 18  2  0
 20 19  1  0
 21 20  2  0
 21 22  1  0
 22 23  2  0
 23 18  1  0
 24 26  1  0
 25 24  2  0
M  END
$$$$
