AKF.pdb
     RDKit          3D

 26 26  0  0  1  0  0  0  0  0999 V2000
    5.5246  -18.5177   22.5312 C   0  0  0  0  0  0  0  0  0  0  0  0
    6.0432  -18.0127   21.2097 C   0  0  2  0  0  0  0  0  0  0  0  0
    6.3752  -19.1618   20.3920 N   0  0  0  0  0  0  0  0  0  0  0  0
    7.2360  -17.1652   21.3401 C   0  0  0  0  0  0  0  0  0  0  0  0
    8.4048  -17.6318   21.3135 O   0  0  0  0  0  0  0  0  0  0  0  0
    7.1034  -15.7623   21.5037 N   0  0  0  0  0  0  0  0  0  0  0  0
    8.2632  -14.8580   21.5717 C   0  0  1  0  0  0  0  0  0  0  0  0
    7.8551  -13.4716   21.1509 C   0  0  0  0  0  0  0  0  0  0  0  0
    7.2791  -13.5054   19.7681 C   0  0  0  0  0  0  0  0  0  0  0  0
    8.3775  -13.5612   18.7048 C   0  0  0  0  0  0  0  0  0  0  0  0
    7.8193  -13.4628   17.3047 C   0  0  0  0  0  0  0  0  0  0  0  0
    8.9418  -13.6784   16.4013 N   0  0  0  0  0  0  0  0  0  0  0  0
    8.8867  -14.9359   22.9003 C   0  0  0  0  0  0  0  0  0  0  0  0
   10.0132  -14.4861   23.1943 O   0  0  0  0  0  0  0  0  0  0  0  0
    8.2088  -15.5668   24.0091 N   0  0  0  0  0  0  0  0  0  0  0  0
    8.7319  -15.5007   25.3741 C   0  0  1  0  0  0  0  0  0  0  0  0
    7.6304  -15.3601   26.3677 C   0  0  0  0  0  0  0  0  0  0  0  0
    7.1858  -13.9603   26.4597 C   0  0  0  0  0  0  0  0  0  0  0  0
    5.8783  -13.5642   26.5593 C   0  0  0  0  0  0  0  0  0  0  0  0
    5.4949  -12.2305   26.6549 C   0  0  0  0  0  0  0  0  0  0  0  0
    6.4520  -11.2408   26.6513 C   0  0  0  0  0  0  0  0  0  0  0  0
    7.7687  -11.6258   26.5513 C   0  0  0  0  0  0  0  0  0  0  0  0
    8.1336  -12.9401   26.4580 C   0  0  0  0  0  0  0  0  0  0  0  0
    9.5231  -16.7175   25.6391 C   0  0  0  0  0  0  0  0  0  0  0  0
   10.1500  -16.9599   26.6997 O   0  0  0  0  0  0  0  0  0  0  0  0
    9.5887  -17.6969   24.6264 O   0  0  0  0  0  0  0  0  0  0  0  0
  2  4  1  0
  2  1  1  1
  3  2  1  0
  4  5  2  0
  6  7  1  0
  6  4  1  0
  7  8  1  1
  8  9  1  0
 10  9  1  0
 11 10  1  0
 12 11  1  0
 13 14  2  0
 13  7  1  0
 15 13  1  0
 16 24  1  0
 16 15  1  0
 16 17  1  1
 18 17  1  0
 19 18  2  0
 20 19  1  0
 21 20  2  0
 21 22  1  0
 22 23  2  0
 23 18  1  0
 24 26  1  0
 25 24  2  0
M  END
$$$$
