AKF.pdb
     RDKit          3D

 26 26  0  0  1  0  0  0  0  0999 V2000
    8.6071  -18.7416   19.0748 C   0  0  0  0  0  0  0  0  0  0  0  0
    8.5796  -18.4658   20.5559 C   0  0  2  0  0  0  0  0  0  0  0  0
    7.2063  -18.5738   21.0046 N   0  0  0  0  0  0  0  0  0  0  0  0
    9.0880  -17.1331   20.9075 C   0  0  0  0  0  0  0  0  0  0  0  0
   10.2613  -16.7634   20.6404 O   0  0  0  0  0  0  0  0  0  0  0  0
    8.2523  -16.2008   21.5743 N   0  0  0  0  0  0  0  0  0  0  0  0
    8.6947  -14.8375   21.9112 C   0  0  1  0  0  0  0  0  0  0  0  0
    7.6179  -13.8483   21.5537 C   0  0  0  0  0  0  0  0  0  0  0  0
    7.2068  -14.0337   20.1248 C   0  0  0  0  0  0  0  0  0  0  0  0
    8.1049  -13.2384   19.1756 C   0  0  0  0  0  0  0  0  0  0  0  0
    7.6224  -13.3057   17.7459 C   0  0  0  0  0  0  0  0  0  0  0  0
    8.5311  -12.4737   16.9684 N   0  0  0  0  0  0  0  0  0  0  0  0
    9.1366  -14.7819   23.3117 C   0  0  0  0  0  0  0  0  0  0  0  0
    9.4611  -13.7435   23.9234 O   0  0  0  0  0  0  0  0  0  0  0  0
    9.2306  -15.9791   24.1147 N   0  0  0  0  0  0  0  0  0  0  0  0
    8.9668  -15.9676   25.5540 C   0  0  1  0  0  0  0  0  0  0  0  0
    7.5190  -15.7544   25.8354 C   0  0  0  0  0  0  0  0  0  0  0  0
    7.2624  -14.3576   26.2207 C   0  0  0  0  0  0  0  0  0  0  0  0
    8.2318  -13.4587   26.5792 C   0  0  0  0  0  0  0  0  0  0  0  0
    7.9533  -12.1413   26.9281 C   0  0  0  0  0  0  0  0  0  0  0  0
    6.6518  -11.6919   26.9223 C   0  0  0  0  0  0  0  0  0  0  0  0
    5.6691  -12.5852   26.5645 C   0  0  0  0  0  0  0  0  0  0  0  0
    5.9551  -13.8779   26.2232 C   0  0  0  0  0  0  0  0  0  0  0  0
    9.4295  -17.2438   26.1320 C   0  0  0  0  0  0  0  0  0  0  0  0
    9.7178  -18.2757   25.4774 O   0  0  0  0  0  0  0  0  0  0  0  0
    9.5632  -17.3247   27.5337 O   0  0  0  0  0  0  0  0  0  0  0  0
  2  4  1  0
  2  1  1  6
  3  2  1  0
  4  5  2  0
  6  7  1  0
  6  4  1  0
  7  8  1  1
  8  9  1  0
 10  9  1  0
 11 10  1  0
 12 11  1  0
 13 14  2  0
 13  7  1  0
 15 13  1  0
 16 24  1  0
 16 15  1  0
 16 17  1  6
 18 17  1  0
 19 18  2  0
 20 19  1  0
 21 20  2  0
 21 22  1  0
 22 23  2  0
 23 18  1  0
 24 26  1  0
 25 24  2  0
M  END
$$$$
