AKF.pdb
     RDKit          3D

 26 26  0  0  1  0  0  0  0  0999 V2000
    8.7282  -12.5005   18.8314 C   0  0  0  0  0  0  0  0  0  0  0  0
    8.7065  -13.9388   18.3830 C   0  0  2  0  0  0  0  0  0  0  0  0
    7.7421  -14.0569   17.3083 N   0  0  0  0  0  0  0  0  0  0  0  0
    8.3378  -14.8748   19.4536 C   0  0  0  0  0  0  0  0  0  0  0  0
    7.1815  -14.9156   19.9494 O   0  0  0  0  0  0  0  0  0  0  0  0
    9.2965  -15.7822   19.9731 N   0  0  0  0  0  0  0  0  0  0  0  0
    8.9985  -16.7020   21.0835 C   0  0  1  0  0  0  0  0  0  0  0  0
    9.8480  -17.9389   20.9638 C   0  0  0  0  0  0  0  0  0  0  0  0
    9.2043  -18.9128   20.0245 C   0  0  0  0  0  0  0  0  0  0  0  0
   10.0997  -20.1282   19.7772 C   0  0  0  0  0  0  0  0  0  0  0  0
    9.5004  -21.0806   18.7696 C   0  0  0  0  0  0  0  0  0  0  0  0
   10.4498  -22.1766   18.6284 N   0  0  0  0  0  0  0  0  0  0  0  0
    9.1193  -15.9984   22.3681 C   0  0  0  0  0  0  0  0  0  0  0  0
   10.1439  -15.4128   22.7745 O   0  0  0  0  0  0  0  0  0  0  0  0
    8.0107  -15.9322   23.2920 N   0  0  0  0  0  0  0  0  0  0  0  0
    8.0557  -15.1010   24.4955 C   0  0  1  0  0  0  0  0  0  0  0  0
    7.0035  -14.0463   24.4624 C   0  0  0  0  0  0  0  0  0  0  0  0
    7.0062  -13.2670   25.7106 C   0  0  0  0  0  0  0  0  0  0  0  0
    8.1181  -12.6910   26.2658 C   0  0  0  0  0  0  0  0  0  0  0  0
    8.0817  -11.9514   27.4433 C   0  0  0  0  0  0  0  0  0  0  0  0
    6.8866  -11.7735   28.1036 C   0  0  0  0  0  0  0  0  0  0  0  0
    5.7628  -12.3473   27.5562 C   0  0  0  0  0  0  0  0  0  0  0  0
    5.8109  -13.0722   26.3980 C   0  0  0  0  0  0  0  0  0  0  0  0
    7.8901  -15.9679   25.6779 C   0  0  0  0  0  0  0  0  0  0  0  0
    8.5864  -15.9142   26.7214 O   0  0  0  0  0  0  0  0  0  0  0  0
    6.8694  -16.9407   25.6467 O   0  0  0  0  0  0  0  0  0  0  0  0
  2  4  1  0
  2  1  1  1
  3  2  1  0
  4  5  2  0
  6  7  1  0
  6  4  1  0
  7  8  1  1
  8  9  1  0
 10  9  1  0
 11 10  1  0
 12 11  1  0
 13 14  2  0
 13  7  1  0
 15 13  1  0
 16 24  1  0
 16 15  1  0
 16 17  1  6
 18 17  1  0
 19 18  2  0
 20 19  1  0
 21 20  2  0
 21 22  1  0
 22 23  2  0
 23 18  1  0
 24 26  1  0
 25 24  2  0
M  END
$$$$
