AKF.pdb
     RDKit          3D

 26 26  0  0  1  0  0  0  0  0999 V2000
    8.8713  -12.7440   19.5325 C   0  0  0  0  0  0  0  0  0  0  0  0
    8.0032  -13.9614   19.3466 C   0  0  2  0  0  0  0  0  0  0  0  0
    6.8191  -13.5580   18.6156 N   0  0  0  0  0  0  0  0  0  0  0  0
    7.5887  -14.5776   20.6142 C   0  0  0  0  0  0  0  0  0  0  0  0
    6.6879  -14.0865   21.3435 O   0  0  0  0  0  0  0  0  0  0  0  0
    8.2057  -15.7727   21.0650 N   0  0  0  0  0  0  0  0  0  0  0  0
    7.8024  -16.4549   22.3059 C   0  0  1  0  0  0  0  0  0  0  0  0
    7.5050  -17.9023   22.0193 C   0  0  0  0  0  0  0  0  0  0  0  0
    7.1561  -18.6145   23.2906 C   0  0  0  0  0  0  0  0  0  0  0  0
    6.7449  -20.0640   23.0263 C   0  0  0  0  0  0  0  0  0  0  0  0
    6.2141  -20.7402   24.2682 C   0  0  0  0  0  0  0  0  0  0  0  0
    5.6316  -22.0014   23.8294 N   0  0  0  0  0  0  0  0  0  0  0  0
    8.8085  -16.2326   23.3539 C   0  0  0  0  0  0  0  0  0  0  0  0
   10.0294  -16.4652   23.2406 O   0  0  0  0  0  0  0  0  0  0  0  0
    8.4379  -15.7056   24.6469 N   0  0  0  0  0  0  0  0  0  0  0  0
    9.4186  -15.5234   25.7177 C   0  0  1  0  0  0  0  0  0  0  0  0
    9.6141  -14.0795   26.0301 C   0  0  0  0  0  0  0  0  0  0  0  0
    8.3189  -13.3910   26.1483 C   0  0  0  0  0  0  0  0  0  0  0  0
    7.6415  -13.2044   27.3241 C   0  0  0  0  0  0  0  0  0  0  0  0
    6.4224  -12.5388   27.3999 C   0  0  0  0  0  0  0  0  0  0  0  0
    5.8457  -12.0336   26.2562 C   0  0  0  0  0  0  0  0  0  0  0  0
    6.5162  -12.2149   25.0690 C   0  0  0  0  0  0  0  0  0  0  0  0
    7.7142  -12.8708   25.0069 C   0  0  0  0  0  0  0  0  0  0  0  0
    8.9606  -16.2594   26.9116 C   0  0  0  0  0  0  0  0  0  0  0  0
    7.8548  -16.8431   27.0254 O   0  0  0  0  0  0  0  0  0  0  0  0
    9.8264  -16.3200   28.0233 O   0  0  0  0  0  0  0  0  0  0  0  0
  2  4  1  0
  2  1  1  1
  3  2  1  0
  4  5  2  0
  6  7  1  0
  6  4  1  0
  7  8  1  6
  8  9  1  0
 10  9  1  0
 11 10  1  0
 12 11  1  0
 13 14  2  0
 13  7  1  0
 15 13  1  0
 16 24  1  0
 16 15  1  0
 16 17  1  1
 18 17  1  0
 19 18  2  0
 20 19  1  0
 21 20  2  0
 21 22  1  0
 22 23  2  0
 23 18  1  0
 24 26  1  0
 25 24  2  0
M  END
$$$$
