PPR.pdb
     RDKit          3D

 26 27  0  0  1  0  0  0  0  0999 V2000
   29.5682  -20.0998  -10.3783 N   0  0  0  0  0  0  0  0  0  0  0  0
   30.5890  -21.0760  -10.1104 C   0  0  0  0  0  0  0  0  0  0  0  0
   30.0998  -22.3997  -10.5987 C   0  0  0  0  0  0  0  0  0  0  0  0
   28.6856  -22.0758  -11.0868 C   0  0  0  0  0  0  0  0  0  0  0  0
   28.9205  -20.6378  -11.5726 C   0  0  1  0  0  0  0  0  0  0  0  0
   27.6555  -19.9478  -11.8718 C   0  0  0  0  0  0  0  0  0  0  0  0
   27.1931  -19.1809  -10.9883 O   0  0  0  0  0  0  0  0  0  0  0  0
   27.0208  -20.1684  -13.1157 N   0  0  0  0  0  0  0  0  0  0  0  0
   27.4272  -21.1059  -14.1326 C   0  0  0  0  0  0  0  0  0  0  0  0
   27.0580  -20.4015  -15.4188 C   0  0  0  0  0  0  0  0  0  0  0  0
   26.2647  -19.1785  -15.0414 C   0  0  0  0  0  0  0  0  0  0  0  0
   25.8457  -19.4951  -13.6022 C   0  0  1  0  0  0  0  0  0  0  0  0
   24.6637  -20.3893  -13.6565 C   0  0  0  0  0  0  0  0  0  0  0  0
   24.8537  -21.5915  -13.9629 O   0  0  0  0  0  0  0  0  0  0  0  0
   20.2772  -23.6496   -8.3921 N   0  0  0  0  0  0  0  0  0  0  0  0
   19.2102  -22.7081   -8.5022 C   0  0  0  0  0  0  0  0  0  0  0  0
   18.0078  -23.1078   -8.2206 N   0  0  0  0  0  0  0  0  0  0  0  0
   19.4070  -21.3657   -8.9032 N   0  0  0  0  0  0  0  0  0  0  0  0
   20.7660  -20.8763   -9.2862 C   0  0  0  0  0  0  0  0  0  0  0  0
   20.7728  -20.8558  -10.7692 C   0  0  0  0  0  0  0  0  0  0  0  0
   21.8568  -20.2606  -11.5446 C   0  0  0  0  0  0  0  0  0  0  0  0
   22.3648  -20.9477  -12.7459 C   0  0  2  0  0  0  0  0  0  0  0  0
   23.3521  -19.9637  -13.3849 N   0  0  0  0  0  0  0  0  0  0  0  0
   21.3467  -21.1668  -13.7962 C   0  0  0  0  0  0  0  0  0  0  0  0
   21.0575  -20.4429  -14.7448 O   0  0  0  0  0  0  0  0  0  0  0  0
   20.5861  -22.3628  -13.7282 O   0  0  0  0  0  0  0  0  0  0  0  0
  2  1  1  0
  3  2  1  0
  4  3  1  0
  4  5  1  0
  5  6  1  1
  5  1  1  0
  6  7  2  0
  8  6  1  0
  8  9  1  0
  9 10  1  0
 11 10  1  0
 12  8  1  0
 12 11  1  0
 13 14  2  0
 12 13  1  6
 16 15  1  0
 17 16  2  0
 18 16  1  0
 19 20  1  0
 19 18  1  0
 20 21  1  0
 22 21  1  1
 22 23  1  0
 22 24  1  0
 23 13  1  0
 24 26  1  0
 25 24  2  0
M  END
$$$$
