PPR.pdb
     RDKit          3D

 26 27  0  0  1  0  0  0  0  0999 V2000
   27.2758  -22.8178  -17.3043 N   0  0  0  0  0  0  0  0  0  0  0  0
   27.3514  -22.4283  -18.6861 C   0  0  0  0  0  0  0  0  0  0  0  0
   26.4214  -21.2782  -18.8918 C   0  0  0  0  0  0  0  0  0  0  0  0
   25.7695  -21.1231  -17.5156 C   0  0  0  0  0  0  0  0  0  0  0  0
   26.9518  -21.5587  -16.6372 C   0  0  1  0  0  0  0  0  0  0  0  0
   26.5467  -21.7649  -15.2374 C   0  0  0  0  0  0  0  0  0  0  0  0
   26.4630  -22.9519  -14.8294 O   0  0  0  0  0  0  0  0  0  0  0  0
   26.2726  -20.6439  -14.4209 N   0  0  0  0  0  0  0  0  0  0  0  0
   26.4012  -19.2575  -14.7947 C   0  0  0  0  0  0  0  0  0  0  0  0
   26.8337  -18.5917  -13.5075 C   0  0  0  0  0  0  0  0  0  0  0  0
   26.7225  -19.6237  -12.4166 C   0  0  0  0  0  0  0  0  0  0  0  0
   25.8127  -20.6766  -13.0577 C   0  0  1  0  0  0  0  0  0  0  0  0
   24.4106  -20.2123  -12.9229 C   0  0  0  0  0  0  0  0  0  0  0  0
   23.9053  -19.5905  -13.8890 O   0  0  0  0  0  0  0  0  0  0  0  0
   18.7514  -24.2252   -6.9226 N   0  0  0  0  0  0  0  0  0  0  0  0
   18.2365  -24.1500   -8.2516 C   0  0  0  0  0  0  0  0  0  0  0  0
   17.1274  -24.7705   -8.5159 N   0  0  0  0  0  0  0  0  0  0  0  0
   18.8804  -23.4321   -9.2867 N   0  0  0  0  0  0  0  0  0  0  0  0
   20.2247  -22.8178   -9.0659 C   0  0  0  0  0  0  0  0  0  0  0  0
   20.6073  -22.2294  -10.3726 C   0  0  0  0  0  0  0  0  0  0  0  0
   21.8769  -21.5417  -10.5862 C   0  0  0  0  0  0  0  0  0  0  0  0
   22.2389  -21.0684  -11.9346 C   0  0  2  0  0  0  0  0  0  0  0  0
   23.6246  -20.4305  -11.7785 N   0  0  0  0  0  0  0  0  0  0  0  0
   21.3915  -19.9659  -12.4390 C   0  0  0  0  0  0  0  0  0  0  0  0
   20.4318  -20.0259  -13.2023 O   0  0  0  0  0  0  0  0  0  0  0  0
   21.7017  -18.6522  -12.0014 O   0  0  0  0  0  0  0  0  0  0  0  0
  2  1  1  0
  3  2  1  0
  4  3  1  0
  4  5  1  0
  5  6  1  1
  5  1  1  0
  6  7  2  0
  8  6  1  0
  8  9  1  0
  9 10  1  0
 11 10  1  0
 12  8  1  0
 12 11  1  0
 13 14  2  0
 12 13  1  6
 16 15  1  0
 17 16  2  0
 18 16  1  0
 19 20  1  0
 19 18  1  0
 20 21  1  0
 22 21  1  1
 22 23  1  0
 22 24  1  0
 23 13  1  0
 24 26  1  0
 25 24  2  0
M  END
$$$$
