PPR.pdb
     RDKit          3D

 26 27  0  0  1  0  0  0  0  0999 V2000
   25.3376  -19.4010   -9.2440 N   0  0  0  0  0  0  0  0  0  0  0  0
   25.8077  -20.2680   -8.1980 C   0  0  0  0  0  0  0  0  0  0  0  0
   25.9487  -21.6415   -8.7668 C   0  0  0  0  0  0  0  0  0  0  0  0
   25.4374  -21.4660  -10.1989 C   0  0  0  0  0  0  0  0  0  0  0  0
   25.8956  -20.0207  -10.4441 C   0  0  1  0  0  0  0  0  0  0  0  0
   25.3119  -19.4629  -11.6746 C   0  0  0  0  0  0  0  0  0  0  0  0
   24.2425  -18.8101  -11.5620 O   0  0  0  0  0  0  0  0  0  0  0  0
   25.9620  -19.6775  -12.9115 N   0  0  0  0  0  0  0  0  0  0  0  0
   27.1727  -20.4302  -13.1259 C   0  0  0  0  0  0  0  0  0  0  0  0
   27.8449  -19.6874  -14.2587 C   0  0  0  0  0  0  0  0  0  0  0  0
   26.8609  -18.6650  -14.7628 C   0  0  0  0  0  0  0  0  0  0  0  0
   25.5357  -19.1822  -14.1936 C   0  0  1  0  0  0  0  0  0  0  0  0
   25.0472  -20.2634  -15.0834 C   0  0  0  0  0  0  0  0  0  0  0  0
   25.4360  -21.4336  -14.8493 O   0  0  0  0  0  0  0  0  0  0  0  0
   20.0322  -23.6885  -12.2854 N   0  0  0  0  0  0  0  0  0  0  0  0
   19.9415  -22.3902  -11.6995 C   0  0  0  0  0  0  0  0  0  0  0  0
   20.0982  -22.2844  -10.4154 N   0  0  0  0  0  0  0  0  0  0  0  0
   19.6894  -21.2211  -12.4552 N   0  0  0  0  0  0  0  0  0  0  0  0
   20.0283  -21.1659  -13.9096 C   0  0  0  0  0  0  0  0  0  0  0  0
   21.4891  -20.9143  -13.9634 C   0  0  0  0  0  0  0  0  0  0  0  0
   22.1058  -20.0638  -14.9767 C   0  0  0  0  0  0  0  0  0  0  0  0
   22.7787  -20.6738  -16.1379 C   0  0  2  0  0  0  0  0  0  0  0  0
   24.1782  -20.0476  -16.1666 N   0  0  0  0  0  0  0  0  0  0  0  0
   22.1927  -20.3016  -17.4440 C   0  0  0  0  0  0  0  0  0  0  0  0
   22.1061  -19.1885  -17.9547 O   0  0  0  0  0  0  0  0  0  0  0  0
   21.6504  -21.3459  -18.2370 O   0  0  0  0  0  0  0  0  0  0  0  0
  2  1  1  0
  3  2  1  0
  4  3  1  0
  4  5  1  0
  5  6  1  6
  5  1  1  0
  6  7  2  0
  8  6  1  0
  8  9  1  0
  9 10  1  0
 11 10  1  0
 12  8  1  0
 12 11  1  0
 13 14  2  0
 12 13  1  6
 16 15  1  0
 17 16  2  0
 18 16  1  0
 19 20  1  0
 19 18  1  0
 20 21  1  0
 22 21  1  1
 22 23  1  0
 22 24  1  0
 23 13  1  0
 24 26  1  0
 25 24  2  0
M  END
$$$$
