PPR.pdb
     RDKit          3D

 26 27  0  0  1  0  0  0  0  0999 V2000
   27.2766  -18.8642   -7.0226 N   0  0  0  0  0  0  0  0  0  0  0  0
   27.8060  -19.4499   -5.8212 C   0  0  0  0  0  0  0  0  0  0  0  0
   27.7422  -20.9348   -5.9660 C   0  0  0  0  0  0  0  0  0  0  0  0
   27.0563  -21.1107   -7.3231 C   0  0  0  0  0  0  0  0  0  0  0  0
   27.6053  -19.8654   -8.0350 C   0  0  1  0  0  0  0  0  0  0  0  0
   26.9104  -19.6115   -9.3073 C   0  0  0  0  0  0  0  0  0  0  0  0
   26.0515  -18.6925   -9.3227 O   0  0  0  0  0  0  0  0  0  0  0  0
   27.2281  -20.3941  -10.4409 N   0  0  0  0  0  0  0  0  0  0  0  0
   28.1231  -21.5235  -10.4811 C   0  0  0  0  0  0  0  0  0  0  0  0
   28.7428  -21.4241  -11.8570 C   0  0  0  0  0  0  0  0  0  0  0  0
   27.9977  -20.3476  -12.6010 C   0  0  0  0  0  0  0  0  0  0  0  0
   26.7161  -20.2088  -11.7730 C   0  0  1  0  0  0  0  0  0  0  0  0
   25.7901  -21.2939  -12.1787 C   0  0  0  0  0  0  0  0  0  0  0  0
   26.0570  -22.4613  -11.8026 O   0  0  0  0  0  0  0  0  0  0  0  0
   19.9321  -22.9386   -7.3237 N   0  0  0  0  0  0  0  0  0  0  0  0
   19.4452  -22.6881   -8.6418 C   0  0  0  0  0  0  0  0  0  0  0  0
   18.3159  -23.2243   -8.9909 N   0  0  0  0  0  0  0  0  0  0  0  0
   20.1378  -21.8849   -9.5781 N   0  0  0  0  0  0  0  0  0  0  0  0
   21.5200  -21.3964   -9.2880 C   0  0  0  0  0  0  0  0  0  0  0  0
   21.8812  -20.5330  -10.4387 C   0  0  0  0  0  0  0  0  0  0  0  0
   23.1617  -20.6374  -11.1313 C   0  0  0  0  0  0  0  0  0  0  0  0
   23.2660  -21.4337  -12.3676 C   0  0  2  0  0  0  0  0  0  0  0  0
   24.6383  -21.0847  -12.9563 N   0  0  0  0  0  0  0  0  0  0  0  0
   22.3112  -21.0394  -13.4262 C   0  0  0  0  0  0  0  0  0  0  0  0
   21.2604  -21.5851  -13.7511 O   0  0  0  0  0  0  0  0  0  0  0  0
   22.6205  -19.8811  -14.1852 O   0  0  0  0  0  0  0  0  0  0  0  0
  2  1  1  0
  3  2  1  0
  4  3  1  0
  4  5  1  0
  5  6  1  6
  5  1  1  0
  6  7  2  0
  8  6  1  0
  8  9  1  0
  9 10  1  0
 11 10  1  0
 12  8  1  0
 12 11  1  0
 13 14  2  0
 12 13  1  6
 16 15  1  0
 17 16  2  0
 18 16  1  0
 19 20  1  0
 19 18  1  0
 20 21  1  0
 22 21  1  1
 22 23  1  0
 22 24  1  0
 23 13  1  0
 24 26  1  0
 25 24  2  0
M  END
$$$$
