PPR.pdb
     RDKit          3D

 26 27  0  0  1  0  0  0  0  0999 V2000
   29.3073  -19.7693   -6.4530 N   0  0  0  0  0  0  0  0  0  0  0  0
   29.7161  -20.1632   -5.1322 C   0  0  0  0  0  0  0  0  0  0  0  0
   28.4942  -20.2466   -4.2776 C   0  0  0  0  0  0  0  0  0  0  0  0
   27.3871  -19.7857   -5.2289 C   0  0  0  0  0  0  0  0  0  0  0  0
   27.9598  -20.3268   -6.5473 C   0  0  1  0  0  0  0  0  0  0  0  0
   27.2293  -19.8083   -7.7150 C   0  0  0  0  0  0  0  0  0  0  0  0
   26.5549  -18.7585   -7.5546 O   0  0  0  0  0  0  0  0  0  0  0  0
   27.3115  -20.4956   -8.9476 N   0  0  0  0  0  0  0  0  0  0  0  0
   27.9340  -21.7755   -9.1771 C   0  0  0  0  0  0  0  0  0  0  0  0
   28.4920  -21.6419  -10.5764 C   0  0  0  0  0  0  0  0  0  0  0  0
   27.9652  -20.3492  -11.1411 C   0  0  0  0  0  0  0  0  0  0  0  0
   26.7876  -20.0443  -10.2097 C   0  0  1  0  0  0  0  0  0  0  0  0
   25.6274  -20.8505  -10.6609 C   0  0  0  0  0  0  0  0  0  0  0  0
   25.7896  -22.0887  -10.7873 O   0  0  0  0  0  0  0  0  0  0  0  0
   18.4054  -23.8943   -9.4863 N   0  0  0  0  0  0  0  0  0  0  0  0
   19.0675  -23.1285   -8.4802 C   0  0  0  0  0  0  0  0  0  0  0  0
   19.1166  -23.6099   -7.2758 N   0  0  0  0  0  0  0  0  0  0  0  0
   19.6687  -21.8743   -8.7391 N   0  0  0  0  0  0  0  0  0  0  0  0
   19.5739  -21.2487  -10.0929 C   0  0  0  0  0  0  0  0  0  0  0  0
   20.8299  -21.6228  -10.7875 C   0  0  0  0  0  0  0  0  0  0  0  0
   22.0440  -20.8164  -10.7100 C   0  0  0  0  0  0  0  0  0  0  0  0
   23.2491  -21.2288  -11.4524 C   0  0  2  0  0  0  0  0  0  0  0  0
   24.3657  -20.3044  -10.9521 N   0  0  0  0  0  0  0  0  0  0  0  0
   23.1876  -20.9625  -12.9060 C   0  0  0  0  0  0  0  0  0  0  0  0
   23.5672  -19.9686  -13.5187 O   0  0  0  0  0  0  0  0  0  0  0  0
   22.6211  -21.9691  -13.7302 O   0  0  0  0  0  0  0  0  0  0  0  0
  2  1  1  0
  3  2  1  0
  4  3  1  0
  4  5  1  0
  5  6  1  6
  5  1  1  0
  6  7  2  0
  8  6  1  0
  8  9  1  0
  9 10  1  0
 11 10  1  0
 12  8  1  0
 12 11  1  0
 13 14  2  0
 12 13  1  6
 16 15  1  0
 17 16  2  0
 18 16  1  0
 19 20  1  0
 19 18  1  0
 20 21  1  0
 22 21  1  1
 22 23  1  0
 22 24  1  0
 23 13  1  0
 24 26  1  0
 25 24  2  0
M  END
$$$$
