PPR.pdb
     RDKit          3D

 26 27  0  0  1  0  0  0  0  0999 V2000
   28.4467  -19.9050  -11.3961 N   0  0  0  0  0  0  0  0  0  0  0  0
   29.4123  -20.9700  -11.4086 C   0  0  0  0  0  0  0  0  0  0  0  0
   29.2749  -21.7010  -12.7035 C   0  0  0  0  0  0  0  0  0  0  0  0
   28.0928  -20.9898  -13.3667 C   0  0  0  0  0  0  0  0  0  0  0  0
   28.3203  -19.5749  -12.8140 C   0  0  1  0  0  0  0  0  0  0  0  0
   27.1703  -18.6942  -13.0745 C   0  0  0  0  0  0  0  0  0  0  0  0
   26.4755  -18.3443  -12.0860 O   0  0  0  0  0  0  0  0  0  0  0  0
   26.8959  -18.2831  -14.3990 N   0  0  0  0  0  0  0  0  0  0  0  0
   27.6578  -18.6159  -15.5766 C   0  0  0  0  0  0  0  0  0  0  0  0
   27.5295  -17.3758  -16.4326 C   0  0  0  0  0  0  0  0  0  0  0  0
   26.5168  -16.4818  -15.7672 C   0  0  0  0  0  0  0  0  0  0  0  0
   25.8003  -17.4511  -14.8215 C   0  0  1  0  0  0  0  0  0  0  0  0
   24.7936  -18.2005  -15.6118 C   0  0  0  0  0  0  0  0  0  0  0  0
   25.0964  -18.5266  -16.7854 O   0  0  0  0  0  0  0  0  0  0  0  0
   26.8476  -20.7723  -10.3621 N   0  0  0  0  0  0  0  0  0  0  0  0
   25.4776  -21.0158  -10.0446 C   0  0  0  0  0  0  0  0  0  0  0  0
   25.0648  -20.7286   -8.8479 N   0  0  0  0  0  0  0  0  0  0  0  0
   24.5564  -21.5539  -10.9737 N   0  0  0  0  0  0  0  0  0  0  0  0
   24.9389  -21.7383  -12.4065 C   0  0  0  0  0  0  0  0  0  0  0  0
   23.9791  -20.9123  -13.1788 C   0  0  0  0  0  0  0  0  0  0  0  0
   23.9810  -20.8581  -14.6374 C   0  0  0  0  0  0  0  0  0  0  0  0
   23.0194  -19.9909  -15.3421 C   0  0  2  0  0  0  0  0  0  0  0  0
   23.5280  -18.5616  -15.1188 N   0  0  0  0  0  0  0  0  0  0  0  0
   21.6626  -19.9846  -14.7531 C   0  0  0  0  0  0  0  0  0  0  0  0
   20.7948  -20.8505  -14.8206 O   0  0  0  0  0  0  0  0  0  0  0  0
   21.2820  -18.8411  -14.0042 O   0  0  0  0  0  0  0  0  0  0  0  0
  2  1  1  0
  3  2  1  0
  4  3  1  0
  4  5  1  0
  5  6  1  1
  5  1  1  0
  6  7  2  0
  8  6  1  0
  8  9  1  0
  9 10  1  0
 11 10  1  0
 12  8  1  0
 12 11  1  0
 13 14  2  0
 12 13  1  6
 16 15  1  0
 17 16  2  0
 18 16  1  0
 19 20  1  0
 19 18  1  0
 20 21  1  0
 22 21  1  1
 22 23  1  0
 22 24  1  0
 23 13  1  0
 24 26  1  0
 25 24  2  0
M  END
$$$$
