PPR.pdb
     RDKit          3D

 26 27  0  0  1  0  0  0  0  0999 V2000
   18.0594  -14.8607    2.5707 N   0  0  0  0  0  0  0  0  0  0  0  0
   17.5372  -13.5979    3.0171 C   0  0  0  0  0  0  0  0  0  0  0  0
   16.1838  -13.8394    3.6001 C   0  0  0  0  0  0  0  0  0  0  0  0
   15.9776  -15.3371    3.3608 C   0  0  0  0  0  0  0  0  0  0  0  0
   17.4341  -15.8062    3.4928 C   0  0  1  0  0  0  0  0  0  0  0  0
   17.6023  -17.2000    3.0511 C   0  0  0  0  0  0  0  0  0  0  0  0
   18.2595  -17.3962    1.9966 O   0  0  0  0  0  0  0  0  0  0  0  0
   17.0305  -18.2444    3.8133 N   0  0  0  0  0  0  0  0  0  0  0  0
   16.2657  -18.1021    5.0270 C   0  0  0  0  0  0  0  0  0  0  0  0
   16.6377  -19.3373    5.8162 C   0  0  0  0  0  0  0  0  0  0  0  0
   17.4439  -20.2207    4.9012 C   0  0  0  0  0  0  0  0  0  0  0  0
   17.1057  -19.6512    3.5197 C   0  0  1  0  0  0  0  0  0  0  0  0
   15.7980  -20.2121    3.1017 C   0  0  0  0  0  0  0  0  0  0  0  0
   14.7587  -19.6628    3.5418 O   0  0  0  0  0  0  0  0  0  0  0  0
   13.6011  -22.8624   -5.2188 N   0  0  0  0  0  0  0  0  0  0  0  0
   12.5087  -22.4777   -4.3847 C   0  0  0  0  0  0  0  0  0  0  0  0
   11.3732  -22.2011   -4.9496 N   0  0  0  0  0  0  0  0  0  0  0  0
   12.6109  -22.3857   -2.9767 N   0  0  0  0  0  0  0  0  0  0  0  0
   13.9446  -22.2463   -2.3170 C   0  0  0  0  0  0  0  0  0  0  0  0
   13.6511  -22.0287   -0.8795 C   0  0  0  0  0  0  0  0  0  0  0  0
   14.6924  -21.7488    0.1043 C   0  0  0  0  0  0  0  0  0  0  0  0
   14.3312  -21.5419    1.5185 C   0  0  2  0  0  0  0  0  0  0  0  0
   15.6629  -21.3181    2.2452 N   0  0  0  0  0  0  0  0  0  0  0  0
   13.7581  -22.7344    2.1796 C   0  0  0  0  0  0  0  0  0  0  0  0
   14.3165  -23.5456    2.9127 O   0  0  0  0  0  0  0  0  0  0  0  0
   12.3828  -23.0051    1.9585 O   0  0  0  0  0  0  0  0  0  0  0  0
  2  1  1  0
  3  2  1  0
  4  3  1  0
  4  5  1  0
  5  6  1  6
  5  1  1  0
  6  7  2  0
  8  6  1  0
  8  9  1  0
  9 10  1  0
 11 10  1  0
 12  8  1  0
 12 11  1  0
 13 14  2  0
 12 13  1  1
 16 15  1  0
 17 16  2  0
 18 16  1  0
 19 20  1  0
 19 18  1  0
 20 21  1  0
 22 21  1  6
 22 23  1  0
 22 24  1  0
 23 13  1  0
 24 26  1  0
 25 24  2  0
M  END
$$$$
