PPR.pdb
     RDKit          3D

 26 27  0  0  1  0  0  0  0  0999 V2000
   28.1898  -20.6159  -15.3064 N   0  0  0  0  0  0  0  0  0  0  0  0
   28.8355  -19.4669  -15.8806 C   0  0  0  0  0  0  0  0  0  0  0  0
   28.0701  -18.2535  -15.4661 C   0  0  0  0  0  0  0  0  0  0  0  0
   26.9000  -18.8476  -14.6780 C   0  0  0  0  0  0  0  0  0  0  0  0
   27.6076  -20.0731  -14.0809 C   0  0  1  0  0  0  0  0  0  0  0  0
   26.6541  -21.0081  -13.4625 C   0  0  0  0  0  0  0  0  0  0  0  0
   26.5563  -22.1541  -13.9719 O   0  0  0  0  0  0  0  0  0  0  0  0
   25.8995  -20.5914  -12.3419 N   0  0  0  0  0  0  0  0  0  0  0  0
   26.1292  -19.4144  -11.5418 C   0  0  0  0  0  0  0  0  0  0  0  0
   25.7216  -19.8556  -10.1539 C   0  0  0  0  0  0  0  0  0  0  0  0
   25.0814  -21.2117  -10.2910 C   0  0  0  0  0  0  0  0  0  0  0  0
   24.7565  -21.2672  -11.7872 C   0  0  1  0  0  0  0  0  0  0  0  0
   23.4951  -20.5193  -12.0090 C   0  0  0  0  0  0  0  0  0  0  0  0
   23.5565  -19.2661  -12.0421 O   0  0  0  0  0  0  0  0  0  0  0  0
   22.4260  -26.4545  -14.5708 N   0  0  0  0  0  0  0  0  0  0  0  0
   21.0633  -26.3521  -14.1590 C   0  0  0  0  0  0  0  0  0  0  0  0
   20.5511  -27.3348  -13.4832 N   0  0  0  0  0  0  0  0  0  0  0  0
   20.2524  -25.2312  -14.4549 N   0  0  0  0  0  0  0  0  0  0  0  0
   20.8319  -24.0262  -15.1222 C   0  0  0  0  0  0  0  0  0  0  0  0
   20.8558  -22.9725  -14.0787 C   0  0  0  0  0  0  0  0  0  0  0  0
   21.3306  -21.6168  -14.3378 C   0  0  0  0  0  0  0  0  0  0  0  0
   21.2943  -20.6073  -13.2641 C   0  0  2  0  0  0  0  0  0  0  0  0
   22.2443  -21.1361  -12.1826 N   0  0  0  0  0  0  0  0  0  0  0  0
   19.9901  -20.5008  -12.5745 C   0  0  0  0  0  0  0  0  0  0  0  0
   19.6503  -20.9881  -11.5001 O   0  0  0  0  0  0  0  0  0  0  0  0
   18.9753  -19.7412  -13.2122 O   0  0  0  0  0  0  0  0  0  0  0  0
  2  1  1  0
  3  2  1  0
  4  3  1  0
  4  5  1  0
  5  6  1  6
  5  1  1  0
  6  7  2  0
  8  6  1  0
  8  9  1  0
  9 10  1  0
 11 10  1  0
 12  8  1  0
 12 11  1  0
 13 14  2  0
 12 13  1  1
 16 15  1  0
 17 16  2  0
 18 16  1  0
 19 20  1  0
 19 18  1  0
 20 21  1  0
 22 21  1  6
 22 23  1  0
 22 24  1  0
 23 13  1  0
 24 26  1  0
 25 24  2  0
M  END
$$$$
