PPR.pdb
     RDKit          3D

 26 27  0  0  1  0  0  0  0  0999 V2000
   28.1635  -20.3073  -16.8248 N   0  0  0  0  0  0  0  0  0  0  0  0
   28.5089  -19.1399  -17.5895 C   0  0  0  0  0  0  0  0  0  0  0  0
   28.3881  -17.9507  -16.6944 C   0  0  0  0  0  0  0  0  0  0  0  0
   27.8684  -18.5629  -15.3911 C   0  0  0  0  0  0  0  0  0  0  0  0
   28.5643  -19.9297  -15.4712 C   0  0  1  0  0  0  0  0  0  0  0  0
   28.0470  -20.8672  -14.4615 C   0  0  0  0  0  0  0  0  0  0  0  0
   27.3683  -21.8429  -14.8736 O   0  0  0  0  0  0  0  0  0  0  0  0
   28.3268  -20.6402  -13.0945 N   0  0  0  0  0  0  0  0  0  0  0  0
   29.2383  -19.6620  -12.5556 C   0  0  0  0  0  0  0  0  0  0  0  0
   29.7937  -20.3476  -11.3273 C   0  0  0  0  0  0  0  0  0  0  0  0
   28.9975  -21.6099  -11.1272 C   0  0  0  0  0  0  0  0  0  0  0  0
   27.7522  -21.3465  -11.9801 C   0  0  1  0  0  0  0  0  0  0  0  0
   26.8277  -20.4984  -11.1892 C   0  0  0  0  0  0  0  0  0  0  0  0
   27.0683  -19.2679  -11.1313 O   0  0  0  0  0  0  0  0  0  0  0  0
   20.7692  -20.6900  -15.3623 N   0  0  0  0  0  0  0  0  0  0  0  0
   19.9175  -20.3778  -14.2604 C   0  0  0  0  0  0  0  0  0  0  0  0
   18.6338  -20.4569  -14.4357 N   0  0  0  0  0  0  0  0  0  0  0  0
   20.4107  -19.9880  -12.9930 N   0  0  0  0  0  0  0  0  0  0  0  0
   21.8560  -19.6569  -12.8067 C   0  0  0  0  0  0  0  0  0  0  0  0
   22.5228  -20.9520  -12.5269 C   0  0  0  0  0  0  0  0  0  0  0  0
   23.9105  -21.0448  -12.0840 C   0  0  0  0  0  0  0  0  0  0  0  0
   24.3216  -20.4127  -10.8172 C   0  0  2  0  0  0  0  0  0  0  0  0
   25.7050  -20.9969  -10.5065 N   0  0  0  0  0  0  0  0  0  0  0  0
   23.4990  -20.7996   -9.6504 C   0  0  0  0  0  0  0  0  0  0  0  0
   22.4709  -20.2756   -9.2312 O   0  0  0  0  0  0  0  0  0  0  0  0
   23.9266  -21.9215   -8.8941 O   0  0  0  0  0  0  0  0  0  0  0  0
  2  1  1  0
  3  2  1  0
  4  3  1  0
  4  5  1  0
  5  6  1  1
  5  1  1  0
  6  7  2  0
  8  6  1  0
  8  9  1  0
  9 10  1  0
 11 10  1  0
 12  8  1  0
 12 11  1  0
 13 14  2  0
 12 13  1  1
 16 15  1  0
 17 16  2  0
 18 16  1  0
 19 20  1  0
 19 18  1  0
 20 21  1  0
 22 21  1  6
 22 23  1  0
 22 24  1  0
 23 13  1  0
 24 26  1  0
 25 24  2  0
M  END
$$$$
