PPR.pdb
     RDKit          3D

 26 27  0  0  1  0  0  0  0  0999 V2000
   28.3835  -19.9659  -15.9786 N   0  0  0  0  0  0  0  0  0  0  0  0
   28.8646  -18.6712  -16.3773 C   0  0  0  0  0  0  0  0  0  0  0  0
   27.9900  -17.6398  -15.7438 C   0  0  0  0  0  0  0  0  0  0  0  0
   26.9372  -18.4876  -15.0256 C   0  0  0  0  0  0  0  0  0  0  0  0
   27.8086  -19.6989  -14.6619 C   0  0  1  0  0  0  0  0  0  0  0  0
   27.0002  -20.8279  -14.1742 C   0  0  0  0  0  0  0  0  0  0  0  0
   27.0118  -21.8840  -14.8575 O   0  0  0  0  0  0  0  0  0  0  0  0
   26.2565  -20.6856  -12.9804 N   0  0  0  0  0  0  0  0  0  0  0  0
   26.2979  -19.5677  -12.0711 C   0  0  0  0  0  0  0  0  0  0  0  0
   26.0854  -20.2134  -10.7203 C   0  0  0  0  0  0  0  0  0  0  0  0
   25.7251  -21.6540  -10.9704 C   0  0  0  0  0  0  0  0  0  0  0  0
   25.3152  -21.6342  -12.4465 C   0  0  1  0  0  0  0  0  0  0  0  0
   23.9163  -21.1483  -12.5258 C   0  0  0  0  0  0  0  0  0  0  0  0
   23.7177  -19.9152  -12.4010 O   0  0  0  0  0  0  0  0  0  0  0  0
   16.4842  -22.5437  -12.7017 N   0  0  0  0  0  0  0  0  0  0  0  0
   16.2638  -22.3408  -14.0971 C   0  0  0  0  0  0  0  0  0  0  0  0
   15.1625  -21.7614  -14.4664 N   0  0  0  0  0  0  0  0  0  0  0  0
   17.1894  -22.7425  -15.0887 N   0  0  0  0  0  0  0  0  0  0  0  0
   18.4804  -23.3918  -14.7077 C   0  0  0  0  0  0  0  0  0  0  0  0
   19.3174  -22.3031  -14.1472 C   0  0  0  0  0  0  0  0  0  0  0  0
   20.7006  -22.5080  -13.7284 C   0  0  0  0  0  0  0  0  0  0  0  0
   21.4812  -21.3783  -13.1920 C   0  0  2  0  0  0  0  0  0  0  0  0
   22.8099  -21.9901  -12.7318 N   0  0  0  0  0  0  0  0  0  0  0  0
   20.9172  -20.7799  -11.9625 C   0  0  0  0  0  0  0  0  0  0  0  0
   21.0686  -21.1381  -10.7980 O   0  0  0  0  0  0  0  0  0  0  0  0
   20.0873  -19.6389  -12.1138 O   0  0  0  0  0  0  0  0  0  0  0  0
  2  1  1  0
  3  2  1  0
  4  3  1  0
  4  5  1  0
  5  6  1  6
  5  1  1  0
  6  7  2  0
  8  6  1  0
  8  9  1  0
  9 10  1  0
 11 10  1  0
 12  8  1  0
 12 11  1  0
 13 14  2  0
 12 13  1  1
 16 15  1  0
 17 16  2  0
 18 16  1  0
 19 20  1  0
 19 18  1  0
 20 21  1  0
 22 21  1  1
 22 23  1  0
 22 24  1  0
 23 13  1  0
 24 26  1  0
 25 24  2  0
M  END
$$$$
