PPR.pdb
     RDKit          3D

 26 27  0  0  1  0  0  0  0  0999 V2000
   23.8699  -20.3868  -18.6942 N   0  0  0  0  0  0  0  0  0  0  0  0
   22.5494  -20.0013  -19.1116 C   0  0  0  0  0  0  0  0  0  0  0  0
   21.7895  -19.5741  -17.8992 C   0  0  0  0  0  0  0  0  0  0  0  0
   22.7872  -19.8357  -16.7682 C   0  0  0  0  0  0  0  0  0  0  0  0
   24.0919  -19.5412  -17.5233 C   0  0  1  0  0  0  0  0  0  0  0  0
   25.2752  -19.9618  -16.7559 C   0  0  0  0  0  0  0  0  0  0  0  0
   25.9151  -20.9578  -17.1813 O   0  0  0  0  0  0  0  0  0  0  0  0
   25.6404  -19.2450  -15.5934 N   0  0  0  0  0  0  0  0  0  0  0  0
   24.9984  -18.0621  -15.0769 C   0  0  0  0  0  0  0  0  0  0  0  0
   26.1453  -17.2824  -14.4739 C   0  0  0  0  0  0  0  0  0  0  0  0
   27.3542  -18.1798  -14.5032 C   0  0  0  0  0  0  0  0  0  0  0  0
   26.7265  -19.5629  -14.7044 C   0  0  1  0  0  0  0  0  0  0  0  0
   26.2537  -20.0465  -13.3846 C   0  0  0  0  0  0  0  0  0  0  0  0
   25.0171  -20.0442  -13.1698 O   0  0  0  0  0  0  0  0  0  0  0  0
   28.9232  -18.6120   -5.3470 N   0  0  0  0  0  0  0  0  0  0  0  0
   27.9012  -19.6057   -5.2747 C   0  0  0  0  0  0  0  0  0  0  0  0
   27.3725  -19.8589   -4.1166 N   0  0  0  0  0  0  0  0  0  0  0  0
   27.4433  -20.3220   -6.4055 N   0  0  0  0  0  0  0  0  0  0  0  0
   28.0761  -20.1188   -7.7439 C   0  0  0  0  0  0  0  0  0  0  0  0
   27.3206  -20.9942   -8.6728 C   0  0  0  0  0  0  0  0  0  0  0  0
   27.6117  -21.0655  -10.1013 C   0  0  0  0  0  0  0  0  0  0  0  0
   26.5069  -21.0661  -11.0775 C   0  0  2  0  0  0  0  0  0  0  0  0
   27.1116  -20.5037  -12.3697 N   0  0  0  0  0  0  0  0  0  0  0  0
   25.4115  -20.1257  -10.7555 C   0  0  0  0  0  0  0  0  0  0  0  0
   25.3975  -18.9025  -10.8597 O   0  0  0  0  0  0  0  0  0  0  0  0
   24.2026  -20.6781  -10.2587 O   0  0  0  0  0  0  0  0  0  0  0  0
  2  1  1  0
  3  2  1  0
  4  3  1  0
  4  5  1  0
  5  6  1  1
  5  1  1  0
  6  7  2  0
  8  6  1  0
  8  9  1  0
  9 10  1  0
 11 10  1  0
 12  8  1  0
 12 11  1  0
 13 14  2  0
 12 13  1  1
 16 15  1  0
 17 16  2  0
 18 16  1  0
 19 20  1  0
 19 18  1  0
 20 21  1  0
 22 21  1  1
 22 23  1  0
 22 24  1  0
 23 13  1  0
 24 26  1  0
 25 24  2  0
M  END
$$$$
