PPR.pdb
     RDKit          3D

 26 27  0  0  1  0  0  0  0  0999 V2000
   27.2781  -21.6554  -16.8161 N   0  0  0  0  0  0  0  0  0  0  0  0
   27.4513  -20.7216  -17.8953 C   0  0  0  0  0  0  0  0  0  0  0  0
   26.5726  -19.5437  -17.6306 C   0  0  0  0  0  0  0  0  0  0  0  0
   25.8419  -19.9512  -16.3488 C   0  0  0  0  0  0  0  0  0  0  0  0
   26.9532  -20.7822  -15.6903 C   0  0  1  0  0  0  0  0  0  0  0  0
   26.4558  -21.5398  -14.5307 C   0  0  0  0  0  0  0  0  0  0  0  0
   26.2566  -22.7719  -14.6884 O   0  0  0  0  0  0  0  0  0  0  0  0
   26.2257  -20.8679  -13.3084 N   0  0  0  0  0  0  0  0  0  0  0  0
   26.4852  -19.4773  -13.0310 C   0  0  0  0  0  0  0  0  0  0  0  0
   26.8952  -19.4864  -11.5754 C   0  0  0  0  0  0  0  0  0  0  0  0
   26.6403  -20.8754  -11.0527 C   0  0  0  0  0  0  0  0  0  0  0  0
   25.6877  -21.4488  -12.1067 C   0  0  1  0  0  0  0  0  0  0  0  0
   24.3217  -20.9572  -11.8038 C   0  0  0  0  0  0  0  0  0  0  0  0
   23.9771  -19.8521  -12.2888 O   0  0  0  0  0  0  0  0  0  0  0  0
   18.0963  -24.6251   -6.8094 N   0  0  0  0  0  0  0  0  0  0  0  0
   18.2630  -24.6315   -8.2269 C   0  0  0  0  0  0  0  0  0  0  0  0
   17.5955  -25.5034   -8.9191 N   0  0  0  0  0  0  0  0  0  0  0  0
   19.1202  -23.7331   -8.9049 N   0  0  0  0  0  0  0  0  0  0  0  0
   19.8500  -22.6650   -8.1568 C   0  0  0  0  0  0  0  0  0  0  0  0
   20.4935  -21.8263   -9.1972 C   0  0  0  0  0  0  0  0  0  0  0  0
   21.2320  -22.3932  -10.3214 C   0  0  0  0  0  0  0  0  0  0  0  0
   21.9004  -21.5014  -11.2865 C   0  0  2  0  0  0  0  0  0  0  0  0
   23.4001  -21.6590  -11.0080 N   0  0  0  0  0  0  0  0  0  0  0  0
   21.6435  -20.0621  -11.0621 C   0  0  0  0  0  0  0  0  0  0  0  0
   22.1955  -19.3000  -10.2736 O   0  0  0  0  0  0  0  0  0  0  0  0
   20.6316  -19.4502  -11.8464 O   0  0  0  0  0  0  0  0  0  0  0  0
  2  1  1  0
  3  2  1  0
  4  3  1  0
  4  5  1  0
  5  6  1  1
  5  1  1  0
  6  7  2  0
  8  6  1  0
  8  9  1  0
  9 10  1  0
 11 10  1  0
 12  8  1  0
 12 11  1  0
 13 14  2  0
 12 13  1  1
 16 15  1  0
 17 16  2  0
 18 16  1  0
 19 20  1  0
 19 18  1  0
 20 21  1  0
 22 21  1  1
 22 23  1  0
 22 24  1  0
 23 13  1  0
 24 26  1  0
 25 24  2  0
M  END
$$$$
