PPR.pdb
     RDKit          3D

 26 27  0  0  1  0  0  0  0  0999 V2000
   42.6244   -4.0828   -7.2196 N   0  0  0  0  0  0  0  0  0  0  0  0
   43.7288   -3.9371   -6.3108 C   0  0  0  0  0  0  0  0  0  0  0  0
   44.7351   -4.9913   -6.6361 C   0  0  0  0  0  0  0  0  0  0  0  0
   44.0470   -5.7787   -7.7540 C   0  0  0  0  0  0  0  0  0  0  0  0
   43.2656   -4.6320   -8.4123 C   0  0  1  0  0  0  0  0  0  0  0  0
   42.2819   -5.1293   -9.3875 C   0  0  0  0  0  0  0  0  0  0  0  0
   41.0943   -5.2603   -8.9940 O   0  0  0  0  0  0  0  0  0  0  0  0
   42.7004   -5.4345  -10.7029 N   0  0  0  0  0  0  0  0  0  0  0  0
   44.0165   -5.2299  -11.2544 C   0  0  0  0  0  0  0  0  0  0  0  0
   43.7354   -4.8859  -12.6999 C   0  0  0  0  0  0  0  0  0  0  0  0
   42.2666   -5.1221  -12.9332 C   0  0  0  0  0  0  0  0  0  0  0  0
   41.8875   -6.0085  -11.7424 C   0  0  1  0  0  0  0  0  0  0  0  0
   42.2827   -7.4010  -12.0651 C   0  0  0  0  0  0  0  0  0  0  0  0
   43.4999   -7.6966  -11.9856 O   0  0  0  0  0  0  0  0  0  0  0  0
   38.7454   -9.1812   -7.7740 N   0  0  0  0  0  0  0  0  0  0  0  0
   39.6841  -10.1186   -7.2476 C   0  0  0  0  0  0  0  0  0  0  0  0
   40.0429   -9.9962   -6.0062 N   0  0  0  0  0  0  0  0  0  0  0  0
   40.2365  -11.1691   -8.0175 N   0  0  0  0  0  0  0  0  0  0  0  0
   39.8224  -11.3713   -9.4391 C   0  0  0  0  0  0  0  0  0  0  0  0
   40.8403  -10.6596  -10.2498 C   0  0  0  0  0  0  0  0  0  0  0  0
   40.7809  -10.5911  -11.7066 C   0  0  0  0  0  0  0  0  0  0  0  0
   41.8250   -9.8642  -12.4515 C   0  0  2  0  0  0  0  0  0  0  0  0
   41.3723   -8.3991  -12.4524 N   0  0  0  0  0  0  0  0  0  0  0  0
   41.9037  -10.2158  -13.8861 C   0  0  0  0  0  0  0  0  0  0  0  0
   41.4409   -9.6109  -14.8489 O   0  0  0  0  0  0  0  0  0  0  0  0
   42.6002  -11.4035  -14.2292 O   0  0  0  0  0  0  0  0  0  0  0  0
  2  1  1  0
  3  2  1  0
  4  3  1  0
  4  5  1  0
  5  6  1  6
  5  1  1  0
  6  7  2  0
  8  6  1  0
  8  9  1  0
  9 10  1  0
 11 10  1  0
 12  8  1  0
 12 11  1  0
 13 14  2  0
 12 13  1  6
 16 15  1  0
 17 16  2  0
 18 16  1  0
 19 20  1  0
 19 18  1  0
 20 21  1  0
 22 21  1  1
 22 23  1  0
 22 24  1  0
 23 13  1  0
 24 26  1  0
 25 24  2  0
M  END
$$$$
