PPR.pdb
     RDKit          3D

 26 27  0  0  1  0  0  0  0  0999 V2000
   29.5822  -21.4018  -12.1738 N   0  0  0  0  0  0  0  0  0  0  0  0
   30.6266  -22.0551  -11.4328 C   0  0  0  0  0  0  0  0  0  0  0  0
   30.4883  -21.6627   -9.9986 C   0  0  0  0  0  0  0  0  0  0  0  0
   29.3218  -20.6721  -10.0325 C   0  0  0  0  0  0  0  0  0  0  0  0
   28.5135  -21.2892  -11.1835 C   0  0  1  0  0  0  0  0  0  0  0  0
   27.4352  -20.3954  -11.6356 C   0  0  0  0  0  0  0  0  0  0  0  0
   26.6490  -19.9505  -10.7601 O   0  0  0  0  0  0  0  0  0  0  0  0
   27.3260  -20.0772  -13.0086 N   0  0  0  0  0  0  0  0  0  0  0  0
   28.1425  -20.5955  -14.0777 C   0  0  0  0  0  0  0  0  0  0  0  0
   28.2346  -19.4306  -15.0377 C   0  0  0  0  0  0  0  0  0  0  0  0
   27.2798  -18.3753  -14.5455 C   0  0  0  0  0  0  0  0  0  0  0  0
   26.3759  -19.1718  -13.5989 C   0  0  1  0  0  0  0  0  0  0  0  0
   25.3604  -19.8745  -14.4202 C   0  0  0  0  0  0  0  0  0  0  0  0
   25.7252  -20.8944  -15.0543 O   0  0  0  0  0  0  0  0  0  0  0  0
   18.4001  -23.1020  -10.9662 N   0  0  0  0  0  0  0  0  0  0  0  0
   19.6439  -22.7113  -10.3855 C   0  0  0  0  0  0  0  0  0  0  0  0
   20.0575  -23.3497   -9.3338 N   0  0  0  0  0  0  0  0  0  0  0  0
   20.4401  -21.6636  -10.9051 N   0  0  0  0  0  0  0  0  0  0  0  0
   19.9503  -20.8260  -12.0416 C   0  0  0  0  0  0  0  0  0  0  0  0
   20.8915  -21.0885  -13.1574 C   0  0  0  0  0  0  0  0  0  0  0  0
   22.0834  -20.2788  -13.3906 C   0  0  0  0  0  0  0  0  0  0  0  0
   22.9146  -20.5207  -14.5838 C   0  0  2  0  0  0  0  0  0  0  0  0
   24.0214  -19.4609  -14.5248 N   0  0  0  0  0  0  0  0  0  0  0  0
   22.2288  -20.2517  -15.8664 C   0  0  0  0  0  0  0  0  0  0  0  0
   22.1285  -19.1887  -16.4724 O   0  0  0  0  0  0  0  0  0  0  0  0
   21.5928  -21.3459  -16.5080 O   0  0  0  0  0  0  0  0  0  0  0  0
  2  1  1  0
  3  2  1  0
  4  3  1  0
  4  5  1  0
  5  6  1  6
  5  1  1  0
  6  7  2  0
  8  6  1  0
  8  9  1  0
  9 10  1  0
 11 10  1  0
 12  8  1  0
 12 11  1  0
 13 14  2  0
 12 13  1  6
 16 15  1  0
 17 16  2  0
 18 16  1  0
 19 20  1  0
 19 18  1  0
 20 21  1  0
 22 21  1  1
 22 23  1  0
 22 24  1  0
 23 13  1  0
 24 26  1  0
 25 24  2  0
M  END
$$$$
