CCR.pdb
     RDKit          3D

 24 23  0  0  1  0  0  0  0  0999 V2000
   26.4556  -19.8008  -10.1689 N   0  0  0  0  0  0  0  0  0  0  0  0
   26.2832  -20.4793  -11.4155 C   0  0  1  0  0  0  0  0  0  0  0  0
   24.9842  -21.2801  -11.3834 C   0  0  0  0  0  0  0  0  0  0  0  0
   24.7534  -22.0865   -9.7848 S   0  0  0  0  0  0  0  0  0  0  0  0
   26.1656  -19.5658  -12.5816 C   0  0  0  0  0  0  0  0  0  0  0  0
   25.4012  -18.5822  -12.4748 O   0  0  0  0  0  0  0  0  0  0  0  0
   26.8664  -19.7376  -13.8106 N   0  0  0  0  0  0  0  0  0  0  0  0
   26.7225  -18.8342  -14.9258 C   0  0  1  0  0  0  0  0  0  0  0  0
   28.0836  -18.6824  -15.5743 C   0  0  0  0  0  0  0  0  0  0  0  0
   27.9730  -17.5757  -16.9900 S   0  0  0  0  0  0  0  0  0  0  0  0
   25.7000  -19.2188  -15.8980 C   0  0  0  0  0  0  0  0  0  0  0  0
   25.5897  -20.4619  -16.1390 O   0  0  0  0  0  0  0  0  0  0  0  0
   19.3624  -22.3691  -13.3228 N   0  0  0  0  0  0  0  0  0  0  0  0
   18.7935  -21.3212  -14.0792 C   0  0  0  0  0  0  0  0  0  0  0  0
   17.7189  -20.7340  -13.6901 N   0  0  0  0  0  0  0  0  0  0  0  0
   19.4442  -20.9415  -15.2758 N   0  0  0  0  0  0  0  0  0  0  0  0
   20.9446  -20.9473  -15.2151 C   0  0  0  0  0  0  0  0  0  0  0  0
   21.4321  -19.5751  -15.4557 C   0  0  0  0  0  0  0  0  0  0  0  0
   22.8429  -19.2577  -15.6406 C   0  0  0  0  0  0  0  0  0  0  0  0
   23.4118  -18.7062  -16.8800 C   0  0  2  0  0  0  0  0  0  0  0  0
   24.8411  -18.3357  -16.5783 N   0  0  0  0  0  0  0  0  0  0  0  0
   22.8511  -17.4694  -17.4051 C   0  0  0  0  0  0  0  0  0  0  0  0
   22.0186  -17.3233  -18.4888 O   0  0  0  0  0  0  0  0  0  0  0  0
   23.1600  -16.3667  -16.8091 O   0  0  0  0  0  0  0  0  0  0  0  0
  2  3  1  0
  2  1  1  1
  4  3  1  0
  5  2  1  0
  5  6  2  0
  7  5  1  0
  8 11  1  0
  8  7  1  0
  8  9  1  6
 10  9  1  0
 11 21  1  0
 12 11  2  0
 14 13  1  0
 15 14  2  0
 16 14  1  0
 17 16  1  0
 18 17  1  0
 19 18  1  0
 20 19  1  1
 21 20  1  0
 22 23  1  0
 22 20  1  0
 24 22  2  0
M  END
$$$$
