CCR.pdb
     RDKit          3D

 24 23  0  0  1  0  0  0  0  0999 V2000
   31.6139  -25.0750  -16.6144 N   0  0  0  0  0  0  0  0  0  0  0  0
   30.5451  -24.3115  -17.1790 C   0  0  1  0  0  0  0  0  0  0  0  0
   30.4764  -24.5667  -18.6823 C   0  0  0  0  0  0  0  0  0  0  0  0
   32.0418  -24.1626  -19.4857 S   0  0  0  0  0  0  0  0  0  0  0  0
   29.2060  -24.6735  -16.6464 C   0  0  0  0  0  0  0  0  0  0  0  0
   29.1290  -25.6705  -15.8958 O   0  0  0  0  0  0  0  0  0  0  0  0
   28.0068  -23.9594  -16.9346 N   0  0  0  0  0  0  0  0  0  0  0  0
   26.7427  -24.2706  -16.3134 C   0  0  1  0  0  0  0  0  0  0  0  0
   25.9169  -23.0004  -16.2879 C   0  0  0  0  0  0  0  0  0  0  0  0
   26.5851  -21.8539  -15.0711 S   0  0  0  0  0  0  0  0  0  0  0  0
   26.0131  -25.3778  -16.9300 C   0  0  0  0  0  0  0  0  0  0  0  0
   25.8158  -25.2953  -18.1829 O   0  0  0  0  0  0  0  0  0  0  0  0
   26.8243  -32.3950  -14.0728 N   0  0  0  0  0  0  0  0  0  0  0  0
   25.4411  -32.6427  -14.2107 C   0  0  0  0  0  0  0  0  0  0  0  0
   24.7768  -33.2190  -13.2738 N   0  0  0  0  0  0  0  0  0  0  0  0
   24.8138  -32.2368  -15.4112 N   0  0  0  0  0  0  0  0  0  0  0  0
   25.6414  -31.3477  -16.2940 C   0  0  0  0  0  0  0  0  0  0  0  0
   24.8152  -30.1993  -16.7149 C   0  0  0  0  0  0  0  0  0  0  0  0
   25.0181  -28.8491  -16.2039 C   0  0  0  0  0  0  0  0  0  0  0  0
   24.8281  -27.6259  -16.9987 C   0  0  2  0  0  0  0  0  0  0  0  0
   25.5190  -26.5107  -16.2572 N   0  0  0  0  0  0  0  0  0  0  0  0
   23.4738  -27.1207  -17.1732 C   0  0  0  0  0  0  0  0  0  0  0  0
   22.6685  -27.2534  -18.2790 O   0  0  0  0  0  0  0  0  0  0  0  0
   22.9456  -26.4621  -16.1966 O   0  0  0  0  0  0  0  0  0  0  0  0
  2  3  1  0
  2  1  1  1
  4  3  1  0
  5  2  1  0
  5  6  2  0
  7  5  1  0
  8 11  1  0
  8  7  1  0
  8  9  1  6
 10  9  1  0
 11 21  1  0
 12 11  2  0
 14 13  1  0
 15 14  2  0
 16 14  1  0
 17 16  1  0
 18 17  1  0
 19 18  1  0
 20 19  1  1
 21 20  1  0
 22 23  1  0
 22 20  1  0
 24 22  2  0
M  END
$$$$
