CCR.pdb
     RDKit          3D

 24 23  0  0  1  0  0  0  0  0999 V2000
   24.3002  -14.6408  -17.6501 N   0  0  0  0  0  0  0  0  0  0  0  0
   24.3000  -13.3784  -18.3214 C   0  0  1  0  0  0  0  0  0  0  0  0
   23.1069  -13.3073  -19.2708 C   0  0  0  0  0  0  0  0  0  0  0  0
   23.2798  -14.4868  -20.6265 S   0  0  0  0  0  0  0  0  0  0  0  0
   24.1583  -12.2157  -17.4071 C   0  0  0  0  0  0  0  0  0  0  0  0
   23.1848  -12.2083  -16.6225 O   0  0  0  0  0  0  0  0  0  0  0  0
   25.0581  -11.1112  -17.3664 N   0  0  0  0  0  0  0  0  0  0  0  0
   24.9158  -10.0204  -16.4335 C   0  0  1  0  0  0  0  0  0  0  0  0
   26.2471   -9.3005  -16.3598 C   0  0  0  0  0  0  0  0  0  0  0  0
   27.4562  -10.3248  -15.5052 S   0  0  0  0  0  0  0  0  0  0  0  0
   23.8188   -9.0998  -16.7298 C   0  0  0  0  0  0  0  0  0  0  0  0
   23.6963   -8.7399  -17.9427 O   0  0  0  0  0  0  0  0  0  0  0  0
   17.0427  -11.8636  -14.4725 N   0  0  0  0  0  0  0  0  0  0  0  0
   16.9460  -11.6262  -15.8610 C   0  0  0  0  0  0  0  0  0  0  0  0
   16.0813  -12.2492  -16.5789 N   0  0  0  0  0  0  0  0  0  0  0  0
   17.8307  -10.6830  -16.4331 N   0  0  0  0  0  0  0  0  0  0  0  0
   18.7320   -9.9815  -15.4583 C   0  0  0  0  0  0  0  0  0  0  0  0
   19.5544   -9.0027  -16.1960 C   0  0  0  0  0  0  0  0  0  0  0  0
   20.5593   -8.1671  -15.5500 C   0  0  0  0  0  0  0  0  0  0  0  0
   21.7775   -7.6757  -16.2124 C   0  0  2  0  0  0  0  0  0  0  0  0
   22.9015   -8.5879  -15.7935 N   0  0  0  0  0  0  0  0  0  0  0  0
   22.2709   -6.3534  -15.8548 C   0  0  0  0  0  0  0  0  0  0  0  0
   21.8003   -5.1391  -16.2938 O   0  0  0  0  0  0  0  0  0  0  0  0
   23.2693   -6.2827  -15.0395 O   0  0  0  0  0  0  0  0  0  0  0  0
  2  3  1  0
  2  1  1  1
  4  3  1  0
  5  2  1  0
  5  6  2  0
  7  5  1  0
  8 11  1  0
  8  7  1  0
  8  9  1  6
 10  9  1  0
 11 21  1  0
 12 11  2  0
 14 13  1  0
 15 14  2  0
 16 14  1  0
 17 16  1  0
 18 17  1  0
 19 18  1  0
 20 19  1  1
 21 20  1  0
 22 23  1  0
 22 20  1  0
 24 22  2  0
M  END
$$$$
