CCR.pdb
     RDKit          3D

 24 23  0  0  1  0  0  0  0  0999 V2000
   25.4401  -20.1565   -8.1349 N   0  0  0  0  0  0  0  0  0  0  0  0
   25.2774  -20.7986   -9.4020 C   0  0  1  0  0  0  0  0  0  0  0  0
   23.8365  -20.6300   -9.8764 C   0  0  0  0  0  0  0  0  0  0  0  0
   22.6681  -21.2631   -8.6545 S   0  0  0  0  0  0  0  0  0  0  0  0
   26.1265  -20.2229  -10.4769 C   0  0  0  0  0  0  0  0  0  0  0  0
   26.0386  -18.9944  -10.6919 O   0  0  0  0  0  0  0  0  0  0  0  0
   27.0325  -20.9784  -11.2765 N   0  0  0  0  0  0  0  0  0  0  0  0
   27.7462  -20.4135  -12.3955 C   0  0  1  0  0  0  0  0  0  0  0  0
   29.1890  -20.8661  -12.2976 C   0  0  0  0  0  0  0  0  0  0  0  0
   29.4484  -21.7744  -10.7649 S   0  0  0  0  0  0  0  0  0  0  0  0
   27.1716  -20.7178  -13.7054 C   0  0  0  0  0  0  0  0  0  0  0  0
   26.5726  -21.8336  -13.8134 O   0  0  0  0  0  0  0  0  0  0  0  0
   20.3082  -20.4993  -15.7709 N   0  0  0  0  0  0  0  0  0  0  0  0
   20.8661  -19.4383  -15.0248 C   0  0  0  0  0  0  0  0  0  0  0  0
   20.1361  -18.7233  -14.2457 N   0  0  0  0  0  0  0  0  0  0  0  0
   22.2511  -19.1897  -15.1641 N   0  0  0  0  0  0  0  0  0  0  0  0
   22.7043  -18.8697  -16.5594 C   0  0  0  0  0  0  0  0  0  0  0  0
   23.9930  -19.5465  -16.8041 C   0  0  0  0  0  0  0  0  0  0  0  0
   25.0666  -19.5840  -15.8185 C   0  0  0  0  0  0  0  0  0  0  0  0
   26.3944  -20.1683  -16.0627 C   0  0  2  0  0  0  0  0  0  0  0  0
   27.2280  -19.8864  -14.8394 N   0  0  0  0  0  0  0  0  0  0  0  0
   27.1988  -19.6227  -17.1467 C   0  0  0  0  0  0  0  0  0  0  0  0
   27.2135  -20.0254  -18.4607 O   0  0  0  0  0  0  0  0  0  0  0  0
   28.0056  -18.6537  -16.8700 O   0  0  0  0  0  0  0  0  0  0  0  0
  2  3  1  0
  2  1  1  1
  4  3  1  0
  5  2  1  0
  5  6  2  0
  7  5  1  0
  8 11  1  0
  8  7  1  0
  8  9  1  6
 10  9  1  0
 11 21  1  0
 12 11  2  0
 14 13  1  0
 15 14  2  0
 16 14  1  0
 17 16  1  0
 18 17  1  0
 19 18  1  0
 20 19  1  1
 21 20  1  0
 22 23  1  0
 22 20  1  0
 24 22  2  0
M  END
$$$$
