CCR.pdb
     RDKit          3D

 24 23  0  0  1  0  0  0  0  0999 V2000
   28.1914  -20.9161  -15.9090 N   0  0  0  0  0  0  0  0  0  0  0  0
   28.2362  -20.3802  -14.5843 C   0  0  1  0  0  0  0  0  0  0  0  0
   28.1066  -18.8605  -14.6457 C   0  0  0  0  0  0  0  0  0  0  0  0
   26.5479  -18.3684  -15.4120 S   0  0  0  0  0  0  0  0  0  0  0  0
   27.1255  -20.8453  -13.7138 C   0  0  0  0  0  0  0  0  0  0  0  0
   26.0932  -21.2790  -14.2703 O   0  0  0  0  0  0  0  0  0  0  0  0
   27.1605  -20.8295  -12.2892 N   0  0  0  0  0  0  0  0  0  0  0  0
   25.9795  -20.9862  -11.4760 C   0  0  1  0  0  0  0  0  0  0  0  0
   26.3907  -20.8114  -10.0281 C   0  0  0  0  0  0  0  0  0  0  0  0
   24.9739  -21.0723   -8.9482 S   0  0  0  0  0  0  0  0  0  0  0  0
   24.8685  -20.1049  -11.8329 C   0  0  0  0  0  0  0  0  0  0  0  0
   25.1800  -18.9762  -12.3274 O   0  0  0  0  0  0  0  0  0  0  0  0
   20.9913  -21.7912  -17.8855 N   0  0  0  0  0  0  0  0  0  0  0  0
   19.9398  -21.1191  -17.2250 C   0  0  0  0  0  0  0  0  0  0  0  0
   18.7125  -21.3747  -17.5069 N   0  0  0  0  0  0  0  0  0  0  0  0
   20.2821  -20.1578  -16.2461 N   0  0  0  0  0  0  0  0  0  0  0  0
   21.7548  -19.9210  -16.0727 C   0  0  0  0  0  0  0  0  0  0  0  0
   22.3070  -20.9887  -15.2160 C   0  0  0  0  0  0  0  0  0  0  0  0
   23.0758  -20.7154  -14.0079 C   0  0  0  0  0  0  0  0  0  0  0  0
   22.5087  -20.1413  -12.7780 C   0  0  2  0  0  0  0  0  0  0  0  0
   23.5020  -20.4020  -11.6751 N   0  0  0  0  0  0  0  0  0  0  0  0
   21.2748  -20.7115  -12.2563 C   0  0  0  0  0  0  0  0  0  0  0  0
   21.1391  -21.8256  -11.4631 O   0  0  0  0  0  0  0  0  0  0  0  0
   20.1644  -20.1294  -12.5641 O   0  0  0  0  0  0  0  0  0  0  0  0
  2  3  1  0
  2  1  1  6
  4  3  1  0
  5  2  1  0
  5  6  2  0
  7  5  1  0
  8 11  1  0
  8  7  1  0
  8  9  1  1
 10  9  1  0
 11 21  1  0
 12 11  2  0
 14 13  1  0
 15 14  2  0
 16 14  1  0
 17 16  1  0
 18 17  1  0
 19 18  1  0
 20 19  1  6
 21 20  1  0
 22 23  1  0
 22 20  1  0
 24 22  2  0
M  END
$$$$
