CCR.pdb
     RDKit          3D

 24 23  0  0  1  0  0  0  0  0999 V2000
   25.6808  -20.2451  -16.1760 N   0  0  0  0  0  0  0  0  0  0  0  0
   24.2893  -20.4335  -16.4449 C   0  0  1  0  0  0  0  0  0  0  0  0
   24.0572  -21.8541  -16.9529 C   0  0  0  0  0  0  0  0  0  0  0  0
   24.7607  -22.0818  -18.5999 S   0  0  0  0  0  0  0  0  0  0  0  0
   23.4240  -20.2871  -15.2459 C   0  0  0  0  0  0  0  0  0  0  0  0
   23.9049  -20.6123  -14.1386 O   0  0  0  0  0  0  0  0  0  0  0  0
   22.0847  -19.8008  -15.2762 N   0  0  0  0  0  0  0  0  0  0  0  0
   21.2878  -19.6290  -14.0862 C   0  0  1  0  0  0  0  0  0  0  0  0
   20.7702  -18.2049  -14.0800 C   0  0  0  0  0  0  0  0  0  0  0  0
   19.8634  -17.8842  -12.5581 S   0  0  0  0  0  0  0  0  0  0  0  0
   20.2047  -20.5988  -13.9288 C   0  0  0  0  0  0  0  0  0  0  0  0
   19.5463  -20.8847  -14.9778 O   0  0  0  0  0  0  0  0  0  0  0  0
   18.9908  -24.9388   -6.8679 N   0  0  0  0  0  0  0  0  0  0  0  0
   17.7341  -24.4801   -7.3198 C   0  0  0  0  0  0  0  0  0  0  0  0
   16.6968  -24.5449   -6.5643 N   0  0  0  0  0  0  0  0  0  0  0  0
   17.6561  -23.9493   -8.6280 N   0  0  0  0  0  0  0  0  0  0  0  0
   18.2571  -24.8094   -9.7021 C   0  0  0  0  0  0  0  0  0  0  0  0
   18.0898  -24.1287  -11.0010 C   0  0  0  0  0  0  0  0  0  0  0  0
   18.8580  -22.9495  -11.3810 C   0  0  0  0  0  0  0  0  0  0  0  0
   18.7599  -22.2838  -12.6892 C   0  0  2  0  0  0  0  0  0  0  0  0
   19.8382  -21.2317  -12.7265 N   0  0  0  0  0  0  0  0  0  0  0  0
   17.5503  -21.5317  -12.9908 C   0  0  0  0  0  0  0  0  0  0  0  0
   16.4061  -21.9962  -13.5939 O   0  0  0  0  0  0  0  0  0  0  0  0
   17.5235  -20.2806  -12.6735 O   0  0  0  0  0  0  0  0  0  0  0  0
  2  3  1  0
  2  1  1  1
  4  3  1  0
  5  2  1  0
  5  6  2  0
  7  5  1  0
  8 11  1  0
  8  7  1  0
  8  9  1  6
 10  9  1  0
 11 21  1  0
 12 11  2  0
 14 13  1  0
 15 14  2  0
 16 14  1  0
 17 16  1  0
 18 17  1  0
 19 18  1  0
 20 19  1  1
 21 20  1  0
 22 23  1  0
 22 20  1  0
 24 22  2  0
M  END
$$$$
