CCR.pdb
     RDKit          3D

 24 23  0  0  1  0  0  0  0  0999 V2000
   25.1117  -23.3838  -15.1450 N   0  0  0  0  0  0  0  0  0  0  0  0
   23.8264  -22.8602  -15.4887 C   0  0  1  0  0  0  0  0  0  0  0  0
   23.0699  -23.8822  -16.3330 C   0  0  0  0  0  0  0  0  0  0  0  0
   23.9904  -24.3046  -17.8274 S   0  0  0  0  0  0  0  0  0  0  0  0
   22.9593  -22.5860  -14.3136 C   0  0  0  0  0  0  0  0  0  0  0  0
   23.0500  -23.3553  -13.3321 O   0  0  0  0  0  0  0  0  0  0  0  0
   22.0336  -21.5055  -14.2328 N   0  0  0  0  0  0  0  0  0  0  0  0
   21.1933  -21.2798  -13.0823 C   0  0  1  0  0  0  0  0  0  0  0  0
   20.8878  -19.7971  -13.0187 C   0  0  0  0  0  0  0  0  0  0  0  0
   19.9008  -19.4322  -11.5578 S   0  0  0  0  0  0  0  0  0  0  0  0
   19.9733  -22.0854  -13.0472 C   0  0  0  0  0  0  0  0  0  0  0  0
   19.2840  -22.1124  -14.1147 O   0  0  0  0  0  0  0  0  0  0  0  0
   18.1301  -26.4277   -6.0223 N   0  0  0  0  0  0  0  0  0  0  0  0
   17.3698  -25.2384   -5.9890 C   0  0  0  0  0  0  0  0  0  0  0  0
   16.7912  -24.8546   -4.9078 N   0  0  0  0  0  0  0  0  0  0  0  0
   17.2666  -24.4868   -7.1822 N   0  0  0  0  0  0  0  0  0  0  0  0
   17.7674  -25.1788   -8.4171 C   0  0  0  0  0  0  0  0  0  0  0  0
   17.6882  -24.2373   -9.5510 C   0  0  0  0  0  0  0  0  0  0  0  0
   18.2333  -24.5385  -10.8691 C   0  0  0  0  0  0  0  0  0  0  0  0
   18.2202  -23.6026  -12.0040 C   0  0  2  0  0  0  0  0  0  0  0  0
   19.5081  -22.8223  -11.9422 N   0  0  0  0  0  0  0  0  0  0  0  0
   17.2017  -22.5625  -12.0280 C   0  0  0  0  0  0  0  0  0  0  0  0
   17.3879  -21.2074  -11.8945 O   0  0  0  0  0  0  0  0  0  0  0  0
   15.9727  -22.9258  -12.1834 O   0  0  0  0  0  0  0  0  0  0  0  0
  2  3  1  0
  2  1  1  1
  4  3  1  0
  5  2  1  0
  5  6  2  0
  7  5  1  0
  8 11  1  0
  8  7  1  0
  8  9  1  6
 10  9  1  0
 11 21  1  0
 12 11  2  0
 14 13  1  0
 15 14  2  0
 16 14  1  0
 17 16  1  0
 18 17  1  0
 19 18  1  0
 20 19  1  1
 21 20  1  0
 22 23  1  0
 22 20  1  0
 24 22  2  0
M  END
$$$$
