CCR.pdb
     RDKit          3D

 24 23  0  0  1  0  0  0  0  0999 V2000
   28.7187  -21.9787  -16.0315 N   0  0  0  0  0  0  0  0  0  0  0  0
   28.2099  -20.9190  -15.2177 C   0  0  1  0  0  0  0  0  0  0  0  0
   27.5197  -19.8844  -16.1026 C   0  0  0  0  0  0  0  0  0  0  0  0
   28.7187  -18.9695  -17.0948 S   0  0  0  0  0  0  0  0  0  0  0  0
   27.1849  -21.3589  -14.2360 C   0  0  0  0  0  0  0  0  0  0  0  0
   26.4984  -22.3637  -14.5231 O   0  0  0  0  0  0  0  0  0  0  0  0
   26.9344  -20.7116  -12.9913 N   0  0  0  0  0  0  0  0  0  0  0  0
   25.9098  -21.1484  -12.0748 C   0  0  1  0  0  0  0  0  0  0  0  0
   26.2797  -20.6426  -10.6952 C   0  0  0  0  0  0  0  0  0  0  0  0
   24.9839  -21.0595   -9.5169 S   0  0  0  0  0  0  0  0  0  0  0  0
   24.5496  -20.7605  -12.4463 C   0  0  0  0  0  0  0  0  0  0  0  0
   24.4085  -19.5956  -12.9348 O   0  0  0  0  0  0  0  0  0  0  0  0
   17.7081  -25.1256  -13.4661 N   0  0  0  0  0  0  0  0  0  0  0  0
   18.2788  -25.0839  -14.7569 C   0  0  0  0  0  0  0  0  0  0  0  0
   17.8715  -25.8738  -15.6849 N   0  0  0  0  0  0  0  0  0  0  0  0
   19.3110  -24.1467  -14.9928 N   0  0  0  0  0  0  0  0  0  0  0  0
   19.2531  -22.9078  -14.1464 C   0  0  0  0  0  0  0  0  0  0  0  0
   20.3604  -22.0148  -14.5400 C   0  0  0  0  0  0  0  0  0  0  0  0
   21.6609  -22.0294  -13.8814 C   0  0  0  0  0  0  0  0  0  0  0  0
   22.0568  -21.1019  -12.8104 C   0  0  2  0  0  0  0  0  0  0  0  0
   23.4011  -21.5619  -12.3082 N   0  0  0  0  0  0  0  0  0  0  0  0
   21.2467  -21.0588  -11.6014 C   0  0  0  0  0  0  0  0  0  0  0  0
   20.0523  -20.4038  -11.4189 O   0  0  0  0  0  0  0  0  0  0  0  0
   21.6786  -21.6933  -10.5634 O   0  0  0  0  0  0  0  0  0  0  0  0
  2  3  1  0
  2  1  1  6
  4  3  1  0
  5  2  1  0
  5  6  2  0
  7  5  1  0
  8 11  1  0
  8  7  1  0
  8  9  1  1
 10  9  1  0
 11 21  1  0
 12 11  2  0
 14 13  1  0
 15 14  2  0
 16 14  1  0
 17 16  1  0
 18 17  1  0
 19 18  1  0
 20 19  1  6
 21 20  1  0
 22 23  1  0
 22 20  1  0
 24 22  2  0
M  END
$$$$
