CCR.pdb
     RDKit          3D

 24 23  0  0  1  0  0  0  0  0999 V2000
   22.6933  -14.8491  -16.8303 N   0  0  0  0  0  0  0  0  0  0  0  0
   23.9085  -14.8429  -16.0770 C   0  0  1  0  0  0  0  0  0  0  0  0
   23.5857  -14.9595  -14.5897 C   0  0  0  0  0  0  0  0  0  0  0  0
   22.8194  -13.4481  -13.9672 S   0  0  0  0  0  0  0  0  0  0  0  0
   24.8085  -15.9842  -16.3855 C   0  0  0  0  0  0  0  0  0  0  0  0
   24.3276  -17.1367  -16.3248 O   0  0  0  0  0  0  0  0  0  0  0  0
   26.1809  -15.8506  -16.7457 N   0  0  0  0  0  0  0  0  0  0  0  0
   27.0163  -16.9792  -17.0760 C   0  0  1  0  0  0  0  0  0  0  0  0
   28.2028  -16.4596  -17.8624 C   0  0  0  0  0  0  0  0  0  0  0  0
   27.6373  -15.4119  -19.2130 S   0  0  0  0  0  0  0  0  0  0  0  0
   27.4375  -17.7856  -15.9311 C   0  0  0  0  0  0  0  0  0  0  0  0
   28.0275  -17.1661  -14.9911 O   0  0  0  0  0  0  0  0  0  0  0  0
   23.3996  -22.6174  -13.4599 N   0  0  0  0  0  0  0  0  0  0  0  0
   23.1045  -21.5160  -12.6271 C   0  0  0  0  0  0  0  0  0  0  0  0
   21.9241  -21.0094  -12.5957 N   0  0  0  0  0  0  0  0  0  0  0  0
   24.1490  -20.9908  -11.8318 N   0  0  0  0  0  0  0  0  0  0  0  0
   25.4846  -21.6518  -12.0157 C   0  0  0  0  0  0  0  0  0  0  0  0
   26.4805  -20.6173  -12.3571 C   0  0  0  0  0  0  0  0  0  0  0  0
   26.5050  -19.9377  -13.6466 C   0  0  0  0  0  0  0  0  0  0  0  0
   27.6724  -19.9011  -14.5410 C   0  0  2  0  0  0  0  0  0  0  0  0
   27.2448  -19.1723  -15.7888 N   0  0  0  0  0  0  0  0  0  0  0  0
   28.1885  -21.1628  -15.0527 C   0  0  0  0  0  0  0  0  0  0  0  0
   29.0425  -22.0342  -14.4202 O   0  0  0  0  0  0  0  0  0  0  0  0
   27.8253  -21.5267  -16.2368 O   0  0  0  0  0  0  0  0  0  0  0  0
  2  3  1  0
  2  1  1  6
  4  3  1  0
  5  2  1  0
  5  6  2  0
  7  5  1  0
  8 11  1  0
  8  7  1  0
  8  9  1  1
 10  9  1  0
 11 21  1  0
 12 11  2  0
 14 13  1  0
 15 14  2  0
 16 14  1  0
 17 16  1  0
 18 17  1  0
 19 18  1  0
 20 19  1  1
 21 20  1  0
 22 23  1  0
 22 20  1  0
 24 22  2  0
M  END
$$$$
