CCR.pdb
     RDKit          3D

 24 23  0  0  1  0  0  0  0  0999 V2000
   28.3339  -18.3963  -14.8787 N   0  0  0  0  0  0  0  0  0  0  0  0
   27.4777  -19.2846  -15.6012 C   0  0  1  0  0  0  0  0  0  0  0  0
   28.3040  -20.0813  -16.6075 C   0  0  0  0  0  0  0  0  0  0  0  0
   29.5885  -19.0564  -17.3550 S   0  0  0  0  0  0  0  0  0  0  0  0
   26.8033  -20.2935  -14.7438 C   0  0  0  0  0  0  0  0  0  0  0  0
   26.0814  -21.1453  -15.3064 O   0  0  0  0  0  0  0  0  0  0  0  0
   26.9258  -20.3531  -13.3252 N   0  0  0  0  0  0  0  0  0  0  0  0
   25.9527  -21.0042  -12.4828 C   0  0  1  0  0  0  0  0  0  0  0  0
   26.4092  -20.8485  -11.0463 C   0  0  0  0  0  0  0  0  0  0  0  0
   25.0813  -21.3129   -9.9228 S   0  0  0  0  0  0  0  0  0  0  0  0
   24.5771  -20.5431  -12.6662 C   0  0  0  0  0  0  0  0  0  0  0  0
   24.3838  -19.2907  -12.5666 O   0  0  0  0  0  0  0  0  0  0  0  0
   18.0027  -22.6114  -16.0465 N   0  0  0  0  0  0  0  0  0  0  0  0
   17.7350  -21.3664  -16.6566 C   0  0  0  0  0  0  0  0  0  0  0  0
   16.5296  -21.0015  -16.9113 N   0  0  0  0  0  0  0  0  0  0  0  0
   18.8350  -20.5378  -16.9771 N   0  0  0  0  0  0  0  0  0  0  0  0
   20.1820  -21.1045  -16.6321 C   0  0  0  0  0  0  0  0  0  0  0  0
   20.4937  -20.7616  -15.2307 C   0  0  0  0  0  0  0  0  0  0  0  0
   21.7690  -21.0838  -14.6021 C   0  0  0  0  0  0  0  0  0  0  0  0
   22.1032  -20.7767  -13.2028 C   0  0  2  0  0  0  0  0  0  0  0  0
   23.4665  -21.3627  -12.9400 N   0  0  0  0  0  0  0  0  0  0  0  0
   21.2812  -21.3622  -12.1534 C   0  0  0  0  0  0  0  0  0  0  0  0
   20.1800  -20.8069  -11.5469 O   0  0  0  0  0  0  0  0  0  0  0  0
   21.6045  -22.5335  -11.7173 O   0  0  0  0  0  0  0  0  0  0  0  0
  2  3  1  0
  2  1  1  1
  4  3  1  0
  5  2  1  0
  5  6  2  0
  7  5  1  0
  8 11  1  0
  8  7  1  0
  8  9  1  1
 10  9  1  0
 11 21  1  0
 12 11  2  0
 14 13  1  0
 15 14  2  0
 16 14  1  0
 17 16  1  0
 18 17  1  0
 19 18  1  0
 20 19  1  6
 21 20  1  0
 22 23  1  0
 22 20  1  0
 24 22  2  0
M  END
$$$$
