CCR.pdb
     RDKit          3D

 24 23  0  0  1  0  0  0  0  0999 V2000
   28.4047  -20.1149  -15.8059 N   0  0  0  0  0  0  0  0  0  0  0  0
   27.9493  -19.6219  -14.5435 C   0  0  1  0  0  0  0  0  0  0  0  0
   27.1378  -18.3470  -14.7580 C   0  0  0  0  0  0  0  0  0  0  0  0
   28.2157  -16.9248  -15.0311 S   0  0  0  0  0  0  0  0  0  0  0  0
   27.0466  -20.5593  -13.8264 C   0  0  0  0  0  0  0  0  0  0  0  0
   26.3317  -21.3193  -14.5153 O   0  0  0  0  0  0  0  0  0  0  0  0
   26.9433  -20.6482  -12.4078 N   0  0  0  0  0  0  0  0  0  0  0  0
   25.7688  -21.1522  -11.7392 C   0  0  1  0  0  0  0  0  0  0  0  0
   25.9754  -20.9747  -10.2486 C   0  0  0  0  0  0  0  0  0  0  0  0
   24.4704  -21.4082   -9.3607 S   0  0  0  0  0  0  0  0  0  0  0  0
   24.5083  -20.5597  -12.1848 C   0  0  0  0  0  0  0  0  0  0  0  0
   24.4709  -19.2905  -12.2432 O   0  0  0  0  0  0  0  0  0  0  0  0
   21.6808  -17.0931  -18.4118 N   0  0  0  0  0  0  0  0  0  0  0  0
   20.3806  -17.5468  -18.0996 C   0  0  0  0  0  0  0  0  0  0  0  0
   19.3495  -17.0476  -18.6815 N   0  0  0  0  0  0  0  0  0  0  0  0
   20.2523  -18.5657  -17.1276 N   0  0  0  0  0  0  0  0  0  0  0  0
   21.5066  -18.8808  -16.3646 C   0  0  0  0  0  0  0  0  0  0  0  0
   21.2225  -19.9811  -15.4227 C   0  0  0  0  0  0  0  0  0  0  0  0
   22.2327  -20.5424  -14.5340 C   0  0  0  0  0  0  0  0  0  0  0  0
   22.1240  -20.5654  -13.0671 C   0  0  2  0  0  0  0  0  0  0  0  0
   23.3503  -21.2716  -12.5488 N   0  0  0  0  0  0  0  0  0  0  0  0
   21.0295  -21.3162  -12.4687 C   0  0  0  0  0  0  0  0  0  0  0  0
   19.7983  -20.8384  -12.0883 O   0  0  0  0  0  0  0  0  0  0  0  0
   21.2103  -22.5759  -12.2518 O   0  0  0  0  0  0  0  0  0  0  0  0
  2  3  1  0
  2  1  1  6
  4  3  1  0
  5  2  1  0
  5  6  2  0
  7  5  1  0
  8 11  1  0
  8  7  1  0
  8  9  1  1
 10  9  1  0
 11 21  1  0
 12 11  2  0
 14 13  1  0
 15 14  2  0
 16 14  1  0
 17 16  1  0
 18 17  1  0
 19 18  1  0
 20 19  1  6
 21 20  1  0
 22 23  1  0
 22 20  1  0
 24 22  2  0
M  END
$$$$
