CCR.pdb
     RDKit          3D

 24 23  0  0  1  0  0  0  0  0999 V2000
   25.3715  -16.4461  -15.5154 N   0  0  0  0  0  0  0  0  0  0  0  0
   25.7313  -15.4644  -16.4906 C   0  0  1  0  0  0  0  0  0  0  0  0
   24.6621  -15.4127  -17.5788 C   0  0  0  0  0  0  0  0  0  0  0  0
   24.5872  -16.9663  -18.4952 S   0  0  0  0  0  0  0  0  0  0  0  0
   25.8194  -14.0850  -15.9454 C   0  0  0  0  0  0  0  0  0  0  0  0
   24.9718  -13.7415  -15.0928 O   0  0  0  0  0  0  0  0  0  0  0  0
   26.8053  -13.1304  -16.3300 N   0  0  0  0  0  0  0  0  0  0  0  0
   26.8049  -11.7695  -15.8520 C   0  0  1  0  0  0  0  0  0  0  0  0
   28.1604  -11.1701  -16.1671 C   0  0  0  0  0  0  0  0  0  0  0  0
   28.2190   -9.4553  -15.6219 S   0  0  0  0  0  0  0  0  0  0  0  0
   25.7146  -10.9405  -16.3643 C   0  0  0  0  0  0  0  0  0  0  0  0
   25.5185  -10.9788  -17.6195 O   0  0  0  0  0  0  0  0  0  0  0  0
   17.6460  -11.5800  -15.3326 N   0  0  0  0  0  0  0  0  0  0  0  0
   18.0943  -11.5306  -16.6707 C   0  0  0  0  0  0  0  0  0  0  0  0
   17.4496  -12.1315  -17.6057 N   0  0  0  0  0  0  0  0  0  0  0  0
   19.2734  -10.8002  -16.9457 N   0  0  0  0  0  0  0  0  0  0  0  0
   19.9354  -10.1832  -15.7474 C   0  0  0  0  0  0  0  0  0  0  0  0
   21.1738   -9.5106  -16.1862 C   0  0  0  0  0  0  0  0  0  0  0  0
   22.5038  -10.0168  -15.8698 C   0  0  0  0  0  0  0  0  0  0  0  0
   23.7561   -9.3265  -16.2153 C   0  0  2  0  0  0  0  0  0  0  0  0
   24.8774  -10.1157  -15.5902 N   0  0  0  0  0  0  0  0  0  0  0  0
   23.9671   -7.9817  -15.6987 C   0  0  0  0  0  0  0  0  0  0  0  0
   23.0944   -6.9212  -15.7481 O   0  0  0  0  0  0  0  0  0  0  0  0
   25.0975   -7.7247  -15.1305 O   0  0  0  0  0  0  0  0  0  0  0  0
  2  3  1  0
  2  1  1  1
  4  3  1  0
  5  2  1  0
  5  6  2  0
  7  5  1  0
  8 11  1  0
  8  7  1  0
  8  9  1  6
 10  9  1  0
 11 21  1  0
 12 11  2  0
 14 13  1  0
 15 14  2  0
 16 14  1  0
 17 16  1  0
 18 17  1  0
 19 18  1  0
 20 19  1  1
 21 20  1  0
 22 23  1  0
 22 20  1  0
 24 22  2  0
M  END
$$$$
