DAP.pdb
     RDKit          3D

 21 21  0  0  1  0  0  0  0  0999 V2000
   27.1706  -25.1122  -17.3709 N   0  0  0  0  0  0  0  0  0  0  0  0
   25.8635  -24.7500  -16.8117 C   0  0  1  0  0  0  0  0  0  0  0  0
   25.2888  -26.0328  -16.2765 C   0  0  0  0  0  0  0  0  0  0  0  0
   24.7278  -26.9303  -17.2958 C   0  0  0  0  0  0  0  0  0  0  0  0
   25.1660  -28.0771  -17.5245 O   0  0  0  0  0  0  0  0  0  0  0  0
   26.1012  -23.7280  -15.7389 C   0  0  0  0  0  0  0  0  0  0  0  0
   26.8293  -23.9242  -14.7627 O   0  0  0  0  0  0  0  0  0  0  0  0
   23.6314  -26.4446  -18.0457 O   0  0  0  0  0  0  0  0  0  0  0  0
   25.1440  -20.1347  -15.5164 C   0  0  0  0  0  0  0  0  0  0  0  0
   25.6194  -21.4106  -14.8648 C   0  0  2  0  0  0  0  0  0  0  0  0
   25.4612  -22.4667  -15.8411 N   0  0  0  0  0  0  0  0  0  0  0  0
   24.7385  -21.7593  -13.6981 C   0  0  0  0  0  0  0  0  0  0  0  0
   23.7663  -22.5769  -13.8503 O   0  0  0  0  0  0  0  0  0  0  0  0
   24.9363  -21.2160  -12.4136 N   0  0  0  0  0  0  0  0  0  0  0  0
   26.0774  -20.4473  -11.9786 C   0  0  0  0  0  0  0  0  0  0  0  0
   26.2079  -20.9763  -10.5415 C   0  0  0  0  0  0  0  0  0  0  0  0
   24.7754  -20.8345  -10.0789 C   0  0  0  0  0  0  0  0  0  0  0  0
   24.0192  -21.3408  -11.3063 C   0  0  1  0  0  0  0  0  0  0  0  0
   22.8400  -20.4516  -11.4489 C   0  0  0  0  0  0  0  0  0  0  0  0
   22.9207  -19.5331  -12.3047 O   0  0  0  0  0  0  0  0  0  0  0  0
   21.6760  -20.5647  -10.7147 O   0  0  0  0  0  0  0  0  0  0  0  0
  2  1  1  1
  3  2  1  0
  3  4  1  0
  4  8  1  0
  5  4  2  0
  6  2  1  0
  7  6  2  0
 10  9  1  6
 10 12  1  0
 10 11  1  0
 11  6  1  0
 12 14  1  0
 13 12  2  0
 14 15  1  0
 14 18  1  0
 15 16  1  0
 16 17  1  0
 18 17  1  0
 18 19  1  6
 19 21  1  0
 20 19  2  0
M  END
$$$$
