DAP.pdb
     RDKit          3D

 21 21  0  0  1  0  0  0  0  0999 V2000
   17.3377  -15.1245  -16.7013 N   0  0  0  0  0  0  0  0  0  0  0  0
   17.0333  -13.8573  -16.0272 C   0  0  1  0  0  0  0  0  0  0  0  0
   16.8580  -14.2094  -14.5755 C   0  0  0  0  0  0  0  0  0  0  0  0
   15.6425  -14.9761  -14.2689 C   0  0  0  0  0  0  0  0  0  0  0  0
   14.4934  -14.6102  -14.5932 O   0  0  0  0  0  0  0  0  0  0  0  0
   18.1909  -12.9325  -16.2648 C   0  0  0  0  0  0  0  0  0  0  0  0
   19.3693  -13.2681  -16.1219 O   0  0  0  0  0  0  0  0  0  0  0  0
   15.8105  -16.1924  -13.5669 O   0  0  0  0  0  0  0  0  0  0  0  0
   18.3621   -9.7029  -18.0380 C   0  0  0  0  0  0  0  0  0  0  0  0
   18.9675  -10.6606  -17.0405 C   0  0  2  0  0  0  0  0  0  0  0  0
   17.9298  -11.6005  -16.6753 N   0  0  0  0  0  0  0  0  0  0  0  0
   19.3555   -9.9297  -15.7859 C   0  0  0  0  0  0  0  0  0  0  0  0
   18.5718   -9.9305  -14.7747 O   0  0  0  0  0  0  0  0  0  0  0  0
   20.5702   -9.2263  -15.6666 N   0  0  0  0  0  0  0  0  0  0  0  0
   21.5837   -9.0949  -16.6853 C   0  0  0  0  0  0  0  0  0  0  0  0
   22.8409   -9.1628  -15.8039 C   0  0  0  0  0  0  0  0  0  0  0  0
   22.4710   -8.1526  -14.7414 C   0  0  0  0  0  0  0  0  0  0  0  0
   21.0074   -8.5129  -14.4909 C   0  0  1  0  0  0  0  0  0  0  0  0
   20.2975   -7.2212  -14.3195 C   0  0  0  0  0  0  0  0  0  0  0  0
   19.6626   -6.7852  -15.3141 O   0  0  0  0  0  0  0  0  0  0  0  0
   20.2879   -6.4770  -13.1565 O   0  0  0  0  0  0  0  0  0  0  0  0
  2  1  1  6
  3  2  1  0
  3  4  1  0
  4  8  1  0
  5  4  2  0
  6  2  1  0
  7  6  2  0
 10  9  1  6
 10 12  1  0
 10 11  1  0
 11  6  1  0
 12 14  1  0
 13 12  2  0
 14 15  1  0
 14 18  1  0
 15 16  1  0
 16 17  1  0
 18 17  1  0
 18 19  1  6
 19 21  1  0
 20 19  2  0
M  END
$$$$
