DAP.pdb
     RDKit          3D

 21 21  0  0  1  0  0  0  0  0999 V2000
   15.6866  -10.8662  -16.3004 N   0  0  0  0  0  0  0  0  0  0  0  0
   16.1218   -9.5073  -16.6422 C   0  0  1  0  0  0  0  0  0  0  0  0
   15.1085   -8.5928  -16.0105 C   0  0  0  0  0  0  0  0  0  0  0  0
   13.7709   -8.6410  -16.6170 C   0  0  0  0  0  0  0  0  0  0  0  0
   12.7237   -8.8436  -15.9676 O   0  0  0  0  0  0  0  0  0  0  0  0
   17.5009   -9.3224  -16.0803 C   0  0  0  0  0  0  0  0  0  0  0  0
   17.7947   -9.5639  -14.9067 O   0  0  0  0  0  0  0  0  0  0  0  0
   13.6925   -8.4441  -18.0153 O   0  0  0  0  0  0  0  0  0  0  0  0
   20.7445   -8.5148  -17.7245 C   0  0  0  0  0  0  0  0  0  0  0  0
   19.8836   -8.5987  -16.4875 C   0  0  2  0  0  0  0  0  0  0  0  0
   18.5291   -8.8457  -16.9326 N   0  0  0  0  0  0  0  0  0  0  0  0
   19.8730   -7.2784  -15.7695 C   0  0  0  0  0  0  0  0  0  0  0  0
   18.9264   -6.4432  -15.9769 O   0  0  0  0  0  0  0  0  0  0  0  0
   20.8799   -6.9069  -14.8571 N   0  0  0  0  0  0  0  0  0  0  0  0
   21.9122   -7.7658  -14.3290 C   0  0  0  0  0  0  0  0  0  0  0  0
   21.9841   -7.2241  -12.8926 C   0  0  0  0  0  0  0  0  0  0  0  0
   22.0792   -5.7418  -13.1759 C   0  0  0  0  0  0  0  0  0  0  0  0
   21.0466   -5.5896  -14.2918 C   0  0  1  0  0  0  0  0  0  0  0  0
   21.6367   -4.6322  -15.2597 C   0  0  0  0  0  0  0  0  0  0  0  0
   21.6232   -3.4164  -14.9368 O   0  0  0  0  0  0  0  0  0  0  0  0
   22.1923   -4.9830  -16.4742 O   0  0  0  0  0  0  0  0  0  0  0  0
  2  1  1  1
  3  2  1  0
  3  4  1  0
  4  8  1  0
  5  4  2  0
  6  2  1  0
  7  6  2  0
 10  9  1  6
 10 12  1  0
 10 11  1  0
 11  6  1  0
 12 14  1  0
 13 12  2  0
 14 15  1  0
 14 18  1  0
 15 16  1  0
 16 17  1  0
 18 17  1  0
 18 19  1  6
 19 21  1  0
 20 19  2  0
M  END
$$$$
