DAP.pdb
     RDKit          3D

 21 21  0  0  1  0  0  0  0  0999 V2000
   14.9633  -12.9263  -15.5107 N   0  0  0  0  0  0  0  0  0  0  0  0
   15.4049  -11.5316  -15.6236 C   0  0  1  0  0  0  0  0  0  0  0  0
   14.6681  -10.7908  -14.5417 C   0  0  0  0  0  0  0  0  0  0  0  0
   13.2321  -10.6027  -14.7905 C   0  0  0  0  0  0  0  0  0  0  0  0
   12.3454  -10.8503  -13.9468 O   0  0  0  0  0  0  0  0  0  0  0  0
   16.8927  -11.5142  -15.4295 C   0  0  0  0  0  0  0  0  0  0  0  0
   17.4510  -11.9408  -14.4156 O   0  0  0  0  0  0  0  0  0  0  0  0
   12.8600  -10.1129  -16.0641 O   0  0  0  0  0  0  0  0  0  0  0  0
   19.6456  -10.7030  -17.8088 C   0  0  0  0  0  0  0  0  0  0  0  0
   19.1571  -10.9842  -16.4085 C   0  0  2  0  0  0  0  0  0  0  0  0
   17.7110  -10.9820  -16.4582 N   0  0  0  0  0  0  0  0  0  0  0  0
   19.5636   -9.8730  -15.4819 C   0  0  0  0  0  0  0  0  0  0  0  0
   18.7282   -8.9525  -15.1791 O   0  0  0  0  0  0  0  0  0  0  0  0
   20.8516   -9.7938  -14.9170 N   0  0  0  0  0  0  0  0  0  0  0  0
   21.9216  -10.7454  -15.0953 C   0  0  0  0  0  0  0  0  0  0  0  0
   22.5308  -10.7108  -13.6848 C   0  0  0  0  0  0  0  0  0  0  0  0
   22.6545   -9.2165  -13.4892 C   0  0  0  0  0  0  0  0  0  0  0  0
   21.3191   -8.7352  -14.0548 C   0  0  1  0  0  0  0  0  0  0  0  0
   21.6234   -7.4914  -14.8046 C   0  0  0  0  0  0  0  0  0  0  0  0
   21.7543   -6.4381  -14.1294 O   0  0  0  0  0  0  0  0  0  0  0  0
   21.7707   -7.4152  -16.1755 O   0  0  0  0  0  0  0  0  0  0  0  0
  2  1  1  1
  3  2  1  0
  3  4  1  0
  4  8  1  0
  5  4  2  0
  6  2  1  0
  7  6  2  0
 10  9  1  6
 10 12  1  0
 10 11  1  0
 11  6  1  0
 12 14  1  0
 13 12  2  0
 14 15  1  0
 14 18  1  0
 15 16  1  0
 16 17  1  0
 18 17  1  0
 18 19  1  6
 19 21  1  0
 20 19  2  0
M  END
$$$$
