DAP.pdb
     RDKit          3D

 21 21  0  0  1  0  0  0  0  0999 V2000
   22.6442  -35.7971  -12.0161 N   0  0  0  0  0  0  0  0  0  0  0  0
   22.3538  -34.8793  -10.9088 C   0  0  1  0  0  0  0  0  0  0  0  0
   21.3358  -35.5887  -10.0587 C   0  0  0  0  0  0  0  0  0  0  0  0
   19.9864  -35.6533  -10.6369 C   0  0  0  0  0  0  0  0  0  0  0  0
   19.3193  -36.7057  -10.7209 O   0  0  0  0  0  0  0  0  0  0  0  0
   23.6430  -34.6286  -10.1830 C   0  0  0  0  0  0  0  0  0  0  0  0
   24.4689  -35.5121   -9.9397 O   0  0  0  0  0  0  0  0  0  0  0  0
   19.4352  -34.4428  -11.1176 O   0  0  0  0  0  0  0  0  0  0  0  0
   25.0736  -31.4798   -8.7477 C   0  0  0  0  0  0  0  0  0  0  0  0
   25.1406  -32.9626   -9.0217 C   0  0  2  0  0  0  0  0  0  0  0  0
   23.9393  -33.3115   -9.7490 N   0  0  0  0  0  0  0  0  0  0  0  0
   25.1087  -33.7328   -7.7315 C   0  0  0  0  0  0  0  0  0  0  0  0
   23.9961  -34.1622   -7.2682 O   0  0  0  0  0  0  0  0  0  0  0  0
   26.2731  -34.0114   -6.9893 N   0  0  0  0  0  0  0  0  0  0  0  0
   27.6192  -33.6241   -7.3361 C   0  0  0  0  0  0  0  0  0  0  0  0
   28.3752  -34.8732   -6.8565 C   0  0  0  0  0  0  0  0  0  0  0  0
   27.7900  -35.0175   -5.4698 C   0  0  0  0  0  0  0  0  0  0  0  0
   26.3127  -34.7404   -5.7445 C   0  0  1  0  0  0  0  0  0  0  0  0
   25.8352  -33.9260   -4.5997 C   0  0  0  0  0  0  0  0  0  0  0  0
   25.6174  -32.7070   -4.8209 O   0  0  0  0  0  0  0  0  0  0  0  0
   25.6170  -34.4115   -3.3256 O   0  0  0  0  0  0  0  0  0  0  0  0
  2  1  1  6
  3  2  1  0
  3  4  1  0
  4  8  1  0
  5  4  2  0
  6  2  1  0
  7  6  2  0
 10  9  1  1
 10 12  1  0
 10 11  1  0
 11  6  1  0
 12 14  1  0
 13 12  2  0
 14 15  1  0
 14 18  1  0
 15 16  1  0
 16 17  1  0
 18 17  1  0
 18 19  1  1
 19 21  1  0
 20 19  2  0
M  END
$$$$
