DAP.pdb
     RDKit          3D

 21 21  0  0  1  0  0  0  0  0999 V2000
   16.4234  -13.6308  -17.6423 N   0  0  0  0  0  0  0  0  0  0  0  0
   16.6549  -12.1857  -17.7460 C   0  0  1  0  0  0  0  0  0  0  0  0
   15.5209  -11.5446  -16.9942 C   0  0  0  0  0  0  0  0  0  0  0  0
   14.2142  -11.6258  -17.6614 C   0  0  0  0  0  0  0  0  0  0  0  0
   13.1257  -11.4516  -17.0746 O   0  0  0  0  0  0  0  0  0  0  0  0
   17.9939  -11.8998  -17.1319 C   0  0  0  0  0  0  0  0  0  0  0  0
   18.3288  -12.3014  -16.0146 O   0  0  0  0  0  0  0  0  0  0  0  0
   14.2169  -11.9187  -19.0451 O   0  0  0  0  0  0  0  0  0  0  0  0
   21.0684  -10.4294  -18.6335 C   0  0  0  0  0  0  0  0  0  0  0  0
   20.2940  -10.9057  -17.4286 C   0  0  2  0  0  0  0  0  0  0  0  0
   18.9323  -11.1288  -17.8640 N   0  0  0  0  0  0  0  0  0  0  0  0
   20.2463   -9.8291  -16.3810 C   0  0  0  0  0  0  0  0  0  0  0  0
   19.2108   -9.0858  -16.2719 O   0  0  0  0  0  0  0  0  0  0  0  0
   21.3129   -9.5930  -15.4917 N   0  0  0  0  0  0  0  0  0  0  0  0
   22.5452  -10.3403  -15.4195 C   0  0  0  0  0  0  0  0  0  0  0  0
   22.7597  -10.3313  -13.8977 C   0  0  0  0  0  0  0  0  0  0  0  0
   22.5609   -8.8595  -13.6137 C   0  0  0  0  0  0  0  0  0  0  0  0
   21.3494   -8.5523  -14.4926 C   0  0  1  0  0  0  0  0  0  0  0  0
   21.6071   -7.2150  -15.0818 C   0  0  0  0  0  0  0  0  0  0  0  0
   22.0307   -7.1876  -16.2660 O   0  0  0  0  0  0  0  0  0  0  0  0
   21.4149   -6.0156  -14.4251 O   0  0  0  0  0  0  0  0  0  0  0  0
  2  1  1  1
  3  2  1  0
  3  4  1  0
  4  8  1  0
  5  4  2  0
  6  2  1  0
  7  6  2  0
 10  9  1  6
 10 12  1  0
 10 11  1  0
 11  6  1  0
 12 14  1  0
 13 12  2  0
 14 15  1  0
 14 18  1  0
 15 16  1  0
 16 17  1  0
 18 17  1  0
 18 19  1  6
 19 21  1  0
 20 19  2  0
M  END
$$$$
