DAP.pdb
     RDKit          3D

 21 21  0  0  1  0  0  0  0  0999 V2000
   38.4947   -9.7594   -8.5249 N   0  0  0  0  0  0  0  0  0  0  0  0
   39.5651  -10.5548   -7.9130 C   0  0  1  0  0  0  0  0  0  0  0  0
   38.8654  -11.5740   -7.0565 C   0  0  0  0  0  0  0  0  0  0  0  0
   38.1887  -11.0255   -5.8730 C   0  0  0  0  0  0  0  0  0  0  0  0
   37.6371  -11.7308   -5.0025 O   0  0  0  0  0  0  0  0  0  0  0  0
   40.3557  -11.1765   -9.0266 C   0  0  0  0  0  0  0  0  0  0  0  0
   39.8563  -11.8959   -9.8954 O   0  0  0  0  0  0  0  0  0  0  0  0
   38.1756   -9.6179   -5.7356 O   0  0  0  0  0  0  0  0  0  0  0  0
   43.6847  -10.3992  -10.3683 C   0  0  0  0  0  0  0  0  0  0  0  0
   42.5954  -11.4236  -10.1621 C   0  0  2  0  0  0  0  0  0  0  0  0
   41.7509  -10.9319   -9.0951 N   0  0  0  0  0  0  0  0  0  0  0  0
   43.1848  -12.7226   -9.6888 C   0  0  0  0  0  0  0  0  0  0  0  0
   43.4056  -12.9104   -8.4427 O   0  0  0  0  0  0  0  0  0  0  0  0
   43.5141  -13.7691  -10.5724 N   0  0  0  0  0  0  0  0  0  0  0  0
   43.2789  -13.7896  -11.9960 C   0  0  0  0  0  0  0  0  0  0  0  0
   42.9102  -15.2712  -12.1718 C   0  0  0  0  0  0  0  0  0  0  0  0
   44.0529  -15.9166  -11.4209 C   0  0  0  0  0  0  0  0  0  0  0  0
   44.1480  -15.0093  -10.1951 C   0  0  1  0  0  0  0  0  0  0  0  0
   45.5980  -14.8421   -9.9283 C   0  0  0  0  0  0  0  0  0  0  0  0
   46.1861  -15.7997   -9.3628 O   0  0  0  0  0  0  0  0  0  0  0  0
   46.3340  -13.7206  -10.2556 O   0  0  0  0  0  0  0  0  0  0  0  0
  2  1  1  6
  3  2  1  0
  3  4  1  0
  4  8  1  0
  5  4  2  0
  6  2  1  0
  7  6  2  0
 10  9  1  1
 10 12  1  0
 10 11  1  0
 11  6  1  0
 12 14  1  0
 13 12  2  0
 14 15  1  0
 14 18  1  0
 15 16  1  0
 16 17  1  0
 18 17  1  0
 18 19  1  6
 19 21  1  0
 20 19  2  0
M  END
$$$$
