DAP.pdb
     RDKit          3D

 21 21  0  0  1  0  0  0  0  0999 V2000
   20.0065  -22.1297  -17.2275 N   0  0  0  0  0  0  0  0  0  0  0  0
   20.1304  -21.2663  -16.0478 C   0  0  1  0  0  0  0  0  0  0  0  0
   18.9937  -21.6590  -15.1445 C   0  0  0  0  0  0  0  0  0  0  0  0
   18.6266  -20.6507  -14.1406 C   0  0  0  0  0  0  0  0  0  0  0  0
   19.4437  -20.1281  -13.3540 O   0  0  0  0  0  0  0  0  0  0  0  0
   21.4753  -21.5301  -15.4369 C   0  0  0  0  0  0  0  0  0  0  0  0
   21.7803  -22.5981  -14.9002 O   0  0  0  0  0  0  0  0  0  0  0  0
   17.2662  -20.2681  -14.0824 O   0  0  0  0  0  0  0  0  0  0  0  0
   24.5788  -19.4447  -15.3680 C   0  0  0  0  0  0  0  0  0  0  0  0
   23.7981  -20.6694  -14.9568 C   0  0  2  0  0  0  0  0  0  0  0  0
   22.4559  -20.5063  -15.4720 N   0  0  0  0  0  0  0  0  0  0  0  0
   23.6856  -20.7371  -13.4596 C   0  0  0  0  0  0  0  0  0  0  0  0
   22.6400  -20.2893  -12.8741 O   0  0  0  0  0  0  0  0  0  0  0  0
   24.7008  -21.2831  -12.6499 N   0  0  0  0  0  0  0  0  0  0  0  0
   25.9553  -21.8302  -13.1072 C   0  0  0  0  0  0  0  0  0  0  0  0
   26.0993  -22.9979  -12.1184 C   0  0  0  0  0  0  0  0  0  0  0  0
   25.8332  -22.2744  -10.8177 C   0  0  0  0  0  0  0  0  0  0  0  0
   24.6528  -21.3877  -11.2114 C   0  0  1  0  0  0  0  0  0  0  0  0
   24.8875  -20.0835  -10.5439 C   0  0  0  0  0  0  0  0  0  0  0  0
   25.4651  -19.1942  -11.2208 O   0  0  0  0  0  0  0  0  0  0  0  0
   24.5185  -19.7857   -9.2470 O   0  0  0  0  0  0  0  0  0  0  0  0
  2  1  1  6
  3  2  1  0
  3  4  1  0
  4  8  1  0
  5  4  2  0
  6  2  1  0
  7  6  2  0
 10  9  1  1
 10 12  1  0
 10 11  1  0
 11  6  1  0
 12 14  1  0
 13 12  2  0
 14 15  1  0
 14 18  1  0
 15 16  1  0
 16 17  1  0
 18 17  1  0
 18 19  1  1
 19 21  1  0
 20 19  2  0
M  END
$$$$
