HLV.pdb
     RDKit          3D

 26 26  0  0  1  0  0  0  0  0999 V2000
    9.7601  -13.4856   20.6825 N   0  0  0  0  0  0  0  0  0  0  0  0
    8.6338  -14.1214   21.3106 C   0  0  1  0  0  0  0  0  0  0  0  0
    8.2853  -15.3632   20.5350 C   0  0  0  0  0  0  0  0  0  0  0  0
    7.8872  -14.9473   19.1645 C   0  0  0  0  0  0  0  0  0  0  0  0
    7.9079  -13.6512   18.6308 C   0  0  0  0  0  0  0  0  0  0  0  0
    7.4747  -13.6914   17.3677 N   0  0  0  0  0  0  0  0  0  0  0  0
    7.1786  -14.9585   17.0730 C   0  0  0  0  0  0  0  0  0  0  0  0
    7.4284  -15.7154   18.1598 N   0  0  0  0  0  0  0  0  0  0  0  0
    8.8889  -14.3904   22.7354 C   0  0  0  0  0  0  0  0  0  0  0  0
    9.9955  -14.8095   23.1503 O   0  0  0  0  0  0  0  0  0  0  0  0
    5.8534  -11.9217   26.7513 C   0  0  0  0  0  0  0  0  0  0  0  0
    7.0312  -12.3888   25.8986 C   0  0  1  0  0  0  0  0  0  0  0  0
    8.2786  -11.9183   26.6943 C   0  0  0  0  0  0  0  0  0  0  0  0
    7.0459  -13.8882   25.9696 C   0  0  0  0  0  0  0  0  0  0  0  0
    8.1267  -14.4446   25.1161 C   0  0  2  0  0  0  0  0  0  0  0  0
    7.8749  -14.1804   23.6970 N   0  0  0  0  0  0  0  0  0  0  0  0
    8.3177  -15.8895   25.3381 C   0  0  0  0  0  0  0  0  0  0  0  0
    7.4209  -16.7233   25.1293 O   0  0  0  0  0  0  0  0  0  0  0  0
   11.4564  -19.6861   25.9760 C   0  0  0  0  0  0  0  0  0  0  0  0
   11.2167  -18.2277   25.6238 C   0  0  1  0  0  0  0  0  0  0  0  0
   11.5147  -17.9599   24.1768 C   0  0  0  0  0  0  0  0  0  0  0  0
    9.8078  -17.8196   26.0149 C   0  0  2  0  0  0  0  0  0  0  0  0
    9.5694  -16.4180   25.8147 N   0  0  0  0  0  0  0  0  0  0  0  0
    9.6321  -18.0988   27.4707 C   0  0  0  0  0  0  0  0  0  0  0  0
    9.4177  -19.3467   27.9967 O   0  0  0  0  0  0  0  0  0  0  0  0
    9.6852  -17.1171   28.2693 O   0  0  0  0  0  0  0  0  0  0  0  0
  2  1  1  6
  3  2  1  0
  4  8  1  0
  4  3  1  0
  5  4  2  0
  6  5  1  0
  6  7  1  0
  7  8  2  0
  9 10  2  0
  9  2  1  0
 12 11  1  1
 12 14  1  0
 12 13  1  0
 15 16  1  0
 15 14  1  1
 16  9  1  0
 17 15  1  0
 18 17  2  0
 20 19  1  6
 20 22  1  0
 20 21  1  0
 22 23  1  1
 23 17  1  0
 24 25  1  0
 24 22  1  0
 26 24  2  0
M  END
$$$$
