HLV.pdb
     RDKit          3D

 26 26  0  0  1  0  0  0  0  0999 V2000
    9.5043  -15.2618   20.4216 N   0  0  0  0  0  0  0  0  0  0  0  0
    8.4763  -15.6986   21.3269 C   0  0  1  0  0  0  0  0  0  0  0  0
    8.2217  -17.1642   21.0981 C   0  0  0  0  0  0  0  0  0  0  0  0
    7.6845  -17.3235   19.7212 C   0  0  0  0  0  0  0  0  0  0  0  0
    6.8738  -16.4227   19.0165 C   0  0  0  0  0  0  0  0  0  0  0  0
    6.6028  -16.9295   17.8105 N   0  0  0  0  0  0  0  0  0  0  0  0
    7.2065  -18.1155   17.7160 C   0  0  0  0  0  0  0  0  0  0  0  0
    7.8592  -18.3515   18.8713 N   0  0  0  0  0  0  0  0  0  0  0  0
    8.8188  -15.3897   22.7250 C   0  0  0  0  0  0  0  0  0  0  0  0
    9.9944  -15.4531   23.1564 O   0  0  0  0  0  0  0  0  0  0  0  0
    5.8183  -12.0804   26.0096 C   0  0  0  0  0  0  0  0  0  0  0  0
    7.0083  -12.7396   25.3157 C   0  0  1  0  0  0  0  0  0  0  0  0
    8.2430  -12.0427   25.9484 C   0  0  0  0  0  0  0  0  0  0  0  0
    7.0535  -14.1609   25.7966 C   0  0  0  0  0  0  0  0  0  0  0  0
    8.1018  -14.9272   25.0753 C   0  0  2  0  0  0  0  0  0  0  0  0
    7.8136  -15.0047   23.6407 N   0  0  0  0  0  0  0  0  0  0  0  0
    8.2787  -16.2807   25.6321 C   0  0  0  0  0  0  0  0  0  0  0  0
    7.3983  -17.1542   25.5613 O   0  0  0  0  0  0  0  0  0  0  0  0
   10.5037  -18.9114   24.6190 C   0  0  0  0  0  0  0  0  0  0  0  0
   10.8688  -18.6907   26.0772 C   0  0  1  0  0  0  0  0  0  0  0  0
   12.1740  -17.9601   26.2081 C   0  0  0  0  0  0  0  0  0  0  0  0
    9.7329  -17.9905   26.8009 C   0  0  2  0  0  0  0  0  0  0  0  0
    9.4965  -16.6674   26.2961 N   0  0  0  0  0  0  0  0  0  0  0  0
   10.1114  -17.8585   28.2388 C   0  0  0  0  0  0  0  0  0  0  0  0
   10.2973  -18.9188   29.0882 O   0  0  0  0  0  0  0  0  0  0  0  0
   10.2707  -16.6902   28.7012 O   0  0  0  0  0  0  0  0  0  0  0  0
  2  1  1  6
  3  2  1  0
  4  8  1  0
  4  3  1  0
  5  4  2  0
  6  5  1  0
  6  7  1  0
  7  8  2  0
  9 10  2  0
  9  2  1  0
 12 11  1  1
 12 14  1  0
 12 13  1  0
 15 16  1  0
 15 14  1  1
 16  9  1  0
 17 15  1  0
 18 17  2  0
 20 19  1  6
 20 22  1  0
 20 21  1  0
 22 23  1  6
 23 17  1  0
 24 25  1  0
 24 22  1  0
 26 24  2  0
M  END
$$$$
