HLV.pdb
     RDKit          3D

 26 26  0  0  1  0  0  0  0  0999 V2000
    7.7037  -16.4382   21.1321 N   0  0  0  0  0  0  0  0  0  0  0  0
    9.0648  -16.0527   21.3890 C   0  0  1  0  0  0  0  0  0  0  0  0
    9.5249  -15.1389   20.2852 C   0  0  0  0  0  0  0  0  0  0  0  0
    9.5126  -15.9147   19.0171 C   0  0  0  0  0  0  0  0  0  0  0  0
   10.1256  -17.1514   18.7723 C   0  0  0  0  0  0  0  0  0  0  0  0
    9.8840  -17.5170   17.5103 N   0  0  0  0  0  0  0  0  0  0  0  0
    9.1426  -16.5657   16.9397 C   0  0  0  0  0  0  0  0  0  0  0  0
    8.9195  -15.5988   17.8517 N   0  0  0  0  0  0  0  0  0  0  0  0
    9.2152  -15.4546   22.7258 C   0  0  0  0  0  0  0  0  0  0  0  0
   10.3161  -15.0291   23.1492 O   0  0  0  0  0  0  0  0  0  0  0  0
    5.8470  -12.4395   25.8481 C   0  0  0  0  0  0  0  0  0  0  0  0
    7.1162  -13.0418   25.2491 C   0  0  1  0  0  0  0  0  0  0  0  0
    8.2638  -12.3593   26.0413 C   0  0  0  0  0  0  0  0  0  0  0  0
    7.1423  -14.4856   25.6593 C   0  0  0  0  0  0  0  0  0  0  0  0
    8.2912  -15.1894   25.0339 C   0  0  2  0  0  0  0  0  0  0  0  0
    8.1021  -15.3394   23.5887 N   0  0  0  0  0  0  0  0  0  0  0  0
    8.5376  -16.5043   25.6536 C   0  0  0  0  0  0  0  0  0  0  0  0
    7.6515  -17.3673   25.7675 O   0  0  0  0  0  0  0  0  0  0  0  0
   11.2738  -18.9651   24.6252 C   0  0  0  0  0  0  0  0  0  0  0  0
   11.4269  -18.7301   26.1185 C   0  0  1  0  0  0  0  0  0  0  0  0
   12.6215  -17.8706   26.4159 C   0  0  0  0  0  0  0  0  0  0  0  0
   10.1417  -18.1624   26.6933 C   0  0  2  0  0  0  0  0  0  0  0  0
    9.8345  -16.8627   26.1662 N   0  0  0  0  0  0  0  0  0  0  0  0
   10.3194  -18.0152   28.1681 C   0  0  0  0  0  0  0  0  0  0  0  0
   10.3879  -19.0664   29.0458 O   0  0  0  0  0  0  0  0  0  0  0  0
   10.4128  -16.8419   28.6360 O   0  0  0  0  0  0  0  0  0  0  0  0
  2  1  1  6
  3  2  1  0
  4  8  1  0
  4  3  1  0
  5  4  2  0
  6  5  1  0
  6  7  1  0
  7  8  2  0
  9 10  2  0
  9  2  1  0
 12 11  1  1
 12 14  1  0
 12 13  1  0
 15 16  1  0
 15 14  1  1
 16  9  1  0
 17 15  1  0
 18 17  2  0
 20 19  1  6
 20 22  1  0
 20 21  1  0
 22 23  1  6
 23 17  1  0
 24 25  1  0
 24 22  1  0
 26 24  2  0
M  END
$$$$
