HLV.pdb
     RDKit          3D

 26 26  0  0  1  0  0  0  0  0999 V2000
    7.7431  -16.2524   21.0841 N   0  0  0  0  0  0  0  0  0  0  0  0
    9.1360  -16.2288   21.4399 C   0  0  1  0  0  0  0  0  0  0  0  0
    9.9016  -15.5289   20.3495 C   0  0  0  0  0  0  0  0  0  0  0  0
    8.9412  -14.6901   19.5852 C   0  0  0  0  0  0  0  0  0  0  0  0
    7.9708  -13.8224   20.1052 C   0  0  0  0  0  0  0  0  0  0  0  0
    7.3081  -13.2519   19.0952 N   0  0  0  0  0  0  0  0  0  0  0  0
    7.8147  -13.7190   17.9529 C   0  0  0  0  0  0  0  0  0  0  0  0
    8.8011  -14.5877   18.2512 N   0  0  0  0  0  0  0  0  0  0  0  0
    9.3463  -15.6227   22.7651 C   0  0  0  0  0  0  0  0  0  0  0  0
   10.4737  -15.2345   23.1527 O   0  0  0  0  0  0  0  0  0  0  0  0
    5.4357  -12.7731   25.9061 C   0  0  0  0  0  0  0  0  0  0  0  0
    6.6430  -13.1496   25.0499 C   0  0  1  0  0  0  0  0  0  0  0  0
    7.7128  -12.0889   25.4251 C   0  0  0  0  0  0  0  0  0  0  0  0
    7.1594  -14.4540   25.5843 C   0  0  0  0  0  0  0  0  0  0  0  0
    8.4582  -14.8033   24.9540 C   0  0  2  0  0  0  0  0  0  0  0  0
    8.2630  -15.4569   23.6572 N   0  0  0  0  0  0  0  0  0  0  0  0
    9.2877  -15.6503   25.8304 C   0  0  0  0  0  0  0  0  0  0  0  0
    9.5638  -16.8298   25.5555 O   0  0  0  0  0  0  0  0  0  0  0  0
   11.9413  -13.8558   28.5858 C   0  0  0  0  0  0  0  0  0  0  0  0
   11.2291  -15.1025   29.0827 C   0  0  1  0  0  0  0  0  0  0  0  0
   10.1510  -14.7581   30.0693 C   0  0  0  0  0  0  0  0  0  0  0  0
   10.7087  -15.9111   27.9081 C   0  0  2  0  0  0  0  0  0  0  0  0
    9.8289  -15.1494   27.0671 N   0  0  0  0  0  0  0  0  0  0  0  0
    9.9249  -17.0609   28.4484 C   0  0  0  0  0  0  0  0  0  0  0  0
   10.4737  -18.1161   29.1305 O   0  0  0  0  0  0  0  0  0  0  0  0
    8.6720  -17.0586   28.2632 O   0  0  0  0  0  0  0  0  0  0  0  0
  2  1  1  6
  3  2  1  0
  4  8  1  0
  4  3  1  0
  5  4  2  0
  6  5  1  0
  6  7  1  0
  7  8  2  0
  9 10  2  0
  9  2  1  0
 12 11  1  1
 12 14  1  0
 12 13  1  0
 15 16  1  0
 15 14  1  1
 16  9  1  0
 17 15  1  0
 18 17  2  0
 20 19  1  6
 20 22  1  0
 20 21  1  0
 22 23  1  6
 23 17  1  0
 24 25  1  0
 24 22  1  0
 26 24  2  0
M  END
$$$$
