HLV.pdb
     RDKit          3D

 26 26  0  0  1  0  0  0  0  0999 V2000
    9.7018  -15.6630   20.8107 N   0  0  0  0  0  0  0  0  0  0  0  0
    8.7109  -16.0477   21.7788 C   0  0  1  0  0  0  0  0  0  0  0  0
    8.5767  -17.5467   21.7634 C   0  0  0  0  0  0  0  0  0  0  0  0
    8.0006  -17.9387   20.4502 C   0  0  0  0  0  0  0  0  0  0  0  0
    7.7214  -17.1011   19.3614 C   0  0  0  0  0  0  0  0  0  0  0  0
    7.2104  -17.8323   18.3670 N   0  0  0  0  0  0  0  0  0  0  0  0
    7.1519  -19.1011   18.7754 C   0  0  0  0  0  0  0  0  0  0  0  0
    7.6297  -19.1630   20.0341 N   0  0  0  0  0  0  0  0  0  0  0  0
    9.0244  -15.5159   23.1154 C   0  0  0  0  0  0  0  0  0  0  0  0
   10.2023  -15.3303   23.5031 O   0  0  0  0  0  0  0  0  0  0  0  0
    5.4906  -12.3977   26.2406 C   0  0  0  0  0  0  0  0  0  0  0  0
    6.7158  -12.8865   25.4709 C   0  0  1  0  0  0  0  0  0  0  0  0
    7.8391  -11.9006   25.8912 C   0  0  0  0  0  0  0  0  0  0  0  0
    7.0959  -14.2120   26.0641 C   0  0  0  0  0  0  0  0  0  0  0  0
    8.2959  -14.7666   25.3869 C   0  0  2  0  0  0  0  0  0  0  0  0
    7.9874  -15.1922   24.0191 N   0  0  0  0  0  0  0  0  0  0  0  0
    8.8918  -15.8824   26.1442 C   0  0  0  0  0  0  0  0  0  0  0  0
    8.4716  -17.0483   26.0605 O   0  0  0  0  0  0  0  0  0  0  0  0
   12.2334  -15.0714   28.7189 C   0  0  0  0  0  0  0  0  0  0  0  0
   12.2591  -16.2804   27.7991 C   0  0  1  0  0  0  0  0  0  0  0  0
   13.1201  -17.3748   28.3606 C   0  0  0  0  0  0  0  0  0  0  0  0
   10.8438  -16.7441   27.5047 C   0  0  2  0  0  0  0  0  0  0  0  0
   10.0065  -15.6777   27.0324 N   0  0  0  0  0  0  0  0  0  0  0  0
   10.2480  -17.2495   28.7766 C   0  0  0  0  0  0  0  0  0  0  0  0
   10.6585  -18.3873   29.4223 O   0  0  0  0  0  0  0  0  0  0  0  0
    9.3023  -16.5816   29.2903 O   0  0  0  0  0  0  0  0  0  0  0  0
  2  1  1  6
  3  2  1  0
  4  8  1  0
  4  3  1  0
  5  4  2  0
  6  5  1  0
  6  7  1  0
  7  8  2  0
  9 10  2  0
  9  2  1  0
 12 11  1  1
 12 14  1  0
 12 13  1  0
 15 16  1  0
 15 14  1  1
 16  9  1  0
 17 15  1  0
 18 17  2  0
 20 19  1  1
 20 22  1  0
 20 21  1  0
 22 23  1  1
 23 17  1  0
 24 25  1  0
 24 22  1  0
 26 24  2  0
M  END
$$$$
