HLV.pdb
     RDKit          3D

 26 26  0  0  1  0  0  0  0  0999 V2000
   10.4584  -17.9826   19.8027 N   0  0  0  0  0  0  0  0  0  0  0  0
   11.3446  -17.4836   20.8189 C   0  0  1  0  0  0  0  0  0  0  0  0
   12.6561  -17.1160   20.1785 C   0  0  0  0  0  0  0  0  0  0  0  0
   13.2155  -18.3419   19.5505 C   0  0  0  0  0  0  0  0  0  0  0  0
   12.9744  -19.6719   19.9220 C   0  0  0  0  0  0  0  0  0  0  0  0
   13.6620  -20.4832   19.1134 N   0  0  0  0  0  0  0  0  0  0  0  0
   14.3316  -19.7269   18.2419 C   0  0  0  0  0  0  0  0  0  0  0  0
   14.0604  -18.4337   18.5078 N   0  0  0  0  0  0  0  0  0  0  0  0
   10.7401  -16.3671   21.5642 C   0  0  0  0  0  0  0  0  0  0  0  0
   11.4122  -15.6213   22.3153 O   0  0  0  0  0  0  0  0  0  0  0  0
    6.2454  -13.8657   19.6595 C   0  0  0  0  0  0  0  0  0  0  0  0
    7.6398  -14.1213   20.2275 C   0  0  1  0  0  0  0  0  0  0  0  0
    8.2638  -12.7040   20.3386 C   0  0  0  0  0  0  0  0  0  0  0  0
    7.4493  -14.5931   21.6398 C   0  0  0  0  0  0  0  0  0  0  0  0
    8.7437  -15.0177   22.2317 C   0  0  2  0  0  0  0  0  0  0  0  0
    9.3574  -16.0969   21.4534 N   0  0  0  0  0  0  0  0  0  0  0  0
    8.5997  -15.4258   23.6410 C   0  0  0  0  0  0  0  0  0  0  0  0
    8.6510  -16.6131   24.0029 O   0  0  0  0  0  0  0  0  0  0  0  0
    9.2328  -12.7418   26.9464 C   0  0  0  0  0  0  0  0  0  0  0  0
    7.9804  -13.6020   26.9501 C   0  0  1  0  0  0  0  0  0  0  0  0
    6.7673  -12.8010   26.5742 C   0  0  0  0  0  0  0  0  0  0  0  0
    8.1768  -14.8162   26.0604 C   0  0  2  0  0  0  0  0  0  0  0  0
    8.3891  -14.4582   24.6863 N   0  0  0  0  0  0  0  0  0  0  0  0
    6.9334  -15.6400   26.1200 C   0  0  0  0  0  0  0  0  0  0  0  0
    6.5729  -16.4165   27.1911 O   0  0  0  0  0  0  0  0  0  0  0  0
    6.1636  -15.6181   25.1145 O   0  0  0  0  0  0  0  0  0  0  0  0
  2  1  1  6
  3  2  1  0
  4  8  1  0
  4  3  1  0
  5  4  2  0
  6  5  1  0
  6  7  1  0
  7  8  2  0
  9 10  2  0
  9  2  1  0
 12 11  1  1
 12 14  1  0
 12 13  1  0
 15 16  1  0
 15 14  1  6
 16  9  1  0
 17 15  1  0
 18 17  2  0
 20 19  1  6
 20 22  1  0
 20 21  1  0
 22 23  1  6
 23 17  1  0
 24 25  1  0
 24 22  1  0
 26 24  2  0
M  END
$$$$
