HLV.pdb
     RDKit          3D

 26 26  0  0  1  0  0  0  0  0999 V2000
    8.7923  -16.8595   20.1650 N   0  0  0  0  0  0  0  0  0  0  0  0
    8.8898  -17.2218   21.5530 C   0  0  1  0  0  0  0  0  0  0  0  0
   10.0272  -18.1932   21.7202 C   0  0  0  0  0  0  0  0  0  0  0  0
    9.6499  -19.4580   21.0362 C   0  0  0  0  0  0  0  0  0  0  0  0
    8.3640  -19.9998   20.9018 C   0  0  0  0  0  0  0  0  0  0  0  0
    8.4418  -21.1475   20.2225 N   0  0  0  0  0  0  0  0  0  0  0  0
    9.7231  -21.3608   19.9179 C   0  0  0  0  0  0  0  0  0  0  0  0
   10.4511  -20.3390   20.4104 N   0  0  0  0  0  0  0  0  0  0  0  0
    9.0207  -16.0352   22.4146 C   0  0  0  0  0  0  0  0  0  0  0  0
   10.0570  -15.3296   22.4300 O   0  0  0  0  0  0  0  0  0  0  0  0
    7.1753  -11.9152   24.9022 C   0  0  0  0  0  0  0  0  0  0  0  0
    7.0362  -13.0931   25.8642 C   0  0  1  0  0  0  0  0  0  0  0  0
    5.6441  -12.8796   26.5178 C   0  0  0  0  0  0  0  0  0  0  0  0
    6.9028  -14.3261   25.0183 C   0  0  0  0  0  0  0  0  0  0  0  0
    8.1419  -14.5624   24.2340 C   0  0  2  0  0  0  0  0  0  0  0  0
    7.9618  -15.6480   23.2665 N   0  0  0  0  0  0  0  0  0  0  0  0
    9.3004  -14.8420   25.1019 C   0  0  0  0  0  0  0  0  0  0  0  0
   10.4640  -14.5488   24.7805 O   0  0  0  0  0  0  0  0  0  0  0  0
    8.8552  -13.9280   28.7666 C   0  0  0  0  0  0  0  0  0  0  0  0
   10.2316  -14.2448   28.2065 C   0  0  1  0  0  0  0  0  0  0  0  0
   11.2626  -14.3084   29.2962 C   0  0  0  0  0  0  0  0  0  0  0  0
   10.1794  -15.5153   27.3774 C   0  0  2  0  0  0  0  0  0  0  0  0
    9.1433  -15.4777   26.3843 N   0  0  0  0  0  0  0  0  0  0  0  0
    9.8780  -16.6544   28.2939 C   0  0  0  0  0  0  0  0  0  0  0  0
    8.7415  -17.4185   28.2270 O   0  0  0  0  0  0  0  0  0  0  0  0
   10.7291  -16.9304   29.1903 O   0  0  0  0  0  0  0  0  0  0  0  0
  2  1  1  6
  3  2  1  0
  4  8  1  0
  4  3  1  0
  5  4  2  0
  6  5  1  0
  6  7  1  0
  7  8  2  0
  9 10  2  0
  9  2  1  0
 12 11  1  6
 12 14  1  0
 12 13  1  0
 15 16  1  0
 15 14  1  1
 16  9  1  0
 17 15  1  0
 18 17  2  0
 20 19  1  1
 20 22  1  0
 20 21  1  0
 22 23  1  6
 23 17  1  0
 24 25  1  0
 24 22  1  0
 26 24  2  0
M  END
$$$$
