HLV.pdb
     RDKit          3D

 26 26  0  0  1  0  0  0  0  0999 V2000
    9.0226  -15.7040   20.2489 N   0  0  0  0  0  0  0  0  0  0  0  0
    8.2856  -16.1571   21.3972 C   0  0  1  0  0  0  0  0  0  0  0  0
    8.4561  -17.6470   21.5240 C   0  0  0  0  0  0  0  0  0  0  0  0
    7.6973  -18.2879   20.4179 C   0  0  0  0  0  0  0  0  0  0  0  0
    7.0711  -17.6511   19.3374 C   0  0  0  0  0  0  0  0  0  0  0  0
    6.4946  -18.5729   18.5610 N   0  0  0  0  0  0  0  0  0  0  0  0
    6.7267  -19.7708   19.1005 C   0  0  0  0  0  0  0  0  0  0  0  0
    7.4533  -19.5962   20.2222 N   0  0  0  0  0  0  0  0  0  0  0  0
    8.6810  -15.4311   22.6155 C   0  0  0  0  0  0  0  0  0  0  0  0
    9.8452  -14.9995   22.7899 O   0  0  0  0  0  0  0  0  0  0  0  0
    5.5337  -12.0072   26.0096 C   0  0  0  0  0  0  0  0  0  0  0  0
    6.6243  -12.5491   25.0881 C   0  0  1  0  0  0  0  0  0  0  0  0
    7.8666  -11.6826   25.4291 C   0  0  0  0  0  0  0  0  0  0  0  0
    6.9486  -13.9325   25.5725 C   0  0  0  0  0  0  0  0  0  0  0  0
    8.1337  -14.4749   24.8600 C   0  0  2  0  0  0  0  0  0  0  0  0
    7.7422  -15.1941   23.6448 N   0  0  0  0  0  0  0  0  0  0  0  0
    8.9484  -15.3463   25.7263 C   0  0  0  0  0  0  0  0  0  0  0  0
    8.9178  -16.5857   25.6478 O   0  0  0  0  0  0  0  0  0  0  0  0
   10.6959  -13.8380   29.2229 C   0  0  0  0  0  0  0  0  0  0  0  0
   11.5992  -14.7649   28.4271 C   0  0  1  0  0  0  0  0  0  0  0  0
   12.4493  -15.6083   29.3329 C   0  0  0  0  0  0  0  0  0  0  0  0
   10.7751  -15.5952   27.4597 C   0  0  2  0  0  0  0  0  0  0  0  0
    9.8340  -14.8007   26.7218 N   0  0  0  0  0  0  0  0  0  0  0  0
    9.9943  -16.5904   28.2524 C   0  0  0  0  0  0  0  0  0  0  0  0
    8.6500  -16.4927   28.5037 O   0  0  0  0  0  0  0  0  0  0  0  0
   10.6168  -17.5886   28.7217 O   0  0  0  0  0  0  0  0  0  0  0  0
  2  1  1  6
  3  2  1  0
  4  8  1  0
  4  3  1  0
  5  4  2  0
  6  5  1  0
  6  7  1  0
  7  8  2  0
  9 10  2  0
  9  2  1  0
 12 11  1  1
 12 14  1  0
 12 13  1  0
 15 16  1  0
 15 14  1  1
 16  9  1  0
 17 15  1  0
 18 17  2  0
 20 19  1  1
 20 22  1  0
 20 21  1  0
 22 23  1  1
 23 17  1  0
 24 25  1  0
 24 22  1  0
 26 24  2  0
M  END
$$$$
