HLV.pdb
     RDKit          3D

 26 26  0  0  1  0  0  0  0  0999 V2000
    9.8734  -15.9516   20.2320 N   0  0  0  0  0  0  0  0  0  0  0  0
    8.7733  -16.1555   21.1350 C   0  0  1  0  0  0  0  0  0  0  0  0
    8.4847  -17.6302   21.2199 C   0  0  0  0  0  0  0  0  0  0  0  0
    7.6698  -18.0036   20.0339 C   0  0  0  0  0  0  0  0  0  0  0  0
    7.2905  -17.1745   18.9691 C   0  0  0  0  0  0  0  0  0  0  0  0
    6.5621  -17.8827   18.1015 N   0  0  0  0  0  0  0  0  0  0  0  0
    6.4607  -19.1285   18.5679 C   0  0  0  0  0  0  0  0  0  0  0  0
    7.1305  -19.1993   19.7353 N   0  0  0  0  0  0  0  0  0  0  0  0
    9.0326  -15.5475   22.4506 C   0  0  0  0  0  0  0  0  0  0  0  0
   10.1577  -15.5978   23.0016 O   0  0  0  0  0  0  0  0  0  0  0  0
    8.4284  -12.1241   26.4233 C   0  0  0  0  0  0  0  0  0  0  0  0
    7.2905  -13.1426   26.4100 C   0  0  1  0  0  0  0  0  0  0  0  0
    6.0364  -12.3068   26.7830 C   0  0  0  0  0  0  0  0  0  0  0  0
    7.0954  -13.5510   24.9787 C   0  0  0  0  0  0  0  0  0  0  0  0
    8.1946  -14.4447   24.5322 C   0  0  2  0  0  0  0  0  0  0  0  0
    8.0015  -14.8757   23.1451 N   0  0  0  0  0  0  0  0  0  0  0  0
    8.3455  -15.6176   25.4126 C   0  0  0  0  0  0  0  0  0  0  0  0
    7.4053  -16.3880   25.6686 O   0  0  0  0  0  0  0  0  0  0  0  0
   10.7790  -18.4544   24.9092 C   0  0  0  0  0  0  0  0  0  0  0  0
   11.0361  -17.9128   26.3052 C   0  0  1  0  0  0  0  0  0  0  0  0
   12.3028  -17.1081   26.3535 C   0  0  0  0  0  0  0  0  0  0  0  0
    9.8295  -17.1320   26.7940 C   0  0  2  0  0  0  0  0  0  0  0  0
    9.6063  -15.9366   26.0307 N   0  0  0  0  0  0  0  0  0  0  0  0
   10.0860  -16.7188   28.2053 C   0  0  0  0  0  0  0  0  0  0  0  0
   10.2013  -17.5920   29.2561 O   0  0  0  0  0  0  0  0  0  0  0  0
   10.2044  -15.4806   28.4444 O   0  0  0  0  0  0  0  0  0  0  0  0
  2  1  1  6
  3  2  1  0
  4  8  1  0
  4  3  1  0
  5  4  2  0
  6  5  1  0
  6  7  1  0
  7  8  2  0
  9 10  2  0
  9  2  1  0
 12 11  1  6
 12 14  1  0
 12 13  1  0
 15 16  1  0
 15 14  1  1
 16  9  1  0
 17 15  1  0
 18 17  2  0
 20 19  1  6
 20 22  1  0
 20 21  1  0
 22 23  1  6
 23 17  1  0
 24 25  1  0
 24 22  1  0
 26 24  2  0
M  END
$$$$
