HLV.pdb
     RDKit          3D

 26 26  0  0  1  0  0  0  0  0999 V2000
    8.7094  -15.1531   20.1608 N   0  0  0  0  0  0  0  0  0  0  0  0
    8.5058  -16.1557   21.1709 C   0  0  1  0  0  0  0  0  0  0  0  0
    9.3034  -17.3787   20.8057 C   0  0  0  0  0  0  0  0  0  0  0  0
    8.8320  -17.8495   19.4767 C   0  0  0  0  0  0  0  0  0  0  0  0
    7.6273  -18.5050   19.1864 C   0  0  0  0  0  0  0  0  0  0  0  0
    7.5746  -18.7631   17.8767 N   0  0  0  0  0  0  0  0  0  0  0  0
    8.6947  -18.3000   17.3193 C   0  0  0  0  0  0  0  0  0  0  0  0
    9.4528  -17.7485   18.2876 N   0  0  0  0  0  0  0  0  0  0  0  0
    8.8264  -15.6445   22.5138 C   0  0  0  0  0  0  0  0  0  0  0  0
    9.9242  -15.8756   23.0739 O   0  0  0  0  0  0  0  0  0  0  0  0
    8.5045  -12.2474   26.6085 C   0  0  0  0  0  0  0  0  0  0  0  0
    7.3279  -13.2200   26.5647 C   0  0  1  0  0  0  0  0  0  0  0  0
    6.1129  -12.3566   26.9992 C   0  0  0  0  0  0  0  0  0  0  0  0
    7.0956  -13.5495   25.1187 C   0  0  0  0  0  0  0  0  0  0  0  0
    8.1461  -14.4703   24.6138 C   0  0  2  0  0  0  0  0  0  0  0  0
    7.8888  -14.8629   23.2257 N   0  0  0  0  0  0  0  0  0  0  0  0
    8.2867  -15.6672   25.4630 C   0  0  0  0  0  0  0  0  0  0  0  0
    7.3328  -16.4189   25.7237 O   0  0  0  0  0  0  0  0  0  0  0  0
   10.2354  -18.7322   24.8857 C   0  0  0  0  0  0  0  0  0  0  0  0
   10.7756  -18.1570   26.1841 C   0  0  1  0  0  0  0  0  0  0  0  0
   12.1050  -17.4914   25.9745 C   0  0  0  0  0  0  0  0  0  0  0  0
    9.7509  -17.2294   26.8118 C   0  0  2  0  0  0  0  0  0  0  0  0
    9.5528  -16.0333   26.0427 N   0  0  0  0  0  0  0  0  0  0  0  0
   10.2592  -16.8181   28.1537 C   0  0  0  0  0  0  0  0  0  0  0  0
   10.5923  -15.5316   28.4915 O   0  0  0  0  0  0  0  0  0  0  0  0
   10.3903  -17.7181   29.0352 O   0  0  0  0  0  0  0  0  0  0  0  0
  2  1  1  6
  3  2  1  0
  4  8  1  0
  4  3  1  0
  5  4  2  0
  6  5  1  0
  6  7  1  0
  7  8  2  0
  9 10  2  0
  9  2  1  0
 12 11  1  6
 12 14  1  0
 12 13  1  0
 15 16  1  0
 15 14  1  1
 16  9  1  0
 17 15  1  0
 18 17  2  0
 20 19  1  6
 20 22  1  0
 20 21  1  0
 22 23  1  6
 23 17  1  0
 24 25  1  0
 24 22  1  0
 26 24  2  0
M  END
$$$$
