HLV.pdb
     RDKit          3D

 26 26  0  0  1  0  0  0  0  0999 V2000
    9.7238  -15.2539   20.5062 N   0  0  0  0  0  0  0  0  0  0  0  0
    8.6935  -15.7432   21.3816 C   0  0  1  0  0  0  0  0  0  0  0  0
    8.5015  -17.2141   21.1273 C   0  0  0  0  0  0  0  0  0  0  0  0
    7.9107  -17.3685   19.7720 C   0  0  0  0  0  0  0  0  0  0  0  0
    7.7039  -16.3640   18.8163 C   0  0  0  0  0  0  0  0  0  0  0  0
    7.1501  -16.9040   17.7271 N   0  0  0  0  0  0  0  0  0  0  0  0
    6.9948  -18.2106   17.9475 C   0  0  0  0  0  0  0  0  0  0  0  0
    7.4549  -18.4890   19.1834 N   0  0  0  0  0  0  0  0  0  0  0  0
    8.9921  -15.4413   22.7913 C   0  0  0  0  0  0  0  0  0  0  0  0
   10.1554  -15.4955   23.2561 O   0  0  0  0  0  0  0  0  0  0  0  0
    5.8600  -12.2337   26.1576 C   0  0  0  0  0  0  0  0  0  0  0  0
    7.0612  -12.8455   25.4398 C   0  0  1  0  0  0  0  0  0  0  0  0
    8.2854  -12.1939   26.1378 C   0  0  0  0  0  0  0  0  0  0  0  0
    7.0990  -14.2961   25.8242 C   0  0  0  0  0  0  0  0  0  0  0  0
    8.2044  -14.9975   25.1225 C   0  0  2  0  0  0  0  0  0  0  0  0
    7.9568  -15.0741   23.6803 N   0  0  0  0  0  0  0  0  0  0  0  0
    8.4392  -16.3460   25.6702 C   0  0  0  0  0  0  0  0  0  0  0  0
    7.5751  -17.2381   25.6464 O   0  0  0  0  0  0  0  0  0  0  0  0
   11.0438  -18.8057   24.6966 C   0  0  0  0  0  0  0  0  0  0  0  0
   11.2213  -18.6287   26.1951 C   0  0  1  0  0  0  0  0  0  0  0  0
   12.4638  -17.8463   26.5087 C   0  0  0  0  0  0  0  0  0  0  0  0
    9.9739  -18.0106   26.8005 C   0  0  2  0  0  0  0  0  0  0  0  0
    9.6980  -16.7054   26.2696 N   0  0  0  0  0  0  0  0  0  0  0  0
   10.1987  -17.8570   28.2682 C   0  0  0  0  0  0  0  0  0  0  0  0
   10.3418  -18.9051   29.1406 O   0  0  0  0  0  0  0  0  0  0  0  0
   10.2608  -16.6812   28.7347 O   0  0  0  0  0  0  0  0  0  0  0  0
  2  1  1  6
  3  2  1  0
  4  8  1  0
  4  3  1  0
  5  4  2  0
  6  5  1  0
  6  7  1  0
  7  8  2  0
  9 10  2  0
  9  2  1  0
 12 11  1  1
 12 14  1  0
 12 13  1  0
 15 16  1  0
 15 14  1  1
 16  9  1  0
 17 15  1  0
 18 17  2  0
 20 19  1  6
 20 22  1  0
 20 21  1  0
 22 23  1  6
 23 17  1  0
 24 25  1  0
 24 22  1  0
 26 24  2  0
M  END
$$$$
