GRV.pdb
     RDKit          3D

 23 22  0  0  1  0  0  0  0  0999 V2000
   22.9344  -10.7931  -19.8432 N   0  0  0  0  0  0  0  0  0  0  0  0
   23.3483  -10.6403  -18.4667 C   0  0  0  0  0  0  0  0  0  0  0  0
   22.4951   -9.6467  -17.7632 C   0  0  0  0  0  0  0  0  0  0  0  0
   22.3373   -8.5223  -18.2835 O   0  0  0  0  0  0  0  0  0  0  0  0
   16.1399  -10.2237  -10.9729 N   0  0  0  0  0  0  0  0  0  0  0  0
   15.9717   -9.4676  -12.1667 C   0  0  0  0  0  0  0  0  0  0  0  0
   14.7919   -9.3187  -12.7063 N   0  0  0  0  0  0  0  0  0  0  0  0
   17.0492   -8.8411  -12.8342 N   0  0  0  0  0  0  0  0  0  0  0  0
   18.1095   -9.6245  -13.4288 C   0  0  0  0  0  0  0  0  0  0  0  0
   19.0683   -8.8004  -14.2557 C   0  0  0  0  0  0  0  0  0  0  0  0
   20.0472   -9.7138  -14.9157 C   0  0  0  0  0  0  0  0  0  0  0  0
   21.0254   -8.9934  -15.8189 C   0  0  2  0  0  0  0  0  0  0  0  0
   21.8511   -9.9199  -16.5249 N   0  0  0  0  0  0  0  0  0  0  0  0
   21.8013   -7.9765  -15.0692 C   0  0  0  0  0  0  0  0  0  0  0  0
   22.6501   -8.3191  -14.2051 O   0  0  0  0  0  0  0  0  0  0  0  0
   14.7153   -8.7106  -13.5415 C   0  0  0  0  0  0  0  0  0  0  0  0
   21.6128   -3.8270  -16.2146 C   0  0  1  0  0  0  0  0  0  0  0  0
   22.8189   -4.4384  -15.5312 C   0  0  0  0  0  0  0  0  0  0  0  0
   23.6969   -4.9945  -16.6333 C   0  0  1  0  0  0  0  0  0  0  0  0
   22.4471   -5.5673  -14.6187 N   0  0  0  0  0  0  0  0  0  0  0  0
   21.6405   -6.5772  -15.2727 C   0  0  0  0  0  0  0  0  0  0  0  0
   21.7394   -4.9851  -13.4436 O   0  0  0  0  0  0  0  0  0  0  0  0
   20.5220   -5.1645  -13.2830 O   0  0  0  0  0  0  0  0  0  0  0  0
  1  2  1  0
  3  4  2  0
  3  2  1  0
  6  5  1  0
  7  6  2  0
  8  6  1  0
  9 10  1  0
  9  8  1  0
 10 11  1  0
 12 11  1  1
 12 13  1  0
 12 14  1  0
 13  3  1  0
 14 20  1  0
 15 14  2  0
 17 16  1  6
 17 19  1  0
 18 17  1  0
 19 21  1  0
 19 20  1  6
 21 22  2  0
 21 23  1  0
M  END
$$$$
