GRV.pdb
     RDKit          3D

 23 22  0  0  1  0  0  0  0  0999 V2000
   27.1917  -23.8103  -17.4756 N   0  0  0  0  0  0  0  0  0  0  0  0
   27.2244  -22.4617  -16.9564 C   0  0  0  0  0  0  0  0  0  0  0  0
   26.4512  -22.3615  -15.6906 C   0  0  0  0  0  0  0  0  0  0  0  0
   25.5332  -23.1834  -15.4865 O   0  0  0  0  0  0  0  0  0  0  0  0
   29.9615  -21.8358   -8.4603 N   0  0  0  0  0  0  0  0  0  0  0  0
   30.6590  -21.9575   -9.6948 C   0  0  0  0  0  0  0  0  0  0  0  0
   31.7344  -22.6922   -9.7885 N   0  0  0  0  0  0  0  0  0  0  0  0
   30.2424  -21.3035  -10.8770 N   0  0  0  0  0  0  0  0  0  0  0  0
   28.8997  -20.7808  -11.0016 C   0  0  0  0  0  0  0  0  0  0  0  0
   28.0753  -21.4966  -12.0458 C   0  0  0  0  0  0  0  0  0  0  0  0
   26.8945  -20.6521  -12.3931 C   0  0  0  0  0  0  0  0  0  0  0  0
   26.0132  -21.2633  -13.4614 C   0  0  2  0  0  0  0  0  0  0  0  0
   26.7104  -21.3717  -14.7027 N   0  0  0  0  0  0  0  0  0  0  0  0
   24.7266  -20.5360  -13.5783 C   0  0  0  0  0  0  0  0  0  0  0  0
   24.6997  -19.3159  -13.8867 O   0  0  0  0  0  0  0  0  0  0  0  0
   32.1777  -22.7842  -10.7204 C   0  0  0  0  0  0  0  0  0  0  0  0
   20.9714  -22.4837  -14.2723 C   0  0  1  0  0  0  0  0  0  0  0  0
   21.3005  -21.0232  -14.5056 C   0  0  0  0  0  0  0  0  0  0  0  0
   22.0396  -20.9587  -15.8263 C   0  0  1  0  0  0  0  0  0  0  0  0
   22.1966  -20.4629  -13.4434 N   0  0  0  0  0  0  0  0  0  0  0  0
   23.4654  -21.1561  -13.3542 C   0  0  0  0  0  0  0  0  0  0  0  0
   21.4562  -20.5183  -12.1512 O   0  0  0  0  0  0  0  0  0  0  0  0
   21.8338  -21.2651  -11.2349 O   0  0  0  0  0  0  0  0  0  0  0  0
  1  2  1  0
  3  4  2  0
  3  2  1  0
  6  5  1  0
  7  6  2  0
  8  6  1  0
  9 10  1  0
  9  8  1  0
 10 11  1  0
 12 11  1  1
 12 13  1  0
 12 14  1  0
 13  3  1  0
 14 20  1  0
 15 14  2  0
 17 16  1  6
 17 19  1  0
 18 17  1  0
 19 21  1  0
 19 20  1  6
 21 22  2  0
 21 23  1  0
M  END
$$$$
