GRV.pdb
     RDKit          3D

 23 22  0  0  1  0  0  0  0  0999 V2000
   28.1442  -20.1925  -19.0584 N   0  0  0  0  0  0  0  0  0  0  0  0
   27.9124  -19.6889  -17.7235 C   0  0  0  0  0  0  0  0  0  0  0  0
   26.6655  -20.2602  -17.1500 C   0  0  0  0  0  0  0  0  0  0  0  0
   25.7313  -20.5511  -17.9262 O   0  0  0  0  0  0  0  0  0  0  0  0
   26.3282  -20.2767   -8.9406 N   0  0  0  0  0  0  0  0  0  0  0  0
   25.0290  -20.7102   -9.3271 C   0  0  0  0  0  0  0  0  0  0  0  0
   23.9898  -20.4705   -8.5736 N   0  0  0  0  0  0  0  0  0  0  0  0
   24.7829  -21.4151  -10.5277 N   0  0  0  0  0  0  0  0  0  0  0  0
   25.8576  -21.7051  -11.4510 C   0  0  0  0  0  0  0  0  0  0  0  0
   25.7995  -20.8769  -12.7131 C   0  0  0  0  0  0  0  0  0  0  0  0
   25.6582  -21.7900  -13.8855 C   0  0  0  0  0  0  0  0  0  0  0  0
   25.3220  -21.0668  -15.1721 C   0  0  2  0  0  0  0  0  0  0  0  0
   26.4895  -20.4897  -15.7574 N   0  0  0  0  0  0  0  0  0  0  0  0
   24.2282  -20.0869  -14.9685 C   0  0  0  0  0  0  0  0  0  0  0  0
   24.4058  -19.0567  -14.2673 O   0  0  0  0  0  0  0  0  0  0  0  0
   23.0597  -20.7605   -8.9260 C   0  0  0  0  0  0  0  0  0  0  0  0
   20.8180  -19.9249  -17.5351 C   0  0  1  0  0  0  0  0  0  0  0  0
   21.2594  -18.8051  -16.6148 C   0  0  0  0  0  0  0  0  0  0  0  0
   22.3435  -18.0482  -17.3541 C   0  0  1  0  0  0  0  0  0  0  0  0
   21.8412  -19.3160  -15.3320 N   0  0  0  0  0  0  0  0  0  0  0  0
   22.9342  -20.2436  -15.5397 C   0  0  0  0  0  0  0  0  0  0  0  0
   20.7371  -19.9444  -14.5529 O   0  0  0  0  0  0  0  0  0  0  0  0
   20.7160  -21.1697  -14.3571 O   0  0  0  0  0  0  0  0  0  0  0  0
  1  2  1  0
  3  4  2  0
  3  2  1  0
  6  5  1  0
  7  6  2  0
  8  6  1  0
  9 10  1  0
  9  8  1  0
 10 11  1  0
 12 11  1  1
 12 13  1  0
 12 14  1  0
 13  3  1  0
 14 20  1  0
 15 14  2  0
 17 16  1  6
 17 19  1  0
 18 17  1  0
 19 21  1  0
 19 20  1  6
 21 22  2  0
 21 23  1  0
M  END
$$$$
