GRV.pdb
     RDKit          3D

 23 22  0  0  1  0  0  0  0  0999 V2000
   19.4994  -16.0678  -15.9176 N   0  0  0  0  0  0  0  0  0  0  0  0
   18.5581  -15.0709  -15.4601 C   0  0  0  0  0  0  0  0  0  0  0  0
   19.0507  -13.7000  -15.7574 C   0  0  0  0  0  0  0  0  0  0  0  0
   20.1983  -13.5693  -16.2324 O   0  0  0  0  0  0  0  0  0  0  0  0
   14.2460  -10.3407  -19.1314 N   0  0  0  0  0  0  0  0  0  0  0  0
   13.5960  -11.3395  -18.3535 C   0  0  0  0  0  0  0  0  0  0  0  0
   12.6093  -12.0381  -18.8471 N   0  0  0  0  0  0  0  0  0  0  0  0
   13.9678  -11.6350  -17.0218 N   0  0  0  0  0  0  0  0  0  0  0  0
   15.0312  -10.9037  -16.3691 C   0  0  0  0  0  0  0  0  0  0  0  0
   16.3766  -11.0898  -17.0306 C   0  0  0  0  0  0  0  0  0  0  0  0
   17.4133  -10.3754  -16.2289 C   0  0  0  0  0  0  0  0  0  0  0  0
   18.6390  -11.2177  -15.9464 C   0  0  2  0  0  0  0  0  0  0  0  0
   18.2733  -12.5319  -15.5249 N   0  0  0  0  0  0  0  0  0  0  0  0
   19.5534  -10.5362  -14.9989 C   0  0  0  0  0  0  0  0  0  0  0  0
   19.2560  -10.4246  -13.7810 O   0  0  0  0  0  0  0  0  0  0  0  0
   12.1810  -12.7634  -18.2440 C   0  0  0  0  0  0  0  0  0  0  0  0
   23.4996   -9.2399  -16.2339 C   0  0  1  0  0  0  0  0  0  0  0  0
   23.1414   -9.5465  -14.7939 C   0  0  0  0  0  0  0  0  0  0  0  0
   23.3978  -11.0264  -14.5969 C   0  0  1  0  0  0  0  0  0  0  0  0
   21.6971   -9.2810  -14.4957 N   0  0  0  0  0  0  0  0  0  0  0  0
   20.7997   -9.9754  -15.3960 C   0  0  0  0  0  0  0  0  0  0  0  0
   21.4872   -7.8067  -14.5509 O   0  0  0  0  0  0  0  0  0  0  0  0
   20.8390   -7.2921  -15.4756 O   0  0  0  0  0  0  0  0  0  0  0  0
  1  2  1  0
  3  4  2  0
  3  2  1  0
  6  5  1  0
  7  6  2  0
  8  6  1  0
  9 10  1  0
  9  8  1  0
 10 11  1  0
 12 11  1  1
 12 13  1  0
 12 14  1  0
 13  3  1  0
 14 20  1  0
 15 14  2  0
 17 16  1  1
 17 19  1  0
 18 17  1  0
 19 21  1  0
 19 20  1  6
 21 22  2  0
 21 23  1  0
M  END
$$$$
