GRV.pdb
     RDKit          3D

 23 22  0  0  1  0  0  0  0  0999 V2000
   17.2372  -11.9091  -15.5758 N   0  0  0  0  0  0  0  0  0  0  0  0
   17.8566  -11.6222  -14.3017 C   0  0  0  0  0  0  0  0  0  0  0  0
   17.9568  -10.1558  -14.0786 C   0  0  0  0  0  0  0  0  0  0  0  0
   18.1579   -9.4155  -15.0642 O   0  0  0  0  0  0  0  0  0  0  0  0
   14.4952   -7.1861   -6.9321 N   0  0  0  0  0  0  0  0  0  0  0  0
   13.7496   -7.7900   -7.9831 C   0  0  0  0  0  0  0  0  0  0  0  0
   12.4755   -8.0401   -7.8443 N   0  0  0  0  0  0  0  0  0  0  0  0
   14.3276   -8.1523   -9.2215 N   0  0  0  0  0  0  0  0  0  0  0  0
   15.6981   -7.8077   -9.5293 C   0  0  0  0  0  0  0  0  0  0  0  0
   16.1448   -8.2942  -10.8880 C   0  0  0  0  0  0  0  0  0  0  0  0
   17.5309   -7.8040  -11.1461 C   0  0  0  0  0  0  0  0  0  0  0  0
   18.0529   -8.1755  -12.5177 C   0  0  2  0  0  0  0  0  0  0  0  0
   17.8339   -9.5592  -12.7934 N   0  0  0  0  0  0  0  0  0  0  0  0
   19.4681   -7.7661  -12.6837 C   0  0  0  0  0  0  0  0  0  0  0  0
   20.3914   -8.3735  -12.0812 O   0  0  0  0  0  0  0  0  0  0  0  0
   11.9676   -8.4302   -8.6587 C   0  0  0  0  0  0  0  0  0  0  0  0
   23.1162   -5.9198  -15.3330 C   0  0  1  0  0  0  0  0  0  0  0  0
   21.6949   -6.4048  -15.1320 C   0  0  0  0  0  0  0  0  0  0  0  0
   20.8161   -5.5152  -15.9871 C   0  0  2  0  0  0  0  0  0  0  0  0
   21.2431   -6.2754  -13.7092 N   0  0  0  0  0  0  0  0  0  0  0  0
   19.8665   -6.6831  -13.5166 C   0  0  0  0  0  0  0  0  0  0  0  0
   21.4525   -4.8593  -13.2949 O   0  0  0  0  0  0  0  0  0  0  0  0
   22.5906   -4.4333  -13.0436 O   0  0  0  0  0  0  0  0  0  0  0  0
  1  2  1  0
  3  4  2  0
  3  2  1  0
  6  5  1  0
  7  6  2  0
  8  6  1  0
  9 10  1  0
  9  8  1  0
 10 11  1  0
 12 11  1  1
 12 13  1  0
 12 14  1  0
 13  3  1  0
 14 20  1  0
 15 14  2  0
 17 16  1  6
 17 19  1  0
 18 17  1  0
 19 21  1  0
 19 20  1  1
 21 22  2  0
 21 23  1  0
M  END
$$$$
