GRV.pdb
     RDKit          3D

 23 22  0  0  1  0  0  0  0  0999 V2000
   27.9657  -16.2916  -16.4074 N   0  0  0  0  0  0  0  0  0  0  0  0
   27.0006  -16.3511  -15.3330 C   0  0  0  0  0  0  0  0  0  0  0  0
   26.0710  -17.4965  -15.5175 C   0  0  0  0  0  0  0  0  0  0  0  0
   25.8262  -17.8840  -16.6793 O   0  0  0  0  0  0  0  0  0  0  0  0
   27.1823  -20.3984   -9.6245 N   0  0  0  0  0  0  0  0  0  0  0  0
   25.8141  -20.7210   -9.8464 C   0  0  0  0  0  0  0  0  0  0  0  0
   24.9054  -20.4441   -8.9505 N   0  0  0  0  0  0  0  0  0  0  0  0
   25.3580  -21.3505  -11.0274 N   0  0  0  0  0  0  0  0  0  0  0  0
   26.2781  -21.6876  -12.0910 C   0  0  0  0  0  0  0  0  0  0  0  0
   26.1951  -20.7487  -13.2715 C   0  0  0  0  0  0  0  0  0  0  0  0
   24.7881  -20.2706  -13.4121 C   0  0  0  0  0  0  0  0  0  0  0  0
   24.5943  -19.3062  -14.5627 C   0  0  2  0  0  0  0  0  0  0  0  0
   25.4487  -18.1699  -14.4302 N   0  0  0  0  0  0  0  0  0  0  0  0
   23.1659  -18.9441  -14.7263 C   0  0  0  0  0  0  0  0  0  0  0  0
   22.6061  -18.1466  -13.9295 O   0  0  0  0  0  0  0  0  0  0  0  0
   23.9316  -20.7419   -9.1412 C   0  0  0  0  0  0  0  0  0  0  0  0
   20.8230  -20.4316  -18.0864 C   0  0  1  0  0  0  0  0  0  0  0  0
   20.5478  -19.1094  -17.3996 C   0  0  0  0  0  0  0  0  0  0  0  0
   21.3849  -18.0726  -18.1201 C   0  0  1  0  0  0  0  0  0  0  0  0
   20.9578  -19.1183  -15.9584 N   0  0  0  0  0  0  0  0  0  0  0  0
   22.3521  -19.4635  -15.7720 C   0  0  0  0  0  0  0  0  0  0  0  0
   20.0629  -20.0685  -15.2392 O   0  0  0  0  0  0  0  0  0  0  0  0
   20.4859  -21.1688  -14.8515 O   0  0  0  0  0  0  0  0  0  0  0  0
  1  2  1  0
  3  4  2  0
  3  2  1  0
  6  5  1  0
  7  6  2  0
  8  6  1  0
  9 10  1  0
  9  8  1  0
 10 11  1  0
 12 11  1  1
 12 13  1  0
 12 14  1  0
 13  3  1  0
 14 20  1  0
 15 14  2  0
 17 16  1  6
 17 19  1  0
 18 17  1  0
 19 21  1  0
 19 20  1  6
 21 22  2  0
 21 23  1  0
M  END
$$$$
