GRV.pdb
     RDKit          3D

 23 22  0  0  1  0  0  0  0  0999 V2000
   20.6765  -23.7037  -13.8951 N   0  0  0  0  0  0  0  0  0  0  0  0
   21.0470  -22.3066  -13.8863 C   0  0  0  0  0  0  0  0  0  0  0  0
   22.4377  -22.1296  -13.3911 C   0  0  0  0  0  0  0  0  0  0  0  0
   22.8665  -22.9197  -12.5242 O   0  0  0  0  0  0  0  0  0  0  0  0
   28.1255  -19.6971  -17.5816 N   0  0  0  0  0  0  0  0  0  0  0  0
   28.2097  -18.6037  -16.6745 C   0  0  0  0  0  0  0  0  0  0  0  0
   28.1310  -17.3715  -17.0996 N   0  0  0  0  0  0  0  0  0  0  0  0
   28.3811  -18.7761  -15.2817 N   0  0  0  0  0  0  0  0  0  0  0  0
   27.7855  -19.9008  -14.5948 C   0  0  0  0  0  0  0  0  0  0  0  0
   26.6983  -19.5001  -13.6255 C   0  0  0  0  0  0  0  0  0  0  0  0
   25.3744  -19.8876  -14.1956 C   0  0  0  0  0  0  0  0  0  0  0  0
   24.5571  -20.7654  -13.2720 C   0  0  2  0  0  0  0  0  0  0  0  0
   23.3004  -21.1011  -13.8608 N   0  0  0  0  0  0  0  0  0  0  0  0
   24.4250  -20.1553  -11.9272 C   0  0  0  0  0  0  0  0  0  0  0  0
   23.7798  -19.0871  -11.7628 O   0  0  0  0  0  0  0  0  0  0  0  0
   28.1809  -16.6130  -16.3956 C   0  0  0  0  0  0  0  0  0  0  0  0
   26.9481  -21.4550   -8.6001 C   0  0  1  0  0  0  0  0  0  0  0  0
   25.5371  -20.9514   -8.3730 C   0  0  0  0  0  0  0  0  0  0  0  0
   24.6461  -22.1763   -8.3499 C   0  0  1  0  0  0  0  0  0  0  0  0
   25.0662  -20.0546   -9.4771 N   0  0  0  0  0  0  0  0  0  0  0  0
   25.0068  -20.7248  -10.7599 C   0  0  0  0  0  0  0  0  0  0  0  0
   25.9772  -18.8761   -9.5226 O   0  0  0  0  0  0  0  0  0  0  0  0
   26.7368  -18.6979  -10.4876 O   0  0  0  0  0  0  0  0  0  0  0  0
  1  2  1  0
  3  4  2  0
  3  2  1  0
  6  5  1  0
  7  6  2  0
  8  6  1  0
  9 10  1  0
  9  8  1  0
 10 11  1  0
 12 11  1  6
 12 13  1  0
 12 14  1  0
 13  3  1  0
 14 20  1  0
 15 14  2  0
 17 16  1  1
 17 19  1  0
 18 17  1  0
 19 21  1  0
 19 20  1  6
 21 22  2  0
 21 23  1  0
M  END
$$$$
