GRV.pdb
     RDKit          3D

 23 22  0  0  1  0  0  0  0  0999 V2000
   28.7667  -23.1890  -18.1979 N   0  0  0  0  0  0  0  0  0  0  0  0
   28.6961  -21.9046  -17.5387 C   0  0  0  0  0  0  0  0  0  0  0  0
   27.5980  -21.8820  -16.5368 C   0  0  0  0  0  0  0  0  0  0  0  0
   26.7067  -22.7538  -16.6099 O   0  0  0  0  0  0  0  0  0  0  0  0
   25.7177  -20.4499   -8.8250 N   0  0  0  0  0  0  0  0  0  0  0  0
   24.5837  -20.7849   -9.6170 C   0  0  0  0  0  0  0  0  0  0  0  0
   23.4067  -20.2874   -9.3481 N   0  0  0  0  0  0  0  0  0  0  0  0
   24.6553  -21.6613  -10.7242 N   0  0  0  0  0  0  0  0  0  0  0  0
   25.6986  -21.5198  -11.7157 C   0  0  0  0  0  0  0  0  0  0  0  0
   25.8448  -20.1071  -12.2305 C   0  0  0  0  0  0  0  0  0  0  0  0
   26.8763  -20.0892  -13.3093 C   0  0  0  0  0  0  0  0  0  0  0  0
   26.4408  -20.8090  -14.5678 C   0  0  2  0  0  0  0  0  0  0  0  0
   27.5178  -20.9122  -15.4995 N   0  0  0  0  0  0  0  0  0  0  0  0
   25.2261  -20.1889  -15.1492 C   0  0  0  0  0  0  0  0  0  0  0  0
   25.2427  -19.0009  -15.5647 O   0  0  0  0  0  0  0  0  0  0  0  0
   22.6087  -20.5881   -9.9365 C   0  0  0  0  0  0  0  0  0  0  0  0
   22.0271  -22.4380  -16.8066 C   0  0  1  0  0  0  0  0  0  0  0  0
   22.2593  -20.9551  -17.0142 C   0  0  0  0  0  0  0  0  0  0  0  0
   23.3188  -20.8363  -18.0903 C   0  0  1  0  0  0  0  0  0  0  0  0
   22.7727  -20.2791  -15.7794 N   0  0  0  0  0  0  0  0  0  0  0  0
   23.9887  -20.8812  -15.2725 C   0  0  0  0  0  0  0  0  0  0  0  0
   21.6857  -20.3116  -14.7605 O   0  0  0  0  0  0  0  0  0  0  0  0
   21.7735  -21.0432  -13.7620 O   0  0  0  0  0  0  0  0  0  0  0  0
  1  2  1  0
  3  4  2  0
  3  2  1  0
  6  5  1  0
  7  6  2  0
  8  6  1  0
  9 10  1  0
  9  8  1  0
 10 11  1  0
 12 11  1  1
 12 13  1  0
 12 14  1  0
 13  3  1  0
 14 20  1  0
 15 14  2  0
 17 16  1  6
 17 19  1  0
 18 17  1  0
 19 21  1  0
 19 20  1  6
 21 22  2  0
 21 23  1  0
M  END
$$$$
