GRV.pdb
     RDKit          3D

 23 22  0  0  1  0  0  0  0  0999 V2000
   27.8678  -22.3884  -16.3052 N   0  0  0  0  0  0  0  0  0  0  0  0
   27.6188  -21.2511  -15.4485 C   0  0  0  0  0  0  0  0  0  0  0  0
   26.5192  -21.5393  -14.4903 C   0  0  0  0  0  0  0  0  0  0  0  0
   25.6201  -22.3340  -14.8366 O   0  0  0  0  0  0  0  0  0  0  0  0
   30.5464  -21.6832   -8.4404 N   0  0  0  0  0  0  0  0  0  0  0  0
   30.3670  -21.4223   -9.8279 C   0  0  0  0  0  0  0  0  0  0  0  0
   31.2959  -21.7269  -10.6936 N   0  0  0  0  0  0  0  0  0  0  0  0
   29.1952  -20.8277  -10.3496 N   0  0  0  0  0  0  0  0  0  0  0  0
   27.9428  -20.9008   -9.6300 C   0  0  0  0  0  0  0  0  0  0  0  0
   26.8986  -21.7358  -10.3332 C   0  0  0  0  0  0  0  0  0  0  0  0
   25.8286  -20.8350  -10.8544 C   0  0  0  0  0  0  0  0  0  0  0  0
   25.3907  -21.1759  -12.2628 C   0  0  2  0  0  0  0  0  0  0  0  0
   26.4460  -20.9503  -13.1978 N   0  0  0  0  0  0  0  0  0  0  0  0
   24.1358  -20.4725  -12.6211 C   0  0  0  0  0  0  0  0  0  0  0  0
   24.0469  -19.2205  -12.5258 O   0  0  0  0  0  0  0  0  0  0  0  0
   31.1332  -21.4765  -11.6857 C   0  0  0  0  0  0  0  0  0  0  0  0
   21.0677  -22.3279  -14.9780 C   0  0  1  0  0  0  0  0  0  0  0  0
   21.2229  -20.8341  -14.7767 C   0  0  0  0  0  0  0  0  0  0  0  0
   22.2542  -20.3730  -15.7859 C   0  0  1  0  0  0  0  0  0  0  0  0
   21.7264  -20.4916  -13.4076 N   0  0  0  0  0  0  0  0  0  0  0  0
   22.9748  -21.1520  -13.0856 C   0  0  0  0  0  0  0  0  0  0  0  0
   20.6579  -20.8455  -12.4309 O   0  0  0  0  0  0  0  0  0  0  0  0
   19.6263  -20.1612  -12.3431 O   0  0  0  0  0  0  0  0  0  0  0  0
  1  2  1  0
  3  4  2  0
  3  2  1  0
  6  5  1  0
  7  6  2  0
  8  6  1  0
  9 10  1  0
  9  8  1  0
 10 11  1  0
 12 11  1  1
 12 13  1  0
 12 14  1  0
 13  3  1  0
 14 20  1  0
 15 14  2  0
 17 16  1  6
 17 19  1  0
 18 17  1  0
 19 21  1  0
 19 20  1  6
 21 22  2  0
 21 23  1  0
M  END
$$$$
