QLR.pdb
     RDKit          3D

 29 28  0  0  1  0  0  0  0  0999 V2000
    8.9501  -12.4038   18.1263 N   0  0  0  0  0  0  0  0  0  0  0  0
    8.0696  -13.4331   17.7380 C   0  0  0  0  0  0  0  0  0  0  0  0
    7.6749  -13.5909   16.5774 O   0  0  0  0  0  0  0  0  0  0  0  0
    7.5819  -14.3923   18.7865 C   0  0  0  0  0  0  0  0  0  0  0  0
    8.1513  -14.0424   20.1292 C   0  0  0  0  0  0  0  0  0  0  0  0
    8.1047  -15.2123   21.0538 C   0  0  2  0  0  0  0  0  0  0  0  0
    6.7356  -15.7415   21.1517 N   0  0  0  0  0  0  0  0  0  0  0  0
    8.5615  -14.8457   22.3987 C   0  0  0  0  0  0  0  0  0  0  0  0
    9.7089  -14.4260   22.6693 O   0  0  0  0  0  0  0  0  0  0  0  0
    6.1500  -11.7239   26.2851 C   0  0  0  0  0  0  0  0  0  0  0  0
    7.2732  -12.4054   25.5197 C   0  0  1  0  0  0  0  0  0  0  0  0
    8.5976  -12.1397   26.2178 C   0  0  0  0  0  0  0  0  0  0  0  0
    6.9336  -13.8689   25.4795 C   0  0  0  0  0  0  0  0  0  0  0  0
    8.0513  -14.6277   24.8347 C   0  0  2  0  0  0  0  0  0  0  0  0
    7.6464  -14.9694   23.4888 N   0  0  0  0  0  0  0  0  0  0  0  0
    8.3063  -15.8989   25.5684 C   0  0  0  0  0  0  0  0  0  0  0  0
    7.3939  -16.7093   25.7787 O   0  0  0  0  0  0  0  0  0  0  0  0
   11.2756  -20.7581   22.3903 N   0  0  0  0  0  0  0  0  0  0  0  0
   11.8764  -19.6371   21.7539 C   0  0  0  0  0  0  0  0  0  0  0  0
   11.9050  -19.6038   20.4726 N   0  0  0  0  0  0  0  0  0  0  0  0
   12.4390  -18.5640   22.4884 N   0  0  0  0  0  0  0  0  0  0  0  0
   12.5012  -18.5651   23.9360 C   0  0  0  0  0  0  0  0  0  0  0  0
   11.2596  -18.0877   24.5810 C   0  0  0  0  0  0  0  0  0  0  0  0
   11.2353  -17.9152   26.0443 C   0  0  0  0  0  0  0  0  0  0  0  0
    9.9516  -17.4363   26.6307 C   0  0  2  0  0  0  0  0  0  0  0  0
    9.6148  -16.1428   26.0111 N   0  0  0  0  0  0  0  0  0  0  0  0
    9.9212  -17.2108   28.0751 C   0  0  0  0  0  0  0  0  0  0  0  0
    9.9160  -16.0542   28.6173 O   0  0  0  0  0  0  0  0  0  0  0  0
    9.8940  -18.2745   28.9644 O   0  0  0  0  0  0  0  0  0  0  0  0
  1  2  1  0
  2  3  2  0
  4  5  1  0
  4  2  1  0
  6  8  1  0
  6  5  1  0
  6  7  1  1
  8  9  2  0
 11 10  1  1
 11 13  1  0
 12 11  1  0
 14 13  1  1
 14 16  1  0
 15 14  1  0
 15  8  1  0
 16 17  2  0
 18 19  1  0
 19 20  2  0
 19 21  1  0
 21 22  1  0
 23 22  1  0
 23 24  1  0
 25 24  1  6
 25 27  1  0
 26 25  1  0
 26 16  1  0
 27 28  2  0
 27 29  1  0
M  END
$$$$
