QLR.pdb
     RDKit          3D

 29 28  0  0  1  0  0  0  0  0999 V2000
    7.2768  -19.3327   29.3794 N   0  0  0  0  0  0  0  0  0  0  0  0
    7.0583  -20.7137   29.5542 C   0  0  0  0  0  0  0  0  0  0  0  0
    7.4285  -21.3416   30.5524 O   0  0  0  0  0  0  0  0  0  0  0  0
    6.3371  -21.4674   28.4729 C   0  0  0  0  0  0  0  0  0  0  0  0
    5.8148  -20.5250   27.4296 C   0  0  0  0  0  0  0  0  0  0  0  0
    6.9150  -20.0357   26.5487 C   0  0  2  0  0  0  0  0  0  0  0  0
    8.1863  -19.9844   27.2871 N   0  0  0  0  0  0  0  0  0  0  0  0
    6.6228  -18.6960   26.0274 C   0  0  0  0  0  0  0  0  0  0  0  0
    5.6525  -18.4177   25.2878 O   0  0  0  0  0  0  0  0  0  0  0  0
    6.0630  -13.7179   25.8805 C   0  0  0  0  0  0  0  0  0  0  0  0
    7.5633  -13.9262   26.0135 C   0  0  1  0  0  0  0  0  0  0  0  0
    8.1617  -12.7973   26.8377 C   0  0  0  0  0  0  0  0  0  0  0  0
    7.7503  -15.2680   26.6644 C   0  0  0  0  0  0  0  0  0  0  0  0
    7.4185  -16.3523   25.6871 C   0  0  2  0  0  0  0  0  0  0  0  0
    7.4957  -17.6208   26.3780 N   0  0  0  0  0  0  0  0  0  0  0  0
    8.4160  -16.3766   24.5809 C   0  0  0  0  0  0  0  0  0  0  0  0
    9.5326  -16.8884   24.7386 O   0  0  0  0  0  0  0  0  0  0  0  0
    6.7425  -12.9573   17.6831 N   0  0  0  0  0  0  0  0  0  0  0  0
    8.1611  -13.0309   17.6141 C   0  0  0  0  0  0  0  0  0  0  0  0
    8.8294  -11.9373   17.5803 N   0  0  0  0  0  0  0  0  0  0  0  0
    8.8522  -14.2673   17.5829 N   0  0  0  0  0  0  0  0  0  0  0  0
    8.6884  -15.2721   18.6140 C   0  0  0  0  0  0  0  0  0  0  0  0
    9.2659  -14.8807   19.9174 C   0  0  0  0  0  0  0  0  0  0  0  0
    8.4353  -14.9925   21.1295 C   0  0  0  0  0  0  0  0  0  0  0  0
    8.9398  -15.9070   22.1926 C   0  0  2  0  0  0  0  0  0  0  0  0
    8.0445  -15.7996   23.3576 N   0  0  0  0  0  0  0  0  0  0  0  0
   10.2897  -15.6614   22.6982 C   0  0  0  0  0  0  0  0  0  0  0  0
   10.5461  -14.9779   23.7465 O   0  0  0  0  0  0  0  0  0  0  0  0
   11.4014  -16.1745   22.0474 O   0  0  0  0  0  0  0  0  0  0  0  0
  1  2  1  0
  2  3  2  0
  4  5  1  0
  4  2  1  0
  6  8  1  0
  6  5  1  0
  6  7  1  1
  8  9  2  0
 11 10  1  1
 11 13  1  0
 12 11  1  0
 14 13  1  1
 14 16  1  0
 15 14  1  0
 15  8  1  0
 16 17  2  0
 18 19  1  0
 19 20  2  0
 19 21  1  0
 21 22  1  0
 23 22  1  0
 23 24  1  0
 25 24  1  6
 25 27  1  0
 26 25  1  0
 26 16  1  0
 27 28  2  0
 27 29  1  0
M  END
$$$$
