QLR.pdb
     RDKit          3D

 29 28  0  0  1  0  0  0  0  0999 V2000
    7.9854  -12.3531   17.8763 N   0  0  0  0  0  0  0  0  0  0  0  0
    7.2377  -13.4700   17.4535 C   0  0  0  0  0  0  0  0  0  0  0  0
    6.3396  -13.4083   16.6065 O   0  0  0  0  0  0  0  0  0  0  0  0
    7.5447  -14.8094   18.0612 C   0  0  0  0  0  0  0  0  0  0  0  0
    8.6850  -14.7019   19.0294 C   0  0  0  0  0  0  0  0  0  0  0  0
    8.4360  -15.5285   20.2462 C   0  0  2  0  0  0  0  0  0  0  0  0
    7.0601  -16.0490   20.2467 N   0  0  0  0  0  0  0  0  0  0  0  0
    8.6407  -14.7473   21.4708 C   0  0  0  0  0  0  0  0  0  0  0  0
    9.6492  -14.0444   21.7047 O   0  0  0  0  0  0  0  0  0  0  0  0
    7.6460  -12.1541   25.7600 C   0  0  0  0  0  0  0  0  0  0  0  0
    6.8163  -13.4257   25.8408 C   0  0  1  0  0  0  0  0  0  0  0  0
    5.5136  -13.1367   26.5698 C   0  0  0  0  0  0  0  0  0  0  0  0
    6.5893  -13.8761   24.4250 C   0  0  0  0  0  0  0  0  0  0  0  0
    7.8940  -14.2720   23.8072 C   0  0  2  0  0  0  0  0  0  0  0  0
    7.6284  -14.7781   22.4785 N   0  0  0  0  0  0  0  0  0  0  0  0
    8.5282  -15.3680   24.5920 C   0  0  0  0  0  0  0  0  0  0  0  0
    7.8771  -16.3608   24.9443 O   0  0  0  0  0  0  0  0  0  0  0  0
   13.5979  -15.2297   21.1066 N   0  0  0  0  0  0  0  0  0  0  0  0
   14.6721  -15.6349   21.9459 C   0  0  0  0  0  0  0  0  0  0  0  0
   15.7791  -14.9920   21.8760 N   0  0  0  0  0  0  0  0  0  0  0  0
   14.5557  -16.7191   22.8507 N   0  0  0  0  0  0  0  0  0  0  0  0
   13.3583  -17.5306   22.9366 C   0  0  0  0  0  0  0  0  0  0  0  0
   12.7178  -17.4993   24.2686 C   0  0  0  0  0  0  0  0  0  0  0  0
   12.0461  -16.2639   24.7095 C   0  0  0  0  0  0  0  0  0  0  0  0
   10.6768  -16.4239   25.2757 C   0  0  2  0  0  0  0  0  0  0  0  0
    9.8863  -15.2339   24.9162 N   0  0  0  0  0  0  0  0  0  0  0  0
   10.5668  -16.5568   26.7277 C   0  0  0  0  0  0  0  0  0  0  0  0
   10.3603  -15.5769   27.5208 O   0  0  0  0  0  0  0  0  0  0  0  0
   10.6830  -17.7939   27.3434 O   0  0  0  0  0  0  0  0  0  0  0  0
  1  2  1  0
  2  3  2  0
  4  5  1  0
  4  2  1  0
  6  8  1  0
  6  5  1  0
  6  7  1  6
  8  9  2  0
 11 10  1  6
 11 13  1  0
 12 11  1  0
 14 13  1  1
 14 16  1  0
 15 14  1  0
 15  8  1  0
 16 17  2  0
 18 19  1  0
 19 20  2  0
 19 21  1  0
 21 22  1  0
 23 22  1  0
 23 24  1  0
 25 24  1  1
 25 27  1  0
 26 25  1  0
 26 16  1  0
 27 28  2  0
 27 29  1  0
M  END
$$$$
