QLR.pdb
     RDKit          3D

 29 28  0  0  1  0  0  0  0  0999 V2000
    7.7153  -15.3838   17.2221 N   0  0  0  0  0  0  0  0  0  0  0  0
    7.9054  -13.9934   17.3489 C   0  0  0  0  0  0  0  0  0  0  0  0
    8.6246  -13.3318   16.5921 O   0  0  0  0  0  0  0  0  0  0  0  0
    7.1985  -13.2722   18.4614 C   0  0  0  0  0  0  0  0  0  0  0  0
    8.0522  -13.2351   19.6940 C   0  0  0  0  0  0  0  0  0  0  0  0
    7.6895  -14.3374   20.6317 C   0  0  2  0  0  0  0  0  0  0  0  0
    6.2322  -14.3963   20.8236 N   0  0  0  0  0  0  0  0  0  0  0  0
    8.3262  -14.1533   21.9404 C   0  0  0  0  0  0  0  0  0  0  0  0
    9.5449  -13.9267   22.1117 O   0  0  0  0  0  0  0  0  0  0  0  0
    5.6905  -12.0379   26.3386 C   0  0  0  0  0  0  0  0  0  0  0  0
    6.7793  -12.3397   25.3211 C   0  0  1  0  0  0  0  0  0  0  0  0
    8.0119  -11.5063   25.6340 C   0  0  0  0  0  0  0  0  0  0  0  0
    7.0504  -13.8152   25.4133 C   0  0  0  0  0  0  0  0  0  0  0  0
    8.1127  -14.1945   24.4293 C   0  0  2  0  0  0  0  0  0  0  0  0
    7.5143  -14.2344   23.1130 N   0  0  0  0  0  0  0  0  0  0  0  0
    8.6370  -15.5559   24.7310 C   0  0  0  0  0  0  0  0  0  0  0  0
    7.8776  -16.5314   24.8035 O   0  0  0  0  0  0  0  0  0  0  0  0
   15.4065  -15.8309   21.8630 N   0  0  0  0  0  0  0  0  0  0  0  0
   14.3144  -15.3004   21.1224 C   0  0  0  0  0  0  0  0  0  0  0  0
   14.5432  -14.3539   20.2884 N   0  0  0  0  0  0  0  0  0  0  0  0
   12.9916  -15.7838   21.2771 N   0  0  0  0  0  0  0  0  0  0  0  0
   12.7055  -17.0963   21.8201 C   0  0  0  0  0  0  0  0  0  0  0  0
   11.5561  -17.1133   22.7498 C   0  0  0  0  0  0  0  0  0  0  0  0
   11.8112  -17.1146   24.2012 C   0  0  0  0  0  0  0  0  0  0  0  0
   10.6115  -17.0313   25.0816 C   0  0  2  0  0  0  0  0  0  0  0  0
   10.0189  -15.6912   24.9295 N   0  0  0  0  0  0  0  0  0  0  0  0
   10.8230  -17.2176   26.5165 C   0  0  0  0  0  0  0  0  0  0  0  0
   11.1253  -18.3361   27.0544 O   0  0  0  0  0  0  0  0  0  0  0  0
   10.7046  -16.1557   27.4004 O   0  0  0  0  0  0  0  0  0  0  0  0
  1  2  1  0
  2  3  2  0
  4  5  1  0
  4  2  1  0
  6  8  1  0
  6  5  1  0
  6  7  1  1
  8  9  2  0
 11 10  1  1
 11 13  1  0
 12 11  1  0
 14 13  1  1
 14 16  1  0
 15 14  1  0
 15  8  1  0
 16 17  2  0
 18 19  1  0
 19 20  2  0
 19 21  1  0
 21 22  1  0
 23 22  1  0
 23 24  1  0
 25 24  1  6
 25 27  1  0
 26 25  1  0
 26 16  1  0
 27 28  2  0
 27 29  1  0
M  END
$$$$
