QLR.pdb
     RDKit          3D

 29 28  0  0  1  0  0  0  0  0999 V2000
    8.5601  -12.9574   18.0351 N   0  0  0  0  0  0  0  0  0  0  0  0
    7.9458  -14.2239   17.9742 C   0  0  0  0  0  0  0  0  0  0  0  0
    7.4416  -14.6884   16.9456 O   0  0  0  0  0  0  0  0  0  0  0  0
    7.8985  -15.0582   19.2229 C   0  0  0  0  0  0  0  0  0  0  0  0
    8.5534  -14.3389   20.3644 C   0  0  0  0  0  0  0  0  0  0  0  0
    8.8766  -15.2790   21.4769 C   0  0  2  0  0  0  0  0  0  0  0  0
    7.7733  -16.2283   21.6905 N   0  0  0  0  0  0  0  0  0  0  0  0
    9.1205  -14.5563   22.7299 C   0  0  0  0  0  0  0  0  0  0  0  0
   10.0708  -13.7645   22.9198 O   0  0  0  0  0  0  0  0  0  0  0  0
    5.4520  -12.3201   26.2510 C   0  0  0  0  0  0  0  0  0  0  0  0
    6.7338  -12.5467   25.4651 C   0  0  1  0  0  0  0  0  0  0  0  0
    7.7510  -11.4785   25.8339 C   0  0  0  0  0  0  0  0  0  0  0  0
    7.2077  -13.9297   25.8141 C   0  0  0  0  0  0  0  0  0  0  0  0
    8.5087  -14.2046   25.1266 C   0  0  2  0  0  0  0  0  0  0  0  0
    8.2206  -14.7571   23.8212 N   0  0  0  0  0  0  0  0  0  0  0  0
    9.2923  -15.2189   25.8857 C   0  0  0  0  0  0  0  0  0  0  0  0
    9.4279  -15.1334   27.1137 O   0  0  0  0  0  0  0  0  0  0  0  0
   11.3715  -19.0763   29.9370 N   0  0  0  0  0  0  0  0  0  0  0  0
   10.7830  -20.3697   29.9955 C   0  0  0  0  0  0  0  0  0  0  0  0
   10.7265  -20.9652   31.1295 N   0  0  0  0  0  0  0  0  0  0  0  0
   10.2607  -21.0140   28.8468 N   0  0  0  0  0  0  0  0  0  0  0  0
   10.4136  -20.4653   27.5145 C   0  0  0  0  0  0  0  0  0  0  0  0
    9.7635  -19.1492   27.3394 C   0  0  0  0  0  0  0  0  0  0  0  0
    9.7786  -18.5162   26.0087 C   0  0  0  0  0  0  0  0  0  0  0  0
   10.6425  -17.3107   25.8617 C   0  0  2  0  0  0  0  0  0  0  0  0
    9.8695  -16.2713   25.1598 N   0  0  0  0  0  0  0  0  0  0  0  0
   11.8843  -17.4682   25.1059 C   0  0  0  0  0  0  0  0  0  0  0  0
   11.9439  -17.5064   23.8305 O   0  0  0  0  0  0  0  0  0  0  0  0
   13.1049  -17.5873   25.7530 O   0  0  0  0  0  0  0  0  0  0  0  0
  1  2  1  0
  2  3  2  0
  4  5  1  0
  4  2  1  0
  6  8  1  0
  6  5  1  0
  6  7  1  1
  8  9  2  0
 11 10  1  1
 11 13  1  0
 12 11  1  0
 14 13  1  1
 14 16  1  0
 15 14  1  0
 15  8  1  0
 16 17  2  0
 18 19  1  0
 19 20  2  0
 19 21  1  0
 21 22  1  0
 23 22  1  0
 23 24  1  0
 25 24  1  6
 25 27  1  0
 26 25  1  0
 26 16  1  0
 27 28  2  0
 27 29  1  0
M  END
$$$$
