QLR.pdb
     RDKit          3D

 29 28  0  0  1  0  0  0  0  0999 V2000
    9.5652  -13.7667   17.4235 N   0  0  0  0  0  0  0  0  0  0  0  0
    8.1797  -13.6285   17.6393 C   0  0  0  0  0  0  0  0  0  0  0  0
    7.3609  -13.4637   16.7282 O   0  0  0  0  0  0  0  0  0  0  0  0
    7.6652  -13.6839   19.0498 C   0  0  0  0  0  0  0  0  0  0  0  0
    8.7906  -13.9127   20.0145 C   0  0  0  0  0  0  0  0  0  0  0  0
    8.5025  -15.0699   20.9111 C   0  0  2  0  0  0  0  0  0  0  0  0
    7.1106  -15.5176   20.7486 N   0  0  0  0  0  0  0  0  0  0  0  0
    8.7194  -14.7188   22.3188 C   0  0  0  0  0  0  0  0  0  0  0  0
    9.8109  -14.3346   22.7949 O   0  0  0  0  0  0  0  0  0  0  0  0
    5.2338  -12.3874   26.2322 C   0  0  0  0  0  0  0  0  0  0  0  0
    6.5789  -12.7380   25.6160 C   0  0  1  0  0  0  0  0  0  0  0  0
    7.6861  -12.4555   26.6191 C   0  0  0  0  0  0  0  0  0  0  0  0
    6.5082  -14.1913   25.2393 C   0  0  0  0  0  0  0  0  0  0  0  0
    7.8130  -14.6214   24.6448 C   0  0  2  0  0  0  0  0  0  0  0  0
    7.6190  -14.8157   23.2247 N   0  0  0  0  0  0  0  0  0  0  0  0
    8.2437  -15.9236   25.2263 C   0  0  0  0  0  0  0  0  0  0  0  0
    7.5295  -16.9311   25.1359 O   0  0  0  0  0  0  0  0  0  0  0  0
   13.3183  -21.1411   22.6772 N   0  0  0  0  0  0  0  0  0  0  0  0
   13.8393  -21.2661   23.9946 C   0  0  0  0  0  0  0  0  0  0  0  0
   14.2483  -22.4171   24.3839 N   0  0  0  0  0  0  0  0  0  0  0  0
   13.9198  -20.1646   24.8821 N   0  0  0  0  0  0  0  0  0  0  0  0
   13.2534  -18.9057   24.6163 C   0  0  0  0  0  0  0  0  0  0  0  0
   12.0907  -18.6558   25.4945 C   0  0  0  0  0  0  0  0  0  0  0  0
   11.2766  -17.4472   25.2753 C   0  0  0  0  0  0  0  0  0  0  0  0
   10.1102  -17.2639   26.1848 C   0  0  2  0  0  0  0  0  0  0  0  0
    9.4849  -15.9657   25.8784 N   0  0  0  0  0  0  0  0  0  0  0  0
   10.3804  -17.2516   27.6218 C   0  0  0  0  0  0  0  0  0  0  0  0
   10.3398  -16.2007   28.3469 O   0  0  0  0  0  0  0  0  0  0  0  0
   10.7047  -18.4177   28.2984 O   0  0  0  0  0  0  0  0  0  0  0  0
  1  2  1  0
  2  3  2  0
  4  5  1  0
  4  2  1  0
  6  8  1  0
  6  5  1  0
  6  7  1  1
  8  9  2  0
 11 10  1  1
 11 13  1  0
 12 11  1  0
 14 13  1  1
 14 16  1  0
 15 14  1  0
 15  8  1  0
 16 17  2  0
 18 19  1  0
 19 20  2  0
 19 21  1  0
 21 22  1  0
 23 22  1  0
 23 24  1  0
 25 24  1  6
 25 27  1  0
 26 25  1  0
 26 16  1  0
 27 28  2  0
 27 29  1  0
M  END
$$$$
