QLR.pdb
     RDKit          3D

 29 28  0  0  1  0  0  0  0  0999 V2000
    7.3215  -11.9740   18.4344 N   0  0  0  0  0  0  0  0  0  0  0  0
    8.2290  -12.7304   19.2022 C   0  0  0  0  0  0  0  0  0  0  0  0
    9.4542  -12.6907   19.0444 O   0  0  0  0  0  0  0  0  0  0  0  0
    7.6834  -13.6348   20.2708 C   0  0  0  0  0  0  0  0  0  0  0  0
    8.3934  -14.9558   20.2588 C   0  0  0  0  0  0  0  0  0  0  0  0
    7.8431  -15.8707   21.3010 C   0  0  2  0  0  0  0  0  0  0  0  0
    6.3844  -15.7146   21.4100 N   0  0  0  0  0  0  0  0  0  0  0  0
    8.4413  -15.6027   22.6133 C   0  0  0  0  0  0  0  0  0  0  0  0
    9.6662  -15.6641   22.8615 O   0  0  0  0  0  0  0  0  0  0  0  0
    5.7431  -12.4574   26.4538 C   0  0  0  0  0  0  0  0  0  0  0  0
    6.8916  -12.9524   25.5891 C   0  0  1  0  0  0  0  0  0  0  0  0
    8.1560  -12.1815   25.9341 C   0  0  0  0  0  0  0  0  0  0  0  0
    7.0280  -14.4236   25.8648 C   0  0  0  0  0  0  0  0  0  0  0  0
    8.1197  -14.9960   25.0155 C   0  0  2  0  0  0  0  0  0  0  0  0
    7.5811  -15.2445   23.6963 N   0  0  0  0  0  0  0  0  0  0  0  0
    8.5795  -16.2996   25.5709 C   0  0  0  0  0  0  0  0  0  0  0  0
    7.7801  -17.2214   25.7829 O   0  0  0  0  0  0  0  0  0  0  0  0
   14.1209  -22.7835   25.9380 N   0  0  0  0  0  0  0  0  0  0  0  0
   14.5862  -21.8568   24.9647 C   0  0  0  0  0  0  0  0  0  0  0  0
   15.7553  -22.0277   24.4671 N   0  0  0  0  0  0  0  0  0  0  0  0
   13.8016  -20.7594   24.5316 N   0  0  0  0  0  0  0  0  0  0  0  0
   13.7846  -19.4936   25.2366 C   0  0  0  0  0  0  0  0  0  0  0  0
   12.4988  -19.2087   25.9081 C   0  0  0  0  0  0  0  0  0  0  0  0
   11.7329  -18.0149   25.5081 C   0  0  0  0  0  0  0  0  0  0  0  0
   10.4786  -17.7508   26.2684 C   0  0  2  0  0  0  0  0  0  0  0  0
    9.9478  -16.4437   25.8441 N   0  0  0  0  0  0  0  0  0  0  0  0
   10.5824  -17.6894   27.7257 C   0  0  0  0  0  0  0  0  0  0  0  0
   10.3937  -18.6895   28.4976 O   0  0  0  0  0  0  0  0  0  0  0  0
   10.9029  -16.5044   28.3704 O   0  0  0  0  0  0  0  0  0  0  0  0
  1  2  1  0
  2  3  2  0
  4  5  1  0
  4  2  1  0
  6  8  1  0
  6  5  1  0
  6  7  1  1
  8  9  2  0
 11 10  1  1
 11 13  1  0
 12 11  1  0
 14 13  1  1
 14 16  1  0
 15 14  1  0
 15  8  1  0
 16 17  2  0
 18 19  1  0
 19 20  2  0
 19 21  1  0
 21 22  1  0
 23 22  1  0
 23 24  1  0
 25 24  1  6
 25 27  1  0
 26 25  1  0
 26 16  1  0
 27 28  2  0
 27 29  1  0
M  END
$$$$
