QLR.pdb
     RDKit          3D

 29 28  0  0  1  0  0  0  0  0999 V2000
    9.6049  -12.9405   17.6969 N   0  0  0  0  0  0  0  0  0  0  0  0
    8.2196  -13.1978   17.7068 C   0  0  0  0  0  0  0  0  0  0  0  0
    7.4754  -12.9617   16.7486 O   0  0  0  0  0  0  0  0  0  0  0  0
    7.6098  -13.7907   18.9454 C   0  0  0  0  0  0  0  0  0  0  0  0
    8.6599  -14.0303   19.9891 C   0  0  0  0  0  0  0  0  0  0  0  0
    8.2020  -15.0370   20.9904 C   0  0  2  0  0  0  0  0  0  0  0  0
    6.7362  -15.1594   20.9695 N   0  0  0  0  0  0  0  0  0  0  0  0
    8.6208  -14.6667   22.3467 C   0  0  0  0  0  0  0  0  0  0  0  0
    9.7740  -14.2924   22.6566 O   0  0  0  0  0  0  0  0  0  0  0  0
    5.4818  -12.0618   25.8855 C   0  0  0  0  0  0  0  0  0  0  0  0
    6.7120  -12.5513   25.1380 C   0  0  1  0  0  0  0  0  0  0  0  0
    7.9059  -11.6825   25.5010 C   0  0  0  0  0  0  0  0  0  0  0  0
    6.9092  -13.9867   25.5377 C   0  0  0  0  0  0  0  0  0  0  0  0
    8.0626  -14.5665   24.7798 C   0  0  2  0  0  0  0  0  0  0  0  0
    7.6586  -14.7310   23.4007 N   0  0  0  0  0  0  0  0  0  0  0  0
    8.4103  -15.9128   25.3144 C   0  0  0  0  0  0  0  0  0  0  0  0
    7.6586  -16.8820   25.1431 O   0  0  0  0  0  0  0  0  0  0  0  0
   13.8069  -21.5408   26.3665 N   0  0  0  0  0  0  0  0  0  0  0  0
   13.1084  -21.7384   25.1436 C   0  0  0  0  0  0  0  0  0  0  0  0
   13.6641  -22.4443   24.2290 N   0  0  0  0  0  0  0  0  0  0  0  0
   11.8262  -21.1832   24.9084 N   0  0  0  0  0  0  0  0  0  0  0  0
   11.1866  -20.2859   25.8493 C   0  0  0  0  0  0  0  0  0  0  0  0
   11.9214  -19.0189   26.0502 C   0  0  0  0  0  0  0  0  0  0  0  0
   11.2715  -17.7495   25.6789 C   0  0  0  0  0  0  0  0  0  0  0  0
   10.0664  -17.3697   26.4693 C   0  0  2  0  0  0  0  0  0  0  0  0
    9.6173  -16.0414   26.0174 N   0  0  0  0  0  0  0  0  0  0  0  0
   10.2243  -17.2695   27.9195 C   0  0  0  0  0  0  0  0  0  0  0  0
   10.5503  -16.1957   28.5298 O   0  0  0  0  0  0  0  0  0  0  0  0
   10.0210  -18.3698   28.7386 O   0  0  0  0  0  0  0  0  0  0  0  0
  1  2  1  0
  2  3  2  0
  4  5  1  0
  4  2  1  0
  6  8  1  0
  6  5  1  0
  6  7  1  1
  8  9  2  0
 11 10  1  1
 11 13  1  0
 12 11  1  0
 14 13  1  1
 14 16  1  0
 15 14  1  0
 15  8  1  0
 16 17  2  0
 18 19  1  0
 19 20  2  0
 19 21  1  0
 21 22  1  0
 23 22  1  0
 23 24  1  0
 25 24  1  6
 25 27  1  0
 26 25  1  0
 26 16  1  0
 27 28  2  0
 27 29  1  0
M  END
$$$$
