QLR.pdb
     RDKit          3D

 29 28  0  0  1  0  0  0  0  0999 V2000
    9.5659  -19.6521   21.7640 N   0  0  0  0  0  0  0  0  0  0  0  0
    8.6344  -19.3639   20.7468 C   0  0  0  0  0  0  0  0  0  0  0  0
    8.4189  -20.1129   19.7875 O   0  0  0  0  0  0  0  0  0  0  0  0
    7.8593  -18.0794   20.8281 C   0  0  0  0  0  0  0  0  0  0  0  0
    8.7860  -16.9123   20.9970 C   0  0  0  0  0  0  0  0  0  0  0  0
    8.0235  -15.6456   21.1966 C   0  0  2  0  0  0  0  0  0  0  0  0
    8.1897  -14.7526   20.0394 N   0  0  0  0  0  0  0  0  0  0  0  0
    8.4728  -14.9387   22.4009 C   0  0  0  0  0  0  0  0  0  0  0  0
    9.5474  -14.3042   22.4928 O   0  0  0  0  0  0  0  0  0  0  0  0
    6.0004  -11.9385   26.8734 C   0  0  0  0  0  0  0  0  0  0  0  0
    7.2495  -12.4393   26.1658 C   0  0  1  0  0  0  0  0  0  0  0  0
    8.3239  -12.7547   27.1944 C   0  0  0  0  0  0  0  0  0  0  0  0
    6.8365  -13.6537   25.3824 C   0  0  0  0  0  0  0  0  0  0  0  0
    8.0448  -14.2977   24.7774 C   0  0  2  0  0  0  0  0  0  0  0  0
    7.6381  -14.9647   23.5601 N   0  0  0  0  0  0  0  0  0  0  0  0
    8.5979  -15.3303   25.6977 C   0  0  0  0  0  0  0  0  0  0  0  0
    7.8665  -16.1908   26.2059 O   0  0  0  0  0  0  0  0  0  0  0  0
   15.2007  -18.8744   25.3036 N   0  0  0  0  0  0  0  0  0  0  0  0
   14.6623  -19.0455   23.9985 C   0  0  0  0  0  0  0  0  0  0  0  0
   14.9868  -20.0938   23.3355 N   0  0  0  0  0  0  0  0  0  0  0  0
   13.7841  -18.0995   23.4142 N   0  0  0  0  0  0  0  0  0  0  0  0
   13.4340  -16.8577   24.0736 C   0  0  0  0  0  0  0  0  0  0  0  0
   12.1016  -16.8840   24.7137 C   0  0  0  0  0  0  0  0  0  0  0  0
   11.9935  -16.5786   26.1513 C   0  0  0  0  0  0  0  0  0  0  0  0
   10.6134  -16.4064   26.6869 C   0  0  2  0  0  0  0  0  0  0  0  0
    9.9740  -15.2917   25.9666 N   0  0  0  0  0  0  0  0  0  0  0  0
   10.4843  -16.0933   28.1094 C   0  0  0  0  0  0  0  0  0  0  0  0
   10.1269  -14.9526   28.5599 O   0  0  0  0  0  0  0  0  0  0  0  0
   10.7499  -17.0486   29.0788 O   0  0  0  0  0  0  0  0  0  0  0  0
  1  2  1  0
  2  3  2  0
  4  5  1  0
  4  2  1  0
  6  8  1  0
  6  5  1  0
  6  7  1  6
  8  9  2  0
 11 10  1  1
 11 13  1  0
 12 11  1  0
 14 13  1  1
 14 16  1  0
 15 14  1  0
 15  8  1  0
 16 17  2  0
 18 19  1  0
 19 20  2  0
 19 21  1  0
 21 22  1  0
 23 22  1  0
 23 24  1  0
 25 24  1  6
 25 27  1  0
 26 25  1  0
 26 16  1  0
 27 28  2  0
 27 29  1  0
M  END
$$$$
