QLR.pdb
     RDKit          3D

 29 28  0  0  1  0  0  0  0  0999 V2000
   11.4684  -17.3790   13.2555 N   0  0  0  0  0  0  0  0  0  0  0  0
   10.1195  -16.9719   13.2636 C   0  0  0  0  0  0  0  0  0  0  0  0
    9.4266  -16.8878   12.2436 O   0  0  0  0  0  0  0  0  0  0  0  0
    9.4851  -16.6205   14.5795 C   0  0  0  0  0  0  0  0  0  0  0  0
   10.4612  -16.8048   15.7032 C   0  0  0  0  0  0  0  0  0  0  0  0
    9.7820  -17.3277   16.9243 C   0  0  2  0  0  0  0  0  0  0  0  0
    8.3237  -17.3586   16.7332 N   0  0  0  0  0  0  0  0  0  0  0  0
   10.0824  -16.4981   18.0962 C   0  0  0  0  0  0  0  0  0  0  0  0
   11.2339  -16.2750   18.5322 O   0  0  0  0  0  0  0  0  0  0  0  0
    6.6120  -12.4956   19.6651 C   0  0  0  0  0  0  0  0  0  0  0  0
    7.8733  -13.2657   19.3072 C   0  0  1  0  0  0  0  0  0  0  0  0
    9.0632  -12.3192   19.3069 C   0  0  0  0  0  0  0  0  0  0  0  0
    8.0119  -14.3552   20.3331 C   0  0  0  0  0  0  0  0  0  0  0  0
    9.2286  -15.1750   20.0359 C   0  0  2  0  0  0  0  0  0  0  0  0
    8.9973  -15.8939   18.8022 N   0  0  0  0  0  0  0  0  0  0  0  0
    9.4522  -16.1806   21.1120 C   0  0  0  0  0  0  0  0  0  0  0  0
    8.6003  -17.0419   21.3685 O   0  0  0  0  0  0  0  0  0  0  0  0
   14.8515  -22.2170   21.6550 N   0  0  0  0  0  0  0  0  0  0  0  0
   15.5247  -21.2043   22.3924 C   0  0  0  0  0  0  0  0  0  0  0  0
   16.7950  -21.2967   22.5391 N   0  0  0  0  0  0  0  0  0  0  0  0
   14.8385  -20.1046   22.9644 N   0  0  0  0  0  0  0  0  0  0  0  0
   13.3962  -19.9780   22.9086 C   0  0  0  0  0  0  0  0  0  0  0  0
   12.8963  -18.6853   23.4230 C   0  0  0  0  0  0  0  0  0  0  0  0
   12.3368  -17.7068   22.4736 C   0  0  0  0  0  0  0  0  0  0  0  0
   10.9909  -17.1602   22.8066 C   0  0  2  0  0  0  0  0  0  0  0  0
   10.6601  -16.1154   21.8221 N   0  0  0  0  0  0  0  0  0  0  0  0
   10.8293  -16.5404   24.1211 C   0  0  0  0  0  0  0  0  0  0  0  0
   10.7080  -15.2825   24.3073 O   0  0  0  0  0  0  0  0  0  0  0  0
   10.7964  -17.3090   25.2748 O   0  0  0  0  0  0  0  0  0  0  0  0
  1  2  1  0
  2  3  2  0
  4  5  1  0
  4  2  1  0
  6  8  1  0
  6  5  1  0
  6  7  1  6
  8  9  2  0
 11 10  1  1
 11 13  1  0
 12 11  1  0
 14 13  1  1
 14 16  1  0
 15 14  1  0
 15  8  1  0
 16 17  2  0
 18 19  1  0
 19 20  2  0
 19 21  1  0
 21 22  1  0
 23 22  1  0
 23 24  1  0
 25 24  1  6
 25 27  1  0
 26 25  1  0
 26 16  1  0
 27 28  2  0
 27 29  1  0
M  END
$$$$
