QLR.pdb
     RDKit          3D

 29 28  0  0  1  0  0  0  0  0999 V2000
    6.6642  -17.5799   20.3655 N   0  0  0  0  0  0  0  0  0  0  0  0
    6.5390  -16.9798   19.0968 C   0  0  0  0  0  0  0  0  0  0  0  0
    5.7683  -17.3898   18.2217 O   0  0  0  0  0  0  0  0  0  0  0  0
    7.3846  -15.7773   18.7864 C   0  0  0  0  0  0  0  0  0  0  0  0
    8.1828  -15.3677   19.9882 C   0  0  0  0  0  0  0  0  0  0  0  0
    7.5193  -14.2478   20.7174 C   0  0  2  0  0  0  0  0  0  0  0  0
    7.6147  -12.9986   19.9464 N   0  0  0  0  0  0  0  0  0  0  0  0
    8.1318  -14.0331   22.0330 C   0  0  0  0  0  0  0  0  0  0  0  0
    9.3369  -13.7517   22.2180 O   0  0  0  0  0  0  0  0  0  0  0  0
    5.5775  -11.8958   26.4197 C   0  0  0  0  0  0  0  0  0  0  0  0
    6.6971  -12.2420   25.4509 C   0  0  1  0  0  0  0  0  0  0  0  0
    7.9675  -11.5147   25.8622 C   0  0  0  0  0  0  0  0  0  0  0  0
    6.8546  -13.7359   25.4993 C   0  0  0  0  0  0  0  0  0  0  0  0
    7.8999  -14.1641   24.5171 C   0  0  2  0  0  0  0  0  0  0  0  0
    7.3106  -14.1487   23.1962 N   0  0  0  0  0  0  0  0  0  0  0  0
    8.3390  -15.5589   24.8019 C   0  0  0  0  0  0  0  0  0  0  0  0
    7.5265  -16.4933   24.8199 O   0  0  0  0  0  0  0  0  0  0  0  0
   14.7755  -19.9855   22.6980 N   0  0  0  0  0  0  0  0  0  0  0  0
   14.0171  -21.0019   23.3416 C   0  0  0  0  0  0  0  0  0  0  0  0
   14.5864  -22.1224   23.5946 N   0  0  0  0  0  0  0  0  0  0  0  0
   12.6617  -20.8139   23.7094 N   0  0  0  0  0  0  0  0  0  0  0  0
   11.9541  -19.5760   23.4516 C   0  0  0  0  0  0  0  0  0  0  0  0
   12.1972  -18.5332   24.4709 C   0  0  0  0  0  0  0  0  0  0  0  0
   11.4684  -17.2560   24.3744 C   0  0  0  0  0  0  0  0  0  0  0  0
   10.2186  -17.1475   25.1789 C   0  0  2  0  0  0  0  0  0  0  0  0
    9.7030  -15.7737   25.0485 N   0  0  0  0  0  0  0  0  0  0  0  0
   10.3254  -17.4028   26.6148 C   0  0  0  0  0  0  0  0  0  0  0  0
   10.3377  -16.4859   27.5040 O   0  0  0  0  0  0  0  0  0  0  0  0
   10.4211  -18.6961   27.1059 O   0  0  0  0  0  0  0  0  0  0  0  0
  1  2  1  0
  2  3  2  0
  4  5  1  0
  4  2  1  0
  6  8  1  0
  6  5  1  0
  6  7  1  6
  8  9  2  0
 11 10  1  1
 11 13  1  0
 12 11  1  0
 14 13  1  1
 14 16  1  0
 15 14  1  0
 15  8  1  0
 16 17  2  0
 18 19  1  0
 19 20  2  0
 19 21  1  0
 21 22  1  0
 23 22  1  0
 23 24  1  0
 25 24  1  6
 25 27  1  0
 26 25  1  0
 26 16  1  0
 27 28  2  0
 27 29  1  0
M  END
$$$$
