RAN.pdb
     RDKit          3D

 25 24  0  0  1  0  0  0  0  0999 V2000
   27.9828  -24.3228  -16.4946 N   0  0  0  0  0  0  0  0  0  0  0  0
   26.8131  -25.0192  -16.9070 C   0  0  0  0  0  0  0  0  0  0  0  0
   26.8270  -25.7868  -17.9398 N   0  0  0  0  0  0  0  0  0  0  0  0
   25.5845  -24.8866  -16.1819 N   0  0  0  0  0  0  0  0  0  0  0  0
   25.5221  -24.1807  -14.9161 C   0  0  0  0  0  0  0  0  0  0  0  0
   24.1691  -24.2296  -14.2937 C   0  0  0  0  0  0  0  0  0  0  0  0
   23.5226  -22.9193  -14.0221 C   0  0  0  0  0  0  0  0  0  0  0  0
   24.4400  -21.7728  -13.7579 C   0  0  2  0  0  0  0  0  0  0  0  0
   24.9018  -21.7888  -12.4066 N   0  0  0  0  0  0  0  0  0  0  0  0
   23.8598  -20.4717  -14.1855 C   0  0  0  0  0  0  0  0  0  0  0  0
   23.0892  -19.8432  -13.4010 O   0  0  0  0  0  0  0  0  0  0  0  0
   25.9914  -26.3612  -18.1614 C   0  0  0  0  0  0  0  0  0  0  0  0
   24.2263  -17.9178  -16.9361 C   0  0  1  0  0  0  0  0  0  0  0  0
   23.5055  -18.5881  -15.7855 N   0  0  0  0  0  0  0  0  0  0  0  0
   24.1034  -19.8542  -15.4363 C   0  0  0  0  0  0  0  0  0  0  0  0
   22.0713  -18.7761  -16.1122 O   0  0  0  0  0  0  0  0  0  0  0  0
   21.6410  -19.9208  -16.3612 N   0  0  0  0  0  0  0  0  0  0  0  0
   17.2971  -18.1111  -17.0195 C   0  0  0  0  0  0  0  0  0  0  0  0
   17.5887  -16.8989  -16.3342 O   0  0  0  0  0  0  0  0  0  0  0  0
   16.6709  -16.0884  -16.0727 C   0  0  0  0  0  0  0  0  0  0  0  0
   18.9913  -16.6238  -15.9421 C   0  0  1  0  0  0  0  0  0  0  0  0
   19.8410  -17.7689  -16.4589 N   0  0  0  0  0  0  0  0  0  0  0  0
   21.2239  -17.6290  -16.1310 C   0  0  0  0  0  0  0  0  0  0  0  0
   19.6896  -17.7879  -17.9310 O   0  0  0  0  0  0  0  0  0  0  0  0
   18.5861  -18.3462  -18.5706 O   0  0  0  0  0  0  0  0  0  0  0  0
  1  2  1  0
  2  3  2  0
  4  5  1  0
  4  2  1  0
  6  7  1  0
  6  5  1  0
  7  8  1  0
  8  9  1  1
 10  8  1  0
 10 11  2  0
 13 12  1  1
 13 14  1  0
 14 10  1  0
 15 13  1  0
 16 15  2  0
 18 17  1  0
 19 18  2  0
 20 18  1  0
 21 20  1  1
 21 22  1  0
 22 15  1  0
 23 24  1  0
 23 21  1  0
 25 23  2  0
M  END
$$$$
