RAN.pdb
     RDKit          3D

 25 24  0  0  1  0  0  0  0  0999 V2000
   18.0544  -13.3269  -14.8089 N   0  0  0  0  0  0  0  0  0  0  0  0
   17.5673  -13.9631  -15.9842 C   0  0  0  0  0  0  0  0  0  0  0  0
   16.9347  -15.0819  -15.9198 N   0  0  0  0  0  0  0  0  0  0  0  0
   17.7661  -13.3742  -17.2751 N   0  0  0  0  0  0  0  0  0  0  0  0
   18.7571  -12.3375  -17.4924 C   0  0  0  0  0  0  0  0  0  0  0  0
   18.4286  -11.0673  -16.7859 C   0  0  0  0  0  0  0  0  0  0  0  0
   19.3636   -9.9329  -17.0040 C   0  0  0  0  0  0  0  0  0  0  0  0
   20.6696  -10.0067  -16.2865 C   0  0  2  0  0  0  0  0  0  0  0  0
   20.5715  -10.8406  -15.1312 N   0  0  0  0  0  0  0  0  0  0  0  0
   21.2457   -8.6621  -16.0171 C   0  0  0  0  0  0  0  0  0  0  0  0
   20.8226   -7.9869  -15.0326 O   0  0  0  0  0  0  0  0  0  0  0  0
   16.6409  -15.5545  -16.7958 C   0  0  0  0  0  0  0  0  0  0  0  0
   23.9861   -6.3914  -17.3236 C   0  0  1  0  0  0  0  0  0  0  0  0
   22.8181   -6.7687  -16.4371 N   0  0  0  0  0  0  0  0  0  0  0  0
   22.2611   -8.0516  -16.7927 C   0  0  0  0  0  0  0  0  0  0  0  0
   21.7665   -5.7246  -16.4941 O   0  0  0  0  0  0  0  0  0  0  0  0
   20.8359   -5.8318  -17.3186 N   0  0  0  0  0  0  0  0  0  0  0  0
   19.0822   -1.6668  -15.7167 C   0  0  0  0  0  0  0  0  0  0  0  0
   18.5690   -2.9224  -15.2878 O   0  0  0  0  0  0  0  0  0  0  0  0
   17.3541   -3.0430  -15.0101 C   0  0  0  0  0  0  0  0  0  0  0  0
   19.4994   -4.0711  -15.1798 C   0  0  2  0  0  0  0  0  0  0  0  0
   20.8673   -3.5921  -15.6266 N   0  0  0  0  0  0  0  0  0  0  0  0
   21.8565   -4.6217  -15.5943 C   0  0  0  0  0  0  0  0  0  0  0  0
   21.2660   -2.5053  -14.7046 O   0  0  0  0  0  0  0  0  0  0  0  0
   20.5847   -1.2938  -14.6240 O   0  0  0  0  0  0  0  0  0  0  0  0
  1  2  1  0
  2  3  2  0
  4  5  1  0
  4  2  1  0
  6  7  1  0
  6  5  1  0
  7  8  1  0
  8  9  1  1
 10  8  1  0
 10 11  2  0
 13 12  1  1
 13 14  1  0
 14 10  1  0
 15 13  1  0
 16 15  2  0
 18 17  1  0
 19 18  2  0
 20 18  1  0
 21 20  1  6
 21 22  1  0
 22 15  1  0
 23 24  1  0
 23 21  1  0
 25 23  2  0
M  END
$$$$
