RAN.pdb
     RDKit          3D

 25 24  0  0  1  0  0  0  0  0999 V2000
   22.7924  -19.5774  -10.2594 N   0  0  0  0  0  0  0  0  0  0  0  0
   23.0903  -20.9499  -10.0344 C   0  0  0  0  0  0  0  0  0  0  0  0
   22.1545  -21.8315   -9.9769 N   0  0  0  0  0  0  0  0  0  0  0  0
   24.4432  -21.3908   -9.8669 N   0  0  0  0  0  0  0  0  0  0  0  0
   25.5607  -20.4730   -9.9823 C   0  0  0  0  0  0  0  0  0  0  0  0
   26.4223  -20.7581  -11.1642 C   0  0  0  0  0  0  0  0  0  0  0  0
   26.2575  -19.8532  -12.3316 C   0  0  0  0  0  0  0  0  0  0  0  0
   26.1881  -20.5087  -13.6701 C   0  0  2  0  0  0  0  0  0  0  0  0
   27.0341  -21.6582  -13.7204 N   0  0  0  0  0  0  0  0  0  0  0  0
   26.4036  -19.5474  -14.7843 C   0  0  0  0  0  0  0  0  0  0  0  0
   25.6188  -18.5627  -14.9207 O   0  0  0  0  0  0  0  0  0  0  0  0
   22.3948  -22.8195   -9.7688 C   0  0  0  0  0  0  0  0  0  0  0  0
   28.8871  -18.8126  -17.5411 C   0  0  1  0  0  0  0  0  0  0  0  0
   27.5449  -18.7223  -16.8460 N   0  0  0  0  0  0  0  0  0  0  0  0
   27.4464  -19.6414  -15.7379 C   0  0  0  0  0  0  0  0  0  0  0  0
   26.4452  -18.9685  -17.8099 O   0  0  0  0  0  0  0  0  0  0  0  0
   26.1150  -20.1409  -18.0816 N   0  0  0  0  0  0  0  0  0  0  0  0
   21.7093  -19.7207  -19.3332 C   0  0  0  0  0  0  0  0  0  0  0  0
   22.1823  -18.4113  -19.0400 O   0  0  0  0  0  0  0  0  0  0  0  0
   21.5858  -17.4105  -19.4982 C   0  0  0  0  0  0  0  0  0  0  0  0
   23.3857  -18.2648  -18.1873 C   0  0  1  0  0  0  0  0  0  0  0  0
   24.5671  -18.0192  -19.1062 N   0  0  0  0  0  0  0  0  0  0  0  0
   25.7958  -17.8439  -18.3997 C   0  0  0  0  0  0  0  0  0  0  0  0
   24.2678  -16.7899  -19.8740 O   0  0  0  0  0  0  0  0  0  0  0  0
   23.6862  -16.8110  -21.1388 O   0  0  0  0  0  0  0  0  0  0  0  0
  1  2  1  0
  2  3  2  0
  4  5  1  0
  4  2  1  0
  6  7  1  0
  6  5  1  0
  7  8  1  0
  8  9  1  1
 10  8  1  0
 10 11  2  0
 13 12  1  1
 13 14  1  0
 14 10  1  0
 15 13  1  0
 16 15  2  0
 18 17  1  0
 19 18  2  0
 20 18  1  0
 21 20  1  6
 21 22  1  0
 22 15  1  0
 23 24  1  0
 23 21  1  0
 25 23  2  0
M  END
$$$$
