RAN.pdb
     RDKit          3D

 25 24  0  0  1  0  0  0  0  0999 V2000
   28.0069  -21.7352  -11.7028 N   0  0  0  0  0  0  0  0  0  0  0  0
   26.9623  -20.8922  -11.2325 C   0  0  0  0  0  0  0  0  0  0  0  0
   26.4068  -21.0978  -10.0900 N   0  0  0  0  0  0  0  0  0  0  0  0
   26.4993  -19.7871  -12.0183 N   0  0  0  0  0  0  0  0  0  0  0  0
   27.0541  -19.5012  -13.3277 C   0  0  0  0  0  0  0  0  0  0  0  0
   26.3019  -20.1630  -14.4307 C   0  0  0  0  0  0  0  0  0  0  0  0
   24.9636  -19.5983  -14.7452 C   0  0  0  0  0  0  0  0  0  0  0  0
   23.8073  -20.1956  -14.0158 C   0  0  2  0  0  0  0  0  0  0  0  0
   24.2319  -21.2726  -13.1796 N   0  0  0  0  0  0  0  0  0  0  0  0
   22.6806  -20.5400  -14.9236 C   0  0  0  0  0  0  0  0  0  0  0  0
   22.2436  -19.6710  -15.7348 O   0  0  0  0  0  0  0  0  0  0  0  0
   25.6757  -20.4435   -9.7516 C   0  0  0  0  0  0  0  0  0  0  0  0
   20.5785  -23.5272  -15.9152 C   0  0  1  0  0  0  0  0  0  0  0  0
   20.9238  -22.0545  -15.8477 N   0  0  0  0  0  0  0  0  0  0  0  0
   22.0329  -21.7988  -14.9605 C   0  0  0  0  0  0  0  0  0  0  0  0
   19.7422  -21.2645  -15.4250 O   0  0  0  0  0  0  0  0  0  0  0  0
   19.6923  -20.8022  -14.2669 N   0  0  0  0  0  0  0  0  0  0  0  0
   16.5380  -16.7563  -15.8818 C   0  0  0  0  0  0  0  0  0  0  0  0
   16.6932  -18.0839  -15.3946 O   0  0  0  0  0  0  0  0  0  0  0  0
   15.7845  -18.6145  -14.7162 C   0  0  0  0  0  0  0  0  0  0  0  0
   17.9443  -18.8142  -15.7077 C   0  0  2  0  0  0  0  0  0  0  0  0
   17.5675  -20.2503  -16.0174 N   0  0  0  0  0  0  0  0  0  0  0  0
   18.6916  -21.0585  -16.3675 C   0  0  0  0  0  0  0  0  0  0  0  0
   16.6224  -20.2122  -17.1556 O   0  0  0  0  0  0  0  0  0  0  0  0
   15.2458  -20.0829  -16.9917 O   0  0  0  0  0  0  0  0  0  0  0  0
  1  2  1  0
  2  3  2  0
  4  5  1  0
  4  2  1  0
  6  7  1  0
  6  5  1  0
  7  8  1  0
  8  9  1  6
 10  8  1  0
 10 11  2  0
 13 12  1  6
 13 14  1  0
 14 10  1  0
 15 13  1  0
 16 15  2  0
 18 17  1  0
 19 18  2  0
 20 18  1  0
 21 20  1  1
 21 22  1  0
 22 15  1  0
 23 24  1  0
 23 21  1  0
 25 23  2  0
M  END
$$$$
