RAN.pdb
     RDKit          3D

 25 24  0  0  1  0  0  0  0  0999 V2000
   24.6926  -23.3655  -12.9187 N   0  0  0  0  0  0  0  0  0  0  0  0
   25.2145  -22.2658  -12.1829 C   0  0  0  0  0  0  0  0  0  0  0  0
   26.3849  -22.3187  -11.6507 N   0  0  0  0  0  0  0  0  0  0  0  0
   24.4509  -21.0651  -12.0146 N   0  0  0  0  0  0  0  0  0  0  0  0
   23.1254  -20.9218  -12.5863 C   0  0  0  0  0  0  0  0  0  0  0  0
   23.1282  -20.9878  -14.0749 C   0  0  0  0  0  0  0  0  0  0  0  0
   22.7118  -19.7525  -14.7886 C   0  0  0  0  0  0  0  0  0  0  0  0
   22.5962  -19.8548  -16.2725 C   0  0  2  0  0  0  0  0  0  0  0  0
   23.8762  -20.0607  -16.8717 N   0  0  0  0  0  0  0  0  0  0  0  0
   21.8254  -18.7269  -16.8606 C   0  0  0  0  0  0  0  0  0  0  0  0
   22.4153  -17.6379  -17.1256 O   0  0  0  0  0  0  0  0  0  0  0  0
   26.7536  -21.4922  -11.1426 C   0  0  0  0  0  0  0  0  0  0  0  0
   18.8907  -18.0159  -18.9046 C   0  0  2  0  0  0  0  0  0  0  0  0
   19.7548  -17.6298  -17.7227 N   0  0  0  0  0  0  0  0  0  0  0  0
   20.4419  -18.7673  -17.1601 C   0  0  0  0  0  0  0  0  0  0  0  0
   18.9379  -16.9629  -16.6801 O   0  0  0  0  0  0  0  0  0  0  0  0
   18.5425  -17.6182  -15.6943 N   0  0  0  0  0  0  0  0  0  0  0  0
   16.4517  -13.6947  -13.9881 C   0  0  0  0  0  0  0  0  0  0  0  0
   17.0986  -12.8117  -14.8969 O   0  0  0  0  0  0  0  0  0  0  0  0
   16.9615  -11.5732  -14.7748 C   0  0  0  0  0  0  0  0  0  0  0  0
   17.9298  -13.3897  -15.9793 C   0  0  1  0  0  0  0  0  0  0  0  0
   17.8616  -14.8991  -15.8486 N   0  0  0  0  0  0  0  0  0  0  0  0
   18.6290  -15.5799  -16.8422 C   0  0  0  0  0  0  0  0  0  0  0  0
   16.4383  -15.2801  -15.9875 O   0  0  0  0  0  0  0  0  0  0  0  0
   15.6505  -15.6688  -14.9073 O   0  0  0  0  0  0  0  0  0  0  0  0
  1  2  1  0
  2  3  2  0
  4  5  1  0
  4  2  1  0
  6  7  1  0
  6  5  1  0
  7  8  1  0
  8  9  1  6
 10  8  1  0
 10 11  2  0
 13 12  1  6
 13 14  1  0
 14 10  1  0
 15 13  1  0
 16 15  2  0
 18 17  1  0
 19 18  2  0
 20 18  1  0
 21 20  1  1
 21 22  1  0
 22 15  1  0
 23 24  1  0
 23 21  1  0
 25 23  2  0
M  END
$$$$
