RAN.pdb
     RDKit          3D

 25 24  0  0  1  0  0  0  0  0999 V2000
   29.8661  -23.2010  -16.7939 N   0  0  0  0  0  0  0  0  0  0  0  0
   29.3134  -24.5053  -16.6657 C   0  0  0  0  0  0  0  0  0  0  0  0
   30.0693  -25.5328  -16.4957 N   0  0  0  0  0  0  0  0  0  0  0  0
   27.8967  -24.7123  -16.7206 N   0  0  0  0  0  0  0  0  0  0  0  0
   26.9748  -23.6083  -16.9094 C   0  0  0  0  0  0  0  0  0  0  0  0
   26.5312  -23.0000  -15.6235 C   0  0  0  0  0  0  0  0  0  0  0  0
   25.0648  -22.8380  -15.4441 C   0  0  0  0  0  0  0  0  0  0  0  0
   24.2858  -22.4811  -16.6654 C   0  0  2  0  0  0  0  0  0  0  0  0
   24.8424  -21.3343  -17.3094 N   0  0  0  0  0  0  0  0  0  0  0  0
   22.8265  -22.3780  -16.3975 C   0  0  0  0  0  0  0  0  0  0  0  0
   22.3833  -21.4065  -15.7164 O   0  0  0  0  0  0  0  0  0  0  0  0
   29.6495  -26.4820  -16.4937 C   0  0  0  0  0  0  0  0  0  0  0  0
   19.5814  -24.0165  -17.4265 C   0  0  1  0  0  0  0  0  0  0  0  0
   20.4556  -23.1460  -16.5486 N   0  0  0  0  0  0  0  0  0  0  0  0
   21.8570  -23.3037  -16.8542 C   0  0  0  0  0  0  0  0  0  0  0  0
   20.2109  -23.4440  -15.1166 O   0  0  0  0  0  0  0  0  0  0  0  0
   20.9595  -22.9512  -14.2481 N   0  0  0  0  0  0  0  0  0  0  0  0
   18.3230  -23.5938  -10.9423 C   0  0  0  0  0  0  0  0  0  0  0  0
   17.8256  -22.5820  -11.8100 O   0  0  0  0  0  0  0  0  0  0  0  0
   17.3796  -21.5120  -11.3369 C   0  0  0  0  0  0  0  0  0  0  0  0
   17.8494  -22.8247  -13.2719 C   0  0  2  0  0  0  0  0  0  0  0  0
   18.4939  -24.1789  -13.4978 N   0  0  0  0  0  0  0  0  0  0  0  0
   19.1163  -24.2934  -14.7781 C   0  0  0  0  0  0  0  0  0  0  0  0
   17.4202  -25.1914  -13.3866 O   0  0  0  0  0  0  0  0  0  0  0  0
   17.3671  -26.1274  -12.3572 O   0  0  0  0  0  0  0  0  0  0  0  0
  1  2  1  0
  2  3  2  0
  4  5  1  0
  4  2  1  0
  6  7  1  0
  6  5  1  0
  7  8  1  0
  8  9  1  1
 10  8  1  0
 10 11  2  0
 13 12  1  6
 13 14  1  0
 14 10  1  0
 15 13  1  0
 16 15  2  0
 18 17  1  0
 19 18  2  0
 20 18  1  0
 21 20  1  1
 21 22  1  0
 22 15  1  0
 23 24  1  0
 23 21  1  0
 25 23  2  0
M  END
$$$$
