RAN.pdb
     RDKit          3D

 25 24  0  0  1  0  0  0  0  0999 V2000
   26.2287  -20.7104   -8.8940 N   0  0  0  0  0  0  0  0  0  0  0  0
   24.9146  -21.0189   -9.3425 C   0  0  0  0  0  0  0  0  0  0  0  0
   23.9113  -20.9759   -8.5377 N   0  0  0  0  0  0  0  0  0  0  0  0
   24.6701  -21.3853  -10.7059 N   0  0  0  0  0  0  0  0  0  0  0  0
   25.7252  -21.3561  -11.7010 C   0  0  0  0  0  0  0  0  0  0  0  0
   26.4407  -20.0497  -11.7459 C   0  0  0  0  0  0  0  0  0  0  0  0
   27.4630  -19.8963  -12.8136 C   0  0  0  0  0  0  0  0  0  0  0  0
   27.0486  -20.3039  -14.1877 C   0  0  2  0  0  0  0  0  0  0  0  0
   27.8030  -21.4309  -14.6355 N   0  0  0  0  0  0  0  0  0  0  0  0
   27.0409  -19.1616  -15.1401 C   0  0  0  0  0  0  0  0  0  0  0  0
   26.4459  -18.0889  -14.8246 O   0  0  0  0  0  0  0  0  0  0  0  0
   22.9620  -21.2015   -8.8912 C   0  0  0  0  0  0  0  0  0  0  0  0
   28.6970  -17.9580  -18.2763 C   0  0  2  0  0  0  0  0  0  0  0  0
   27.5165  -18.0704  -17.3349 N   0  0  0  0  0  0  0  0  0  0  0  0
   27.6629  -19.1703  -16.4123 C   0  0  0  0  0  0  0  0  0  0  0  0
   26.2551  -18.2142  -18.1012 O   0  0  0  0  0  0  0  0  0  0  0  0
   25.3898  -19.0271  -17.7166 N   0  0  0  0  0  0  0  0  0  0  0  0
   21.3286  -16.4166  -19.7374 C   0  0  0  0  0  0  0  0  0  0  0  0
   22.4214  -17.3081  -19.9242 O   0  0  0  0  0  0  0  0  0  0  0  0
   22.3445  -18.2278  -20.7702 C   0  0  0  0  0  0  0  0  0  0  0  0
   23.6395  -17.1216  -19.1007 C   0  0  2  0  0  0  0  0  0  0  0  0
   24.8344  -17.4518  -19.9745 N   0  0  0  0  0  0  0  0  0  0  0  0
   26.0728  -17.4095  -19.2646 C   0  0  0  0  0  0  0  0  0  0  0  0
   24.8629  -16.4493  -21.0627 O   0  0  0  0  0  0  0  0  0  0  0  0
   25.7795  -15.4020  -21.1025 O   0  0  0  0  0  0  0  0  0  0  0  0
  1  2  1  0
  2  3  2  0
  4  5  1  0
  4  2  1  0
  6  7  1  0
  6  5  1  0
  7  8  1  0
  8  9  1  6
 10  8  1  0
 10 11  2  0
 13 12  1  1
 13 14  1  0
 14 10  1  0
 15 13  1  0
 16 15  2  0
 18 17  1  0
 19 18  2  0
 20 18  1  0
 21 20  1  1
 21 22  1  0
 22 15  1  0
 23 24  1  0
 23 21  1  0
 25 23  2  0
M  END
$$$$
