RAN.pdb
     RDKit          3D

 25 24  0  0  1  0  0  0  0  0999 V2000
   26.8785  -21.6169  -11.0908 N   0  0  0  0  0  0  0  0  0  0  0  0
   25.9629  -21.1397  -10.1125 C   0  0  0  0  0  0  0  0  0  0  0  0
   26.3373  -20.9302   -8.8992 N   0  0  0  0  0  0  0  0  0  0  0  0
   24.5958  -20.8767  -10.4512 N   0  0  0  0  0  0  0  0  0  0  0  0
   24.0257  -21.3226  -11.7084 C   0  0  0  0  0  0  0  0  0  0  0  0
   24.2085  -20.3340  -12.8082 C   0  0  0  0  0  0  0  0  0  0  0  0
   23.3995  -20.5578  -14.0346 C   0  0  0  0  0  0  0  0  0  0  0  0
   22.7952  -21.9132  -14.1885 C   0  0  2  0  0  0  0  0  0  0  0  0
   23.6974  -22.8030  -14.8471 N   0  0  0  0  0  0  0  0  0  0  0  0
   21.4390  -21.8638  -14.7972 C   0  0  0  0  0  0  0  0  0  0  0  0
   21.3215  -21.7826  -16.0557 O   0  0  0  0  0  0  0  0  0  0  0  0
   25.6619  -20.5374   -8.2161 C   0  0  0  0  0  0  0  0  0  0  0  0
   17.8407  -22.4064  -13.8106 C   0  0  1  0  0  0  0  0  0  0  0  0
   18.9439  -21.9196  -14.7264 N   0  0  0  0  0  0  0  0  0  0  0  0
   20.2269  -21.9017  -14.0661 C   0  0  0  0  0  0  0  0  0  0  0  0
   18.6234  -20.5701  -15.2511 O   0  0  0  0  0  0  0  0  0  0  0  0
   19.0964  -19.5618  -14.6880 N   0  0  0  0  0  0  0  0  0  0  0  0
   19.5267  -19.3286  -18.5471 C   0  0  0  0  0  0  0  0  0  0  0  0
   18.2656  -19.3891  -19.2030 O   0  0  0  0  0  0  0  0  0  0  0  0
   18.2094  -19.5592  -20.4421 C   0  0  0  0  0  0  0  0  0  0  0  0
   17.0343  -19.2476  -18.3902 C   0  0  2  0  0  0  0  0  0  0  0  0
   17.4547  -19.1881  -16.9342 N   0  0  0  0  0  0  0  0  0  0  0  0
   17.7758  -20.4704  -16.3938 C   0  0  0  0  0  0  0  0  0  0  0  0
   16.3181  -18.6133  -16.1804 O   0  0  0  0  0  0  0  0  0  0  0  0
   16.2025  -17.2531  -15.9070 O   0  0  0  0  0  0  0  0  0  0  0  0
  1  2  1  0
  2  3  2  0
  4  5  1  0
  4  2  1  0
  6  7  1  0
  6  5  1  0
  7  8  1  0
  8  9  1  6
 10  8  1  0
 10 11  2  0
 13 12  1  6
 13 14  1  0
 14 10  1  0
 15 13  1  0
 16 15  2  0
 18 17  1  0
 19 18  2  0
 20 18  1  0
 21 20  1  6
 21 22  1  0
 22 15  1  0
 23 24  1  0
 23 21  1  0
 25 23  2  0
M  END
$$$$
