RAN.pdb
     RDKit          3D

 25 24  0  0  1  0  0  0  0  0999 V2000
   20.8668  -18.1370  -18.0963 N   0  0  0  0  0  0  0  0  0  0  0  0
   20.0263  -17.1977  -17.4371 C   0  0  0  0  0  0  0  0  0  0  0  0
   19.1426  -16.5262  -18.0884 N   0  0  0  0  0  0  0  0  0  0  0  0
   20.1390  -16.9734  -16.0265 N   0  0  0  0  0  0  0  0  0  0  0  0
   21.1061  -17.6917  -15.2183 C   0  0  0  0  0  0  0  0  0  0  0  0
   21.3091  -19.0961  -15.6728 C   0  0  0  0  0  0  0  0  0  0  0  0
   21.1777  -20.1494  -14.6325 C   0  0  0  0  0  0  0  0  0  0  0  0
   22.3487  -20.3314  -13.7261 C   0  0  2  0  0  0  0  0  0  0  0  0
   23.4502  -20.9127  -14.4249 N   0  0  0  0  0  0  0  0  0  0  0  0
   21.9877  -21.0376  -12.4678 C   0  0  0  0  0  0  0  0  0  0  0  0
   22.1655  -22.2885  -12.3802 O   0  0  0  0  0  0  0  0  0  0  0  0
   18.5179  -15.8731  -17.5780 C   0  0  0  0  0  0  0  0  0  0  0  0
   20.7643  -20.2617   -8.9689 C   0  0  1  0  0  0  0  0  0  0  0  0
   21.0909  -21.1630  -10.1410 N   0  0  0  0  0  0  0  0  0  0  0  0
   21.4442  -20.4102  -11.3204 C   0  0  0  0  0  0  0  0  0  0  0  0
   19.9500  -22.0633  -10.4355 O   0  0  0  0  0  0  0  0  0  0  0  0
   19.1930  -21.8054  -11.3936 N   0  0  0  0  0  0  0  0  0  0  0  0
   17.8659  -27.1822  -10.2936 C   0  0  0  0  0  0  0  0  0  0  0  0
   17.5424  -26.1725   -9.3451 O   0  0  0  0  0  0  0  0  0  0  0  0
   16.3718  -26.0674   -8.9136 C   0  0  0  0  0  0  0  0  0  0  0  0
   18.6153  -25.2588   -8.8859 C   0  0  1  0  0  0  0  0  0  0  0  0
   18.6617  -24.0901   -9.8514 N   0  0  0  0  0  0  0  0  0  0  0  0
   19.7551  -23.2054   -9.6038 C   0  0  0  0  0  0  0  0  0  0  0  0
   17.3906  -23.3488   -9.6925 O   0  0  0  0  0  0  0  0  0  0  0  0
   16.2943  -23.5394  -10.5293 O   0  0  0  0  0  0  0  0  0  0  0  0
  1  2  1  0
  2  3  2  0
  4  5  1  0
  4  2  1  0
  6  7  1  0
  6  5  1  0
  7  8  1  0
  8  9  1  6
 10  8  1  0
 10 11  2  0
 13 12  1  1
 13 14  1  0
 14 10  1  0
 15 13  1  0
 16 15  2  0
 18 17  1  0
 19 18  2  0
 20 18  1  0
 21 20  1  6
 21 22  1  0
 22 15  1  0
 23 24  1  0
 23 21  1  0
 25 23  2  0
M  END
$$$$
