RAN.pdb
     RDKit          3D

 25 24  0  0  1  0  0  0  0  0999 V2000
   26.1746  -20.9476   -9.2148 N   0  0  0  0  0  0  0  0  0  0  0  0
   25.0272  -20.7664  -10.0355 C   0  0  0  0  0  0  0  0  0  0  0  0
   23.8493  -20.6910   -9.5226 N   0  0  0  0  0  0  0  0  0  0  0  0
   25.1506  -20.6607  -11.4591 N   0  0  0  0  0  0  0  0  0  0  0  0
   26.3731  -21.0343  -12.1450 C   0  0  0  0  0  0  0  0  0  0  0  0
   27.3446  -19.9091  -12.2477 C   0  0  0  0  0  0  0  0  0  0  0  0
   27.3132  -19.1265  -13.5107 C   0  0  0  0  0  0  0  0  0  0  0  0
   26.9880  -19.8885  -14.7514 C   0  0  2  0  0  0  0  0  0  0  0  0
   27.7982  -21.0597  -14.8587 N   0  0  0  0  0  0  0  0  0  0  0  0
   27.0006  -19.0287  -15.9650 C   0  0  0  0  0  0  0  0  0  0  0  0
   26.3966  -17.9156  -15.9485 O   0  0  0  0  0  0  0  0  0  0  0  0
   23.0264  -20.5801  -10.1453 C   0  0  0  0  0  0  0  0  0  0  0  0
   28.7949  -18.7258  -19.2538 C   0  0  2  0  0  0  0  0  0  0  0  0
   27.6367  -18.4676  -18.3133 N   0  0  0  0  0  0  0  0  0  0  0  0
   27.6522  -19.3586  -17.1782 C   0  0  0  0  0  0  0  0  0  0  0  0
   26.3470  -18.5869  -19.0354 O   0  0  0  0  0  0  0  0  0  0  0  0
   25.9389  -19.7131  -19.3859 N   0  0  0  0  0  0  0  0  0  0  0  0
   21.5570  -17.5504  -19.2675 C   0  0  0  0  0  0  0  0  0  0  0  0
   22.1593  -17.8334  -18.0100 O   0  0  0  0  0  0  0  0  0  0  0  0
   21.4488  -18.1607  -17.0325 C   0  0  0  0  0  0  0  0  0  0  0  0
   23.6330  -17.7321  -17.8891 C   0  0  2  0  0  0  0  0  0  0  0  0
   24.1820  -17.4173  -19.2674 N   0  0  0  0  0  0  0  0  0  0  0  0
   25.6094  -17.3969  -19.3075 C   0  0  0  0  0  0  0  0  0  0  0  0
   23.6656  -16.0821  -19.6426 O   0  0  0  0  0  0  0  0  0  0  0  0
   22.5186  -15.9034  -20.4113 O   0  0  0  0  0  0  0  0  0  0  0  0
  1  2  1  0
  2  3  2  0
  4  5  1  0
  4  2  1  0
  6  7  1  0
  6  5  1  0
  7  8  1  0
  8  9  1  6
 10  8  1  0
 10 11  2  0
 13 12  1  1
 13 14  1  0
 14 10  1  0
 15 13  1  0
 16 15  2  0
 18 17  1  0
 19 18  2  0
 20 18  1  0
 21 20  1  6
 21 22  1  0
 22 15  1  0
 23 24  1  0
 23 21  1  0
 25 23  2  0
M  END
$$$$
