RAN.pdb
     RDKit          3D

 25 24  0  0  1  0  0  0  0  0999 V2000
   17.4407  -22.4601  -14.5512 N   0  0  0  0  0  0  0  0  0  0  0  0
   17.9454  -23.5391  -15.3283 C   0  0  0  0  0  0  0  0  0  0  0  0
   17.2524  -24.0491  -16.2853 N   0  0  0  0  0  0  0  0  0  0  0  0
   19.2428  -24.0887  -15.0683 N   0  0  0  0  0  0  0  0  0  0  0  0
   20.0822  -23.5813  -13.9995 C   0  0  0  0  0  0  0  0  0  0  0  0
   21.5132  -23.9656  -14.1571 C   0  0  0  0  0  0  0  0  0  0  0  0
   22.4468  -22.8777  -14.5490 C   0  0  0  0  0  0  0  0  0  0  0  0
   22.4866  -21.6868  -13.6512 C   0  0  2  0  0  0  0  0  0  0  0  0
   21.3233  -20.8768  -13.8251 N   0  0  0  0  0  0  0  0  0  0  0  0
   23.7679  -20.9390  -13.7571 C   0  0  0  0  0  0  0  0  0  0  0  0
   23.7637  -19.7509  -14.1960 O   0  0  0  0  0  0  0  0  0  0  0  0
   17.6153  -24.8773  -16.7946 C   0  0  0  0  0  0  0  0  0  0  0  0
   27.4195  -21.2546  -12.8612 C   0  0  1  0  0  0  0  0  0  0  0  0
   26.2563  -20.7467  -13.6869 N   0  0  0  0  0  0  0  0  0  0  0  0
   25.0351  -21.4586  -13.3968 C   0  0  0  0  0  0  0  0  0  0  0  0
   26.5682  -20.8409  -15.1335 O   0  0  0  0  0  0  0  0  0  0  0  0
   26.1428  -21.8108  -15.7936 N   0  0  0  0  0  0  0  0  0  0  0  0
   27.7011  -16.2439  -17.0879 C   0  0  0  0  0  0  0  0  0  0  0  0
   27.3179  -17.5233  -17.5782 O   0  0  0  0  0  0  0  0  0  0  0  0
   26.1423  -17.7239  -17.9592 C   0  0  0  0  0  0  0  0  0  0  0  0
   28.3353  -18.6001  -17.6258 C   0  0  2  0  0  0  0  0  0  0  0  0
   27.6791  -19.8688  -17.1158 N   0  0  0  0  0  0  0  0  0  0  0  0
   27.3527  -19.8081  -15.7269 C   0  0  0  0  0  0  0  0  0  0  0  0
   28.6395  -20.9719  -17.3421 O   0  0  0  0  0  0  0  0  0  0  0  0
   28.5505  -21.8420  -18.4253 O   0  0  0  0  0  0  0  0  0  0  0  0
  1  2  1  0
  2  3  2  0
  4  5  1  0
  4  2  1  0
  6  7  1  0
  6  5  1  0
  7  8  1  0
  8  9  1  6
 10  8  1  0
 10 11  2  0
 13 12  1  1
 13 14  1  0
 14 10  1  0
 15 13  1  0
 16 15  2  0
 18 17  1  0
 19 18  2  0
 20 18  1  0
 21 20  1  6
 21 22  1  0
 22 15  1  0
 23 24  1  0
 23 21  1  0
 25 23  2  0
M  END
$$$$
