RAN.pdb
     RDKit          3D

 25 24  0  0  1  0  0  0  0  0999 V2000
   26.6715  -23.0650  -10.8081 N   0  0  0  0  0  0  0  0  0  0  0  0
   26.4435  -21.6637  -10.7221 C   0  0  0  0  0  0  0  0  0  0  0  0
   27.1113  -20.9317   -9.9010 N   0  0  0  0  0  0  0  0  0  0  0  0
   25.4632  -21.0260  -11.5500 N   0  0  0  0  0  0  0  0  0  0  0  0
   24.4562  -21.7908  -12.2608 C   0  0  0  0  0  0  0  0  0  0  0  0
   24.7817  -21.9742  -13.7033 C   0  0  0  0  0  0  0  0  0  0  0  0
   24.1892  -20.9859  -14.6419 C   0  0  0  0  0  0  0  0  0  0  0  0
   25.1308  -19.9924  -15.2353 C   0  0  2  0  0  0  0  0  0  0  0  0
   26.3355  -19.9114  -14.4725 N   0  0  0  0  0  0  0  0  0  0  0  0
   24.4831  -18.6776  -15.4880 C   0  0  0  0  0  0  0  0  0  0  0  0
   24.0332  -18.0050  -14.5136 O   0  0  0  0  0  0  0  0  0  0  0  0
   26.8904  -19.9208   -9.8208 C   0  0  0  0  0  0  0  0  0  0  0  0
   23.7758  -16.2687  -18.3132 C   0  0  2  0  0  0  0  0  0  0  0  0
   23.5237  -16.9063  -16.9631 N   0  0  0  0  0  0  0  0  0  0  0  0
   24.3211  -18.0930  -16.7676 C   0  0  0  0  0  0  0  0  0  0  0  0
   22.0851  -17.2285  -16.8034 O   0  0  0  0  0  0  0  0  0  0  0  0
   21.7474  -18.3690  -16.4254 N   0  0  0  0  0  0  0  0  0  0  0  0
   18.0173  -19.2132  -14.9596 C   0  0  0  0  0  0  0  0  0  0  0  0
   18.4139  -18.2541  -15.9327 O   0  0  0  0  0  0  0  0  0  0  0  0
   17.8343  -18.2073  -17.0415 C   0  0  0  0  0  0  0  0  0  0  0  0
   19.5183  -17.3223  -15.6032 C   0  0  2  0  0  0  0  0  0  0  0  0
   19.7436  -16.4374  -16.8142 N   0  0  0  0  0  0  0  0  0  0  0  0
   21.1264  -16.2123  -17.0907 C   0  0  0  0  0  0  0  0  0  0  0  0
   19.0872  -15.1418  -16.5296 O   0  0  0  0  0  0  0  0  0  0  0  0
   17.7126  -14.9501  -16.6395 O   0  0  0  0  0  0  0  0  0  0  0  0
  1  2  1  0
  2  3  2  0
  4  5  1  0
  4  2  1  0
  6  7  1  0
  6  5  1  0
  7  8  1  0
  8  9  1  1
 10  8  1  0
 10 11  2  0
 13 12  1  1
 13 14  1  0
 14 10  1  0
 15 13  1  0
 16 15  2  0
 18 17  1  0
 19 18  2  0
 20 18  1  0
 21 20  1  6
 21 22  1  0
 22 15  1  0
 23 24  1  0
 23 21  1  0
 25 23  2  0
M  END
$$$$
