RAN.pdb
     RDKit          3D

 25 24  0  0  1  0  0  0  0  0999 V2000
   21.8807  -21.5321  -13.3455 N   0  0  0  0  0  0  0  0  0  0  0  0
   22.5460  -21.0666  -12.1777 C   0  0  0  0  0  0  0  0  0  0  0  0
   22.0953  -20.0609  -11.5132 N   0  0  0  0  0  0  0  0  0  0  0  0
   23.7382  -21.7065  -11.7063 N   0  0  0  0  0  0  0  0  0  0  0  0
   24.7479  -20.9776  -10.9622 C   0  0  0  0  0  0  0  0  0  0  0  0
   25.8621  -20.4919  -11.8242 C   0  0  0  0  0  0  0  0  0  0  0  0
   26.2856  -21.3975  -12.9238 C   0  0  0  0  0  0  0  0  0  0  0  0
   27.7265  -21.3418  -13.3067 C   0  0  2  0  0  0  0  0  0  0  0  0
   28.5521  -21.1338  -12.1600 N   0  0  0  0  0  0  0  0  0  0  0  0
   27.9815  -20.3880  -14.4190 C   0  0  0  0  0  0  0  0  0  0  0  0
   28.1995  -19.1678  -14.1584 O   0  0  0  0  0  0  0  0  0  0  0  0
   22.6335  -19.7013  -10.7019 C   0  0  0  0  0  0  0  0  0  0  0  0
   28.7381  -20.3905  -18.1043 C   0  0  1  0  0  0  0  0  0  0  0  0
   28.2455  -19.7569  -16.8203 N   0  0  0  0  0  0  0  0  0  0  0  0
   28.0025  -20.7386  -15.7909 C   0  0  0  0  0  0  0  0  0  0  0  0
   27.0151  -18.9681  -17.0711 O   0  0  0  0  0  0  0  0  0  0  0  0
   25.9012  -19.5271  -17.0075 N   0  0  0  0  0  0  0  0  0  0  0  0
   26.7404  -14.1318  -15.3649 C   0  0  0  0  0  0  0  0  0  0  0  0
   25.9960  -15.1607  -16.0063 O   0  0  0  0  0  0  0  0  0  0  0  0
   25.2307  -15.8924  -15.3381 C   0  0  0  0  0  0  0  0  0  0  0  0
   26.1483  -15.3414  -17.4695 C   0  0  2  0  0  0  0  0  0  0  0  0
   26.0021  -16.8223  -17.7626 N   0  0  0  0  0  0  0  0  0  0  0  0
   27.1492  -17.5821  -17.3799 C   0  0  0  0  0  0  0  0  0  0  0  0
   25.7957  -16.9546  -19.2221 O   0  0  0  0  0  0  0  0  0  0  0  0
   24.5434  -17.1658  -19.7927 O   0  0  0  0  0  0  0  0  0  0  0  0
  1  2  1  0
  2  3  2  0
  4  5  1  0
  4  2  1  0
  6  7  1  0
  6  5  1  0
  7  8  1  0
  8  9  1  1
 10  8  1  0
 10 11  2  0
 13 12  1  1
 13 14  1  0
 14 10  1  0
 15 13  1  0
 16 15  2  0
 18 17  1  0
 19 18  2  0
 20 18  1  0
 21 20  1  1
 21 22  1  0
 22 15  1  0
 23 24  1  0
 23 21  1  0
 25 23  2  0
M  END
$$$$
