RAN.pdb
     RDKit          3D

 25 24  0  0  1  0  0  0  0  0999 V2000
   20.4023  -23.1948   -9.1059 N   0  0  0  0  0  0  0  0  0  0  0  0
   20.7418  -22.5443   -7.8875 C   0  0  0  0  0  0  0  0  0  0  0  0
   20.1679  -22.8652   -6.7813 N   0  0  0  0  0  0  0  0  0  0  0  0
   21.7354  -21.5124   -7.8569 N   0  0  0  0  0  0  0  0  0  0  0  0
   22.3350  -20.9994   -9.0741 C   0  0  0  0  0  0  0  0  0  0  0  0
   23.7524  -21.4268   -9.2443 C   0  0  0  0  0  0  0  0  0  0  0  0
   24.4692  -20.8729  -10.4225 C   0  0  0  0  0  0  0  0  0  0  0  0
   23.8264  -21.0948  -11.7504 C   0  0  2  0  0  0  0  0  0  0  0  0
   23.4051  -22.4519  -11.8937 N   0  0  0  0  0  0  0  0  0  0  0  0
   24.6621  -20.5969  -12.8755 C   0  0  0  0  0  0  0  0  0  0  0  0
   24.9012  -19.3571  -12.9753 O   0  0  0  0  0  0  0  0  0  0  0  0
   20.3956  -22.3399   -5.9157 C   0  0  0  0  0  0  0  0  0  0  0  0
   26.8534  -21.9017  -15.6544 C   0  0  2  0  0  0  0  0  0  0  0  0
   25.9911  -20.8603  -14.9727 N   0  0  0  0  0  0  0  0  0  0  0  0
   25.2331  -21.4175  -13.8784 C   0  0  0  0  0  0  0  0  0  0  0  0
   25.0773  -20.2234  -15.9517 O   0  0  0  0  0  0  0  0  0  0  0  0
   23.8923  -20.6071  -16.0285 N   0  0  0  0  0  0  0  0  0  0  0  0
   23.2341  -17.3343  -19.5162 C   0  0  0  0  0  0  0  0  0  0  0  0
   23.2173  -16.7227  -18.2318 O   0  0  0  0  0  0  0  0  0  0  0  0
   22.4897  -15.7260  -18.0200 C   0  0  0  0  0  0  0  0  0  0  0  0
   24.0735  -17.2898  -17.1633 C   0  0  2  0  0  0  0  0  0  0  0  0
   24.7356  -18.5342  -17.7232 N   0  0  0  0  0  0  0  0  0  0  0  0
   25.5906  -19.1827  -16.7810 C   0  0  0  0  0  0  0  0  0  0  0  0
   25.5356  -18.1077  -18.8930 O   0  0  0  0  0  0  0  0  0  0  0  0
   26.8616  -17.6953  -18.7926 O   0  0  0  0  0  0  0  0  0  0  0  0
  1  2  1  0
  2  3  2  0
  4  5  1  0
  4  2  1  0
  6  7  1  0
  6  5  1  0
  7  8  1  0
  8  9  1  6
 10  8  1  0
 10 11  2  0
 13 12  1  1
 13 14  1  0
 14 10  1  0
 15 13  1  0
 16 15  2  0
 18 17  1  0
 19 18  2  0
 20 18  1  0
 21 20  1  1
 21 22  1  0
 22 15  1  0
 23 24  1  0
 23 21  1  0
 25 23  2  0
M  END
$$$$
