RAN.pdb
     RDKit          3D

 25 24  0  0  1  0  0  0  0  0999 V2000
   31.6681  -23.4161  -11.1110 N   0  0  0  0  0  0  0  0  0  0  0  0
   31.5424  -22.1073  -10.5684 C   0  0  0  0  0  0  0  0  0  0  0  0
   32.3878  -21.6621   -9.7064 N   0  0  0  0  0  0  0  0  0  0  0  0
   30.4699  -21.2455  -10.9683 N   0  0  0  0  0  0  0  0  0  0  0  0
   29.5271  -21.6349  -11.9997 C   0  0  0  0  0  0  0  0  0  0  0  0
   29.7547  -20.9228  -13.2888 C   0  0  0  0  0  0  0  0  0  0  0  0
   28.6830  -19.9888  -13.7221 C   0  0  0  0  0  0  0  0  0  0  0  0
   27.4907  -20.6077  -14.3710 C   0  0  2  0  0  0  0  0  0  0  0  0
   27.8759  -21.6854  -15.2253 N   0  0  0  0  0  0  0  0  0  0  0  0
   26.6130  -19.5999  -15.0239 C   0  0  0  0  0  0  0  0  0  0  0  0
   27.1061  -18.7957  -15.8691 O   0  0  0  0  0  0  0  0  0  0  0  0
   32.2802  -20.6991   -9.3347 C   0  0  0  0  0  0  0  0  0  0  0  0
   24.3927  -21.2058  -16.2776 C   0  0  2  0  0  0  0  0  0  0  0  0
   24.2385  -19.7868  -15.7725 N   0  0  0  0  0  0  0  0  0  0  0  0
   25.2265  -19.4576  -14.7735 C   0  0  0  0  0  0  0  0  0  0  0  0
   22.8753  -19.5764  -15.2278 O   0  0  0  0  0  0  0  0  0  0  0  0
   21.8875  -19.6773  -15.9837 N   0  0  0  0  0  0  0  0  0  0  0  0
   24.8299  -21.6971  -10.4502 C   0  0  0  0  0  0  0  0  0  0  0  0
   23.6975  -20.8563  -10.6371 O   0  0  0  0  0  0  0  0  0  0  0  0
   22.6747  -21.0141   -9.9325 C   0  0  0  0  0  0  0  0  0  0  0  0
   23.7598  -19.8006  -11.6755 C   0  0  1  0  0  0  0  0  0  0  0  0
   22.9391  -20.2771  -12.8585 N   0  0  0  0  0  0  0  0  0  0  0  0
   22.7392  -19.2623  -13.8432 C   0  0  0  0  0  0  0  0  0  0  0  0
   21.6257  -20.7053  -12.3276 O   0  0  0  0  0  0  0  0  0  0  0  0
   21.4617  -21.8441  -11.5436 O   0  0  0  0  0  0  0  0  0  0  0  0
  1  2  1  0
  2  3  2  0
  4  5  1  0
  4  2  1  0
  6  7  1  0
  6  5  1  0
  7  8  1  0
  8  9  1  6
 10  8  1  0
 10 11  2  0
 13 12  1  6
 13 14  1  0
 14 10  1  0
 15 13  1  0
 16 15  2  0
 18 17  1  0
 19 18  2  0
 20 18  1  0
 21 20  1  6
 21 22  1  0
 22 15  1  0
 23 24  1  0
 23 21  1  0
 25 23  2  0
M  END
$$$$
