EHC.pdb
     RDKit          3D

 26 26  0  0  1  0  0  0  0  0999 V2000
   13.2944  -16.1949   12.9933 N   0  0  0  0  0  0  0  0  0  0  0  0
   12.2730  -16.9570   13.7218 C   0  0  1  0  0  0  0  0  0  0  0  0
   12.7675  -18.3353   14.0416 C   0  0  0  0  0  0  0  0  0  0  0  0
   14.0405  -18.3895   14.8068 C   0  0  0  0  0  0  0  0  0  0  0  0
   14.5632  -19.7145   15.1093 C   0  0  0  0  0  0  0  0  0  0  0  0
   14.9941  -20.4755   14.2161 O   0  0  0  0  0  0  0  0  0  0  0  0
   11.9534  -16.1824   14.9523 C   0  0  0  0  0  0  0  0  0  0  0  0
   12.8974  -15.5990   15.5594 O   0  0  0  0  0  0  0  0  0  0  0  0
   14.5905  -20.1590   16.4194 O   0  0  0  0  0  0  0  0  0  0  0  0
   10.6518  -16.0500   15.4994 N   0  0  0  0  0  0  0  0  0  0  0  0
   10.3759  -15.2408   16.6796 C   0  0  1  0  0  0  0  0  0  0  0  0
    8.9396  -15.2018   17.0686 C   0  0  0  0  0  0  0  0  0  0  0  0
    8.5842  -14.3007   18.1560 C   0  0  0  0  0  0  0  0  0  0  0  0
    9.3369  -13.5221   19.0009 C   0  0  0  0  0  0  0  0  0  0  0  0
    8.5405  -12.8510   19.8710 N   0  0  0  0  0  0  0  0  0  0  0  0
    7.2999  -13.2213   19.5559 C   0  0  0  0  0  0  0  0  0  0  0  0
    7.2958  -14.0773   18.5462 N   0  0  0  0  0  0  0  0  0  0  0  0
   11.1058  -15.8562   17.8214 C   0  0  0  0  0  0  0  0  0  0  0  0
   11.1430  -17.0963   17.9196 O   0  0  0  0  0  0  0  0  0  0  0  0
   11.7613  -15.0725   18.8027 N   0  0  0  0  0  0  0  0  0  0  0  0
   12.4997  -15.7342   19.8476 C   0  0  1  0  0  0  0  0  0  0  0  0
   13.9586  -15.3452   19.7014 C   0  0  0  0  0  0  0  0  0  0  0  0
   14.0773  -13.5452   19.6688 S   0  0  0  0  0  0  0  0  0  0  0  0
   12.0098  -15.3277   21.2027 C   0  0  0  0  0  0  0  0  0  0  0  0
   12.5055  -15.9241   22.3509 O   0  0  0  0  0  0  0  0  0  0  0  0
   11.1373  -14.4337   21.3018 O   0  0  0  0  0  0  0  0  0  0  0  0
  2  1  1  1
  2  7  1  0
  3  2  1  0
  4  3  1  0
  5  4  1  0
  6  5  2  0
  7 10  1  0
  7  8  2  0
  9  5  1  0
 10 11  1  0
 11 12  1  1
 12 13  1  0
 13 17  1  0
 14 13  2  0
 14 15  1  0
 15 16  1  0
 17 16  2  0
 18 11  1  0
 18 19  2  0
 20 18  1  0
 21 20  1  0
 21 22  1  1
 23 22  1  0
 24 21  1  0
 25 24  1  0
 26 24  2  0
M  END
$$$$
