EHC.pdb
     RDKit          3D

 26 26  0  0  1  0  0  0  0  0999 V2000
   10.1729  -18.6723   19.4070 N   0  0  0  0  0  0  0  0  0  0  0  0
   11.3091  -17.7617   19.2212 C   0  0  1  0  0  0  0  0  0  0  0  0
   11.6381  -17.6144   17.7664 C   0  0  0  0  0  0  0  0  0  0  0  0
   10.4708  -17.6459   16.8469 C   0  0  0  0  0  0  0  0  0  0  0  0
   10.7493  -17.4397   15.4326 C   0  0  0  0  0  0  0  0  0  0  0  0
   11.9034  -17.5436   14.9636 O   0  0  0  0  0  0  0  0  0  0  0  0
   10.9254  -16.4622   19.8380 C   0  0  0  0  0  0  0  0  0  0  0  0
   11.7539  -15.5074   19.7964 O   0  0  0  0  0  0  0  0  0  0  0  0
    9.7167  -17.1186   14.5694 O   0  0  0  0  0  0  0  0  0  0  0  0
    9.6834  -16.2148   20.4762 N   0  0  0  0  0  0  0  0  0  0  0  0
    9.3513  -14.9275   21.0730 C   0  0  1  0  0  0  0  0  0  0  0  0
    8.0172  -14.3991   20.6771 C   0  0  0  0  0  0  0  0  0  0  0  0
    7.8364  -14.0781   19.2682 C   0  0  0  0  0  0  0  0  0  0  0  0
    7.9811  -12.9133   18.5548 C   0  0  0  0  0  0  0  0  0  0  0  0
    7.6869  -13.1137   17.2452 N   0  0  0  0  0  0  0  0  0  0  0  0
    7.3619  -14.4032   17.1602 C   0  0  0  0  0  0  0  0  0  0  0  0
    7.4415  -14.9975   18.3404 N   0  0  0  0  0  0  0  0  0  0  0  0
    9.3083  -15.1191   22.5484 C   0  0  0  0  0  0  0  0  0  0  0  0
    8.3167  -14.7163   23.1835 O   0  0  0  0  0  0  0  0  0  0  0  0
   10.3636  -15.7475   23.2544 N   0  0  0  0  0  0  0  0  0  0  0  0
   10.1828  -16.0618   24.6484 C   0  0  1  0  0  0  0  0  0  0  0  0
    9.0199  -17.0298   24.7578 C   0  0  0  0  0  0  0  0  0  0  0  0
    8.8174  -17.4982   26.4883 S   0  0  0  0  0  0  0  0  0  0  0  0
   11.4106  -16.6917   25.2290 C   0  0  0  0  0  0  0  0  0  0  0  0
   11.5700  -16.8175   26.5996 O   0  0  0  0  0  0  0  0  0  0  0  0
   12.3097  -17.1125   24.4642 O   0  0  0  0  0  0  0  0  0  0  0  0
  2  1  1  6
  2  7  1  0
  3  2  1  0
  4  3  1  0
  5  4  1  0
  6  5  2  0
  7 10  1  0
  7  8  2  0
  9  5  1  0
 10 11  1  0
 11 12  1  6
 12 13  1  0
 13 17  1  0
 14 13  2  0
 14 15  1  0
 15 16  1  0
 17 16  2  0
 18 11  1  0
 18 19  2  0
 20 18  1  0
 21 20  1  0
 21 22  1  6
 23 22  1  0
 24 21  1  0
 25 24  1  0
 26 24  2  0
M  END
$$$$
