EHC.pdb
     RDKit          3D

 26 26  0  0  1  0  0  0  0  0999 V2000
    9.6870  -15.4572   19.2288 N   0  0  0  0  0  0  0  0  0  0  0  0
    8.2391  -15.2266   19.3001 C   0  0  1  0  0  0  0  0  0  0  0  0
    7.5198  -16.0514   18.2760 C   0  0  0  0  0  0  0  0  0  0  0  0
    8.0185  -17.4427   18.1197 C   0  0  0  0  0  0  0  0  0  0  0  0
    8.1363  -17.9437   16.7575 C   0  0  0  0  0  0  0  0  0  0  0  0
    9.0460  -17.5634   15.9891 O   0  0  0  0  0  0  0  0  0  0  0  0
    7.8158  -15.5690   20.6857 C   0  0  0  0  0  0  0  0  0  0  0  0
    6.5784  -15.6183   20.9430 O   0  0  0  0  0  0  0  0  0  0  0  0
    7.2221  -18.8686   16.2848 O   0  0  0  0  0  0  0  0  0  0  0  0
    8.7103  -15.8470   21.7503 N   0  0  0  0  0  0  0  0  0  0  0  0
    8.2521  -16.2250   23.0811 C   0  0  1  0  0  0  0  0  0  0  0  0
    9.0583  -17.3011   23.7196 C   0  0  0  0  0  0  0  0  0  0  0  0
    8.8122  -18.6600   23.2574 C   0  0  0  0  0  0  0  0  0  0  0  0
    7.9046  -19.1904   22.3733 C   0  0  0  0  0  0  0  0  0  0  0  0
    8.0616  -20.5347   22.2742 N   0  0  0  0  0  0  0  0  0  0  0  0
    9.0668  -20.8244   23.0997 C   0  0  0  0  0  0  0  0  0  0  0  0
    9.5294  -19.7357   23.6939 N   0  0  0  0  0  0  0  0  0  0  0  0
    8.3823  -15.0261   23.9534 C   0  0  0  0  0  0  0  0  0  0  0  0
    9.4006  -14.3167   23.8610 O   0  0  0  0  0  0  0  0  0  0  0  0
    7.3806  -14.6662   24.8884 N   0  0  0  0  0  0  0  0  0  0  0  0
    7.5862  -13.5109   25.7237 C   0  0  1  0  0  0  0  0  0  0  0  0
    6.2508  -12.8084   25.8793 C   0  0  0  0  0  0  0  0  0  0  0  0
    6.4474  -11.4419   27.0408 S   0  0  0  0  0  0  0  0  0  0  0  0
    8.1043  -13.8994   27.0735 C   0  0  0  0  0  0  0  0  0  0  0  0
    8.7800  -12.9885   27.8696 O   0  0  0  0  0  0  0  0  0  0  0  0
    7.9247  -15.0669   27.4917 O   0  0  0  0  0  0  0  0  0  0  0  0
  2  1  1  1
  2  7  1  0
  3  2  1  0
  4  3  1  0
  5  4  1  0
  6  5  2  0
  7 10  1  0
  7  8  2  0
  9  5  1  0
 10 11  1  0
 11 12  1  1
 12 13  1  0
 13 17  1  0
 14 13  2  0
 14 15  1  0
 15 16  1  0
 17 16  2  0
 18 11  1  0
 18 19  2  0
 20 18  1  0
 21 20  1  0
 21 22  1  1
 23 22  1  0
 24 21  1  0
 25 24  1  0
 26 24  2  0
M  END
$$$$
