EHC.pdb
     RDKit          3D

 26 26  0  0  1  0  0  0  0  0999 V2000
   10.9159  -18.6869   14.1203 N   0  0  0  0  0  0  0  0  0  0  0  0
   12.0392  -17.7427   14.1580 C   0  0  1  0  0  0  0  0  0  0  0  0
   12.3305  -17.2103   12.7876 C   0  0  0  0  0  0  0  0  0  0  0  0
   11.1444  -16.7381   12.0264 C   0  0  0  0  0  0  0  0  0  0  0  0
   11.4031  -16.1224   10.7325 C   0  0  0  0  0  0  0  0  0  0  0  0
   11.7770  -14.9341   10.6282 O   0  0  0  0  0  0  0  0  0  0  0  0
   11.6597  -16.6590   15.1055 C   0  0  0  0  0  0  0  0  0  0  0  0
   12.4899  -15.7296   15.3221 O   0  0  0  0  0  0  0  0  0  0  0  0
   11.2346  -16.8613    9.5747 O   0  0  0  0  0  0  0  0  0  0  0  0
   10.4199  -16.5926   15.7908 N   0  0  0  0  0  0  0  0  0  0  0  0
   10.1309  -15.5739   16.7920 C   0  0  1  0  0  0  0  0  0  0  0  0
    8.7049  -15.5246   17.2162 C   0  0  0  0  0  0  0  0  0  0  0  0
    8.3325  -14.4475   18.1228 C   0  0  0  0  0  0  0  0  0  0  0  0
    8.6873  -13.1221   18.1860 C   0  0  0  0  0  0  0  0  0  0  0  0
    8.0756  -12.5117   19.2323 N   0  0  0  0  0  0  0  0  0  0  0  0
    7.3466  -13.4669   19.8082 C   0  0  0  0  0  0  0  0  0  0  0  0
    7.4794  -14.6210   19.1736 N   0  0  0  0  0  0  0  0  0  0  0  0
   10.9216  -15.9082   18.0078 C   0  0  0  0  0  0  0  0  0  0  0  0
   11.1386  -17.1030   18.2803 O   0  0  0  0  0  0  0  0  0  0  0  0
   11.4363  -14.9063   18.8670 N   0  0  0  0  0  0  0  0  0  0  0  0
   12.2879  -15.2941   19.9621 C   0  0  1  0  0  0  0  0  0  0  0  0
   13.3137  -14.1946   20.1629 C   0  0  0  0  0  0  0  0  0  0  0  0
   14.4486  -14.1987   18.7604 S   0  0  0  0  0  0  0  0  0  0  0  0
   11.5034  -15.4789   21.2238 C   0  0  0  0  0  0  0  0  0  0  0  0
   12.1043  -15.9611   22.3754 O   0  0  0  0  0  0  0  0  0  0  0  0
   10.2833  -15.1934   21.2401 O   0  0  0  0  0  0  0  0  0  0  0  0
  2  1  1  6
  2  7  1  0
  3  2  1  0
  4  3  1  0
  5  4  1  0
  6  5  2  0
  7 10  1  0
  7  8  2  0
  9  5  1  0
 10 11  1  0
 11 12  1  1
 12 13  1  0
 13 17  1  0
 14 13  2  0
 14 15  1  0
 15 16  1  0
 17 16  2  0
 18 11  1  0
 18 19  2  0
 20 18  1  0
 21 20  1  0
 21 22  1  1
 23 22  1  0
 24 21  1  0
 25 24  1  0
 26 24  2  0
M  END
$$$$
