EHC.pdb
     RDKit          3D

 26 26  0  0  1  0  0  0  0  0999 V2000
   14.9667  -14.0969   17.2040 N   0  0  0  0  0  0  0  0  0  0  0  0
   14.2979  -15.2441   17.8295 C   0  0  1  0  0  0  0  0  0  0  0  0
   15.1879  -15.8841   18.8516 C   0  0  0  0  0  0  0  0  0  0  0  0
   15.9599  -14.9387   19.6998 C   0  0  0  0  0  0  0  0  0  0  0  0
   16.7704  -15.5250   20.7578 C   0  0  0  0  0  0  0  0  0  0  0  0
   16.3529  -15.6271   21.9317 O   0  0  0  0  0  0  0  0  0  0  0  0
   13.0377  -14.7314   18.4338 C   0  0  0  0  0  0  0  0  0  0  0  0
   12.9949  -13.5225   18.8037 O   0  0  0  0  0  0  0  0  0  0  0  0
   18.0427  -15.9876   20.4715 O   0  0  0  0  0  0  0  0  0  0  0  0
   11.8680  -15.5096   18.6270 N   0  0  0  0  0  0  0  0  0  0  0  0
   10.6580  -14.9693   19.2333 C   0  0  1  0  0  0  0  0  0  0  0  0
    9.3984  -15.5786   18.7255 C   0  0  0  0  0  0  0  0  0  0  0  0
    8.8540  -15.0187   17.4963 C   0  0  0  0  0  0  0  0  0  0  0  0
    9.2389  -13.9632   16.7062 C   0  0  0  0  0  0  0  0  0  0  0  0
    8.3974  -13.8231   15.6507 N   0  0  0  0  0  0  0  0  0  0  0  0
    7.4978  -14.7950   15.7978 C   0  0  0  0  0  0  0  0  0  0  0  0
    7.7432  -15.5169   16.8799 N   0  0  0  0  0  0  0  0  0  0  0  0
   10.7164  -15.2726   20.6893 C   0  0  0  0  0  0  0  0  0  0  0  0
   11.5568  -16.0910   21.1049 O   0  0  0  0  0  0  0  0  0  0  0  0
    9.8430  -14.6571   21.6195 N   0  0  0  0  0  0  0  0  0  0  0  0
    9.8191  -15.1347   22.9783 C   0  0  1  0  0  0  0  0  0  0  0  0
    8.8396  -14.2748   23.7542 C   0  0  0  0  0  0  0  0  0  0  0  0
    7.2253  -14.3704   22.9542 S   0  0  0  0  0  0  0  0  0  0  0  0
    9.3859  -16.5663   23.0453 C   0  0  0  0  0  0  0  0  0  0  0  0
    9.6035  -17.3267   24.1830 O   0  0  0  0  0  0  0  0  0  0  0  0
    8.8172  -17.0867   22.0574 O   0  0  0  0  0  0  0  0  0  0  0  0
  2  1  1  1
  2  7  1  0
  3  2  1  0
  4  3  1  0
  5  4  1  0
  6  5  2  0
  7 10  1  0
  7  8  2  0
  9  5  1  0
 10 11  1  0
 11 12  1  6
 12 13  1  0
 13 17  1  0
 14 13  2  0
 14 15  1  0
 15 16  1  0
 17 16  2  0
 18 11  1  0
 18 19  2  0
 20 18  1  0
 21 20  1  0
 21 22  1  1
 23 22  1  0
 24 21  1  0
 25 24  1  0
 26 24  2  0
M  END
$$$$
