EHC.pdb
     RDKit          3D

 26 26  0  0  1  0  0  0  0  0999 V2000
   13.5414  -14.0033   17.8561 N   0  0  0  0  0  0  0  0  0  0  0  0
   13.1362  -15.0603   18.7907 C   0  0  1  0  0  0  0  0  0  0  0  0
   14.2980  -15.5009   19.6288 C   0  0  0  0  0  0  0  0  0  0  0  0
   15.3516  -14.4740   19.8403 C   0  0  0  0  0  0  0  0  0  0  0  0
   16.5272  -14.8915   20.5914 C   0  0  0  0  0  0  0  0  0  0  0  0
   17.6622  -14.9412   20.0699 O   0  0  0  0  0  0  0  0  0  0  0  0
   12.0331  -14.5024   19.6202 C   0  0  0  0  0  0  0  0  0  0  0  0
   12.0802  -13.2802   19.9426 O   0  0  0  0  0  0  0  0  0  0  0  0
   16.4007  -15.2469   21.9227 O   0  0  0  0  0  0  0  0  0  0  0  0
   10.9202  -15.2512   20.0805 N   0  0  0  0  0  0  0  0  0  0  0  0
    9.7855  -14.6346   20.7558 C   0  0  1  0  0  0  0  0  0  0  0  0
    8.4775  -14.8684   20.0848 C   0  0  0  0  0  0  0  0  0  0  0  0
    8.3579  -14.4000   18.7111 C   0  0  0  0  0  0  0  0  0  0  0  0
    8.4055  -13.1475   18.1492 C   0  0  0  0  0  0  0  0  0  0  0  0
    8.2320  -13.2184   16.8051 N   0  0  0  0  0  0  0  0  0  0  0  0
    8.0782  -14.5166   16.5472 C   0  0  0  0  0  0  0  0  0  0  0  0
    8.1480  -15.2381   17.6549 N   0  0  0  0  0  0  0  0  0  0  0  0
    9.6830  -15.2514   22.1065 C   0  0  0  0  0  0  0  0  0  0  0  0
   10.4665  -16.1675   22.4157 O   0  0  0  0  0  0  0  0  0  0  0  0
    8.7189  -14.8270   23.0538 N   0  0  0  0  0  0  0  0  0  0  0  0
    8.6585  -15.4859   24.3333 C   0  0  1  0  0  0  0  0  0  0  0  0
    7.6042  -14.7826   25.1670 C   0  0  0  0  0  0  0  0  0  0  0  0
    8.0102  -13.0267   25.2525 S   0  0  0  0  0  0  0  0  0  0  0  0
    8.2941  -16.9305   24.1859 C   0  0  0  0  0  0  0  0  0  0  0  0
    8.2055  -17.7620   25.2908 O   0  0  0  0  0  0  0  0  0  0  0  0
    8.0651  -17.3967   23.0455 O   0  0  0  0  0  0  0  0  0  0  0  0
  2  1  1  6
  2  7  1  0
  3  2  1  0
  4  3  1  0
  5  4  1  0
  6  5  2  0
  7 10  1  0
  7  8  2  0
  9  5  1  0
 10 11  1  0
 11 12  1  6
 12 13  1  0
 13 17  1  0
 14 13  2  0
 14 15  1  0
 15 16  1  0
 17 16  2  0
 18 11  1  0
 18 19  2  0
 20 18  1  0
 21 20  1  0
 21 22  1  1
 23 22  1  0
 24 21  1  0
 25 24  1  0
 26 24  2  0
M  END
$$$$
