EHC.pdb
     RDKit          3D

 26 26  0  0  1  0  0  0  0  0999 V2000
   10.7651  -16.8394   19.5011 N   0  0  0  0  0  0  0  0  0  0  0  0
   10.5728  -17.4149   20.8377 C   0  0  1  0  0  0  0  0  0  0  0  0
   11.8882  -17.5859   21.5356 C   0  0  0  0  0  0  0  0  0  0  0  0
   12.5206  -16.3279   22.0116 C   0  0  0  0  0  0  0  0  0  0  0  0
   13.7633  -16.4650   22.7582 C   0  0  0  0  0  0  0  0  0  0  0  0
   14.7496  -17.0773   22.2944 O   0  0  0  0  0  0  0  0  0  0  0  0
    9.6674  -16.4935   21.5776 C   0  0  0  0  0  0  0  0  0  0  0  0
    9.4116  -15.3635   21.0699 O   0  0  0  0  0  0  0  0  0  0  0  0
   13.8713  -15.9068   24.0197 O   0  0  0  0  0  0  0  0  0  0  0  0
    9.0640  -16.7946   22.8251 N   0  0  0  0  0  0  0  0  0  0  0  0
    7.9947  -15.9848   23.3947 C   0  0  1  0  0  0  0  0  0  0  0  0
    6.8126  -16.7684   23.8467 C   0  0  0  0  0  0  0  0  0  0  0  0
    5.9804  -17.3510   22.8033 C   0  0  0  0  0  0  0  0  0  0  0  0
    6.0472  -17.3122   21.4319 C   0  0  0  0  0  0  0  0  0  0  0  0
    5.0242  -18.0144   20.8823 N   0  0  0  0  0  0  0  0  0  0  0  0
    4.3323  -18.4821   21.9207 C   0  0  0  0  0  0  0  0  0  0  0  0
    4.8746  -18.1055   23.0680 N   0  0  0  0  0  0  0  0  0  0  0  0
    8.5424  -15.3120   24.6041 C   0  0  0  0  0  0  0  0  0  0  0  0
    9.5741  -15.7631   25.1341 O   0  0  0  0  0  0  0  0  0  0  0  0
    7.9245  -14.1708   25.1724 N   0  0  0  0  0  0  0  0  0  0  0  0
    8.4504  -13.6286   26.3989 C   0  0  1  0  0  0  0  0  0  0  0  0
    7.6908  -12.3514   26.7038 C   0  0  0  0  0  0  0  0  0  0  0  0
    5.9244  -12.7182   26.7198 S   0  0  0  0  0  0  0  0  0  0  0  0
    8.2844  -14.5894   27.5350 C   0  0  0  0  0  0  0  0  0  0  0  0
    8.9140  -14.3751   28.7505 O   0  0  0  0  0  0  0  0  0  0  0  0
    7.5646  -15.6043   27.3858 O   0  0  0  0  0  0  0  0  0  0  0  0
  2  1  1  6
  2  7  1  0
  3  2  1  0
  4  3  1  0
  5  4  1  0
  6  5  2  0
  7 10  1  0
  7  8  2  0
  9  5  1  0
 10 11  1  0
 11 12  1  1
 12 13  1  0
 13 17  1  0
 14 13  2  0
 14 15  1  0
 15 16  1  0
 17 16  2  0
 18 11  1  0
 18 19  2  0
 20 18  1  0
 21 20  1  0
 21 22  1  1
 23 22  1  0
 24 21  1  0
 25 24  1  0
 26 24  2  0
M  END
$$$$
