EHC.pdb
     RDKit          3D

 26 26  0  0  1  0  0  0  0  0999 V2000
    8.6876  -17.0549   12.4696 N   0  0  0  0  0  0  0  0  0  0  0  0
    8.3779  -17.9584   13.5843 C   0  0  1  0  0  0  0  0  0  0  0  0
    8.6682  -19.3805   13.2103 C   0  0  0  0  0  0  0  0  0  0  0  0
    7.4811  -20.2723   13.1428 C   0  0  0  0  0  0  0  0  0  0  0  0
    7.7334  -21.6703   12.8229 C   0  0  0  0  0  0  0  0  0  0  0  0
    7.0581  -22.5958   13.3231 O   0  0  0  0  0  0  0  0  0  0  0  0
    9.1985  -17.5105   14.7428 C   0  0  0  0  0  0  0  0  0  0  0  0
   10.3289  -16.9905   14.5156 O   0  0  0  0  0  0  0  0  0  0  0  0
    8.7471  -22.0005   11.9408 O   0  0  0  0  0  0  0  0  0  0  0  0
    8.7996  -17.6261   16.0987 N   0  0  0  0  0  0  0  0  0  0  0  0
    9.6181  -17.1382   17.2013 C   0  0  1  0  0  0  0  0  0  0  0  0
    8.8362  -16.6353   18.3638 C   0  0  0  0  0  0  0  0  0  0  0  0
    8.2420  -15.3130   18.2253 C   0  0  0  0  0  0  0  0  0  0  0  0
    8.3743  -14.3299   17.2752 C   0  0  0  0  0  0  0  0  0  0  0  0
    7.6112  -13.2530   17.5905 N   0  0  0  0  0  0  0  0  0  0  0  0
    7.0127  -13.5800   18.7352 C   0  0  0  0  0  0  0  0  0  0  0  0
    7.3670  -14.7917   19.1335 N   0  0  0  0  0  0  0  0  0  0  0  0
   10.4234  -18.2865   17.6994 C   0  0  0  0  0  0  0  0  0  0  0  0
   10.1343  -19.4376   17.3249 O   0  0  0  0  0  0  0  0  0  0  0  0
   11.5117  -18.1098   18.5890 N   0  0  0  0  0  0  0  0  0  0  0  0
   12.4452  -19.1909   18.7754 C   0  0  1  0  0  0  0  0  0  0  0  0
   13.0816  -19.4903   17.4313 C   0  0  0  0  0  0  0  0  0  0  0  0
   14.2931  -20.8098   17.6455 S   0  0  0  0  0  0  0  0  0  0  0  0
   13.5119  -18.8262   19.7607 C   0  0  0  0  0  0  0  0  0  0  0  0
   13.6469  -17.5259   20.2199 O   0  0  0  0  0  0  0  0  0  0  0  0
   14.2962  -19.7101   20.1778 O   0  0  0  0  0  0  0  0  0  0  0  0
  2  1  1  6
  2  7  1  0
  3  2  1  0
  4  3  1  0
  5  4  1  0
  6  5  2  0
  7 10  1  0
  7  8  2  0
  9  5  1  0
 10 11  1  0
 11 12  1  1
 12 13  1  0
 13 17  1  0
 14 13  2  0
 14 15  1  0
 15 16  1  0
 17 16  2  0
 18 11  1  0
 18 19  2  0
 20 18  1  0
 21 20  1  0
 21 22  1  6
 23 22  1  0
 24 21  1  0
 25 24  1  0
 26 24  2  0
M  END
$$$$
