EHC.pdb
     RDKit          3D

 26 26  0  0  1  0  0  0  0  0999 V2000
   13.5424  -17.1457   17.5117 N   0  0  0  0  0  0  0  0  0  0  0  0
   13.7610  -15.7005   17.6471 C   0  0  1  0  0  0  0  0  0  0  0  0
   13.4267  -14.9917   16.3695 C   0  0  0  0  0  0  0  0  0  0  0  0
   13.0489  -15.8751   15.2355 C   0  0  0  0  0  0  0  0  0  0  0  0
   12.5943  -15.2161   14.0192 C   0  0  0  0  0  0  0  0  0  0  0  0
   13.3805  -14.6014   13.2664 O   0  0  0  0  0  0  0  0  0  0  0  0
   12.9086  -15.2396   18.7772 C   0  0  0  0  0  0  0  0  0  0  0  0
   13.0288  -14.0448   19.1746 O   0  0  0  0  0  0  0  0  0  0  0  0
   11.2555  -15.2625   13.6727 O   0  0  0  0  0  0  0  0  0  0  0  0
   11.9604  -16.0531   19.4481 N   0  0  0  0  0  0  0  0  0  0  0  0
   11.1279  -15.5533   20.5349 C   0  0  1  0  0  0  0  0  0  0  0  0
    9.6757  -15.4967   20.2128 C   0  0  0  0  0  0  0  0  0  0  0  0
    9.2439  -14.4116   19.3429 C   0  0  0  0  0  0  0  0  0  0  0  0
    9.9147  -13.3620   18.7641 C   0  0  0  0  0  0  0  0  0  0  0  0
    9.0668  -12.5976   18.0304 N   0  0  0  0  0  0  0  0  0  0  0  0
    7.8767  -13.1822   18.1623 C   0  0  0  0  0  0  0  0  0  0  0  0
    7.9518  -14.2562   18.9325 N   0  0  0  0  0  0  0  0  0  0  0  0
   11.2706  -16.4988   21.6754 C   0  0  0  0  0  0  0  0  0  0  0  0
   12.0149  -17.4887   21.5529 O   0  0  0  0  0  0  0  0  0  0  0  0
   10.5839  -16.3068   22.8996 N   0  0  0  0  0  0  0  0  0  0  0  0
   10.9522  -17.1050   24.0408 C   0  0  1  0  0  0  0  0  0  0  0  0
   12.3689  -16.7287   24.4312 C   0  0  0  0  0  0  0  0  0  0  0  0
   12.8511  -17.7039   25.8705 S   0  0  0  0  0  0  0  0  0  0  0  0
   10.0349  -16.8576   25.1979 C   0  0  0  0  0  0  0  0  0  0  0  0
    9.7942  -17.8421   26.1427 O   0  0  0  0  0  0  0  0  0  0  0  0
    9.4751  -15.7427   25.3152 O   0  0  0  0  0  0  0  0  0  0  0  0
  2  1  1  6
  2  7  1  0
  3  2  1  0
  4  3  1  0
  5  4  1  0
  6  5  2  0
  7 10  1  0
  7  8  2  0
  9  5  1  0
 10 11  1  0
 11 12  1  6
 12 13  1  0
 13 17  1  0
 14 13  2  0
 14 15  1  0
 15 16  1  0
 17 16  2  0
 18 11  1  0
 18 19  2  0
 20 18  1  0
 21 20  1  0
 21 22  1  1
 23 22  1  0
 24 21  1  0
 25 24  1  0
 26 24  2  0
M  END
$$$$
