EHC.pdb
     RDKit          3D

 26 26  0  0  1  0  0  0  0  0999 V2000
   10.6143  -18.4216   20.5775 N   0  0  0  0  0  0  0  0  0  0  0  0
   11.3314  -18.4488   21.8580 C   0  0  1  0  0  0  0  0  0  0  0  0
   12.6273  -17.7027   21.7560 C   0  0  0  0  0  0  0  0  0  0  0  0
   13.0517  -17.3570   20.3742 C   0  0  0  0  0  0  0  0  0  0  0  0
   14.3928  -16.8105   20.2217 C   0  0  0  0  0  0  0  0  0  0  0  0
   15.3526  -17.5112   19.8340 O   0  0  0  0  0  0  0  0  0  0  0  0
   10.4233  -17.8481   22.8733 C   0  0  0  0  0  0  0  0  0  0  0  0
    9.6459  -16.9182   22.5115 O   0  0  0  0  0  0  0  0  0  0  0  0
   14.6278  -15.4779   20.5107 O   0  0  0  0  0  0  0  0  0  0  0  0
   10.3663  -18.2478   24.2327 N   0  0  0  0  0  0  0  0  0  0  0  0
    9.3653  -17.7351   25.1594 C   0  0  1  0  0  0  0  0  0  0  0  0
    8.6494  -18.7906   25.9272 C   0  0  0  0  0  0  0  0  0  0  0  0
    7.6051  -19.5162   25.2176 C   0  0  0  0  0  0  0  0  0  0  0  0
    7.1187  -19.4273   23.9361 C   0  0  0  0  0  0  0  0  0  0  0  0
    6.1201  -20.3250   23.7393 N   0  0  0  0  0  0  0  0  0  0  0  0
    5.9973  -20.9621   24.9031 C   0  0  0  0  0  0  0  0  0  0  0  0
    6.8622  -20.5046   25.7948 N   0  0  0  0  0  0  0  0  0  0  0  0
   10.0757  -16.8936   26.1606 C   0  0  0  0  0  0  0  0  0  0  0  0
   11.2745  -17.1228   26.4040 O   0  0  0  0  0  0  0  0  0  0  0  0
    9.4283  -15.8369   26.8471 N   0  0  0  0  0  0  0  0  0  0  0  0
   10.1390  -15.1404   27.8885 C   0  0  1  0  0  0  0  0  0  0  0  0
    9.3856  -13.8576   28.1853 C   0  0  0  0  0  0  0  0  0  0  0  0
    8.9785  -13.0509   26.6237 S   0  0  0  0  0  0  0  0  0  0  0  0
   10.2265  -15.9656   29.1347 C   0  0  0  0  0  0  0  0  0  0  0  0
   10.9487  -15.5277   30.2331 O   0  0  0  0  0  0  0  0  0  0  0  0
    9.6376  -17.0704   29.1867 O   0  0  0  0  0  0  0  0  0  0  0  0
  2  1  1  6
  2  7  1  0
  3  2  1  0
  4  3  1  0
  5  4  1  0
  6  5  2  0
  7 10  1  0
  7  8  2  0
  9  5  1  0
 10 11  1  0
 11 12  1  1
 12 13  1  0
 13 17  1  0
 14 13  2  0
 14 15  1  0
 15 16  1  0
 17 16  2  0
 18 11  1  0
 18 19  2  0
 20 18  1  0
 21 20  1  0
 21 22  1  1
 23 22  1  0
 24 21  1  0
 25 24  1  0
 26 24  2  0
M  END
$$$$
