EHC.pdb
     RDKit          3D

 26 26  0  0  1  0  0  0  0  0999 V2000
   10.8561  -17.4325   19.1401 N   0  0  0  0  0  0  0  0  0  0  0  0
   11.0127  -17.8873   20.5269 C   0  0  1  0  0  0  0  0  0  0  0  0
   12.3535  -18.5265   20.7270 C   0  0  0  0  0  0  0  0  0  0  0  0
   13.5191  -17.6826   20.3552 C   0  0  0  0  0  0  0  0  0  0  0  0
   14.8333  -18.2990   20.4704 C   0  0  0  0  0  0  0  0  0  0  0  0
   15.8270  -17.8586   19.8530 O   0  0  0  0  0  0  0  0  0  0  0  0
   10.8325  -16.6917   21.3954 C   0  0  0  0  0  0  0  0  0  0  0  0
   11.4009  -15.6124   21.0608 O   0  0  0  0  0  0  0  0  0  0  0  0
   15.0035  -19.4057   21.2834 O   0  0  0  0  0  0  0  0  0  0  0  0
   10.0605  -16.6753   22.5849 N   0  0  0  0  0  0  0  0  0  0  0  0
    9.7328  -15.4428   23.2901 C   0  0  1  0  0  0  0  0  0  0  0  0
    8.2954  -15.0629   23.2160 C   0  0  0  0  0  0  0  0  0  0  0  0
    7.8238  -14.5467   21.9386 C   0  0  0  0  0  0  0  0  0  0  0  0
    6.9252  -15.0267   21.0174 C   0  0  0  0  0  0  0  0  0  0  0  0
    6.8222  -14.1797   19.9621 N   0  0  0  0  0  0  0  0  0  0  0  0
    7.6598  -13.1815   20.2404 C   0  0  0  0  0  0  0  0  0  0  0  0
    8.2651  -13.3721   21.4022 N   0  0  0  0  0  0  0  0  0  0  0  0
   10.0381  -15.6599   24.7305 C   0  0  0  0  0  0  0  0  0  0  0  0
   10.4737  -16.7663   25.0979 O   0  0  0  0  0  0  0  0  0  0  0  0
    9.8481  -14.6438   25.6992 N   0  0  0  0  0  0  0  0  0  0  0  0
   10.2332  -14.8976   27.0638 C   0  0  1  0  0  0  0  0  0  0  0  0
    9.9031  -13.6596   27.8760 C   0  0  0  0  0  0  0  0  0  0  0  0
   10.6585  -13.8186   29.5066 S   0  0  0  0  0  0  0  0  0  0  0  0
    9.4980  -16.0734   27.6280 C   0  0  0  0  0  0  0  0  0  0  0  0
   10.1117  -16.9408   28.5174 O   0  0  0  0  0  0  0  0  0  0  0  0
    8.3084  -16.2778   27.2916 O   0  0  0  0  0  0  0  0  0  0  0  0
  2  1  1  6
  2  7  1  0
  3  2  1  0
  4  3  1  0
  5  4  1  0
  6  5  2  0
  7 10  1  0
  7  8  2  0
  9  5  1  0
 10 11  1  0
 11 12  1  1
 12 13  1  0
 13 17  1  0
 14 13  2  0
 14 15  1  0
 15 16  1  0
 17 16  2  0
 18 11  1  0
 18 19  2  0
 20 18  1  0
 21 20  1  0
 21 22  1  1
 23 22  1  0
 24 21  1  0
 25 24  1  0
 26 24  2  0
M  END
$$$$
