EHC.pdb
     RDKit          3D

 26 26  0  0  1  0  0  0  0  0999 V2000
   11.1418  -17.5422   19.4533 N   0  0  0  0  0  0  0  0  0  0  0  0
   11.3183  -18.0633   20.8142 C   0  0  1  0  0  0  0  0  0  0  0  0
   12.7385  -17.8999   21.2645 C   0  0  0  0  0  0  0  0  0  0  0  0
   13.2872  -16.5241   21.1422 C   0  0  0  0  0  0  0  0  0  0  0  0
   14.6741  -16.3373   21.5446 C   0  0  0  0  0  0  0  0  0  0  0  0
   15.2339  -15.2208   21.4909 O   0  0  0  0  0  0  0  0  0  0  0  0
   10.3699  -17.3185   21.6873 C   0  0  0  0  0  0  0  0  0  0  0  0
    9.6670  -16.4028   21.1702 O   0  0  0  0  0  0  0  0  0  0  0  0
   15.4075  -17.4177   22.0023 O   0  0  0  0  0  0  0  0  0  0  0  0
   10.1958  -17.5645   23.0729 N   0  0  0  0  0  0  0  0  0  0  0  0
    9.1074  -16.9762   23.8431 C   0  0  1  0  0  0  0  0  0  0  0  0
    8.0916  -17.9590   24.3102 C   0  0  0  0  0  0  0  0  0  0  0  0
    7.1477  -18.4432   23.3125 C   0  0  0  0  0  0  0  0  0  0  0  0
    6.9787  -18.1602   21.9791 C   0  0  0  0  0  0  0  0  0  0  0  0
    5.9407  -18.8687   21.4668 N   0  0  0  0  0  0  0  0  0  0  0  0
    5.4760  -19.5847   22.4899 C   0  0  0  0  0  0  0  0  0  0  0  0
    6.1702  -19.3531   23.5930 N   0  0  0  0  0  0  0  0  0  0  0  0
    9.7035  -16.3721   25.0657 C   0  0  0  0  0  0  0  0  0  0  0  0
   10.7703  -16.8328   25.5113 O   0  0  0  0  0  0  0  0  0  0  0  0
    9.0930  -15.2860   25.7400 N   0  0  0  0  0  0  0  0  0  0  0  0
    9.6448  -14.8424   26.9945 C   0  0  1  0  0  0  0  0  0  0  0  0
    8.7975  -13.6858   27.4899 C   0  0  0  0  0  0  0  0  0  0  0  0
    9.4937  -13.0808   29.0406 S   0  0  0  0  0  0  0  0  0  0  0  0
    9.6337  -15.9394   28.0132 C   0  0  0  0  0  0  0  0  0  0  0  0
   10.6891  -16.1069   28.8953 O   0  0  0  0  0  0  0  0  0  0  0  0
    8.6548  -16.7196   28.0705 O   0  0  0  0  0  0  0  0  0  0  0  0
  2  1  1  6
  2  7  1  0
  3  2  1  0
  4  3  1  0
  5  4  1  0
  6  5  2  0
  7 10  1  0
  7  8  2  0
  9  5  1  0
 10 11  1  0
 11 12  1  1
 12 13  1  0
 13 17  1  0
 14 13  2  0
 14 15  1  0
 15 16  1  0
 17 16  2  0
 18 11  1  0
 18 19  2  0
 20 18  1  0
 21 20  1  0
 21 22  1  1
 23 22  1  0
 24 21  1  0
 25 24  1  0
 26 24  2  0
M  END
$$$$
