EHC.pdb
     RDKit          3D

 26 26  0  0  1  0  0  0  0  0999 V2000
   10.6037  -15.2204   18.5221 N   0  0  0  0  0  0  0  0  0  0  0  0
   11.2159  -15.5066   19.8252 C   0  0  1  0  0  0  0  0  0  0  0  0
   12.4995  -14.7497   19.9857 C   0  0  0  0  0  0  0  0  0  0  0  0
   13.6904  -15.3830   19.3614 C   0  0  0  0  0  0  0  0  0  0  0  0
   14.9699  -14.7237   19.5815 C   0  0  0  0  0  0  0  0  0  0  0  0
   15.9949  -15.3608   19.9075 O   0  0  0  0  0  0  0  0  0  0  0  0
   10.2165  -15.1312   20.8627 C   0  0  0  0  0  0  0  0  0  0  0  0
    9.5207  -14.0907   20.6807 O   0  0  0  0  0  0  0  0  0  0  0  0
   15.0706  -13.3521   19.4294 O   0  0  0  0  0  0  0  0  0  0  0  0
    9.9856  -15.8645   22.0543 N   0  0  0  0  0  0  0  0  0  0  0  0
    8.9211  -15.5252   22.9900 C   0  0  1  0  0  0  0  0  0  0  0  0
    7.8572  -16.5601   23.1030 C   0  0  0  0  0  0  0  0  0  0  0  0
    7.0203  -16.7639   21.9289 C   0  0  0  0  0  0  0  0  0  0  0  0
    7.0136  -16.1887   20.6816 C   0  0  0  0  0  0  0  0  0  0  0  0
    6.0211  -16.7116   19.9180 N   0  0  0  0  0  0  0  0  0  0  0  0
    5.4213  -17.6073   20.7014 C   0  0  0  0  0  0  0  0  0  0  0  0
    5.9909  -17.6592   21.8952 N   0  0  0  0  0  0  0  0  0  0  0  0
    9.5371  -15.4041   24.3395 C   0  0  0  0  0  0  0  0  0  0  0  0
   10.6916  -15.8325   24.5197 O   0  0  0  0  0  0  0  0  0  0  0  0
    8.8485  -14.8149   25.4284 N   0  0  0  0  0  0  0  0  0  0  0  0
    9.4695  -14.8095   26.7281 C   0  0  1  0  0  0  0  0  0  0  0  0
    8.7270  -13.8076   27.5919 C   0  0  0  0  0  0  0  0  0  0  0  0
    8.4478  -12.3078   26.6289 S   0  0  0  0  0  0  0  0  0  0  0  0
    9.4061  -16.1615   27.3681 C   0  0  0  0  0  0  0  0  0  0  0  0
   10.0171  -16.4047   28.5877 O   0  0  0  0  0  0  0  0  0  0  0  0
    8.7910  -17.0893   26.7927 O   0  0  0  0  0  0  0  0  0  0  0  0
  2  1  1  6
  2  7  1  0
  3  2  1  0
  4  3  1  0
  5  4  1  0
  6  5  2  0
  7 10  1  0
  7  8  2  0
  9  5  1  0
 10 11  1  0
 11 12  1  1
 12 13  1  0
 13 17  1  0
 14 13  2  0
 14 15  1  0
 15 16  1  0
 17 16  2  0
 18 11  1  0
 18 19  2  0
 20 18  1  0
 21 20  1  0
 21 22  1  1
 23 22  1  0
 24 21  1  0
 25 24  1  0
 26 24  2  0
M  END
$$$$
