EHC.pdb
     RDKit          3D

 26 26  0  0  1  0  0  0  0  0999 V2000
   11.8466  -18.6210   20.1207 N   0  0  0  0  0  0  0  0  0  0  0  0
   12.2502  -18.9290   21.4981 C   0  0  1  0  0  0  0  0  0  0  0  0
   13.6389  -18.4335   21.7670 C   0  0  0  0  0  0  0  0  0  0  0  0
   13.8633  -16.9923   21.4814 C   0  0  0  0  0  0  0  0  0  0  0  0
   15.2121  -16.4874   21.6968 C   0  0  0  0  0  0  0  0  0  0  0  0
   16.1272  -17.2137   22.1414 O   0  0  0  0  0  0  0  0  0  0  0  0
   11.2488  -18.2881   22.3940 C   0  0  0  0  0  0  0  0  0  0  0  0
   10.5575  -17.3317   21.9387 O   0  0  0  0  0  0  0  0  0  0  0  0
   15.5053  -15.1669   21.4056 O   0  0  0  0  0  0  0  0  0  0  0  0
   11.0113  -18.6770   23.7369 N   0  0  0  0  0  0  0  0  0  0  0  0
    9.9078  -18.1426   24.5246 C   0  0  1  0  0  0  0  0  0  0  0  0
    9.1138  -19.1782   25.2409 C   0  0  0  0  0  0  0  0  0  0  0  0
    8.0744  -19.8485   24.4721 C   0  0  0  0  0  0  0  0  0  0  0  0
    7.6392  -19.7066   23.1771 C   0  0  0  0  0  0  0  0  0  0  0  0
    6.6211  -20.5652   22.9169 N   0  0  0  0  0  0  0  0  0  0  0  0
    6.4350  -21.2317   24.0556 C   0  0  0  0  0  0  0  0  0  0  0  0
    7.2799  -20.8288   24.9916 N   0  0  0  0  0  0  0  0  0  0  0  0
   10.4941  -17.2617   25.5711 C   0  0  0  0  0  0  0  0  0  0  0  0
   11.6643  -17.4604   25.9452 O   0  0  0  0  0  0  0  0  0  0  0  0
    9.7598  -16.2009   26.1565 N   0  0  0  0  0  0  0  0  0  0  0  0
   10.3473  -15.4597   27.2430 C   0  0  1  0  0  0  0  0  0  0  0  0
    9.4337  -14.2888   27.5521 C   0  0  0  0  0  0  0  0  0  0  0  0
   10.1862  -13.2964   28.8574 S   0  0  0  0  0  0  0  0  0  0  0  0
   10.4963  -16.3107   28.4657 C   0  0  0  0  0  0  0  0  0  0  0  0
    9.5536  -17.2746   28.7854 O   0  0  0  0  0  0  0  0  0  0  0  0
   11.4892  -16.1500   29.2131 O   0  0  0  0  0  0  0  0  0  0  0  0
  2  1  1  6
  2  7  1  0
  3  2  1  0
  4  3  1  0
  5  4  1  0
  6  5  2  0
  7 10  1  0
  7  8  2  0
  9  5  1  0
 10 11  1  0
 11 12  1  1
 12 13  1  0
 13 17  1  0
 14 13  2  0
 14 15  1  0
 15 16  1  0
 17 16  2  0
 18 11  1  0
 18 19  2  0
 20 18  1  0
 21 20  1  0
 21 22  1  1
 23 22  1  0
 24 21  1  0
 25 24  1  0
 26 24  2  0
M  END
$$$$
