EHC.pdb
     RDKit          3D

 26 26  0  0  1  0  0  0  0  0999 V2000
   13.5834  -16.9383   19.1019 N   0  0  0  0  0  0  0  0  0  0  0  0
   13.8715  -15.5106   19.2851 C   0  0  1  0  0  0  0  0  0  0  0  0
   14.0839  -14.8386   17.9623 C   0  0  0  0  0  0  0  0  0  0  0  0
   14.1058  -15.7476   16.7867 C   0  0  0  0  0  0  0  0  0  0  0  0
   14.3551  -15.1316   15.4910 C   0  0  0  0  0  0  0  0  0  0  0  0
   13.4386  -14.6120   14.8181 O   0  0  0  0  0  0  0  0  0  0  0  0
   12.7172  -14.9294   20.0240 C   0  0  0  0  0  0  0  0  0  0  0  0
   12.7400  -13.6961   20.3038 O   0  0  0  0  0  0  0  0  0  0  0  0
   15.6391  -15.1129   14.9756 O   0  0  0  0  0  0  0  0  0  0  0  0
   11.5806  -15.6674   20.4419 N   0  0  0  0  0  0  0  0  0  0  0  0
   10.4894  -15.0658   21.1976 C   0  0  1  0  0  0  0  0  0  0  0  0
    9.1395  -15.3186   20.6235 C   0  0  0  0  0  0  0  0  0  0  0  0
    8.7776  -14.5427   19.4455 C   0  0  0  0  0  0  0  0  0  0  0  0
    9.4188  -13.5392   18.7611 C   0  0  0  0  0  0  0  0  0  0  0  0
    8.6663  -13.1168   17.7138 N   0  0  0  0  0  0  0  0  0  0  0  0
    7.5640  -13.8641   17.7600 C   0  0  0  0  0  0  0  0  0  0  0  0
    7.6027  -14.7151   18.7731 N   0  0  0  0  0  0  0  0  0  0  0  0
   10.4940  -15.6820   22.5524 C   0  0  0  0  0  0  0  0  0  0  0  0
   11.3150  -16.5822   22.8063 O   0  0  0  0  0  0  0  0  0  0  0  0
    9.5906  -15.2749   23.5649 N   0  0  0  0  0  0  0  0  0  0  0  0
    9.5669  -15.9952   24.8120 C   0  0  1  0  0  0  0  0  0  0  0  0
    8.5668  -15.3098   25.7237 C   0  0  0  0  0  0  0  0  0  0  0  0
    9.1067  -13.6110   26.0021 S   0  0  0  0  0  0  0  0  0  0  0  0
    9.1597  -17.4217   24.6100 C   0  0  0  0  0  0  0  0  0  0  0  0
    9.2333  -18.3398   25.6451 O   0  0  0  0  0  0  0  0  0  0  0  0
    8.7454  -17.7929   23.4871 O   0  0  0  0  0  0  0  0  0  0  0  0
  2  1  1  6
  2  7  1  0
  3  2  1  0
  4  3  1  0
  5  4  1  0
  6  5  2  0
  7 10  1  0
  7  8  2  0
  9  5  1  0
 10 11  1  0
 11 12  1  6
 12 13  1  0
 13 17  1  0
 14 13  2  0
 14 15  1  0
 15 16  1  0
 17 16  2  0
 18 11  1  0
 18 19  2  0
 20 18  1  0
 21 20  1  0
 21 22  1  1
 23 22  1  0
 24 21  1  0
 25 24  1  0
 26 24  2  0
M  END
$$$$
