EHC.pdb
     RDKit          3D

 26 26  0  0  1  0  0  0  0  0999 V2000
   13.1040  -18.3637   22.1074 N   0  0  0  0  0  0  0  0  0  0  0  0
   12.7028  -17.9403   23.4545 C   0  0  1  0  0  0  0  0  0  0  0  0
   13.9057  -17.6301   24.2930 C   0  0  0  0  0  0  0  0  0  0  0  0
   15.1089  -17.1939   23.5373 C   0  0  0  0  0  0  0  0  0  0  0  0
   16.3083  -16.9273   24.3188 C   0  0  0  0  0  0  0  0  0  0  0  0
   17.1828  -17.8005   24.5073 O   0  0  0  0  0  0  0  0  0  0  0  0
   11.8207  -16.7527   23.2881 C   0  0  0  0  0  0  0  0  0  0  0  0
   12.3557  -15.6080   23.2304 O   0  0  0  0  0  0  0  0  0  0  0  0
   16.5004  -15.6754   24.8759 O   0  0  0  0  0  0  0  0  0  0  0  0
   10.4074  -16.8129   23.1885 N   0  0  0  0  0  0  0  0  0  0  0  0
    9.5854  -15.6291   22.9723 C   0  0  1  0  0  0  0  0  0  0  0  0
    8.4480  -15.8406   22.0357 C   0  0  0  0  0  0  0  0  0  0  0  0
    7.9608  -14.6650   21.3276 C   0  0  0  0  0  0  0  0  0  0  0  0
    8.3859  -13.3594   21.2922 C   0  0  0  0  0  0  0  0  0  0  0  0
    7.5918  -12.6188   20.4782 N   0  0  0  0  0  0  0  0  0  0  0  0
    6.6807  -13.4746   20.0166 C   0  0  0  0  0  0  0  0  0  0  0  0
    6.8745  -14.6908   20.5021 N   0  0  0  0  0  0  0  0  0  0  0  0
    8.9884  -15.2565   24.2838 C   0  0  0  0  0  0  0  0  0  0  0  0
    8.9104  -16.1160   25.1805 O   0  0  0  0  0  0  0  0  0  0  0  0
    8.5048  -13.9506   24.5441 N   0  0  0  0  0  0  0  0  0  0  0  0
    7.7062  -13.7223   25.7210 C   0  0  1  0  0  0  0  0  0  0  0  0
    7.1780  -12.3018   25.6537 C   0  0  0  0  0  0  0  0  0  0  0  0
    6.2952  -11.9393   27.1848 S   0  0  0  0  0  0  0  0  0  0  0  0
    6.5559  -14.6779   25.7929 C   0  0  0  0  0  0  0  0  0  0  0  0
    6.1526  -15.2217   27.0018 O   0  0  0  0  0  0  0  0  0  0  0  0
    5.9469  -14.9919   24.7437 O   0  0  0  0  0  0  0  0  0  0  0  0
  2  1  1  6
  2  7  1  0
  3  2  1  0
  4  3  1  0
  5  4  1  0
  6  5  2  0
  7 10  1  0
  7  8  2  0
  9  5  1  0
 10 11  1  0
 11 12  1  6
 12 13  1  0
 13 17  1  0
 14 13  2  0
 14 15  1  0
 15 16  1  0
 17 16  2  0
 18 11  1  0
 18 19  2  0
 20 18  1  0
 21 20  1  0
 21 22  1  6
 23 22  1  0
 24 21  1  0
 25 24  1  0
 26 24  2  0
M  END
$$$$
