IEQ.pdb
     RDKit          3D

 27 26  0  0  1  0  0  0  0  0999 V2000
    6.4389  -11.3976   27.2007 C   0  0  0  0  0  0  0  0  0  0  0  0
    6.0135  -12.5153   26.2990 C   0  0  0  0  0  0  0  0  0  0  0  0
    7.1473  -13.4375   25.9230 C   0  0  2  0  0  0  0  0  0  0  0  0
    8.2406  -12.6021   25.2699 C   0  0  0  0  0  0  0  0  0  0  0  0
    6.7105  -14.6003   25.0923 C   0  0  2  0  0  0  0  0  0  0  0  0
    5.6522  -15.2741   25.8647 N   0  0  0  0  0  0  0  0  0  0  0  0
    7.7250  -15.6048   24.8100 C   0  0  0  0  0  0  0  0  0  0  0  0
    8.1297  -16.4198   25.7106 O   0  0  0  0  0  0  0  0  0  0  0  0
    8.3784  -15.8093   23.5405 N   0  0  0  0  0  0  0  0  0  0  0  0
    9.4884  -16.7004   23.3811 C   0  0  1  0  0  0  0  0  0  0  0  0
    9.7045  -17.0171   21.9459 C   0  0  0  0  0  0  0  0  0  0  0  0
    9.1641  -16.0970   20.9281 C   0  0  0  0  0  0  0  0  0  0  0  0
    9.4128  -16.4367   19.5161 C   0  0  0  0  0  0  0  0  0  0  0  0
   10.4220  -15.9986   18.8944 O   0  0  0  0  0  0  0  0  0  0  0  0
   10.7368  -16.2057   23.9716 C   0  0  0  0  0  0  0  0  0  0  0  0
   11.0426  -14.9932   23.9880 O   0  0  0  0  0  0  0  0  0  0  0  0
    8.5387  -17.2545   18.8220 O   0  0  0  0  0  0  0  0  0  0  0  0
   10.8936  -14.1276   29.0051 N   0  0  0  0  0  0  0  0  0  0  0  0
   11.0400  -15.5350   29.0325 C   0  0  0  0  0  0  0  0  0  0  0  0
   10.3236  -16.2049   29.8039 O   0  0  0  0  0  0  0  0  0  0  0  0
   12.0667  -16.1374   28.1147 C   0  0  0  0  0  0  0  0  0  0  0  0
   11.4386  -16.3760   26.7714 C   0  0  0  0  0  0  0  0  0  0  0  0
   12.4018  -16.9122   25.7434 C   0  0  2  0  0  0  0  0  0  0  0  0
   11.6222  -17.1544   24.5428 N   0  0  0  0  0  0  0  0  0  0  0  0
   13.0211  -18.1956   26.1416 C   0  0  0  0  0  0  0  0  0  0  0  0
   12.3931  -19.2731   26.0042 O   0  0  0  0  0  0  0  0  0  0  0  0
   14.2973  -18.2703   26.6739 O   0  0  0  0  0  0  0  0  0  0  0  0
  2  1  1  0
  2  3  1  0
  3  4  1  6
  5  3  1  0
  5  6  1  1
  7  8  2  0
  7  5  1  0
  9  7  1  0
 10  9  1  0
 10 11  1  6
 12 11  1  0
 12 13  1  0
 13 14  2  0
 15 10  1  0
 16 15  2  0
 17 13  1  0
 19 18  1  0
 20 19  2  0
 21 19  1  0
 22 21  1  0
 23 22  1  1
 23 24  1  0
 24 15  1  0
 25 23  1  0
 26 25  2  0
 27 25  1  0
M  END
$$$$
