IEQ.pdb
     RDKit          3D

 27 26  0  0  1  0  0  0  0  0999 V2000
    5.6891  -11.5377   26.7543 C   0  0  0  0  0  0  0  0  0  0  0  0
    5.4426  -12.8850   26.1482 C   0  0  0  0  0  0  0  0  0  0  0  0
    6.7109  -13.5880   25.7307 C   0  0  2  0  0  0  0  0  0  0  0  0
    7.5171  -12.6332   24.8601 C   0  0  0  0  0  0  0  0  0  0  0  0
    6.4655  -14.9151   25.0893 C   0  0  2  0  0  0  0  0  0  0  0  0
    5.7278  -15.7143   26.0831 N   0  0  0  0  0  0  0  0  0  0  0  0
    7.6483  -15.6835   24.7307 C   0  0  0  0  0  0  0  0  0  0  0  0
    8.3719  -16.2534   25.6199 O   0  0  0  0  0  0  0  0  0  0  0  0
    8.1404  -15.8979   23.3919 N   0  0  0  0  0  0  0  0  0  0  0  0
    9.3420  -16.6289   23.1216 C   0  0  1  0  0  0  0  0  0  0  0  0
    9.4896  -16.8744   21.6639 C   0  0  0  0  0  0  0  0  0  0  0  0
   10.6947  -17.5745   21.1817 C   0  0  0  0  0  0  0  0  0  0  0  0
   10.8448  -17.7262   19.7239 C   0  0  0  0  0  0  0  0  0  0  0  0
   11.7673  -18.4276   19.2197 O   0  0  0  0  0  0  0  0  0  0  0  0
   10.5558  -15.9895   23.6407 C   0  0  0  0  0  0  0  0  0  0  0  0
   11.0186  -14.9303   23.1633 O   0  0  0  0  0  0  0  0  0  0  0  0
    9.9703  -17.0982   18.8547 O   0  0  0  0  0  0  0  0  0  0  0  0
   11.9538  -16.6109   29.4129 N   0  0  0  0  0  0  0  0  0  0  0  0
   11.2287  -15.5122   28.8929 C   0  0  0  0  0  0  0  0  0  0  0  0
   10.5556  -14.8063   29.6711 O   0  0  0  0  0  0  0  0  0  0  0  0
   11.3202  -15.2668   27.4128 C   0  0  0  0  0  0  0  0  0  0  0  0
   12.2817  -16.2533   26.8143 C   0  0  0  0  0  0  0  0  0  0  0  0
   12.4445  -16.1062   25.3231 C   0  0  2  0  0  0  0  0  0  0  0  0
   11.2199  -16.6109   24.7284 N   0  0  0  0  0  0  0  0  0  0  0  0
   13.5672  -16.9024   24.7801 C   0  0  0  0  0  0  0  0  0  0  0  0
   14.7528  -16.5335   24.9610 O   0  0  0  0  0  0  0  0  0  0  0  0
   13.3701  -18.0693   24.0611 O   0  0  0  0  0  0  0  0  0  0  0  0
  2  1  1  0
  2  3  1  0
  3  4  1  6
  5  3  1  0
  5  6  1  1
  7  8  2  0
  7  5  1  0
  9  7  1  0
 10  9  1  0
 10 11  1  6
 12 11  1  0
 12 13  1  0
 13 14  2  0
 15 10  1  0
 16 15  2  0
 17 13  1  0
 19 18  1  0
 20 19  2  0
 21 19  1  0
 22 21  1  0
 23 22  1  1
 23 24  1  0
 24 15  1  0
 25 23  1  0
 26 25  2  0
 27 25  1  0
M  END
$$$$
