IEQ.pdb
     RDKit          3D

 27 26  0  0  1  0  0  0  0  0999 V2000
    6.1518  -11.0610   26.6359 C   0  0  0  0  0  0  0  0  0  0  0  0
    5.7476  -12.3735   26.0382 C   0  0  0  0  0  0  0  0  0  0  0  0
    6.9239  -13.2302   25.6389 C   0  0  2  0  0  0  0  0  0  0  0  0
    7.8125  -12.4120   24.7113 C   0  0  0  0  0  0  0  0  0  0  0  0
    6.5236  -14.5515   25.0672 C   0  0  2  0  0  0  0  0  0  0  0  0
    5.7163  -15.2138   26.1064 N   0  0  0  0  0  0  0  0  0  0  0  0
    7.6086  -15.4635   24.7372 C   0  0  0  0  0  0  0  0  0  0  0  0
    8.2173  -16.1355   25.6412 O   0  0  0  0  0  0  0  0  0  0  0  0
    8.1190  -15.7225   23.4133 N   0  0  0  0  0  0  0  0  0  0  0  0
    9.2276  -16.5973   23.1734 C   0  0  1  0  0  0  0  0  0  0  0  0
    9.4144  -16.8192   21.7165 C   0  0  0  0  0  0  0  0  0  0  0  0
   10.5162  -17.6909   21.2681 C   0  0  0  0  0  0  0  0  0  0  0  0
   10.6207  -17.9507   19.8215 C   0  0  0  0  0  0  0  0  0  0  0  0
    9.6160  -18.2842   19.1313 O   0  0  0  0  0  0  0  0  0  0  0  0
   10.4867  -16.1375   23.7690 C   0  0  0  0  0  0  0  0  0  0  0  0
   11.1537  -15.1924   23.2937 O   0  0  0  0  0  0  0  0  0  0  0  0
   11.8357  -17.8355   19.1694 O   0  0  0  0  0  0  0  0  0  0  0  0
   11.4145  -16.9916   29.6834 N   0  0  0  0  0  0  0  0  0  0  0  0
   10.7952  -15.8349   29.1527 C   0  0  0  0  0  0  0  0  0  0  0  0
   10.1189  -15.1077   29.9081 O   0  0  0  0  0  0  0  0  0  0  0  0
   10.9977  -15.5568   27.6895 C   0  0  0  0  0  0  0  0  0  0  0  0
   11.8715  -16.6302   27.1063 C   0  0  0  0  0  0  0  0  0  0  0  0
   12.1655  -16.4367   25.6407 C   0  0  2  0  0  0  0  0  0  0  0  0
   10.9532  -16.8030   24.9308 N   0  0  0  0  0  0  0  0  0  0  0  0
   13.2544  -17.3082   25.1467 C   0  0  0  0  0  0  0  0  0  0  0  0
   12.9889  -18.3634   24.5219 O   0  0  0  0  0  0  0  0  0  0  0  0
   14.5919  -17.0094   25.3446 O   0  0  0  0  0  0  0  0  0  0  0  0
  2  1  1  0
  2  3  1  0
  3  4  1  6
  5  3  1  0
  5  6  1  1
  7  8  2  0
  7  5  1  0
  9  7  1  0
 10  9  1  0
 10 11  1  6
 12 11  1  0
 12 13  1  0
 13 14  2  0
 15 10  1  0
 16 15  2  0
 17 13  1  0
 19 18  1  0
 20 19  2  0
 21 19  1  0
 22 21  1  0
 23 22  1  1
 23 24  1  0
 24 15  1  0
 25 23  1  0
 26 25  2  0
 27 25  1  0
M  END
$$$$
