IEQ.pdb
     RDKit          3D

 27 26  0  0  1  0  0  0  0  0999 V2000
    7.8899  -11.8119   26.7956 C   0  0  0  0  0  0  0  0  0  0  0  0
    7.5154  -13.2442   26.5684 C   0  0  0  0  0  0  0  0  0  0  0  0
    6.5851  -13.4346   25.3957 C   0  0  2  0  0  0  0  0  0  0  0  0
    5.3009  -12.6668   25.6803 C   0  0  0  0  0  0  0  0  0  0  0  0
    6.3561  -14.8707   25.0520 C   0  0  2  0  0  0  0  0  0  0  0  0
    5.9591  -15.5288   26.3089 N   0  0  0  0  0  0  0  0  0  0  0  0
    7.5080  -15.6010   24.5443 C   0  0  0  0  0  0  0  0  0  0  0  0
    8.3206  -16.2011   25.3308 O   0  0  0  0  0  0  0  0  0  0  0  0
    7.8716  -15.7420   23.1556 N   0  0  0  0  0  0  0  0  0  0  0  0
    9.1173  -16.3143   22.7406 C   0  0  1  0  0  0  0  0  0  0  0  0
    9.2627  -16.2389   21.2641 C   0  0  0  0  0  0  0  0  0  0  0  0
   10.5059  -16.7389   20.6482 C   0  0  0  0  0  0  0  0  0  0  0  0
   10.3691  -17.7496   19.5849 C   0  0  0  0  0  0  0  0  0  0  0  0
    9.9802  -17.4434   18.4221 O   0  0  0  0  0  0  0  0  0  0  0  0
   10.2906  -15.7139   23.3843 C   0  0  0  0  0  0  0  0  0  0  0  0
   10.6215  -14.5208   23.2082 O   0  0  0  0  0  0  0  0  0  0  0  0
   10.6659  -19.0785   19.8313 O   0  0  0  0  0  0  0  0  0  0  0  0
   10.7875  -16.8744   28.9673 N   0  0  0  0  0  0  0  0  0  0  0  0
   12.0687  -16.2737   28.9336 C   0  0  0  0  0  0  0  0  0  0  0  0
   12.6565  -16.0369   30.0084 O   0  0  0  0  0  0  0  0  0  0  0  0
   12.6435  -15.9562   27.5815 C   0  0  0  0  0  0  0  0  0  0  0  0
   11.6384  -16.3218   26.5271 C   0  0  0  0  0  0  0  0  0  0  0  0
   12.1035  -16.0263   25.1241 C   0  0  2  0  0  0  0  0  0  0  0  0
   11.0713  -16.5336   24.2381 N   0  0  0  0  0  0  0  0  0  0  0  0
   13.3685  -16.7099   24.7756 C   0  0  0  0  0  0  0  0  0  0  0  0
   14.4710  -16.1440   24.9726 O   0  0  0  0  0  0  0  0  0  0  0  0
   13.3987  -17.9809   24.2268 O   0  0  0  0  0  0  0  0  0  0  0  0
  2  1  1  0
  2  3  1  0
  3  4  1  1
  5  3  1  0
  5  6  1  1
  7  8  2  0
  7  5  1  0
  9  7  1  0
 10  9  1  0
 10 11  1  6
 12 11  1  0
 12 13  1  0
 13 14  2  0
 15 10  1  0
 16 15  2  0
 17 13  1  0
 19 18  1  0
 20 19  2  0
 21 19  1  0
 22 21  1  0
 23 22  1  1
 23 24  1  0
 24 15  1  0
 25 23  1  0
 26 25  2  0
 27 25  1  0
M  END
$$$$
