IEQ.pdb
     RDKit          3D

 27 26  0  0  1  0  0  0  0  0999 V2000
    6.1743  -11.5994   26.7188 C   0  0  0  0  0  0  0  0  0  0  0  0
    5.9050  -12.8245   25.9003 C   0  0  0  0  0  0  0  0  0  0  0  0
    7.1356  -13.6676   25.6731 C   0  0  2  0  0  0  0  0  0  0  0  0
    8.1986  -12.7895   25.0260 C   0  0  0  0  0  0  0  0  0  0  0  0
    6.8575  -14.9236   24.9127 C   0  0  2  0  0  0  0  0  0  0  0  0
    5.8225  -15.6392   25.6788 N   0  0  0  0  0  0  0  0  0  0  0  0
    7.9752  -15.8432   24.7610 C   0  0  0  0  0  0  0  0  0  0  0  0
    8.3110  -16.6496   25.6970 O   0  0  0  0  0  0  0  0  0  0  0  0
    8.8134  -15.9660   23.5936 N   0  0  0  0  0  0  0  0  0  0  0  0
    9.9286  -16.8630   23.5379 C   0  0  1  0  0  0  0  0  0  0  0  0
   10.4146  -17.0091   22.1418 C   0  0  0  0  0  0  0  0  0  0  0  0
    9.4595  -17.4281   21.0992 C   0  0  0  0  0  0  0  0  0  0  0  0
    9.9735  -17.5382   19.7228 C   0  0  0  0  0  0  0  0  0  0  0  0
   11.1156  -17.1022   19.4024 O   0  0  0  0  0  0  0  0  0  0  0  0
   11.0429  -16.4804   24.4119 C   0  0  0  0  0  0  0  0  0  0  0  0
   11.6347  -15.3833   24.3111 O   0  0  0  0  0  0  0  0  0  0  0  0
    9.2121  -18.1289   18.7298 O   0  0  0  0  0  0  0  0  0  0  0  0
   11.1991  -13.8726   28.6287 N   0  0  0  0  0  0  0  0  0  0  0  0
   10.5165  -15.0717   28.9435 C   0  0  0  0  0  0  0  0  0  0  0  0
    9.6397  -15.0559   29.8312 O   0  0  0  0  0  0  0  0  0  0  0  0
   10.9013  -16.3041   28.1738 C   0  0  0  0  0  0  0  0  0  0  0  0
   11.9858  -15.9493   27.1972 C   0  0  0  0  0  0  0  0  0  0  0  0
   12.4805  -17.1249   26.3939 C   0  0  2  0  0  0  0  0  0  0  0  0
   11.4535  -17.4038   25.4063 N   0  0  0  0  0  0  0  0  0  0  0  0
   12.6640  -18.3475   27.2067 C   0  0  0  0  0  0  0  0  0  0  0  0
   13.5917  -18.4167   28.0488 O   0  0  0  0  0  0  0  0  0  0  0  0
   11.8390  -19.4526   27.0819 O   0  0  0  0  0  0  0  0  0  0  0  0
  2  1  1  0
  2  3  1  0
  3  4  1  6
  5  3  1  0
  5  6  1  1
  7  8  2  0
  7  5  1  0
  9  7  1  0
 10  9  1  0
 10 11  1  6
 12 11  1  0
 12 13  1  0
 13 14  2  0
 15 10  1  0
 16 15  2  0
 17 13  1  0
 19 18  1  0
 20 19  2  0
 21 19  1  0
 22 21  1  0
 23 22  1  1
 23 24  1  0
 24 15  1  0
 25 23  1  0
 26 25  2  0
 27 25  1  0
M  END
$$$$
