IEQ.pdb
     RDKit          3D

 27 26  0  0  1  0  0  0  0  0999 V2000
    7.6844  -12.4089   19.4564 C   0  0  0  0  0  0  0  0  0  0  0  0
    7.5616  -12.9353   20.8532 C   0  0  0  0  0  0  0  0  0  0  0  0
    7.9448  -14.3898   20.9742 C   0  0  2  0  0  0  0  0  0  0  0  0
    7.1807  -15.1707   19.9131 C   0  0  0  0  0  0  0  0  0  0  0  0
    7.7686  -14.9328   22.3551 C   0  0  2  0  0  0  0  0  0  0  0  0
    8.0309  -13.8072   23.2687 N   0  0  0  0  0  0  0  0  0  0  0  0
    8.6727  -16.0050   22.7436 C   0  0  0  0  0  0  0  0  0  0  0  0
    8.2779  -17.2207   22.8167 O   0  0  0  0  0  0  0  0  0  0  0  0
   10.0668  -15.8517   23.0805 N   0  0  0  0  0  0  0  0  0  0  0  0
   10.8707  -16.9424   23.5448 C   0  0  1  0  0  0  0  0  0  0  0  0
   11.9459  -17.2540   22.5682 C   0  0  0  0  0  0  0  0  0  0  0  0
   11.5723  -17.5419   21.1710 C   0  0  0  0  0  0  0  0  0  0  0  0
   12.6660  -17.8540   20.2342 C   0  0  0  0  0  0  0  0  0  0  0  0
   13.8366  -17.4102   20.4068 O   0  0  0  0  0  0  0  0  0  0  0  0
   11.4561  -16.7259   24.8723 C   0  0  0  0  0  0  0  0  0  0  0  0
   12.3573  -15.8852   25.0844 O   0  0  0  0  0  0  0  0  0  0  0  0
   12.4406  -18.6512   19.1259 O   0  0  0  0  0  0  0  0  0  0  0  0
   10.2880  -13.5172   28.5485 N   0  0  0  0  0  0  0  0  0  0  0  0
    9.2327  -14.2316   27.9326 C   0  0  0  0  0  0  0  0  0  0  0  0
    8.1024  -13.7072   27.8661 O   0  0  0  0  0  0  0  0  0  0  0  0
    9.5511  -15.5973   27.3915 C   0  0  0  0  0  0  0  0  0  0  0  0
   10.9832  -15.9235   27.7055 C   0  0  0  0  0  0  0  0  0  0  0  0
   11.3764  -17.3294   27.3300 C   0  0  2  0  0  0  0  0  0  0  0  0
   10.9691  -17.5103   25.9482 N   0  0  0  0  0  0  0  0  0  0  0  0
   10.6885  -18.3603   28.1382 C   0  0  0  0  0  0  0  0  0  0  0  0
    9.8113  -19.0925   27.6198 O   0  0  0  0  0  0  0  0  0  0  0  0
   10.9726  -18.5646   29.4780 O   0  0  0  0  0  0  0  0  0  0  0  0
  2  1  1  0
  2  3  1  0
  3  4  1  6
  5  3  1  0
  5  6  1  1
  7  8  2  0
  7  5  1  0
  9  7  1  0
 10  9  1  0
 10 11  1  6
 12 11  1  0
 12 13  1  0
 13 14  2  0
 15 10  1  0
 16 15  2  0
 17 13  1  0
 19 18  1  0
 20 19  2  0
 21 19  1  0
 22 21  1  0
 23 22  1  1
 23 24  1  0
 24 15  1  0
 25 23  1  0
 26 25  2  0
 27 25  1  0
M  END
$$$$
