IEQ.pdb
     RDKit          3D

 27 26  0  0  1  0  0  0  0  0999 V2000
    6.4572  -11.7711   27.3601 C   0  0  0  0  0  0  0  0  0  0  0  0
    6.0960  -12.9268   26.4784 C   0  0  0  0  0  0  0  0  0  0  0  0
    7.2973  -13.7017   25.9953 C   0  0  2  0  0  0  0  0  0  0  0  0
    8.2600  -12.7216   25.3378 C   0  0  0  0  0  0  0  0  0  0  0  0
    6.9392  -14.8605   25.1225 C   0  0  2  0  0  0  0  0  0  0  0  0
    5.9731  -15.6631   25.8923 N   0  0  0  0  0  0  0  0  0  0  0  0
    8.0300  -15.7536   24.7615 C   0  0  0  0  0  0  0  0  0  0  0  0
    8.5109  -16.5957   25.5975 O   0  0  0  0  0  0  0  0  0  0  0  0
    8.6837  -15.8098   23.4770 N   0  0  0  0  0  0  0  0  0  0  0  0
    9.8134  -16.6535   23.2247 C   0  0  1  0  0  0  0  0  0  0  0  0
   10.0882  -16.7396   21.7674 C   0  0  0  0  0  0  0  0  0  0  0  0
    9.2391  -17.6135   20.9367 C   0  0  0  0  0  0  0  0  0  0  0  0
    9.8879  -18.7750   20.3035 C   0  0  0  0  0  0  0  0  0  0  0  0
    9.7501  -19.9451   20.7608 O   0  0  0  0  0  0  0  0  0  0  0  0
   11.0304  -16.2443   23.9340 C   0  0  0  0  0  0  0  0  0  0  0  0
   11.7176  -15.2596   23.5845 O   0  0  0  0  0  0  0  0  0  0  0  0
   10.6758  -18.6167   19.1771 O   0  0  0  0  0  0  0  0  0  0  0  0
   11.0676  -16.3685   29.7415 N   0  0  0  0  0  0  0  0  0  0  0  0
   10.5848  -15.3653   28.8676 C   0  0  0  0  0  0  0  0  0  0  0  0
    9.7855  -14.5127   29.3049 O   0  0  0  0  0  0  0  0  0  0  0  0
   11.0760  -15.3963   27.4473 C   0  0  0  0  0  0  0  0  0  0  0  0
   12.0510  -16.5285   27.2941 C   0  0  0  0  0  0  0  0  0  0  0  0
   12.5768  -16.6839   25.8901 C   0  0  2  0  0  0  0  0  0  0  0  0
   11.4305  -17.0076   25.0599 N   0  0  0  0  0  0  0  0  0  0  0  0
   13.5536  -17.7870   25.7546 C   0  0  0  0  0  0  0  0  0  0  0  0
   14.6952  -17.6904   26.2662 O   0  0  0  0  0  0  0  0  0  0  0  0
   13.2630  -18.9560   25.0716 O   0  0  0  0  0  0  0  0  0  0  0  0
  2  1  1  0
  2  3  1  0
  3  4  1  6
  5  3  1  0
  5  6  1  1
  7  8  2  0
  7  5  1  0
  9  7  1  0
 10  9  1  0
 10 11  1  6
 12 11  1  0
 12 13  1  0
 13 14  2  0
 15 10  1  0
 16 15  2  0
 17 13  1  0
 19 18  1  0
 20 19  2  0
 21 19  1  0
 22 21  1  0
 23 22  1  1
 23 24  1  0
 24 15  1  0
 25 23  1  0
 26 25  2  0
 27 25  1  0
M  END
$$$$
