IEQ.pdb
     RDKit          3D

 27 26  0  0  1  0  0  0  0  0999 V2000
    5.9917  -11.5983   26.6142 C   0  0  0  0  0  0  0  0  0  0  0  0
    5.7300  -12.8734   25.8732 C   0  0  0  0  0  0  0  0  0  0  0  0
    6.9868  -13.6522   25.5717 C   0  0  2  0  0  0  0  0  0  0  0  0
    7.9342  -12.7426   24.8006 C   0  0  0  0  0  0  0  0  0  0  0  0
    6.7234  -14.9544   24.8876 C   0  0  2  0  0  0  0  0  0  0  0  0
    5.8529  -15.7199   25.7968 N   0  0  0  0  0  0  0  0  0  0  0  0
    7.8869  -15.7878   24.6236 C   0  0  0  0  0  0  0  0  0  0  0  0
    8.4194  -16.5048   25.5409 O   0  0  0  0  0  0  0  0  0  0  0  0
    8.5632  -15.9140   23.3559 N   0  0  0  0  0  0  0  0  0  0  0  0
    9.7438  -16.7076   23.1892 C   0  0  1  0  0  0  0  0  0  0  0  0
   10.0808  -16.8501   21.7495 C   0  0  0  0  0  0  0  0  0  0  0  0
    9.2026  -17.6695   20.8939 C   0  0  0  0  0  0  0  0  0  0  0  0
    8.9591  -17.1862   19.5235 C   0  0  0  0  0  0  0  0  0  0  0  0
    7.7899  -16.9999   19.0817 O   0  0  0  0  0  0  0  0  0  0  0  0
   10.9089  -16.2002   23.9219 C   0  0  0  0  0  0  0  0  0  0  0  0
   11.3361  -15.0327   23.7868 O   0  0  0  0  0  0  0  0  0  0  0  0
   10.0156  -16.9191   18.6708 O   0  0  0  0  0  0  0  0  0  0  0  0
   11.1810  -13.9322   28.4984 N   0  0  0  0  0  0  0  0  0  0  0  0
   10.6851  -15.2414   28.7065 C   0  0  0  0  0  0  0  0  0  0  0  0
    9.9356  -15.4590   29.6801 O   0  0  0  0  0  0  0  0  0  0  0  0
   11.1028  -16.2989   27.7234 C   0  0  0  0  0  0  0  0  0  0  0  0
   11.9722  -15.6703   26.6723 C   0  0  0  0  0  0  0  0  0  0  0  0
   12.6074  -16.6699   25.7399 C   0  0  2  0  0  0  0  0  0  0  0  0
   11.5665  -17.0827   24.8157 N   0  0  0  0  0  0  0  0  0  0  0  0
   13.0966  -17.8818   26.4337 C   0  0  0  0  0  0  0  0  0  0  0  0
   14.0871  -17.8175   27.2013 O   0  0  0  0  0  0  0  0  0  0  0  0
   12.4987  -19.1205   26.2745 O   0  0  0  0  0  0  0  0  0  0  0  0
  2  1  1  0
  2  3  1  0
  3  4  1  6
  5  3  1  0
  5  6  1  1
  7  8  2  0
  7  5  1  0
  9  7  1  0
 10  9  1  0
 10 11  1  6
 12 11  1  0
 12 13  1  0
 13 14  2  0
 15 10  1  0
 16 15  2  0
 17 13  1  0
 19 18  1  0
 20 19  2  0
 21 19  1  0
 22 21  1  0
 23 22  1  1
 23 24  1  0
 24 15  1  0
 25 23  1  0
 26 25  2  0
 27 25  1  0
M  END
$$$$
