IEQ.pdb
     RDKit          3D

 27 26  0  0  1  0  0  0  0  0999 V2000
    6.1812  -12.0421   27.5538 C   0  0  0  0  0  0  0  0  0  0  0  0
    5.8848  -13.0324   26.4700 C   0  0  0  0  0  0  0  0  0  0  0  0
    7.0903  -13.8435   26.0626 C   0  0  2  0  0  0  0  0  0  0  0  0
    8.2004  -12.8776   25.6696 C   0  0  0  0  0  0  0  0  0  0  0  0
    6.7879  -14.8620   25.0118 C   0  0  2  0  0  0  0  0  0  0  0  0
    5.6821  -15.6766   25.5447 N   0  0  0  0  0  0  0  0  0  0  0  0
    7.8645  -15.7841   24.6825 C   0  0  0  0  0  0  0  0  0  0  0  0
    8.2427  -16.6923   25.5018 O   0  0  0  0  0  0  0  0  0  0  0  0
    8.6131  -15.8002   23.4497 N   0  0  0  0  0  0  0  0  0  0  0  0
    9.7620  -16.6337   23.2580 C   0  0  1  0  0  0  0  0  0  0  0  0
   10.1422  -16.6803   21.8227 C   0  0  0  0  0  0  0  0  0  0  0  0
   11.2332  -17.5815   21.4076 C   0  0  0  0  0  0  0  0  0  0  0  0
   11.5694  -17.6125   19.9734 C   0  0  0  0  0  0  0  0  0  0  0  0
   10.7202  -17.9438   19.0981 O   0  0  0  0  0  0  0  0  0  0  0  0
   10.9225  -16.2403   24.0644 C   0  0  0  0  0  0  0  0  0  0  0  0
   11.2174  -15.0454   24.2863 O   0  0  0  0  0  0  0  0  0  0  0  0
   12.8391  -17.2760   19.5382 O   0  0  0  0  0  0  0  0  0  0  0  0
    9.8444  -15.7838   28.7085 N   0  0  0  0  0  0  0  0  0  0  0  0
   11.1195  -16.1068   29.2309 C   0  0  0  0  0  0  0  0  0  0  0  0
   11.3183  -15.9973   30.4579 O   0  0  0  0  0  0  0  0  0  0  0  0
   12.1656  -16.5676   28.2549 C   0  0  0  0  0  0  0  0  0  0  0  0
   11.5451  -16.6760   26.8914 C   0  0  0  0  0  0  0  0  0  0  0  0
   12.5098  -17.1290   25.8255 C   0  0  2  0  0  0  0  0  0  0  0  0
   11.7331  -17.2693   24.6069 N   0  0  0  0  0  0  0  0  0  0  0  0
   13.1242  -18.4427   26.1186 C   0  0  0  0  0  0  0  0  0  0  0  0
   14.3076  -18.5123   26.5301 O   0  0  0  0  0  0  0  0  0  0  0  0
   12.4389  -19.6351   25.9576 O   0  0  0  0  0  0  0  0  0  0  0  0
  2  1  1  0
  2  3  1  0
  3  4  1  6
  5  3  1  0
  5  6  1  1
  7  8  2  0
  7  5  1  0
  9  7  1  0
 10  9  1  0
 10 11  1  6
 12 11  1  0
 12 13  1  0
 13 14  2  0
 15 10  1  0
 16 15  2  0
 17 13  1  0
 19 18  1  0
 20 19  2  0
 21 19  1  0
 22 21  1  0
 23 22  1  1
 23 24  1  0
 24 15  1  0
 25 23  1  0
 26 25  2  0
 27 25  1  0
M  END
$$$$
