IEQ.pdb
     RDKit          3D

 27 26  0  0  1  0  0  0  0  0999 V2000
    6.4120  -12.0569   27.3052 C   0  0  0  0  0  0  0  0  0  0  0  0
    6.0302  -13.2152   26.4358 C   0  0  0  0  0  0  0  0  0  0  0  0
    7.2174  -14.0179   25.9631 C   0  0  2  0  0  0  0  0  0  0  0  0
    8.2482  -13.0503   25.3967 C   0  0  0  0  0  0  0  0  0  0  0  0
    6.8485  -15.1150   25.0179 C   0  0  2  0  0  0  0  0  0  0  0  0
    5.8402  -15.9297   25.7180 N   0  0  0  0  0  0  0  0  0  0  0  0
    7.9220  -16.0191   24.6333 C   0  0  0  0  0  0  0  0  0  0  0  0
    8.1099  -17.1316   25.2385 O   0  0  0  0  0  0  0  0  0  0  0  0
    8.8714  -15.7967   23.5705 N   0  0  0  0  0  0  0  0  0  0  0  0
    9.7396  -16.8277   23.0859 C   0  0  1  0  0  0  0  0  0  0  0  0
   10.2786  -16.4732   21.7478 C   0  0  0  0  0  0  0  0  0  0  0  0
   11.1921  -17.4181   21.0788 C   0  0  0  0  0  0  0  0  0  0  0  0
   11.7964  -16.9819   19.8078 C   0  0  0  0  0  0  0  0  0  0  0  0
   11.1233  -16.9126   18.7405 O   0  0  0  0  0  0  0  0  0  0  0  0
   10.8450  -17.1492   23.9950 C   0  0  0  0  0  0  0  0  0  0  0  0
   11.6441  -18.0873   23.7819 O   0  0  0  0  0  0  0  0  0  0  0  0
   13.1336  -16.6315   19.7452 O   0  0  0  0  0  0  0  0  0  0  0  0
   11.2894  -13.0229   28.0748 N   0  0  0  0  0  0  0  0  0  0  0  0
   10.6883  -14.1213   28.7346 C   0  0  0  0  0  0  0  0  0  0  0  0
   10.0317  -13.9184   29.7760 O   0  0  0  0  0  0  0  0  0  0  0  0
   10.8858  -15.4811   28.1253 C   0  0  0  0  0  0  0  0  0  0  0  0
   11.9742  -15.3988   27.0936 C   0  0  0  0  0  0  0  0  0  0  0  0
   12.0171  -16.5876   26.1679 C   0  0  2  0  0  0  0  0  0  0  0  0
   10.9997  -16.3544   25.1588 N   0  0  0  0  0  0  0  0  0  0  0  0
   11.6924  -17.8626   26.8448 C   0  0  0  0  0  0  0  0  0  0  0  0
   10.6068  -18.4468   26.6113 O   0  0  0  0  0  0  0  0  0  0  0  0
   12.5519  -18.4624   27.7499 O   0  0  0  0  0  0  0  0  0  0  0  0
  2  1  1  0
  2  3  1  0
  3  4  1  6
  5  3  1  0
  5  6  1  1
  7  8  2  0
  7  5  1  0
  9  7  1  0
 10  9  1  0
 10 11  1  6
 12 11  1  0
 12 13  1  0
 13 14  2  0
 15 10  1  0
 16 15  2  0
 17 13  1  0
 19 18  1  0
 20 19  2  0
 21 19  1  0
 22 21  1  0
 23 22  1  1
 23 24  1  0
 24 15  1  0
 25 23  1  0
 26 25  2  0
 27 25  1  0
M  END
$$$$
