IEQ.pdb
     RDKit          3D

 27 26  0  0  1  0  0  0  0  0999 V2000
    6.1912  -11.3529   26.8552 C   0  0  0  0  0  0  0  0  0  0  0  0
    5.7850  -12.5053   25.9890 C   0  0  0  0  0  0  0  0  0  0  0  0
    6.9184  -13.4592   25.7019 C   0  0  2  0  0  0  0  0  0  0  0  0
    8.0964  -12.6501   25.1750 C   0  0  0  0  0  0  0  0  0  0  0  0
    6.5252  -14.5896   24.8073 C   0  0  2  0  0  0  0  0  0  0  0  0
    5.4570  -15.3143   25.5173 N   0  0  0  0  0  0  0  0  0  0  0  0
    7.5641  -15.5642   24.5097 C   0  0  0  0  0  0  0  0  0  0  0  0
    7.9080  -16.4576   25.3599 O   0  0  0  0  0  0  0  0  0  0  0  0
    8.3092  -15.6526   23.2778 N   0  0  0  0  0  0  0  0  0  0  0  0
    9.3277  -16.6366   23.0634 C   0  0  1  0  0  0  0  0  0  0  0  0
    9.8408  -16.5651   21.6711 C   0  0  0  0  0  0  0  0  0  0  0  0
   10.8013  -17.5877   21.2166 C   0  0  0  0  0  0  0  0  0  0  0  0
   11.2377  -17.5213   19.8109 C   0  0  0  0  0  0  0  0  0  0  0  0
   10.9679  -18.4405   18.9866 O   0  0  0  0  0  0  0  0  0  0  0  0
   10.4466  -16.5488   24.0078 C   0  0  0  0  0  0  0  0  0  0  0  0
   11.0182  -15.4703   24.2799 O   0  0  0  0  0  0  0  0  0  0  0  0
   11.9635  -16.4384   19.3471 O   0  0  0  0  0  0  0  0  0  0  0  0
    9.9855  -19.7018   28.8619 N   0  0  0  0  0  0  0  0  0  0  0  0
   11.3561  -19.4415   29.1004 C   0  0  0  0  0  0  0  0  0  0  0  0
   11.8570  -19.7793   30.1922 O   0  0  0  0  0  0  0  0  0  0  0  0
   12.1282  -18.7637   28.0033 C   0  0  0  0  0  0  0  0  0  0  0  0
   11.1990  -18.4799   26.8578 C   0  0  0  0  0  0  0  0  0  0  0  0
   11.8678  -17.7879   25.6977 C   0  0  2  0  0  0  0  0  0  0  0  0
   10.8862  -17.7452   24.6288 N   0  0  0  0  0  0  0  0  0  0  0  0
   13.0509  -18.5173   25.1902 C   0  0  0  0  0  0  0  0  0  0  0  0
   12.9101  -19.4965   24.4184 O   0  0  0  0  0  0  0  0  0  0  0  0
   14.3448  -18.1632   25.5338 O   0  0  0  0  0  0  0  0  0  0  0  0
  2  1  1  0
  2  3  1  0
  3  4  1  6
  5  3  1  0
  5  6  1  1
  7  8  2  0
  7  5  1  0
  9  7  1  0
 10  9  1  0
 10 11  1  6
 12 11  1  0
 12 13  1  0
 13 14  2  0
 15 10  1  0
 16 15  2  0
 17 13  1  0
 19 18  1  0
 20 19  2  0
 21 19  1  0
 22 21  1  0
 23 22  1  1
 23 24  1  0
 24 15  1  0
 25 23  1  0
 26 25  2  0
 27 25  1  0
M  END
$$$$
