IEQ.pdb
     RDKit          3D

 27 26  0  0  1  0  0  0  0  0999 V2000
    8.0272  -12.4166   19.4921 C   0  0  0  0  0  0  0  0  0  0  0  0
    6.9649  -13.3414   20.0015 C   0  0  0  0  0  0  0  0  0  0  0  0
    7.4887  -14.3638   20.9799 C   0  0  2  0  0  0  0  0  0  0  0  0
    7.8904  -13.6359   22.2560 C   0  0  0  0  0  0  0  0  0  0  0  0
    8.5766  -15.2178   20.4142 C   0  0  2  0  0  0  0  0  0  0  0  0
    7.9688  -15.9578   19.2946 N   0  0  0  0  0  0  0  0  0  0  0  0
    9.1449  -16.2121   21.3121 C   0  0  0  0  0  0  0  0  0  0  0  0
    8.4035  -17.0243   21.9677 O   0  0  0  0  0  0  0  0  0  0  0  0
   10.5501  -16.4088   21.5712 N   0  0  0  0  0  0  0  0  0  0  0  0
   11.0291  -17.3301   22.5578 C   0  0  1  0  0  0  0  0  0  0  0  0
   12.4613  -17.6488   22.3259 C   0  0  0  0  0  0  0  0  0  0  0  0
   13.1328  -18.5958   23.2354 C   0  0  0  0  0  0  0  0  0  0  0  0
   14.5525  -18.8883   22.9714 C   0  0  0  0  0  0  0  0  0  0  0  0
   15.4798  -18.3139   23.6094 O   0  0  0  0  0  0  0  0  0  0  0  0
   10.8418  -16.8720   23.9387 C   0  0  0  0  0  0  0  0  0  0  0  0
   11.4544  -15.8908   24.4141 O   0  0  0  0  0  0  0  0  0  0  0  0
   14.9158  -19.8111   22.0064 O   0  0  0  0  0  0  0  0  0  0  0  0
    6.4106  -19.2460   25.4324 N   0  0  0  0  0  0  0  0  0  0  0  0
    6.2958  -17.9346   24.9126 C   0  0  0  0  0  0  0  0  0  0  0  0
    5.3879  -17.6834   24.0943 O   0  0  0  0  0  0  0  0  0  0  0  0
    7.2930  -16.9163   25.3900 C   0  0  0  0  0  0  0  0  0  0  0  0
    8.2105  -17.5637   26.3874 C   0  0  0  0  0  0  0  0  0  0  0  0
    9.6680  -17.2634   26.1477 C   0  0  2  0  0  0  0  0  0  0  0  0
    9.9253  -17.5821   24.7548 N   0  0  0  0  0  0  0  0  0  0  0  0
   10.5749  -18.0927   26.9718 C   0  0  0  0  0  0  0  0  0  0  0  0
   10.8475  -19.2683   26.6283 O   0  0  0  0  0  0  0  0  0  0  0  0
   11.1560  -17.6230   28.1376 O   0  0  0  0  0  0  0  0  0  0  0  0
  2  1  1  0
  2  3  1  0
  3  4  1  1
  5  3  1  0
  5  6  1  6
  7  8  2  0
  7  5  1  0
  9  7  1  0
 10  9  1  0
 10 11  1  6
 12 11  1  0
 12 13  1  0
 13 14  2  0
 15 10  1  0
 16 15  2  0
 17 13  1  0
 19 18  1  0
 20 19  2  0
 21 19  1  0
 22 21  1  0
 23 22  1  1
 23 24  1  0
 24 15  1  0
 25 23  1  0
 26 25  2  0
 27 25  1  0
M  END
$$$$
