IEQ.pdb
     RDKit          3D

 27 26  0  0  1  0  0  0  0  0999 V2000
    7.0669  -11.8089   19.4029 C   0  0  0  0  0  0  0  0  0  0  0  0
    7.4562  -13.2248   19.1079 C   0  0  0  0  0  0  0  0  0  0  0  0
    7.9728  -13.9620   20.3190 C   0  0  2  0  0  0  0  0  0  0  0  0
    9.0983  -13.1381   20.9305 C   0  0  0  0  0  0  0  0  0  0  0  0
    8.3603  -15.3754   20.0277 C   0  0  2  0  0  0  0  0  0  0  0  0
    7.1264  -16.0510   19.5901 N   0  0  0  0  0  0  0  0  0  0  0  0
    8.8808  -16.1427   21.1495 C   0  0  0  0  0  0  0  0  0  0  0  0
    8.1130  -16.5787   22.0765 O   0  0  0  0  0  0  0  0  0  0  0  0
   10.2627  -16.4994   21.3579 N   0  0  0  0  0  0  0  0  0  0  0  0
   10.7168  -17.1570   22.5465 C   0  0  1  0  0  0  0  0  0  0  0  0
   12.0350  -17.8026   22.3174 C   0  0  0  0  0  0  0  0  0  0  0  0
   12.6793  -18.5146   23.4367 C   0  0  0  0  0  0  0  0  0  0  0  0
   13.9921  -19.1298   23.1742 C   0  0  0  0  0  0  0  0  0  0  0  0
   14.1600  -19.9670   22.2425 O   0  0  0  0  0  0  0  0  0  0  0  0
   10.7935  -16.2787   23.7189 C   0  0  0  0  0  0  0  0  0  0  0  0
   11.1964  -15.0966   23.6524 O   0  0  0  0  0  0  0  0  0  0  0  0
   15.0917  -18.8052   23.9488 O   0  0  0  0  0  0  0  0  0  0  0  0
    6.8244  -13.6696   25.0270 N   0  0  0  0  0  0  0  0  0  0  0  0
    7.2408  -13.4522   26.3622 C   0  0  0  0  0  0  0  0  0  0  0  0
    6.6467  -12.5989   27.0520 O   0  0  0  0  0  0  0  0  0  0  0  0
    8.3907  -14.2783   26.8667 C   0  0  0  0  0  0  0  0  0  0  0  0
    8.9048  -15.1338   25.7443 C   0  0  0  0  0  0  0  0  0  0  0  0
   10.0825  -15.9911   26.1319 C   0  0  2  0  0  0  0  0  0  0  0  0
   10.3909  -16.8072   24.9714 N   0  0  0  0  0  0  0  0  0  0  0  0
    9.7896  -16.9056   27.2575 C   0  0  0  0  0  0  0  0  0  0  0  0
    9.8684  -16.4997   28.4422 O   0  0  0  0  0  0  0  0  0  0  0  0
    9.4215  -18.2265   27.0642 O   0  0  0  0  0  0  0  0  0  0  0  0
  2  1  1  0
  2  3  1  0
  3  4  1  6
  5  3  1  0
  5  6  1  1
  7  8  2  0
  7  5  1  0
  9  7  1  0
 10  9  1  0
 10 11  1  6
 12 11  1  0
 12 13  1  0
 13 14  2  0
 15 10  1  0
 16 15  2  0
 17 13  1  0
 19 18  1  0
 20 19  2  0
 21 19  1  0
 22 21  1  0
 23 22  1  6
 23 24  1  0
 24 15  1  0
 25 23  1  0
 26 25  2  0
 27 25  1  0
M  END
$$$$
