IEQ.pdb
     RDKit          3D

 27 26  0  0  1  0  0  0  0  0999 V2000
    6.0751  -11.6689   27.1599 C   0  0  0  0  0  0  0  0  0  0  0  0
    5.7608  -12.8485   26.2922 C   0  0  0  0  0  0  0  0  0  0  0  0
    6.9899  -13.6072   25.8555 C   0  0  2  0  0  0  0  0  0  0  0  0
    7.9273  -12.6296   25.1590 C   0  0  0  0  0  0  0  0  0  0  0  0
    6.6758  -14.8169   25.0364 C   0  0  2  0  0  0  0  0  0  0  0  0
    5.7427  -15.6211   25.8445 N   0  0  0  0  0  0  0  0  0  0  0  0
    7.7999  -15.6824   24.7123 C   0  0  0  0  0  0  0  0  0  0  0  0
    8.2966  -16.4870   25.5754 O   0  0  0  0  0  0  0  0  0  0  0  0
    8.4725  -15.7491   23.4380 N   0  0  0  0  0  0  0  0  0  0  0  0
    9.6043  -16.5963   23.2087 C   0  0  1  0  0  0  0  0  0  0  0  0
    9.9304  -16.6549   21.7606 C   0  0  0  0  0  0  0  0  0  0  0  0
   11.0432  -17.5160   21.3191 C   0  0  0  0  0  0  0  0  0  0  0  0
   11.3004  -17.5908   19.8703 C   0  0  0  0  0  0  0  0  0  0  0  0
   12.4744  -17.6349   19.4045 O   0  0  0  0  0  0  0  0  0  0  0  0
   10.7981  -16.2115   23.9692 C   0  0  0  0  0  0  0  0  0  0  0  0
   11.4495  -15.1724   23.7243 O   0  0  0  0  0  0  0  0  0  0  0  0
   10.2522  -17.6152   18.9673 O   0  0  0  0  0  0  0  0  0  0  0  0
   11.0946  -16.6950   29.7472 N   0  0  0  0  0  0  0  0  0  0  0  0
   10.6890  -15.5771   28.9797 C   0  0  0  0  0  0  0  0  0  0  0  0
    9.9915  -14.6929   29.5169 O   0  0  0  0  0  0  0  0  0  0  0  0
   11.1336  -15.5309   27.5446 C   0  0  0  0  0  0  0  0  0  0  0  0
   11.9555  -16.7530   27.2500 C   0  0  0  0  0  0  0  0  0  0  0  0
   12.4121  -16.8398   25.8161 C   0  0  2  0  0  0  0  0  0  0  0  0
   11.2177  -17.0638   25.0217 N   0  0  0  0  0  0  0  0  0  0  0  0
   13.3337  -17.9703   25.5676 C   0  0  0  0  0  0  0  0  0  0  0  0
   14.5398  -17.8920   25.9050 O   0  0  0  0  0  0  0  0  0  0  0  0
   12.9205  -19.1459   24.9638 O   0  0  0  0  0  0  0  0  0  0  0  0
  2  1  1  0
  2  3  1  0
  3  4  1  6
  5  3  1  0
  5  6  1  1
  7  8  2  0
  7  5  1  0
  9  7  1  0
 10  9  1  0
 10 11  1  6
 12 11  1  0
 12 13  1  0
 13 14  2  0
 15 10  1  0
 16 15  2  0
 17 13  1  0
 19 18  1  0
 20 19  2  0
 21 19  1  0
 22 21  1  0
 23 22  1  1
 23 24  1  0
 24 15  1  0
 25 23  1  0
 26 25  2  0
 27 25  1  0
M  END
$$$$
