NRR.pdb
     RDKit          3D

 31 30  0  0  1  0  0  0  0  0999 V2000
   21.9387  -20.2141   -8.8998 N   0  0  0  0  0  0  0  0  0  0  0  0
   23.0477  -21.0212   -9.3007 C   0  0  0  0  0  0  0  0  0  0  0  0
   23.4769  -21.9381   -8.5838 O   0  0  0  0  0  0  0  0  0  0  0  0
   23.6529  -20.7102  -10.6037 C   0  0  0  0  0  0  0  0  0  0  0  0
   25.1392  -20.7082  -10.5211 C   0  0  2  0  0  0  0  0  0  0  0  0
   25.7044  -20.0858   -9.3680 N   0  0  0  0  0  0  0  0  0  0  0  0
   25.7217  -20.0864  -11.7529 C   0  0  0  0  0  0  0  0  0  0  0  0
   25.1062  -19.0825  -12.2527 O   0  0  0  0  0  0  0  0  0  0  0  0
   31.9183  -20.6076  -10.2873 N   0  0  0  0  0  0  0  0  0  0  0  0
   31.6115  -21.9945  -10.2961 C   0  0  0  0  0  0  0  0  0  0  0  0
   31.8312  -22.7155   -9.2510 N   0  0  0  0  0  0  0  0  0  0  0  0
   31.0614  -22.5563  -11.4770 N   0  0  0  0  0  0  0  0  0  0  0  0
   30.7813  -21.7128  -12.6161 C   0  0  0  0  0  0  0  0  0  0  0  0
   29.3620  -21.1590  -12.4318 C   0  0  0  0  0  0  0  0  0  0  0  0
   28.9438  -20.3686  -13.6349 C   0  0  0  0  0  0  0  0  0  0  0  0
   27.4993  -19.9675  -13.5210 C   0  0  2  0  0  0  0  0  0  0  0  0
   26.9003  -20.5893  -12.3355 N   0  0  0  0  0  0  0  0  0  0  0  0
   26.7439  -20.4504  -14.6851 C   0  0  0  0  0  0  0  0  0  0  0  0
   27.0416  -20.1712  -15.8838 O   0  0  0  0  0  0  0  0  0  0  0  0
   31.6611  -23.7420   -9.2372 N   0  0  0  0  0  0  0  0  0  0  0  0
   23.7205  -26.3739  -15.7314 C   0  0  0  0  0  0  0  0  0  0  0  0
   22.5727  -26.0157  -14.9746 N   0  0  0  0  0  0  0  0  0  0  0  0
   22.2593  -26.7350  -13.9650 N   0  0  0  0  0  0  0  0  0  0  0  0
   21.7789  -24.8836  -15.3225 C   0  0  0  0  0  0  0  0  0  0  0  0
   22.1514  -24.1345  -16.4949 C   0  0  0  0  0  0  0  0  0  0  0  0
   22.6965  -22.7528  -16.1115 C   0  0  0  0  0  0  0  0  0  0  0  0
   23.9559  -22.8811  -15.3199 C   0  0  1  0  0  0  0  0  0  0  0  0
   24.9326  -21.7943  -15.6909 N   0  0  0  0  0  0  0  0  0  0  0  0
   25.5955  -21.2893  -14.4884 C   0  0  0  0  0  0  0  0  0  0  0  0
   24.1777  -20.6777  -16.3172 O   0  0  0  0  0  0  0  0  0  0  0  0
   23.5375  -19.7989  -15.7290 O   0  0  0  0  0  0  0  0  0  0  0  0
  2  1  1  0
  3  2  2  0
  4  2  1  0
  4  5  1  0
  5  6  1  1
  7  8  2  0
  7  5  1  0
  9 10  1  0
 10 12  1  0
 11 10  2  0
 12 13  1  0
 13 14  1  0
 14 15  1  0
 16 15  1  6
 16 17  1  0
 17  7  1  0
 18 16  1  0
 19 18  2  0
 20 21  1  0
 21 22  2  0
 23 21  1  0
 23 24  1  0
 24 25  1  0
 25 26  1  0
 27 26  1  6
 27 28  1  0
 28 18  1  0
 29 27  1  0
 30 29  2  0
 31 29  1  0
M  END
$$$$
