NRR.pdb
     RDKit          3D

 31 30  0  0  1  0  0  0  0  0999 V2000
   30.9515  -22.1152  -10.5320 N   0  0  0  0  0  0  0  0  0  0  0  0
   30.4980  -22.4905  -11.8341 C   0  0  0  0  0  0  0  0  0  0  0  0
   31.1403  -23.2799  -12.5435 O   0  0  0  0  0  0  0  0  0  0  0  0
   29.2337  -21.8946  -12.2892 C   0  0  0  0  0  0  0  0  0  0  0  0
   28.6893  -20.9473  -11.2781 C   0  0  2  0  0  0  0  0  0  0  0  0
   28.2823  -21.5189  -10.0356 N   0  0  0  0  0  0  0  0  0  0  0  0
   27.5486  -20.1720  -11.8618 C   0  0  0  0  0  0  0  0  0  0  0  0
   26.4160  -20.2584  -11.2733 O   0  0  0  0  0  0  0  0  0  0  0  0
   27.2792  -16.6427  -18.2591 N   0  0  0  0  0  0  0  0  0  0  0  0
   26.0736  -15.9119  -18.0853 C   0  0  0  0  0  0  0  0  0  0  0  0
   25.1981  -15.8682  -19.0296 N   0  0  0  0  0  0  0  0  0  0  0  0
   25.8640  -15.2391  -16.8539 N   0  0  0  0  0  0  0  0  0  0  0  0
   26.8067  -15.4027  -15.7713 C   0  0  0  0  0  0  0  0  0  0  0  0
   26.2163  -16.4425  -14.8094 C   0  0  0  0  0  0  0  0  0  0  0  0
   27.2617  -17.4355  -14.3996 C   0  0  0  0  0  0  0  0  0  0  0  0
   26.6692  -18.4714  -13.4851 C   0  0  2  0  0  0  0  0  0  0  0  0
   27.7191  -19.3802  -13.0131 N   0  0  0  0  0  0  0  0  0  0  0  0
   25.6893  -19.2905  -14.2116 C   0  0  0  0  0  0  0  0  0  0  0  0
   26.0019  -20.1716  -15.0656 O   0  0  0  0  0  0  0  0  0  0  0  0
   24.3209  -15.3141  -18.9502 N   0  0  0  0  0  0  0  0  0  0  0  0
   18.0343  -22.4785  -11.9146 C   0  0  0  0  0  0  0  0  0  0  0  0
   19.2240  -23.2057  -12.1876 N   0  0  0  0  0  0  0  0  0  0  0  0
   19.3180  -24.4053  -11.7553 N   0  0  0  0  0  0  0  0  0  0  0  0
   20.2966  -22.6229  -12.9243 C   0  0  0  0  0  0  0  0  0  0  0  0
   19.9950  -21.5079  -13.7849 C   0  0  0  0  0  0  0  0  0  0  0  0
   21.2069  -21.1412  -14.6507 C   0  0  0  0  0  0  0  0  0  0  0  0
   22.2015  -20.3535  -13.8637 C   0  0  1  0  0  0  0  0  0  0  0  0
   23.3653  -19.9452  -14.7306 N   0  0  0  0  0  0  0  0  0  0  0  0
   24.2871  -19.1069  -13.9637 C   0  0  0  0  0  0  0  0  0  0  0  0
   22.8442  -19.1497  -15.8729 O   0  0  0  0  0  0  0  0  0  0  0  0
   22.8123  -17.9170  -15.9596 O   0  0  0  0  0  0  0  0  0  0  0  0
  2  1  1  0
  3  2  2  0
  4  2  1  0
  4  5  1  0
  5  6  1  1
  7  8  2  0
  7  5  1  0
  9 10  1  0
 10 12  1  0
 11 10  2  0
 12 13  1  0
 13 14  1  0
 14 15  1  0
 16 15  1  6
 16 17  1  0
 17  7  1  0
 18 16  1  0
 19 18  2  0
 20 21  1  0
 21 22  2  0
 23 21  1  0
 23 24  1  0
 24 25  1  0
 25 26  1  0
 27 26  1  1
 27 28  1  0
 28 18  1  0
 29 27  1  0
 30 29  2  0
 31 29  1  0
M  END
$$$$
