NRR.pdb
     RDKit          3D

 31 30  0  0  1  0  0  0  0  0999 V2000
   32.3268  -23.0273  -10.2728 N   0  0  0  0  0  0  0  0  0  0  0  0
   32.0028  -22.8139  -11.6481 C   0  0  0  0  0  0  0  0  0  0  0  0
   32.8312  -23.0139  -12.5495 O   0  0  0  0  0  0  0  0  0  0  0  0
   30.6400  -22.3463  -11.9397 C   0  0  0  0  0  0  0  0  0  0  0  0
   30.4522  -20.9326  -11.5128 C   0  0  2  0  0  0  0  0  0  0  0  0
   30.0258  -20.7336  -10.1657 N   0  0  0  0  0  0  0  0  0  0  0  0
   29.5020  -20.2379  -12.4389 C   0  0  0  0  0  0  0  0  0  0  0  0
   29.7813  -19.0358  -12.7755 O   0  0  0  0  0  0  0  0  0  0  0  0
   28.4539  -21.1560  -20.4236 N   0  0  0  0  0  0  0  0  0  0  0  0
   28.1506  -19.7977  -20.1395 C   0  0  0  0  0  0  0  0  0  0  0  0
   27.7831  -19.0024  -21.0843 N   0  0  0  0  0  0  0  0  0  0  0  0
   28.2624  -19.3476  -18.7986 N   0  0  0  0  0  0  0  0  0  0  0  0
   28.7784  -20.2327  -17.7798 C   0  0  0  0  0  0  0  0  0  0  0  0
   27.8526  -20.1104  -16.5621 C   0  0  0  0  0  0  0  0  0  0  0  0
   28.5325  -20.6241  -15.3288 C   0  0  0  0  0  0  0  0  0  0  0  0
   27.6528  -20.4264  -14.1257 C   0  0  2  0  0  0  0  0  0  0  0  0
   28.3475  -20.8851  -12.9182 N   0  0  0  0  0  0  0  0  0  0  0  0
   26.4320  -21.2345  -14.2499 C   0  0  0  0  0  0  0  0  0  0  0  0
   26.3877  -22.4820  -14.0370 O   0  0  0  0  0  0  0  0  0  0  0  0
   27.5794  -17.9958  -20.9167 N   0  0  0  0  0  0  0  0  0  0  0  0
   26.4923  -21.9677   -9.0400 C   0  0  0  0  0  0  0  0  0  0  0  0
   25.9699  -20.6838   -8.7281 N   0  0  0  0  0  0  0  0  0  0  0  0
   26.4547  -20.0554   -7.7256 N   0  0  0  0  0  0  0  0  0  0  0  0
   24.9282  -20.0984   -9.5059 C   0  0  0  0  0  0  0  0  0  0  0  0
   23.8907  -20.9649  -10.0033 C   0  0  0  0  0  0  0  0  0  0  0  0
   24.2374  -21.4859  -11.4038 C   0  0  0  0  0  0  0  0  0  0  0  0
   24.3082  -20.3624  -12.3845 C   0  0  2  0  0  0  0  0  0  0  0  0
   24.0366  -20.8565  -13.7826 N   0  0  0  0  0  0  0  0  0  0  0  0
   25.1999  -20.6055  -14.6339 C   0  0  0  0  0  0  0  0  0  0  0  0
   22.8795  -20.1021  -14.3313 O   0  0  0  0  0  0  0  0  0  0  0  0
   22.9247  -19.0476  -14.9746 O   0  0  0  0  0  0  0  0  0  0  0  0
  2  1  1  0
  3  2  2  0
  4  2  1  0
  4  5  1  0
  5  6  1  1
  7  8  2  0
  7  5  1  0
  9 10  1  0
 10 12  1  0
 11 10  2  0
 12 13  1  0
 13 14  1  0
 14 15  1  0
 16 15  1  6
 16 17  1  0
 17  7  1  0
 18 16  1  0
 19 18  2  0
 20 21  1  0
 21 22  2  0
 23 21  1  0
 23 24  1  0
 24 25  1  0
 25 26  1  0
 27 26  1  1
 27 28  1  0
 28 18  1  0
 29 27  1  0
 30 29  2  0
 31 29  1  0
M  END
$$$$
