NRR.pdb
     RDKit          3D

 31 30  0  0  1  0  0  0  0  0999 V2000
   23.5147  -15.5966  -18.6852 N   0  0  0  0  0  0  0  0  0  0  0  0
   23.6260  -15.8289  -17.2797 C   0  0  0  0  0  0  0  0  0  0  0  0
   23.4613  -14.9168  -16.4552 O   0  0  0  0  0  0  0  0  0  0  0  0
   23.9448  -17.2016  -16.8614 C   0  0  0  0  0  0  0  0  0  0  0  0
   24.1567  -18.0883  -18.0381 C   0  0  2  0  0  0  0  0  0  0  0  0
   23.0104  -18.3420  -18.8492 N   0  0  0  0  0  0  0  0  0  0  0  0
   24.7490  -19.3921  -17.5994 C   0  0  0  0  0  0  0  0  0  0  0  0
   23.9464  -20.3715  -17.4174 O   0  0  0  0  0  0  0  0  0  0  0  0
   30.9670  -24.6504  -15.8410 N   0  0  0  0  0  0  0  0  0  0  0  0
   30.7587  -24.5380  -17.2415 C   0  0  0  0  0  0  0  0  0  0  0  0
   30.7766  -25.5882  -17.9877 N   0  0  0  0  0  0  0  0  0  0  0  0
   30.5321  -23.2486  -17.7886 N   0  0  0  0  0  0  0  0  0  0  0  0
   30.2946  -22.1238  -16.9135 C   0  0  0  0  0  0  0  0  0  0  0  0
   28.7871  -22.0812  -16.6294 C   0  0  0  0  0  0  0  0  0  0  0  0
   28.1791  -20.8324  -17.1933 C   0  0  0  0  0  0  0  0  0  0  0  0
   26.7144  -20.7674  -16.8603 C   0  0  2  0  0  0  0  0  0  0  0  0
   26.1349  -19.5311  -17.3958 N   0  0  0  0  0  0  0  0  0  0  0  0
   26.5249  -20.7328  -15.4037 C   0  0  0  0  0  0  0  0  0  0  0  0
   26.7756  -19.7215  -14.6841 O   0  0  0  0  0  0  0  0  0  0  0  0
   30.6122  -25.5445  -19.0143 N   0  0  0  0  0  0  0  0  0  0  0  0
   20.0933  -18.4845  -13.0652 C   0  0  0  0  0  0  0  0  0  0  0  0
   20.1205  -19.7651  -12.4507 N   0  0  0  0  0  0  0  0  0  0  0  0
   19.0961  -20.1444  -11.7861 N   0  0  0  0  0  0  0  0  0  0  0  0
   21.2580  -20.6175  -12.5634 C   0  0  0  0  0  0  0  0  0  0  0  0
   22.3748  -20.1505  -13.3438 C   0  0  0  0  0  0  0  0  0  0  0  0
   23.4375  -21.2471  -13.4895 C   0  0  0  0  0  0  0  0  0  0  0  0
   24.7589  -20.7755  -12.9790 C   0  0  1  0  0  0  0  0  0  0  0  0
   25.8377  -21.7852  -13.2779 N   0  0  0  0  0  0  0  0  0  0  0  0
   26.0287  -21.8961  -14.7242 C   0  0  0  0  0  0  0  0  0  0  0  0
   25.4015  -23.1072  -12.7573 O   0  0  0  0  0  0  0  0  0  0  0  0
   24.9877  -24.0624  -13.4240 O   0  0  0  0  0  0  0  0  0  0  0  0
  2  1  1  0
  3  2  2  0
  4  2  1  0
  4  5  1  0
  5  6  1  1
  7  8  2  0
  7  5  1  0
  9 10  1  0
 10 12  1  0
 11 10  2  0
 12 13  1  0
 13 14  1  0
 14 15  1  0
 16 15  1  1
 16 17  1  0
 17  7  1  0
 18 16  1  0
 19 18  2  0
 20 21  1  0
 21 22  2  0
 23 21  1  0
 23 24  1  0
 24 25  1  0
 25 26  1  0
 27 26  1  1
 27 28  1  0
 28 18  1  0
 29 27  1  0
 30 29  2  0
 31 29  1  0
M  END
$$$$
