NRR.pdb
     RDKit          3D

 31 30  0  0  1  0  0  0  0  0999 V2000
   22.3861  -16.4899  -20.2239 N   0  0  0  0  0  0  0  0  0  0  0  0
   21.4376  -17.1754  -21.0440 C   0  0  0  0  0  0  0  0  0  0  0  0
   20.4335  -16.6024  -21.4939 O   0  0  0  0  0  0  0  0  0  0  0  0
   21.7120  -18.5916  -21.3267 C   0  0  0  0  0  0  0  0  0  0  0  0
   23.0011  -19.0226  -20.7198 C   0  0  2  0  0  0  0  0  0  0  0  0
   24.1844  -18.4813  -21.3057 N   0  0  0  0  0  0  0  0  0  0  0  0
   23.0924  -20.5175  -20.7148 C   0  0  0  0  0  0  0  0  0  0  0  0
   23.4708  -21.0877  -21.7957 O   0  0  0  0  0  0  0  0  0  0  0  0
   25.7687  -25.7972  -15.8536 N   0  0  0  0  0  0  0  0  0  0  0  0
   26.2903  -25.2929  -17.0748 C   0  0  0  0  0  0  0  0  0  0  0  0
   26.9944  -26.0507  -17.8431 N   0  0  0  0  0  0  0  0  0  0  0  0
   26.0156  -23.9445  -17.4201 N   0  0  0  0  0  0  0  0  0  0  0  0
   25.2098  -23.1242  -16.5453 C   0  0  0  0  0  0  0  0  0  0  0  0
   24.0084  -22.6331  -17.3641 C   0  0  0  0  0  0  0  0  0  0  0  0
   24.0780  -23.1547  -18.7678 C   0  0  0  0  0  0  0  0  0  0  0  0
   22.8645  -22.7269  -19.5455 C   0  0  2  0  0  0  0  0  0  0  0  0
   22.7736  -21.2632  -19.5642 N   0  0  0  0  0  0  0  0  0  0  0  0
   21.6433  -23.2230  -18.8963 C   0  0  0  0  0  0  0  0  0  0  0  0
   20.9275  -22.5282  -18.1163 O   0  0  0  0  0  0  0  0  0  0  0  0
   27.4151  -25.7066  -18.7304 N   0  0  0  0  0  0  0  0  0  0  0  0
   18.4071  -23.7499  -12.1509 C   0  0  0  0  0  0  0  0  0  0  0  0
   17.4745  -24.6170  -12.7808 N   0  0  0  0  0  0  0  0  0  0  0  0
   16.4544  -25.0035  -12.1138 N   0  0  0  0  0  0  0  0  0  0  0  0
   17.6602  -25.0550  -14.1249 C   0  0  0  0  0  0  0  0  0  0  0  0
   18.8379  -24.6068  -14.8227 C   0  0  0  0  0  0  0  0  0  0  0  0
   18.7931  -25.0262  -16.2975 C   0  0  0  0  0  0  0  0  0  0  0  0
   20.0423  -24.6140  -17.0038 C   0  0  1  0  0  0  0  0  0  0  0  0
   19.9842  -24.9995  -18.4600 N   0  0  0  0  0  0  0  0  0  0  0  0
   21.2074  -24.5694  -19.1379 C   0  0  0  0  0  0  0  0  0  0  0  0
   18.8293  -24.3032  -19.0849 O   0  0  0  0  0  0  0  0  0  0  0  0
   18.8796  -23.3456  -19.8649 O   0  0  0  0  0  0  0  0  0  0  0  0
  2  1  1  0
  3  2  2  0
  4  2  1  0
  4  5  1  0
  5  6  1  6
  7  8  2  0
  7  5  1  0
  9 10  1  0
 10 12  1  0
 11 10  2  0
 12 13  1  0
 13 14  1  0
 14 15  1  0
 16 15  1  1
 16 17  1  0
 17  7  1  0
 18 16  1  0
 19 18  2  0
 20 21  1  0
 21 22  2  0
 23 21  1  0
 23 24  1  0
 24 25  1  0
 25 26  1  0
 27 26  1  1
 27 28  1  0
 28 18  1  0
 29 27  1  0
 30 29  2  0
 31 29  1  0
M  END
$$$$
