NRR.pdb
     RDKit          3D

 31 30  0  0  1  0  0  0  0  0999 V2000
   12.5861  -33.8225   -6.3212 N   0  0  0  0  0  0  0  0  0  0  0  0
   12.0418  -32.5506   -6.6788 C   0  0  0  0  0  0  0  0  0  0  0  0
   11.2049  -32.4340   -7.5871 O   0  0  0  0  0  0  0  0  0  0  0  0
   12.5234  -31.3893   -5.9169 C   0  0  0  0  0  0  0  0  0  0  0  0
   13.5814  -31.7824   -4.9463 C   0  0  2  0  0  0  0  0  0  0  0  0
   13.2075  -32.7492   -3.9655 N   0  0  0  0  0  0  0  0  0  0  0  0
   14.1259  -30.5679   -4.2595 C   0  0  0  0  0  0  0  0  0  0  0  0
   14.2943  -30.6339   -2.9931 O   0  0  0  0  0  0  0  0  0  0  0  0
   19.7546  -26.2606   -1.8266 N   0  0  0  0  0  0  0  0  0  0  0  0
   19.5304  -27.4968   -1.1637 C   0  0  0  0  0  0  0  0  0  0  0  0
   19.6438  -27.5773    0.1172 N   0  0  0  0  0  0  0  0  0  0  0  0
   19.1810  -28.6280   -1.9456 N   0  0  0  0  0  0  0  0  0  0  0  0
   19.0054  -28.4934   -3.3733 C   0  0  0  0  0  0  0  0  0  0  0  0
   17.6035  -27.9135   -3.6047 C   0  0  0  0  0  0  0  0  0  0  0  0
   16.6939  -28.9507   -4.1914 C   0  0  0  0  0  0  0  0  0  0  0  0
   15.3279  -28.3714   -4.4341 C   0  0  2  0  0  0  0  0  0  0  0  0
   14.4389  -29.4011   -4.9820 N   0  0  0  0  0  0  0  0  0  0  0  0
   15.4018  -27.2951   -5.4316 C   0  0  0  0  0  0  0  0  0  0  0  0
   16.1224  -27.3460   -6.4716 O   0  0  0  0  0  0  0  0  0  0  0  0
   19.4562  -28.4584    0.6383 N   0  0  0  0  0  0  0  0  0  0  0  0
   14.6162  -23.2307    0.2985 C   0  0  0  0  0  0  0  0  0  0  0  0
   13.6344  -22.4730   -0.3945 N   0  0  0  0  0  0  0  0  0  0  0  0
   12.6240  -22.0410    0.2592 N   0  0  0  0  0  0  0  0  0  0  0  0
   13.7597  -22.1945   -1.7872 C   0  0  0  0  0  0  0  0  0  0  0  0
   14.9083  -22.7209   -2.4787 C   0  0  0  0  0  0  0  0  0  0  0  0
   14.4901  -23.4342   -3.7707 C   0  0  0  0  0  0  0  0  0  0  0  0
   15.6706  -24.0618   -4.4354 C   0  0  2  0  0  0  0  0  0  0  0  0
   15.2454  -24.8405   -5.6541 N   0  0  0  0  0  0  0  0  0  0  0  0
   14.6252  -26.1017   -5.2475 C   0  0  0  0  0  0  0  0  0  0  0  0
   16.4552  -25.1487   -6.4607 O   0  0  0  0  0  0  0  0  0  0  0  0
   16.8644  -26.2715   -6.7769 O   0  0  0  0  0  0  0  0  0  0  0  0
  2  1  1  0
  3  2  2  0
  4  2  1  0
  4  5  1  0
  5  6  1  1
  7  8  2  0
  7  5  1  0
  9 10  1  0
 10 12  1  0
 11 10  2  0
 12 13  1  0
 13 14  1  0
 14 15  1  0
 16 15  1  6
 16 17  1  0
 17  7  1  0
 18 16  1  0
 19 18  2  0
 20 21  1  0
 21 22  2  0
 23 21  1  0
 23 24  1  0
 24 25  1  0
 25 26  1  0
 27 26  1  1
 27 28  1  0
 28 18  1  0
 29 27  1  0
 30 29  2  0
 31 29  1  0
M  END
$$$$
