NRR.pdb
     RDKit          3D

 31 30  0  0  1  0  0  0  0  0999 V2000
   26.3627  -19.1116   -7.4358 N   0  0  0  0  0  0  0  0  0  0  0  0
   27.1162  -20.1801   -8.0123 C   0  0  0  0  0  0  0  0  0  0  0  0
   28.0031  -20.7679   -7.3745 O   0  0  0  0  0  0  0  0  0  0  0  0
   26.7873  -20.5467   -9.3973 C   0  0  0  0  0  0  0  0  0  0  0  0
   25.7668  -19.6270   -9.9706 C   0  0  2  0  0  0  0  0  0  0  0  0
   24.4733  -19.6693   -9.3693 N   0  0  0  0  0  0  0  0  0  0  0  0
   25.6338  -19.8609  -11.4440 C   0  0  0  0  0  0  0  0  0  0  0  0
   24.6169  -20.5254  -11.8449 O   0  0  0  0  0  0  0  0  0  0  0  0
   23.0490  -17.7583  -17.0297 N   0  0  0  0  0  0  0  0  0  0  0  0
   24.3089  -17.9592  -17.6540 C   0  0  0  0  0  0  0  0  0  0  0  0
   24.3726  -18.2915  -18.8973 N   0  0  0  0  0  0  0  0  0  0  0  0
   25.4827  -17.7845  -16.8765 N   0  0  0  0  0  0  0  0  0  0  0  0
   25.3779  -17.4749  -15.4691 C   0  0  0  0  0  0  0  0  0  0  0  0
   26.8039  -17.2572  -14.9456 C   0  0  0  0  0  0  0  0  0  0  0  0
   27.4034  -18.5545  -14.4928 C   0  0  0  0  0  0  0  0  0  0  0  0
   26.3680  -19.3950  -13.7986 C   0  0  2  0  0  0  0  0  0  0  0  0
   26.5921  -19.3677  -12.3495 N   0  0  0  0  0  0  0  0  0  0  0  0
   26.4830  -20.7970  -14.2229 C   0  0  0  0  0  0  0  0  0  0  0  0
   27.5344  -21.4899  -14.0892 O   0  0  0  0  0  0  0  0  0  0  0  0
   25.2774  -18.4625  -19.3820 N   0  0  0  0  0  0  0  0  0  0  0  0
   20.3981  -26.9278  -15.6308 C   0  0  0  0  0  0  0  0  0  0  0  0
   20.8409  -26.0950  -14.5682 N   0  0  0  0  0  0  0  0  0  0  0  0
   20.0581  -25.9059  -13.5750 N   0  0  0  0  0  0  0  0  0  0  0  0
   22.1255  -25.4772  -14.5966 C   0  0  0  0  0  0  0  0  0  0  0  0
   22.9111  -25.6113  -15.7963 C   0  0  0  0  0  0  0  0  0  0  0  0
   24.2902  -24.9625  -15.6230 C   0  0  0  0  0  0  0  0  0  0  0  0
   24.1557  -23.5183  -15.2691 C   0  0  1  0  0  0  0  0  0  0  0  0
   25.5112  -22.8694  -15.1501 N   0  0  0  0  0  0  0  0  0  0  0  0
   25.3572  -21.4504  -14.8285 C   0  0  0  0  0  0  0  0  0  0  0  0
   26.2036  -22.9833  -16.4603 O   0  0  0  0  0  0  0  0  0  0  0  0
   26.4207  -22.0676  -17.2618 O   0  0  0  0  0  0  0  0  0  0  0  0
  2  1  1  0
  3  2  2  0
  4  2  1  0
  4  5  1  0
  5  6  1  1
  7  8  2  0
  7  5  1  0
  9 10  1  0
 10 12  1  0
 11 10  2  0
 12 13  1  0
 13 14  1  0
 14 15  1  0
 16 15  1  6
 16 17  1  0
 17  7  1  0
 18 16  1  0
 19 18  2  0
 20 21  1  0
 21 22  2  0
 23 21  1  0
 23 24  1  0
 24 25  1  0
 25 26  1  0
 27 26  1  1
 27 28  1  0
 28 18  1  0
 29 27  1  0
 30 29  2  0
 31 29  1  0
M  END
$$$$
