NRR.pdb
     RDKit          3D

 31 30  0  0  1  0  0  0  0  0999 V2000
   26.3180  -21.1200   -7.7099 N   0  0  0  0  0  0  0  0  0  0  0  0
   24.9868  -20.8588   -8.1591 C   0  0  0  0  0  0  0  0  0  0  0  0
   24.0252  -20.8567   -7.3754 O   0  0  0  0  0  0  0  0  0  0  0  0
   24.8154  -20.5930   -9.5946 C   0  0  0  0  0  0  0  0  0  0  0  0
   26.0772  -20.8434  -10.3437 C   0  0  2  0  0  0  0  0  0  0  0  0
   27.2388  -20.1680   -9.8631 N   0  0  0  0  0  0  0  0  0  0  0  0
   25.8858  -20.5243  -11.7945 C   0  0  0  0  0  0  0  0  0  0  0  0
   26.1232  -19.3244  -12.1693 O   0  0  0  0  0  0  0  0  0  0  0  0
   28.9092  -23.3921  -17.9115 N   0  0  0  0  0  0  0  0  0  0  0  0
   28.3080  -24.3802  -17.0870 C   0  0  0  0  0  0  0  0  0  0  0  0
   28.8892  -25.5155  -16.9039 N   0  0  0  0  0  0  0  0  0  0  0  0
   27.0619  -24.0829  -16.4770 N   0  0  0  0  0  0  0  0  0  0  0  0
   26.0394  -23.3871  -17.2238 C   0  0  0  0  0  0  0  0  0  0  0  0
   25.6430  -22.1507  -16.4057 C   0  0  0  0  0  0  0  0  0  0  0  0
   25.7441  -22.4352  -14.9373 C   0  0  0  0  0  0  0  0  0  0  0  0
   25.3378  -21.2263  -14.1411 C   0  0  2  0  0  0  0  0  0  0  0  0
   25.4611  -21.5082  -12.7072 N   0  0  0  0  0  0  0  0  0  0  0  0
   23.9272  -20.9016  -14.3935 C   0  0  0  0  0  0  0  0  0  0  0  0
   22.9561  -21.5475  -13.9004 O   0  0  0  0  0  0  0  0  0  0  0  0
   28.4906  -26.2515  -16.2855 N   0  0  0  0  0  0  0  0  0  0  0  0
   18.1910  -15.2912  -17.1913 C   0  0  0  0  0  0  0  0  0  0  0  0
   19.5087  -14.8855  -16.8486 N   0  0  0  0  0  0  0  0  0  0  0  0
   19.6760  -13.7257  -16.3368 N   0  0  0  0  0  0  0  0  0  0  0  0
   20.6281  -15.7415  -17.0660 C   0  0  0  0  0  0  0  0  0  0  0  0
   20.3961  -16.9977  -17.7313 C   0  0  0  0  0  0  0  0  0  0  0  0
   20.5647  -18.1717  -16.7584 C   0  0  0  0  0  0  0  0  0  0  0  0
   22.0068  -18.3961  -16.4435 C   0  0  1  0  0  0  0  0  0  0  0  0
   22.1754  -19.5852  -15.5324 N   0  0  0  0  0  0  0  0  0  0  0  0
   23.5946  -19.7941  -15.2444 C   0  0  0  0  0  0  0  0  0  0  0  0
   21.6536  -20.7895  -16.2298 O   0  0  0  0  0  0  0  0  0  0  0  0
   22.1934  -21.3924  -17.1643 O   0  0  0  0  0  0  0  0  0  0  0  0
  2  1  1  0
  3  2  2  0
  4  2  1  0
  4  5  1  0
  5  6  1  1
  7  8  2  0
  7  5  1  0
  9 10  1  0
 10 12  1  0
 11 10  2  0
 12 13  1  0
 13 14  1  0
 14 15  1  0
 16 15  1  6
 16 17  1  0
 17  7  1  0
 18 16  1  0
 19 18  2  0
 20 21  1  0
 21 22  2  0
 23 21  1  0
 23 24  1  0
 24 25  1  0
 25 26  1  0
 27 26  1  1
 27 28  1  0
 28 18  1  0
 29 27  1  0
 30 29  2  0
 31 29  1  0
M  END
$$$$
