NRR.pdb
     RDKit          3D

 31 30  0  0  1  0  0  0  0  0999 V2000
   17.8945  -27.9771   -9.4866 N   0  0  0  0  0  0  0  0  0  0  0  0
   17.1488  -26.7722   -9.3019 C   0  0  0  0  0  0  0  0  0  0  0  0
   16.4828  -26.2726  -10.2216 O   0  0  0  0  0  0  0  0  0  0  0  0
   17.2111  -26.1559   -7.9688 C   0  0  0  0  0  0  0  0  0  0  0  0
   17.0697  -24.6763   -8.0518 C   0  0  2  0  0  0  0  0  0  0  0  0
   18.2179  -23.9590   -8.5030 N   0  0  0  0  0  0  0  0  0  0  0  0
   16.6330  -24.1266   -6.7288 C   0  0  0  0  0  0  0  0  0  0  0  0
   17.5430  -23.8845   -5.8628 O   0  0  0  0  0  0  0  0  0  0  0  0
   10.1697  -18.6709   -6.5428 N   0  0  0  0  0  0  0  0  0  0  0  0
   11.0310  -18.5921   -5.4159 C   0  0  0  0  0  0  0  0  0  0  0  0
   10.7559  -17.7945   -4.4421 N   0  0  0  0  0  0  0  0  0  0  0  0
   12.1905  -19.4094   -5.3945 N   0  0  0  0  0  0  0  0  0  0  0  0
   12.1234  -20.7716   -5.8714 C   0  0  0  0  0  0  0  0  0  0  0  0
   13.5292  -21.3708   -5.7305 C   0  0  0  0  0  0  0  0  0  0  0  0
   13.4518  -22.7948   -5.2687 C   0  0  0  0  0  0  0  0  0  0  0  0
   14.8309  -23.3815   -5.1486 C   0  0  2  0  0  0  0  0  0  0  0  0
   15.2738  -23.8870   -6.4520 N   0  0  0  0  0  0  0  0  0  0  0  0
   14.8183  -24.5262   -4.2276 C   0  0  0  0  0  0  0  0  0  0  0  0
   14.6588  -25.7267   -4.5973 O   0  0  0  0  0  0  0  0  0  0  0  0
    9.9978  -17.0842   -4.5016 N   0  0  0  0  0  0  0  0  0  0  0  0
   19.4020  -30.1001   -1.0904 C   0  0  0  0  0  0  0  0  0  0  0  0
   18.0860  -30.2844   -1.5933 N   0  0  0  0  0  0  0  0  0  0  0  0
   17.5333  -31.4285   -1.4501 N   0  0  0  0  0  0  0  0  0  0  0  0
   17.3869  -29.2270   -2.2459 C   0  0  0  0  0  0  0  0  0  0  0  0
   18.0771  -27.9763   -2.4303 C   0  0  0  0  0  0  0  0  0  0  0  0
   17.4410  -26.8694   -1.5799 C   0  0  0  0  0  0  0  0  0  0  0  0
   16.8860  -25.7880   -2.4468 C   0  0  1  0  0  0  0  0  0  0  0  0
   15.4799  -25.4387   -2.0302 N   0  0  0  0  0  0  0  0  0  0  0  0
   14.9936  -24.3069   -2.8196 C   0  0  0  0  0  0  0  0  0  0  0  0
   15.4990  -25.0411   -0.5982 O   0  0  0  0  0  0  0  0  0  0  0  0
   15.6913  -25.7839    0.3710 O   0  0  0  0  0  0  0  0  0  0  0  0
  2  1  1  0
  3  2  2  0
  4  2  1  0
  4  5  1  0
  5  6  1  1
  7  8  2  0
  7  5  1  0
  9 10  1  0
 10 12  1  0
 11 10  2  0
 12 13  1  0
 13 14  1  0
 14 15  1  0
 16 15  1  6
 16 17  1  0
 17  7  1  0
 18 16  1  0
 19 18  2  0
 20 21  1  0
 21 22  2  0
 23 21  1  0
 23 24  1  0
 24 25  1  0
 25 26  1  0
 27 26  1  6
 27 28  1  0
 28 18  1  0
 29 27  1  0
 30 29  2  0
 31 29  1  0
M  END
$$$$
