NRR.pdb
     RDKit          3D

 31 30  0  0  1  0  0  0  0  0999 V2000
   28.3290  -19.7146  -20.2512 N   0  0  0  0  0  0  0  0  0  0  0  0
   27.8590  -19.0087  -19.1011 C   0  0  0  0  0  0  0  0  0  0  0  0
   27.7632  -17.7719  -19.0920 O   0  0  0  0  0  0  0  0  0  0  0  0
   27.4954  -19.8214  -17.9314 C   0  0  0  0  0  0  0  0  0  0  0  0
   27.5571  -19.0204  -16.6782 C   0  0  2  0  0  0  0  0  0  0  0  0
   28.6502  -18.1099  -16.5667 N   0  0  0  0  0  0  0  0  0  0  0  0
   27.5477  -19.9281  -15.4870 C   0  0  0  0  0  0  0  0  0  0  0  0
   26.7577  -20.9338  -15.5197 O   0  0  0  0  0  0  0  0  0  0  0  0
   33.8200  -21.9247  -10.9184 N   0  0  0  0  0  0  0  0  0  0  0  0
   32.9143  -22.9028  -11.4089 C   0  0  0  0  0  0  0  0  0  0  0  0
   33.3338  -23.8526  -12.1718 N   0  0  0  0  0  0  0  0  0  0  0  0
   31.5485  -22.8043  -11.0374 N   0  0  0  0  0  0  0  0  0  0  0  0
   30.9984  -21.5295  -10.6378 C   0  0  0  0  0  0  0  0  0  0  0  0
   29.6081  -21.4154  -11.2775 C   0  0  0  0  0  0  0  0  0  0  0  0
   29.6682  -20.5873  -12.5257 C   0  0  0  0  0  0  0  0  0  0  0  0
   28.3108  -20.5093  -13.1675 C   0  0  2  0  0  0  0  0  0  0  0  0
   28.3767  -19.6816  -14.3763 N   0  0  0  0  0  0  0  0  0  0  0  0
   27.3546  -19.8631  -12.2581 C   0  0  0  0  0  0  0  0  0  0  0  0
   27.0670  -18.6306  -12.2975 O   0  0  0  0  0  0  0  0  0  0  0  0
   32.6965  -24.5790  -12.5579 N   0  0  0  0  0  0  0  0  0  0  0  0
   21.6654  -20.6261  -16.1187 C   0  0  0  0  0  0  0  0  0  0  0  0
   21.4780  -19.5236  -15.2425 N   0  0  0  0  0  0  0  0  0  0  0  0
   20.6012  -18.6444  -15.5476 N   0  0  0  0  0  0  0  0  0  0  0  0
   22.2441  -19.3877  -14.0476 C   0  0  0  0  0  0  0  0  0  0  0  0
   22.1082  -20.4085  -13.0406 C   0  0  0  0  0  0  0  0  0  0  0  0
   23.0177  -20.1178  -11.8402 C   0  0  0  0  0  0  0  0  0  0  0  0
   24.4276  -20.5100  -12.1363 C   0  0  2  0  0  0  0  0  0  0  0  0
   25.3098  -20.2766  -10.9364 N   0  0  0  0  0  0  0  0  0  0  0  0
   26.6897  -20.6449  -11.2541 C   0  0  0  0  0  0  0  0  0  0  0  0
   24.8339  -21.1439   -9.8272 O   0  0  0  0  0  0  0  0  0  0  0  0
   25.3122  -22.2307   -9.4836 O   0  0  0  0  0  0  0  0  0  0  0  0
  2  1  1  0
  3  2  2  0
  4  2  1  0
  4  5  1  0
  5  6  1  6
  7  8  2  0
  7  5  1  0
  9 10  1  0
 10 12  1  0
 11 10  2  0
 12 13  1  0
 13 14  1  0
 14 15  1  0
 16 15  1  1
 16 17  1  0
 17  7  1  0
 18 16  1  0
 19 18  2  0
 20 21  1  0
 21 22  2  0
 23 21  1  0
 23 24  1  0
 24 25  1  0
 25 26  1  0
 27 26  1  6
 27 28  1  0
 28 18  1  0
 29 27  1  0
 30 29  2  0
 31 29  1  0
M  END
$$$$
