TGS.pdb
     RDKit          3D

 18 17  0  0  1  0  0  0  0  0999 V2000
   -3.6104  -28.1437   24.9737 C   0  0  0  0  0  0  0  0  0  0  0  0
   -3.1395  -28.4605   26.3682 C   0  0  1  0  0  0  0  0  0  0  0  0
   -1.8304  -28.9532   26.2625 O   0  0  0  0  0  0  0  0  0  0  0  0
   -3.0665  -27.2179   27.2194 C   0  0  2  0  0  0  0  0  0  0  0  0
   -2.3041  -27.4630   28.4045 N   0  0  0  0  0  0  0  0  0  0  0  0
   -4.4068  -26.6445   27.5033 C   0  0  0  0  0  0  0  0  0  0  0  0
   -5.0243  -26.0714   26.5867 O   0  0  0  0  0  0  0  0  0  0  0  0
   -5.0192  -26.7257   28.7965 N   0  0  0  0  0  0  0  0  0  0  0  0
   -6.2925  -26.1260   29.0938 C   0  0  0  0  0  0  0  0  0  0  0  0
   -6.1713  -24.9209   29.9523 C   0  0  0  0  0  0  0  0  0  0  0  0
   -5.3175  -24.7765   30.8482 O   0  0  0  0  0  0  0  0  0  0  0  0
   -5.7869  -21.5678   28.5475 O   0  0  0  0  0  0  0  0  0  0  0  0
   -5.7024  -21.9341   29.8742 C   0  0  0  0  0  0  0  0  0  0  0  0
   -7.0022  -22.5725   30.3632 C   0  0  2  0  0  0  0  0  0  0  0  0
   -7.0996  -23.8688   29.7245 N   0  0  0  0  0  0  0  0  0  0  0  0
   -8.1320  -21.6963   29.9575 C   0  0  0  0  0  0  0  0  0  0  0  0
   -8.3543  -20.4713   30.5672 O   0  0  0  0  0  0  0  0  0  0  0  0
   -8.9213  -22.0463   29.0438 O   0  0  0  0  0  0  0  0  0  0  0  0
  2  3  1  0
  2  1  1  6
  4  2  1  0
  4  5  1  1
  6  4  1  0
  7  6  2  0
  8  6  1  0
  9  8  1  0
 10  9  1  0
 10 15  1  0
 11 10  2  0
 12 13  1  0
 14 13  1  6
 14 15  1  0
 14 16  1  0
 16 18  2  0
 16 17  1  0
M  END
$$$$
