TGS.pdb
     RDKit          3D

 18 17  0  0  1  0  0  0  0  0999 V2000
    7.4392  -11.2830   26.3753 C   0  0  0  0  0  0  0  0  0  0  0  0
    7.6177  -12.7015   25.9030 C   0  0  1  0  0  0  0  0  0  0  0  0
    8.2843  -13.3976   26.9223 O   0  0  0  0  0  0  0  0  0  0  0  0
    6.2891  -13.3874   25.7083 C   0  0  2  0  0  0  0  0  0  0  0  0
    5.4626  -13.2223   26.8639 N   0  0  0  0  0  0  0  0  0  0  0  0
    6.4377  -14.8085   25.3030 C   0  0  0  0  0  0  0  0  0  0  0  0
    6.2848  -15.6992   26.1593 O   0  0  0  0  0  0  0  0  0  0  0  0
    6.7515  -15.1957   23.9593 N   0  0  0  0  0  0  0  0  0  0  0  0
    6.7459  -16.5664   23.5227 C   0  0  0  0  0  0  0  0  0  0  0  0
    8.0770  -17.2120   23.6461 C   0  0  0  0  0  0  0  0  0  0  0  0
    8.3342  -18.3736   23.2761 O   0  0  0  0  0  0  0  0  0  0  0  0
   11.2948  -15.9253   22.4642 O   0  0  0  0  0  0  0  0  0  0  0  0
   11.4294  -15.9652   23.8360 C   0  0  0  0  0  0  0  0  0  0  0  0
   10.4509  -16.9557   24.4665 C   0  0  2  0  0  0  0  0  0  0  0  0
    9.1188  -16.4395   24.2280 N   0  0  0  0  0  0  0  0  0  0  0  0
   10.7372  -17.0289   25.9230 C   0  0  0  0  0  0  0  0  0  0  0  0
   11.8753  -17.6549   26.4074 O   0  0  0  0  0  0  0  0  0  0  0  0
    9.9484  -16.5210   26.7598 O   0  0  0  0  0  0  0  0  0  0  0  0
  2  3  1  0
  2  1  1  1
  4  2  1  0
  4  5  1  1
  6  4  1  0
  7  6  2  0
  8  6  1  0
  9  8  1  0
 10  9  1  0
 10 15  1  0
 11 10  2  0
 12 13  1  0
 14 13  1  6
 14 15  1  0
 14 16  1  0
 16 18  2  0
 16 17  1  0
M  END
$$$$
