TGS.pdb
     RDKit          3D

 18 17  0  0  1  0  0  0  0  0999 V2000
    8.7594  -12.5584   20.3524 C   0  0  0  0  0  0  0  0  0  0  0  0
    7.7181  -13.3932   19.6554 C   0  0  1  0  0  0  0  0  0  0  0  0
    7.9787  -13.3181   18.2792 O   0  0  0  0  0  0  0  0  0  0  0  0
    7.8325  -14.8472   20.0385 C   0  0  2  0  0  0  0  0  0  0  0  0
    6.9718  -15.6513   19.2270 N   0  0  0  0  0  0  0  0  0  0  0  0
    7.6282  -15.0690   21.4927 C   0  0  0  0  0  0  0  0  0  0  0  0
    6.5076  -14.8433   21.9859 O   0  0  0  0  0  0  0  0  0  0  0  0
    8.6751  -15.5347   22.3537 N   0  0  0  0  0  0  0  0  0  0  0  0
    8.4871  -15.7452   23.7642 C   0  0  0  0  0  0  0  0  0  0  0  0
    9.3796  -14.8971   24.5937 C   0  0  0  0  0  0  0  0  0  0  0  0
   10.3798  -14.2928   24.1614 O   0  0  0  0  0  0  0  0  0  0  0  0
    7.7871  -13.2059   27.7710 O   0  0  0  0  0  0  0  0  0  0  0  0
    9.0519  -12.8333   27.3672 C   0  0  0  0  0  0  0  0  0  0  0  0
    9.8744  -14.0401   26.9164 C   0  0  2  0  0  0  0  0  0  0  0  0
    9.0580  -14.7759   25.9730 N   0  0  0  0  0  0  0  0  0  0  0  0
   10.1784  -14.8687   28.1122 C   0  0  0  0  0  0  0  0  0  0  0  0
    9.7856  -16.1957   28.1933 O   0  0  0  0  0  0  0  0  0  0  0  0
   10.8044  -14.3837   29.0884 O   0  0  0  0  0  0  0  0  0  0  0  0
  2  3  1  0
  2  1  1  1
  4  2  1  0
  4  5  1  6
  6  4  1  0
  7  6  2  0
  8  6  1  0
  9  8  1  0
 10  9  1  0
 10 15  1  0
 11 10  2  0
 12 13  1  0
 14 13  1  1
 14 15  1  0
 14 16  1  0
 16 18  2  0
 16 17  1  0
M  END
$$$$
