TGS.pdb
     RDKit          3D

 18 17  0  0  1  0  0  0  0  0999 V2000
   10.4703  -13.2945   18.8978 C   0  0  0  0  0  0  0  0  0  0  0  0
    9.0581  -12.7726   18.9116 C   0  0  1  0  0  0  0  0  0  0  0  0
    8.8403  -12.1316   17.6831 O   0  0  0  0  0  0  0  0  0  0  0  0
    8.0572  -13.8973   18.9961 C   0  0  2  0  0  0  0  0  0  0  0  0
    6.7259  -13.4002   18.8337 N   0  0  0  0  0  0  0  0  0  0  0  0
    8.2228  -14.7136   20.2256 C   0  0  0  0  0  0  0  0  0  0  0  0
    7.6598  -14.3469   21.2737 O   0  0  0  0  0  0  0  0  0  0  0  0
    9.0086  -15.9119   20.2525 N   0  0  0  0  0  0  0  0  0  0  0  0
    9.1491  -16.7243   21.4314 C   0  0  0  0  0  0  0  0  0  0  0  0
   10.3256  -16.3431   22.2525 C   0  0  0  0  0  0  0  0  0  0  0  0
   11.2095  -15.5435   21.8894 O   0  0  0  0  0  0  0  0  0  0  0  0
   12.2325  -17.2393   26.6739 O   0  0  0  0  0  0  0  0  0  0  0  0
   11.2403  -17.4319   25.7358 C   0  0  0  0  0  0  0  0  0  0  0  0
   11.5419  -16.6814   24.4390 C   0  0  2  0  0  0  0  0  0  0  0  0
   10.4375  -16.9393   23.5380 N   0  0  0  0  0  0  0  0  0  0  0  0
   12.8142  -17.2094   23.8812 C   0  0  0  0  0  0  0  0  0  0  0  0
   14.0454  -16.7715   24.3441 O   0  0  0  0  0  0  0  0  0  0  0  0
   12.8066  -18.0735   22.9682 O   0  0  0  0  0  0  0  0  0  0  0  0
  2  3  1  0
  2  1  1  6
  4  2  1  0
  4  5  1  1
  6  4  1  0
  7  6  2  0
  8  6  1  0
  9  8  1  0
 10  9  1  0
 10 15  1  0
 11 10  2  0
 12 13  1  0
 14 13  1  1
 14 15  1  0
 14 16  1  0
 16 18  2  0
 16 17  1  0
M  END
$$$$
