TGS.pdb
     RDKit          3D

 18 17  0  0  1  0  0  0  0  0999 V2000
    7.9928  -12.3389   18.8688 C   0  0  0  0  0  0  0  0  0  0  0  0
    7.7816  -13.8288   18.8170 C   0  0  1  0  0  0  0  0  0  0  0  0
    8.3003  -14.2793   17.5940 O   0  0  0  0  0  0  0  0  0  0  0  0
    8.5581  -14.5322   19.9014 C   0  0  2  0  0  0  0  0  0  0  0  0
    8.3935  -15.9494   19.8007 N   0  0  0  0  0  0  0  0  0  0  0  0
    8.2436  -14.0092   21.2554 C   0  0  0  0  0  0  0  0  0  0  0  0
    8.8760  -13.0263   21.6844 O   0  0  0  0  0  0  0  0  0  0  0  0
    7.2365  -14.5943   22.0906 N   0  0  0  0  0  0  0  0  0  0  0  0
    6.8932  -14.0649   23.3833 C   0  0  0  0  0  0  0  0  0  0  0  0
    7.3396  -14.9391   24.4970 C   0  0  0  0  0  0  0  0  0  0  0  0
    7.0633  -14.7488   25.6970 O   0  0  0  0  0  0  0  0  0  0  0  0
    6.7484  -18.4549   24.7789 O   0  0  0  0  0  0  0  0  0  0  0  0
    8.1247  -18.3891   24.7218 C   0  0  0  0  0  0  0  0  0  0  0  0
    8.6373  -17.0093   25.1332 C   0  0  2  0  0  0  0  0  0  0  0  0
    8.1356  -16.0661   24.1551 N   0  0  0  0  0  0  0  0  0  0  0  0
   10.1231  -17.0429   25.1225 C   0  0  0  0  0  0  0  0  0  0  0  0
   10.8526  -16.5047   24.0737 O   0  0  0  0  0  0  0  0  0  0  0  0
   10.7614  -17.5643   26.0716 O   0  0  0  0  0  0  0  0  0  0  0  0
  2  3  1  0
  2  1  1  1
  4  2  1  0
  4  5  1  1
  6  4  1  0
  7  6  2  0
  8  6  1  0
  9  8  1  0
 10  9  1  0
 10 15  1  0
 11 10  2  0
 12 13  1  0
 14 13  1  6
 14 15  1  0
 14 16  1  0
 16 18  2  0
 16 17  1  0
M  END
$$$$
