TGS.pdb
     RDKit          3D

 18 17  0  0  1  0  0  0  0  0999 V2000
    7.2206  -12.2866   18.2008 C   0  0  0  0  0  0  0  0  0  0  0  0
    7.6016  -13.4725   19.0466 C   0  0  1  0  0  0  0  0  0  0  0  0
    8.1781  -14.4239   18.1921 O   0  0  0  0  0  0  0  0  0  0  0  0
    8.6555  -13.1080   20.0616 C   0  0  2  0  0  0  0  0  0  0  0  0
    9.7892  -12.5167   19.4207 N   0  0  0  0  0  0  0  0  0  0  0  0
    9.0186  -14.2504   20.9384 C   0  0  0  0  0  0  0  0  0  0  0  0
    8.1399  -14.7633   21.6560 O   0  0  0  0  0  0  0  0  0  0  0  0
   10.3463  -14.7874   20.9907 N   0  0  0  0  0  0  0  0  0  0  0  0
   10.7107  -15.8799   21.8528 C   0  0  0  0  0  0  0  0  0  0  0  0
   12.1504  -16.2292   21.7570 C   0  0  0  0  0  0  0  0  0  0  0  0
   12.6665  -17.2395   22.2721 O   0  0  0  0  0  0  0  0  0  0  0  0
   14.1095  -15.0297   18.4282 O   0  0  0  0  0  0  0  0  0  0  0  0
   14.7834  -14.7013   19.5856 C   0  0  0  0  0  0  0  0  0  0  0  0
   14.3796  -15.6100   20.7463 C   0  0  2  0  0  0  0  0  0  0  0  0
   12.9839  -15.3408   21.0245 N   0  0  0  0  0  0  0  0  0  0  0  0
   15.2279  -15.2717   21.9188 C   0  0  0  0  0  0  0  0  0  0  0  0
   14.6777  -14.7897   23.0964 O   0  0  0  0  0  0  0  0  0  0  0  0
   16.4759  -15.4149   21.8724 O   0  0  0  0  0  0  0  0  0  0  0  0
  2  3  1  0
  2  1  1  6
  4  2  1  0
  4  5  1  6
  6  4  1  0
  7  6  2  0
  8  6  1  0
  9  8  1  0
 10  9  1  0
 10 15  1  0
 11 10  2  0
 12 13  1  0
 14 13  1  6
 14 15  1  0
 14 16  1  0
 16 18  2  0
 16 17  1  0
M  END
$$$$
