TGS.pdb
     RDKit          3D

 18 17  0  0  1  0  0  0  0  0999 V2000
   -0.8247  -28.1532   30.8464 C   0  0  0  0  0  0  0  0  0  0  0  0
   -1.3656  -26.7638   30.6375 C   0  0  1  0  0  0  0  0  0  0  0  0
   -0.5546  -26.1427   29.6761 O   0  0  0  0  0  0  0  0  0  0  0  0
   -2.7619  -26.7971   30.0690 C   0  0  2  0  0  0  0  0  0  0  0  0
   -2.7989  -27.5744   28.8690 N   0  0  0  0  0  0  0  0  0  0  0  0
   -3.3367  -25.4388   29.8951 C   0  0  0  0  0  0  0  0  0  0  0  0
   -3.5598  -24.7443   30.9040 O   0  0  0  0  0  0  0  0  0  0  0  0
   -3.6458  -24.8943   28.6058 N   0  0  0  0  0  0  0  0  0  0  0  0
   -4.1774  -23.5696   28.4274 C   0  0  0  0  0  0  0  0  0  0  0  0
   -5.6550  -23.5600   28.2850 C   0  0  0  0  0  0  0  0  0  0  0  0
   -6.3002  -24.3561   27.5761 O   0  0  0  0  0  0  0  0  0  0  0  0
   -9.3241  -23.9391   30.5974 O   0  0  0  0  0  0  0  0  0  0  0  0
   -8.0152  -23.8601   30.1703 C   0  0  0  0  0  0  0  0  0  0  0  0
   -7.7917  -22.6449   29.2707 C   0  0  2  0  0  0  0  0  0  0  0  0
   -6.3684  -22.5693   29.0131 N   0  0  0  0  0  0  0  0  0  0  0  0
   -8.2633  -21.4364   29.9958 C   0  0  0  0  0  0  0  0  0  0  0  0
   -9.5779  -21.0053   29.9079 O   0  0  0  0  0  0  0  0  0  0  0  0
   -7.4759  -20.7687   30.7132 O   0  0  0  0  0  0  0  0  0  0  0  0
  2  3  1  0
  2  1  1  6
  4  2  1  0
  4  5  1  6
  6  4  1  0
  7  6  2  0
  8  6  1  0
  9  8  1  0
 10  9  1  0
 10 15  1  0
 11 10  2  0
 12 13  1  0
 14 13  1  1
 14 15  1  0
 14 16  1  0
 16 18  2  0
 16 17  1  0
M  END
$$$$
