TGS.pdb
     RDKit          3D

 18 17  0  0  1  0  0  0  0  0999 V2000
    7.4593  -12.3229   20.6040 C   0  0  0  0  0  0  0  0  0  0  0  0
    7.8955  -13.6684   20.0881 C   0  0  1  0  0  0  0  0  0  0  0  0
    8.8817  -13.4408   19.1169 O   0  0  0  0  0  0  0  0  0  0  0  0
    8.5404  -14.4912   21.1748 C   0  0  2  0  0  0  0  0  0  0  0  0
    9.1741  -15.6481   20.6220 N   0  0  0  0  0  0  0  0  0  0  0  0
    7.5971  -14.8193   22.2740 C   0  0  0  0  0  0  0  0  0  0  0  0
    7.1577  -13.8983   22.9872 O   0  0  0  0  0  0  0  0  0  0  0  0
    7.1713  -16.1604   22.5468 N   0  0  0  0  0  0  0  0  0  0  0  0
    6.3511  -16.5018   23.6782 C   0  0  0  0  0  0  0  0  0  0  0  0
    7.1018  -17.2329   24.7297 C   0  0  0  0  0  0  0  0  0  0  0  0
    6.6135  -17.6083   25.8128 O   0  0  0  0  0  0  0  0  0  0  0  0
   11.2909  -17.3026   24.3693 O   0  0  0  0  0  0  0  0  0  0  0  0
   10.6473  -18.4832   24.6752 C   0  0  0  0  0  0  0  0  0  0  0  0
    9.3238  -18.2294   25.3963 C   0  0  2  0  0  0  0  0  0  0  0  0
    8.4700  -17.5168   24.4684 N   0  0  0  0  0  0  0  0  0  0  0  0
    9.6012  -17.4043   26.6008 C   0  0  0  0  0  0  0  0  0  0  0  0
   10.2443  -17.9331   27.7092 O   0  0  0  0  0  0  0  0  0  0  0  0
    9.2571  -16.1961   26.6459 O   0  0  0  0  0  0  0  0  0  0  0  0
  2  3  1  0
  2  1  1  1
  4  2  1  0
  4  5  1  6
  6  4  1  0
  7  6  2  0
  8  6  1  0
  9  8  1  0
 10  9  1  0
 10 15  1  0
 11 10  2  0
 12 13  1  0
 14 13  1  6
 14 15  1  0
 14 16  1  0
 16 18  2  0
 16 17  1  0
M  END
$$$$
