TGS.pdb
     RDKit          3D

 18 17  0  0  1  0  0  0  0  0999 V2000
   10.7901  -18.2125   18.9086 C   0  0  0  0  0  0  0  0  0  0  0  0
    9.8627  -17.2170   19.5534 C   0  0  1  0  0  0  0  0  0  0  0  0
    8.5606  -17.7250   19.4342 O   0  0  0  0  0  0  0  0  0  0  0  0
   10.1409  -17.0823   21.0293 C   0  0  2  0  0  0  0  0  0  0  0  0
    9.9953  -18.3441   21.6867 N   0  0  0  0  0  0  0  0  0  0  0  0
    9.3379  -16.0052   21.6625 C   0  0  0  0  0  0  0  0  0  0  0  0
    9.5713  -14.8207   21.3587 O   0  0  0  0  0  0  0  0  0  0  0  0
    8.3007  -16.2777   22.6133 N   0  0  0  0  0  0  0  0  0  0  0  0
    7.4134  -15.2603   23.1102 C   0  0  0  0  0  0  0  0  0  0  0  0
    8.0259  -14.4424   24.1871 C   0  0  0  0  0  0  0  0  0  0  0  0
    9.2251  -14.4997   24.5204 O   0  0  0  0  0  0  0  0  0  0  0  0
    5.3386  -12.5351   26.6354 O   0  0  0  0  0  0  0  0  0  0  0  0
    6.4497  -11.7792   26.3262 C   0  0  0  0  0  0  0  0  0  0  0  0
    7.6349  -12.6603   25.9322 C   0  0  2  0  0  0  0  0  0  0  0  0
    7.1735  -13.5370   24.8756 N   0  0  0  0  0  0  0  0  0  0  0  0
    8.0498  -13.4427   27.1257 C   0  0  0  0  0  0  0  0  0  0  0  0
    7.9096  -14.8210   27.1734 O   0  0  0  0  0  0  0  0  0  0  0  0
    8.5424  -12.8701   28.1307 O   0  0  0  0  0  0  0  0  0  0  0  0
  2  3  1  0
  2  1  1  1
  4  2  1  0
  4  5  1  1
  6  4  1  0
  7  6  2  0
  8  6  1  0
  9  8  1  0
 10  9  1  0
 10 15  1  0
 11 10  2  0
 12 13  1  0
 14 13  1  1
 14 15  1  0
 14 16  1  0
 16 18  2  0
 16 17  1  0
M  END
$$$$
