TGS.pdb
     RDKit          3D

 18 17  0  0  1  0  0  0  0  0999 V2000
   -2.8075  -26.0977   27.1771 C   0  0  0  0  0  0  0  0  0  0  0  0
   -3.3512  -24.7490   27.5675 C   0  0  1  0  0  0  0  0  0  0  0  0
   -4.3942  -24.4488   26.6787 O   0  0  0  0  0  0  0  0  0  0  0  0
   -3.9553  -24.7786   28.9488 C   0  0  2  0  0  0  0  0  0  0  0  0
   -4.9451  -25.8067   29.0440 N   0  0  0  0  0  0  0  0  0  0  0  0
   -4.4608  -23.4491   29.3760 C   0  0  0  0  0  0  0  0  0  0  0  0
   -3.6466  -22.5266   29.5662 O   0  0  0  0  0  0  0  0  0  0  0  0
   -5.8550  -23.1857   29.5787 N   0  0  0  0  0  0  0  0  0  0  0  0
   -6.3587  -21.8841   29.9272 C   0  0  0  0  0  0  0  0  0  0  0  0
   -7.8015  -21.9030   30.2759 C   0  0  0  0  0  0  0  0  0  0  0  0
   -8.4533  -20.9036   30.6348 O   0  0  0  0  0  0  0  0  0  0  0  0
  -10.0430  -24.7391   28.5408 O   0  0  0  0  0  0  0  0  0  0  0  0
  -10.2946  -24.6724   29.8949 C   0  0  0  0  0  0  0  0  0  0  0  0
   -9.8813  -23.3205   30.4758 C   0  0  2  0  0  0  0  0  0  0  0  0
   -8.4712  -23.1539   30.1896 N   0  0  0  0  0  0  0  0  0  0  0  0
  -10.1238  -23.3504   31.9418 C   0  0  0  0  0  0  0  0  0  0  0  0
   -9.0763  -23.3483   32.8498 O   0  0  0  0  0  0  0  0  0  0  0  0
  -11.2942  -23.3786   32.3996 O   0  0  0  0  0  0  0  0  0  0  0  0
  2  3  1  0
  2  1  1  6
  4  2  1  0
  4  5  1  6
  6  4  1  0
  7  6  2  0
  8  6  1  0
  9  8  1  0
 10  9  1  0
 10 15  1  0
 11 10  2  0
 12 13  1  0
 14 13  1  6
 14 15  1  0
 14 16  1  0
 16 18  2  0
 16 17  1  0
M  END
$$$$
