TGS.pdb
     RDKit          3D

 18 17  0  0  1  0  0  0  0  0999 V2000
    7.8908  -16.3938   18.5769 C   0  0  0  0  0  0  0  0  0  0  0  0
    8.5461  -15.1102   18.1411 C   0  0  1  0  0  0  0  0  0  0  0  0
    8.4688  -15.0589   16.7414 O   0  0  0  0  0  0  0  0  0  0  0  0
    7.7986  -13.9077   18.6599 C   0  0  2  0  0  0  0  0  0  0  0  0
    8.0577  -12.7625   17.8431 N   0  0  0  0  0  0  0  0  0  0  0  0
    8.0544  -13.6585   20.1014 C   0  0  0  0  0  0  0  0  0  0  0  0
    9.0445  -12.9789   20.4299 O   0  0  0  0  0  0  0  0  0  0  0  0
    7.2025  -14.1720   21.1332 N   0  0  0  0  0  0  0  0  0  0  0  0
    7.4182  -13.8983   22.5289 C   0  0  0  0  0  0  0  0  0  0  0  0
    8.3118  -14.8917   23.1757 C   0  0  0  0  0  0  0  0  0  0  0  0
    8.5235  -14.9565   24.4019 O   0  0  0  0  0  0  0  0  0  0  0  0
    8.7345  -18.4960   21.4222 O   0  0  0  0  0  0  0  0  0  0  0  0
    9.9521  -17.9115   21.7006 C   0  0  0  0  0  0  0  0  0  0  0  0
    9.8336  -16.8740   22.8167 C   0  0  2  0  0  0  0  0  0  0  0  0
    8.9629  -15.8261   22.3251 N   0  0  0  0  0  0  0  0  0  0  0  0
   11.1915  -16.3427   23.1037 C   0  0  0  0  0  0  0  0  0  0  0  0
   12.0315  -16.9570   24.0196 O   0  0  0  0  0  0  0  0  0  0  0  0
   11.6166  -15.3143   22.5189 O   0  0  0  0  0  0  0  0  0  0  0  0
  2  3  1  0
  2  1  1  1
  4  2  1  0
  4  5  1  6
  6  4  1  0
  7  6  2  0
  8  6  1  0
  9  8  1  0
 10  9  1  0
 10 15  1  0
 11 10  2  0
 12 13  1  0
 14 13  1  6
 14 15  1  0
 14 16  1  0
 16 18  2  0
 16 17  1  0
M  END
$$$$
