TGS.pdb
     RDKit          3D

 18 17  0  0  1  0  0  0  0  0999 V2000
   11.6847  -20.2763   16.1886 C   0  0  0  0  0  0  0  0  0  0  0  0
   10.9460  -19.1747   16.9012 C   0  0  1  0  0  0  0  0  0  0  0  0
   11.8059  -18.0679   16.9586 O   0  0  0  0  0  0  0  0  0  0  0  0
    9.7293  -18.7373   16.1252 C   0  0  2  0  0  0  0  0  0  0  0  0
   10.0904  -18.3563   14.7947 N   0  0  0  0  0  0  0  0  0  0  0  0
    8.9499  -17.6905   16.8341 C   0  0  0  0  0  0  0  0  0  0  0  0
    9.0267  -16.5115   16.4418 O   0  0  0  0  0  0  0  0  0  0  0  0
    8.1094  -17.9862   17.9568 N   0  0  0  0  0  0  0  0  0  0  0  0
    7.3694  -16.9747   18.6629 C   0  0  0  0  0  0  0  0  0  0  0  0
    8.2438  -16.0738   19.4551 C   0  0  0  0  0  0  0  0  0  0  0  0
    9.4605  -16.2616   19.6469 O   0  0  0  0  0  0  0  0  0  0  0  0
    7.7322  -12.2443   19.3537 O   0  0  0  0  0  0  0  0  0  0  0  0
    7.7039  -12.6231   20.6793 C   0  0  0  0  0  0  0  0  0  0  0  0
    8.3464  -13.9948   20.8840 C   0  0  2  0  0  0  0  0  0  0  0  0
    7.6371  -14.9227   20.0275 N   0  0  0  0  0  0  0  0  0  0  0  0
    8.1936  -14.3713   22.3135 C   0  0  0  0  0  0  0  0  0  0  0  0
    8.8993  -13.7207   23.3138 O   0  0  0  0  0  0  0  0  0  0  0  0
    7.4144  -15.2967   22.6551 O   0  0  0  0  0  0  0  0  0  0  0  0
  2  3  1  0
  2  1  1  6
  4  2  1  0
  4  5  1  6
  6  4  1  0
  7  6  2  0
  8  6  1  0
  9  8  1  0
 10  9  1  0
 10 15  1  0
 11 10  2  0
 12 13  1  0
 14 13  1  1
 14 15  1  0
 14 16  1  0
 16 18  2  0
 16 17  1  0
M  END
$$$$
