TGS.pdb
     RDKit          3D

 18 17  0  0  1  0  0  0  0  0999 V2000
    8.6118  -12.4717   19.2663 C   0  0  0  0  0  0  0  0  0  0  0  0
    8.0919  -13.6999   18.5675 C   0  0  1  0  0  0  0  0  0  0  0  0
    7.0624  -13.2849   17.7098 O   0  0  0  0  0  0  0  0  0  0  0  0
    9.1520  -14.3281   17.6984 C   0  0  2  0  0  0  0  0  0  0  0  0
    8.5723  -15.2891   16.8118 N   0  0  0  0  0  0  0  0  0  0  0  0
   10.2813  -14.8799   18.4896 C   0  0  0  0  0  0  0  0  0  0  0  0
   10.3167  -16.1031   18.7185 O   0  0  0  0  0  0  0  0  0  0  0  0
   11.3360  -14.0556   19.0017 N   0  0  0  0  0  0  0  0  0  0  0  0
   12.4746  -14.5919   19.6984 C   0  0  0  0  0  0  0  0  0  0  0  0
   12.1832  -14.8977   21.1215 C   0  0  0  0  0  0  0  0  0  0  0  0
   13.0210  -15.3314   21.9354 O   0  0  0  0  0  0  0  0  0  0  0  0
    8.1135  -15.1571   22.1599 O   0  0  0  0  0  0  0  0  0  0  0  0
    8.9642  -14.5053   23.0276 C   0  0  0  0  0  0  0  0  0  0  0  0
   10.3971  -15.0221   22.9017 C   0  0  2  0  0  0  0  0  0  0  0  0
   10.8532  -14.6752   21.5714 N   0  0  0  0  0  0  0  0  0  0  0  0
   10.3776  -16.4966   23.0868 C   0  0  0  0  0  0  0  0  0  0  0  0
   10.2179  -17.0677   24.3398 O   0  0  0  0  0  0  0  0  0  0  0  0
   10.5063  -17.2699   22.1041 O   0  0  0  0  0  0  0  0  0  0  0  0
  2  3  1  0
  2  1  1  6
  4  2  1  0
  4  5  1  1
  6  4  1  0
  7  6  2  0
  8  6  1  0
  9  8  1  0
 10  9  1  0
 10 15  1  0
 11 10  2  0
 12 13  1  0
 14 13  1  6
 14 15  1  0
 14 16  1  0
 16 18  2  0
 16 17  1  0
M  END
$$$$
