TGS.pdb
     RDKit          3D

 18 17  0  0  1  0  0  0  0  0999 V2000
    2.8984  -20.1131   21.5417 C   0  0  0  0  0  0  0  0  0  0  0  0
    3.7761  -19.1259   20.8193 C   0  0  1  0  0  0  0  0  0  0  0  0
    2.9426  -18.1085   20.3317 O   0  0  0  0  0  0  0  0  0  0  0  0
    4.7549  -18.4694   21.7600 C   0  0  2  0  0  0  0  0  0  0  0  0
    4.0680  -17.8557   22.8542 N   0  0  0  0  0  0  0  0  0  0  0  0
    5.6764  -17.5377   21.0612 C   0  0  0  0  0  0  0  0  0  0  0  0
    6.5292  -18.0032   20.2828 O   0  0  0  0  0  0  0  0  0  0  0  0
    5.6218  -16.1178   21.2488 N   0  0  0  0  0  0  0  0  0  0  0  0
    6.4857  -15.2062   20.5476 C   0  0  0  0  0  0  0  0  0  0  0  0
    7.7086  -14.8686   21.3185 C   0  0  0  0  0  0  0  0  0  0  0  0
    8.7052  -14.2916   20.8428 O   0  0  0  0  0  0  0  0  0  0  0  0
    7.1797  -14.8103   25.2494 O   0  0  0  0  0  0  0  0  0  0  0  0
    8.3630  -14.2737   24.7874 C   0  0  0  0  0  0  0  0  0  0  0  0
    8.8725  -15.0189   23.5540 C   0  0  2  0  0  0  0  0  0  0  0  0
    7.7288  -15.2350   22.6918 N   0  0  0  0  0  0  0  0  0  0  0  0
    9.4519  -16.3131   23.9989 C   0  0  0  0  0  0  0  0  0  0  0  0
    8.8496  -17.5222   23.6871 O   0  0  0  0  0  0  0  0  0  0  0  0
   10.5114  -16.3449   24.6747 O   0  0  0  0  0  0  0  0  0  0  0  0
  2  3  1  0
  2  1  1  1
  4  2  1  0
  4  5  1  1
  6  4  1  0
  7  6  2  0
  8  6  1  0
  9  8  1  0
 10  9  1  0
 10 15  1  0
 11 10  2  0
 12 13  1  0
 14 13  1  1
 14 15  1  0
 14 16  1  0
 16 18  2  0
 16 17  1  0
M  END
$$$$
