GNS.pdb
     RDKit          3D

 19 18  0  0  1  0  0  0  0  0999 V2000
   21.2520  -13.2599  -18.1998 N   0  0  0  0  0  0  0  0  0  0  0  0
   21.1011  -11.8240  -18.3500 C   0  0  0  0  0  0  0  0  0  0  0  0
   21.8400  -11.0890  -17.2825 C   0  0  0  0  0  0  0  0  0  0  0  0
   21.5070  -11.1158  -16.0873 O   0  0  0  0  0  0  0  0  0  0  0  0
   27.0184  -10.5047  -15.2245 N   0  0  0  0  0  0  0  0  0  0  0  0
   25.9138   -9.6395  -15.5652 C   0  0  0  0  0  0  0  0  0  0  0  0
   25.5632   -8.8285  -14.7026 O   0  0  0  0  0  0  0  0  0  0  0  0
   25.2642   -9.7450  -16.8783 C   0  0  0  0  0  0  0  0  0  0  0  0
   23.7673   -9.5439  -16.8325 C   0  0  2  0  0  0  0  0  0  0  0  0
   22.9642  -10.3363  -17.6754 N   0  0  0  0  0  0  0  0  0  0  0  0
   23.3511   -8.1370  -16.7268 C   0  0  0  0  0  0  0  0  0  0  0  0
   23.1732   -7.4565  -17.7930 O   0  0  0  0  0  0  0  0  0  0  0  0
   21.6354   -4.4497  -14.0803 O   0  0  0  0  0  0  0  0  0  0  0  0
   22.1766   -5.7340  -14.0776 C   0  0  0  0  0  0  0  0  0  0  0  0
   22.6182   -6.1254  -15.4746 C   0  0  2  0  0  0  0  0  0  0  0  0
   23.1271   -7.4638  -15.5077 N   0  0  0  0  0  0  0  0  0  0  0  0
   23.6527   -5.1664  -15.9237 C   0  0  0  0  0  0  0  0  0  0  0  0
   23.3259   -3.9900  -16.5692 O   0  0  0  0  0  0  0  0  0  0  0  0
   24.8596   -5.4187  -15.7180 O   0  0  0  0  0  0  0  0  0  0  0  0
  1  2  1  0
  2  3  1  0
  3 10  1  0
  3  4  2  0
  6  5  1  0
  7  6  2  0
  8  6  1  0
  9  8  1  6
 10  9  1  0
 11  9  1  0
 11 12  2  0
 14 13  1  0
 15 14  1  1
 15 16  1  0
 16 11  1  0
 17 15  1  0
 18 17  1  0
 19 17  2  0
M  END
$$$$
