GNS.pdb
     RDKit          3D

 19 18  0  0  1  0  0  0  0  0999 V2000
   22.5091   -8.9050  -18.9634 N   0  0  0  0  0  0  0  0  0  0  0  0
   21.2203   -8.2890  -19.2211 C   0  0  0  0  0  0  0  0  0  0  0  0
   20.8832   -7.2832  -18.1721 C   0  0  0  0  0  0  0  0  0  0  0  0
   19.7530   -6.7854  -18.0498 O   0  0  0  0  0  0  0  0  0  0  0  0
   21.0168   -4.5744  -13.9225 N   0  0  0  0  0  0  0  0  0  0  0  0
   22.1763   -5.4294  -13.8263 C   0  0  0  0  0  0  0  0  0  0  0  0
   22.7626   -5.4418  -12.7396 O   0  0  0  0  0  0  0  0  0  0  0  0
   22.6081   -6.2294  -14.9799 C   0  0  0  0  0  0  0  0  0  0  0  0
   21.7954   -5.9805  -16.2292 C   0  0  2  0  0  0  0  0  0  0  0  0
   21.9133   -6.8967  -17.2922 N   0  0  0  0  0  0  0  0  0  0  0  0
   21.7318   -4.5681  -16.6354 C   0  0  0  0  0  0  0  0  0  0  0  0
   22.7117   -4.0580  -17.2766 O   0  0  0  0  0  0  0  0  0  0  0  0
   19.1565   -0.7515  -17.9040 O   0  0  0  0  0  0  0  0  0  0  0  0
   19.1751   -2.0140  -17.3141 C   0  0  0  0  0  0  0  0  0  0  0  0
   20.5863   -2.3843  -16.9002 C   0  0  2  0  0  0  0  0  0  0  0  0
   20.6443   -3.7115  -16.3650 N   0  0  0  0  0  0  0  0  0  0  0  0
   21.0528   -1.4003  -15.8975 C   0  0  0  0  0  0  0  0  0  0  0  0
   22.0314   -0.4702  -16.1883 O   0  0  0  0  0  0  0  0  0  0  0  0
   20.5535   -1.4024  -14.7515 O   0  0  0  0  0  0  0  0  0  0  0  0
  1  2  1  0
  2  3  1  0
  3 10  1  0
  3  4  2  0
  6  5  1  0
  7  6  2  0
  8  6  1  0
  9  8  1  1
 10  9  1  0
 11  9  1  0
 11 12  2  0
 14 13  1  0
 15 14  1  1
 15 16  1  0
 16 11  1  0
 17 15  1  0
 18 17  1  0
 19 17  2  0
M  END
$$$$
