GNS.pdb
     RDKit          3D

 19 18  0  0  1  0  0  0  0  0999 V2000
   18.4123  -12.2267  -17.5336 N   0  0  0  0  0  0  0  0  0  0  0  0
   19.6368  -11.5164  -17.2126 C   0  0  0  0  0  0  0  0  0  0  0  0
   19.4168  -10.0408  -17.1975 C   0  0  0  0  0  0  0  0  0  0  0  0
   19.3215   -9.3600  -18.2306 O   0  0  0  0  0  0  0  0  0  0  0  0
   15.7411   -7.0995  -16.4376 N   0  0  0  0  0  0  0  0  0  0  0  0
   16.6155   -8.0607  -15.8081 C   0  0  0  0  0  0  0  0  0  0  0  0
   16.3030   -9.2495  -15.9261 O   0  0  0  0  0  0  0  0  0  0  0  0
   17.8064   -7.6135  -15.0739 C   0  0  0  0  0  0  0  0  0  0  0  0
   19.1081   -8.0410  -15.7111 C   0  0  2  0  0  0  0  0  0  0  0  0
   19.3164   -9.4150  -15.9393 N   0  0  0  0  0  0  0  0  0  0  0  0
   20.2873   -7.3105  -15.2215 C   0  0  0  0  0  0  0  0  0  0  0  0
   20.7771   -7.6085  -14.0801 O   0  0  0  0  0  0  0  0  0  0  0  0
   23.8545   -4.0842  -15.9125 O   0  0  0  0  0  0  0  0  0  0  0  0
   22.6745   -4.6383  -16.4054 C   0  0  0  0  0  0  0  0  0  0  0  0
   22.0942   -5.6219  -15.4076 C   0  0  2  0  0  0  0  0  0  0  0  0
   20.9361   -6.2801  -15.9335 N   0  0  0  0  0  0  0  0  0  0  0  0
   21.7543   -4.8855  -14.1691 C   0  0  0  0  0  0  0  0  0  0  0  0
   20.5848   -4.1608  -14.0489 O   0  0  0  0  0  0  0  0  0  0  0  0
   22.5412   -4.9137  -13.1983 O   0  0  0  0  0  0  0  0  0  0  0  0
  1  2  1  0
  2  3  1  0
  3 10  1  0
  3  4  2  0
  6  5  1  0
  7  6  2  0
  8  6  1  0
  9  8  1  1
 10  9  1  0
 11  9  1  0
 11 12  2  0
 14 13  1  0
 15 14  1  6
 15 16  1  0
 16 11  1  0
 17 15  1  0
 18 17  1  0
 19 17  2  0
M  END
$$$$
