GNS.pdb
     RDKit          3D

 19 18  0  0  1  0  0  0  0  0999 V2000
   13.6730  -11.0013   -9.2907 N   0  0  0  0  0  0  0  0  0  0  0  0
   12.7034  -10.1039   -9.8919 C   0  0  0  0  0  0  0  0  0  0  0  0
   13.3055   -8.7681  -10.1729 C   0  0  0  0  0  0  0  0  0  0  0  0
   12.6796   -7.8439  -10.7152 O   0  0  0  0  0  0  0  0  0  0  0  0
   16.3328   -4.7488  -10.2314 N   0  0  0  0  0  0  0  0  0  0  0  0
   16.1759   -5.2403   -8.8829 C   0  0  0  0  0  0  0  0  0  0  0  0
   16.4916   -4.4659   -7.9744 O   0  0  0  0  0  0  0  0  0  0  0  0
   15.6645   -6.5956   -8.6402 C   0  0  0  0  0  0  0  0  0  0  0  0
   15.3735   -7.3698   -9.9048 C   0  0  2  0  0  0  0  0  0  0  0  0
   14.6488   -8.5723   -9.7958 N   0  0  0  0  0  0  0  0  0  0  0  0
   16.4921   -7.4071  -10.8595 C   0  0  0  0  0  0  0  0  0  0  0  0
   17.5821   -7.9812  -10.5222 O   0  0  0  0  0  0  0  0  0  0  0  0
   18.0953   -7.2499  -15.3906 O   0  0  0  0  0  0  0  0  0  0  0  0
   17.0299   -7.0801  -14.5083 C   0  0  0  0  0  0  0  0  0  0  0  0
   17.5310   -7.0208  -13.0782 C   0  0  2  0  0  0  0  0  0  0  0  0
   16.4529   -6.8439  -12.1521 N   0  0  0  0  0  0  0  0  0  0  0  0
   18.4977   -5.9052  -12.9675 C   0  0  0  0  0  0  0  0  0  0  0  0
   19.8622   -6.1163  -12.9990 O   0  0  0  0  0  0  0  0  0  0  0  0
   18.0779   -4.7346  -12.8414 O   0  0  0  0  0  0  0  0  0  0  0  0
  1  2  1  0
  2  3  1  0
  3 10  1  0
  3  4  2  0
  6  5  1  0
  7  6  2  0
  8  6  1  0
  9  8  1  1
 10  9  1  0
 11  9  1  0
 11 12  2  0
 14 13  1  0
 15 14  1  6
 15 16  1  0
 16 11  1  0
 17 15  1  0
 18 17  1  0
 19 17  2  0
M  END
$$$$
