GNS.pdb
     RDKit          3D

 19 18  0  0  1  0  0  0  0  0999 V2000
   19.7186  -10.5128  -18.9249 N   0  0  0  0  0  0  0  0  0  0  0  0
   18.8503   -9.5256  -18.3098 C   0  0  0  0  0  0  0  0  0  0  0  0
   19.4603   -8.9698  -17.0669 C   0  0  0  0  0  0  0  0  0  0  0  0
   18.8113   -8.7575  -16.0307 O   0  0  0  0  0  0  0  0  0  0  0  0
   23.3698  -11.1831  -15.9615 N   0  0  0  0  0  0  0  0  0  0  0  0
   22.8032  -10.0924  -15.2038 C   0  0  0  0  0  0  0  0  0  0  0  0
   22.2372  -10.3911  -14.1478 O   0  0  0  0  0  0  0  0  0  0  0  0
   22.9128   -8.7117  -15.6924 C   0  0  0  0  0  0  0  0  0  0  0  0
   21.5848   -8.0904  -16.0583 C   0  0  2  0  0  0  0  0  0  0  0  0
   20.8388   -8.6804  -17.0968 N   0  0  0  0  0  0  0  0  0  0  0  0
   21.5871   -6.6194  -16.0582 C   0  0  0  0  0  0  0  0  0  0  0  0
   21.8912   -5.9953  -17.1303 O   0  0  0  0  0  0  0  0  0  0  0  0
   19.2458   -4.2646  -13.7688 O   0  0  0  0  0  0  0  0  0  0  0  0
   19.8882   -3.8171  -14.9218 C   0  0  0  0  0  0  0  0  0  0  0  0
   21.2883   -4.3937  -15.0055 C   0  0  2  0  0  0  0  0  0  0  0  0
   21.2710   -5.8241  -14.9369 N   0  0  0  0  0  0  0  0  0  0  0  0
   22.0924   -3.8314  -13.8970 C   0  0  0  0  0  0  0  0  0  0  0  0
   22.3562   -2.4792  -13.7998 O   0  0  0  0  0  0  0  0  0  0  0  0
   22.5507   -4.5933  -13.0183 O   0  0  0  0  0  0  0  0  0  0  0  0
  1  2  1  0
  2  3  1  0
  3 10  1  0
  3  4  2  0
  6  5  1  0
  7  6  2  0
  8  6  1  0
  9  8  1  6
 10  9  1  0
 11  9  1  0
 11 12  2  0
 14 13  1  0
 15 14  1  1
 15 16  1  0
 16 11  1  0
 17 15  1  0
 18 17  1  0
 19 17  2  0
M  END
$$$$
