GNS.pdb
     RDKit          3D

 19 18  0  0  1  0  0  0  0  0999 V2000
   18.2068  -11.8669  -15.7109 N   0  0  0  0  0  0  0  0  0  0  0  0
   18.3039  -10.7359  -16.6155 C   0  0  0  0  0  0  0  0  0  0  0  0
   18.7385   -9.5039  -15.8948 C   0  0  0  0  0  0  0  0  0  0  0  0
   17.9833   -8.8466  -15.1617 O   0  0  0  0  0  0  0  0  0  0  0  0
   23.1795   -9.9775  -14.2437 N   0  0  0  0  0  0  0  0  0  0  0  0
   22.3123   -8.8407  -14.0428 C   0  0  0  0  0  0  0  0  0  0  0  0
   21.8082   -8.7242  -12.9216 O   0  0  0  0  0  0  0  0  0  0  0  0
   22.0648   -7.8918  -15.1362 C   0  0  0  0  0  0  0  0  0  0  0  0
   20.6319   -7.8788  -15.6155 C   0  0  2  0  0  0  0  0  0  0  0  0
   20.0729   -9.0882  -16.0718 N   0  0  0  0  0  0  0  0  0  0  0  0
   20.2728   -6.6940  -16.4099 C   0  0  0  0  0  0  0  0  0  0  0  0
   20.1892   -6.7957  -17.6804 O   0  0  0  0  0  0  0  0  0  0  0  0
   17.5210   -3.6403  -17.8615 O   0  0  0  0  0  0  0  0  0  0  0  0
   18.0698   -4.7144  -17.1633 C   0  0  0  0  0  0  0  0  0  0  0  0
   19.4567   -4.3652  -16.6592 C   0  0  2  0  0  0  0  0  0  0  0  0
   20.0063   -5.4213  -15.8631 N   0  0  0  0  0  0  0  0  0  0  0  0
   19.3667   -3.1152  -15.8711 C   0  0  0  0  0  0  0  0  0  0  0  0
   19.2907   -1.8757  -16.4753 O   0  0  0  0  0  0  0  0  0  0  0  0
   19.3585   -3.1718  -14.6224 O   0  0  0  0  0  0  0  0  0  0  0  0
  1  2  1  0
  2  3  1  0
  3 10  1  0
  3  4  2  0
  6  5  1  0
  7  6  2  0
  8  6  1  0
  9  8  1  6
 10  9  1  0
 11  9  1  0
 11 12  2  0
 14 13  1  0
 15 14  1  1
 15 16  1  0
 16 11  1  0
 17 15  1  0
 18 17  1  0
 19 17  2  0
M  END
$$$$
