GNS.pdb
     RDKit          3D

 19 18  0  0  1  0  0  0  0  0999 V2000
   20.3288  -11.2433  -18.8506 N   0  0  0  0  0  0  0  0  0  0  0  0
   20.0968   -9.8104  -18.8457 C   0  0  0  0  0  0  0  0  0  0  0  0
   20.3025   -9.2349  -17.4847 C   0  0  0  0  0  0  0  0  0  0  0  0
   19.3672   -8.9687  -16.7138 O   0  0  0  0  0  0  0  0  0  0  0  0
   23.9096  -11.5737  -15.5296 N   0  0  0  0  0  0  0  0  0  0  0  0
   22.9278  -10.6589  -14.9966 C   0  0  0  0  0  0  0  0  0  0  0  0
   21.9311  -11.1651  -14.4722 O   0  0  0  0  0  0  0  0  0  0  0  0
   23.1356   -9.2079  -15.0898 C   0  0  0  0  0  0  0  0  0  0  0  0
   22.0352   -8.4838  -15.8301 C   0  0  2  0  0  0  0  0  0  0  0  0
   21.6297   -8.9910  -17.0797 N   0  0  0  0  0  0  0  0  0  0  0  0
   22.1244   -7.0172  -15.7583 C   0  0  0  0  0  0  0  0  0  0  0  0
   22.9169   -6.4003  -16.5475 O   0  0  0  0  0  0  0  0  0  0  0  0
   19.3572   -4.5764  -16.0133 O   0  0  0  0  0  0  0  0  0  0  0  0
   20.0809   -4.1587  -14.8978 C   0  0  0  0  0  0  0  0  0  0  0  0
   21.4602   -4.7890  -14.8950 C   0  0  2  0  0  0  0  0  0  0  0  0
   21.3829   -6.2188  -14.8626 N   0  0  0  0  0  0  0  0  0  0  0  0
   22.2028   -4.2833  -13.7185 C   0  0  0  0  0  0  0  0  0  0  0  0
   22.4990   -2.9433  -13.5634 O   0  0  0  0  0  0  0  0  0  0  0  0
   22.5774   -5.0833  -12.8340 O   0  0  0  0  0  0  0  0  0  0  0  0
  1  2  1  0
  2  3  1  0
  3 10  1  0
  3  4  2  0
  6  5  1  0
  7  6  2  0
  8  6  1  0
  9  8  1  6
 10  9  1  0
 11  9  1  0
 11 12  2  0
 14 13  1  0
 15 14  1  1
 15 16  1  0
 16 11  1  0
 17 15  1  0
 18 17  1  0
 19 17  2  0
M  END
$$$$
