GNS.pdb
     RDKit          3D

 19 18  0  0  1  0  0  0  0  0999 V2000
   11.4044  -11.4699   -9.0661 N   0  0  0  0  0  0  0  0  0  0  0  0
   12.0729  -10.6231  -10.0371 C   0  0  0  0  0  0  0  0  0  0  0  0
   13.3811  -10.1315   -9.5148 C   0  0  0  0  0  0  0  0  0  0  0  0
   14.1999  -10.8662   -8.9407 O   0  0  0  0  0  0  0  0  0  0  0  0
   18.0329   -7.9906  -11.7635 N   0  0  0  0  0  0  0  0  0  0  0  0
   17.3352   -8.4395  -10.5818 C   0  0  0  0  0  0  0  0  0  0  0  0
   17.9471   -8.3486   -9.5131 O   0  0  0  0  0  0  0  0  0  0  0  0
   15.9695   -8.9708  -10.6814 C   0  0  0  0  0  0  0  0  0  0  0  0
   14.9604   -8.2093   -9.8537 C   0  0  2  0  0  0  0  0  0  0  0  0
   13.6766   -8.7657   -9.6939 N   0  0  0  0  0  0  0  0  0  0  0  0
   14.9806   -6.7540  -10.0678 C   0  0  0  0  0  0  0  0  0  0  0  0
   14.5985   -6.2828  -11.1918 O   0  0  0  0  0  0  0  0  0  0  0  0
   14.2223   -4.0863   -7.2639 O   0  0  0  0  0  0  0  0  0  0  0  0
   15.2620   -3.6143   -8.0630 C   0  0  0  0  0  0  0  0  0  0  0  0
   15.3386   -4.4058   -9.3543 C   0  0  2  0  0  0  0  0  0  0  0  0
   15.3996   -5.8144   -9.1028 N   0  0  0  0  0  0  0  0  0  0  0  0
   16.5345   -3.9611  -10.1049 C   0  0  0  0  0  0  0  0  0  0  0  0
   16.7163   -2.6425  -10.4731 O   0  0  0  0  0  0  0  0  0  0  0  0
   17.4112   -4.7947  -10.4198 O   0  0  0  0  0  0  0  0  0  0  0  0
  1  2  1  0
  2  3  1  0
  3 10  1  0
  3  4  2  0
  6  5  1  0
  7  6  2  0
  8  6  1  0
  9  8  1  6
 10  9  1  0
 11  9  1  0
 11 12  2  0
 14 13  1  0
 15 14  1  1
 15 16  1  0
 16 11  1  0
 17 15  1  0
 18 17  1  0
 19 17  2  0
M  END
$$$$
