GNS.pdb
     RDKit          3D

 19 18  0  0  1  0  0  0  0  0999 V2000
   17.2584  -15.2449  -16.5674 N   0  0  0  0  0  0  0  0  0  0  0  0
   16.9112  -14.1779  -15.6465 C   0  0  0  0  0  0  0  0  0  0  0  0
   17.3104  -12.8463  -16.1880 C   0  0  0  0  0  0  0  0  0  0  0  0
   17.6722  -12.6738  -17.3624 O   0  0  0  0  0  0  0  0  0  0  0  0
   16.7934   -7.7645  -17.6491 N   0  0  0  0  0  0  0  0  0  0  0  0
   16.6524   -8.1378  -16.2615 C   0  0  0  0  0  0  0  0  0  0  0  0
   16.8431   -7.2457  -15.4292 O   0  0  0  0  0  0  0  0  0  0  0  0
   16.2994   -9.5153  -15.8942 C   0  0  0  0  0  0  0  0  0  0  0  0
   17.4968  -10.4023  -15.6437 C   0  0  2  0  0  0  0  0  0  0  0  0
   17.2664  -11.7496  -15.3047 N   0  0  0  0  0  0  0  0  0  0  0  0
   18.5810   -9.7528  -14.8910 C   0  0  0  0  0  0  0  0  0  0  0  0
   18.6100   -9.8611  -13.6187 O   0  0  0  0  0  0  0  0  0  0  0  0
   22.3347   -9.3464  -16.1634 O   0  0  0  0  0  0  0  0  0  0  0  0
   21.9523   -9.2539  -14.8264 C   0  0  0  0  0  0  0  0  0  0  0  0
   20.6778   -8.4426  -14.6952 C   0  0  2  0  0  0  0  0  0  0  0  0
   19.6182   -9.0005  -15.4809 N   0  0  0  0  0  0  0  0  0  0  0  0
   20.9621   -7.0534  -15.1203 C   0  0  0  0  0  0  0  0  0  0  0  0
   21.8340   -6.2408  -14.4227 O   0  0  0  0  0  0  0  0  0  0  0  0
   20.4023   -6.5924  -16.1386 O   0  0  0  0  0  0  0  0  0  0  0  0
  1  2  1  0
  2  3  1  0
  3 10  1  0
  3  4  2  0
  6  5  1  0
  7  6  2  0
  8  6  1  0
  9  8  1  1
 10  9  1  0
 11  9  1  0
 11 12  2  0
 14 13  1  0
 15 14  1  6
 15 16  1  0
 16 11  1  0
 17 15  1  0
 18 17  1  0
 19 17  2  0
M  END
$$$$
