GNS.pdb
     RDKit          3D

 19 18  0  0  1  0  0  0  0  0999 V2000
   18.6632  -14.6681  -16.4404 N   0  0  0  0  0  0  0  0  0  0  0  0
   18.7065  -13.7593  -17.5714 C   0  0  0  0  0  0  0  0  0  0  0  0
   18.5331  -12.3437  -17.1333 C   0  0  0  0  0  0  0  0  0  0  0  0
   18.6967  -11.3754  -17.8920 O   0  0  0  0  0  0  0  0  0  0  0  0
   17.2346   -8.8523  -12.4466 N   0  0  0  0  0  0  0  0  0  0  0  0
   16.6492   -9.4052  -13.6451 C   0  0  0  0  0  0  0  0  0  0  0  0
   15.8954   -8.6634  -14.2825 O   0  0  0  0  0  0  0  0  0  0  0  0
   16.9562  -10.7815  -14.0559 C   0  0  0  0  0  0  0  0  0  0  0  0
   17.9568  -10.8689  -15.1848 C   0  0  2  0  0  0  0  0  0  0  0  0
   18.1668  -12.1225  -15.7910 N   0  0  0  0  0  0  0  0  0  0  0  0
   19.1759  -10.0736  -14.9724 C   0  0  0  0  0  0  0  0  0  0  0  0
   20.1110  -10.5467  -14.2421 O   0  0  0  0  0  0  0  0  0  0  0  0
   22.5720   -7.2723  -16.5051 O   0  0  0  0  0  0  0  0  0  0  0  0
   21.3566   -7.9286  -16.6906 C   0  0  0  0  0  0  0  0  0  0  0  0
   20.6480   -8.1161  -15.3631 C   0  0  2  0  0  0  0  0  0  0  0  0
   19.3983   -8.7960  -15.5275 N   0  0  0  0  0  0  0  0  0  0  0  0
   20.4367   -6.7835  -14.7538 C   0  0  0  0  0  0  0  0  0  0  0  0
   21.3629   -6.2162  -13.9007 O   0  0  0  0  0  0  0  0  0  0  0  0
   19.3936   -6.1449  -15.0119 O   0  0  0  0  0  0  0  0  0  0  0  0
  1  2  1  0
  2  3  1  0
  3 10  1  0
  3  4  2  0
  6  5  1  0
  7  6  2  0
  8  6  1  0
  9  8  1  1
 10  9  1  0
 11  9  1  0
 11 12  2  0
 14 13  1  0
 15 14  1  6
 15 16  1  0
 16 11  1  0
 17 15  1  0
 18 17  1  0
 19 17  2  0
M  END
$$$$
