GNS.pdb
     RDKit          3D

 19 18  0  0  1  0  0  0  0  0999 V2000
   16.6630  -11.8793  -15.2433 N   0  0  0  0  0  0  0  0  0  0  0  0
   17.6918  -11.4195  -14.3283 C   0  0  0  0  0  0  0  0  0  0  0  0
   18.1141  -10.0246  -14.6476 C   0  0  0  0  0  0  0  0  0  0  0  0
   18.8541   -9.7434  -15.6033 O   0  0  0  0  0  0  0  0  0  0  0  0
   15.3737   -6.2908  -15.9369 N   0  0  0  0  0  0  0  0  0  0  0  0
   15.5208   -6.9856  -14.6798 C   0  0  0  0  0  0  0  0  0  0  0  0
   14.6517   -7.8191  -14.4064 O   0  0  0  0  0  0  0  0  0  0  0  0
   16.6569   -6.6921  -13.7965 C   0  0  0  0  0  0  0  0  0  0  0  0
   17.8360   -7.6155  -13.9975 C   0  0  2  0  0  0  0  0  0  0  0  0
   17.6375   -8.9971  -13.8099 N   0  0  0  0  0  0  0  0  0  0  0  0
   19.1057   -7.0962  -13.4662 C   0  0  0  0  0  0  0  0  0  0  0  0
   19.2698   -7.0221  -12.2017 O   0  0  0  0  0  0  0  0  0  0  0  0
   22.6033   -8.2021  -14.3603 O   0  0  0  0  0  0  0  0  0  0  0  0
   22.6113   -6.8102  -14.4299 C   0  0  0  0  0  0  0  0  0  0  0  0
   21.4215   -6.2359  -13.6852 C   0  0  2  0  0  0  0  0  0  0  0  0
   20.1839   -6.6631  -14.2658 N   0  0  0  0  0  0  0  0  0  0  0  0
   21.5231   -4.7593  -13.7097 C   0  0  0  0  0  0  0  0  0  0  0  0
   22.4978   -4.0831  -13.0024 O   0  0  0  0  0  0  0  0  0  0  0  0
   20.7084   -4.0954  -14.3865 O   0  0  0  0  0  0  0  0  0  0  0  0
  1  2  1  0
  2  3  1  0
  3 10  1  0
  3  4  2  0
  6  5  1  0
  7  6  2  0
  8  6  1  0
  9  8  1  1
 10  9  1  0
 11  9  1  0
 11 12  2  0
 14 13  1  0
 15 14  1  6
 15 16  1  0
 16 11  1  0
 17 15  1  0
 18 17  1  0
 19 17  2  0
M  END
$$$$
