GNS.pdb
     RDKit          3D

 19 18  0  0  1  0  0  0  0  0999 V2000
   25.2718  -19.9326   -8.8372 N   0  0  0  0  0  0  0  0  0  0  0  0
   25.4951  -20.8912   -9.9042 C   0  0  0  0  0  0  0  0  0  0  0  0
   25.4477  -20.2312  -11.2414 C   0  0  0  0  0  0  0  0  0  0  0  0
   25.0452  -19.0694  -11.4091 O   0  0  0  0  0  0  0  0  0  0  0  0
   28.4742  -19.5193  -13.3981 N   0  0  0  0  0  0  0  0  0  0  0  0
   28.2808  -20.5780  -14.3606 C   0  0  0  0  0  0  0  0  0  0  0  0
   29.2927  -20.9923  -14.9342 O   0  0  0  0  0  0  0  0  0  0  0  0
   26.9370  -21.1115  -14.6192 C   0  0  0  0  0  0  0  0  0  0  0  0
   25.8773  -20.5616  -13.6930 C   0  0  2  0  0  0  0  0  0  0  0  0
   25.8853  -20.9834  -12.3494 N   0  0  0  0  0  0  0  0  0  0  0  0
   24.5413  -20.4579  -14.2998 C   0  0  0  0  0  0  0  0  0  0  0  0
   23.6715  -21.3601  -14.0530 O   0  0  0  0  0  0  0  0  0  0  0  0
   22.5139  -17.0880  -15.1316 O   0  0  0  0  0  0  0  0  0  0  0  0
   22.4543  -17.9867  -16.1951 C   0  0  0  0  0  0  0  0  0  0  0  0
   22.8247  -19.3820  -15.7306 C   0  0  2  0  0  0  0  0  0  0  0  0
   24.1357  -19.4119  -15.1550 N   0  0  0  0  0  0  0  0  0  0  0  0
   22.7474  -20.2971  -16.8917 C   0  0  0  0  0  0  0  0  0  0  0  0
   21.5395  -20.7516  -17.3834 O   0  0  0  0  0  0  0  0  0  0  0  0
   23.7995  -20.6756  -17.4506 O   0  0  0  0  0  0  0  0  0  0  0  0
  1  2  1  0
  2  3  1  0
  3 10  1  0
  3  4  2  0
  6  5  1  0
  7  6  2  0
  8  6  1  0
  9  8  1  6
 10  9  1  0
 11  9  1  0
 11 12  2  0
 14 13  1  0
 15 14  1  6
 15 16  1  0
 16 11  1  0
 17 15  1  0
 18 17  1  0
 19 17  2  0
M  END
$$$$
