REQ.pdb
     RDKit          3D

 30 29  0  0  1  0  0  0  0  0999 V2000
    8.3167  -13.0813   17.1444 N   0  0  0  0  0  0  0  0  0  0  0  0
    8.8180  -13.2086   18.4725 C   0  0  0  0  0  0  0  0  0  0  0  0
    8.9725  -12.1588   19.1927 N   0  0  0  0  0  0  0  0  0  0  0  0
    9.1394  -14.4956   18.9811 N   0  0  0  0  0  0  0  0  0  0  0  0
    8.0566  -15.4459   19.3031 C   0  0  0  0  0  0  0  0  0  0  0  0
    7.2888  -14.9494   20.4745 C   0  0  0  0  0  0  0  0  0  0  0  0
    7.4806  -15.6458   21.7545 C   0  0  0  0  0  0  0  0  0  0  0  0
    7.9808  -17.0420   21.7602 C   0  0  2  0  0  0  0  0  0  0  0  0
    7.1013  -18.0396   21.2458 N   0  0  0  0  0  0  0  0  0  0  0  0
    8.6613  -17.4086   23.0262 C   0  0  0  0  0  0  0  0  0  0  0  0
    7.9451  -17.5321   24.0745 O   0  0  0  0  0  0  0  0  0  0  0  0
    9.5311  -12.2226   20.0964 N   0  0  0  0  0  0  0  0  0  0  0  0
   10.0476  -17.6403   23.2019 C   0  0  2  0  0  0  0  0  0  0  0  0
   10.7052  -17.6092   24.4762 C   0  0  0  0  0  0  0  0  0  0  0  0
   12.0398  -18.2453   24.5813 C   0  0  0  0  0  0  0  0  0  0  0  0
   12.6896  -18.3577   25.8920 C   0  0  0  0  0  0  0  0  0  0  0  0
   14.0113  -19.0076   25.9154 O   0  0  0  0  0  0  0  0  0  0  0  0
   14.9497  -18.6684   25.1490 C   0  0  0  0  0  0  0  0  0  0  0  0
   10.6170  -16.2854   25.1436 O   0  0  0  0  0  0  0  0  0  0  0  0
   10.9655  -15.2102   24.6150 O   0  0  0  0  0  0  0  0  0  0  0  0
   14.2907  -20.0474   26.8036 N   0  0  0  0  0  0  0  0  0  0  0  0
    5.9872  -13.8111   26.1649 C   0  0  0  0  0  0  0  0  0  0  0  0
    6.6759  -12.8658   27.0103 O   0  0  0  0  0  0  0  0  0  0  0  0
    6.1062  -11.8154   27.3611 C   0  0  0  0  0  0  0  0  0  0  0  0
    8.0508  -13.2192   27.4123 C   0  0  0  0  0  0  0  0  0  0  0  0
    8.5051  -14.4956   26.8068 C   0  0  1  0  0  0  0  0  0  0  0  0
    9.9125  -14.9137   27.1470 N   0  0  0  0  0  0  0  0  0  0  0  0
   10.1076  -16.1996   26.4698 C   0  0  0  0  0  0  0  0  0  0  0  0
   10.0441  -15.0671   28.6156 O   0  0  0  0  0  0  0  0  0  0  0  0
   10.1628  -16.2972   29.2380 O   0  0  0  0  0  0  0  0  0  0  0  0
  2  3  2  0
  2  1  1  0
  4  2  1  0
  5  4  1  0
  6  5  1  0
  7  6  1  0
  8  7  1  0
  8  9  1  1
 10 11  2  0
 10  8  1  0
 12 10  1  0
 13 18  1  0
 13 12  1  0
 13 14  1  6
 15 14  1  0
 16 17  2  0
 16 15  1  0
 18 27  1  0
 19 18  2  0
 20 16  1  0
 22 24  1  0
 22 21  1  0
 23 22  2  0
 26 25  1  6
 25 24  1  0
 27 26  1  0
 28 26  1  0
 29 28  1  0
 30 28  2  0
M  END
$$$$
