REQ.pdb
     RDKit          3D

 30 29  0  0  1  0  0  0  0  0999 V2000
    8.7871  -13.1531   17.3685 N   0  0  0  0  0  0  0  0  0  0  0  0
    8.0988  -12.8241   18.5723 C   0  0  0  0  0  0  0  0  0  0  0  0
    8.3741  -11.7278   19.1782 N   0  0  0  0  0  0  0  0  0  0  0  0
    7.1171  -13.7139   19.0852 N   0  0  0  0  0  0  0  0  0  0  0  0
    7.5384  -14.9622   19.7513 C   0  0  0  0  0  0  0  0  0  0  0  0
    7.1973  -14.8965   21.1962 C   0  0  0  0  0  0  0  0  0  0  0  0
    7.6783  -15.9874   22.0558 C   0  0  0  0  0  0  0  0  0  0  0  0
    9.1345  -16.2490   22.1601 C   0  0  2  0  0  0  0  0  0  0  0  0
    9.7593  -16.8537   21.0300 N   0  0  0  0  0  0  0  0  0  0  0  0
    9.5270  -16.8272   23.4686 C   0  0  0  0  0  0  0  0  0  0  0  0
    8.9978  -16.3370   24.5205 O   0  0  0  0  0  0  0  0  0  0  0  0
    7.8212  -11.4574   20.0464 N   0  0  0  0  0  0  0  0  0  0  0  0
   10.4446  -17.8851   23.6817 C   0  0  2  0  0  0  0  0  0  0  0  0
   10.7099  -18.4624   24.9676 C   0  0  0  0  0  0  0  0  0  0  0  0
   11.3709  -19.7884   25.0072 C   0  0  0  0  0  0  0  0  0  0  0  0
   11.6587  -20.4182   26.3007 C   0  0  0  0  0  0  0  0  0  0  0  0
   12.2972  -21.7449   26.2569 O   0  0  0  0  0  0  0  0  0  0  0  0
   13.1827  -22.1009   27.0769 C   0  0  0  0  0  0  0  0  0  0  0  0
   11.2645  -17.4861   25.9397 O   0  0  0  0  0  0  0  0  0  0  0  0
   12.3687  -16.9195   25.8106 O   0  0  0  0  0  0  0  0  0  0  0  0
   11.9445  -22.6861   25.2886 N   0  0  0  0  0  0  0  0  0  0  0  0
    8.2945  -13.1303   28.4514 C   0  0  0  0  0  0  0  0  0  0  0  0
    8.9332  -13.2369   27.1617 O   0  0  0  0  0  0  0  0  0  0  0  0
    8.6324  -12.4420   26.2514 C   0  0  0  0  0  0  0  0  0  0  0  0
    9.9286  -14.3146   27.0050 C   0  0  0  0  0  0  0  0  0  0  0  0
   10.0818  -15.1248   28.2388 C   0  0  2  0  0  0  0  0  0  0  0  0
   11.0537  -16.2730   28.1479 N   0  0  0  0  0  0  0  0  0  0  0  0
   10.5168  -17.1514   27.1036 C   0  0  0  0  0  0  0  0  0  0  0  0
   11.1126  -16.9787   29.4502 O   0  0  0  0  0  0  0  0  0  0  0  0
   10.6892  -18.2851   29.6202 O   0  0  0  0  0  0  0  0  0  0  0  0
  2  3  2  0
  2  1  1  0
  4  2  1  0
  5  4  1  0
  6  5  1  0
  7  6  1  0
  8  7  1  0
  8  9  1  6
 10 11  2  0
 10  8  1  0
 12 10  1  0
 13 18  1  0
 13 12  1  0
 13 14  1  6
 15 14  1  0
 16 17  2  0
 16 15  1  0
 18 27  1  0
 19 18  2  0
 20 16  1  0
 22 24  1  0
 22 21  1  0
 23 22  2  0
 26 25  1  6
 25 24  1  0
 27 26  1  0
 28 26  1  0
 29 28  1  0
 30 28  2  0
M  END
$$$$
