REQ.pdb
     RDKit          3D

 30 29  0  0  1  0  0  0  0  0999 V2000
    8.4339  -12.2072   17.7355 N   0  0  0  0  0  0  0  0  0  0  0  0
    9.4604  -12.7575   18.5570 C   0  0  0  0  0  0  0  0  0  0  0  0
   10.4380  -12.0153   18.9288 N   0  0  0  0  0  0  0  0  0  0  0  0
    9.3874  -14.1199   18.9533 N   0  0  0  0  0  0  0  0  0  0  0  0
    8.4882  -15.0435   18.2338 C   0  0  0  0  0  0  0  0  0  0  0  0
    7.2893  -15.3224   19.0664 C   0  0  0  0  0  0  0  0  0  0  0  0
    7.5056  -15.9588   20.3735 C   0  0  0  0  0  0  0  0  0  0  0  0
    8.7725  -16.6849   20.6331 C   0  0  2  0  0  0  0  0  0  0  0  0
    8.9880  -17.8830   19.8905 N   0  0  0  0  0  0  0  0  0  0  0  0
    9.0985  -16.7834   22.0768 C   0  0  0  0  0  0  0  0  0  0  0  0
    8.3825  -16.1188   22.8970 O   0  0  0  0  0  0  0  0  0  0  0  0
   11.2515  -12.4499   19.4597 N   0  0  0  0  0  0  0  0  0  0  0  0
   10.1398  -17.5497   22.6557 C   0  0  2  0  0  0  0  0  0  0  0  0
   10.3064  -17.7278   24.0692 C   0  0  0  0  0  0  0  0  0  0  0  0
   11.3832  -18.6364   24.5293 C   0  0  0  0  0  0  0  0  0  0  0  0
   11.5678  -18.8753   25.9652 C   0  0  0  0  0  0  0  0  0  0  0  0
   12.6774  -19.7665   26.3448 O   0  0  0  0  0  0  0  0  0  0  0  0
   12.5081  -20.9805   26.6288 C   0  0  0  0  0  0  0  0  0  0  0  0
   10.2311  -16.4536   24.8283 O   0  0  0  0  0  0  0  0  0  0  0  0
   11.0566  -15.5242   24.7202 O   0  0  0  0  0  0  0  0  0  0  0  0
   13.9912  -19.2997   26.4082 N   0  0  0  0  0  0  0  0  0  0  0  0
    5.6043  -13.2278   25.5199 C   0  0  0  0  0  0  0  0  0  0  0  0
    6.1361  -12.7255   26.7639 O   0  0  0  0  0  0  0  0  0  0  0  0
    5.7040  -11.6584   27.2389 C   0  0  0  0  0  0  0  0  0  0  0  0
    7.1887  -13.5351   27.4067 C   0  0  0  0  0  0  0  0  0  0  0  0
    7.5740  -14.7118   26.5885 C   0  0  1  0  0  0  0  0  0  0  0  0
    9.0490  -15.0174   26.5406 N   0  0  0  0  0  0  0  0  0  0  0  0
    9.1633  -16.2444   25.7458 C   0  0  0  0  0  0  0  0  0  0  0  0
    9.5569  -15.2324   27.9165 O   0  0  0  0  0  0  0  0  0  0  0  0
    9.9719  -16.4672   28.3832 O   0  0  0  0  0  0  0  0  0  0  0  0
  2  3  2  0
  2  1  1  0
  4  2  1  0
  5  4  1  0
  6  5  1  0
  7  6  1  0
  8  7  1  0
  8  9  1  1
 10 11  2  0
 10  8  1  0
 12 10  1  0
 13 18  1  0
 13 12  1  0
 13 14  1  6
 15 14  1  0
 16 17  2  0
 16 15  1  0
 18 27  1  0
 19 18  2  0
 20 16  1  0
 22 24  1  0
 22 21  1  0
 23 22  2  0
 26 25  1  6
 25 24  1  0
 27 26  1  0
 28 26  1  0
 29 28  1  0
 30 28  2  0
M  END
$$$$
