REQ.pdb
     RDKit          3D

 30 29  0  0  1  0  0  0  0  0999 V2000
    6.3459  -12.4327   17.6843 N   0  0  0  0  0  0  0  0  0  0  0  0
    6.9475  -12.8697   16.4683 C   0  0  0  0  0  0  0  0  0  0  0  0
    6.2343  -12.9564   15.4061 N   0  0  0  0  0  0  0  0  0  0  0  0
    8.3284  -13.2030   16.4486 N   0  0  0  0  0  0  0  0  0  0  0  0
    9.1060  -13.1723   17.7030 C   0  0  0  0  0  0  0  0  0  0  0  0
    9.0073  -14.4896   18.3837 C   0  0  0  0  0  0  0  0  0  0  0  0
    9.8715  -14.7152   19.5511 C   0  0  0  0  0  0  0  0  0  0  0  0
    9.8693  -16.0399   20.2180 C   0  0  2  0  0  0  0  0  0  0  0  0
    8.5951  -16.6283   20.4698 N   0  0  0  0  0  0  0  0  0  0  0  0
   10.8238  -16.1199   21.3506 C   0  0  0  0  0  0  0  0  0  0  0  0
   11.9985  -15.6548   21.1751 O   0  0  0  0  0  0  0  0  0  0  0  0
    6.6807  -13.3011   14.5035 N   0  0  0  0  0  0  0  0  0  0  0  0
   10.5683  -16.6683   22.6315 C   0  0  1  0  0  0  0  0  0  0  0  0
   11.5529  -16.7572   23.6707 C   0  0  0  0  0  0  0  0  0  0  0  0
   11.1584  -17.4071   24.9431 C   0  0  0  0  0  0  0  0  0  0  0  0
   12.1418  -17.5458   26.0231 C   0  0  0  0  0  0  0  0  0  0  0  0
   11.6580  -18.1474   27.2776 O   0  0  0  0  0  0  0  0  0  0  0  0
   10.4776  -18.5578   27.4242 C   0  0  0  0  0  0  0  0  0  0  0  0
   12.8880  -17.1749   23.1722 O   0  0  0  0  0  0  0  0  0  0  0  0
   13.1993  -18.3537   22.9070 O   0  0  0  0  0  0  0  0  0  0  0  0
   12.4994  -18.2941   28.3815 N   0  0  0  0  0  0  0  0  0  0  0  0
   16.3129  -14.7144   18.6402 C   0  0  0  0  0  0  0  0  0  0  0  0
   15.1474  -14.3354   19.4021 O   0  0  0  0  0  0  0  0  0  0  0  0
   14.1974  -13.7591   18.8396 C   0  0  0  0  0  0  0  0  0  0  0  0
   15.1625  -14.6658   20.8399 C   0  0  0  0  0  0  0  0  0  0  0  0
   15.3190  -16.1214   21.0827 C   0  0  1  0  0  0  0  0  0  0  0  0
   15.2515  -16.5524   22.5253 N   0  0  0  0  0  0  0  0  0  0  0  0
   13.9011  -16.1955   22.9720 C   0  0  0  0  0  0  0  0  0  0  0  0
   16.2756  -15.8228   23.3104 O   0  0  0  0  0  0  0  0  0  0  0  0
   17.6353  -15.9839   23.1111 O   0  0  0  0  0  0  0  0  0  0  0  0
  2  3  2  0
  2  1  1  0
  4  2  1  0
  5  4  1  0
  6  5  1  0
  7  6  1  0
  8  7  1  0
  8  9  1  1
 10 11  2  0
 10  8  1  0
 12 10  1  0
 13 18  1  0
 13 12  1  0
 13 14  1  1
 15 14  1  0
 16 17  2  0
 16 15  1  0
 18 27  1  0
 19 18  2  0
 20 16  1  0
 22 24  1  0
 22 21  1  0
 23 22  2  0
 26 25  1  6
 25 24  1  0
 27 26  1  0
 28 26  1  0
 29 28  1  0
 30 28  2  0
M  END
$$$$
