REQ.pdb
     RDKit          3D

 30 29  0  0  1  0  0  0  0  0999 V2000
    7.5437  -15.2170   15.5987 N   0  0  0  0  0  0  0  0  0  0  0  0
    7.6024  -13.9022   16.1455 C   0  0  0  0  0  0  0  0  0  0  0  0
    6.9431  -12.9552   15.5859 N   0  0  0  0  0  0  0  0  0  0  0  0
    8.3897  -13.6577   17.3026 N   0  0  0  0  0  0  0  0  0  0  0  0
    9.2241  -14.7398   17.8613 C   0  0  0  0  0  0  0  0  0  0  0  0
    8.4174  -15.5547   18.8065 C   0  0  0  0  0  0  0  0  0  0  0  0
    8.2558  -15.0427   20.1747 C   0  0  0  0  0  0  0  0  0  0  0  0
    8.6115  -15.9071   21.3262 C   0  0  2  0  0  0  0  0  0  0  0  0
    8.9509  -17.2602   21.0308 N   0  0  0  0  0  0  0  0  0  0  0  0
    7.6994  -15.7352   22.4833 C   0  0  0  0  0  0  0  0  0  0  0  0
    7.4938  -14.5510   22.9103 O   0  0  0  0  0  0  0  0  0  0  0  0
    6.9497  -11.9847   16.0227 N   0  0  0  0  0  0  0  0  0  0  0  0
    7.0188  -16.7635   23.1804 C   0  0  2  0  0  0  0  0  0  0  0  0
    7.2825  -17.1085   24.5475 C   0  0  0  0  0  0  0  0  0  0  0  0
    7.2810  -18.5454   24.9106 C   0  0  0  0  0  0  0  0  0  0  0  0
    7.5195  -18.9431   26.3026 C   0  0  0  0  0  0  0  0  0  0  0  0
    7.3820  -20.3775   26.6080 O   0  0  0  0  0  0  0  0  0  0  0  0
    7.0955  -21.2348   25.7327 C   0  0  0  0  0  0  0  0  0  0  0  0
    8.4127  -16.3428   25.1325 O   0  0  0  0  0  0  0  0  0  0  0  0
    9.2592  -15.7201   24.4598 O   0  0  0  0  0  0  0  0  0  0  0  0
    7.5662  -20.8625   27.9037 N   0  0  0  0  0  0  0  0  0  0  0  0
    7.6805  -11.6193   26.1498 C   0  0  0  0  0  0  0  0  0  0  0  0
    7.0741  -12.2565   27.2939 O   0  0  0  0  0  0  0  0  0  0  0  0
    6.1092  -11.7168   27.8672 C   0  0  0  0  0  0  0  0  0  0  0  0
    7.6579  -13.5428   27.7197 C   0  0  0  0  0  0  0  0  0  0  0  0
    8.7905  -13.9614   26.8569 C   0  0  1  0  0  0  0  0  0  0  0  0
    9.4153  -15.2891   27.2004 N   0  0  0  0  0  0  0  0  0  0  0  0
    8.5711  -16.2939   26.5460 C   0  0  0  0  0  0  0  0  0  0  0  0
    9.4106  -15.4750   28.6711 O   0  0  0  0  0  0  0  0  0  0  0  0
   10.3153  -14.8527   29.5131 O   0  0  0  0  0  0  0  0  0  0  0  0
  2  3  2  0
  2  1  1  0
  4  2  1  0
  5  4  1  0
  6  5  1  0
  7  6  1  0
  8  7  1  0
  8  9  1  6
 10 11  2  0
 10  8  1  0
 12 10  1  0
 13 18  1  0
 13 12  1  0
 13 14  1  6
 15 14  1  0
 16 17  2  0
 16 15  1  0
 18 27  1  0
 19 18  2  0
 20 16  1  0
 22 24  1  0
 22 21  1  0
 23 22  2  0
 26 25  1  6
 25 24  1  0
 27 26  1  0
 28 26  1  0
 29 28  1  0
 30 28  2  0
M  END
$$$$
