REQ.pdb
     RDKit          3D

 30 29  0  0  1  0  0  0  0  0999 V2000
   10.2557  -12.3683   19.2077 N   0  0  0  0  0  0  0  0  0  0  0  0
    8.8852  -12.7029   19.4111 C   0  0  0  0  0  0  0  0  0  0  0  0
    7.9815  -11.8157   19.2087 N   0  0  0  0  0  0  0  0  0  0  0  0
    8.5382  -14.0138   19.8347 N   0  0  0  0  0  0  0  0  0  0  0  0
    7.1165  -14.3780   19.9950 C   0  0  0  0  0  0  0  0  0  0  0  0
    7.0121  -15.7754   20.4897 C   0  0  0  0  0  0  0  0  0  0  0  0
    7.9213  -16.1807   21.5711 C   0  0  0  0  0  0  0  0  0  0  0  0
    7.9334  -17.5922   22.0264 C   0  0  2  0  0  0  0  0  0  0  0  0
    6.6659  -18.2285   22.1740 N   0  0  0  0  0  0  0  0  0  0  0  0
    8.8816  -17.8332   23.1414 C   0  0  0  0  0  0  0  0  0  0  0  0
    8.3961  -18.0849   24.2938 O   0  0  0  0  0  0  0  0  0  0  0  0
    6.9558  -12.0841   19.3009 N   0  0  0  0  0  0  0  0  0  0  0  0
   10.2959  -17.8131   23.0647 C   0  0  2  0  0  0  0  0  0  0  0  0
   11.1553  -17.7756   24.2124 C   0  0  0  0  0  0  0  0  0  0  0  0
   12.5997  -18.0343   24.0034 C   0  0  0  0  0  0  0  0  0  0  0  0
   13.5129  -18.0247   25.1517 C   0  0  0  0  0  0  0  0  0  0  0  0
   14.9388  -18.2489   24.8580 O   0  0  0  0  0  0  0  0  0  0  0  0
   15.8523  -17.9884   25.6831 C   0  0  0  0  0  0  0  0  0  0  0  0
   10.8753  -16.6267   25.1109 O   0  0  0  0  0  0  0  0  0  0  0  0
   10.7276  -15.4512   24.7193 O   0  0  0  0  0  0  0  0  0  0  0  0
   15.3516  -18.7699   23.6307 N   0  0  0  0  0  0  0  0  0  0  0  0
    7.4169  -13.8382   25.5265 C   0  0  0  0  0  0  0  0  0  0  0  0
    7.6762  -13.2941   26.8378 O   0  0  0  0  0  0  0  0  0  0  0  0
    7.1788  -12.2008   27.1668 C   0  0  0  0  0  0  0  0  0  0  0  0
    8.5408  -14.0948   27.7256 C   0  0  0  0  0  0  0  0  0  0  0  0
    9.0305  -15.3327   27.0697 C   0  0  2  0  0  0  0  0  0  0  0  0
   10.4270  -15.7592   27.4429 N   0  0  0  0  0  0  0  0  0  0  0  0
   10.7611  -16.8427   26.5130 C   0  0  0  0  0  0  0  0  0  0  0  0
   10.4408  -16.2448   28.8435 O   0  0  0  0  0  0  0  0  0  0  0  0
   10.4125  -15.3966   29.9364 O   0  0  0  0  0  0  0  0  0  0  0  0
  2  3  2  0
  2  1  1  0
  4  2  1  0
  5  4  1  0
  6  5  1  0
  7  6  1  0
  8  7  1  0
  8  9  1  1
 10 11  2  0
 10  8  1  0
 12 10  1  0
 13 18  1  0
 13 12  1  0
 13 14  1  6
 15 14  1  0
 16 17  2  0
 16 15  1  0
 18 27  1  0
 19 18  2  0
 20 16  1  0
 22 24  1  0
 22 21  1  0
 23 22  2  0
 26 25  1  6
 25 24  1  0
 27 26  1  0
 28 26  1  0
 29 28  1  0
 30 28  2  0
M  END
$$$$
