REQ.pdb
     RDKit          3D

 30 29  0  0  1  0  0  0  0  0999 V2000
    8.8882  -13.0103   17.6484 N   0  0  0  0  0  0  0  0  0  0  0  0
    8.2872  -12.5624   18.8606 C   0  0  0  0  0  0  0  0  0  0  0  0
    8.8292  -11.6038   19.5179 N   0  0  0  0  0  0  0  0  0  0  0  0
    7.0964  -13.1828   19.3247 N   0  0  0  0  0  0  0  0  0  0  0  0
    7.1646  -14.5152   19.9568 C   0  0  0  0  0  0  0  0  0  0  0  0
    8.5427  -15.0568   19.8320 C   0  0  0  0  0  0  0  0  0  0  0  0
    9.2109  -15.4986   21.0643 C   0  0  0  0  0  0  0  0  0  0  0  0
    8.9532  -16.8621   21.5879 C   0  0  2  0  0  0  0  0  0  0  0  0
    7.6850  -17.4371   21.2810 N   0  0  0  0  0  0  0  0  0  0  0  0
    9.3872  -17.0336   22.9960 C   0  0  0  0  0  0  0  0  0  0  0  0
    8.4918  -17.0051   23.9041 O   0  0  0  0  0  0  0  0  0  0  0  0
    8.3556  -11.2413   20.3994 N   0  0  0  0  0  0  0  0  0  0  0  0
   10.7142  -17.2289   23.4515 C   0  0  2  0  0  0  0  0  0  0  0  0
   11.0697  -17.3646   24.8344 C   0  0  0  0  0  0  0  0  0  0  0  0
   12.2733  -18.1644   25.1635 C   0  0  0  0  0  0  0  0  0  0  0  0
   12.6394  -18.3817   26.5677 C   0  0  0  0  0  0  0  0  0  0  0  0
   13.8956  -19.1107   26.8130 O   0  0  0  0  0  0  0  0  0  0  0  0
   14.3334  -19.3411   27.9699 C   0  0  0  0  0  0  0  0  0  0  0  0
   10.9730  -16.0881   25.5873 O   0  0  0  0  0  0  0  0  0  0  0  0
   11.5797  -15.0434   25.2754 O   0  0  0  0  0  0  0  0  0  0  0  0
   14.6728  -19.5890   25.7570 N   0  0  0  0  0  0  0  0  0  0  0  0
    5.7471  -12.9996   25.8904 C   0  0  0  0  0  0  0  0  0  0  0  0
    6.4795  -13.8718   26.7767 O   0  0  0  0  0  0  0  0  0  0  0  0
    5.8846  -14.7797   27.3872 C   0  0  0  0  0  0  0  0  0  0  0  0
    7.9276  -13.6191   26.9036 C   0  0  0  0  0  0  0  0  0  0  0  0
    8.5921  -14.5884   27.8097 C   0  0  2  0  0  0  0  0  0  0  0  0
   10.0637  -14.8045   27.5666 N   0  0  0  0  0  0  0  0  0  0  0  0
   10.1451  -16.0149   26.7427 C   0  0  0  0  0  0  0  0  0  0  0  0
   10.7578  -15.0016   28.8615 O   0  0  0  0  0  0  0  0  0  0  0  0
   10.9846  -13.9741   29.7600 O   0  0  0  0  0  0  0  0  0  0  0  0
  2  3  2  0
  2  1  1  0
  4  2  1  0
  5  4  1  0
  6  5  1  0
  7  6  1  0
  8  7  1  0
  8  9  1  1
 10 11  2  0
 10  8  1  0
 12 10  1  0
 13 18  1  0
 13 12  1  0
 13 14  1  6
 15 14  1  0
 16 17  2  0
 16 15  1  0
 18 27  1  0
 19 18  2  0
 20 16  1  0
 22 24  1  0
 22 21  1  0
 23 22  2  0
 26 25  1  6
 25 24  1  0
 27 26  1  0
 28 26  1  0
 29 28  1  0
 30 28  2  0
M  END
$$$$
