REQ.pdb
     RDKit          3D

 30 29  0  0  1  0  0  0  0  0999 V2000
    8.9762  -11.7736   19.1096 N   0  0  0  0  0  0  0  0  0  0  0  0
    8.3867  -12.8019   18.3180 C   0  0  0  0  0  0  0  0  0  0  0  0
    7.2907  -12.5690   17.6941 N   0  0  0  0  0  0  0  0  0  0  0  0
    9.0204  -14.0704   18.2300 N   0  0  0  0  0  0  0  0  0  0  0  0
    9.4441  -14.7631   19.4628 C   0  0  0  0  0  0  0  0  0  0  0  0
    8.3556  -14.6958   20.4723 C   0  0  0  0  0  0  0  0  0  0  0  0
    8.5445  -15.4445   21.7229 C   0  0  0  0  0  0  0  0  0  0  0  0
    8.5042  -16.9270   21.7015 C   0  0  2  0  0  0  0  0  0  0  0  0
    7.4021  -17.5281   21.0252 N   0  0  0  0  0  0  0  0  0  0  0  0
    8.8320  -17.5346   23.0143 C   0  0  0  0  0  0  0  0  0  0  0  0
    7.8963  -17.6362   23.8752 O   0  0  0  0  0  0  0  0  0  0  0  0
    6.8517  -13.3382   17.1039 N   0  0  0  0  0  0  0  0  0  0  0  0
   10.0965  -18.0234   23.4249 C   0  0  1  0  0  0  0  0  0  0  0  0
   10.3717  -18.5102   24.7458 C   0  0  0  0  0  0  0  0  0  0  0  0
   10.9509  -19.8683   24.8755 C   0  0  0  0  0  0  0  0  0  0  0  0
   11.7963  -20.4029   23.8020 C   0  0  0  0  0  0  0  0  0  0  0  0
   11.5916  -21.8182   23.4489 O   0  0  0  0  0  0  0  0  0  0  0  0
   10.4598  -22.2935   23.1726 C   0  0  0  0  0  0  0  0  0  0  0  0
   11.0196  -17.4957   25.6157 O   0  0  0  0  0  0  0  0  0  0  0  0
   12.1009  -16.9329   25.3495 O   0  0  0  0  0  0  0  0  0  0  0  0
   12.6606  -22.7144   23.4027 N   0  0  0  0  0  0  0  0  0  0  0  0
    7.9332  -13.2685   28.3409 C   0  0  0  0  0  0  0  0  0  0  0  0
    8.6929  -13.0693   27.1302 O   0  0  0  0  0  0  0  0  0  0  0  0
    8.3970  -12.1393   26.3565 C   0  0  0  0  0  0  0  0  0  0  0  0
    9.8015  -14.0112   26.8839 C   0  0  0  0  0  0  0  0  0  0  0  0
    9.8744  -15.0780   27.9129 C   0  0  2  0  0  0  0  0  0  0  0  0
   10.9693  -16.0955   27.7202 N   0  0  0  0  0  0  0  0  0  0  0  0
   10.3961  -17.1169   26.8378 C   0  0  0  0  0  0  0  0  0  0  0  0
   11.3406  -16.6805   29.0307 O   0  0  0  0  0  0  0  0  0  0  0  0
   12.0565  -15.9873   29.9907 O   0  0  0  0  0  0  0  0  0  0  0  0
  2  3  2  0
  2  1  1  0
  4  2  1  0
  5  4  1  0
  6  5  1  0
  7  6  1  0
  8  7  1  0
  8  9  1  1
 10 11  2  0
 10  8  1  0
 12 10  1  0
 13 18  1  0
 13 12  1  0
 13 14  1  1
 15 14  1  0
 16 17  2  0
 16 15  1  0
 18 27  1  0
 19 18  2  0
 20 16  1  0
 22 24  1  0
 22 21  1  0
 23 22  2  0
 26 25  1  6
 25 24  1  0
 27 26  1  0
 28 26  1  0
 29 28  1  0
 30 28  2  0
M  END
$$$$
