REQ.pdb
     RDKit          3D

 30 29  0  0  1  0  0  0  0  0999 V2000
    8.1478  -14.0760   17.9992 N   0  0  0  0  0  0  0  0  0  0  0  0
    8.3027  -12.9832   18.9009 C   0  0  0  0  0  0  0  0  0  0  0  0
    8.4397  -11.7956   18.4365 N   0  0  0  0  0  0  0  0  0  0  0  0
    8.3032  -13.2231   20.3012 N   0  0  0  0  0  0  0  0  0  0  0  0
    8.2163  -14.6077   20.8058 C   0  0  0  0  0  0  0  0  0  0  0  0
    7.1287  -14.7042   21.8138 C   0  0  0  0  0  0  0  0  0  0  0  0
    6.8812  -16.0205   22.4191 C   0  0  0  0  0  0  0  0  0  0  0  0
    7.8337  -17.1302   22.1721 C   0  0  2  0  0  0  0  0  0  0  0  0
    7.2798  -18.3572   21.7020 N   0  0  0  0  0  0  0  0  0  0  0  0
    8.8429  -17.2781   23.2492 C   0  0  0  0  0  0  0  0  0  0  0  0
    8.4741  -17.8234   24.3417 O   0  0  0  0  0  0  0  0  0  0  0  0
    8.6765  -10.9987   19.1011 N   0  0  0  0  0  0  0  0  0  0  0  0
   10.1985  -16.8709   23.1961 C   0  0  2  0  0  0  0  0  0  0  0  0
   11.1332  -17.0726   24.2652 C   0  0  0  0  0  0  0  0  0  0  0  0
   12.5221  -17.4468   23.9079 C   0  0  0  0  0  0  0  0  0  0  0  0
   12.7672  -18.2949   22.7359 C   0  0  0  0  0  0  0  0  0  0  0  0
   13.9732  -17.9909   21.9467 O   0  0  0  0  0  0  0  0  0  0  0  0
   15.0130  -17.4982   22.4560 C   0  0  0  0  0  0  0  0  0  0  0  0
   11.0448  -16.0298   25.3189 O   0  0  0  0  0  0  0  0  0  0  0  0
   11.5567  -14.8957   25.2266 O   0  0  0  0  0  0  0  0  0  0  0  0
   14.0216  -18.2393   20.5742 N   0  0  0  0  0  0  0  0  0  0  0  0
    6.2525  -14.0107   27.1485 C   0  0  0  0  0  0  0  0  0  0  0  0
    7.1705  -12.9820   27.5749 O   0  0  0  0  0  0  0  0  0  0  0  0
    6.7663  -11.8148   27.7332 C   0  0  0  0  0  0  0  0  0  0  0  0
    8.5685  -13.3966   27.7995 C   0  0  0  0  0  0  0  0  0  0  0  0
    8.7800  -14.8396   27.5252 C   0  0  2  0  0  0  0  0  0  0  0  0
   10.2090  -15.3136   27.5950 N   0  0  0  0  0  0  0  0  0  0  0  0
   10.3391  -16.3064   26.5236 C   0  0  0  0  0  0  0  0  0  0  0  0
   10.4637  -15.9310   28.9183 O   0  0  0  0  0  0  0  0  0  0  0  0
   10.7385  -15.1919   30.0554 O   0  0  0  0  0  0  0  0  0  0  0  0
  2  3  2  0
  2  1  1  0
  4  2  1  0
  5  4  1  0
  6  5  1  0
  7  6  1  0
  8  7  1  0
  8  9  1  1
 10 11  2  0
 10  8  1  0
 12 10  1  0
 13 18  1  0
 13 12  1  0
 13 14  1  6
 15 14  1  0
 16 17  2  0
 16 15  1  0
 18 27  1  0
 19 18  2  0
 20 16  1  0
 22 24  1  0
 22 21  1  0
 23 22  2  0
 26 25  1  6
 25 24  1  0
 27 26  1  0
 28 26  1  0
 29 28  1  0
 30 28  2  0
M  END
$$$$
