REQ.pdb
     RDKit          3D

 30 29  0  0  1  0  0  0  0  0999 V2000
    7.4701  -12.4960   19.5157 N   0  0  0  0  0  0  0  0  0  0  0  0
    8.0691  -13.1492   18.3996 C   0  0  0  0  0  0  0  0  0  0  0  0
    9.3113  -12.9556   18.1462 N   0  0  0  0  0  0  0  0  0  0  0  0
    7.2833  -14.0059   17.5829 N   0  0  0  0  0  0  0  0  0  0  0  0
    6.7780  -15.2793   18.1329 C   0  0  0  0  0  0  0  0  0  0  0  0
    7.7952  -16.3451   17.9391 C   0  0  0  0  0  0  0  0  0  0  0  0
    7.9483  -17.3382   19.0119 C   0  0  0  0  0  0  0  0  0  0  0  0
    8.0411  -16.8847   20.4210 C   0  0  2  0  0  0  0  0  0  0  0  0
    7.3971  -15.6535   20.7414 N   0  0  0  0  0  0  0  0  0  0  0  0
    9.4017  -17.0394   20.9911 C   0  0  0  0  0  0  0  0  0  0  0  0
    9.7783  -18.2108   21.3274 O   0  0  0  0  0  0  0  0  0  0  0  0
    9.7216  -13.3200   17.2343 N   0  0  0  0  0  0  0  0  0  0  0  0
   10.3473  -16.0072   21.2079 C   0  0  1  0  0  0  0  0  0  0  0  0
   11.6388  -16.2206   21.7943 C   0  0  0  0  0  0  0  0  0  0  0  0
   12.7261  -15.2803   21.4330 C   0  0  0  0  0  0  0  0  0  0  0  0
   14.0873  -15.5201   21.9254 C   0  0  0  0  0  0  0  0  0  0  0  0
   15.1216  -14.5686   21.4846 O   0  0  0  0  0  0  0  0  0  0  0  0
   15.2986  -14.2681   20.2756 C   0  0  0  0  0  0  0  0  0  0  0  0
   11.5740  -16.5345   23.2444 O   0  0  0  0  0  0  0  0  0  0  0  0
   11.2451  -15.7135   24.1246 O   0  0  0  0  0  0  0  0  0  0  0  0
   15.9684  -13.9441   22.4016 N   0  0  0  0  0  0  0  0  0  0  0  0
   10.1201  -21.9786   25.4283 C   0  0  0  0  0  0  0  0  0  0  0  0
   11.1939  -21.9035   24.4672 O   0  0  0  0  0  0  0  0  0  0  0  0
   11.4720  -22.8950   23.7669 C   0  0  0  0  0  0  0  0  0  0  0  0
   11.9117  -20.6175   24.3785 C   0  0  0  0  0  0  0  0  0  0  0  0
   11.2733  -19.5574   25.1976 C   0  0  1  0  0  0  0  0  0  0  0  0
   11.9163  -18.1967   25.1184 N   0  0  0  0  0  0  0  0  0  0  0  0
   11.9004  -17.8445   23.6950 C   0  0  0  0  0  0  0  0  0  0  0  0
   13.3070  -18.2739   25.6259 O   0  0  0  0  0  0  0  0  0  0  0  0
   14.4158  -18.0851   24.8199 O   0  0  0  0  0  0  0  0  0  0  0  0
  2  3  2  0
  2  1  1  0
  4  2  1  0
  5  4  1  0
  6  5  1  0
  7  6  1  0
  8  7  1  0
  8  9  1  6
 10 11  2  0
 10  8  1  0
 12 10  1  0
 13 18  1  0
 13 12  1  0
 13 14  1  6
 15 14  1  0
 16 17  2  0
 16 15  1  0
 18 27  1  0
 19 18  2  0
 20 16  1  0
 22 24  1  0
 22 21  1  0
 23 22  2  0
 26 25  1  1
 25 24  1  0
 27 26  1  0
 28 26  1  0
 29 28  1  0
 30 28  2  0
M  END
$$$$
