REQ.pdb
     RDKit          3D

 30 29  0  0  1  0  0  0  0  0999 V2000
    7.4759  -12.4125   17.0862 N   0  0  0  0  0  0  0  0  0  0  0  0
    8.1639  -13.2772   17.9864 C   0  0  0  0  0  0  0  0  0  0  0  0
    8.7649  -12.7803   19.0045 N   0  0  0  0  0  0  0  0  0  0  0  0
    8.1748  -14.6771   17.7447 N   0  0  0  0  0  0  0  0  0  0  0  0
    7.3514  -15.5703   18.5833 C   0  0  0  0  0  0  0  0  0  0  0  0
    7.3506  -15.0781   19.9854 C   0  0  0  0  0  0  0  0  0  0  0  0
    7.6466  -16.0524   21.0454 C   0  0  0  0  0  0  0  0  0  0  0  0
    8.5445  -17.1971   20.7572 C   0  0  2  0  0  0  0  0  0  0  0  0
    7.9271  -18.3925   20.2848 N   0  0  0  0  0  0  0  0  0  0  0  0
    9.5746  -17.4035   21.8044 C   0  0  0  0  0  0  0  0  0  0  0  0
    9.2489  -18.0777   22.8371 O   0  0  0  0  0  0  0  0  0  0  0  0
    9.2997  -13.4246   19.6615 N   0  0  0  0  0  0  0  0  0  0  0  0
   10.9070  -16.9232   21.7828 C   0  0  2  0  0  0  0  0  0  0  0  0
   11.8246  -17.0706   22.8753 C   0  0  0  0  0  0  0  0  0  0  0  0
   13.2370  -16.6825   22.6491 C   0  0  0  0  0  0  0  0  0  0  0  0
   14.2161  -16.8415   23.7303 C   0  0  0  0  0  0  0  0  0  0  0  0
   15.6073  -16.4747   23.4148 O   0  0  0  0  0  0  0  0  0  0  0  0
   15.9492  -15.9972   22.3020 C   0  0  0  0  0  0  0  0  0  0  0  0
   11.2707  -16.5935   24.1680 O   0  0  0  0  0  0  0  0  0  0  0  0
   11.0327  -15.3968   24.4289 O   0  0  0  0  0  0  0  0  0  0  0  0
   16.6296  -16.6415   24.3503 N   0  0  0  0  0  0  0  0  0  0  0  0
    6.3083  -17.0254   26.0435 C   0  0  0  0  0  0  0  0  0  0  0  0
    6.9317  -15.7246   26.0879 O   0  0  0  0  0  0  0  0  0  0  0  0
    6.2417  -14.6990   25.9354 C   0  0  0  0  0  0  0  0  0  0  0  0
    8.3890  -15.6984   26.3167 C   0  0  0  0  0  0  0  0  0  0  0  0
    8.9778  -17.0599   26.3598 C   0  0  2  0  0  0  0  0  0  0  0  0
   10.4763  -17.1173   26.5103 N   0  0  0  0  0  0  0  0  0  0  0  0
   10.9805  -17.5326   25.1974 C   0  0  0  0  0  0  0  0  0  0  0  0
   10.8336  -18.1118   27.5499 O   0  0  0  0  0  0  0  0  0  0  0  0
   10.7056  -17.8654   28.9055 O   0  0  0  0  0  0  0  0  0  0  0  0
  2  3  2  0
  2  1  1  0
  4  2  1  0
  5  4  1  0
  6  5  1  0
  7  6  1  0
  8  7  1  0
  8  9  1  1
 10 11  2  0
 10  8  1  0
 12 10  1  0
 13 18  1  0
 13 12  1  0
 13 14  1  6
 15 14  1  0
 16 17  2  0
 16 15  1  0
 18 27  1  0
 19 18  2  0
 20 16  1  0
 22 24  1  0
 22 21  1  0
 23 22  2  0
 26 25  1  6
 25 24  1  0
 27 26  1  0
 28 26  1  0
 29 28  1  0
 30 28  2  0
M  END
$$$$
