REQ.pdb
     RDKit          3D

 30 29  0  0  1  0  0  0  0  0999 V2000
    7.0865  -12.5056   18.1996 N   0  0  0  0  0  0  0  0  0  0  0  0
    8.2899  -13.2689   18.2195 C   0  0  0  0  0  0  0  0  0  0  0  0
    9.4038  -12.6999   17.9359 N   0  0  0  0  0  0  0  0  0  0  0  0
    8.2404  -14.6490   18.5532 N   0  0  0  0  0  0  0  0  0  0  0  0
    6.9783  -15.2380   19.0425 C   0  0  0  0  0  0  0  0  0  0  0  0
    6.7517  -14.8311   20.4536 C   0  0  0  0  0  0  0  0  0  0  0  0
    7.5158  -15.5359   21.4927 C   0  0  0  0  0  0  0  0  0  0  0  0
    8.9012  -15.1054   21.8010 C   0  0  2  0  0  0  0  0  0  0  0  0
    9.6747  -14.6075   20.7115 N   0  0  0  0  0  0  0  0  0  0  0  0
    9.6185  -16.0532   22.6884 C   0  0  0  0  0  0  0  0  0  0  0  0
    9.0331  -16.4293   23.7575 O   0  0  0  0  0  0  0  0  0  0  0  0
   10.2937  -13.2824   17.8992 N   0  0  0  0  0  0  0  0  0  0  0  0
   10.9091  -16.5965   22.4743 C   0  0  2  0  0  0  0  0  0  0  0  0
   11.5681  -17.4724   23.3995 C   0  0  0  0  0  0  0  0  0  0  0  0
   12.8238  -18.1249   22.9591 C   0  0  0  0  0  0  0  0  0  0  0  0
   13.4861  -19.0941   23.8394 C   0  0  0  0  0  0  0  0  0  0  0  0
   14.7757  -19.6308   23.3719 O   0  0  0  0  0  0  0  0  0  0  0  0
   15.7307  -18.8927   23.0161 C   0  0  0  0  0  0  0  0  0  0  0  0
   11.6286  -16.9226   24.7778 O   0  0  0  0  0  0  0  0  0  0  0  0
   12.1347  -15.8203   25.0705 O   0  0  0  0  0  0  0  0  0  0  0  0
   15.0043  -21.0058   23.3005 N   0  0  0  0  0  0  0  0  0  0  0  0
   10.0648  -13.9014   27.7147 C   0  0  0  0  0  0  0  0  0  0  0  0
    9.7979  -14.5950   28.9518 O   0  0  0  0  0  0  0  0  0  0  0  0
    9.7917  -13.9675   30.0275 C   0  0  0  0  0  0  0  0  0  0  0  0
    9.5443  -16.0451   28.8542 C   0  0  0  0  0  0  0  0  0  0  0  0
    9.7739  -16.5670   27.4841 C   0  0  1  0  0  0  0  0  0  0  0  0
   11.1256  -17.1877   27.2412 N   0  0  0  0  0  0  0  0  0  0  0  0
   11.0847  -17.6729   25.8580 C   0  0  0  0  0  0  0  0  0  0  0  0
   11.3341  -18.3103   28.1867 O   0  0  0  0  0  0  0  0  0  0  0  0
   11.8546  -18.1397   29.4574 O   0  0  0  0  0  0  0  0  0  0  0  0
  2  3  2  0
  2  1  1  0
  4  2  1  0
  5  4  1  0
  6  5  1  0
  7  6  1  0
  8  7  1  0
  8  9  1  6
 10 11  2  0
 10  8  1  0
 12 10  1  0
 13 18  1  0
 13 12  1  0
 13 14  1  6
 15 14  1  0
 16 17  2  0
 16 15  1  0
 18 27  1  0
 19 18  2  0
 20 16  1  0
 22 24  1  0
 22 21  1  0
 23 22  2  0
 26 25  1  6
 25 24  1  0
 27 26  1  0
 28 26  1  0
 29 28  1  0
 30 28  2  0
M  END
$$$$
