NSQ.pdb
     RDKit          3D

 24 23  0  0  1  0  0  0  0  0999 V2000
   23.6001  -14.7548  -20.9407 N   0  0  0  0  0  0  0  0  0  0  0  0
   22.4893  -14.3415  -20.1398 C   0  0  0  0  0  0  0  0  0  0  0  0
   21.3836  -14.8894  -20.3520 O   0  0  0  0  0  0  0  0  0  0  0  0
   22.6031  -13.3092  -19.0909 C   0  0  0  0  0  0  0  0  0  0  0  0
   23.9998  -12.7888  -19.0462 C   0  0  2  0  0  0  0  0  0  0  0  0
   24.9579  -13.7745  -18.6470 N   0  0  0  0  0  0  0  0  0  0  0  0
   24.1055  -11.5417  -18.2109 C   0  0  0  0  0  0  0  0  0  0  0  0
   23.3557  -11.3544  -17.2228 O   0  0  0  0  0  0  0  0  0  0  0  0
   26.5004   -7.3967  -17.4036 O   0  0  0  0  0  0  0  0  0  0  0  0
   26.3716   -8.4975  -18.2262 C   0  0  0  0  0  0  0  0  0  0  0  0
   25.2025   -9.3402  -17.6952 C   0  0  2  0  0  0  0  0  0  0  0  0
   25.0491  -10.5314  -18.5008 N   0  0  0  0  0  0  0  0  0  0  0  0
   23.9536   -8.5426  -17.6457 C   0  0  0  0  0  0  0  0  0  0  0  0
   23.3357   -8.3572  -18.7513 O   0  0  0  0  0  0  0  0  0  0  0  0
   19.6644   -8.8936  -13.4423 N   0  0  0  0  0  0  0  0  0  0  0  0
   19.6049   -9.3860  -14.7728 C   0  0  0  0  0  0  0  0  0  0  0  0
   18.8225  -10.3822  -14.9675 O   0  0  0  0  0  0  0  0  0  0  0  0
   20.3856   -8.7958  -15.8853 C   0  0  0  0  0  0  0  0  0  0  0  0
   21.2672   -7.6693  -15.5251 C   0  0  0  0  0  0  0  0  0  0  0  0
   22.1662   -7.1077  -16.5857 C   0  0  2  0  0  0  0  0  0  0  0  0
   23.3758   -7.9691  -16.5110 N   0  0  0  0  0  0  0  0  0  0  0  0
   22.4714   -5.7042  -16.5772 C   0  0  0  0  0  0  0  0  0  0  0  0
   23.7619   -5.2183  -16.4483 O   0  0  0  0  0  0  0  0  0  0  0  0
   21.5579   -4.8223  -16.6825 O   0  0  0  0  0  0  0  0  0  0  0  0
  2  1  1  0
  2  3  2  0
  4  2  1  0
  5  4  1  0
  5  6  1  1
  7  8  2  0
  7  5  1  0
  9 10  1  0
 11 10  1  6
 11 12  1  0
 12  7  1  0
 13 11  1  0
 13 21  1  0
 14 13  2  0
 16 17  2  0
 16 15  1  0
 18 16  1  0
 20 19  1  1
 19 18  1  0
 20 21  1  0
 20 22  1  0
 22 23  1  0
 24 22  2  0
M  END
$$$$
