NSQ.pdb
     RDKit          3D

 24 23  0  0  1  0  0  0  0  0999 V2000
   15.9806  -11.5128  -17.4071 N   0  0  0  0  0  0  0  0  0  0  0  0
   16.2488  -11.9610  -16.0754 C   0  0  0  0  0  0  0  0  0  0  0  0
   15.3442  -12.5893  -15.4799 O   0  0  0  0  0  0  0  0  0  0  0  0
   17.5341  -11.7110  -15.3939 C   0  0  0  0  0  0  0  0  0  0  0  0
   18.4725  -11.0222  -16.3260 C   0  0  2  0  0  0  0  0  0  0  0  0
   19.0793  -11.9070  -17.2734 N   0  0  0  0  0  0  0  0  0  0  0  0
   19.5013  -10.2114  -15.5857 C   0  0  0  0  0  0  0  0  0  0  0  0
   19.1899   -9.5212  -14.5854 O   0  0  0  0  0  0  0  0  0  0  0  0
   23.2977   -9.7268  -17.1695 O   0  0  0  0  0  0  0  0  0  0  0  0
   23.2576   -9.7890  -15.7913 C   0  0  0  0  0  0  0  0  0  0  0  0
   21.8525   -9.3561  -15.3472 C   0  0  2  0  0  0  0  0  0  0  0  0
   20.8569  -10.1913  -15.9821 N   0  0  0  0  0  0  0  0  0  0  0  0
   21.6272   -7.9178  -15.6284 C   0  0  0  0  0  0  0  0  0  0  0  0
   21.2343   -7.6085  -16.8069 O   0  0  0  0  0  0  0  0  0  0  0  0
   17.6387   -5.2277  -16.9588 N   0  0  0  0  0  0  0  0  0  0  0  0
   17.8962   -4.6006  -15.7111 C   0  0  0  0  0  0  0  0  0  0  0  0
   16.9056   -3.9880  -15.1765 O   0  0  0  0  0  0  0  0  0  0  0  0
   19.2196   -4.6442  -15.0461 C   0  0  0  0  0  0  0  0  0  0  0  0
   20.2712   -5.3968  -15.7559 C   0  0  0  0  0  0  0  0  0  0  0  0
   21.6422   -5.4383  -15.1502 C   0  0  2  0  0  0  0  0  0  0  0  0
   21.7989   -6.8576  -14.7359 N   0  0  0  0  0  0  0  0  0  0  0  0
   21.9796   -4.5064  -14.1106 C   0  0  0  0  0  0  0  0  0  0  0  0
   22.2431   -4.8985  -12.8087 O   0  0  0  0  0  0  0  0  0  0  0  0
   22.0482   -3.2539  -14.3339 O   0  0  0  0  0  0  0  0  0  0  0  0
  2  1  1  0
  2  3  2  0
  4  2  1  0
  5  4  1  0
  5  6  1  1
  7  8  2  0
  7  5  1  0
  9 10  1  0
 11 10  1  6
 11 12  1  0
 12  7  1  0
 13 11  1  0
 13 21  1  0
 14 13  2  0
 16 17  2  0
 16 15  1  0
 18 16  1  0
 20 19  1  1
 19 18  1  0
 20 21  1  0
 20 22  1  0
 22 23  1  0
 24 22  2  0
M  END
$$$$
