NSQ.pdb
     RDKit          3D

 24 23  0  0  1  0  0  0  0  0999 V2000
   17.8833  -13.0418  -18.4339 N   0  0  0  0  0  0  0  0  0  0  0  0
   18.1790  -13.6938  -17.1955 C   0  0  0  0  0  0  0  0  0  0  0  0
   17.4898  -14.6919  -16.8847 O   0  0  0  0  0  0  0  0  0  0  0  0
   19.2506  -13.2359  -16.2896 C   0  0  0  0  0  0  0  0  0  0  0  0
   19.9504  -12.0638  -16.8896 C   0  0  2  0  0  0  0  0  0  0  0  0
   20.8772  -12.4247  -17.9189 N   0  0  0  0  0  0  0  0  0  0  0  0
   20.5954  -11.2000  -15.8398 C   0  0  0  0  0  0  0  0  0  0  0  0
   19.9169  -10.6635  -14.9312 O   0  0  0  0  0  0  0  0  0  0  0  0
   24.6174  -10.1903  -16.1363 O   0  0  0  0  0  0  0  0  0  0  0  0
   24.1371  -10.3416  -14.8513 C   0  0  0  0  0  0  0  0  0  0  0  0
   22.6260  -10.0684  -14.8848 C   0  0  2  0  0  0  0  0  0  0  0  0
   21.9866  -10.9561  -15.8307 N   0  0  0  0  0  0  0  0  0  0  0  0
   22.3515   -8.6440  -15.1917 C   0  0  0  0  0  0  0  0  0  0  0  0
   22.0895   -8.3498  -16.4097 O   0  0  0  0  0  0  0  0  0  0  0  0
   17.8434   -6.5228  -16.0516 N   0  0  0  0  0  0  0  0  0  0  0  0
   18.4771   -5.2537  -15.9880 C   0  0  0  0  0  0  0  0  0  0  0  0
   17.7507   -4.2476  -16.3081 O   0  0  0  0  0  0  0  0  0  0  0  0
   19.8889   -5.0787  -15.5738 C   0  0  0  0  0  0  0  0  0  0  0  0
   20.6217   -6.3171  -15.2488 C   0  0  0  0  0  0  0  0  0  0  0  0
   22.0080   -6.1928  -14.6911 C   0  0  2  0  0  0  0  0  0  0  0  0
   22.3476   -7.5821  -14.2849 N   0  0  0  0  0  0  0  0  0  0  0  0
   22.2673   -5.2246  -13.6624 C   0  0  0  0  0  0  0  0  0  0  0  0
   22.3957   -3.8703  -13.9225 O   0  0  0  0  0  0  0  0  0  0  0  0
   22.4010   -5.5669  -12.4424 O   0  0  0  0  0  0  0  0  0  0  0  0
  2  1  1  0
  2  3  2  0
  4  2  1  0
  5  4  1  0
  5  6  1  6
  7  8  2  0
  7  5  1  0
  9 10  1  0
 11 10  1  6
 11 12  1  0
 12  7  1  0
 13 11  1  0
 13 21  1  0
 14 13  2  0
 16 17  2  0
 16 15  1  0
 18 16  1  0
 20 19  1  1
 19 18  1  0
 20 21  1  0
 20 22  1  0
 22 23  1  0
 24 22  2  0
M  END
$$$$
