NSQ.pdb
     RDKit          3D

 24 23  0  0  1  0  0  0  0  0999 V2000
   19.7658  -13.7777  -17.0907 N   0  0  0  0  0  0  0  0  0  0  0  0
   20.4822  -12.7250  -17.7424 C   0  0  0  0  0  0  0  0  0  0  0  0
   21.5147  -13.0325  -18.3806 O   0  0  0  0  0  0  0  0  0  0  0  0
   20.0511  -11.3143  -17.6875 C   0  0  0  0  0  0  0  0  0  0  0  0
   18.8325  -11.1932  -16.8365 C   0  0  2  0  0  0  0  0  0  0  0  0
   17.6567  -11.7275  -17.4535 N   0  0  0  0  0  0  0  0  0  0  0  0
   18.6186   -9.7807  -16.3641 C   0  0  0  0  0  0  0  0  0  0  0  0
   18.1561   -8.9010  -17.1297 O   0  0  0  0  0  0  0  0  0  0  0  0
   19.1317   -8.7727  -12.3550 O   0  0  0  0  0  0  0  0  0  0  0  0
   18.2030   -8.0839  -13.1086 C   0  0  0  0  0  0  0  0  0  0  0  0
   18.7187   -8.0394  -14.5546 C   0  0  2  0  0  0  0  0  0  0  0  0
   18.9274   -9.3843  -15.0440 N   0  0  0  0  0  0  0  0  0  0  0  0
   19.9497   -7.2188  -14.6535 C   0  0  0  0  0  0  0  0  0  0  0  0
   21.0657   -7.8442  -14.6976 O   0  0  0  0  0  0  0  0  0  0  0  0
   20.4520   -1.4927  -17.0958 N   0  0  0  0  0  0  0  0  0  0  0  0
   21.7382   -1.6854  -16.5259 C   0  0  0  0  0  0  0  0  0  0  0  0
   22.5909   -0.7524  -16.7377 O   0  0  0  0  0  0  0  0  0  0  0  0
   22.0935   -2.8811  -15.7262 C   0  0  0  0  0  0  0  0  0  0  0  0
   21.0250   -3.8847  -15.5610 C   0  0  0  0  0  0  0  0  0  0  0  0
   21.3154   -5.0959  -14.7262 C   0  0  2  0  0  0  0  0  0  0  0  0
   20.0199   -5.8250  -14.7050 N   0  0  0  0  0  0  0  0  0  0  0  0
   21.8901   -4.9280  -13.4206 C   0  0  0  0  0  0  0  0  0  0  0  0
   23.2549   -4.8236  -13.2099 O   0  0  0  0  0  0  0  0  0  0  0  0
   21.1647   -4.8727  -12.3746 O   0  0  0  0  0  0  0  0  0  0  0  0
  2  1  1  0
  2  3  2  0
  4  2  1  0
  5  4  1  0
  5  6  1  6
  7  8  2  0
  7  5  1  0
  9 10  1  0
 11 10  1  1
 11 12  1  0
 12  7  1  0
 13 11  1  0
 13 21  1  0
 14 13  2  0
 16 17  2  0
 16 15  1  0
 18 16  1  0
 20 19  1  1
 19 18  1  0
 20 21  1  0
 20 22  1  0
 22 23  1  0
 24 22  2  0
M  END
$$$$
