NSQ.pdb
     RDKit          3D

 24 23  0  0  1  0  0  0  0  0999 V2000
   19.7759  -22.2713  -14.5302 N   0  0  0  0  0  0  0  0  0  0  0  0
   19.8179  -20.8850  -14.1800 C   0  0  0  0  0  0  0  0  0  0  0  0
   18.7302  -20.2680  -14.1165 O   0  0  0  0  0  0  0  0  0  0  0  0
   21.0791  -20.1724  -13.8964 C   0  0  0  0  0  0  0  0  0  0  0  0
   22.2251  -21.1222  -13.9859 C   0  0  2  0  0  0  0  0  0  0  0  0
   21.9910  -22.3569  -13.3007 N   0  0  0  0  0  0  0  0  0  0  0  0
   23.5164  -20.4830  -13.5524 C   0  0  0  0  0  0  0  0  0  0  0  0
   23.8291  -19.3275  -13.9277 O   0  0  0  0  0  0  0  0  0  0  0  0
   25.3598  -20.9315  -10.1169 O   0  0  0  0  0  0  0  0  0  0  0  0
   26.2690  -21.2501  -11.1051 C   0  0  0  0  0  0  0  0  0  0  0  0
   25.7546  -20.6483  -12.4213 C   0  0  2  0  0  0  0  0  0  0  0  0
   24.4296  -21.1523  -12.7079 N   0  0  0  0  0  0  0  0  0  0  0  0
   26.6995  -20.9168  -13.5320 C   0  0  0  0  0  0  0  0  0  0  0  0
   26.9900  -22.1410  -13.7676 O   0  0  0  0  0  0  0  0  0  0  0  0
   27.9887  -23.5016  -16.7259 N   0  0  0  0  0  0  0  0  0  0  0  0
   27.4444  -22.7994  -17.8336 C   0  0  0  0  0  0  0  0  0  0  0  0
   27.6541  -23.3203  -18.9856 O   0  0  0  0  0  0  0  0  0  0  0  0
   26.6723  -21.5429  -17.6897 C   0  0  0  0  0  0  0  0  0  0  0  0
   26.5594  -21.0113  -16.3183 C   0  0  0  0  0  0  0  0  0  0  0  0
   27.7351  -20.2784  -15.7449 C   0  0  2  0  0  0  0  0  0  0  0  0
   27.3095  -19.9675  -14.3547 N   0  0  0  0  0  0  0  0  0  0  0  0
   28.2608  -19.1383  -16.4426 C   0  0  0  0  0  0  0  0  0  0  0  0
   27.7612  -17.8581  -16.2704 O   0  0  0  0  0  0  0  0  0  0  0  0
   29.2219  -19.2484  -17.2718 O   0  0  0  0  0  0  0  0  0  0  0  0
  2  1  1  0
  2  3  2  0
  4  2  1  0
  5  4  1  0
  5  6  1  1
  7  8  2  0
  7  5  1  0
  9 10  1  0
 11 10  1  1
 11 12  1  0
 12  7  1  0
 13 11  1  0
 13 21  1  0
 14 13  2  0
 16 17  2  0
 16 15  1  0
 18 16  1  0
 20 19  1  6
 19 18  1  0
 20 21  1  0
 20 22  1  0
 22 23  1  0
 24 22  2  0
M  END
$$$$
