NSQ.pdb
     RDKit          3D

 24 23  0  0  1  0  0  0  0  0999 V2000
   20.0734  -11.1604  -17.5428 N   0  0  0  0  0  0  0  0  0  0  0  0
   19.3759  -11.0516  -16.2987 C   0  0  0  0  0  0  0  0  0  0  0  0
   18.7681  -12.0640  -15.8823 O   0  0  0  0  0  0  0  0  0  0  0  0
   19.3505   -9.8072  -15.5052 C   0  0  0  0  0  0  0  0  0  0  0  0
   20.2215   -8.7821  -16.1486 C   0  0  2  0  0  0  0  0  0  0  0  0
   21.6125   -9.1177  -16.1106 N   0  0  0  0  0  0  0  0  0  0  0  0
   19.9672   -7.4058  -15.5961 C   0  0  0  0  0  0  0  0  0  0  0  0
   18.8235   -6.8915  -15.6303 O   0  0  0  0  0  0  0  0  0  0  0  0
   23.0886   -5.2221  -13.9745 O   0  0  0  0  0  0  0  0  0  0  0  0
   21.8418   -4.9761  -13.4362 C   0  0  0  0  0  0  0  0  0  0  0  0
   20.7980   -5.2934  -14.5173 C   0  0  2  0  0  0  0  0  0  0  0  0
   21.0000   -6.6354  -15.0173 N   0  0  0  0  0  0  0  0  0  0  0  0
   20.8389   -4.2869  -15.6054 C   0  0  0  0  0  0  0  0  0  0  0  0
   21.6241   -4.5225  -16.5886 O   0  0  0  0  0  0  0  0  0  0  0  0
   16.1643   -0.5269  -17.2605 N   0  0  0  0  0  0  0  0  0  0  0  0
   17.2033   -0.1140  -18.1357 C   0  0  0  0  0  0  0  0  0  0  0  0
   16.8776    0.7503  -19.0242 O   0  0  0  0  0  0  0  0  0  0  0  0
   18.5883   -0.6323  -18.0423 C   0  0  0  0  0  0  0  0  0  0  0  0
   18.8291   -1.6365  -16.9889 C   0  0  0  0  0  0  0  0  0  0  0  0
   20.2247   -2.1555  -16.8124 C   0  0  2  0  0  0  0  0  0  0  0  0
   20.1047   -3.1008  -15.6711 N   0  0  0  0  0  0  0  0  0  0  0  0
   21.3071   -1.2234  -16.6618 C   0  0  0  0  0  0  0  0  0  0  0  0
   22.0183   -0.7200  -17.7383 O   0  0  0  0  0  0  0  0  0  0  0  0
   21.6781   -0.8115  -15.5146 O   0  0  0  0  0  0  0  0  0  0  0  0
  2  1  1  0
  2  3  2  0
  4  2  1  0
  5  4  1  0
  5  6  1  1
  7  8  2  0
  7  5  1  0
  9 10  1  0
 11 10  1  1
 11 12  1  0
 12  7  1  0
 13 11  1  0
 13 21  1  0
 14 13  2  0
 16 17  2  0
 16 15  1  0
 18 16  1  0
 20 19  1  1
 19 18  1  0
 20 21  1  0
 20 22  1  0
 22 23  1  0
 24 22  2  0
M  END
$$$$
