NSQ.pdb
     RDKit          3D

 24 23  0  0  1  0  0  0  0  0999 V2000
   16.4703  -10.6617  -18.8632 N   0  0  0  0  0  0  0  0  0  0  0  0
   16.3501   -9.2831  -18.5013 C   0  0  0  0  0  0  0  0  0  0  0  0
   15.6396   -8.5510  -19.2274 O   0  0  0  0  0  0  0  0  0  0  0  0
   17.0242   -8.7070  -17.3213 C   0  0  0  0  0  0  0  0  0  0  0  0
   17.7507   -9.7797  -16.5829 C   0  0  2  0  0  0  0  0  0  0  0  0
   16.8802  -10.6644  -15.8700 N   0  0  0  0  0  0  0  0  0  0  0  0
   18.8225   -9.2164  -15.6897 C   0  0  0  0  0  0  0  0  0  0  0  0
   18.5373   -8.4793  -14.7155 O   0  0  0  0  0  0  0  0  0  0  0  0
   22.7646   -9.5042  -16.8174 O   0  0  0  0  0  0  0  0  0  0  0  0
   22.5878   -9.5774  -15.4506 C   0  0  0  0  0  0  0  0  0  0  0  0
   21.2495   -8.9011  -15.1182 C   0  0  2  0  0  0  0  0  0  0  0  0
   20.1909   -9.4911  -15.9074 N   0  0  0  0  0  0  0  0  0  0  0  0
   21.3334   -7.4340  -15.3158 C   0  0  0  0  0  0  0  0  0  0  0  0
   20.8869   -6.9679  -16.4213 O   0  0  0  0  0  0  0  0  0  0  0  0
   18.1590   -3.8982  -16.5521 N   0  0  0  0  0  0  0  0  0  0  0  0
   18.8504   -2.9441  -15.7598 C   0  0  0  0  0  0  0  0  0  0  0  0
   18.3795   -1.7523  -15.7791 O   0  0  0  0  0  0  0  0  0  0  0  0
   20.0419   -3.2842  -14.9473 C   0  0  0  0  0  0  0  0  0  0  0  0
   20.4327   -4.7067  -14.9435 C   0  0  0  0  0  0  0  0  0  0  0  0
   21.8750   -5.0431  -14.7097 C   0  0  2  0  0  0  0  0  0  0  0  0
   21.8511   -6.5004  -14.4156 N   0  0  0  0  0  0  0  0  0  0  0  0
   22.6263   -4.2856  -13.7481 C   0  0  0  0  0  0  0  0  0  0  0  0
   22.9655   -4.7834  -12.5009 O   0  0  0  0  0  0  0  0  0  0  0  0
   23.0188   -3.0985  -13.9934 O   0  0  0  0  0  0  0  0  0  0  0  0
  2  1  1  0
  2  3  2  0
  4  2  1  0
  5  4  1  0
  5  6  1  1
  7  8  2  0
  7  5  1  0
  9 10  1  0
 11 10  1  6
 11 12  1  0
 12  7  1  0
 13 11  1  0
 13 21  1  0
 14 13  2  0
 16 17  2  0
 16 15  1  0
 18 16  1  0
 20 19  1  1
 19 18  1  0
 20 21  1  0
 20 22  1  0
 22 23  1  0
 24 22  2  0
M  END
$$$$
