NSQ.pdb
     RDKit          3D

 24 23  0  0  1  0  0  0  0  0999 V2000
   14.1775  -10.1226  -10.7293 N   0  0  0  0  0  0  0  0  0  0  0  0
   15.4685   -9.6436  -10.3421 C   0  0  0  0  0  0  0  0  0  0  0  0
   15.8518   -9.8839   -9.1745 O   0  0  0  0  0  0  0  0  0  0  0  0
   16.3465   -8.8892  -11.2579 C   0  0  0  0  0  0  0  0  0  0  0  0
   15.6313   -8.6285  -12.5402 C   0  0  2  0  0  0  0  0  0  0  0  0
   15.2973   -9.8232  -13.2543 N   0  0  0  0  0  0  0  0  0  0  0  0
   16.3782   -7.6530  -13.4088 C   0  0  0  0  0  0  0  0  0  0  0  0
   17.0977   -8.0454  -14.3587 O   0  0  0  0  0  0  0  0  0  0  0  0
   15.3791   -3.7578  -14.2873 O   0  0  0  0  0  0  0  0  0  0  0  0
   16.6014   -3.8804  -13.6583 C   0  0  0  0  0  0  0  0  0  0  0  0
   17.1158   -5.3046  -13.9157 C   0  0  2  0  0  0  0  0  0  0  0  0
   16.3029   -6.2589  -13.1945 N   0  0  0  0  0  0  0  0  0  0  0  0
   18.5507   -5.4222  -13.5611 C   0  0  0  0  0  0  0  0  0  0  0  0
   18.8292   -5.7147  -12.3464 O   0  0  0  0  0  0  0  0  0  0  0  0
   22.0180   -9.4144  -15.7095 N   0  0  0  0  0  0  0  0  0  0  0  0
   22.9671   -8.7255  -14.9090 C   0  0  0  0  0  0  0  0  0  0  0  0
   24.0931   -9.3145  -14.7427 O   0  0  0  0  0  0  0  0  0  0  0  0
   22.6966   -7.4028  -14.2986 C   0  0  0  0  0  0  0  0  0  0  0  0
   21.3621   -6.8330  -14.5641 C   0  0  0  0  0  0  0  0  0  0  0  0
   21.0393   -5.4882  -13.9849 C   0  0  2  0  0  0  0  0  0  0  0  0
   19.6381   -5.2472  -14.4197 N   0  0  0  0  0  0  0  0  0  0  0  0
   21.9122   -4.3796  -14.2534 C   0  0  0  0  0  0  0  0  0  0  0  0
   22.9361   -4.0072  -13.3984 O   0  0  0  0  0  0  0  0  0  0  0  0
   21.7836   -3.6682  -15.3026 O   0  0  0  0  0  0  0  0  0  0  0  0
  2  1  1  0
  2  3  2  0
  4  2  1  0
  5  4  1  0
  5  6  1  6
  7  8  2  0
  7  5  1  0
  9 10  1  0
 11 10  1  1
 11 12  1  0
 12  7  1  0
 13 11  1  0
 13 21  1  0
 14 13  2  0
 16 17  2  0
 16 15  1  0
 18 16  1  0
 20 19  1  6
 19 18  1  0
 20 21  1  0
 20 22  1  0
 22 23  1  0
 24 22  2  0
M  END
$$$$
