NSQ.pdb
     RDKit          3D

 24 23  0  0  1  0  0  0  0  0999 V2000
   19.0439   -7.8238  -18.2902 N   0  0  0  0  0  0  0  0  0  0  0  0
   17.9174   -8.4231  -17.6438 C   0  0  0  0  0  0  0  0  0  0  0  0
   17.0687   -8.9944  -18.3656 O   0  0  0  0  0  0  0  0  0  0  0  0
   17.7273   -8.3899  -16.1804 C   0  0  0  0  0  0  0  0  0  0  0  0
   18.7204   -9.2874  -15.5232 C   0  0  2  0  0  0  0  0  0  0  0  0
   18.5384  -10.6686  -15.8517 N   0  0  0  0  0  0  0  0  0  0  0  0
   18.7693   -9.0726  -14.0347 C   0  0  0  0  0  0  0  0  0  0  0  0
   18.1015   -9.7894  -13.2511 O   0  0  0  0  0  0  0  0  0  0  0  0
   20.7218   -5.7622  -12.4055 O   0  0  0  0  0  0  0  0  0  0  0  0
   20.8281   -6.9390  -11.6923 C   0  0  0  0  0  0  0  0  0  0  0  0
   19.6040   -7.8015  -12.0338 C   0  0  2  0  0  0  0  0  0  0  0  0
   19.5654   -8.0592  -13.4564 N   0  0  0  0  0  0  0  0  0  0  0  0
   18.3548   -7.1627  -11.5543 C   0  0  0  0  0  0  0  0  0  0  0  0
   17.7209   -6.4242  -12.3859 O   0  0  0  0  0  0  0  0  0  0  0  0
   13.7633   -9.5970   -8.5181 N   0  0  0  0  0  0  0  0  0  0  0  0
   13.4081   -8.2233   -8.4613 C   0  0  0  0  0  0  0  0  0  0  0  0
   12.2502   -7.9632   -7.9774 O   0  0  0  0  0  0  0  0  0  0  0  0
   14.3074   -7.1395   -8.9217 C   0  0  0  0  0  0  0  0  0  0  0  0
   15.6346   -7.5667   -9.4037 C   0  0  0  0  0  0  0  0  0  0  0  0
   16.5921   -6.5103   -9.8678 C   0  0  2  0  0  0  0  0  0  0  0  0
   17.7925   -7.2837  -10.2817 N   0  0  0  0  0  0  0  0  0  0  0  0
   16.9017   -5.4110   -8.9967 C   0  0  0  0  0  0  0  0  0  0  0  0
   16.0844   -4.2998   -8.8723 O   0  0  0  0  0  0  0  0  0  0  0  0
   17.9612   -5.3983   -8.2893 O   0  0  0  0  0  0  0  0  0  0  0  0
  2  1  1  0
  2  3  2  0
  4  2  1  0
  5  4  1  0
  5  6  1  1
  7  8  2  0
  7  5  1  0
  9 10  1  0
 11 10  1  6
 11 12  1  0
 12  7  1  0
 13 11  1  0
 13 21  1  0
 14 13  2  0
 16 17  2  0
 16 15  1  0
 18 16  1  0
 20 19  1  1
 19 18  1  0
 20 21  1  0
 20 22  1  0
 22 23  1  0
 24 22  2  0
M  END
$$$$
