NSQ.pdb
     RDKit          3D

 24 23  0  0  1  0  0  0  0  0999 V2000
   17.8606  -13.9189  -17.0793 N   0  0  0  0  0  0  0  0  0  0  0  0
   18.0918  -12.8242  -17.9706 C   0  0  0  0  0  0  0  0  0  0  0  0
   18.1643  -13.0763  -19.1949 O   0  0  0  0  0  0  0  0  0  0  0  0
   18.2449  -11.4330  -17.5014 C   0  0  0  0  0  0  0  0  0  0  0  0
   18.2568  -11.4029  -16.0106 C   0  0  2  0  0  0  0  0  0  0  0  0
   17.0951  -11.9985  -15.4238 N   0  0  0  0  0  0  0  0  0  0  0  0
   18.4966  -10.0150  -15.4812 C   0  0  0  0  0  0  0  0  0  0  0  0
   17.5598   -9.1872  -15.3765 O   0  0  0  0  0  0  0  0  0  0  0  0
   21.5654   -6.8900  -13.4408 O   0  0  0  0  0  0  0  0  0  0  0  0
   21.3738   -8.1893  -13.8650 C   0  0  0  0  0  0  0  0  0  0  0  0
   20.0655   -8.2276  -14.6688 C   0  0  2  0  0  0  0  0  0  0  0  0
   19.7809   -9.5845  -15.0806 N   0  0  0  0  0  0  0  0  0  0  0  0
   20.1262   -7.3010  -15.8247 C   0  0  0  0  0  0  0  0  0  0  0  0
   20.6740   -7.7393  -16.8955 O   0  0  0  0  0  0  0  0  0  0  0  0
   15.5696   -4.6607  -18.3764 N   0  0  0  0  0  0  0  0  0  0  0  0
   16.6179   -4.0133  -19.0822 C   0  0  0  0  0  0  0  0  0  0  0  0
   16.2600   -3.2870  -20.0756 O   0  0  0  0  0  0  0  0  0  0  0  0
   18.0449   -4.1493  -18.7071 C   0  0  0  0  0  0  0  0  0  0  0  0
   18.3250   -5.0183  -17.5484 C   0  0  0  0  0  0  0  0  0  0  0  0
   19.7464   -5.1483  -17.0891 C   0  0  2  0  0  0  0  0  0  0  0  0
   19.6440   -5.9911  -15.8686 N   0  0  0  0  0  0  0  0  0  0  0  0
   20.5322   -3.9624  -16.8918 C   0  0  0  0  0  0  0  0  0  0  0  0
   21.0851   -3.2461  -17.9404 O   0  0  0  0  0  0  0  0  0  0  0  0
   20.7700   -3.5059  -15.7263 O   0  0  0  0  0  0  0  0  0  0  0  0
  2  1  1  0
  2  3  2  0
  4  2  1  0
  5  4  1  0
  5  6  1  1
  7  8  2  0
  7  5  1  0
  9 10  1  0
 11 10  1  6
 11 12  1  0
 12  7  1  0
 13 11  1  0
 13 21  1  0
 14 13  2  0
 16 17  2  0
 16 15  1  0
 18 16  1  0
 20 19  1  1
 19 18  1  0
 20 21  1  0
 20 22  1  0
 22 23  1  0
 24 22  2  0
M  END
$$$$
