SFG.pdb
     RDKit          3D

 22 22  0  0  1  0  0  0  0  0999 V2000
    7.7029  -16.2387   20.0212 O   0  0  0  0  0  0  0  0  0  0  0  0
    6.7059  -15.3022   20.1901 C   0  0  0  0  0  0  0  0  0  0  0  0
    7.1856  -14.0361   20.8836 C   0  0  2  0  0  0  0  0  0  0  0  0
    7.9696  -13.3103   19.9050 N   0  0  0  0  0  0  0  0  0  0  0  0
    8.0384  -14.3420   22.0456 C   0  0  0  0  0  0  0  0  0  0  0  0
    9.2622  -14.1444   21.9942 O   0  0  0  0  0  0  0  0  0  0  0  0
    7.5085  -14.8725   23.2699 N   0  0  0  0  0  0  0  0  0  0  0  0
    8.2778  -15.1309   24.4275 C   0  0  1  0  0  0  0  0  0  0  0  0
    7.5650  -15.0036   25.7639 C   0  0  0  0  0  0  0  0  0  0  0  0
    7.0965  -13.6462   26.0589 C   0  0  0  0  0  0  0  0  0  0  0  0
    8.0182  -12.6414   26.2600 C   0  0  0  0  0  0  0  0  0  0  0  0
    7.6215  -11.3278   26.5558 C   0  0  0  0  0  0  0  0  0  0  0  0
    6.2837  -11.0308   26.6481 C   0  0  0  0  0  0  0  0  0  0  0  0
    5.3858  -12.0448   26.4446 C   0  0  0  0  0  0  0  0  0  0  0  0
    5.7706  -13.3503   26.1510 C   0  0  0  0  0  0  0  0  0  0  0  0
    9.1957  -16.2851   24.3605 C   0  0  0  0  0  0  0  0  0  0  0  0
    8.8635  -17.4463   24.7170 O   0  0  0  0  0  0  0  0  0  0  0  0
   10.5453  -16.1666   23.8800 N   0  0  0  0  0  0  0  0  0  0  0  0
   11.4173  -17.2892   23.7179 C   0  0  0  0  0  0  0  0  0  0  0  0
   12.6741  -16.9877   23.0414 C   0  0  0  0  0  0  0  0  0  0  0  0
   12.6957  -16.6788   21.8295 O   0  0  0  0  0  0  0  0  0  0  0  0
   13.8699  -17.0375   23.7290 O   0  0  0  0  0  0  0  0  0  0  0  0
  1  2  1  0
  2  3  1  0
  3  4  1  6
  3  5  1  0
  5  6  2  0
  7  5  1  0
  7  8  1  0
  8  9  1  1
 10  9  1  0
 11 10  2  0
 12 11  1  0
 13 14  1  0
 13 12  2  0
 14 15  2  0
 15 10  1  0
 16 18  1  0
 16  8  1  0
 17 16  2  0
 19 18  1  0
 19 20  1  0
 20 22  1  0
 21 20  2  0
M  END
$$$$
