SFG.pdb
     RDKit          3D

 22 22  0  0  1  0  0  0  0  0999 V2000
    8.8745  -18.9464   21.3558 O   0  0  0  0  0  0  0  0  0  0  0  0
    8.3572  -18.1329   20.3708 C   0  0  0  0  0  0  0  0  0  0  0  0
    9.0299  -16.7701   20.3059 C   0  0  2  0  0  0  0  0  0  0  0  0
   10.3998  -17.0133   19.9017 N   0  0  0  0  0  0  0  0  0  0  0  0
    9.0319  -16.1013   21.6188 C   0  0  0  0  0  0  0  0  0  0  0  0
   10.0864  -15.9878   22.2627 O   0  0  0  0  0  0  0  0  0  0  0  0
    7.8401  -15.5587   22.2072 N   0  0  0  0  0  0  0  0  0  0  0  0
    7.7866  -14.9403   23.4774 C   0  0  1  0  0  0  0  0  0  0  0  0
    6.9503  -13.6759   23.5869 C   0  0  0  0  0  0  0  0  0  0  0  0
    7.0070  -13.0401   24.9066 C   0  0  0  0  0  0  0  0  0  0  0  0
    5.9490  -13.1927   25.7768 C   0  0  0  0  0  0  0  0  0  0  0  0
    5.9497  -12.5957   27.0472 C   0  0  0  0  0  0  0  0  0  0  0  0
    7.0280  -11.8402   27.4380 C   0  0  0  0  0  0  0  0  0  0  0  0
    8.0677  -11.7022   26.5572 C   0  0  0  0  0  0  0  0  0  0  0  0
    8.0752  -12.2906   25.2953 C   0  0  0  0  0  0  0  0  0  0  0  0
    7.6435  -15.8399   24.6389 C   0  0  0  0  0  0  0  0  0  0  0  0
    6.5463  -16.3613   24.9709 O   0  0  0  0  0  0  0  0  0  0  0  0
    8.7544  -16.1889   25.4819 N   0  0  0  0  0  0  0  0  0  0  0  0
    8.6509  -17.1193   26.5638 C   0  0  0  0  0  0  0  0  0  0  0  0
    9.8968  -17.3484   27.2875 C   0  0  0  0  0  0  0  0  0  0  0  0
   10.9647  -16.8122   26.9178 O   0  0  0  0  0  0  0  0  0  0  0  0
    9.9214  -18.1653   28.3998 O   0  0  0  0  0  0  0  0  0  0  0  0
  1  2  1  0
  2  3  1  0
  3  4  1  1
  3  5  1  0
  5  6  2  0
  7  5  1  0
  7  8  1  0
  8  9  1  6
 10  9  1  0
 11 10  2  0
 12 11  1  0
 13 14  1  0
 13 12  2  0
 14 15  2  0
 15 10  1  0
 16 18  1  0
 16  8  1  0
 17 16  2  0
 19 18  1  0
 19 20  1  0
 20 22  1  0
 21 20  2  0
M  END
$$$$
