SFG.pdb
     RDKit          3D

 22 22  0  0  1  0  0  0  0  0999 V2000
    6.6091  -16.8937   19.5372 O   0  0  0  0  0  0  0  0  0  0  0  0
    7.4303  -16.6309   20.6124 C   0  0  0  0  0  0  0  0  0  0  0  0
    7.1698  -15.2729   21.2464 C   0  0  2  0  0  0  0  0  0  0  0  0
    7.4018  -14.2896   20.2079 N   0  0  0  0  0  0  0  0  0  0  0  0
    8.0906  -15.0097   22.3662 C   0  0  0  0  0  0  0  0  0  0  0  0
    9.1245  -14.3482   22.1852 O   0  0  0  0  0  0  0  0  0  0  0  0
    7.8438  -15.4945   23.6949 N   0  0  0  0  0  0  0  0  0  0  0  0
    8.7415  -15.3498   24.7774 C   0  0  1  0  0  0  0  0  0  0  0  0
    8.1266  -15.1257   26.1493 C   0  0  0  0  0  0  0  0  0  0  0  0
    7.5337  -13.7963   26.3231 C   0  0  0  0  0  0  0  0  0  0  0  0
    6.1625  -13.6699   26.3827 C   0  0  0  0  0  0  0  0  0  0  0  0
    5.5452  -12.4187   26.5374 C   0  0  0  0  0  0  0  0  0  0  0  0
    6.3215  -11.2896   26.6323 C   0  0  0  0  0  0  0  0  0  0  0  0
    7.6816  -11.4391   26.5705 C   0  0  0  0  0  0  0  0  0  0  0  0
    8.3019  -12.6761   26.4170 C   0  0  0  0  0  0  0  0  0  0  0  0
    9.8987  -16.2660   24.7964 C   0  0  0  0  0  0  0  0  0  0  0  0
    9.8168  -17.4657   25.1703 O   0  0  0  0  0  0  0  0  0  0  0  0
   11.2130  -15.8523   24.3867 N   0  0  0  0  0  0  0  0  0  0  0  0
   12.0232  -16.6099   23.4831 C   0  0  0  0  0  0  0  0  0  0  0  0
   12.6501  -17.7877   24.0732 C   0  0  0  0  0  0  0  0  0  0  0  0
   11.9808  -18.8120   24.3330 O   0  0  0  0  0  0  0  0  0  0  0  0
   14.0008  -17.7947   24.3577 O   0  0  0  0  0  0  0  0  0  0  0  0
  1  2  1  0
  2  3  1  0
  3  4  1  6
  3  5  1  0
  5  6  2  0
  7  5  1  0
  7  8  1  0
  8  9  1  1
 10  9  1  0
 11 10  2  0
 12 11  1  0
 13 14  1  0
 13 12  2  0
 14 15  2  0
 15 10  1  0
 16 18  1  0
 16  8  1  0
 17 16  2  0
 19 18  1  0
 19 20  1  0
 20 22  1  0
 21 20  2  0
M  END
$$$$
