SFG.pdb
     RDKit          3D

 22 22  0  0  1  0  0  0  0  0999 V2000
    9.0036  -18.8745   28.3000 O   0  0  0  0  0  0  0  0  0  0  0  0
    8.9358  -18.2557   27.0703 C   0  0  0  0  0  0  0  0  0  0  0  0
    7.5301  -17.8037   26.7047 C   0  0  2  0  0  0  0  0  0  0  0  0
    6.7513  -19.0114   26.5195 N   0  0  0  0  0  0  0  0  0  0  0  0
    7.5162  -17.0306   25.4504 C   0  0  0  0  0  0  0  0  0  0  0  0
    6.8764  -17.4396   24.4692 O   0  0  0  0  0  0  0  0  0  0  0  0
    8.2267  -15.7918   25.3027 N   0  0  0  0  0  0  0  0  0  0  0  0
    8.2601  -15.0271   24.1142 C   0  0  1  0  0  0  0  0  0  0  0  0
    8.2103  -13.5162   24.2725 C   0  0  0  0  0  0  0  0  0  0  0  0
    7.3952  -13.0653   25.4044 C   0  0  0  0  0  0  0  0  0  0  0  0
    6.0233  -13.1802   25.3381 C   0  0  0  0  0  0  0  0  0  0  0  0
    5.1978  -12.7536   26.3902 C   0  0  0  0  0  0  0  0  0  0  0  0
    5.7654  -12.2076   27.5155 C   0  0  0  0  0  0  0  0  0  0  0  0
    7.1303  -12.1032   27.5594 C   0  0  0  0  0  0  0  0  0  0  0  0
    7.9564  -12.5236   26.5205 C   0  0  0  0  0  0  0  0  0  0  0  0
    9.2039  -15.4763   23.0718 C   0  0  0  0  0  0  0  0  0  0  0  0
    9.1456  -15.0800   21.8779 O   0  0  0  0  0  0  0  0  0  0  0  0
   10.2659  -16.4055   23.3458 N   0  0  0  0  0  0  0  0  0  0  0  0
   11.1846  -16.8574   22.3464 C   0  0  0  0  0  0  0  0  0  0  0  0
   12.2487  -17.7205   22.8472 C   0  0  0  0  0  0  0  0  0  0  0  0
   12.0006  -18.8730   23.2653 O   0  0  0  0  0  0  0  0  0  0  0  0
   13.5566  -17.2799   22.8696 O   0  0  0  0  0  0  0  0  0  0  0  0
  1  2  1  0
  2  3  1  0
  3  4  1  6
  3  5  1  0
  5  6  2  0
  7  5  1  0
  7  8  1  0
  8  9  1  1
 10  9  1  0
 11 10  2  0
 12 11  1  0
 13 14  1  0
 13 12  2  0
 14 15  2  0
 15 10  1  0
 16 18  1  0
 16  8  1  0
 17 16  2  0
 19 18  1  0
 19 20  1  0
 20 22  1  0
 21 20  2  0
M  END
$$$$
