SFG.pdb
     RDKit          3D

 22 22  0  0  1  0  0  0  0  0999 V2000
    8.2479  -17.4808   21.1394 O   0  0  0  0  0  0  0  0  0  0  0  0
    7.0193  -16.9570   20.7995 C   0  0  0  0  0  0  0  0  0  0  0  0
    6.8838  -15.4803   21.1389 C   0  0  2  0  0  0  0  0  0  0  0  0
    7.3435  -14.7529   19.9732 N   0  0  0  0  0  0  0  0  0  0  0  0
    7.7204  -15.1085   22.2933 C   0  0  0  0  0  0  0  0  0  0  0  0
    8.7719  -14.4715   22.1260 O   0  0  0  0  0  0  0  0  0  0  0  0
    7.3694  -15.4564   23.6413 N   0  0  0  0  0  0  0  0  0  0  0  0
    8.1000  -15.0595   24.7846 C   0  0  1  0  0  0  0  0  0  0  0  0
    7.2979  -14.7825   26.0457 C   0  0  0  0  0  0  0  0  0  0  0  0
    6.9863  -13.3648   26.2505 C   0  0  0  0  0  0  0  0  0  0  0  0
    7.9868  -12.4263   26.1169 C   0  0  0  0  0  0  0  0  0  0  0  0
    7.7428  -11.0580   26.3131 C   0  0  0  0  0  0  0  0  0  0  0  0
    6.4782  -10.6384   26.6465 C   0  0  0  0  0  0  0  0  0  0  0  0
    5.4998  -11.5883   26.7741 C   0  0  0  0  0  0  0  0  0  0  0  0
    5.7332  -12.9474   26.5815 C   0  0  0  0  0  0  0  0  0  0  0  0
    9.3618  -15.7819   25.0396 C   0  0  0  0  0  0  0  0  0  0  0  0
   10.1748  -15.4442   25.9402 O   0  0  0  0  0  0  0  0  0  0  0  0
    9.7574  -16.9317   24.2729 N   0  0  0  0  0  0  0  0  0  0  0  0
   10.9068  -17.7228   24.5892 C   0  0  0  0  0  0  0  0  0  0  0  0
   11.0883  -18.8947   23.7396 C   0  0  0  0  0  0  0  0  0  0  0  0
   10.2896  -19.1473   22.8107 O   0  0  0  0  0  0  0  0  0  0  0  0
   12.1505  -19.7520   23.9453 O   0  0  0  0  0  0  0  0  0  0  0  0
  1  2  1  0
  2  3  1  0
  3  4  1  6
  3  5  1  0
  5  6  2  0
  7  5  1  0
  7  8  1  0
  8  9  1  1
 10  9  1  0
 11 10  2  0
 12 11  1  0
 13 14  1  0
 13 12  2  0
 14 15  2  0
 15 10  1  0
 16 18  1  0
 16  8  1  0
 17 16  2  0
 19 18  1  0
 19 20  1  0
 20 22  1  0
 21 20  2  0
M  END
$$$$
