SFG.pdb
     RDKit          3D

 22 22  0  0  1  0  0  0  0  0999 V2000
   10.7984  -20.0530   19.0564 O   0  0  0  0  0  0  0  0  0  0  0  0
   10.4388  -19.2857   20.1434 C   0  0  0  0  0  0  0  0  0  0  0  0
    9.6173  -18.0621   19.7666 C   0  0  2  0  0  0  0  0  0  0  0  0
   10.0083  -17.7116   18.4162 N   0  0  0  0  0  0  0  0  0  0  0  0
    9.9004  -16.9219   20.6558 C   0  0  0  0  0  0  0  0  0  0  0  0
   10.7641  -16.0861   20.3477 O   0  0  0  0  0  0  0  0  0  0  0  0
    9.2064  -16.7238   21.8970 N   0  0  0  0  0  0  0  0  0  0  0  0
    9.4525  -15.6540   22.7877 C   0  0  1  0  0  0  0  0  0  0  0  0
    8.2526  -14.8145   23.1950 C   0  0  0  0  0  0  0  0  0  0  0  0
    7.6180  -14.1068   22.0790 C   0  0  0  0  0  0  0  0  0  0  0  0
    8.0622  -12.8478   21.7365 C   0  0  0  0  0  0  0  0  0  0  0  0
    7.4812  -12.1241   20.6833 C   0  0  0  0  0  0  0  0  0  0  0  0
    6.4446  -12.6791   19.9734 C   0  0  0  0  0  0  0  0  0  0  0  0
    6.0197  -13.9310   20.3314 C   0  0  0  0  0  0  0  0  0  0  0  0
    6.5901  -14.6556   21.3746 C   0  0  0  0  0  0  0  0  0  0  0  0
   10.3807  -15.9289   23.9020 C   0  0  0  0  0  0  0  0  0  0  0  0
   10.0440  -15.8396   25.1122 O   0  0  0  0  0  0  0  0  0  0  0  0
   11.7465  -16.3215   23.6853 N   0  0  0  0  0  0  0  0  0  0  0  0
   12.7300  -16.3308   24.7243 C   0  0  0  0  0  0  0  0  0  0  0  0
   14.0629  -16.7384   24.2935 C   0  0  0  0  0  0  0  0  0  0  0  0
   14.2985  -17.0077   23.0949 O   0  0  0  0  0  0  0  0  0  0  0  0
   15.0951  -16.8355   25.2048 O   0  0  0  0  0  0  0  0  0  0  0  0
  1  2  1  0
  2  3  1  0
  3  4  1  6
  3  5  1  0
  5  6  2  0
  7  5  1  0
  7  8  1  0
  8  9  1  1
 10  9  1  0
 11 10  2  0
 12 11  1  0
 13 14  1  0
 13 12  2  0
 14 15  2  0
 15 10  1  0
 16 18  1  0
 16  8  1  0
 17 16  2  0
 19 18  1  0
 19 20  1  0
 20 22  1  0
 21 20  2  0
M  END
$$$$
