SFG.pdb
     RDKit          3D

 22 22  0  0  1  0  0  0  0  0999 V2000
    7.9078  -16.5806   20.3189 O   0  0  0  0  0  0  0  0  0  0  0  0
    7.9958  -15.3234   19.7611 C   0  0  0  0  0  0  0  0  0  0  0  0
    7.5007  -14.2222   20.6864 C   0  0  2  0  0  0  0  0  0  0  0  0
    7.7718  -12.9708   20.0083 N   0  0  0  0  0  0  0  0  0  0  0  0
    8.2164  -14.2311   21.9743 C   0  0  0  0  0  0  0  0  0  0  0  0
    9.2805  -13.6064   22.1043 O   0  0  0  0  0  0  0  0  0  0  0  0
    7.7298  -14.9474   23.1195 N   0  0  0  0  0  0  0  0  0  0  0  0
    8.4192  -15.0500   24.3495 C   0  0  1  0  0  0  0  0  0  0  0  0
    7.5814  -14.9420   25.6131 C   0  0  0  0  0  0  0  0  0  0  0  0
    7.2324  -13.5655   25.9771 C   0  0  0  0  0  0  0  0  0  0  0  0
    5.9182  -13.2498   26.2470 C   0  0  0  0  0  0  0  0  0  0  0  0
    5.5305  -11.9449   26.5895 C   0  0  0  0  0  0  0  0  0  0  0  0
    6.4797  -10.9545   26.6588 C   0  0  0  0  0  0  0  0  0  0  0  0
    7.7791  -11.2910   26.3864 C   0  0  0  0  0  0  0  0  0  0  0  0
    8.1721  -12.5826   26.0459 C   0  0  0  0  0  0  0  0  0  0  0  0
    9.4683  -16.0854   24.4287 C   0  0  0  0  0  0  0  0  0  0  0  0
   10.1496  -16.2926   25.4673 O   0  0  0  0  0  0  0  0  0  0  0  0
    9.7910  -16.9387   23.3177 N   0  0  0  0  0  0  0  0  0  0  0  0
   10.8058  -17.9455   23.3762 C   0  0  0  0  0  0  0  0  0  0  0  0
   12.1212  -17.5072   22.9223 C   0  0  0  0  0  0  0  0  0  0  0  0
   12.6688  -18.0345   21.9289 O   0  0  0  0  0  0  0  0  0  0  0  0
   12.7904  -16.4972   23.5835 O   0  0  0  0  0  0  0  0  0  0  0  0
  1  2  1  0
  2  3  1  0
  3  4  1  6
  3  5  1  0
  5  6  2  0
  7  5  1  0
  7  8  1  0
  8  9  1  1
 10  9  1  0
 11 10  2  0
 12 11  1  0
 13 14  1  0
 13 12  2  0
 14 15  2  0
 15 10  1  0
 16 18  1  0
 16  8  1  0
 17 16  2  0
 19 18  1  0
 19 20  1  0
 20 22  1  0
 21 20  2  0
M  END
$$$$
