SFG.pdb
     RDKit          3D

 22 22  0  0  1  0  0  0  0  0999 V2000
    8.6840  -19.1201   22.4090 O   0  0  0  0  0  0  0  0  0  0  0  0
    9.6304  -18.6841   21.5069 C   0  0  0  0  0  0  0  0  0  0  0  0
    9.4617  -17.2220   21.1224 C   0  0  2  0  0  0  0  0  0  0  0  0
   10.6393  -16.8657   20.3572 N   0  0  0  0  0  0  0  0  0  0  0  0
    9.3837  -16.3528   22.3096 C   0  0  0  0  0  0  0  0  0  0  0  0
   10.4163  -16.0204   22.9118 O   0  0  0  0  0  0  0  0  0  0  0  0
    8.1364  -15.8568   22.8190 N   0  0  0  0  0  0  0  0  0  0  0  0
    8.0070  -15.0677   23.9848 C   0  0  1  0  0  0  0  0  0  0  0  0
    6.9065  -14.0193   23.9813 C   0  0  0  0  0  0  0  0  0  0  0  0
    6.8976  -13.1652   25.1727 C   0  0  0  0  0  0  0  0  0  0  0  0
    5.8395  -13.2425   26.0524 C   0  0  0  0  0  0  0  0  0  0  0  0
    5.7782  -12.4389   27.2017 C   0  0  0  0  0  0  0  0  0  0  0  0
    6.7947  -11.5523   27.4610 C   0  0  0  0  0  0  0  0  0  0  0  0
    7.8358  -11.4924   26.5731 C   0  0  0  0  0  0  0  0  0  0  0  0
    7.9044  -12.2856   25.4309 C   0  0  0  0  0  0  0  0  0  0  0  0
    8.1379  -15.7756   25.2735 C   0  0  0  0  0  0  0  0  0  0  0  0
    8.1936  -15.1784   26.3808 O   0  0  0  0  0  0  0  0  0  0  0  0
    8.2119  -17.2087   25.3588 N   0  0  0  0  0  0  0  0  0  0  0  0
    8.2919  -17.9132   26.6014 C   0  0  0  0  0  0  0  0  0  0  0  0
    9.6373  -18.0119   27.1567 C   0  0  0  0  0  0  0  0  0  0  0  0
   10.4772  -18.8032   26.6740 O   0  0  0  0  0  0  0  0  0  0  0  0
   10.0114  -17.2302   28.2311 O   0  0  0  0  0  0  0  0  0  0  0  0
  1  2  1  0
  2  3  1  0
  3  4  1  6
  3  5  1  0
  5  6  2  0
  7  5  1  0
  7  8  1  0
  8  9  1  1
 10  9  1  0
 11 10  2  0
 12 11  1  0
 13 14  1  0
 13 12  2  0
 14 15  2  0
 15 10  1  0
 16 18  1  0
 16  8  1  0
 17 16  2  0
 19 18  1  0
 19 20  1  0
 20 22  1  0
 21 20  2  0
M  END
$$$$
