SFG.pdb
     RDKit          3D

 22 22  0  0  1  0  0  0  0  0999 V2000
    7.7996  -16.0204   20.1487 O   0  0  0  0  0  0  0  0  0  0  0  0
    6.7856  -15.1071   20.3413 C   0  0  0  0  0  0  0  0  0  0  0  0
    7.2501  -13.8340   21.0324 C   0  0  2  0  0  0  0  0  0  0  0  0
    8.0436  -13.1111   20.0593 N   0  0  0  0  0  0  0  0  0  0  0  0
    8.0889  -14.1281   22.2076 C   0  0  0  0  0  0  0  0  0  0  0  0
    9.2793  -13.7792   22.2310 O   0  0  0  0  0  0  0  0  0  0  0  0
    7.5827  -14.8180   23.3604 N   0  0  0  0  0  0  0  0  0  0  0  0
    8.3279  -15.0607   24.5370 C   0  0  1  0  0  0  0  0  0  0  0  0
    7.5778  -14.9548   25.8547 C   0  0  0  0  0  0  0  0  0  0  0  0
    7.2562  -13.5787   26.2448 C   0  0  0  0  0  0  0  0  0  0  0  0
    5.9376  -13.2127   26.4082 C   0  0  0  0  0  0  0  0  0  0  0  0
    5.5765  -11.9055   26.7702 C   0  0  0  0  0  0  0  0  0  0  0  0
    6.5569  -10.9640   26.9678 C   0  0  0  0  0  0  0  0  0  0  0  0
    7.8602  -11.3501   26.7997 C   0  0  0  0  0  0  0  0  0  0  0  0
    8.2271  -12.6443   26.4406 C   0  0  0  0  0  0  0  0  0  0  0  0
    9.2752  -16.1919   24.4913 C   0  0  0  0  0  0  0  0  0  0  0  0
    9.9268  -16.5810   25.4962 O   0  0  0  0  0  0  0  0  0  0  0  0
    9.5247  -16.9369   23.2875 N   0  0  0  0  0  0  0  0  0  0  0  0
   10.3280  -18.1204   23.2547 C   0  0  0  0  0  0  0  0  0  0  0  0
   11.7662  -17.8764   23.2362 C   0  0  0  0  0  0  0  0  0  0  0  0
   12.5783  -18.8195   23.1108 O   0  0  0  0  0  0  0  0  0  0  0  0
   12.2613  -16.5936   23.3572 O   0  0  0  0  0  0  0  0  0  0  0  0
  1  2  1  0
  2  3  1  0
  3  4  1  6
  3  5  1  0
  5  6  2  0
  7  5  1  0
  7  8  1  0
  8  9  1  1
 10  9  1  0
 11 10  2  0
 12 11  1  0
 13 14  1  0
 13 12  2  0
 14 15  2  0
 15 10  1  0
 16 18  1  0
 16  8  1  0
 17 16  2  0
 19 18  1  0
 19 20  1  0
 20 22  1  0
 21 20  2  0
M  END
$$$$
