SFG.pdb
     RDKit          3D

 22 22  0  0  1  0  0  0  0  0999 V2000
    7.6276  -16.1362   20.2247 O   0  0  0  0  0  0  0  0  0  0  0  0
    6.6950  -15.1222   20.2633 C   0  0  0  0  0  0  0  0  0  0  0  0
    7.2123  -13.8587   20.9342 C   0  0  2  0  0  0  0  0  0  0  0  0
    8.0228  -13.1775   19.9452 N   0  0  0  0  0  0  0  0  0  0  0  0
    8.0504  -14.1689   22.1057 C   0  0  0  0  0  0  0  0  0  0  0  0
    9.2638  -13.9104   22.0942 O   0  0  0  0  0  0  0  0  0  0  0  0
    7.5176  -14.7728   23.2942 N   0  0  0  0  0  0  0  0  0  0  0  0
    8.2539  -14.9822   24.4827 C   0  0  1  0  0  0  0  0  0  0  0  0
    7.4759  -14.9252   25.7872 C   0  0  0  0  0  0  0  0  0  0  0  0
    7.0109  -13.5809   26.1418 C   0  0  0  0  0  0  0  0  0  0  0  0
    5.6718  -13.3730   26.3930 C   0  0  0  0  0  0  0  0  0  0  0  0
    5.1744  -12.1032   26.7258 C   0  0  0  0  0  0  0  0  0  0  0  0
    6.0385  -11.0385   26.8044 C   0  0  0  0  0  0  0  0  0  0  0  0
    7.3647  -11.2685   26.5506 C   0  0  0  0  0  0  0  0  0  0  0  0
    7.8663  -12.5245   26.2198 C   0  0  0  0  0  0  0  0  0  0  0  0
    9.2619  -16.0601   24.4481 C   0  0  0  0  0  0  0  0  0  0  0  0
    9.9574  -16.3802   25.4479 O   0  0  0  0  0  0  0  0  0  0  0  0
    9.5247  -16.8284   23.2619 N   0  0  0  0  0  0  0  0  0  0  0  0
   10.4526  -17.9169   23.2270 C   0  0  0  0  0  0  0  0  0  0  0  0
   11.8557  -17.5183   23.2556 C   0  0  0  0  0  0  0  0  0  0  0  0
   12.7619  -18.3284   22.9602 O   0  0  0  0  0  0  0  0  0  0  0  0
   12.2123  -16.2331   23.6110 O   0  0  0  0  0  0  0  0  0  0  0  0
  1  2  1  0
  2  3  1  0
  3  4  1  6
  3  5  1  0
  5  6  2  0
  7  5  1  0
  7  8  1  0
  8  9  1  1
 10  9  1  0
 11 10  2  0
 12 11  1  0
 13 14  1  0
 13 12  2  0
 14 15  2  0
 15 10  1  0
 16 18  1  0
 16  8  1  0
 17 16  2  0
 19 18  1  0
 19 20  1  0
 20 22  1  0
 21 20  2  0
M  END
$$$$
