SFG.pdb
     RDKit          3D

 22 22  0  0  1  0  0  0  0  0999 V2000
   -3.3489  -27.0860   28.9958 O   0  0  0  0  0  0  0  0  0  0  0  0
   -3.7993  -26.4908   27.8372 C   0  0  0  0  0  0  0  0  0  0  0  0
   -3.4741  -25.0067   27.7613 C   0  0  2  0  0  0  0  0  0  0  0  0
   -2.0458  -24.8934   27.9767 N   0  0  0  0  0  0  0  0  0  0  0  0
   -4.1759  -24.2418   28.8069 C   0  0  0  0  0  0  0  0  0  0  0  0
   -3.5796  -23.8988   29.8394 O   0  0  0  0  0  0  0  0  0  0  0  0
   -5.5555  -23.8627   28.6872 N   0  0  0  0  0  0  0  0  0  0  0  0
   -6.2402  -23.0385   29.6094 C   0  0  1  0  0  0  0  0  0  0  0  0
   -6.1981  -21.5414   29.3498 C   0  0  0  0  0  0  0  0  0  0  0  0
   -5.8962  -21.1892   27.9592 C   0  0  0  0  0  0  0  0  0  0  0  0
   -4.7227  -20.5273   27.6687 C   0  0  0  0  0  0  0  0  0  0  0  0
   -4.3921  -20.1583   26.3553 C   0  0  0  0  0  0  0  0  0  0  0  0
   -5.2552  -20.4615   25.3309 C   0  0  0  0  0  0  0  0  0  0  0  0
   -6.4153  -21.1194   25.6429 C   0  0  0  0  0  0  0  0  0  0  0  0
   -6.7510  -21.4889   26.9426 C   0  0  0  0  0  0  0  0  0  0  0  0
   -7.5608  -23.5178   30.0622 C   0  0  0  0  0  0  0  0  0  0  0  0
   -8.1952  -22.9844   31.0104 O   0  0  0  0  0  0  0  0  0  0  0  0
   -8.2237  -24.6365   29.4494 N   0  0  0  0  0  0  0  0  0  0  0  0
   -9.5346  -25.0686   29.8258 C   0  0  0  0  0  0  0  0  0  0  0  0
  -10.5234  -23.9994   29.9133 C   0  0  0  0  0  0  0  0  0  0  0  0
  -10.7051  -23.3757   30.9822 O   0  0  0  0  0  0  0  0  0  0  0  0
  -11.2813  -23.6536   28.8127 O   0  0  0  0  0  0  0  0  0  0  0  0
  1  2  1  0
  2  3  1  0
  3  4  1  1
  3  5  1  0
  5  6  2  0
  7  5  1  0
  7  8  1  0
  8  9  1  6
 10  9  1  0
 11 10  2  0
 12 11  1  0
 13 14  1  0
 13 12  2  0
 14 15  2  0
 15 10  1  0
 16 18  1  0
 16  8  1  0
 17 16  2  0
 19 18  1  0
 19 20  1  0
 20 22  1  0
 21 20  2  0
M  END
$$$$
