SFG.pdb
     RDKit          3D

 22 22  0  0  1  0  0  0  0  0999 V2000
    6.7213  -17.2133   19.7397 O   0  0  0  0  0  0  0  0  0  0  0  0
    6.9321  -16.9859   21.0826 C   0  0  0  0  0  0  0  0  0  0  0  0
    6.8397  -15.5157   21.4622 C   0  0  2  0  0  0  0  0  0  0  0  0
    7.0550  -14.7674   20.2404 N   0  0  0  0  0  0  0  0  0  0  0  0
    7.8761  -15.1402   22.4400 C   0  0  0  0  0  0  0  0  0  0  0  0
    8.8921  -14.5299   22.0731 O   0  0  0  0  0  0  0  0  0  0  0  0
    7.7656  -15.4543   23.8365 N   0  0  0  0  0  0  0  0  0  0  0  0
    8.7647  -15.1800   24.7983 C   0  0  1  0  0  0  0  0  0  0  0  0
    8.2876  -14.8323   26.1989 C   0  0  0  0  0  0  0  0  0  0  0  0
    7.5320  -13.5782   26.2734 C   0  0  0  0  0  0  0  0  0  0  0  0
    8.2117  -12.3855   26.3967 C   0  0  0  0  0  0  0  0  0  0  0  0
    7.5348  -11.1587   26.4827 C   0  0  0  0  0  0  0  0  0  0  0  0
    6.1620  -11.1405   26.4437 C   0  0  0  0  0  0  0  0  0  0  0  0
    5.5077  -12.3374   26.3210 C   0  0  0  0  0  0  0  0  0  0  0  0
    6.1711  -13.5585   26.2352 C   0  0  0  0  0  0  0  0  0  0  0  0
    9.9478  -16.0626   24.7846 C   0  0  0  0  0  0  0  0  0  0  0  0
   10.9946  -15.8158   25.4398 O   0  0  0  0  0  0  0  0  0  0  0  0
    9.9915  -17.2771   24.0167 N   0  0  0  0  0  0  0  0  0  0  0  0
   11.1384  -18.1313   23.9721 C   0  0  0  0  0  0  0  0  0  0  0  0
   11.4234  -18.8288   25.2213 C   0  0  0  0  0  0  0  0  0  0  0  0
   12.1367  -18.3036   26.1045 O   0  0  0  0  0  0  0  0  0  0  0  0
   10.9089  -20.0883   25.4541 O   0  0  0  0  0  0  0  0  0  0  0  0
  1  2  1  0
  2  3  1  0
  3  4  1  6
  3  5  1  0
  5  6  2  0
  7  5  1  0
  7  8  1  0
  8  9  1  1
 10  9  1  0
 11 10  2  0
 12 11  1  0
 13 14  1  0
 13 12  2  0
 14 15  2  0
 15 10  1  0
 16 18  1  0
 16  8  1  0
 17 16  2  0
 19 18  1  0
 19 20  1  0
 20 22  1  0
 21 20  2  0
M  END
$$$$
