KNG.pdb
     RDKit          3D

 22 21  0  0  1  0  0  0  0  0999 V2000
    3.7497  -18.6873   22.5349 N   0  0  0  0  0  0  0  0  0  0  0  0
    4.6248  -19.6872   23.0740 C   0  0  1  0  0  0  0  0  0  0  0  0
    4.7408  -20.9460   22.2975 C   0  0  0  0  0  0  0  0  0  0  0  0
    3.4593  -21.3370   21.6397 C   0  0  0  0  0  0  0  0  0  0  0  0
    3.1368  -22.7876   21.6111 C   0  0  0  0  0  0  0  0  0  0  0  0
    1.8764  -23.0270   20.7917 C   0  0  0  0  0  0  0  0  0  0  0  0
    1.6520  -24.4400   20.7417 N   0  0  0  0  0  0  0  0  0  0  0  0
    6.0079  -19.1017   23.1965 C   0  0  0  0  0  0  0  0  0  0  0  0
    6.9558  -19.9030   23.3674 O   0  0  0  0  0  0  0  0  0  0  0  0
    6.1618  -14.6805   21.8311 N   0  0  0  0  0  0  0  0  0  0  0  0
    7.2266  -14.9355   22.7723 C   0  0  0  0  0  0  0  0  0  0  0  0
    7.3506  -14.0810   23.6705 O   0  0  0  0  0  0  0  0  0  0  0  0
    8.0486  -16.1263   22.6120 C   0  0  0  0  0  0  0  0  0  0  0  0
    7.6082  -17.2504   23.4810 C   0  0  2  0  0  0  0  0  0  0  0  0
    6.2649  -17.7129   23.1263 N   0  0  0  0  0  0  0  0  0  0  0  0
    7.6467  -17.0210   24.9246 C   0  0  0  0  0  0  0  0  0  0  0  0
    6.8121  -16.3308   25.5289 O   0  0  0  0  0  0  0  0  0  0  0  0
    8.6837  -17.6039   25.7194 N   0  0  0  0  0  0  0  0  0  0  0  0
    8.7706  -17.4029   27.1409 C   0  0  0  0  0  0  0  0  0  0  0  0
    9.9125  -18.1291   27.7398 C   0  0  0  0  0  0  0  0  0  0  0  0
   10.6537  -18.8622   27.0391 O   0  0  0  0  0  0  0  0  0  0  0  0
   10.2225  -18.0401   29.0924 O   0  0  0  0  0  0  0  0  0  0  0  0
  2  1  1  6
  2  3  1  0
  2  8  1  0
  4  3  1  0
  5  4  1  0
  6  5  1  0
  7  6  1  0
  8  9  2  0
 11 13  1  0
 11 10  1  0
 12 11  2  0
 14 13  1  6
 14 16  1  0
 15 14  1  0
 15  8  1  0
 16 17  2  0
 18 19  1  0
 18 16  1  0
 19 20  1  0
 20 21  2  0
 20 22  1  0
M  END
$$$$
