KNG.pdb
     RDKit          3D

 22 21  0  0  1  0  0  0  0  0999 V2000
    8.0312  -15.7249   18.7598 N   0  0  0  0  0  0  0  0  0  0  0  0
    8.5560  -14.4419   19.1268 C   0  0  1  0  0  0  0  0  0  0  0  0
    7.7655  -13.2621   18.6978 C   0  0  0  0  0  0  0  0  0  0  0  0
    7.2026  -13.4147   17.3239 C   0  0  0  0  0  0  0  0  0  0  0  0
    8.1771  -13.4641   16.2028 C   0  0  0  0  0  0  0  0  0  0  0  0
    7.4406  -13.5040   14.8711 C   0  0  0  0  0  0  0  0  0  0  0  0
    8.4180  -13.6713   13.8385 N   0  0  0  0  0  0  0  0  0  0  0  0
    8.6791  -14.3831   20.6275 C   0  0  0  0  0  0  0  0  0  0  0  0
    9.1115  -13.3176   21.1252 O   0  0  0  0  0  0  0  0  0  0  0  0
    9.5329  -15.0723   25.4528 N   0  0  0  0  0  0  0  0  0  0  0  0
    8.4278  -15.9576   25.1707 C   0  0  0  0  0  0  0  0  0  0  0  0
    7.9113  -16.4899   26.1718 O   0  0  0  0  0  0  0  0  0  0  0  0
    8.0110  -16.1587   23.7903 C   0  0  0  0  0  0  0  0  0  0  0  0
    8.9150  -15.4936   22.8140 C   0  0  2  0  0  0  0  0  0  0  0  0
    8.3312  -15.4632   21.4714 N   0  0  0  0  0  0  0  0  0  0  0  0
   10.2746  -16.0215   22.7098 C   0  0  0  0  0  0  0  0  0  0  0  0
   11.1644  -15.4876   22.0306 O   0  0  0  0  0  0  0  0  0  0  0  0
   10.6404  -17.2136   23.4113 N   0  0  0  0  0  0  0  0  0  0  0  0
   11.9486  -17.8012   23.3027 C   0  0  0  0  0  0  0  0  0  0  0  0
   12.7939  -17.5064   24.4811 C   0  0  0  0  0  0  0  0  0  0  0  0
   12.3137  -16.9518   25.5007 O   0  0  0  0  0  0  0  0  0  0  0  0
   14.1472  -17.8233   24.5226 O   0  0  0  0  0  0  0  0  0  0  0  0
  2  1  1  1
  2  3  1  0
  2  8  1  0
  4  3  1  0
  5  4  1  0
  6  5  1  0
  7  6  1  0
  8  9  2  0
 11 13  1  0
 11 10  1  0
 12 11  2  0
 14 13  1  1
 14 16  1  0
 15 14  1  0
 15  8  1  0
 16 17  2  0
 18 19  1  0
 18 16  1  0
 19 20  1  0
 20 21  2  0
 20 22  1  0
M  END
$$$$
