KNG.pdb
     RDKit          3D

 22 21  0  0  1  0  0  0  0  0999 V2000
   10.4337  -15.8632   21.9669 N   0  0  0  0  0  0  0  0  0  0  0  0
    9.5450  -14.7405   22.0453 C   0  0  1  0  0  0  0  0  0  0  0  0
    8.3971  -14.7450   21.1054 C   0  0  0  0  0  0  0  0  0  0  0  0
    8.7682  -14.2677   19.7408 C   0  0  0  0  0  0  0  0  0  0  0  0
    7.6569  -14.0794   18.7721 C   0  0  0  0  0  0  0  0  0  0  0  0
    8.1917  -13.5047   17.4679 C   0  0  0  0  0  0  0  0  0  0  0  0
    7.0821  -13.3375   16.5789 N   0  0  0  0  0  0  0  0  0  0  0  0
    8.9859  -14.6652   23.4425 C   0  0  0  0  0  0  0  0  0  0  0  0
    9.6768  -15.1601   24.3631 O   0  0  0  0  0  0  0  0  0  0  0  0
    6.8204  -11.6706   27.4910 N   0  0  0  0  0  0  0  0  0  0  0  0
    6.0052  -12.5593   26.6970 C   0  0  0  0  0  0  0  0  0  0  0  0
    5.0356  -13.0609   27.2974 O   0  0  0  0  0  0  0  0  0  0  0  0
    6.3597  -12.7978   25.3053 C   0  0  0  0  0  0  0  0  0  0  0  0
    7.4186  -13.8311   25.1505 C   0  0  2  0  0  0  0  0  0  0  0  0
    7.7388  -14.0693   23.7416 N   0  0  0  0  0  0  0  0  0  0  0  0
    7.1756  -15.1238   25.7893 C   0  0  0  0  0  0  0  0  0  0  0  0
    7.2720  -15.3104   27.0115 O   0  0  0  0  0  0  0  0  0  0  0  0
    6.8054  -16.2589   25.0009 N   0  0  0  0  0  0  0  0  0  0  0  0
    6.3697  -17.4968   25.5891 C   0  0  0  0  0  0  0  0  0  0  0  0
    7.4984  -18.2889   26.1263 C   0  0  0  0  0  0  0  0  0  0  0  0
    7.9718  -19.2599   25.4854 O   0  0  0  0  0  0  0  0  0  0  0  0
    8.0880  -18.0046   27.3532 O   0  0  0  0  0  0  0  0  0  0  0  0
  2  1  1  1
  2  3  1  0
  2  8  1  0
  4  3  1  0
  5  4  1  0
  6  5  1  0
  7  6  1  0
  8  9  2  0
 11 13  1  0
 11 10  1  0
 12 11  2  0
 14 13  1  6
 14 16  1  0
 15 14  1  0
 15  8  1  0
 16 17  2  0
 18 19  1  0
 18 16  1  0
 19 20  1  0
 20 21  2  0
 20 22  1  0
M  END
$$$$
