KNG.pdb
     RDKit          3D

 22 21  0  0  1  0  0  0  0  0999 V2000
    7.2748  -19.1339   19.4141 N   0  0  0  0  0  0  0  0  0  0  0  0
    5.9528  -18.7426   19.8086 C   0  0  1  0  0  0  0  0  0  0  0  0
    4.8454  -19.1915   18.9294 C   0  0  0  0  0  0  0  0  0  0  0  0
    5.2258  -19.2064   17.4862 C   0  0  0  0  0  0  0  0  0  0  0  0
    4.1442  -19.5061   16.5118 C   0  0  0  0  0  0  0  0  0  0  0  0
    4.6832  -19.4236   15.0905 C   0  0  0  0  0  0  0  0  0  0  0  0
    3.5945  -19.6805   14.1970 N   0  0  0  0  0  0  0  0  0  0  0  0
    5.6823  -19.2827   21.1891 C   0  0  0  0  0  0  0  0  0  0  0  0
    4.5251  -19.1332   21.6458 O   0  0  0  0  0  0  0  0  0  0  0  0
    5.8390  -23.4099   21.5200 N   0  0  0  0  0  0  0  0  0  0  0  0
    5.3653  -22.5264   22.5590 C   0  0  0  0  0  0  0  0  0  0  0  0
    4.1270  -22.4047   22.6220 O   0  0  0  0  0  0  0  0  0  0  0  0
    6.3300  -21.8652   23.4261 C   0  0  0  0  0  0  0  0  0  0  0  0
    6.2875  -20.3829   23.3087 C   0  0  2  0  0  0  0  0  0  0  0  0
    6.6662  -19.9364   21.9665 N   0  0  0  0  0  0  0  0  0  0  0  0
    7.0705  -19.6225   24.2817 C   0  0  0  0  0  0  0  0  0  0  0  0
    8.2989  -19.4715   24.2015 O   0  0  0  0  0  0  0  0  0  0  0  0
    6.4265  -19.0041   25.3996 N   0  0  0  0  0  0  0  0  0  0  0  0
    7.1188  -18.1150   26.2932 C   0  0  0  0  0  0  0  0  0  0  0  0
    8.0334  -18.8380   27.2045 C   0  0  0  0  0  0  0  0  0  0  0  0
    8.2627  -20.0639   27.0543 O   0  0  0  0  0  0  0  0  0  0  0  0
    8.6799  -18.2079   28.2622 O   0  0  0  0  0  0  0  0  0  0  0  0
  2  1  1  6
  2  3  1  0
  2  8  1  0
  4  3  1  0
  5  4  1  0
  6  5  1  0
  7  6  1  0
  8  9  2  0
 11 13  1  0
 11 10  1  0
 12 11  2  0
 14 13  1  6
 14 16  1  0
 15 14  1  0
 15  8  1  0
 16 17  2  0
 18 19  1  0
 18 16  1  0
 19 20  1  0
 20 21  2  0
 20 22  1  0
M  END
$$$$
