KNG.pdb
     RDKit          3D

 22 21  0  0  1  0  0  0  0  0999 V2000
    8.0506  -15.9809   20.6329 N   0  0  0  0  0  0  0  0  0  0  0  0
    8.4572  -14.6172   20.8092 C   0  0  1  0  0  0  0  0  0  0  0  0
    7.5223  -13.5826   20.3029 C   0  0  0  0  0  0  0  0  0  0  0  0
    7.9344  -13.0327   18.9780 C   0  0  0  0  0  0  0  0  0  0  0  0
    8.1059  -14.0101   17.8714 C   0  0  0  0  0  0  0  0  0  0  0  0
    8.5960  -13.2997   16.6175 C   0  0  0  0  0  0  0  0  0  0  0  0
    8.7110  -14.2791   15.5796 N   0  0  0  0  0  0  0  0  0  0  0  0
    8.6619  -14.3617   22.2801 C   0  0  0  0  0  0  0  0  0  0  0  0
    8.5681  -13.1759   22.6737 O   0  0  0  0  0  0  0  0  0  0  0  0
    5.9072  -13.8398   26.3976 N   0  0  0  0  0  0  0  0  0  0  0  0
    6.1801  -15.0774   25.7060 C   0  0  0  0  0  0  0  0  0  0  0  0
    5.7978  -16.1055   26.2967 O   0  0  0  0  0  0  0  0  0  0  0  0
    6.8569  -15.0388   24.4176 C   0  0  0  0  0  0  0  0  0  0  0  0
    8.3147  -15.3147   24.5252 C   0  0  2  0  0  0  0  0  0  0  0  0
    8.9488  -15.3900   23.2075 N   0  0  0  0  0  0  0  0  0  0  0  0
    8.7063  -16.4981   25.2896 C   0  0  0  0  0  0  0  0  0  0  0  0
    8.6364  -16.5664   26.5260 O   0  0  0  0  0  0  0  0  0  0  0  0
    9.2011  -17.6595   24.6164 N   0  0  0  0  0  0  0  0  0  0  0  0
   10.6068  -17.9329   24.4833 C   0  0  0  0  0  0  0  0  0  0  0  0
   11.2204  -18.3452   25.7653 C   0  0  0  0  0  0  0  0  0  0  0  0
   11.2467  -17.5672   26.7512 O   0  0  0  0  0  0  0  0  0  0  0  0
   11.7932  -19.5995   25.9454 O   0  0  0  0  0  0  0  0  0  0  0  0
  2  1  1  1
  2  3  1  0
  2  8  1  0
  4  3  1  0
  5  4  1  0
  6  5  1  0
  7  6  1  0
  8  9  2  0
 11 13  1  0
 11 10  1  0
 12 11  2  0
 14 13  1  6
 14 16  1  0
 15 14  1  0
 15  8  1  0
 16 17  2  0
 18 19  1  0
 18 16  1  0
 19 20  1  0
 20 21  2  0
 20 22  1  0
M  END
$$$$
