KNG.pdb
     RDKit          3D

 22 21  0  0  1  0  0  0  0  0999 V2000
    9.8550  -13.8068   19.7923 N   0  0  0  0  0  0  0  0  0  0  0  0
    8.6817  -13.1317   20.2653 C   0  0  1  0  0  0  0  0  0  0  0  0
    7.5746  -12.9777   19.2898 C   0  0  0  0  0  0  0  0  0  0  0  0
    7.6486  -13.9662   18.1739 C   0  0  0  0  0  0  0  0  0  0  0  0
    8.3024  -13.5115   16.9190 C   0  0  0  0  0  0  0  0  0  0  0  0
    8.2073  -14.5977   15.8566 C   0  0  0  0  0  0  0  0  0  0  0  0
    7.0543  -14.3215   15.0543 N   0  0  0  0  0  0  0  0  0  0  0  0
    8.1380  -13.8848   21.4519 C   0  0  0  0  0  0  0  0  0  0  0  0
    7.0096  -13.5450   21.8776 O   0  0  0  0  0  0  0  0  0  0  0  0
    5.0888  -17.6289   22.7610 N   0  0  0  0  0  0  0  0  0  0  0  0
    6.3921  -17.7632   22.1545 C   0  0  0  0  0  0  0  0  0  0  0  0
    6.8288  -18.9287   22.0986 O   0  0  0  0  0  0  0  0  0  0  0  0
    7.0781  -16.5739   21.6702 C   0  0  0  0  0  0  0  0  0  0  0  0
    8.0572  -16.0349   22.6518 C   0  0  2  0  0  0  0  0  0  0  0  0
    8.8412  -14.9358   22.0847 N   0  0  0  0  0  0  0  0  0  0  0  0
    8.9825  -16.9940   23.2534 C   0  0  0  0  0  0  0  0  0  0  0  0
    8.6426  -17.8287   24.1054 O   0  0  0  0  0  0  0  0  0  0  0  0
   10.3604  -17.0048   22.8682 N   0  0  0  0  0  0  0  0  0  0  0  0
   11.3339  -16.1289   23.4628 C   0  0  0  0  0  0  0  0  0  0  0  0
   12.4215  -16.8748   24.1341 C   0  0  0  0  0  0  0  0  0  0  0  0
   12.4228  -18.1306   24.1655 O   0  0  0  0  0  0  0  0  0  0  0  0
   13.4866  -16.2344   24.7579 O   0  0  0  0  0  0  0  0  0  0  0  0
  2  1  1  6
  2  3  1  0
  2  8  1  0
  4  3  1  0
  5  4  1  0
  6  5  1  0
  7  6  1  0
  8  9  2  0
 11 13  1  0
 11 10  1  0
 12 11  2  0
 14 13  1  6
 14 16  1  0
 15 14  1  0
 15  8  1  0
 16 17  2  0
 18 19  1  0
 18 16  1  0
 19 20  1  0
 20 21  2  0
 20 22  1  0
M  END
$$$$
