KNG.pdb
     RDKit          3D

 22 21  0  0  1  0  0  0  0  0999 V2000
    5.7663  -18.3346   20.2723 N   0  0  0  0  0  0  0  0  0  0  0  0
    7.0976  -18.6731   19.8608 C   0  0  1  0  0  0  0  0  0  0  0  0
    7.2564  -19.1214   18.4555 C   0  0  0  0  0  0  0  0  0  0  0  0
    5.9529  -19.4400   17.8018 C   0  0  0  0  0  0  0  0  0  0  0  0
    5.8958  -20.6865   16.9944 C   0  0  0  0  0  0  0  0  0  0  0  0
    4.5288  -20.8225   16.3385 C   0  0  0  0  0  0  0  0  0  0  0  0
    4.5037  -19.9532   15.2012 N   0  0  0  0  0  0  0  0  0  0  0  0
    7.9827  -17.4691   20.0547 C   0  0  0  0  0  0  0  0  0  0  0  0
    9.1688  -17.5613   19.6617 O   0  0  0  0  0  0  0  0  0  0  0  0
    6.4791  -12.9066   18.8184 N   0  0  0  0  0  0  0  0  0  0  0  0
    7.6565  -13.6531   19.1936 C   0  0  0  0  0  0  0  0  0  0  0  0
    8.3437  -14.0661   18.2398 O   0  0  0  0  0  0  0  0  0  0  0  0
    7.9469  -13.8631   20.6046 C   0  0  0  0  0  0  0  0  0  0  0  0
    8.5150  -15.2100   20.8806 C   0  0  2  0  0  0  0  0  0  0  0  0
    7.5303  -16.2690   20.6503 N   0  0  0  0  0  0  0  0  0  0  0  0
    9.1084  -15.4164   22.2010 C   0  0  0  0  0  0  0  0  0  0  0  0
    8.4521  -15.4105   23.2532 O   0  0  0  0  0  0  0  0  0  0  0  0
   10.5155  -15.6403   22.3315 N   0  0  0  0  0  0  0  0  0  0  0  0
   11.1398  -15.9027   23.6003 C   0  0  0  0  0  0  0  0  0  0  0  0
   12.5800  -16.2134   23.4616 C   0  0  0  0  0  0  0  0  0  0  0  0
   13.1273  -16.2592   22.3318 O   0  0  0  0  0  0  0  0  0  0  0  0
   13.3943  -16.4679   24.5597 O   0  0  0  0  0  0  0  0  0  0  0  0
  2  1  1  6
  2  3  1  0
  2  8  1  0
  4  3  1  0
  5  4  1  0
  6  5  1  0
  7  6  1  0
  8  9  2  0
 11 13  1  0
 11 10  1  0
 12 11  2  0
 14 13  1  1
 14 16  1  0
 15 14  1  0
 15  8  1  0
 16 17  2  0
 18 19  1  0
 18 16  1  0
 19 20  1  0
 20 21  2  0
 20 22  1  0
M  END
$$$$
