KNG.pdb
     RDKit          3D

 22 21  0  0  1  0  0  0  0  0999 V2000
    9.1342  -17.9169   16.7202 N   0  0  0  0  0  0  0  0  0  0  0  0
    8.6509  -17.6498   18.0435 C   0  0  1  0  0  0  0  0  0  0  0  0
    8.3052  -18.8339   18.8677 C   0  0  0  0  0  0  0  0  0  0  0  0
    7.5796  -19.8830   18.0926 C   0  0  0  0  0  0  0  0  0  0  0  0
    7.2876  -21.1567   18.8007 C   0  0  0  0  0  0  0  0  0  0  0  0
    6.5061  -22.0938   17.8904 C   0  0  0  0  0  0  0  0  0  0  0  0
    6.2769  -23.3093   18.6111 N   0  0  0  0  0  0  0  0  0  0  0  0
    9.7005  -16.8686   18.7912 C   0  0  0  0  0  0  0  0  0  0  0  0
   10.8412  -17.3795   18.8776 O   0  0  0  0  0  0  0  0  0  0  0  0
    9.2756  -12.3911   18.1140 N   0  0  0  0  0  0  0  0  0  0  0  0
   10.4685  -13.0029   18.6500 C   0  0  0  0  0  0  0  0  0  0  0  0
   11.4286  -13.0658   17.8584 O   0  0  0  0  0  0  0  0  0  0  0  0
   10.4659  -13.4848   20.0238 C   0  0  0  0  0  0  0  0  0  0  0  0
   10.5421  -14.9677   20.1132 C   0  0  2  0  0  0  0  0  0  0  0  0
    9.4470  -15.6097   19.3833 N   0  0  0  0  0  0  0  0  0  0  0  0
   10.5972  -15.5446   21.4557 C   0  0  0  0  0  0  0  0  0  0  0  0
    9.6687  -15.4609   22.2736 O   0  0  0  0  0  0  0  0  0  0  0  0
   11.7637  -16.2503   21.8893 N   0  0  0  0  0  0  0  0  0  0  0  0
   11.8725  -16.8261   23.2028 C   0  0  0  0  0  0  0  0  0  0  0  0
   13.2287  -16.6665   23.7730 C   0  0  0  0  0  0  0  0  0  0  0  0
   14.1631  -16.1721   23.0945 O   0  0  0  0  0  0  0  0  0  0  0  0
   13.5378  -17.0502   25.0734 O   0  0  0  0  0  0  0  0  0  0  0  0
  2  1  1  6
  2  3  1  0
  2  8  1  0
  4  3  1  0
  5  4  1  0
  6  5  1  0
  7  6  1  0
  8  9  2  0
 11 13  1  0
 11 10  1  0
 12 11  2  0
 14 13  1  1
 14 16  1  0
 15 14  1  0
 15  8  1  0
 16 17  2  0
 18 19  1  0
 18 16  1  0
 19 20  1  0
 20 21  2  0
 20 22  1  0
M  END
$$$$
