KNG.pdb
     RDKit          3D

 22 21  0  0  1  0  0  0  0  0999 V2000
    6.3792  -16.6507   24.8371 N   0  0  0  0  0  0  0  0  0  0  0  0
    6.8835  -15.4344   24.2693 C   0  0  1  0  0  0  0  0  0  0  0  0
    7.4691  -14.4588   25.2213 C   0  0  0  0  0  0  0  0  0  0  0  0
    6.5350  -13.3416   25.5485 C   0  0  0  0  0  0  0  0  0  0  0  0
    6.7519  -12.6449   26.8433 C   0  0  0  0  0  0  0  0  0  0  0  0
    5.6870  -11.5762   27.0469 C   0  0  0  0  0  0  0  0  0  0  0  0
    5.8397  -11.0571   28.3723 N   0  0  0  0  0  0  0  0  0  0  0  0
    7.9492  -15.7788   23.2612 C   0  0  0  0  0  0  0  0  0  0  0  0
    8.4344  -16.9328   23.3126 O   0  0  0  0  0  0  0  0  0  0  0  0
    7.0790  -13.3786   19.4563 N   0  0  0  0  0  0  0  0  0  0  0  0
    7.6524  -14.6872   19.6645 C   0  0  0  0  0  0  0  0  0  0  0  0
    6.8449  -15.6331   19.5907 O   0  0  0  0  0  0  0  0  0  0  0  0
    9.0779  -14.8050   19.9360 C   0  0  0  0  0  0  0  0  0  0  0  0
    9.3622  -15.3574   21.2876 C   0  0  2  0  0  0  0  0  0  0  0  0
    8.4079  -14.8659   22.2836 N   0  0  0  0  0  0  0  0  0  0  0  0
   10.7130  -15.1568   21.8102 C   0  0  0  0  0  0  0  0  0  0  0  0
   11.4408  -14.2099   21.4762 O   0  0  0  0  0  0  0  0  0  0  0  0
   11.2629  -16.0769   22.7579 N   0  0  0  0  0  0  0  0  0  0  0  0
   12.6206  -15.9847   23.2232 C   0  0  0  0  0  0  0  0  0  0  0  0
   12.8764  -16.8695   24.3815 C   0  0  0  0  0  0  0  0  0  0  0  0
   11.9810  -17.6300   24.8263 O   0  0  0  0  0  0  0  0  0  0  0  0
   14.1052  -16.9063   25.0314 O   0  0  0  0  0  0  0  0  0  0  0  0
  2  1  1  1
  2  3  1  0
  2  8  1  0
  4  3  1  0
  5  4  1  0
  6  5  1  0
  7  6  1  0
  8  9  2  0
 11 13  1  0
 11 10  1  0
 12 11  2  0
 14 13  1  6
 14 16  1  0
 15 14  1  0
 15  8  1  0
 16 17  2  0
 18 19  1  0
 18 16  1  0
 19 20  1  0
 20 21  2  0
 20 22  1  0
M  END
$$$$
