KNG.pdb
     RDKit          3D

 22 21  0  0  1  0  0  0  0  0999 V2000
    5.2004  -19.5106   23.4853 N   0  0  0  0  0  0  0  0  0  0  0  0
    5.5101  -19.1391   22.1354 C   0  0  1  0  0  0  0  0  0  0  0  0
    4.3530  -18.8946   21.2398 C   0  0  0  0  0  0  0  0  0  0  0  0
    3.2545  -19.8860   21.4346 C   0  0  0  0  0  0  0  0  0  0  0  0
    2.0068  -19.6641   20.6580 C   0  0  0  0  0  0  0  0  0  0  0  0
    0.9398  -20.6620   21.0862 C   0  0  0  0  0  0  0  0  0  0  0  0
   -0.2468  -20.3781   20.3372 N   0  0  0  0  0  0  0  0  0  0  0  0
    6.3376  -17.8800   22.1600 C   0  0  0  0  0  0  0  0  0  0  0  0
    6.7660  -17.4549   21.0620 O   0  0  0  0  0  0  0  0  0  0  0  0
    7.3918  -12.5163   22.7052 N   0  0  0  0  0  0  0  0  0  0  0  0
    7.6664  -13.5910   23.6295 C   0  0  0  0  0  0  0  0  0  0  0  0
    8.6585  -13.4141   24.3621 O   0  0  0  0  0  0  0  0  0  0  0  0
    6.7990  -14.7602   23.6401 C   0  0  0  0  0  0  0  0  0  0  0  0
    7.5100  -16.0072   23.2498 C   0  0  2  0  0  0  0  0  0  0  0  0
    6.6388  -17.1798   23.3511 N   0  0  0  0  0  0  0  0  0  0  0  0
    8.7574  -16.3019   23.9536 C   0  0  0  0  0  0  0  0  0  0  0  0
    8.8029  -16.6760   25.1351 O   0  0  0  0  0  0  0  0  0  0  0  0
   10.0133  -16.1646   23.2822 N   0  0  0  0  0  0  0  0  0  0  0  0
   11.2701  -16.3862   23.9453 C   0  0  0  0  0  0  0  0  0  0  0  0
   12.4237  -16.1751   23.0427 C   0  0  0  0  0  0  0  0  0  0  0  0
   12.2557  -15.9399   21.8203 O   0  0  0  0  0  0  0  0  0  0  0  0
   13.7384  -16.2249   23.4932 O   0  0  0  0  0  0  0  0  0  0  0  0
  2  1  1  1
  2  3  1  0
  2  8  1  0
  4  3  1  0
  5  4  1  0
  6  5  1  0
  7  6  1  0
  8  9  2  0
 11 13  1  0
 11 10  1  0
 12 11  2  0
 14 13  1  1
 14 16  1  0
 15 14  1  0
 15  8  1  0
 16 17  2  0
 18 19  1  0
 18 16  1  0
 19 20  1  0
 20 21  2  0
 20 22  1  0
M  END
$$$$
