KNG.pdb
     RDKit          3D

 22 21  0  0  1  0  0  0  0  0999 V2000
    7.4960  -16.6523   21.9743 N   0  0  0  0  0  0  0  0  0  0  0  0
    8.5652  -15.7133   21.7967 C   0  0  1  0  0  0  0  0  0  0  0  0
    8.5335  -14.9104   20.5496 C   0  0  0  0  0  0  0  0  0  0  0  0
    8.3178  -15.7463   19.3320 C   0  0  0  0  0  0  0  0  0  0  0  0
    8.2057  -15.0261   18.0367 C   0  0  0  0  0  0  0  0  0  0  0  0
    8.0156  -16.0208   16.9000 C   0  0  0  0  0  0  0  0  0  0  0  0
    7.9794  -15.2801   15.6754 N   0  0  0  0  0  0  0  0  0  0  0  0
    8.5579  -14.7501   22.9555 C   0  0  0  0  0  0  0  0  0  0  0  0
    9.4318  -13.8522   22.9591 O   0  0  0  0  0  0  0  0  0  0  0  0
    5.3020  -11.8521   27.1272 N   0  0  0  0  0  0  0  0  0  0  0  0
    6.4545  -12.0919   26.2912 C   0  0  0  0  0  0  0  0  0  0  0  0
    7.4346  -11.3585   26.5233 O   0  0  0  0  0  0  0  0  0  0  0  0
    6.3928  -13.1328   25.2752 C   0  0  0  0  0  0  0  0  0  0  0  0
    7.7009  -13.8094   25.0650 C   0  0  2  0  0  0  0  0  0  0  0  0
    7.6210  -14.8239   24.0121 N   0  0  0  0  0  0  0  0  0  0  0  0
    8.3242  -14.4173   26.2397 C   0  0  0  0  0  0  0  0  0  0  0  0
    8.5761  -13.7911   27.2802 O   0  0  0  0  0  0  0  0  0  0  0  0
    8.6781  -15.8035   26.2315 N   0  0  0  0  0  0  0  0  0  0  0  0
    9.2603  -16.4572   27.3726 C   0  0  0  0  0  0  0  0  0  0  0  0
   10.6144  -16.9812   27.0868 C   0  0  0  0  0  0  0  0  0  0  0  0
   10.9631  -18.1232   27.4767 O   0  0  0  0  0  0  0  0  0  0  0  0
   11.5612  -16.2474   26.3804 O   0  0  0  0  0  0  0  0  0  0  0  0
  2  1  1  1
  2  3  1  0
  2  8  1  0
  4  3  1  0
  5  4  1  0
  6  5  1  0
  7  6  1  0
  8  9  2  0
 11 13  1  0
 11 10  1  0
 12 11  2  0
 14 13  1  1
 14 16  1  0
 15 14  1  0
 15  8  1  0
 16 17  2  0
 18 19  1  0
 18 16  1  0
 19 20  1  0
 20 21  2  0
 20 22  1  0
M  END
$$$$
