KNG.pdb
     RDKit          3D

 22 21  0  0  1  0  0  0  0  0999 V2000
    7.7658  -12.4211   18.8526 N   0  0  0  0  0  0  0  0  0  0  0  0
    8.1754  -13.7852   19.0191 C   0  0  1  0  0  0  0  0  0  0  0  0
    9.0112  -14.3568   17.9348 C   0  0  0  0  0  0  0  0  0  0  0  0
    8.1979  -14.9430   16.8290 C   0  0  0  0  0  0  0  0  0  0  0  0
    8.9458  -15.5406   15.6922 C   0  0  0  0  0  0  0  0  0  0  0  0
    7.9737  -16.1122   14.6695 C   0  0  0  0  0  0  0  0  0  0  0  0
    8.7348  -16.5253   13.5295 N   0  0  0  0  0  0  0  0  0  0  0  0
    8.9573  -13.9003   20.3021 C   0  0  0  0  0  0  0  0  0  0  0  0
    9.6599  -12.9176   20.6344 O   0  0  0  0  0  0  0  0  0  0  0  0
   11.2773  -15.3947   24.5810 N   0  0  0  0  0  0  0  0  0  0  0  0
    9.8719  -15.7097   24.6815 C   0  0  0  0  0  0  0  0  0  0  0  0
    9.5010  -16.1086   25.8021 O   0  0  0  0  0  0  0  0  0  0  0  0
    9.0200  -15.5460   23.5123 C   0  0  0  0  0  0  0  0  0  0  0  0
    9.7656  -15.0566   22.3217 C   0  0  2  0  0  0  0  0  0  0  0  0
    8.9249  -15.0514   21.1227 N   0  0  0  0  0  0  0  0  0  0  0  0
   11.0164  -15.7423   22.0003 C   0  0  0  0  0  0  0  0  0  0  0  0
   11.0647  -16.8740   21.4953 O   0  0  0  0  0  0  0  0  0  0  0  0
   12.2728  -15.1114   22.2658 N   0  0  0  0  0  0  0  0  0  0  0  0
   13.5052  -15.5735   21.6861 C   0  0  0  0  0  0  0  0  0  0  0  0
   14.1695  -16.5956   22.5251 C   0  0  0  0  0  0  0  0  0  0  0  0
   14.2572  -16.4549   23.7702 O   0  0  0  0  0  0  0  0  0  0  0  0
   14.7250  -17.7515   21.9876 O   0  0  0  0  0  0  0  0  0  0  0  0
  2  1  1  6
  2  3  1  0
  2  8  1  0
  4  3  1  0
  5  4  1  0
  6  5  1  0
  7  6  1  0
  8  9  2  0
 11 13  1  0
 11 10  1  0
 12 11  2  0
 14 13  1  1
 14 16  1  0
 15 14  1  0
 15  8  1  0
 16 17  2  0
 18 19  1  0
 18 16  1  0
 19 20  1  0
 20 21  2  0
 20 22  1  0
M  END
$$$$
