KNG.pdb
     RDKit          3D

 22 21  0  0  1  0  0  0  0  0999 V2000
   10.2056  -18.4050   18.2927 N   0  0  0  0  0  0  0  0  0  0  0  0
    8.9998  -17.7291   18.6741 C   0  0  1  0  0  0  0  0  0  0  0  0
    8.0343  -18.5143   19.4816 C   0  0  0  0  0  0  0  0  0  0  0  0
    8.7047  -19.4217   20.4588 C   0  0  0  0  0  0  0  0  0  0  0  0
    8.2429  -20.8342   20.4867 C   0  0  0  0  0  0  0  0  0  0  0  0
    9.0778  -21.6379   21.4737 C   0  0  0  0  0  0  0  0  0  0  0  0
    8.5444  -22.9659   21.5143 N   0  0  0  0  0  0  0  0  0  0  0  0
    9.3658  -16.5038   19.4712 C   0  0  0  0  0  0  0  0  0  0  0  0
   10.4851  -15.9877   19.2463 O   0  0  0  0  0  0  0  0  0  0  0  0
    6.3737  -13.1045   18.8152 N   0  0  0  0  0  0  0  0  0  0  0  0
    7.6614  -13.1181   19.4682 C   0  0  0  0  0  0  0  0  0  0  0  0
    8.6018  -12.6678   18.7862 O   0  0  0  0  0  0  0  0  0  0  0  0
    7.7666  -13.6371   20.8243 C   0  0  0  0  0  0  0  0  0  0  0  0
    8.8725  -14.6197   20.9799 C   0  0  2  0  0  0  0  0  0  0  0  0
    8.5092  -15.9315   20.4400 N   0  0  0  0  0  0  0  0  0  0  0  0
    9.3985  -14.8107   22.3308 C   0  0  0  0  0  0  0  0  0  0  0  0
    9.2562  -13.9823   23.2426 O   0  0  0  0  0  0  0  0  0  0  0  0
   10.1211  -16.0006   22.6610 N   0  0  0  0  0  0  0  0  0  0  0  0
   10.6929  -16.2189   23.9625 C   0  0  0  0  0  0  0  0  0  0  0  0
   11.2919  -17.5660   24.0916 C   0  0  0  0  0  0  0  0  0  0  0  0
   11.8213  -17.9394   25.1678 O   0  0  0  0  0  0  0  0  0  0  0  0
   11.3006  -18.4789   23.0427 O   0  0  0  0  0  0  0  0  0  0  0  0
  2  1  1  1
  2  3  1  0
  2  8  1  0
  4  3  1  0
  5  4  1  0
  6  5  1  0
  7  6  1  0
  8  9  2  0
 11 13  1  0
 11 10  1  0
 12 11  2  0
 14 13  1  1
 14 16  1  0
 15 14  1  0
 15  8  1  0
 16 17  2  0
 18 19  1  0
 18 16  1  0
 19 20  1  0
 20 21  2  0
 20 22  1  0
M  END
$$$$
