KNG.pdb
     RDKit          3D

 22 21  0  0  1  0  0  0  0  0999 V2000
    6.9424  -15.6281   21.5596 N   0  0  0  0  0  0  0  0  0  0  0  0
    8.0063  -14.6682   21.6137 C   0  0  1  0  0  0  0  0  0  0  0  0
    7.7474  -13.3635   20.9568 C   0  0  0  0  0  0  0  0  0  0  0  0
    7.2967  -13.5106   19.5415 C   0  0  0  0  0  0  0  0  0  0  0  0
    8.3299  -13.3333   18.4880 C   0  0  0  0  0  0  0  0  0  0  0  0
    7.7246  -13.5854   17.1141 C   0  0  0  0  0  0  0  0  0  0  0  0
    8.7885  -13.5496   16.1568 N   0  0  0  0  0  0  0  0  0  0  0  0
    8.3321  -14.3910   23.0585 C   0  0  0  0  0  0  0  0  0  0  0  0
    9.1722  -13.4915   23.2936 O   0  0  0  0  0  0  0  0  0  0  0  0
    5.0507  -13.0675   25.9374 N   0  0  0  0  0  0  0  0  0  0  0  0
    6.4717  -13.1790   26.1671 C   0  0  0  0  0  0  0  0  0  0  0  0
    7.0943  -12.1000   26.1464 O   0  0  0  0  0  0  0  0  0  0  0  0
    7.0548  -14.4930   26.3975 C   0  0  0  0  0  0  0  0  0  0  0  0
    8.1942  -14.7842   25.4866 C   0  0  2  0  0  0  0  0  0  0  0  0
    7.7361  -15.0942   24.1308 N   0  0  0  0  0  0  0  0  0  0  0  0
    9.1219  -15.8334   25.9071 C   0  0  0  0  0  0  0  0  0  0  0  0
    9.5507  -15.9417   27.0657 O   0  0  0  0  0  0  0  0  0  0  0  0
    9.5845  -16.8060   24.9653 N   0  0  0  0  0  0  0  0  0  0  0  0
   10.4938  -17.8593   25.3288 C   0  0  0  0  0  0  0  0  0  0  0  0
   11.8994  -17.5176   25.0165 C   0  0  0  0  0  0  0  0  0  0  0  0
   12.5894  -16.8267   25.8067 O   0  0  0  0  0  0  0  0  0  0  0  0
   12.5238  -17.9374   23.8471 O   0  0  0  0  0  0  0  0  0  0  0  0
  2  1  1  1
  2  3  1  0
  2  8  1  0
  4  3  1  0
  5  4  1  0
  6  5  1  0
  7  6  1  0
  8  9  2  0
 11 13  1  0
 11 10  1  0
 12 11  2  0
 14 13  1  1
 14 16  1  0
 15 14  1  0
 15  8  1  0
 16 17  2  0
 18 19  1  0
 18 16  1  0
 19 20  1  0
 20 21  2  0
 20 22  1  0
M  END
$$$$
