KNG.pdb
     RDKit          3D

 22 21  0  0  1  0  0  0  0  0999 V2000
    7.9629  -19.2941   19.7778 N   0  0  0  0  0  0  0  0  0  0  0  0
    8.6043  -18.4170   18.8422 C   0  0  1  0  0  0  0  0  0  0  0  0
    7.8975  -18.1986   17.5562 C   0  0  0  0  0  0  0  0  0  0  0  0
    7.0627  -19.3680   17.1521 C   0  0  0  0  0  0  0  0  0  0  0  0
    6.3443  -19.2616   15.8554 C   0  0  0  0  0  0  0  0  0  0  0  0
    5.4879  -20.4997   15.6288 C   0  0  0  0  0  0  0  0  0  0  0  0
    4.7521  -20.3037   14.4165 N   0  0  0  0  0  0  0  0  0  0  0  0
    8.7878  -17.0700   19.4923 C   0  0  0  0  0  0  0  0  0  0  0  0
    9.4078  -16.1988   18.8392 O   0  0  0  0  0  0  0  0  0  0  0  0
    7.9391  -12.0728   21.1833 N   0  0  0  0  0  0  0  0  0  0  0  0
    7.7020  -13.2644   21.9633 C   0  0  0  0  0  0  0  0  0  0  0  0
    7.7309  -13.0994   23.1979 O   0  0  0  0  0  0  0  0  0  0  0  0
    7.4557  -14.5258   21.2794 C   0  0  0  0  0  0  0  0  0  0  0  0
    8.6197  -15.4500   21.3407 C   0  0  2  0  0  0  0  0  0  0  0  0
    8.2957  -16.7643   20.7823 N   0  0  0  0  0  0  0  0  0  0  0  0
    9.2340  -15.6492   22.6526 C   0  0  0  0  0  0  0  0  0  0  0  0
    8.6987  -16.2943   23.5666 O   0  0  0  0  0  0  0  0  0  0  0  0
   10.5185  -15.0882   22.9394 N   0  0  0  0  0  0  0  0  0  0  0  0
   11.7095  -15.4929   22.2422 C   0  0  0  0  0  0  0  0  0  0  0  0
   12.5388  -16.4206   23.0431 C   0  0  0  0  0  0  0  0  0  0  0  0
   13.1424  -16.0267   24.0719 O   0  0  0  0  0  0  0  0  0  0  0  0
   12.6924  -17.7606   22.7048 O   0  0  0  0  0  0  0  0  0  0  0  0
  2  1  1  1
  2  3  1  0
  2  8  1  0
  4  3  1  0
  5  4  1  0
  6  5  1  0
  7  6  1  0
  8  9  2  0
 11 13  1  0
 11 10  1  0
 12 11  2  0
 14 13  1  1
 14 16  1  0
 15 14  1  0
 15  8  1  0
 16 17  2  0
 18 19  1  0
 18 16  1  0
 19 20  1  0
 20 21  2  0
 20 22  1  0
M  END
$$$$
