KNG.pdb
     RDKit          3D

 22 21  0  0  1  0  0  0  0  0999 V2000
    9.5909  -16.4695   20.6519 N   0  0  0  0  0  0  0  0  0  0  0  0
    9.3037  -15.1812   21.2123 C   0  0  1  0  0  0  0  0  0  0  0  0
    8.2848  -14.3690   20.5030 C   0  0  0  0  0  0  0  0  0  0  0  0
    8.5654  -14.2405   19.0426 C   0  0  0  0  0  0  0  0  0  0  0  0
    7.6368  -13.3885   18.2548 C   0  0  0  0  0  0  0  0  0  0  0  0
    8.1031  -13.3056   16.8081 C   0  0  0  0  0  0  0  0  0  0  0  0
    7.1515  -12.5139   16.0890 N   0  0  0  0  0  0  0  0  0  0  0  0
    8.8276  -15.3675   22.6298 C   0  0  0  0  0  0  0  0  0  0  0  0
    8.4634  -14.3421   23.2509 O   0  0  0  0  0  0  0  0  0  0  0  0
    5.7788  -15.7056   25.3419 N   0  0  0  0  0  0  0  0  0  0  0  0
    6.0600  -17.0161   24.8054 C   0  0  0  0  0  0  0  0  0  0  0  0
    5.1149  -17.5469   24.1909 O   0  0  0  0  0  0  0  0  0  0  0  0
    7.3763  -17.6027   25.0120 C   0  0  0  0  0  0  0  0  0  0  0  0
    8.4823  -16.6582   24.6996 C   0  0  2  0  0  0  0  0  0  0  0  0
    8.7791  -16.6295   23.2660 N   0  0  0  0  0  0  0  0  0  0  0  0
    9.7381  -16.8524   25.4229 C   0  0  0  0  0  0  0  0  0  0  0  0
    9.8186  -16.8648   26.6604 O   0  0  0  0  0  0  0  0  0  0  0  0
   10.9613  -17.0413   24.7052 N   0  0  0  0  0  0  0  0  0  0  0  0
   12.2270  -17.2044   25.3685 C   0  0  0  0  0  0  0  0  0  0  0  0
   12.5419  -18.6264   25.6310 C   0  0  0  0  0  0  0  0  0  0  0  0
   11.7414  -19.5382   25.3060 O   0  0  0  0  0  0  0  0  0  0  0  0
   13.7252  -19.0245   26.2433 O   0  0  0  0  0  0  0  0  0  0  0  0
  2  1  1  6
  2  3  1  0
  2  8  1  0
  4  3  1  0
  5  4  1  0
  6  5  1  0
  7  6  1  0
  8  9  2  0
 11 13  1  0
 11 10  1  0
 12 11  2  0
 14 13  1  6
 14 16  1  0
 15 14  1  0
 15  8  1  0
 16 17  2  0
 18 19  1  0
 18 16  1  0
 19 20  1  0
 20 21  2  0
 20 22  1  0
M  END
$$$$
