LHN.pdb
     RDKit          3D

 27 27  0  0  1  0  0  0  0  0999 V2000
   28.1925  -21.0482  -11.1489 C   0  0  0  0  0  0  0  0  0  0  0  0
   26.6982  -21.1895  -11.1950 C   0  0  1  0  0  0  0  0  0  0  0  0
   26.0541  -21.1539   -9.8364 C   0  0  0  0  0  0  0  0  0  0  0  0
   26.1202  -20.1744  -12.1501 C   0  0  0  0  0  0  0  0  0  0  0  0
   24.6295  -20.3556  -12.3276 C   0  0  2  0  0  0  0  0  0  0  0  0
   24.2488  -21.7277  -12.1985 N   0  0  0  0  0  0  0  0  0  0  0  0
   24.2804  -19.8038  -13.6767 C   0  0  0  0  0  0  0  0  0  0  0  0
   24.4619  -18.5682  -13.8446 O   0  0  0  0  0  0  0  0  0  0  0  0
   23.7716  -20.6328  -14.7098 N   0  0  0  0  0  0  0  0  0  0  0  0
   23.6251  -20.0919  -16.0870 C   0  0  1  0  0  0  0  0  0  0  0  0
   24.7099  -20.7438  -16.8640 C   0  0  0  0  0  0  0  0  0  0  0  0
   26.0733  -20.2652  -16.5851 C   0  0  0  0  0  0  0  0  0  0  0  0
   26.5013  -19.2203  -15.8003 C   0  0  0  0  0  0  0  0  0  0  0  0
   27.8354  -19.1174  -15.8487 N   0  0  0  0  0  0  0  0  0  0  0  0
   28.2922  -20.0858  -16.6591 C   0  0  0  0  0  0  0  0  0  0  0  0
   27.2310  -20.7779  -17.1033 N   0  0  0  0  0  0  0  0  0  0  0  0
   22.2434  -20.4393  -16.4806 C   0  0  0  0  0  0  0  0  0  0  0  0
   21.8417  -20.2644  -17.6921 O   0  0  0  0  0  0  0  0  0  0  0  0
   19.1943  -23.6525  -15.2040 N   0  0  0  0  0  0  0  0  0  0  0  0
   18.7887  -22.5531  -14.4124 C   0  0  0  0  0  0  0  0  0  0  0  0
   18.1520  -22.7886  -13.3184 O   0  0  0  0  0  0  0  0  0  0  0  0
   19.0251  -21.1483  -14.7121 C   0  0  0  0  0  0  0  0  0  0  0  0
   19.8358  -20.9333  -15.9751 C   0  0  2  0  0  0  0  0  0  0  0  0
   21.2550  -20.9839  -15.6117 N   0  0  0  0  0  0  0  0  0  0  0  0
   19.4895  -19.6405  -16.5806 C   0  0  0  0  0  0  0  0  0  0  0  0
   18.9707  -19.5083  -17.8794 O   0  0  0  0  0  0  0  0  0  0  0  0
   19.6452  -18.5734  -15.9523 O   0  0  0  0  0  0  0  0  0  0  0  0
  2  1  1  1
  2  3  1  0
  4  2  1  0
  5  4  1  0
  5  6  1  6
  7  8  2  0
  7  5  1  0
  9  7  1  0
 10  9  1  0
 11 12  1  0
 10 11  1  6
 12 16  1  0
 13 14  1  0
 13 12  2  0
 14 15  1  0
 15 16  2  0
 17 10  1  0
 17 18  2  0
 20 19  1  0
 21 20  2  0
 23 22  1  1
 22 20  1  0
 23 24  1  0
 24 17  1  0
 25 23  1  0
 26 25  1  0
 27 25  2  0
M  END
$$$$
