LHN.pdb
     RDKit          3D

 27 27  0  0  1  0  0  0  0  0999 V2000
   27.9311  -16.0642  -16.6893 C   0  0  0  0  0  0  0  0  0  0  0  0
   26.4523  -15.9467  -16.4556 C   0  0  1  0  0  0  0  0  0  0  0  0
   25.7996  -17.2539  -16.0993 C   0  0  0  0  0  0  0  0  0  0  0  0
   26.1813  -14.8565  -15.4482 C   0  0  0  0  0  0  0  0  0  0  0  0
   24.7024  -14.5716  -15.3134 C   0  0  2  0  0  0  0  0  0  0  0  0
   23.9157  -15.7252  -15.6208 N   0  0  0  0  0  0  0  0  0  0  0  0
   24.3937  -13.4251  -16.2283 C   0  0  0  0  0  0  0  0  0  0  0  0
   25.1026  -12.3918  -16.0963 O   0  0  0  0  0  0  0  0  0  0  0  0
   23.3556  -13.5025  -17.1926 N   0  0  0  0  0  0  0  0  0  0  0  0
   23.0457  -12.3218  -18.0414 C   0  0  1  0  0  0  0  0  0  0  0  0
   22.3697  -12.8861  -19.2373 C   0  0  0  0  0  0  0  0  0  0  0  0
   21.8400  -11.9033  -20.1962 C   0  0  0  0  0  0  0  0  0  0  0  0
   21.8521  -10.5289  -20.1527 C   0  0  0  0  0  0  0  0  0  0  0  0
   21.2313  -10.0234  -21.2259 N   0  0  0  0  0  0  0  0  0  0  0  0
   20.8092  -11.0527  -21.9781 C   0  0  0  0  0  0  0  0  0  0  0  0
   21.1755  -12.1858  -21.3582 N   0  0  0  0  0  0  0  0  0  0  0  0
   22.2220  -11.4474  -17.1802 C   0  0  0  0  0  0  0  0  0  0  0  0
   21.2546  -11.9346  -16.4829 O   0  0  0  0  0  0  0  0  0  0  0  0
   20.2696   -7.5642  -14.1667 N   0  0  0  0  0  0  0  0  0  0  0  0
   21.3298   -8.4395  -13.8353 C   0  0  0  0  0  0  0  0  0  0  0  0
   21.6851   -8.5305  -12.6011 O   0  0  0  0  0  0  0  0  0  0  0  0
   22.0772   -9.2710  -14.7675 C   0  0  0  0  0  0  0  0  0  0  0  0
   21.5000   -9.2672  -16.1695 C   0  0  2  0  0  0  0  0  0  0  0  0
   22.4005  -10.0426  -17.0278 N   0  0  0  0  0  0  0  0  0  0  0  0
   21.3644   -7.8870  -16.6534 C   0  0  0  0  0  0  0  0  0  0  0  0
   20.2322   -7.0906  -16.4140 O   0  0  0  0  0  0  0  0  0  0  0  0
   22.2725   -7.3456  -17.3168 O   0  0  0  0  0  0  0  0  0  0  0  0
  2  1  1  1
  2  3  1  0
  4  2  1  0
  5  4  1  0
  5  6  1  6
  7  8  2  0
  7  5  1  0
  9  7  1  0
 10  9  1  0
 11 12  1  0
 10 11  1  6
 12 16  1  0
 13 14  1  0
 13 12  2  0
 14 15  1  0
 15 16  2  0
 17 10  1  0
 17 18  2  0
 20 19  1  0
 21 20  2  0
 23 22  1  1
 22 20  1  0
 23 24  1  0
 24 17  1  0
 25 23  1  0
 26 25  1  0
 27 25  2  0
M  END
$$$$
