LHN.pdb
     RDKit          3D

 27 27  0  0  1  0  0  0  0  0999 V2000
   12.8692  -13.5082  -18.0048 C   0  0  0  0  0  0  0  0  0  0  0  0
   13.8869  -12.7385  -18.7967 C   0  0  1  0  0  0  0  0  0  0  0  0
   13.2752  -11.7758  -19.7769 C   0  0  0  0  0  0  0  0  0  0  0  0
   14.8711  -12.0828  -17.8597 C   0  0  0  0  0  0  0  0  0  0  0  0
   15.8669  -11.2220  -18.6040 C   0  0  2  0  0  0  0  0  0  0  0  0
   16.5937  -11.9802  -19.5742 N   0  0  0  0  0  0  0  0  0  0  0  0
   16.7735  -10.6153  -17.5760 C   0  0  0  0  0  0  0  0  0  0  0  0
   16.2194   -9.9702  -16.6462 O   0  0  0  0  0  0  0  0  0  0  0  0
   18.1830  -10.7616  -17.6492 N   0  0  0  0  0  0  0  0  0  0  0  0
   19.0477  -10.1073  -16.6320 C   0  0  1  0  0  0  0  0  0  0  0  0
   20.1864  -11.0430  -16.4491 C   0  0  0  0  0  0  0  0  0  0  0  0
   21.2958  -10.5464  -15.6194 C   0  0  0  0  0  0  0  0  0  0  0  0
   21.4782   -9.3183  -15.0283 C   0  0  0  0  0  0  0  0  0  0  0  0
   22.6496   -9.2821  -14.3809 N   0  0  0  0  0  0  0  0  0  0  0  0
   23.2427  -10.4765  -14.5395 C   0  0  0  0  0  0  0  0  0  0  0  0
   22.4276  -11.2388  -15.2857 N   0  0  0  0  0  0  0  0  0  0  0  0
   19.3761   -8.7882  -17.2122 C   0  0  0  0  0  0  0  0  0  0  0  0
   19.4183   -8.6241  -18.4892 O   0  0  0  0  0  0  0  0  0  0  0  0
   20.3240   -3.7920  -18.4325 N   0  0  0  0  0  0  0  0  0  0  0  0
   19.0542   -4.3772  -18.2201 C   0  0  0  0  0  0  0  0  0  0  0  0
   18.0088   -3.7202  -18.5854 O   0  0  0  0  0  0  0  0  0  0  0  0
   18.8005   -5.6788  -17.6196 C   0  0  0  0  0  0  0  0  0  0  0  0
   20.0605   -6.3751  -17.1440 C   0  0  2  0  0  0  0  0  0  0  0  0
   19.6612   -7.6105  -16.4636 N   0  0  0  0  0  0  0  0  0  0  0  0
   20.8125   -5.4926  -16.2422 C   0  0  0  0  0  0  0  0  0  0  0  0
   21.9156   -4.7254  -16.6521 O   0  0  0  0  0  0  0  0  0  0  0  0
   20.4975   -5.3822  -15.0395 O   0  0  0  0  0  0  0  0  0  0  0  0
  2  1  1  1
  2  3  1  0
  4  2  1  0
  5  4  1  0
  5  6  1  6
  7  8  2  0
  7  5  1  0
  9  7  1  0
 10  9  1  0
 11 12  1  0
 10 11  1  6
 12 16  1  0
 13 14  1  0
 13 12  2  0
 14 15  1  0
 15 16  2  0
 17 10  1  0
 17 18  2  0
 20 19  1  0
 21 20  2  0
 23 22  1  1
 22 20  1  0
 23 24  1  0
 24 17  1  0
 25 23  1  0
 26 25  1  0
 27 25  2  0
M  END
$$$$
