LHN.pdb
     RDKit          3D

 27 27  0  0  1  0  0  0  0  0999 V2000
   13.2040   -9.9002  -16.3964 C   0  0  0  0  0  0  0  0  0  0  0  0
   14.3230  -10.8957  -16.5062 C   0  0  1  0  0  0  0  0  0  0  0  0
   14.7256  -11.1852  -17.9260 C   0  0  0  0  0  0  0  0  0  0  0  0
   15.4793  -10.4591  -15.6409 C   0  0  0  0  0  0  0  0  0  0  0  0
   16.6487  -11.4122  -15.7437 C   0  0  2  0  0  0  0  0  0  0  0  0
   16.4365  -12.5893  -14.9603 N   0  0  0  0  0  0  0  0  0  0  0  0
   17.8663  -10.6585  -15.3008 C   0  0  0  0  0  0  0  0  0  0  0  0
   17.9790  -10.4463  -14.0639 O   0  0  0  0  0  0  0  0  0  0  0  0
   18.8401  -10.2082  -16.2294 N   0  0  0  0  0  0  0  0  0  0  0  0
   20.0483   -9.4905  -15.7438 C   0  0  1  0  0  0  0  0  0  0  0  0
   21.1904  -10.3054  -16.2307 C   0  0  0  0  0  0  0  0  0  0  0  0
   22.5270   -9.7306  -16.0093 C   0  0  0  0  0  0  0  0  0  0  0  0
   22.8939   -8.5482  -15.4109 C   0  0  0  0  0  0  0  0  0  0  0  0
   24.2243   -8.4013  -15.4462 N   0  0  0  0  0  0  0  0  0  0  0  0
   24.7392   -9.4773  -16.0632 C   0  0  0  0  0  0  0  0  0  0  0  0
   23.7171  -10.2787  -16.4029 N   0  0  0  0  0  0  0  0  0  0  0  0
   19.9299   -8.1311  -16.3118 C   0  0  0  0  0  0  0  0  0  0  0  0
   19.5945   -7.9606  -17.5438 O   0  0  0  0  0  0  0  0  0  0  0  0
   19.7495   -2.8669  -17.1166 N   0  0  0  0  0  0  0  0  0  0  0  0
   19.6600   -3.2256  -15.7516 C   0  0  0  0  0  0  0  0  0  0  0  0
   19.4151   -2.3002  -14.8905 O   0  0  0  0  0  0  0  0  0  0  0  0
   19.8167   -4.5662  -15.2063 C   0  0  0  0  0  0  0  0  0  0  0  0
   20.0334   -5.6244  -16.2702 C   0  0  2  0  0  0  0  0  0  0  0  0
   20.1550   -6.9204  -15.5962 N   0  0  0  0  0  0  0  0  0  0  0  0
   21.2409   -5.3157  -17.0474 C   0  0  0  0  0  0  0  0  0  0  0  0
   21.2099   -4.8108  -18.3580 O   0  0  0  0  0  0  0  0  0  0  0  0
   22.3787   -5.4934  -16.5662 O   0  0  0  0  0  0  0  0  0  0  0  0
  2  1  1  6
  2  3  1  0
  4  2  1  0
  5  4  1  0
  5  6  1  1
  7  8  2  0
  7  5  1  0
  9  7  1  0
 10  9  1  0
 11 12  1  0
 10 11  1  6
 12 16  1  0
 13 14  1  0
 13 12  2  0
 14 15  1  0
 15 16  2  0
 17 10  1  0
 17 18  2  0
 20 19  1  0
 21 20  2  0
 23 22  1  1
 22 20  1  0
 23 24  1  0
 24 17  1  0
 25 23  1  0
 26 25  1  0
 27 25  2  0
M  END
$$$$
