LHN.pdb
     RDKit          3D

 27 27  0  0  1  0  0  0  0  0999 V2000
   17.7000  -14.8730  -18.2735 C   0  0  0  0  0  0  0  0  0  0  0  0
   18.0787  -14.1788  -16.9968 C   0  0  1  0  0  0  0  0  0  0  0  0
   19.4552  -14.5379  -16.5089 C   0  0  0  0  0  0  0  0  0  0  0  0
   17.8735  -12.6915  -17.1460 C   0  0  0  0  0  0  0  0  0  0  0  0
   18.2949  -11.9391  -15.9039 C   0  0  2  0  0  0  0  0  0  0  0  0
   17.4977  -12.3031  -14.7743 N   0  0  0  0  0  0  0  0  0  0  0  0
   18.1824  -10.4781  -16.2194 C   0  0  0  0  0  0  0  0  0  0  0  0
   18.8029  -10.0719  -17.2381 O   0  0  0  0  0  0  0  0  0  0  0  0
   17.4158   -9.6000  -15.4103 N   0  0  0  0  0  0  0  0  0  0  0  0
   17.2402   -8.1816  -15.8198 C   0  0  1  0  0  0  0  0  0  0  0  0
   15.8149   -7.8808  -15.5305 C   0  0  0  0  0  0  0  0  0  0  0  0
   14.8689   -8.1517  -16.6249 C   0  0  0  0  0  0  0  0  0  0  0  0
   15.0996   -8.6058  -17.9022 C   0  0  0  0  0  0  0  0  0  0  0  0
   13.9494   -8.6858  -18.5830 N   0  0  0  0  0  0  0  0  0  0  0  0
   12.9607   -8.2883  -17.7657 C   0  0  0  0  0  0  0  0  0  0  0  0
   13.5140   -7.9663  -16.5856 N   0  0  0  0  0  0  0  0  0  0  0  0
   18.2373   -7.4357  -15.0235 C   0  0  0  0  0  0  0  0  0  0  0  0
   18.3064   -7.5893  -13.7464 O   0  0  0  0  0  0  0  0  0  0  0  0
   22.2582   -4.3035  -13.4230 N   0  0  0  0  0  0  0  0  0  0  0  0
   22.5165   -5.2841  -14.4088 C   0  0  0  0  0  0  0  0  0  0  0  0
   23.7419   -5.5461  -14.7048 O   0  0  0  0  0  0  0  0  0  0  0  0
   21.5161   -6.0489  -15.1390 C   0  0  0  0  0  0  0  0  0  0  0  0
   20.1002   -5.7944  -14.6603 C   0  0  2  0  0  0  0  0  0  0  0  0
   19.1881   -6.5164  -15.5522 N   0  0  0  0  0  0  0  0  0  0  0  0
   19.8185   -4.3528  -14.6683 C   0  0  0  0  0  0  0  0  0  0  0  0
   20.0557   -3.5117  -13.5684 O   0  0  0  0  0  0  0  0  0  0  0  0
   19.3427   -3.7957  -15.6788 O   0  0  0  0  0  0  0  0  0  0  0  0
  2  1  1  6
  2  3  1  0
  4  2  1  0
  5  4  1  0
  5  6  1  1
  7  8  2  0
  7  5  1  0
  9  7  1  0
 10  9  1  0
 11 12  1  0
 10 11  1  1
 12 16  1  0
 13 14  1  0
 13 12  2  0
 14 15  1  0
 15 16  2  0
 17 10  1  0
 17 18  2  0
 20 19  1  0
 21 20  2  0
 23 22  1  6
 22 20  1  0
 23 24  1  0
 24 17  1  0
 25 23  1  0
 26 25  1  0
 27 25  2  0
M  END
$$$$
