LHN.pdb
     RDKit          3D

 27 27  0  0  1  0  0  0  0  0999 V2000
   18.2961  -16.6616  -16.9654 C   0  0  0  0  0  0  0  0  0  0  0  0
   17.4350  -15.8275  -16.0610 C   0  0  1  0  0  0  0  0  0  0  0  0
   17.1062  -16.5053  -14.7594 C   0  0  0  0  0  0  0  0  0  0  0  0
   18.0589  -14.4660  -15.8776 C   0  0  0  0  0  0  0  0  0  0  0  0
   17.2494  -13.5992  -14.9396 C   0  0  2  0  0  0  0  0  0  0  0  0
   15.8784  -13.5317  -15.3394 N   0  0  0  0  0  0  0  0  0  0  0  0
   17.8952  -12.2466  -14.9288 C   0  0  0  0  0  0  0  0  0  0  0  0
   19.1253  -12.2112  -14.6578 O   0  0  0  0  0  0  0  0  0  0  0  0
   17.1564  -11.0681  -15.2095 N   0  0  0  0  0  0  0  0  0  0  0  0
   17.8535   -9.7565  -15.2743 C   0  0  1  0  0  0  0  0  0  0  0  0
   17.6352   -9.2833  -16.6650 C   0  0  0  0  0  0  0  0  0  0  0  0
   18.5290   -9.8568  -17.6838 C   0  0  0  0  0  0  0  0  0  0  0  0
   18.3078  -10.8715  -18.5852 C   0  0  0  0  0  0  0  0  0  0  0  0
   19.4081  -11.0947  -19.3147 N   0  0  0  0  0  0  0  0  0  0  0  0
   20.3545  -10.2356  -18.9025 C   0  0  0  0  0  0  0  0  0  0  0  0
   19.8255   -9.4894  -17.9198 N   0  0  0  0  0  0  0  0  0  0  0  0
   17.2296   -8.9475  -14.2061 C   0  0  0  0  0  0  0  0  0  0  0  0
   15.9742   -9.0643  -13.9418 O   0  0  0  0  0  0  0  0  0  0  0  0
   15.9955   -5.6691  -10.2575 N   0  0  0  0  0  0  0  0  0  0  0  0
   16.8655   -6.7607  -10.0309 C   0  0  0  0  0  0  0  0  0  0  0  0
   17.1770   -7.0529   -8.8162 O   0  0  0  0  0  0  0  0  0  0  0  0
   17.4574   -7.6109  -11.0535 C   0  0  0  0  0  0  0  0  0  0  0  0
   17.1661   -7.1415  -12.4654 C   0  0  2  0  0  0  0  0  0  0  0  0
   17.9121   -8.0026  -13.3877 N   0  0  0  0  0  0  0  0  0  0  0  0
   17.5594   -5.7345  -12.6184 C   0  0  0  0  0  0  0  0  0  0  0  0
   18.6309   -5.3136  -13.4235 O   0  0  0  0  0  0  0  0  0  0  0  0
   16.9437   -4.8260  -12.0241 O   0  0  0  0  0  0  0  0  0  0  0  0
  2  1  1  1
  2  3  1  0
  4  2  1  0
  5  4  1  0
  5  6  1  6
  7  8  2  0
  7  5  1  0
  9  7  1  0
 10  9  1  0
 11 12  1  0
 10 11  1  6
 12 16  1  0
 13 14  1  0
 13 12  2  0
 14 15  1  0
 15 16  2  0
 17 10  1  0
 17 18  2  0
 20 19  1  0
 21 20  2  0
 23 22  1  1
 22 20  1  0
 23 24  1  0
 24 17  1  0
 25 23  1  0
 26 25  1  0
 27 25  2  0
M  END
$$$$
