LHN.pdb
     RDKit          3D

 27 27  0  0  1  0  0  0  0  0999 V2000
   18.0659  -17.9593   15.0875 C   0  0  0  0  0  0  0  0  0  0  0  0
   18.1714  -16.9850   13.9496 C   0  0  1  0  0  0  0  0  0  0  0  0
   18.3498  -15.5610   14.3991 C   0  0  0  0  0  0  0  0  0  0  0  0
   19.2412  -17.4399   12.9877 C   0  0  0  0  0  0  0  0  0  0  0  0
   19.4673  -16.4331   11.8824 C   0  0  2  0  0  0  0  0  0  0  0  0
   18.4214  -16.4793   10.9087 N   0  0  0  0  0  0  0  0  0  0  0  0
   20.8051  -16.7395   11.2800 C   0  0  0  0  0  0  0  0  0  0  0  0
   20.8615  -17.7340   10.5083 O   0  0  0  0  0  0  0  0  0  0  0  0
   21.9478  -15.9484   11.5661 N   0  0  0  0  0  0  0  0  0  0  0  0
   23.2413  -16.2490   10.8975 C   0  0  1  0  0  0  0  0  0  0  0  0
   23.8142  -14.9180   10.5721 C   0  0  0  0  0  0  0  0  0  0  0  0
   23.3578  -14.3163    9.3090 C   0  0  0  0  0  0  0  0  0  0  0  0
   22.4851  -14.7998    8.3627 C   0  0  0  0  0  0  0  0  0  0  0  0
   22.3727  -13.9345    7.3472 N   0  0  0  0  0  0  0  0  0  0  0  0
   23.1641  -12.8831    7.6150 C   0  0  0  0  0  0  0  0  0  0  0  0
   23.7581  -13.1124    8.7969 N   0  0  0  0  0  0  0  0  0  0  0  0
   23.9920  -17.0580   11.8806 C   0  0  0  0  0  0  0  0  0  0  0  0
   23.8633  -16.8424   13.1441 O   0  0  0  0  0  0  0  0  0  0  0  0
   25.5519  -21.5549   14.6490 N   0  0  0  0  0  0  0  0  0  0  0  0
   25.9779  -21.2014   13.3476 C   0  0  0  0  0  0  0  0  0  0  0  0
   27.0942  -21.6785   12.9185 O   0  0  0  0  0  0  0  0  0  0  0  0
   25.2662  -20.3351   12.4191 C   0  0  0  0  0  0  0  0  0  0  0  0
   25.5700  -18.8634   12.6199 C   0  0  2  0  0  0  0  0  0  0  0  0
   24.8898  -18.1156   11.5583 N   0  0  0  0  0  0  0  0  0  0  0  0
   27.0212  -18.6397   12.5794 C   0  0  0  0  0  0  0  0  0  0  0  0
   27.6567  -17.8572   11.6010 O   0  0  0  0  0  0  0  0  0  0  0  0
   27.7747  -19.1485   13.4344 O   0  0  0  0  0  0  0  0  0  0  0  0
  2  1  1  1
  2  3  1  0
  4  2  1  0
  5  4  1  0
  5  6  1  6
  7  8  2  0
  7  5  1  0
  9  7  1  0
 10  9  1  0
 11 12  1  0
 10 11  1  1
 12 16  1  0
 13 14  1  0
 13 12  2  0
 14 15  1  0
 15 16  2  0
 17 10  1  0
 17 18  2  0
 20 19  1  0
 21 20  2  0
 23 22  1  6
 22 20  1  0
 23 24  1  0
 24 17  1  0
 25 23  1  0
 26 25  1  0
 27 25  2  0
M  END
$$$$
