LHN.pdb
     RDKit          3D

 27 27  0  0  1  0  0  0  0  0999 V2000
   22.1844  -13.0198  -21.4649 C   0  0  0  0  0  0  0  0  0  0  0  0
   22.9355  -12.2257  -20.4351 C   0  0  1  0  0  0  0  0  0  0  0  0
   24.0052  -11.3475  -21.0236 C   0  0  0  0  0  0  0  0  0  0  0  0
   21.9615  -11.4693  -19.5658 C   0  0  0  0  0  0  0  0  0  0  0  0
   22.6709  -10.6236  -18.5324 C   0  0  2  0  0  0  0  0  0  0  0  0
   23.5006  -11.4198  -17.6827 N   0  0  0  0  0  0  0  0  0  0  0  0
   21.6108   -9.8996  -17.7587 C   0  0  0  0  0  0  0  0  0  0  0  0
   20.8228   -9.1755  -18.4238 O   0  0  0  0  0  0  0  0  0  0  0  0
   21.5029  -10.0251  -16.3494 N   0  0  0  0  0  0  0  0  0  0  0  0
   20.4140   -9.3175  -15.6255 C   0  0  1  0  0  0  0  0  0  0  0  0
   19.8645  -10.3312  -14.6895 C   0  0  0  0  0  0  0  0  0  0  0  0
   18.7111  -11.1000  -15.1839 C   0  0  0  0  0  0  0  0  0  0  0  0
   18.0026  -10.9775  -16.3560 C   0  0  0  0  0  0  0  0  0  0  0  0
   17.0033  -11.8680  -16.3916 N   0  0  0  0  0  0  0  0  0  0  0  0
   17.0461  -12.5779  -15.2525 C   0  0  0  0  0  0  0  0  0  0  0  0
   18.0748  -12.1157  -14.5242 N   0  0  0  0  0  0  0  0  0  0  0  0
   21.0740   -8.1493  -15.0054 C   0  0  0  0  0  0  0  0  0  0  0  0
   22.2921   -8.2250  -14.5932 O   0  0  0  0  0  0  0  0  0  0  0  0
   24.4178   -4.0618  -15.8054 N   0  0  0  0  0  0  0  0  0  0  0  0
   23.1254   -4.2967  -15.2815 C   0  0  0  0  0  0  0  0  0  0  0  0
   22.5932   -3.3912  -14.5367 O   0  0  0  0  0  0  0  0  0  0  0  0
   22.3134   -5.4840  -15.5049 C   0  0  0  0  0  0  0  0  0  0  0  0
   21.2835   -5.7191  -14.4173 C   0  0  2  0  0  0  0  0  0  0  0  0
   20.4708   -6.8739  -14.8105 N   0  0  0  0  0  0  0  0  0  0  0  0
   20.4525   -4.5203  -14.2446 C   0  0  0  0  0  0  0  0  0  0  0  0
   19.4323   -4.1506  -15.1368 O   0  0  0  0  0  0  0  0  0  0  0  0
   20.6201   -3.7558  -13.2723 O   0  0  0  0  0  0  0  0  0  0  0  0
  2  1  1  6
  2  3  1  0
  4  2  1  0
  5  4  1  0
  5  6  1  1
  7  8  2  0
  7  5  1  0
  9  7  1  0
 10  9  1  0
 11 12  1  0
 10 11  1  1
 12 16  1  0
 13 14  1  0
 13 12  2  0
 14 15  1  0
 15 16  2  0
 17 10  1  0
 17 18  2  0
 20 19  1  0
 21 20  2  0
 23 22  1  6
 22 20  1  0
 23 24  1  0
 24 17  1  0
 25 23  1  0
 26 25  1  0
 27 25  2  0
M  END
$$$$
