LHN.pdb
     RDKit          3D

 27 27  0  0  1  0  0  0  0  0999 V2000
   18.3870  -14.7588  -16.0093 C   0  0  0  0  0  0  0  0  0  0  0  0
   18.9094  -13.3758  -16.2731 C   0  0  1  0  0  0  0  0  0  0  0  0
   18.9241  -13.0127  -17.7324 C   0  0  0  0  0  0  0  0  0  0  0  0
   18.1614  -12.3785  -15.4231 C   0  0  0  0  0  0  0  0  0  0  0  0
   18.6073  -10.9601  -15.6983 C   0  0  2  0  0  0  0  0  0  0  0  0
   19.9616  -10.7478  -15.2922 N   0  0  0  0  0  0  0  0  0  0  0  0
   17.6581  -10.0555  -14.9720 C   0  0  0  0  0  0  0  0  0  0  0  0
   16.4336  -10.1962  -15.2337 O   0  0  0  0  0  0  0  0  0  0  0  0
   18.1181   -9.0911  -14.0384 N   0  0  0  0  0  0  0  0  0  0  0  0
   17.1400   -8.2301  -13.3225 C   0  0  1  0  0  0  0  0  0  0  0  0
   17.3826   -8.5027  -11.8830 C   0  0  0  0  0  0  0  0  0  0  0  0
   16.5433   -7.7481  -10.9385 C   0  0  0  0  0  0  0  0  0  0  0  0
   15.5233   -6.8574  -11.1774 C   0  0  0  0  0  0  0  0  0  0  0  0
   15.0445   -6.3768  -10.0230 N   0  0  0  0  0  0  0  0  0  0  0  0
   15.7400   -6.9429   -9.0234 C   0  0  0  0  0  0  0  0  0  0  0  0
   16.6434   -7.7692   -9.5742 N   0  0  0  0  0  0  0  0  0  0  0  0
   17.4399   -6.8585  -13.7847 C   0  0  0  0  0  0  0  0  0  0  0  0
   18.6557   -6.4374  -13.8476 O   0  0  0  0  0  0  0  0  0  0  0  0
   17.2654   -1.9371  -15.7966 N   0  0  0  0  0  0  0  0  0  0  0  0
   16.2257   -2.7880  -16.2382 C   0  0  0  0  0  0  0  0  0  0  0  0
   15.4316   -2.3582  -17.1561 O   0  0  0  0  0  0  0  0  0  0  0  0
   15.9556   -4.1335  -15.7529 C   0  0  0  0  0  0  0  0  0  0  0  0
   16.8822   -4.5637  -14.6326 C   0  0  2  0  0  0  0  0  0  0  0  0
   16.4694   -5.9011  -14.1971 N   0  0  0  0  0  0  0  0  0  0  0  0
   16.8130   -3.6009  -13.5255 C   0  0  0  0  0  0  0  0  0  0  0  0
   17.7382   -2.5590  -13.3467 O   0  0  0  0  0  0  0  0  0  0  0  0
   15.9057   -3.6671  -12.6710 O   0  0  0  0  0  0  0  0  0  0  0  0
  2  1  1  6
  2  3  1  0
  4  2  1  0
  5  4  1  0
  5  6  1  1
  7  8  2  0
  7  5  1  0
  9  7  1  0
 10  9  1  0
 11 12  1  0
 10 11  1  1
 12 16  1  0
 13 14  1  0
 13 12  2  0
 14 15  1  0
 15 16  2  0
 17 10  1  0
 17 18  2  0
 20 19  1  0
 21 20  2  0
 23 22  1  6
 22 20  1  0
 23 24  1  0
 24 17  1  0
 25 23  1  0
 26 25  1  0
 27 25  2  0
M  END
$$$$
