LHN.pdb
     RDKit          3D

 27 27  0  0  1  0  0  0  0  0999 V2000
   24.8811  -17.2508  -20.5156 C   0  0  0  0  0  0  0  0  0  0  0  0
   24.1238  -15.9804  -20.7764 C   0  0  1  0  0  0  0  0  0  0  0  0
   22.7419  -16.2120  -21.3226 C   0  0  0  0  0  0  0  0  0  0  0  0
   24.1334  -15.1188  -19.5378 C   0  0  0  0  0  0  0  0  0  0  0  0
   23.3586  -13.8362  -19.7401 C   0  0  2  0  0  0  0  0  0  0  0  0
   23.7750  -13.1531  -20.9252 N   0  0  0  0  0  0  0  0  0  0  0  0
   23.5671  -13.0021  -18.5123 C   0  0  0  0  0  0  0  0  0  0  0  0
   23.1911  -13.5039  -17.4193 O   0  0  0  0  0  0  0  0  0  0  0  0
   24.1577  -11.7137  -18.5806 N   0  0  0  0  0  0  0  0  0  0  0  0
   24.3619  -10.9272  -17.3355 C   0  0  1  0  0  0  0  0  0  0  0  0
   25.8124  -10.6088  -17.3259 C   0  0  0  0  0  0  0  0  0  0  0  0
   26.6993  -11.6788  -16.8418 C   0  0  0  0  0  0  0  0  0  0  0  0
   26.3954  -12.9319  -16.3641 C   0  0  0  0  0  0  0  0  0  0  0  0
   27.5121  -13.5763  -16.0028 N   0  0  0  0  0  0  0  0  0  0  0  0
   28.5513  -12.7589  -16.2381 C   0  0  0  0  0  0  0  0  0  0  0  0
   28.0624  -11.6153  -16.7436 N   0  0  0  0  0  0  0  0  0  0  0  0
   23.4437   -9.7762  -17.4648 C   0  0  0  0  0  0  0  0  0  0  0  0
   23.3263   -9.1520  -18.5856 O   0  0  0  0  0  0  0  0  0  0  0  0
   19.8120   -5.9513  -16.6682 N   0  0  0  0  0  0  0  0  0  0  0  0
   19.7100   -7.0284  -15.7575 C   0  0  0  0  0  0  0  0  0  0  0  0
   18.7557   -7.0107  -14.8932 O   0  0  0  0  0  0  0  0  0  0  0  0
   20.5918   -8.1850  -15.6964 C   0  0  0  0  0  0  0  0  0  0  0  0
   21.7598   -8.0994  -16.6593 C   0  0  2  0  0  0  0  0  0  0  0  0
   22.6239   -9.2593  -16.4212 N   0  0  0  0  0  0  0  0  0  0  0  0
   22.4909   -6.8423  -16.4522 C   0  0  0  0  0  0  0  0  0  0  0  0
   22.0982   -5.6167  -17.0154 O   0  0  0  0  0  0  0  0  0  0  0  0
   23.5211   -6.8056  -15.7486 O   0  0  0  0  0  0  0  0  0  0  0  0
  2  1  1  1
  2  3  1  0
  4  2  1  0
  5  4  1  0
  5  6  1  6
  7  8  2  0
  7  5  1  0
  9  7  1  0
 10  9  1  0
 11 12  1  0
 10 11  1  6
 12 16  1  0
 13 14  1  0
 13 12  2  0
 14 15  1  0
 15 16  2  0
 17 10  1  0
 17 18  2  0
 20 19  1  0
 21 20  2  0
 23 22  1  1
 22 20  1  0
 23 24  1  0
 24 17  1  0
 25 23  1  0
 26 25  1  0
 27 25  2  0
M  END
$$$$
