LHN.pdb
     RDKit          3D

 27 27  0  0  1  0  0  0  0  0999 V2000
   17.1424  -12.8348  -16.2814 C   0  0  0  0  0  0  0  0  0  0  0  0
   18.3805  -12.5874  -17.0946 C   0  0  1  0  0  0  0  0  0  0  0  0
   18.1164  -11.8289  -18.3661 C   0  0  0  0  0  0  0  0  0  0  0  0
   19.4368  -11.9438  -16.2306 C   0  0  0  0  0  0  0  0  0  0  0  0
   20.6745  -11.5926  -17.0250 C   0  0  2  0  0  0  0  0  0  0  0  0
   21.3840  -12.7638  -17.4362 N   0  0  0  0  0  0  0  0  0  0  0  0
   21.5148  -10.7073  -16.1551 C   0  0  0  0  0  0  0  0  0  0  0  0
   21.3393  -10.8083  -14.9114 O   0  0  0  0  0  0  0  0  0  0  0  0
   22.4585   -9.8026  -16.7068 N   0  0  0  0  0  0  0  0  0  0  0  0
   23.2798   -8.9509  -15.8065 C   0  0  1  0  0  0  0  0  0  0  0  0
   24.6525   -9.0250  -16.3683 C   0  0  0  0  0  0  0  0  0  0  0  0
   25.4166  -10.2373  -16.0329 C   0  0  0  0  0  0  0  0  0  0  0  0
   25.0590  -11.3274  -15.2749 C   0  0  0  0  0  0  0  0  0  0  0  0
   26.0739  -12.1978  -15.2027 N   0  0  0  0  0  0  0  0  0  0  0  0
   27.0990  -11.6915  -15.9071 C   0  0  0  0  0  0  0  0  0  0  0  0
   26.7038  -10.5102  -16.4076 N   0  0  0  0  0  0  0  0  0  0  0  0
   22.6296   -7.6242  -15.8499 C   0  0  0  0  0  0  0  0  0  0  0  0
   22.2927   -7.0941  -16.9746 O   0  0  0  0  0  0  0  0  0  0  0  0
   19.9790   -3.1706  -14.9948 N   0  0  0  0  0  0  0  0  0  0  0  0
   19.4862   -4.4020  -14.5043 C   0  0  0  0  0  0  0  0  0  0  0  0
   18.2664   -4.4537  -14.0954 O   0  0  0  0  0  0  0  0  0  0  0  0
   20.2326   -5.6486  -14.4144 C   0  0  0  0  0  0  0  0  0  0  0  0
   21.6714   -5.5201  -14.8749 C   0  0  2  0  0  0  0  0  0  0  0  0
   22.3133   -6.8279  -14.7123 N   0  0  0  0  0  0  0  0  0  0  0  0
   22.3610   -4.4895  -14.0875 C   0  0  0  0  0  0  0  0  0  0  0  0
   22.5280   -3.1647  -14.5239 O   0  0  0  0  0  0  0  0  0  0  0  0
   22.8427   -4.7515  -12.9663 O   0  0  0  0  0  0  0  0  0  0  0  0
  2  1  1  1
  2  3  1  0
  4  2  1  0
  5  4  1  0
  5  6  1  1
  7  8  2  0
  7  5  1  0
  9  7  1  0
 10  9  1  0
 11 12  1  0
 10 11  1  6
 12 16  1  0
 13 14  1  0
 13 12  2  0
 14 15  1  0
 15 16  2  0
 17 10  1  0
 17 18  2  0
 20 19  1  0
 21 20  2  0
 23 22  1  1
 22 20  1  0
 23 24  1  0
 24 17  1  0
 25 23  1  0
 26 25  1  0
 27 25  2  0
M  END
$$$$
