LHN.pdb
     RDKit          3D

 27 27  0  0  1  0  0  0  0  0999 V2000
   24.9769  -16.7513  -19.9342 C   0  0  0  0  0  0  0  0  0  0  0  0
   26.1371  -17.3576  -19.1983 C   0  0  1  0  0  0  0  0  0  0  0  0
   27.0762  -16.3350  -18.6204 C   0  0  0  0  0  0  0  0  0  0  0  0
   25.6310  -18.3419  -18.1728 C   0  0  0  0  0  0  0  0  0  0  0  0
   26.7599  -18.9413  -17.3649 C   0  0  2  0  0  0  0  0  0  0  0  0
   27.5875  -19.7873  -18.1671 N   0  0  0  0  0  0  0  0  0  0  0  0
   26.1330  -19.6894  -16.2273 C   0  0  0  0  0  0  0  0  0  0  0  0
   25.5808  -20.7862  -16.5100 O   0  0  0  0  0  0  0  0  0  0  0  0
   26.1616  -19.1856  -14.9011 N   0  0  0  0  0  0  0  0  0  0  0  0
   25.5063  -19.9488  -13.8062 C   0  0  1  0  0  0  0  0  0  0  0  0
   26.1466  -19.4476  -12.5635 C   0  0  0  0  0  0  0  0  0  0  0  0
   25.5851  -19.9592  -11.3031 C   0  0  0  0  0  0  0  0  0  0  0  0
   24.5297  -20.8138  -11.0867 C   0  0  0  0  0  0  0  0  0  0  0  0
   24.3385  -20.9950   -9.7740 N   0  0  0  0  0  0  0  0  0  0  0  0
   25.2591  -20.2671   -9.1213 C   0  0  0  0  0  0  0  0  0  0  0  0
   26.0106  -19.6426  -10.0420 N   0  0  0  0  0  0  0  0  0  0  0  0
   24.0649  -19.6589  -13.9582 C   0  0  0  0  0  0  0  0  0  0  0  0
   23.6623  -18.7259  -14.7500 O   0  0  0  0  0  0  0  0  0  0  0  0
   20.7334  -18.0637  -15.5123 N   0  0  0  0  0  0  0  0  0  0  0  0
   20.9517  -19.3997  -15.9216 C   0  0  0  0  0  0  0  0  0  0  0  0
   20.7420  -19.7038  -17.1551 O   0  0  0  0  0  0  0  0  0  0  0  0
   21.4029  -20.4928  -15.0727 C   0  0  0  0  0  0  0  0  0  0  0  0
   21.6138  -20.0821  -13.6285 C   0  0  2  0  0  0  0  0  0  0  0  0
   23.0143  -20.3469  -13.2864 N   0  0  0  0  0  0  0  0  0  0  0  0
   20.7034  -20.8335  -12.7543 C   0  0  0  0  0  0  0  0  0  0  0  0
   19.3995  -20.4102  -12.4477 O   0  0  0  0  0  0  0  0  0  0  0  0
   21.0568  -21.9098  -12.2304 O   0  0  0  0  0  0  0  0  0  0  0  0
  2  1  1  1
  2  3  1  0
  4  2  1  0
  5  4  1  0
  5  6  1  6
  7  8  2  0
  7  5  1  0
  9  7  1  0
 10  9  1  0
 11 12  1  0
 10 11  1  1
 12 16  1  0
 13 14  1  0
 13 12  2  0
 14 15  1  0
 15 16  2  0
 17 10  1  0
 17 18  2  0
 20 19  1  0
 21 20  2  0
 23 22  1  6
 22 20  1  0
 23 24  1  0
 24 17  1  0
 25 23  1  0
 26 25  1  0
 27 25  2  0
M  END
$$$$
