TSQ.pdb
     RDKit          3D

 23 22  0  0  1  0  0  0  0  0999 V2000
   13.9427  -15.7685   20.8202 C   0  0  0  0  0  0  0  0  0  0  0  0
   13.1928  -14.6865   20.0296 C   0  0  1  0  0  0  0  0  0  0  0  0
   13.8871  -14.3254   18.9093 O   0  0  0  0  0  0  0  0  0  0  0  0
   11.8144  -15.2382   19.7693 C   0  0  2  0  0  0  0  0  0  0  0  0
   11.0741  -14.3460   18.8677 N   0  0  0  0  0  0  0  0  0  0  0  0
   11.0508  -15.5371   20.9800 C   0  0  0  0  0  0  0  0  0  0  0  0
   10.4018  -14.5544   21.4915 O   0  0  0  0  0  0  0  0  0  0  0  0
   10.5242  -19.3815   22.5784 O   0  0  0  0  0  0  0  0  0  0  0  0
    9.5764  -18.3738   22.7190 C   0  0  0  0  0  0  0  0  0  0  0  0
   10.2427  -16.9953   22.7942 C   0  0  2  0  0  0  0  0  0  0  0  0
   11.0081  -16.8227   21.5779 N   0  0  0  0  0  0  0  0  0  0  0  0
   11.0900  -16.9146   23.9946 C   0  0  0  0  0  0  0  0  0  0  0  0
   12.3171  -17.1799   23.8921 O   0  0  0  0  0  0  0  0  0  0  0  0
    9.4695  -14.3681   29.3846 N   0  0  0  0  0  0  0  0  0  0  0  0
    9.3953  -13.8272   28.0833 C   0  0  0  0  0  0  0  0  0  0  0  0
    8.7066  -12.8100   27.8647 O   0  0  0  0  0  0  0  0  0  0  0  0
   10.1470  -14.4821   26.9735 C   0  0  0  0  0  0  0  0  0  0  0  0
   10.8078  -15.7263   27.4827 C   0  0  0  0  0  0  0  0  0  0  0  0
   11.4650  -16.5590   26.4292 C   0  0  2  0  0  0  0  0  0  0  0  0
   10.5873  -16.5499   25.2666 N   0  0  0  0  0  0  0  0  0  0  0  0
   11.6929  -17.9486   26.8505 C   0  0  0  0  0  0  0  0  0  0  0  0
   12.6489  -18.2476   27.8033 O   0  0  0  0  0  0  0  0  0  0  0  0
   11.0301  -18.8916   26.3594 O   0  0  0  0  0  0  0  0  0  0  0  0
  2  1  1  6
  2  4  1  0
  3  2  1  0
  4  5  1  6
  6  4  1  0
  6 11  1  0
  7  6  2  0
  8  9  1  0
 10  9  1  6
 10 11  1  0
 10 12  1  0
 12 20  1  0
 13 12  2  0
 15 17  1  0
 15 14  1  0
 16 15  2  0
 18 17  1  0
 19 18  1  1
 20 19  1  0
 21 19  1  0
 21 22  1  0
 23 21  2  0
M  END
$$$$
