TSQ.pdb
     RDKit          3D

 23 22  0  0  1  0  0  0  0  0999 V2000
   -1.0060  -25.0800   25.2601 C   0  0  0  0  0  0  0  0  0  0  0  0
   -2.1859  -24.7302   26.1787 C   0  0  1  0  0  0  0  0  0  0  0  0
   -3.3622  -24.7112   25.4834 O   0  0  0  0  0  0  0  0  0  0  0  0
   -2.1388  -25.7192   27.3153 C   0  0  2  0  0  0  0  0  0  0  0  0
   -2.2786  -27.0879   26.8013 N   0  0  0  0  0  0  0  0  0  0  0  0
   -3.0943  -25.4449   28.3875 C   0  0  0  0  0  0  0  0  0  0  0  0
   -4.2752  -25.9214   28.2228 O   0  0  0  0  0  0  0  0  0  0  0  0
   -4.0532  -23.8498   32.8450 O   0  0  0  0  0  0  0  0  0  0  0  0
   -3.1287  -23.9983   31.8169 C   0  0  0  0  0  0  0  0  0  0  0  0
   -3.8135  -24.4361   30.5173 C   0  0  2  0  0  0  0  0  0  0  0  0
   -2.7689  -24.7020   29.5513 N   0  0  0  0  0  0  0  0  0  0  0  0
   -4.7338  -23.3835   30.0582 C   0  0  0  0  0  0  0  0  0  0  0  0
   -4.3416  -22.5752   29.1753 O   0  0  0  0  0  0  0  0  0  0  0  0
   -7.2633  -23.1841   25.9162 N   0  0  0  0  0  0  0  0  0  0  0  0
   -8.1138  -22.1490   26.3599 C   0  0  0  0  0  0  0  0  0  0  0  0
   -8.8741  -21.5731   25.5555 O   0  0  0  0  0  0  0  0  0  0  0  0
   -8.0951  -21.7507   27.7974 C   0  0  0  0  0  0  0  0  0  0  0  0
   -7.1021  -22.5938   28.5373 C   0  0  0  0  0  0  0  0  0  0  0  0
   -6.9486  -22.2506   29.9844 C   0  0  2  0  0  0  0  0  0  0  0  0
   -6.0472  -23.2368   30.5651 N   0  0  0  0  0  0  0  0  0  0  0  0
   -8.2210  -22.2682   30.7199 C   0  0  0  0  0  0  0  0  0  0  0  0
   -9.0624  -21.1716   30.6973 O   0  0  0  0  0  0  0  0  0  0  0  0
   -8.5729  -23.2719   31.3821 O   0  0  0  0  0  0  0  0  0  0  0  0
  2  1  1  6
  2  4  1  0
  3  2  1  0
  4  5  1  6
  6  4  1  0
  6 11  1  0
  7  6  2  0
  8  9  1  0
 10  9  1  1
 10 11  1  0
 10 12  1  0
 12 20  1  0
 13 12  2  0
 15 17  1  0
 15 14  1  0
 16 15  2  0
 18 17  1  0
 19 18  1  6
 20 19  1  0
 21 19  1  0
 21 22  1  0
 23 21  2  0
M  END
$$$$
