TSQ.pdb
     RDKit          3D

 23 22  0  0  1  0  0  0  0  0999 V2000
    7.7461  -12.6862   19.2927 C   0  0  0  0  0  0  0  0  0  0  0  0
    8.3980  -13.5152   20.4089 C   0  0  1  0  0  0  0  0  0  0  0  0
    8.6422  -12.7482   21.5132 O   0  0  0  0  0  0  0  0  0  0  0  0
    7.4847  -14.6910   20.6446 C   0  0  2  0  0  0  0  0  0  0  0  0
    6.1332  -14.2230   20.9783 N   0  0  0  0  0  0  0  0  0  0  0  0
    7.9836  -15.6482   21.6311 C   0  0  0  0  0  0  0  0  0  0  0  0
    7.4055  -15.6260   22.7773 O   0  0  0  0  0  0  0  0  0  0  0  0
    9.9109  -19.2172   20.9617 O   0  0  0  0  0  0  0  0  0  0  0  0
   10.5394  -18.3655   21.8634 C   0  0  0  0  0  0  0  0  0  0  0  0
    9.5455  -17.3634   22.4614 C   0  0  2  0  0  0  0  0  0  0  0  0
    9.0392  -16.5590   21.3698 N   0  0  0  0  0  0  0  0  0  0  0  0
   10.2154  -16.5449   23.4845 C   0  0  0  0  0  0  0  0  0  0  0  0
   10.2573  -15.2952   23.3324 O   0  0  0  0  0  0  0  0  0  0  0  0
    8.9738  -12.5007   26.9265 N   0  0  0  0  0  0  0  0  0  0  0  0
    9.3644  -13.6459   27.6528 C   0  0  0  0  0  0  0  0  0  0  0  0
    8.6966  -14.0230   28.6370 O   0  0  0  0  0  0  0  0  0  0  0  0
   10.5812  -14.4001   27.2332 C   0  0  0  0  0  0  0  0  0  0  0  0
   10.2251  -15.3520   26.1327 C   0  0  0  0  0  0  0  0  0  0  0  0
   11.3487  -16.2271   25.6775 C   0  0  2  0  0  0  0  0  0  0  0  0
   10.8181  -17.0999   24.6388 N   0  0  0  0  0  0  0  0  0  0  0  0
   11.9133  -17.0498   26.7567 C   0  0  0  0  0  0  0  0  0  0  0  0
   12.8894  -16.5408   27.5928 O   0  0  0  0  0  0  0  0  0  0  0  0
   11.5261  -18.2264   26.9448 O   0  0  0  0  0  0  0  0  0  0  0  0
  2  1  1  6
  2  4  1  0
  3  2  1  0
  4  5  1  1
  6  4  1  0
  6 11  1  0
  7  6  2  0
  8  9  1  0
 10  9  1  6
 10 11  1  0
 10 12  1  0
 12 20  1  0
 13 12  2  0
 15 17  1  0
 15 14  1  0
 16 15  2  0
 18 17  1  0
 19 18  1  1
 20 19  1  0
 21 19  1  0
 21 22  1  0
 23 21  2  0
M  END
$$$$
