TSQ.pdb
     RDKit          3D

 23 22  0  0  1  0  0  0  0  0999 V2000
    7.6418  -12.2565   18.7478 C   0  0  0  0  0  0  0  0  0  0  0  0
    7.5753  -13.5932   19.5008 C   0  0  1  0  0  0  0  0  0  0  0  0
    7.4273  -14.6395   18.6342 O   0  0  0  0  0  0  0  0  0  0  0  0
    8.8135  -13.6523   20.3584 C   0  0  2  0  0  0  0  0  0  0  0  0
   10.0134  -13.6948   19.5125 N   0  0  0  0  0  0  0  0  0  0  0  0
    8.8086  -14.7332   21.3431 C   0  0  0  0  0  0  0  0  0  0  0  0
    7.9008  -14.6640   22.2484 O   0  0  0  0  0  0  0  0  0  0  0  0
   11.4323  -17.9627   21.2168 O   0  0  0  0  0  0  0  0  0  0  0  0
   10.1564  -18.1326   21.7430 C   0  0  0  0  0  0  0  0  0  0  0  0
    9.6308  -16.8266   22.3495 C   0  0  2  0  0  0  0  0  0  0  0  0
    9.7353  -15.8071   21.3274 N   0  0  0  0  0  0  0  0  0  0  0  0
   10.4090  -16.4846   23.5507 C   0  0  0  0  0  0  0  0  0  0  0  0
   11.0737  -15.4146   23.5607 O   0  0  0  0  0  0  0  0  0  0  0  0
    8.2868  -13.6017   26.8687 N   0  0  0  0  0  0  0  0  0  0  0  0
    9.2609  -13.8728   27.8532 C   0  0  0  0  0  0  0  0  0  0  0  0
    9.2678  -13.2309   28.9231 O   0  0  0  0  0  0  0  0  0  0  0  0
   10.2807  -14.9325   27.6028 C   0  0  0  0  0  0  0  0  0  0  0  0
    9.9934  -15.6044   26.2951 C   0  0  0  0  0  0  0  0  0  0  0  0
   10.8886  -16.7589   25.9774 C   0  0  2  0  0  0  0  0  0  0  0  0
   10.4451  -17.3066   24.7025 N   0  0  0  0  0  0  0  0  0  0  0  0
   10.8494  -17.8172   26.9966 C   0  0  0  0  0  0  0  0  0  0  0  0
   11.6154  -17.7191   28.1432 O   0  0  0  0  0  0  0  0  0  0  0  0
   10.1248  -18.8291   26.8526 O   0  0  0  0  0  0  0  0  0  0  0  0
  2  1  1  6
  2  4  1  0
  3  2  1  0
  4  5  1  6
  6  4  1  0
  6 11  1  0
  7  6  2  0
  8  9  1  0
 10  9  1  6
 10 11  1  0
 10 12  1  0
 12 20  1  0
 13 12  2  0
 15 17  1  0
 15 14  1  0
 16 15  2  0
 18 17  1  0
 19 18  1  1
 20 19  1  0
 21 19  1  0
 21 22  1  0
 23 21  2  0
M  END
$$$$
