TSQ.pdb
     RDKit          3D

 23 22  0  0  1  0  0  0  0  0999 V2000
   10.8581  -21.9074   13.7112 C   0  0  0  0  0  0  0  0  0  0  0  0
    9.4993  -22.0349   14.4152 C   0  0  1  0  0  0  0  0  0  0  0  0
    9.5701  -22.9030   15.4683 O   0  0  0  0  0  0  0  0  0  0  0  0
    9.0830  -20.6324   14.7782 C   0  0  2  0  0  0  0  0  0  0  0  0
    8.8404  -19.8457   13.5620 N   0  0  0  0  0  0  0  0  0  0  0  0
   10.0036  -19.9511   15.6873 C   0  0  0  0  0  0  0  0  0  0  0  0
   11.0890  -19.5109   15.1613 O   0  0  0  0  0  0  0  0  0  0  0  0
    9.2949  -19.1268   19.8099 O   0  0  0  0  0  0  0  0  0  0  0  0
   10.0042  -18.2985   18.9470 C   0  0  0  0  0  0  0  0  0  0  0  0
   10.7461  -19.1153   17.8829 C   0  0  2  0  0  0  0  0  0  0  0  0
    9.7437  -19.7705   17.0700 N   0  0  0  0  0  0  0  0  0  0  0  0
   11.6467  -20.0811   18.5322 C   0  0  0  0  0  0  0  0  0  0  0  0
   11.5826  -21.2935   18.1964 O   0  0  0  0  0  0  0  0  0  0  0  0
   15.3369  -22.8055   16.6825 N   0  0  0  0  0  0  0  0  0  0  0  0
   15.5194  -23.0356   18.0629 C   0  0  0  0  0  0  0  0  0  0  0  0
   15.6071  -24.2014   18.4987 O   0  0  0  0  0  0  0  0  0  0  0  0
   15.6062  -21.8735   18.9944 C   0  0  0  0  0  0  0  0  0  0  0  0
   14.4602  -20.9425   18.7410 C   0  0  0  0  0  0  0  0  0  0  0  0
   13.6180  -20.6495   19.9411 C   0  0  2  0  0  0  0  0  0  0  0  0
   12.5877  -19.7088   19.5219 N   0  0  0  0  0  0  0  0  0  0  0  0
   14.3811  -20.0649   21.0529 C   0  0  0  0  0  0  0  0  0  0  0  0
   14.8999  -18.7872   20.9557 O   0  0  0  0  0  0  0  0  0  0  0  0
   14.5794  -20.7063   22.1107 O   0  0  0  0  0  0  0  0  0  0  0  0
  2  1  1  1
  2  4  1  0
  3  2  1  0
  4  5  1  6
  6  4  1  0
  6 11  1  0
  7  6  2  0
  8  9  1  0
 10  9  1  1
 10 11  1  0
 10 12  1  0
 12 20  1  0
 13 12  2  0
 15 17  1  0
 15 14  1  0
 16 15  2  0
 18 17  1  0
 19 18  1  6
 20 19  1  0
 21 19  1  0
 21 22  1  0
 23 21  2  0
M  END
$$$$
