TSQ.pdb
     RDKit          3D

 23 22  0  0  1  0  0  0  0  0999 V2000
    7.7602  -19.6653   17.0664 C   0  0  0  0  0  0  0  0  0  0  0  0
    8.3564  -18.9649   18.2961 C   0  0  1  0  0  0  0  0  0  0  0  0
    9.5154  -19.5701   18.6935 O   0  0  0  0  0  0  0  0  0  0  0  0
    8.4976  -17.5115   17.9222 C   0  0  2  0  0  0  0  0  0  0  0  0
    9.3634  -17.3738   16.7439 N   0  0  0  0  0  0  0  0  0  0  0  0
    8.9382  -16.6512   19.0194 C   0  0  0  0  0  0  0  0  0  0  0  0
   10.2074  -16.4964   19.1367 O   0  0  0  0  0  0  0  0  0  0  0  0
    6.4584  -15.3431   22.1132 O   0  0  0  0  0  0  0  0  0  0  0  0
    7.4324  -14.4667   21.6474 C   0  0  0  0  0  0  0  0  0  0  0  0
    8.5958  -15.2270   21.0007 C   0  0  2  0  0  0  0  0  0  0  0  0
    8.0446  -16.0117   19.9165 N   0  0  0  0  0  0  0  0  0  0  0  0
    9.2633  -16.0687   22.0064 C   0  0  0  0  0  0  0  0  0  0  0  0
    8.9417  -17.2835   22.0932 O   0  0  0  0  0  0  0  0  0  0  0  0
   15.2690  -16.9575   23.4714 N   0  0  0  0  0  0  0  0  0  0  0  0
   14.4628  -16.1061   22.6862 C   0  0  0  0  0  0  0  0  0  0  0  0
   14.9664  -15.1213   22.1087 O   0  0  0  0  0  0  0  0  0  0  0  0
   13.0051  -16.3942   22.5534 C   0  0  0  0  0  0  0  0  0  0  0  0
   12.3299  -16.1766   23.8729 C   0  0  0  0  0  0  0  0  0  0  0  0
   10.8610  -16.4556   23.8750 C   0  0  2  0  0  0  0  0  0  0  0  0
   10.2562  -15.5739   22.8855 N   0  0  0  0  0  0  0  0  0  0  0  0
   10.2304  -16.2188   25.1814 C   0  0  0  0  0  0  0  0  0  0  0  0
    9.2743  -15.2319   25.3330 O   0  0  0  0  0  0  0  0  0  0  0  0
   10.5419  -16.9016   26.1846 O   0  0  0  0  0  0  0  0  0  0  0  0
  2  1  1  6
  2  4  1  0
  3  2  1  0
  4  5  1  6
  6  4  1  0
  6 11  1  0
  7  6  2  0
  8  9  1  0
 10  9  1  1
 10 11  1  0
 10 12  1  0
 12 20  1  0
 13 12  2  0
 15 17  1  0
 15 14  1  0
 16 15  2  0
 18 17  1  0
 19 18  1  1
 20 19  1  0
 21 19  1  0
 21 22  1  0
 23 21  2  0
M  END
$$$$
