TSQ.pdb
     RDKit          3D

 23 22  0  0  1  0  0  0  0  0999 V2000
    9.2127  -13.9503   17.0932 C   0  0  0  0  0  0  0  0  0  0  0  0
    9.1913  -14.4381   18.5492 C   0  0  1  0  0  0  0  0  0  0  0  0
   10.4010  -14.2390   19.1529 O   0  0  0  0  0  0  0  0  0  0  0  0
    8.0319  -13.7359   19.2086 C   0  0  2  0  0  0  0  0  0  0  0  0
    8.1778  -12.2809   19.0727 N   0  0  0  0  0  0  0  0  0  0  0  0
    7.8067  -14.1284   20.5991 C   0  0  0  0  0  0  0  0  0  0  0  0
    8.2782  -13.3335   21.4903 O   0  0  0  0  0  0  0  0  0  0  0  0
    7.0334  -18.0288   21.6771 O   0  0  0  0  0  0  0  0  0  0  0  0
    6.4106  -17.0596   22.4559 C   0  0  0  0  0  0  0  0  0  0  0  0
    7.1470  -15.7184   22.3619 C   0  0  2  0  0  0  0  0  0  0  0  0
    7.1138  -15.3079   20.9743 N   0  0  0  0  0  0  0  0  0  0  0  0
    8.5237  -15.8683   22.8595 C   0  0  0  0  0  0  0  0  0  0  0  0
    9.4248  -15.1239   22.3897 O   0  0  0  0  0  0  0  0  0  0  0  0
    7.4418  -13.3959   26.8965 N   0  0  0  0  0  0  0  0  0  0  0  0
    8.6866  -13.6855   27.4952 C   0  0  0  0  0  0  0  0  0  0  0  0
    9.0503  -13.0689   28.5170 O   0  0  0  0  0  0  0  0  0  0  0  0
    9.5617  -14.7344   26.8955 C   0  0  0  0  0  0  0  0  0  0  0  0
    8.9040  -15.2954   25.6721 C   0  0  0  0  0  0  0  0  0  0  0  0
    9.6614  -16.4003   25.0082 C   0  0  2  0  0  0  0  0  0  0  0  0
    8.8846  -16.8152   23.8478 N   0  0  0  0  0  0  0  0  0  0  0  0
    9.8764  -17.5605   25.8845 C   0  0  0  0  0  0  0  0  0  0  0  0
   11.0786  -17.7304   26.5455 O   0  0  0  0  0  0  0  0  0  0  0  0
    8.9804  -18.4199   26.0534 O   0  0  0  0  0  0  0  0  0  0  0  0
  2  1  1  6
  2  4  1  0
  3  2  1  0
  4  5  1  1
  6  4  1  0
  6 11  1  0
  7  6  2  0
  8  9  1  0
 10  9  1  6
 10 11  1  0
 10 12  1  0
 12 20  1  0
 13 12  2  0
 15 17  1  0
 15 14  1  0
 16 15  2  0
 18 17  1  0
 19 18  1  1
 20 19  1  0
 21 19  1  0
 21 22  1  0
 23 21  2  0
M  END
$$$$
