TSQ.pdb
     RDKit          3D

 23 22  0  0  1  0  0  0  0  0999 V2000
    9.4619  -14.2955   17.1086 C   0  0  0  0  0  0  0  0  0  0  0  0
    9.3326  -14.5987   18.6084 C   0  0  1  0  0  0  0  0  0  0  0  0
   10.4493  -14.2017   19.2889 O   0  0  0  0  0  0  0  0  0  0  0  0
    8.0515  -13.9445   19.0586 C   0  0  2  0  0  0  0  0  0  0  0  0
    8.0979  -12.5016   18.7884 N   0  0  0  0  0  0  0  0  0  0  0  0
    7.6939  -14.2222   20.4490 C   0  0  0  0  0  0  0  0  0  0  0  0
    7.8704  -13.2575   21.2776 O   0  0  0  0  0  0  0  0  0  0  0  0
    6.9466  -18.0556   21.9994 O   0  0  0  0  0  0  0  0  0  0  0  0
    6.1898  -16.9850   22.4629 C   0  0  0  0  0  0  0  0  0  0  0  0
    6.9485  -15.6625   22.3039 C   0  0  2  0  0  0  0  0  0  0  0  0
    7.1808  -15.4695   20.8884 N   0  0  0  0  0  0  0  0  0  0  0  0
    8.2057  -15.7128   23.0670 C   0  0  0  0  0  0  0  0  0  0  0  0
    9.2953  -15.7915   22.4398 O   0  0  0  0  0  0  0  0  0  0  0  0
    9.9423  -13.5558   29.1042 N   0  0  0  0  0  0  0  0  0  0  0  0
   10.0854  -14.9373   28.8537 C   0  0  0  0  0  0  0  0  0  0  0  0
    9.8943  -15.7642   29.7682 O   0  0  0  0  0  0  0  0  0  0  0  0
   10.4667  -15.3985   27.4871 C   0  0  0  0  0  0  0  0  0  0  0  0
    9.3077  -15.2155   26.5558 C   0  0  0  0  0  0  0  0  0  0  0  0
    9.5261  -15.7492   25.1764 C   0  0  2  0  0  0  0  0  0  0  0  0
    8.2479  -15.6760   24.4814 N   0  0  0  0  0  0  0  0  0  0  0  0
   10.0026  -17.1396   25.1641 C   0  0  0  0  0  0  0  0  0  0  0  0
    9.1085  -18.1893   25.0656 O   0  0  0  0  0  0  0  0  0  0  0  0
   11.2242  -17.4067   25.2423 O   0  0  0  0  0  0  0  0  0  0  0  0
  2  1  1  6
  2  4  1  0
  3  2  1  0
  4  5  1  1
  6  4  1  0
  6 11  1  0
  7  6  2  0
  8  9  1  0
 10  9  1  6
 10 11  1  0
 10 12  1  0
 12 20  1  0
 13 12  2  0
 15 17  1  0
 15 14  1  0
 16 15  2  0
 18 17  1  0
 19 18  1  1
 20 19  1  0
 21 19  1  0
 21 22  1  0
 23 21  2  0
M  END
$$$$
