TSQ.pdb
     RDKit          3D

 23 22  0  0  1  0  0  0  0  0999 V2000
    7.8247  -16.0777   17.9359 C   0  0  0  0  0  0  0  0  0  0  0  0
    8.4630  -14.7985   17.3753 C   0  0  1  0  0  0  0  0  0  0  0  0
    8.1254  -14.6138   16.0640 O   0  0  0  0  0  0  0  0  0  0  0  0
    8.0457  -13.6831   18.2992 C   0  0  2  0  0  0  0  0  0  0  0  0
    8.3023  -12.3814   17.6694 N   0  0  0  0  0  0  0  0  0  0  0  0
    8.6334  -13.7613   19.6359 C   0  0  0  0  0  0  0  0  0  0  0  0
    9.9012  -13.5698   19.7039 O   0  0  0  0  0  0  0  0  0  0  0  0
    6.7628  -15.5882   22.8950 O   0  0  0  0  0  0  0  0  0  0  0  0
    7.5261  -14.4523   23.1416 C   0  0  0  0  0  0  0  0  0  0  0  0
    8.5834  -14.2497   22.0504 C   0  0  2  0  0  0  0  0  0  0  0  0
    7.8777  -14.0300   20.8059 N   0  0  0  0  0  0  0  0  0  0  0  0
    9.4648  -15.4261   21.9839 C   0  0  0  0  0  0  0  0  0  0  0  0
    9.4154  -16.1666   20.9661 O   0  0  0  0  0  0  0  0  0  0  0  0
   13.4354  -13.9767   19.7984 N   0  0  0  0  0  0  0  0  0  0  0  0
   14.2389  -15.0407   20.2612 C   0  0  0  0  0  0  0  0  0  0  0  0
   15.3641  -15.2413   19.7607 O   0  0  0  0  0  0  0  0  0  0  0  0
   13.7307  -15.9217   21.3526 C   0  0  0  0  0  0  0  0  0  0  0  0
   12.3820  -15.4429   21.7951 C   0  0  0  0  0  0  0  0  0  0  0  0
   11.6485  -16.3876   22.6921 C   0  0  2  0  0  0  0  0  0  0  0  0
   10.3715  -15.7660   23.0164 N   0  0  0  0  0  0  0  0  0  0  0  0
   12.3722  -16.6805   23.9374 C   0  0  0  0  0  0  0  0  0  0  0  0
   11.8779  -16.2539   25.1559 O   0  0  0  0  0  0  0  0  0  0  0  0
   13.4491  -17.3207   23.9259 O   0  0  0  0  0  0  0  0  0  0  0  0
  2  1  1  1
  2  4  1  0
  3  2  1  0
  4  5  1  6
  6  4  1  0
  6 11  1  0
  7  6  2  0
  8  9  1  0
 10  9  1  1
 10 11  1  0
 10 12  1  0
 12 20  1  0
 13 12  2  0
 15 17  1  0
 15 14  1  0
 16 15  2  0
 18 17  1  0
 19 18  1  6
 20 19  1  0
 21 19  1  0
 21 22  1  0
 23 21  2  0
M  END
$$$$
