AFC.pdb
     RDKit          3D

 23 23  0  0  1  0  0  0  0  0999 V2000
   10.1811  -17.0260   19.6384 C   0  0  0  0  0  0  0  0  0  0  0  0
   10.2459  -17.5766   21.0415 C   0  0  2  0  0  0  0  0  0  0  0  0
    9.1765  -18.5309   21.1885 N   0  0  0  0  0  0  0  0  0  0  0  0
   10.1396  -16.5154   22.0735 C   0  0  0  0  0  0  0  0  0  0  0  0
   11.0114  -15.6192   22.1356 O   0  0  0  0  0  0  0  0  0  0  0  0
    9.0839  -16.4526   23.0178 N   0  0  0  0  0  0  0  0  0  0  0  0
    8.8754  -15.3787   23.9545 C   0  0  1  0  0  0  0  0  0  0  0  0
    7.5433  -14.7593   23.9153 C   0  0  0  0  0  0  0  0  0  0  0  0
    7.2363  -13.7036   24.8428 C   0  0  0  0  0  0  0  0  0  0  0  0
    6.4507  -13.8475   25.9604 C   0  0  0  0  0  0  0  0  0  0  0  0
    6.2152  -12.7664   26.7888 C   0  0  0  0  0  0  0  0  0  0  0  0
    6.7513  -11.5187   26.5307 C   0  0  0  0  0  0  0  0  0  0  0  0
    7.5488  -11.3604   25.4017 C   0  0  0  0  0  0  0  0  0  0  0  0
    7.7833  -12.4397   24.5756 C   0  0  0  0  0  0  0  0  0  0  0  0
    9.3586  -15.8051   25.2894 C   0  0  0  0  0  0  0  0  0  0  0  0
    8.8656  -16.8313   25.8614 O   0  0  0  0  0  0  0  0  0  0  0  0
   10.3750  -15.1438   26.0320 N   0  0  0  0  0  0  0  0  0  0  0  0
   10.8235  -15.5948   27.3355 C   0  0  1  0  0  0  0  0  0  0  0  0
    9.8635  -15.1614   28.4281 C   0  0  0  0  0  0  0  0  0  0  0  0
   10.0010  -13.3488   28.5540 S   0  0  0  0  0  0  0  0  0  0  0  0
   11.1333  -17.0239   27.3928 C   0  0  0  0  0  0  0  0  0  0  0  0
   11.6276  -17.5987   28.5669 O   0  0  0  0  0  0  0  0  0  0  0  0
   10.9870  -17.8209   26.4314 O   0  0  0  0  0  0  0  0  0  0  0  0
  2  1  1  6
  2  3  1  0
  4  2  1  0
  4  5  2  0
  6  4  1  0
  7  6  1  0
  7  8  1  1
  9  8  1  0
  9 14  2  0
 10  9  1  0
 11 10  2  0
 11 12  1  0
 12 13  2  0
 13 14  1  0
 15  7  1  0
 16 15  2  0
 17 15  1  0
 18 17  1  0
 18 21  1  0
 19 20  1  0
 18 19  1  1
 21 22  1  0
 23 21  2  0
M  END
$$$$
