AFC.pdb
     RDKit          3D

 23 23  0  0  1  0  0  0  0  0999 V2000
    6.9356  -20.9686   23.6445 C   0  0  0  0  0  0  0  0  0  0  0  0
    6.2495  -19.7730   23.0313 C   0  0  2  0  0  0  0  0  0  0  0  0
    6.2718  -19.9401   21.6004 N   0  0  0  0  0  0  0  0  0  0  0  0
    6.8921  -18.4913   23.4140 C   0  0  0  0  0  0  0  0  0  0  0  0
    7.8768  -18.0715   22.7649 O   0  0  0  0  0  0  0  0  0  0  0  0
    6.4479  -17.6922   24.4976 N   0  0  0  0  0  0  0  0  0  0  0  0
    7.0446  -16.4464   24.9051 C   0  0  1  0  0  0  0  0  0  0  0  0
    6.1182  -15.4664   25.4892 C   0  0  0  0  0  0  0  0  0  0  0  0
    6.6213  -14.1771   25.8813 C   0  0  0  0  0  0  0  0  0  0  0  0
    7.0482  -13.2053   25.0095 C   0  0  0  0  0  0  0  0  0  0  0  0
    7.5167  -11.9970   25.4902 C   0  0  0  0  0  0  0  0  0  0  0  0
    7.5736  -11.7226   26.8438 C   0  0  0  0  0  0  0  0  0  0  0  0
    7.1439  -12.6991   27.7368 C   0  0  0  0  0  0  0  0  0  0  0  0
    6.6765  -13.9046   27.2563 C   0  0  0  0  0  0  0  0  0  0  0  0
    8.2701  -16.7341   25.6878 C   0  0  0  0  0  0  0  0  0  0  0  0
    8.2751  -17.6499   26.5737 O   0  0  0  0  0  0  0  0  0  0  0  0
    9.5074  -16.0501   25.5357 N   0  0  0  0  0  0  0  0  0  0  0  0
   10.7247  -16.4562   26.2117 C   0  0  1  0  0  0  0  0  0  0  0  0
   11.9119  -16.4358   25.2667 C   0  0  0  0  0  0  0  0  0  0  0  0
   11.2869  -15.8549   23.6567 S   0  0  0  0  0  0  0  0  0  0  0  0
   10.9822  -15.7284   27.4548 C   0  0  0  0  0  0  0  0  0  0  0  0
   12.0302  -16.1078   28.2980 O   0  0  0  0  0  0  0  0  0  0  0  0
   10.3107  -14.7422   27.8520 O   0  0  0  0  0  0  0  0  0  0  0  0
  2  1  1  1
  2  3  1  0
  4  2  1  0
  4  5  2  0
  6  4  1  0
  7  6  1  0
  7  8  1  1
  9  8  1  0
  9 14  2  0
 10  9  1  0
 11 10  2  0
 11 12  1  0
 12 13  2  0
 13 14  1  0
 15  7  1  0
 16 15  2  0
 17 15  1  0
 18 17  1  0
 18 21  1  0
 19 20  1  0
 18 19  1  6
 21 22  1  0
 23 21  2  0
M  END
$$$$
