AFC.pdb
     RDKit          3D

 23 23  0  0  1  0  0  0  0  0999 V2000
    9.3531  -19.6309   22.0348 C   0  0  0  0  0  0  0  0  0  0  0  0
    9.2571  -18.2867   21.3566 C   0  0  2  0  0  0  0  0  0  0  0  0
   10.3312  -18.1997   20.4003 N   0  0  0  0  0  0  0  0  0  0  0  0
    9.3267  -17.1589   22.3188 C   0  0  0  0  0  0  0  0  0  0  0  0
   10.4289  -16.6187   22.5645 O   0  0  0  0  0  0  0  0  0  0  0  0
    8.1922  -16.6424   22.9942 N   0  0  0  0  0  0  0  0  0  0  0  0
    8.2018  -15.5016   23.8732 C   0  0  1  0  0  0  0  0  0  0  0  0
    6.9270  -14.7782   23.9792 C   0  0  0  0  0  0  0  0  0  0  0  0
    6.8321  -13.6580   24.8766 C   0  0  0  0  0  0  0  0  0  0  0  0
    7.4860  -12.4619   24.7074 C   0  0  0  0  0  0  0  0  0  0  0  0
    7.3280  -11.4462   25.6315 C   0  0  0  0  0  0  0  0  0  0  0  0
    6.5198  -11.5905   26.7436 C   0  0  0  0  0  0  0  0  0  0  0  0
    5.8521  -12.7974   26.9258 C   0  0  0  0  0  0  0  0  0  0  0  0
    6.0104  -13.8105   26.0033 C   0  0  0  0  0  0  0  0  0  0  0  0
    8.8426  -15.8869   25.1531 C   0  0  0  0  0  0  0  0  0  0  0  0
    9.2106  -14.9982   25.9888 O   0  0  0  0  0  0  0  0  0  0  0  0
    9.0986  -17.2251   25.5601 N   0  0  0  0  0  0  0  0  0  0  0  0
    9.7232  -17.5620   26.8250 C   0  0  1  0  0  0  0  0  0  0  0  0
    8.7377  -17.4469   27.9733 C   0  0  0  0  0  0  0  0  0  0  0  0
    7.5653  -18.8302   27.7947 S   0  0  0  0  0  0  0  0  0  0  0  0
   10.4274  -18.8448   26.8141 C   0  0  0  0  0  0  0  0  0  0  0  0
   11.2058  -19.2389   27.9058 O   0  0  0  0  0  0  0  0  0  0  0  0
   10.3928  -19.6653   25.8619 O   0  0  0  0  0  0  0  0  0  0  0  0
  2  1  1  1
  2  3  1  0
  4  2  1  0
  4  5  2  0
  6  4  1  0
  7  6  1  0
  7  8  1  1
  9  8  1  0
  9 14  2  0
 10  9  1  0
 11 10  2  0
 11 12  1  0
 12 13  2  0
 13 14  1  0
 15  7  1  0
 16 15  2  0
 17 15  1  0
 18 17  1  0
 18 21  1  0
 19 20  1  0
 18 19  1  1
 21 22  1  0
 23 21  2  0
M  END
$$$$
