AFC.pdb
     RDKit          3D

 23 23  0  0  1  0  0  0  0  0999 V2000
   10.5436  -16.6410   19.5755 C   0  0  0  0  0  0  0  0  0  0  0  0
   10.0504  -17.3601   20.8067 C   0  0  2  0  0  0  0  0  0  0  0  0
    8.7491  -17.9012   20.5073 N   0  0  0  0  0  0  0  0  0  0  0  0
    9.9824  -16.4723   21.9939 C   0  0  0  0  0  0  0  0  0  0  0  0
   11.0393  -16.0744   22.5338 O   0  0  0  0  0  0  0  0  0  0  0  0
    8.7622  -16.0358   22.5691 N   0  0  0  0  0  0  0  0  0  0  0  0
    8.6512  -15.1450   23.6952 C   0  0  1  0  0  0  0  0  0  0  0  0
    7.4806  -14.2567   23.6818 C   0  0  0  0  0  0  0  0  0  0  0  0
    7.1875  -13.4697   24.8496 C   0  0  0  0  0  0  0  0  0  0  0  0
    6.3567  -13.8632   25.8704 C   0  0  0  0  0  0  0  0  0  0  0  0
    6.1397  -13.0292   26.9510 C   0  0  0  0  0  0  0  0  0  0  0  0
    6.7394  -11.7874   27.0467 C   0  0  0  0  0  0  0  0  0  0  0  0
    7.5831  -11.3777   26.0190 C   0  0  0  0  0  0  0  0  0  0  0  0
    7.7991  -12.2105   24.9410 C   0  0  0  0  0  0  0  0  0  0  0  0
    8.8714  -15.9167   24.9415 C   0  0  0  0  0  0  0  0  0  0  0  0
    8.2655  -17.0202   25.1380 O   0  0  0  0  0  0  0  0  0  0  0  0
    9.7417  -15.5229   25.9948 N   0  0  0  0  0  0  0  0  0  0  0  0
   10.0565  -16.3781   27.1231 C   0  0  1  0  0  0  0  0  0  0  0  0
   11.0087  -17.4897   26.7223 C   0  0  0  0  0  0  0  0  0  0  0  0
   12.6091  -16.6988   26.3570 S   0  0  0  0  0  0  0  0  0  0  0  0
   10.5086  -15.6502   28.3094 C   0  0  0  0  0  0  0  0  0  0  0  0
   10.8209  -16.3334   29.4879 O   0  0  0  0  0  0  0  0  0  0  0  0
   10.6482  -14.4018   28.3657 O   0  0  0  0  0  0  0  0  0  0  0  0
  2  1  1  6
  2  3  1  0
  4  2  1  0
  4  5  2  0
  6  4  1  0
  7  6  1  0
  7  8  1  1
  9  8  1  0
  9 14  2  0
 10  9  1  0
 11 10  2  0
 11 12  1  0
 12 13  2  0
 13 14  1  0
 15  7  1  0
 16 15  2  0
 17 15  1  0
 18 17  1  0
 18 21  1  0
 19 20  1  0
 18 19  1  6
 21 22  1  0
 23 21  2  0
M  END
$$$$
