AFC.pdb
     RDKit          3D

 23 23  0  0  1  0  0  0  0  0999 V2000
    9.0087  -18.2583   20.3044 C   0  0  0  0  0  0  0  0  0  0  0  0
    9.3281  -16.7873   20.2030 C   0  0  2  0  0  0  0  0  0  0  0  0
   10.5872  -16.6578   19.5147 N   0  0  0  0  0  0  0  0  0  0  0  0
    9.3924  -16.1272   21.5306 C   0  0  0  0  0  0  0  0  0  0  0  0
   10.4520  -16.1708   22.1957 O   0  0  0  0  0  0  0  0  0  0  0  0
    8.2991  -15.4324   22.1068 N   0  0  0  0  0  0  0  0  0  0  0  0
    8.3188  -14.7789   23.3901 C   0  0  1  0  0  0  0  0  0  0  0  0
    7.2103  -13.8466   23.6385 C   0  0  0  0  0  0  0  0  0  0  0  0
    7.0674  -13.2639   24.9458 C   0  0  0  0  0  0  0  0  0  0  0  0
    6.1587  -13.6745   25.8907 C   0  0  0  0  0  0  0  0  0  0  0  0
    6.1011  -13.0449   27.1198 C   0  0  0  0  0  0  0  0  0  0  0  0
    6.9407  -11.9953   27.4423 C   0  0  0  0  0  0  0  0  0  0  0  0
    7.8654  -11.5704   26.4936 C   0  0  0  0  0  0  0  0  0  0  0  0
    7.9223  -12.1991   25.2673 C   0  0  0  0  0  0  0  0  0  0  0  0
    8.5673  -15.7934   24.4419 C   0  0  0  0  0  0  0  0  0  0  0  0
    7.8442  -16.8397   24.5191 O   0  0  0  0  0  0  0  0  0  0  0  0
    9.5910  -15.7068   25.4250 N   0  0  0  0  0  0  0  0  0  0  0  0
    9.8366  -16.7466   26.4058 C   0  0  1  0  0  0  0  0  0  0  0  0
   10.8985  -17.7178   25.9240 C   0  0  0  0  0  0  0  0  0  0  0  0
   11.1970  -18.8844   27.2916 S   0  0  0  0  0  0  0  0  0  0  0  0
   10.1071  -16.2388   27.7514 C   0  0  0  0  0  0  0  0  0  0  0  0
   10.1718  -14.8640   27.9940 O   0  0  0  0  0  0  0  0  0  0  0  0
   10.2960  -16.9661   28.7597 O   0  0  0  0  0  0  0  0  0  0  0  0
  2  1  1  1
  2  3  1  0
  4  2  1  0
  4  5  2  0
  6  4  1  0
  7  6  1  0
  7  8  1  1
  9  8  1  0
  9 14  2  0
 10  9  1  0
 11 10  2  0
 11 12  1  0
 12 13  2  0
 13 14  1  0
 15  7  1  0
 16 15  2  0
 17 15  1  0
 18 17  1  0
 18 21  1  0
 19 20  1  0
 18 19  1  6
 21 22  1  0
 23 21  2  0
M  END
$$$$
