AFC.pdb
     RDKit          3D

 23 23  0  0  1  0  0  0  0  0999 V2000
   11.3374  -18.8045   21.3247 C   0  0  0  0  0  0  0  0  0  0  0  0
   10.6657  -17.5259   20.8887 C   0  0  2  0  0  0  0  0  0  0  0  0
   11.4942  -16.9167   19.8795 N   0  0  0  0  0  0  0  0  0  0  0  0
   10.4465  -16.5864   22.0163 C   0  0  0  0  0  0  0  0  0  0  0  0
   11.3401  -15.7656   22.3243 O   0  0  0  0  0  0  0  0  0  0  0  0
    9.2562  -16.5606   22.7863 N   0  0  0  0  0  0  0  0  0  0  0  0
    8.9551  -15.5943   23.8108 C   0  0  1  0  0  0  0  0  0  0  0  0
    7.5417  -15.2050   23.9127 C   0  0  0  0  0  0  0  0  0  0  0  0
    7.1563  -14.2238   24.8914 C   0  0  0  0  0  0  0  0  0  0  0  0
    6.4556  -14.4979   26.0407 C   0  0  0  0  0  0  0  0  0  0  0  0
    6.1326  -13.4796   26.9177 C   0  0  0  0  0  0  0  0  0  0  0  0
    6.4951  -12.1674   26.6780 C   0  0  0  0  0  0  0  0  0  0  0  0
    7.2052  -11.8773   25.5172 C   0  0  0  0  0  0  0  0  0  0  0  0
    7.5271  -12.8939   24.6426 C   0  0  0  0  0  0  0  0  0  0  0  0
    9.6102  -16.0125   25.0730 C   0  0  0  0  0  0  0  0  0  0  0  0
    9.7033  -17.2459   25.3790 O   0  0  0  0  0  0  0  0  0  0  0  0
   10.1762  -15.1214   26.0256 N   0  0  0  0  0  0  0  0  0  0  0  0
   10.8129  -15.5705   27.2489 C   0  0  1  0  0  0  0  0  0  0  0  0
   11.2172  -14.3968   28.1219 C   0  0  0  0  0  0  0  0  0  0  0  0
    9.6799  -13.5284   28.5725 S   0  0  0  0  0  0  0  0  0  0  0  0
   10.0441  -16.5778   27.9809 C   0  0  0  0  0  0  0  0  0  0  0  0
   10.6575  -17.3759   28.9503 O   0  0  0  0  0  0  0  0  0  0  0  0
    8.8188  -16.8004   27.8065 O   0  0  0  0  0  0  0  0  0  0  0  0
  2  1  1  1
  2  3  1  0
  4  2  1  0
  4  5  2  0
  6  4  1  0
  7  6  1  0
  7  8  1  1
  9  8  1  0
  9 14  2  0
 10  9  1  0
 11 10  2  0
 11 12  1  0
 12 13  2  0
 13 14  1  0
 15  7  1  0
 16 15  2  0
 17 15  1  0
 18 17  1  0
 18 21  1  0
 19 20  1  0
 18 19  1  1
 21 22  1  0
 23 21  2  0
M  END
$$$$
