AFC.pdb
     RDKit          3D

 23 23  0  0  1  0  0  0  0  0999 V2000
   10.4125  -19.3605   22.1002 C   0  0  0  0  0  0  0  0  0  0  0  0
   10.0499  -18.0648   21.4178 C   0  0  2  0  0  0  0  0  0  0  0  0
   11.0419  -17.8095   20.4045 N   0  0  0  0  0  0  0  0  0  0  0  0
    9.9721  -16.9259   22.3660 C   0  0  0  0  0  0  0  0  0  0  0  0
   11.0076  -16.2835   22.6522 O   0  0  0  0  0  0  0  0  0  0  0  0
    8.7656  -16.5099   22.9838 N   0  0  0  0  0  0  0  0  0  0  0  0
    8.6414  -15.3966   23.8888 C   0  0  1  0  0  0  0  0  0  0  0  0
    7.3349  -14.7236   23.8829 C   0  0  0  0  0  0  0  0  0  0  0  0
    7.0980  -13.6501   24.8105 C   0  0  0  0  0  0  0  0  0  0  0  0
    6.2579  -13.7236   25.8948 C   0  0  0  0  0  0  0  0  0  0  0  0
    6.0986  -12.6311   26.7264 C   0  0  0  0  0  0  0  0  0  0  0  0
    6.7665  -11.4414   26.5045 C   0  0  0  0  0  0  0  0  0  0  0  0
    7.6203  -11.3547   25.4094 C   0  0  0  0  0  0  0  0  0  0  0  0
    7.7787  -12.4453   24.5800 C   0  0  0  0  0  0  0  0  0  0  0  0
    9.1643  -15.7965   25.2169 C   0  0  0  0  0  0  0  0  0  0  0  0
    8.6534  -16.7789   25.8473 O   0  0  0  0  0  0  0  0  0  0  0  0
   10.2400  -15.1552   25.8904 N   0  0  0  0  0  0  0  0  0  0  0  0
   10.6927  -15.5469   27.2114 C   0  0  1  0  0  0  0  0  0  0  0  0
    9.6672  -15.1921   28.2723 C   0  0  0  0  0  0  0  0  0  0  0  0
    9.8044  -13.3964   28.5501 S   0  0  0  0  0  0  0  0  0  0  0  0
   11.1324  -16.9401   27.2974 C   0  0  0  0  0  0  0  0  0  0  0  0
   11.6039  -17.4647   28.5038 O   0  0  0  0  0  0  0  0  0  0  0  0
   11.1233  -17.7479   26.3338 O   0  0  0  0  0  0  0  0  0  0  0  0
  2  1  1  1
  2  3  1  0
  4  2  1  0
  4  5  2  0
  6  4  1  0
  7  6  1  0
  7  8  1  1
  9  8  1  0
  9 14  2  0
 10  9  1  0
 11 10  2  0
 11 12  1  0
 12 13  2  0
 13 14  1  0
 15  7  1  0
 16 15  2  0
 17 15  1  0
 18 17  1  0
 18 21  1  0
 19 20  1  0
 18 19  1  1
 21 22  1  0
 23 21  2  0
M  END
$$$$
