AFC.pdb
     RDKit          3D

 23 23  0  0  1  0  0  0  0  0999 V2000
    7.1951  -15.2079   19.7518 C   0  0  0  0  0  0  0  0  0  0  0  0
    7.3715  -14.0109   20.6530 C   0  0  2  0  0  0  0  0  0  0  0  0
    8.0929  -13.0068   19.9132 N   0  0  0  0  0  0  0  0  0  0  0  0
    8.0890  -14.3458   21.9082 C   0  0  0  0  0  0  0  0  0  0  0  0
    9.3317  -14.2088   21.9692 O   0  0  0  0  0  0  0  0  0  0  0  0
    7.4364  -14.8237   23.0726 N   0  0  0  0  0  0  0  0  0  0  0  0
    8.0957  -15.1797   24.3025 C   0  0  1  0  0  0  0  0  0  0  0  0
    7.3218  -14.9294   25.5265 C   0  0  0  0  0  0  0  0  0  0  0  0
    7.0254  -13.5725   25.9003 C   0  0  0  0  0  0  0  0  0  0  0  0
    5.7603  -13.0701   26.0852 C   0  0  0  0  0  0  0  0  0  0  0  0
    5.5830  -11.7470   26.4435 C   0  0  0  0  0  0  0  0  0  0  0  0
    6.6527  -10.8909   26.6273 C   0  0  0  0  0  0  0  0  0  0  0  0
    7.9390  -11.3882   26.4430 C   0  0  0  0  0  0  0  0  0  0  0  0
    8.1150  -12.7085   26.0854 C   0  0  0  0  0  0  0  0  0  0  0  0
    8.6747  -16.5369   24.1617 C   0  0  0  0  0  0  0  0  0  0  0  0
    8.5121  -17.2045   23.0887 O   0  0  0  0  0  0  0  0  0  0  0  0
    9.4361  -17.2004   25.1627 N   0  0  0  0  0  0  0  0  0  0  0  0
   10.7445  -17.7737   24.9118 C   0  0  1  0  0  0  0  0  0  0  0  0
   11.6575  -16.7790   24.2189 C   0  0  0  0  0  0  0  0  0  0  0  0
   12.8898  -17.7559   23.2984 S   0  0  0  0  0  0  0  0  0  0  0  0
   11.3627  -18.3769   26.0932 C   0  0  0  0  0  0  0  0  0  0  0  0
   12.1265  -19.5418   25.9806 O   0  0  0  0  0  0  0  0  0  0  0  0
   11.2628  -17.9173   27.2593 O   0  0  0  0  0  0  0  0  0  0  0  0
  2  1  1  6
  2  3  1  0
  4  2  1  0
  4  5  2  0
  6  4  1  0
  7  6  1  0
  7  8  1  1
  9  8  1  0
  9 14  2  0
 10  9  1  0
 11 10  2  0
 11 12  1  0
 12 13  2  0
 13 14  1  0
 15  7  1  0
 16 15  2  0
 17 15  1  0
 18 17  1  0
 18 21  1  0
 19 20  1  0
 18 19  1  1
 21 22  1  0
 23 21  2  0
M  END
$$$$
