AFC.pdb
     RDKit          3D

 23 23  0  0  1  0  0  0  0  0999 V2000
   -6.5782  -27.4316   25.3860 C   0  0  0  0  0  0  0  0  0  0  0  0
   -6.4344  -25.9347   25.2648 C   0  0  2  0  0  0  0  0  0  0  0  0
   -5.1557  -25.6641   24.6585 N   0  0  0  0  0  0  0  0  0  0  0  0
   -6.5435  -25.2457   26.5746 C   0  0  0  0  0  0  0  0  0  0  0  0
   -5.5285  -25.1173   27.2959 O   0  0  0  0  0  0  0  0  0  0  0  0
   -7.7583  -24.7101   27.0723 N   0  0  0  0  0  0  0  0  0  0  0  0
   -7.8926  -23.9643   28.2969 C   0  0  1  0  0  0  0  0  0  0  0  0
   -8.0468  -22.5118   28.1354 C   0  0  0  0  0  0  0  0  0  0  0  0
   -6.9604  -21.7518   27.5775 C   0  0  0  0  0  0  0  0  0  0  0  0
   -5.8515  -21.3420   28.2770 C   0  0  0  0  0  0  0  0  0  0  0  0
   -4.8617  -20.6123   27.6459 C   0  0  0  0  0  0  0  0  0  0  0  0
   -4.9461  -20.2715   26.3089 C   0  0  0  0  0  0  0  0  0  0  0  0
   -6.0646  -20.6809   25.5898 C   0  0  0  0  0  0  0  0  0  0  0  0
   -7.0519  -21.4090   26.2203 C   0  0  0  0  0  0  0  0  0  0  0  0
   -8.8930  -24.6354   29.1607 C   0  0  0  0  0  0  0  0  0  0  0  0
  -10.0664  -24.8786   28.7276 O   0  0  0  0  0  0  0  0  0  0  0  0
   -8.6556  -25.0575   30.4976 N   0  0  0  0  0  0  0  0  0  0  0  0
   -9.6372  -25.7765   31.2869 C   0  0  1  0  0  0  0  0  0  0  0  0
   -8.9732  -26.5934   32.3799 C   0  0  0  0  0  0  0  0  0  0  0  0
   -7.7635  -27.6796   31.5571 S   0  0  0  0  0  0  0  0  0  0  0  0
  -10.7212  -24.9340   31.7936 C   0  0  0  0  0  0  0  0  0  0  0  0
  -12.0012  -25.4604   31.9868 O   0  0  0  0  0  0  0  0  0  0  0  0
  -10.5971  -23.7172   32.0854 O   0  0  0  0  0  0  0  0  0  0  0  0
  2  1  1  1
  2  3  1  0
  4  2  1  0
  4  5  2  0
  6  4  1  0
  7  6  1  0
  7  8  1  6
  9  8  1  0
  9 14  2  0
 10  9  1  0
 11 10  2  0
 11 12  1  0
 12 13  2  0
 13 14  1  0
 15  7  1  0
 16 15  2  0
 17 15  1  0
 18 17  1  0
 18 21  1  0
 19 20  1  0
 18 19  1  1
 21 22  1  0
 23 21  2  0
M  END
$$$$
