AFC.pdb
     RDKit          3D

 23 23  0  0  1  0  0  0  0  0999 V2000
    9.3624  -18.5738   20.6045 C   0  0  0  0  0  0  0  0  0  0  0  0
    9.5478  -17.0941   20.3757 C   0  0  2  0  0  0  0  0  0  0  0  0
   10.7875  -16.9119   19.6645 N   0  0  0  0  0  0  0  0  0  0  0  0
    9.5578  -16.3205   21.6420 C   0  0  0  0  0  0  0  0  0  0  0  0
   10.6435  -16.0892   22.2206 O   0  0  0  0  0  0  0  0  0  0  0  0
    8.3827  -15.8141   22.2527 N   0  0  0  0  0  0  0  0  0  0  0  0
    8.3443  -15.0875   23.4955 C   0  0  1  0  0  0  0  0  0  0  0  0
    7.1841  -14.2027   23.6715 C   0  0  0  0  0  0  0  0  0  0  0  0
    6.9871  -13.5531   24.9397 C   0  0  0  0  0  0  0  0  0  0  0  0
    6.1497  -14.0066   25.9297 C   0  0  0  0  0  0  0  0  0  0  0  0
    6.0304  -13.3054   27.1148 C   0  0  0  0  0  0  0  0  0  0  0  0
    6.7366  -12.1401   27.3477 C   0  0  0  0  0  0  0  0  0  0  0  0
    7.5881  -11.6708   26.3525 C   0  0  0  0  0  0  0  0  0  0  0  0
    7.7065  -12.3710   25.1701 C   0  0  0  0  0  0  0  0  0  0  0  0
    8.6259  -16.0248   24.6088 C   0  0  0  0  0  0  0  0  0  0  0  0
    8.0580  -17.1644   24.6581 O   0  0  0  0  0  0  0  0  0  0  0  0
    9.5178  -15.7603   25.6842 N   0  0  0  0  0  0  0  0  0  0  0  0
    9.9625  -16.7815   26.6132 C   0  0  1  0  0  0  0  0  0  0  0  0
   10.9960  -17.6923   25.9764 C   0  0  0  0  0  0  0  0  0  0  0  0
   10.6934  -19.3643   26.6344 S   0  0  0  0  0  0  0  0  0  0  0  0
   10.3974  -16.2551   27.9075 C   0  0  0  0  0  0  0  0  0  0  0  0
   10.8834  -17.1129   28.8980 O   0  0  0  0  0  0  0  0  0  0  0  0
   10.3716  -15.0384   28.2238 O   0  0  0  0  0  0  0  0  0  0  0  0
  2  1  1  1
  2  3  1  0
  4  2  1  0
  4  5  2  0
  6  4  1  0
  7  6  1  0
  7  8  1  1
  9  8  1  0
  9 14  2  0
 10  9  1  0
 11 10  2  0
 11 12  1  0
 12 13  2  0
 13 14  1  0
 15  7  1  0
 16 15  2  0
 17 15  1  0
 18 17  1  0
 18 21  1  0
 19 20  1  0
 18 19  1  6
 21 22  1  0
 23 21  2  0
M  END
$$$$
