AFC.pdb
     RDKit          3D

 23 23  0  0  1  0  0  0  0  0999 V2000
    9.0788  -18.4417   20.3781 C   0  0  0  0  0  0  0  0  0  0  0  0
    9.2178  -16.9532   20.1750 C   0  0  2  0  0  0  0  0  0  0  0  0
   10.3881  -16.7280   19.3653 N   0  0  0  0  0  0  0  0  0  0  0  0
    9.3234  -16.2126   21.4566 C   0  0  0  0  0  0  0  0  0  0  0  0
   10.4417  -16.0666   21.9998 O   0  0  0  0  0  0  0  0  0  0  0  0
    8.2066  -15.6454   22.1208 N   0  0  0  0  0  0  0  0  0  0  0  0
    8.2603  -14.9464   23.3789 C   0  0  1  0  0  0  0  0  0  0  0  0
    7.1143  -14.0711   23.6618 C   0  0  0  0  0  0  0  0  0  0  0  0
    7.0281  -13.4258   24.9444 C   0  0  0  0  0  0  0  0  0  0  0  0
    6.1903  -13.8142   25.9614 C   0  0  0  0  0  0  0  0  0  0  0  0
    6.1832  -13.1235   27.1586 C   0  0  0  0  0  0  0  0  0  0  0  0
    7.0044  -12.0333   27.3772 C   0  0  0  0  0  0  0  0  0  0  0  0
    7.8575  -11.6303   26.3547 C   0  0  0  0  0  0  0  0  0  0  0  0
    7.8640  -12.3200   25.1603 C   0  0  0  0  0  0  0  0  0  0  0  0
    8.6281  -15.9067   24.4465 C   0  0  0  0  0  0  0  0  0  0  0  0
    7.9013  -16.9265   24.6817 O   0  0  0  0  0  0  0  0  0  0  0  0
    9.7767  -15.7935   25.2771 N   0  0  0  0  0  0  0  0  0  0  0  0
   10.1182  -16.7705   26.2932 C   0  0  1  0  0  0  0  0  0  0  0  0
   11.5239  -17.3056   26.0917 C   0  0  0  0  0  0  0  0  0  0  0  0
   11.5150  -18.2125   24.5113 S   0  0  0  0  0  0  0  0  0  0  0  0
    9.8827  -16.3082   27.6615 C   0  0  0  0  0  0  0  0  0  0  0  0
   10.1411  -17.1454   28.7503 O   0  0  0  0  0  0  0  0  0  0  0  0
    9.4464  -15.1673   27.9600 O   0  0  0  0  0  0  0  0  0  0  0  0
  2  1  1  1
  2  3  1  0
  4  2  1  0
  4  5  2  0
  6  4  1  0
  7  6  1  0
  7  8  1  1
  9  8  1  0
  9 14  2  0
 10  9  1  0
 11 10  2  0
 11 12  1  0
 12 13  2  0
 13 14  1  0
 15  7  1  0
 16 15  2  0
 17 15  1  0
 18 17  1  0
 18 21  1  0
 19 20  1  0
 18 19  1  1
 21 22  1  0
 23 21  2  0
M  END
$$$$
