AFC.pdb
     RDKit          3D

 23 23  0  0  1  0  0  0  0  0999 V2000
    7.1667  -15.8873   19.7912 C   0  0  0  0  0  0  0  0  0  0  0  0
    7.1310  -14.6191   20.6076 C   0  0  2  0  0  0  0  0  0  0  0  0
    7.6433  -13.5529   19.7851 N   0  0  0  0  0  0  0  0  0  0  0  0
    7.9157  -14.7292   21.8624 C   0  0  0  0  0  0  0  0  0  0  0  0
    9.1200  -14.3878   21.8743 O   0  0  0  0  0  0  0  0  0  0  0  0
    7.3711  -15.2097   23.0800 N   0  0  0  0  0  0  0  0  0  0  0  0
    8.0482  -15.1956   24.3510 C   0  0  1  0  0  0  0  0  0  0  0  0
    7.1834  -14.9977   25.5225 C   0  0  0  0  0  0  0  0  0  0  0  0
    6.8860  -13.6578   25.9529 C   0  0  0  0  0  0  0  0  0  0  0  0
    5.7327  -13.2802   26.5967 C   0  0  0  0  0  0  0  0  0  0  0  0
    5.5431  -11.9624   26.9679 C   0  0  0  0  0  0  0  0  0  0  0  0
    6.4896  -10.9883   26.7109 C   0  0  0  0  0  0  0  0  0  0  0  0
    7.6619  -11.3584   26.0594 C   0  0  0  0  0  0  0  0  0  0  0  0
    7.8503  -12.6736   25.6893 C   0  0  0  0  0  0  0  0  0  0  0  0
    8.9780  -16.3484   24.4127 C   0  0  0  0  0  0  0  0  0  0  0  0
    8.5327  -17.5421   24.4300 O   0  0  0  0  0  0  0  0  0  0  0  0
   10.3955  -16.2441   24.4555 N   0  0  0  0  0  0  0  0  0  0  0  0
   11.2722  -17.3972   24.5287 C   0  0  1  0  0  0  0  0  0  0  0  0
   12.6308  -17.0949   23.9239 C   0  0  0  0  0  0  0  0  0  0  0  0
   13.1881  -15.5213   24.6542 S   0  0  0  0  0  0  0  0  0  0  0  0
   11.3692  -17.9829   25.8663 C   0  0  0  0  0  0  0  0  0  0  0  0
   12.1374  -19.1292   26.0876 O   0  0  0  0  0  0  0  0  0  0  0  0
   10.7940  -17.5234   26.8856 O   0  0  0  0  0  0  0  0  0  0  0  0
  2  1  1  6
  2  3  1  0
  4  2  1  0
  4  5  2  0
  6  4  1  0
  7  6  1  0
  7  8  1  1
  9  8  1  0
  9 14  2  0
 10  9  1  0
 11 10  2  0
 11 12  1  0
 12 13  2  0
 13 14  1  0
 15  7  1  0
 16 15  2  0
 17 15  1  0
 18 17  1  0
 18 21  1  0
 19 20  1  0
 18 19  1  1
 21 22  1  0
 23 21  2  0
M  END
$$$$
