AFC.pdb
     RDKit          3D

 23 23  0  0  1  0  0  0  0  0999 V2000
    8.1540  -18.3299   19.7193 C   0  0  0  0  0  0  0  0  0  0  0  0
    8.1320  -16.8262   19.5987 C   0  0  2  0  0  0  0  0  0  0  0  0
    9.0608  -16.4554   18.5614 N   0  0  0  0  0  0  0  0  0  0  0  0
    8.4798  -16.1492   20.8726 C   0  0  0  0  0  0  0  0  0  0  0  0
    9.6784  -15.9075   21.1411 O   0  0  0  0  0  0  0  0  0  0  0  0
    7.5129  -15.7488   21.8291 N   0  0  0  0  0  0  0  0  0  0  0  0
    7.8052  -15.0752   23.0680 C   0  0  1  0  0  0  0  0  0  0  0  0
    6.7399  -14.1985   23.5742 C   0  0  0  0  0  0  0  0  0  0  0  0
    6.8815  -13.6086   24.8784 C   0  0  0  0  0  0  0  0  0  0  0  0
    6.3947  -14.1542   26.0413 C   0  0  0  0  0  0  0  0  0  0  0  0
    6.5835  -13.5045   27.2466 C   0  0  0  0  0  0  0  0  0  0  0  0
    7.2580  -12.3007   27.3291 C   0  0  0  0  0  0  0  0  0  0  0  0
    7.7557  -11.7381   26.1580 C   0  0  0  0  0  0  0  0  0  0  0  0
    7.5669  -12.3870   24.9557 C   0  0  0  0  0  0  0  0  0  0  0  0
    8.3548  -16.0586   24.0314 C   0  0  0  0  0  0  0  0  0  0  0  0
    7.7354  -17.1450   24.2754 O   0  0  0  0  0  0  0  0  0  0  0  0
    9.5732  -15.8977   24.7467 N   0  0  0  0  0  0  0  0  0  0  0  0
   10.1317  -16.9283   25.6007 C   0  0  1  0  0  0  0  0  0  0  0  0
   11.5503  -17.2756   25.1883 C   0  0  0  0  0  0  0  0  0  0  0  0
   12.5212  -15.7389   25.3155 S   0  0  0  0  0  0  0  0  0  0  0  0
   10.0161  -16.6390   27.0306 C   0  0  0  0  0  0  0  0  0  0  0  0
   10.3886  -17.5922   27.9822 O   0  0  0  0  0  0  0  0  0  0  0  0
    9.5901  -15.5544   27.5030 O   0  0  0  0  0  0  0  0  0  0  0  0
  2  1  1  1
  2  3  1  0
  4  2  1  0
  4  5  2  0
  6  4  1  0
  7  6  1  0
  7  8  1  1
  9  8  1  0
  9 14  2  0
 10  9  1  0
 11 10  2  0
 11 12  1  0
 12 13  2  0
 13 14  1  0
 15  7  1  0
 16 15  2  0
 17 15  1  0
 18 17  1  0
 18 21  1  0
 19 20  1  0
 18 19  1  6
 21 22  1  0
 23 21  2  0
M  END
$$$$
