AFC.pdb
     RDKit          3D

 23 23  0  0  1  0  0  0  0  0999 V2000
    7.5343  -15.3931   18.5904 C   0  0  0  0  0  0  0  0  0  0  0  0
    7.5430  -14.0182   19.2114 C   0  0  2  0  0  0  0  0  0  0  0  0
    8.3809  -13.1743   18.3980 N   0  0  0  0  0  0  0  0  0  0  0  0
    8.0268  -14.0318   20.6143 C   0  0  0  0  0  0  0  0  0  0  0  0
    9.2441  -13.8650   20.8537 O   0  0  0  0  0  0  0  0  0  0  0  0
    7.1728  -14.2271   21.7291 N   0  0  0  0  0  0  0  0  0  0  0  0
    7.5765  -14.1246   23.1077 C   0  0  1  0  0  0  0  0  0  0  0  0
    6.5796  -13.5366   24.0133 C   0  0  0  0  0  0  0  0  0  0  0  0
    6.9243  -13.3346   25.3951 C   0  0  0  0  0  0  0  0  0  0  0  0
    7.3576  -14.3219   26.2461 C   0  0  0  0  0  0  0  0  0  0  0  0
    7.6625  -14.0225   27.5606 C   0  0  0  0  0  0  0  0  0  0  0  0
    7.5458  -12.7401   28.0631 C   0  0  0  0  0  0  0  0  0  0  0  0
    7.1079  -11.7314   27.2107 C   0  0  0  0  0  0  0  0  0  0  0  0
    6.8038  -12.0310   25.8992 C   0  0  0  0  0  0  0  0  0  0  0  0
    8.1638  -15.4173   23.5335 C   0  0  0  0  0  0  0  0  0  0  0  0
    7.5498  -16.5126   23.3170 O   0  0  0  0  0  0  0  0  0  0  0  0
    9.4145  -15.5599   24.1949 N   0  0  0  0  0  0  0  0  0  0  0  0
    9.9394  -16.8408   24.6279 C   0  0  1  0  0  0  0  0  0  0  0  0
   11.1218  -17.2668   23.7774 C   0  0  0  0  0  0  0  0  0  0  0  0
   12.3487  -15.9235   23.8799 S   0  0  0  0  0  0  0  0  0  0  0  0
   10.2236  -16.9097   26.0618 C   0  0  0  0  0  0  0  0  0  0  0  0
   10.6180  -18.1133   26.6523 O   0  0  0  0  0  0  0  0  0  0  0  0
   10.1402  -15.9332   26.8495 O   0  0  0  0  0  0  0  0  0  0  0  0
  2  1  1  6
  2  3  1  0
  4  2  1  0
  4  5  2  0
  6  4  1  0
  7  6  1  0
  7  8  1  1
  9  8  1  0
  9 14  2  0
 10  9  1  0
 11 10  2  0
 11 12  1  0
 12 13  2  0
 13 14  1  0
 15  7  1  0
 16 15  2  0
 17 15  1  0
 18 17  1  0
 18 21  1  0
 19 20  1  0
 18 19  1  6
 21 22  1  0
 23 21  2  0
M  END
$$$$
