AFC.pdb
     RDKit          3D

 23 23  0  0  1  0  0  0  0  0999 V2000
   11.2562  -18.8006   21.4243 C   0  0  0  0  0  0  0  0  0  0  0  0
   10.6263  -17.5462   20.8713 C   0  0  2  0  0  0  0  0  0  0  0  0
   11.4948  -17.0362   19.8410 N   0  0  0  0  0  0  0  0  0  0  0  0
   10.4000  -16.5164   21.9156 C   0  0  0  0  0  0  0  0  0  0  0  0
   11.2939  -15.6759   22.1639 O   0  0  0  0  0  0  0  0  0  0  0  0
    9.2025  -16.4235   22.6690 N   0  0  0  0  0  0  0  0  0  0  0  0
    8.9468  -15.4492   23.6983 C   0  0  1  0  0  0  0  0  0  0  0  0
    7.5638  -14.9577   23.7699 C   0  0  0  0  0  0  0  0  0  0  0  0
    7.2137  -14.0026   24.7869 C   0  0  0  0  0  0  0  0  0  0  0  0
    6.4628  -14.2861   25.9017 C   0  0  0  0  0  0  0  0  0  0  0  0
    6.1804  -13.2931   26.8208 C   0  0  0  0  0  0  0  0  0  0  0  0
    6.6341  -11.9975   26.6582 C   0  0  0  0  0  0  0  0  0  0  0  0
    7.3956  -11.6981   25.5330 C   0  0  0  0  0  0  0  0  0  0  0  0
    7.6770  -12.6895   24.6163 C   0  0  0  0  0  0  0  0  0  0  0  0
    9.5363  -15.9291   24.9709 C   0  0  0  0  0  0  0  0  0  0  0  0
    9.5624  -17.1728   25.2465 O   0  0  0  0  0  0  0  0  0  0  0  0
   10.1071  -15.0894   25.9665 N   0  0  0  0  0  0  0  0  0  0  0  0
   10.7500  -15.6024   27.1611 C   0  0  1  0  0  0  0  0  0  0  0  0
   11.2969  -14.4761   28.0185 C   0  0  0  0  0  0  0  0  0  0  0  0
    9.8579  -13.6372   28.7573 S   0  0  0  0  0  0  0  0  0  0  0  0
    9.9225  -16.5388   27.9228 C   0  0  0  0  0  0  0  0  0  0  0  0
   10.4951  -17.3743   28.8856 O   0  0  0  0  0  0  0  0  0  0  0  0
    8.6795  -16.6648   27.7809 O   0  0  0  0  0  0  0  0  0  0  0  0
  2  1  1  1
  2  3  1  0
  4  2  1  0
  4  5  2  0
  6  4  1  0
  7  6  1  0
  7  8  1  1
  9  8  1  0
  9 14  2  0
 10  9  1  0
 11 10  2  0
 11 12  1  0
 12 13  2  0
 13 14  1  0
 15  7  1  0
 16 15  2  0
 17 15  1  0
 18 17  1  0
 18 21  1  0
 19 20  1  0
 18 19  1  1
 21 22  1  0
 23 21  2  0
M  END
$$$$
