AFC.pdb
     RDKit          3D

 23 23  0  0  1  0  0  0  0  0999 V2000
    9.2545  -18.4594   20.2099 C   0  0  0  0  0  0  0  0  0  0  0  0
    9.3394  -16.9693   19.9898 C   0  0  2  0  0  0  0  0  0  0  0  0
   10.4797  -16.7143   19.1468 N   0  0  0  0  0  0  0  0  0  0  0  0
    9.4551  -16.2130   21.2614 C   0  0  0  0  0  0  0  0  0  0  0  0
   10.5867  -15.9243   21.7122 O   0  0  0  0  0  0  0  0  0  0  0  0
    8.3337  -15.7864   22.0167 N   0  0  0  0  0  0  0  0  0  0  0  0
    8.4013  -15.0682   23.2632 C   0  0  1  0  0  0  0  0  0  0  0  0
    7.2374  -14.2238   23.5668 C   0  0  0  0  0  0  0  0  0  0  0  0
    7.1794  -13.5433   24.8328 C   0  0  0  0  0  0  0  0  0  0  0  0
    6.4951  -13.9964   25.9343 C   0  0  0  0  0  0  0  0  0  0  0  0
    6.5014  -13.2642   27.1066 C   0  0  0  0  0  0  0  0  0  0  0  0
    7.1845  -12.0674   27.2160 C   0  0  0  0  0  0  0  0  0  0  0  0
    7.8814  -11.5981   26.1070 C   0  0  0  0  0  0  0  0  0  0  0  0
    7.8746  -12.3294   24.9376 C   0  0  0  0  0  0  0  0  0  0  0  0
    8.8280  -16.0015   24.3328 C   0  0  0  0  0  0  0  0  0  0  0  0
    8.2410  -17.1215   24.4900 O   0  0  0  0  0  0  0  0  0  0  0  0
    9.8873  -15.7541   25.2485 N   0  0  0  0  0  0  0  0  0  0  0  0
   10.2435  -16.6718   26.3136 C   0  0  1  0  0  0  0  0  0  0  0  0
   11.6286  -17.2535   26.0986 C   0  0  0  0  0  0  0  0  0  0  0  0
   11.6250  -18.0096   24.4408 S   0  0  0  0  0  0  0  0  0  0  0  0
   10.0683  -16.1167   27.6563 C   0  0  0  0  0  0  0  0  0  0  0  0
   10.3314  -16.8936   28.7878 O   0  0  0  0  0  0  0  0  0  0  0  0
    9.6827  -14.9438   27.8945 O   0  0  0  0  0  0  0  0  0  0  0  0
  2  1  1  1
  2  3  1  0
  4  2  1  0
  4  5  2  0
  6  4  1  0
  7  6  1  0
  7  8  1  1
  9  8  1  0
  9 14  2  0
 10  9  1  0
 11 10  2  0
 11 12  1  0
 12 13  2  0
 13 14  1  0
 15  7  1  0
 16 15  2  0
 17 15  1  0
 18 17  1  0
 18 21  1  0
 19 20  1  0
 18 19  1  6
 21 22  1  0
 23 21  2  0
M  END
$$$$
