EER.pdb
     RDKit          3D

 30 29  0  0  1  0  0  0  0  0999 V2000
   25.3304  -21.5496  -13.0816 N   0  0  0  0  0  0  0  0  0  0  0  0
   24.8762  -21.1512  -14.3940 C   0  0  1  0  0  0  0  0  0  0  0  0
   25.3882  -22.1909  -15.4234 C   0  0  0  0  0  0  0  0  0  0  0  0
   26.8832  -22.3626  -15.2372 C   0  0  0  0  0  0  0  0  0  0  0  0
   27.5585  -22.1243  -16.5318 C   0  0  0  0  0  0  0  0  0  0  0  0
   26.8585  -21.7993  -17.5469 O   0  0  0  0  0  0  0  0  0  0  0  0
   23.4289  -20.9758  -14.5251 C   0  0  0  0  0  0  0  0  0  0  0  0
   22.9206  -20.9537  -15.6812 O   0  0  0  0  0  0  0  0  0  0  0  0
   28.9234  -22.2248  -16.7470 O   0  0  0  0  0  0  0  0  0  0  0  0
   22.4843  -20.8246  -13.4880 N   0  0  0  0  0  0  0  0  0  0  0  0
   21.0844  -20.6278  -13.6282 C   0  0  1  0  0  0  0  0  0  0  0  0
   20.2081  -20.9732  -12.4923 C   0  0  0  0  0  0  0  0  0  0  0  0
   20.0837  -22.4932  -12.4015 C   0  0  0  0  0  0  0  0  0  0  0  0
   18.8836  -22.9980  -13.0842 C   0  0  0  0  0  0  0  0  0  0  0  0
   18.8280  -24.1815  -13.4743 O   0  0  0  0  0  0  0  0  0  0  0  0
   20.8272  -19.2356  -14.0500 C   0  0  0  0  0  0  0  0  0  0  0  0
   21.2925  -18.2861  -13.3237 O   0  0  0  0  0  0  0  0  0  0  0  0
   17.7916  -22.1779  -13.3101 O   0  0  0  0  0  0  0  0  0  0  0  0
   22.0858  -15.8467  -21.6318 N   0  0  0  0  0  0  0  0  0  0  0  0
   22.7446  -15.7427  -20.3839 C   0  0  0  0  0  0  0  0  0  0  0  0
   24.0126  -15.5631  -20.2987 N   0  0  0  0  0  0  0  0  0  0  0  0
   22.0176  -15.8346  -19.1522 N   0  0  0  0  0  0  0  0  0  0  0  0
   20.5738  -16.0149  -19.1296 C   0  0  0  0  0  0  0  0  0  0  0  0
   20.1444  -16.0557  -17.6872 C   0  0  0  0  0  0  0  0  0  0  0  0
   20.3354  -17.3776  -17.0379 C   0  0  0  0  0  0  0  0  0  0  0  0
   19.9122  -17.4308  -15.5784 C   0  0  2  0  0  0  0  0  0  0  0  0
   20.1035  -18.8456  -15.1993 N   0  0  0  0  0  0  0  0  0  0  0  0
   18.4730  -17.1415  -15.4938 C   0  0  0  0  0  0  0  0  0  0  0  0
   17.6542  -18.1017  -15.4345 O   0  0  0  0  0  0  0  0  0  0  0  0
   17.9259  -15.8760  -15.4743 O   0  0  0  0  0  0  0  0  0  0  0  0
  2  1  1  1
  2  3  1  0
  4  3  1  0
  4  5  1  0
  5  6  2  0
  7  2  1  0
  8  7  2  0
  9  5  1  0
 10  7  1  0
 11 10  1  0
 12 13  1  0
 11 12  1  1
 13 14  1  0
 14 18  1  0
 14 15  2  0
 16 11  1  0
 16 17  2  0
 20 19  1  0
 21 20  2  0
 22 20  1  0
 23 22  1  0
 24 23  1  0
 25 24  1  0
 26 25  1  6
 26 27  1  0
 27 16  1  0
 28 26  1  0
 29 28  2  0
 30 28  1  0
M  END
$$$$
