EER.pdb
     RDKit          3D

 30 29  0  0  1  0  0  0  0  0999 V2000
   28.0626  -21.8449  -16.7404 N   0  0  0  0  0  0  0  0  0  0  0  0
   27.7899  -20.7794  -15.8036 C   0  0  1  0  0  0  0  0  0  0  0  0
   27.4004  -19.5121  -16.6066 C   0  0  0  0  0  0  0  0  0  0  0  0
   28.3647  -19.3570  -17.7665 C   0  0  0  0  0  0  0  0  0  0  0  0
   27.9876  -18.1580  -18.5469 C   0  0  0  0  0  0  0  0  0  0  0  0
   26.9759  -17.4726  -18.1826 O   0  0  0  0  0  0  0  0  0  0  0  0
   26.7676  -21.0798  -14.7999 C   0  0  0  0  0  0  0  0  0  0  0  0
   25.8376  -21.8805  -15.0988 O   0  0  0  0  0  0  0  0  0  0  0  0
   28.6547  -17.6988  -19.6710 O   0  0  0  0  0  0  0  0  0  0  0  0
   26.6799  -20.5752  -13.4851 N   0  0  0  0  0  0  0  0  0  0  0  0
   25.6879  -20.8821  -12.5157 C   0  0  1  0  0  0  0  0  0  0  0  0
   25.9547  -20.5434  -11.1044 C   0  0  0  0  0  0  0  0  0  0  0  0
   24.8045  -21.0587  -10.2410 C   0  0  0  0  0  0  0  0  0  0  0  0
   25.0400  -20.8394   -8.8066 C   0  0  0  0  0  0  0  0  0  0  0  0
   26.0907  -20.2937   -8.4139 O   0  0  0  0  0  0  0  0  0  0  0  0
   24.3988  -20.2940  -12.9336 C   0  0  0  0  0  0  0  0  0  0  0  0
   24.2927  -19.0158  -12.9515 O   0  0  0  0  0  0  0  0  0  0  0  0
   24.1076  -21.2304   -7.8612 O   0  0  0  0  0  0  0  0  0  0  0  0
   19.1440  -23.5039  -19.0236 N   0  0  0  0  0  0  0  0  0  0  0  0
   19.9555  -22.3785  -19.3007 C   0  0  0  0  0  0  0  0  0  0  0  0
   20.0928  -21.9171  -20.4905 N   0  0  0  0  0  0  0  0  0  0  0  0
   20.6647  -21.7010  -18.2557 N   0  0  0  0  0  0  0  0  0  0  0  0
   20.5677  -22.1261  -16.8673 C   0  0  0  0  0  0  0  0  0  0  0  0
   21.3299  -21.1306  -16.0339 C   0  0  0  0  0  0  0  0  0  0  0  0
   21.2830  -21.4036  -14.5748 C   0  0  0  0  0  0  0  0  0  0  0  0
   21.9876  -20.3656  -13.7157 C   0  0  2  0  0  0  0  0  0  0  0  0
   23.2513  -21.0214  -13.3224 N   0  0  0  0  0  0  0  0  0  0  0  0
   21.2005  -20.1533  -12.4920 C   0  0  0  0  0  0  0  0  0  0  0  0
   21.3721  -20.9262  -11.5075 O   0  0  0  0  0  0  0  0  0  0  0  0
   20.2641  -19.1553  -12.3234 O   0  0  0  0  0  0  0  0  0  0  0  0
  2  1  1  6
  2  3  1  0
  4  3  1  0
  4  5  1  0
  5  6  2  0
  7  2  1  0
  8  7  2  0
  9  5  1  0
 10  7  1  0
 11 10  1  0
 12 13  1  0
 11 12  1  1
 13 14  1  0
 14 18  1  0
 14 15  2  0
 16 11  1  0
 16 17  2  0
 20 19  1  0
 21 20  2  0
 22 20  1  0
 23 22  1  0
 24 23  1  0
 25 24  1  0
 26 25  1  6
 26 27  1  0
 27 16  1  0
 28 26  1  0
 29 28  2  0
 30 28  1  0
M  END
$$$$
