EER.pdb
     RDKit          3D

 30 29  0  0  1  0  0  0  0  0999 V2000
   25.6046  -20.3345  -17.8676 N   0  0  0  0  0  0  0  0  0  0  0  0
   25.9683  -19.4807  -16.7604 C   0  0  1  0  0  0  0  0  0  0  0  0
   27.2511  -18.7011  -17.1469 C   0  0  0  0  0  0  0  0  0  0  0  0
   27.4459  -18.8006  -18.6473 C   0  0  0  0  0  0  0  0  0  0  0  0
   28.6035  -17.9659  -19.0372 C   0  0  0  0  0  0  0  0  0  0  0  0
   28.4213  -16.7286  -19.2864 O   0  0  0  0  0  0  0  0  0  0  0  0
   24.9239  -18.5549  -16.3192 C   0  0  0  0  0  0  0  0  0  0  0  0
   25.0931  -17.9139  -15.2440 O   0  0  0  0  0  0  0  0  0  0  0  0
   29.9065  -18.4205  -19.1591 O   0  0  0  0  0  0  0  0  0  0  0  0
   23.7019  -18.2678  -16.9635 N   0  0  0  0  0  0  0  0  0  0  0  0
   22.6673  -17.4147  -16.4943 C   0  0  1  0  0  0  0  0  0  0  0  0
   22.5425  -16.0688  -17.0862 C   0  0  0  0  0  0  0  0  0  0  0  0
   21.5047  -15.2710  -16.2985 C   0  0  0  0  0  0  0  0  0  0  0  0
   21.1805  -13.9885  -16.9396 C   0  0  0  0  0  0  0  0  0  0  0  0
   20.3447  -13.2177  -16.4265 O   0  0  0  0  0  0  0  0  0  0  0  0
   21.3732  -18.1211  -16.5864 C   0  0  0  0  0  0  0  0  0  0  0  0
   21.0994  -18.7463  -17.6725 O   0  0  0  0  0  0  0  0  0  0  0  0
   21.7906  -13.6060  -18.1218 O   0  0  0  0  0  0  0  0  0  0  0  0
   17.1755  -21.4783  -10.4578 N   0  0  0  0  0  0  0  0  0  0  0  0
   17.9848  -20.3418  -10.6933 C   0  0  0  0  0  0  0  0  0  0  0  0
   18.8714  -19.9535   -9.8504 N   0  0  0  0  0  0  0  0  0  0  0  0
   17.8471  -19.5698  -11.8929 N   0  0  0  0  0  0  0  0  0  0  0  0
   16.7221  -19.7575  -12.7966 C   0  0  0  0  0  0  0  0  0  0  0  0
   17.2509  -19.6697  -14.2034 C   0  0  0  0  0  0  0  0  0  0  0  0
   18.5892  -19.0340  -14.3065 C   0  0  0  0  0  0  0  0  0  0  0  0
   19.1257  -18.9190  -15.7246 C   0  0  2  0  0  0  0  0  0  0  0  0
   20.3914  -18.1731  -15.5713 N   0  0  0  0  0  0  0  0  0  0  0  0
   18.2093  -18.0779  -16.5087 C   0  0  0  0  0  0  0  0  0  0  0  0
   17.8957  -18.4344  -17.6794 O   0  0  0  0  0  0  0  0  0  0  0  0
   17.6486  -16.8998  -16.0628 O   0  0  0  0  0  0  0  0  0  0  0  0
  2  1  1  6
  2  3  1  0
  4  3  1  0
  4  5  1  0
  5  6  2  0
  7  2  1  0
  8  7  2  0
  9  5  1  0
 10  7  1  0
 11 10  1  0
 12 13  1  0
 11 12  1  6
 13 14  1  0
 14 18  1  0
 14 15  2  0
 16 11  1  0
 16 17  2  0
 20 19  1  0
 21 20  2  0
 22 20  1  0
 23 22  1  0
 24 23  1  0
 25 24  1  0
 26 25  1  1
 26 27  1  0
 27 16  1  0
 28 26  1  0
 29 28  2  0
 30 28  1  0
M  END
$$$$
