EER.pdb
     RDKit          3D

 30 29  0  0  1  0  0  0  0  0999 V2000
   21.5727  -21.0730   -6.8366 N   0  0  0  0  0  0  0  0  0  0  0  0
   21.7614  -21.8385   -8.0472 C   0  0  1  0  0  0  0  0  0  0  0  0
   20.3784  -22.3593   -8.5151 C   0  0  0  0  0  0  0  0  0  0  0  0
   19.7910  -23.2279   -7.4198 C   0  0  0  0  0  0  0  0  0  0  0  0
   18.5682  -23.8844   -7.9321 C   0  0  0  0  0  0  0  0  0  0  0  0
   17.5635  -23.1658   -8.2488 O   0  0  0  0  0  0  0  0  0  0  0  0
   22.4315  -21.1258   -9.1361 C   0  0  0  0  0  0  0  0  0  0  0  0
   21.8076  -20.2063   -9.7366 O   0  0  0  0  0  0  0  0  0  0  0  0
   18.4116  -25.2502   -8.1042 O   0  0  0  0  0  0  0  0  0  0  0  0
   23.7388  -21.3354   -9.6238 N   0  0  0  0  0  0  0  0  0  0  0  0
   24.3315  -20.7358  -10.7672 C   0  0  1  0  0  0  0  0  0  0  0  0
   25.6971  -21.1449  -11.1480 C   0  0  0  0  0  0  0  0  0  0  0  0
   26.1392  -20.3364  -12.3666 C   0  0  0  0  0  0  0  0  0  0  0  0
   27.4902  -20.6994  -12.8186 C   0  0  0  0  0  0  0  0  0  0  0  0
   27.9996  -20.1354  -13.8077 O   0  0  0  0  0  0  0  0  0  0  0  0
   23.4252  -20.8891  -11.9236 C   0  0  0  0  0  0  0  0  0  0  0  0
   22.5655  -21.8408  -11.8985 O   0  0  0  0  0  0  0  0  0  0  0  0
   28.2268  -21.6703  -12.1621 O   0  0  0  0  0  0  0  0  0  0  0  0
   16.0860  -17.9384  -13.7569 N   0  0  0  0  0  0  0  0  0  0  0  0
   16.4579  -18.5825  -14.9606 C   0  0  0  0  0  0  0  0  0  0  0  0
   15.6392  -18.7158  -15.9401 N   0  0  0  0  0  0  0  0  0  0  0  0
   17.7754  -19.1181  -15.1380 N   0  0  0  0  0  0  0  0  0  0  0  0
   18.7609  -19.0911  -14.0677 C   0  0  0  0  0  0  0  0  0  0  0  0
   20.0563  -19.6121  -14.6308 C   0  0  0  0  0  0  0  0  0  0  0  0
   21.1404  -19.7475  -13.6248 C   0  0  0  0  0  0  0  0  0  0  0  0
   22.4580  -20.2621  -14.1825 C   0  0  2  0  0  0  0  0  0  0  0  0
   23.4170  -20.0704  -13.0754 N   0  0  0  0  0  0  0  0  0  0  0  0
   22.8771  -19.3862  -15.2866 C   0  0  0  0  0  0  0  0  0  0  0  0
   23.6842  -18.4430  -15.0522 O   0  0  0  0  0  0  0  0  0  0  0  0
   22.4512  -19.5095  -16.5922 O   0  0  0  0  0  0  0  0  0  0  0  0
  2  1  1  1
  2  3  1  0
  4  3  1  0
  4  5  1  0
  5  6  2  0
  7  2  1  0
  8  7  2  0
  9  5  1  0
 10  7  1  0
 11 10  1  0
 12 13  1  0
 11 12  1  6
 13 14  1  0
 14 18  1  0
 14 15  2  0
 16 11  1  0
 16 17  2  0
 20 19  1  0
 21 20  2  0
 22 20  1  0
 23 22  1  0
 24 23  1  0
 25 24  1  0
 26 25  1  1
 26 27  1  0
 27 16  1  0
 28 26  1  0
 29 28  2  0
 30 28  1  0
M  END
$$$$
