EER.pdb
     RDKit          3D

 30 29  0  0  1  0  0  0  0  0999 V2000
   27.9689  -19.3163  -13.9865 N   0  0  0  0  0  0  0  0  0  0  0  0
   27.0218  -18.5768  -14.7888 C   0  0  1  0  0  0  0  0  0  0  0  0
   27.7437  -18.0921  -16.0720 C   0  0  0  0  0  0  0  0  0  0  0  0
   28.5050  -19.2587  -16.6707 C   0  0  0  0  0  0  0  0  0  0  0  0
   29.0570  -18.8497  -17.9809 C   0  0  0  0  0  0  0  0  0  0  0  0
   29.6901  -19.7057  -18.6828 O   0  0  0  0  0  0  0  0  0  0  0  0
   25.7995  -19.3032  -15.1363 C   0  0  0  0  0  0  0  0  0  0  0  0
   24.9106  -18.7115  -15.8109 O   0  0  0  0  0  0  0  0  0  0  0  0
   28.9445  -17.5830  -18.5307 O   0  0  0  0  0  0  0  0  0  0  0  0
   25.4682  -20.6346  -14.8071 N   0  0  0  0  0  0  0  0  0  0  0  0
   24.3084  -21.3512  -15.2066 C   0  0  1  0  0  0  0  0  0  0  0  0
   24.3070  -22.8204  -15.0692 C   0  0  0  0  0  0  0  0  0  0  0  0
   23.0779  -23.3872  -15.7778 C   0  0  0  0  0  0  0  0  0  0  0  0
   22.9783  -24.8476  -15.6429 C   0  0  0  0  0  0  0  0  0  0  0  0
   23.8862  -25.4951  -15.0839 O   0  0  0  0  0  0  0  0  0  0  0  0
   23.1265  -20.7861  -14.5238 C   0  0  0  0  0  0  0  0  0  0  0  0
   23.2177  -20.5228  -13.2717 O   0  0  0  0  0  0  0  0  0  0  0  0
   21.8811  -25.5372  -16.1296 O   0  0  0  0  0  0  0  0  0  0  0  0
   16.1113  -16.4899  -17.8898 N   0  0  0  0  0  0  0  0  0  0  0  0
   15.7066  -17.2457  -16.7641 C   0  0  0  0  0  0  0  0  0  0  0  0
   14.4705  -17.3813  -16.4464 N   0  0  0  0  0  0  0  0  0  0  0  0
   16.6682  -17.8967  -15.9241 N   0  0  0  0  0  0  0  0  0  0  0  0
   18.0872  -17.5844  -16.0040 C   0  0  0  0  0  0  0  0  0  0  0  0
   18.7921  -18.4063  -14.9579 C   0  0  0  0  0  0  0  0  0  0  0  0
   20.0096  -19.0977  -15.4531 C   0  0  0  0  0  0  0  0  0  0  0  0
   20.7549  -19.8975  -14.3962 C   0  0  2  0  0  0  0  0  0  0  0  0
   21.8828  -20.5038  -15.1324 N   0  0  0  0  0  0  0  0  0  0  0  0
   19.8885  -20.9925  -13.9355 C   0  0  0  0  0  0  0  0  0  0  0  0
   19.8782  -22.0811  -14.5765 O   0  0  0  0  0  0  0  0  0  0  0  0
   19.0625  -20.9300  -12.8332 O   0  0  0  0  0  0  0  0  0  0  0  0
  2  1  1  6
  2  3  1  0
  4  3  1  0
  4  5  1  0
  5  6  2  0
  7  2  1  0
  8  7  2  0
  9  5  1  0
 10  7  1  0
 11 10  1  0
 12 13  1  0
 11 12  1  1
 13 14  1  0
 14 18  1  0
 14 15  2  0
 16 11  1  0
 16 17  2  0
 20 19  1  0
 21 20  2  0
 22 20  1  0
 23 22  1  0
 24 23  1  0
 25 24  1  0
 26 25  1  6
 26 27  1  0
 27 16  1  0
 28 26  1  0
 29 28  2  0
 30 28  1  0
M  END
$$$$
