EER.pdb
     RDKit          3D

 30 29  0  0  1  0  0  0  0  0999 V2000
   22.4326  -14.8555  -17.9061 N   0  0  0  0  0  0  0  0  0  0  0  0
   22.4908  -15.4687  -16.5992 C   0  0  1  0  0  0  0  0  0  0  0  0
   21.0717  -15.4257  -15.9770 C   0  0  0  0  0  0  0  0  0  0  0  0
   20.2023  -14.5077  -16.8140 C   0  0  0  0  0  0  0  0  0  0  0  0
   18.8554  -14.4367  -16.2062 C   0  0  0  0  0  0  0  0  0  0  0  0
   17.9465  -15.2320  -16.6156 O   0  0  0  0  0  0  0  0  0  0  0  0
   23.0154  -16.8350  -16.5756 C   0  0  0  0  0  0  0  0  0  0  0  0
   22.3371  -17.7569  -17.1097 O   0  0  0  0  0  0  0  0  0  0  0  0
   18.4813  -13.5583  -15.2023 O   0  0  0  0  0  0  0  0  0  0  0  0
   24.2316  -17.2788  -16.0145 N   0  0  0  0  0  0  0  0  0  0  0  0
   24.7946  -18.5794  -16.1129 C   0  0  1  0  0  0  0  0  0  0  0  0
   26.2605  -18.7048  -16.2263 C   0  0  0  0  0  0  0  0  0  0  0  0
   26.6191  -20.1699  -16.4688 C   0  0  0  0  0  0  0  0  0  0  0  0
   28.0674  -20.3740  -16.6174 C   0  0  0  0  0  0  0  0  0  0  0  0
   28.5274  -21.5138  -16.8304 O   0  0  0  0  0  0  0  0  0  0  0  0
   24.3095  -19.4072  -14.9896 C   0  0  0  0  0  0  0  0  0  0  0  0
   24.3257  -18.9003  -13.8114 O   0  0  0  0  0  0  0  0  0  0  0  0
   28.9519  -19.3133  -16.5254 O   0  0  0  0  0  0  0  0  0  0  0  0
   22.5887  -26.7119  -12.8076 N   0  0  0  0  0  0  0  0  0  0  0  0
   21.2447  -26.4348  -12.4628 C   0  0  0  0  0  0  0  0  0  0  0  0
   20.6480  -27.0508  -11.5079 N   0  0  0  0  0  0  0  0  0  0  0  0
   20.4866  -25.4464  -13.1716 N   0  0  0  0  0  0  0  0  0  0  0  0
   21.0749  -24.6565  -14.2429 C   0  0  0  0  0  0  0  0  0  0  0  0
   21.8974  -23.5686  -13.6051 C   0  0  0  0  0  0  0  0  0  0  0  0
   22.5153  -22.6309  -14.5769 C   0  0  0  0  0  0  0  0  0  0  0  0
   23.2536  -21.4621  -13.9439 C   0  0  2  0  0  0  0  0  0  0  0  0
   23.8208  -20.7290  -15.0940 N   0  0  0  0  0  0  0  0  0  0  0  0
   24.3788  -21.9862  -13.1557 C   0  0  0  0  0  0  0  0  0  0  0  0
   25.4320  -22.3491  -13.7516 O   0  0  0  0  0  0  0  0  0  0  0  0
   24.3818  -22.1200  -11.7834 O   0  0  0  0  0  0  0  0  0  0  0  0
  2  1  1  6
  2  3  1  0
  4  3  1  0
  4  5  1  0
  5  6  2  0
  7  2  1  0
  8  7  2  0
  9  5  1  0
 10  7  1  0
 11 10  1  0
 12 13  1  0
 11 12  1  1
 13 14  1  0
 14 18  1  0
 14 15  2  0
 16 11  1  0
 16 17  2  0
 20 19  1  0
 21 20  2  0
 22 20  1  0
 23 22  1  0
 24 23  1  0
 25 24  1  0
 26 25  1  6
 26 27  1  0
 27 16  1  0
 28 26  1  0
 29 28  2  0
 30 28  1  0
M  END
$$$$
