EER.pdb
     RDKit          3D

 30 29  0  0  1  0  0  0  0  0999 V2000
   22.3193  -11.2262  -16.5390 N   0  0  0  0  0  0  0  0  0  0  0  0
   22.7792  -10.6042  -15.3188 C   0  0  1  0  0  0  0  0  0  0  0  0
   24.1889  -10.0125  -15.5745 C   0  0  0  0  0  0  0  0  0  0  0  0
   24.1056   -9.0464  -16.7402 C   0  0  0  0  0  0  0  0  0  0  0  0
   25.3669   -8.2771  -16.8168 C   0  0  0  0  0  0  0  0  0  0  0  0
   25.3539   -7.0333  -16.5360 O   0  0  0  0  0  0  0  0  0  0  0  0
   21.8898   -9.5800  -14.7687 C   0  0  0  0  0  0  0  0  0  0  0  0
   22.1569   -9.0854  -13.6376 O   0  0  0  0  0  0  0  0  0  0  0  0
   26.5977   -8.8017  -17.1765 O   0  0  0  0  0  0  0  0  0  0  0  0
   20.7253   -9.0458  -15.3598 N   0  0  0  0  0  0  0  0  0  0  0  0
   19.8594   -8.0639  -14.8081 C   0  0  1  0  0  0  0  0  0  0  0  0
   20.1088   -6.6455  -15.1295 C   0  0  0  0  0  0  0  0  0  0  0  0
   20.8890   -6.0034  -13.9836 C   0  0  0  0  0  0  0  0  0  0  0  0
   21.1942   -4.5881  -14.2385 C   0  0  0  0  0  0  0  0  0  0  0  0
   20.8575   -4.0517  -15.3132 O   0  0  0  0  0  0  0  0  0  0  0  0
   18.4603   -8.4094  -15.1328 C   0  0  0  0  0  0  0  0  0  0  0  0
   18.2177   -8.9523  -16.2694 O   0  0  0  0  0  0  0  0  0  0  0  0
   21.8586   -3.8196  -13.2984 O   0  0  0  0  0  0  0  0  0  0  0  0
   11.5953  -11.4601  -10.3283 N   0  0  0  0  0  0  0  0  0  0  0  0
   11.1747  -11.2293  -11.6594 C   0  0  0  0  0  0  0  0  0  0  0  0
   10.0641  -11.6886  -12.1097 N   0  0  0  0  0  0  0  0  0  0  0  0
   11.9783  -10.4667  -12.5687 N   0  0  0  0  0  0  0  0  0  0  0  0
   13.4158  -10.3310  -12.3878 C   0  0  0  0  0  0  0  0  0  0  0  0
   13.9539   -9.5814  -13.5774 C   0  0  0  0  0  0  0  0  0  0  0  0
   15.4115   -9.3053  -13.5079 C   0  0  0  0  0  0  0  0  0  0  0  0
   15.9654   -8.5358  -14.6966 C   0  0  2  0  0  0  0  0  0  0  0  0
   17.3444   -8.1935  -14.2930 N   0  0  0  0  0  0  0  0  0  0  0  0
   15.2191   -7.2761  -14.8321 C   0  0  0  0  0  0  0  0  0  0  0  0
   15.7422   -6.2030  -14.4189 O   0  0  0  0  0  0  0  0  0  0  0  0
   13.9616   -7.1637  -15.3864 O   0  0  0  0  0  0  0  0  0  0  0  0
  2  1  1  6
  2  3  1  0
  4  3  1  0
  4  5  1  0
  5  6  2  0
  7  2  1  0
  8  7  2  0
  9  5  1  0
 10  7  1  0
 11 10  1  0
 12 13  1  0
 11 12  1  6
 13 14  1  0
 14 18  1  0
 14 15  2  0
 16 11  1  0
 16 17  2  0
 20 19  1  0
 21 20  2  0
 22 20  1  0
 23 22  1  0
 24 23  1  0
 25 24  1  0
 26 25  1  1
 26 27  1  0
 27 16  1  0
 28 26  1  0
 29 28  2  0
 30 28  1  0
M  END
$$$$
