EER.pdb
     RDKit          3D

 30 29  0  0  1  0  0  0  0  0999 V2000
   17.6936  -11.8468  -15.7139 N   0  0  0  0  0  0  0  0  0  0  0  0
   16.7903  -11.3013  -14.7271 C   0  0  1  0  0  0  0  0  0  0  0  0
   16.0644  -12.4786  -14.0271 C   0  0  0  0  0  0  0  0  0  0  0  0
   15.3469  -13.3010  -15.0797 C   0  0  0  0  0  0  0  0  0  0  0  0
   14.5717  -14.3678  -14.4088 C   0  0  0  0  0  0  0  0  0  0  0  0
   13.3610  -14.1417  -14.0784 O   0  0  0  0  0  0  0  0  0  0  0  0
   17.4104  -10.4232  -13.7337 C   0  0  0  0  0  0  0  0  0  0  0  0
   17.3014  -10.7160  -12.5098 O   0  0  0  0  0  0  0  0  0  0  0  0
   15.0568  -15.6278  -14.0984 O   0  0  0  0  0  0  0  0  0  0  0  0
   18.1483   -9.2441  -13.9705 N   0  0  0  0  0  0  0  0  0  0  0  0
   18.7165   -8.3805  -12.9960 C   0  0  1  0  0  0  0  0  0  0  0  0
   19.8052   -7.4739  -13.4086 C   0  0  0  0  0  0  0  0  0  0  0  0
   20.9569   -8.3022  -13.9758 C   0  0  0  0  0  0  0  0  0  0  0  0
   22.0048   -7.4649  -14.5774 C   0  0  0  0  0  0  0  0  0  0  0  0
   21.8616   -6.2279  -14.6518 O   0  0  0  0  0  0  0  0  0  0  0  0
   17.6411   -7.6036  -12.3462 C   0  0  0  0  0  0  0  0  0  0  0  0
   16.7887   -7.0044  -13.0944 O   0  0  0  0  0  0  0  0  0  0  0  0
   23.1697   -8.0243  -15.0735 O   0  0  0  0  0  0  0  0  0  0  0  0
   11.3097   -9.2651   -6.7206 N   0  0  0  0  0  0  0  0  0  0  0  0
   11.3936   -7.8543   -6.7882 C   0  0  0  0  0  0  0  0  0  0  0  0
   10.5886   -7.0945   -6.1385 N   0  0  0  0  0  0  0  0  0  0  0  0
   12.3892   -7.2088   -7.5920 N   0  0  0  0  0  0  0  0  0  0  0  0
   13.4338   -7.9649   -8.2665 C   0  0  0  0  0  0  0  0  0  0  0  0
   14.3698   -6.9742   -8.9059 C   0  0  0  0  0  0  0  0  0  0  0  0
   15.4856   -7.5990   -9.6612 C   0  0  0  0  0  0  0  0  0  0  0  0
   16.3979   -6.6113  -10.3712 C   0  0  2  0  0  0  0  0  0  0  0  0
   17.4608   -7.4565  -10.9523 N   0  0  0  0  0  0  0  0  0  0  0  0
   17.0255   -5.7417   -9.3652 C   0  0  0  0  0  0  0  0  0  0  0  0
   18.1679   -6.0426   -8.9176 O   0  0  0  0  0  0  0  0  0  0  0  0
   16.4567   -4.5944   -8.8539 O   0  0  0  0  0  0  0  0  0  0  0  0
  2  1  1  6
  2  3  1  0
  4  3  1  0
  4  5  1  0
  5  6  2  0
  7  2  1  0
  8  7  2  0
  9  5  1  0
 10  7  1  0
 11 10  1  0
 12 13  1  0
 11 12  1  6
 13 14  1  0
 14 18  1  0
 14 15  2  0
 16 11  1  0
 16 17  2  0
 20 19  1  0
 21 20  2  0
 22 20  1  0
 23 22  1  0
 24 23  1  0
 25 24  1  0
 26 25  1  1
 26 27  1  0
 27 16  1  0
 28 26  1  0
 29 28  2  0
 30 28  1  0
M  END
$$$$
