EER.pdb
     RDKit          3D

 30 29  0  0  1  0  0  0  0  0999 V2000
   19.1503  -13.1778  -15.6649 N   0  0  0  0  0  0  0  0  0  0  0  0
   18.6709  -11.8631  -16.0242 C   0  0  1  0  0  0  0  0  0  0  0  0
   17.1417  -11.9501  -16.2622 C   0  0  0  0  0  0  0  0  0  0  0  0
   16.8845  -12.8827  -17.4298 C   0  0  0  0  0  0  0  0  0  0  0  0
   16.6646  -12.0749  -18.6496 C   0  0  0  0  0  0  0  0  0  0  0  0
   16.7555  -10.8050  -18.5784 O   0  0  0  0  0  0  0  0  0  0  0  0
   18.9763  -10.8045  -15.0605 C   0  0  0  0  0  0  0  0  0  0  0  0
   18.8078  -11.0343  -13.8300 O   0  0  0  0  0  0  0  0  0  0  0  0
   16.3602  -12.5891  -19.8995 O   0  0  0  0  0  0  0  0  0  0  0  0
   19.4576   -9.5066  -15.3336 N   0  0  0  0  0  0  0  0  0  0  0  0
   19.7650   -8.4918  -14.3881 C   0  0  1  0  0  0  0  0  0  0  0  0
   20.7757   -7.4784  -14.7473 C   0  0  0  0  0  0  0  0  0  0  0  0
   21.0508   -6.5947  -13.5317 C   0  0  0  0  0  0  0  0  0  0  0  0
   22.0601   -5.5622  -13.8078 C   0  0  0  0  0  0  0  0  0  0  0  0
   22.8488   -5.6881  -14.7659 O   0  0  0  0  0  0  0  0  0  0  0  0
   18.5170   -7.8228  -13.9673 C   0  0  0  0  0  0  0  0  0  0  0  0
   17.6352   -7.5652  -14.8626 O   0  0  0  0  0  0  0  0  0  0  0  0
   22.1603   -4.4308  -13.0165 O   0  0  0  0  0  0  0  0  0  0  0  0
   12.1600   -9.6541   -8.4769 N   0  0  0  0  0  0  0  0  0  0  0  0
   12.0134   -8.2712   -8.7378 C   0  0  0  0  0  0  0  0  0  0  0  0
   10.9727   -7.6173   -8.3681 N   0  0  0  0  0  0  0  0  0  0  0  0
   13.0294   -7.5364   -9.4321 N   0  0  0  0  0  0  0  0  0  0  0  0
   14.2475   -8.1775   -9.9040 C   0  0  0  0  0  0  0  0  0  0  0  0
   15.0030   -7.1669  -10.7253 C   0  0  0  0  0  0  0  0  0  0  0  0
   16.2680   -7.6852  -11.3055 C   0  0  0  0  0  0  0  0  0  0  0  0
   16.9360   -6.7492  -12.3004 C   0  0  2  0  0  0  0  0  0  0  0  0
   18.1984   -7.4333  -12.6467 N   0  0  0  0  0  0  0  0  0  0  0  0
   17.2859   -5.4990  -11.6101 C   0  0  0  0  0  0  0  0  0  0  0  0
   18.0321   -5.5459  -10.5917 O   0  0  0  0  0  0  0  0  0  0  0  0
   16.8560   -4.2451  -11.9897 O   0  0  0  0  0  0  0  0  0  0  0  0
  2  1  1  1
  2  3  1  0
  4  3  1  0
  4  5  1  0
  5  6  2  0
  7  2  1  0
  8  7  2  0
  9  5  1  0
 10  7  1  0
 11 10  1  0
 12 13  1  0
 11 12  1  6
 13 14  1  0
 14 18  1  0
 14 15  2  0
 16 11  1  0
 16 17  2  0
 20 19  1  0
 21 20  2  0
 22 20  1  0
 23 22  1  0
 24 23  1  0
 25 24  1  0
 26 25  1  1
 26 27  1  0
 27 16  1  0
 28 26  1  0
 29 28  2  0
 30 28  1  0
M  END
$$$$
