EER.pdb
     RDKit          3D

 30 29  0  0  1  0  0  0  0  0999 V2000
   19.9885   -7.6268  -17.3469 N   0  0  0  0  0  0  0  0  0  0  0  0
   19.6507   -8.5737  -16.3094 C   0  0  1  0  0  0  0  0  0  0  0  0
   20.8786   -8.7339  -15.3771 C   0  0  0  0  0  0  0  0  0  0  0  0
   21.7598   -9.8415  -15.9210 C   0  0  0  0  0  0  0  0  0  0  0  0
   23.0176   -9.8796  -15.1431 C   0  0  0  0  0  0  0  0  0  0  0  0
   23.2351   -8.9768  -14.2691 O   0  0  0  0  0  0  0  0  0  0  0  0
   18.4584   -8.2415  -15.5278 C   0  0  0  0  0  0  0  0  0  0  0  0
   18.0055   -7.0636  -15.5792 O   0  0  0  0  0  0  0  0  0  0  0  0
   24.0100  -10.8363  -15.2824 O   0  0  0  0  0  0  0  0  0  0  0  0
   17.7133   -9.0989  -14.6908 N   0  0  0  0  0  0  0  0  0  0  0  0
   16.5638   -8.7618  -13.9271 C   0  0  1  0  0  0  0  0  0  0  0  0
   15.5883   -9.8249  -13.6176 C   0  0  0  0  0  0  0  0  0  0  0  0
   14.3862   -9.2075  -12.9049 C   0  0  0  0  0  0  0  0  0  0  0  0
   13.3699  -10.2095  -12.5522 C   0  0  0  0  0  0  0  0  0  0  0  0
   12.3145   -9.8670  -11.9821 O   0  0  0  0  0  0  0  0  0  0  0  0
   16.9859   -8.0945  -12.6786 C   0  0  0  0  0  0  0  0  0  0  0  0
   17.9566   -8.6072  -12.0152 O   0  0  0  0  0  0  0  0  0  0  0  0
   13.5569  -11.5500  -12.8420 O   0  0  0  0  0  0  0  0  0  0  0  0
   14.6899   -0.1798   -8.9104 N   0  0  0  0  0  0  0  0  0  0  0  0
   15.6145   -0.8365   -8.0643 C   0  0  0  0  0  0  0  0  0  0  0  0
   16.0826   -0.2784   -7.0075 N   0  0  0  0  0  0  0  0  0  0  0  0
   16.0714   -2.1636   -8.3544 N   0  0  0  0  0  0  0  0  0  0  0  0
   15.6351   -2.8780   -9.5448 C   0  0  0  0  0  0  0  0  0  0  0  0
   16.4567   -4.1356   -9.6455 C   0  0  0  0  0  0  0  0  0  0  0  0
   16.0954   -5.0018  -10.7965 C   0  0  0  0  0  0  0  0  0  0  0  0
   16.9379   -6.2607  -10.9277 C   0  0  2  0  0  0  0  0  0  0  0  0
   16.4094   -6.9232  -12.1375 N   0  0  0  0  0  0  0  0  0  0  0  0
   16.6544   -7.1394   -9.7833 C   0  0  0  0  0  0  0  0  0  0  0  0
   15.5974   -7.8313   -9.7851 O   0  0  0  0  0  0  0  0  0  0  0  0
   17.4663   -7.2752   -8.6771 O   0  0  0  0  0  0  0  0  0  0  0  0
  2  1  1  6
  2  3  1  0
  4  3  1  0
  4  5  1  0
  5  6  2  0
  7  2  1  0
  8  7  2  0
  9  5  1  0
 10  7  1  0
 11 10  1  0
 12 13  1  0
 11 12  1  1
 13 14  1  0
 14 18  1  0
 14 15  2  0
 16 11  1  0
 16 17  2  0
 20 19  1  0
 21 20  2  0
 22 20  1  0
 23 22  1  0
 24 23  1  0
 25 24  1  0
 26 25  1  1
 26 27  1  0
 27 16  1  0
 28 26  1  0
 29 28  2  0
 30 28  1  0
M  END
$$$$
