EER.pdb
     RDKit          3D

 30 29  0  0  1  0  0  0  0  0999 V2000
   25.3248  -22.5472  -14.8447 N   0  0  0  0  0  0  0  0  0  0  0  0
   25.4531  -21.3559  -14.0375 C   0  0  1  0  0  0  0  0  0  0  0  0
   26.6250  -20.5107  -14.5989 C   0  0  0  0  0  0  0  0  0  0  0  0
   26.3899  -20.2775  -16.0786 C   0  0  0  0  0  0  0  0  0  0  0  0
   27.4932  -19.4508  -16.6153 C   0  0  0  0  0  0  0  0  0  0  0  0
   28.6705  -19.9389  -16.6593 O   0  0  0  0  0  0  0  0  0  0  0  0
   24.2418  -20.5407  -13.9341 C   0  0  0  0  0  0  0  0  0  0  0  0
   24.2134  -19.5960  -13.0962 O   0  0  0  0  0  0  0  0  0  0  0  0
   27.3588  -18.1557  -17.0888 O   0  0  0  0  0  0  0  0  0  0  0  0
   23.0512  -20.6725  -14.6796 N   0  0  0  0  0  0  0  0  0  0  0  0
   21.8504  -19.9322  -14.5115 C   0  0  1  0  0  0  0  0  0  0  0  0
   21.4412  -19.0025  -15.5819 C   0  0  0  0  0  0  0  0  0  0  0  0
   20.1731  -18.2690  -15.1487 C   0  0  0  0  0  0  0  0  0  0  0  0
   19.6426  -17.3965  -16.2062 C   0  0  0  0  0  0  0  0  0  0  0  0
   20.3296  -16.4575  -16.6560 O   0  0  0  0  0  0  0  0  0  0  0  0
   20.7426  -20.8615  -14.2089 C   0  0  0  0  0  0  0  0  0  0  0  0
   20.8465  -22.0778  -14.6028 O   0  0  0  0  0  0  0  0  0  0  0  0
   18.3751  -17.5935  -16.7267 O   0  0  0  0  0  0  0  0  0  0  0  0
   17.7483  -25.1968   -7.6083 N   0  0  0  0  0  0  0  0  0  0  0  0
   17.9701  -25.8672   -8.8344 C   0  0  0  0  0  0  0  0  0  0  0  0
   17.7723  -27.1287   -8.9638 N   0  0  0  0  0  0  0  0  0  0  0  0
   18.4293  -25.1597   -9.9932 N   0  0  0  0  0  0  0  0  0  0  0  0
   18.6982  -23.7300   -9.9580 C   0  0  0  0  0  0  0  0  0  0  0  0
   18.1604  -23.1358  -11.2325 C   0  0  0  0  0  0  0  0  0  0  0  0
   19.0948  -22.1945  -11.9007 C   0  0  0  0  0  0  0  0  0  0  0  0
   18.5378  -21.5344  -13.1521 C   0  0  2  0  0  0  0  0  0  0  0  0
   19.5581  -20.5292  -13.5135 N   0  0  0  0  0  0  0  0  0  0  0  0
   17.3096  -20.8087  -12.7956 C   0  0  0  0  0  0  0  0  0  0  0  0
   17.3890  -19.5961  -12.4502 O   0  0  0  0  0  0  0  0  0  0  0  0
   16.0436  -21.3549  -12.8055 O   0  0  0  0  0  0  0  0  0  0  0  0
  2  1  1  6
  2  3  1  0
  4  3  1  0
  4  5  1  0
  5  6  2  0
  7  2  1  0
  8  7  2  0
  9  5  1  0
 10  7  1  0
 11 10  1  0
 12 13  1  0
 11 12  1  6
 13 14  1  0
 14 18  1  0
 14 15  2  0
 16 11  1  0
 16 17  2  0
 20 19  1  0
 21 20  2  0
 22 20  1  0
 23 22  1  0
 24 23  1  0
 25 24  1  0
 26 25  1  1
 26 27  1  0
 27 16  1  0
 28 26  1  0
 29 28  2  0
 30 28  1  0
M  END
$$$$
