EER.pdb
     RDKit          3D

 30 29  0  0  1  0  0  0  0  0999 V2000
   19.6286  -12.9966  -15.7139 N   0  0  0  0  0  0  0  0  0  0  0  0
   19.2981  -11.6717  -16.1857 C   0  0  1  0  0  0  0  0  0  0  0  0
   17.7982  -11.4106  -15.8941 C   0  0  0  0  0  0  0  0  0  0  0  0
   16.9693  -12.1006  -16.9599 C   0  0  0  0  0  0  0  0  0  0  0  0
   16.0602  -13.0690  -16.3085 C   0  0  0  0  0  0  0  0  0  0  0  0
   15.0225  -12.6381  -15.7055 O   0  0  0  0  0  0  0  0  0  0  0  0
   20.1188  -10.5921  -15.6348 C   0  0  0  0  0  0  0  0  0  0  0  0
   20.1613  -10.4383  -14.3819 O   0  0  0  0  0  0  0  0  0  0  0  0
   16.2396  -14.4427  -16.2944 O   0  0  0  0  0  0  0  0  0  0  0  0
   20.9055   -9.6619  -16.3467 N   0  0  0  0  0  0  0  0  0  0  0  0
   21.7402   -8.6513  -15.7989 C   0  0  1  0  0  0  0  0  0  0  0  0
   22.7471   -8.0199  -16.6735 C   0  0  0  0  0  0  0  0  0  0  0  0
   23.5059   -6.9596  -15.8773 C   0  0  0  0  0  0  0  0  0  0  0  0
   24.5705   -6.3230  -16.6662 C   0  0  0  0  0  0  0  0  0  0  0  0
   24.3875   -5.2066  -17.1917 O   0  0  0  0  0  0  0  0  0  0  0  0
   20.8994   -7.6093  -15.1748 C   0  0  0  0  0  0  0  0  0  0  0  0
   19.9275   -7.1247  -15.8574 O   0  0  0  0  0  0  0  0  0  0  0  0
   25.7955   -6.9423  -16.8449 O   0  0  0  0  0  0  0  0  0  0  0  0
   16.0821   -7.3938   -8.0872 N   0  0  0  0  0  0  0  0  0  0  0  0
   15.9885   -6.0973   -8.6460 C   0  0  0  0  0  0  0  0  0  0  0  0
   15.2195   -5.1979   -8.1490 N   0  0  0  0  0  0  0  0  0  0  0  0
   16.7547   -5.7309   -9.8005 N   0  0  0  0  0  0  0  0  0  0  0  0
   17.5647   -6.7030  -10.5191 C   0  0  0  0  0  0  0  0  0  0  0  0
   18.3865   -5.9494  -11.5306 C   0  0  0  0  0  0  0  0  0  0  0  0
   19.3235   -6.8036  -12.3039 C   0  0  0  0  0  0  0  0  0  0  0  0
   20.1818   -6.0503  -13.3079 C   0  0  2  0  0  0  0  0  0  0  0  0
   21.0693   -7.0873  -13.8726 N   0  0  0  0  0  0  0  0  0  0  0  0
   21.0281   -5.0930  -12.5803 C   0  0  0  0  0  0  0  0  0  0  0  0
   22.1546   -5.4699  -12.1500 O   0  0  0  0  0  0  0  0  0  0  0  0
   20.6868   -3.7828  -12.3196 O   0  0  0  0  0  0  0  0  0  0  0  0
  2  1  1  1
  2  3  1  0
  4  3  1  0
  4  5  1  0
  5  6  2  0
  7  2  1  0
  8  7  2  0
  9  5  1  0
 10  7  1  0
 11 10  1  0
 12 13  1  0
 11 12  1  6
 13 14  1  0
 14 18  1  0
 14 15  2  0
 16 11  1  0
 16 17  2  0
 20 19  1  0
 21 20  2  0
 22 20  1  0
 23 22  1  0
 24 23  1  0
 25 24  1  0
 26 25  1  1
 26 27  1  0
 27 16  1  0
 28 26  1  0
 29 28  2  0
 30 28  1  0
M  END
$$$$
