HAC.pdb
     RDKit          3D

 22 22  0  0  1  0  0  0  0  0999 V2000
    8.5057  -16.9504   19.3456 N   0  0  0  0  0  0  0  0  0  0  0  0
    8.3845  -15.7633   20.1537 C   0  0  1  0  0  0  0  0  0  0  0  0
    7.3417  -14.8294   19.5729 C   0  0  0  0  0  0  0  0  0  0  0  0
    7.7570  -14.3527   18.2256 C   0  0  0  0  0  0  0  0  0  0  0  0
    8.4762  -13.2236   17.9680 C   0  0  0  0  0  0  0  0  0  0  0  0
    8.6290  -13.1718   16.6283 N   0  0  0  0  0  0  0  0  0  0  0  0
    8.0299  -14.2228   16.0874 C   0  0  0  0  0  0  0  0  0  0  0  0
    7.4880  -14.9602   17.0557 N   0  0  0  0  0  0  0  0  0  0  0  0
    7.9579  -16.0815   21.5382 C   0  0  0  0  0  0  0  0  0  0  0  0
    7.0444  -16.9237   21.6863 O   0  0  0  0  0  0  0  0  0  0  0  0
    8.6867  -17.3202   24.3346 C   0  0  0  0  0  0  0  0  0  0  0  0
    8.1733  -15.9338   24.0024 C   0  0  2  0  0  0  0  0  0  0  0  0
    8.5141  -15.4974   22.6949 N   0  0  0  0  0  0  0  0  0  0  0  0
    8.7723  -15.0214   25.0080 C   0  0  0  0  0  0  0  0  0  0  0  0
   10.0148  -14.8467   24.9971 O   0  0  0  0  0  0  0  0  0  0  0  0
    8.0162  -14.3376   25.9792 N   0  0  0  0  0  0  0  0  0  0  0  0
    8.5582  -13.3512   26.8924 C   0  0  1  0  0  0  0  0  0  0  0  0
    7.4533  -12.3290   27.1295 C   0  0  0  0  0  0  0  0  0  0  0  0
    5.9088  -13.1103   27.6132 S   0  0  0  0  0  0  0  0  0  0  0  0
    8.8994  -14.0593   28.1542 C   0  0  0  0  0  0  0  0  0  0  0  0
    8.5555  -15.2499   28.3773 O   0  0  0  0  0  0  0  0  0  0  0  0
    9.6244  -13.4191   29.1518 O   0  0  0  0  0  0  0  0  0  0  0  0
  2  1  1  6
  2  3  1  0
  3  4  1  0
  4  5  2  0
  5  6  1  0
  7  6  1  0
  8  4  1  0
  8  7  2  0
  9 13  1  0
  9  2  1  0
 10  9  2  0
 12 11  1  1
 12 13  1  0
 12 14  1  0
 14 16  1  0
 15 14  2  0
 16 17  1  0
 17 20  1  0
 17 18  1  1
 18 19  1  0
 20 22  1  0
 21 20  2  0
M  END
$$$$
