HAC.pdb
     RDKit          3D

 22 22  0  0  1  0  0  0  0  0999 V2000
    6.7888  -16.9379   20.3172 N   0  0  0  0  0  0  0  0  0  0  0  0
    7.8542  -16.2485   21.0003 C   0  0  1  0  0  0  0  0  0  0  0  0
    7.5886  -14.7567   21.0299 C   0  0  0  0  0  0  0  0  0  0  0  0
    7.8095  -14.1581   19.6853 C   0  0  0  0  0  0  0  0  0  0  0  0
    8.2024  -14.8338   18.5684 C   0  0  0  0  0  0  0  0  0  0  0  0
    8.2795  -13.9171   17.5811 N   0  0  0  0  0  0  0  0  0  0  0  0
    7.9486  -12.7310   18.0706 C   0  0  0  0  0  0  0  0  0  0  0  0
    7.6564  -12.8607   19.3640 N   0  0  0  0  0  0  0  0  0  0  0  0
    7.9828  -16.6935   22.4094 C   0  0  0  0  0  0  0  0  0  0  0  0
    6.9910  -16.5474   23.1583 O   0  0  0  0  0  0  0  0  0  0  0  0
    9.8956  -19.0577   24.4681 C   0  0  0  0  0  0  0  0  0  0  0  0
    9.2097  -17.7166   24.3037 C   0  0  2  0  0  0  0  0  0  0  0  0
    9.1476  -17.2690   22.9576 N   0  0  0  0  0  0  0  0  0  0  0  0
    9.9911  -16.7524   25.1176 C   0  0  0  0  0  0  0  0  0  0  0  0
   10.9966  -16.2066   24.6025 O   0  0  0  0  0  0  0  0  0  0  0  0
    9.6620  -16.4158   26.4446 N   0  0  0  0  0  0  0  0  0  0  0  0
   10.4104  -15.4806   27.2607 C   0  0  1  0  0  0  0  0  0  0  0  0
    9.4005  -14.4773   27.8041 C   0  0  0  0  0  0  0  0  0  0  0  0
   10.1761  -13.2525   28.8663 S   0  0  0  0  0  0  0  0  0  0  0  0
   11.0277  -16.2575   28.3676 C   0  0  0  0  0  0  0  0  0  0  0  0
   10.5236  -17.3230   28.8108 O   0  0  0  0  0  0  0  0  0  0  0  0
   12.2064  -15.8266   28.9639 O   0  0  0  0  0  0  0  0  0  0  0  0
  2  1  1  1
  2  3  1  0
  3  4  1  0
  4  5  2  0
  5  6  1  0
  7  6  1  0
  8  4  1  0
  8  7  2  0
  9 13  1  0
  9  2  1  0
 10  9  2  0
 12 11  1  6
 12 13  1  0
 12 14  1  0
 14 16  1  0
 15 14  2  0
 16 17  1  0
 17 20  1  0
 17 18  1  1
 18 19  1  0
 20 22  1  0
 21 20  2  0
M  END
$$$$
