HAC.pdb
     RDKit          3D

 22 22  0  0  1  0  0  0  0  0999 V2000
   10.7253  -16.2310   15.6678 N   0  0  0  0  0  0  0  0  0  0  0  0
   10.6738  -15.3210   16.7841 C   0  0  1  0  0  0  0  0  0  0  0  0
    9.2798  -15.2868   17.3779 C   0  0  0  0  0  0  0  0  0  0  0  0
    8.3137  -14.6937   16.4137 C   0  0  0  0  0  0  0  0  0  0  0  0
    8.1261  -13.3616   16.1930 C   0  0  0  0  0  0  0  0  0  0  0  0
    7.1665  -13.2676   15.2490 N   0  0  0  0  0  0  0  0  0  0  0  0
    6.7820  -14.4882   14.9054 C   0  0  0  0  0  0  0  0  0  0  0  0
    7.4775  -15.3781   15.6121 N   0  0  0  0  0  0  0  0  0  0  0  0
   11.5973  -15.7301   17.8703 C   0  0  0  0  0  0  0  0  0  0  0  0
   11.8211  -16.9529   18.0138 O   0  0  0  0  0  0  0  0  0  0  0  0
   14.2407  -14.2195   20.0345 C   0  0  0  0  0  0  0  0  0  0  0  0
   13.1904  -15.2622   19.7098 C   0  0  2  0  0  0  0  0  0  0  0  0
   12.2374  -14.8320   18.7491 N   0  0  0  0  0  0  0  0  0  0  0  0
   12.5074  -15.5709   20.9908 C   0  0  0  0  0  0  0  0  0  0  0  0
   13.2027  -15.9272   21.9726 O   0  0  0  0  0  0  0  0  0  0  0  0
   11.1127  -15.4847   21.1639 N   0  0  0  0  0  0  0  0  0  0  0  0
   10.4167  -15.8384   22.3850 C   0  0  1  0  0  0  0  0  0  0  0  0
    9.0633  -15.1407   22.3283 C   0  0  0  0  0  0  0  0  0  0  0  0
    9.2300  -13.3513   22.3310 S   0  0  0  0  0  0  0  0  0  0  0  0
   10.2476  -17.3154   22.3836 C   0  0  0  0  0  0  0  0  0  0  0  0
   10.5837  -18.0350   21.4064 O   0  0  0  0  0  0  0  0  0  0  0  0
    9.7016  -17.9667   23.4829 O   0  0  0  0  0  0  0  0  0  0  0  0
  2  1  1  6
  2  3  1  0
  3  4  1  0
  4  5  2  0
  5  6  1  0
  7  6  1  0
  8  4  1  0
  8  7  2  0
  9 13  1  0
  9  2  1  0
 10  9  2  0
 12 11  1  1
 12 13  1  0
 12 14  1  0
 14 16  1  0
 15 14  2  0
 16 17  1  0
 17 20  1  0
 17 18  1  6
 18 19  1  0
 20 22  1  0
 21 20  2  0
M  END
$$$$
