HAC.pdb
     RDKit          3D

 22 22  0  0  1  0  0  0  0  0999 V2000
   11.3489  -18.0000   17.8981 N   0  0  0  0  0  0  0  0  0  0  0  0
   11.1472  -18.4414   19.2551 C   0  0  1  0  0  0  0  0  0  0  0  0
   11.7245  -19.8285   19.4539 C   0  0  0  0  0  0  0  0  0  0  0  0
   10.9315  -20.8390   18.7021 C   0  0  0  0  0  0  0  0  0  0  0  0
   10.1778  -21.8311   19.2553 C   0  0  0  0  0  0  0  0  0  0  0  0
    9.6344  -22.5109   18.2242 N   0  0  0  0  0  0  0  0  0  0  0  0
   10.0368  -21.9604   17.0880 C   0  0  0  0  0  0  0  0  0  0  0  0
   10.8357  -20.9303   17.3632 N   0  0  0  0  0  0  0  0  0  0  0  0
   11.8201  -17.5485   20.2298 C   0  0  0  0  0  0  0  0  0  0  0  0
   12.9102  -17.0352   19.8922 O   0  0  0  0  0  0  0  0  0  0  0  0
   11.0221  -15.8029   23.4801 C   0  0  0  0  0  0  0  0  0  0  0  0
   11.9182  -16.2748   22.3532 C   0  0  2  0  0  0  0  0  0  0  0  0
   11.3116  -17.2419   21.5088 N   0  0  0  0  0  0  0  0  0  0  0  0
   13.1206  -16.8568   22.9999 C   0  0  0  0  0  0  0  0  0  0  0  0
   13.0579  -18.0297   23.4413 O   0  0  0  0  0  0  0  0  0  0  0  0
   14.3347  -16.1588   23.1453 N   0  0  0  0  0  0  0  0  0  0  0  0
   15.5323  -16.7164   23.7415 C   0  0  1  0  0  0  0  0  0  0  0  0
   16.7108  -15.9961   23.0980 C   0  0  0  0  0  0  0  0  0  0  0  0
   16.8242  -16.3354   21.3367 S   0  0  0  0  0  0  0  0  0  0  0  0
   15.4732  -16.4301   25.1991 C   0  0  0  0  0  0  0  0  0  0  0  0
   14.5648  -15.7271   25.7152 O   0  0  0  0  0  0  0  0  0  0  0  0
   16.4378  -16.9385   26.0604 O   0  0  0  0  0  0  0  0  0  0  0  0
  2  1  1  6
  2  3  1  0
  3  4  1  0
  4  5  2  0
  5  6  1  0
  7  6  1  0
  8  4  1  0
  8  7  2  0
  9 13  1  0
  9  2  1  0
 10  9  2  0
 12 11  1  1
 12 13  1  0
 12 14  1  0
 14 16  1  0
 15 14  2  0
 16 17  1  0
 17 20  1  0
 17 18  1  6
 18 19  1  0
 20 22  1  0
 21 20  2  0
M  END
$$$$
