HAC.pdb
     RDKit          3D

 22 22  0  0  1  0  0  0  0  0999 V2000
    8.0129  -17.4907   18.2511 N   0  0  0  0  0  0  0  0  0  0  0  0
    8.7108  -16.5462   19.0864 C   0  0  1  0  0  0  0  0  0  0  0  0
    7.8763  -15.2974   19.2883 C   0  0  0  0  0  0  0  0  0  0  0  0
    7.7913  -14.5139   18.0258 C   0  0  0  0  0  0  0  0  0  0  0  0
    8.3835  -14.8440   16.8431 C   0  0  0  0  0  0  0  0  0  0  0  0
    8.0514  -13.8696   15.9706 N   0  0  0  0  0  0  0  0  0  0  0  0
    7.2890  -12.9806   16.5905 C   0  0  0  0  0  0  0  0  0  0  0  0
    7.1186  -13.3612   17.8559 N   0  0  0  0  0  0  0  0  0  0  0  0
    8.9895  -17.1032   20.4325 C   0  0  0  0  0  0  0  0  0  0  0  0
    8.0187  -17.2756   21.2030 O   0  0  0  0  0  0  0  0  0  0  0  0
   11.8448  -18.7174   22.3014 C   0  0  0  0  0  0  0  0  0  0  0  0
   10.4810  -18.0730   22.1575 C   0  0  2  0  0  0  0  0  0  0  0  0
   10.2745  -17.4499   20.8984 N   0  0  0  0  0  0  0  0  0  0  0  0
   10.3879  -17.0613   23.2393 C   0  0  0  0  0  0  0  0  0  0  0  0
   10.9702  -15.9606   23.0853 O   0  0  0  0  0  0  0  0  0  0  0  0
    9.6768  -17.2722   24.4361 N   0  0  0  0  0  0  0  0  0  0  0  0
    9.7558  -16.4086   25.5974 C   0  0  1  0  0  0  0  0  0  0  0  0
    8.4201  -15.6806   25.6860 C   0  0  0  0  0  0  0  0  0  0  0  0
    7.0300  -16.8175   25.6136 S   0  0  0  0  0  0  0  0  0  0  0  0
    9.9584  -17.2821   26.7831 C   0  0  0  0  0  0  0  0  0  0  0  0
    9.9314  -18.5390   26.7113 O   0  0  0  0  0  0  0  0  0  0  0  0
   10.1892  -16.7310   28.0376 O   0  0  0  0  0  0  0  0  0  0  0  0
  2  1  1  6
  2  3  1  0
  3  4  1  0
  4  5  2  0
  5  6  1  0
  7  6  1  0
  8  4  1  0
  8  7  2  0
  9 13  1  0
  9  2  1  0
 10  9  2  0
 12 11  1  6
 12 13  1  0
 12 14  1  0
 14 16  1  0
 15 14  2  0
 16 17  1  0
 17 20  1  0
 17 18  1  1
 18 19  1  0
 20 22  1  0
 21 20  2  0
M  END
$$$$
