HAC.pdb
     RDKit          3D

 22 22  0  0  1  0  0  0  0  0999 V2000
    6.9850  -17.1916   19.2614 N   0  0  0  0  0  0  0  0  0  0  0  0
    7.8188  -16.2023   19.8963 C   0  0  1  0  0  0  0  0  0  0  0  0
    7.4293  -14.8094   19.4435 C   0  0  0  0  0  0  0  0  0  0  0  0
    7.8519  -14.5787   18.0352 C   0  0  0  0  0  0  0  0  0  0  0  0
    8.5462  -15.4581   17.2586 C   0  0  0  0  0  0  0  0  0  0  0  0
    8.7168  -14.8529   16.0647 N   0  0  0  0  0  0  0  0  0  0  0  0
    8.1522  -13.6548   16.1066 C   0  0  0  0  0  0  0  0  0  0  0  0
    7.6152  -13.4694   17.3117 N   0  0  0  0  0  0  0  0  0  0  0  0
    7.6807  -16.2321   21.3728 C   0  0  0  0  0  0  0  0  0  0  0  0
    6.5283  -16.1378   21.8513 O   0  0  0  0  0  0  0  0  0  0  0  0
    9.6807  -17.2319   24.3754 C   0  0  0  0  0  0  0  0  0  0  0  0
    8.5728  -16.4745   23.6720 C   0  0  2  0  0  0  0  0  0  0  0  0
    8.7617  -16.3596   22.2694 N   0  0  0  0  0  0  0  0  0  0  0  0
    8.5430  -15.1240   24.2867 C   0  0  0  0  0  0  0  0  0  0  0  0
    9.3064  -14.2387   23.8309 O   0  0  0  0  0  0  0  0  0  0  0  0
    7.6989  -14.7815   25.3603 N   0  0  0  0  0  0  0  0  0  0  0  0
    7.6383  -13.4660   25.9655 C   0  0  1  0  0  0  0  0  0  0  0  0
    6.1617  -13.1017   26.0603 C   0  0  0  0  0  0  0  0  0  0  0  0
    5.8981  -11.6173   27.0385 S   0  0  0  0  0  0  0  0  0  0  0  0
    8.2409  -13.5760   27.3201 C   0  0  0  0  0  0  0  0  0  0  0  0
    8.3568  -14.6755   27.9228 O   0  0  0  0  0  0  0  0  0  0  0  0
    8.7068  -12.4465   27.9819 O   0  0  0  0  0  0  0  0  0  0  0  0
  2  1  1  6
  2  3  1  0
  3  4  1  0
  4  5  2  0
  5  6  1  0
  7  6  1  0
  8  4  1  0
  8  7  2  0
  9 13  1  0
  9  2  1  0
 10  9  2  0
 12 11  1  1
 12 13  1  0
 12 14  1  0
 14 16  1  0
 15 14  2  0
 16 17  1  0
 17 20  1  0
 17 18  1  1
 18 19  1  0
 20 22  1  0
 21 20  2  0
M  END
$$$$
