HAC.pdb
     RDKit          3D

 22 22  0  0  1  0  0  0  0  0999 V2000
    7.5157  -17.4659   19.2366 N   0  0  0  0  0  0  0  0  0  0  0  0
    8.0916  -16.3296   19.9105 C   0  0  1  0  0  0  0  0  0  0  0  0
    7.3967  -15.0516   19.4857 C   0  0  0  0  0  0  0  0  0  0  0  0
    7.8511  -14.6329   18.1317 C   0  0  0  0  0  0  0  0  0  0  0  0
    8.7610  -15.2912   17.3590 C   0  0  0  0  0  0  0  0  0  0  0  0
    8.8781  -14.5745   16.2217 N   0  0  0  0  0  0  0  0  0  0  0  0
    8.0754  -13.5226   16.2932 C   0  0  0  0  0  0  0  0  0  0  0  0
    7.4357  -13.5427   17.4617 N   0  0  0  0  0  0  0  0  0  0  0  0
    7.9472  -16.4321   21.3832 C   0  0  0  0  0  0  0  0  0  0  0  0
    6.7887  -16.5063   21.8503 O   0  0  0  0  0  0  0  0  0  0  0  0
    9.9653  -17.3651   24.3684 C   0  0  0  0  0  0  0  0  0  0  0  0
    8.8430  -16.6089   23.6868 C   0  0  2  0  0  0  0  0  0  0  0  0
    9.0286  -16.4512   22.2879 N   0  0  0  0  0  0  0  0  0  0  0  0
    8.7888  -15.2770   24.3392 C   0  0  0  0  0  0  0  0  0  0  0  0
    9.6207  -14.4036   23.9936 O   0  0  0  0  0  0  0  0  0  0  0  0
    7.8481  -14.9394   25.3310 N   0  0  0  0  0  0  0  0  0  0  0  0
    7.7749  -13.6468   25.9826 C   0  0  1  0  0  0  0  0  0  0  0  0
    6.2937  -13.3345   26.1572 C   0  0  0  0  0  0  0  0  0  0  0  0
    6.0314  -11.8567   27.1457 S   0  0  0  0  0  0  0  0  0  0  0  0
    8.4434  -13.7809   27.3037 C   0  0  0  0  0  0  0  0  0  0  0  0
    8.5665  -14.8876   27.8915 O   0  0  0  0  0  0  0  0  0  0  0  0
    8.9664  -12.6670   27.9490 O   0  0  0  0  0  0  0  0  0  0  0  0
  2  1  1  6
  2  3  1  0
  3  4  1  0
  4  5  2  0
  5  6  1  0
  7  6  1  0
  8  4  1  0
  8  7  2  0
  9 13  1  0
  9  2  1  0
 10  9  2  0
 12 11  1  1
 12 13  1  0
 12 14  1  0
 14 16  1  0
 15 14  2  0
 16 17  1  0
 17 20  1  0
 17 18  1  1
 18 19  1  0
 20 22  1  0
 21 20  2  0
M  END
$$$$
