HAC.pdb
     RDKit          3D

 22 22  0  0  1  0  0  0  0  0999 V2000
    9.1526  -22.4079   23.9877 N   0  0  0  0  0  0  0  0  0  0  0  0
    9.9116  -21.2761   24.4566 C   0  0  1  0  0  0  0  0  0  0  0  0
   10.9647  -20.8845   23.4395 C   0  0  0  0  0  0  0  0  0  0  0  0
   12.0215  -21.9287   23.3505 C   0  0  0  0  0  0  0  0  0  0  0  0
   13.0925  -22.0499   24.1851 C   0  0  0  0  0  0  0  0  0  0  0  0
   13.7899  -23.1201   23.7501 N   0  0  0  0  0  0  0  0  0  0  0  0
   13.1740  -23.6332   22.6950 C   0  0  0  0  0  0  0  0  0  0  0  0
   12.0840  -22.9126   22.4350 N   0  0  0  0  0  0  0  0  0  0  0  0
    9.0513  -20.0867   24.6690 C   0  0  0  0  0  0  0  0  0  0  0  0
    8.6379  -19.4794   23.6560 O   0  0  0  0  0  0  0  0  0  0  0  0
    6.9641  -18.5568   27.3659 C   0  0  0  0  0  0  0  0  0  0  0  0
    7.7769  -18.5048   26.0883 C   0  0  2  0  0  0  0  0  0  0  0  0
    8.6704  -19.5978   25.9357 N   0  0  0  0  0  0  0  0  0  0  0  0
    8.5423  -17.2343   26.1391 C   0  0  0  0  0  0  0  0  0  0  0  0
    8.5968  -16.5232   25.1067 O   0  0  0  0  0  0  0  0  0  0  0  0
    9.2143  -16.7818   27.2907 N   0  0  0  0  0  0  0  0  0  0  0  0
    9.7006  -15.4291   27.4754 C   0  0  1  0  0  0  0  0  0  0  0  0
    8.4696  -14.5348   27.5563 C   0  0  0  0  0  0  0  0  0  0  0  0
    8.9051  -12.8206   27.8755 S   0  0  0  0  0  0  0  0  0  0  0  0
   10.4547  -15.4030   28.7563 C   0  0  0  0  0  0  0  0  0  0  0  0
   10.2454  -16.2298   29.6828 O   0  0  0  0  0  0  0  0  0  0  0  0
   11.4369  -14.4461   28.9806 O   0  0  0  0  0  0  0  0  0  0  0  0
  2  1  1  6
  2  3  1  0
  3  4  1  0
  4  5  2  0
  5  6  1  0
  7  6  1  0
  8  4  1  0
  8  7  2  0
  9 13  1  0
  9  2  1  0
 10  9  2  0
 12 11  1  1
 12 13  1  0
 12 14  1  0
 14 16  1  0
 15 14  2  0
 16 17  1  0
 17 20  1  0
 17 18  1  1
 18 19  1  0
 20 22  1  0
 21 20  2  0
M  END
$$$$
