HAC.pdb
     RDKit          3D

 22 22  0  0  1  0  0  0  0  0999 V2000
    6.0292  -15.2122   19.9133 N   0  0  0  0  0  0  0  0  0  0  0  0
    7.3422  -15.1790   20.5065 C   0  0  1  0  0  0  0  0  0  0  0  0
    8.0578  -13.8940   20.1413 C   0  0  0  0  0  0  0  0  0  0  0  0
    8.4016  -13.8786   18.6933 C   0  0  0  0  0  0  0  0  0  0  0  0
    9.6341  -14.1253   18.1655 C   0  0  0  0  0  0  0  0  0  0  0  0
    9.5013  -14.0084   16.8278 N   0  0  0  0  0  0  0  0  0  0  0  0
    8.2427  -13.7035   16.5469 C   0  0  0  0  0  0  0  0  0  0  0  0
    7.5519  -13.6196   17.6830 N   0  0  0  0  0  0  0  0  0  0  0  0
    7.2784  -15.2334   21.9874 C   0  0  0  0  0  0  0  0  0  0  0  0
    6.6272  -14.3409   22.5747 O   0  0  0  0  0  0  0  0  0  0  0  0
    7.5489  -17.5912   24.7849 C   0  0  0  0  0  0  0  0  0  0  0  0
    7.8260  -16.2248   24.1914 C   0  0  2  0  0  0  0  0  0  0  0  0
    7.9028  -16.2236   22.7736 N   0  0  0  0  0  0  0  0  0  0  0  0
    9.1216  -15.7825   24.7645 C   0  0  0  0  0  0  0  0  0  0  0  0
    9.8143  -14.9584   24.1201 O   0  0  0  0  0  0  0  0  0  0  0  0
    9.6174  -16.2410   26.0000 N   0  0  0  0  0  0  0  0  0  0  0  0
   10.2760  -15.4003   26.9798 C   0  0  1  0  0  0  0  0  0  0  0  0
    9.2683  -14.3283   27.3763 C   0  0  0  0  0  0  0  0  0  0  0  0
   10.0265  -13.0215   28.3496 S   0  0  0  0  0  0  0  0  0  0  0  0
   10.6133  -16.2613   28.1438 C   0  0  0  0  0  0  0  0  0  0  0  0
   11.7866  -16.3718   28.5875 O   0  0  0  0  0  0  0  0  0  0  0  0
    9.6257  -16.9892   28.7960 O   0  0  0  0  0  0  0  0  0  0  0  0
  2  1  1  6
  2  3  1  0
  3  4  1  0
  4  5  2  0
  5  6  1  0
  7  6  1  0
  8  4  1  0
  8  7  2  0
  9 13  1  0
  9  2  1  0
 10  9  2  0
 12 11  1  1
 12 13  1  0
 12 14  1  0
 14 16  1  0
 15 14  2  0
 16 17  1  0
 17 20  1  0
 17 18  1  1
 18 19  1  0
 20 22  1  0
 21 20  2  0
M  END
$$$$
