DAN.pdb
     RDKit          3D

 22 21  0  0  1  0  0  0  0  0999 V2000
    8.9711  -16.0634   15.2773 N   0  0  0  0  0  0  0  0  0  0  0  0
    8.0609  -16.0896   16.3813 C   0  0  1  0  0  0  0  0  0  0  0  0
    7.6833  -17.5562   16.6218 C   0  0  0  0  0  0  0  0  0  0  0  0
    6.9372  -18.0691   15.4352 C   0  0  0  0  0  0  0  0  0  0  0  0
    7.0786  -19.2857   15.0893 O   0  0  0  0  0  0  0  0  0  0  0  0
    8.6357  -15.5893   17.6546 C   0  0  0  0  0  0  0  0  0  0  0  0
    9.7205  -16.0952   18.0412 O   0  0  0  0  0  0  0  0  0  0  0  0
    6.0995  -17.2638   14.7055 O   0  0  0  0  0  0  0  0  0  0  0  0
    7.6093  -13.0692   20.2259 C   0  0  0  0  0  0  0  0  0  0  0  0
    8.6180  -14.0652   19.6890 C   0  0  2  0  0  0  0  0  0  0  0  0
    8.0574  -14.5931   18.4613 N   0  0  0  0  0  0  0  0  0  0  0  0
    8.8459  -15.1532   20.6852 C   0  0  0  0  0  0  0  0  0  0  0  0
    7.9281  -15.9649   20.8641 O   0  0  0  0  0  0  0  0  0  0  0  0
   11.2078  -18.3671   20.5700 N   0  0  0  0  0  0  0  0  0  0  0  0
   12.1050  -17.6823   21.4100 C   0  0  0  0  0  0  0  0  0  0  0  0
   13.3358  -17.9879   21.2967 O   0  0  0  0  0  0  0  0  0  0  0  0
   11.7725  -16.6515   22.3994 C   0  0  0  0  0  0  0  0  0  0  0  0
   10.3547  -16.2184   22.4243 C   0  0  2  0  0  0  0  0  0  0  0  0
   10.0504  -15.2474   21.3854 N   0  0  0  0  0  0  0  0  0  0  0  0
    9.8859  -15.7423   23.7468 C   0  0  0  0  0  0  0  0  0  0  0  0
    9.7303  -14.4451   24.1508 O   0  0  0  0  0  0  0  0  0  0  0  0
    9.5919  -16.6456   24.6131 O   0  0  0  0  0  0  0  0  0  0  0  0
  2  1  1  6
  3  2  1  0
  3  4  1  0
  4  5  2  0
  6  2  1  0
  6 11  1  0
  7  6  2  0
  8  4  1  0
 10 11  1  0
 10  9  1  1
 12 10  1  0
 12 19  1  0
 13 12  2  0
 15 14  1  0
 16 15  2  0
 17 15  1  0
 18 19  1  0
 18 17  1  1
 20 18  1  0
 21 20  1  0
 22 20  2  0
M  END
$$$$
