DAN.pdb
     RDKit          3D

 22 21  0  0  1  0  0  0  0  0999 V2000
   10.5684  -17.1425   19.6355 N   0  0  0  0  0  0  0  0  0  0  0  0
   11.2523  -17.7663   20.7268 C   0  0  1  0  0  0  0  0  0  0  0  0
   12.7535  -17.6859   20.4253 C   0  0  0  0  0  0  0  0  0  0  0  0
   13.0463  -18.4717   19.1906 C   0  0  0  0  0  0  0  0  0  0  0  0
   12.1088  -19.1284   18.6339 O   0  0  0  0  0  0  0  0  0  0  0  0
   11.0496  -17.0945   22.0343 C   0  0  0  0  0  0  0  0  0  0  0  0
   11.8175  -16.1412   22.3234 O   0  0  0  0  0  0  0  0  0  0  0  0
   14.3010  -18.5051   18.6363 O   0  0  0  0  0  0  0  0  0  0  0  0
    8.3748  -17.0620   24.5980 C   0  0  0  0  0  0  0  0  0  0  0  0
    9.8182  -16.7743   24.2351 C   0  0  2  0  0  0  0  0  0  0  0  0
   10.0641  -17.4453   22.9743 N   0  0  0  0  0  0  0  0  0  0  0  0
   10.7280  -17.2873   25.3014 C   0  0  0  0  0  0  0  0  0  0  0  0
   10.9581  -18.5039   25.3191 O   0  0  0  0  0  0  0  0  0  0  0  0
   14.0836  -14.6797   25.1685 N   0  0  0  0  0  0  0  0  0  0  0  0
   14.1662  -15.7456   26.0832 C   0  0  0  0  0  0  0  0  0  0  0  0
   14.9824  -16.6794   25.7956 O   0  0  0  0  0  0  0  0  0  0  0  0
   13.4140  -15.8924   27.3340 C   0  0  0  0  0  0  0  0  0  0  0  0
   12.2434  -16.8005   27.2769 C   0  0  2  0  0  0  0  0  0  0  0  0
   11.2957  -16.4235   26.2404 N   0  0  0  0  0  0  0  0  0  0  0  0
   11.5573  -16.9930   28.5760 C   0  0  0  0  0  0  0  0  0  0  0  0
   12.0883  -17.5180   29.7216 O   0  0  0  0  0  0  0  0  0  0  0  0
   10.3264  -16.6270   28.6370 O   0  0  0  0  0  0  0  0  0  0  0  0
  2  1  1  6
  3  2  1  0
  3  4  1  0
  4  5  2  0
  6  2  1  0
  6 11  1  0
  7  6  2  0
  8  4  1  0
 10 11  1  0
 10  9  1  1
 12 10  1  0
 12 19  1  0
 13 12  2  0
 15 14  1  0
 16 15  2  0
 17 15  1  0
 18 19  1  0
 18 17  1  1
 20 18  1  0
 21 20  1  0
 22 20  2  0
M  END
$$$$
