DAN.pdb
     RDKit          3D

 22 21  0  0  1  0  0  0  0  0999 V2000
    6.7331  -18.1697   19.9385 N   0  0  0  0  0  0  0  0  0  0  0  0
    7.6117  -17.2585   20.6059 C   0  0  1  0  0  0  0  0  0  0  0  0
    7.6884  -15.9916   19.7454 C   0  0  0  0  0  0  0  0  0  0  0  0
    8.5501  -16.2603   18.5567 C   0  0  0  0  0  0  0  0  0  0  0  0
    9.2099  -17.3472   18.4992 O   0  0  0  0  0  0  0  0  0  0  0  0
    7.1384  -16.8290   21.9452 C   0  0  0  0  0  0  0  0  0  0  0  0
    6.1537  -16.0478   21.9908 O   0  0  0  0  0  0  0  0  0  0  0  0
    8.6501  -15.3665   17.5205 O   0  0  0  0  0  0  0  0  0  0  0  0
    7.0296  -18.1714   25.2369 C   0  0  0  0  0  0  0  0  0  0  0  0
    7.2286  -16.8700   24.4853 C   0  0  2  0  0  0  0  0  0  0  0  0
    7.7096  -17.2293   23.1663 N   0  0  0  0  0  0  0  0  0  0  0  0
    8.2170  -16.0098   25.2002 C   0  0  0  0  0  0  0  0  0  0  0  0
    9.4147  -16.1718   24.9311 O   0  0  0  0  0  0  0  0  0  0  0  0
    5.6170  -12.0878   26.8491 N   0  0  0  0  0  0  0  0  0  0  0  0
    6.9764  -12.3414   26.5895 C   0  0  0  0  0  0  0  0  0  0  0  0
    7.4267  -11.9355   25.4699 O   0  0  0  0  0  0  0  0  0  0  0  0
    7.9295  -13.0209   27.4737 C   0  0  0  0  0  0  0  0  0  0  0  0
    8.6702  -14.1546   26.8701 C   0  0  2  0  0  0  0  0  0  0  0  0
    7.8011  -15.0600   26.1355 N   0  0  0  0  0  0  0  0  0  0  0  0
    9.5261  -14.8998   27.8227 C   0  0  0  0  0  0  0  0  0  0  0  0
   10.6285  -14.4327   28.4835 O   0  0  0  0  0  0  0  0  0  0  0  0
    9.1995  -16.1210   28.0566 O   0  0  0  0  0  0  0  0  0  0  0  0
  2  1  1  6
  3  2  1  0
  3  4  1  0
  4  5  2  0
  6  2  1  0
  6 11  1  0
  7  6  2  0
  8  4  1  0
 10 11  1  0
 10  9  1  1
 12 10  1  0
 12 19  1  0
 13 12  2  0
 15 14  1  0
 16 15  2  0
 17 15  1  0
 18 19  1  0
 18 17  1  1
 20 18  1  0
 21 20  1  0
 22 20  2  0
M  END
$$$$
