DAN.pdb
     RDKit          3D

 22 21  0  0  1  0  0  0  0  0999 V2000
   12.0944  -17.4272   14.6329 N   0  0  0  0  0  0  0  0  0  0  0  0
   11.8657  -18.1457   15.8491 C   0  0  1  0  0  0  0  0  0  0  0  0
   13.1073  -19.0083   16.1053 C   0  0  0  0  0  0  0  0  0  0  0  0
   13.3683  -19.8568   14.9055 C   0  0  0  0  0  0  0  0  0  0  0  0
   12.4079  -20.5088   14.3834 O   0  0  0  0  0  0  0  0  0  0  0  0
   11.7008  -17.2809   17.0437 C   0  0  0  0  0  0  0  0  0  0  0  0
   12.4599  -16.2835   17.1487 O   0  0  0  0  0  0  0  0  0  0  0  0
   14.6179  -19.9530   14.3470 O   0  0  0  0  0  0  0  0  0  0  0  0
    9.3216  -17.1471   19.9237 C   0  0  0  0  0  0  0  0  0  0  0  0
   10.5961  -16.6758   19.2518 C   0  0  2  0  0  0  0  0  0  0  0  0
   10.7604  -17.4944   18.0673 N   0  0  0  0  0  0  0  0  0  0  0  0
   11.7550  -16.8361   20.1788 C   0  0  0  0  0  0  0  0  0  0  0  0
   12.3065  -17.9441   20.2172 O   0  0  0  0  0  0  0  0  0  0  0  0
   14.3879  -13.4689   19.5346 N   0  0  0  0  0  0  0  0  0  0  0  0
   14.7866  -14.4259   20.4859 C   0  0  0  0  0  0  0  0  0  0  0  0
   15.7653  -15.1739   20.1641 O   0  0  0  0  0  0  0  0  0  0  0  0
   14.1959  -14.6501   21.8098 C   0  0  0  0  0  0  0  0  0  0  0  0
   13.2951  -15.8223   21.9213 C   0  0  2  0  0  0  0  0  0  0  0  0
   12.1964  -15.7733   20.9698 N   0  0  0  0  0  0  0  0  0  0  0  0
   12.7959  -16.0793   23.2925 C   0  0  0  0  0  0  0  0  0  0  0  0
   13.5276  -16.4745   24.3781 O   0  0  0  0  0  0  0  0  0  0  0  0
   11.5360  -15.9134   23.4873 O   0  0  0  0  0  0  0  0  0  0  0  0
  2  1  1  6
  3  2  1  0
  3  4  1  0
  4  5  2  0
  6  2  1  0
  6 11  1  0
  7  6  2  0
  8  4  1  0
 10 11  1  0
 10  9  1  1
 12 10  1  0
 12 19  1  0
 13 12  2  0
 15 14  1  0
 16 15  2  0
 17 15  1  0
 18 19  1  0
 18 17  1  1
 20 18  1  0
 21 20  1  0
 22 20  2  0
M  END
$$$$
