DAN.pdb
     RDKit          3D

 22 21  0  0  1  0  0  0  0  0999 V2000
    9.2644  -15.9656   15.1815 N   0  0  0  0  0  0  0  0  0  0  0  0
    9.0361  -16.1206   16.5856 C   0  0  1  0  0  0  0  0  0  0  0  0
    9.9856  -17.2185   17.0800 C   0  0  0  0  0  0  0  0  0  0  0  0
    9.5869  -18.5204   16.4686 C   0  0  0  0  0  0  0  0  0  0  0  0
    8.3671  -18.8811   16.5128 O   0  0  0  0  0  0  0  0  0  0  0  0
    9.3397  -14.9097   17.3879 C   0  0  0  0  0  0  0  0  0  0  0  0
   10.4868  -14.4072   17.2706 O   0  0  0  0  0  0  0  0  0  0  0  0
   10.5008  -19.3412   15.8573 O   0  0  0  0  0  0  0  0  0  0  0  0
    7.3979  -12.6304   19.6176 C   0  0  0  0  0  0  0  0  0  0  0  0
    8.7314  -13.1301   19.0982 C   0  0  2  0  0  0  0  0  0  0  0  0
    8.4412  -14.2834   18.2700 N   0  0  0  0  0  0  0  0  0  0  0  0
    9.6210  -13.4996   20.2384 C   0  0  0  0  0  0  0  0  0  0  0  0
   10.0320  -12.5828   20.9622 O   0  0  0  0  0  0  0  0  0  0  0  0
    7.4502  -16.2032   22.2354 N   0  0  0  0  0  0  0  0  0  0  0  0
    8.6770  -15.9213   22.8641 C   0  0  0  0  0  0  0  0  0  0  0  0
    8.6211  -15.2496   23.9443 O   0  0  0  0  0  0  0  0  0  0  0  0
   10.0124  -16.3225   22.4083 C   0  0  0  0  0  0  0  0  0  0  0  0
   10.7473  -15.3150   21.6066 C   0  0  2  0  0  0  0  0  0  0  0  0
    9.9726  -14.8301   20.4754 N   0  0  0  0  0  0  0  0  0  0  0  0
   12.0983  -15.7455   21.1766 C   0  0  0  0  0  0  0  0  0  0  0  0
   13.2556  -15.0196   21.2375 O   0  0  0  0  0  0  0  0  0  0  0  0
   12.1976  -16.9321   20.6920 O   0  0  0  0  0  0  0  0  0  0  0  0
  2  1  1  6
  3  2  1  0
  3  4  1  0
  4  5  2  0
  6  2  1  0
  6 11  1  0
  7  6  2  0
  8  4  1  0
 10 11  1  0
 10  9  1  1
 12 10  1  0
 12 19  1  0
 13 12  2  0
 15 14  1  0
 16 15  2  0
 17 15  1  0
 18 19  1  0
 18 17  1  6
 20 18  1  0
 21 20  1  0
 22 20  2  0
M  END
$$$$
