DAN.pdb
     RDKit          3D

 22 21  0  0  1  0  0  0  0  0999 V2000
    7.9704  -15.8827   15.9649 N   0  0  0  0  0  0  0  0  0  0  0  0
    8.6580  -14.6392   15.7955 C   0  0  1  0  0  0  0  0  0  0  0  0
    7.7351  -13.7182   14.9885 C   0  0  0  0  0  0  0  0  0  0  0  0
    7.3097  -14.4226   13.7433 C   0  0  0  0  0  0  0  0  0  0  0  0
    7.6160  -15.6479   13.5859 O   0  0  0  0  0  0  0  0  0  0  0  0
    8.9535  -13.9304   17.0653 C   0  0  0  0  0  0  0  0  0  0  0  0
    9.5616  -12.8320   16.9900 O   0  0  0  0  0  0  0  0  0  0  0  0
    6.5943  -13.7849   12.7614 O   0  0  0  0  0  0  0  0  0  0  0  0
    7.9128  -13.7843   20.5329 C   0  0  0  0  0  0  0  0  0  0  0  0
    9.1060  -13.8751   19.6022 C   0  0  2  0  0  0  0  0  0  0  0  0
    8.6055  -14.3960   18.3458 N   0  0  0  0  0  0  0  0  0  0  0  0
   10.1423  -14.7792   20.1823 C   0  0  0  0  0  0  0  0  0  0  0  0
    9.7487  -15.7913   20.7771 O   0  0  0  0  0  0  0  0  0  0  0  0
   14.5712  -13.2210   18.2621 N   0  0  0  0  0  0  0  0  0  0  0  0
   14.1025  -14.4318   18.8043 C   0  0  0  0  0  0  0  0  0  0  0  0
   13.8039  -15.3490   17.9733 O   0  0  0  0  0  0  0  0  0  0  0  0
   13.9251  -14.7496   20.2254 C   0  0  0  0  0  0  0  0  0  0  0  0
   12.5933  -15.2800   20.6038 C   0  0  2  0  0  0  0  0  0  0  0  0
   11.5026  -14.4899   20.0554 N   0  0  0  0  0  0  0  0  0  0  0  0
   12.4127  -15.4925   22.0589 C   0  0  0  0  0  0  0  0  0  0  0  0
   11.3969  -15.0206   22.8435 O   0  0  0  0  0  0  0  0  0  0  0  0
   13.3079  -16.1982   22.6534 O   0  0  0  0  0  0  0  0  0  0  0  0
  2  1  1  1
  3  2  1  0
  3  4  1  0
  4  5  2  0
  6  2  1  0
  6 11  1  0
  7  6  2  0
  8  4  1  0
 10 11  1  0
 10  9  1  1
 12 10  1  0
 12 19  1  0
 13 12  2  0
 15 14  1  0
 16 15  2  0
 17 15  1  0
 18 19  1  0
 18 17  1  1
 20 18  1  0
 21 20  1  0
 22 20  2  0
M  END
$$$$
