DAN.pdb
     RDKit          3D

 22 21  0  0  1  0  0  0  0  0999 V2000
   10.3324  -16.2895   19.9585 N   0  0  0  0  0  0  0  0  0  0  0  0
   10.0381  -17.0627   21.1261 C   0  0  1  0  0  0  0  0  0  0  0  0
   11.0608  -18.2038   21.1828 C   0  0  0  0  0  0  0  0  0  0  0  0
   11.1240  -18.8695   19.8484 C   0  0  0  0  0  0  0  0  0  0  0  0
   10.0837  -19.4400   19.3876 O   0  0  0  0  0  0  0  0  0  0  0  0
   10.1725  -16.3140   22.4003 C   0  0  0  0  0  0  0  0  0  0  0  0
   11.3162  -15.8901   22.7076 O   0  0  0  0  0  0  0  0  0  0  0  0
   12.2750  -18.8828   19.1018 O   0  0  0  0  0  0  0  0  0  0  0  0
    7.8307  -15.0688   25.0305 C   0  0  0  0  0  0  0  0  0  0  0  0
    9.2406  -15.3968   24.5802 C   0  0  2  0  0  0  0  0  0  0  0  0
    9.1171  -16.0446   23.2898 N   0  0  0  0  0  0  0  0  0  0  0  0
    9.8998  -16.2976   25.5711 C   0  0  0  0  0  0  0  0  0  0  0  0
    9.4975  -17.4669   25.6359 O   0  0  0  0  0  0  0  0  0  0  0  0
   14.5177  -15.5018   25.4755 N   0  0  0  0  0  0  0  0  0  0  0  0
   13.7759  -16.4890   26.1499 C   0  0  0  0  0  0  0  0  0  0  0  0
   13.7038  -17.6291   25.5878 O   0  0  0  0  0  0  0  0  0  0  0  0
   13.0801  -16.3440   27.4332 C   0  0  0  0  0  0  0  0  0  0  0  0
   11.6220  -16.6114   27.4073 C   0  0  2  0  0  0  0  0  0  0  0  0
   10.9309  -15.8341   26.3909 N   0  0  0  0  0  0  0  0  0  0  0  0
   10.9537  -16.4747   28.7227 C   0  0  0  0  0  0  0  0  0  0  0  0
    9.8622  -15.7062   29.0195 O   0  0  0  0  0  0  0  0  0  0  0  0
   11.4521  -17.1521   29.6951 O   0  0  0  0  0  0  0  0  0  0  0  0
  2  1  1  6
  3  2  1  0
  3  4  1  0
  4  5  2  0
  6  2  1  0
  6 11  1  0
  7  6  2  0
  8  4  1  0
 10 11  1  0
 10  9  1  1
 12 10  1  0
 12 19  1  0
 13 12  2  0
 15 14  1  0
 16 15  2  0
 17 15  1  0
 18 19  1  0
 18 17  1  1
 20 18  1  0
 21 20  1  0
 22 20  2  0
M  END
$$$$
