DAN.pdb
     RDKit          3D

 22 21  0  0  1  0  0  0  0  0999 V2000
    9.6358  -16.7342   20.4909 N   0  0  0  0  0  0  0  0  0  0  0  0
   10.1184  -17.5504   21.5627 C   0  0  1  0  0  0  0  0  0  0  0  0
   11.6287  -17.3089   21.6708 C   0  0  0  0  0  0  0  0  0  0  0  0
   12.2809  -17.7149   20.3911 C   0  0  0  0  0  0  0  0  0  0  0  0
   12.0707  -18.8817   19.9283 O   0  0  0  0  0  0  0  0  0  0  0  0
    9.5431  -17.2144   22.8887 C   0  0  0  0  0  0  0  0  0  0  0  0
    9.5998  -16.0140   23.2598 O   0  0  0  0  0  0  0  0  0  0  0  0
   13.1018  -16.8625   19.6967 O   0  0  0  0  0  0  0  0  0  0  0  0
    7.4128  -18.9648   25.3798 C   0  0  0  0  0  0  0  0  0  0  0  0
    8.3655  -17.8312   25.0555 C   0  0  2  0  0  0  0  0  0  0  0  0
    8.9406  -18.1383   23.7613 N   0  0  0  0  0  0  0  0  0  0  0  0
    9.4245  -17.7347   26.1031 C   0  0  0  0  0  0  0  0  0  0  0  0
   10.4538  -18.4027   25.9376 O   0  0  0  0  0  0  0  0  0  0  0  0
    9.2154  -13.0577   28.5173 N   0  0  0  0  0  0  0  0  0  0  0  0
    9.9453  -14.2250   28.2272 C   0  0  0  0  0  0  0  0  0  0  0  0
   10.6343  -14.2133   27.1566 O   0  0  0  0  0  0  0  0  0  0  0  0
    9.9988  -15.4520   29.0295 C   0  0  0  0  0  0  0  0  0  0  0  0
   10.2397  -16.7042   28.2732 C   0  0  2  0  0  0  0  0  0  0  0  0
    9.2555  -16.9200   27.2246 N   0  0  0  0  0  0  0  0  0  0  0  0
   10.3819  -17.9108   29.1213 C   0  0  0  0  0  0  0  0  0  0  0  0
    9.5847  -19.0219   29.1185 O   0  0  0  0  0  0  0  0  0  0  0  0
   11.3621  -17.9179   29.9532 O   0  0  0  0  0  0  0  0  0  0  0  0
  2  1  1  6
  3  2  1  0
  3  4  1  0
  4  5  2  0
  6  2  1  0
  6 11  1  0
  7  6  2  0
  8  4  1  0
 10 11  1  0
 10  9  1  1
 12 10  1  0
 12 19  1  0
 13 12  2  0
 15 14  1  0
 16 15  2  0
 17 15  1  0
 18 19  1  0
 18 17  1  1
 20 18  1  0
 21 20  1  0
 22 20  2  0
M  END
$$$$
