DAN.pdb
     RDKit          3D

 22 21  0  0  1  0  0  0  0  0999 V2000
    8.9523  -16.1949   15.9439 N   0  0  0  0  0  0  0  0  0  0  0  0
    8.4326  -16.3752   17.2649 C   0  0  1  0  0  0  0  0  0  0  0  0
    9.0724  -17.6475   17.8332 C   0  0  0  0  0  0  0  0  0  0  0  0
    8.8914  -18.7626   16.8578 C   0  0  0  0  0  0  0  0  0  0  0  0
    9.7890  -19.6602   16.7650 O   0  0  0  0  0  0  0  0  0  0  0  0
    8.7705  -15.2784   18.2056 C   0  0  0  0  0  0  0  0  0  0  0  0
    9.9884  -15.0183   18.3819 O   0  0  0  0  0  0  0  0  0  0  0  0
    7.7806  -18.8484   16.0570 O   0  0  0  0  0  0  0  0  0  0  0  0
    6.8130  -12.8197   20.2364 C   0  0  0  0  0  0  0  0  0  0  0  0
    8.1385  -13.4453   19.8495 C   0  0  2  0  0  0  0  0  0  0  0  0
    7.8308  -14.5096   18.9152 N   0  0  0  0  0  0  0  0  0  0  0  0
    8.8278  -13.9788   21.0613 C   0  0  0  0  0  0  0  0  0  0  0  0
    9.2170  -13.1592   21.9039 O   0  0  0  0  0  0  0  0  0  0  0  0
   10.7860  -19.1920   23.6266 N   0  0  0  0  0  0  0  0  0  0  0  0
    9.8752  -18.1200   23.6552 C   0  0  0  0  0  0  0  0  0  0  0  0
    9.5119  -17.7132   24.8056 O   0  0  0  0  0  0  0  0  0  0  0  0
    9.3031  -17.4200   22.4999 C   0  0  0  0  0  0  0  0  0  0  0  0
    9.6457  -15.9820   22.3857 C   0  0  2  0  0  0  0  0  0  0  0  0
    9.0231  -15.3508   21.2330 N   0  0  0  0  0  0  0  0  0  0  0  0
   11.0991  -15.6967   22.4239 C   0  0  0  0  0  0  0  0  0  0  0  0
   11.8800  -15.2437   21.3967 O   0  0  0  0  0  0  0  0  0  0  0  0
   11.6958  -15.8956   23.5451 O   0  0  0  0  0  0  0  0  0  0  0  0
  2  1  1  6
  3  2  1  0
  3  4  1  0
  4  5  2  0
  6  2  1  0
  6 11  1  0
  7  6  2  0
  8  4  1  0
 10 11  1  0
 10  9  1  1
 12 10  1  0
 12 19  1  0
 13 12  2  0
 15 14  1  0
 16 15  2  0
 17 15  1  0
 18 19  1  0
 18 17  1  6
 20 18  1  0
 21 20  1  0
 22 20  2  0
M  END
$$$$
