DAN.pdb
     RDKit          3D

 22 21  0  0  1  0  0  0  0  0999 V2000
   13.7706  -16.7237   19.1560 N   0  0  0  0  0  0  0  0  0  0  0  0
   13.5025  -17.6363   20.2251 C   0  0  1  0  0  0  0  0  0  0  0  0
   14.8515  -18.1982   20.6895 C   0  0  0  0  0  0  0  0  0  0  0  0
   15.5282  -18.8597   19.5353 C   0  0  0  0  0  0  0  0  0  0  0  0
   15.4731  -18.3153   18.3862 O   0  0  0  0  0  0  0  0  0  0  0  0
   12.8756  -17.0102   21.4155 C   0  0  0  0  0  0  0  0  0  0  0  0
   13.5739  -16.2062   22.0850 O   0  0  0  0  0  0  0  0  0  0  0  0
   16.2112  -20.0410   19.6790 O   0  0  0  0  0  0  0  0  0  0  0  0
    9.4267  -16.8458   22.8115 C   0  0  0  0  0  0  0  0  0  0  0  0
   10.9156  -16.6212   22.9868 C   0  0  2  0  0  0  0  0  0  0  0  0
   11.5602  -17.2498   21.8512 N   0  0  0  0  0  0  0  0  0  0  0  0
   11.3790  -17.2279   24.2695 C   0  0  0  0  0  0  0  0  0  0  0  0
   11.5212  -18.4576   24.3009 O   0  0  0  0  0  0  0  0  0  0  0  0
   14.5446  -14.6735   25.6166 N   0  0  0  0  0  0  0  0  0  0  0  0
   14.3147  -15.7981   26.4304 C   0  0  0  0  0  0  0  0  0  0  0  0
   15.2221  -16.6912   26.4355 O   0  0  0  0  0  0  0  0  0  0  0  0
   13.1421  -16.0481   27.2757 C   0  0  0  0  0  0  0  0  0  0  0  0
   12.0958  -16.9152   26.6828 C   0  0  2  0  0  0  0  0  0  0  0  0
   11.6412  -16.4341   25.3880 N   0  0  0  0  0  0  0  0  0  0  0  0
   10.9476  -17.1851   27.5795 C   0  0  0  0  0  0  0  0  0  0  0  0
    9.6256  -16.9450   27.3249 O   0  0  0  0  0  0  0  0  0  0  0  0
   11.2201  -17.7022   28.7245 O   0  0  0  0  0  0  0  0  0  0  0  0
  2  1  1  6
  3  2  1  0
  3  4  1  0
  4  5  2  0
  6  2  1  0
  6 11  1  0
  7  6  2  0
  8  4  1  0
 10 11  1  0
 10  9  1  6
 12 10  1  0
 12 19  1  0
 13 12  2  0
 15 14  1  0
 16 15  2  0
 17 15  1  0
 18 19  1  0
 18 17  1  1
 20 18  1  0
 21 20  1  0
 22 20  2  0
M  END
$$$$
