DAN.pdb
     RDKit          3D

 22 21  0  0  1  0  0  0  0  0999 V2000
    9.7588  -18.1328   19.9835 N   0  0  0  0  0  0  0  0  0  0  0  0
   10.6947  -17.2251   20.5731 C   0  0  1  0  0  0  0  0  0  0  0  0
   11.5331  -16.6354   19.4326 C   0  0  0  0  0  0  0  0  0  0  0  0
   12.4838  -17.6743   18.9380 C   0  0  0  0  0  0  0  0  0  0  0  0
   12.3353  -18.8820   19.3110 O   0  0  0  0  0  0  0  0  0  0  0  0
   10.0684  -16.0756   21.2721 C   0  0  0  0  0  0  0  0  0  0  0  0
   10.8339  -15.2402   21.8182 O   0  0  0  0  0  0  0  0  0  0  0  0
   13.5156  -17.3632   18.0887 O   0  0  0  0  0  0  0  0  0  0  0  0
    6.8093  -14.3957   21.3092 C   0  0  0  0  0  0  0  0  0  0  0  0
    8.0490  -14.7704   22.0971 C   0  0  2  0  0  0  0  0  0  0  0  0
    8.6835  -15.8520   21.3705 N   0  0  0  0  0  0  0  0  0  0  0  0
    7.6712  -15.2003   23.4756 C   0  0  0  0  0  0  0  0  0  0  0  0
    6.4861  -15.0692   23.8098 O   0  0  0  0  0  0  0  0  0  0  0  0
    5.5206  -19.2399   25.3757 N   0  0  0  0  0  0  0  0  0  0  0  0
    6.5787  -18.4007   25.7705 C   0  0  0  0  0  0  0  0  0  0  0  0
    6.5905  -18.0364   26.9905 O   0  0  0  0  0  0  0  0  0  0  0  0
    7.6707  -17.9044   24.9261 C   0  0  0  0  0  0  0  0  0  0  0  0
    8.3576  -16.6848   25.4149 C   0  0  2  0  0  0  0  0  0  0  0  0
    8.6220  -15.7298   24.3506 N   0  0  0  0  0  0  0  0  0  0  0  0
    9.5835  -16.9503   26.2036 C   0  0  0  0  0  0  0  0  0  0  0  0
    9.6556  -17.3931   27.4954 O   0  0  0  0  0  0  0  0  0  0  0  0
   10.7056  -16.7428   25.6115 O   0  0  0  0  0  0  0  0  0  0  0  0
  2  1  1  6
  3  2  1  0
  3  4  1  0
  4  5  2  0
  6  2  1  0
  6 11  1  0
  7  6  2  0
  8  4  1  0
 10 11  1  0
 10  9  1  6
 12 10  1  0
 12 19  1  0
 13 12  2  0
 15 14  1  0
 16 15  2  0
 17 15  1  0
 18 19  1  0
 18 17  1  6
 20 18  1  0
 21 20  1  0
 22 20  2  0
M  END
$$$$
