DAN.pdb
     RDKit          3D

 22 21  0  0  1  0  0  0  0  0999 V2000
    9.1986  -18.6085   20.8663 N   0  0  0  0  0  0  0  0  0  0  0  0
   10.2394  -17.8187   21.4498 C   0  0  1  0  0  0  0  0  0  0  0  0
   10.8176  -16.9377   20.3359 C   0  0  0  0  0  0  0  0  0  0  0  0
   11.2495  -17.8060   19.2013 C   0  0  0  0  0  0  0  0  0  0  0  0
   12.0453  -18.7735   19.4260 O   0  0  0  0  0  0  0  0  0  0  0  0
    9.7770  -16.8973   22.5172 C   0  0  0  0  0  0  0  0  0  0  0  0
   10.6388  -16.1624   23.0643 O   0  0  0  0  0  0  0  0  0  0  0  0
   10.8104  -17.5906   17.9194 O   0  0  0  0  0  0  0  0  0  0  0  0
    6.5791  -15.5080   23.6785 C   0  0  0  0  0  0  0  0  0  0  0  0
    7.9850  -15.9404   24.0453 C   0  0  2  0  0  0  0  0  0  0  0  0
    8.4479  -16.7858   22.9631 N   0  0  0  0  0  0  0  0  0  0  0  0
    7.9724  -16.6849   25.3390 C   0  0  0  0  0  0  0  0  0  0  0  0
    7.3564  -16.1757   26.2847 O   0  0  0  0  0  0  0  0  0  0  0  0
    6.0223  -19.5648   25.7757 N   0  0  0  0  0  0  0  0  0  0  0  0
    7.0862  -20.4651   25.9694 C   0  0  0  0  0  0  0  0  0  0  0  0
    6.8511  -21.6882   25.7054 O   0  0  0  0  0  0  0  0  0  0  0  0
    8.4376  -20.1425   26.4400 C   0  0  0  0  0  0  0  0  0  0  0  0
    8.7064  -18.7054   26.6860 C   0  0  2  0  0  0  0  0  0  0  0  0
    8.6316  -17.9087   25.4717 N   0  0  0  0  0  0  0  0  0  0  0  0
    9.9669  -18.4374   27.4173 C   0  0  0  0  0  0  0  0  0  0  0  0
   11.2110  -18.2533   26.8803 O   0  0  0  0  0  0  0  0  0  0  0  0
    9.8862  -18.3698   28.6985 O   0  0  0  0  0  0  0  0  0  0  0  0
  2  1  1  6
  3  2  1  0
  3  4  1  0
  4  5  2  0
  6  2  1  0
  6 11  1  0
  7  6  2  0
  8  4  1  0
 10 11  1  0
 10  9  1  6
 12 10  1  0
 12 19  1  0
 13 12  2  0
 15 14  1  0
 16 15  2  0
 17 15  1  0
 18 19  1  0
 18 17  1  6
 20 18  1  0
 21 20  1  0
 22 20  2  0
M  END
$$$$
