DAN.pdb
     RDKit          3D

 22 21  0  0  1  0  0  0  0  0999 V2000
   10.1209  -17.1855   18.3371 N   0  0  0  0  0  0  0  0  0  0  0  0
   10.4933  -17.2959   19.7144 C   0  0  1  0  0  0  0  0  0  0  0  0
   12.0255  -17.2775   19.7717 C   0  0  0  0  0  0  0  0  0  0  0  0
   12.5581  -18.4089   18.9569 C   0  0  0  0  0  0  0  0  0  0  0  0
   13.7408  -18.3383   18.4919 O   0  0  0  0  0  0  0  0  0  0  0  0
   10.0274  -16.1703   20.5618 C   0  0  0  0  0  0  0  0  0  0  0  0
   10.9031  -15.4764   21.1395 O   0  0  0  0  0  0  0  0  0  0  0  0
   11.8070  -19.5270   18.6956 O   0  0  0  0  0  0  0  0  0  0  0  0
    6.7611  -14.4801   21.1559 C   0  0  0  0  0  0  0  0  0  0  0  0
    8.2045  -14.7067   21.5602 C   0  0  2  0  0  0  0  0  0  0  0  0
    8.6803  -15.8230   20.7679 N   0  0  0  0  0  0  0  0  0  0  0  0
    8.2875  -15.0112   23.0191 C   0  0  0  0  0  0  0  0  0  0  0  0
    7.7853  -14.1941   23.8024 O   0  0  0  0  0  0  0  0  0  0  0  0
    6.2430  -15.6507   25.4838 N   0  0  0  0  0  0  0  0  0  0  0  0
    6.5996  -17.0112   25.5230 C   0  0  0  0  0  0  0  0  0  0  0  0
    5.6874  -17.8282   25.8715 O   0  0  0  0  0  0  0  0  0  0  0  0
    7.9098  -17.5873   25.2015 C   0  0  0  0  0  0  0  0  0  0  0  0
    8.9746  -16.6129   24.8626 C   0  0  2  0  0  0  0  0  0  0  0  0
    8.9087  -16.1748   23.4775 N   0  0  0  0  0  0  0  0  0  0  0  0
   10.3435  -17.0599   25.2112 C   0  0  0  0  0  0  0  0  0  0  0  0
   11.1868  -16.5003   26.1309 O   0  0  0  0  0  0  0  0  0  0  0  0
   10.7918  -18.0872   24.5815 O   0  0  0  0  0  0  0  0  0  0  0  0
  2  1  1  6
  3  2  1  0
  3  4  1  0
  4  5  2  0
  6  2  1  0
  6 11  1  0
  7  6  2  0
  8  4  1  0
 10 11  1  0
 10  9  1  6
 12 10  1  0
 12 19  1  0
 13 12  2  0
 15 14  1  0
 16 15  2  0
 17 15  1  0
 18 19  1  0
 18 17  1  6
 20 18  1  0
 21 20  1  0
 22 20  2  0
M  END
$$$$
