DAN.pdb
     RDKit          3D

 22 21  0  0  1  0  0  0  0  0999 V2000
    6.4975  -18.6646   19.6874 N   0  0  0  0  0  0  0  0  0  0  0  0
    6.2493  -17.6100   20.6223 C   0  0  1  0  0  0  0  0  0  0  0  0
    6.1001  -18.2566   22.0047 C   0  0  0  0  0  0  0  0  0  0  0  0
    4.8189  -19.0209   22.0505 C   0  0  0  0  0  0  0  0  0  0  0  0
    3.9591  -18.8504   21.1277 O   0  0  0  0  0  0  0  0  0  0  0  0
    7.3541  -16.6259   20.7356 C   0  0  0  0  0  0  0  0  0  0  0  0
    8.5298  -17.0545   20.6078 O   0  0  0  0  0  0  0  0  0  0  0  0
    4.5417  -19.9059   23.0617 O   0  0  0  0  0  0  0  0  0  0  0  0
    7.5870  -12.9148   20.8414 C   0  0  0  0  0  0  0  0  0  0  0  0
    8.2448  -14.2652   21.0452 C   0  0  2  0  0  0  0  0  0  0  0  0
    7.1846  -15.2508   20.9763 N   0  0  0  0  0  0  0  0  0  0  0  0
    8.9306  -14.3078   22.3703 C   0  0  0  0  0  0  0  0  0  0  0  0
    9.8930  -13.5473   22.5398 O   0  0  0  0  0  0  0  0  0  0  0  0
    5.6281  -14.2062   25.6478 N   0  0  0  0  0  0  0  0  0  0  0  0
    7.0317  -14.1095   25.6661 C   0  0  0  0  0  0  0  0  0  0  0  0
    7.5217  -12.9367   25.5917 O   0  0  0  0  0  0  0  0  0  0  0  0
    7.9891  -15.2165   25.7653 C   0  0  0  0  0  0  0  0  0  0  0  0
    9.0433  -15.2496   24.7233 C   0  0  2  0  0  0  0  0  0  0  0  0
    8.4986  -15.1738   23.3770 N   0  0  0  0  0  0  0  0  0  0  0  0
    9.9885  -16.3837   24.8481 C   0  0  0  0  0  0  0  0  0  0  0  0
   10.4256  -17.2094   23.8495 O   0  0  0  0  0  0  0  0  0  0  0  0
   10.4513  -16.6211   26.0238 O   0  0  0  0  0  0  0  0  0  0  0  0
  2  1  1  6
  3  2  1  0
  3  4  1  0
  4  5  2  0
  6  2  1  0
  6 11  1  0
  7  6  2  0
  8  4  1  0
 10 11  1  0
 10  9  1  1
 12 10  1  0
 12 19  1  0
 13 12  2  0
 15 14  1  0
 16 15  2  0
 17 15  1  0
 18 19  1  0
 18 17  1  1
 20 18  1  0
 21 20  1  0
 22 20  2  0
M  END
$$$$
