KCH.pdb
     RDKit          3D

 26 26  0  0  1  0  0  0  0  0999 V2000
    7.4920  -16.4971   18.7638 N   0  0  0  0  0  0  0  0  0  0  0  0
    8.9098  -16.2070   18.6417 C   0  0  1  0  0  0  0  0  0  0  0  0
    9.1394  -15.0971   17.6994 C   0  0  0  0  0  0  0  0  0  0  0  0
    8.3057  -14.9516   16.4967 C   0  0  0  0  0  0  0  0  0  0  0  0
    8.4696  -13.8821   15.5245 C   0  0  0  0  0  0  0  0  0  0  0  0
    7.6232  -13.8493   14.3113 C   0  0  0  0  0  0  0  0  0  0  0  0
    7.9676  -12.6719   13.4816 N   0  0  0  0  0  0  0  0  0  0  0  0
    9.4271  -15.8118   20.0280 C   0  0  0  0  0  0  0  0  0  0  0  0
   10.6222  -15.4921   20.2112 O   0  0  0  0  0  0  0  0  0  0  0  0
    8.5649  -15.8004   21.1275 N   0  0  0  0  0  0  0  0  0  0  0  0
    9.0032  -15.5530   22.4689 C   0  0  1  0  0  0  0  0  0  0  0  0
    7.8980  -15.2676   23.4366 C   0  0  0  0  0  0  0  0  0  0  0  0
    7.0331  -13.7246   23.0311 S   0  0  0  0  0  0  0  0  0  0  0  0
    9.7577  -16.7232   22.9572 C   0  0  0  0  0  0  0  0  0  0  0  0
    9.6623  -17.8694   22.4270 O   0  0  0  0  0  0  0  0  0  0  0  0
   10.6368  -16.6062   24.0621 N   0  0  0  0  0  0  0  0  0  0  0  0
   11.6819  -17.5852   24.3185 C   0  0  1  0  0  0  0  0  0  0  0  0
   12.8092  -17.2813   23.3665 C   0  0  0  0  0  0  0  0  0  0  0  0
   12.6950  -18.0598   22.1207 C   0  0  0  0  0  0  0  0  0  0  0  0
   11.6786  -18.9619   21.8052 C   0  0  0  0  0  0  0  0  0  0  0  0
   11.9364  -19.4611   20.5838 N   0  0  0  0  0  0  0  0  0  0  0  0
   13.0740  -18.8927   20.1482 C   0  0  0  0  0  0  0  0  0  0  0  0
   13.5285  -18.0491   21.0761 N   0  0  0  0  0  0  0  0  0  0  0  0
   12.1302  -17.5308   25.7211 C   0  0  0  0  0  0  0  0  0  0  0  0
   11.6276  -16.6156   26.6405 O   0  0  0  0  0  0  0  0  0  0  0  0
   12.9961  -18.3299   26.1222 O   0  0  0  0  0  0  0  0  0  0  0  0
  2  3  1  0
  2  1  1  1
  4  3  1  0
  5  4  1  0
  6  7  1  0
  6  5  1  0
  8  2  1  0
  8  9  2  0
 10  8  1  0
 11 10  1  0
 11 12  1  1
 12 13  1  0
 14 11  1  0
 15 14  2  0
 16 14  1  0
 17 24  1  0
 17 16  1  0
 17 18  1  6
 19 23  1  0
 19 18  1  0
 20 19  2  0
 21 20  1  0
 21 22  1  0
 22 23  2  0
 24 25  1  0
 26 24  2  0
M  END
$$$$
