KCH.pdb
     RDKit          3D

 26 26  0  0  1  0  0  0  0  0999 V2000
    6.7978  -17.2237   20.4013 N   0  0  0  0  0  0  0  0  0  0  0  0
    8.2211  -16.9745   20.2558 C   0  0  1  0  0  0  0  0  0  0  0  0
    8.5015  -16.2459   19.0055 C   0  0  0  0  0  0  0  0  0  0  0  0
    7.9038  -16.6823   17.7346 C   0  0  0  0  0  0  0  0  0  0  0  0
    8.6372  -16.7576   16.4807 C   0  0  0  0  0  0  0  0  0  0  0  0
    7.9339  -17.1322   15.2339 C   0  0  0  0  0  0  0  0  0  0  0  0
    8.8715  -17.0916   14.0883 N   0  0  0  0  0  0  0  0  0  0  0  0
    8.6719  -16.1275   21.4494 C   0  0  0  0  0  0  0  0  0  0  0  0
    9.8638  -15.7736   21.5848 O   0  0  0  0  0  0  0  0  0  0  0  0
    7.7507  -15.7289   22.4215 N   0  0  0  0  0  0  0  0  0  0  0  0
    8.1215  -15.0411   23.6223 C   0  0  1  0  0  0  0  0  0  0  0  0
    6.9658  -14.5166   24.4152 C   0  0  0  0  0  0  0  0  0  0  0  0
    7.5072  -13.7789   25.9823 S   0  0  0  0  0  0  0  0  0  0  0  0
    8.9006  -15.9517   24.4832 C   0  0  0  0  0  0  0  0  0  0  0  0
    8.5027  -17.1152   24.7862 O   0  0  0  0  0  0  0  0  0  0  0  0
   10.1507  -15.5498   25.0150 N   0  0  0  0  0  0  0  0  0  0  0  0
   10.8898  -16.3825   25.9515 C   0  0  1  0  0  0  0  0  0  0  0  0
   11.8271  -15.4719   26.7010 C   0  0  0  0  0  0  0  0  0  0  0  0
   11.2042  -14.9364   27.9242 C   0  0  0  0  0  0  0  0  0  0  0  0
   10.6525  -13.6640   28.0767 C   0  0  0  0  0  0  0  0  0  0  0  0
   10.1894  -13.5647   29.3349 N   0  0  0  0  0  0  0  0  0  0  0  0
   10.4414  -14.7329   29.9503 C   0  0  0  0  0  0  0  0  0  0  0  0
   11.0527  -15.5570   29.0981 N   0  0  0  0  0  0  0  0  0  0  0  0
    9.9789  -17.0917   26.8671 C   0  0  0  0  0  0  0  0  0  0  0  0
   10.3013  -18.3067   27.4634 O   0  0  0  0  0  0  0  0  0  0  0  0
    8.8667  -16.5999   27.1327 O   0  0  0  0  0  0  0  0  0  0  0  0
  2  3  1  0
  2  1  1  1
  4  3  1  0
  5  4  1  0
  6  7  1  0
  6  5  1  0
  8  2  1  0
  8  9  2  0
 10  8  1  0
 11 10  1  0
 11 12  1  1
 12 13  1  0
 14 11  1  0
 15 14  2  0
 16 14  1  0
 17 24  1  0
 17 16  1  0
 17 18  1  1
 19 23  1  0
 19 18  1  0
 20 19  2  0
 21 20  1  0
 21 22  1  0
 22 23  2  0
 24 25  1  0
 26 24  2  0
M  END
$$$$
