KCH.pdb
     RDKit          3D

 26 26  0  0  1  0  0  0  0  0999 V2000
    7.8027  -15.6234   19.4460 N   0  0  0  0  0  0  0  0  0  0  0  0
    6.8002  -15.3153   20.4505 C   0  0  1  0  0  0  0  0  0  0  0  0
    5.8221  -16.4115   20.5697 C   0  0  0  0  0  0  0  0  0  0  0  0
    6.2591  -17.7690   20.9290 C   0  0  0  0  0  0  0  0  0  0  0  0
    5.3588  -18.9068   21.0322 C   0  0  0  0  0  0  0  0  0  0  0  0
    5.8960  -20.2486   21.3489 C   0  0  0  0  0  0  0  0  0  0  0  0
    6.7239  -20.7441   20.2254 N   0  0  0  0  0  0  0  0  0  0  0  0
    7.5211  -15.1298   21.7889 C   0  0  0  0  0  0  0  0  0  0  0  0
    8.6042  -15.7062   22.0315 O   0  0  0  0  0  0  0  0  0  0  0  0
    6.9774  -14.3041   22.7764 N   0  0  0  0  0  0  0  0  0  0  0  0
    7.6207  -14.0485   24.0307 C   0  0  1  0  0  0  0  0  0  0  0  0
    6.8714  -13.1162   24.9300 C   0  0  0  0  0  0  0  0  0  0  0  0
    7.7570  -12.8308   26.4880 S   0  0  0  0  0  0  0  0  0  0  0  0
    7.8178  -15.3247   24.7447 C   0  0  0  0  0  0  0  0  0  0  0  0
    6.9238  -16.2196   24.8071 O   0  0  0  0  0  0  0  0  0  0  0  0
    9.0416  -15.6031   25.4020 N   0  0  0  0  0  0  0  0  0  0  0  0
    9.4121  -16.9542   25.7942 C   0  0  1  0  0  0  0  0  0  0  0  0
    9.7682  -17.6943   24.5313 C   0  0  0  0  0  0  0  0  0  0  0  0
   10.1894  -19.0782   24.8113 C   0  0  0  0  0  0  0  0  0  0  0  0
   10.2394  -19.6844   26.0670 C   0  0  0  0  0  0  0  0  0  0  0  0
   10.6737  -20.9455   25.8978 N   0  0  0  0  0  0  0  0  0  0  0  0
   10.8886  -21.1245   24.5830 C   0  0  0  0  0  0  0  0  0  0  0  0
   10.5960  -19.9982   23.9313 N   0  0  0  0  0  0  0  0  0  0  0  0
   10.5349  -16.9429   26.7482 C   0  0  0  0  0  0  0  0  0  0  0  0
   10.7979  -17.9956   27.6190 O   0  0  0  0  0  0  0  0  0  0  0  0
   11.2944  -15.9578   26.7938 O   0  0  0  0  0  0  0  0  0  0  0  0
  2  3  1  0
  2  1  1  6
  4  3  1  0
  5  4  1  0
  6  7  1  0
  6  5  1  0
  8  2  1  0
  8  9  2  0
 10  8  1  0
 11 10  1  0
 11 12  1  1
 12 13  1  0
 14 11  1  0
 15 14  2  0
 16 14  1  0
 17 24  1  0
 17 16  1  0
 17 18  1  6
 19 23  1  0
 19 18  1  0
 20 19  2  0
 21 20  1  0
 21 22  1  0
 22 23  2  0
 24 25  1  0
 26 24  2  0
M  END
$$$$
