KCH.pdb
     RDKit          3D

 26 26  0  0  1  0  0  0  0  0999 V2000
    8.8395  -17.1133   16.0903 N   0  0  0  0  0  0  0  0  0  0  0  0
    7.9053  -16.8620   17.1734 C   0  0  1  0  0  0  0  0  0  0  0  0
    7.2811  -18.1168   17.6301 C   0  0  0  0  0  0  0  0  0  0  0  0
    8.0688  -19.3554   17.7199 C   0  0  0  0  0  0  0  0  0  0  0  0
    7.4892  -20.6647   17.9761 C   0  0  0  0  0  0  0  0  0  0  0  0
    8.3690  -21.8410   18.1537 C   0  0  0  0  0  0  0  0  0  0  0  0
    7.5553  -23.0516   18.4098 N   0  0  0  0  0  0  0  0  0  0  0  0
    8.6884  -16.2338   18.3299 C   0  0  0  0  0  0  0  0  0  0  0  0
    9.9138  -16.4378   18.4744 O   0  0  0  0  0  0  0  0  0  0  0  0
    8.0426  -15.4114   19.2567 N   0  0  0  0  0  0  0  0  0  0  0  0
    8.7148  -14.7846   20.3557 C   0  0  1  0  0  0  0  0  0  0  0  0
    7.9070  -13.7389   21.0581 C   0  0  0  0  0  0  0  0  0  0  0  0
    7.4940  -12.3577   19.9559 S   0  0  0  0  0  0  0  0  0  0  0  0
    9.0998  -15.8137   21.3406 C   0  0  0  0  0  0  0  0  0  0  0  0
    8.3470  -16.7854   21.6455 O   0  0  0  0  0  0  0  0  0  0  0  0
   10.3539  -15.7522   21.9968 N   0  0  0  0  0  0  0  0  0  0  0  0
   10.7487  -16.7375   22.9918 C   0  0  1  0  0  0  0  0  0  0  0  0
   12.2512  -16.6849   23.0875 C   0  0  0  0  0  0  0  0  0  0  0  0
   12.8935  -17.4020   21.9720 C   0  0  0  0  0  0  0  0  0  0  0  0
   12.2392  -18.1240   20.9734 C   0  0  0  0  0  0  0  0  0  0  0  0
   13.1749  -18.6248   20.1479 N   0  0  0  0  0  0  0  0  0  0  0  0
   14.3736  -18.2312   20.6119 C   0  0  0  0  0  0  0  0  0  0  0  0
   14.2008  -17.4949   21.7105 N   0  0  0  0  0  0  0  0  0  0  0  0
   10.1149  -16.4634   24.2934 C   0  0  0  0  0  0  0  0  0  0  0  0
   10.2199  -17.3239   25.3816 O   0  0  0  0  0  0  0  0  0  0  0  0
    9.4515  -15.4216   24.4482 O   0  0  0  0  0  0  0  0  0  0  0  0
  2  3  1  0
  2  1  1  6
  4  3  1  0
  5  4  1  0
  6  7  1  0
  6  5  1  0
  8  2  1  0
  8  9  2  0
 10  8  1  0
 11 10  1  0
 11 12  1  1
 12 13  1  0
 14 11  1  0
 15 14  2  0
 16 14  1  0
 17 24  1  0
 17 16  1  0
 17 18  1  1
 19 23  1  0
 19 18  1  0
 20 19  2  0
 21 20  1  0
 21 22  1  0
 22 23  2  0
 24 25  1  0
 26 24  2  0
M  END
$$$$
