KCH.pdb
     RDKit          3D

 26 26  0  0  1  0  0  0  0  0999 V2000
    7.9354  -18.0150   20.2726 N   0  0  0  0  0  0  0  0  0  0  0  0
    9.3872  -18.0257   20.3085 C   0  0  1  0  0  0  0  0  0  0  0  0
    9.9475  -17.7167   18.9806 C   0  0  0  0  0  0  0  0  0  0  0  0
    9.7406  -18.6329   17.8491 C   0  0  0  0  0  0  0  0  0  0  0  0
    8.9290  -18.3101   16.6860 C   0  0  0  0  0  0  0  0  0  0  0  0
    8.8479  -19.2595   15.5540 C   0  0  0  0  0  0  0  0  0  0  0  0
    8.0176  -18.6886   14.4688 N   0  0  0  0  0  0  0  0  0  0  0  0
    9.8379  -16.9590   21.3108 C   0  0  0  0  0  0  0  0  0  0  0  0
   11.0435  -16.6519   21.4382 O   0  0  0  0  0  0  0  0  0  0  0  0
    8.9010  -16.3007   22.1117 N   0  0  0  0  0  0  0  0  0  0  0  0
    9.2604  -15.3751   23.1444 C   0  0  1  0  0  0  0  0  0  0  0  0
    8.2430  -14.3073   23.3976 C   0  0  0  0  0  0  0  0  0  0  0  0
    6.9132  -14.8921   24.4851 S   0  0  0  0  0  0  0  0  0  0  0  0
    9.4823  -16.1131   24.4028 C   0  0  0  0  0  0  0  0  0  0  0  0
    8.6779  -16.9920   24.8322 O   0  0  0  0  0  0  0  0  0  0  0  0
   10.6290  -15.8607   25.1956 N   0  0  0  0  0  0  0  0  0  0  0  0
   10.9015  -16.6108   26.4119 C   0  0  1  0  0  0  0  0  0  0  0  0
    9.6313  -16.6071   27.2219 C   0  0  0  0  0  0  0  0  0  0  0  0
    9.3553  -15.2785   27.7963 C   0  0  0  0  0  0  0  0  0  0  0  0
    8.5229  -14.3025   27.2478 C   0  0  0  0  0  0  0  0  0  0  0  0
    8.5379  -13.2395   28.0708 N   0  0  0  0  0  0  0  0  0  0  0  0
    9.3507  -13.5376   29.0991 C   0  0  0  0  0  0  0  0  0  0  0  0
    9.8415  -14.7664   28.9309 N   0  0  0  0  0  0  0  0  0  0  0  0
   11.3416  -17.9829   26.1042 C   0  0  0  0  0  0  0  0  0  0  0  0
   11.7583  -18.8805   27.0821 O   0  0  0  0  0  0  0  0  0  0  0  0
   11.3487  -18.3772   24.9236 O   0  0  0  0  0  0  0  0  0  0  0  0
  2  3  1  0
  2  1  1  6
  4  3  1  0
  5  4  1  0
  6  7  1  0
  6  5  1  0
  8  2  1  0
  8  9  2  0
 10  8  1  0
 11 10  1  0
 11 12  1  1
 12 13  1  0
 14 11  1  0
 15 14  2  0
 16 14  1  0
 17 24  1  0
 17 16  1  0
 17 18  1  1
 19 23  1  0
 19 18  1  0
 20 19  2  0
 21 20  1  0
 21 22  1  0
 22 23  2  0
 24 25  1  0
 26 24  2  0
M  END
$$$$
