KCH.pdb
     RDKit          3D

 26 26  0  0  1  0  0  0  0  0999 V2000
    7.0592  -16.9430   18.6695 N   0  0  0  0  0  0  0  0  0  0  0  0
    8.4675  -17.1934   18.4178 C   0  0  1  0  0  0  0  0  0  0  0  0
    8.9046  -16.5318   17.1753 C   0  0  0  0  0  0  0  0  0  0  0  0
    8.3612  -15.2193   16.7950 C   0  0  0  0  0  0  0  0  0  0  0  0
    8.7240  -14.5178   15.5734 C   0  0  0  0  0  0  0  0  0  0  0  0
    8.1499  -13.1843   15.2880 C   0  0  0  0  0  0  0  0  0  0  0  0
    8.6965  -12.6557   14.0172 N   0  0  0  0  0  0  0  0  0  0  0  0
    9.2611  -16.6295   19.6001 C   0  0  0  0  0  0  0  0  0  0  0  0
   10.5105  -16.6768   19.6286 O   0  0  0  0  0  0  0  0  0  0  0  0
    8.5980  -16.0445   20.6820 N   0  0  0  0  0  0  0  0  0  0  0  0
    9.2779  -15.4635   21.8011 C   0  0  1  0  0  0  0  0  0  0  0  0
    8.4454  -14.5140   22.6042 C   0  0  0  0  0  0  0  0  0  0  0  0
    6.9656  -15.3220   23.2752 S   0  0  0  0  0  0  0  0  0  0  0  0
    9.7492  -16.5387   22.6951 C   0  0  0  0  0  0  0  0  0  0  0  0
    9.1724  -17.6632   22.7770 O   0  0  0  0  0  0  0  0  0  0  0  0
   10.8900  -16.3494   23.5137 N   0  0  0  0  0  0  0  0  0  0  0  0
   11.4146  -17.4126   24.3569 C   0  0  1  0  0  0  0  0  0  0  0  0
   12.9115  -17.4066   24.1880 C   0  0  0  0  0  0  0  0  0  0  0  0
   13.5577  -18.4372   25.0196 C   0  0  0  0  0  0  0  0  0  0  0  0
   13.0163  -19.0324   26.1595 C   0  0  0  0  0  0  0  0  0  0  0  0
   13.9138  -19.9175   26.6268 N   0  0  0  0  0  0  0  0  0  0  0  0
   14.9804  -19.8794   25.8095 C   0  0  0  0  0  0  0  0  0  0  0  0
   14.7629  -18.9868   24.8425 N   0  0  0  0  0  0  0  0  0  0  0  0
   11.0293  -17.2145   25.7652 C   0  0  0  0  0  0  0  0  0  0  0  0
   10.9915  -18.2517   26.6918 O   0  0  0  0  0  0  0  0  0  0  0  0
   10.7203  -16.0770   26.1650 O   0  0  0  0  0  0  0  0  0  0  0  0
  2  3  1  0
  2  1  1  1
  4  3  1  0
  5  4  1  0
  6  7  1  0
  6  5  1  0
  8  2  1  0
  8  9  2  0
 10  8  1  0
 11 10  1  0
 11 12  1  1
 12 13  1  0
 14 11  1  0
 15 14  2  0
 16 14  1  0
 17 24  1  0
 17 16  1  0
 17 18  1  1
 19 23  1  0
 19 18  1  0
 20 19  2  0
 21 20  1  0
 21 22  1  0
 22 23  2  0
 24 25  1  0
 26 24  2  0
M  END
$$$$
