KCH.pdb
     RDKit          3D

 26 26  0  0  1  0  0  0  0  0999 V2000
    8.2640  -17.4946   21.4324 N   0  0  0  0  0  0  0  0  0  0  0  0
    7.5246  -17.2308   22.6542 C   0  0  1  0  0  0  0  0  0  0  0  0
    7.0214  -18.4842   23.2444 C   0  0  0  0  0  0  0  0  0  0  0  0
    6.8230  -19.6782   22.4091 C   0  0  0  0  0  0  0  0  0  0  0  0
    7.3222  -20.9995   22.7568 C   0  0  0  0  0  0  0  0  0  0  0  0
    6.4645  -21.9389   23.5124 C   0  0  0  0  0  0  0  0  0  0  0  0
    5.2235  -22.2182   22.7541 N   0  0  0  0  0  0  0  0  0  0  0  0
    8.4791  -16.5519   23.6409 C   0  0  0  0  0  0  0  0  0  0  0  0
    9.7194  -16.6033   23.4884 O   0  0  0  0  0  0  0  0  0  0  0  0
    7.9781  -15.8542   24.7429 N   0  0  0  0  0  0  0  0  0  0  0  0
    8.8063  -15.1200   25.6526 C   0  0  1  0  0  0  0  0  0  0  0  0
    8.2125  -13.8297   26.1239 C   0  0  0  0  0  0  0  0  0  0  0  0
    9.2847  -12.9987   27.3292 S   0  0  0  0  0  0  0  0  0  0  0  0
    9.0934  -15.9579   26.8328 C   0  0  0  0  0  0  0  0  0  0  0  0
    8.1817  -16.4496   27.5616 O   0  0  0  0  0  0  0  0  0  0  0  0
   10.4291  -16.2504   27.2033 N   0  0  0  0  0  0  0  0  0  0  0  0
   10.7410  -17.1257   28.3227 C   0  0  1  0  0  0  0  0  0  0  0  0
   12.0789  -17.7524   28.0285 C   0  0  0  0  0  0  0  0  0  0  0  0
   11.9891  -18.7434   26.9417 C   0  0  0  0  0  0  0  0  0  0  0  0
   10.8156  -19.2047   26.3446 C   0  0  0  0  0  0  0  0  0  0  0  0
   11.1585  -20.0975   25.3997 N   0  0  0  0  0  0  0  0  0  0  0  0
   12.4993  -20.1931   25.4035 C   0  0  0  0  0  0  0  0  0  0  0  0
   12.9967  -19.3763   26.3333 N   0  0  0  0  0  0  0  0  0  0  0  0
   10.7621  -16.3790   29.5928 C   0  0  0  0  0  0  0  0  0  0  0  0
   10.7833  -17.0027   30.8363 O   0  0  0  0  0  0  0  0  0  0  0  0
   10.7614  -15.1344   29.5756 O   0  0  0  0  0  0  0  0  0  0  0  0
  2  3  1  0
  2  1  1  6
  4  3  1  0
  5  4  1  0
  6  7  1  0
  6  5  1  0
  8  2  1  0
  8  9  2  0
 10  8  1  0
 11 10  1  0
 11 12  1  1
 12 13  1  0
 14 11  1  0
 15 14  2  0
 16 14  1  0
 17 24  1  0
 17 16  1  0
 17 18  1  6
 19 23  1  0
 19 18  1  0
 20 19  2  0
 21 20  1  0
 21 22  1  0
 22 23  2  0
 24 25  1  0
 26 24  2  0
M  END
$$$$
