KCH.pdb
     RDKit          3D

 26 26  0  0  1  0  0  0  0  0999 V2000
    7.6436  -16.8673   13.9889 N   0  0  0  0  0  0  0  0  0  0  0  0
    8.8091  -16.1575   14.4858 C   0  0  1  0  0  0  0  0  0  0  0  0
    8.5243  -14.7188   14.6331 C   0  0  0  0  0  0  0  0  0  0  0  0
    8.2257  -13.8903   13.4554 C   0  0  0  0  0  0  0  0  0  0  0  0
    9.2238  -13.4873   12.4770 C   0  0  0  0  0  0  0  0  0  0  0  0
    8.8371  -12.6261   11.3376 C   0  0  0  0  0  0  0  0  0  0  0  0
    9.9693  -12.4930   10.3924 N   0  0  0  0  0  0  0  0  0  0  0  0
    9.1678  -16.7471   15.8529 C   0  0  0  0  0  0  0  0  0  0  0  0
    8.2840  -17.1390   16.6463 O   0  0  0  0  0  0  0  0  0  0  0  0
   10.5041  -16.8602   16.2455 N   0  0  0  0  0  0  0  0  0  0  0  0
   10.9132  -17.4552   17.4829 C   0  0  1  0  0  0  0  0  0  0  0  0
   12.1147  -18.3407   17.3744 C   0  0  0  0  0  0  0  0  0  0  0  0
   12.4636  -19.1924   18.9383 S   0  0  0  0  0  0  0  0  0  0  0  0
   11.2080  -16.3898   18.4604 C   0  0  0  0  0  0  0  0  0  0  0  0
   11.9562  -15.4034   18.1934 O   0  0  0  0  0  0  0  0  0  0  0  0
   10.6529  -16.4311   19.7632 N   0  0  0  0  0  0  0  0  0  0  0  0
   10.9882  -15.4381   20.7722 C   0  0  1  0  0  0  0  0  0  0  0  0
    9.7097  -15.0972   21.4923 C   0  0  0  0  0  0  0  0  0  0  0  0
    8.7998  -14.3085   20.6430 C   0  0  0  0  0  0  0  0  0  0  0  0
    9.0681  -13.8534   19.3517 C   0  0  0  0  0  0  0  0  0  0  0  0
    7.9892  -13.1758   18.9221 N   0  0  0  0  0  0  0  0  0  0  0  0
    7.0764  -13.2046   19.9085 C   0  0  0  0  0  0  0  0  0  0  0  0
    7.5676  -13.8875   20.9436 N   0  0  0  0  0  0  0  0  0  0  0  0
   12.0119  -15.9478   21.7014 C   0  0  0  0  0  0  0  0  0  0  0  0
   12.4725  -17.2602   21.6731 O   0  0  0  0  0  0  0  0  0  0  0  0
   12.4996  -15.1873   22.5576 O   0  0  0  0  0  0  0  0  0  0  0  0
  2  3  1  0
  2  1  1  1
  4  3  1  0
  5  4  1  0
  6  7  1  0
  6  5  1  0
  8  2  1  0
  8  9  2  0
 10  8  1  0
 11 10  1  0
 11 12  1  6
 12 13  1  0
 14 11  1  0
 15 14  2  0
 16 14  1  0
 17 24  1  0
 17 16  1  0
 17 18  1  1
 19 23  1  0
 19 18  1  0
 20 19  2  0
 21 20  1  0
 21 22  1  0
 22 23  2  0
 24 25  1  0
 26 24  2  0
M  END
$$$$
