KCH.pdb
     RDKit          3D

 26 26  0  0  1  0  0  0  0  0999 V2000
    9.2250  -15.5566   20.1532 N   0  0  0  0  0  0  0  0  0  0  0  0
    8.5145  -14.4662   20.7976 C   0  0  1  0  0  0  0  0  0  0  0  0
    7.3942  -14.0018   19.9598 C   0  0  0  0  0  0  0  0  0  0  0  0
    7.6406  -13.4501   18.6191 C   0  0  0  0  0  0  0  0  0  0  0  0
    7.3121  -14.1474   17.3855 C   0  0  0  0  0  0  0  0  0  0  0  0
    7.5916  -13.5111   16.0793 C   0  0  0  0  0  0  0  0  0  0  0  0
    7.2382  -14.4346   14.9768 N   0  0  0  0  0  0  0  0  0  0  0  0
    7.9700  -14.9864   22.1312 C   0  0  0  0  0  0  0  0  0  0  0  0
    7.1839  -14.3047   22.8250 O   0  0  0  0  0  0  0  0  0  0  0  0
    8.3447  -16.2467   22.6044 N   0  0  0  0  0  0  0  0  0  0  0  0
    7.8707  -16.7965   23.8394 C   0  0  1  0  0  0  0  0  0  0  0  0
    7.7986  -18.2911   23.8623 C   0  0  0  0  0  0  0  0  0  0  0  0
    7.1950  -18.9091   25.4582 S   0  0  0  0  0  0  0  0  0  0  0  0
    8.7530  -16.3571   24.9375 C   0  0  0  0  0  0  0  0  0  0  0  0
   10.0160  -16.4219   24.8688 O   0  0  0  0  0  0  0  0  0  0  0  0
    8.2085  -15.8345   26.1365 N   0  0  0  0  0  0  0  0  0  0  0  0
    9.0494  -15.4703   27.2665 C   0  0  1  0  0  0  0  0  0  0  0  0
    8.2875  -14.4463   28.0667 C   0  0  0  0  0  0  0  0  0  0  0  0
    7.7236  -13.3917   27.2059 C   0  0  0  0  0  0  0  0  0  0  0  0
    8.1463  -13.0700   25.9158 C   0  0  0  0  0  0  0  0  0  0  0  0
    7.3817  -12.0566   25.4733 N   0  0  0  0  0  0  0  0  0  0  0  0
    6.5102  -11.7530   26.4507 C   0  0  0  0  0  0  0  0  0  0  0  0
    6.7186  -12.5589   27.4929 N   0  0  0  0  0  0  0  0  0  0  0  0
    9.3868  -16.6505   28.0816 C   0  0  0  0  0  0  0  0  0  0  0  0
    8.9802  -17.9392   27.7506 O   0  0  0  0  0  0  0  0  0  0  0  0
   10.0647  -16.5111   29.1161 O   0  0  0  0  0  0  0  0  0  0  0  0
  2  3  1  0
  2  1  1  6
  4  3  1  0
  5  4  1  0
  6  7  1  0
  6  5  1  0
  8  2  1  0
  8  9  2  0
 10  8  1  0
 11 10  1  0
 11 12  1  6
 12 13  1  0
 14 11  1  0
 15 14  2  0
 16 14  1  0
 17 24  1  0
 17 16  1  0
 17 18  1  1
 19 23  1  0
 19 18  1  0
 20 19  2  0
 21 20  1  0
 21 22  1  0
 22 23  2  0
 24 25  1  0
 26 24  2  0
M  END
$$$$
