KCH.pdb
     RDKit          3D

 26 26  0  0  1  0  0  0  0  0999 V2000
    8.0480  -13.0880   16.4194 N   0  0  0  0  0  0  0  0  0  0  0  0
    8.1538  -14.3416   17.1450 C   0  0  1  0  0  0  0  0  0  0  0  0
    8.8623  -15.3547   16.3424 C   0  0  0  0  0  0  0  0  0  0  0  0
    9.6880  -14.9557   15.1928 C   0  0  0  0  0  0  0  0  0  0  0  0
   10.4034  -15.8976   14.3461 C   0  0  0  0  0  0  0  0  0  0  0  0
   11.2787  -15.4003   13.2618 C   0  0  0  0  0  0  0  0  0  0  0  0
   11.9199  -16.5375   12.5627 N   0  0  0  0  0  0  0  0  0  0  0  0
    8.9397  -14.0720   18.4316 C   0  0  0  0  0  0  0  0  0  0  0  0
    9.9128  -13.2866   18.4488 O   0  0  0  0  0  0  0  0  0  0  0  0
    8.5814  -14.7050   19.6247 N   0  0  0  0  0  0  0  0  0  0  0  0
    9.2427  -14.4647   20.8726 C   0  0  1  0  0  0  0  0  0  0  0  0
    8.3590  -14.5905   22.0737 C   0  0  0  0  0  0  0  0  0  0  0  0
    6.6046  -14.6446   21.6130 S   0  0  0  0  0  0  0  0  0  0  0  0
   10.3636  -15.4132   21.0191 C   0  0  0  0  0  0  0  0  0  0  0  0
   10.4259  -16.5039   20.3784 O   0  0  0  0  0  0  0  0  0  0  0  0
   11.4361  -15.1332   21.9015 N   0  0  0  0  0  0  0  0  0  0  0  0
   12.5761  -16.0275   22.0319 C   0  0  1  0  0  0  0  0  0  0  0  0
   13.8106  -15.2028   21.7764 C   0  0  0  0  0  0  0  0  0  0  0  0
   14.0223  -14.9708   20.3368 C   0  0  0  0  0  0  0  0  0  0  0  0
   13.1882  -15.3987   19.3036 C   0  0  0  0  0  0  0  0  0  0  0  0
   13.7282  -14.9890   18.1426 N   0  0  0  0  0  0  0  0  0  0  0  0
   14.8609  -14.3274   18.4365 C   0  0  0  0  0  0  0  0  0  0  0  0
   15.0353  -14.3181   19.7588 N   0  0  0  0  0  0  0  0  0  0  0  0
   12.6118  -16.6541   23.3651 C   0  0  0  0  0  0  0  0  0  0  0  0
   13.5024  -17.6691   23.6999 O   0  0  0  0  0  0  0  0  0  0  0  0
   11.8188  -16.2736   24.2457 O   0  0  0  0  0  0  0  0  0  0  0  0
  2  3  1  0
  2  1  1  6
  4  3  1  0
  5  4  1  0
  6  7  1  0
  6  5  1  0
  8  2  1  0
  8  9  2  0
 10  8  1  0
 11 10  1  0
 11 12  1  1
 12 13  1  0
 14 11  1  0
 15 14  2  0
 16 14  1  0
 17 24  1  0
 17 16  1  0
 17 18  1  1
 19 23  1  0
 19 18  1  0
 20 19  2  0
 21 20  1  0
 21 22  1  0
 22 23  2  0
 24 25  1  0
 26 24  2  0
M  END
$$$$
