KCH.pdb
     RDKit          3D

 26 26  0  0  1  0  0  0  0  0999 V2000
    9.1555  -19.1350   17.9317 N   0  0  0  0  0  0  0  0  0  0  0  0
    9.5439  -17.9073   18.6034 C   0  0  1  0  0  0  0  0  0  0  0  0
    8.7812  -16.7592   18.0811 C   0  0  0  0  0  0  0  0  0  0  0  0
    8.9880  -15.4108   18.6304 C   0  0  0  0  0  0  0  0  0  0  0  0
    8.2196  -14.2453   18.2217 C   0  0  0  0  0  0  0  0  0  0  0  0
    8.8882  -13.1278   17.5193 C   0  0  0  0  0  0  0  0  0  0  0  0
    7.9447  -12.0001   17.3423 N   0  0  0  0  0  0  0  0  0  0  0  0
    9.2476  -18.0773   20.0963 C   0  0  0  0  0  0  0  0  0  0  0  0
    8.0940  -18.3313   20.5073 O   0  0  0  0  0  0  0  0  0  0  0  0
   10.2711  -17.9507   21.0391 N   0  0  0  0  0  0  0  0  0  0  0  0
   10.0732  -18.1381   22.4456 C   0  0  1  0  0  0  0  0  0  0  0  0
   11.2024  -18.8317   23.1407 C   0  0  0  0  0  0  0  0  0  0  0  0
   10.8965  -18.9913   24.9223 S   0  0  0  0  0  0  0  0  0  0  0  0
    9.8693  -16.8249   23.0869 C   0  0  0  0  0  0  0  0  0  0  0  0
   10.6463  -15.8427   22.8982 O   0  0  0  0  0  0  0  0  0  0  0  0
    8.7724  -16.6085   23.9570 N   0  0  0  0  0  0  0  0  0  0  0  0
    8.6439  -15.3901   24.7416 C   0  0  1  0  0  0  0  0  0  0  0  0
    7.1810  -15.2294   25.0636 C   0  0  0  0  0  0  0  0  0  0  0  0
    6.9369  -14.0519   25.9151 C   0  0  0  0  0  0  0  0  0  0  0  0
    7.8914  -13.1192   26.3219 C   0  0  0  0  0  0  0  0  0  0  0  0
    7.2714  -12.2024   27.0851 N   0  0  0  0  0  0  0  0  0  0  0  0
    5.9740  -12.5473   27.1549 C   0  0  0  0  0  0  0  0  0  0  0  0
    5.7757  -13.6616   26.4492 N   0  0  0  0  0  0  0  0  0  0  0  0
    9.4621  -15.4558   25.9652 C   0  0  0  0  0  0  0  0  0  0  0  0
    9.5158  -16.5828   26.7792 O   0  0  0  0  0  0  0  0  0  0  0  0
   10.1431  -14.4707   26.3043 O   0  0  0  0  0  0  0  0  0  0  0  0
  2  3  1  0
  2  1  1  6
  4  3  1  0
  5  4  1  0
  6  7  1  0
  6  5  1  0
  8  2  1  0
  8  9  2  0
 10  8  1  0
 11 10  1  0
 11 12  1  1
 12 13  1  0
 14 11  1  0
 15 14  2  0
 16 14  1  0
 17 24  1  0
 17 16  1  0
 17 18  1  1
 19 23  1  0
 19 18  1  0
 20 19  2  0
 21 20  1  0
 21 22  1  0
 22 23  2  0
 24 25  1  0
 26 24  2  0
M  END
$$$$
