KCH.pdb
     RDKit          3D

 26 26  0  0  1  0  0  0  0  0999 V2000
    7.0644  -15.3571   21.2319 N   0  0  0  0  0  0  0  0  0  0  0  0
    8.4481  -15.7676   21.3936 C   0  0  1  0  0  0  0  0  0  0  0  0
    9.2472  -15.3971   20.2118 C   0  0  0  0  0  0  0  0  0  0  0  0
    8.6358  -15.3650   18.8747 C   0  0  0  0  0  0  0  0  0  0  0  0
    8.5648  -16.5182   17.9910 C   0  0  0  0  0  0  0  0  0  0  0  0
    7.8948  -16.4027   16.6768 C   0  0  0  0  0  0  0  0  0  0  0  0
    7.8256  -17.7292   16.0220 N   0  0  0  0  0  0  0  0  0  0  0  0
    9.0061  -15.0540   22.6284 C   0  0  0  0  0  0  0  0  0  0  0  0
   10.2308  -15.0509   22.8819 O   0  0  0  0  0  0  0  0  0  0  0  0
    8.1490  -14.3849   23.5060 N   0  0  0  0  0  0  0  0  0  0  0  0
    8.4244  -14.2194   24.9021 C   0  0  1  0  0  0  0  0  0  0  0  0
    7.6287  -13.1388   25.5644 C   0  0  0  0  0  0  0  0  0  0  0  0
    5.8451  -13.4526   25.4492 S   0  0  0  0  0  0  0  0  0  0  0  0
    8.1574  -15.4896   25.6040 C   0  0  0  0  0  0  0  0  0  0  0  0
    7.2584  -16.3010   25.2333 O   0  0  0  0  0  0  0  0  0  0  0  0
    8.9133  -15.8575   26.7444 N   0  0  0  0  0  0  0  0  0  0  0  0
    9.4274  -17.2068   26.9218 C   0  0  1  0  0  0  0  0  0  0  0  0
   10.1843  -17.5551   25.6668 C   0  0  0  0  0  0  0  0  0  0  0  0
   10.6968  -18.9361   25.7053 C   0  0  0  0  0  0  0  0  0  0  0  0
   10.0804  -20.0249   26.3226 C   0  0  0  0  0  0  0  0  0  0  0  0
   10.8623  -21.1020   26.1328 N   0  0  0  0  0  0  0  0  0  0  0  0
   11.9312  -20.7036   25.4217 C   0  0  0  0  0  0  0  0  0  0  0  0
   11.8287  -19.3986   25.1658 N   0  0  0  0  0  0  0  0  0  0  0  0
   10.2885  -17.2962   28.1141 C   0  0  0  0  0  0  0  0  0  0  0  0
   10.6428  -16.1871   28.8757 O   0  0  0  0  0  0  0  0  0  0  0  0
   10.7296  -18.4032   28.4736 O   0  0  0  0  0  0  0  0  0  0  0  0
  2  3  1  0
  2  1  1  6
  4  3  1  0
  5  4  1  0
  6  7  1  0
  6  5  1  0
  8  2  1  0
  8  9  2  0
 10  8  1  0
 11 10  1  0
 11 12  1  1
 12 13  1  0
 14 11  1  0
 15 14  2  0
 16 14  1  0
 17 24  1  0
 17 16  1  0
 17 18  1  6
 19 23  1  0
 19 18  1  0
 20 19  2  0
 21 20  1  0
 21 22  1  0
 22 23  2  0
 24 25  1  0
 26 24  2  0
M  END
$$$$
