QIL.pdb
     RDKit          3D

 26 25  0  0  1  0  0  0  0  0999 V2000
    9.3654  -20.5098   16.4390 N   0  0  0  0  0  0  0  0  0  0  0  0
    9.6596  -20.5274   17.8507 C   0  0  0  0  0  0  0  0  0  0  0  0
   10.5125  -21.3489   18.2188 O   0  0  0  0  0  0  0  0  0  0  0  0
    8.9206  -19.5771   18.6848 C   0  0  0  0  0  0  0  0  0  0  0  0
    9.7994  -18.6027   19.4010 C   0  0  0  0  0  0  0  0  0  0  0  0
    9.3949  -18.3850   20.8193 C   0  0  2  0  0  0  0  0  0  0  0  0
    7.9874  -18.6140   21.0550 N   0  0  0  0  0  0  0  0  0  0  0  0
    9.6780  -16.9412   21.1416 C   0  0  0  0  0  0  0  0  0  0  0  0
   10.8099  -16.4348   20.9185 O   0  0  0  0  0  0  0  0  0  0  0  0
    6.8042  -12.6582   19.6122 C   0  0  0  0  0  0  0  0  0  0  0  0
    7.9485  -13.5018   20.0881 C   0  0  0  0  0  0  0  0  0  0  0  0
    7.8470  -13.7917   21.5708 C   0  0  2  0  0  0  0  0  0  0  0  0
    7.7234  -12.5220   22.3741 C   0  0  0  0  0  0  0  0  0  0  0  0
    8.9233  -14.7071   22.0534 C   0  0  2  0  0  0  0  0  0  0  0  0
    8.6950  -16.0890   21.7061 N   0  0  0  0  0  0  0  0  0  0  0  0
    8.9724  -14.5972   23.5428 C   0  0  0  0  0  0  0  0  0  0  0  0
    9.1694  -13.4808   24.1047 O   0  0  0  0  0  0  0  0  0  0  0  0
    6.8164  -12.2894   26.4881 C   0  0  0  0  0  0  0  0  0  0  0  0
    7.9722  -13.2057   26.0997 C   0  0  1  0  0  0  0  0  0  0  0  0
    9.0026  -13.0439   27.2282 C   0  0  0  0  0  0  0  0  0  0  0  0
    7.5359  -14.6268   26.1277 C   0  0  0  0  0  0  0  0  0  0  0  0
    8.6246  -15.6123   25.7879 C   0  0  2  0  0  0  0  0  0  0  0  0
    8.7984  -15.7463   24.3583 N   0  0  0  0  0  0  0  0  0  0  0  0
    8.4384  -16.9246   26.4005 C   0  0  0  0  0  0  0  0  0  0  0  0
    7.7149  -17.7736   25.8230 O   0  0  0  0  0  0  0  0  0  0  0  0
    9.0170  -17.3069   27.6008 O   0  0  0  0  0  0  0  0  0  0  0  0
  2  1  1  0
  3  2  2  0
  4  2  1  0
  5  4  1  0
  6  7  1  6
  6  5  1  0
  8  6  1  0
  9  8  2  0
 10 11  1  0
 12 14  1  0
 12 11  1  0
 12 13  1  1
 14 15  1  1
 15  8  1  0
 16 17  2  0
 16 14  1  0
 19 20  1  1
 19 18  1  0
 21 19  1  0
 22 21  1  6
 22 23  1  0
 23 16  1  0
 24 22  1  0
 25 24  2  0
 26 24  1  0
M  END
$$$$
