QIL.pdb
     RDKit          3D

 26 25  0  0  1  0  0  0  0  0999 V2000
   14.4119  -19.0206   20.0014 N   0  0  0  0  0  0  0  0  0  0  0  0
   13.6186  -19.7976   19.0813 C   0  0  0  0  0  0  0  0  0  0  0  0
   14.1390  -20.8419   18.6613 O   0  0  0  0  0  0  0  0  0  0  0  0
   12.2945  -19.2670   18.7495 C   0  0  0  0  0  0  0  0  0  0  0  0
   11.9878  -17.9662   19.4193 C   0  0  0  0  0  0  0  0  0  0  0  0
   11.0083  -18.1010   20.5351 C   0  0  2  0  0  0  0  0  0  0  0  0
    9.7543  -18.6933   20.1278 N   0  0  0  0  0  0  0  0  0  0  0  0
   10.7112  -16.7102   21.0310 C   0  0  0  0  0  0  0  0  0  0  0  0
   11.6362  -15.8764   21.2220 O   0  0  0  0  0  0  0  0  0  0  0  0
    7.0616  -13.3027   19.1486 C   0  0  0  0  0  0  0  0  0  0  0  0
    8.2496  -13.9137   19.8292 C   0  0  0  0  0  0  0  0  0  0  0  0
    7.9335  -14.3018   21.2582 C   0  0  2  0  0  0  0  0  0  0  0  0
    7.4046  -13.1293   22.0444 C   0  0  0  0  0  0  0  0  0  0  0  0
    9.0643  -15.0132   21.9252 C   0  0  2  0  0  0  0  0  0  0  0  0
    9.3896  -16.2748   21.3049 N   0  0  0  0  0  0  0  0  0  0  0  0
    8.6594  -15.2736   23.3397 C   0  0  0  0  0  0  0  0  0  0  0  0
    7.6401  -15.9750   23.6041 O   0  0  0  0  0  0  0  0  0  0  0  0
    7.6417  -12.2976   27.6735 C   0  0  0  0  0  0  0  0  0  0  0  0
    6.8467  -13.1810   26.7175 C   0  0  1  0  0  0  0  0  0  0  0  0
    5.6437  -12.3239   26.2937 C   0  0  0  0  0  0  0  0  0  0  0  0
    7.6329  -13.4438   25.4832 C   0  0  0  0  0  0  0  0  0  0  0  0
    8.7706  -14.4141   25.6722 C   0  0  2  0  0  0  0  0  0  0  0  0
    9.4127  -14.7376   24.4172 N   0  0  0  0  0  0  0  0  0  0  0  0
    8.3877  -15.6355   26.3748 C   0  0  0  0  0  0  0  0  0  0  0  0
    7.3847  -16.2806   25.9803 O   0  0  0  0  0  0  0  0  0  0  0  0
    9.0686  -16.1436   27.4701 O   0  0  0  0  0  0  0  0  0  0  0  0
  2  1  1  0
  3  2  2  0
  4  2  1  0
  5  4  1  0
  6  7  1  6
  6  5  1  0
  8  6  1  0
  9  8  2  0
 10 11  1  0
 12 14  1  0
 12 11  1  0
 12 13  1  1
 14 15  1  6
 15  8  1  0
 16 17  2  0
 16 14  1  0
 19 20  1  6
 19 18  1  0
 21 19  1  0
 22 21  1  6
 22 23  1  0
 23 16  1  0
 24 22  1  0
 25 24  2  0
 26 24  1  0
M  END
$$$$
