QIL.pdb
     RDKit          3D

 26 25  0  0  1  0  0  0  0  0999 V2000
   12.1285  -22.2744   22.9529 N   0  0  0  0  0  0  0  0  0  0  0  0
   11.6459  -20.9383   23.2007 C   0  0  0  0  0  0  0  0  0  0  0  0
   11.8082  -20.5055   24.3515 O   0  0  0  0  0  0  0  0  0  0  0  0
   11.0218  -20.2479   22.0699 C   0  0  0  0  0  0  0  0  0  0  0  0
   10.3427  -18.9717   22.4507 C   0  0  0  0  0  0  0  0  0  0  0  0
   10.2697  -17.9922   21.3293 C   0  0  2  0  0  0  0  0  0  0  0  0
   11.4721  -17.9480   20.5284 N   0  0  0  0  0  0  0  0  0  0  0  0
   10.0867  -16.6300   21.9452 C   0  0  0  0  0  0  0  0  0  0  0  0
   11.0779  -15.9400   22.3041 O   0  0  0  0  0  0  0  0  0  0  0  0
    7.3380  -12.8844   19.5449 C   0  0  0  0  0  0  0  0  0  0  0  0
    8.2701  -13.6772   20.4112 C   0  0  0  0  0  0  0  0  0  0  0  0
    7.6873  -13.9083   21.7895 C   0  0  2  0  0  0  0  0  0  0  0  0
    7.2425  -12.6153   22.4244 C   0  0  0  0  0  0  0  0  0  0  0  0
    8.5778  -14.7317   22.6604 C   0  0  2  0  0  0  0  0  0  0  0  0
    8.8033  -16.0623   22.1496 N   0  0  0  0  0  0  0  0  0  0  0  0
    7.9194  -14.8449   23.9969 C   0  0  0  0  0  0  0  0  0  0  0  0
    6.9254  -15.6090   24.1678 O   0  0  0  0  0  0  0  0  0  0  0  0
   10.6797  -13.6799   28.7435 C   0  0  0  0  0  0  0  0  0  0  0  0
    9.8263  -14.3443   27.6679 C   0  0  1  0  0  0  0  0  0  0  0  0
    9.4603  -15.7202   28.2464 C   0  0  0  0  0  0  0  0  0  0  0  0
    8.5474  -13.6060   27.4946 C   0  0  0  0  0  0  0  0  0  0  0  0
    7.6898  -14.1160   26.3650 C   0  0  2  0  0  0  0  0  0  0  0  0
    8.3976  -14.0954   25.1038 N   0  0  0  0  0  0  0  0  0  0  0  0
    6.4120  -13.4204   26.2400 C   0  0  0  0  0  0  0  0  0  0  0  0
    6.2910  -12.5101   25.3830 O   0  0  0  0  0  0  0  0  0  0  0  0
    5.2994  -13.7009   27.0178 O   0  0  0  0  0  0  0  0  0  0  0  0
  2  1  1  0
  3  2  2  0
  4  2  1  0
  5  4  1  0
  6  7  1  1
  6  5  1  0
  8  6  1  0
  9  8  2  0
 10 11  1  0
 12 14  1  0
 12 11  1  0
 12 13  1  1
 14 15  1  6
 15  8  1  0
 16 17  2  0
 16 14  1  0
 19 20  1  1
 19 18  1  0
 21 19  1  0
 22 21  1  1
 22 23  1  0
 23 16  1  0
 24 22  1  0
 25 24  2  0
 26 24  1  0
M  END
$$$$
