QIL.pdb
     RDKit          3D

 26 25  0  0  1  0  0  0  0  0999 V2000
    7.2231  -22.6787   18.6808 N   0  0  0  0  0  0  0  0  0  0  0  0
    8.5042  -22.0683   18.4247 C   0  0  0  0  0  0  0  0  0  0  0  0
    9.4967  -22.7023   18.8131 O   0  0  0  0  0  0  0  0  0  0  0  0
    8.4870  -20.7749   17.7379 C   0  0  0  0  0  0  0  0  0  0  0  0
    9.0977  -19.6676   18.5353 C   0  0  0  0  0  0  0  0  0  0  0  0
    8.9985  -18.3408   17.8629 C   0  0  2  0  0  0  0  0  0  0  0  0
    9.7813  -18.2530   16.6510 N   0  0  0  0  0  0  0  0  0  0  0  0
    9.5402  -17.3172   18.8259 C   0  0  0  0  0  0  0  0  0  0  0  0
   10.7727  -17.0607   18.8771 O   0  0  0  0  0  0  0  0  0  0  0  0
    6.6370  -12.8011   20.1512 C   0  0  0  0  0  0  0  0  0  0  0  0
    7.7356  -13.7611   19.8057 C   0  0  0  0  0  0  0  0  0  0  0  0
    8.1498  -14.5876   21.0048 C   0  0  2  0  0  0  0  0  0  0  0  0
    8.5345  -13.7134   22.1712 C   0  0  0  0  0  0  0  0  0  0  0  0
    9.1709  -15.6228   20.6656 C   0  0  2  0  0  0  0  0  0  0  0  0
    8.6990  -16.5989   19.7133 N   0  0  0  0  0  0  0  0  0  0  0  0
    9.5285  -16.3328   21.9307 C   0  0  0  0  0  0  0  0  0  0  0  0
    8.6707  -17.0267   22.5499 O   0  0  0  0  0  0  0  0  0  0  0  0
   13.3918  -19.5640   22.0182 C   0  0  0  0  0  0  0  0  0  0  0  0
   12.0781  -18.9191   22.4480 C   0  0  1  0  0  0  0  0  0  0  0  0
   11.2862  -20.0476   23.1269 C   0  0  0  0  0  0  0  0  0  0  0  0
   12.3257  -17.8903   23.4925 C   0  0  0  0  0  0  0  0  0  0  0  0
   11.1839  -16.9267   23.6911 C   0  0  2  0  0  0  0  0  0  0  0  0
   10.8413  -16.2422   22.4639 N   0  0  0  0  0  0  0  0  0  0  0  0
   11.4122  -15.9613   24.7626 C   0  0  0  0  0  0  0  0  0  0  0  0
   11.6176  -16.3782   25.9295 O   0  0  0  0  0  0  0  0  0  0  0  0
   11.4184  -14.5875   24.5776 O   0  0  0  0  0  0  0  0  0  0  0  0
  2  1  1  0
  3  2  2  0
  4  2  1  0
  5  4  1  0
  6  7  1  6
  6  5  1  0
  8  6  1  0
  9  8  2  0
 10 11  1  0
 12 14  1  0
 12 11  1  0
 12 13  1  1
 14 15  1  6
 15  8  1  0
 16 17  2  0
 16 14  1  0
 19 20  1  1
 19 18  1  0
 21 19  1  0
 22 21  1  6
 22 23  1  0
 23 16  1  0
 24 22  1  0
 25 24  2  0
 26 24  1  0
M  END
$$$$
