QIL.pdb
     RDKit          3D

 26 25  0  0  1  0  0  0  0  0999 V2000
   11.6083  -22.6179   22.0624 N   0  0  0  0  0  0  0  0  0  0  0  0
   11.6309  -21.1775   22.1279 C   0  0  0  0  0  0  0  0  0  0  0  0
   12.3065  -20.6847   23.0436 O   0  0  0  0  0  0  0  0  0  0  0  0
   10.8567  -20.4641   21.1097 C   0  0  0  0  0  0  0  0  0  0  0  0
   10.9516  -18.9764   21.2214 C   0  0  0  0  0  0  0  0  0  0  0  0
    9.6202  -18.3058   21.2313 C   0  0  2  0  0  0  0  0  0  0  0  0
    8.8486  -18.5470   20.0332 N   0  0  0  0  0  0  0  0  0  0  0  0
    9.8740  -16.8235   21.3145 C   0  0  0  0  0  0  0  0  0  0  0  0
   11.0355  -16.3540   21.1805 O   0  0  0  0  0  0  0  0  0  0  0  0
    6.7283  -13.2781   18.7650 C   0  0  0  0  0  0  0  0  0  0  0  0
    7.9304  -13.9029   19.4072 C   0  0  0  0  0  0  0  0  0  0  0  0
    7.9263  -13.7032   20.9081 C   0  0  2  0  0  0  0  0  0  0  0  0
    7.8847  -12.2403   21.2700 C   0  0  0  0  0  0  0  0  0  0  0  0
    9.0146  -14.4622   21.5929 C   0  0  2  0  0  0  0  0  0  0  0  0
    8.8294  -15.8925   21.5454 N   0  0  0  0  0  0  0  0  0  0  0  0
    9.0275  -14.0357   23.0249 C   0  0  0  0  0  0  0  0  0  0  0  0
    9.2368  -12.8284   23.3403 O   0  0  0  0  0  0  0  0  0  0  0  0
    7.7229  -12.0843   27.2529 C   0  0  0  0  0  0  0  0  0  0  0  0
    6.8637  -13.2690   26.8230 C   0  0  1  0  0  0  0  0  0  0  0  0
    5.4378  -12.7060   26.7159 C   0  0  0  0  0  0  0  0  0  0  0  0
    7.2450  -13.7142   25.4566 C   0  0  0  0  0  0  0  0  0  0  0  0
    8.5074  -14.5361   25.4063 C   0  0  2  0  0  0  0  0  0  0  0  0
    8.8046  -14.9794   24.0619 N   0  0  0  0  0  0  0  0  0  0  0  0
    8.5038  -15.6713   26.3246 C   0  0  0  0  0  0  0  0  0  0  0  0
    8.5288  -15.4584   27.5623 O   0  0  0  0  0  0  0  0  0  0  0  0
    8.4740  -16.9959   25.9170 O   0  0  0  0  0  0  0  0  0  0  0  0
  2  1  1  0
  3  2  2  0
  4  2  1  0
  5  4  1  0
  6  7  1  6
  6  5  1  0
  8  6  1  0
  9  8  2  0
 10 11  1  0
 12 14  1  0
 12 11  1  0
 12 13  1  6
 14 15  1  1
 15  8  1  0
 16 17  2  0
 16 14  1  0
 19 20  1  6
 19 18  1  0
 21 19  1  0
 22 21  1  6
 22 23  1  0
 23 16  1  0
 24 22  1  0
 25 24  2  0
 26 24  1  0
M  END
$$$$
