QIL.pdb
     RDKit          3D

 26 25  0  0  1  0  0  0  0  0999 V2000
    5.6898  -19.7449   25.3454 N   0  0  0  0  0  0  0  0  0  0  0  0
    7.0819  -19.8248   24.9776 C   0  0  0  0  0  0  0  0  0  0  0  0
    7.8417  -20.3156   25.8259 O   0  0  0  0  0  0  0  0  0  0  0  0
    7.4378  -19.3195   23.6499 C   0  0  0  0  0  0  0  0  0  0  0  0
    6.2738  -18.7731   22.8874 C   0  0  0  0  0  0  0  0  0  0  0  0
    6.6247  -18.3718   21.4952 C   0  0  2  0  0  0  0  0  0  0  0  0
    7.1410  -19.4614   20.6980 N   0  0  0  0  0  0  0  0  0  0  0  0
    7.7098  -17.3323   21.5965 C   0  0  0  0  0  0  0  0  0  0  0  0
    8.9226  -17.6420   21.4528 O   0  0  0  0  0  0  0  0  0  0  0  0
    6.8884  -12.1425   19.6965 C   0  0  0  0  0  0  0  0  0  0  0  0
    7.5790  -13.4362   20.0079 C   0  0  0  0  0  0  0  0  0  0  0  0
    7.8488  -13.5801   21.4908 C   0  0  2  0  0  0  0  0  0  0  0  0
    8.6538  -12.4206   22.0202 C   0  0  0  0  0  0  0  0  0  0  0  0
    8.4119  -14.9164   21.8465 C   0  0  2  0  0  0  0  0  0  0  0  0
    7.4235  -15.9677   21.8558 N   0  0  0  0  0  0  0  0  0  0  0  0
    8.9970  -14.8071   23.2171 C   0  0  0  0  0  0  0  0  0  0  0  0
   10.1070  -14.2296   23.4044 O   0  0  0  0  0  0  0  0  0  0  0  0
    6.0710  -12.6984   26.8194 C   0  0  0  0  0  0  0  0  0  0  0  0
    7.3172  -13.1423   26.0604 C   0  0  1  0  0  0  0  0  0  0  0  0
    8.4034  -12.1293   26.4550 C   0  0  0  0  0  0  0  0  0  0  0  0
    7.7773  -14.4673   26.5536 C   0  0  0  0  0  0  0  0  0  0  0  0
    8.8131  -15.1249   25.6782 C   0  0  2  0  0  0  0  0  0  0  0  0
    8.3168  -15.3506   24.3386 N   0  0  0  0  0  0  0  0  0  0  0  0
    9.3491  -16.3637   26.2351 C   0  0  0  0  0  0  0  0  0  0  0  0
    9.3096  -17.4131   25.5458 O   0  0  0  0  0  0  0  0  0  0  0  0
    9.9107  -16.4645   27.4985 O   0  0  0  0  0  0  0  0  0  0  0  0
  2  1  1  0
  3  2  2  0
  4  2  1  0
  5  4  1  0
  6  7  1  6
  6  5  1  0
  8  6  1  0
  9  8  2  0
 10 11  1  0
 12 14  1  0
 12 11  1  0
 12 13  1  6
 14 15  1  1
 15  8  1  0
 16 17  2  0
 16 14  1  0
 19 20  1  1
 19 18  1  0
 21 19  1  0
 22 21  1  1
 22 23  1  0
 23 16  1  0
 24 22  1  0
 25 24  2  0
 26 24  1  0
M  END
$$$$
