QIL.pdb
     RDKit          3D

 26 25  0  0  1  0  0  0  0  0999 V2000
    8.6388  -19.6489   16.2672 N   0  0  0  0  0  0  0  0  0  0  0  0
    9.6526  -19.4544   17.2742 C   0  0  0  0  0  0  0  0  0  0  0  0
   10.5486  -20.3107   17.3171 O   0  0  0  0  0  0  0  0  0  0  0  0
    9.5089  -18.2728   18.1275 C   0  0  0  0  0  0  0  0  0  0  0  0
    8.2212  -18.2373   18.8860 C   0  0  0  0  0  0  0  0  0  0  0  0
    8.4094  -18.3478   20.3607 C   0  0  2  0  0  0  0  0  0  0  0  0
    7.1676  -18.4837   21.0879 N   0  0  0  0  0  0  0  0  0  0  0  0
    9.0635  -17.0706   20.8184 C   0  0  0  0  0  0  0  0  0  0  0  0
   10.2910  -16.8628   20.6245 O   0  0  0  0  0  0  0  0  0  0  0  0
    6.8867  -12.3787   19.6492 C   0  0  0  0  0  0  0  0  0  0  0  0
    7.8705  -13.4574   19.9902 C   0  0  0  0  0  0  0  0  0  0  0  0
    8.0243  -13.6169   21.4880 C   0  0  2  0  0  0  0  0  0  0  0  0
    8.4249  -12.3194   22.1428 C   0  0  0  0  0  0  0  0  0  0  0  0
    8.8954  -14.7720   21.8576 C   0  0  2  0  0  0  0  0  0  0  0  0
    8.3381  -16.0493   21.4832 N   0  0  0  0  0  0  0  0  0  0  0  0
    9.0665  -14.7489   23.3417 C   0  0  0  0  0  0  0  0  0  0  0  0
    9.9668  -14.0414   23.8801 O   0  0  0  0  0  0  0  0  0  0  0  0
    5.6259  -12.8386   26.4786 C   0  0  0  0  0  0  0  0  0  0  0  0
    6.9794  -13.3442   25.9898 C   0  0  1  0  0  0  0  0  0  0  0  0
    8.0104  -12.6629   26.9033 C   0  0  0  0  0  0  0  0  0  0  0  0
    7.1023  -14.8060   26.2319 C   0  0  0  0  0  0  0  0  0  0  0  0
    8.3288  -15.4312   25.6182 C   0  0  2  0  0  0  0  0  0  0  0  0
    8.2200  -15.5225   24.1788 N   0  0  0  0  0  0  0  0  0  0  0  0
    8.6673  -16.7340   26.1841 C   0  0  0  0  0  0  0  0  0  0  0  0
    8.7945  -17.7208   25.4175 O   0  0  0  0  0  0  0  0  0  0  0  0
    8.8625  -16.9623   27.5374 O   0  0  0  0  0  0  0  0  0  0  0  0
  2  1  1  0
  3  2  2  0
  4  2  1  0
  5  4  1  0
  6  7  1  1
  6  5  1  0
  8  6  1  0
  9  8  2  0
 10 11  1  0
 12 14  1  0
 12 11  1  0
 12 13  1  6
 14 15  1  1
 15  8  1  0
 16 17  2  0
 16 14  1  0
 19 20  1  1
 19 18  1  0
 21 19  1  0
 22 21  1  1
 22 23  1  0
 23 16  1  0
 24 22  1  0
 25 24  2  0
 26 24  1  0
M  END
$$$$
