QIL.pdb
     RDKit          3D

 26 25  0  0  1  0  0  0  0  0999 V2000
   15.1339  -19.2460   18.8109 N   0  0  0  0  0  0  0  0  0  0  0  0
   14.3265  -18.2474   18.1549 C   0  0  0  0  0  0  0  0  0  0  0  0
   14.9191  -17.5073   17.3555 O   0  0  0  0  0  0  0  0  0  0  0  0
   12.9049  -18.2215   18.5059 C   0  0  0  0  0  0  0  0  0  0  0  0
   12.5958  -17.3494   19.6801 C   0  0  0  0  0  0  0  0  0  0  0  0
   11.5633  -17.9321   20.5840 C   0  0  2  0  0  0  0  0  0  0  0  0
   10.4142  -18.4539   19.8795 N   0  0  0  0  0  0  0  0  0  0  0  0
   11.0794  -16.8187   21.4756 C   0  0  0  0  0  0  0  0  0  0  0  0
   11.8923  -16.0586   22.0662 O   0  0  0  0  0  0  0  0  0  0  0  0
    7.0210  -13.6870   19.9423 C   0  0  0  0  0  0  0  0  0  0  0  0
    8.2744  -14.1952   20.5891 C   0  0  0  0  0  0  0  0  0  0  0  0
    7.9883  -14.8330   21.9322 C   0  0  2  0  0  0  0  0  0  0  0  0
    7.3168  -13.8637   22.8715 C   0  0  0  0  0  0  0  0  0  0  0  0
    9.1860  -15.5062   22.5167 C   0  0  2  0  0  0  0  0  0  0  0  0
    9.6996  -16.5733   21.6923 N   0  0  0  0  0  0  0  0  0  0  0  0
    8.7795  -16.0820   23.8342 C   0  0  0  0  0  0  0  0  0  0  0  0
    8.4971  -17.3103   23.9460 O   0  0  0  0  0  0  0  0  0  0  0  0
    9.6938  -12.7816   28.1387 C   0  0  0  0  0  0  0  0  0  0  0  0
    9.8282  -14.1271   27.4331 C   0  0  1  0  0  0  0  0  0  0  0  0
   10.7306  -14.9672   28.3505 C   0  0  0  0  0  0  0  0  0  0  0  0
    8.5131  -14.8191   27.3866 C   0  0  0  0  0  0  0  0  0  0  0  0
    8.3899  -15.8343   26.2794 C   0  0  2  0  0  0  0  0  0  0  0  0
    8.7020  -15.2599   24.9891 N   0  0  0  0  0  0  0  0  0  0  0  0
    7.0906  -16.4992   26.2367 C   0  0  0  0  0  0  0  0  0  0  0  0
    6.1971  -16.0503   25.4766 O   0  0  0  0  0  0  0  0  0  0  0  0
    6.7678  -17.6154   26.9928 O   0  0  0  0  0  0  0  0  0  0  0  0
  2  1  1  0
  3  2  2  0
  4  2  1  0
  5  4  1  0
  6  7  1  6
  6  5  1  0
  8  6  1  0
  9  8  2  0
 10 11  1  0
 12 14  1  0
 12 11  1  0
 12 13  1  1
 14 15  1  6
 15  8  1  0
 16 17  2  0
 16 14  1  0
 19 20  1  1
 19 18  1  0
 21 19  1  0
 22 21  1  1
 22 23  1  0
 23 16  1  0
 24 22  1  0
 25 24  2  0
 26 24  1  0
M  END
$$$$
