QIL.pdb
     RDKit          3D

 26 25  0  0  1  0  0  0  0  0999 V2000
   10.4696  -22.5463   18.8703 N   0  0  0  0  0  0  0  0  0  0  0  0
   11.2310  -21.3507   19.1352 C   0  0  0  0  0  0  0  0  0  0  0  0
   12.0617  -21.0317   18.2714 O   0  0  0  0  0  0  0  0  0  0  0  0
   10.9376  -20.6525   20.3887 C   0  0  0  0  0  0  0  0  0  0  0  0
   10.8889  -19.1652   20.2462 C   0  0  0  0  0  0  0  0  0  0  0  0
    9.6325  -18.5684   20.7826 C   0  0  2  0  0  0  0  0  0  0  0  0
    8.4983  -18.7342   19.9021 N   0  0  0  0  0  0  0  0  0  0  0  0
    9.8760  -17.0896   20.9322 C   0  0  0  0  0  0  0  0  0  0  0  0
   10.9552  -16.5659   20.5469 O   0  0  0  0  0  0  0  0  0  0  0  0
    6.5606  -13.3578   19.1235 C   0  0  0  0  0  0  0  0  0  0  0  0
    7.8291  -13.9967   19.6036 C   0  0  0  0  0  0  0  0  0  0  0  0
    7.9012  -14.0228   21.1158 C   0  0  2  0  0  0  0  0  0  0  0  0
    7.7858  -12.6369   21.6978 C   0  0  0  0  0  0  0  0  0  0  0  0
    9.0754  -14.7931   21.6230 C   0  0  2  0  0  0  0  0  0  0  0  0
    8.9129  -16.2223   21.5078 N   0  0  0  0  0  0  0  0  0  0  0  0
    9.2460  -14.4528   23.0679 C   0  0  0  0  0  0  0  0  0  0  0  0
    9.7025  -13.3264   23.4196 O   0  0  0  0  0  0  0  0  0  0  0  0
    8.3219  -12.5519   27.4358 C   0  0  0  0  0  0  0  0  0  0  0  0
    7.2093  -13.3800   26.8010 C   0  0  1  0  0  0  0  0  0  0  0  0
    6.0407  -12.3990   26.6174 C   0  0  0  0  0  0  0  0  0  0  0  0
    7.6077  -13.8210   25.4381 C   0  0  0  0  0  0  0  0  0  0  0  0
    8.6115  -14.9452   25.4231 C   0  0  2  0  0  0  0  0  0  0  0  0
    8.8982  -15.3892   24.0767 N   0  0  0  0  0  0  0  0  0  0  0  0
    8.2325  -16.0796   26.2606 C   0  0  0  0  0  0  0  0  0  0  0  0
    7.9879  -15.8882   27.4777 O   0  0  0  0  0  0  0  0  0  0  0  0
    8.1211  -17.3809   25.7960 O   0  0  0  0  0  0  0  0  0  0  0  0
  2  1  1  0
  3  2  2  0
  4  2  1  0
  5  4  1  0
  6  7  1  6
  6  5  1  0
  8  6  1  0
  9  8  2  0
 10 11  1  0
 12 14  1  0
 12 11  1  0
 12 13  1  6
 14 15  1  1
 15  8  1  0
 16 17  2  0
 16 14  1  0
 19 20  1  6
 19 18  1  0
 21 19  1  0
 22 21  1  6
 22 23  1  0
 23 16  1  0
 24 22  1  0
 25 24  2  0
 26 24  1  0
M  END
$$$$
