PQT.pdb
     RDKit          3D

 24 24  0  0  1  0  0  0  0  0999 V2000
   27.5250  -20.0419  -16.0887 N   0  0  0  0  0  0  0  0  0  0  0  0
   28.8862  -19.9121  -16.5590 C   0  0  0  0  0  0  0  0  0  0  0  0
   29.5563  -21.2216  -16.1801 C   0  0  0  0  0  0  0  0  0  0  0  0
   28.4575  -22.1880  -15.8701 C   0  0  0  0  0  0  0  0  0  0  0  0
   27.1898  -21.4318  -16.0991 C   0  0  1  0  0  0  0  0  0  0  0  0
   26.1875  -21.7599  -15.0473 C   0  0  0  0  0  0  0  0  0  0  0  0
   25.6056  -22.8723  -14.9929 O   0  0  0  0  0  0  0  0  0  0  0  0
   26.2589  -20.0392   -9.0545 N   0  0  0  0  0  0  0  0  0  0  0  0
   25.0207  -20.7193   -9.1799 C   0  0  0  0  0  0  0  0  0  0  0  0
   24.3265  -21.0419   -8.1899 O   0  0  0  0  0  0  0  0  0  0  0  0
   24.5140  -21.0691  -10.5211 C   0  0  0  0  0  0  0  0  0  0  0  0
   25.5078  -20.7187  -11.6099 C   0  0  0  0  0  0  0  0  0  0  0  0
   24.9379  -21.0629  -12.9636 C   0  0  2  0  0  0  0  0  0  0  0  0
   25.8398  -20.8110  -14.0413 N   0  0  0  0  0  0  0  0  0  0  0  0
   23.6362  -20.3501  -13.1550 C   0  0  0  0  0  0  0  0  0  0  0  0
   23.5161  -19.1248  -12.9286 O   0  0  0  0  0  0  0  0  0  0  0  0
   21.8608  -19.5766  -16.1353 C   0  0  0  0  0  0  0  0  0  0  0  0
   20.8760  -20.3856  -15.3219 C   0  0  1  0  0  0  0  0  0  0  0  0
   20.8199  -21.7038  -15.7668 O   0  0  0  0  0  0  0  0  0  0  0  0
   21.2122  -20.3351  -13.8420 C   0  0  2  0  0  0  0  0  0  0  0  0
   22.4635  -21.0294  -13.6056 N   0  0  0  0  0  0  0  0  0  0  0  0
   20.1493  -20.9707  -13.0132 C   0  0  0  0  0  0  0  0  0  0  0  0
   20.3481  -22.1971  -12.3932 O   0  0  0  0  0  0  0  0  0  0  0  0
   19.0308  -20.4197  -12.8438 O   0  0  0  0  0  0  0  0  0  0  0  0
  1  2  1  0
  1  5  1  0
  2  3  1  0
  3  4  1  0
  5  6  1  1
  5  4  1  0
  6  7  2  0
  8  9  1  0
  9 11  1  0
 10  9  2  0
 11 12  1  0
 13 12  1  1
 14 13  1  0
 14  6  1  0
 15 21  1  0
 15 13  1  0
 16 15  2  0
 18 17  1  6
 18 19  1  0
 20 18  1  0
 20 21  1  6
 22 20  1  0
 22 23  1  0
 24 22  2  0
M  END
$$$$
