PQT.pdb
     RDKit          3D

 24 24  0  0  1  0  0  0  0  0999 V2000
   26.2000  -21.1457  -15.7706 N   0  0  0  0  0  0  0  0  0  0  0  0
   27.4798  -20.9551  -16.4161 C   0  0  0  0  0  0  0  0  0  0  0  0
   27.9680  -19.6038  -15.9229 C   0  0  0  0  0  0  0  0  0  0  0  0
   27.1425  -19.2652  -14.7224 C   0  0  0  0  0  0  0  0  0  0  0  0
   26.2227  -20.4272  -14.5347 C   0  0  1  0  0  0  0  0  0  0  0  0
   24.8619  -19.9604  -14.1490 C   0  0  0  0  0  0  0  0  0  0  0  0
   24.6518  -19.2670  -13.1223 O   0  0  0  0  0  0  0  0  0  0  0  0
   20.5457  -17.6166  -17.8387 N   0  0  0  0  0  0  0  0  0  0  0  0
   19.8944  -17.6514  -16.5792 C   0  0  0  0  0  0  0  0  0  0  0  0
   18.8230  -17.0438  -16.3583 O   0  0  0  0  0  0  0  0  0  0  0  0
   20.4873  -18.4285  -15.4735 C   0  0  0  0  0  0  0  0  0  0  0  0
   21.8089  -19.0557  -15.8685 C   0  0  0  0  0  0  0  0  0  0  0  0
   22.3997  -19.8024  -14.6984 C   0  0  2  0  0  0  0  0  0  0  0  0
   23.7213  -20.2855  -14.9406 N   0  0  0  0  0  0  0  0  0  0  0  0
   21.4750  -20.9055  -14.2895 C   0  0  0  0  0  0  0  0  0  0  0  0
   21.3541  -21.9501  -14.9688 O   0  0  0  0  0  0  0  0  0  0  0  0
   18.8025  -23.0046  -10.6712 C   0  0  0  0  0  0  0  0  0  0  0  0
   19.7648  -21.9456  -11.1595 C   0  0  1  0  0  0  0  0  0  0  0  0
   21.0368  -22.1382  -10.6265 O   0  0  0  0  0  0  0  0  0  0  0  0
   19.8210  -21.9105  -12.6765 C   0  0  2  0  0  0  0  0  0  0  0  0
   20.6825  -20.8249  -13.1042 N   0  0  0  0  0  0  0  0  0  0  0  0
   18.4702  -21.7120  -13.2737 C   0  0  0  0  0  0  0  0  0  0  0  0
   17.9384  -20.4431  -13.4611 O   0  0  0  0  0  0  0  0  0  0  0  0
   17.7600  -22.6874  -13.6310 O   0  0  0  0  0  0  0  0  0  0  0  0
  1  2  1  0
  1  5  1  0
  2  3  1  0
  3  4  1  0
  5  6  1  6
  5  4  1  0
  6  7  2  0
  8  9  1  0
  9 11  1  0
 10  9  2  0
 11 12  1  0
 13 12  1  6
 14 13  1  0
 14  6  1  0
 15 21  1  0
 15 13  1  0
 16 15  2  0
 18 17  1  6
 18 19  1  0
 20 18  1  0
 20 21  1  1
 22 20  1  0
 22 23  1  0
 24 22  2  0
M  END
$$$$
