PQT.pdb
     RDKit          3D

 24 24  0  0  1  0  0  0  0  0999 V2000
   27.8043  -20.2837  -11.6344 N   0  0  0  0  0  0  0  0  0  0  0  0
   29.1405  -20.5609  -11.1562 C   0  0  0  0  0  0  0  0  0  0  0  0
   29.9286  -20.9396  -12.3983 C   0  0  0  0  0  0  0  0  0  0  0  0
   29.1209  -20.4813  -13.5710 C   0  0  0  0  0  0  0  0  0  0  0  0
   27.9092  -19.8319  -12.9868 C   0  0  1  0  0  0  0  0  0  0  0  0
   26.6956  -20.1830  -13.7758 C   0  0  0  0  0  0  0  0  0  0  0  0
   26.5729  -19.8904  -14.9917 O   0  0  0  0  0  0  0  0  0  0  0  0
   23.2072  -25.3312  -12.9841 N   0  0  0  0  0  0  0  0  0  0  0  0
   22.5634  -24.6566  -14.0529 C   0  0  0  0  0  0  0  0  0  0  0  0
   21.6368  -25.1749  -14.7152 O   0  0  0  0  0  0  0  0  0  0  0  0
   22.9884  -23.2900  -14.4133 C   0  0  0  0  0  0  0  0  0  0  0  0
   24.0942  -22.7850  -13.5089 C   0  0  0  0  0  0  0  0  0  0  0  0
   24.4681  -21.3726  -13.8848 C   0  0  2  0  0  0  0  0  0  0  0  0
   25.6039  -20.8770  -13.1759 N   0  0  0  0  0  0  0  0  0  0  0  0
   23.2798  -20.4785  -13.7179 C   0  0  0  0  0  0  0  0  0  0  0  0
   22.9052  -20.0838  -12.5905 O   0  0  0  0  0  0  0  0  0  0  0  0
   20.8301  -19.3510  -17.1048 C   0  0  0  0  0  0  0  0  0  0  0  0
   21.1983  -18.3681  -16.0166 C   0  0  1  0  0  0  0  0  0  0  0  0
   20.2266  -17.3799  -15.8822 O   0  0  0  0  0  0  0  0  0  0  0  0
   21.4288  -19.0743  -14.6923 C   0  0  2  0  0  0  0  0  0  0  0  0
   22.5113  -20.0290  -14.8345 N   0  0  0  0  0  0  0  0  0  0  0  0
   20.2098  -19.7990  -14.2345 C   0  0  0  0  0  0  0  0  0  0  0  0
   19.1758  -19.1408  -13.5822 O   0  0  0  0  0  0  0  0  0  0  0  0
   20.0715  -21.0356  -14.4218 O   0  0  0  0  0  0  0  0  0  0  0  0
  1  2  1  0
  1  5  1  0
  2  3  1  0
  3  4  1  0
  5  6  1  6
  5  4  1  0
  6  7  2  0
  8  9  1  0
  9 11  1  0
 10  9  2  0
 11 12  1  0
 13 12  1  1
 14 13  1  0
 14  6  1  0
 15 21  1  0
 15 13  1  0
 16 15  2  0
 18 17  1  6
 18 19  1  0
 20 18  1  0
 20 21  1  6
 22 20  1  0
 22 23  1  0
 24 22  2  0
M  END
$$$$
