PQT.pdb
     RDKit          3D

 24 24  0  0  1  0  0  0  0  0999 V2000
   24.6611  -12.6478  -15.5575 N   0  0  0  0  0  0  0  0  0  0  0  0
   25.0866  -14.0291  -15.5977 C   0  0  0  0  0  0  0  0  0  0  0  0
   24.4935  -14.5828  -16.8818 C   0  0  0  0  0  0  0  0  0  0  0  0
   24.0937  -13.4027  -17.7095 C   0  0  0  0  0  0  0  0  0  0  0  0
   24.4840  -12.2057  -16.9056 C   0  0  1  0  0  0  0  0  0  0  0  0
   23.4395  -11.1481  -17.0009 C   0  0  0  0  0  0  0  0  0  0  0  0
   23.1623  -10.5686  -18.0809 O   0  0  0  0  0  0  0  0  0  0  0  0
   17.9057  -10.6311  -14.2192 N   0  0  0  0  0  0  0  0  0  0  0  0
   18.0722   -9.3665  -14.8395 C   0  0  0  0  0  0  0  0  0  0  0  0
   17.1393   -8.5388  -14.9416 O   0  0  0  0  0  0  0  0  0  0  0  0
   19.3890   -8.9936  -15.3921 C   0  0  0  0  0  0  0  0  0  0  0  0
   20.3799  -10.1371  -15.3120 C   0  0  0  0  0  0  0  0  0  0  0  0
   21.7222   -9.6992  -15.8432 C   0  0  2  0  0  0  0  0  0  0  0  0
   22.6978  -10.7416  -15.8530 N   0  0  0  0  0  0  0  0  0  0  0  0
   22.1983   -8.5046  -15.0779 C   0  0  0  0  0  0  0  0  0  0  0  0
   22.7579   -8.6159  -13.9636 O   0  0  0  0  0  0  0  0  0  0  0  0
   24.5785   -5.7436  -16.3400 C   0  0  0  0  0  0  0  0  0  0  0  0
   23.2873   -5.1170  -15.8643 C   0  0  1  0  0  0  0  0  0  0  0  0
   22.4568   -4.8018  -16.9366 O   0  0  0  0  0  0  0  0  0  0  0  0
   22.5676   -6.0204  -14.8787 C   0  0  2  0  0  0  0  0  0  0  0  0
   22.0396   -7.1763  -15.5777 N   0  0  0  0  0  0  0  0  0  0  0  0
   21.4417   -5.3144  -14.2044 C   0  0  0  0  0  0  0  0  0  0  0  0
   21.6679   -4.3542  -13.2274 O   0  0  0  0  0  0  0  0  0  0  0  0
   20.2428   -5.5620  -14.4952 O   0  0  0  0  0  0  0  0  0  0  0  0
  1  2  1  0
  1  5  1  0
  2  3  1  0
  3  4  1  0
  5  6  1  1
  5  4  1  0
  6  7  2  0
  8  9  1  0
  9 11  1  0
 10  9  2  0
 11 12  1  0
 13 12  1  1
 14 13  1  0
 14  6  1  0
 15 21  1  0
 15 13  1  0
 16 15  2  0
 18 17  1  6
 18 19  1  0
 20 18  1  0
 20 21  1  6
 22 20  1  0
 22 23  1  0
 24 22  2  0
M  END
$$$$
