PQT.pdb
     RDKit          3D

 24 24  0  0  1  0  0  0  0  0999 V2000
   18.8817  -11.2067  -14.9636 N   0  0  0  0  0  0  0  0  0  0  0  0
   18.3538  -12.5026  -15.3279 C   0  0  0  0  0  0  0  0  0  0  0  0
   16.9805  -12.2148  -15.9099 C   0  0  0  0  0  0  0  0  0  0  0  0
   16.9465  -10.7512  -16.2167 C   0  0  0  0  0  0  0  0  0  0  0  0
   18.2950  -10.2356  -15.8336 C   0  0  1  0  0  0  0  0  0  0  0  0
   18.1782   -8.9072  -15.1700 C   0  0  0  0  0  0  0  0  0  0  0  0
   17.6933   -7.9033  -15.7497 O   0  0  0  0  0  0  0  0  0  0  0  0
   16.9235   -7.3131   -9.2309 N   0  0  0  0  0  0  0  0  0  0  0  0
   16.1038   -6.9039  -10.3137 C   0  0  0  0  0  0  0  0  0  0  0  0
   14.9396   -6.4745  -10.1518 O   0  0  0  0  0  0  0  0  0  0  0  0
   16.6258   -6.9797  -11.6920 C   0  0  0  0  0  0  0  0  0  0  0  0
   18.0188   -7.5742  -11.7369 C   0  0  0  0  0  0  0  0  0  0  0  0
   18.5838   -7.4684  -13.1317 C   0  0  2  0  0  0  0  0  0  0  0  0
   18.6185   -8.7147  -13.8275 N   0  0  0  0  0  0  0  0  0  0  0  0
   19.9354   -6.8286  -13.0775 C   0  0  0  0  0  0  0  0  0  0  0  0
   20.8272   -7.2369  -12.2997 O   0  0  0  0  0  0  0  0  0  0  0  0
   22.5337   -6.4716  -15.7216 C   0  0  0  0  0  0  0  0  0  0  0  0
   22.1912   -5.0753  -15.2537 C   0  0  1  0  0  0  0  0  0  0  0  0
   21.3358   -4.4405  -16.1504 O   0  0  0  0  0  0  0  0  0  0  0  0
   21.5866   -5.0945  -13.8610 C   0  0  2  0  0  0  0  0  0  0  0  0
   20.2788   -5.7196  -13.9093 N   0  0  0  0  0  0  0  0  0  0  0  0
   21.4386   -3.7197  -13.3052 C   0  0  0  0  0  0  0  0  0  0  0  0
   22.5402   -2.9775  -12.9007 O   0  0  0  0  0  0  0  0  0  0  0  0
   20.3090   -3.1791  -13.1815 O   0  0  0  0  0  0  0  0  0  0  0  0
  1  2  1  0
  1  5  1  0
  2  3  1  0
  3  4  1  0
  5  6  1  1
  5  4  1  0
  6  7  2  0
  8  9  1  0
  9 11  1  0
 10  9  2  0
 11 12  1  0
 13 12  1  1
 14 13  1  0
 14  6  1  0
 15 21  1  0
 15 13  1  0
 16 15  2  0
 18 17  1  6
 18 19  1  0
 20 18  1  0
 20 21  1  6
 22 20  1  0
 22 23  1  0
 24 22  2  0
M  END
$$$$
