PQT.pdb
     RDKit          3D

 24 24  0  0  1  0  0  0  0  0999 V2000
   23.8007  -11.7598  -15.7493 N   0  0  0  0  0  0  0  0  0  0  0  0
   24.1842  -13.1524  -15.6821 C   0  0  0  0  0  0  0  0  0  0  0  0
   23.3014  -13.8498  -16.7028 C   0  0  0  0  0  0  0  0  0  0  0  0
   22.7391  -12.7783  -17.5820 C   0  0  0  0  0  0  0  0  0  0  0  0
   23.3231  -11.5015  -17.0719 C   0  0  1  0  0  0  0  0  0  0  0  0
   22.3012  -10.4179  -17.0818 C   0  0  0  0  0  0  0  0  0  0  0  0
   21.8923   -9.8852  -18.1440 O   0  0  0  0  0  0  0  0  0  0  0  0
   16.8994  -10.2148  -14.3842 N   0  0  0  0  0  0  0  0  0  0  0  0
   17.0106   -8.9030  -14.9120 C   0  0  0  0  0  0  0  0  0  0  0  0
   16.0269   -8.1381  -15.0272 O   0  0  0  0  0  0  0  0  0  0  0  0
   18.3287   -8.4021  -15.3479 C   0  0  0  0  0  0  0  0  0  0  0  0
   19.3926   -9.4790  -15.2816 C   0  0  0  0  0  0  0  0  0  0  0  0
   20.7075   -8.9417  -15.7895 C   0  0  2  0  0  0  0  0  0  0  0  0
   21.7342   -9.9308  -15.8675 N   0  0  0  0  0  0  0  0  0  0  0  0
   21.1282   -7.7742  -14.9533 C   0  0  0  0  0  0  0  0  0  0  0  0
   21.5446   -7.9186  -13.7816 O   0  0  0  0  0  0  0  0  0  0  0  0
   23.9433   -5.4960  -15.4043 C   0  0  0  0  0  0  0  0  0  0  0  0
   22.7008   -4.6347  -15.4137 C   0  0  1  0  0  0  0  0  0  0  0  0
   22.3200   -4.3160  -16.7146 O   0  0  0  0  0  0  0  0  0  0  0  0
   21.5591   -5.3078  -14.6727 C   0  0  2  0  0  0  0  0  0  0  0  0
   21.0769   -6.4352  -15.4472 N   0  0  0  0  0  0  0  0  0  0  0  0
   20.4252   -4.3697  -14.4378 C   0  0  0  0  0  0  0  0  0  0  0  0
   20.4942   -3.3747  -13.4719 O   0  0  0  0  0  0  0  0  0  0  0  0
   19.3618   -4.4440  -15.1064 O   0  0  0  0  0  0  0  0  0  0  0  0
  1  2  1  0
  1  5  1  0
  2  3  1  0
  3  4  1  0
  5  6  1  1
  5  4  1  0
  6  7  2  0
  8  9  1  0
  9 11  1  0
 10  9  2  0
 11 12  1  0
 13 12  1  1
 14 13  1  0
 14  6  1  0
 15 21  1  0
 15 13  1  0
 16 15  2  0
 18 17  1  6
 18 19  1  0
 20 18  1  0
 20 21  1  6
 22 20  1  0
 22 23  1  0
 24 22  2  0
M  END
$$$$
