PQT.pdb
     RDKit          3D

 24 24  0  0  1  0  0  0  0  0999 V2000
   31.4782  -32.6742  -18.1779 N   0  0  0  0  0  0  0  0  0  0  0  0
   32.5574  -32.0595  -18.9183 C   0  0  0  0  0  0  0  0  0  0  0  0
   33.2313  -31.1286  -17.9250 C   0  0  0  0  0  0  0  0  0  0  0  0
   32.7627  -31.5442  -16.5667 C   0  0  0  0  0  0  0  0  0  0  0  0
   31.8584  -32.7100  -16.8002 C   0  0  1  0  0  0  0  0  0  0  0  0
   30.6710  -32.6390  -15.9037 C   0  0  0  0  0  0  0  0  0  0  0  0
   30.7727  -32.5355  -14.6555 O   0  0  0  0  0  0  0  0  0  0  0  0
   27.7013  -29.9919  -18.3094 N   0  0  0  0  0  0  0  0  0  0  0  0
   28.2573  -29.4306  -17.1315 C   0  0  0  0  0  0  0  0  0  0  0  0
   28.8927  -28.3526  -17.1345 O   0  0  0  0  0  0  0  0  0  0  0  0
   28.0909  -30.1297  -15.8424 C   0  0  0  0  0  0  0  0  0  0  0  0
   27.2952  -31.4105  -15.9926 C   0  0  0  0  0  0  0  0  0  0  0  0
   28.1565  -32.6002  -15.6485 C   0  0  2  0  0  0  0  0  0  0  0  0
   29.3472  -32.6861  -16.4317 N   0  0  0  0  0  0  0  0  0  0  0  0
   27.3422  -33.8521  -15.7429 C   0  0  0  0  0  0  0  0  0  0  0  0
   27.2605  -34.5067  -16.8068 O   0  0  0  0  0  0  0  0  0  0  0  0
   27.9507  -36.9273  -13.9930 C   0  0  0  0  0  0  0  0  0  0  0  0
   26.5186  -36.5838  -13.6507 C   0  0  1  0  0  0  0  0  0  0  0  0
   26.4234  -36.0442  -12.3707 O   0  0  0  0  0  0  0  0  0  0  0  0
   25.9199  -35.6369  -14.6756 C   0  0  2  0  0  0  0  0  0  0  0  0
   26.6162  -34.3657  -14.6254 N   0  0  0  0  0  0  0  0  0  0  0  0
   24.4705  -35.3978  -14.4248 C   0  0  0  0  0  0  0  0  0  0  0  0
   23.5243  -36.3932  -14.6295 O   0  0  0  0  0  0  0  0  0  0  0  0
   24.0491  -34.2842  -14.0177 O   0  0  0  0  0  0  0  0  0  0  0  0
  1  2  1  0
  1  5  1  0
  2  3  1  0
  3  4  1  0
  5  6  1  1
  5  4  1  0
  6  7  2  0
  8  9  1  0
  9 11  1  0
 10  9  2  0
 11 12  1  0
 13 12  1  6
 14 13  1  0
 14  6  1  0
 15 21  1  0
 15 13  1  0
 16 15  2  0
 18 17  1  6
 18 19  1  0
 20 18  1  0
 20 21  1  1
 22 20  1  0
 22 23  1  0
 24 22  2  0
M  END
$$$$
