PQT.pdb
     RDKit          3D

 24 24  0  0  1  0  0  0  0  0999 V2000
   13.8982  -11.9713  -10.4885 N   0  0  0  0  0  0  0  0  0  0  0  0
   12.6920  -12.7630  -10.3931 C   0  0  0  0  0  0  0  0  0  0  0  0
   11.8610  -12.3543  -11.5972 C   0  0  0  0  0  0  0  0  0  0  0  0
   12.7885  -11.6484  -12.5347 C   0  0  0  0  0  0  0  0  0  0  0  0
   14.1261  -11.6870  -11.8710 C   0  0  1  0  0  0  0  0  0  0  0  0
   14.8377  -10.3911  -12.0521 C   0  0  0  0  0  0  0  0  0  0  0  0
   15.0290   -9.8783  -13.1833 O   0  0  0  0  0  0  0  0  0  0  0  0
   15.5462   -6.0881   -7.4493 N   0  0  0  0  0  0  0  0  0  0  0  0
   14.3892   -6.2963   -8.2428 C   0  0  0  0  0  0  0  0  0  0  0  0
   13.2629   -5.8575   -7.9189 O   0  0  0  0  0  0  0  0  0  0  0  0
   14.4969   -7.0573   -9.5027 C   0  0  0  0  0  0  0  0  0  0  0  0
   15.8933   -7.6061   -9.7139 C   0  0  0  0  0  0  0  0  0  0  0  0
   15.9570   -8.3799  -11.0074 C   0  0  2  0  0  0  0  0  0  0  0  0
   15.3403   -9.6653  -10.9323 N   0  0  0  0  0  0  0  0  0  0  0  0
   17.3787   -8.4755  -11.4644 C   0  0  0  0  0  0  0  0  0  0  0  0
   18.2131   -9.1994  -10.8755 O   0  0  0  0  0  0  0  0  0  0  0  0
   20.8009   -8.7360  -14.7340 C   0  0  0  0  0  0  0  0  0  0  0  0
   19.3692   -8.6683  -14.2526 C   0  0  1  0  0  0  0  0  0  0  0  0
   18.8602   -9.9414  -14.0092 O   0  0  0  0  0  0  0  0  0  0  0  0
   19.2455   -7.7978  -13.0147 C   0  0  2  0  0  0  0  0  0  0  0  0
   17.8581   -7.7468  -12.5952 N   0  0  0  0  0  0  0  0  0  0  0  0
   19.7192   -6.4079  -13.2685 C   0  0  0  0  0  0  0  0  0  0  0  0
   18.8282   -5.3559  -13.4340 O   0  0  0  0  0  0  0  0  0  0  0  0
   20.9453   -6.1349  -13.3424 O   0  0  0  0  0  0  0  0  0  0  0  0
  1  2  1  0
  1  5  1  0
  2  3  1  0
  3  4  1  0
  5  6  1  1
  5  4  1  0
  6  7  2  0
  8  9  1  0
  9 11  1  0
 10  9  2  0
 11 12  1  0
 13 12  1  1
 14 13  1  0
 14  6  1  0
 15 21  1  0
 15 13  1  0
 16 15  2  0
 18 17  1  1
 18 19  1  0
 20 18  1  0
 20 21  1  6
 22 20  1  0
 22 23  1  0
 24 22  2  0
M  END
$$$$
