PQT.pdb
     RDKit          3D

 24 24  0  0  1  0  0  0  0  0999 V2000
   27.5902  -19.3936  -15.1739 N   0  0  0  0  0  0  0  0  0  0  0  0
   29.0208  -19.2884  -15.3559 C   0  0  0  0  0  0  0  0  0  0  0  0
   29.5078  -20.7237  -15.4563 C   0  0  0  0  0  0  0  0  0  0  0  0
   28.3005  -21.5651  -15.7243 C   0  0  0  0  0  0  0  0  0  0  0  0
   27.1582  -20.6053  -15.7978 C   0  0  1  0  0  0  0  0  0  0  0  0
   25.9565  -21.1694  -15.1224 C   0  0  0  0  0  0  0  0  0  0  0  0
   25.1515  -21.9371  -15.7070 O   0  0  0  0  0  0  0  0  0  0  0  0
   25.1351  -21.3257   -8.8371 N   0  0  0  0  0  0  0  0  0  0  0  0
   25.3974  -20.1285   -9.5510 C   0  0  0  0  0  0  0  0  0  0  0  0
   25.7440  -19.0685   -8.9836 O   0  0  0  0  0  0  0  0  0  0  0  0
   25.2617  -20.1119  -11.0205 C   0  0  0  0  0  0  0  0  0  0  0  0
   24.7519  -21.4345  -11.5561 C   0  0  0  0  0  0  0  0  0  0  0  0
   24.5270  -21.3399  -13.0448 C   0  0  2  0  0  0  0  0  0  0  0  0
   25.6632  -20.8576  -13.7622 N   0  0  0  0  0  0  0  0  0  0  0  0
   23.3105  -20.5118  -13.3160 C   0  0  0  0  0  0  0  0  0  0  0  0
   23.3271  -19.2639  -13.2172 O   0  0  0  0  0  0  0  0  0  0  0  0
   19.1373  -19.8881  -15.7341 C   0  0  0  0  0  0  0  0  0  0  0  0
   20.4450  -20.5820  -15.4270 C   0  0  1  0  0  0  0  0  0  0  0  0
   21.4340  -20.2152  -16.3360 O   0  0  0  0  0  0  0  0  0  0  0  0
   20.8961  -20.3013  -14.0046 C   0  0  2  0  0  0  0  0  0  0  0  0
   22.0678  -21.1006  -13.7015 N   0  0  0  0  0  0  0  0  0  0  0  0
   19.8296  -20.6225  -13.0145 C   0  0  0  0  0  0  0  0  0  0  0  0
   18.9199  -19.6632  -12.5904 O   0  0  0  0  0  0  0  0  0  0  0  0
   19.7133  -21.7760  -12.5252 O   0  0  0  0  0  0  0  0  0  0  0  0
  1  2  1  0
  1  5  1  0
  2  3  1  0
  3  4  1  0
  5  6  1  1
  5  4  1  0
  6  7  2  0
  8  9  1  0
  9 11  1  0
 10  9  2  0
 11 12  1  0
 13 12  1  1
 14 13  1  0
 14  6  1  0
 15 21  1  0
 15 13  1  0
 16 15  2  0
 18 17  1  6
 18 19  1  0
 20 18  1  0
 20 21  1  1
 22 20  1  0
 22 23  1  0
 24 22  2  0
M  END
$$$$
