PQT.pdb
     RDKit          3D

 24 24  0  0  1  0  0  0  0  0999 V2000
   18.5595  -13.0655  -16.6476 N   0  0  0  0  0  0  0  0  0  0  0  0
   19.1251  -14.3745  -16.8876 C   0  0  0  0  0  0  0  0  0  0  0  0
   20.5844  -14.1141  -17.2194 C   0  0  0  0  0  0  0  0  0  0  0  0
   20.8807  -12.7186  -16.7696 C   0  0  0  0  0  0  0  0  0  0  0  0
   19.6073  -12.2176  -16.1706 C   0  0  1  0  0  0  0  0  0  0  0  0
   19.3747  -10.7960  -16.5493 C   0  0  0  0  0  0  0  0  0  0  0  0
   19.4189  -10.3988  -17.7408 O   0  0  0  0  0  0  0  0  0  0  0  0
   14.6476   -7.4271  -16.0323 N   0  0  0  0  0  0  0  0  0  0  0  0
   15.5966   -6.3934  -16.2388 C   0  0  0  0  0  0  0  0  0  0  0  0
   15.2630   -5.2110  -16.4767 O   0  0  0  0  0  0  0  0  0  0  0  0
   17.0379   -6.7040  -16.1747 C   0  0  0  0  0  0  0  0  0  0  0  0
   17.2878   -8.1667  -15.8681 C   0  0  0  0  0  0  0  0  0  0  0  0
   18.7701   -8.4459  -15.8418 C   0  0  2  0  0  0  0  0  0  0  0  0
   19.0873   -9.8093  -15.5609 N   0  0  0  0  0  0  0  0  0  0  0  0
   19.4383   -7.5141  -14.8803 C   0  0  0  0  0  0  0  0  0  0  0  0
   19.3773   -7.6894  -13.6423 O   0  0  0  0  0  0  0  0  0  0  0  0
   22.9112   -5.8847  -15.8732 C   0  0  0  0  0  0  0  0  0  0  0  0
   22.3911   -5.8929  -14.4536 C   0  0  1  0  0  0  0  0  0  0  0  0
   23.1324   -5.0384  -13.6418 O   0  0  0  0  0  0  0  0  0  0  0  0
   20.9173   -5.5305  -14.4055 C   0  0  2  0  0  0  0  0  0  0  0  0
   20.1801   -6.3772  -15.3238 N   0  0  0  0  0  0  0  0  0  0  0  0
   20.6873   -4.1064  -14.7795 C   0  0  0  0  0  0  0  0  0  0  0  0
   21.0280   -3.0670  -13.9243 O   0  0  0  0  0  0  0  0  0  0  0  0
   20.1753   -3.7920  -15.8851 O   0  0  0  0  0  0  0  0  0  0  0  0
  1  2  1  0
  1  5  1  0
  2  3  1  0
  3  4  1  0
  5  6  1  6
  5  4  1  0
  6  7  2  0
  8  9  1  0
  9 11  1  0
 10  9  2  0
 11 12  1  0
 13 12  1  1
 14 13  1  0
 14  6  1  0
 15 21  1  0
 15 13  1  0
 16 15  2  0
 18 17  1  6
 18 19  1  0
 20 18  1  0
 20 21  1  6
 22 20  1  0
 22 23  1  0
 24 22  2  0
M  END
$$$$
