PQT.pdb
     RDKit          3D

 24 24  0  0  1  0  0  0  0  0999 V2000
   24.5973  -12.5695  -15.9211 N   0  0  0  0  0  0  0  0  0  0  0  0
   24.8350  -13.9266  -15.4821 C   0  0  0  0  0  0  0  0  0  0  0  0
   23.8661  -14.7731  -16.2897 C   0  0  0  0  0  0  0  0  0  0  0  0
   23.4024  -13.9204  -17.4279 C   0  0  0  0  0  0  0  0  0  0  0  0
   24.1253  -12.6228  -17.2696 C   0  0  1  0  0  0  0  0  0  0  0  0
   23.2217  -11.4795  -17.5777 C   0  0  0  0  0  0  0  0  0  0  0  0
   22.7364  -11.2918  -18.7216 O   0  0  0  0  0  0  0  0  0  0  0  0
   17.8877  -10.7016  -16.1128 N   0  0  0  0  0  0  0  0  0  0  0  0
   18.8279  -10.9533  -15.0811 C   0  0  0  0  0  0  0  0  0  0  0  0
   18.5036  -11.4598  -13.9837 O   0  0  0  0  0  0  0  0  0  0  0  0
   20.2483  -10.6116  -15.2904 C   0  0  0  0  0  0  0  0  0  0  0  0
   20.4784   -9.9502  -16.6340 C   0  0  0  0  0  0  0  0  0  0  0  0
   21.9094   -9.4858  -16.7459 C   0  0  2  0  0  0  0  0  0  0  0  0
   22.8629  -10.5341  -16.5723 N   0  0  0  0  0  0  0  0  0  0  0  0
   22.1468   -8.3596  -15.7895 C   0  0  0  0  0  0  0  0  0  0  0  0
   22.6841   -8.5444  -14.6741 O   0  0  0  0  0  0  0  0  0  0  0  0
   21.9710   -3.4224  -14.9777 C   0  0  0  0  0  0  0  0  0  0  0  0
   21.6580   -4.6054  -15.8657 C   0  0  1  0  0  0  0  0  0  0  0  0
   22.2819   -4.4829  -17.1045 O   0  0  0  0  0  0  0  0  0  0  0  0
   22.0473   -5.9126  -15.1984 C   0  0  2  0  0  0  0  0  0  0  0  0
   21.7733   -7.0163  -16.0984 N   0  0  0  0  0  0  0  0  0  0  0  0
   21.2935   -6.1308  -13.9316 C   0  0  0  0  0  0  0  0  0  0  0  0
   19.9660   -6.5378  -13.9375 O   0  0  0  0  0  0  0  0  0  0  0  0
   21.8318   -5.9543  -12.8080 O   0  0  0  0  0  0  0  0  0  0  0  0
  1  2  1  0
  1  5  1  0
  2  3  1  0
  3  4  1  0
  5  6  1  1
  5  4  1  0
  6  7  2  0
  8  9  1  0
  9 11  1  0
 10  9  2  0
 11 12  1  0
 13 12  1  1
 14 13  1  0
 14  6  1  0
 15 21  1  0
 15 13  1  0
 16 15  2  0
 18 17  1  1
 18 19  1  0
 20 18  1  0
 20 21  1  6
 22 20  1  0
 22 23  1  0
 24 22  2  0
M  END
$$$$
