PQT.pdb
     RDKit          3D

 24 24  0  0  1  0  0  0  0  0999 V2000
   19.7980  -12.6663  -16.3673 N   0  0  0  0  0  0  0  0  0  0  0  0
   19.7329  -13.9904  -16.9447 C   0  0  0  0  0  0  0  0  0  0  0  0
   20.1544  -13.8059  -18.3924 C   0  0  0  0  0  0  0  0  0  0  0  0
   20.8181  -12.4679  -18.4752 C   0  0  0  0  0  0  0  0  0  0  0  0
   20.7891  -11.9256  -17.0836 C   0  0  1  0  0  0  0  0  0  0  0  0
   20.4792  -10.4687  -17.0962 C   0  0  0  0  0  0  0  0  0  0  0  0
   20.4486   -9.7942  -18.1561 O   0  0  0  0  0  0  0  0  0  0  0  0
   15.8393   -7.5595  -14.5646 N   0  0  0  0  0  0  0  0  0  0  0  0
   16.6473   -6.4707  -14.9812 C   0  0  0  0  0  0  0  0  0  0  0  0
   16.2188   -5.2963  -15.0347 O   0  0  0  0  0  0  0  0  0  0  0  0
   18.0503   -6.7116  -15.3705 C   0  0  0  0  0  0  0  0  0  0  0  0
   18.3962   -8.1868  -15.3537 C   0  0  0  0  0  0  0  0  0  0  0  0
   19.8174   -8.3921  -15.8160 C   0  0  2  0  0  0  0  0  0  0  0  0
   20.1995   -9.7660  -15.8874 N   0  0  0  0  0  0  0  0  0  0  0  0
   20.7460   -7.6055  -14.9452 C   0  0  0  0  0  0  0  0  0  0  0  0
   21.1660   -8.0544  -13.8547 O   0  0  0  0  0  0  0  0  0  0  0  0
   24.2093   -6.3974  -15.6929 C   0  0  0  0  0  0  0  0  0  0  0  0
   23.3553   -5.1903  -15.3775 C   0  0  1  0  0  0  0  0  0  0  0  0
   22.9330   -4.5551  -16.5424 O   0  0  0  0  0  0  0  0  0  0  0  0
   22.1650   -5.5689  -14.5139 C   0  0  2  0  0  0  0  0  0  0  0  0
   21.2016   -6.3026  -15.3119 N   0  0  0  0  0  0  0  0  0  0  0  0
   21.4948   -4.3672  -13.9415 C   0  0  0  0  0  0  0  0  0  0  0  0
   22.0556   -3.6549  -12.8899 O   0  0  0  0  0  0  0  0  0  0  0  0
   20.3947   -3.9525  -14.3899 O   0  0  0  0  0  0  0  0  0  0  0  0
  1  2  1  0
  1  5  1  0
  2  3  1  0
  3  4  1  0
  5  6  1  6
  5  4  1  0
  6  7  2  0
  8  9  1  0
  9 11  1  0
 10  9  2  0
 11 12  1  0
 13 12  1  1
 14 13  1  0
 14  6  1  0
 15 21  1  0
 15 13  1  0
 16 15  2  0
 18 17  1  6
 18 19  1  0
 20 18  1  0
 20 21  1  6
 22 20  1  0
 22 23  1  0
 24 22  2  0
M  END
$$$$
