PQT.pdb
     RDKit          3D

 24 24  0  0  1  0  0  0  0  0999 V2000
   29.1068  -20.0513  -14.9344 N   0  0  0  0  0  0  0  0  0  0  0  0
   30.5036  -20.1965  -15.2791 C   0  0  0  0  0  0  0  0  0  0  0  0
   30.7576  -21.6940  -15.2553 C   0  0  0  0  0  0  0  0  0  0  0  0
   29.4156  -22.3539  -15.2889 C   0  0  0  0  0  0  0  0  0  0  0  0
   28.4271  -21.2361  -15.3567 C   0  0  1  0  0  0  0  0  0  0  0  0
   27.2484  -21.5268  -14.4936 C   0  0  0  0  0  0  0  0  0  0  0  0
   26.4220  -22.4344  -14.7629 O   0  0  0  0  0  0  0  0  0  0  0  0
   26.6009  -20.2090   -8.2898 N   0  0  0  0  0  0  0  0  0  0  0  0
   25.3643  -20.7991   -8.6563 C   0  0  0  0  0  0  0  0  0  0  0  0
   24.4962  -21.1206   -7.8144 O   0  0  0  0  0  0  0  0  0  0  0  0
   25.0712  -21.0519  -10.0805 C   0  0  0  0  0  0  0  0  0  0  0  0
   26.2568  -20.7300  -10.9673 C   0  0  0  0  0  0  0  0  0  0  0  0
   25.9150  -21.0040  -12.4109 C   0  0  2  0  0  0  0  0  0  0  0  0
   27.0035  -20.7761  -13.3063 N   0  0  0  0  0  0  0  0  0  0  0  0
   24.7061  -20.2119  -12.7985 C   0  0  0  0  0  0  0  0  0  0  0  0
   24.6866  -18.9622  -12.7285 O   0  0  0  0  0  0  0  0  0  0  0  0
   23.2923  -19.5784  -15.9405 C   0  0  0  0  0  0  0  0  0  0  0  0
   22.1533  -20.2157  -15.1773 C   0  0  1  0  0  0  0  0  0  0  0  0
   21.9999  -21.5544  -15.5284 O   0  0  0  0  0  0  0  0  0  0  0  0
   22.3491  -20.0757  -13.6781 C   0  0  2  0  0  0  0  0  0  0  0  0
   23.5122  -20.8391  -13.2682 N   0  0  0  0  0  0  0  0  0  0  0  0
   21.1641  -20.5661  -12.9191 C   0  0  0  0  0  0  0  0  0  0  0  0
   19.9498  -19.8937  -12.9549 O   0  0  0  0  0  0  0  0  0  0  0  0
   21.2192  -21.6087  -12.2167 O   0  0  0  0  0  0  0  0  0  0  0  0
  1  2  1  0
  1  5  1  0
  2  3  1  0
  3  4  1  0
  5  6  1  1
  5  4  1  0
  6  7  2  0
  8  9  1  0
  9 11  1  0
 10  9  2  0
 11 12  1  0
 13 12  1  1
 14 13  1  0
 14  6  1  0
 15 21  1  0
 15 13  1  0
 16 15  2  0
 18 17  1  6
 18 19  1  0
 20 18  1  0
 20 21  1  1
 22 20  1  0
 22 23  1  0
 24 22  2  0
M  END
$$$$
