PQT.pdb
     RDKit          3D

 24 24  0  0  1  0  0  0  0  0999 V2000
   18.8534   -9.8550  -13.6340 N   0  0  0  0  0  0  0  0  0  0  0  0
   19.2959  -10.8652  -14.5692 C   0  0  0  0  0  0  0  0  0  0  0  0
   18.3792  -10.7127  -15.7708 C   0  0  0  0  0  0  0  0  0  0  0  0
   17.7199   -9.3767  -15.6364 C   0  0  0  0  0  0  0  0  0  0  0  0
   18.2833   -8.7819  -14.3873 C   0  0  1  0  0  0  0  0  0  0  0  0
   17.2202   -8.0782  -13.6172 C   0  0  0  0  0  0  0  0  0  0  0  0
   16.5477   -7.1341  -14.1026 O   0  0  0  0  0  0  0  0  0  0  0  0
   14.1175  -10.7154   -8.8690 N   0  0  0  0  0  0  0  0  0  0  0  0
   13.6126  -10.6277  -10.1915 C   0  0  0  0  0  0  0  0  0  0  0  0
   12.6798  -11.3518  -10.6054 O   0  0  0  0  0  0  0  0  0  0  0  0
   14.1967   -9.6509  -11.1312 C   0  0  0  0  0  0  0  0  0  0  0  0
   15.2814   -8.8180  -10.4788 C   0  0  0  0  0  0  0  0  0  0  0  0
   15.8805   -7.8662  -11.4843 C   0  0  2  0  0  0  0  0  0  0  0  0
   16.9152   -8.4513  -12.2752 N   0  0  0  0  0  0  0  0  0  0  0  0
   16.3524   -6.6303  -10.7848 C   0  0  0  0  0  0  0  0  0  0  0  0
   17.4666   -6.5794  -10.2163 O   0  0  0  0  0  0  0  0  0  0  0  0
   13.8046   -3.1624  -10.4679 C   0  0  0  0  0  0  0  0  0  0  0  0
   15.2862   -3.0356  -10.7411 C   0  0  1  0  0  0  0  0  0  0  0  0
   15.7859   -1.8310  -10.2531 O   0  0  0  0  0  0  0  0  0  0  0  0
   16.0554   -4.2081  -10.1587 C   0  0  2  0  0  0  0  0  0  0  0  0
   15.5575   -5.4452  -10.7288 N   0  0  0  0  0  0  0  0  0  0  0  0
   15.9179   -4.2760   -8.6764 C   0  0  0  0  0  0  0  0  0  0  0  0
   16.4631   -3.3015   -7.8512 O   0  0  0  0  0  0  0  0  0  0  0  0
   15.3021   -5.2196   -8.1162 O   0  0  0  0  0  0  0  0  0  0  0  0
  1  2  1  0
  1  5  1  0
  2  3  1  0
  3  4  1  0
  5  6  1  1
  5  4  1  0
  6  7  2  0
  8  9  1  0
  9 11  1  0
 10  9  2  0
 11 12  1  0
 13 12  1  1
 14 13  1  0
 14  6  1  0
 15 21  1  0
 15 13  1  0
 16 15  2  0
 18 17  1  1
 18 19  1  0
 20 18  1  0
 20 21  1  6
 22 20  1  0
 22 23  1  0
 24 22  2  0
M  END
$$$$
