PQT.pdb
     RDKit          3D

 24 24  0  0  1  0  0  0  0  0999 V2000
   27.2173  -19.3951  -15.1886 N   0  0  0  0  0  0  0  0  0  0  0  0
   28.6183  -19.0756  -15.3493 C   0  0  0  0  0  0  0  0  0  0  0  0
   29.3565  -20.3336  -14.9251 C   0  0  0  0  0  0  0  0  0  0  0  0
   28.3477  -21.4380  -14.9208 C   0  0  0  0  0  0  0  0  0  0  0  0
   27.0683  -20.8063  -15.3627 C   0  0  1  0  0  0  0  0  0  0  0  0
   25.9226  -21.3364  -14.5720 C   0  0  0  0  0  0  0  0  0  0  0  0
   25.5745  -22.5431  -14.6136 O   0  0  0  0  0  0  0  0  0  0  0  0
   24.3936  -20.8140   -8.6408 N   0  0  0  0  0  0  0  0  0  0  0  0
   25.5252  -20.8512   -9.4951 C   0  0  0  0  0  0  0  0  0  0  0  0
   26.6818  -20.5957   -9.0917 O   0  0  0  0  0  0  0  0  0  0  0  0
   25.3527  -21.2027  -10.9180 C   0  0  0  0  0  0  0  0  0  0  0  0
   24.1025  -20.5807  -11.5063 C   0  0  0  0  0  0  0  0  0  0  0  0
   24.0106  -20.8936  -12.9792 C   0  0  2  0  0  0  0  0  0  0  0  0
   25.1598  -20.4840  -13.7206 N   0  0  0  0  0  0  0  0  0  0  0  0
   22.7538  -20.3050  -13.5389 C   0  0  0  0  0  0  0  0  0  0  0  0
   22.5324  -19.0733  -13.5084 O   0  0  0  0  0  0  0  0  0  0  0  0
   21.5357  -20.0652  -16.9347 C   0  0  0  0  0  0  0  0  0  0  0  0
   20.4757  -20.8411  -16.1862 C   0  0  1  0  0  0  0  0  0  0  0  0
   20.5925  -22.2083  -16.4229 O   0  0  0  0  0  0  0  0  0  0  0  0
   20.5298  -20.5503  -14.6968 C   0  0  2  0  0  0  0  0  0  0  0  0
   21.7419  -21.1163  -14.1365 N   0  0  0  0  0  0  0  0  0  0  0  0
   19.3576  -21.1269  -13.9797 C   0  0  0  0  0  0  0  0  0  0  0  0
   18.0879  -20.5793  -14.1059 O   0  0  0  0  0  0  0  0  0  0  0  0
   19.4742  -22.1323  -13.2321 O   0  0  0  0  0  0  0  0  0  0  0  0
  1  2  1  0
  1  5  1  0
  2  3  1  0
  3  4  1  0
  5  6  1  1
  5  4  1  0
  6  7  2  0
  8  9  1  0
  9 11  1  0
 10  9  2  0
 11 12  1  0
 13 12  1  1
 14 13  1  0
 14  6  1  0
 15 21  1  0
 15 13  1  0
 16 15  2  0
 18 17  1  6
 18 19  1  0
 20 18  1  0
 20 21  1  1
 22 20  1  0
 22 23  1  0
 24 22  2  0
M  END
$$$$
