CGH.pdb
     RDKit          3D

 21 21  0  0  1  0  0  0  0  0999 V2000
   28.1188  -18.9570  -17.2533 N   0  0  0  0  0  0  0  0  0  0  0  0
   27.2858  -19.9780  -16.6928 C   0  0  1  0  0  0  0  0  0  0  0  0
   27.9745  -20.5613  -15.4692 C   0  0  0  0  0  0  0  0  0  0  0  0
   27.9554  -19.4150  -14.0753 S   0  0  0  0  0  0  0  0  0  0  0  0
   25.9428  -19.4534  -16.3435 C   0  0  0  0  0  0  0  0  0  0  0  0
   25.8630  -18.3886  -15.6980 O   0  0  0  0  0  0  0  0  0  0  0  0
   24.7797  -20.1642  -16.7454 N   0  0  0  0  0  0  0  0  0  0  0  0
   23.4621  -19.7008  -16.3821 C   0  0  0  0  0  0  0  0  0  0  0  0
   22.8196  -20.6024  -15.3861 C   0  0  0  0  0  0  0  0  0  0  0  0
   22.8020  -21.8444  -15.5516 O   0  0  0  0  0  0  0  0  0  0  0  0
   22.2056  -20.0832  -14.2154 N   0  0  0  0  0  0  0  0  0  0  0  0
   21.6091  -20.8564  -13.1660 C   0  0  1  0  0  0  0  0  0  0  0  0
   22.1003  -20.4051  -11.8238 C   0  0  0  0  0  0  0  0  0  0  0  0
   23.4934  -20.7339  -11.5194 C   0  0  0  0  0  0  0  0  0  0  0  0
   24.4322  -21.3881  -12.2569 C   0  0  0  0  0  0  0  0  0  0  0  0
   25.5974  -21.4756  -11.5455 N   0  0  0  0  0  0  0  0  0  0  0  0
   25.3543  -20.8716  -10.3777 C   0  0  0  0  0  0  0  0  0  0  0  0
   24.0958  -20.4169  -10.3370 N   0  0  0  0  0  0  0  0  0  0  0  0
   20.1079  -20.6849  -13.1771 C   0  0  0  0  0  0  0  0  0  0  0  0
   19.3267  -21.5428  -12.4696 O   0  0  0  0  0  0  0  0  0  0  0  0
   19.6323  -19.7535  -13.8410 O   0  0  0  0  0  0  0  0  0  0  0  0
  2  1  1  1
  3  2  1  0
  4  3  1  0
  5  2  1  0
  6  5  2  0
  7  5  1  0
  8  7  1  0
  9  8  1  0
  9 11  1  0
 10  9  2  0
 12 11  1  0
 13 14  1  0
 12 13  1  1
 14 18  1  0
 15 14  2  0
 15 16  1  0
 16 17  1  0
 18 17  2  0
 19 12  1  0
 20 19  1  0
 21 19  2  0
M  END
$$$$
