CGH.pdb
     RDKit          3D

 21 21  0  0  1  0  0  0  0  0999 V2000
   18.9620  -22.7439   -9.6226 N   0  0  0  0  0  0  0  0  0  0  0  0
   18.0668  -23.3746   -8.7000 C   0  0  1  0  0  0  0  0  0  0  0  0
   16.9404  -24.0362   -9.4780 C   0  0  0  0  0  0  0  0  0  0  0  0
   15.9680  -22.8337  -10.4084 S   0  0  0  0  0  0  0  0  0  0  0  0
   18.7720  -24.3631   -7.8475 C   0  0  0  0  0  0  0  0  0  0  0  0
   19.9398  -24.6873   -8.1438 O   0  0  0  0  0  0  0  0  0  0  0  0
   18.1133  -24.9199   -6.7180 N   0  0  0  0  0  0  0  0  0  0  0  0
   18.8587  -25.5765   -5.6710 C   0  0  0  0  0  0  0  0  0  0  0  0
   17.9779  -25.9731   -4.5376 C   0  0  0  0  0  0  0  0  0  0  0  0
   16.8818  -25.4001   -4.3363 O   0  0  0  0  0  0  0  0  0  0  0  0
   18.3522  -27.0146   -3.6475 N   0  0  0  0  0  0  0  0  0  0  0  0
   17.5699  -27.5039   -2.5505 C   0  0  1  0  0  0  0  0  0  0  0  0
   18.1531  -28.7703   -2.0005 C   0  0  0  0  0  0  0  0  0  0  0  0
   18.1857  -29.9031   -2.9265 C   0  0  0  0  0  0  0  0  0  0  0  0
   17.2690  -30.3314   -3.8371 C   0  0  0  0  0  0  0  0  0  0  0  0
   17.7343  -31.4538   -4.4657 N   0  0  0  0  0  0  0  0  0  0  0  0
   18.9340  -31.6980   -3.9284 C   0  0  0  0  0  0  0  0  0  0  0  0
   19.2287  -30.7796   -2.9999 N   0  0  0  0  0  0  0  0  0  0  0  0
   17.5509  -26.4924   -1.4281 C   0  0  0  0  0  0  0  0  0  0  0  0
   16.7164  -26.6746   -0.3711 O   0  0  0  0  0  0  0  0  0  0  0  0
   18.3085  -25.5158   -1.5104 O   0  0  0  0  0  0  0  0  0  0  0  0
  2  1  1  6
  3  2  1  0
  4  3  1  0
  5  2  1  0
  6  5  2  0
  7  5  1  0
  8  7  1  0
  9  8  1  0
  9 11  1  0
 10  9  2  0
 12 11  1  0
 13 14  1  0
 12 13  1  1
 14 18  1  0
 15 14  2  0
 15 16  1  0
 16 17  1  0
 18 17  2  0
 19 12  1  0
 20 19  1  0
 21 19  2  0
M  END
$$$$
