CGH.pdb
     RDKit          3D

 21 21  0  0  1  0  0  0  0  0999 V2000
   19.2724   -9.7503  -19.3855 N   0  0  0  0  0  0  0  0  0  0  0  0
   20.4209   -9.6506  -20.2348 C   0  0  1  0  0  0  0  0  0  0  0  0
   19.9587   -9.4830  -21.6735 C   0  0  0  0  0  0  0  0  0  0  0  0
   19.0378  -10.9214  -22.2568 S   0  0  0  0  0  0  0  0  0  0  0  0
   21.3020   -8.5282  -19.8285 C   0  0  0  0  0  0  0  0  0  0  0  0
   22.3246   -8.2926  -20.5034 O   0  0  0  0  0  0  0  0  0  0  0  0
   20.9711   -7.7466  -18.6888 N   0  0  0  0  0  0  0  0  0  0  0  0
   21.8685   -6.7277  -18.1994 C   0  0  0  0  0  0  0  0  0  0  0  0
   21.2850   -5.9933  -17.0428 C   0  0  0  0  0  0  0  0  0  0  0  0
   20.0445   -5.9119  -16.8848 O   0  0  0  0  0  0  0  0  0  0  0  0
   22.1164   -5.3609  -16.0805 N   0  0  0  0  0  0  0  0  0  0  0  0
   21.6665   -4.6073  -14.9471 C   0  0  1  0  0  0  0  0  0  0  0  0
   22.0454   -5.2889  -13.6672 C   0  0  0  0  0  0  0  0  0  0  0  0
   21.3899   -6.5738  -13.4195 C   0  0  0  0  0  0  0  0  0  0  0  0
   20.4903   -7.2696  -14.1675 C   0  0  0  0  0  0  0  0  0  0  0  0
   20.1425   -8.4210  -13.5158 N   0  0  0  0  0  0  0  0  0  0  0  0
   20.8368   -8.4135  -12.3732 C   0  0  0  0  0  0  0  0  0  0  0  0
   21.5947   -7.3129  -12.2912 N   0  0  0  0  0  0  0  0  0  0  0  0
   22.3110   -3.2407  -14.9372 C   0  0  0  0  0  0  0  0  0  0  0  0
   23.2618   -2.9375  -15.8597 O   0  0  0  0  0  0  0  0  0  0  0  0
   21.9452   -2.4297  -14.0752 O   0  0  0  0  0  0  0  0  0  0  0  0
  2  1  1  1
  3  2  1  0
  4  3  1  0
  5  2  1  0
  6  5  2  0
  7  5  1  0
  8  7  1  0
  9  8  1  0
  9 11  1  0
 10  9  2  0
 12 11  1  0
 13 14  1  0
 12 13  1  1
 14 18  1  0
 15 14  2  0
 15 16  1  0
 16 17  1  0
 18 17  2  0
 19 12  1  0
 20 19  1  0
 21 19  2  0
M  END
$$$$
