CGH.pdb
     RDKit          3D

 21 21  0  0  1  0  0  0  0  0999 V2000
   31.0613  -11.2451  -19.0665 N   0  0  0  0  0  0  0  0  0  0  0  0
   30.0340  -11.7381  -18.1994 C   0  0  1  0  0  0  0  0  0  0  0  0
   30.6422  -12.7432  -17.2341 C   0  0  0  0  0  0  0  0  0  0  0  0
   31.1170  -14.2731  -18.0655 S   0  0  0  0  0  0  0  0  0  0  0  0
   29.3675  -10.6355  -17.4639 C   0  0  0  0  0  0  0  0  0  0  0  0
   30.0696   -9.7213  -16.9865 O   0  0  0  0  0  0  0  0  0  0  0  0
   27.9541  -10.6374  -17.3159 N   0  0  0  0  0  0  0  0  0  0  0  0
   27.2840   -9.6072  -16.5593 C   0  0  0  0  0  0  0  0  0  0  0  0
   25.8035   -9.7524  -16.6281 C   0  0  0  0  0  0  0  0  0  0  0  0
   25.2577  -10.4087  -17.5456 O   0  0  0  0  0  0  0  0  0  0  0  0
   24.9615   -9.1510  -15.6552 N   0  0  0  0  0  0  0  0  0  0  0  0
   23.5282   -9.1424  -15.6745 C   0  0  1  0  0  0  0  0  0  0  0  0
   22.9750   -9.0724  -14.2832 C   0  0  0  0  0  0  0  0  0  0  0  0
   21.5149   -9.0642  -14.1853 C   0  0  0  0  0  0  0  0  0  0  0  0
   20.5607   -9.2528  -15.1377 C   0  0  0  0  0  0  0  0  0  0  0  0
   19.3193   -9.1348  -14.5752 N   0  0  0  0  0  0  0  0  0  0  0  0
   19.5320   -8.8741  -13.2812 C   0  0  0  0  0  0  0  0  0  0  0  0
   20.8444   -8.8264  -13.0211 N   0  0  0  0  0  0  0  0  0  0  0  0
   23.0214   -7.9310  -16.4219 C   0  0  0  0  0  0  0  0  0  0  0  0
   21.9388   -8.0456  -17.2354 O   0  0  0  0  0  0  0  0  0  0  0  0
   23.6190   -6.8572  -16.2657 O   0  0  0  0  0  0  0  0  0  0  0  0
  2  1  1  6
  3  2  1  0
  4  3  1  0
  5  2  1  0
  6  5  2  0
  7  5  1  0
  8  7  1  0
  9  8  1  0
  9 11  1  0
 10  9  2  0
 12 11  1  0
 13 14  1  0
 12 13  1  1
 14 18  1  0
 15 14  2  0
 15 16  1  0
 16 17  1  0
 18 17  2  0
 19 12  1  0
 20 19  1  0
 21 19  2  0
M  END
$$$$
