CGH.pdb
     RDKit          3D

 21 21  0  0  1  0  0  0  0  0999 V2000
   26.1853  -17.4590  -17.4289 N   0  0  0  0  0  0  0  0  0  0  0  0
   25.4423  -18.2053  -16.4587 C   0  0  1  0  0  0  0  0  0  0  0  0
   24.5138  -19.1685  -17.1812 C   0  0  0  0  0  0  0  0  0  0  0  0
   23.5691  -18.3461  -18.4806 S   0  0  0  0  0  0  0  0  0  0  0  0
   26.3399  -18.9338  -15.5288 C   0  0  0  0  0  0  0  0  0  0  0  0
   27.1840  -18.2857  -14.8775 O   0  0  0  0  0  0  0  0  0  0  0  0
   26.2257  -20.3440  -15.3955 N   0  0  0  0  0  0  0  0  0  0  0  0
   26.9278  -21.0518  -14.3520 C   0  0  0  0  0  0  0  0  0  0  0  0
   26.0369  -21.3484  -13.1962 C   0  0  0  0  0  0  0  0  0  0  0  0
   26.4728  -21.9234  -12.1716 O   0  0  0  0  0  0  0  0  0  0  0  0
   24.6630  -20.9889  -13.2179 N   0  0  0  0  0  0  0  0  0  0  0  0
   23.7211  -21.2054  -12.1593 C   0  0  1  0  0  0  0  0  0  0  0  0
   23.7726  -20.0888  -11.1608 C   0  0  0  0  0  0  0  0  0  0  0  0
   24.9139  -20.1144  -10.2451 C   0  0  0  0  0  0  0  0  0  0  0  0
   25.8939  -21.0436  -10.0746 C   0  0  0  0  0  0  0  0  0  0  0  0
   26.7420  -20.6408   -9.0797 N   0  0  0  0  0  0  0  0  0  0  0  0
   26.2668  -19.4661   -8.6531 C   0  0  0  0  0  0  0  0  0  0  0  0
   25.1676  -19.1273   -9.3381 N   0  0  0  0  0  0  0  0  0  0  0  0
   22.3150  -21.2521  -12.7103 C   0  0  0  0  0  0  0  0  0  0  0  0
   21.2830  -21.5945  -11.8951 O   0  0  0  0  0  0  0  0  0  0  0  0
   22.1474  -20.9724  -13.9054 O   0  0  0  0  0  0  0  0  0  0  0  0
  2  1  1  6
  3  2  1  0
  4  3  1  0
  5  2  1  0
  6  5  2  0
  7  5  1  0
  8  7  1  0
  9  8  1  0
  9 11  1  0
 10  9  2  0
 12 11  1  0
 13 14  1  0
 12 13  1  1
 14 18  1  0
 15 14  2  0
 15 16  1  0
 16 17  1  0
 18 17  2  0
 19 12  1  0
 20 19  1  0
 21 19  2  0
M  END
$$$$
