CGH.pdb
     RDKit          3D

 21 21  0  0  1  0  0  0  0  0999 V2000
   41.4529  -10.1391   -7.6163 N   0  0  0  0  0  0  0  0  0  0  0  0
   40.3940  -10.0145   -8.5720 C   0  0  1  0  0  0  0  0  0  0  0  0
   40.0368  -11.3961   -9.0969 C   0  0  0  0  0  0  0  0  0  0  0  0
   41.3969  -12.1365  -10.0238 S   0  0  0  0  0  0  0  0  0  0  0  0
   39.2056   -9.3493   -7.9834 C   0  0  0  0  0  0  0  0  0  0  0  0
   39.0809   -9.3306   -6.7421 O   0  0  0  0  0  0  0  0  0  0  0  0
   38.2376   -8.7497   -8.8336 N   0  0  0  0  0  0  0  0  0  0  0  0
   37.1038   -8.0430   -8.2877 C   0  0  0  0  0  0  0  0  0  0  0  0
   37.1031   -6.6107   -8.6953 C   0  0  0  0  0  0  0  0  0  0  0  0
   36.1516   -5.8516   -8.3971 O   0  0  0  0  0  0  0  0  0  0  0  0
   38.1818   -6.0583   -9.4359 N   0  0  0  0  0  0  0  0  0  0  0  0
   38.3316   -4.6802   -9.8010 C   0  0  1  0  0  0  0  0  0  0  0  0
   39.5068   -4.0665   -9.1019 C   0  0  0  0  0  0  0  0  0  0  0  0
   39.3960   -3.9742   -7.6456 C   0  0  0  0  0  0  0  0  0  0  0  0
   40.1527   -4.5321   -6.6611 C   0  0  0  0  0  0  0  0  0  0  0  0
   39.6531   -4.1755   -5.4386 N   0  0  0  0  0  0  0  0  0  0  0  0
   38.5929   -3.4015   -5.6931 C   0  0  0  0  0  0  0  0  0  0  0  0
   38.4170   -3.2650   -7.0132 N   0  0  0  0  0  0  0  0  0  0  0  0
   38.5760   -4.5553  -11.2868 C   0  0  0  0  0  0  0  0  0  0  0  0
   38.5652   -3.3281  -11.8705 O   0  0  0  0  0  0  0  0  0  0  0  0
   38.7811   -5.5920  -11.9332 O   0  0  0  0  0  0  0  0  0  0  0  0
  2  1  1  1
  3  2  1  0
  4  3  1  0
  5  2  1  0
  6  5  2  0
  7  5  1  0
  8  7  1  0
  9  8  1  0
  9 11  1  0
 10  9  2  0
 12 11  1  0
 13 14  1  0
 12 13  1  1
 14 18  1  0
 15 14  2  0
 15 16  1  0
 16 17  1  0
 18 17  2  0
 19 12  1  0
 20 19  1  0
 21 19  2  0
M  END
$$$$
