CGH.pdb
     RDKit          3D

 21 21  0  0  1  0  0  0  0  0999 V2000
   24.1791  -15.0750  -16.8842 N   0  0  0  0  0  0  0  0  0  0  0  0
   25.4399  -14.4666  -17.1854 C   0  0  1  0  0  0  0  0  0  0  0  0
   25.6743  -14.5320  -18.6862 C   0  0  0  0  0  0  0  0  0  0  0  0
   25.2018  -16.1329  -19.3724 S   0  0  0  0  0  0  0  0  0  0  0  0
   25.4967  -13.0651  -16.7021 C   0  0  0  0  0  0  0  0  0  0  0  0
   26.5340  -12.4018  -16.9035 O   0  0  0  0  0  0  0  0  0  0  0  0
   24.3802  -12.5053  -16.0241 N   0  0  0  0  0  0  0  0  0  0  0  0
   24.4048  -11.1425  -15.5496 C   0  0  0  0  0  0  0  0  0  0  0  0
   23.2129  -10.3795  -16.0131 C   0  0  0  0  0  0  0  0  0  0  0  0
   22.7875  -10.4905  -17.1866 O   0  0  0  0  0  0  0  0  0  0  0  0
   22.5193   -9.5006  -15.1393 N   0  0  0  0  0  0  0  0  0  0  0  0
   21.3479   -8.7419  -15.4667 C   0  0  1  0  0  0  0  0  0  0  0  0
   20.2062   -9.1059  -14.5665 C   0  0  0  0  0  0  0  0  0  0  0  0
   19.5991  -10.4139  -14.8163 C   0  0  0  0  0  0  0  0  0  0  0  0
   19.8792  -11.3570  -15.7571 C   0  0  0  0  0  0  0  0  0  0  0  0
   19.0289  -12.4187  -15.6119 N   0  0  0  0  0  0  0  0  0  0  0  0
   18.2367  -12.1090  -14.5803 C   0  0  0  0  0  0  0  0  0  0  0  0
   18.5593  -10.9081  -14.0842 N   0  0  0  0  0  0  0  0  0  0  0  0
   21.6119   -7.2654  -15.2844 C   0  0  0  0  0  0  0  0  0  0  0  0
   20.7283   -6.3574  -15.7759 O   0  0  0  0  0  0  0  0  0  0  0  0
   22.6410   -6.9269  -14.6837 O   0  0  0  0  0  0  0  0  0  0  0  0
  2  1  1  6
  3  2  1  0
  4  3  1  0
  5  2  1  0
  6  5  2  0
  7  5  1  0
  8  7  1  0
  9  8  1  0
  9 11  1  0
 10  9  2  0
 12 11  1  0
 13 14  1  0
 12 13  1  1
 14 18  1  0
 15 14  2  0
 15 16  1  0
 16 17  1  0
 18 17  2  0
 19 12  1  0
 20 19  1  0
 21 19  2  0
M  END
$$$$
