CGH.pdb
     RDKit          3D

 21 21  0  0  1  0  0  0  0  0999 V2000
   21.7054  -16.4852  -16.9213 N   0  0  0  0  0  0  0  0  0  0  0  0
   20.4338  -16.4064  -16.2677 C   0  0  1  0  0  0  0  0  0  0  0  0
   20.3432  -17.5120  -15.2278 C   0  0  0  0  0  0  0  0  0  0  0  0
   19.9189  -19.1014  -15.9700 S   0  0  0  0  0  0  0  0  0  0  0  0
   20.2240  -15.0764  -15.6448 C   0  0  0  0  0  0  0  0  0  0  0  0
   21.0008  -14.7070  -14.7410 O   0  0  0  0  0  0  0  0  0  0  0  0
   19.1523  -14.2520  -16.0824 N   0  0  0  0  0  0  0  0  0  0  0  0
   18.8882  -12.9797  -15.4544 C   0  0  0  0  0  0  0  0  0  0  0  0
   19.3044  -11.8435  -16.3224 C   0  0  0  0  0  0  0  0  0  0  0  0
   20.3070  -11.9307  -17.0691 O   0  0  0  0  0  0  0  0  0  0  0  0
   18.5778  -10.6232  -16.3319 N   0  0  0  0  0  0  0  0  0  0  0  0
   18.8205   -9.5076  -17.1986 C   0  0  1  0  0  0  0  0  0  0  0  0
   17.5687   -9.1083  -17.9197 C   0  0  0  0  0  0  0  0  0  0  0  0
   17.0354  -10.1011  -18.8534 C   0  0  0  0  0  0  0  0  0  0  0  0
   17.4377  -10.4458  -20.1073 C   0  0  0  0  0  0  0  0  0  0  0  0
   16.6159  -11.4209  -20.6025 N   0  0  0  0  0  0  0  0  0  0  0  0
   15.7182  -11.6599  -19.6409 C   0  0  0  0  0  0  0  0  0  0  0  0
   15.9488  -10.8789  -18.5783 N   0  0  0  0  0  0  0  0  0  0  0  0
   19.2795   -8.3116  -16.3974 C   0  0  0  0  0  0  0  0  0  0  0  0
   19.6932   -7.1883  -17.0407 O   0  0  0  0  0  0  0  0  0  0  0  0
   19.2630   -8.3964  -15.1616 O   0  0  0  0  0  0  0  0  0  0  0  0
  2  1  1  1
  3  2  1  0
  4  3  1  0
  5  2  1  0
  6  5  2  0
  7  5  1  0
  8  7  1  0
  9  8  1  0
  9 11  1  0
 10  9  2  0
 12 11  1  0
 13 14  1  0
 12 13  1  1
 14 18  1  0
 15 14  2  0
 15 16  1  0
 16 17  1  0
 18 17  2  0
 19 12  1  0
 20 19  1  0
 21 19  2  0
M  END
$$$$
