CGH.pdb
     RDKit          3D

 21 21  0  0  1  0  0  0  0  0999 V2000
   19.6863  -16.0006  -16.0622 N   0  0  0  0  0  0  0  0  0  0  0  0
   18.4299  -15.8382  -16.7294 C   0  0  1  0  0  0  0  0  0  0  0  0
   17.3158  -16.3051  -15.8060 C   0  0  0  0  0  0  0  0  0  0  0  0
   17.9036  -17.5095  -14.5972 S   0  0  0  0  0  0  0  0  0  0  0  0
   18.2144  -14.4313  -17.1483 C   0  0  0  0  0  0  0  0  0  0  0  0
   17.1834  -14.1471  -17.7910 O   0  0  0  0  0  0  0  0  0  0  0  0
   19.1755  -13.4392  -16.8145 N   0  0  0  0  0  0  0  0  0  0  0  0
   19.0222  -12.0752  -17.2604 C   0  0  0  0  0  0  0  0  0  0  0  0
   20.0320  -11.1775  -16.6342 C   0  0  0  0  0  0  0  0  0  0  0  0
   20.5374  -11.4469  -15.5196 O   0  0  0  0  0  0  0  0  0  0  0  0
   20.4553   -9.9858  -17.2808 N   0  0  0  0  0  0  0  0  0  0  0  0
   21.4364   -9.0649  -16.7867 C   0  0  1  0  0  0  0  0  0  0  0  0
   22.0853   -8.3192  -17.9135 C   0  0  0  0  0  0  0  0  0  0  0  0
   23.1687   -7.4139  -17.5286 C   0  0  0  0  0  0  0  0  0  0  0  0
   24.2029   -7.5864  -16.6605 C   0  0  0  0  0  0  0  0  0  0  0  0
   24.9581   -6.4468  -16.6119 N   0  0  0  0  0  0  0  0  0  0  0  0
   24.3728   -5.5891  -17.4543 C   0  0  0  0  0  0  0  0  0  0  0  0
   23.2943   -6.1467  -18.0183 N   0  0  0  0  0  0  0  0  0  0  0  0
   20.7870   -8.0414  -15.8845 C   0  0  0  0  0  0  0  0  0  0  0  0
   21.4110   -7.6611  -14.7387 O   0  0  0  0  0  0  0  0  0  0  0  0
   19.6907   -7.5761  -16.2249 O   0  0  0  0  0  0  0  0  0  0  0  0
  2  1  1  1
  3  2  1  0
  4  3  1  0
  5  2  1  0
  6  5  2  0
  7  5  1  0
  8  7  1  0
  9  8  1  0
  9 11  1  0
 10  9  2  0
 12 11  1  0
 13 14  1  0
 12 13  1  6
 14 18  1  0
 15 14  2  0
 15 16  1  0
 16 17  1  0
 18 17  2  0
 19 12  1  0
 20 19  1  0
 21 19  2  0
M  END
$$$$
