CGH.pdb
     RDKit          3D

 21 21  0  0  1  0  0  0  0  0999 V2000
   22.8297  -15.8978  -17.4573 N   0  0  0  0  0  0  0  0  0  0  0  0
   22.7046  -14.5350  -17.8787 C   0  0  1  0  0  0  0  0  0  0  0  0
   21.6113  -14.4415  -18.9312 C   0  0  0  0  0  0  0  0  0  0  0  0
   21.8512  -15.6395  -20.2596 S   0  0  0  0  0  0  0  0  0  0  0  0
   22.4149  -13.6363  -16.7345 C   0  0  0  0  0  0  0  0  0  0  0  0
   21.4748  -13.9251  -15.9667 O   0  0  0  0  0  0  0  0  0  0  0  0
   23.2044  -12.4721  -16.5325 N   0  0  0  0  0  0  0  0  0  0  0  0
   22.8920  -11.5347  -15.4805 C   0  0  0  0  0  0  0  0  0  0  0  0
   22.4170  -10.2342  -16.0290 C   0  0  0  0  0  0  0  0  0  0  0  0
   22.7901   -9.8296  -17.1548 O   0  0  0  0  0  0  0  0  0  0  0  0
   21.5250   -9.4096  -15.2930 N   0  0  0  0  0  0  0  0  0  0  0  0
   20.8766   -8.2281  -15.7813 C   0  0  1  0  0  0  0  0  0  0  0  0
   19.3863   -8.3846  -15.7509 C   0  0  0  0  0  0  0  0  0  0  0  0
   18.8350   -9.3539  -16.6987 C   0  0  0  0  0  0  0  0  0  0  0  0
   18.6607   -9.2766  -18.0465 C   0  0  0  0  0  0  0  0  0  0  0  0
   18.0862  -10.4309  -18.5033 N   0  0  0  0  0  0  0  0  0  0  0  0
   17.9159  -11.2017  -17.4241 C   0  0  0  0  0  0  0  0  0  0  0  0
   18.3582  -10.5767  -16.3259 N   0  0  0  0  0  0  0  0  0  0  0  0
   21.2226   -7.0426  -14.9107 C   0  0  0  0  0  0  0  0  0  0  0  0
   20.9279   -5.7859  -15.3356 O   0  0  0  0  0  0  0  0  0  0  0  0
   21.7720   -7.2594  -13.8218 O   0  0  0  0  0  0  0  0  0  0  0  0
  2  1  1  1
  3  2  1  0
  4  3  1  0
  5  2  1  0
  6  5  2  0
  7  5  1  0
  8  7  1  0
  9  8  1  0
  9 11  1  0
 10  9  2  0
 12 11  1  0
 13 14  1  0
 12 13  1  1
 14 18  1  0
 15 14  2  0
 15 16  1  0
 16 17  1  0
 18 17  2  0
 19 12  1  0
 20 19  1  0
 21 19  2  0
M  END
$$$$
