CGH.pdb
     RDKit          3D

 21 21  0  0  1  0  0  0  0  0999 V2000
   26.3213  -32.5828   -9.0310 N   0  0  0  0  0  0  0  0  0  0  0  0
   26.2787  -32.8561   -7.6261 C   0  0  1  0  0  0  0  0  0  0  0  0
   24.9471  -33.5085   -7.2896 C   0  0  0  0  0  0  0  0  0  0  0  0
   23.6111  -32.2992   -7.1896 S   0  0  0  0  0  0  0  0  0  0  0  0
   27.4106  -33.7178   -7.2050 C   0  0  0  0  0  0  0  0  0  0  0  0
   27.7743  -34.6429   -7.9591 O   0  0  0  0  0  0  0  0  0  0  0  0
   28.0568  -33.4787   -5.9621 N   0  0  0  0  0  0  0  0  0  0  0  0
   29.1035  -34.3518   -5.4878 C   0  0  0  0  0  0  0  0  0  0  0  0
   28.6155  -35.2572   -4.4108 C   0  0  0  0  0  0  0  0  0  0  0  0
   27.7554  -36.1382   -4.6438 O   0  0  0  0  0  0  0  0  0  0  0  0
   29.1097  -35.1511   -3.0835 N   0  0  0  0  0  0  0  0  0  0  0  0
   28.6740  -35.9278   -1.9602 C   0  0  1  0  0  0  0  0  0  0  0  0
   29.4769  -35.5980   -0.7383 C   0  0  0  0  0  0  0  0  0  0  0  0
   30.8647  -36.0623   -0.7519 C   0  0  0  0  0  0  0  0  0  0  0  0
   31.6197  -36.5724   -1.7631 C   0  0  0  0  0  0  0  0  0  0  0  0
   32.8657  -36.8867   -1.2939 N   0  0  0  0  0  0  0  0  0  0  0  0
   32.8555  -36.5634    0.0035 C   0  0  0  0  0  0  0  0  0  0  0  0
   31.6633  -36.0655    0.3542 N   0  0  0  0  0  0  0  0  0  0  0  0
   27.2277  -35.6260   -1.6437 C   0  0  0  0  0  0  0  0  0  0  0  0
   26.3911  -36.6360   -1.2877 O   0  0  0  0  0  0  0  0  0  0  0  0
   26.8472  -34.4496   -1.7205 O   0  0  0  0  0  0  0  0  0  0  0  0
  2  1  1  6
  3  2  1  0
  4  3  1  0
  5  2  1  0
  6  5  2  0
  7  5  1  0
  8  7  1  0
  9  8  1  0
  9 11  1  0
 10  9  2  0
 12 11  1  0
 13 14  1  0
 12 13  1  1
 14 18  1  0
 15 14  2  0
 15 16  1  0
 16 17  1  0
 18 17  2  0
 19 12  1  0
 20 19  1  0
 21 19  2  0
M  END
$$$$
