CGH.pdb
     RDKit          3D

 21 21  0  0  1  0  0  0  0  0999 V2000
   13.6914  -22.9822   -2.0700 N   0  0  0  0  0  0  0  0  0  0  0  0
   14.3678  -23.1121   -0.8147 C   0  0  1  0  0  0  0  0  0  0  0  0
   15.6526  -23.8976   -1.0245 C   0  0  0  0  0  0  0  0  0  0  0  0
   15.3657  -25.4251   -1.9419 S   0  0  0  0  0  0  0  0  0  0  0  0
   14.6512  -21.7873   -0.2099 C   0  0  0  0  0  0  0  0  0  0  0  0
   14.4821  -20.7627   -0.9015 O   0  0  0  0  0  0  0  0  0  0  0  0
   15.1061  -21.7064    1.1340 N   0  0  0  0  0  0  0  0  0  0  0  0
   15.3090  -20.4294    1.7751 C   0  0  0  0  0  0  0  0  0  0  0  0
   15.7435  -20.5899    3.1904 C   0  0  0  0  0  0  0  0  0  0  0  0
   15.6675  -21.6979    3.7709 O   0  0  0  0  0  0  0  0  0  0  0  0
   16.2585  -19.4913    3.9287 N   0  0  0  0  0  0  0  0  0  0  0  0
   16.6250  -19.5082    5.3144 C   0  0  1  0  0  0  0  0  0  0  0  0
   18.0888  -19.7865    5.4770 C   0  0  0  0  0  0  0  0  0  0  0  0
   18.5051  -21.1594    5.1877 C   0  0  0  0  0  0  0  0  0  0  0  0
   18.8125  -21.7631    4.0070 C   0  0  0  0  0  0  0  0  0  0  0  0
   19.1312  -23.0746    4.2300 N   0  0  0  0  0  0  0  0  0  0  0  0
   19.0134  -23.2560    5.5494 C   0  0  0  0  0  0  0  0  0  0  0  0
   18.6379  -22.1191    6.1482 N   0  0  0  0  0  0  0  0  0  0  0  0
   16.3496  -18.1634    5.9458 C   0  0  0  0  0  0  0  0  0  0  0  0
   16.4440  -18.0202    7.2939 O   0  0  0  0  0  0  0  0  0  0  0  0
   16.0421  -17.2219    5.2018 O   0  0  0  0  0  0  0  0  0  0  0  0
  2  1  1  6
  3  2  1  0
  4  3  1  0
  5  2  1  0
  6  5  2  0
  7  5  1  0
  8  7  1  0
  9  8  1  0
  9 11  1  0
 10  9  2  0
 12 11  1  0
 13 14  1  0
 12 13  1  6
 14 18  1  0
 15 14  2  0
 15 16  1  0
 16 17  1  0
 18 17  2  0
 19 12  1  0
 20 19  1  0
 21 19  2  0
M  END
$$$$
