CGH.pdb
     RDKit          3D

 21 21  0  0  1  0  0  0  0  0999 V2000
   26.3734  -17.2105  -17.1048 N   0  0  0  0  0  0  0  0  0  0  0  0
   26.0389  -16.6137  -15.8470 C   0  0  1  0  0  0  0  0  0  0  0  0
   27.3105  -16.4272  -15.0346 C   0  0  0  0  0  0  0  0  0  0  0  0
   28.0649  -18.0061  -14.5927 S   0  0  0  0  0  0  0  0  0  0  0  0
   25.3335  -15.3212  -16.0287 C   0  0  0  0  0  0  0  0  0  0  0  0
   25.6176  -14.6156  -17.0177 O   0  0  0  0  0  0  0  0  0  0  0  0
   24.3551  -14.9108  -15.0833 N   0  0  0  0  0  0  0  0  0  0  0  0
   23.6981  -13.6312  -15.2006 C   0  0  0  0  0  0  0  0  0  0  0  0
   22.3355  -13.7667  -15.7860 C   0  0  0  0  0  0  0  0  0  0  0  0
   22.0925  -14.6162  -16.6746 O   0  0  0  0  0  0  0  0  0  0  0  0
   21.2664  -12.9365  -15.3557 N   0  0  0  0  0  0  0  0  0  0  0  0
   19.9237  -12.9687  -15.8566 C   0  0  1  0  0  0  0  0  0  0  0  0
   18.9605  -13.3672  -14.7795 C   0  0  0  0  0  0  0  0  0  0  0  0
   19.1073  -14.7339  -14.2771 C   0  0  0  0  0  0  0  0  0  0  0  0
   19.9825  -15.7173  -14.6234 C   0  0  0  0  0  0  0  0  0  0  0  0
   19.7246  -16.8424  -13.8892 N   0  0  0  0  0  0  0  0  0  0  0  0
   18.6906  -16.5306  -13.1010 C   0  0  0  0  0  0  0  0  0  0  0  0
   18.3006  -15.2680  -13.3152 N   0  0  0  0  0  0  0  0  0  0  0  0
   19.5130  -11.5985  -16.3433 C   0  0  0  0  0  0  0  0  0  0  0  0
   18.3757  -11.4559  -17.0735 O   0  0  0  0  0  0  0  0  0  0  0  0
   20.2380  -10.6360  -16.0559 O   0  0  0  0  0  0  0  0  0  0  0  0
  2  1  1  6
  3  2  1  0
  4  3  1  0
  5  2  1  0
  6  5  2  0
  7  5  1  0
  8  7  1  0
  9  8  1  0
  9 11  1  0
 10  9  2  0
 12 11  1  0
 13 14  1  0
 12 13  1  1
 14 18  1  0
 15 14  2  0
 15 16  1  0
 16 17  1  0
 18 17  2  0
 19 12  1  0
 20 19  1  0
 21 19  2  0
M  END
$$$$
