YMP.pdb
     RDKit          3D

 28 29  0  0  1  0  0  0  0  0999 V2000
   10.1490  -20.3986   16.3811 O   0  0  0  0  0  0  0  0  0  0  0  0
   10.3359  -19.8451   17.6405 C   0  0  0  0  0  0  0  0  0  0  0  0
    9.2733  -19.4120   18.4107 C   0  0  0  0  0  0  0  0  0  0  0  0
    9.4564  -18.8640   19.6572 C   0  0  0  0  0  0  0  0  0  0  0  0
   10.7185  -18.7216   20.1969 C   0  0  0  0  0  0  0  0  0  0  0  0
   10.9091  -18.1234   21.5570 C   0  0  0  0  0  0  0  0  0  0  0  0
   10.8182  -16.6374   21.3976 C   0  0  2  0  0  0  0  0  0  0  0  0
   11.9590  -16.1709   20.6546 N   0  0  0  0  0  0  0  0  0  0  0  0
   10.6285  -15.8967   22.6578 C   0  0  0  0  0  0  0  0  0  0  0  0
   11.5747  -15.6358   23.4117 O   0  0  0  0  0  0  0  0  0  0  0  0
   11.7765  -19.1560   19.4229 C   0  0  0  0  0  0  0  0  0  0  0  0
   11.6004  -19.7075   18.1701 C   0  0  0  0  0  0  0  0  0  0  0  0
    6.2279  -11.6719   27.4493 C   0  0  0  0  0  0  0  0  0  0  0  0
    6.9888  -12.1715   25.8837 S   0  0  0  0  0  0  0  0  0  0  0  0
    7.0611  -14.0173   25.7800 C   0  0  0  0  0  0  0  0  0  0  0  0
    7.5983  -14.4221   24.4901 C   0  0  0  0  0  0  0  0  0  0  0  0
    8.9685  -14.9656   24.3325 C   0  0  2  0  0  0  0  0  0  0  0  0
    9.3088  -15.4618   23.0320 N   0  0  0  0  0  0  0  0  0  0  0  0
    9.5306  -15.7288   25.4112 C   0  0  0  0  0  0  0  0  0  0  0  0
   10.0015  -16.9206   25.1514 O   0  0  0  0  0  0  0  0  0  0  0  0
    9.6439  -15.3695   26.7383 N   0  0  0  0  0  0  0  0  0  0  0  0
    9.0394  -14.3339   27.5195 C   0  0  0  0  0  0  0  0  0  0  0  0
   10.3218  -13.6766   28.0784 C   0  0  0  0  0  0  0  0  0  0  0  0
   11.2107  -14.8885   28.3776 C   0  0  0  0  0  0  0  0  0  0  0  0
   10.5193  -16.0398   27.7166 C   0  0  1  0  0  0  0  0  0  0  0  0
    9.7441  -16.8093   28.7096 C   0  0  0  0  0  0  0  0  0  0  0  0
   10.3264  -17.4561   29.6467 O   0  0  0  0  0  0  0  0  0  0  0  0
    8.3618  -16.9020   28.7188 O   0  0  0  0  0  0  0  0  0  0  0  0
  2  1  1  0
  3  2  2  0
  4  3  1  0
  5 11  1  0
  5  4  2  0
  6  5  1  0
  7  6  1  0
  7  8  1  1
  9 18  1  0
  9  7  1  0
 10  9  2  0
 11 12  2  0
 12  2  1  0
 13 14  1  0
 14 15  1  0
 17 16  1  1
 16 15  1  0
 17 18  1  0
 19 17  1  0
 20 19  2  0
 21 22  1  0
 21 19  1  0
 23 22  1  0
 24 23  1  0
 24 25  1  0
 25 26  1  1
 25 21  1  0
 26 28  1  0
 27 26  2  0
M  END
$$$$
