YMP.pdb
     RDKit          3D

 28 29  0  0  1  0  0  0  0  0999 V2000
   10.7547  -13.9927   30.0230 O   0  0  0  0  0  0  0  0  0  0  0  0
   10.5174  -15.0385   29.1412 C   0  0  0  0  0  0  0  0  0  0  0  0
   10.5235  -16.3567   29.5562 C   0  0  0  0  0  0  0  0  0  0  0  0
   10.2889  -17.3928   28.6850 C   0  0  0  0  0  0  0  0  0  0  0  0
   10.0352  -17.1594   27.3487 C   0  0  0  0  0  0  0  0  0  0  0  0
    9.7800  -18.2950   26.4057 C   0  0  0  0  0  0  0  0  0  0  0  0
    8.3088  -18.5707   26.4414 C   0  0  2  0  0  0  0  0  0  0  0  0
    8.0954  -19.9929   26.4953 N   0  0  0  0  0  0  0  0  0  0  0  0
    7.5389  -17.9287   25.3607 C   0  0  0  0  0  0  0  0  0  0  0  0
    7.3804  -18.4710   24.2595 O   0  0  0  0  0  0  0  0  0  0  0  0
   10.0304  -15.8404   26.9396 C   0  0  0  0  0  0  0  0  0  0  0  0
   10.2651  -14.7945   27.8088 C   0  0  0  0  0  0  0  0  0  0  0  0
    5.3790  -11.7030   26.5350 C   0  0  0  0  0  0  0  0  0  0  0  0
    6.8908  -11.4817   25.5628 S   0  0  0  0  0  0  0  0  0  0  0  0
    7.1716  -12.9629   24.4903 C   0  0  0  0  0  0  0  0  0  0  0  0
    7.0719  -14.1777   25.2844 C   0  0  0  0  0  0  0  0  0  0  0  0
    7.0845  -15.5301   24.6772 C   0  0  2  0  0  0  0  0  0  0  0  0
    6.9525  -16.6333   25.5820 N   0  0  0  0  0  0  0  0  0  0  0  0
    7.9787  -15.7804   23.5818 C   0  0  0  0  0  0  0  0  0  0  0  0
    8.7313  -16.8487   23.6242 O   0  0  0  0  0  0  0  0  0  0  0  0
    8.1673  -15.0189   22.4470 N   0  0  0  0  0  0  0  0  0  0  0  0
    7.8752  -13.6534   22.1337 C   0  0  0  0  0  0  0  0  0  0  0  0
    7.0356  -13.8758   20.8552 C   0  0  0  0  0  0  0  0  0  0  0  0
    7.7876  -15.0159   20.1602 C   0  0  0  0  0  0  0  0  0  0  0  0
    8.7511  -15.5189   21.1894 C   0  0  1  0  0  0  0  0  0  0  0  0
   10.0956  -14.9591   20.9481 C   0  0  0  0  0  0  0  0  0  0  0  0
   10.5627  -14.0202   21.6802 O   0  0  0  0  0  0  0  0  0  0  0  0
   10.9474  -15.3814   19.9404 O   0  0  0  0  0  0  0  0  0  0  0  0
  2  1  1  0
  3  2  2  0
  4  3  1  0
  5 11  1  0
  5  4  2  0
  6  5  1  0
  7  6  1  0
  7  8  1  6
  9 18  1  0
  9  7  1  0
 10  9  2  0
 11 12  2  0
 12  2  1  0
 13 14  1  0
 14 15  1  0
 17 16  1  1
 16 15  1  0
 17 18  1  0
 19 17  1  0
 20 19  2  0
 21 22  1  0
 21 19  1  0
 23 22  1  0
 24 23  1  0
 24 25  1  0
 25 26  1  6
 25 21  1  0
 26 28  1  0
 27 26  2  0
M  END
$$$$
