YMP.pdb
     RDKit          3D

 28 29  0  0  1  0  0  0  0  0999 V2000
   11.4415  -19.7625   30.1532 O   0  0  0  0  0  0  0  0  0  0  0  0
   10.7443  -19.6644   28.9566 C   0  0  0  0  0  0  0  0  0  0  0  0
   10.0047  -20.7191   28.4560 C   0  0  0  0  0  0  0  0  0  0  0  0
    9.3142  -20.6238   27.2721 C   0  0  0  0  0  0  0  0  0  0  0  0
    9.3300  -19.4623   26.5271 C   0  0  0  0  0  0  0  0  0  0  0  0
    8.5739  -19.3668   25.2374 C   0  0  0  0  0  0  0  0  0  0  0  0
    7.1624  -19.0069   25.5838 C   0  0  2  0  0  0  0  0  0  0  0  0
    6.3563  -20.1991   25.5814 N   0  0  0  0  0  0  0  0  0  0  0  0
    6.5821  -17.9359   24.7536 C   0  0  0  0  0  0  0  0  0  0  0  0
    5.9548  -18.1807   23.7152 O   0  0  0  0  0  0  0  0  0  0  0  0
   10.0706  -18.4117   27.0320 C   0  0  0  0  0  0  0  0  0  0  0  0
   10.7667  -18.5000   28.2204 C   0  0  0  0  0  0  0  0  0  0  0  0
    7.1139  -11.0472   26.4590 C   0  0  0  0  0  0  0  0  0  0  0  0
    7.2528  -12.7330   27.1060 S   0  0  0  0  0  0  0  0  0  0  0  0
    6.1505  -13.8679   26.1470 C   0  0  0  0  0  0  0  0  0  0  0  0
    6.7123  -14.1084   24.8268 C   0  0  0  0  0  0  0  0  0  0  0  0
    6.8041  -15.4644   24.2347 C   0  0  2  0  0  0  0  0  0  0  0  0
    6.7457  -16.5631   25.1527 N   0  0  0  0  0  0  0  0  0  0  0  0
    7.7051  -15.6722   23.1361 C   0  0  0  0  0  0  0  0  0  0  0  0
    8.1698  -16.8770   22.9313 O   0  0  0  0  0  0  0  0  0  0  0  0
    8.1728  -14.7409   22.2321 N   0  0  0  0  0  0  0  0  0  0  0  0
    8.1073  -13.3120   22.1877 C   0  0  0  0  0  0  0  0  0  0  0  0
    7.4723  -13.1451   20.7884 C   0  0  0  0  0  0  0  0  0  0  0  0
    8.1841  -14.2287   19.9713 C   0  0  0  0  0  0  0  0  0  0  0  0
    8.8928  -15.0678   20.9883 C   0  0  1  0  0  0  0  0  0  0  0  0
   10.3171  -14.6871   21.0625 C   0  0  0  0  0  0  0  0  0  0  0  0
   11.0987  -14.8501   20.0634 O   0  0  0  0  0  0  0  0  0  0  0  0
   10.9209  -14.1386   22.1823 O   0  0  0  0  0  0  0  0  0  0  0  0
  2  1  1  0
  3  2  2  0
  4  3  1  0
  5 11  1  0
  5  4  2  0
  6  5  1  0
  7  6  1  0
  7  8  1  6
  9 18  1  0
  9  7  1  0
 10  9  2  0
 11 12  2  0
 12  2  1  0
 13 14  1  0
 14 15  1  0
 17 16  1  1
 16 15  1  0
 17 18  1  0
 19 17  1  0
 20 19  2  0
 21 22  1  0
 21 19  1  0
 23 22  1  0
 24 23  1  0
 24 25  1  0
 25 26  1  1
 25 21  1  0
 26 28  1  0
 27 26  2  0
M  END
$$$$
