YMP.pdb
     RDKit          3D

 28 29  0  0  1  0  0  0  0  0999 V2000
    7.7400  -14.4400   15.0591 O   0  0  0  0  0  0  0  0  0  0  0  0
    7.9228  -14.7979   16.3880 C   0  0  0  0  0  0  0  0  0  0  0  0
    8.0128  -16.1199   16.7804 C   0  0  0  0  0  0  0  0  0  0  0  0
    8.1937  -16.4759   18.0950 C   0  0  0  0  0  0  0  0  0  0  0  0
    8.2940  -15.5215   19.0866 C   0  0  0  0  0  0  0  0  0  0  0  0
    8.4915  -15.9184   20.5175 C   0  0  0  0  0  0  0  0  0  0  0  0
    9.6219  -15.0923   21.0482 C   0  0  2  0  0  0  0  0  0  0  0  0
   10.8652  -15.6121   20.5431 N   0  0  0  0  0  0  0  0  0  0  0  0
    9.6325  -14.9387   22.5142 C   0  0  0  0  0  0  0  0  0  0  0  0
   10.4673  -15.5119   23.2258 O   0  0  0  0  0  0  0  0  0  0  0  0
    8.2033  -14.2021   18.6887 C   0  0  0  0  0  0  0  0  0  0  0  0
    8.0217  -13.8369   17.3703 C   0  0  0  0  0  0  0  0  0  0  0  0
    5.8695  -11.2946   28.4944 C   0  0  0  0  0  0  0  0  0  0  0  0
    6.1006  -11.5729   26.7199 S   0  0  0  0  0  0  0  0  0  0  0  0
    6.8877  -13.2235   26.4392 C   0  0  0  0  0  0  0  0  0  0  0  0
    7.2054  -13.3894   25.0292 C   0  0  0  0  0  0  0  0  0  0  0  0
    8.4735  -14.0009   24.5646 C   0  0  2  0  0  0  0  0  0  0  0  0
    8.6469  -14.1017   23.1458 N   0  0  0  0  0  0  0  0  0  0  0  0
    9.0034  -15.1173   25.2958 C   0  0  0  0  0  0  0  0  0  0  0  0
    9.1825  -16.2474   24.6631 O   0  0  0  0  0  0  0  0  0  0  0  0
    9.3601  -15.1695   26.6275 N   0  0  0  0  0  0  0  0  0  0  0  0
    9.0745  -14.3207   27.7437 C   0  0  0  0  0  0  0  0  0  0  0  0
   10.5219  -14.0443   28.2104 C   0  0  0  0  0  0  0  0  0  0  0  0
   11.1954  -15.4081   28.0234 C   0  0  0  0  0  0  0  0  0  0  0  0
   10.2148  -16.2104   27.2263 C   0  0  1  0  0  0  0  0  0  0  0  0
    9.4474  -17.1073   28.1128 C   0  0  0  0  0  0  0  0  0  0  0  0
    8.1973  -16.9279   28.3142 O   0  0  0  0  0  0  0  0  0  0  0  0
    9.9900  -18.1885   28.7880 O   0  0  0  0  0  0  0  0  0  0  0  0
  2  1  1  0
  3  2  2  0
  4  3  1  0
  5 11  1  0
  5  4  2  0
  6  5  1  0
  7  6  1  0
  7  8  1  1
  9 18  1  0
  9  7  1  0
 10  9  2  0
 11 12  2  0
 12  2  1  0
 13 14  1  0
 14 15  1  0
 17 16  1  6
 16 15  1  0
 17 18  1  0
 19 17  1  0
 20 19  2  0
 21 22  1  0
 21 19  1  0
 23 22  1  0
 24 23  1  0
 24 25  1  0
 25 26  1  1
 25 21  1  0
 26 28  1  0
 27 26  2  0
M  END
$$$$
