YMP.pdb
     RDKit          3D

 28 29  0  0  1  0  0  0  0  0999 V2000
   10.1786  -18.3912   29.8765 O   0  0  0  0  0  0  0  0  0  0  0  0
    9.5167  -18.8192   28.7335 C   0  0  0  0  0  0  0  0  0  0  0  0
    8.4362  -19.6785   28.7963 C   0  0  0  0  0  0  0  0  0  0  0  0
    7.7801  -20.1031   27.6664 C   0  0  0  0  0  0  0  0  0  0  0  0
    8.1750  -19.6863   26.4115 C   0  0  0  0  0  0  0  0  0  0  0  0
    7.4537  -20.1538   25.1847 C   0  0  0  0  0  0  0  0  0  0  0  0
    6.1578  -19.4060   25.1279 C   0  0  2  0  0  0  0  0  0  0  0  0
    5.1475  -20.2539   24.5523 N   0  0  0  0  0  0  0  0  0  0  0  0
    6.2364  -18.0943   24.4599 C   0  0  0  0  0  0  0  0  0  0  0  0
    6.1231  -17.9775   23.2329 O   0  0  0  0  0  0  0  0  0  0  0  0
    9.2553  -18.8277   26.3548 C   0  0  0  0  0  0  0  0  0  0  0  0
    9.9193  -18.3970   27.4853 C   0  0  0  0  0  0  0  0  0  0  0  0
    5.6422  -12.1069   27.3941 C   0  0  0  0  0  0  0  0  0  0  0  0
    7.3120  -12.0364   26.6965 S   0  0  0  0  0  0  0  0  0  0  0  0
    7.4481  -13.2071   25.2704 C   0  0  0  0  0  0  0  0  0  0  0  0
    6.9317  -14.5135   25.6487 C   0  0  0  0  0  0  0  0  0  0  0  0
    6.8914  -15.6578   24.7069 C   0  0  2  0  0  0  0  0  0  0  0  0
    6.4526  -16.9099   25.2480 N   0  0  0  0  0  0  0  0  0  0  0  0
    7.9399  -15.7806   23.7336 C   0  0  0  0  0  0  0  0  0  0  0  0
    8.7157  -16.8318   23.7836 O   0  0  0  0  0  0  0  0  0  0  0  0
    8.2606  -14.9078   22.7145 N   0  0  0  0  0  0  0  0  0  0  0  0
    7.9851  -13.5197   22.5014 C   0  0  0  0  0  0  0  0  0  0  0  0
    7.3251  -13.6182   21.1072 C   0  0  0  0  0  0  0  0  0  0  0  0
    8.1845  -14.6777   20.4090 C   0  0  0  0  0  0  0  0  0  0  0  0
    9.0144  -15.2750   21.5023 C   0  0  1  0  0  0  0  0  0  0  0  0
   10.3674  -14.6848   21.4978 C   0  0  0  0  0  0  0  0  0  0  0  0
   11.1488  -14.8284   20.4955 O   0  0  0  0  0  0  0  0  0  0  0  0
   10.9007  -13.9475   22.5425 O   0  0  0  0  0  0  0  0  0  0  0  0
  2  1  1  0
  3  2  2  0
  4  3  1  0
  5 11  1  0
  5  4  2  0
  6  5  1  0
  7  6  1  0
  7  8  1  6
  9 18  1  0
  9  7  1  0
 10  9  2  0
 11 12  2  0
 12  2  1  0
 13 14  1  0
 14 15  1  0
 17 16  1  1
 16 15  1  0
 17 18  1  0
 19 17  1  0
 20 19  2  0
 21 22  1  0
 21 19  1  0
 23 22  1  0
 24 23  1  0
 24 25  1  0
 25 26  1  1
 25 21  1  0
 26 28  1  0
 27 26  2  0
M  END
$$$$
