YMP.pdb
     RDKit          3D

 28 29  0  0  1  0  0  0  0  0999 V2000
    6.3605  -14.7903   16.1091 O   0  0  0  0  0  0  0  0  0  0  0  0
    7.3132  -14.6925   17.1143 C   0  0  0  0  0  0  0  0  0  0  0  0
    7.1244  -13.8865   18.2208 C   0  0  0  0  0  0  0  0  0  0  0  0
    8.0661  -13.7886   19.2165 C   0  0  0  0  0  0  0  0  0  0  0  0
    9.2491  -14.4962   19.1533 C   0  0  0  0  0  0  0  0  0  0  0  0
   10.2703  -14.3839   20.2435 C   0  0  0  0  0  0  0  0  0  0  0  0
    9.9926  -15.4864   21.2178 C   0  0  2  0  0  0  0  0  0  0  0  0
    8.8046  -16.1892   20.8106 N   0  0  0  0  0  0  0  0  0  0  0  0
    9.9357  -15.0582   22.6272 C   0  0  0  0  0  0  0  0  0  0  0  0
   10.8192  -14.3543   23.1330 O   0  0  0  0  0  0  0  0  0  0  0  0
    9.4325  -15.3000   18.0453 C   0  0  0  0  0  0  0  0  0  0  0  0
    8.4913  -15.4035   17.0414 C   0  0  0  0  0  0  0  0  0  0  0  0
    7.0236  -11.5900   28.0568 C   0  0  0  0  0  0  0  0  0  0  0  0
    6.3434  -12.5173   26.6578 S   0  0  0  0  0  0  0  0  0  0  0  0
    7.0673  -14.2194   26.6196 C   0  0  0  0  0  0  0  0  0  0  0  0
    7.3604  -14.6044   25.2477 C   0  0  0  0  0  0  0  0  0  0  0  0
    8.6850  -15.1239   24.8314 C   0  0  2  0  0  0  0  0  0  0  0  0
    8.8259  -15.4666   23.4472 N   0  0  0  0  0  0  0  0  0  0  0  0
    9.3856  -16.0053   25.7226 C   0  0  0  0  0  0  0  0  0  0  0  0
    9.7648  -17.1729   25.2728 O   0  0  0  0  0  0  0  0  0  0  0  0
    9.7246  -15.7871   27.0420 N   0  0  0  0  0  0  0  0  0  0  0  0
    9.2898  -14.8278   28.0109 C   0  0  0  0  0  0  0  0  0  0  0  0
   10.6671  -14.2533   28.4134 C   0  0  0  0  0  0  0  0  0  0  0  0
   11.5517  -15.5044   28.4403 C   0  0  0  0  0  0  0  0  0  0  0  0
   10.7241  -16.5694   27.7912 C   0  0  1  0  0  0  0  0  0  0  0  0
   10.0949  -17.4244   28.8170 C   0  0  0  0  0  0  0  0  0  0  0  0
    8.8344  -17.3841   29.0298 O   0  0  0  0  0  0  0  0  0  0  0  0
   10.7859  -18.3180   29.6191 O   0  0  0  0  0  0  0  0  0  0  0  0
  2  1  1  0
  3  2  2  0
  4  3  1  0
  5 11  1  0
  5  4  2  0
  6  5  1  0
  7  6  1  0
  7  8  1  6
  9 18  1  0
  9  7  1  0
 10  9  2  0
 11 12  2  0
 12  2  1  0
 13 14  1  0
 14 15  1  0
 17 16  1  1
 16 15  1  0
 17 18  1  0
 19 17  1  0
 20 19  2  0
 21 22  1  0
 21 19  1  0
 23 22  1  0
 24 23  1  0
 24 25  1  0
 25 26  1  1
 25 21  1  0
 26 28  1  0
 27 26  2  0
M  END
$$$$
