YMP.pdb
     RDKit          3D

 28 29  0  0  1  0  0  0  0  0999 V2000
    6.4662  -20.9366   25.2748 O   0  0  0  0  0  0  0  0  0  0  0  0
    7.2531  -20.2854   24.3345 C   0  0  0  0  0  0  0  0  0  0  0  0
    8.5838  -19.9977   24.5720 C   0  0  0  0  0  0  0  0  0  0  0  0
    9.3639  -19.3534   23.6426 C   0  0  0  0  0  0  0  0  0  0  0  0
    8.8481  -18.9633   22.4235 C   0  0  0  0  0  0  0  0  0  0  0  0
    9.7059  -18.2615   21.4157 C   0  0  0  0  0  0  0  0  0  0  0  0
    9.2216  -16.8469   21.3387 C   0  0  2  0  0  0  0  0  0  0  0  0
    9.7619  -16.2257   20.1583 N   0  0  0  0  0  0  0  0  0  0  0  0
    9.4655  -16.0490   22.5540 C   0  0  0  0  0  0  0  0  0  0  0  0
   10.5945  -15.6378   22.8506 O   0  0  0  0  0  0  0  0  0  0  0  0
    7.5180  -19.2534   22.1916 C   0  0  0  0  0  0  0  0  0  0  0  0
    6.7281  -19.9002   23.1202 C   0  0  0  0  0  0  0  0  0  0  0  0
    6.0189  -11.0130   26.2483 C   0  0  0  0  0  0  0  0  0  0  0  0
    5.6787  -12.7450   26.6532 S   0  0  0  0  0  0  0  0  0  0  0  0
    7.2264  -13.7453   26.4890 C   0  0  0  0  0  0  0  0  0  0  0  0
    7.3466  -14.2559   25.1321 C   0  0  0  0  0  0  0  0  0  0  0  0
    8.5092  -15.0585   24.6826 C   0  0  2  0  0  0  0  0  0  0  0  0
    8.3661  -15.7355   23.4279 N   0  0  0  0  0  0  0  0  0  0  0  0
    9.2478  -15.8026   25.6638 C   0  0  0  0  0  0  0  0  0  0  0  0
    9.6452  -17.0105   25.3596 O   0  0  0  0  0  0  0  0  0  0  0  0
    9.6075  -15.4089   26.9361 N   0  0  0  0  0  0  0  0  0  0  0  0
    9.1677  -14.3433   27.7841 C   0  0  0  0  0  0  0  0  0  0  0  0
   10.5375  -13.6903   28.0776 C   0  0  0  0  0  0  0  0  0  0  0  0
   11.4546  -14.9068   28.2438 C   0  0  0  0  0  0  0  0  0  0  0  0
   10.6418  -16.0652   27.7559 C   0  0  1  0  0  0  0  0  0  0  0  0
   10.0557  -16.7955   28.8971 C   0  0  0  0  0  0  0  0  0  0  0  0
   10.7934  -17.4379   29.7209 O   0  0  0  0  0  0  0  0  0  0  0  0
    8.6992  -16.8536   29.1727 O   0  0  0  0  0  0  0  0  0  0  0  0
  2  1  1  0
  3  2  2  0
  4  3  1  0
  5 11  1  0
  5  4  2  0
  6  5  1  0
  7  6  1  0
  7  8  1  6
  9 18  1  0
  9  7  1  0
 10  9  2  0
 11 12  2  0
 12  2  1  0
 13 14  1  0
 14 15  1  0
 17 16  1  1
 16 15  1  0
 17 18  1  0
 19 17  1  0
 20 19  2  0
 21 22  1  0
 21 19  1  0
 23 22  1  0
 24 23  1  0
 24 25  1  0
 25 26  1  1
 25 21  1  0
 26 28  1  0
 27 26  2  0
M  END
$$$$
