YMP.pdb
     RDKit          3D

 28 29  0  0  1  0  0  0  0  0999 V2000
   10.1199  -17.7783   29.1970 O   0  0  0  0  0  0  0  0  0  0  0  0
    9.3701  -18.4567   28.2457 C   0  0  0  0  0  0  0  0  0  0  0  0
    8.2450  -19.1829   28.5873 C   0  0  0  0  0  0  0  0  0  0  0  0
    7.5019  -19.8548   27.6472 C   0  0  0  0  0  0  0  0  0  0  0  0
    7.8498  -19.8328   26.3120 C   0  0  0  0  0  0  0  0  0  0  0  0
    7.0337  -20.5679   25.2935 C   0  0  0  0  0  0  0  0  0  0  0  0
    5.8308  -19.7241   25.0054 C   0  0  2  0  0  0  0  0  0  0  0  0
    4.8896  -20.4908   24.2325 N   0  0  0  0  0  0  0  0  0  0  0  0
    6.1315  -18.4192   24.3891 C   0  0  0  0  0  0  0  0  0  0  0  0
    6.2626  -18.2886   23.1654 O   0  0  0  0  0  0  0  0  0  0  0  0
    8.9749  -19.1056   25.9763 C   0  0  0  0  0  0  0  0  0  0  0  0
    9.7263  -18.4282   26.9150 C   0  0  0  0  0  0  0  0  0  0  0  0
    8.1570  -12.1206   27.7394 C   0  0  0  0  0  0  0  0  0  0  0  0
    6.6257  -12.3628   26.8032 S   0  0  0  0  0  0  0  0  0  0  0  0
    6.9384  -13.4828   25.3643 C   0  0  0  0  0  0  0  0  0  0  0  0
    6.5070  -14.8349   25.6837 C   0  0  0  0  0  0  0  0  0  0  0  0
    6.6732  -15.9679   24.7422 C   0  0  2  0  0  0  0  0  0  0  0  0
    6.2804  -17.2582   25.2262 N   0  0  0  0  0  0  0  0  0  0  0  0
    7.8351  -15.9924   23.8988 C   0  0  0  0  0  0  0  0  0  0  0  0
    8.6178  -17.0386   23.9475 O   0  0  0  0  0  0  0  0  0  0  0  0
    8.2624  -15.0261   23.0117 N   0  0  0  0  0  0  0  0  0  0  0  0
    7.9555  -13.6358   22.8674 C   0  0  0  0  0  0  0  0  0  0  0  0
    7.5172  -13.6402   21.3852 C   0  0  0  0  0  0  0  0  0  0  0  0
    8.5214  -14.6059   20.7467 C   0  0  0  0  0  0  0  0  0  0  0  0
    9.2060  -15.2630   21.9044 C   0  0  1  0  0  0  0  0  0  0  0  0
   10.5145  -14.6266   22.1530 C   0  0  0  0  0  0  0  0  0  0  0  0
   10.7022  -13.8749   23.1706 O   0  0  0  0  0  0  0  0  0  0  0  0
   11.6230  -14.7762   21.3355 O   0  0  0  0  0  0  0  0  0  0  0  0
  2  1  1  0
  3  2  2  0
  4  3  1  0
  5 11  1  0
  5  4  2  0
  6  5  1  0
  7  6  1  0
  7  8  1  6
  9 18  1  0
  9  7  1  0
 10  9  2  0
 11 12  2  0
 12  2  1  0
 13 14  1  0
 14 15  1  0
 17 16  1  1
 16 15  1  0
 17 18  1  0
 19 17  1  0
 20 19  2  0
 21 22  1  0
 21 19  1  0
 23 22  1  0
 24 23  1  0
 24 25  1  0
 25 26  1  1
 25 21  1  0
 26 28  1  0
 27 26  2  0
M  END
$$$$
