YMP.pdb
     RDKit          3D

 28 29  0  0  1  0  0  0  0  0999 V2000
   10.7053  -14.1502   30.1336 O   0  0  0  0  0  0  0  0  0  0  0  0
   10.4167  -15.1833   29.2522 C   0  0  0  0  0  0  0  0  0  0  0  0
   10.1863  -14.9520   27.9093 C   0  0  0  0  0  0  0  0  0  0  0  0
    9.9005  -15.9730   27.0356 C   0  0  0  0  0  0  0  0  0  0  0  0
    9.8309  -17.2826   27.4651 C   0  0  0  0  0  0  0  0  0  0  0  0
    9.5190  -18.3900   26.5057 C   0  0  0  0  0  0  0  0  0  0  0  0
    8.0321  -18.5655   26.5089 C   0  0  2  0  0  0  0  0  0  0  0  0
    7.7218  -19.9705   26.4825 N   0  0  0  0  0  0  0  0  0  0  0  0
    7.3245  -17.8149   25.4560 C   0  0  0  0  0  0  0  0  0  0  0  0
    7.0743  -18.3153   24.3520 O   0  0  0  0  0  0  0  0  0  0  0  0
   10.0619  -17.5079   28.8079 C   0  0  0  0  0  0  0  0  0  0  0  0
   10.3495  -16.4875   29.6914 C   0  0  0  0  0  0  0  0  0  0  0  0
    5.2217  -11.3803   26.2696 C   0  0  0  0  0  0  0  0  0  0  0  0
    6.8227  -11.3174   25.4254 S   0  0  0  0  0  0  0  0  0  0  0  0
    7.0641  -12.8511   24.4193 C   0  0  0  0  0  0  0  0  0  0  0  0
    7.0102  -14.0234   25.2791 C   0  0  0  0  0  0  0  0  0  0  0  0
    6.9912  -15.4052   24.7425 C   0  0  2  0  0  0  0  0  0  0  0  0
    6.9100  -16.4602   25.7087 N   0  0  0  0  0  0  0  0  0  0  0  0
    7.8245  -15.7130   23.6143 C   0  0  0  0  0  0  0  0  0  0  0  0
    8.4454  -16.8635   23.5944 O   0  0  0  0  0  0  0  0  0  0  0  0
    8.0768  -14.9321   22.5053 N   0  0  0  0  0  0  0  0  0  0  0  0
    7.8790  -13.5416   22.2309 C   0  0  0  0  0  0  0  0  0  0  0  0
    7.0426  -13.6697   20.9374 C   0  0  0  0  0  0  0  0  0  0  0  0
    7.7268  -14.8357   20.2158 C   0  0  0  0  0  0  0  0  0  0  0  0
    8.6423  -15.4318   21.2392 C   0  0  1  0  0  0  0  0  0  0  0  0
   10.0235  -14.9550   21.0293 C   0  0  0  0  0  0  0  0  0  0  0  0
   10.6996  -15.3154   20.0052 O   0  0  0  0  0  0  0  0  0  0  0  0
   10.6949  -14.1040   21.8921 O   0  0  0  0  0  0  0  0  0  0  0  0
  2  1  1  0
  3  2  2  0
  4  3  1  0
  5 11  1  0
  5  4  2  0
  6  5  1  0
  7  6  1  0
  7  8  1  6
  9 18  1  0
  9  7  1  0
 10  9  2  0
 11 12  2  0
 12  2  1  0
 13 14  1  0
 14 15  1  0
 17 16  1  1
 16 15  1  0
 17 18  1  0
 19 17  1  0
 20 19  2  0
 21 22  1  0
 21 19  1  0
 23 22  1  0
 24 23  1  0
 24 25  1  0
 25 26  1  6
 25 21  1  0
 26 28  1  0
 27 26  2  0
M  END
$$$$
