YMP.pdb
     RDKit          3D

 28 29  0  0  1  0  0  0  0  0999 V2000
    8.6810  -22.2228   29.8638 O   0  0  0  0  0  0  0  0  0  0  0  0
    8.5046  -21.6195   28.6259 C   0  0  0  0  0  0  0  0  0  0  0  0
    9.2171  -22.0212   27.5118 C   0  0  0  0  0  0  0  0  0  0  0  0
    9.0438  -21.4254   26.2861 C   0  0  0  0  0  0  0  0  0  0  0  0
    8.1445  -20.3930   26.1139 C   0  0  0  0  0  0  0  0  0  0  0  0
    7.9615  -19.7493   24.7738 C   0  0  0  0  0  0  0  0  0  0  0  0
    6.4881  -19.5829   24.5661 C   0  0  2  0  0  0  0  0  0  0  0  0
    5.9866  -20.7047   23.8169 N   0  0  0  0  0  0  0  0  0  0  0  0
    6.0950  -18.2918   23.9735 C   0  0  0  0  0  0  0  0  0  0  0  0
    5.8528  -18.1734   22.7655 O   0  0  0  0  0  0  0  0  0  0  0  0
    7.4354  -19.9958   27.2305 C   0  0  0  0  0  0  0  0  0  0  0  0
    7.6039  -20.5894   28.4649 C   0  0  0  0  0  0  0  0  0  0  0  0
    7.2258  -10.7655   26.6103 C   0  0  0  0  0  0  0  0  0  0  0  0
    6.8435  -12.5076   26.9245 S   0  0  0  0  0  0  0  0  0  0  0  0
    7.0608  -13.4894   25.3715 C   0  0  0  0  0  0  0  0  0  0  0  0
    6.6004  -14.8540   25.5776 C   0  0  0  0  0  0  0  0  0  0  0  0
    6.5280  -15.8453   24.4776 C   0  0  2  0  0  0  0  0  0  0  0  0
    5.9887  -17.1293   24.8150 N   0  0  0  0  0  0  0  0  0  0  0  0
    7.6069  -15.8983   23.5316 C   0  0  0  0  0  0  0  0  0  0  0  0
    8.2396  -17.0312   23.3716 O   0  0  0  0  0  0  0  0  0  0  0  0
    8.0935  -14.8795   22.7388 N   0  0  0  0  0  0  0  0  0  0  0  0
    7.9168  -13.4595   22.7645 C   0  0  0  0  0  0  0  0  0  0  0  0
    7.4279  -13.2531   21.3128 C   0  0  0  0  0  0  0  0  0  0  0  0
    8.3112  -14.2267   20.5252 C   0  0  0  0  0  0  0  0  0  0  0  0
    8.9700  -15.0726   21.5697 C   0  0  1  0  0  0  0  0  0  0  0  0
   10.3417  -14.5915   21.8269 C   0  0  0  0  0  0  0  0  0  0  0  0
   10.6527  -14.0422   22.9392 O   0  0  0  0  0  0  0  0  0  0  0  0
   11.3844  -14.6844   20.9193 O   0  0  0  0  0  0  0  0  0  0  0  0
  2  1  1  0
  3  2  2  0
  4  3  1  0
  5 11  1  0
  5  4  2  0
  6  5  1  0
  7  6  1  0
  7  8  1  6
  9 18  1  0
  9  7  1  0
 10  9  2  0
 11 12  2  0
 12  2  1  0
 13 14  1  0
 14 15  1  0
 17 16  1  1
 16 15  1  0
 17 18  1  0
 19 17  1  0
 20 19  2  0
 21 22  1  0
 21 19  1  0
 23 22  1  0
 24 23  1  0
 24 25  1  0
 25 26  1  1
 25 21  1  0
 26 28  1  0
 27 26  2  0
M  END
$$$$
