YMP.pdb
     RDKit          3D

 28 29  0  0  1  0  0  0  0  0999 V2000
    6.5624  -21.7437   18.9018 O   0  0  0  0  0  0  0  0  0  0  0  0
    7.3642  -20.9192   19.6796 C   0  0  0  0  0  0  0  0  0  0  0  0
    7.9169  -21.3530   20.8697 C   0  0  0  0  0  0  0  0  0  0  0  0
    8.7104  -20.5384   21.6407 C   0  0  0  0  0  0  0  0  0  0  0  0
    8.9914  -19.2431   21.2565 C   0  0  0  0  0  0  0  0  0  0  0  0
    9.8580  -18.3619   22.1030 C   0  0  0  0  0  0  0  0  0  0  0  0
    9.6610  -16.9591   21.6179 C   0  0  2  0  0  0  0  0  0  0  0  0
   10.5207  -16.7245   20.4879 N   0  0  0  0  0  0  0  0  0  0  0  0
    9.8073  -15.9252   22.6582 C   0  0  0  0  0  0  0  0  0  0  0  0
   10.9127  -15.4654   22.9723 O   0  0  0  0  0  0  0  0  0  0  0  0
    8.4365  -18.8151   20.0665 C   0  0  0  0  0  0  0  0  0  0  0  0
    7.6385  -19.6274   19.2869 C   0  0  0  0  0  0  0  0  0  0  0  0
    6.0832  -10.8746   26.9992 C   0  0  0  0  0  0  0  0  0  0  0  0
    5.7229  -12.5741   26.4877 S   0  0  0  0  0  0  0  0  0  0  0  0
    7.2925  -13.5491   26.3939 C   0  0  0  0  0  0  0  0  0  0  0  0
    7.4545  -14.1032   25.0586 C   0  0  0  0  0  0  0  0  0  0  0  0
    8.6511  -14.8815   24.6585 C   0  0  2  0  0  0  0  0  0  0  0  0
    8.6376  -15.4309   23.3351 N   0  0  0  0  0  0  0  0  0  0  0  0
    9.2727  -15.7318   25.6346 C   0  0  0  0  0  0  0  0  0  0  0  0
    9.5111  -16.9767   25.3141 O   0  0  0  0  0  0  0  0  0  0  0  0
    9.6652  -15.4086   26.9170 N   0  0  0  0  0  0  0  0  0  0  0  0
    9.3246  -14.3309   27.7948 C   0  0  0  0  0  0  0  0  0  0  0  0
   10.7486  -13.8160   28.1051 C   0  0  0  0  0  0  0  0  0  0  0  0
   11.5487  -15.1164   28.2364 C   0  0  0  0  0  0  0  0  0  0  0  0
   10.6329  -16.1805   27.7171 C   0  0  1  0  0  0  0  0  0  0  0  0
    9.9799  -16.8848   28.8381 C   0  0  0  0  0  0  0  0  0  0  0  0
    8.7204  -16.7868   29.0374 O   0  0  0  0  0  0  0  0  0  0  0  0
   10.6461  -17.6884   29.7491 O   0  0  0  0  0  0  0  0  0  0  0  0
  2  1  1  0
  3  2  2  0
  4  3  1  0
  5 11  1  0
  5  4  2  0
  6  5  1  0
  7  6  1  0
  7  8  1  6
  9 18  1  0
  9  7  1  0
 10  9  2  0
 11 12  2  0
 12  2  1  0
 13 14  1  0
 14 15  1  0
 17 16  1  1
 16 15  1  0
 17 18  1  0
 19 17  1  0
 20 19  2  0
 21 22  1  0
 21 19  1  0
 23 22  1  0
 24 23  1  0
 24 25  1  0
 25 26  1  1
 25 21  1  0
 26 28  1  0
 27 26  2  0
M  END
$$$$
