YMP.pdb
     RDKit          3D

 28 29  0  0  1  0  0  0  0  0999 V2000
   11.4975  -19.3555   29.4427 O   0  0  0  0  0  0  0  0  0  0  0  0
   10.6911  -19.5646   28.3321 C   0  0  0  0  0  0  0  0  0  0  0  0
    9.8783  -20.6768   28.2212 C   0  0  0  0  0  0  0  0  0  0  0  0
    9.0797  -20.8854   27.1228 C   0  0  0  0  0  0  0  0  0  0  0  0
    9.0552  -19.9865   26.0761 C   0  0  0  0  0  0  0  0  0  0  0  0
    8.1812  -20.2214   24.8823 C   0  0  0  0  0  0  0  0  0  0  0  0
    6.8276  -19.6761   25.2175 C   0  0  2  0  0  0  0  0  0  0  0  0
    5.8417  -20.7066   25.0243 N   0  0  0  0  0  0  0  0  0  0  0  0
    6.4792  -18.4278   24.5152 C   0  0  0  0  0  0  0  0  0  0  0  0
    6.2172  -18.4092   23.3058 O   0  0  0  0  0  0  0  0  0  0  0  0
    9.8694  -18.8770   26.1922 C   0  0  0  0  0  0  0  0  0  0  0  0
   10.6741  -18.6608   27.2923 C   0  0  0  0  0  0  0  0  0  0  0  0
    8.2781  -11.6017   27.1963 C   0  0  0  0  0  0  0  0  0  0  0  0
    6.6958  -12.2111   26.5602 S   0  0  0  0  0  0  0  0  0  0  0  0
    6.9908  -13.3963   25.1706 C   0  0  0  0  0  0  0  0  0  0  0  0
    6.6077  -14.7406   25.5739 C   0  0  0  0  0  0  0  0  0  0  0  0
    6.7441  -15.9116   24.6751 C   0  0  2  0  0  0  0  0  0  0  0  0
    6.4416  -17.1898   25.2479 N   0  0  0  0  0  0  0  0  0  0  0  0
    7.8363  -15.9359   23.7433 C   0  0  0  0  0  0  0  0  0  0  0  0
    8.6549  -16.9551   23.7700 O   0  0  0  0  0  0  0  0  0  0  0  0
    8.1601  -14.9948   22.7880 N   0  0  0  0  0  0  0  0  0  0  0  0
    7.7505  -13.6392   22.5817 C   0  0  0  0  0  0  0  0  0  0  0  0
    7.2572  -13.7579   21.1216 C   0  0  0  0  0  0  0  0  0  0  0  0
    8.3019  -14.6875   20.4947 C   0  0  0  0  0  0  0  0  0  0  0  0
    9.0749  -15.2293   21.6563 C   0  0  1  0  0  0  0  0  0  0  0  0
   10.3438  -14.4918   21.8148 C   0  0  0  0  0  0  0  0  0  0  0  0
   11.2621  -14.5564   20.9269 O   0  0  0  0  0  0  0  0  0  0  0  0
   10.6500  -13.6901   22.9025 O   0  0  0  0  0  0  0  0  0  0  0  0
  2  1  1  0
  3  2  2  0
  4  3  1  0
  5 11  1  0
  5  4  2  0
  6  5  1  0
  7  6  1  0
  7  8  1  6
  9 18  1  0
  9  7  1  0
 10  9  2  0
 11 12  2  0
 12  2  1  0
 13 14  1  0
 14 15  1  0
 17 16  1  1
 16 15  1  0
 17 18  1  0
 19 17  1  0
 20 19  2  0
 21 22  1  0
 21 19  1  0
 23 22  1  0
 24 23  1  0
 24 25  1  0
 25 26  1  1
 25 21  1  0
 26 28  1  0
 27 26  2  0
M  END
$$$$
