HVQ.pdb
     RDKit          3D

 27 27  0  0  1  0  0  0  0  0999 V2000
    8.8238  -15.0204   20.7948 N   0  0  0  0  0  0  0  0  0  0  0  0
    8.1084  -15.5729   21.9060 C   0  0  1  0  0  0  0  0  0  0  0  0
    8.1111  -17.0741   21.8958 C   0  0  0  0  0  0  0  0  0  0  0  0
    7.6895  -17.6698   20.6170 C   0  0  0  0  0  0  0  0  0  0  0  0
    6.4874  -17.4109   19.9560 C   0  0  0  0  0  0  0  0  0  0  0  0
    6.4433  -18.1239   18.8315 N   0  0  0  0  0  0  0  0  0  0  0  0
    7.5888  -18.8148   18.7846 C   0  0  0  0  0  0  0  0  0  0  0  0
    8.3358  -18.5407   19.8579 N   0  0  0  0  0  0  0  0  0  0  0  0
    8.4322  -14.9758   23.2152 C   0  0  0  0  0  0  0  0  0  0  0  0
    9.6329  -15.0272   23.6034 O   0  0  0  0  0  0  0  0  0  0  0  0
    7.0460  -12.2378   27.1298 C   0  0  0  0  0  0  0  0  0  0  0  0
    6.7411  -12.8659   25.8175 C   0  0  1  0  0  0  0  0  0  0  0  0
    6.6841  -11.7134   24.8001 C   0  0  0  0  0  0  0  0  0  0  0  0
    7.8444  -13.7698   25.3410 C   0  0  2  0  0  0  0  0  0  0  0  0
    7.4561  -14.3592   24.0391 N   0  0  0  0  0  0  0  0  0  0  0  0
    8.1391  -14.9049   26.2381 C   0  0  0  0  0  0  0  0  0  0  0  0
    7.4413  -15.9795   26.1711 O   0  0  0  0  0  0  0  0  0  0  0  0
   13.1078  -18.4541   27.7048 N   0  0  0  0  0  0  0  0  0  0  0  0
   12.1780  -18.2414   26.6627 C   0  0  0  0  0  0  0  0  0  0  0  0
   12.0219  -19.1693   25.8187 O   0  0  0  0  0  0  0  0  0  0  0  0
   11.4000  -16.9794   26.5432 C   0  0  0  0  0  0  0  0  0  0  0  0
    9.9550  -17.1953   26.9373 C   0  0  0  0  0  0  0  0  0  0  0  0
    9.4813  -16.1838   27.9438 C   0  0  2  0  0  0  0  0  0  0  0  0
    9.1624  -14.9451   27.2160 N   0  0  0  0  0  0  0  0  0  0  0  0
   10.4675  -15.9299   29.0086 C   0  0  0  0  0  0  0  0  0  0  0  0
   10.8575  -16.8546   29.8007 O   0  0  0  0  0  0  0  0  0  0  0  0
   11.0293  -14.6810   29.2164 O   0  0  0  0  0  0  0  0  0  0  0  0
  2  1  1  6
  3  2  1  0
  4  3  1  0
  5  4  2  0
  6  5  1  0
  7  6  1  0
  7  8  2  0
  8  4  1  0
  9 15  1  0
  9  2  1  0
 10  9  2  0
 12 11  1  1
 13 12  1  0
 14 15  1  6
 14 12  1  0
 16 14  1  0
 17 16  2  0
 19 18  1  0
 20 19  2  0
 21 19  1  0
 23 22  1  6
 22 21  1  0
 23 24  1  0
 24 16  1  0
 25 27  1  0
 25 23  1  0
 26 25  2  0
M  END
$$$$
