HVQ.pdb
     RDKit          3D

 27 27  0  0  1  0  0  0  0  0999 V2000
    9.9633  -17.7918   18.5538 N   0  0  0  0  0  0  0  0  0  0  0  0
   10.9189  -17.4702   19.5714 C   0  0  1  0  0  0  0  0  0  0  0  0
   12.2654  -17.1300   19.0015 C   0  0  0  0  0  0  0  0  0  0  0  0
   12.7617  -18.0960   18.0073 C   0  0  0  0  0  0  0  0  0  0  0  0
   12.5310  -18.0388   16.6316 C   0  0  0  0  0  0  0  0  0  0  0  0
   13.1289  -19.0740   16.0436 N   0  0  0  0  0  0  0  0  0  0  0  0
   13.7219  -19.7663   17.0239 C   0  0  0  0  0  0  0  0  0  0  0  0
   13.5002  -19.1772   18.2025 N   0  0  0  0  0  0  0  0  0  0  0  0
   10.4410  -16.5274   20.6000 C   0  0  0  0  0  0  0  0  0  0  0  0
   11.3061  -15.8520   21.2251 O   0  0  0  0  0  0  0  0  0  0  0  0
    6.7330  -14.1768   22.9079 C   0  0  0  0  0  0  0  0  0  0  0  0
    7.2593  -14.9903   21.7806 C   0  0  1  0  0  0  0  0  0  0  0  0
    7.3751  -14.0302   20.5841 C   0  0  0  0  0  0  0  0  0  0  0  0
    8.6550  -15.4899   22.0327 C   0  0  2  0  0  0  0  0  0  0  0  0
    9.0665  -16.3594   20.9068 N   0  0  0  0  0  0  0  0  0  0  0  0
    8.8054  -16.3001   23.2580 C   0  0  0  0  0  0  0  0  0  0  0  0
    8.6913  -17.5770   23.2064 O   0  0  0  0  0  0  0  0  0  0  0  0
   10.4426  -14.1414   28.9044 N   0  0  0  0  0  0  0  0  0  0  0  0
   11.1137  -14.0942   27.6622 C   0  0  0  0  0  0  0  0  0  0  0  0
   12.0514  -13.2564   27.5346 O   0  0  0  0  0  0  0  0  0  0  0  0
   10.7472  -14.9885   26.5316 C   0  0  0  0  0  0  0  0  0  0  0  0
    9.5807  -15.8785   26.9019 C   0  0  0  0  0  0  0  0  0  0  0  0
    9.0830  -16.6820   25.7326 C   0  0  2  0  0  0  0  0  0  0  0  0
    9.0788  -15.8003   24.5543 N   0  0  0  0  0  0  0  0  0  0  0  0
    7.7477  -17.2608   25.9620 C   0  0  0  0  0  0  0  0  0  0  0  0
    6.6866  -16.7068   25.5129 O   0  0  0  0  0  0  0  0  0  0  0  0
    7.5604  -18.4336   26.6749 O   0  0  0  0  0  0  0  0  0  0  0  0
  2  1  1  6
  3  2  1  0
  4  3  1  0
  5  4  2  0
  6  5  1  0
  7  6  1  0
  7  8  2  0
  8  4  1  0
  9 15  1  0
  9  2  1  0
 10  9  2  0
 12 11  1  1
 13 12  1  0
 14 15  1  6
 14 12  1  0
 16 14  1  0
 17 16  2  0
 19 18  1  0
 20 19  2  0
 21 19  1  0
 23 22  1  1
 22 21  1  0
 23 24  1  0
 24 16  1  0
 25 27  1  0
 25 23  1  0
 26 25  2  0
M  END
$$$$
