HVQ.pdb
     RDKit          3D

 27 27  0  0  1  0  0  0  0  0999 V2000
    9.2127  -17.4386   16.3718 N   0  0  0  0  0  0  0  0  0  0  0  0
    8.2486  -17.2538   17.4150 C   0  0  1  0  0  0  0  0  0  0  0  0
    7.6131  -18.5461   17.8391 C   0  0  0  0  0  0  0  0  0  0  0  0
    6.7446  -19.1553   16.8181 C   0  0  0  0  0  0  0  0  0  0  0  0
    6.5119  -18.6462   15.5391 C   0  0  0  0  0  0  0  0  0  0  0  0
    5.6755  -19.4555   14.8909 N   0  0  0  0  0  0  0  0  0  0  0  0
    5.3883  -20.4499   15.7397 C   0  0  0  0  0  0  0  0  0  0  0  0
    6.0314  -20.2677   16.8965 N   0  0  0  0  0  0  0  0  0  0  0  0
    8.6960  -16.4033   18.5339 C   0  0  0  0  0  0  0  0  0  0  0  0
    9.9174  -16.4462   18.8525 O   0  0  0  0  0  0  0  0  0  0  0  0
    7.6638  -12.8905   21.9143 C   0  0  0  0  0  0  0  0  0  0  0  0
    7.2700  -13.7142   20.7412 C   0  0  1  0  0  0  0  0  0  0  0  0
    7.1722  -12.7404   19.5542 C   0  0  0  0  0  0  0  0  0  0  0  0
    8.3268  -14.7127   20.3572 C   0  0  2  0  0  0  0  0  0  0  0  0
    7.8146  -15.5560   19.2528 N   0  0  0  0  0  0  0  0  0  0  0  0
    8.7183  -15.6390   21.4383 C   0  0  0  0  0  0  0  0  0  0  0  0
    8.0070  -16.6768   21.6893 O   0  0  0  0  0  0  0  0  0  0  0  0
   11.4351  -20.3565   22.5361 N   0  0  0  0  0  0  0  0  0  0  0  0
   11.9803  -19.3208   21.7449 C   0  0  0  0  0  0  0  0  0  0  0  0
   12.9209  -19.6201   20.9556 O   0  0  0  0  0  0  0  0  0  0  0  0
   11.4810  -17.9219   21.8215 C   0  0  0  0  0  0  0  0  0  0  0  0
   10.2708  -17.8278   22.7250 C   0  0  0  0  0  0  0  0  0  0  0  0
   10.1315  -16.4683   23.3519 C   0  0  2  0  0  0  0  0  0  0  0  0
    9.8538  -15.5058   22.2738 N   0  0  0  0  0  0  0  0  0  0  0  0
   11.3222  -16.0678   24.1217 C   0  0  0  0  0  0  0  0  0  0  0  0
   12.0869  -15.1187   23.7354 O   0  0  0  0  0  0  0  0  0  0  0  0
   11.6850  -16.6913   25.3041 O   0  0  0  0  0  0  0  0  0  0  0  0
  2  1  1  6
  3  2  1  0
  4  3  1  0
  5  4  2  0
  6  5  1  0
  7  6  1  0
  7  8  2  0
  8  4  1  0
  9 15  1  0
  9  2  1  0
 10  9  2  0
 12 11  1  1
 13 12  1  0
 14 15  1  6
 14 12  1  0
 16 14  1  0
 17 16  2  0
 19 18  1  0
 20 19  2  0
 21 19  1  0
 23 22  1  6
 22 21  1  0
 23 24  1  0
 24 16  1  0
 25 27  1  0
 25 23  1  0
 26 25  2  0
M  END
$$$$
