HVQ.pdb
     RDKit          3D

 27 27  0  0  1  0  0  0  0  0999 V2000
    9.5696  -16.4742   15.5967 N   0  0  0  0  0  0  0  0  0  0  0  0
    8.7069  -16.6053   16.7327 C   0  0  1  0  0  0  0  0  0  0  0  0
    8.1540  -17.9941   16.8711 C   0  0  0  0  0  0  0  0  0  0  0  0
    7.4555  -18.4880   15.6727 C   0  0  0  0  0  0  0  0  0  0  0  0
    6.0776  -18.4350   15.4544 C   0  0  0  0  0  0  0  0  0  0  0  0
    5.8010  -18.9725   14.2672 N   0  0  0  0  0  0  0  0  0  0  0  0
    6.9750  -19.3546   13.7499 C   0  0  0  0  0  0  0  0  0  0  0  0
    7.9674  -19.0626   14.5956 N   0  0  0  0  0  0  0  0  0  0  0  0
    9.2360  -16.0366   17.9865 C   0  0  0  0  0  0  0  0  0  0  0  0
   10.3576  -16.4516   18.3924 O   0  0  0  0  0  0  0  0  0  0  0  0
    8.3739  -12.2494   19.2565 C   0  0  0  0  0  0  0  0  0  0  0  0
    8.3973  -13.2497   20.3559 C   0  0  1  0  0  0  0  0  0  0  0  0
    6.9350  -13.6775   20.5695 C   0  0  0  0  0  0  0  0  0  0  0  0
    9.1332  -14.5052   19.9772 C   0  0  2  0  0  0  0  0  0  0  0  0
    8.5376  -15.0583   18.7393 N   0  0  0  0  0  0  0  0  0  0  0  0
    9.0687  -15.5824   20.9850 C   0  0  0  0  0  0  0  0  0  0  0  0
    8.3996  -16.6509   20.7468 O   0  0  0  0  0  0  0  0  0  0  0  0
   14.2071  -19.6915   22.0286 N   0  0  0  0  0  0  0  0  0  0  0  0
   13.0548  -19.0309   21.5475 C   0  0  0  0  0  0  0  0  0  0  0  0
   12.9696  -18.8344   20.3018 O   0  0  0  0  0  0  0  0  0  0  0  0
   11.9687  -18.5745   22.4554 C   0  0  0  0  0  0  0  0  0  0  0  0
   11.3719  -17.2705   21.9724 C   0  0  0  0  0  0  0  0  0  0  0  0
   10.2463  -16.7988   22.8506 C   0  0  2  0  0  0  0  0  0  0  0  0
    9.6985  -15.5704   22.2532 N   0  0  0  0  0  0  0  0  0  0  0  0
   10.6657  -16.5652   24.2435 C   0  0  0  0  0  0  0  0  0  0  0  0
   10.5342  -17.4608   25.1464 O   0  0  0  0  0  0  0  0  0  0  0  0
   11.2247  -15.3677   24.6586 O   0  0  0  0  0  0  0  0  0  0  0  0
  2  1  1  6
  3  2  1  0
  4  3  1  0
  5  4  2  0
  6  5  1  0
  7  6  1  0
  7  8  2  0
  8  4  1  0
  9 15  1  0
  9  2  1  0
 10  9  2  0
 12 11  1  6
 13 12  1  0
 14 15  1  6
 14 12  1  0
 16 14  1  0
 17 16  2  0
 19 18  1  0
 20 19  2  0
 21 19  1  0
 23 22  1  6
 22 21  1  0
 23 24  1  0
 24 16  1  0
 25 27  1  0
 25 23  1  0
 26 25  2  0
M  END
$$$$
