HVQ.pdb
     RDKit          3D

 27 27  0  0  1  0  0  0  0  0999 V2000
   10.3837  -16.7254   16.0940 N   0  0  0  0  0  0  0  0  0  0  0  0
    9.4292  -17.0260   17.1189 C   0  0  1  0  0  0  0  0  0  0  0  0
    9.2650  -18.5034   17.3290 C   0  0  0  0  0  0  0  0  0  0  0  0
    9.0580  -19.2701   16.0892 C   0  0  0  0  0  0  0  0  0  0  0  0
    8.2104  -18.9078   15.0405 C   0  0  0  0  0  0  0  0  0  0  0  0
    8.2739  -19.8347   14.0858 N   0  0  0  0  0  0  0  0  0  0  0  0
    9.1397  -20.7580   14.5213 C   0  0  0  0  0  0  0  0  0  0  0  0
    9.6095  -20.4170   15.7247 N   0  0  0  0  0  0  0  0  0  0  0  0
    9.5865  -16.2512   18.3640 C   0  0  0  0  0  0  0  0  0  0  0  0
   10.7131  -16.2780   18.9343 O   0  0  0  0  0  0  0  0  0  0  0  0
    7.7657  -12.9713   21.6309 C   0  0  0  0  0  0  0  0  0  0  0  0
    7.6197  -13.7733   20.3878 C   0  0  1  0  0  0  0  0  0  0  0  0
    7.7428  -12.7751   19.2236 C   0  0  0  0  0  0  0  0  0  0  0  0
    8.7444  -14.7533   20.1987 C   0  0  2  0  0  0  0  0  0  0  0  0
    8.5319  -15.4928   18.9335 N   0  0  0  0  0  0  0  0  0  0  0  0
    8.8556  -15.7730   21.2608 C   0  0  0  0  0  0  0  0  0  0  0  0
    8.4509  -16.9721   21.0502 O   0  0  0  0  0  0  0  0  0  0  0  0
   13.4799  -17.9460   20.9962 N   0  0  0  0  0  0  0  0  0  0  0  0
   13.2026  -18.5837   22.2259 C   0  0  0  0  0  0  0  0  0  0  0  0
   13.9913  -19.4964   22.6032 O   0  0  0  0  0  0  0  0  0  0  0  0
   12.0310  -18.2108   23.0628 C   0  0  0  0  0  0  0  0  0  0  0  0
   11.2497  -17.0813   22.4274 C   0  0  0  0  0  0  0  0  0  0  0  0
   10.0906  -16.6408   23.2778 C   0  0  2  0  0  0  0  0  0  0  0  0
    9.3899  -15.5668   22.5559 N   0  0  0  0  0  0  0  0  0  0  0  0
   10.5022  -16.1920   24.6194 C   0  0  0  0  0  0  0  0  0  0  0  0
   10.9623  -17.0064   25.4911 O   0  0  0  0  0  0  0  0  0  0  0  0
   10.4163  -14.8680   25.0171 O   0  0  0  0  0  0  0  0  0  0  0  0
  2  1  1  6
  3  2  1  0
  4  3  1  0
  5  4  2  0
  6  5  1  0
  7  6  1  0
  7  8  2  0
  8  4  1  0
  9 15  1  0
  9  2  1  0
 10  9  2  0
 12 11  1  1
 13 12  1  0
 14 15  1  6
 14 12  1  0
 16 14  1  0
 17 16  2  0
 19 18  1  0
 20 19  2  0
 21 19  1  0
 23 22  1  6
 22 21  1  0
 23 24  1  0
 24 16  1  0
 25 27  1  0
 25 23  1  0
 26 25  2  0
M  END
$$$$
