HVQ.pdb
     RDKit          3D

 27 27  0  0  1  0  0  0  0  0999 V2000
   13.2262  -14.2113   16.4881 N   0  0  0  0  0  0  0  0  0  0  0  0
   12.0670  -14.9223   16.9383 C   0  0  1  0  0  0  0  0  0  0  0  0
   12.2061  -16.4070   16.7648 C   0  0  0  0  0  0  0  0  0  0  0  0
   12.2845  -16.8461   15.3617 C   0  0  0  0  0  0  0  0  0  0  0  0
   12.2819  -16.0075   14.2455 C   0  0  0  0  0  0  0  0  0  0  0  0
   12.3645  -16.7479   13.1410 N   0  0  0  0  0  0  0  0  0  0  0  0
   12.4179  -18.0212   13.5505 C   0  0  0  0  0  0  0  0  0  0  0  0
   12.3698  -18.0779   14.8845 N   0  0  0  0  0  0  0  0  0  0  0  0
   11.5586  -14.5123   18.2607 C   0  0  0  0  0  0  0  0  0  0  0  0
   12.3983  -14.3620   19.1921 O   0  0  0  0  0  0  0  0  0  0  0  0
    7.7238  -13.1874   21.1560 C   0  0  0  0  0  0  0  0  0  0  0  0
    8.2802  -13.5145   19.8169 C   0  0  1  0  0  0  0  0  0  0  0  0
    8.2529  -12.2017   19.0153 C   0  0  0  0  0  0  0  0  0  0  0  0
    9.7271  -13.9196   19.8773 C   0  0  2  0  0  0  0  0  0  0  0  0
   10.1818  -14.2879   18.5169 N   0  0  0  0  0  0  0  0  0  0  0  0
   10.0024  -15.0884   20.7366 C   0  0  0  0  0  0  0  0  0  0  0  0
    9.6351  -16.2614   20.3690 O   0  0  0  0  0  0  0  0  0  0  0  0
   15.1471  -17.0265   22.6934 N   0  0  0  0  0  0  0  0  0  0  0  0
   14.6885  -15.7030   22.8774 C   0  0  0  0  0  0  0  0  0  0  0  0
   15.5574  -14.7905   22.9767 O   0  0  0  0  0  0  0  0  0  0  0  0
   13.2404  -15.3721   22.9541 C   0  0  0  0  0  0  0  0  0  0  0  0
   12.3908  -16.5891   22.6594 C   0  0  0  0  0  0  0  0  0  0  0  0
   10.9196  -16.2929   22.7502 C   0  0  2  0  0  0  0  0  0  0  0  0
   10.6644  -15.0601   21.9880 N   0  0  0  0  0  0  0  0  0  0  0  0
   10.4464  -16.1607   24.1392 C   0  0  0  0  0  0  0  0  0  0  0  0
   10.5803  -17.1056   24.9899 O   0  0  0  0  0  0  0  0  0  0  0  0
    9.8303  -15.0114   24.6064 O   0  0  0  0  0  0  0  0  0  0  0  0
  2  1  1  1
  3  2  1  0
  4  3  1  0
  5  4  2  0
  6  5  1  0
  7  6  1  0
  7  8  2  0
  8  4  1  0
  9 15  1  0
  9  2  1  0
 10  9  2  0
 12 11  1  1
 13 12  1  0
 14 15  1  6
 14 12  1  0
 16 14  1  0
 17 16  2  0
 19 18  1  0
 20 19  2  0
 21 19  1  0
 23 22  1  1
 22 21  1  0
 23 24  1  0
 24 16  1  0
 25 27  1  0
 25 23  1  0
 26 25  2  0
M  END
$$$$
