HVQ.pdb
     RDKit          3D

 27 27  0  0  1  0  0  0  0  0999 V2000
   11.0270  -15.6647   15.5443 N   0  0  0  0  0  0  0  0  0  0  0  0
   10.0546  -16.1771   16.4630 C   0  0  1  0  0  0  0  0  0  0  0  0
   10.0282  -17.6779   16.4865 C   0  0  0  0  0  0  0  0  0  0  0  0
    9.6323  -18.2948   15.2096 C   0  0  0  0  0  0  0  0  0  0  0  0
   10.2008  -18.0226   13.9638 C   0  0  0  0  0  0  0  0  0  0  0  0
    9.5951  -18.7611   13.0351 N   0  0  0  0  0  0  0  0  0  0  0  0
    8.6683  -19.4809   13.6791 C   0  0  0  0  0  0  0  0  0  0  0  0
    8.6923  -19.1993   14.9849 N   0  0  0  0  0  0  0  0  0  0  0  0
   10.0676  -15.5508   17.7982 C   0  0  0  0  0  0  0  0  0  0  0  0
   11.1807  -15.4413   18.3850 O   0  0  0  0  0  0  0  0  0  0  0  0
    7.6085  -13.1911   21.4346 C   0  0  0  0  0  0  0  0  0  0  0  0
    7.6556  -13.7673   20.0651 C   0  0  1  0  0  0  0  0  0  0  0  0
    7.5593  -12.5728   19.1002 C   0  0  0  0  0  0  0  0  0  0  0  0
    8.9732  -14.4252   19.7615 C   0  0  2  0  0  0  0  0  0  0  0  0
    8.8915  -15.0783   18.4349 N   0  0  0  0  0  0  0  0  0  0  0  0
    9.3685  -15.4784   20.7180 C   0  0  0  0  0  0  0  0  0  0  0  0
    8.8004  -16.6282   20.6842 O   0  0  0  0  0  0  0  0  0  0  0  0
   14.9899  -17.0862   22.3070 N   0  0  0  0  0  0  0  0  0  0  0  0
   14.5017  -15.8834   22.8644 C   0  0  0  0  0  0  0  0  0  0  0  0
   15.3501  -15.0242   23.2379 O   0  0  0  0  0  0  0  0  0  0  0  0
   13.0464  -15.6163   23.0159 C   0  0  0  0  0  0  0  0  0  0  0  0
   12.2252  -16.7186   22.3829 C   0  0  0  0  0  0  0  0  0  0  0  0
   10.7478  -16.5026   22.5606 C   0  0  2  0  0  0  0  0  0  0  0  0
   10.3599  -15.3573   21.7217 N   0  0  0  0  0  0  0  0  0  0  0  0
   10.3664  -16.2791   23.9660 C   0  0  0  0  0  0  0  0  0  0  0  0
    9.8440  -15.1794   24.3561 O   0  0  0  0  0  0  0  0  0  0  0  0
   10.5497  -17.2408   24.9459 O   0  0  0  0  0  0  0  0  0  0  0  0
  2  1  1  6
  3  2  1  0
  4  3  1  0
  5  4  2  0
  6  5  1  0
  7  6  1  0
  7  8  2  0
  8  4  1  0
  9 15  1  0
  9  2  1  0
 10  9  2  0
 12 11  1  1
 13 12  1  0
 14 15  1  6
 14 12  1  0
 16 14  1  0
 17 16  2  0
 19 18  1  0
 20 19  2  0
 21 19  1  0
 23 22  1  1
 22 21  1  0
 23 24  1  0
 24 16  1  0
 25 27  1  0
 25 23  1  0
 26 25  2  0
M  END
$$$$
