HVQ.pdb
     RDKit          3D

 27 27  0  0  1  0  0  0  0  0999 V2000
    8.6630  -16.8446   16.2539 N   0  0  0  0  0  0  0  0  0  0  0  0
    8.6125  -17.3238   17.6028 C   0  0  1  0  0  0  0  0  0  0  0  0
    9.1245  -18.7295   17.7278 C   0  0  0  0  0  0  0  0  0  0  0  0
    8.4804  -19.6898   16.8163 C   0  0  0  0  0  0  0  0  0  0  0  0
    7.4236  -20.5406   17.1453 C   0  0  0  0  0  0  0  0  0  0  0  0
    7.0980  -21.2681   16.0778 N   0  0  0  0  0  0  0  0  0  0  0  0
    7.9286  -20.8854   15.1003 C   0  0  0  0  0  0  0  0  0  0  0  0
    8.7580  -19.9375   15.5459 N   0  0  0  0  0  0  0  0  0  0  0  0
    9.1452  -16.3932   18.6155 C   0  0  0  0  0  0  0  0  0  0  0  0
   10.4000  -16.2864   18.7129 O   0  0  0  0  0  0  0  0  0  0  0  0
    7.2908  -12.9539   19.6646 C   0  0  0  0  0  0  0  0  0  0  0  0
    7.8628  -13.6698   20.8351 C   0  0  1  0  0  0  0  0  0  0  0  0
    6.7058  -14.4837   21.4398 C   0  0  0  0  0  0  0  0  0  0  0  0
    8.9033  -14.6810   20.4400 C   0  0  2  0  0  0  0  0  0  0  0  0
    8.3096  -15.6298   19.4702 N   0  0  0  0  0  0  0  0  0  0  0  0
    9.4201  -15.4984   21.5558 C   0  0  0  0  0  0  0  0  0  0  0  0
    9.0664  -16.7259   21.6755 O   0  0  0  0  0  0  0  0  0  0  0  0
   15.2570  -15.5495   22.9845 N   0  0  0  0  0  0  0  0  0  0  0  0
   14.7696  -16.6410   23.7373 C   0  0  0  0  0  0  0  0  0  0  0  0
   15.6179  -17.4370   24.2315 O   0  0  0  0  0  0  0  0  0  0  0  0
   13.3152  -16.8649   23.9536 C   0  0  0  0  0  0  0  0  0  0  0  0
   12.4916  -15.8613   23.1762 C   0  0  0  0  0  0  0  0  0  0  0  0
   11.0180  -16.0104   23.4349 C   0  0  2  0  0  0  0  0  0  0  0  0
   10.3129  -15.0576   22.5626 N   0  0  0  0  0  0  0  0  0  0  0  0
   10.6598  -15.7954   24.8478 C   0  0  0  0  0  0  0  0  0  0  0  0
   10.1047  -14.7145   25.2456 O   0  0  0  0  0  0  0  0  0  0  0  0
   10.9014  -16.7450   25.8267 O   0  0  0  0  0  0  0  0  0  0  0  0
  2  1  1  6
  3  2  1  0
  4  3  1  0
  5  4  2  0
  6  5  1  0
  7  6  1  0
  7  8  2  0
  8  4  1  0
  9 15  1  0
  9  2  1  0
 10  9  2  0
 12 11  1  6
 13 12  1  0
 14 15  1  6
 14 12  1  0
 16 14  1  0
 17 16  2  0
 19 18  1  0
 20 19  2  0
 21 19  1  0
 23 22  1  1
 22 21  1  0
 23 24  1  0
 24 16  1  0
 25 27  1  0
 25 23  1  0
 26 25  2  0
M  END
$$$$
