HVQ.pdb
     RDKit          3D

 27 27  0  0  1  0  0  0  0  0999 V2000
    8.5739  -15.2622   19.5836 N   0  0  0  0  0  0  0  0  0  0  0  0
    8.0328  -15.7551   20.8149 C   0  0  1  0  0  0  0  0  0  0  0  0
    8.0706  -17.2538   20.8946 C   0  0  0  0  0  0  0  0  0  0  0  0
    7.3390  -17.9343   19.8131 C   0  0  0  0  0  0  0  0  0  0  0  0
    6.8064  -17.3191   18.6786 C   0  0  0  0  0  0  0  0  0  0  0  0
    6.2135  -18.2390   17.9190 N   0  0  0  0  0  0  0  0  0  0  0  0
    6.3685  -19.4048   18.5583 C   0  0  0  0  0  0  0  0  0  0  0  0
    7.0447  -19.2196   19.6956 N   0  0  0  0  0  0  0  0  0  0  0  0
    8.5200  -15.0719   22.0279 C   0  0  0  0  0  0  0  0  0  0  0  0
    9.7042  -14.6327   22.0191 O   0  0  0  0  0  0  0  0  0  0  0  0
    7.4932  -12.7625   26.2841 C   0  0  0  0  0  0  0  0  0  0  0  0
    7.0698  -13.5118   25.0721 C   0  0  1  0  0  0  0  0  0  0  0  0
    6.4805  -12.4644   24.1117 C   0  0  0  0  0  0  0  0  0  0  0  0
    8.2307  -14.1236   24.3378 C   0  0  2  0  0  0  0  0  0  0  0  0
    7.7176  -14.8977   23.1843 N   0  0  0  0  0  0  0  0  0  0  0  0
    9.0388  -15.0632   25.1406 C   0  0  0  0  0  0  0  0  0  0  0  0
    8.4973  -16.1082   25.6511 O   0  0  0  0  0  0  0  0  0  0  0  0
   10.0417  -14.0109   30.3213 N   0  0  0  0  0  0  0  0  0  0  0  0
   10.6534  -15.2834   30.2750 C   0  0  0  0  0  0  0  0  0  0  0  0
   10.7835  -15.9108   31.3645 O   0  0  0  0  0  0  0  0  0  0  0  0
   11.1344  -15.8830   29.0016 C   0  0  0  0  0  0  0  0  0  0  0  0
   10.6473  -15.0867   27.8106 C   0  0  0  0  0  0  0  0  0  0  0  0
   11.0572  -15.7071   26.5038 C   0  0  2  0  0  0  0  0  0  0  0  0
   10.4203  -14.9359   25.4242 N   0  0  0  0  0  0  0  0  0  0  0  0
   10.7029  -17.1342   26.4111 C   0  0  0  0  0  0  0  0  0  0  0  0
    9.4964  -17.5194   26.2365 O   0  0  0  0  0  0  0  0  0  0  0  0
   11.6495  -18.1409   26.5075 O   0  0  0  0  0  0  0  0  0  0  0  0
  2  1  1  6
  3  2  1  0
  4  3  1  0
  5  4  2  0
  6  5  1  0
  7  6  1  0
  7  8  2  0
  8  4  1  0
  9 15  1  0
  9  2  1  0
 10  9  2  0
 12 11  1  1
 13 12  1  0
 14 15  1  6
 14 12  1  0
 16 14  1  0
 17 16  2  0
 19 18  1  0
 20 19  2  0
 21 19  1  0
 23 22  1  1
 22 21  1  0
 23 24  1  0
 24 16  1  0
 25 27  1  0
 25 23  1  0
 26 25  2  0
M  END
$$$$
