HVQ.pdb
     RDKit          3D

 27 27  0  0  1  0  0  0  0  0999 V2000
    9.0751  -15.3831   20.5865 N   0  0  0  0  0  0  0  0  0  0  0  0
    8.0594  -15.5596   21.5811 C   0  0  1  0  0  0  0  0  0  0  0  0
    7.5348  -16.9658   21.6165 C   0  0  0  0  0  0  0  0  0  0  0  0
    7.0362  -17.4569   20.3211 C   0  0  0  0  0  0  0  0  0  0  0  0
    7.0747  -16.7543   19.1153 C   0  0  0  0  0  0  0  0  0  0  0  0
    6.5370  -17.5038   18.1541 N   0  0  0  0  0  0  0  0  0  0  0  0
    6.1689  -18.6501   18.7391 C   0  0  0  0  0  0  0  0  0  0  0  0
    6.4696  -18.6199   20.0405 N   0  0  0  0  0  0  0  0  0  0  0  0
    8.3812  -15.0000   22.9072 C   0  0  0  0  0  0  0  0  0  0  0  0
    9.5817  -15.0608   23.2948 O   0  0  0  0  0  0  0  0  0  0  0  0
    6.9568  -12.5764   27.0133 C   0  0  0  0  0  0  0  0  0  0  0  0
    6.6755  -13.0684   25.6391 C   0  0  1  0  0  0  0  0  0  0  0  0
    6.6839  -11.8241   24.7344 C   0  0  0  0  0  0  0  0  0  0  0  0
    7.7667  -13.9580   25.1107 C   0  0  2  0  0  0  0  0  0  0  0  0
    7.4036  -14.4086   23.7476 N   0  0  0  0  0  0  0  0  0  0  0  0
    7.9990  -15.1820   25.9034 C   0  0  0  0  0  0  0  0  0  0  0  0
    7.2452  -16.2078   25.7439 O   0  0  0  0  0  0  0  0  0  0  0  0
   11.4503  -19.7745   26.3317 N   0  0  0  0  0  0  0  0  0  0  0  0
   11.9143  -18.5446   25.8145 C   0  0  0  0  0  0  0  0  0  0  0  0
   13.0780  -18.5180   25.3218 O   0  0  0  0  0  0  0  0  0  0  0  0
   11.0810  -17.3128   25.8380 C   0  0  0  0  0  0  0  0  0  0  0  0
    9.6905  -17.6100   26.3559 C   0  0  0  0  0  0  0  0  0  0  0  0
    9.2853  -16.6813   27.4667 C   0  0  2  0  0  0  0  0  0  0  0  0
    9.0170  -15.3626   26.8709 N   0  0  0  0  0  0  0  0  0  0  0  0
   10.3007  -16.5821   28.5296 C   0  0  0  0  0  0  0  0  0  0  0  0
   10.9646  -15.5080   28.7297 O   0  0  0  0  0  0  0  0  0  0  0  0
   10.5976  -17.6405   29.3725 O   0  0  0  0  0  0  0  0  0  0  0  0
  2  1  1  6
  3  2  1  0
  4  3  1  0
  5  4  2  0
  6  5  1  0
  7  6  1  0
  7  8  2  0
  8  4  1  0
  9 15  1  0
  9  2  1  0
 10  9  2  0
 12 11  1  1
 13 12  1  0
 14 15  1  6
 14 12  1  0
 16 14  1  0
 17 16  2  0
 19 18  1  0
 20 19  2  0
 21 19  1  0
 23 22  1  6
 22 21  1  0
 23 24  1  0
 24 16  1  0
 25 27  1  0
 25 23  1  0
 26 25  2  0
M  END
$$$$
