HVQ.pdb
     RDKit          3D

 27 27  0  0  1  0  0  0  0  0999 V2000
   13.8958  -14.3299   17.7594 N   0  0  0  0  0  0  0  0  0  0  0  0
   12.6184  -14.9752   17.8216 C   0  0  1  0  0  0  0  0  0  0  0  0
   12.6952  -16.4279   17.4508 C   0  0  0  0  0  0  0  0  0  0  0  0
   13.0033  -16.6733   16.0321 C   0  0  0  0  0  0  0  0  0  0  0  0
   14.2815  -16.7101   15.4717 C   0  0  0  0  0  0  0  0  0  0  0  0
   14.1806  -16.9551   14.1661 N   0  0  0  0  0  0  0  0  0  0  0  0
   12.8718  -17.0700   13.9098 C   0  0  0  0  0  0  0  0  0  0  0  0
   12.1665  -16.9005   15.0318 N   0  0  0  0  0  0  0  0  0  0  0  0
   11.8413  -14.7030   19.0452 C   0  0  0  0  0  0  0  0  0  0  0  0
   12.4646  -14.6770   20.1434 O   0  0  0  0  0  0  0  0  0  0  0  0
    7.6109  -13.1008   21.1062 C   0  0  0  0  0  0  0  0  0  0  0  0
    8.3625  -13.5868   19.9194 C   0  0  1  0  0  0  0  0  0  0  0  0
    8.5916  -12.3530   19.0295 C   0  0  0  0  0  0  0  0  0  0  0  0
    9.7350  -14.0893   20.2725 C   0  0  2  0  0  0  0  0  0  0  0  0
   10.4413  -14.4762   19.0297 N   0  0  0  0  0  0  0  0  0  0  0  0
    9.7473  -15.2812   21.1440 C   0  0  0  0  0  0  0  0  0  0  0  0
    9.6642  -16.4555   20.6339 O   0  0  0  0  0  0  0  0  0  0  0  0
   14.1540  -17.7748   22.3444 N   0  0  0  0  0  0  0  0  0  0  0  0
   13.9813  -16.7365   23.2866 C   0  0  0  0  0  0  0  0  0  0  0  0
   15.0214  -16.2023   23.7666 O   0  0  0  0  0  0  0  0  0  0  0  0
   12.6341  -16.2725   23.7129 C   0  0  0  0  0  0  0  0  0  0  0  0
   11.5487  -16.9375   22.8946 C   0  0  0  0  0  0  0  0  0  0  0  0
   10.1719  -16.4976   23.3089 C   0  0  2  0  0  0  0  0  0  0  0  0
    9.8485  -15.2749   22.5564 N   0  0  0  0  0  0  0  0  0  0  0  0
   10.0559  -16.2691   24.7598 C   0  0  0  0  0  0  0  0  0  0  0  0
   10.2504  -17.2061   25.6075 O   0  0  0  0  0  0  0  0  0  0  0  0
    9.7302  -15.0324   25.2919 O   0  0  0  0  0  0  0  0  0  0  0  0
  2  1  1  1
  3  2  1  0
  4  3  1  0
  5  4  2  0
  6  5  1  0
  7  6  1  0
  7  8  2  0
  8  4  1  0
  9 15  1  0
  9  2  1  0
 10  9  2  0
 12 11  1  1
 13 12  1  0
 14 15  1  6
 14 12  1  0
 16 14  1  0
 17 16  2  0
 19 18  1  0
 20 19  2  0
 21 19  1  0
 23 22  1  1
 22 21  1  0
 23 24  1  0
 24 16  1  0
 25 27  1  0
 25 23  1  0
 26 25  2  0
M  END
$$$$
