FTH.pdb
     RDKit          3D

 29 30  0  0  1  0  0  0  0  0999 V2000
   27.2380  -11.6005  -18.3456 N   0  0  0  0  0  0  0  0  0  0  0  0
   27.0309  -10.8179  -17.1340 C   0  0  1  0  0  0  0  0  0  0  0  0
   27.7487   -9.4978  -17.3504 C   0  0  0  0  0  0  0  0  0  0  0  0
   29.1950   -9.7187  -17.6355 C   0  0  0  0  0  0  0  0  0  0  0  0
   29.8159  -10.8775  -17.2571 C   0  0  0  0  0  0  0  0  0  0  0  0
   31.1443  -11.0550  -17.5309 C   0  0  0  0  0  0  0  0  0  0  0  0
   31.8842  -10.0704  -18.1934 C   0  0  0  0  0  0  0  0  0  0  0  0
   31.2759   -8.8962  -18.5824 C   0  0  0  0  0  0  0  0  0  0  0  0
   29.9386   -8.7583  -18.2876 C   0  0  0  0  0  0  0  0  0  0  0  0
   25.5674  -10.6113  -16.9916 C   0  0  0  0  0  0  0  0  0  0  0  0
   24.7812  -10.5971  -17.9992 O   0  0  0  0  0  0  0  0  0  0  0  0
   23.1820  -12.6196  -15.1688 C   0  0  0  0  0  0  0  0  0  0  0  0
   22.9467  -11.2242  -14.6301 C   0  0  1  0  0  0  0  0  0  0  0  0
   23.6333  -11.1241  -13.4300 O   0  0  0  0  0  0  0  0  0  0  0  0
   23.5280  -10.1905  -15.5989 C   0  0  2  0  0  0  0  0  0  0  0  0
   24.9407  -10.4157  -15.7306 N   0  0  0  0  0  0  0  0  0  0  0  0
   23.2244   -8.8126  -15.1286 C   0  0  0  0  0  0  0  0  0  0  0  0
   24.1895   -8.0737  -14.8309 O   0  0  0  0  0  0  0  0  0  0  0  0
   21.9160   -8.3052  -15.0036 N   0  0  0  0  0  0  0  0  0  0  0  0
   21.6259   -6.9385  -14.5666 C   0  0  1  0  0  0  0  0  0  0  0  0
   22.3078   -6.0337  -15.5697 C   0  0  0  0  0  0  0  0  0  0  0  0
   22.0837   -4.5937  -15.3018 C   0  0  0  0  0  0  0  0  0  0  0  0
   22.4868   -3.8555  -14.2109 C   0  0  0  0  0  0  0  0  0  0  0  0
   22.0448   -2.5796  -14.4178 N   0  0  0  0  0  0  0  0  0  0  0  0
   21.3912   -2.5192  -15.5902 C   0  0  0  0  0  0  0  0  0  0  0  0
   21.4248   -3.7457  -16.1104 N   0  0  0  0  0  0  0  0  0  0  0  0
   20.1656   -6.7181  -14.5418 C   0  0  0  0  0  0  0  0  0  0  0  0
   19.6380   -5.7161  -13.7584 O   0  0  0  0  0  0  0  0  0  0  0  0
   19.3940   -7.4284  -15.2228 O   0  0  0  0  0  0  0  0  0  0  0  0
  2  1  1  6
  2  3  1  0
  4  3  1  0
  4  9  1  0
  5  4  2  0
  6  5  1  0
  6  7  2  0
  7  8  1  0
  8  9  2  0
 10  2  1  0
 11 10  2  0
 13 12  1  6
 14 13  1  0
 15 13  1  0
 15 16  1  1
 16 10  1  0
 17 15  1  0
 18 17  2  0
 19 17  1  0
 20 21  1  6
 20 19  1  0
 21 22  1  0
 22 26  1  0
 23 22  2  0
 23 24  1  0
 24 25  1  0
 26 25  2  0
 27 20  1  0
 27 28  1  0
 29 27  2  0
M  END
$$$$
