FTH.pdb
     RDKit          3D

 29 30  0  0  1  0  0  0  0  0999 V2000
   25.9925  -12.9630  -18.4818 N   0  0  0  0  0  0  0  0  0  0  0  0
   26.5730  -13.8324  -17.4668 C   0  0  1  0  0  0  0  0  0  0  0  0
   26.8966  -12.9448  -16.2785 C   0  0  0  0  0  0  0  0  0  0  0  0
   27.9798  -11.9778  -16.6157 C   0  0  0  0  0  0  0  0  0  0  0  0
   29.2282  -12.4158  -16.9639 C   0  0  0  0  0  0  0  0  0  0  0  0
   30.2042  -11.5073  -17.2688 C   0  0  0  0  0  0  0  0  0  0  0  0
   29.9502  -10.1326  -17.2315 C   0  0  0  0  0  0  0  0  0  0  0  0
   28.6984   -9.6723  -16.8829 C   0  0  0  0  0  0  0  0  0  0  0  0
   27.7458  -10.6196  -16.5838 C   0  0  0  0  0  0  0  0  0  0  0  0
   25.5419  -14.8408  -17.1131 C   0  0  0  0  0  0  0  0  0  0  0  0
   24.3486  -14.5111  -16.7957 O   0  0  0  0  0  0  0  0  0  0  0  0
   23.9781  -16.9480  -19.1652 C   0  0  0  0  0  0  0  0  0  0  0  0
   24.4371  -17.9460  -18.1231 C   0  0  1  0  0  0  0  0  0  0  0  0
   25.5886  -18.5475  -18.6070 O   0  0  0  0  0  0  0  0  0  0  0  0
   24.7916  -17.2137  -16.8258 C   0  0  2  0  0  0  0  0  0  0  0  0
   25.8084  -16.2373  -17.1029 N   0  0  0  0  0  0  0  0  0  0  0  0
   25.2201  -18.1848  -15.7840 C   0  0  0  0  0  0  0  0  0  0  0  0
   26.3515  -18.0281  -15.2728 O   0  0  0  0  0  0  0  0  0  0  0  0
   24.4213  -19.2611  -15.3499 N   0  0  0  0  0  0  0  0  0  0  0  0
   24.8382  -20.1964  -14.3038 C   0  0  1  0  0  0  0  0  0  0  0  0
   24.9311  -19.3774  -13.0348 C   0  0  0  0  0  0  0  0  0  0  0  0
   25.2209  -20.1953  -11.8336 C   0  0  0  0  0  0  0  0  0  0  0  0
   25.4987  -21.5428  -11.7651 C   0  0  0  0  0  0  0  0  0  0  0  0
   25.6933  -21.8348  -10.4448 N   0  0  0  0  0  0  0  0  0  0  0  0
   25.5438  -20.7168   -9.7146 C   0  0  0  0  0  0  0  0  0  0  0  0
   25.2586  -19.7361  -10.5708 N   0  0  0  0  0  0  0  0  0  0  0  0
   23.8462  -21.2832  -14.1769 C   0  0  0  0  0  0  0  0  0  0  0  0
   24.1842  -22.4449  -13.5193 O   0  0  0  0  0  0  0  0  0  0  0  0
   22.6977  -21.1684  -14.6581 O   0  0  0  0  0  0  0  0  0  0  0  0
  2  1  1  6
  2  3  1  0
  4  3  1  0
  4  9  1  0
  5  4  2  0
  6  5  1  0
  6  7  2  0
  7  8  1  0
  8  9  2  0
 10  2  1  0
 11 10  2  0
 13 12  1  6
 14 13  1  0
 15 13  1  0
 15 16  1  6
 16 10  1  0
 17 15  1  0
 18 17  2  0
 19 17  1  0
 20 21  1  1
 20 19  1  0
 21 22  1  0
 22 26  1  0
 23 22  2  0
 23 24  1  0
 24 25  1  0
 26 25  2  0
 27 20  1  0
 27 28  1  0
 29 27  2  0
M  END
$$$$
