FTH.pdb
     RDKit          3D

 29 30  0  0  1  0  0  0  0  0999 V2000
   18.3049  -26.1282    3.2913 N   0  0  0  0  0  0  0  0  0  0  0  0
   18.2883  -27.2223    4.2535 C   0  0  1  0  0  0  0  0  0  0  0  0
   18.3959  -28.5031    3.4457 C   0  0  0  0  0  0  0  0  0  0  0  0
   17.1476  -28.7491    2.6690 C   0  0  0  0  0  0  0  0  0  0  0  0
   17.1805  -28.8667    1.3064 C   0  0  0  0  0  0  0  0  0  0  0  0
   16.0205  -29.0924    0.6177 C   0  0  0  0  0  0  0  0  0  0  0  0
   14.7951  -29.2058    1.2821 C   0  0  0  0  0  0  0  0  0  0  0  0
   14.7421  -29.0901    2.6547 C   0  0  0  0  0  0  0  0  0  0  0  0
   15.9317  -28.8634    3.3086 C   0  0  0  0  0  0  0  0  0  0  0  0
   19.4706  -27.0475    5.1348 C   0  0  0  0  0  0  0  0  0  0  0  0
   20.5861  -26.6037    4.6965 O   0  0  0  0  0  0  0  0  0  0  0  0
   19.3241  -25.5560    8.7792 C   0  0  0  0  0  0  0  0  0  0  0  0
   20.1058  -26.8526    8.7901 C   0  0  1  0  0  0  0  0  0  0  0  0
   19.2364  -27.8551    9.1914 O   0  0  0  0  0  0  0  0  0  0  0  0
   20.5873  -27.1787    7.3734 C   0  0  2  0  0  0  0  0  0  0  0  0
   19.4448  -27.3600    6.5215 N   0  0  0  0  0  0  0  0  0  0  0  0
   21.4670  -28.3778    7.3893 C   0  0  0  0  0  0  0  0  0  0  0  0
   21.1883  -29.3142    6.6072 O   0  0  0  0  0  0  0  0  0  0  0  0
   22.5872  -28.5082    8.2338 N   0  0  0  0  0  0  0  0  0  0  0  0
   23.4704  -29.6756    8.2173 C   0  0  1  0  0  0  0  0  0  0  0  0
   24.0215  -29.7531    6.8102 C   0  0  0  0  0  0  0  0  0  0  0  0
   23.6023  -30.9767    6.0870 C   0  0  0  0  0  0  0  0  0  0  0  0
   22.7724  -31.9851    6.5251 C   0  0  0  0  0  0  0  0  0  0  0  0
   22.6894  -32.8924    5.5073 N   0  0  0  0  0  0  0  0  0  0  0  0
   23.4364  -32.4711    4.4729 C   0  0  0  0  0  0  0  0  0  0  0  0
   23.9806  -31.3117    4.8414 N   0  0  0  0  0  0  0  0  0  0  0  0
   24.5475  -29.5048    9.2134 C   0  0  0  0  0  0  0  0  0  0  0  0
   25.0475  -30.6037    9.8757 O   0  0  0  0  0  0  0  0  0  0  0  0
   25.0174  -28.3745    9.4688 O   0  0  0  0  0  0  0  0  0  0  0  0
  2  1  1  6
  2  3  1  0
  4  3  1  0
  4  9  1  0
  5  4  2  0
  6  5  1  0
  6  7  2  0
  7  8  1  0
  8  9  2  0
 10  2  1  0
 11 10  2  0
 13 12  1  6
 14 13  1  0
 15 13  1  0
 15 16  1  6
 16 10  1  0
 17 15  1  0
 18 17  2  0
 19 17  1  0
 20 21  1  6
 20 19  1  0
 21 22  1  0
 22 26  1  0
 23 22  2  0
 23 24  1  0
 24 25  1  0
 26 25  2  0
 27 20  1  0
 27 28  1  0
 29 27  2  0
M  END
$$$$
