FTH.pdb
     RDKit          3D

 29 30  0  0  1  0  0  0  0  0999 V2000
   20.8834  -13.3396  -16.4040 N   0  0  0  0  0  0  0  0  0  0  0  0
   20.3228  -12.1553  -17.0415 C   0  0  1  0  0  0  0  0  0  0  0  0
   18.9555  -12.5583  -17.5638 C   0  0  0  0  0  0  0  0  0  0  0  0
   19.0702  -13.2439  -18.8825 C   0  0  0  0  0  0  0  0  0  0  0  0
   18.9508  -14.6032  -18.9795 C   0  0  0  0  0  0  0  0  0  0  0  0
   19.0602  -15.2074  -20.2018 C   0  0  0  0  0  0  0  0  0  0  0  0
   19.2928  -14.4593  -21.3604 C   0  0  0  0  0  0  0  0  0  0  0  0
   19.4160  -13.0886  -21.2824 C   0  0  0  0  0  0  0  0  0  0  0  0
   19.2994  -12.5211  -20.0339 C   0  0  0  0  0  0  0  0  0  0  0  0
   20.2057  -11.1089  -15.9945 C   0  0  0  0  0  0  0  0  0  0  0  0
   19.7067  -11.3515  -14.8431 O   0  0  0  0  0  0  0  0  0  0  0  0
   22.4515   -9.6688  -13.9606 C   0  0  0  0  0  0  0  0  0  0  0  0
   21.8687   -8.4300  -14.6071 C   0  0  1  0  0  0  0  0  0  0  0  0
   22.7102   -8.0739  -15.6496 O   0  0  0  0  0  0  0  0  0  0  0  0
   20.4919   -8.7520  -15.1952 C   0  0  2  0  0  0  0  0  0  0  0  0
   20.6384   -9.7701  -16.1982 N   0  0  0  0  0  0  0  0  0  0  0  0
   19.8606   -7.5201  -15.7391 C   0  0  0  0  0  0  0  0  0  0  0  0
   19.8065   -7.3948  -16.9831 O   0  0  0  0  0  0  0  0  0  0  0  0
   19.3265   -6.4985  -14.9292 N   0  0  0  0  0  0  0  0  0  0  0  0
   18.7065   -5.2885  -15.4720 C   0  0  1  0  0  0  0  0  0  0  0  0
   17.5709   -5.7679  -16.3497 C   0  0  0  0  0  0  0  0  0  0  0  0
   16.8132   -4.6605  -16.9784 C   0  0  0  0  0  0  0  0  0  0  0  0
   15.9098   -3.8026  -16.3906 C   0  0  0  0  0  0  0  0  0  0  0  0
   15.4773   -2.9578  -17.3731 N   0  0  0  0  0  0  0  0  0  0  0  0
   16.0841   -3.2722  -18.5300 C   0  0  0  0  0  0  0  0  0  0  0  0
   16.8878   -4.3036  -18.2722 N   0  0  0  0  0  0  0  0  0  0  0  0
   18.2176   -4.4364  -14.3691 C   0  0  0  0  0  0  0  0  0  0  0  0
   17.8249   -3.1419  -14.6269 O   0  0  0  0  0  0  0  0  0  0  0  0
   18.1527   -4.8702  -13.1981 O   0  0  0  0  0  0  0  0  0  0  0  0
  2  1  1  1
  2  3  1  0
  4  3  1  0
  4  9  1  0
  5  4  2  0
  6  5  1  0
  6  7  2  0
  7  8  1  0
  8  9  2  0
 10  2  1  0
 11 10  2  0
 13 12  1  6
 14 13  1  0
 15 13  1  0
 15 16  1  6
 16 10  1  0
 17 15  1  0
 18 17  2  0
 19 17  1  0
 20 21  1  6
 20 19  1  0
 21 22  1  0
 22 26  1  0
 23 22  2  0
 23 24  1  0
 24 25  1  0
 26 25  2  0
 27 20  1  0
 27 28  1  0
 29 27  2  0
M  END
$$$$
