FTH.pdb
     RDKit          3D

 29 30  0  0  1  0  0  0  0  0999 V2000
   25.0207  -18.2848  -15.7292 N   0  0  0  0  0  0  0  0  0  0  0  0
   26.0312  -18.3553  -14.6818 C   0  0  1  0  0  0  0  0  0  0  0  0
   26.4616  -16.9257  -14.4068 C   0  0  0  0  0  0  0  0  0  0  0  0
   27.4396  -16.4580  -15.4300 C   0  0  0  0  0  0  0  0  0  0  0  0
   28.4683  -17.2628  -15.8371 C   0  0  0  0  0  0  0  0  0  0  0  0
   29.3519  -16.8093  -16.7775 C   0  0  0  0  0  0  0  0  0  0  0  0
   29.2241  -15.5327  -17.3342 C   0  0  0  0  0  0  0  0  0  0  0  0
   28.1940  -14.7075  -16.9365 C   0  0  0  0  0  0  0  0  0  0  0  0
   27.3278  -15.2026  -15.9885 C   0  0  0  0  0  0  0  0  0  0  0  0
   25.3829  -18.9553  -13.4882 C   0  0  0  0  0  0  0  0  0  0  0  0
   24.1509  -18.7572  -13.2116 O   0  0  0  0  0  0  0  0  0  0  0  0
   24.0646  -21.8002  -12.7812 C   0  0  0  0  0  0  0  0  0  0  0  0
   25.0382  -21.7488  -11.6228 C   0  0  1  0  0  0  0  0  0  0  0  0
   26.1566  -22.4805  -11.9911 O   0  0  0  0  0  0  0  0  0  0  0  0
   25.4753  -20.3018  -11.3777 C   0  0  2  0  0  0  0  0  0  0  0  0
   26.0835  -19.7882  -12.5737 N   0  0  0  0  0  0  0  0  0  0  0  0
   26.3933  -20.2293  -10.2098 C   0  0  0  0  0  0  0  0  0  0  0  0
   27.6175  -20.1073  -10.4389 O   0  0  0  0  0  0  0  0  0  0  0  0
   25.9549  -20.2910   -8.8723 N   0  0  0  0  0  0  0  0  0  0  0  0
   26.8650  -20.4638   -7.7388 C   0  0  1  0  0  0  0  0  0  0  0  0
   27.1132  -19.0732   -7.1963 C   0  0  0  0  0  0  0  0  0  0  0  0
   27.9503  -19.0657   -5.9737 C   0  0  0  0  0  0  0  0  0  0  0  0
   28.5009  -20.1397   -5.3095 C   0  0  0  0  0  0  0  0  0  0  0  0
   29.1846  -19.6300   -4.2423 N   0  0  0  0  0  0  0  0  0  0  0  0
   29.0681  -18.2914   -4.2367 C   0  0  0  0  0  0  0  0  0  0  0  0
   28.3188  -17.9683   -5.2903 N   0  0  0  0  0  0  0  0  0  0  0  0
   26.2437  -21.3392   -6.7244 C   0  0  0  0  0  0  0  0  0  0  0  0
   27.0312  -21.9560   -5.7780 O   0  0  0  0  0  0  0  0  0  0  0  0
   25.0083  -21.5326   -6.7080 O   0  0  0  0  0  0  0  0  0  0  0  0
  2  1  1  6
  2  3  1  0
  4  3  1  0
  4  9  1  0
  5  4  2  0
  6  5  1  0
  6  7  2  0
  7  8  1  0
  8  9  2  0
 10  2  1  0
 11 10  2  0
 13 12  1  6
 14 13  1  0
 15 13  1  0
 15 16  1  6
 16 10  1  0
 17 15  1  0
 18 17  2  0
 19 17  1  0
 20 21  1  1
 20 19  1  0
 21 22  1  0
 22 26  1  0
 23 22  2  0
 23 24  1  0
 24 25  1  0
 26 25  2  0
 27 20  1  0
 27 28  1  0
 29 27  2  0
M  END
$$$$
