FTH.pdb
     RDKit          3D

 29 30  0  0  1  0  0  0  0  0999 V2000
   28.8651  -20.7692  -14.4517 N   0  0  0  0  0  0  0  0  0  0  0  0
   29.8285  -21.8551  -14.5781 C   0  0  1  0  0  0  0  0  0  0  0  0
   29.5975  -22.7714  -13.3900 C   0  0  0  0  0  0  0  0  0  0  0  0
   30.5095  -22.4227  -12.2636 C   0  0  0  0  0  0  0  0  0  0  0  0
   31.8268  -22.7912  -12.2873 C   0  0  0  0  0  0  0  0  0  0  0  0
   32.6422  -22.4585  -11.2407 C   0  0  0  0  0  0  0  0  0  0  0  0
   32.1537  -21.7456  -10.1412 C   0  0  0  0  0  0  0  0  0  0  0  0
   30.8293  -21.3657  -10.0994 C   0  0  0  0  0  0  0  0  0  0  0  0
   30.0438  -21.7204  -11.1725 C   0  0  0  0  0  0  0  0  0  0  0  0
   29.5346  -22.5541  -15.8548 C   0  0  0  0  0  0  0  0  0  0  0  0
   28.3657  -22.5640  -16.3715 O   0  0  0  0  0  0  0  0  0  0  0  0
   30.8581  -23.9158  -20.2642 C   0  0  0  0  0  0  0  0  0  0  0  0
   31.1466  -23.2709  -18.9251 C   0  0  1  0  0  0  0  0  0  0  0  0
   30.8210  -21.9279  -19.0352 O   0  0  0  0  0  0  0  0  0  0  0  0
   30.2516  -23.8912  -17.8483 C   0  0  2  0  0  0  0  0  0  0  0  0
   30.5281  -23.2580  -16.5888 N   0  0  0  0  0  0  0  0  0  0  0  0
   30.4570  -25.3630  -17.7896 C   0  0  0  0  0  0  0  0  0  0  0  0
   30.9918  -25.8352  -16.7614 O   0  0  0  0  0  0  0  0  0  0  0  0
   30.0821  -26.2415  -18.8254 N   0  0  0  0  0  0  0  0  0  0  0  0
   30.1960  -27.6972  -18.7206 C   0  0  1  0  0  0  0  0  0  0  0  0
   29.2899  -28.0982  -17.5770 C   0  0  0  0  0  0  0  0  0  0  0  0
   29.2120  -29.5651  -17.3824 C   0  0  0  0  0  0  0  0  0  0  0  0
   29.9020  -30.5527  -18.0504 C   0  0  0  0  0  0  0  0  0  0  0  0
   29.4908  -31.7429  -17.5207 N   0  0  0  0  0  0  0  0  0  0  0  0
   28.5803  -31.5121  -16.5599 C   0  0  0  0  0  0  0  0  0  0  0  0
   28.4244  -30.1904  -16.4903 N   0  0  0  0  0  0  0  0  0  0  0  0
   29.7787  -28.3265  -19.9900 C   0  0  0  0  0  0  0  0  0  0  0  0
   30.4651  -29.4194  -20.4701 O   0  0  0  0  0  0  0  0  0  0  0  0
   28.8078  -27.8833  -20.6417 O   0  0  0  0  0  0  0  0  0  0  0  0
  2  1  1  1
  2  3  1  0
  4  3  1  0
  4  9  1  0
  5  4  2  0
  6  5  1  0
  6  7  2  0
  7  8  1  0
  8  9  2  0
 10  2  1  0
 11 10  2  0
 13 12  1  6
 14 13  1  0
 15 13  1  0
 15 16  1  1
 16 10  1  0
 17 15  1  0
 18 17  2  0
 19 17  1  0
 20 21  1  1
 20 19  1  0
 21 22  1  0
 22 26  1  0
 23 22  2  0
 23 24  1  0
 24 25  1  0
 26 25  2  0
 27 20  1  0
 27 28  1  0
 29 27  2  0
M  END
$$$$
