FTH.pdb
     RDKit          3D

 29 30  0  0  1  0  0  0  0  0999 V2000
   19.6597  -13.6844  -16.5095 N   0  0  0  0  0  0  0  0  0  0  0  0
   20.1273  -12.5518  -17.2980 C   0  0  1  0  0  0  0  0  0  0  0  0
   19.2888  -12.5372  -18.5634 C   0  0  0  0  0  0  0  0  0  0  0  0
   19.6463  -13.6792  -19.4522 C   0  0  0  0  0  0  0  0  0  0  0  0
   18.7583  -14.6942  -19.6823 C   0  0  0  0  0  0  0  0  0  0  0  0
   19.1116  -15.7305  -20.5022 C   0  0  0  0  0  0  0  0  0  0  0  0
   20.3689  -15.7735  -21.1131 C   0  0  0  0  0  0  0  0  0  0  0  0
   21.2769  -14.7599  -20.8932 C   0  0  0  0  0  0  0  0  0  0  0  0
   20.8814  -13.7367  -20.0619 C   0  0  0  0  0  0  0  0  0  0  0  0
   19.8922  -11.3290  -16.4891 C   0  0  0  0  0  0  0  0  0  0  0  0
   18.8387  -11.1729  -15.7825 O   0  0  0  0  0  0  0  0  0  0  0  0
   22.0509  -10.0275  -13.8308 C   0  0  0  0  0  0  0  0  0  0  0  0
   21.8473   -8.8521  -14.7633 C   0  0  1  0  0  0  0  0  0  0  0  0
   22.9513   -8.7929  -15.5996 O   0  0  0  0  0  0  0  0  0  0  0  0
   20.6061   -9.0870  -15.6290 C   0  0  2  0  0  0  0  0  0  0  0  0
   20.8181  -10.2510  -16.4439 N   0  0  0  0  0  0  0  0  0  0  0  0
   20.3096   -7.8805  -16.4464 C   0  0  0  0  0  0  0  0  0  0  0  0
   20.9206   -7.7477  -17.5305 O   0  0  0  0  0  0  0  0  0  0  0  0
   19.3835   -6.8906  -16.0625 N   0  0  0  0  0  0  0  0  0  0  0  0
   19.1664   -5.6592  -16.8238 C   0  0  1  0  0  0  0  0  0  0  0  0
   17.6854   -5.6231  -17.1318 C   0  0  0  0  0  0  0  0  0  0  0  0
   17.2775   -4.4176  -17.8908 C   0  0  0  0  0  0  0  0  0  0  0  0
   16.6933   -3.2652  -17.4130 C   0  0  0  0  0  0  0  0  0  0  0  0
   16.5052   -2.4469  -18.4906 N   0  0  0  0  0  0  0  0  0  0  0  0
   16.9527   -3.0603  -19.5992 C   0  0  0  0  0  0  0  0  0  0  0  0
   17.4159   -4.2502  -19.2173 N   0  0  0  0  0  0  0  0  0  0  0  0
   19.5822   -4.4917  -16.0202 C   0  0  0  0  0  0  0  0  0  0  0  0
   19.7438   -4.6206  -14.6588 O   0  0  0  0  0  0  0  0  0  0  0  0
   19.7918   -3.3812  -16.5555 O   0  0  0  0  0  0  0  0  0  0  0  0
  2  1  1  1
  2  3  1  0
  4  3  1  0
  4  9  1  0
  5  4  2  0
  6  5  1  0
  6  7  2  0
  7  8  1  0
  8  9  2  0
 10  2  1  0
 11 10  2  0
 13 12  1  1
 14 13  1  0
 15 13  1  0
 15 16  1  6
 16 10  1  0
 17 15  1  0
 18 17  2  0
 19 17  1  0
 20 21  1  1
 20 19  1  0
 21 22  1  0
 22 26  1  0
 23 22  2  0
 23 24  1  0
 24 25  1  0
 26 25  2  0
 27 20  1  0
 27 28  1  0
 29 27  2  0
M  END
$$$$
