FTH.pdb
     RDKit          3D

 29 30  0  0  1  0  0  0  0  0999 V2000
   28.5797  -21.2262   -9.1313 N   0  0  0  0  0  0  0  0  0  0  0  0
   27.1919  -20.8572   -8.8842 C   0  0  1  0  0  0  0  0  0  0  0  0
   27.2291  -19.6069   -8.0240 C   0  0  0  0  0  0  0  0  0  0  0  0
   27.8054  -19.9016   -6.6812 C   0  0  0  0  0  0  0  0  0  0  0  0
   27.0794  -20.5771   -5.7388 C   0  0  0  0  0  0  0  0  0  0  0  0
   27.6319  -20.8346   -4.5143 C   0  0  0  0  0  0  0  0  0  0  0  0
   28.9309  -20.4191   -4.2049 C   0  0  0  0  0  0  0  0  0  0  0  0
   29.6778  -19.7372   -5.1416 C   0  0  0  0  0  0  0  0  0  0  0  0
   29.0843  -19.4990   -6.3604 C   0  0  0  0  0  0  0  0  0  0  0  0
   26.5721  -20.5773  -10.2042 C   0  0  0  0  0  0  0  0  0  0  0  0
   27.2670  -20.2559  -11.2276 O   0  0  0  0  0  0  0  0  0  0  0  0
   26.5805  -21.4507  -12.7368 C   0  0  0  0  0  0  0  0  0  0  0  0
   25.0668  -21.4503  -12.6984 C   0  0  1  0  0  0  0  0  0  0  0  0
   24.6655  -22.6951  -12.2386 O   0  0  0  0  0  0  0  0  0  0  0  0
   24.5745  -20.3942  -11.7048 C   0  0  2  0  0  0  0  0  0  0  0  0
   25.1688  -20.6466  -10.4215 N   0  0  0  0  0  0  0  0  0  0  0  0
   23.0886  -20.3964  -11.6414 C   0  0  0  0  0  0  0  0  0  0  0  0
   22.5534  -20.1804  -10.5310 O   0  0  0  0  0  0  0  0  0  0  0  0
   22.2637  -20.6277  -12.7600 N   0  0  0  0  0  0  0  0  0  0  0  0
   20.9968  -19.9277  -12.9786 C   0  0  1  0  0  0  0  0  0  0  0  0
   21.3532  -18.4619  -13.0968 C   0  0  0  0  0  0  0  0  0  0  0  0
   20.1889  -17.6033  -13.4178 C   0  0  0  0  0  0  0  0  0  0  0  0
   18.8848  -17.9839  -13.6460 C   0  0  0  0  0  0  0  0  0  0  0  0
   18.1834  -16.8400  -13.9026 N   0  0  0  0  0  0  0  0  0  0  0  0
   19.0130  -15.7849  -13.8383 C   0  0  0  0  0  0  0  0  0  0  0  0
   20.2207  -16.2654  -13.5443 N   0  0  0  0  0  0  0  0  0  0  0  0
   20.3508  -20.4300  -14.2082 C   0  0  0  0  0  0  0  0  0  0  0  0
   21.1217  -20.7589  -15.3008 O   0  0  0  0  0  0  0  0  0  0  0  0
   19.1094  -20.5634  -14.2770 O   0  0  0  0  0  0  0  0  0  0  0  0
  2  1  1  6
  2  3  1  0
  4  3  1  0
  4  9  1  0
  5  4  2  0
  6  5  1  0
  6  7  2  0
  7  8  1  0
  8  9  2  0
 10  2  1  0
 11 10  2  0
 13 12  1  1
 14 13  1  0
 15 13  1  0
 15 16  1  1
 16 10  1  0
 17 15  1  0
 18 17  2  0
 19 17  1  0
 20 21  1  6
 20 19  1  0
 21 22  1  0
 22 26  1  0
 23 22  2  0
 23 24  1  0
 24 25  1  0
 26 25  2  0
 27 20  1  0
 27 28  1  0
 29 27  2  0
M  END
$$$$
