FTH.pdb
     RDKit          3D

 29 30  0  0  1  0  0  0  0  0999 V2000
   31.3230  -22.8809  -15.7099 N   0  0  0  0  0  0  0  0  0  0  0  0
   32.4669  -23.7071  -15.3465 C   0  0  1  0  0  0  0  0  0  0  0  0
   32.0585  -24.4798  -14.1053 C   0  0  0  0  0  0  0  0  0  0  0  0
   32.0791  -23.6018  -12.9008 C   0  0  0  0  0  0  0  0  0  0  0  0
   33.2277  -23.4283  -12.1783 C   0  0  0  0  0  0  0  0  0  0  0  0
   33.2193  -22.6170  -11.0770 C   0  0  0  0  0  0  0  0  0  0  0  0
   32.0540  -21.9579  -10.6729 C   0  0  0  0  0  0  0  0  0  0  0  0
   30.8869  -22.1204  -11.3883 C   0  0  0  0  0  0  0  0  0  0  0  0
   30.9390  -22.9450  -12.4891 C   0  0  0  0  0  0  0  0  0  0  0  0
   32.7227  -24.6252  -16.4853 C   0  0  0  0  0  0  0  0  0  0  0  0
   31.8030  -24.9642  -17.3055 O   0  0  0  0  0  0  0  0  0  0  0  0
   35.4669  -24.1255  -18.9486 C   0  0  0  0  0  0  0  0  0  0  0  0
   35.5696  -25.5797  -18.5397 C   0  0  1  0  0  0  0  0  0  0  0  0
   36.5811  -25.6725  -17.5963 O   0  0  0  0  0  0  0  0  0  0  0  0
   34.2612  -26.0257  -17.8806 C   0  0  2  0  0  0  0  0  0  0  0  0
   34.0024  -25.1888  -16.7420 N   0  0  0  0  0  0  0  0  0  0  0  0
   34.3326  -27.4644  -17.5106 C   0  0  0  0  0  0  0  0  0  0  0  0
   34.2593  -27.7570  -16.2960 O   0  0  0  0  0  0  0  0  0  0  0  0
   34.4772  -28.5024  -18.4522 N   0  0  0  0  0  0  0  0  0  0  0  0
   34.6113  -29.9109  -18.0766 C   0  0  1  0  0  0  0  0  0  0  0  0
   33.3643  -30.2455  -17.2876 C   0  0  0  0  0  0  0  0  0  0  0  0
   33.2446  -31.6882  -16.9714 C   0  0  0  0  0  0  0  0  0  0  0  0
   33.8078  -32.3819  -15.9229 C   0  0  0  0  0  0  0  0  0  0  0  0
   33.4117  -33.6823  -16.0575 N   0  0  0  0  0  0  0  0  0  0  0  0
   32.6321  -33.8002  -17.1454 C   0  0  0  0  0  0  0  0  0  0  0  0
   32.5422  -32.5850  -17.6850 N   0  0  0  0  0  0  0  0  0  0  0  0
   34.7264  -30.7457  -19.2896 C   0  0  0  0  0  0  0  0  0  0  0  0
   35.0629  -32.0760  -19.1753 O   0  0  0  0  0  0  0  0  0  0  0  0
   34.5228  -30.2649  -20.4258 O   0  0  0  0  0  0  0  0  0  0  0  0
  2  1  1  6
  2  3  1  0
  4  3  1  0
  4  9  1  0
  5  4  2  0
  6  5  1  0
  6  7  2  0
  7  8  1  0
  8  9  2  0
 10  2  1  0
 11 10  2  0
 13 12  1  1
 14 13  1  0
 15 13  1  0
 15 16  1  1
 16 10  1  0
 17 15  1  0
 18 17  2  0
 19 17  1  0
 20 21  1  6
 20 19  1  0
 21 22  1  0
 22 26  1  0
 23 22  2  0
 23 24  1  0
 24 25  1  0
 26 25  2  0
 27 20  1  0
 27 28  1  0
 29 27  2  0
M  END
$$$$
