FTH.pdb
     RDKit          3D

 29 30  0  0  1  0  0  0  0  0999 V2000
   23.6882  -16.7584  -18.1647 N   0  0  0  0  0  0  0  0  0  0  0  0
   22.6406  -15.8921  -17.6400 C   0  0  1  0  0  0  0  0  0  0  0  0
   22.4711  -16.2642  -16.1780 C   0  0  0  0  0  0  0  0  0  0  0  0
   21.8633  -17.6183  -16.0404 C   0  0  0  0  0  0  0  0  0  0  0  0
   20.5358  -17.8216  -16.3013 C   0  0  0  0  0  0  0  0  0  0  0  0
   20.0032  -19.0743  -16.1673 C   0  0  0  0  0  0  0  0  0  0  0  0
   20.7925  -20.1571  -15.7668 C   0  0  0  0  0  0  0  0  0  0  0  0
   22.1320  -19.9717  -15.4994 C   0  0  0  0  0  0  0  0  0  0  0  0
   22.6275  -18.6961  -15.6466 C   0  0  0  0  0  0  0  0  0  0  0  0
   23.1182  -14.4932  -17.7816 C   0  0  0  0  0  0  0  0  0  0  0  0
   24.3611  -14.2014  -17.8401 O   0  0  0  0  0  0  0  0  0  0  0  0
   24.6196  -13.0508  -19.3883 C   0  0  0  0  0  0  0  0  0  0  0  0
   23.4498  -12.0964  -19.5027 C   0  0  1  0  0  0  0  0  0  0  0  0
   22.6026  -12.5974  -20.4790 O   0  0  0  0  0  0  0  0  0  0  0  0
   22.6811  -12.0587  -18.1788 C   0  0  2  0  0  0  0  0  0  0  0  0
   22.2306  -13.3855  -17.8618 N   0  0  0  0  0  0  0  0  0  0  0  0
   21.5539  -11.0921  -18.2624 C   0  0  0  0  0  0  0  0  0  0  0  0
   20.3917  -11.5427  -18.1510 O   0  0  0  0  0  0  0  0  0  0  0  0
   21.7303   -9.7082  -18.4591 N   0  0  0  0  0  0  0  0  0  0  0  0
   20.6214   -8.7525  -18.4628 C   0  0  1  0  0  0  0  0  0  0  0  0
   20.0300   -8.8051  -17.0710 C   0  0  0  0  0  0  0  0  0  0  0  0
   18.9371   -7.8259  -16.8652 C   0  0  0  0  0  0  0  0  0  0  0  0
   18.4148   -6.9270  -17.7690 C   0  0  0  0  0  0  0  0  0  0  0  0
   17.4296   -6.2432  -17.1148 N   0  0  0  0  0  0  0  0  0  0  0  0
   17.3372   -6.6941  -15.8524 C   0  0  0  0  0  0  0  0  0  0  0  0
   18.2559   -7.6503  -15.7196 N   0  0  0  0  0  0  0  0  0  0  0  0
   21.1231   -7.4021  -18.7887 C   0  0  0  0  0  0  0  0  0  0  0  0
   20.2481   -6.3397  -18.8346 O   0  0  0  0  0  0  0  0  0  0  0  0
   22.3348   -7.2032  -19.0252 O   0  0  0  0  0  0  0  0  0  0  0  0
  2  1  1  1
  2  3  1  0
  4  3  1  0
  4  9  1  0
  5  4  2  0
  6  5  1  0
  6  7  2  0
  7  8  1  0
  8  9  2  0
 10  2  1  0
 11 10  2  0
 13 12  1  1
 14 13  1  0
 15 13  1  0
 15 16  1  6
 16 10  1  0
 17 15  1  0
 18 17  2  0
 19 17  1  0
 20 21  1  1
 20 19  1  0
 21 22  1  0
 22 26  1  0
 23 22  2  0
 23 24  1  0
 24 25  1  0
 26 25  2  0
 27 20  1  0
 27 28  1  0
 29 27  2  0
M  END
$$$$
