FTH.pdb
     RDKit          3D

 29 30  0  0  1  0  0  0  0  0999 V2000
   28.4464  -21.7328   -9.0360 N   0  0  0  0  0  0  0  0  0  0  0  0
   27.2267  -20.9407   -8.9468 C   0  0  1  0  0  0  0  0  0  0  0  0
   27.6065  -19.6492   -8.2451 C   0  0  0  0  0  0  0  0  0  0  0  0
   27.9921  -19.9066   -6.8283 C   0  0  0  0  0  0  0  0  0  0  0  0
   29.3036  -19.8730   -6.4407 C   0  0  0  0  0  0  0  0  0  0  0  0
   29.6303  -20.1128   -5.1343 C   0  0  0  0  0  0  0  0  0  0  0  0
   28.6452  -20.3932   -4.1819 C   0  0  0  0  0  0  0  0  0  0  0  0
   27.3184  -20.4314   -4.5537 C   0  0  0  0  0  0  0  0  0  0  0  0
   27.0334  -20.1845   -5.8774 C   0  0  0  0  0  0  0  0  0  0  0  0
   26.7729  -20.6784  -10.3361 C   0  0  0  0  0  0  0  0  0  0  0  0
   27.5908  -20.5947  -11.3145 O   0  0  0  0  0  0  0  0  0  0  0  0
   26.8284  -21.7490  -12.8579 C   0  0  0  0  0  0  0  0  0  0  0  0
   25.3249  -21.5711  -12.8404 C   0  0  1  0  0  0  0  0  0  0  0  0
   24.7862  -22.6756  -12.1987 O   0  0  0  0  0  0  0  0  0  0  0  0
   24.9606  -20.3244  -12.0291 C   0  0  2  0  0  0  0  0  0  0  0  0
   25.4031  -20.5027  -10.6740 N   0  0  0  0  0  0  0  0  0  0  0  0
   23.4984  -20.0645  -12.1086 C   0  0  0  0  0  0  0  0  0  0  0  0
   22.7870  -20.4454  -11.1521 O   0  0  0  0  0  0  0  0  0  0  0  0
   22.8827  -19.4168  -13.1979 N   0  0  0  0  0  0  0  0  0  0  0  0
   21.4982  -18.9422  -13.1684 C   0  0  1  0  0  0  0  0  0  0  0  0
   21.3178  -18.1251  -14.4291 C   0  0  0  0  0  0  0  0  0  0  0  0
   19.9565  -17.5557  -14.5645 C   0  0  0  0  0  0  0  0  0  0  0  0
   18.8833  -17.6976  -13.7126 C   0  0  0  0  0  0  0  0  0  0  0  0
   17.8514  -16.9921  -14.2636 N   0  0  0  0  0  0  0  0  0  0  0  0
   18.2599  -16.4305  -15.4139 C   0  0  0  0  0  0  0  0  0  0  0  0
   19.5347  -16.7820  -15.5795 N   0  0  0  0  0  0  0  0  0  0  0  0
   20.5732  -20.0931  -13.1306 C   0  0  0  0  0  0  0  0  0  0  0  0
   19.5030  -20.0826  -12.2643 O   0  0  0  0  0  0  0  0  0  0  0  0
   20.7441  -21.0833  -13.8749 O   0  0  0  0  0  0  0  0  0  0  0  0
  2  1  1  6
  2  3  1  0
  4  3  1  0
  4  9  1  0
  5  4  2  0
  6  5  1  0
  6  7  2  0
  7  8  1  0
  8  9  2  0
 10  2  1  0
 11 10  2  0
 13 12  1  1
 14 13  1  0
 15 13  1  0
 15 16  1  1
 16 10  1  0
 17 15  1  0
 18 17  2  0
 19 17  1  0
 20 21  1  6
 20 19  1  0
 21 22  1  0
 22 26  1  0
 23 22  2  0
 23 24  1  0
 24 25  1  0
 26 25  2  0
 27 20  1  0
 27 28  1  0
 29 27  2  0
M  END
$$$$
