NYV.pdb
     RDKit          3D

 28 28  0  0  1  0  0  0  0  0999 V2000
   11.9688  -17.5267   17.2598 N   0  0  0  0  0  0  0  0  0  0  0  0
   12.4683  -17.3824   18.5780 C   0  0  0  0  0  0  0  0  0  0  0  0
   13.4853  -18.0371   18.9445 O   0  0  0  0  0  0  0  0  0  0  0  0
   11.8412  -16.4867   19.5574 C   0  0  0  0  0  0  0  0  0  0  0  0
   11.4600  -17.2232   20.8340 C   0  0  2  0  0  0  0  0  0  0  0  0
   10.3205  -18.0843   20.5734 N   0  0  0  0  0  0  0  0  0  0  0  0
   11.0849  -16.2724   21.9046 C   0  0  0  0  0  0  0  0  0  0  0  0
   11.8864  -15.3873   22.2545 O   0  0  0  0  0  0  0  0  0  0  0  0
    5.5806  -11.6932   27.1542 O   0  0  0  0  0  0  0  0  0  0  0  0
    6.1203  -12.5870   26.2578 C   0  0  0  0  0  0  0  0  0  0  0  0
    5.9423  -13.9582   26.3607 C   0  0  0  0  0  0  0  0  0  0  0  0
    6.4929  -14.8318   25.4507 C   0  0  0  0  0  0  0  0  0  0  0  0
    7.2510  -14.3752   24.3907 C   0  0  0  0  0  0  0  0  0  0  0  0
    7.8869  -15.2603   23.4031 C   0  0  0  0  0  0  0  0  0  0  0  0
    9.3552  -15.4692   23.5715 C   0  0  2  0  0  0  0  0  0  0  0  0
    9.8083  -16.3995   22.5069 N   0  0  0  0  0  0  0  0  0  0  0  0
    9.7503  -16.0289   24.8984 C   0  0  0  0  0  0  0  0  0  0  0  0
    9.8009  -17.2759   24.9988 O   0  0  0  0  0  0  0  0  0  0  0  0
    7.4150  -12.9854   24.3124 C   0  0  0  0  0  0  0  0  0  0  0  0
    6.8690  -12.1276   25.2124 C   0  0  0  0  0  0  0  0  0  0  0  0
   11.3756  -14.8161   29.5935 C   0  0  0  0  0  0  0  0  0  0  0  0
   10.9333  -14.4682   28.2341 C   0  0  2  0  0  0  0  0  0  0  0  0
    9.8506  -13.4266   28.2311 C   0  0  0  0  0  0  0  0  0  0  0  0
   10.5519  -15.5724   27.2980 C   0  0  2  0  0  0  0  0  0  0  0  0
   10.0624  -15.2423   26.0080 N   0  0  0  0  0  0  0  0  0  0  0  0
    9.8131  -16.6633   27.9548 C   0  0  0  0  0  0  0  0  0  0  0  0
   10.2861  -17.2855   28.9676 O   0  0  0  0  0  0  0  0  0  0  0  0
    8.5695  -17.0756   27.5117 O   0  0  0  0  0  0  0  0  0  0  0  0
  2  1  1  0
  3  2  2  0
  4  5  1  0
  4  2  1  0
  5  7  1  0
  5  6  1  6
  7  8  2  0
  9 10  1  0
 10 11  2  0
 11 12  1  0
 13 12  2  0
 13 14  1  0
 15 14  1  1
 15 17  1  0
 16  7  1  0
 16 15  1  0
 17 25  1  0
 18 17  2  0
 19 13  1  0
 20 10  1  0
 20 19  2  0
 22 21  1  1
 22 23  1  0
 24 26  1  0
 24 22  1  0
 24 25  1  6
 26 28  1  0
 27 26  2  0
M  END
$$$$
