NYV.pdb
     RDKit          3D

 28 28  0  0  1  0  0  0  0  0999 V2000
   12.5069  -19.1635   19.1672 N   0  0  0  0  0  0  0  0  0  0  0  0
   12.9666  -17.8237   19.1239 C   0  0  0  0  0  0  0  0  0  0  0  0
   13.9248  -17.5079   18.3629 O   0  0  0  0  0  0  0  0  0  0  0  0
   12.3652  -16.7646   19.9433 C   0  0  0  0  0  0  0  0  0  0  0  0
   11.2647  -17.3046   20.8460 C   0  0  2  0  0  0  0  0  0  0  0  0
   10.1013  -17.6374   20.0439 N   0  0  0  0  0  0  0  0  0  0  0  0
   10.8593  -16.2966   21.8513 C   0  0  0  0  0  0  0  0  0  0  0  0
   11.5458  -15.2711   22.0106 O   0  0  0  0  0  0  0  0  0  0  0  0
    5.5810  -11.6910   27.2837 O   0  0  0  0  0  0  0  0  0  0  0  0
    6.1459  -12.5775   26.3956 C   0  0  0  0  0  0  0  0  0  0  0  0
    6.9168  -12.1747   25.3159 C   0  0  0  0  0  0  0  0  0  0  0  0
    7.4711  -13.0815   24.4414 C   0  0  0  0  0  0  0  0  0  0  0  0
    7.2804  -14.4394   24.6044 C   0  0  0  0  0  0  0  0  0  0  0  0
    7.8237  -15.4540   23.6887 C   0  0  0  0  0  0  0  0  0  0  0  0
    9.3028  -15.6479   23.7412 C   0  0  2  0  0  0  0  0  0  0  0  0
    9.6869  -16.5319   22.6120 N   0  0  0  0  0  0  0  0  0  0  0  0
    9.8009  -16.2502   25.0136 C   0  0  0  0  0  0  0  0  0  0  0  0
    9.7841  -17.4993   25.0979 O   0  0  0  0  0  0  0  0  0  0  0  0
    6.4965  -14.8174   25.7032 C   0  0  0  0  0  0  0  0  0  0  0  0
    5.9524  -13.9187   26.5636 C   0  0  0  0  0  0  0  0  0  0  0  0
    9.6450  -14.5098   29.2880 C   0  0  0  0  0  0  0  0  0  0  0  0
   10.8132  -14.8104   28.4457 C   0  0  2  0  0  0  0  0  0  0  0  0
   11.4093  -13.5771   27.8286 C   0  0  0  0  0  0  0  0  0  0  0  0
   10.6886  -15.8707   27.3963 C   0  0  2  0  0  0  0  0  0  0  0  0
   10.2776  -15.5006   26.0898 N   0  0  0  0  0  0  0  0  0  0  0  0
   10.0622  -17.1080   27.8903 C   0  0  0  0  0  0  0  0  0  0  0  0
    8.8314  -17.3773   27.6682 O   0  0  0  0  0  0  0  0  0  0  0  0
   10.7691  -18.0445   28.6224 O   0  0  0  0  0  0  0  0  0  0  0  0
  2  1  1  0
  3  2  2  0
  4  5  1  0
  4  2  1  0
  5  7  1  0
  5  6  1  6
  7  8  2  0
  9 10  1  0
 10 11  2  0
 11 12  1  0
 13 12  2  0
 13 14  1  0
 15 14  1  1
 15 17  1  0
 16  7  1  0
 16 15  1  0
 17 25  1  0
 18 17  2  0
 19 13  1  0
 20 10  1  0
 20 19  2  0
 22 21  1  6
 22 23  1  0
 24 26  1  0
 24 22  1  0
 24 25  1  6
 26 28  1  0
 27 26  2  0
M  END
$$$$
