NYV.pdb
     RDKit          3D

 28 28  0  0  1  0  0  0  0  0999 V2000
    9.6895  -18.9261   17.3691 N   0  0  0  0  0  0  0  0  0  0  0  0
   10.3746  -17.6859   17.3449 C   0  0  0  0  0  0  0  0  0  0  0  0
   10.9648  -17.3095   16.2926 O   0  0  0  0  0  0  0  0  0  0  0  0
   10.4302  -16.8011   18.5148 C   0  0  0  0  0  0  0  0  0  0  0  0
    9.8098  -17.4502   19.7442 C   0  0  2  0  0  0  0  0  0  0  0  0
    8.4051  -17.7173   19.4929 N   0  0  0  0  0  0  0  0  0  0  0  0
    9.9067  -16.5589   20.9220 C   0  0  0  0  0  0  0  0  0  0  0  0
   11.0234  -16.1891   21.3276 O   0  0  0  0  0  0  0  0  0  0  0  0
    6.7831  -11.9099   27.8844 O   0  0  0  0  0  0  0  0  0  0  0  0
    6.9255  -12.5941   26.6990 C   0  0  0  0  0  0  0  0  0  0  0  0
    6.3547  -13.8372   26.4729 C   0  0  0  0  0  0  0  0  0  0  0  0
    6.5120  -14.5016   25.2778 C   0  0  0  0  0  0  0  0  0  0  0  0
    7.2507  -13.9535   24.2478 C   0  0  0  0  0  0  0  0  0  0  0  0
    7.4767  -14.6265   22.9598 C   0  0  0  0  0  0  0  0  0  0  0  0
    8.7301  -15.4312   22.8609 C   0  0  2  0  0  0  0  0  0  0  0  0
    8.7103  -16.1478   21.5609 N   0  0  0  0  0  0  0  0  0  0  0  0
    8.9101  -16.4294   23.9568 C   0  0  0  0  0  0  0  0  0  0  0  0
    8.1024  -17.3851   23.9956 O   0  0  0  0  0  0  0  0  0  0  0  0
    7.8166  -12.6972   24.5047 C   0  0  0  0  0  0  0  0  0  0  0  0
    7.6576  -12.0454   25.6854 C   0  0  0  0  0  0  0  0  0  0  0  0
   12.8756  -17.1593   25.9293 C   0  0  0  0  0  0  0  0  0  0  0  0
   11.6376  -17.9462   25.8172 C   0  0  2  0  0  0  0  0  0  0  0  0
   11.6138  -18.8078   24.5866 C   0  0  0  0  0  0  0  0  0  0  0  0
   10.3236  -17.2404   25.9451 C   0  0  2  0  0  0  0  0  0  0  0  0
    9.9185  -16.3494   24.9182 N   0  0  0  0  0  0  0  0  0  0  0  0
   10.0606  -16.7418   27.3052 C   0  0  0  0  0  0  0  0  0  0  0  0
   10.1084  -17.5097   28.3272 O   0  0  0  0  0  0  0  0  0  0  0  0
    9.7457  -15.4178   27.5512 O   0  0  0  0  0  0  0  0  0  0  0  0
  2  1  1  0
  3  2  2  0
  4  5  1  0
  4  2  1  0
  5  7  1  0
  5  6  1  6
  7  8  2  0
  9 10  1  0
 10 11  2  0
 11 12  1  0
 13 12  2  0
 13 14  1  0
 15 14  1  1
 15 17  1  0
 16  7  1  0
 16 15  1  0
 17 25  1  0
 18 17  2  0
 19 13  1  0
 20 10  1  0
 20 19  2  0
 22 21  1  6
 22 23  1  0
 24 26  1  0
 24 22  1  0
 24 25  1  6
 26 28  1  0
 27 26  2  0
M  END
$$$$
