NYV.pdb
     RDKit          3D

 28 28  0  0  1  0  0  0  0  0999 V2000
   12.1752  -19.9104   19.6747 N   0  0  0  0  0  0  0  0  0  0  0  0
   13.0243  -18.7994   19.9048 C   0  0  0  0  0  0  0  0  0  0  0  0
   14.1049  -18.6846   19.2594 O   0  0  0  0  0  0  0  0  0  0  0  0
   12.6961  -17.7544   20.8820 C   0  0  0  0  0  0  0  0  0  0  0  0
   11.2410  -17.3195   20.7770 C   0  0  2  0  0  0  0  0  0  0  0  0
   11.0187  -16.6809   19.4923 N   0  0  0  0  0  0  0  0  0  0  0  0
   10.8982  -16.3487   21.8406 C   0  0  0  0  0  0  0  0  0  0  0  0
   11.6075  -15.3405   22.0097 O   0  0  0  0  0  0  0  0  0  0  0  0
    5.4811  -11.8256   27.2401 O   0  0  0  0  0  0  0  0  0  0  0  0
    6.0879  -12.6559   26.3258 C   0  0  0  0  0  0  0  0  0  0  0  0
    6.9236  -12.1896   25.3226 C   0  0  0  0  0  0  0  0  0  0  0  0
    7.5188  -13.0410   24.4196 C   0  0  0  0  0  0  0  0  0  0  0  0
    7.3060  -14.4042   24.4760 C   0  0  0  0  0  0  0  0  0  0  0  0
    7.8916  -15.3601   23.5239 C   0  0  0  0  0  0  0  0  0  0  0  0
    9.3413  -15.6594   23.7158 C   0  0  2  0  0  0  0  0  0  0  0  0
    9.7584  -16.5991   22.6447 N   0  0  0  0  0  0  0  0  0  0  0  0
    9.6765  -16.2618   25.0404 C   0  0  0  0  0  0  0  0  0  0  0  0
    9.4859  -17.4922   25.1717 O   0  0  0  0  0  0  0  0  0  0  0  0
    6.4565  -14.8469   25.4992 C   0  0  0  0  0  0  0  0  0  0  0  0
    5.8722  -14.0028   26.3881 C   0  0  0  0  0  0  0  0  0  0  0  0
    9.3940  -14.2727   29.1116 C   0  0  0  0  0  0  0  0  0  0  0  0
   10.6104  -14.8141   28.4858 C   0  0  2  0  0  0  0  0  0  0  0  0
   11.5076  -13.7364   27.9465 C   0  0  0  0  0  0  0  0  0  0  0  0
   10.4702  -15.8932   27.4577 C   0  0  2  0  0  0  0  0  0  0  0  0
   10.1850  -15.5320   26.1157 N   0  0  0  0  0  0  0  0  0  0  0  0
    9.7077  -17.0580   27.9366 C   0  0  0  0  0  0  0  0  0  0  0  0
    8.5184  -17.2996   27.5319 O   0  0  0  0  0  0  0  0  0  0  0  0
   10.2345  -17.9523   28.8506 O   0  0  0  0  0  0  0  0  0  0  0  0
  2  1  1  0
  3  2  2  0
  4  5  1  0
  4  2  1  0
  5  7  1  0
  5  6  1  6
  7  8  2  0
  9 10  1  0
 10 11  2  0
 11 12  1  0
 13 12  2  0
 13 14  1  0
 15 14  1  1
 15 17  1  0
 16  7  1  0
 16 15  1  0
 17 25  1  0
 18 17  2  0
 19 13  1  0
 20 10  1  0
 20 19  2  0
 22 21  1  6
 22 23  1  0
 24 26  1  0
 24 22  1  0
 24 25  1  6
 26 28  1  0
 27 26  2  0
M  END
$$$$
