NYV.pdb
     RDKit          3D

 28 28  0  0  1  0  0  0  0  0999 V2000
   13.0343  -18.8420   18.6433 N   0  0  0  0  0  0  0  0  0  0  0  0
   11.6828  -18.5728   18.9735 C   0  0  0  0  0  0  0  0  0  0  0  0
   10.7719  -19.3703   18.6109 O   0  0  0  0  0  0  0  0  0  0  0  0
   11.2868  -17.3814   19.7341 C   0  0  0  0  0  0  0  0  0  0  0  0
   10.8601  -17.7324   21.1525 C   0  0  2  0  0  0  0  0  0  0  0  0
    9.6351  -18.5104   21.1103 N   0  0  0  0  0  0  0  0  0  0  0  0
   10.6040  -16.5109   21.9484 C   0  0  0  0  0  0  0  0  0  0  0  0
   11.4364  -15.5860   21.9470 O   0  0  0  0  0  0  0  0  0  0  0  0
    5.6043  -11.1042   27.1171 O   0  0  0  0  0  0  0  0  0  0  0  0
    6.1277  -12.1047   26.3305 C   0  0  0  0  0  0  0  0  0  0  0  0
    6.9132  -11.8542   25.2158 C   0  0  0  0  0  0  0  0  0  0  0  0
    7.4252  -12.8730   24.4449 C   0  0  0  0  0  0  0  0  0  0  0  0
    7.1750  -14.1959   24.7519 C   0  0  0  0  0  0  0  0  0  0  0  0
    7.6711  -15.3257   23.9514 C   0  0  0  0  0  0  0  0  0  0  0  0
    9.1162  -15.2720   23.5815 C   0  0  2  0  0  0  0  0  0  0  0  0
    9.4037  -16.4297   22.6976 N   0  0  0  0  0  0  0  0  0  0  0  0
   10.0523  -15.3113   24.7443 C   0  0  0  0  0  0  0  0  0  0  0  0
   10.9392  -14.4289   24.7921 O   0  0  0  0  0  0  0  0  0  0  0  0
    6.3776  -14.4192   25.8828 C   0  0  0  0  0  0  0  0  0  0  0  0
    5.8756  -13.4104   26.6406 C   0  0  0  0  0  0  0  0  0  0  0  0
   10.1307  -13.7747   27.6133 C   0  0  0  0  0  0  0  0  0  0  0  0
    9.9712  -15.1778   28.0261 C   0  0  2  0  0  0  0  0  0  0  0  0
   10.5147  -15.4370   29.4026 C   0  0  0  0  0  0  0  0  0  0  0  0
   10.4445  -16.2567   27.1026 C   0  0  2  0  0  0  0  0  0  0  0  0
    9.9836  -16.2649   25.7608 N   0  0  0  0  0  0  0  0  0  0  0  0
   10.4758  -17.5880   27.7303 C   0  0  0  0  0  0  0  0  0  0  0  0
    9.7101  -18.5363   27.3418 O   0  0  0  0  0  0  0  0  0  0  0  0
   11.3326  -17.8848   28.7747 O   0  0  0  0  0  0  0  0  0  0  0  0
  2  1  1  0
  3  2  2  0
  4  5  1  0
  4  2  1  0
  5  7  1  0
  5  6  1  6
  7  8  2  0
  9 10  1  0
 10 11  2  0
 11 12  1  0
 13 12  2  0
 13 14  1  0
 15 14  1  1
 15 17  1  0
 16  7  1  0
 16 15  1  0
 17 25  1  0
 18 17  2  0
 19 13  1  0
 20 10  1  0
 20 19  2  0
 22 21  1  6
 22 23  1  0
 24 26  1  0
 24 22  1  0
 24 25  1  6
 26 28  1  0
 27 26  2  0
M  END
$$$$
