NYV.pdb
     RDKit          3D

 28 28  0  0  1  0  0  0  0  0999 V2000
   13.0940  -15.4134   13.7783 N   0  0  0  0  0  0  0  0  0  0  0  0
   11.9666  -15.4738   14.6347 C   0  0  0  0  0  0  0  0  0  0  0  0
   10.8850  -15.9809   14.2221 O   0  0  0  0  0  0  0  0  0  0  0  0
   12.0017  -14.9610   16.0097 C   0  0  0  0  0  0  0  0  0  0  0  0
   12.2513  -16.0714   17.0207 C   0  0  2  0  0  0  0  0  0  0  0  0
   11.1631  -17.0307   16.9637 N   0  0  0  0  0  0  0  0  0  0  0  0
   12.3191  -15.5315   18.3973 C   0  0  0  0  0  0  0  0  0  0  0  0
   13.1686  -14.6680   18.6819 O   0  0  0  0  0  0  0  0  0  0  0  0
    6.5419  -12.0929   18.1515 O   0  0  0  0  0  0  0  0  0  0  0  0
    7.3605  -12.9335   18.8704 C   0  0  0  0  0  0  0  0  0  0  0  0
    7.2999  -14.3148   18.7671 C   0  0  0  0  0  0  0  0  0  0  0  0
    8.1302  -15.1343   19.4975 C   0  0  0  0  0  0  0  0  0  0  0  0
    9.0638  -14.6106   20.3698 C   0  0  0  0  0  0  0  0  0  0  0  0
    9.9586  -15.4347   21.1964 C   0  0  0  0  0  0  0  0  0  0  0  0
   11.3818  -15.4925   20.7501 C   0  0  2  0  0  0  0  0  0  0  0  0
   11.4034  -16.0199   19.3625 N   0  0  0  0  0  0  0  0  0  0  0  0
   12.2611  -16.3470   21.6024 C   0  0  0  0  0  0  0  0  0  0  0  0
   12.1413  -17.5874   21.4810 O   0  0  0  0  0  0  0  0  0  0  0  0
    9.1019  -13.2120   20.4546 C   0  0  0  0  0  0  0  0  0  0  0  0
    8.2810  -12.4078   19.7311 C   0  0  0  0  0  0  0  0  0  0  0  0
   16.1625  -14.8823   23.5141 C   0  0  0  0  0  0  0  0  0  0  0  0
   15.6181  -16.1758   23.0726 C   0  0  2  0  0  0  0  0  0  0  0  0
   15.9409  -16.4748   21.6361 C   0  0  0  0  0  0  0  0  0  0  0  0
   14.1708  -16.4681   23.3193 C   0  0  2  0  0  0  0  0  0  0  0  0
   13.1934  -15.8373   22.5071 N   0  0  0  0  0  0  0  0  0  0  0  0
   13.8209  -16.5107   24.7487 C   0  0  0  0  0  0  0  0  0  0  0  0
   12.8780  -15.7958   25.2350 O   0  0  0  0  0  0  0  0  0  0  0  0
   14.4934  -17.3235   25.6430 O   0  0  0  0  0  0  0  0  0  0  0  0
  2  1  1  0
  3  2  2  0
  4  5  1  0
  4  2  1  0
  5  7  1  0
  5  6  1  1
  7  8  2  0
  9 10  1  0
 10 11  2  0
 11 12  1  0
 13 12  2  0
 13 14  1  0
 15 14  1  1
 15 17  1  0
 16  7  1  0
 16 15  1  0
 17 25  1  0
 18 17  2  0
 19 13  1  0
 20 10  1  0
 20 19  2  0
 22 21  1  6
 22 23  1  0
 24 26  1  0
 24 22  1  0
 24 25  1  6
 26 28  1  0
 27 26  2  0
M  END
$$$$
