NYV.pdb
     RDKit          3D

 28 28  0  0  1  0  0  0  0  0999 V2000
    8.2951  -17.8321   18.4087 N   0  0  0  0  0  0  0  0  0  0  0  0
    7.3638  -16.8135   18.7296 C   0  0  0  0  0  0  0  0  0  0  0  0
    6.9829  -16.0011   17.8396 O   0  0  0  0  0  0  0  0  0  0  0  0
    6.8113  -16.6575   20.0806 C   0  0  0  0  0  0  0  0  0  0  0  0
    7.4913  -17.5834   21.0796 C   0  0  2  0  0  0  0  0  0  0  0  0
    7.0554  -18.9486   20.8476 N   0  0  0  0  0  0  0  0  0  0  0  0
    7.1392  -17.2163   22.4696 C   0  0  0  0  0  0  0  0  0  0  0  0
    5.9515  -16.9983   22.7699 O   0  0  0  0  0  0  0  0  0  0  0  0
    5.5671  -22.8384   25.5110 O   0  0  0  0  0  0  0  0  0  0  0  0
    6.2813  -21.6622   25.5173 C   0  0  0  0  0  0  0  0  0  0  0  0
    7.3107  -21.4007   24.6261 C   0  0  0  0  0  0  0  0  0  0  0  0
    8.0104  -20.2157   24.6530 C   0  0  0  0  0  0  0  0  0  0  0  0
    7.7140  -19.2320   25.5757 C   0  0  0  0  0  0  0  0  0  0  0  0
    8.4432  -17.9583   25.6710 C   0  0  0  0  0  0  0  0  0  0  0  0
    7.8924  -16.8344   24.8576 C   0  0  2  0  0  0  0  0  0  0  0  0
    8.1777  -17.1228   23.4295 N   0  0  0  0  0  0  0  0  0  0  0  0
    8.4543  -15.4935   25.1983 C   0  0  0  0  0  0  0  0  0  0  0  0
    9.6899  -15.3424   25.0642 O   0  0  0  0  0  0  0  0  0  0  0  0
    6.6701  -19.5240   26.4642 C   0  0  0  0  0  0  0  0  0  0  0  0
    5.9823  -20.6945   26.4330 C   0  0  0  0  0  0  0  0  0  0  0  0
    6.0268  -12.1103   27.4797 C   0  0  0  0  0  0  0  0  0  0  0  0
    7.0256  -12.1160   26.3995 C   0  0  2  0  0  0  0  0  0  0  0  0
    6.4048  -11.9454   25.0420 C   0  0  0  0  0  0  0  0  0  0  0  0
    8.0193  -13.2344   26.3455 C   0  0  2  0  0  0  0  0  0  0  0  0
    7.6811  -14.4220   25.6470 N   0  0  0  0  0  0  0  0  0  0  0  0
    8.6996  -13.4711   27.6295 C   0  0  0  0  0  0  0  0  0  0  0  0
    8.7079  -14.6223   28.1874 O   0  0  0  0  0  0  0  0  0  0  0  0
    9.3642  -12.4622   28.3027 O   0  0  0  0  0  0  0  0  0  0  0  0
  2  1  1  0
  3  2  2  0
  4  5  1  0
  4  2  1  0
  5  7  1  0
  5  6  1  6
  7  8  2  0
  9 10  1  0
 10 11  2  0
 11 12  1  0
 13 12  2  0
 13 14  1  0
 15 14  1  1
 15 17  1  0
 16  7  1  0
 16 15  1  0
 17 25  1  0
 18 17  2  0
 19 13  1  0
 20 10  1  0
 20 19  2  0
 22 21  1  1
 22 23  1  0
 24 26  1  0
 24 22  1  0
 24 25  1  1
 26 28  1  0
 27 26  2  0
M  END
$$$$
