NYV.pdb
     RDKit          3D

 28 28  0  0  1  0  0  0  0  0999 V2000
   12.7630  -19.7032   19.5844 N   0  0  0  0  0  0  0  0  0  0  0  0
   13.1181  -18.3626   19.2934 C   0  0  0  0  0  0  0  0  0  0  0  0
   13.8101  -18.0994   18.2690 O   0  0  0  0  0  0  0  0  0  0  0  0
   12.7088  -17.2425   20.1493 C   0  0  0  0  0  0  0  0  0  0  0  0
   11.2361  -17.3275   20.5254 C   0  0  2  0  0  0  0  0  0  0  0  0
   10.4220  -17.1112   19.3430 N   0  0  0  0  0  0  0  0  0  0  0  0
   10.8822  -16.2946   21.5248 C   0  0  0  0  0  0  0  0  0  0  0  0
   11.5259  -15.2307   21.5694 O   0  0  0  0  0  0  0  0  0  0  0  0
    5.5144  -11.7224   26.9378 O   0  0  0  0  0  0  0  0  0  0  0  0
    6.1214  -12.5743   26.0437 C   0  0  0  0  0  0  0  0  0  0  0  0
    6.9449  -12.1310   25.0202 C   0  0  0  0  0  0  0  0  0  0  0  0
    7.5406  -13.0039   24.1383 C   0  0  0  0  0  0  0  0  0  0  0  0
    7.3405  -14.3666   24.2372 C   0  0  0  0  0  0  0  0  0  0  0  0
    7.9270  -15.3454   23.3093 C   0  0  0  0  0  0  0  0  0  0  0  0
    9.3977  -15.5632   23.4424 C   0  0  2  0  0  0  0  0  0  0  0  0
    9.8074  -16.5508   22.4124 N   0  0  0  0  0  0  0  0  0  0  0  0
    9.8286  -16.0606   24.7828 C   0  0  0  0  0  0  0  0  0  0  0  0
    9.8469  -17.3010   24.9517 O   0  0  0  0  0  0  0  0  0  0  0  0
    6.5031  -14.7858   25.2800 C   0  0  0  0  0  0  0  0  0  0  0  0
    5.9183  -13.9206   26.1480 C   0  0  0  0  0  0  0  0  0  0  0  0
   11.4228  -14.6423   29.4309 C   0  0  0  0  0  0  0  0  0  0  0  0
   10.8533  -14.3621   28.1037 C   0  0  2  0  0  0  0  0  0  0  0  0
    9.5773  -13.5727   28.1809 C   0  0  0  0  0  0  0  0  0  0  0  0
   10.6678  -15.4985   27.1470 C   0  0  2  0  0  0  0  0  0  0  0  0
   10.2072  -15.2238   25.8335 N   0  0  0  0  0  0  0  0  0  0  0  0
   10.0440  -16.6816   27.7622 C   0  0  0  0  0  0  0  0  0  0  0  0
    8.8074  -16.9602   27.5894 O   0  0  0  0  0  0  0  0  0  0  0  0
   10.7600  -17.5543   28.5615 O   0  0  0  0  0  0  0  0  0  0  0  0
  2  1  1  0
  3  2  2  0
  4  5  1  0
  4  2  1  0
  5  7  1  0
  5  6  1  6
  7  8  2  0
  9 10  1  0
 10 11  2  0
 11 12  1  0
 13 12  2  0
 13 14  1  0
 15 14  1  1
 15 17  1  0
 16  7  1  0
 16 15  1  0
 17 25  1  0
 18 17  2  0
 19 13  1  0
 20 10  1  0
 20 19  2  0
 22 21  1  1
 22 23  1  0
 24 26  1  0
 24 22  1  0
 24 25  1  6
 26 28  1  0
 27 26  2  0
M  END
$$$$
