NYV.pdb
     RDKit          3D

 28 28  0  0  1  0  0  0  0  0999 V2000
   11.6865  -17.3367   17.4686 N   0  0  0  0  0  0  0  0  0  0  0  0
   12.3112  -17.5492   18.7226 C   0  0  0  0  0  0  0  0  0  0  0  0
   13.0846  -18.5355   18.8852 O   0  0  0  0  0  0  0  0  0  0  0  0
   12.0932  -16.6544   19.8656 C   0  0  0  0  0  0  0  0  0  0  0  0
   11.4320  -17.3770   21.0310 C   0  0  2  0  0  0  0  0  0  0  0  0
   10.2190  -18.0283   20.5704 N   0  0  0  0  0  0  0  0  0  0  0  0
   11.0665  -16.4280   22.1066 C   0  0  0  0  0  0  0  0  0  0  0  0
   11.8961  -15.5871   22.4978 O   0  0  0  0  0  0  0  0  0  0  0  0
    5.7418  -11.3490   26.9909 O   0  0  0  0  0  0  0  0  0  0  0  0
    6.2369  -12.3419   26.1769 C   0  0  0  0  0  0  0  0  0  0  0  0
    6.0126  -13.6900   26.4104 C   0  0  0  0  0  0  0  0  0  0  0  0
    6.5192  -14.6644   25.5808 C   0  0  0  0  0  0  0  0  0  0  0  0
    7.2777  -14.3370   24.4743 C   0  0  0  0  0  0  0  0  0  0  0  0
    7.8680  -15.3332   23.5676 C   0  0  0  0  0  0  0  0  0  0  0  0
    9.3286  -15.5851   23.7451 C   0  0  2  0  0  0  0  0  0  0  0  0
    9.7667  -16.5059   22.6660 N   0  0  0  0  0  0  0  0  0  0  0  0
    9.6957  -16.1817   25.0639 C   0  0  0  0  0  0  0  0  0  0  0  0
    9.5693  -17.4215   25.1836 O   0  0  0  0  0  0  0  0  0  0  0  0
    7.4891  -12.9675   24.2636 C   0  0  0  0  0  0  0  0  0  0  0  0
    6.9864  -12.0098   25.0847 C   0  0  0  0  0  0  0  0  0  0  0  0
    9.3564  -14.4112   29.2340 C   0  0  0  0  0  0  0  0  0  0  0  0
   10.5986  -14.7596   28.5267 C   0  0  2  0  0  0  0  0  0  0  0  0
   11.3136  -13.5512   27.9920 C   0  0  0  0  0  0  0  0  0  0  0  0
   10.5481  -15.8092   27.4605 C   0  0  2  0  0  0  0  0  0  0  0  0
   10.1664  -15.4366   26.1459 N   0  0  0  0  0  0  0  0  0  0  0  0
    9.9527  -17.0755   27.9179 C   0  0  0  0  0  0  0  0  0  0  0  0
   10.5725  -17.8663   28.7098 O   0  0  0  0  0  0  0  0  0  0  0  0
    8.6928  -17.4796   27.5150 O   0  0  0  0  0  0  0  0  0  0  0  0
  2  1  1  0
  3  2  2  0
  4  5  1  0
  4  2  1  0
  5  7  1  0
  5  6  1  6
  7  8  2  0
  9 10  1  0
 10 11  2  0
 11 12  1  0
 13 12  2  0
 13 14  1  0
 15 14  1  1
 15 17  1  0
 16  7  1  0
 16 15  1  0
 17 25  1  0
 18 17  2  0
 19 13  1  0
 20 10  1  0
 20 19  2  0
 22 21  1  6
 22 23  1  0
 24 26  1  0
 24 22  1  0
 24 25  1  6
 26 28  1  0
 27 26  2  0
M  END
$$$$
