NYV.pdb
     RDKit          3D

 28 28  0  0  1  0  0  0  0  0999 V2000
    7.5699  -13.8748   16.3173 N   0  0  0  0  0  0  0  0  0  0  0  0
    8.3686  -14.8188   17.0095 C   0  0  0  0  0  0  0  0  0  0  0  0
    8.6833  -15.9095   16.4541 O   0  0  0  0  0  0  0  0  0  0  0  0
    8.8558  -14.5793   18.3733 C   0  0  0  0  0  0  0  0  0  0  0  0
    8.6551  -15.7954   19.2667 C   0  0  2  0  0  0  0  0  0  0  0  0
    7.2621  -16.2019   19.2242 N   0  0  0  0  0  0  0  0  0  0  0  0
    9.0031  -15.4861   20.6718 C   0  0  0  0  0  0  0  0  0  0  0  0
   10.0705  -14.9011   20.9303 O   0  0  0  0  0  0  0  0  0  0  0  0
    7.0951  -11.3131   27.8433 O   0  0  0  0  0  0  0  0  0  0  0  0
    7.0748  -12.2882   26.8726 C   0  0  0  0  0  0  0  0  0  0  0  0
    7.2981  -13.6290   27.1462 C   0  0  0  0  0  0  0  0  0  0  0  0
    7.2725  -14.5856   26.1569 C   0  0  0  0  0  0  0  0  0  0  0  0
    7.0223  -14.2467   24.8419 C   0  0  0  0  0  0  0  0  0  0  0  0
    7.0091  -15.2190   23.7385 C   0  0  0  0  0  0  0  0  0  0  0  0
    8.3339  -15.5083   23.1146 C   0  0  2  0  0  0  0  0  0  0  0  0
    8.0994  -15.8699   21.6939 N   0  0  0  0  0  0  0  0  0  0  0  0
    9.0970  -16.6113   23.7711 C   0  0  0  0  0  0  0  0  0  0  0  0
    8.4978  -17.6978   23.9388 O   0  0  0  0  0  0  0  0  0  0  0  0
    6.8013  -12.8848   24.5947 C   0  0  0  0  0  0  0  0  0  0  0  0
    6.8268  -11.9449   25.5745 C   0  0  0  0  0  0  0  0  0  0  0  0
   13.4330  -16.6105   23.8758 C   0  0  0  0  0  0  0  0  0  0  0  0
   12.7082  -17.0260   25.0868 C   0  0  2  0  0  0  0  0  0  0  0  0
   13.3956  -18.1486   25.8110 C   0  0  0  0  0  0  0  0  0  0  0  0
   11.2475  -17.3357   24.9791 C   0  0  2  0  0  0  0  0  0  0  0  0
   10.4211  -16.4905   24.1948 N   0  0  0  0  0  0  0  0  0  0  0  0
   10.6425  -17.7407   26.2587 C   0  0  0  0  0  0  0  0  0  0  0  0
   10.1591  -16.8853   27.0781 O   0  0  0  0  0  0  0  0  0  0  0  0
   10.5658  -19.0664   26.6450 O   0  0  0  0  0  0  0  0  0  0  0  0
  2  1  1  0
  3  2  2  0
  4  5  1  0
  4  2  1  0
  5  7  1  0
  5  6  1  1
  7  8  2  0
  9 10  1  0
 10 11  2  0
 11 12  1  0
 13 12  2  0
 13 14  1  0
 15 14  1  1
 15 17  1  0
 16  7  1  0
 16 15  1  0
 17 25  1  0
 18 17  2  0
 19 13  1  0
 20 10  1  0
 20 19  2  0
 22 21  1  6
 22 23  1  0
 24 26  1  0
 24 22  1  0
 24 25  1  1
 26 28  1  0
 27 26  2  0
M  END
$$$$
