NYV.pdb
     RDKit          3D

 28 28  0  0  1  0  0  0  0  0999 V2000
   11.2743  -17.8205   17.7049 N   0  0  0  0  0  0  0  0  0  0  0  0
   10.1621  -17.1187   18.2328 C   0  0  0  0  0  0  0  0  0  0  0  0
   10.1181  -15.8576   18.1621 O   0  0  0  0  0  0  0  0  0  0  0  0
    9.0354  -17.8083   18.8728 C   0  0  0  0  0  0  0  0  0  0  0  0
    9.4805  -18.6117   20.0869 C   0  0  2  0  0  0  0  0  0  0  0  0
    8.4033  -19.4896   20.5070 N   0  0  0  0  0  0  0  0  0  0  0  0
    9.8181  -17.7205   21.2195 C   0  0  0  0  0  0  0  0  0  0  0  0
   10.9902  -17.3321   21.3728 O   0  0  0  0  0  0  0  0  0  0  0  0
    7.7526  -11.8735   18.9211 O   0  0  0  0  0  0  0  0  0  0  0  0
    7.7825  -12.7562   19.9763 C   0  0  0  0  0  0  0  0  0  0  0  0
    6.8464  -13.7655   20.1416 C   0  0  0  0  0  0  0  0  0  0  0  0
    6.8981  -14.6361   21.2064 C   0  0  0  0  0  0  0  0  0  0  0  0
    7.8913  -14.5390   22.1608 C   0  0  0  0  0  0  0  0  0  0  0  0
    7.9830  -15.4216   23.3337 C   0  0  0  0  0  0  0  0  0  0  0  0
    9.0526  -16.4613   23.2796 C   0  0  2  0  0  0  0  0  0  0  0  0
    8.7839  -17.3311   22.1068 N   0  0  0  0  0  0  0  0  0  0  0  0
    9.1439  -17.3162   24.5006 C   0  0  0  0  0  0  0  0  0  0  0  0
    8.1382  -18.0023   24.7925 O   0  0  0  0  0  0  0  0  0  0  0  0
    8.8228  -13.5094   21.9689 C   0  0  0  0  0  0  0  0  0  0  0  0
    8.7678  -12.6534   20.9161 C   0  0  0  0  0  0  0  0  0  0  0  0
   13.1523  -18.5090   26.3554 C   0  0  0  0  0  0  0  0  0  0  0  0
   11.8157  -19.1195   26.2831 C   0  0  2  0  0  0  0  0  0  0  0  0
   11.6548  -20.0099   25.0837 C   0  0  0  0  0  0  0  0  0  0  0  0
   10.6142  -18.2341   26.3993 C   0  0  2  0  0  0  0  0  0  0  0  0
   10.2765  -17.3866   25.3127 N   0  0  0  0  0  0  0  0  0  0  0  0
   10.4902  -17.5911   27.7178 C   0  0  0  0  0  0  0  0  0  0  0  0
   10.3657  -16.3240   27.8425 O   0  0  0  0  0  0  0  0  0  0  0  0
   10.5036  -18.3212   28.8924 O   0  0  0  0  0  0  0  0  0  0  0  0
  2  1  1  0
  3  2  2  0
  4  5  1  0
  4  2  1  0
  5  7  1  0
  5  6  1  1
  7  8  2  0
  9 10  1  0
 10 11  2  0
 11 12  1  0
 13 12  2  0
 13 14  1  0
 15 14  1  1
 15 17  1  0
 16  7  1  0
 16 15  1  0
 17 25  1  0
 18 17  2  0
 19 13  1  0
 20 10  1  0
 20 19  2  0
 22 21  1  6
 22 23  1  0
 24 26  1  0
 24 22  1  0
 24 25  1  6
 26 28  1  0
 27 26  2  0
M  END
$$$$
