NWM.pdb
     RDKit          3D

 31 32  0  0  1  0  0  0  0  0999 V2000
    9.5100  -16.4786   15.6442 N   0  0  0  0  0  0  0  0  0  0  0  0
   10.3367  -16.7353   16.7788 C   0  0  0  0  0  0  0  0  0  0  0  0
   11.2374  -17.5789   16.6327 O   0  0  0  0  0  0  0  0  0  0  0  0
   10.0818  -16.0056   18.0232 C   0  0  0  0  0  0  0  0  0  0  0  0
   10.3549  -16.8117   19.2781 C   0  0  2  0  0  0  0  0  0  0  0  0
    9.5373  -18.0457   19.1782 N   0  0  0  0  0  0  0  0  0  0  0  0
    9.9507  -16.1347   20.5265 C   0  0  0  0  0  0  0  0  0  0  0  0
   10.3611  -14.9608   20.7542 O   0  0  0  0  0  0  0  0  0  0  0  0
    9.1106  -16.7482   21.4868 N   0  0  0  0  0  0  0  0  0  0  0  0
    8.7594  -16.1308   22.7485 C   0  0  1  0  0  0  0  0  0  0  0  0
    7.4316  -16.6076   23.2512 C   0  0  0  0  0  0  0  0  0  0  0  0
    6.7487  -15.7055   24.1908 C   0  0  0  0  0  0  0  0  0  0  0  0
    5.6664  -16.1137   25.0051 C   0  0  0  0  0  0  0  0  0  0  0  0
    5.2672  -15.0954   25.7785 N   0  0  0  0  0  0  0  0  0  0  0  0
    6.0237  -14.0341   25.5216 C   0  0  0  0  0  0  0  0  0  0  0  0
    5.9861  -12.7556   26.0588 C   0  0  0  0  0  0  0  0  0  0  0  0
    6.9085  -11.8495   25.5738 C   0  0  0  0  0  0  0  0  0  0  0  0
    7.8219  -12.1856   24.6081 C   0  0  0  0  0  0  0  0  0  0  0  0
    7.8252  -13.4682   24.1007 C   0  0  0  0  0  0  0  0  0  0  0  0
    6.9419  -14.4002   24.5417 C   0  0  0  0  0  0  0  0  0  0  0  0
    9.8066  -16.2924   23.7379 C   0  0  0  0  0  0  0  0  0  0  0  0
   10.7907  -17.0422   23.5905 O   0  0  0  0  0  0  0  0  0  0  0  0
   10.4619  -15.6563   31.2594 C   0  0  0  0  0  0  0  0  0  0  0  0
   10.5721  -14.4564   29.9137 S   0  0  0  0  0  0  0  0  0  0  0  0
   11.2187  -15.1807   28.4032 C   0  0  0  0  0  0  0  0  0  0  0  0
   10.2645  -14.9894   27.2468 C   0  0  0  0  0  0  0  0  0  0  0  0
   10.7622  -15.7587   26.0101 C   0  0  2  0  0  0  0  0  0  0  0  0
    9.7655  -15.5624   24.9790 N   0  0  0  0  0  0  0  0  0  0  0  0
   10.9565  -17.1704   26.3834 C   0  0  0  0  0  0  0  0  0  0  0  0
   12.1175  -17.5956   26.5912 O   0  0  0  0  0  0  0  0  0  0  0  0
    9.8670  -18.0171   26.5055 O   0  0  0  0  0  0  0  0  0  0  0  0
  2  3  2  0
  2  1  1  0
  4  2  1  0
  5  4  1  0
  5  6  1  6
  7  5  1  0
  7  8  2  0
  9  7  1  0
 10  9  1  0
 10 11  1  1
 11 12  1  0
 12 13  2  0
 12 20  1  0
 13 14  1  0
 14 15  1  0
 15 16  2  0
 16 17  1  0
 18 17  2  0
 19 18  1  0
 20 19  2  0
 20 15  1  0
 21 10  1  0
 22 21  2  0
 23 24  1  0
 25 24  1  0
 25 26  1  0
 27 26  1  1
 27 28  1  0
 28 21  1  0
 29 27  1  0
 30 29  2  0
 31 29  1  0
M  END
$$$$
