NWM.pdb
     RDKit          3D

 31 32  0  0  1  0  0  0  0  0999 V2000
   14.0502  -19.8413   18.6218 N   0  0  0  0  0  0  0  0  0  0  0  0
   13.4056  -18.6468   18.1810 C   0  0  0  0  0  0  0  0  0  0  0  0
   13.2780  -18.5029   16.9533 O   0  0  0  0  0  0  0  0  0  0  0  0
   12.9414  -17.6803   19.1790 C   0  0  0  0  0  0  0  0  0  0  0  0
   11.6264  -18.0540   19.8350 C   0  0  2  0  0  0  0  0  0  0  0  0
   10.5920  -18.0077   18.7724 N   0  0  0  0  0  0  0  0  0  0  0  0
   11.1935  -17.1158   20.8897 C   0  0  0  0  0  0  0  0  0  0  0  0
   11.9262  -16.1260   21.1757 O   0  0  0  0  0  0  0  0  0  0  0  0
    9.9783  -17.2760   21.5982 N   0  0  0  0  0  0  0  0  0  0  0  0
    9.5785  -16.4225   22.6974 C   0  0  1  0  0  0  0  0  0  0  0  0
    8.1105  -16.1275   22.6679 C   0  0  0  0  0  0  0  0  0  0  0  0
    7.7205  -14.8010   23.1692 C   0  0  0  0  0  0  0  0  0  0  0  0
    7.8107  -13.6238   22.3901 C   0  0  0  0  0  0  0  0  0  0  0  0
    7.3597  -12.5758   23.0921 N   0  0  0  0  0  0  0  0  0  0  0  0
    6.9765  -12.9923   24.2939 C   0  0  0  0  0  0  0  0  0  0  0  0
    6.4551  -12.2809   25.3647 C   0  0  0  0  0  0  0  0  0  0  0  0
    6.1601  -13.0010   26.5056 C   0  0  0  0  0  0  0  0  0  0  0  0
    6.3684  -14.3535   26.5878 C   0  0  0  0  0  0  0  0  0  0  0  0
    6.8886  -15.0227   25.4997 C   0  0  0  0  0  0  0  0  0  0  0  0
    7.1958  -14.3655   24.3521 C   0  0  0  0  0  0  0  0  0  0  0  0
   10.0012  -16.9574   23.9768 C   0  0  0  0  0  0  0  0  0  0  0  0
   10.1210  -18.1745   24.2146 O   0  0  0  0  0  0  0  0  0  0  0  0
   11.0582  -12.8655   29.1102 C   0  0  0  0  0  0  0  0  0  0  0  0
   10.8245  -14.4672   29.9121 S   0  0  0  0  0  0  0  0  0  0  0  0
   10.9337  -15.8343   28.7531 C   0  0  0  0  0  0  0  0  0  0  0  0
   10.5961  -15.3945   27.3471 C   0  0  0  0  0  0  0  0  0  0  0  0
   10.6706  -16.5899   26.3805 C   0  0  2  0  0  0  0  0  0  0  0  0
   10.3238  -16.0785   25.0716 N   0  0  0  0  0  0  0  0  0  0  0  0
    9.7595  -17.6413   26.8647 C   0  0  0  0  0  0  0  0  0  0  0  0
    8.5296  -17.5358   26.6453 O   0  0  0  0  0  0  0  0  0  0  0  0
   10.2579  -18.7355   27.5526 O   0  0  0  0  0  0  0  0  0  0  0  0
  2  3  2  0
  2  1  1  0
  4  2  1  0
  5  4  1  0
  5  6  1  6
  7  5  1  0
  7  8  2  0
  9  7  1  0
 10  9  1  0
 10 11  1  1
 11 12  1  0
 12 13  2  0
 12 20  1  0
 13 14  1  0
 14 15  1  0
 15 16  2  0
 16 17  1  0
 18 17  2  0
 19 18  1  0
 20 19  2  0
 20 15  1  0
 21 10  1  0
 22 21  2  0
 23 24  1  0
 25 24  1  0
 25 26  1  0
 27 26  1  1
 27 28  1  0
 28 21  1  0
 29 27  1  0
 30 29  2  0
 31 29  1  0
M  END
$$$$
