NWM.pdb
     RDKit          3D

 31 32  0  0  1  0  0  0  0  0999 V2000
   11.3077  -17.5323   17.4193 N   0  0  0  0  0  0  0  0  0  0  0  0
   10.6707  -16.2835   17.6865 C   0  0  0  0  0  0  0  0  0  0  0  0
   10.4524  -15.5486   16.7085 O   0  0  0  0  0  0  0  0  0  0  0  0
   10.3182  -15.9470   19.0680 C   0  0  0  0  0  0  0  0  0  0  0  0
   10.7387  -16.9911   20.0839 C   0  0  2  0  0  0  0  0  0  0  0  0
    9.8221  -18.1452   19.9131 N   0  0  0  0  0  0  0  0  0  0  0  0
   10.6088  -16.5502   21.4870 C   0  0  0  0  0  0  0  0  0  0  0  0
   11.3686  -15.6378   21.9214 O   0  0  0  0  0  0  0  0  0  0  0  0
    9.6569  -17.1076   22.3745 N   0  0  0  0  0  0  0  0  0  0  0  0
    9.5281  -16.7057   23.7595 C   0  0  1  0  0  0  0  0  0  0  0  0
    8.0956  -16.5162   24.1533 C   0  0  0  0  0  0  0  0  0  0  0  0
    7.5611  -15.1590   23.9658 C   0  0  0  0  0  0  0  0  0  0  0  0
    7.2221  -14.6307   22.6980 C   0  0  0  0  0  0  0  0  0  0  0  0
    6.7337  -13.3909   22.8356 N   0  0  0  0  0  0  0  0  0  0  0  0
    6.7311  -13.0670   24.1239 C   0  0  0  0  0  0  0  0  0  0  0  0
    6.3306  -11.8973   24.7530 C   0  0  0  0  0  0  0  0  0  0  0  0
    6.4615  -11.8535   26.1271 C   0  0  0  0  0  0  0  0  0  0  0  0
    6.9619  -12.9086   26.8454 C   0  0  0  0  0  0  0  0  0  0  0  0
    7.3485  -14.0536   26.1806 C   0  0  0  0  0  0  0  0  0  0  0  0
    7.2408  -14.1523   24.8308 C   0  0  0  0  0  0  0  0  0  0  0  0
   10.2228  -17.6132   24.6513 C   0  0  0  0  0  0  0  0  0  0  0  0
    9.8572  -18.7835   24.8732 O   0  0  0  0  0  0  0  0  0  0  0  0
    9.9608  -13.4946   28.8848 C   0  0  0  0  0  0  0  0  0  0  0  0
   11.1648  -14.5505   29.7206 S   0  0  0  0  0  0  0  0  0  0  0  0
   11.3299  -16.1555   28.9327 C   0  0  0  0  0  0  0  0  0  0  0  0
   11.2157  -16.0469   27.4295 C   0  0  0  0  0  0  0  0  0  0  0  0
   11.5763  -17.3888   26.7676 C   0  0  2  0  0  0  0  0  0  0  0  0
   11.4163  -17.1966   25.3419 N   0  0  0  0  0  0  0  0  0  0  0  0
   10.7024  -18.4357   27.3246 C   0  0  0  0  0  0  0  0  0  0  0  0
    9.5226  -18.5334   26.9117 O   0  0  0  0  0  0  0  0  0  0  0  0
   11.1811  -19.3038   28.2922 O   0  0  0  0  0  0  0  0  0  0  0  0
  2  3  2  0
  2  1  1  0
  4  2  1  0
  5  4  1  0
  5  6  1  1
  7  5  1  0
  7  8  2  0
  9  7  1  0
 10  9  1  0
 10 11  1  1
 11 12  1  0
 12 13  2  0
 12 20  1  0
 13 14  1  0
 14 15  1  0
 15 16  2  0
 16 17  1  0
 18 17  2  0
 19 18  1  0
 20 19  2  0
 20 15  1  0
 21 10  1  0
 22 21  2  0
 23 24  1  0
 25 24  1  0
 25 26  1  0
 27 26  1  1
 27 28  1  0
 28 21  1  0
 29 27  1  0
 30 29  2  0
 31 29  1  0
M  END
$$$$
