NWM.pdb
     RDKit          3D

 31 32  0  0  1  0  0  0  0  0999 V2000
   10.9394  -17.7952   16.6092 N   0  0  0  0  0  0  0  0  0  0  0  0
   10.2344  -16.5597   16.7241 C   0  0  0  0  0  0  0  0  0  0  0  0
   10.0931  -15.8995   15.6808 O   0  0  0  0  0  0  0  0  0  0  0  0
    9.7287  -16.1496   18.0363 C   0  0  0  0  0  0  0  0  0  0  0  0
   10.1826  -17.0385   19.1778 C   0  0  2  0  0  0  0  0  0  0  0  0
    9.3264  -18.2496   19.1410 N   0  0  0  0  0  0  0  0  0  0  0  0
   10.0078  -16.4357   20.5143 C   0  0  0  0  0  0  0  0  0  0  0  0
   10.8289  -15.5595   20.9098 O   0  0  0  0  0  0  0  0  0  0  0  0
    8.9464  -16.7970   21.3788 N   0  0  0  0  0  0  0  0  0  0  0  0
    8.8577  -16.3613   22.7567 C   0  0  1  0  0  0  0  0  0  0  0  0
    7.5710  -16.7876   23.3938 C   0  0  0  0  0  0  0  0  0  0  0  0
    6.9948  -15.8364   24.3561 C   0  0  0  0  0  0  0  0  0  0  0  0
    6.0498  -16.2103   25.3402 C   0  0  0  0  0  0  0  0  0  0  0  0
    5.7275  -15.1484   26.0906 N   0  0  0  0  0  0  0  0  0  0  0  0
    6.4052  -14.0908   25.6583 C   0  0  0  0  0  0  0  0  0  0  0  0
    6.3993  -12.7781   26.1069 C   0  0  0  0  0  0  0  0  0  0  0  0
    7.2148  -11.8878   25.4365 C   0  0  0  0  0  0  0  0  0  0  0  0
    7.9965  -12.2711   24.3774 C   0  0  0  0  0  0  0  0  0  0  0  0
    7.9727  -13.5865   23.9634 C   0  0  0  0  0  0  0  0  0  0  0  0
    7.1907  -14.5049   24.5865 C   0  0  0  0  0  0  0  0  0  0  0  0
   10.0120  -16.7767   23.5291 C   0  0  0  0  0  0  0  0  0  0  0  0
   10.5048  -17.9200   23.4798 O   0  0  0  0  0  0  0  0  0  0  0  0
    9.2698  -12.6324   28.9213 C   0  0  0  0  0  0  0  0  0  0  0  0
    9.6962  -14.3677   28.6570 S   0  0  0  0  0  0  0  0  0  0  0  0
   10.5159  -14.6380   27.0824 C   0  0  0  0  0  0  0  0  0  0  0  0
   10.6834  -16.1119   26.7931 C   0  0  0  0  0  0  0  0  0  0  0  0
   11.5057  -16.3145   25.5079 C   0  0  2  0  0  0  0  0  0  0  0  0
   10.6751  -15.8549   24.4152 N   0  0  0  0  0  0  0  0  0  0  0  0
   11.8785  -17.7362   25.4095 C   0  0  0  0  0  0  0  0  0  0  0  0
   13.0907  -18.0553   25.4313 O   0  0  0  0  0  0  0  0  0  0  0  0
   10.8990  -18.7092   25.2968 O   0  0  0  0  0  0  0  0  0  0  0  0
  2  3  2  0
  2  1  1  0
  4  2  1  0
  5  4  1  0
  5  6  1  1
  7  5  1  0
  7  8  2  0
  9  7  1  0
 10  9  1  0
 10 11  1  1
 11 12  1  0
 12 13  2  0
 12 20  1  0
 13 14  1  0
 14 15  1  0
 15 16  2  0
 16 17  1  0
 18 17  2  0
 19 18  1  0
 20 19  2  0
 20 15  1  0
 21 10  1  0
 22 21  2  0
 23 24  1  0
 25 24  1  0
 25 26  1  0
 27 26  1  1
 27 28  1  0
 28 21  1  0
 29 27  1  0
 30 29  2  0
 31 29  1  0
M  END
$$$$
