NWM.pdb
     RDKit          3D

 31 32  0  0  1  0  0  0  0  0999 V2000
   14.4017  -14.4739   18.0277 N   0  0  0  0  0  0  0  0  0  0  0  0
   13.1236  -15.1073   18.0706 C   0  0  0  0  0  0  0  0  0  0  0  0
   12.8308  -15.8375   17.1086 O   0  0  0  0  0  0  0  0  0  0  0  0
   12.2493  -14.8659   19.2209 C   0  0  0  0  0  0  0  0  0  0  0  0
   12.0237  -16.0868   20.0914 C   0  0  2  0  0  0  0  0  0  0  0  0
   11.0845  -16.9678   19.3546 N   0  0  0  0  0  0  0  0  0  0  0  0
   11.3931  -15.7883   21.3926 C   0  0  0  0  0  0  0  0  0  0  0  0
   11.9506  -14.9675   22.1762 O   0  0  0  0  0  0  0  0  0  0  0  0
   10.1759  -16.3839   21.8025 N   0  0  0  0  0  0  0  0  0  0  0  0
    9.5323  -16.0926   23.0663 C   0  0  1  0  0  0  0  0  0  0  0  0
    8.0401  -16.1660   22.9612 C   0  0  0  0  0  0  0  0  0  0  0  0
    7.2962  -15.5999   24.0966 C   0  0  0  0  0  0  0  0  0  0  0  0
    6.5548  -16.3906   25.0056 C   0  0  0  0  0  0  0  0  0  0  0  0
    6.0110  -15.6118   25.9503 N   0  0  0  0  0  0  0  0  0  0  0  0
    6.3494  -14.3485   25.7177 C   0  0  0  0  0  0  0  0  0  0  0  0
    6.0221  -13.1912   26.4091 C   0  0  0  0  0  0  0  0  0  0  0  0
    6.5218  -12.0050   25.9088 C   0  0  0  0  0  0  0  0  0  0  0  0
    7.3043  -11.9608   24.7839 C   0  0  0  0  0  0  0  0  0  0  0  0
    7.6062  -13.1351   24.1263 C   0  0  0  0  0  0  0  0  0  0  0  0
    7.1430  -14.3300   24.5744 C   0  0  0  0  0  0  0  0  0  0  0  0
   10.0447  -16.9247   24.1371 C   0  0  0  0  0  0  0  0  0  0  0  0
   10.4361  -18.0969   23.9781 O   0  0  0  0  0  0  0  0  0  0  0  0
   10.8111  -12.1134   28.5534 C   0  0  0  0  0  0  0  0  0  0  0  0
   10.6480  -13.8675   28.9528 S   0  0  0  0  0  0  0  0  0  0  0  0
   10.8578  -14.9189   27.5124 C   0  0  0  0  0  0  0  0  0  0  0  0
   10.5590  -16.3647   27.8361 C   0  0  0  0  0  0  0  0  0  0  0  0
   10.6546  -17.2279   26.5654 C   0  0  2  0  0  0  0  0  0  0  0  0
   10.1390  -16.4181   25.4821 N   0  0  0  0  0  0  0  0  0  0  0  0
    9.8969  -18.4717   26.7860 C   0  0  0  0  0  0  0  0  0  0  0  0
    8.8251  -18.6558   26.1619 O   0  0  0  0  0  0  0  0  0  0  0  0
   10.3660  -19.4280   27.6716 O   0  0  0  0  0  0  0  0  0  0  0  0
  2  3  2  0
  2  1  1  0
  4  2  1  0
  5  4  1  0
  5  6  1  6
  7  5  1  0
  7  8  2  0
  9  7  1  0
 10  9  1  0
 10 11  1  6
 11 12  1  0
 12 13  2  0
 12 20  1  0
 13 14  1  0
 14 15  1  0
 15 16  2  0
 16 17  1  0
 18 17  2  0
 19 18  1  0
 20 19  2  0
 20 15  1  0
 21 10  1  0
 22 21  2  0
 23 24  1  0
 25 24  1  0
 25 26  1  0
 27 26  1  1
 27 28  1  0
 28 21  1  0
 29 27  1  0
 30 29  2  0
 31 29  1  0
M  END
$$$$
