NWM.pdb
     RDKit          3D

 31 32  0  0  1  0  0  0  0  0999 V2000
   12.0622  -19.8956   16.6876 N   0  0  0  0  0  0  0  0  0  0  0  0
   11.9530  -20.0557   18.1014 C   0  0  0  0  0  0  0  0  0  0  0  0
   11.9977  -21.2192   18.5357 O   0  0  0  0  0  0  0  0  0  0  0  0
   11.7981  -18.8655   18.9413 C   0  0  0  0  0  0  0  0  0  0  0  0
   10.6132  -18.9266   19.8855 C   0  0  2  0  0  0  0  0  0  0  0  0
    9.3943  -18.9337   19.0396 N   0  0  0  0  0  0  0  0  0  0  0  0
   10.4999  -17.7598   20.7831 C   0  0  0  0  0  0  0  0  0  0  0  0
   11.3328  -16.8147   20.6769 O   0  0  0  0  0  0  0  0  0  0  0  0
    9.4851  -17.6506   21.7643 N   0  0  0  0  0  0  0  0  0  0  0  0
    9.3534  -16.5137   22.6511 C   0  0  1  0  0  0  0  0  0  0  0  0
    7.9525  -15.9846   22.6739 C   0  0  0  0  0  0  0  0  0  0  0  0
    7.7914  -14.6423   23.2528 C   0  0  0  0  0  0  0  0  0  0  0  0
    8.2976  -13.4715   22.6412 C   0  0  0  0  0  0  0  0  0  0  0  0
    7.9756  -12.3975   23.3743 N   0  0  0  0  0  0  0  0  0  0  0  0
    7.2851  -12.7910   24.4388 C   0  0  0  0  0  0  0  0  0  0  0  0
    6.7482  -12.0511   25.4822 C   0  0  0  0  0  0  0  0  0  0  0  0
    6.0832  -12.7554   26.4666 C   0  0  0  0  0  0  0  0  0  0  0  0
    5.9539  -14.1196   26.4255 C   0  0  0  0  0  0  0  0  0  0  0  0
    6.5028  -14.8172   25.3698 C   0  0  0  0  0  0  0  0  0  0  0  0
    7.1661  -14.1762   24.3736 C   0  0  0  0  0  0  0  0  0  0  0  0
    9.8465  -16.8080   23.9822 C   0  0  0  0  0  0  0  0  0  0  0  0
    9.5912  -17.8595   24.5999 O   0  0  0  0  0  0  0  0  0  0  0  0
    9.4755  -14.2270   30.8122 C   0  0  0  0  0  0  0  0  0  0  0  0
   10.2514  -13.6635   29.2814 S   0  0  0  0  0  0  0  0  0  0  0  0
   10.9161  -15.0210   28.3120 C   0  0  0  0  0  0  0  0  0  0  0  0
   10.5713  -14.8745   26.8478 C   0  0  0  0  0  0  0  0  0  0  0  0
   11.0927  -16.0844   26.0520 C   0  0  2  0  0  0  0  0  0  0  0  0
   10.6923  -15.8719   24.6774 N   0  0  0  0  0  0  0  0  0  0  0  0
   10.5358  -17.3115   26.6469 C   0  0  0  0  0  0  0  0  0  0  0  0
   11.3065  -18.1246   27.2098 O   0  0  0  0  0  0  0  0  0  0  0  0
    9.1747  -17.5620   26.5865 O   0  0  0  0  0  0  0  0  0  0  0  0
  2  3  2  0
  2  1  1  0
  4  2  1  0
  5  4  1  0
  5  6  1  6
  7  5  1  0
  7  8  2  0
  9  7  1  0
 10  9  1  0
 10 11  1  1
 11 12  1  0
 12 13  2  0
 12 20  1  0
 13 14  1  0
 14 15  1  0
 15 16  2  0
 16 17  1  0
 18 17  2  0
 19 18  1  0
 20 19  2  0
 20 15  1  0
 21 10  1  0
 22 21  2  0
 23 24  1  0
 25 24  1  0
 25 26  1  0
 27 26  1  1
 27 28  1  0
 28 21  1  0
 29 27  1  0
 30 29  2  0
 31 29  1  0
M  END
$$$$
