NWM.pdb
     RDKit          3D

 31 32  0  0  1  0  0  0  0  0999 V2000
    9.0745  -17.3366   15.4959 N   0  0  0  0  0  0  0  0  0  0  0  0
   10.0763  -16.9253   16.4253 C   0  0  0  0  0  0  0  0  0  0  0  0
   11.2586  -17.0719   16.0716 O   0  0  0  0  0  0  0  0  0  0  0  0
    9.6627  -16.3660   17.7145 C   0  0  0  0  0  0  0  0  0  0  0  0
   10.2992  -17.0421   18.9131 C   0  0  2  0  0  0  0  0  0  0  0  0
    9.7145  -18.4032   18.9949 N   0  0  0  0  0  0  0  0  0  0  0  0
   10.0109  -16.3784   20.2002 C   0  0  0  0  0  0  0  0  0  0  0  0
   10.5790  -15.2820   20.4715 O   0  0  0  0  0  0  0  0  0  0  0  0
    9.1127  -16.9202   21.1510 N   0  0  0  0  0  0  0  0  0  0  0  0
    8.7832  -16.2649   22.3993 C   0  0  1  0  0  0  0  0  0  0  0  0
    7.3929  -16.5921   22.8499 C   0  0  0  0  0  0  0  0  0  0  0  0
    6.9006  -15.8179   23.9993 C   0  0  0  0  0  0  0  0  0  0  0  0
    6.1342  -16.3875   25.0430 C   0  0  0  0  0  0  0  0  0  0  0  0
    5.8547  -15.4566   25.9649 N   0  0  0  0  0  0  0  0  0  0  0  0
    6.3920  -14.3009   25.5901 C   0  0  0  0  0  0  0  0  0  0  0  0
    6.3649  -13.0584   26.2063 C   0  0  0  0  0  0  0  0  0  0  0  0
    7.0149  -12.0274   25.5569 C   0  0  0  0  0  0  0  0  0  0  0  0
    7.6589  -12.2109   24.3606 C   0  0  0  0  0  0  0  0  0  0  0  0
    7.6618  -13.4629   23.7818 C   0  0  0  0  0  0  0  0  0  0  0  0
    7.0399  -14.5131   24.3766 C   0  0  0  0  0  0  0  0  0  0  0  0
    9.7677  -16.5377   23.4279 C   0  0  0  0  0  0  0  0  0  0  0  0
   10.5861  -17.4756   23.3737 O   0  0  0  0  0  0  0  0  0  0  0  0
   10.0876  -12.7277   28.8258 C   0  0  0  0  0  0  0  0  0  0  0  0
   10.9461  -14.2167   29.3814 S   0  0  0  0  0  0  0  0  0  0  0  0
   11.3014  -15.3452   28.0307 C   0  0  0  0  0  0  0  0  0  0  0  0
   10.3840  -15.1042   26.8541 C   0  0  0  0  0  0  0  0  0  0  0  0
   10.7965  -15.9891   25.6642 C   0  0  2  0  0  0  0  0  0  0  0  0
    9.8583  -15.7045   24.5994 N   0  0  0  0  0  0  0  0  0  0  0  0
   10.7860  -17.3959   26.1010 C   0  0  0  0  0  0  0  0  0  0  0  0
   11.8654  -17.9456   26.4246 O   0  0  0  0  0  0  0  0  0  0  0  0
    9.5954  -18.1018   26.1554 O   0  0  0  0  0  0  0  0  0  0  0  0
  2  3  2  0
  2  1  1  0
  4  2  1  0
  5  4  1  0
  5  6  1  1
  7  5  1  0
  7  8  2  0
  9  7  1  0
 10  9  1  0
 10 11  1  1
 11 12  1  0
 12 13  2  0
 12 20  1  0
 13 14  1  0
 14 15  1  0
 15 16  2  0
 16 17  1  0
 18 17  2  0
 19 18  1  0
 20 19  2  0
 20 15  1  0
 21 10  1  0
 22 21  2  0
 23 24  1  0
 25 24  1  0
 25 26  1  0
 27 26  1  1
 27 28  1  0
 28 21  1  0
 29 27  1  0
 30 29  2  0
 31 29  1  0
M  END
$$$$
