NWM.pdb
     RDKit          3D

 31 32  0  0  1  0  0  0  0  0999 V2000
   10.3876  -17.6453   16.9144 N   0  0  0  0  0  0  0  0  0  0  0  0
    9.8747  -16.3253   17.0911 C   0  0  0  0  0  0  0  0  0  0  0  0
    9.6545  -15.6701   16.0584 O   0  0  0  0  0  0  0  0  0  0  0  0
    9.6421  -15.8294   18.4497 C   0  0  0  0  0  0  0  0  0  0  0  0
   10.1456  -16.7559   19.5393 C   0  0  2  0  0  0  0  0  0  0  0  0
    9.3096  -17.9800   19.4776 N   0  0  0  0  0  0  0  0  0  0  0  0
   10.0011  -16.2119   20.9043 C   0  0  0  0  0  0  0  0  0  0  0  0
   10.6351  -15.1656   21.2233 O   0  0  0  0  0  0  0  0  0  0  0  0
    9.1707  -16.8149   21.8796 N   0  0  0  0  0  0  0  0  0  0  0  0
    9.0718  -16.3417   23.2444 C   0  0  1  0  0  0  0  0  0  0  0  0
    7.7987  -16.7854   23.8966 C   0  0  0  0  0  0  0  0  0  0  0  0
    7.1038  -15.7617   24.6916 C   0  0  0  0  0  0  0  0  0  0  0  0
    5.9231  -16.0234   25.4255 C   0  0  0  0  0  0  0  0  0  0  0  0
    5.5340  -14.9178   26.0743 N   0  0  0  0  0  0  0  0  0  0  0  0
    6.3902  -13.9370   25.8105 C   0  0  0  0  0  0  0  0  0  0  0  0
    6.4018  -12.6180   26.2399 C   0  0  0  0  0  0  0  0  0  0  0  0
    7.4317  -11.8222   25.7781 C   0  0  0  0  0  0  0  0  0  0  0  0
    8.4013  -12.3015   24.9356 C   0  0  0  0  0  0  0  0  0  0  0  0
    8.3527  -13.6198   24.5328 C   0  0  0  0  0  0  0  0  0  0  0  0
    7.3636  -14.4477   24.9567 C   0  0  0  0  0  0  0  0  0  0  0  0
   10.2385  -16.7016   24.0259 C   0  0  0  0  0  0  0  0  0  0  0  0
   11.0645  -17.5682   23.6808 O   0  0  0  0  0  0  0  0  0  0  0  0
   10.0112  -14.2972   29.8284 C   0  0  0  0  0  0  0  0  0  0  0  0
   10.9182  -13.3013   28.6250 S   0  0  0  0  0  0  0  0  0  0  0  0
   11.5513  -14.2845   27.2623 C   0  0  0  0  0  0  0  0  0  0  0  0
   11.3435  -15.7618   27.5043 C   0  0  0  0  0  0  0  0  0  0  0  0
   11.5194  -16.5484   26.1931 C   0  0  2  0  0  0  0  0  0  0  0  0
   10.5160  -16.0466   25.2785 N   0  0  0  0  0  0  0  0  0  0  0  0
   11.3852  -17.9855   26.4873 C   0  0  0  0  0  0  0  0  0  0  0  0
   12.4079  -18.7108   26.4818 O   0  0  0  0  0  0  0  0  0  0  0  0
   10.1422  -18.5279   26.7693 O   0  0  0  0  0  0  0  0  0  0  0  0
  2  3  2  0
  2  1  1  0
  4  2  1  0
  5  4  1  0
  5  6  1  1
  7  5  1  0
  7  8  2  0
  9  7  1  0
 10  9  1  0
 10 11  1  1
 11 12  1  0
 12 13  2  0
 12 20  1  0
 13 14  1  0
 14 15  1  0
 15 16  2  0
 16 17  1  0
 18 17  2  0
 19 18  1  0
 20 19  2  0
 20 15  1  0
 21 10  1  0
 22 21  2  0
 23 24  1  0
 25 24  1  0
 25 26  1  0
 27 26  1  1
 27 28  1  0
 28 21  1  0
 29 27  1  0
 30 29  2  0
 31 29  1  0
M  END
$$$$
