NWM.pdb
     RDKit          3D

 31 32  0  0  1  0  0  0  0  0999 V2000
    8.3477  -16.0584   16.2394 N   0  0  0  0  0  0  0  0  0  0  0  0
    9.5197  -16.1117   17.0519 C   0  0  0  0  0  0  0  0  0  0  0  0
   10.5445  -16.5740   16.5223 O   0  0  0  0  0  0  0  0  0  0  0  0
    9.4492  -15.6288   18.4331 C   0  0  0  0  0  0  0  0  0  0  0  0
    9.9390  -16.6289   19.4621 C   0  0  2  0  0  0  0  0  0  0  0  0
    9.0239  -17.7946   19.3925 N   0  0  0  0  0  0  0  0  0  0  0  0
    9.8898  -16.1333   20.8521 C   0  0  0  0  0  0  0  0  0  0  0  0
   10.5311  -15.0877   21.1588 O   0  0  0  0  0  0  0  0  0  0  0  0
    9.1437  -16.7823   21.8652 N   0  0  0  0  0  0  0  0  0  0  0  0
    9.1511  -16.3647   23.2515 C   0  0  1  0  0  0  0  0  0  0  0  0
    7.9635  -16.8901   23.9976 C   0  0  0  0  0  0  0  0  0  0  0  0
    7.1647  -15.8808   24.7089 C   0  0  0  0  0  0  0  0  0  0  0  0
    5.9907  -16.1948   25.4331 C   0  0  0  0  0  0  0  0  0  0  0  0
    5.4936  -15.0873   25.9997 N   0  0  0  0  0  0  0  0  0  0  0  0
    6.2718  -14.0561   25.6905 C   0  0  0  0  0  0  0  0  0  0  0  0
    6.1619  -12.7162   26.0328 C   0  0  0  0  0  0  0  0  0  0  0  0
    7.1338  -11.8668   25.5420 C   0  0  0  0  0  0  0  0  0  0  0  0
    8.1621  -12.3144   24.7535 C   0  0  0  0  0  0  0  0  0  0  0  0
    8.2344  -13.6550   24.4368 C   0  0  0  0  0  0  0  0  0  0  0  0
    7.3068  -14.5353   24.8929 C   0  0  0  0  0  0  0  0  0  0  0  0
   10.3992  -16.6988   23.9089 C   0  0  0  0  0  0  0  0  0  0  0  0
   11.1173  -17.6640   23.5847 O   0  0  0  0  0  0  0  0  0  0  0  0
   10.9271  -12.5251   28.2200 C   0  0  0  0  0  0  0  0  0  0  0  0
    9.9510  -14.0394   28.0892 S   0  0  0  0  0  0  0  0  0  0  0  0
   10.9787  -15.5078   27.9802 C   0  0  0  0  0  0  0  0  0  0  0  0
   12.1000  -15.3242   26.9836 C   0  0  0  0  0  0  0  0  0  0  0  0
   11.9775  -16.3528   25.8453 C   0  0  2  0  0  0  0  0  0  0  0  0
   10.8930  -15.8995   25.0007 N   0  0  0  0  0  0  0  0  0  0  0  0
   11.7494  -17.6821   26.4377 C   0  0  0  0  0  0  0  0  0  0  0  0
   12.7106  -18.4804   26.5414 O   0  0  0  0  0  0  0  0  0  0  0  0
   10.4866  -18.0439   26.8773 O   0  0  0  0  0  0  0  0  0  0  0  0
  2  3  2  0
  2  1  1  0
  4  2  1  0
  5  4  1  0
  5  6  1  1
  7  5  1  0
  7  8  2  0
  9  7  1  0
 10  9  1  0
 10 11  1  1
 11 12  1  0
 12 13  2  0
 12 20  1  0
 13 14  1  0
 14 15  1  0
 15 16  2  0
 16 17  1  0
 18 17  2  0
 19 18  1  0
 20 19  2  0
 20 15  1  0
 21 10  1  0
 22 21  2  0
 23 24  1  0
 25 24  1  0
 25 26  1  0
 27 26  1  1
 27 28  1  0
 28 21  1  0
 29 27  1  0
 30 29  2  0
 31 29  1  0
M  END
$$$$
