NWM.pdb
     RDKit          3D

 31 32  0  0  1  0  0  0  0  0999 V2000
   12.3072  -17.9646   17.3111 N   0  0  0  0  0  0  0  0  0  0  0  0
   11.9638  -16.5831   17.4110 C   0  0  0  0  0  0  0  0  0  0  0  0
   12.1526  -15.8872   16.3989 O   0  0  0  0  0  0  0  0  0  0  0  0
   11.4202  -16.0756   18.6731 C   0  0  0  0  0  0  0  0  0  0  0  0
   11.4015  -17.0983   19.7924 C   0  0  2  0  0  0  0  0  0  0  0  0
   10.4389  -18.1530   19.3898 N   0  0  0  0  0  0  0  0  0  0  0  0
   10.9296  -16.5645   21.0857 C   0  0  0  0  0  0  0  0  0  0  0  0
   11.6318  -15.7069   21.6939 O   0  0  0  0  0  0  0  0  0  0  0  0
    9.7098  -16.9722   21.6774 N   0  0  0  0  0  0  0  0  0  0  0  0
    9.2115  -16.4352   22.9263 C   0  0  1  0  0  0  0  0  0  0  0  0
    7.7146  -16.4007   22.9597 C   0  0  0  0  0  0  0  0  0  0  0  0
    7.1232  -15.5920   24.0363 C   0  0  0  0  0  0  0  0  0  0  0  0
    6.4508  -16.1561   25.1457 C   0  0  0  0  0  0  0  0  0  0  0  0
    6.0467  -15.1859   25.9765 N   0  0  0  0  0  0  0  0  0  0  0  0
    6.4127  -14.0097   25.4792 C   0  0  0  0  0  0  0  0  0  0  0  0
    6.2127  -12.7278   25.9702 C   0  0  0  0  0  0  0  0  0  0  0  0
    6.7065  -11.6861   25.2098 C   0  0  0  0  0  0  0  0  0  0  0  0
    7.3639  -11.8964   24.0253 C   0  0  0  0  0  0  0  0  0  0  0  0
    7.5416  -13.1873   23.5730 C   0  0  0  0  0  0  0  0  0  0  0  0
    7.0780  -14.2494   24.2803 C   0  0  0  0  0  0  0  0  0  0  0  0
    9.7662  -17.1297   24.0715 C   0  0  0  0  0  0  0  0  0  0  0  0
   10.0076  -18.3519   24.0917 O   0  0  0  0  0  0  0  0  0  0  0  0
   10.1439  -13.5209   29.6106 C   0  0  0  0  0  0  0  0  0  0  0  0
   10.5675  -13.3505   27.8629 S   0  0  0  0  0  0  0  0  0  0  0  0
   11.3912  -14.8080   27.2139 C   0  0  0  0  0  0  0  0  0  0  0  0
   10.6475  -16.0717   27.5804 C   0  0  0  0  0  0  0  0  0  0  0  0
   10.6949  -17.0769   26.4158 C   0  0  2  0  0  0  0  0  0  0  0  0
   10.0855  -16.4160   25.2813 N   0  0  0  0  0  0  0  0  0  0  0  0
    9.9963  -18.3060   26.8292 C   0  0  0  0  0  0  0  0  0  0  0  0
    8.8929  -18.5899   26.3057 O   0  0  0  0  0  0  0  0  0  0  0  0
   10.5547  -19.1396   27.7843 O   0  0  0  0  0  0  0  0  0  0  0  0
  2  3  2  0
  2  1  1  0
  4  2  1  0
  5  4  1  0
  5  6  1  6
  7  5  1  0
  7  8  2  0
  9  7  1  0
 10  9  1  0
 10 11  1  6
 11 12  1  0
 12 13  2  0
 12 20  1  0
 13 14  1  0
 14 15  1  0
 15 16  2  0
 16 17  1  0
 18 17  2  0
 19 18  1  0
 20 19  2  0
 20 15  1  0
 21 10  1  0
 22 21  2  0
 23 24  1  0
 25 24  1  0
 25 26  1  0
 27 26  1  1
 27 28  1  0
 28 21  1  0
 29 27  1  0
 30 29  2  0
 31 29  1  0
M  END
$$$$
