NWM.pdb
     RDKit          3D

 31 32  0  0  1  0  0  0  0  0999 V2000
   10.1697  -17.0435   15.7808 N   0  0  0  0  0  0  0  0  0  0  0  0
   11.1382  -16.8938   16.8182 C   0  0  0  0  0  0  0  0  0  0  0  0
   12.2553  -17.3990   16.6151 O   0  0  0  0  0  0  0  0  0  0  0  0
   10.7683  -16.1689   18.0363 C   0  0  0  0  0  0  0  0  0  0  0  0
   10.8148  -17.0131   19.2949 C   0  0  2  0  0  0  0  0  0  0  0  0
    9.7887  -18.0727   19.1354 N   0  0  0  0  0  0  0  0  0  0  0  0
   10.4736  -16.2740   20.5267 C   0  0  0  0  0  0  0  0  0  0  0  0
   11.1551  -15.2585   20.8474 O   0  0  0  0  0  0  0  0  0  0  0  0
    9.4020  -16.6546   21.3700 N   0  0  0  0  0  0  0  0  0  0  0  0
    9.0619  -15.9549   22.5911 C   0  0  1  0  0  0  0  0  0  0  0  0
    7.5836  -15.9397   22.8309 C   0  0  0  0  0  0  0  0  0  0  0  0
    7.1535  -15.3298   24.0982 C   0  0  0  0  0  0  0  0  0  0  0  0
    6.5138  -16.0585   25.1281 C   0  0  0  0  0  0  0  0  0  0  0  0
    6.2669  -15.2546   26.1709 N   0  0  0  0  0  0  0  0  0  0  0  0
    6.7061  -14.0329   25.8894 C   0  0  0  0  0  0  0  0  0  0  0  0
    6.6666  -12.8702   26.6450 C   0  0  0  0  0  0  0  0  0  0  0  0
    7.2005  -11.7347   26.0681 C   0  0  0  0  0  0  0  0  0  0  0  0
    7.7456  -11.7440   24.8101 C   0  0  0  0  0  0  0  0  0  0  0  0
    7.7649  -12.9218   24.0925 C   0  0  0  0  0  0  0  0  0  0  0  0
    7.2552  -14.0684   24.6109 C   0  0  0  0  0  0  0  0  0  0  0  0
    9.7935  -16.4723   23.7308 C   0  0  0  0  0  0  0  0  0  0  0  0
    9.7244  -17.6533   24.1215 O   0  0  0  0  0  0  0  0  0  0  0  0
   10.9057  -14.0584   30.9510 C   0  0  0  0  0  0  0  0  0  0  0  0
   10.0650  -14.1316   29.3538 S   0  0  0  0  0  0  0  0  0  0  0  0
   10.8834  -15.2383   28.2007 C   0  0  0  0  0  0  0  0  0  0  0  0
   10.3884  -15.0282   26.7882 C   0  0  0  0  0  0  0  0  0  0  0  0
   11.1171  -15.9768   25.8196 C   0  0  2  0  0  0  0  0  0  0  0  0
   10.6738  -15.6205   24.4886 N   0  0  0  0  0  0  0  0  0  0  0  0
   10.7999  -17.3651   26.1963 C   0  0  0  0  0  0  0  0  0  0  0  0
   11.7075  -18.0988   26.6545 O   0  0  0  0  0  0  0  0  0  0  0  0
    9.5119  -17.8526   26.0477 O   0  0  0  0  0  0  0  0  0  0  0  0
  2  3  2  0
  2  1  1  0
  4  2  1  0
  5  4  1  0
  5  6  1  6
  7  5  1  0
  7  8  2  0
  9  7  1  0
 10  9  1  0
 10 11  1  1
 11 12  1  0
 12 13  2  0
 12 20  1  0
 13 14  1  0
 14 15  1  0
 15 16  2  0
 16 17  1  0
 18 17  2  0
 19 18  1  0
 20 19  2  0
 20 15  1  0
 21 10  1  0
 22 21  2  0
 23 24  1  0
 25 24  1  0
 25 26  1  0
 27 26  1  1
 27 28  1  0
 28 21  1  0
 29 27  1  0
 30 29  2  0
 31 29  1  0
M  END
$$$$
