NWM.pdb
     RDKit          3D

 31 32  0  0  1  0  0  0  0  0999 V2000
    9.9669  -17.5155   16.4813 N   0  0  0  0  0  0  0  0  0  0  0  0
    9.3619  -16.2425   16.7053 C   0  0  0  0  0  0  0  0  0  0  0  0
    9.0726  -15.5776   15.6962 O   0  0  0  0  0  0  0  0  0  0  0  0
    9.1218  -15.8024   18.0818 C   0  0  0  0  0  0  0  0  0  0  0  0
    9.7201  -16.7150   19.1346 C   0  0  2  0  0  0  0  0  0  0  0  0
    8.9369  -17.9746   19.1015 N   0  0  0  0  0  0  0  0  0  0  0  0
    9.6209  -16.1898   20.5110 C   0  0  0  0  0  0  0  0  0  0  0  0
   10.2273  -15.1215   20.8104 O   0  0  0  0  0  0  0  0  0  0  0  0
    8.8643  -16.8350   21.5187 N   0  0  0  0  0  0  0  0  0  0  0  0
    8.9210  -16.4651   22.9174 C   0  0  1  0  0  0  0  0  0  0  0  0
    7.7089  -16.9282   23.6654 C   0  0  0  0  0  0  0  0  0  0  0  0
    7.0295  -15.9010   24.4691 C   0  0  0  0  0  0  0  0  0  0  0  0
    5.9865  -16.1962   25.3780 C   0  0  0  0  0  0  0  0  0  0  0  0
    5.5816  -15.0747   25.9886 N   0  0  0  0  0  0  0  0  0  0  0  0
    6.2972  -14.0518   25.5344 C   0  0  0  0  0  0  0  0  0  0  0  0
    6.2382  -12.7038   25.8564 C   0  0  0  0  0  0  0  0  0  0  0  0
    7.1169  -11.8673   25.1965 C   0  0  0  0  0  0  0  0  0  0  0  0
    8.0087  -12.3351   24.2662 C   0  0  0  0  0  0  0  0  0  0  0  0
    8.0346  -13.6832   23.9755 C   0  0  0  0  0  0  0  0  0  0  0  0
    7.1943  -14.5514   24.5947 C   0  0  0  0  0  0  0  0  0  0  0  0
   10.1506  -16.9097   23.5434 C   0  0  0  0  0  0  0  0  0  0  0  0
   10.6749  -18.0200   23.3317 O   0  0  0  0  0  0  0  0  0  0  0  0
    9.5031  -12.7790   28.9836 C   0  0  0  0  0  0  0  0  0  0  0  0
    9.9414  -14.5163   28.7542 S   0  0  0  0  0  0  0  0  0  0  0  0
   10.6126  -14.8420   27.1209 C   0  0  0  0  0  0  0  0  0  0  0  0
   10.6762  -16.3249   26.8358 C   0  0  0  0  0  0  0  0  0  0  0  0
   11.5643  -16.5958   25.6083 C   0  0  2  0  0  0  0  0  0  0  0  0
   10.8566  -16.0580   24.4659 N   0  0  0  0  0  0  0  0  0  0  0  0
   11.8131  -18.0450   25.5208 C   0  0  0  0  0  0  0  0  0  0  0  0
   10.9303  -18.7905   25.0340 O   0  0  0  0  0  0  0  0  0  0  0  0
   13.0109  -18.5768   25.9695 O   0  0  0  0  0  0  0  0  0  0  0  0
  2  3  2  0
  2  1  1  0
  4  2  1  0
  5  4  1  0
  5  6  1  1
  7  5  1  0
  7  8  2  0
  9  7  1  0
 10  9  1  0
 10 11  1  1
 11 12  1  0
 12 13  2  0
 12 20  1  0
 13 14  1  0
 14 15  1  0
 15 16  2  0
 16 17  1  0
 18 17  2  0
 19 18  1  0
 20 19  2  0
 20 15  1  0
 21 10  1  0
 22 21  2  0
 23 24  1  0
 25 24  1  0
 25 26  1  0
 27 26  1  1
 27 28  1  0
 28 21  1  0
 29 27  1  0
 30 29  2  0
 31 29  1  0
M  END
$$$$
