NWM.pdb
     RDKit          3D

 31 32  0  0  1  0  0  0  0  0999 V2000
    8.9680  -12.8147   16.5872 N   0  0  0  0  0  0  0  0  0  0  0  0
    8.1417  -13.6904   17.3532 C   0  0  0  0  0  0  0  0  0  0  0  0
    7.3346  -14.3914   16.7195 O   0  0  0  0  0  0  0  0  0  0  0  0
    8.2890  -13.7126   18.8105 C   0  0  0  0  0  0  0  0  0  0  0  0
    9.0437  -14.9182   19.3360 C   0  0  2  0  0  0  0  0  0  0  0  0
    8.1433  -16.0867   19.1780 N   0  0  0  0  0  0  0  0  0  0  0  0
    9.3835  -14.8354   20.7705 C   0  0  0  0  0  0  0  0  0  0  0  0
   10.2296  -13.9791   21.1572 O   0  0  0  0  0  0  0  0  0  0  0  0
    8.7929  -15.6789   21.7421 N   0  0  0  0  0  0  0  0  0  0  0  0
    9.1148  -15.6170   23.1524 C   0  0  1  0  0  0  0  0  0  0  0  0
    8.0618  -16.2708   23.9931 C   0  0  0  0  0  0  0  0  0  0  0  0
    7.0885  -15.3585   24.6122 C   0  0  0  0  0  0  0  0  0  0  0  0
    5.8412  -15.7897   25.1216 C   0  0  0  0  0  0  0  0  0  0  0  0
    5.1807  -14.7517   25.6514 N   0  0  0  0  0  0  0  0  0  0  0  0
    5.9199  -13.6557   25.5206 C   0  0  0  0  0  0  0  0  0  0  0  0
    5.6589  -12.3479   25.9028 C   0  0  0  0  0  0  0  0  0  0  0  0
    6.6311  -11.4100   25.6158 C   0  0  0  0  0  0  0  0  0  0  0  0
    7.8012  -11.7433   24.9838 C   0  0  0  0  0  0  0  0  0  0  0  0
    8.0210  -13.0557   24.6208 C   0  0  0  0  0  0  0  0  0  0  0  0
    7.1004  -14.0195   24.8793 C   0  0  0  0  0  0  0  0  0  0  0  0
   10.4368  -16.1445   23.4274 C   0  0  0  0  0  0  0  0  0  0  0  0
   11.4835  -15.6878   22.9291 O   0  0  0  0  0  0  0  0  0  0  0  0
   11.1297  -12.9096   27.5316 C   0  0  0  0  0  0  0  0  0  0  0  0
   11.4445  -14.4018   28.4998 S   0  0  0  0  0  0  0  0  0  0  0  0
   11.9773  -15.7794   27.4788 C   0  0  0  0  0  0  0  0  0  0  0  0
   11.0077  -16.0362   26.3483 C   0  0  0  0  0  0  0  0  0  0  0  0
   11.5178  -17.1820   25.4562 C   0  0  2  0  0  0  0  0  0  0  0  0
   10.6136  -17.2545   24.3282 N   0  0  0  0  0  0  0  0  0  0  0  0
   11.5617  -18.4164   26.2588 C   0  0  0  0  0  0  0  0  0  0  0  0
   12.6709  -18.8651   26.6335 O   0  0  0  0  0  0  0  0  0  0  0  0
   10.3893  -19.0720   26.5972 O   0  0  0  0  0  0  0  0  0  0  0  0
  2  3  2  0
  2  1  1  0
  4  2  1  0
  5  4  1  0
  5  6  1  1
  7  5  1  0
  7  8  2  0
  9  7  1  0
 10  9  1  0
 10 11  1  1
 11 12  1  0
 12 13  2  0
 12 20  1  0
 13 14  1  0
 14 15  1  0
 15 16  2  0
 16 17  1  0
 18 17  2  0
 19 18  1  0
 20 19  2  0
 20 15  1  0
 21 10  1  0
 22 21  2  0
 23 24  1  0
 25 24  1  0
 25 26  1  0
 27 26  1  1
 27 28  1  0
 28 21  1  0
 29 27  1  0
 30 29  2  0
 31 29  1  0
M  END
$$$$
