LEI.pdb
     RDKit          3D

 26 25  0  0  1  0  0  0  0  0999 V2000
    7.3904  -11.9763   19.1945 C   0  0  0  0  0  0  0  0  0  0  0  0
    7.7543  -13.4154   19.0147 C   0  0  1  0  0  0  0  0  0  0  0  0
    9.2071  -13.5075   18.5977 C   0  0  0  0  0  0  0  0  0  0  0  0
    7.5695  -14.2424   20.2453 C   0  0  0  0  0  0  0  0  0  0  0  0
    7.9951  -15.6738   20.0766 C   0  0  2  0  0  0  0  0  0  0  0  0
    6.9447  -16.5212   19.5927 N   0  0  0  0  0  0  0  0  0  0  0  0
    8.4078  -16.1708   21.4183 C   0  0  0  0  0  0  0  0  0  0  0  0
    7.4958  -16.3498   22.2693 O   0  0  0  0  0  0  0  0  0  0  0  0
    9.7701  -16.4329   21.7293 N   0  0  0  0  0  0  0  0  0  0  0  0
   10.1134  -16.8941   23.0342 C   0  0  1  0  0  0  0  0  0  0  0  0
   11.4550  -17.5751   22.9871 C   0  0  0  0  0  0  0  0  0  0  0  0
   11.3477  -18.8588   22.2333 C   0  0  0  0  0  0  0  0  0  0  0  0
   12.6553  -19.5674   22.1325 C   0  0  0  0  0  0  0  0  0  0  0  0
   13.0892  -20.3406   23.0231 O   0  0  0  0  0  0  0  0  0  0  0  0
   10.0714  -15.8171   24.0575 C   0  0  0  0  0  0  0  0  0  0  0  0
   10.8660  -14.8458   23.9782 O   0  0  0  0  0  0  0  0  0  0  0  0
   13.4434  -19.3753   21.0081 O   0  0  0  0  0  0  0  0  0  0  0  0
    6.5283  -11.8788   26.5089 C   0  0  0  0  0  0  0  0  0  0  0  0
    7.6649  -12.7985   26.8106 C   0  0  0  0  0  0  0  0  0  0  0  0
    7.7560  -13.9869   25.8887 C   0  0  2  0  0  0  0  0  0  0  0  0
    6.5646  -14.8712   26.1731 C   0  0  0  0  0  0  0  0  0  0  0  0
    9.0339  -14.7868   26.0981 C   0  0  2  0  0  0  0  0  0  0  0  0
    9.1325  -15.8691   25.1406 N   0  0  0  0  0  0  0  0  0  0  0  0
    8.9525  -15.3523   27.4653 C   0  0  0  0  0  0  0  0  0  0  0  0
    9.2680  -14.6360   28.6023 O   0  0  0  0  0  0  0  0  0  0  0  0
    8.5782  -16.5416   27.5980 O   0  0  0  0  0  0  0  0  0  0  0  0
  2  1  1  1
  2  4  1  0
  2  3  1  0
  5  6  1  1
  5  4  1  0
  7  5  1  0
  8  7  2  0
  9  7  1  0
 10  9  1  0
 11 12  1  0
 10 11  1  6
 12 13  1  0
 13 17  1  0
 13 14  2  0
 15 10  1  0
 15 16  2  0
 18 19  1  0
 19 20  1  0
 20 22  1  0
 20 21  1  1
 22 23  1  6
 23 15  1  0
 24 22  1  0
 25 24  1  0
 26 24  2  0
M  END
$$$$
