LEI.pdb
     RDKit          3D

 26 25  0  0  1  0  0  0  0  0999 V2000
    7.9609  -14.9613   18.1454 C   0  0  0  0  0  0  0  0  0  0  0  0
    7.7518  -13.5593   18.6212 C   0  0  1  0  0  0  0  0  0  0  0  0
    6.4464  -13.0377   18.0584 C   0  0  0  0  0  0  0  0  0  0  0  0
    7.7032  -13.4282   20.1088 C   0  0  0  0  0  0  0  0  0  0  0  0
    9.0540  -13.5041   20.7630 C   0  0  2  0  0  0  0  0  0  0  0  0
   10.0692  -14.0351   19.9009 N   0  0  0  0  0  0  0  0  0  0  0  0
    8.9238  -14.4119   21.9362 C   0  0  0  0  0  0  0  0  0  0  0  0
    7.9506  -14.2118   22.7113 O   0  0  0  0  0  0  0  0  0  0  0  0
    9.8548  -15.4597   22.1747 N   0  0  0  0  0  0  0  0  0  0  0  0
    9.7010  -16.2826   23.3290 C   0  0  1  0  0  0  0  0  0  0  0  0
   10.3921  -17.6001   23.0996 C   0  0  0  0  0  0  0  0  0  0  0  0
   11.8671  -17.3916   23.0081 C   0  0  0  0  0  0  0  0  0  0  0  0
   12.6003  -18.6546   22.7094 C   0  0  0  0  0  0  0  0  0  0  0  0
   12.9317  -18.9992   21.5473 O   0  0  0  0  0  0  0  0  0  0  0  0
   10.1641  -15.6208   24.5765 C   0  0  0  0  0  0  0  0  0  0  0  0
   10.9401  -14.6336   24.5114 O   0  0  0  0  0  0  0  0  0  0  0  0
   12.9406  -19.5017   23.7529 O   0  0  0  0  0  0  0  0  0  0  0  0
    7.3765  -12.4949   26.4191 C   0  0  0  0  0  0  0  0  0  0  0  0
    8.5881  -13.3500   26.2481 C   0  0  0  0  0  0  0  0  0  0  0  0
    8.7654  -14.3883   27.3257 C   0  0  2  0  0  0  0  0  0  0  0  0
    8.9902  -13.6545   28.6269 C   0  0  0  0  0  0  0  0  0  0  0  0
    9.9498  -15.3060   27.0578 C   0  0  2  0  0  0  0  0  0  0  0  0
    9.7366  -16.0939   25.8613 N   0  0  0  0  0  0  0  0  0  0  0  0
   10.0478  -16.2120   28.2263 C   0  0  0  0  0  0  0  0  0  0  0  0
   10.7894  -15.9190   29.3530 O   0  0  0  0  0  0  0  0  0  0  0  0
    9.4262  -17.3003   28.1915 O   0  0  0  0  0  0  0  0  0  0  0  0
  2  1  1  1
  2  4  1  0
  2  3  1  0
  5  6  1  6
  5  4  1  0
  7  5  1  0
  8  7  2  0
  9  7  1  0
 10  9  1  0
 11 12  1  0
 10 11  1  6
 12 13  1  0
 13 17  1  0
 13 14  2  0
 15 10  1  0
 15 16  2  0
 18 19  1  0
 19 20  1  0
 20 22  1  0
 20 21  1  1
 22 23  1  6
 23 15  1  0
 24 22  1  0
 25 24  1  0
 26 24  2  0
M  END
$$$$
