LEI.pdb
     RDKit          3D

 26 25  0  0  1  0  0  0  0  0999 V2000
    7.3969  -11.8689   19.2339 C   0  0  0  0  0  0  0  0  0  0  0  0
    8.0775  -13.1943   19.1079 C   0  0  1  0  0  0  0  0  0  0  0  0
    9.4772  -13.0850   19.6752 C   0  0  0  0  0  0  0  0  0  0  0  0
    7.3725  -14.3042   19.8176 C   0  0  0  0  0  0  0  0  0  0  0  0
    8.1531  -15.5879   19.8501 C   0  0  2  0  0  0  0  0  0  0  0  0
    7.5528  -16.6329   19.0733 N   0  0  0  0  0  0  0  0  0  0  0  0
    8.2013  -16.0372   21.2690 C   0  0  0  0  0  0  0  0  0  0  0  0
    7.1005  -16.2833   21.8307 O   0  0  0  0  0  0  0  0  0  0  0  0
    9.4336  -16.1835   21.9630 N   0  0  0  0  0  0  0  0  0  0  0  0
    9.4295  -16.6866   23.2971 C   0  0  1  0  0  0  0  0  0  0  0  0
   10.3117  -17.9038   23.3754 C   0  0  0  0  0  0  0  0  0  0  0  0
   10.2349  -18.5006   24.7412 C   0  0  0  0  0  0  0  0  0  0  0  0
   11.1220  -19.6892   24.8906 C   0  0  0  0  0  0  0  0  0  0  0  0
   10.8592  -20.8112   24.3894 O   0  0  0  0  0  0  0  0  0  0  0  0
    9.8071  -15.6598   24.3031 C   0  0  0  0  0  0  0  0  0  0  0  0
   10.9327  -15.1029   24.2383 O   0  0  0  0  0  0  0  0  0  0  0  0
   12.2982  -19.5681   25.6147 O   0  0  0  0  0  0  0  0  0  0  0  0
    5.8842  -12.6579   27.0137 C   0  0  0  0  0  0  0  0  0  0  0  0
    6.8889  -13.7362   26.7763 C   0  0  0  0  0  0  0  0  0  0  0  0
    8.2854  -13.2305   26.5221 C   0  0  2  0  0  0  0  0  0  0  0  0
    8.2522  -12.4406   25.2348 C   0  0  0  0  0  0  0  0  0  0  0  0
    9.2964  -14.3607   26.3896 C   0  0  2  0  0  0  0  0  0  0  0  0
    8.9017  -15.2922   25.3531 N   0  0  0  0  0  0  0  0  0  0  0  0
    9.3110  -15.0621   27.6947 C   0  0  0  0  0  0  0  0  0  0  0  0
    9.8320  -14.5091   28.8471 O   0  0  0  0  0  0  0  0  0  0  0  0
    8.8258  -16.2165   27.7574 O   0  0  0  0  0  0  0  0  0  0  0  0
  2  1  1  1
  2  4  1  0
  2  3  1  0
  5  6  1  6
  5  4  1  0
  7  5  1  0
  8  7  2  0
  9  7  1  0
 10  9  1  0
 11 12  1  0
 10 11  1  6
 12 13  1  0
 13 17  1  0
 13 14  2  0
 15 10  1  0
 15 16  2  0
 18 19  1  0
 19 20  1  0
 20 22  1  0
 20 21  1  6
 22 23  1  6
 23 15  1  0
 24 22  1  0
 25 24  1  0
 26 24  2  0
M  END
$$$$
