LEI.pdb
     RDKit          3D

 26 25  0  0  1  0  0  0  0  0999 V2000
    7.8606  -12.0160   19.0696 C   0  0  0  0  0  0  0  0  0  0  0  0
    7.8605  -13.5108   19.1051 C   0  0  1  0  0  0  0  0  0  0  0  0
    9.1084  -14.0198   18.4147 C   0  0  0  0  0  0  0  0  0  0  0  0
    7.8264  -14.0812   20.4857 C   0  0  0  0  0  0  0  0  0  0  0  0
    7.9040  -15.5817   20.5178 C   0  0  2  0  0  0  0  0  0  0  0  0
    6.6938  -16.2184   20.0871 N   0  0  0  0  0  0  0  0  0  0  0  0
    8.1567  -15.9786   21.9306 C   0  0  0  0  0  0  0  0  0  0  0  0
    7.1975  -15.8624   22.7396 O   0  0  0  0  0  0  0  0  0  0  0  0
    9.4234  -16.4677   22.3522 N   0  0  0  0  0  0  0  0  0  0  0  0
    9.5712  -16.9774   23.6756 C   0  0  1  0  0  0  0  0  0  0  0  0
   10.5149  -18.1500   23.6575 C   0  0  0  0  0  0  0  0  0  0  0  0
   11.9017  -17.6825   23.3648 C   0  0  0  0  0  0  0  0  0  0  0  0
   12.6611  -18.6525   22.5256 C   0  0  0  0  0  0  0  0  0  0  0  0
   12.1168  -19.3988   21.6737 O   0  0  0  0  0  0  0  0  0  0  0  0
    9.9928  -15.9385   24.6512 C   0  0  0  0  0  0  0  0  0  0  0  0
   10.8696  -15.0962   24.3303 O   0  0  0  0  0  0  0  0  0  0  0  0
   14.0357  -18.7487   22.6799 O   0  0  0  0  0  0  0  0  0  0  0  0
    6.5508  -12.7851   26.7219 C   0  0  0  0  0  0  0  0  0  0  0  0
    7.8395  -13.4079   26.2976 C   0  0  0  0  0  0  0  0  0  0  0  0
    8.5902  -14.0885   27.4128 C   0  0  2  0  0  0  0  0  0  0  0  0
    9.0479  -13.0137   28.3707 C   0  0  0  0  0  0  0  0  0  0  0  0
    9.8024  -14.8596   26.9099 C   0  0  2  0  0  0  0  0  0  0  0  0
    9.4113  -15.8818   25.9611 N   0  0  0  0  0  0  0  0  0  0  0  0
   10.4085  -15.5048   28.0982 C   0  0  0  0  0  0  0  0  0  0  0  0
   11.3041  -14.8673   28.9332 O   0  0  0  0  0  0  0  0  0  0  0  0
   10.0931  -16.6896   28.3602 O   0  0  0  0  0  0  0  0  0  0  0  0
  2  1  1  1
  2  4  1  0
  2  3  1  0
  5  6  1  1
  5  4  1  0
  7  5  1  0
  8  7  2  0
  9  7  1  0
 10  9  1  0
 11 12  1  0
 10 11  1  6
 12 13  1  0
 13 17  1  0
 13 14  2  0
 15 10  1  0
 15 16  2  0
 18 19  1  0
 19 20  1  0
 20 22  1  0
 20 21  1  1
 22 23  1  6
 23 15  1  0
 24 22  1  0
 25 24  1  0
 26 24  2  0
M  END
$$$$
