LEI.pdb
     RDKit          3D

 26 25  0  0  1  0  0  0  0  0999 V2000
    7.3898  -11.8596   18.9899 C   0  0  0  0  0  0  0  0  0  0  0  0
    7.8004  -13.2865   18.8132 C   0  0  1  0  0  0  0  0  0  0  0  0
    9.2780  -13.3367   18.4859 C   0  0  0  0  0  0  0  0  0  0  0  0
    7.5610  -14.1367   20.0183 C   0  0  0  0  0  0  0  0  0  0  0  0
    8.0309  -15.5549   19.8560 C   0  0  2  0  0  0  0  0  0  0  0  0
    7.0597  -16.4025   19.2282 N   0  0  0  0  0  0  0  0  0  0  0  0
    8.2962  -16.0889   21.2205 C   0  0  0  0  0  0  0  0  0  0  0  0
    7.3159  -16.1614   22.0089 O   0  0  0  0  0  0  0  0  0  0  0  0
    9.5973  -16.5001   21.6198 N   0  0  0  0  0  0  0  0  0  0  0  0
    9.8032  -16.9775   22.9475 C   0  0  1  0  0  0  0  0  0  0  0  0
   11.0650  -17.7971   22.9944 C   0  0  0  0  0  0  0  0  0  0  0  0
   11.2201  -18.4154   24.3438 C   0  0  0  0  0  0  0  0  0  0  0  0
   12.4842  -19.1958   24.4674 C   0  0  0  0  0  0  0  0  0  0  0  0
   13.3271  -19.2913   23.5403 O   0  0  0  0  0  0  0  0  0  0  0  0
    9.8089  -15.8885   23.9589 C   0  0  0  0  0  0  0  0  0  0  0  0
   10.4926  -14.8521   23.7601 O   0  0  0  0  0  0  0  0  0  0  0  0
   12.7587  -19.8542   25.6563 O   0  0  0  0  0  0  0  0  0  0  0  0
    6.5908  -11.9726   26.7164 C   0  0  0  0  0  0  0  0  0  0  0  0
    7.7382  -12.9053   26.9215 C   0  0  0  0  0  0  0  0  0  0  0  0
    7.8350  -13.9979   25.8883 C   0  0  2  0  0  0  0  0  0  0  0  0
    6.5516  -14.7925   25.9498 C   0  0  0  0  0  0  0  0  0  0  0  0
    9.0126  -14.9295   26.1379 C   0  0  2  0  0  0  0  0  0  0  0  0
    9.0417  -16.0025   25.1654 N   0  0  0  0  0  0  0  0  0  0  0  0
    8.8115  -15.5028   27.4894 C   0  0  0  0  0  0  0  0  0  0  0  0
    9.2204  -14.8742   28.6483 O   0  0  0  0  0  0  0  0  0  0  0  0
    8.2411  -16.6150   27.5872 O   0  0  0  0  0  0  0  0  0  0  0  0
  2  1  1  1
  2  4  1  0
  2  3  1  0
  5  6  1  1
  5  4  1  0
  7  5  1  0
  8  7  2  0
  9  7  1  0
 10  9  1  0
 11 12  1  0
 10 11  1  6
 12 13  1  0
 13 17  1  0
 13 14  2  0
 15 10  1  0
 15 16  2  0
 18 19  1  0
 19 20  1  0
 20 22  1  0
 20 21  1  1
 22 23  1  6
 23 15  1  0
 24 22  1  0
 25 24  1  0
 26 24  2  0
M  END
$$$$
