LEI.pdb
     RDKit          3D

 26 25  0  0  1  0  0  0  0  0999 V2000
    7.3080  -12.0381   18.9527 C   0  0  0  0  0  0  0  0  0  0  0  0
    7.7778  -13.4561   19.0171 C   0  0  1  0  0  0  0  0  0  0  0  0
    9.2682  -13.4694   19.2847 C   0  0  0  0  0  0  0  0  0  0  0  0
    7.1067  -14.2662   20.0781 C   0  0  0  0  0  0  0  0  0  0  0  0
    7.9354  -15.4209   20.5666 C   0  0  2  0  0  0  0  0  0  0  0  0
    7.6941  -16.6345   19.8423 N   0  0  0  0  0  0  0  0  0  0  0  0
    7.5692  -15.6531   21.9912 C   0  0  0  0  0  0  0  0  0  0  0  0
    7.2456  -14.6435   22.6723 O   0  0  0  0  0  0  0  0  0  0  0  0
    7.5829  -16.9554   22.5614 N   0  0  0  0  0  0  0  0  0  0  0  0
    7.2006  -17.1261   23.9244 C   0  0  1  0  0  0  0  0  0  0  0  0
    7.0474  -18.5940   24.2209 C   0  0  0  0  0  0  0  0  0  0  0  0
    6.6473  -18.7861   25.6458 C   0  0  0  0  0  0  0  0  0  0  0  0
    7.5123  -19.7761   26.3484 C   0  0  0  0  0  0  0  0  0  0  0  0
    8.0685  -19.5435   27.4510 O   0  0  0  0  0  0  0  0  0  0  0  0
    8.1311  -16.4608   24.8733 C   0  0  0  0  0  0  0  0  0  0  0  0
    9.3730  -16.5402   24.6930 O   0  0  0  0  0  0  0  0  0  0  0  0
    7.7238  -21.0189   25.7711 O   0  0  0  0  0  0  0  0  0  0  0  0
    5.8730  -12.0731   27.3978 C   0  0  0  0  0  0  0  0  0  0  0  0
    6.8306  -12.9474   26.6581 C   0  0  0  0  0  0  0  0  0  0  0  0
    7.6718  -13.8275   27.5460 C   0  0  2  0  0  0  0  0  0  0  0  0
    8.6069  -12.9271   28.3187 C   0  0  0  0  0  0  0  0  0  0  0  0
    8.4904  -14.8371   26.7539 C   0  0  2  0  0  0  0  0  0  0  0  0
    7.6309  -15.7251   25.9984 N   0  0  0  0  0  0  0  0  0  0  0  0
    9.2530  -15.6276   27.7486 C   0  0  0  0  0  0  0  0  0  0  0  0
   10.4360  -15.1962   28.3142 O   0  0  0  0  0  0  0  0  0  0  0  0
    8.8024  -16.7451   28.0953 O   0  0  0  0  0  0  0  0  0  0  0  0
  2  1  1  1
  2  4  1  0
  2  3  1  0
  5  6  1  6
  5  4  1  0
  7  5  1  0
  8  7  2  0
  9  7  1  0
 10  9  1  0
 11 12  1  0
 10 11  1  1
 12 13  1  0
 13 17  1  0
 13 14  2  0
 15 10  1  0
 15 16  2  0
 18 19  1  0
 19 20  1  0
 20 22  1  0
 20 21  1  6
 22 23  1  1
 23 15  1  0
 24 22  1  0
 25 24  1  0
 26 24  2  0
M  END
$$$$
