LEI.pdb
     RDKit          3D

 26 25  0  0  1  0  0  0  0  0999 V2000
    7.7594  -12.0272   19.6956 C   0  0  0  0  0  0  0  0  0  0  0  0
    7.8141  -13.5203   19.6355 C   0  0  1  0  0  0  0  0  0  0  0  0
    9.2288  -13.9484   19.3065 C   0  0  0  0  0  0  0  0  0  0  0  0
    7.4086  -14.1903   20.9080 C   0  0  0  0  0  0  0  0  0  0  0  0
    7.4472  -15.6909   20.8355 C   0  0  2  0  0  0  0  0  0  0  0  0
    6.2128  -16.2659   20.3870 N   0  0  0  0  0  0  0  0  0  0  0  0
    7.7157  -16.1906   22.2123 C   0  0  0  0  0  0  0  0  0  0  0  0
    6.8285  -15.9805   23.0822 O   0  0  0  0  0  0  0  0  0  0  0  0
    8.9192  -16.8754   22.5351 N   0  0  0  0  0  0  0  0  0  0  0  0
    9.1625  -17.2634   23.8855 C   0  0  1  0  0  0  0  0  0  0  0  0
   10.0947  -18.4452   23.9061 C   0  0  0  0  0  0  0  0  0  0  0  0
   10.3685  -18.8525   25.3156 C   0  0  0  0  0  0  0  0  0  0  0  0
   10.6043  -20.3185   25.4459 C   0  0  0  0  0  0  0  0  0  0  0  0
   11.2109  -20.9974   24.5797 O   0  0  0  0  0  0  0  0  0  0  0  0
    9.6627  -16.1450   24.7269 C   0  0  0  0  0  0  0  0  0  0  0  0
   10.5666  -15.3879   24.2904 O   0  0  0  0  0  0  0  0  0  0  0  0
   10.1382  -20.9808   26.5713 O   0  0  0  0  0  0  0  0  0  0  0  0
    7.1305  -12.0972   26.4072 C   0  0  0  0  0  0  0  0  0  0  0  0
    8.2149  -13.0765   26.1010 C   0  0  0  0  0  0  0  0  0  0  0  0
    8.6916  -13.8602   27.2964 C   0  0  2  0  0  0  0  0  0  0  0  0
    9.3286  -12.8804   28.2538 C   0  0  0  0  0  0  0  0  0  0  0  0
    9.7101  -14.9275   26.9217 C   0  0  2  0  0  0  0  0  0  0  0  0
    9.1266  -15.9150   26.0373 N   0  0  0  0  0  0  0  0  0  0  0  0
   10.1106  -15.5844   28.1881 C   0  0  0  0  0  0  0  0  0  0  0  0
   11.1640  -15.1502   28.9675 O   0  0  0  0  0  0  0  0  0  0  0  0
    9.4610  -16.5854   28.5728 O   0  0  0  0  0  0  0  0  0  0  0  0
  2  1  1  1
  2  4  1  0
  2  3  1  0
  5  6  1  1
  5  4  1  0
  7  5  1  0
  8  7  2  0
  9  7  1  0
 10  9  1  0
 11 12  1  0
 10 11  1  6
 12 13  1  0
 13 17  1  0
 13 14  2  0
 15 10  1  0
 15 16  2  0
 18 19  1  0
 19 20  1  0
 20 22  1  0
 20 21  1  1
 22 23  1  6
 23 15  1  0
 24 22  1  0
 25 24  1  0
 26 24  2  0
M  END
$$$$
