LEI.pdb
     RDKit          3D

 26 25  0  0  1  0  0  0  0  0999 V2000
    9.7602  -12.9199   19.7538 C   0  0  0  0  0  0  0  0  0  0  0  0
    8.4469  -13.3781   20.3024 C   0  0  1  0  0  0  0  0  0  0  0  0
    7.4699  -12.2216   20.2719 C   0  0  0  0  0  0  0  0  0  0  0  0
    7.8430  -14.5180   19.5484 C   0  0  0  0  0  0  0  0  0  0  0  0
    8.5887  -15.8118   19.7167 C   0  0  2  0  0  0  0  0  0  0  0  0
    8.0501  -16.8801   18.9265 N   0  0  0  0  0  0  0  0  0  0  0  0
    8.4801  -16.1984   21.1506 C   0  0  0  0  0  0  0  0  0  0  0  0
    7.3243  -16.4279   21.5971 O   0  0  0  0  0  0  0  0  0  0  0  0
    9.6280  -16.3051   21.9827 N   0  0  0  0  0  0  0  0  0  0  0  0
    9.4853  -16.8043   23.3107 C   0  0  1  0  0  0  0  0  0  0  0  0
   10.3080  -18.0553   23.4660 C   0  0  0  0  0  0  0  0  0  0  0  0
   11.7454  -17.7551   23.1991 C   0  0  0  0  0  0  0  0  0  0  0  0
   12.5897  -18.9836   23.1971 C   0  0  0  0  0  0  0  0  0  0  0  0
   12.7374  -19.7185   24.2057 O   0  0  0  0  0  0  0  0  0  0  0  0
    9.8123  -15.7907   24.3473 C   0  0  0  0  0  0  0  0  0  0  0  0
   10.8082  -15.0381   24.1960 O   0  0  0  0  0  0  0  0  0  0  0  0
   13.2510  -19.3476   22.0341 O   0  0  0  0  0  0  0  0  0  0  0  0
    6.0289  -12.6116   26.0500 C   0  0  0  0  0  0  0  0  0  0  0  0
    7.3459  -13.2373   25.7303 C   0  0  0  0  0  0  0  0  0  0  0  0
    8.0170  -13.8943   26.9087 C   0  0  2  0  0  0  0  0  0  0  0  0
    8.3663  -12.8045   27.8947 C   0  0  0  0  0  0  0  0  0  0  0  0
    9.2856  -14.6370   26.5138 C   0  0  2  0  0  0  0  0  0  0  0  0
    9.0042  -15.6572   25.5248 N   0  0  0  0  0  0  0  0  0  0  0  0
    9.7923  -15.2820   27.7479 C   0  0  0  0  0  0  0  0  0  0  0  0
   10.6170  -14.6446   28.6530 O   0  0  0  0  0  0  0  0  0  0  0  0
    9.4560  -16.4666   27.9836 O   0  0  0  0  0  0  0  0  0  0  0  0
  2  1  1  6
  2  4  1  0
  2  3  1  0
  5  6  1  6
  5  4  1  0
  7  5  1  0
  8  7  2  0
  9  7  1  0
 10  9  1  0
 11 12  1  0
 10 11  1  6
 12 13  1  0
 13 17  1  0
 13 14  2  0
 15 10  1  0
 15 16  2  0
 18 19  1  0
 19 20  1  0
 20 22  1  0
 20 21  1  1
 22 23  1  6
 23 15  1  0
 24 22  1  0
 25 24  1  0
 26 24  2  0
M  END
$$$$
