LEI.pdb
     RDKit          3D

 26 25  0  0  1  0  0  0  0  0999 V2000
    7.5779  -11.9198   19.7861 C   0  0  0  0  0  0  0  0  0  0  0  0
    7.7011  -13.4072   19.6951 C   0  0  1  0  0  0  0  0  0  0  0  0
    9.0500  -13.7541   19.1009 C   0  0  0  0  0  0  0  0  0  0  0  0
    7.5786  -14.1042   21.0111 C   0  0  0  0  0  0  0  0  0  0  0  0
    7.6179  -15.6025   20.9033 C   0  0  2  0  0  0  0  0  0  0  0  0
    6.3622  -16.1730   20.5117 N   0  0  0  0  0  0  0  0  0  0  0  0
    7.9646  -16.1313   22.2515 C   0  0  0  0  0  0  0  0  0  0  0  0
    7.0784  -16.0527   23.1439 O   0  0  0  0  0  0  0  0  0  0  0  0
    9.2387  -16.7006   22.5237 N   0  0  0  0  0  0  0  0  0  0  0  0
    9.5470  -17.1230   23.8503 C   0  0  1  0  0  0  0  0  0  0  0  0
   10.6155  -18.1822   23.8024 C   0  0  0  0  0  0  0  0  0  0  0  0
   10.8667  -18.7137   25.1742 C   0  0  0  0  0  0  0  0  0  0  0  0
   11.9065  -19.7817   25.1862 C   0  0  0  0  0  0  0  0  0  0  0  0
   12.5239  -20.1524   24.1563 O   0  0  0  0  0  0  0  0  0  0  0  0
    9.9204  -15.9954   24.7436 C   0  0  0  0  0  0  0  0  0  0  0  0
   10.7805  -15.1578   24.3697 O   0  0  0  0  0  0  0  0  0  0  0  0
   12.2198  -20.4068   26.3835 O   0  0  0  0  0  0  0  0  0  0  0  0
    6.9482  -12.2473   26.1065 C   0  0  0  0  0  0  0  0  0  0  0  0
    8.1599  -13.1025   25.9363 C   0  0  0  0  0  0  0  0  0  0  0  0
    8.5924  -13.8134   27.1926 C   0  0  2  0  0  0  0  0  0  0  0  0
    9.0574  -12.7598   28.1703 C   0  0  0  0  0  0  0  0  0  0  0  0
    9.7259  -14.7976   26.9411 C   0  0  2  0  0  0  0  0  0  0  0  0
    9.3110  -15.8474   26.0336 N   0  0  0  0  0  0  0  0  0  0  0  0
   10.0592  -15.3943   28.2559 C   0  0  0  0  0  0  0  0  0  0  0  0
   10.9168  -14.8029   29.1616 O   0  0  0  0  0  0  0  0  0  0  0  0
    9.5368  -16.4919   28.5630 O   0  0  0  0  0  0  0  0  0  0  0  0
  2  1  1  1
  2  4  1  0
  2  3  1  0
  5  6  1  1
  5  4  1  0
  7  5  1  0
  8  7  2  0
  9  7  1  0
 10  9  1  0
 11 12  1  0
 10 11  1  6
 12 13  1  0
 13 17  1  0
 13 14  2  0
 15 10  1  0
 15 16  2  0
 18 19  1  0
 19 20  1  0
 20 22  1  0
 20 21  1  1
 22 23  1  6
 23 15  1  0
 24 22  1  0
 25 24  1  0
 26 24  2  0
M  END
$$$$
