LEI.pdb
     RDKit          3D

 26 25  0  0  1  0  0  0  0  0999 V2000
    9.0917  -13.4628   19.2166 C   0  0  0  0  0  0  0  0  0  0  0  0
    8.2527  -13.3681   20.4507 C   0  0  1  0  0  0  0  0  0  0  0  0
    7.7105  -11.9594   20.5706 C   0  0  0  0  0  0  0  0  0  0  0  0
    7.0970  -14.3151   20.4684 C   0  0  0  0  0  0  0  0  0  0  0  0
    7.5052  -15.7613   20.4516 C   0  0  2  0  0  0  0  0  0  0  0  0
    6.4289  -16.6473   20.1161 N   0  0  0  0  0  0  0  0  0  0  0  0
    7.9727  -16.1020   21.8238 C   0  0  0  0  0  0  0  0  0  0  0  0
    7.1130  -16.0801   22.7448 O   0  0  0  0  0  0  0  0  0  0  0  0
    9.3289  -16.4379   22.0871 N   0  0  0  0  0  0  0  0  0  0  0  0
    9.6987  -16.8839   23.3899 C   0  0  1  0  0  0  0  0  0  0  0  0
   10.9142  -17.7663   23.2903 C   0  0  0  0  0  0  0  0  0  0  0  0
   11.3196  -18.2291   24.6500 C   0  0  0  0  0  0  0  0  0  0  0  0
   12.5126  -19.1220   24.6121 C   0  0  0  0  0  0  0  0  0  0  0  0
   13.4569  -19.0440   25.4376 O   0  0  0  0  0  0  0  0  0  0  0  0
    9.8996  -15.7657   24.3482 C   0  0  0  0  0  0  0  0  0  0  0  0
   10.6602  -14.8109   24.0467 O   0  0  0  0  0  0  0  0  0  0  0  0
   12.6006  -20.0911   23.6244 O   0  0  0  0  0  0  0  0  0  0  0  0
    6.0702  -12.9219   26.3817 C   0  0  0  0  0  0  0  0  0  0  0  0
    7.4039  -13.4472   25.9651 C   0  0  0  0  0  0  0  0  0  0  0  0
    8.1844  -14.0967   27.0785 C   0  0  2  0  0  0  0  0  0  0  0  0
    8.4942  -13.0253   28.0974 C   0  0  0  0  0  0  0  0  0  0  0  0
    9.4871  -14.7142   26.5901 C   0  0  2  0  0  0  0  0  0  0  0  0
    9.2351  -15.7593   25.6193 N   0  0  0  0  0  0  0  0  0  0  0  0
   10.1412  -15.3042   27.7816 C   0  0  0  0  0  0  0  0  0  0  0  0
   11.0228  -14.6091   28.5849 O   0  0  0  0  0  0  0  0  0  0  0  0
    9.8820  -16.4949   28.0767 O   0  0  0  0  0  0  0  0  0  0  0  0
  2  1  1  6
  2  4  1  0
  2  3  1  0
  5  6  1  1
  5  4  1  0
  7  5  1  0
  8  7  2  0
  9  7  1  0
 10  9  1  0
 11 12  1  0
 10 11  1  6
 12 13  1  0
 13 17  1  0
 13 14  2  0
 15 10  1  0
 15 16  2  0
 18 19  1  0
 19 20  1  0
 20 22  1  0
 20 21  1  1
 22 23  1  6
 23 15  1  0
 24 22  1  0
 25 24  1  0
 26 24  2  0
M  END
$$$$
