LEI.pdb
     RDKit          3D

 26 25  0  0  1  0  0  0  0  0999 V2000
    8.3451  -13.7886   18.5172 C   0  0  0  0  0  0  0  0  0  0  0  0
    8.4554  -13.4526   19.9700 C   0  0  1  0  0  0  0  0  0  0  0  0
    8.3314  -11.9530   20.1394 C   0  0  0  0  0  0  0  0  0  0  0  0
    7.4145  -14.1051   20.8206 C   0  0  0  0  0  0  0  0  0  0  0  0
    7.4791  -15.6064   20.8031 C   0  0  2  0  0  0  0  0  0  0  0  0
    6.2028  -16.2233   20.5882 N   0  0  0  0  0  0  0  0  0  0  0  0
    7.9827  -16.0403   22.1356 C   0  0  0  0  0  0  0  0  0  0  0  0
    7.1575  -16.0429   23.0879 O   0  0  0  0  0  0  0  0  0  0  0  0
    9.3349  -16.4350   22.3289 N   0  0  0  0  0  0  0  0  0  0  0  0
    9.7401  -16.9453   23.5971 C   0  0  1  0  0  0  0  0  0  0  0  0
   10.9324  -17.8462   23.4161 C   0  0  0  0  0  0  0  0  0  0  0  0
   11.4026  -18.3405   24.7435 C   0  0  0  0  0  0  0  0  0  0  0  0
   12.6097  -19.2076   24.6298 C   0  0  0  0  0  0  0  0  0  0  0  0
   13.2734  -19.5966   25.6235 O   0  0  0  0  0  0  0  0  0  0  0  0
    9.9978  -15.8746   24.5953 C   0  0  0  0  0  0  0  0  0  0  0  0
   10.8061  -14.9494   24.3275 O   0  0  0  0  0  0  0  0  0  0  0  0
   13.0345  -19.6137   23.3741 O   0  0  0  0  0  0  0  0  0  0  0  0
    6.1339  -13.1245   26.5756 C   0  0  0  0  0  0  0  0  0  0  0  0
    7.5042  -13.5772   26.1937 C   0  0  0  0  0  0  0  0  0  0  0  0
    8.2767  -14.2163   27.3186 C   0  0  2  0  0  0  0  0  0  0  0  0
    8.5822  -13.1346   28.3280 C   0  0  0  0  0  0  0  0  0  0  0  0
    9.5813  -14.8411   26.8447 C   0  0  2  0  0  0  0  0  0  0  0  0
    9.3346  -15.8809   25.8670 N   0  0  0  0  0  0  0  0  0  0  0  0
   10.2159  -15.4398   28.0424 C   0  0  0  0  0  0  0  0  0  0  0  0
   11.0463  -14.7369   28.8921 O   0  0  0  0  0  0  0  0  0  0  0  0
    9.9883  -16.6459   28.2987 O   0  0  0  0  0  0  0  0  0  0  0  0
  2  1  1  6
  2  4  1  0
  2  3  1  0
  5  6  1  1
  5  4  1  0
  7  5  1  0
  8  7  2  0
  9  7  1  0
 10  9  1  0
 11 12  1  0
 10 11  1  6
 12 13  1  0
 13 17  1  0
 13 14  2  0
 15 10  1  0
 15 16  2  0
 18 19  1  0
 19 20  1  0
 20 22  1  0
 20 21  1  1
 22 23  1  6
 23 15  1  0
 24 22  1  0
 25 24  1  0
 26 24  2  0
M  END
$$$$
