TAC.pdb
     RDKit          3D

 19 18  0  0  1  0  0  0  0  0999 V2000
   13.1493  -10.9650  -12.5361 C   0  0  0  0  0  0  0  0  0  0  0  0
   13.4809  -12.0905  -11.5770 C   0  0  1  0  0  0  0  0  0  0  0  0
   12.8299  -13.2313  -12.0699 O   0  0  0  0  0  0  0  0  0  0  0  0
   14.9804  -12.2639  -11.5935 C   0  0  2  0  0  0  0  0  0  0  0  0
   15.3346  -13.4741  -10.9008 N   0  0  0  0  0  0  0  0  0  0  0  0
   15.6972  -11.1242  -10.9984 C   0  0  0  0  0  0  0  0  0  0  0  0
   15.4292  -10.7412   -9.8250 O   0  0  0  0  0  0  0  0  0  0  0  0
   18.5608   -8.9250  -12.0618 C   0  0  0  0  0  0  0  0  0  0  0  0
   17.4279   -9.2847  -11.1014 C   0  0  2  0  0  0  0  0  0  0  0  0
   16.7134  -10.3904  -11.6763 N   0  0  0  0  0  0  0  0  0  0  0  0
   16.5415   -8.0797  -10.9405 C   0  0  0  0  0  0  0  0  0  0  0  0
   15.6921   -7.8010  -11.8236 O   0  0  0  0  0  0  0  0  0  0  0  0
   16.6248   -7.2322   -9.8181 N   0  0  0  0  0  0  0  0  0  0  0  0
   15.7969   -6.0961   -9.5673 C   0  0  1  0  0  0  0  0  0  0  0  0
   15.6456   -5.7758   -8.0999 C   0  0  0  0  0  0  0  0  0  0  0  0
   14.9746   -7.2642   -7.2849 S   0  0  0  0  0  0  0  0  0  0  0  0
   16.1925   -4.9042  -10.3535 C   0  0  0  0  0  0  0  0  0  0  0  0
   17.2869   -4.8745  -10.9615 O   0  0  0  0  0  0  0  0  0  0  0  0
   15.3628   -3.8016  -10.4323 O   0  0  0  0  0  0  0  0  0  0  0  0
  2  1  1  6
  2  3  1  0
  4  6  1  0
  4  2  1  0
  4  5  1  1
  6 10  1  0
  7  6  2  0
  9  8  1  6
 10  9  1  0
 11  9  1  0
 12 11  2  0
 13 11  1  0
 14 13  1  0
 14 17  1  0
 14 15  1  1
 16 15  1  0
 17 19  1  0
 18 17  2  0
M  END
$$$$
