TAC.pdb
     RDKit          3D

 19 18  0  0  1  0  0  0  0  0999 V2000
   21.1676  -12.1999  -15.6629 C   0  0  0  0  0  0  0  0  0  0  0  0
   20.3426  -12.5177  -16.8936 C   0  0  1  0  0  0  0  0  0  0  0  0
   20.1327  -13.9047  -16.8785 O   0  0  0  0  0  0  0  0  0  0  0  0
   19.0409  -11.7640  -16.7654 C   0  0  2  0  0  0  0  0  0  0  0  0
   18.1144  -12.2260  -17.7645 N   0  0  0  0  0  0  0  0  0  0  0  0
   19.2074  -10.3059  -16.8803 C   0  0  0  0  0  0  0  0  0  0  0  0
   20.0166   -9.8179  -17.7185 O   0  0  0  0  0  0  0  0  0  0  0  0
   17.4655   -7.2890  -15.4984 C   0  0  0  0  0  0  0  0  0  0  0  0
   18.6816   -7.9427  -16.1536 C   0  0  2  0  0  0  0  0  0  0  0  0
   18.4936   -9.3651  -16.0828 N   0  0  0  0  0  0  0  0  0  0  0  0
   19.9132   -7.5117  -15.4047 C   0  0  0  0  0  0  0  0  0  0  0  0
   20.2434   -8.1006  -14.3448 O   0  0  0  0  0  0  0  0  0  0  0  0
   20.7298   -6.4535  -15.8503 N   0  0  0  0  0  0  0  0  0  0  0  0
   21.9784   -6.0649  -15.2770 C   0  0  1  0  0  0  0  0  0  0  0  0
   23.0376   -5.7469  -16.3045 C   0  0  0  0  0  0  0  0  0  0  0  0
   24.5046   -5.1417  -15.4038 S   0  0  0  0  0  0  0  0  0  0  0  0
   21.8448   -4.9855  -14.2710 C   0  0  0  0  0  0  0  0  0  0  0  0
   21.0879   -4.0095  -14.4780 O   0  0  0  0  0  0  0  0  0  0  0  0
   22.5520   -5.0330  -13.0844 O   0  0  0  0  0  0  0  0  0  0  0  0
  2  1  1  1
  2  3  1  0
  4  6  1  0
  4  2  1  0
  4  5  1  6
  6 10  1  0
  7  6  2  0
  9  8  1  1
 10  9  1  0
 11  9  1  0
 12 11  2  0
 13 11  1  0
 14 13  1  0
 14 17  1  0
 14 15  1  6
 16 15  1  0
 17 19  1  0
 18 17  2  0
M  END
$$$$
