TAC.pdb
     RDKit          3D

 19 18  0  0  1  0  0  0  0  0999 V2000
   13.7874   -9.2175  -16.3664 C   0  0  0  0  0  0  0  0  0  0  0  0
   14.8897   -8.2236  -16.0602 C   0  0  1  0  0  0  0  0  0  0  0  0
   15.4960   -8.6624  -14.8738 O   0  0  0  0  0  0  0  0  0  0  0  0
   15.8579   -8.2600  -17.2178 C   0  0  2  0  0  0  0  0  0  0  0  0
   16.3420   -9.6024  -17.4010 N   0  0  0  0  0  0  0  0  0  0  0  0
   16.9956   -7.3420  -17.0445 C   0  0  0  0  0  0  0  0  0  0  0  0
   18.1621   -7.7939  -16.8702 O   0  0  0  0  0  0  0  0  0  0  0  0
   17.4249   -3.5977  -17.0619 C   0  0  0  0  0  0  0  0  0  0  0  0
   17.9871   -5.0173  -16.9995 C   0  0  2  0  0  0  0  0  0  0  0  0
   16.8732   -5.9224  -17.0593 N   0  0  0  0  0  0  0  0  0  0  0  0
   18.7517   -5.1690  -15.7127 C   0  0  0  0  0  0  0  0  0  0  0  0
   18.1739   -5.6037  -14.6850 O   0  0  0  0  0  0  0  0  0  0  0  0
   20.1171   -4.8373  -15.6083 N   0  0  0  0  0  0  0  0  0  0  0  0
   20.9421   -5.0504  -14.4625 C   0  0  1  0  0  0  0  0  0  0  0  0
   21.3430   -6.4931  -14.2715 C   0  0  0  0  0  0  0  0  0  0  0  0
   22.3490   -6.5813  -12.7516 S   0  0  0  0  0  0  0  0  0  0  0  0
   22.1115   -4.1422  -14.4117 C   0  0  0  0  0  0  0  0  0  0  0  0
   22.8188   -3.9539  -15.4279 O   0  0  0  0  0  0  0  0  0  0  0  0
   22.4460   -3.4844  -13.2430 O   0  0  0  0  0  0  0  0  0  0  0  0
  2  1  1  6
  2  3  1  0
  4  6  1  0
  4  2  1  0
  4  5  1  1
  6 10  1  0
  7  6  2  0
  9  8  1  1
 10  9  1  0
 11  9  1  0
 12 11  2  0
 13 11  1  0
 14 13  1  0
 14 17  1  0
 14 15  1  6
 16 15  1  0
 17 19  1  0
 18 17  2  0
M  END
$$$$
