TAC.pdb
     RDKit          3D

 19 18  0  0  1  0  0  0  0  0999 V2000
   12.7159   -8.9137  -11.4922 C   0  0  0  0  0  0  0  0  0  0  0  0
   13.2134   -9.0922  -10.0719 C   0  0  1  0  0  0  0  0  0  0  0  0
   12.5363  -10.2070   -9.5556 O   0  0  0  0  0  0  0  0  0  0  0  0
   14.7007   -9.3395  -10.1476 C   0  0  2  0  0  0  0  0  0  0  0  0
   15.1855   -9.7678   -8.8625 N   0  0  0  0  0  0  0  0  0  0  0  0
   15.4576   -8.1587  -10.5946 C   0  0  0  0  0  0  0  0  0  0  0  0
   15.4080   -7.7849  -11.8000 O   0  0  0  0  0  0  0  0  0  0  0  0
   17.2263   -5.3173   -8.9714 C   0  0  0  0  0  0  0  0  0  0  0  0
   17.0635   -6.2538  -10.1680 C   0  0  2  0  0  0  0  0  0  0  0  0
   16.2762   -7.3734   -9.7320 N   0  0  0  0  0  0  0  0  0  0  0  0
   18.4313   -6.6857  -10.6222 C   0  0  0  0  0  0  0  0  0  0  0  0
   18.8916   -7.7982  -10.2624 O   0  0  0  0  0  0  0  0  0  0  0  0
   19.2353   -5.8789  -11.4515 N   0  0  0  0  0  0  0  0  0  0  0  0
   20.4404   -6.2884  -12.0989 C   0  0  1  0  0  0  0  0  0  0  0  0
   20.3061   -7.5919  -12.8481 C   0  0  0  0  0  0  0  0  0  0  0  0
   21.9287   -7.9574  -13.5986 S   0  0  0  0  0  0  0  0  0  0  0  0
   21.0361   -5.2264  -12.9430 C   0  0  0  0  0  0  0  0  0  0  0  0
   20.3429   -4.6222  -13.7932 O   0  0  0  0  0  0  0  0  0  0  0  0
   22.3677   -4.8808  -12.8099 O   0  0  0  0  0  0  0  0  0  0  0  0
  2  1  1  6
  2  3  1  0
  4  6  1  0
  4  2  1  0
  4  5  1  1
  6 10  1  0
  7  6  2  0
  9  8  1  1
 10  9  1  0
 11  9  1  0
 12 11  2  0
 13 11  1  0
 14 13  1  0
 14 17  1  0
 14 15  1  6
 16 15  1  0
 17 19  1  0
 18 17  2  0
M  END
$$$$
