TAC.pdb
     RDKit          3D

 19 18  0  0  1  0  0  0  0  0999 V2000
   17.2980  -10.0103  -15.3843 C   0  0  0  0  0  0  0  0  0  0  0  0
   18.5105  -10.9187  -15.4201 C   0  0  1  0  0  0  0  0  0  0  0  0
   18.0205  -12.2310  -15.3445 O   0  0  0  0  0  0  0  0  0  0  0  0
   19.2157  -10.6706  -16.7316 C   0  0  2  0  0  0  0  0  0  0  0  0
   20.2141  -11.6848  -16.9429 N   0  0  0  0  0  0  0  0  0  0  0  0
   19.8385   -9.3388  -16.8062 C   0  0  0  0  0  0  0  0  0  0  0  0
   20.8857   -9.0838  -16.1476 O   0  0  0  0  0  0  0  0  0  0  0  0
   19.2197   -6.2275  -18.8318 C   0  0  0  0  0  0  0  0  0  0  0  0
   19.9669   -6.9938  -17.7410 C   0  0  2  0  0  0  0  0  0  0  0  0
   19.3260   -8.2716  -17.5994 N   0  0  0  0  0  0  0  0  0  0  0  0
   19.8949   -6.1970  -16.4669 C   0  0  0  0  0  0  0  0  0  0  0  0
   18.8391   -6.1943  -15.7853 O   0  0  0  0  0  0  0  0  0  0  0  0
   20.9837   -5.4376  -15.9950 N   0  0  0  0  0  0  0  0  0  0  0  0
   21.0390   -4.7440  -14.7481 C   0  0  1  0  0  0  0  0  0  0  0  0
   22.3839   -4.8366  -14.0689 C   0  0  0  0  0  0  0  0  0  0  0  0
   22.6444   -6.5845  -13.6143 S   0  0  0  0  0  0  0  0  0  0  0  0
   20.5637   -3.3438  -14.8406 C   0  0  0  0  0  0  0  0  0  0  0  0
   20.5506   -2.7450  -15.9405 O   0  0  0  0  0  0  0  0  0  0  0  0
   20.1253   -2.6699  -13.7163 O   0  0  0  0  0  0  0  0  0  0  0  0
  2  1  1  6
  2  3  1  0
  4  6  1  0
  4  2  1  0
  4  5  1  1
  6 10  1  0
  7  6  2  0
  9  8  1  6
 10  9  1  0
 11  9  1  0
 12 11  2  0
 13 11  1  0
 14 13  1  0
 14 17  1  0
 14 15  1  6
 16 15  1  0
 17 19  1  0
 18 17  2  0
M  END
$$$$
