TAC.pdb
     RDKit          3D

 19 18  0  0  1  0  0  0  0  0999 V2000
   20.8981  -11.5563  -15.3773 C   0  0  0  0  0  0  0  0  0  0  0  0
   22.4057  -11.7063  -15.3475 C   0  0  1  0  0  0  0  0  0  0  0  0
   22.6607  -13.0571  -15.0675 O   0  0  0  0  0  0  0  0  0  0  0  0
   22.9198  -11.3223  -16.7140 C   0  0  2  0  0  0  0  0  0  0  0  0
   24.2940  -11.7274  -16.8448 N   0  0  0  0  0  0  0  0  0  0  0  0
   22.7994   -9.8812  -16.9891 C   0  0  0  0  0  0  0  0  0  0  0  0
   23.6603   -9.0705  -16.5453 O   0  0  0  0  0  0  0  0  0  0  0  0
   20.2814   -7.7105  -18.7640 C   0  0  0  0  0  0  0  0  0  0  0  0
   21.5560   -7.8974  -17.9419 C   0  0  2  0  0  0  0  0  0  0  0  0
   21.7395   -9.3093  -17.7508 N   0  0  0  0  0  0  0  0  0  0  0  0
   21.3837   -7.1816  -16.6298 C   0  0  0  0  0  0  0  0  0  0  0  0
   20.8906   -7.7849  -15.6440 O   0  0  0  0  0  0  0  0  0  0  0  0
   21.7596   -5.8350  -16.4554 N   0  0  0  0  0  0  0  0  0  0  0  0
   21.7458   -5.1182  -15.2205 C   0  0  1  0  0  0  0  0  0  0  0  0
   22.6385   -5.7242  -14.1648 C   0  0  0  0  0  0  0  0  0  0  0  0
   22.5403   -4.6541  -12.6901 S   0  0  0  0  0  0  0  0  0  0  0  0
   21.9968   -3.6677  -15.3880 C   0  0  0  0  0  0  0  0  0  0  0  0
   22.8638   -3.2582  -16.1937 O   0  0  0  0  0  0  0  0  0  0  0  0
   21.2802   -2.7372  -14.6593 O   0  0  0  0  0  0  0  0  0  0  0  0
  2  1  1  6
  2  3  1  0
  4  6  1  0
  4  2  1  0
  4  5  1  1
  6 10  1  0
  7  6  2  0
  9  8  1  6
 10  9  1  0
 11  9  1  0
 12 11  2  0
 13 11  1  0
 14 13  1  0
 14 17  1  0
 14 15  1  1
 16 15  1  0
 17 19  1  0
 18 17  2  0
M  END
$$$$
