TAC.pdb
     RDKit          3D

 19 18  0  0  1  0  0  0  0  0999 V2000
   23.7282  -10.6899  -16.4089 C   0  0  0  0  0  0  0  0  0  0  0  0
   22.8446  -11.0129  -17.5969 C   0  0  1  0  0  0  0  0  0  0  0  0
   23.3483  -12.1998  -18.1499 O   0  0  0  0  0  0  0  0  0  0  0  0
   21.4423  -11.2037  -17.0716 C   0  0  2  0  0  0  0  0  0  0  0  0
   20.6092  -11.7551  -18.1069 N   0  0  0  0  0  0  0  0  0  0  0  0
   20.8440   -9.9577  -16.5650 C   0  0  0  0  0  0  0  0  0  0  0  0
   20.6098   -8.9950  -17.3484 O   0  0  0  0  0  0  0  0  0  0  0  0
   19.3372   -8.8111  -13.3313 C   0  0  0  0  0  0  0  0  0  0  0  0
   19.9951   -8.5074  -14.6767 C   0  0  2  0  0  0  0  0  0  0  0  0
   20.4950   -9.7487  -15.1993 N   0  0  0  0  0  0  0  0  0  0  0  0
   21.1058   -7.5182  -14.4494 C   0  0  0  0  0  0  0  0  0  0  0  0
   22.3003   -7.9076  -14.4270 O   0  0  0  0  0  0  0  0  0  0  0  0
   20.8585   -6.1446  -14.2565 N   0  0  0  0  0  0  0  0  0  0  0  0
   21.8315   -5.1026  -14.3364 C   0  0  1  0  0  0  0  0  0  0  0  0
   22.6160   -5.1115  -15.6260 C   0  0  0  0  0  0  0  0  0  0  0  0
   23.8664   -3.7875  -15.5110 S   0  0  0  0  0  0  0  0  0  0  0  0
   21.2732   -3.7626  -14.0403 C   0  0  0  0  0  0  0  0  0  0  0  0
   20.2316   -3.3643  -14.6104 O   0  0  0  0  0  0  0  0  0  0  0  0
   21.8894   -2.9250  -13.1299 O   0  0  0  0  0  0  0  0  0  0  0  0
  2  1  1  1
  2  3  1  0
  4  6  1  0
  4  2  1  0
  4  5  1  6
  6 10  1  0
  7  6  2  0
  9  8  1  1
 10  9  1  0
 11  9  1  0
 12 11  2  0
 13 11  1  0
 14 13  1  0
 14 17  1  0
 14 15  1  6
 16 15  1  0
 17 19  1  0
 18 17  2  0
M  END
$$$$
