TAC.pdb
     RDKit          3D

 19 18  0  0  1  0  0  0  0  0999 V2000
   18.3714  -10.7147  -14.0581 C   0  0  0  0  0  0  0  0  0  0  0  0
   18.7640  -10.9415  -15.5041 C   0  0  1  0  0  0  0  0  0  0  0  0
   18.6437  -12.3205  -15.7321 O   0  0  0  0  0  0  0  0  0  0  0  0
   17.7968  -10.1574  -16.3576 C   0  0  2  0  0  0  0  0  0  0  0  0
   17.8716  -10.6166  -17.7190 N   0  0  0  0  0  0  0  0  0  0  0  0
   18.0352   -8.7056  -16.3104 C   0  0  0  0  0  0  0  0  0  0  0  0
   19.1083   -8.2178  -16.7640 O   0  0  0  0  0  0  0  0  0  0  0  0
   16.0564   -5.7094  -15.1708 C   0  0  0  0  0  0  0  0  0  0  0  0
   17.3389   -6.3552  -15.6934 C   0  0  2  0  0  0  0  0  0  0  0  0
   17.1062   -7.7708  -15.7682 N   0  0  0  0  0  0  0  0  0  0  0  0
   18.4566   -6.0302  -14.7401 C   0  0  0  0  0  0  0  0  0  0  0  0
   18.6810   -6.7777  -13.7553 O   0  0  0  0  0  0  0  0  0  0  0  0
   19.2801   -4.8994  -14.9079 N   0  0  0  0  0  0  0  0  0  0  0  0
   20.4078   -4.5613  -14.0999 C   0  0  1  0  0  0  0  0  0  0  0  0
   21.4970   -5.6062  -14.1224 C   0  0  0  0  0  0  0  0  0  0  0  0
   22.8677   -4.9850  -13.0903 S   0  0  0  0  0  0  0  0  0  0  0  0
   20.9380   -3.2065  -14.3801 C   0  0  0  0  0  0  0  0  0  0  0  0
   21.5579   -2.5683  -13.4988 O   0  0  0  0  0  0  0  0  0  0  0  0
   20.7596   -2.6194  -15.6186 O   0  0  0  0  0  0  0  0  0  0  0  0
  2  1  1  1
  2  3  1  0
  4  6  1  0
  4  2  1  0
  4  5  1  6
  6 10  1  0
  7  6  2  0
  9  8  1  1
 10  9  1  0
 11  9  1  0
 12 11  2  0
 13 11  1  0
 14 13  1  0
 14 17  1  0
 14 15  1  6
 16 15  1  0
 17 19  1  0
 18 17  2  0
M  END
$$$$
