TAC.pdb
     RDKit          3D

 19 18  0  0  1  0  0  0  0  0999 V2000
   18.5618  -11.2286  -14.9648 C   0  0  0  0  0  0  0  0  0  0  0  0
   19.8154  -11.6505  -15.7045 C   0  0  1  0  0  0  0  0  0  0  0  0
   19.8034  -13.0530  -15.7296 O   0  0  0  0  0  0  0  0  0  0  0  0
   19.7267  -11.0755  -17.0975 C   0  0  2  0  0  0  0  0  0  0  0  0
   20.7116  -11.6986  -17.9411 N   0  0  0  0  0  0  0  0  0  0  0  0
   19.9010   -9.6141  -17.1281 C   0  0  0  0  0  0  0  0  0  0  0  0
   21.0576   -9.1067  -17.1135 O   0  0  0  0  0  0  0  0  0  0  0  0
   17.5821   -6.6523  -17.3449 C   0  0  0  0  0  0  0  0  0  0  0  0
   18.9737   -7.2633  -17.1854 C   0  0  2  0  0  0  0  0  0  0  0  0
   18.8163   -8.6911  -17.1751 N   0  0  0  0  0  0  0  0  0  0  0  0
   19.5659   -6.7649  -15.8953 C   0  0  0  0  0  0  0  0  0  0  0  0
   19.4751   -7.4590  -14.8517 O   0  0  0  0  0  0  0  0  0  0  0  0
   20.2322   -5.5267  -15.8051 N   0  0  0  0  0  0  0  0  0  0  0  0
   20.8863   -5.0140  -14.6441 C   0  0  1  0  0  0  0  0  0  0  0  0
   21.9463   -5.9380  -14.0951 C   0  0  0  0  0  0  0  0  0  0  0  0
   22.6654   -5.1287  -12.6262 S   0  0  0  0  0  0  0  0  0  0  0  0
   21.3978   -3.6355  -14.8266 C   0  0  0  0  0  0  0  0  0  0  0  0
   21.9597   -3.2987  -15.8939 O   0  0  0  0  0  0  0  0  0  0  0  0
   21.2656   -2.6935  -13.8238 O   0  0  0  0  0  0  0  0  0  0  0  0
  2  1  1  1
  2  3  1  0
  4  6  1  0
  4  2  1  0
  4  5  1  6
  6 10  1  0
  7  6  2  0
  9  8  1  1
 10  9  1  0
 11  9  1  0
 12 11  2  0
 13 11  1  0
 14 13  1  0
 14 17  1  0
 14 15  1  6
 16 15  1  0
 17 19  1  0
 18 17  2  0
M  END
$$$$
