TAC.pdb
     RDKit          3D

 19 18  0  0  1  0  0  0  0  0999 V2000
   18.9970  -11.3524  -14.6569 C   0  0  0  0  0  0  0  0  0  0  0  0
   19.5507  -11.5870  -16.0479 C   0  0  1  0  0  0  0  0  0  0  0  0
   19.5562  -12.9767  -16.2393 O   0  0  0  0  0  0  0  0  0  0  0  0
   18.6207  -10.9024  -17.0201 C   0  0  2  0  0  0  0  0  0  0  0  0
   18.9179  -11.3351  -18.3597 N   0  0  0  0  0  0  0  0  0  0  0  0
   18.6917   -9.4340  -16.9463 C   0  0  0  0  0  0  0  0  0  0  0  0
   19.7299   -8.8231  -17.3262 O   0  0  0  0  0  0  0  0  0  0  0  0
   16.3112   -6.6915  -15.9480 C   0  0  0  0  0  0  0  0  0  0  0  0
   17.6968   -7.1846  -16.3632 C   0  0  2  0  0  0  0  0  0  0  0  0
   17.6316   -8.6165  -16.4576 N   0  0  0  0  0  0  0  0  0  0  0  0
   18.6889   -6.7457  -15.3207 C   0  0  0  0  0  0  0  0  0  0  0  0
   18.7646   -7.3590  -14.2265 O   0  0  0  0  0  0  0  0  0  0  0  0
   19.5553   -5.6532  -15.5230 N   0  0  0  0  0  0  0  0  0  0  0  0
   20.5203   -5.1696  -14.5883 C   0  0  1  0  0  0  0  0  0  0  0  0
   21.9218   -5.6565  -14.8663 C   0  0  0  0  0  0  0  0  0  0  0  0
   23.0201   -4.8876  -13.6285 S   0  0  0  0  0  0  0  0  0  0  0  0
   20.4725   -3.6992  -14.4125 C   0  0  0  0  0  0  0  0  0  0  0  0
   20.4156   -3.1942  -13.2678 O   0  0  0  0  0  0  0  0  0  0  0  0
   20.4897   -2.8551  -15.5068 O   0  0  0  0  0  0  0  0  0  0  0  0
  2  1  1  1
  2  3  1  0
  4  6  1  0
  4  2  1  0
  4  5  1  6
  6 10  1  0
  7  6  2  0
  9  8  1  1
 10  9  1  0
 11  9  1  0
 12 11  2  0
 13 11  1  0
 14 13  1  0
 14 17  1  0
 14 15  1  6
 16 15  1  0
 17 19  1  0
 18 17  2  0
M  END
$$$$
