TAC.pdb
     RDKit          3D

 19 18  0  0  1  0  0  0  0  0999 V2000
   15.9890  -12.4269  -16.2013 C   0  0  0  0  0  0  0  0  0  0  0  0
   17.1949  -13.2419  -15.7794 C   0  0  1  0  0  0  0  0  0  0  0  0
   16.9137  -14.5705  -16.1313 O   0  0  0  0  0  0  0  0  0  0  0  0
   18.3827  -12.7108  -16.5449 C   0  0  2  0  0  0  0  0  0  0  0  0
   19.3810  -13.7401  -16.6631 N   0  0  0  0  0  0  0  0  0  0  0  0
   18.9759  -11.5136  -15.9269 C   0  0  0  0  0  0  0  0  0  0  0  0
   18.2441  -10.5481  -15.5696 O   0  0  0  0  0  0  0  0  0  0  0  0
   22.4791  -10.3959  -15.1021 C   0  0  0  0  0  0  0  0  0  0  0  0
   20.9668  -10.1776  -15.1264 C   0  0  2  0  0  0  0  0  0  0  0  0
   20.3726  -11.3568  -15.6923 N   0  0  0  0  0  0  0  0  0  0  0  0
   20.6764   -8.9597  -15.9607 C   0  0  0  0  0  0  0  0  0  0  0  0
   20.5212   -9.0702  -17.2027 O   0  0  0  0  0  0  0  0  0  0  0  0
   20.5686   -7.6730  -15.3968 N   0  0  0  0  0  0  0  0  0  0  0  0
   20.2714   -6.4720  -16.1097 C   0  0  1  0  0  0  0  0  0  0  0  0
   18.8197   -6.3527  -16.5056 C   0  0  0  0  0  0  0  0  0  0  0  0
   18.5845   -4.6877  -17.2144 S   0  0  0  0  0  0  0  0  0  0  0  0
   20.7570   -5.2529  -15.4219 C   0  0  0  0  0  0  0  0  0  0  0  0
   21.1395   -5.3012  -14.2303 O   0  0  0  0  0  0  0  0  0  0  0  0
   20.7981   -4.0383  -16.0802 O   0  0  0  0  0  0  0  0  0  0  0  0
  2  1  1  6
  2  3  1  0
  4  6  1  0
  4  2  1  0
  4  5  1  1
  6 10  1  0
  7  6  2  0
  9  8  1  6
 10  9  1  0
 11  9  1  0
 12 11  2  0
 13 11  1  0
 14 13  1  0
 14 17  1  0
 14 15  1  1
 16 15  1  0
 17 19  1  0
 18 17  2  0
M  END
$$$$
