TAC.pdb
     RDKit          3D

 19 18  0  0  1  0  0  0  0  0999 V2000
   22.0618  -10.0727  -16.9435 C   0  0  0  0  0  0  0  0  0  0  0  0
   20.7845  -10.4132  -17.6845 C   0  0  1  0  0  0  0  0  0  0  0  0
   21.0223  -11.6317  -18.3377 O   0  0  0  0  0  0  0  0  0  0  0  0
   19.6917  -10.5479  -16.6518 C   0  0  2  0  0  0  0  0  0  0  0  0
   18.4939  -11.0418  -17.2773 N   0  0  0  0  0  0  0  0  0  0  0  0
   19.4017   -9.2846  -15.9539 C   0  0  0  0  0  0  0  0  0  0  0  0
   19.2644   -8.2106  -16.6043 O   0  0  0  0  0  0  0  0  0  0  0  0
   18.8288   -8.2664  -12.3742 C   0  0  0  0  0  0  0  0  0  0  0  0
   19.1403   -7.9345  -13.8330 C   0  0  2  0  0  0  0  0  0  0  0  0
   19.2585   -9.1794  -14.5400 N   0  0  0  0  0  0  0  0  0  0  0  0
   20.4241   -7.1513  -13.8779 C   0  0  0  0  0  0  0  0  0  0  0  0
   21.5223   -7.7319  -13.6881 O   0  0  0  0  0  0  0  0  0  0  0  0
   20.4484   -5.7651  -14.1290 N   0  0  0  0  0  0  0  0  0  0  0  0
   21.6212   -4.9593  -14.2481 C   0  0  1  0  0  0  0  0  0  0  0  0
   22.0227   -4.6916  -15.6783 C   0  0  0  0  0  0  0  0  0  0  0  0
   22.3940   -6.3030  -16.4497 S   0  0  0  0  0  0  0  0  0  0  0  0
   21.5518   -3.7115  -13.4523 C   0  0  0  0  0  0  0  0  0  0  0  0
   20.4465   -3.1964  -13.1670 O   0  0  0  0  0  0  0  0  0  0  0  0
   22.7042   -3.0905  -13.0089 O   0  0  0  0  0  0  0  0  0  0  0  0
  2  1  1  1
  2  3  1  0
  4  6  1  0
  4  2  1  0
  4  5  1  6
  6 10  1  0
  7  6  2  0
  9  8  1  1
 10  9  1  0
 11  9  1  0
 12 11  2  0
 13 11  1  0
 14 13  1  0
 14 17  1  0
 14 15  1  6
 16 15  1  0
 17 19  1  0
 18 17  2  0
M  END
$$$$
