TAC.pdb
     RDKit          3D

 19 18  0  0  1  0  0  0  0  0999 V2000
   15.3143   -8.2817  -15.0045 C   0  0  0  0  0  0  0  0  0  0  0  0
   15.1366   -9.5603  -14.2108 C   0  0  1  0  0  0  0  0  0  0  0  0
   13.9394  -10.1379  -14.6591 O   0  0  0  0  0  0  0  0  0  0  0  0
   16.3213  -10.4443  -14.5172 C   0  0  2  0  0  0  0  0  0  0  0  0
   16.0988  -11.7569  -13.9718 N   0  0  0  0  0  0  0  0  0  0  0  0
   17.5903   -9.9029  -14.0039 C   0  0  0  0  0  0  0  0  0  0  0  0
   17.7414   -9.6870  -12.7686 O   0  0  0  0  0  0  0  0  0  0  0  0
   20.9032   -8.9611  -15.5321 C   0  0  0  0  0  0  0  0  0  0  0  0
   19.9477   -9.0561  -14.3433 C   0  0  2  0  0  0  0  0  0  0  0  0
   18.7074   -9.5914  -14.8320 N   0  0  0  0  0  0  0  0  0  0  0  0
   19.7647   -7.6771  -13.7701 C   0  0  0  0  0  0  0  0  0  0  0  0
   18.9353   -6.8864  -14.2856 O   0  0  0  0  0  0  0  0  0  0  0  0
   20.4994   -7.2247  -12.6562 N   0  0  0  0  0  0  0  0  0  0  0  0
   20.4207   -5.9212  -12.0785 C   0  0  1  0  0  0  0  0  0  0  0  0
   20.3396   -5.9367  -10.5713 C   0  0  0  0  0  0  0  0  0  0  0  0
   18.8990   -6.9593  -10.1146 S   0  0  0  0  0  0  0  0  0  0  0  0
   21.4795   -5.0057  -12.5641 C   0  0  0  0  0  0  0  0  0  0  0  0
   22.4563   -5.4457  -13.2126 O   0  0  0  0  0  0  0  0  0  0  0  0
   21.4114   -3.6485  -12.3117 O   0  0  0  0  0  0  0  0  0  0  0  0
  2  1  1  6
  2  3  1  0
  4  6  1  0
  4  2  1  0
  4  5  1  1
  6 10  1  0
  7  6  2  0
  9  8  1  6
 10  9  1  0
 11  9  1  0
 12 11  2  0
 13 11  1  0
 14 13  1  0
 14 17  1  0
 14 15  1  1
 16 15  1  0
 17 19  1  0
 18 17  2  0
M  END
$$$$
