TAC.pdb
     RDKit          3D

 19 18  0  0  1  0  0  0  0  0999 V2000
   22.3045   -9.5270  -13.5455 C   0  0  0  0  0  0  0  0  0  0  0  0
   22.8780   -9.9617  -14.8792 C   0  0  1  0  0  0  0  0  0  0  0  0
   23.3975  -11.2499  -14.6823 O   0  0  0  0  0  0  0  0  0  0  0  0
   21.7406   -9.9741  -15.8716 C   0  0  2  0  0  0  0  0  0  0  0  0
   22.1574  -10.6412  -17.0763 N   0  0  0  0  0  0  0  0  0  0  0  0
   21.2471   -8.6259  -16.1970 C   0  0  0  0  0  0  0  0  0  0  0  0
   22.0191   -7.7680  -16.7101 O   0  0  0  0  0  0  0  0  0  0  0  0
   17.9061   -6.9026  -16.1174 C   0  0  0  0  0  0  0  0  0  0  0  0
   19.4303   -6.8686  -16.2221 C   0  0  2  0  0  0  0  0  0  0  0  0
   19.9071   -8.1993  -15.9662 N   0  0  0  0  0  0  0  0  0  0  0  0
   19.9542   -5.8907  -15.2059 C   0  0  0  0  0  0  0  0  0  0  0  0
   20.0358   -6.2229  -13.9967 O   0  0  0  0  0  0  0  0  0  0  0  0
   20.3660   -4.5905  -15.5594 N   0  0  0  0  0  0  0  0  0  0  0  0
   20.8793   -3.6052  -14.6624 C   0  0  1  0  0  0  0  0  0  0  0  0
   22.2703   -3.1378  -15.0163 C   0  0  0  0  0  0  0  0  0  0  0  0
   23.3954   -4.5558  -14.7857 S   0  0  0  0  0  0  0  0  0  0  0  0
   19.9519   -2.4683  -14.4559 C   0  0  0  0  0  0  0  0  0  0  0  0
   19.2863   -2.0054  -15.4104 O   0  0  0  0  0  0  0  0  0  0  0  0
   19.8021   -1.8956  -13.2070 O   0  0  0  0  0  0  0  0  0  0  0  0
  2  1  1  1
  2  3  1  0
  4  6  1  0
  4  2  1  0
  4  5  1  6
  6 10  1  0
  7  6  2  0
  9  8  1  1
 10  9  1  0
 11  9  1  0
 12 11  2  0
 13 11  1  0
 14 13  1  0
 14 17  1  0
 14 15  1  6
 16 15  1  0
 17 19  1  0
 18 17  2  0
M  END
$$$$
