TAC.pdb
     RDKit          3D

 19 18  0  0  1  0  0  0  0  0999 V2000
   18.3411   -9.6654  -18.5945 C   0  0  0  0  0  0  0  0  0  0  0  0
   17.3554  -10.1769  -17.5633 C   0  0  1  0  0  0  0  0  0  0  0  0
   16.4383  -10.9779  -18.2600 O   0  0  0  0  0  0  0  0  0  0  0  0
   18.1396  -10.9866  -16.5591 C   0  0  2  0  0  0  0  0  0  0  0  0
   17.2336  -11.7257  -15.7209 N   0  0  0  0  0  0  0  0  0  0  0  0
   19.0271  -10.1616  -15.7232 C   0  0  0  0  0  0  0  0  0  0  0  0
   18.5523   -9.2424  -14.9986 O   0  0  0  0  0  0  0  0  0  0  0  0
   22.7391  -10.0336  -15.0858 C   0  0  0  0  0  0  0  0  0  0  0  0
   21.3276   -9.4666  -14.9395 C   0  0  2  0  0  0  0  0  0  0  0  0
   20.4411  -10.3303  -15.6687 N   0  0  0  0  0  0  0  0  0  0  0  0
   21.3173   -8.0691  -15.4968 C   0  0  0  0  0  0  0  0  0  0  0  0
   21.2569   -7.8874  -16.7387 O   0  0  0  0  0  0  0  0  0  0  0  0
   21.3737   -6.9311  -14.6680 N   0  0  0  0  0  0  0  0  0  0  0  0
   21.4782   -5.5787  -15.1141 C   0  0  1  0  0  0  0  0  0  0  0  0
   20.1559   -4.8511  -15.1395 C   0  0  0  0  0  0  0  0  0  0  0  0
   20.4925   -3.1283  -15.6376 S   0  0  0  0  0  0  0  0  0  0  0  0
   22.5175   -4.8077  -14.3926 C   0  0  0  0  0  0  0  0  0  0  0  0
   23.3233   -4.0811  -15.0180 O   0  0  0  0  0  0  0  0  0  0  0  0
   22.6194   -4.8742  -13.0158 O   0  0  0  0  0  0  0  0  0  0  0  0
  2  1  1  6
  2  3  1  0
  4  6  1  0
  4  2  1  0
  4  5  1  1
  6 10  1  0
  7  6  2  0
  9  8  1  6
 10  9  1  0
 11  9  1  0
 12 11  2  0
 13 11  1  0
 14 13  1  0
 14 17  1  0
 14 15  1  1
 16 15  1  0
 17 19  1  0
 18 17  2  0
M  END
$$$$
