TAC.pdb
     RDKit          3D

 19 18  0  0  1  0  0  0  0  0999 V2000
   17.8698  -11.4367  -15.8206 C   0  0  0  0  0  0  0  0  0  0  0  0
   19.1360  -12.2638  -15.9166 C   0  0  1  0  0  0  0  0  0  0  0  0
   18.7354  -13.6060  -15.8376 O   0  0  0  0  0  0  0  0  0  0  0  0
   19.7692  -11.9575  -17.2523 C   0  0  2  0  0  0  0  0  0  0  0  0
   20.8211  -12.9028  -17.5167 N   0  0  0  0  0  0  0  0  0  0  0  0
   20.3013  -10.5875  -17.3354 C   0  0  0  0  0  0  0  0  0  0  0  0
   21.3316  -10.2601  -16.6822 O   0  0  0  0  0  0  0  0  0  0  0  0
   19.4576   -7.5025  -19.3170 C   0  0  0  0  0  0  0  0  0  0  0  0
   20.1938   -8.2068  -18.1781 C   0  0  2  0  0  0  0  0  0  0  0  0
   19.7158   -9.5607  -18.1313 N   0  0  0  0  0  0  0  0  0  0  0  0
   19.8992   -7.4739  -16.8976 C   0  0  0  0  0  0  0  0  0  0  0  0
   18.8163   -7.6748  -16.2925 O   0  0  0  0  0  0  0  0  0  0  0  0
   20.8048   -6.5524  -16.3357 N   0  0  0  0  0  0  0  0  0  0  0  0
   20.6226   -5.8465  -15.1080 C   0  0  1  0  0  0  0  0  0  0  0  0
   21.9177   -5.3969  -14.4762 C   0  0  0  0  0  0  0  0  0  0  0  0
   22.8730   -6.8970  -14.0678 S   0  0  0  0  0  0  0  0  0  0  0  0
   19.6474   -4.7362  -15.2155 C   0  0  0  0  0  0  0  0  0  0  0  0
   19.4698   -4.1453  -16.3053 O   0  0  0  0  0  0  0  0  0  0  0  0
   18.9142   -4.3300  -14.1166 O   0  0  0  0  0  0  0  0  0  0  0  0
  2  1  1  6
  2  3  1  0
  4  6  1  0
  4  2  1  0
  4  5  1  1
  6 10  1  0
  7  6  2  0
  9  8  1  6
 10  9  1  0
 11  9  1  0
 12 11  2  0
 13 11  1  0
 14 13  1  0
 14 17  1  0
 14 15  1  6
 16 15  1  0
 17 19  1  0
 18 17  2  0
M  END
$$$$
