TAC.pdb
     RDKit          3D

 19 18  0  0  1  0  0  0  0  0999 V2000
   14.3933  -11.6898  -16.9967 C   0  0  0  0  0  0  0  0  0  0  0  0
   14.6181  -12.4906  -15.7299 C   0  0  1  0  0  0  0  0  0  0  0  0
   13.9082  -13.6897  -15.8919 O   0  0  0  0  0  0  0  0  0  0  0  0
   16.1024  -12.7419  -15.6180 C   0  0  2  0  0  0  0  0  0  0  0  0
   16.3510  -13.7205  -14.5930 N   0  0  0  0  0  0  0  0  0  0  0  0
   16.8724  -11.5199  -15.3339 C   0  0  0  0  0  0  0  0  0  0  0  0
   16.6810  -10.8767  -14.2639 O   0  0  0  0  0  0  0  0  0  0  0  0
   19.5641   -9.5833  -17.1252 C   0  0  0  0  0  0  0  0  0  0  0  0
   18.5817   -9.7695  -15.9695 C   0  0  2  0  0  0  0  0  0  0  0  0
   17.8587  -10.9867  -16.2134 N   0  0  0  0  0  0  0  0  0  0  0  0
   17.6613   -8.5799  -15.9325 C   0  0  0  0  0  0  0  0  0  0  0  0
   16.5071   -8.6620  -16.4225 O   0  0  0  0  0  0  0  0  0  0  0  0
   18.0464   -7.3516  -15.3598 N   0  0  0  0  0  0  0  0  0  0  0  0
   17.2308   -6.1834  -15.2647 C   0  0  1  0  0  0  0  0  0  0  0  0
   15.9753   -6.3925  -14.4531 C   0  0  0  0  0  0  0  0  0  0  0  0
   15.1446   -4.7741  -14.3099 S   0  0  0  0  0  0  0  0  0  0  0  0
   17.9811   -4.9857  -14.8203 C   0  0  0  0  0  0  0  0  0  0  0  0
   18.8061   -5.0608  -13.8810 O   0  0  0  0  0  0  0  0  0  0  0  0
   17.7866   -3.7618  -15.4324 O   0  0  0  0  0  0  0  0  0  0  0  0
  2  1  1  6
  2  3  1  0
  4  6  1  0
  4  2  1  0
  4  5  1  1
  6 10  1  0
  7  6  2  0
  9  8  1  6
 10  9  1  0
 11  9  1  0
 12 11  2  0
 13 11  1  0
 14 13  1  0
 14 17  1  0
 14 15  1  1
 16 15  1  0
 17 19  1  0
 18 17  2  0
M  END
$$$$
