CHA.pdb
     RDKit          3D

 22 22  0  0  1  0  0  0  0  0999 V2000
   20.3218  -14.2692  -16.1903 N   0  0  0  0  0  0  0  0  0  0  0  0
   20.0474  -13.0010  -16.8224 C   0  0  1  0  0  0  0  0  0  0  0  0
   18.5554  -12.8001  -16.8682 C   0  0  0  0  0  0  0  0  0  0  0  0
   17.8728  -14.1490  -17.8951 S   0  0  0  0  0  0  0  0  0  0  0  0
   20.7500  -11.8909  -16.1268 C   0  0  0  0  0  0  0  0  0  0  0  0
   20.7965  -11.9112  -14.8797 O   0  0  0  0  0  0  0  0  0  0  0  0
   21.3648  -10.8175  -16.8244 N   0  0  0  0  0  0  0  0  0  0  0  0
   22.1404   -9.8239  -16.1252 C   0  0  1  0  0  0  0  0  0  0  0  0
   23.5202   -9.6601  -16.7433 C   0  0  0  0  0  0  0  0  0  0  0  0
   24.3970  -10.8001  -16.5179 C   0  0  0  0  0  0  0  0  0  0  0  0
   24.9461  -11.2012  -15.3205 C   0  0  0  0  0  0  0  0  0  0  0  0
   25.7092  -12.3139  -15.5314 N   0  0  0  0  0  0  0  0  0  0  0  0
   25.6357  -12.5982  -16.8329 C   0  0  0  0  0  0  0  0  0  0  0  0
   24.8322  -11.6709  -17.4358 N   0  0  0  0  0  0  0  0  0  0  0  0
   21.4863   -8.4693  -16.2323 C   0  0  0  0  0  0  0  0  0  0  0  0
   20.9766   -8.1102  -17.3246 O   0  0  0  0  0  0  0  0  0  0  0  0
   20.5958   -5.7021  -13.9181 C   0  0  0  0  0  0  0  0  0  0  0  0
   20.8568   -6.2774  -15.3065 C   0  0  2  0  0  0  0  0  0  0  0  0
   21.4277   -7.5780  -15.1268 N   0  0  0  0  0  0  0  0  0  0  0  0
   21.7367   -5.3642  -16.0668 C   0  0  0  0  0  0  0  0  0  0  0  0
   22.9724   -5.5659  -16.1654 O   0  0  0  0  0  0  0  0  0  0  0  0
   21.2089   -4.2500  -16.6959 O   0  0  0  0  0  0  0  0  0  0  0  0
  2  1  1  1
  2  5  1  0
  2  3  1  0
  3  4  1  0
  5  7  1  0
  6  5  2  0
  7  8  1  0
  8 15  1  0
  9 10  1  0
  8  9  1  6
 10 11  2  0
 12 11  1  0
 13 12  1  0
 14 13  2  0
 14 10  1  0
 15 16  2  0
 15 19  1  0
 18 17  1  1
 18 20  1  0
 19 18  1  0
 20 22  1  0
 21 20  2  0
M  END
$$$$
