CHA.pdb
     RDKit          3D

 22 22  0  0  1  0  0  0  0  0999 V2000
   44.4216  -11.7509   -7.9719 N   0  0  0  0  0  0  0  0  0  0  0  0
   43.2829  -11.2579   -8.7090 C   0  0  1  0  0  0  0  0  0  0  0  0
   42.3630  -12.4141   -9.0015 C   0  0  0  0  0  0  0  0  0  0  0  0
   43.0341  -13.2625  -10.4745 S   0  0  0  0  0  0  0  0  0  0  0  0
   42.6012  -10.1603   -7.9738 C   0  0  0  0  0  0  0  0  0  0  0  0
   42.2947  -10.3512   -6.7791 O   0  0  0  0  0  0  0  0  0  0  0  0
   42.2891   -8.9130   -8.5770 N   0  0  0  0  0  0  0  0  0  0  0  0
   41.5466   -7.9062   -7.8610 C   0  0  1  0  0  0  0  0  0  0  0  0
   42.2387   -6.5537   -7.9267 C   0  0  0  0  0  0  0  0  0  0  0  0
   43.2214   -6.3518   -6.8719 C   0  0  0  0  0  0  0  0  0  0  0  0
   43.4351   -7.1525   -5.7721 C   0  0  0  0  0  0  0  0  0  0  0  0
   44.4452   -6.6195   -5.0231 N   0  0  0  0  0  0  0  0  0  0  0  0
   44.8504   -5.5107   -5.6448 C   0  0  0  0  0  0  0  0  0  0  0  0
   44.1006   -5.3478   -6.7764 N   0  0  0  0  0  0  0  0  0  0  0  0
   40.1924   -7.6981   -8.4912 C   0  0  0  0  0  0  0  0  0  0  0  0
   40.0820   -7.7085   -9.7440 O   0  0  0  0  0  0  0  0  0  0  0  0
   36.7086   -7.1343   -7.2893 C   0  0  0  0  0  0  0  0  0  0  0  0
   37.8007   -7.1334   -8.3542 C   0  0  2  0  0  0  0  0  0  0  0  0
   39.0266   -7.4889   -7.7056 N   0  0  0  0  0  0  0  0  0  0  0  0
   37.8597   -5.8076   -9.0062 C   0  0  0  0  0  0  0  0  0  0  0  0
   38.5531   -4.8707   -8.5384 O   0  0  0  0  0  0  0  0  0  0  0  0
   37.1407   -5.5671  -10.1642 O   0  0  0  0  0  0  0  0  0  0  0  0
  2  1  1  1
  2  5  1  0
  2  3  1  0
  3  4  1  0
  5  7  1  0
  6  5  2  0
  7  8  1  0
  8 15  1  0
  9 10  1  0
  8  9  1  6
 10 11  2  0
 12 11  1  0
 13 12  1  0
 14 13  2  0
 14 10  1  0
 15 16  2  0
 15 19  1  0
 18 17  1  1
 18 20  1  0
 19 18  1  0
 20 22  1  0
 21 20  2  0
M  END
$$$$
