CHA.pdb
     RDKit          3D

 22 22  0  0  1  0  0  0  0  0999 V2000
   19.7685  -12.1834  -17.6092 N   0  0  0  0  0  0  0  0  0  0  0  0
   20.7688  -11.1846  -17.3179 C   0  0  1  0  0  0  0  0  0  0  0  0
   21.3035  -10.6468  -18.6192 C   0  0  0  0  0  0  0  0  0  0  0  0
   22.5712  -11.8293  -19.1976 S   0  0  0  0  0  0  0  0  0  0  0  0
   20.2213  -10.1153  -16.4423 C   0  0  0  0  0  0  0  0  0  0  0  0
   19.0681   -9.6968  -16.6720 O   0  0  0  0  0  0  0  0  0  0  0  0
   20.9572   -9.5577  -15.3631 N   0  0  0  0  0  0  0  0  0  0  0  0
   20.4172   -8.4791  -14.5740 C   0  0  1  0  0  0  0  0  0  0  0  0
   20.6078   -8.7298  -13.0863 C   0  0  0  0  0  0  0  0  0  0  0  0
   20.0127   -7.7033  -12.2430 C   0  0  0  0  0  0  0  0  0  0  0  0
   19.3800   -6.5525  -12.6573 C   0  0  0  0  0  0  0  0  0  0  0  0
   18.9623   -5.8546  -11.5601 N   0  0  0  0  0  0  0  0  0  0  0  0
   19.3280   -6.5574  -10.4866 C   0  0  0  0  0  0  0  0  0  0  0  0
   19.9710   -7.6888  -10.9058 N   0  0  0  0  0  0  0  0  0  0  0  0
   21.1488   -7.1926  -14.8640 C   0  0  0  0  0  0  0  0  0  0  0  0
   22.4064   -7.1803  -14.8671 O   0  0  0  0  0  0  0  0  0  0  0  0
   20.2147   -3.9436  -16.3429 C   0  0  0  0  0  0  0  0  0  0  0  0
   21.1900   -4.8403  -15.5870 C   0  0  2  0  0  0  0  0  0  0  0  0
   20.4543   -5.9829  -15.1362 N   0  0  0  0  0  0  0  0  0  0  0  0
   21.8078   -4.0814  -14.4786 C   0  0  0  0  0  0  0  0  0  0  0  0
   21.4035   -4.1927  -13.2947 O   0  0  0  0  0  0  0  0  0  0  0  0
   22.8614   -3.2186  -14.7260 O   0  0  0  0  0  0  0  0  0  0  0  0
  2  1  1  6
  2  5  1  0
  2  3  1  0
  3  4  1  0
  5  7  1  0
  6  5  2  0
  7  8  1  0
  8 15  1  0
  9 10  1  0
  8  9  1  1
 10 11  2  0
 12 11  1  0
 13 12  1  0
 14 13  2  0
 14 10  1  0
 15 16  2  0
 15 19  1  0
 18 17  1  1
 18 20  1  0
 19 18  1  0
 20 22  1  0
 21 20  2  0
M  END
$$$$
