CHA.pdb
     RDKit          3D

 22 22  0  0  1  0  0  0  0  0999 V2000
   25.0708  -12.3903  -17.9488 N   0  0  0  0  0  0  0  0  0  0  0  0
   24.8779  -11.7334  -16.6782 C   0  0  1  0  0  0  0  0  0  0  0  0
   26.2233  -11.3199  -16.1422 C   0  0  0  0  0  0  0  0  0  0  0  0
   27.0647  -12.8468  -15.5939 S   0  0  0  0  0  0  0  0  0  0  0  0
   23.9385  -10.5881  -16.8026 C   0  0  0  0  0  0  0  0  0  0  0  0
   23.9738   -9.9063  -17.8475 O   0  0  0  0  0  0  0  0  0  0  0  0
   23.0101  -10.2450  -15.7840 N   0  0  0  0  0  0  0  0  0  0  0  0
   22.0163   -9.2231  -15.9975 C   0  0  1  0  0  0  0  0  0  0  0  0
   20.7159   -9.5548  -15.2824 C   0  0  0  0  0  0  0  0  0  0  0  0
   19.6387   -8.6194  -15.5716 C   0  0  0  0  0  0  0  0  0  0  0  0
   19.6937   -7.5197  -16.3986 C   0  0  0  0  0  0  0  0  0  0  0  0
   18.4749   -6.9036  -16.4014 N   0  0  0  0  0  0  0  0  0  0  0  0
   17.6792   -7.6060  -15.5930 C   0  0  0  0  0  0  0  0  0  0  0  0
   18.3926   -8.6561  -15.0856 N   0  0  0  0  0  0  0  0  0  0  0  0
   22.4738   -7.9092  -15.4156 C   0  0  0  0  0  0  0  0  0  0  0  0
   22.9182   -7.8718  -14.2396 O   0  0  0  0  0  0  0  0  0  0  0  0
   23.1233   -4.5105  -16.7750 C   0  0  0  0  0  0  0  0  0  0  0  0
   23.0474   -5.5262  -15.6396 C   0  0  2  0  0  0  0  0  0  0  0  0
   22.4176   -6.7011  -16.1620 N   0  0  0  0  0  0  0  0  0  0  0  0
   22.3138   -4.9417  -14.4966 C   0  0  0  0  0  0  0  0  0  0  0  0
   22.8666   -4.1555  -13.6881 O   0  0  0  0  0  0  0  0  0  0  0  0
   20.9812   -5.2535  -14.2900 O   0  0  0  0  0  0  0  0  0  0  0  0
  2  1  1  6
  2  5  1  0
  2  3  1  0
  3  4  1  0
  5  7  1  0
  6  5  2  0
  7  8  1  0
  8 15  1  0
  9 10  1  0
  8  9  1  1
 10 11  2  0
 12 11  1  0
 13 12  1  0
 14 13  2  0
 14 10  1  0
 15 16  2  0
 15 19  1  0
 18 17  1  6
 18 20  1  0
 19 18  1  0
 20 22  1  0
 21 20  2  0
M  END
$$$$
