CHA.pdb
     RDKit          3D

 22 22  0  0  1  0  0  0  0  0999 V2000
   16.6554  -18.5302    2.6322 N   0  0  0  0  0  0  0  0  0  0  0  0
   16.3522  -18.0139    3.9454 C   0  0  1  0  0  0  0  0  0  0  0  0
   16.1183  -19.1750    4.8758 C   0  0  0  0  0  0  0  0  0  0  0  0
   14.5862  -19.9992    4.3159 S   0  0  0  0  0  0  0  0  0  0  0  0
   17.4265  -17.1063    4.4270 C   0  0  0  0  0  0  0  0  0  0  0  0
   18.6056  -17.3677    4.1121 O   0  0  0  0  0  0  0  0  0  0  0  0
   17.1615  -15.9622    5.2258 N   0  0  0  0  0  0  0  0  0  0  0  0
   18.2264  -15.0875    5.6478 C   0  0  1  0  0  0  0  0  0  0  0  0
   17.7594  -13.6425    5.7287 C   0  0  0  0  0  0  0  0  0  0  0  0
   18.7973  -12.7198    6.1650 C   0  0  0  0  0  0  0  0  0  0  0  0
   19.8688  -12.2668    5.4280 C   0  0  0  0  0  0  0  0  0  0  0  0
   20.6098  -11.4155    6.1971 N   0  0  0  0  0  0  0  0  0  0  0  0
   20.0111  -11.3413    7.3871 C   0  0  0  0  0  0  0  0  0  0  0  0
   18.9017  -12.1400    7.3663 N   0  0  0  0  0  0  0  0  0  0  0  0
   18.6837  -15.4429    7.0403 C   0  0  0  0  0  0  0  0  0  0  0  0
   17.8413  -15.8270    7.8916 O   0  0  0  0  0  0  0  0  0  0  0  0
   21.8678  -16.0464    8.7981 C   0  0  0  0  0  0  0  0  0  0  0  0
   20.4099  -15.5981    8.7879 C   0  0  2  0  0  0  0  0  0  0  0  0
   20.0495  -15.3562    7.4235 N   0  0  0  0  0  0  0  0  0  0  0  0
   20.2500  -14.4034    9.6443 C   0  0  0  0  0  0  0  0  0  0  0  0
   20.0347  -13.2654    9.1587 O   0  0  0  0  0  0  0  0  0  0  0  0
   20.3356  -14.5157   11.0212 O   0  0  0  0  0  0  0  0  0  0  0  0
  2  1  1  6
  2  5  1  0
  2  3  1  0
  3  4  1  0
  5  7  1  0
  6  5  2  0
  7  8  1  0
  8 15  1  0
  9 10  1  0
  8  9  1  1
 10 11  2  0
 12 11  1  0
 13 12  1  0
 14 13  2  0
 14 10  1  0
 15 16  2  0
 15 19  1  0
 18 17  1  6
 18 20  1  0
 19 18  1  0
 20 22  1  0
 21 20  2  0
M  END
$$$$
