CHA.pdb
     RDKit          3D

 22 22  0  0  1  0  0  0  0  0999 V2000
   21.3584  -10.0031  -14.9523 N   0  0  0  0  0  0  0  0  0  0  0  0
   21.4365   -8.6715  -14.4010 C   0  0  1  0  0  0  0  0  0  0  0  0
   22.3619   -8.6971  -13.2130 C   0  0  0  0  0  0  0  0  0  0  0  0
   21.3587   -9.2090  -11.7738 S   0  0  0  0  0  0  0  0  0  0  0  0
   21.8604   -7.6876  -15.4315 C   0  0  0  0  0  0  0  0  0  0  0  0
   22.8101   -7.9910  -16.1824 O   0  0  0  0  0  0  0  0  0  0  0  0
   21.2289   -6.4254  -15.5908 N   0  0  0  0  0  0  0  0  0  0  0  0
   21.5573   -5.5646  -16.6992 C   0  0  1  0  0  0  0  0  0  0  0  0
   20.4668   -5.5827  -17.7588 C   0  0  0  0  0  0  0  0  0  0  0  0
   20.3134   -6.8740  -18.4130 C   0  0  0  0  0  0  0  0  0  0  0  0
   19.3082   -7.7932  -18.2103 C   0  0  0  0  0  0  0  0  0  0  0  0
   19.5251   -8.8747  -19.0157 N   0  0  0  0  0  0  0  0  0  0  0  0
   20.6418   -8.6323  -19.7045 C   0  0  0  0  0  0  0  0  0  0  0  0
   21.1235   -7.4073  -19.3347 N   0  0  0  0  0  0  0  0  0  0  0  0
   21.6556   -4.1299  -16.2449 C   0  0  0  0  0  0  0  0  0  0  0  0
   21.0174   -3.7553  -15.2279 O   0  0  0  0  0  0  0  0  0  0  0  0
   23.4639   -1.0659  -17.3666 C   0  0  0  0  0  0  0  0  0  0  0  0
   22.4766   -1.8219  -16.4834 C   0  0  2  0  0  0  0  0  0  0  0  0
   22.4543   -3.1797  -16.9370 N   0  0  0  0  0  0  0  0  0  0  0  0
   21.1499   -1.1725  -16.5502 C   0  0  0  0  0  0  0  0  0  0  0  0
   20.2988   -1.4942  -17.4160 O   0  0  0  0  0  0  0  0  0  0  0  0
   20.8124   -0.1806  -15.6458 O   0  0  0  0  0  0  0  0  0  0  0  0
  2  1  1  6
  2  5  1  0
  2  3  1  0
  3  4  1  0
  5  7  1  0
  6  5  2  0
  7  8  1  0
  8 15  1  0
  9 10  1  0
  8  9  1  6
 10 11  2  0
 12 11  1  0
 13 12  1  0
 14 13  2  0
 14 10  1  0
 15 16  2  0
 15 19  1  0
 18 17  1  6
 18 20  1  0
 19 18  1  0
 20 22  1  0
 21 20  2  0
M  END
$$$$
