CHA.pdb
     RDKit          3D

 22 22  0  0  1  0  0  0  0  0999 V2000
   18.0384   -9.7088  -17.9601 N   0  0  0  0  0  0  0  0  0  0  0  0
   17.6201   -9.8675  -16.5879 C   0  0  1  0  0  0  0  0  0  0  0  0
   18.2130  -11.1430  -16.0496 C   0  0  0  0  0  0  0  0  0  0  0  0
   17.2095  -12.5154  -16.7202 S   0  0  0  0  0  0  0  0  0  0  0  0
   17.9890   -8.6802  -15.7731 C   0  0  0  0  0  0  0  0  0  0  0  0
   17.6199   -8.6441  -14.5813 O   0  0  0  0  0  0  0  0  0  0  0  0
   18.7401   -7.5949  -16.2976 N   0  0  0  0  0  0  0  0  0  0  0  0
   19.1168   -6.4804  -15.4647 C   0  0  1  0  0  0  0  0  0  0  0  0
   20.6134   -6.4687  -15.1958 C   0  0  0  0  0  0  0  0  0  0  0  0
   21.0572   -7.5534  -14.3323 C   0  0  0  0  0  0  0  0  0  0  0  0
   21.8575   -8.6182  -14.6817 C   0  0  0  0  0  0  0  0  0  0  0  0
   22.0425   -9.4137  -13.5871 N   0  0  0  0  0  0  0  0  0  0  0  0
   21.3711   -8.8547  -12.5787 C   0  0  0  0  0  0  0  0  0  0  0  0
   20.7684   -7.7160  -13.0360 N   0  0  0  0  0  0  0  0  0  0  0  0
   18.8210   -5.1754  -16.1603 C   0  0  0  0  0  0  0  0  0  0  0  0
   19.1602   -5.0209  -17.3615 O   0  0  0  0  0  0  0  0  0  0  0  0
   16.7239   -2.2103  -15.4213 C   0  0  0  0  0  0  0  0  0  0  0  0
   17.7758   -2.9486  -16.2429 C   0  0  2  0  0  0  0  0  0  0  0  0
   18.1649   -4.1051  -15.4940 N   0  0  0  0  0  0  0  0  0  0  0  0
   18.9088   -2.0432  -16.5309 C   0  0  0  0  0  0  0  0  0  0  0  0
   19.9297   -2.0081  -15.8001 O   0  0  0  0  0  0  0  0  0  0  0  0
   18.8678   -1.2019  -17.6292 O   0  0  0  0  0  0  0  0  0  0  0  0
  2  1  1  6
  2  5  1  0
  2  3  1  0
  3  4  1  0
  5  7  1  0
  6  5  2  0
  7  8  1  0
  8 15  1  0
  9 10  1  0
  8  9  1  6
 10 11  2  0
 12 11  1  0
 13 12  1  0
 14 13  2  0
 14 10  1  0
 15 16  2  0
 15 19  1  0
 18 17  1  1
 18 20  1  0
 19 18  1  0
 20 22  1  0
 21 20  2  0
M  END
$$$$
