CHA.pdb
     RDKit          3D

 22 22  0  0  1  0  0  0  0  0999 V2000
   23.9477  -12.4775  -21.4824 N   0  0  0  0  0  0  0  0  0  0  0  0
   24.4333  -11.4051  -20.6473 C   0  0  1  0  0  0  0  0  0  0  0  0
   24.2702  -10.1057  -21.3912 C   0  0  0  0  0  0  0  0  0  0  0  0
   25.6551  -10.0005  -22.5791 S   0  0  0  0  0  0  0  0  0  0  0  0
   23.7454  -11.3967  -19.3296 C   0  0  0  0  0  0  0  0  0  0  0  0
   22.5374  -11.7086  -19.2921 O   0  0  0  0  0  0  0  0  0  0  0  0
   24.4077  -11.0496  -18.1222 N   0  0  0  0  0  0  0  0  0  0  0  0
   23.7008  -11.0280  -16.8662 C   0  0  1  0  0  0  0  0  0  0  0  0
   24.5313  -11.6432  -15.7507 C   0  0  0  0  0  0  0  0  0  0  0  0
   24.6730  -13.0878  -15.8605 C   0  0  0  0  0  0  0  0  0  0  0  0
   24.1543  -13.9005  -16.8438 C   0  0  0  0  0  0  0  0  0  0  0  0
   24.5117  -15.1933  -16.5869 N   0  0  0  0  0  0  0  0  0  0  0  0
   25.2374  -15.1839  -15.4674 C   0  0  0  0  0  0  0  0  0  0  0  0
   25.3355  -13.8945  -15.0236 N   0  0  0  0  0  0  0  0  0  0  0  0
   23.4317   -9.6085  -16.4340 C   0  0  0  0  0  0  0  0  0  0  0  0
   24.2757   -8.7112  -16.6878 O   0  0  0  0  0  0  0  0  0  0  0  0
   21.7411   -7.1034  -16.6427 C   0  0  0  0  0  0  0  0  0  0  0  0
   22.0370   -7.8843  -15.3663 C   0  0  2  0  0  0  0  0  0  0  0  0
   22.2429   -9.2504  -15.7423 N   0  0  0  0  0  0  0  0  0  0  0  0
   20.9233   -7.7141  -14.4087 C   0  0  0  0  0  0  0  0  0  0  0  0
   20.1421   -8.6568  -14.1283 O   0  0  0  0  0  0  0  0  0  0  0  0
   20.7146   -6.4931  -13.7913 O   0  0  0  0  0  0  0  0  0  0  0  0
  2  1  1  6
  2  5  1  0
  2  3  1  0
  3  4  1  0
  5  7  1  0
  6  5  2  0
  7  8  1  0
  8 15  1  0
  9 10  1  0
  8  9  1  1
 10 11  2  0
 12 11  1  0
 13 12  1  0
 14 13  2  0
 14 10  1  0
 15 16  2  0
 15 19  1  0
 18 17  1  6
 18 20  1  0
 19 18  1  0
 20 22  1  0
 21 20  2  0
M  END
$$$$
