CHA.pdb
     RDKit          3D

 22 22  0  0  1  0  0  0  0  0999 V2000
   22.3366  -13.5667  -17.0938 N   0  0  0  0  0  0  0  0  0  0  0  0
   21.7910  -12.3326  -17.6061 C   0  0  1  0  0  0  0  0  0  0  0  0
   20.2947  -12.4730  -17.7039 C   0  0  0  0  0  0  0  0  0  0  0  0
   19.6567  -10.8855  -18.3464 S   0  0  0  0  0  0  0  0  0  0  0  0
   22.2004  -11.1754  -16.7676 C   0  0  0  0  0  0  0  0  0  0  0  0
   22.0811  -11.2721  -15.5289 O   0  0  0  0  0  0  0  0  0  0  0  0
   22.7178   -9.9739  -17.3208 N   0  0  0  0  0  0  0  0  0  0  0  0
   23.0926   -8.8678  -16.4761 C   0  0  1  0  0  0  0  0  0  0  0  0
   24.5033   -8.3889  -16.7812 C   0  0  0  0  0  0  0  0  0  0  0  0
   25.5367   -9.3334  -16.3824 C   0  0  0  0  0  0  0  0  0  0  0  0
   25.4149  -10.3638  -15.4770 C   0  0  0  0  0  0  0  0  0  0  0  0
   26.6107  -11.0168  -15.3826 N   0  0  0  0  0  0  0  0  0  0  0  0
   27.4577  -10.4047  -16.2121 C   0  0  0  0  0  0  0  0  0  0  0  0
   26.7992   -9.3744  -16.8236 N   0  0  0  0  0  0  0  0  0  0  0  0
   22.1987   -7.6801  -16.7308 C   0  0  0  0  0  0  0  0  0  0  0  0
   21.9256   -7.3504  -17.9134 O   0  0  0  0  0  0  0  0  0  0  0  0
   19.7865   -5.6882  -14.8341 C   0  0  0  0  0  0  0  0  0  0  0  0
   20.7998   -5.8041  -15.9683 C   0  0  2  0  0  0  0  0  0  0  0  0
   21.6507   -6.9150  -15.6657 N   0  0  0  0  0  0  0  0  0  0  0  0
   21.5423   -4.5327  -16.1048 C   0  0  0  0  0  0  0  0  0  0  0  0
   22.7157   -4.4027  -15.6764 O   0  0  0  0  0  0  0  0  0  0  0  0
   20.9505   -3.4416  -16.7171 O   0  0  0  0  0  0  0  0  0  0  0  0
  2  1  1  1
  2  5  1  0
  2  3  1  0
  3  4  1  0
  5  7  1  0
  6  5  2  0
  7  8  1  0
  8 15  1  0
  9 10  1  0
  8  9  1  6
 10 11  2  0
 12 11  1  0
 13 12  1  0
 14 13  2  0
 14 10  1  0
 15 16  2  0
 15 19  1  0
 18 17  1  1
 18 20  1  0
 19 18  1  0
 20 22  1  0
 21 20  2  0
M  END
$$$$
