CHA.pdb
     RDKit          3D

 22 22  0  0  1  0  0  0  0  0999 V2000
   25.7617  -11.5578  -17.4802 N   0  0  0  0  0  0  0  0  0  0  0  0
   25.1851  -10.9033  -16.3303 C   0  0  1  0  0  0  0  0  0  0  0  0
   26.2715  -10.1443  -15.6147 C   0  0  0  0  0  0  0  0  0  0  0  0
   27.3624  -11.3893  -14.8401 S   0  0  0  0  0  0  0  0  0  0  0  0
   24.0462  -10.0323  -16.7229 C   0  0  0  0  0  0  0  0  0  0  0  0
   24.0245   -9.5766  -17.8847 O   0  0  0  0  0  0  0  0  0  0  0  0
   22.9911   -9.7029  -15.8310 N   0  0  0  0  0  0  0  0  0  0  0  0
   21.8475   -8.9486  -16.2789 C   0  0  1  0  0  0  0  0  0  0  0  0
   20.5717   -9.7721  -16.1959 C   0  0  0  0  0  0  0  0  0  0  0  0
   20.5573  -10.9140  -17.0986 C   0  0  0  0  0  0  0  0  0  0  0  0
   20.6404  -10.8870  -18.4729 C   0  0  0  0  0  0  0  0  0  0  0  0
   20.5924  -12.1669  -18.9468 N   0  0  0  0  0  0  0  0  0  0  0  0
   20.4817  -12.9723  -17.8889 C   0  0  0  0  0  0  0  0  0  0  0  0
   20.4604  -12.2043  -16.7580 N   0  0  0  0  0  0  0  0  0  0  0  0
   21.6170   -7.7553  -15.3859 C   0  0  0  0  0  0  0  0  0  0  0  0
   21.7323   -7.8805  -14.1398 O   0  0  0  0  0  0  0  0  0  0  0  0
   19.7783   -5.6837  -14.2385 C   0  0  0  0  0  0  0  0  0  0  0  0
   21.0561   -5.3874  -15.0169 C   0  0  2  0  0  0  0  0  0  0  0  0
   21.2704   -6.4823  -15.9142 N   0  0  0  0  0  0  0  0  0  0  0  0
   22.1785   -5.1891  -14.0750 C   0  0  0  0  0  0  0  0  0  0  0  0
   22.1283   -5.6019  -12.8899 O   0  0  0  0  0  0  0  0  0  0  0  0
   23.3265   -4.5340  -14.4858 O   0  0  0  0  0  0  0  0  0  0  0  0
  2  1  1  6
  2  5  1  0
  2  3  1  0
  3  4  1  0
  5  7  1  0
  6  5  2  0
  7  8  1  0
  8 15  1  0
  9 10  1  0
  8  9  1  1
 10 11  2  0
 12 11  1  0
 13 12  1  0
 14 13  2  0
 14 10  1  0
 15 16  2  0
 15 19  1  0
 18 17  1  1
 18 20  1  0
 19 18  1  0
 20 22  1  0
 21 20  2  0
M  END
$$$$
