CHA.pdb
     RDKit          3D

 22 22  0  0  1  0  0  0  0  0999 V2000
   20.4436  -10.6533  -19.4478 N   0  0  0  0  0  0  0  0  0  0  0  0
   19.6726  -10.8649  -18.2462 C   0  0  1  0  0  0  0  0  0  0  0  0
   20.2466  -12.0462  -17.5091 C   0  0  0  0  0  0  0  0  0  0  0  0
   19.9007  -13.5230  -18.5286 S   0  0  0  0  0  0  0  0  0  0  0  0
   19.6335   -9.6366  -17.4098 C   0  0  0  0  0  0  0  0  0  0  0  0
   18.8943   -9.6303  -16.4041 O   0  0  0  0  0  0  0  0  0  0  0  0
   20.4004   -8.4799  -17.7116 N   0  0  0  0  0  0  0  0  0  0  0  0
   20.5152   -7.3970  -16.7673 C   0  0  1  0  0  0  0  0  0  0  0  0
   21.9421   -7.2488  -16.2628 C   0  0  0  0  0  0  0  0  0  0  0  0
   22.3878   -8.3662  -15.4432 C   0  0  0  0  0  0  0  0  0  0  0  0
   21.8688   -8.7664  -14.2321 C   0  0  0  0  0  0  0  0  0  0  0  0
   22.5643   -9.8545  -13.7876 N   0  0  0  0  0  0  0  0  0  0  0  0
   23.4960  -10.1246  -14.7037 C   0  0  0  0  0  0  0  0  0  0  0  0
   23.3870   -9.2130  -15.7167 N   0  0  0  0  0  0  0  0  0  0  0  0
   20.1807   -6.0821  -17.4257 C   0  0  0  0  0  0  0  0  0  0  0  0
   20.6006   -5.8445  -18.5873 O   0  0  0  0  0  0  0  0  0  0  0  0
   17.7945   -3.3361  -16.8532 C   0  0  0  0  0  0  0  0  0  0  0  0
   19.0877   -3.8770  -17.4546 C   0  0  2  0  0  0  0  0  0  0  0  0
   19.3987   -5.0943  -16.7680 N   0  0  0  0  0  0  0  0  0  0  0  0
   20.1556   -2.8615  -17.3351 C   0  0  0  0  0  0  0  0  0  0  0  0
   20.1010   -1.7684  -17.9513 O   0  0  0  0  0  0  0  0  0  0  0  0
   21.2557   -3.0975  -16.5288 O   0  0  0  0  0  0  0  0  0  0  0  0
  2  1  1  6
  2  5  1  0
  2  3  1  0
  3  4  1  0
  5  7  1  0
  6  5  2  0
  7  8  1  0
  8 15  1  0
  9 10  1  0
  8  9  1  6
 10 11  2  0
 12 11  1  0
 13 12  1  0
 14 13  2  0
 14 10  1  0
 15 16  2  0
 15 19  1  0
 18 17  1  1
 18 20  1  0
 19 18  1  0
 20 22  1  0
 21 20  2  0
M  END
$$$$
