CHA.pdb
     RDKit          3D

 22 22  0  0  1  0  0  0  0  0999 V2000
   26.5056  -20.8750   -9.3966 N   0  0  0  0  0  0  0  0  0  0  0  0
   25.3700  -20.9385  -10.2851 C   0  0  1  0  0  0  0  0  0  0  0  0
   24.2187  -20.2075   -9.6459 C   0  0  0  0  0  0  0  0  0  0  0  0
   23.5901  -21.2812   -8.3073 S   0  0  0  0  0  0  0  0  0  0  0  0
   25.7089  -20.4018  -11.6293 C   0  0  0  0  0  0  0  0  0  0  0  0
   26.5199  -19.4557  -11.7001 O   0  0  0  0  0  0  0  0  0  0  0  0
   25.1478  -20.9226  -12.8256 N   0  0  0  0  0  0  0  0  0  0  0  0
   25.5809  -20.4506  -14.1167 C   0  0  1  0  0  0  0  0  0  0  0  0
   26.2246  -21.5641  -14.9281 C   0  0  0  0  0  0  0  0  0  0  0  0
   25.4100  -22.7676  -15.0120 C   0  0  0  0  0  0  0  0  0  0  0  0
   25.1751  -23.6826  -14.0101 C   0  0  0  0  0  0  0  0  0  0  0  0
   24.3599  -24.6680  -14.4895 N   0  0  0  0  0  0  0  0  0  0  0  0
   24.0940  -24.3712  -15.7628 C   0  0  0  0  0  0  0  0  0  0  0  0
   24.7373  -23.2077  -16.0816 N   0  0  0  0  0  0  0  0  0  0  0  0
   24.4018  -19.9851  -14.9336 C   0  0  0  0  0  0  0  0  0  0  0  0
   23.2842  -20.5427  -14.7850 O   0  0  0  0  0  0  0  0  0  0  0  0
   23.6986  -17.1939  -17.2902 C   0  0  0  0  0  0  0  0  0  0  0  0
   23.3571  -18.5150  -16.6086 C   0  0  2  0  0  0  0  0  0  0  0  0
   24.5157  -18.9262  -15.8746 N   0  0  0  0  0  0  0  0  0  0  0  0
   22.9390  -19.5058  -17.6234 C   0  0  0  0  0  0  0  0  0  0  0  0
   23.7295  -20.3780  -18.0614 O   0  0  0  0  0  0  0  0  0  0  0  0
   21.6472  -19.4928  -18.1201 O   0  0  0  0  0  0  0  0  0  0  0  0
  2  1  1  1
  2  5  1  0
  2  3  1  0
  3  4  1  0
  5  7  1  0
  6  5  2  0
  7  8  1  0
  8 15  1  0
  9 10  1  0
  8  9  1  6
 10 11  2  0
 12 11  1  0
 13 12  1  0
 14 13  2  0
 14 10  1  0
 15 16  2  0
 15 19  1  0
 18 17  1  6
 18 20  1  0
 19 18  1  0
 20 22  1  0
 21 20  2  0
M  END
$$$$
