CHA.pdb
     RDKit          3D

 22 22  0  0  1  0  0  0  0  0999 V2000
   30.0006  -10.9805  -18.4641 N   0  0  0  0  0  0  0  0  0  0  0  0
   29.2439  -10.0342  -17.6798 C   0  0  1  0  0  0  0  0  0  0  0  0
   29.4659   -8.6559  -18.2449 C   0  0  0  0  0  0  0  0  0  0  0  0
   31.1099   -8.1067  -17.6656 S   0  0  0  0  0  0  0  0  0  0  0  0
   27.8051  -10.4048  -17.6322 C   0  0  0  0  0  0  0  0  0  0  0  0
   27.3205  -11.0170  -18.6060 O   0  0  0  0  0  0  0  0  0  0  0  0
   26.9694  -10.0900  -16.5279 N   0  0  0  0  0  0  0  0  0  0  0  0
   25.5890  -10.5036  -16.4987 C   0  0  1  0  0  0  0  0  0  0  0  0
   25.3335  -11.5082  -15.3860 C   0  0  0  0  0  0  0  0  0  0  0  0
   25.9379  -12.8101  -15.6283 C   0  0  0  0  0  0  0  0  0  0  0  0
   27.1089  -13.2949  -15.0898 C   0  0  0  0  0  0  0  0  0  0  0  0
   27.3296  -14.5555  -15.5667 N   0  0  0  0  0  0  0  0  0  0  0  0
   26.3167  -14.8477  -16.3845 C   0  0  0  0  0  0  0  0  0  0  0  0
   25.4654  -13.7785  -16.4215 N   0  0  0  0  0  0  0  0  0  0  0  0
   24.6905   -9.3303  -16.1980 C   0  0  0  0  0  0  0  0  0  0  0  0
   25.0491   -8.4750  -15.3484 O   0  0  0  0  0  0  0  0  0  0  0  0
   21.6326   -7.8652  -17.7054 C   0  0  0  0  0  0  0  0  0  0  0  0
   22.6722   -7.9788  -16.5951 C   0  0  2  0  0  0  0  0  0  0  0  0
   23.4397   -9.1600  -16.8510 N   0  0  0  0  0  0  0  0  0  0  0  0
   21.9960   -8.0072  -15.2805 C   0  0  0  0  0  0  0  0  0  0  0  0
   21.7181   -9.0872  -14.7027 O   0  0  0  0  0  0  0  0  0  0  0  0
   21.6493   -6.8255  -14.6486 O   0  0  0  0  0  0  0  0  0  0  0  0
  2  1  1  6
  2  5  1  0
  2  3  1  0
  3  4  1  0
  5  7  1  0
  6  5  2  0
  7  8  1  0
  8 15  1  0
  9 10  1  0
  8  9  1  1
 10 11  2  0
 12 11  1  0
 13 12  1  0
 14 13  2  0
 14 10  1  0
 15 16  2  0
 15 19  1  0
 18 17  1  6
 18 20  1  0
 19 18  1  0
 20 22  1  0
 21 20  2  0
M  END
$$$$
