CHA.pdb
     RDKit          3D

 22 22  0  0  1  0  0  0  0  0999 V2000
   20.3759  -11.3404  -17.8037 N   0  0  0  0  0  0  0  0  0  0  0  0
   20.2210  -10.1152  -18.5508 C   0  0  1  0  0  0  0  0  0  0  0  0
   19.1531  -10.3200  -19.5929 C   0  0  0  0  0  0  0  0  0  0  0  0
   19.8382  -11.4780  -20.8298 S   0  0  0  0  0  0  0  0  0  0  0  0
   19.9248   -8.9705  -17.6499 C   0  0  0  0  0  0  0  0  0  0  0  0
   19.0815   -9.1344  -16.7445 O   0  0  0  0  0  0  0  0  0  0  0  0
   20.5617   -7.7079  -17.7813 N   0  0  0  0  0  0  0  0  0  0  0  0
   20.3055   -6.6448  -16.8423 C   0  0  1  0  0  0  0  0  0  0  0  0
   21.4336   -6.5131  -15.8310 C   0  0  0  0  0  0  0  0  0  0  0  0
   21.4845   -7.6065  -14.8714 C   0  0  0  0  0  0  0  0  0  0  0  0
   20.6391   -7.8149  -13.8046 C   0  0  0  0  0  0  0  0  0  0  0  0
   21.0215   -8.9503  -13.1489 N   0  0  0  0  0  0  0  0  0  0  0  0
   22.0824   -9.4371  -13.7951 C   0  0  0  0  0  0  0  0  0  0  0  0
   22.3650   -8.6137  -14.8493 N   0  0  0  0  0  0  0  0  0  0  0  0
   20.2413   -5.3154  -17.5515 C   0  0  0  0  0  0  0  0  0  0  0  0
   21.1150   -5.0258  -18.4086 O   0  0  0  0  0  0  0  0  0  0  0  0
   17.7316   -2.6169  -17.9065 C   0  0  0  0  0  0  0  0  0  0  0  0
   19.1459   -3.1692  -18.0529 C   0  0  2  0  0  0  0  0  0  0  0  0
   19.2146   -4.3713  -17.2784 N   0  0  0  0  0  0  0  0  0  0  0  0
   20.1259   -2.1503  -17.6197 C   0  0  0  0  0  0  0  0  0  0  0  0
   20.6848   -2.2057  -16.4963 O   0  0  0  0  0  0  0  0  0  0  0  0
   20.4533   -1.0972  -18.4561 O   0  0  0  0  0  0  0  0  0  0  0  0
  2  1  1  1
  2  5  1  0
  2  3  1  0
  3  4  1  0
  5  7  1  0
  6  5  2  0
  7  8  1  0
  8 15  1  0
  9 10  1  0
  8  9  1  1
 10 11  2  0
 12 11  1  0
 13 12  1  0
 14 13  2  0
 14 10  1  0
 15 16  2  0
 15 19  1  0
 18 17  1  1
 18 20  1  0
 19 18  1  0
 20 22  1  0
 21 20  2  0
M  END
$$$$
