PKN.pdb
     RDKit          3D

 25 25  0  0  1  0  0  0  0  0999 V2000
    7.5131  -15.1723   19.4644 N   0  0  0  0  0  0  0  0  0  0  0  0
    6.6801  -14.0937   18.9681 C   0  0  0  0  0  0  0  0  0  0  0  0
    7.4719  -12.8076   19.2442 C   0  0  0  0  0  0  0  0  0  0  0  0
    8.8785  -13.3085   18.9895 C   0  0  0  0  0  0  0  0  0  0  0  0
    8.8344  -14.6679   19.6503 C   0  0  1  0  0  0  0  0  0  0  0  0
    9.1832  -14.5063   21.1087 C   0  0  0  0  0  0  0  0  0  0  0  0
   10.3628  -14.1946   21.4269 O   0  0  0  0  0  0  0  0  0  0  0  0
    8.2202  -14.6952   22.1314 N   0  0  0  0  0  0  0  0  0  0  0  0
    8.5982  -14.4260   23.5400 C   0  0  1  0  0  0  0  0  0  0  0  0
    7.4098  -13.7819   24.2205 C   0  0  0  0  0  0  0  0  0  0  0  0
    7.6668  -13.3849   25.6316 C   0  0  0  0  0  0  0  0  0  0  0  0
    6.4337  -12.6076   26.1055 C   0  0  0  0  0  0  0  0  0  0  0  0
    6.6413  -12.1631   27.5354 C   0  0  0  0  0  0  0  0  0  0  0  0
    5.4440  -11.4355   27.9780 N   0  0  0  0  0  0  0  0  0  0  0  0
    9.0331  -15.6936   24.1323 C   0  0  0  0  0  0  0  0  0  0  0  0
    8.2638  -16.6924   24.0359 O   0  0  0  0  0  0  0  0  0  0  0  0
   13.2797  -16.8249   22.9290 N   0  0  0  0  0  0  0  0  0  0  0  0
   12.2340  -17.5159   23.6128 C   0  0  0  0  0  0  0  0  0  0  0  0
   11.4131  -18.1932   22.9538 O   0  0  0  0  0  0  0  0  0  0  0  0
   12.0993  -17.4489   25.0803 C   0  0  0  0  0  0  0  0  0  0  0  0
   10.7543  -16.9769   25.4752 C   0  0  2  0  0  0  0  0  0  0  0  0
   10.2737  -15.8166   24.7917 N   0  0  0  0  0  0  0  0  0  0  0  0
   10.4495  -17.0427   26.9092 C   0  0  0  0  0  0  0  0  0  0  0  0
   10.8226  -18.1454   27.6747 O   0  0  0  0  0  0  0  0  0  0  0  0
    9.8529  -16.1364   27.5336 O   0  0  0  0  0  0  0  0  0  0  0  0
  1  2  1  0
  2  3  1  0
  4  3  1  0
  5  1  1  0
  5  4  1  0
  5  6  1  1
  7  6  2  0
  8  6  1  0
  9  8  1  0
  9 10  1  1
 10 11  1  0
 11 12  1  0
 12 13  1  0
 13 14  1  0
 15 22  1  0
 15  9  1  0
 16 15  2  0
 18 19  2  0
 18 17  1  0
 21 20  1  1
 20 18  1  0
 21 23  1  0
 21 22  1  0
 23 24  1  0
 25 23  2  0
M  END
$$$$
