PKN.pdb
     RDKit          3D

 25 25  0  0  1  0  0  0  0  0999 V2000
    8.5130  -14.6365   18.5971 N   0  0  0  0  0  0  0  0  0  0  0  0
    7.2933  -14.0310   18.0979 C   0  0  0  0  0  0  0  0  0  0  0  0
    6.7958  -13.1231   19.2317 C   0  0  0  0  0  0  0  0  0  0  0  0
    8.1224  -12.6268   19.7686 C   0  0  0  0  0  0  0  0  0  0  0  0
    8.9497  -13.8921   19.7328 C   0  0  1  0  0  0  0  0  0  0  0  0
    8.7373  -14.6433   21.0232 C   0  0  0  0  0  0  0  0  0  0  0  0
    9.0842  -14.1067   22.1102 O   0  0  0  0  0  0  0  0  0  0  0  0
    8.1579  -15.9367   21.0467 N   0  0  0  0  0  0  0  0  0  0  0  0
    8.0512  -16.6584   22.3379 C   0  0  1  0  0  0  0  0  0  0  0  0
    6.9342  -17.6712   22.2082 C   0  0  0  0  0  0  0  0  0  0  0  0
    6.8248  -18.5981   23.3674 C   0  0  0  0  0  0  0  0  0  0  0  0
    5.7870  -19.6609   22.9895 C   0  0  0  0  0  0  0  0  0  0  0  0
    5.5955  -20.6089   24.1513 C   0  0  0  0  0  0  0  0  0  0  0  0
    6.2977  -21.8643   23.8518 N   0  0  0  0  0  0  0  0  0  0  0  0
    9.3670  -17.2295   22.6367 C   0  0  0  0  0  0  0  0  0  0  0  0
   10.0713  -17.6429   21.6715 O   0  0  0  0  0  0  0  0  0  0  0  0
   14.4518  -15.9391   24.1992 N   0  0  0  0  0  0  0  0  0  0  0  0
   13.3394  -16.4166   23.4422 C   0  0  0  0  0  0  0  0  0  0  0  0
   13.5418  -17.1692   22.4627 O   0  0  0  0  0  0  0  0  0  0  0  0
   11.9554  -16.0419   23.7892 C   0  0  0  0  0  0  0  0  0  0  0  0
   11.2173  -17.1869   24.3651 C   0  0  2  0  0  0  0  0  0  0  0  0
    9.8532  -17.3198   23.9575 N   0  0  0  0  0  0  0  0  0  0  0  0
   11.4907  -17.4784   25.7772 C   0  0  0  0  0  0  0  0  0  0  0  0
   10.4799  -17.4159   26.7340 O   0  0  0  0  0  0  0  0  0  0  0  0
   12.6194  -17.8001   26.2129 O   0  0  0  0  0  0  0  0  0  0  0  0
  1  2  1  0
  2  3  1  0
  4  3  1  0
  5  1  1  0
  5  4  1  0
  5  6  1  1
  7  6  2  0
  8  6  1  0
  9  8  1  0
  9 10  1  6
 10 11  1  0
 11 12  1  0
 12 13  1  0
 13 14  1  0
 15 22  1  0
 15  9  1  0
 16 15  2  0
 18 19  2  0
 18 17  1  0
 21 20  1  1
 20 18  1  0
 21 23  1  0
 21 22  1  0
 23 24  1  0
 25 23  2  0
M  END
$$$$
