PKN.pdb
     RDKit          3D

 25 25  0  0  1  0  0  0  0  0999 V2000
    8.1035  -15.3780   19.8783 N   0  0  0  0  0  0  0  0  0  0  0  0
    6.9750  -14.6615   19.3156 C   0  0  0  0  0  0  0  0  0  0  0  0
    7.1842  -13.1939   19.7152 C   0  0  0  0  0  0  0  0  0  0  0  0
    8.6931  -13.1094   19.6140 C   0  0  0  0  0  0  0  0  0  0  0  0
    9.1067  -14.4270   20.2303 C   0  0  1  0  0  0  0  0  0  0  0  0
    9.2219  -14.2456   21.7231 C   0  0  0  0  0  0  0  0  0  0  0  0
   10.0482  -13.4088   22.1779 O   0  0  0  0  0  0  0  0  0  0  0  0
    8.4258  -14.9908   22.6287 N   0  0  0  0  0  0  0  0  0  0  0  0
    8.6107  -14.7928   24.0868 C   0  0  1  0  0  0  0  0  0  0  0  0
    7.2384  -14.6637   24.7115 C   0  0  0  0  0  0  0  0  0  0  0  0
    6.7644  -13.2587   24.8375 C   0  0  0  0  0  0  0  0  0  0  0  0
    6.6355  -12.9664   26.3367 C   0  0  0  0  0  0  0  0  0  0  0  0
    6.1005  -11.5658   26.5294 C   0  0  0  0  0  0  0  0  0  0  0  0
    5.8516  -11.3527   27.9618 N   0  0  0  0  0  0  0  0  0  0  0  0
    9.4115  -15.9126   24.5883 C   0  0  0  0  0  0  0  0  0  0  0  0
    8.8864  -16.6889   25.4370 O   0  0  0  0  0  0  0  0  0  0  0  0
   11.4776  -19.9245   25.0364 N   0  0  0  0  0  0  0  0  0  0  0  0
   10.5872  -19.7319   23.9370 C   0  0  0  0  0  0  0  0  0  0  0  0
    9.8921  -20.6923   23.5352 O   0  0  0  0  0  0  0  0  0  0  0  0
   10.4686  -18.4249   23.2633 C   0  0  0  0  0  0  0  0  0  0  0  0
   11.3347  -17.4106   23.9025 C   0  0  2  0  0  0  0  0  0  0  0  0
   10.7314  -16.1371   24.1450 N   0  0  0  0  0  0  0  0  0  0  0  0
   12.7274  -17.3775   23.4414 C   0  0  0  0  0  0  0  0  0  0  0  0
   13.7121  -18.1370   24.0699 O   0  0  0  0  0  0  0  0  0  0  0  0
   13.1214  -16.6876   22.4740 O   0  0  0  0  0  0  0  0  0  0  0  0
  1  2  1  0
  2  3  1  0
  4  3  1  0
  5  1  1  0
  5  4  1  0
  5  6  1  1
  7  6  2  0
  8  6  1  0
  9  8  1  0
  9 10  1  1
 10 11  1  0
 11 12  1  0
 12 13  1  0
 13 14  1  0
 15 22  1  0
 15  9  1  0
 16 15  2  0
 18 19  2  0
 18 17  1  0
 21 20  1  6
 20 18  1  0
 21 23  1  0
 21 22  1  0
 23 24  1  0
 25 23  2  0
M  END
$$$$
