PKN.pdb
     RDKit          3D

 25 25  0  0  1  0  0  0  0  0999 V2000
    9.0112  -14.7212   19.5220 N   0  0  0  0  0  0  0  0  0  0  0  0
    8.1483  -14.5625   18.3671 C   0  0  0  0  0  0  0  0  0  0  0  0
    6.9323  -13.7732   18.8727 C   0  0  0  0  0  0  0  0  0  0  0  0
    7.6139  -12.8516   19.8628 C   0  0  0  0  0  0  0  0  0  0  0  0
    8.5919  -13.7966   20.5240 C   0  0  1  0  0  0  0  0  0  0  0  0
    7.8983  -14.4796   21.6759 C   0  0  0  0  0  0  0  0  0  0  0  0
    7.3114  -13.7771   22.5430 O   0  0  0  0  0  0  0  0  0  0  0  0
    7.8882  -15.8906   21.8098 N   0  0  0  0  0  0  0  0  0  0  0  0
    7.2245  -16.5012   22.9871 C   0  0  1  0  0  0  0  0  0  0  0  0
    7.0704  -17.9814   22.7126 C   0  0  0  0  0  0  0  0  0  0  0  0
    6.4492  -18.7396   23.8325 C   0  0  0  0  0  0  0  0  0  0  0  0
    6.3344  -20.1970   23.3719 C   0  0  0  0  0  0  0  0  0  0  0  0
    5.6385  -21.0068   24.4420 C   0  0  0  0  0  0  0  0  0  0  0  0
    5.4066  -22.3630   23.9263 N   0  0  0  0  0  0  0  0  0  0  0  0
    8.0285  -16.1755   24.1678 C   0  0  0  0  0  0  0  0  0  0  0  0
    9.2872  -16.2481   24.0714 O   0  0  0  0  0  0  0  0  0  0  0  0
    7.8155  -13.0812   25.0791 N   0  0  0  0  0  0  0  0  0  0  0  0
    7.3811  -13.0649   26.4391 C   0  0  0  0  0  0  0  0  0  0  0  0
    6.8600  -12.0260   26.9041 O   0  0  0  0  0  0  0  0  0  0  0  0
    7.5334  -14.2463   27.3093 C   0  0  0  0  0  0  0  0  0  0  0  0
    8.1237  -15.3842   26.5715 C   0  0  2  0  0  0  0  0  0  0  0  0
    7.4333  -15.7856   25.3855 N   0  0  0  0  0  0  0  0  0  0  0  0
    8.6563  -16.4740   27.3975 C   0  0  0  0  0  0  0  0  0  0  0  0
    8.3372  -17.8033   27.1282 O   0  0  0  0  0  0  0  0  0  0  0  0
    9.4186  -16.2951   28.3742 O   0  0  0  0  0  0  0  0  0  0  0  0
  1  2  1  0
  2  3  1  0
  4  3  1  0
  5  1  1  0
  5  4  1  0
  5  6  1  1
  7  6  2  0
  8  6  1  0
  9  8  1  0
  9 10  1  6
 10 11  1  0
 11 12  1  0
 12 13  1  0
 13 14  1  0
 15 22  1  0
 15  9  1  0
 16 15  2  0
 18 19  2  0
 18 17  1  0
 21 20  1  1
 20 18  1  0
 21 23  1  0
 21 22  1  0
 23 24  1  0
 25 23  2  0
M  END
$$$$
