PKN.pdb
     RDKit          3D

 25 25  0  0  1  0  0  0  0  0999 V2000
    8.4186  -14.7432   18.0468 N   0  0  0  0  0  0  0  0  0  0  0  0
    7.1707  -14.0757   17.7295 C   0  0  0  0  0  0  0  0  0  0  0  0
    6.9561  -13.0559   18.8569 C   0  0  0  0  0  0  0  0  0  0  0  0
    8.3900  -12.6338   19.1021 C   0  0  0  0  0  0  0  0  0  0  0  0
    9.1090  -13.9616   19.0201 C   0  0  1  0  0  0  0  0  0  0  0  0
    9.0915  -14.6041   20.3844 C   0  0  0  0  0  0  0  0  0  0  0  0
    9.6658  -14.0224   21.3444 O   0  0  0  0  0  0  0  0  0  0  0  0
    8.4464  -15.8447   20.6164 N   0  0  0  0  0  0  0  0  0  0  0  0
    8.5314  -16.4641   21.9613 C   0  0  1  0  0  0  0  0  0  0  0  0
    7.5651  -17.6283   21.9938 C   0  0  0  0  0  0  0  0  0  0  0  0
    7.6192  -18.4202   23.2527 C   0  0  0  0  0  0  0  0  0  0  0  0
    6.6278  -19.5781   23.0916 C   0  0  0  0  0  0  0  0  0  0  0  0
    6.6207  -20.4102   24.3536 C   0  0  0  0  0  0  0  0  0  0  0  0
    5.6177  -21.4739   24.2074 N   0  0  0  0  0  0  0  0  0  0  0  0
    9.9326  -16.8216   22.1970 C   0  0  0  0  0  0  0  0  0  0  0  0
   10.5076  -17.5692   21.3549 O   0  0  0  0  0  0  0  0  0  0  0  0
   13.0038  -16.6109   21.1946 N   0  0  0  0  0  0  0  0  0  0  0  0
   13.5433  -15.7566   22.2035 C   0  0  0  0  0  0  0  0  0  0  0  0
   14.4803  -14.9793   21.9122 O   0  0  0  0  0  0  0  0  0  0  0  0
   13.0205  -15.7700   23.5829 C   0  0  0  0  0  0  0  0  0  0  0  0
   11.9411  -16.7692   23.7384 C   0  0  2  0  0  0  0  0  0  0  0  0
   10.6381  -16.3510   23.3239 N   0  0  0  0  0  0  0  0  0  0  0  0
   11.9906  -17.5781   24.9618 C   0  0  0  0  0  0  0  0  0  0  0  0
   11.2054  -17.2594   26.0678 O   0  0  0  0  0  0  0  0  0  0  0  0
   12.7178  -18.5882   25.0964 O   0  0  0  0  0  0  0  0  0  0  0  0
  1  2  1  0
  2  3  1  0
  4  3  1  0
  5  1  1  0
  5  4  1  0
  5  6  1  1
  7  6  2  0
  8  6  1  0
  9  8  1  0
  9 10  1  6
 10 11  1  0
 11 12  1  0
 12 13  1  0
 13 14  1  0
 15 22  1  0
 15  9  1  0
 16 15  2  0
 18 19  2  0
 18 17  1  0
 21 20  1  1
 20 18  1  0
 21 23  1  0
 21 22  1  0
 23 24  1  0
 25 23  2  0
M  END
$$$$
