PKN.pdb
     RDKit          3D

 25 25  0  0  1  0  0  0  0  0999 V2000
    8.9305  -14.7446   19.5953 N   0  0  0  0  0  0  0  0  0  0  0  0
    8.0769  -14.4500   18.4604 C   0  0  0  0  0  0  0  0  0  0  0  0
    6.9882  -13.5126   19.0021 C   0  0  0  0  0  0  0  0  0  0  0  0
    7.8058  -12.7095   19.9925 C   0  0  0  0  0  0  0  0  0  0  0  0
    8.6582  -13.7898   20.6196 C   0  0  1  0  0  0  0  0  0  0  0  0
    7.8987  -14.3933   21.7744 C   0  0  0  0  0  0  0  0  0  0  0  0
    7.2894  -13.6317   22.5735 O   0  0  0  0  0  0  0  0  0  0  0  0
    7.8513  -15.7941   21.9854 N   0  0  0  0  0  0  0  0  0  0  0  0
    7.1429  -16.3230   23.1761 C   0  0  1  0  0  0  0  0  0  0  0  0
    6.6956  -17.7331   22.8571 C   0  0  0  0  0  0  0  0  0  0  0  0
    5.6199  -17.8056   21.8313 C   0  0  0  0  0  0  0  0  0  0  0  0
    5.3786  -19.2921   21.5454 C   0  0  0  0  0  0  0  0  0  0  0  0
    4.2738  -19.4323   20.5232 C   0  0  0  0  0  0  0  0  0  0  0  0
    4.0751  -20.8606   20.2416 N   0  0  0  0  0  0  0  0  0  0  0  0
    8.0523  -16.2105   24.3194 C   0  0  0  0  0  0  0  0  0  0  0  0
    9.2759  -16.4713   24.1366 O   0  0  0  0  0  0  0  0  0  0  0  0
    6.9276  -12.4202   27.1900 N   0  0  0  0  0  0  0  0  0  0  0  0
    8.0338  -13.3198   27.1147 C   0  0  0  0  0  0  0  0  0  0  0  0
    9.0711  -12.9672   26.5092 O   0  0  0  0  0  0  0  0  0  0  0  0
    7.9810  -14.6572   27.7350 C   0  0  0  0  0  0  0  0  0  0  0  0
    8.3889  -15.7093   26.7787 C   0  0  2  0  0  0  0  0  0  0  0  0
    7.5947  -15.8194   25.5948 N   0  0  0  0  0  0  0  0  0  0  0  0
    8.8252  -16.9783   27.3726 C   0  0  0  0  0  0  0  0  0  0  0  0
    9.7410  -17.0047   28.4223 O   0  0  0  0  0  0  0  0  0  0  0  0
    8.4149  -18.0987   26.9936 O   0  0  0  0  0  0  0  0  0  0  0  0
  1  2  1  0
  2  3  1  0
  4  3  1  0
  5  1  1  0
  5  4  1  0
  5  6  1  1
  7  6  2  0
  8  6  1  0
  9  8  1  0
  9 10  1  6
 10 11  1  0
 11 12  1  0
 12 13  1  0
 13 14  1  0
 15 22  1  0
 15  9  1  0
 16 15  2  0
 18 19  2  0
 18 17  1  0
 21 20  1  1
 20 18  1  0
 21 23  1  0
 21 22  1  0
 23 24  1  0
 25 23  2  0
M  END
$$$$
