PKN.pdb
     RDKit          3D

 25 25  0  0  1  0  0  0  0  0999 V2000
    8.2955  -19.2972   16.4990 N   0  0  0  0  0  0  0  0  0  0  0  0
    7.2264  -18.9565   15.5801 C   0  0  0  0  0  0  0  0  0  0  0  0
    7.5775  -17.5603   15.0466 C   0  0  0  0  0  0  0  0  0  0  0  0
    9.0855  -17.6819   14.9724 C   0  0  0  0  0  0  0  0  0  0  0  0
    9.3887  -18.4122   16.2614 C   0  0  1  0  0  0  0  0  0  0  0  0
    9.5502  -17.3963   17.3643 C   0  0  0  0  0  0  0  0  0  0  0  0
   10.5700  -16.6547   17.3714 O   0  0  0  0  0  0  0  0  0  0  0  0
    8.5860  -17.2527   18.3932 N   0  0  0  0  0  0  0  0  0  0  0  0
    8.7907  -16.2200   19.4377 C   0  0  1  0  0  0  0  0  0  0  0  0
    7.4273  -15.7939   19.9374 C   0  0  0  0  0  0  0  0  0  0  0  0
    7.4756  -14.8121   21.0547 C   0  0  0  0  0  0  0  0  0  0  0  0
    7.6854  -13.4312   20.4232 C   0  0  0  0  0  0  0  0  0  0  0  0
    7.6654  -12.3772   21.5067 C   0  0  0  0  0  0  0  0  0  0  0  0
    7.9071  -11.0661   20.8889 N   0  0  0  0  0  0  0  0  0  0  0  0
    9.6690  -16.7925   20.4612 C   0  0  0  0  0  0  0  0  0  0  0  0
    9.5180  -18.0108   20.7637 O   0  0  0  0  0  0  0  0  0  0  0  0
   14.6150  -17.1103   23.1679 N   0  0  0  0  0  0  0  0  0  0  0  0
   13.5557  -16.2036   23.4752 C   0  0  0  0  0  0  0  0  0  0  0  0
   13.3390  -15.8954   24.6690 O   0  0  0  0  0  0  0  0  0  0  0  0
   12.7098  -15.6217   22.4159 C   0  0  0  0  0  0  0  0  0  0  0  0
   11.5189  -16.4602   22.1584 C   0  0  2  0  0  0  0  0  0  0  0  0
   10.6639  -16.0228   21.0990 N   0  0  0  0  0  0  0  0  0  0  0  0
   10.8397  -16.9879   23.3475 C   0  0  0  0  0  0  0  0  0  0  0  0
    9.7650  -16.3123   23.9219 O   0  0  0  0  0  0  0  0  0  0  0  0
   11.1637  -18.0559   23.9145 O   0  0  0  0  0  0  0  0  0  0  0  0
  1  2  1  0
  2  3  1  0
  4  3  1  0
  5  1  1  0
  5  4  1  0
  5  6  1  1
  7  6  2  0
  8  6  1  0
  9  8  1  0
  9 10  1  1
 10 11  1  0
 11 12  1  0
 12 13  1  0
 13 14  1  0
 15 22  1  0
 15  9  1  0
 16 15  2  0
 18 19  2  0
 18 17  1  0
 21 20  1  1
 20 18  1  0
 21 23  1  0
 21 22  1  0
 23 24  1  0
 25 23  2  0
M  END
$$$$
