PKN.pdb
     RDKit          3D

 25 25  0  0  1  0  0  0  0  0999 V2000
    9.0556  -14.6269   19.3810 N   0  0  0  0  0  0  0  0  0  0  0  0
    8.0155  -14.4028   18.3953 C   0  0  0  0  0  0  0  0  0  0  0  0
    6.9657  -13.5333   19.1017 C   0  0  0  0  0  0  0  0  0  0  0  0
    7.8736  -12.6664   19.9493 C   0  0  0  0  0  0  0  0  0  0  0  0
    8.8850  -13.6805   20.4345 C   0  0  1  0  0  0  0  0  0  0  0  0
    8.3599  -14.3194   21.6956 C   0  0  0  0  0  0  0  0  0  0  0  0
    7.9997  -13.5824   22.6532 O   0  0  0  0  0  0  0  0  0  0  0  0
    8.2602  -15.7265   21.8333 N   0  0  0  0  0  0  0  0  0  0  0  0
    7.6906  -16.2932   23.0798 C   0  0  1  0  0  0  0  0  0  0  0  0
    7.2892  -17.7240   22.7938 C   0  0  0  0  0  0  0  0  0  0  0  0
    6.8506  -18.4783   23.9993 C   0  0  0  0  0  0  0  0  0  0  0  0
    6.4999  -19.8957   23.5328 C   0  0  0  0  0  0  0  0  0  0  0  0
    6.0552  -20.7180   24.7207 C   0  0  0  0  0  0  0  0  0  0  0  0
    5.8781  -22.1104   24.2862 N   0  0  0  0  0  0  0  0  0  0  0  0
    8.6929  -16.1356   24.1369 C   0  0  0  0  0  0  0  0  0  0  0  0
    9.9055  -16.3440   23.8455 O   0  0  0  0  0  0  0  0  0  0  0  0
   10.9577  -13.7054   28.6336 N   0  0  0  0  0  0  0  0  0  0  0  0
    9.8152  -14.5608   28.6756 C   0  0  0  0  0  0  0  0  0  0  0  0
    9.6326  -15.2915   29.6755 O   0  0  0  0  0  0  0  0  0  0  0  0
    8.8446  -14.6027   27.5656 C   0  0  0  0  0  0  0  0  0  0  0  0
    9.2249  -15.6162   26.5577 C   0  0  2  0  0  0  0  0  0  0  0  0
    8.3347  -15.7583   25.4477 N   0  0  0  0  0  0  0  0  0  0  0  0
    9.7863  -16.8645   27.0870 C   0  0  0  0  0  0  0  0  0  0  0  0
   11.1180  -16.9412   27.4893 O   0  0  0  0  0  0  0  0  0  0  0  0
    9.1275  -17.9211   27.2166 O   0  0  0  0  0  0  0  0  0  0  0  0
  1  2  1  0
  2  3  1  0
  4  3  1  0
  5  1  1  0
  5  4  1  0
  5  6  1  1
  7  6  2  0
  8  6  1  0
  9  8  1  0
  9 10  1  6
 10 11  1  0
 11 12  1  0
 12 13  1  0
 13 14  1  0
 15 22  1  0
 15  9  1  0
 16 15  2  0
 18 19  2  0
 18 17  1  0
 21 20  1  1
 20 18  1  0
 21 23  1  0
 21 22  1  0
 23 24  1  0
 25 23  2  0
M  END
$$$$
