PKN.pdb
     RDKit          3D

 25 25  0  0  1  0  0  0  0  0999 V2000
    8.1677  -14.8646   18.7636 N   0  0  0  0  0  0  0  0  0  0  0  0
    6.8883  -14.2817   18.4074 C   0  0  0  0  0  0  0  0  0  0  0  0
    6.6111  -13.2203   19.4816 C   0  0  0  0  0  0  0  0  0  0  0  0
    8.0185  -12.7101   19.7123 C   0  0  0  0  0  0  0  0  0  0  0  0
    8.8081  -13.9997   19.7000 C   0  0  1  0  0  0  0  0  0  0  0  0
    8.8149  -14.5739   21.0945 C   0  0  0  0  0  0  0  0  0  0  0  0
    9.3350  -13.9078   22.0303 O   0  0  0  0  0  0  0  0  0  0  0  0
    8.2518  -15.8426   21.3816 N   0  0  0  0  0  0  0  0  0  0  0  0
    8.3869  -16.4017   22.7486 C   0  0  1  0  0  0  0  0  0  0  0  0
    7.3553  -17.4983   22.9015 C   0  0  0  0  0  0  0  0  0  0  0  0
    7.5300  -18.3220   24.1286 C   0  0  0  0  0  0  0  0  0  0  0  0
    6.4916  -19.4473   24.0594 C   0  0  0  0  0  0  0  0  0  0  0  0
    6.5110  -20.2266   25.3546 C   0  0  0  0  0  0  0  0  0  0  0  0
    5.4903  -21.2811   25.2818 N   0  0  0  0  0  0  0  0  0  0  0  0
    9.7760  -16.8373   22.9141 C   0  0  0  0  0  0  0  0  0  0  0  0
   10.3501  -17.3876   21.9312 O   0  0  0  0  0  0  0  0  0  0  0  0
   15.3465  -15.7902   24.1553 N   0  0  0  0  0  0  0  0  0  0  0  0
   14.2136  -16.6460   24.0045 C   0  0  0  0  0  0  0  0  0  0  0  0
   14.3756  -17.8871   24.0248 O   0  0  0  0  0  0  0  0  0  0  0  0
   12.8553  -16.0994   23.8249 C   0  0  0  0  0  0  0  0  0  0  0  0
   11.8319  -17.0100   24.3827 C   0  0  2  0  0  0  0  0  0  0  0  0
   10.4712  -16.6522   24.1272 N   0  0  0  0  0  0  0  0  0  0  0  0
   12.1097  -17.5394   25.7229 C   0  0  0  0  0  0  0  0  0  0  0  0
   11.1760  -17.4235   26.7505 O   0  0  0  0  0  0  0  0  0  0  0  0
   13.1741  -18.1216   26.0315 O   0  0  0  0  0  0  0  0  0  0  0  0
  1  2  1  0
  2  3  1  0
  4  3  1  0
  5  1  1  0
  5  4  1  0
  5  6  1  1
  7  6  2  0
  8  6  1  0
  9  8  1  0
  9 10  1  6
 10 11  1  0
 11 12  1  0
 12 13  1  0
 13 14  1  0
 15 22  1  0
 15  9  1  0
 16 15  2  0
 18 19  2  0
 18 17  1  0
 21 20  1  1
 20 18  1  0
 21 23  1  0
 21 22  1  0
 23 24  1  0
 25 23  2  0
M  END
$$$$
