PKN.pdb
     RDKit          3D

 25 25  0  0  1  0  0  0  0  0999 V2000
    8.5079  -14.5867   18.6562 N   0  0  0  0  0  0  0  0  0  0  0  0
    7.2440  -14.0035   18.2491 C   0  0  0  0  0  0  0  0  0  0  0  0
    6.8029  -13.1239   19.4277 C   0  0  0  0  0  0  0  0  0  0  0  0
    8.1508  -12.6037   19.8826 C   0  0  0  0  0  0  0  0  0  0  0  0
    9.0026  -13.8482   19.7719 C   0  0  1  0  0  0  0  0  0  0  0  0
    8.8946  -14.6225   21.0616 C   0  0  0  0  0  0  0  0  0  0  0  0
    9.2650  -14.0786   22.1371 O   0  0  0  0  0  0  0  0  0  0  0  0
    8.3873  -15.9455   21.0970 N   0  0  0  0  0  0  0  0  0  0  0  0
    8.3744  -16.6814   22.3846 C   0  0  1  0  0  0  0  0  0  0  0  0
    7.3444  -17.7845   22.2741 C   0  0  0  0  0  0  0  0  0  0  0  0
    7.2236  -18.6200   23.4998 C   0  0  0  0  0  0  0  0  0  0  0  0
    6.2398  -19.7489   23.1723 C   0  0  0  0  0  0  0  0  0  0  0  0
    5.9723  -20.5576   24.4211 C   0  0  0  0  0  0  0  0  0  0  0  0
    5.1198  -21.7002   24.0653 N   0  0  0  0  0  0  0  0  0  0  0  0
    9.7409  -17.1404   22.6467 C   0  0  0  0  0  0  0  0  0  0  0  0
   10.5877  -17.0586   21.7114 O   0  0  0  0  0  0  0  0  0  0  0  0
   13.8041  -17.7816   23.4955 N   0  0  0  0  0  0  0  0  0  0  0  0
   13.3271  -16.4379   23.5707 C   0  0  0  0  0  0  0  0  0  0  0  0
   14.0280  -15.5113   23.1049 O   0  0  0  0  0  0  0  0  0  0  0  0
   12.0252  -16.1173   24.1860 C   0  0  0  0  0  0  0  0  0  0  0  0
   11.3186  -17.3430   24.6172 C   0  0  2  0  0  0  0  0  0  0  0  0
   10.1209  -17.6580   23.9024 N   0  0  0  0  0  0  0  0  0  0  0  0
   11.2770  -17.5809   26.0647 C   0  0  0  0  0  0  0  0  0  0  0  0
   12.2685  -18.3248   26.7007 O   0  0  0  0  0  0  0  0  0  0  0  0
   10.3756  -17.1414   26.8140 O   0  0  0  0  0  0  0  0  0  0  0  0
  1  2  1  0
  2  3  1  0
  4  3  1  0
  5  1  1  0
  5  4  1  0
  5  6  1  1
  7  6  2  0
  8  6  1  0
  9  8  1  0
  9 10  1  6
 10 11  1  0
 11 12  1  0
 12 13  1  0
 13 14  1  0
 15 22  1  0
 15  9  1  0
 16 15  2  0
 18 19  2  0
 18 17  1  0
 21 20  1  1
 20 18  1  0
 21 23  1  0
 21 22  1  0
 23 24  1  0
 25 23  2  0
M  END
$$$$
