PKN.pdb
     RDKit          3D

 25 25  0  0  1  0  0  0  0  0999 V2000
    7.5935  -15.0405   19.2685 N   0  0  0  0  0  0  0  0  0  0  0  0
    6.8164  -13.9176   18.7798 C   0  0  0  0  0  0  0  0  0  0  0  0
    7.6334  -12.6689   19.1412 C   0  0  0  0  0  0  0  0  0  0  0  0
    9.0343  -13.2041   18.9281 C   0  0  0  0  0  0  0  0  0  0  0  0
    8.9198  -14.5858   19.5317 C   0  0  1  0  0  0  0  0  0  0  0  0
    9.2077  -14.4917   21.0091 C   0  0  0  0  0  0  0  0  0  0  0  0
   10.3940  -14.3036   21.3926 O   0  0  0  0  0  0  0  0  0  0  0  0
    8.1802  -14.6089   21.9783 N   0  0  0  0  0  0  0  0  0  0  0  0
    8.5433  -14.6609   23.4153 C   0  0  1  0  0  0  0  0  0  0  0  0
    7.3728  -14.1178   24.2059 C   0  0  0  0  0  0  0  0  0  0  0  0
    7.7638  -13.4457   25.4748 C   0  0  0  0  0  0  0  0  0  0  0  0
    6.4720  -12.9357   26.1234 C   0  0  0  0  0  0  0  0  0  0  0  0
    6.8140  -12.1433   27.3644 C   0  0  0  0  0  0  0  0  0  0  0  0
    5.5638  -11.6947   27.9928 N   0  0  0  0  0  0  0  0  0  0  0  0
    8.9087  -16.0444   23.7304 C   0  0  0  0  0  0  0  0  0  0  0  0
    8.7792  -16.9170   22.8247 O   0  0  0  0  0  0  0  0  0  0  0  0
   12.1767  -17.9696   22.0911 N   0  0  0  0  0  0  0  0  0  0  0  0
   12.0135  -18.0573   23.5069 C   0  0  0  0  0  0  0  0  0  0  0  0
   12.1175  -19.1712   24.0684 O   0  0  0  0  0  0  0  0  0  0  0  0
   11.7246  -16.8630   24.3232 C   0  0  0  0  0  0  0  0  0  0  0  0
   10.6140  -17.1136   25.2673 C   0  0  2  0  0  0  0  0  0  0  0  0
    9.3974  -16.4107   25.0016 N   0  0  0  0  0  0  0  0  0  0  0  0
   10.9899  -17.2229   26.6816 C   0  0  0  0  0  0  0  0  0  0  0  0
   11.1898  -18.4655   27.2793 O   0  0  0  0  0  0  0  0  0  0  0  0
   11.1585  -16.2357   27.4326 O   0  0  0  0  0  0  0  0  0  0  0  0
  1  2  1  0
  2  3  1  0
  4  3  1  0
  5  1  1  0
  5  4  1  0
  5  6  1  1
  7  6  2  0
  8  6  1  0
  9  8  1  0
  9 10  1  1
 10 11  1  0
 11 12  1  0
 12 13  1  0
 13 14  1  0
 15 22  1  0
 15  9  1  0
 16 15  2  0
 18 19  2  0
 18 17  1  0
 21 20  1  6
 20 18  1  0
 21 23  1  0
 21 22  1  0
 23 24  1  0
 25 23  2  0
M  END
$$$$
