LCQ.pdb
     RDKit          3D

 24 23  0  0  1  0  0  0  0  0999 V2000
    8.7193  -14.6844   19.0376 C   0  0  0  0  0  0  0  0  0  0  0  0
    7.8419  -13.6298   19.6233 C   0  0  2  0  0  0  0  0  0  0  0  0
    7.6307  -12.4476   18.7024 C   0  0  0  0  0  0  0  0  0  0  0  0
    8.3075  -13.2092   20.9976 C   0  0  0  0  0  0  0  0  0  0  0  0
    8.2176  -14.4338   21.8916 C   0  0  2  0  0  0  0  0  0  0  0  0
    6.8955  -14.9935   21.7031 N   0  0  0  0  0  0  0  0  0  0  0  0
    8.4245  -14.1251   23.3021 C   0  0  0  0  0  0  0  0  0  0  0  0
    8.9349  -13.0245   23.6354 O   0  0  0  0  0  0  0  0  0  0  0  0
    8.0874  -14.9918   24.3811 N   0  0  0  0  0  0  0  0  0  0  0  0
    8.3187  -14.6807   25.7766 C   0  0  1  0  0  0  0  0  0  0  0  0
    7.4686  -13.4505   26.0897 C   0  0  0  0  0  0  0  0  0  0  0  0
    5.7766  -13.6392   25.4847 S   0  0  0  0  0  0  0  0  0  0  0  0
    7.8606  -15.7558   26.6774 C   0  0  0  0  0  0  0  0  0  0  0  0
    6.6637  -16.0098   26.9391 O   0  0  0  0  0  0  0  0  0  0  0  0
    6.9483  -21.7192   27.2157 N   0  0  0  0  0  0  0  0  0  0  0  0
    7.2354  -20.7589   26.2259 C   0  0  0  0  0  0  0  0  0  0  0  0
    6.3706  -20.4449   25.3944 O   0  0  0  0  0  0  0  0  0  0  0  0
    8.5646  -20.1351   26.1868 C   0  0  0  0  0  0  0  0  0  0  0  0
    8.5677  -18.6410   26.1731 C   0  0  0  0  0  0  0  0  0  0  0  0
    8.6707  -17.9945   27.5239 C   0  0  2  0  0  0  0  0  0  0  0  0
    8.8567  -16.5634   27.2939 N   0  0  0  0  0  0  0  0  0  0  0  0
    9.8584  -18.4961   28.2490 C   0  0  0  0  0  0  0  0  0  0  0  0
    9.8133  -19.6108   28.8107 O   0  0  0  0  0  0  0  0  0  0  0  0
   11.0397  -17.7795   28.3385 O   0  0  0  0  0  0  0  0  0  0  0  0
  2  3  1  6
  2  1  1  0
  4  2  1  0
  5  7  1  0
  5  4  1  0
  5  6  1  1
  7  8  2  0
  9 10  1  0
  9  7  1  0
 10 11  1  1
 11 12  1  0
 13 10  1  0
 14 13  2  0
 16 15  1  0
 16 17  2  0
 18 16  1  0
 19 18  1  0
 20 19  1  6
 20 21  1  0
 21 13  1  0
 22 20  1  0
 22 24  1  0
 23 22  2  0
M  END
$$$$
