LCQ.pdb
     RDKit          3D

 24 23  0  0  1  0  0  0  0  0999 V2000
    7.8840  -14.6474   19.1083 C   0  0  0  0  0  0  0  0  0  0  0  0
    7.6961  -13.6392   20.1915 C   0  0  2  0  0  0  0  0  0  0  0  0
    7.3717  -12.2555   19.6715 C   0  0  0  0  0  0  0  0  0  0  0  0
    8.8560  -13.6298   21.1595 C   0  0  0  0  0  0  0  0  0  0  0  0
    8.8324  -14.9588   21.8945 C   0  0  2  0  0  0  0  0  0  0  0  0
    7.4429  -15.3505   22.0066 N   0  0  0  0  0  0  0  0  0  0  0  0
    9.4314  -14.8855   23.2224 C   0  0  0  0  0  0  0  0  0  0  0  0
   10.6749  -14.7362   23.3427 O   0  0  0  0  0  0  0  0  0  0  0  0
    8.7071  -14.9710   24.4459 N   0  0  0  0  0  0  0  0  0  0  0  0
    9.3215  -14.9530   25.7574 C   0  0  1  0  0  0  0  0  0  0  0  0
    8.5934  -13.8752   26.5588 C   0  0  0  0  0  0  0  0  0  0  0  0
    9.1961  -13.7895   28.2600 S   0  0  0  0  0  0  0  0  0  0  0  0
    9.1356  -16.2233   26.4846 C   0  0  0  0  0  0  0  0  0  0  0  0
    8.0278  -16.7372   26.7575 O   0  0  0  0  0  0  0  0  0  0  0  0
   12.1687  -21.0396   25.0051 N   0  0  0  0  0  0  0  0  0  0  0  0
   12.9293  -19.9484   25.4687 C   0  0  0  0  0  0  0  0  0  0  0  0
   14.1067  -19.8112   25.1042 O   0  0  0  0  0  0  0  0  0  0  0  0
   12.3178  -18.9776   26.3858 C   0  0  0  0  0  0  0  0  0  0  0  0
   10.8754  -19.2138   26.6955 C   0  0  0  0  0  0  0  0  0  0  0  0
   10.2468  -18.1975   27.6038 C   0  0  2  0  0  0  0  0  0  0  0  0
   10.3055  -16.9145   26.9066 N   0  0  0  0  0  0  0  0  0  0  0  0
   11.0246  -18.0700   28.8555 C   0  0  0  0  0  0  0  0  0  0  0  0
   11.0701  -19.0294   29.6541 O   0  0  0  0  0  0  0  0  0  0  0  0
   11.7177  -16.9201   29.1934 O   0  0  0  0  0  0  0  0  0  0  0  0
  2  3  1  6
  2  1  1  0
  4  2  1  0
  5  7  1  0
  5  4  1  0
  5  6  1  1
  7  8  2  0
  9 10  1  0
  9  7  1  0
 10 11  1  1
 11 12  1  0
 13 10  1  0
 14 13  2  0
 16 15  1  0
 16 17  2  0
 18 16  1  0
 19 18  1  0
 20 19  1  6
 20 21  1  0
 21 13  1  0
 22 20  1  0
 22 24  1  0
 23 22  2  0
M  END
$$$$
