LCQ.pdb
     RDKit          3D

 24 23  0  0  1  0  0  0  0  0999 V2000
    8.0232  -12.7888   18.6875 C   0  0  0  0  0  0  0  0  0  0  0  0
    7.7036  -13.5734   19.9152 C   0  0  2  0  0  0  0  0  0  0  0  0
    7.3753  -12.7060   21.1111 C   0  0  0  0  0  0  0  0  0  0  0  0
    8.7726  -14.5949   20.2250 C   0  0  0  0  0  0  0  0  0  0  0  0
    8.2704  -15.4228   21.3953 C   0  0  2  0  0  0  0  0  0  0  0  0
    6.8295  -15.4924   21.2710 N   0  0  0  0  0  0  0  0  0  0  0  0
    8.6255  -14.8523   22.6899 C   0  0  0  0  0  0  0  0  0  0  0  0
    9.8359  -14.7210   23.0072 O   0  0  0  0  0  0  0  0  0  0  0  0
    7.6882  -14.4121   23.6680 N   0  0  0  0  0  0  0  0  0  0  0  0
    8.0420  -14.0330   25.0203 C   0  0  1  0  0  0  0  0  0  0  0  0
    6.8868  -13.1817   25.5446 C   0  0  0  0  0  0  0  0  0  0  0  0
    7.1930  -12.6104   27.2312 S   0  0  0  0  0  0  0  0  0  0  0  0
    8.1566  -15.1966   25.9204 C   0  0  0  0  0  0  0  0  0  0  0  0
    7.2296  -15.9964   26.1790 O   0  0  0  0  0  0  0  0  0  0  0  0
   11.8235  -19.4985   25.0217 N   0  0  0  0  0  0  0  0  0  0  0  0
   11.6655  -19.7502   26.3986 C   0  0  0  0  0  0  0  0  0  0  0  0
   12.1511  -20.7734   26.9036 O   0  0  0  0  0  0  0  0  0  0  0  0
   10.9219  -18.7933   27.2286 C   0  0  0  0  0  0  0  0  0  0  0  0
   10.4370  -17.5730   26.5158 C   0  0  0  0  0  0  0  0  0  0  0  0
    9.6791  -16.5986   27.3698 C   0  0  2  0  0  0  0  0  0  0  0  0
    9.4170  -15.4247   26.5399 N   0  0  0  0  0  0  0  0  0  0  0  0
   10.5037  -16.1669   28.5195 C   0  0  0  0  0  0  0  0  0  0  0  0
   11.1234  -15.0839   28.4624 O   0  0  0  0  0  0  0  0  0  0  0  0
   10.6259  -16.9162   29.6774 O   0  0  0  0  0  0  0  0  0  0  0  0
  2  3  1  1
  2  1  1  0
  4  2  1  0
  5  7  1  0
  5  4  1  0
  5  6  1  1
  7  8  2  0
  9 10  1  0
  9  7  1  0
 10 11  1  1
 11 12  1  0
 13 10  1  0
 14 13  2  0
 16 15  1  0
 16 17  2  0
 18 16  1  0
 19 18  1  0
 20 19  1  6
 20 21  1  0
 21 13  1  0
 22 20  1  0
 22 24  1  0
 23 22  2  0
M  END
$$$$
