LCQ.pdb
     RDKit          3D

 24 23  0  0  1  0  0  0  0  0999 V2000
    9.9767  -19.7724   16.0487 C   0  0  0  0  0  0  0  0  0  0  0  0
   11.4175  -20.1484   16.1371 C   0  0  2  0  0  0  0  0  0  0  0  0
   11.6755  -21.6069   15.8267 C   0  0  0  0  0  0  0  0  0  0  0  0
   12.0301  -19.7256   17.4517 C   0  0  0  0  0  0  0  0  0  0  0  0
   11.7348  -18.2457   17.6243 C   0  0  2  0  0  0  0  0  0  0  0  0
   12.4651  -17.5493   16.5859 N   0  0  0  0  0  0  0  0  0  0  0  0
   12.1315  -17.7349   18.9317 C   0  0  0  0  0  0  0  0  0  0  0  0
   13.3144  -17.3515   19.1232 O   0  0  0  0  0  0  0  0  0  0  0  0
   11.2661  -17.6262   20.0579 N   0  0  0  0  0  0  0  0  0  0  0  0
   11.7060  -17.2632   21.3892 C   0  0  1  0  0  0  0  0  0  0  0  0
   10.4571  -16.8190   22.1488 C   0  0  0  0  0  0  0  0  0  0  0  0
   10.8364  -16.3964   23.8641 S   0  0  0  0  0  0  0  0  0  0  0  0
   12.2697  -18.4088   22.1287 C   0  0  0  0  0  0  0  0  0  0  0  0
   11.6536  -19.4661   22.3899 O   0  0  0  0  0  0  0  0  0  0  0  0
   18.2987  -19.3489   21.5800 N   0  0  0  0  0  0  0  0  0  0  0  0
   17.2259  -19.5769   20.6961 C   0  0  0  0  0  0  0  0  0  0  0  0
   17.4415  -19.7454   19.4866 O   0  0  0  0  0  0  0  0  0  0  0  0
   15.8533  -19.6126   21.2179 C   0  0  0  0  0  0  0  0  0  0  0  0
   15.7250  -19.3938   22.6903 C   0  0  0  0  0  0  0  0  0  0  0  0
   14.3185  -19.4130   23.2143 C   0  0  2  0  0  0  0  0  0  0  0  0
   13.6155  -18.3013   22.5777 N   0  0  0  0  0  0  0  0  0  0  0  0
   14.3068  -19.1808   24.6752 C   0  0  0  0  0  0  0  0  0  0  0  0
   14.7585  -20.0565   25.4428 O   0  0  0  0  0  0  0  0  0  0  0  0
   13.8113  -18.0207   25.2456 O   0  0  0  0  0  0  0  0  0  0  0  0
  2  3  1  1
  2  1  1  0
  4  2  1  0
  5  7  1  0
  5  4  1  0
  5  6  1  6
  7  8  2  0
  9 10  1  0
  9  7  1  0
 10 11  1  1
 11 12  1  0
 13 10  1  0
 14 13  2  0
 16 15  1  0
 16 17  2  0
 18 16  1  0
 19 18  1  0
 20 19  1  6
 20 21  1  0
 21 13  1  0
 22 20  1  0
 22 24  1  0
 23 22  2  0
M  END
$$$$
