LCQ.pdb
     RDKit          3D

 24 23  0  0  1  0  0  0  0  0999 V2000
    8.4396  -14.5079   18.6124 C   0  0  0  0  0  0  0  0  0  0  0  0
    7.8923  -13.5001   19.5663 C   0  0  2  0  0  0  0  0  0  0  0  0
    7.7319  -12.1243   18.9566 C   0  0  0  0  0  0  0  0  0  0  0  0
    8.6733  -13.4660   20.8590 C   0  0  0  0  0  0  0  0  0  0  0  0
    8.5263  -14.8336   21.5034 C   0  0  2  0  0  0  0  0  0  0  0  0
    7.1984  -15.3096   21.1767 N   0  0  0  0  0  0  0  0  0  0  0  0
    8.6946  -14.8012   22.9520 C   0  0  0  0  0  0  0  0  0  0  0  0
    9.8472  -14.7100   23.4480 O   0  0  0  0  0  0  0  0  0  0  0  0
    7.6290  -14.8661   23.8950 N   0  0  0  0  0  0  0  0  0  0  0  0
    7.8163  -14.9703   25.3274 C   0  0  1  0  0  0  0  0  0  0  0  0
    6.5059  -14.5143   25.9669 C   0  0  0  0  0  0  0  0  0  0  0  0
    6.2413  -12.7402   25.7497 S   0  0  0  0  0  0  0  0  0  0  0  0
    8.0437  -16.3605   25.7665 C   0  0  0  0  0  0  0  0  0  0  0  0
    7.2306  -17.3003   25.6201 O   0  0  0  0  0  0  0  0  0  0  0  0
   14.3535  -19.1773   24.7499 N   0  0  0  0  0  0  0  0  0  0  0  0
   13.1147  -18.5381   24.5476 C   0  0  0  0  0  0  0  0  0  0  0  0
   12.8054  -18.1233   23.4206 O   0  0  0  0  0  0  0  0  0  0  0  0
   12.1952  -18.3668   25.6803 C   0  0  0  0  0  0  0  0  0  0  0  0
   10.7621  -18.1597   25.3125 C   0  0  0  0  0  0  0  0  0  0  0  0
    9.8245  -18.0073   26.4747 C   0  0  2  0  0  0  0  0  0  0  0  0
    9.2816  -16.6524   26.4044 N   0  0  0  0  0  0  0  0  0  0  0  0
   10.5582  -18.1368   27.7526 C   0  0  0  0  0  0  0  0  0  0  0  0
   11.0296  -19.2450   28.0839 O   0  0  0  0  0  0  0  0  0  0  0  0
   10.7526  -17.0723   28.6163 O   0  0  0  0  0  0  0  0  0  0  0  0
  2  3  1  6
  2  1  1  0
  4  2  1  0
  5  7  1  0
  5  4  1  0
  5  6  1  1
  7  8  2  0
  9 10  1  0
  9  7  1  0
 10 11  1  1
 11 12  1  0
 13 10  1  0
 14 13  2  0
 16 15  1  0
 16 17  2  0
 18 16  1  0
 19 18  1  0
 20 19  1  6
 20 21  1  0
 21 13  1  0
 22 20  1  0
 22 24  1  0
 23 22  2  0
M  END
$$$$
