LCQ.pdb
     RDKit          3D

 24 23  0  0  1  0  0  0  0  0999 V2000
    7.3654  -14.2739   18.7745 C   0  0  0  0  0  0  0  0  0  0  0  0
    7.6739  -13.3643   19.9157 C   0  0  2  0  0  0  0  0  0  0  0  0
    7.7491  -11.9067   19.5157 C   0  0  0  0  0  0  0  0  0  0  0  0
    8.8985  -13.8128   20.6782 C   0  0  0  0  0  0  0  0  0  0  0  0
    8.4486  -14.8934   21.6461 C   0  0  2  0  0  0  0  0  0  0  0  0
    7.0021  -14.9288   21.5909 N   0  0  0  0  0  0  0  0  0  0  0  0
    8.8825  -14.6465   23.0166 C   0  0  0  0  0  0  0  0  0  0  0  0
   10.1094  -14.6430   23.2955 O   0  0  0  0  0  0  0  0  0  0  0  0
    8.0079  -14.3986   24.1132 N   0  0  0  0  0  0  0  0  0  0  0  0
    8.4365  -14.3272   25.4949 C   0  0  1  0  0  0  0  0  0  0  0  0
    7.4368  -13.4189   26.2090 C   0  0  0  0  0  0  0  0  0  0  0  0
    5.7624  -14.0954   26.1494 S   0  0  0  0  0  0  0  0  0  0  0  0
    8.3804  -15.6374   26.1711 C   0  0  0  0  0  0  0  0  0  0  0  0
    7.5283  -16.5251   25.9437 O   0  0  0  0  0  0  0  0  0  0  0  0
   11.9895  -18.6765   23.9674 N   0  0  0  0  0  0  0  0  0  0  0  0
   11.9349  -19.5149   25.0980 C   0  0  0  0  0  0  0  0  0  0  0  0
   12.5008  -20.6182   25.0821 O   0  0  0  0  0  0  0  0  0  0  0  0
   11.2032  -19.0725   26.2924 C   0  0  0  0  0  0  0  0  0  0  0  0
   10.5903  -17.7132   26.1978 C   0  0  0  0  0  0  0  0  0  0  0  0
    9.8533  -17.2628   27.4254 C   0  0  2  0  0  0  0  0  0  0  0  0
    9.3708  -15.9101   27.1556 N   0  0  0  0  0  0  0  0  0  0  0  0
   10.7700  -17.1952   28.5843 C   0  0  0  0  0  0  0  0  0  0  0  0
   11.2843  -18.2442   29.0264 O   0  0  0  0  0  0  0  0  0  0  0  0
   11.0932  -16.0062   29.2159 O   0  0  0  0  0  0  0  0  0  0  0  0
  2  3  1  6
  2  1  1  0
  4  2  1  0
  5  7  1  0
  5  4  1  0
  5  6  1  1
  7  8  2  0
  9 10  1  0
  9  7  1  0
 10 11  1  1
 11 12  1  0
 13 10  1  0
 14 13  2  0
 16 15  1  0
 16 17  2  0
 18 16  1  0
 19 18  1  0
 20 19  1  6
 20 21  1  0
 21 13  1  0
 22 20  1  0
 22 24  1  0
 23 22  2  0
M  END
$$$$
