LCQ.pdb
     RDKit          3D

 24 23  0  0  1  0  0  0  0  0999 V2000
    8.2005  -13.8540   18.2168 C   0  0  0  0  0  0  0  0  0  0  0  0
    7.6779  -13.3977   19.5373 C   0  0  2  0  0  0  0  0  0  0  0  0
    7.1811  -11.9683   19.5228 C   0  0  0  0  0  0  0  0  0  0  0  0
    8.6667  -13.6489   20.6515 C   0  0  0  0  0  0  0  0  0  0  0  0
    8.9327  -15.1441   20.6811 C   0  0  2  0  0  0  0  0  0  0  0  0
    7.6491  -15.7944   20.8423 N   0  0  0  0  0  0  0  0  0  0  0  0
    9.8252  -15.5420   21.7641 C   0  0  0  0  0  0  0  0  0  0  0  0
   11.0571  -15.2996   21.6834 O   0  0  0  0  0  0  0  0  0  0  0  0
    9.4120  -16.2076   22.9538 N   0  0  0  0  0  0  0  0  0  0  0  0
   10.3045  -16.5651   24.0371 C   0  0  1  0  0  0  0  0  0  0  0  0
    9.4303  -16.7246   25.2798 C   0  0  0  0  0  0  0  0  0  0  0  0
    8.6738  -15.1577   25.7670 S   0  0  0  0  0  0  0  0  0  0  0  0
   10.9696  -17.8633   23.8144 C   0  0  0  0  0  0  0  0  0  0  0  0
   10.3811  -18.9640   23.7262 O   0  0  0  0  0  0  0  0  0  0  0  0
   14.1982  -20.0402   19.4049 N   0  0  0  0  0  0  0  0  0  0  0  0
   14.5098  -18.8104   20.0170 C   0  0  0  0  0  0  0  0  0  0  0  0
   15.4457  -18.1205   19.5858 O   0  0  0  0  0  0  0  0  0  0  0  0
   13.7193  -18.3538   21.1678 C   0  0  0  0  0  0  0  0  0  0  0  0
   14.2242  -18.7940   22.5032 C   0  0  0  0  0  0  0  0  0  0  0  0
   13.1587  -19.0900   23.5182 C   0  0  2  0  0  0  0  0  0  0  0  0
   12.3871  -17.8611   23.6910 N   0  0  0  0  0  0  0  0  0  0  0  0
   13.7666  -19.4317   24.8228 C   0  0  0  0  0  0  0  0  0  0  0  0
   14.3918  -20.5055   24.9499 O   0  0  0  0  0  0  0  0  0  0  0  0
   13.6761  -18.6065   25.9308 O   0  0  0  0  0  0  0  0  0  0  0  0
  2  3  1  6
  2  1  1  0
  4  2  1  0
  5  7  1  0
  5  4  1  0
  5  6  1  1
  7  8  2  0
  9 10  1  0
  9  7  1  0
 10 11  1  1
 11 12  1  0
 13 10  1  0
 14 13  2  0
 16 15  1  0
 16 17  2  0
 18 16  1  0
 19 18  1  0
 20 19  1  6
 20 21  1  0
 21 13  1  0
 22 20  1  0
 22 24  1  0
 23 22  2  0
M  END
$$$$
