LCQ.pdb
     RDKit          3D

 24 23  0  0  1  0  0  0  0  0999 V2000
    7.6287  -12.9037   27.5168 C   0  0  0  0  0  0  0  0  0  0  0  0
    6.9115  -12.9135   26.2090 C   0  0  2  0  0  0  0  0  0  0  0  0
    6.3282  -11.5677   25.8362 C   0  0  0  0  0  0  0  0  0  0  0  0
    5.8869  -14.0214   26.1369 C   0  0  0  0  0  0  0  0  0  0  0  0
    6.6518  -15.3334   26.1126 C   0  0  2  0  0  0  0  0  0  0  0  0
    7.9553  -15.0686   26.6849 N   0  0  0  0  0  0  0  0  0  0  0  0
    6.8063  -15.8774   24.7680 C   0  0  0  0  0  0  0  0  0  0  0  0
    5.8766  -15.7517   23.9296 O   0  0  0  0  0  0  0  0  0  0  0  0
    7.9612  -16.5662   24.2984 N   0  0  0  0  0  0  0  0  0  0  0  0
    8.7214  -16.1754   23.1291 C   0  0  1  0  0  0  0  0  0  0  0  0
    8.3026  -14.7429   22.8028 C   0  0  0  0  0  0  0  0  0  0  0  0
    9.0808  -14.1518   21.2830 S   0  0  0  0  0  0  0  0  0  0  0  0
   10.1743  -16.1469   23.3849 C   0  0  0  0  0  0  0  0  0  0  0  0
   11.0535  -15.9967   22.5073 O   0  0  0  0  0  0  0  0  0  0  0  0
   10.6125  -16.9479   29.5718 N   0  0  0  0  0  0  0  0  0  0  0  0
   10.8999  -15.8306   28.7635 C   0  0  0  0  0  0  0  0  0  0  0  0
   11.2322  -14.7552   29.2840 O   0  0  0  0  0  0  0  0  0  0  0  0
   10.8019  -15.9498   27.3027 C   0  0  0  0  0  0  0  0  0  0  0  0
   12.0667  -16.3376   26.6083 C   0  0  0  0  0  0  0  0  0  0  0  0
   12.0170  -16.2613   25.1101 C   0  0  2  0  0  0  0  0  0  0  0  0
   10.6061  -16.3020   24.7318 N   0  0  0  0  0  0  0  0  0  0  0  0
   12.6824  -17.4377   24.5091 C   0  0  0  0  0  0  0  0  0  0  0  0
   11.9984  -18.2953   23.9117 O   0  0  0  0  0  0  0  0  0  0  0  0
   14.0504  -17.6406   24.5762 O   0  0  0  0  0  0  0  0  0  0  0  0
  2  3  1  1
  2  1  1  0
  4  2  1  0
  5  7  1  0
  5  4  1  0
  5  6  1  6
  7  8  2  0
  9 10  1  0
  9  7  1  0
 10 11  1  1
 11 12  1  0
 13 10  1  0
 14 13  2  0
 16 15  1  0
 16 17  2  0
 18 16  1  0
 19 18  1  0
 20 19  1  1
 20 21  1  0
 21 13  1  0
 22 20  1  0
 22 24  1  0
 23 22  2  0
M  END
$$$$
