LCQ.pdb
     RDKit          3D

 24 23  0  0  1  0  0  0  0  0999 V2000
    6.3002  -12.1221   25.0874 C   0  0  0  0  0  0  0  0  0  0  0  0
    6.5310  -12.8671   26.3588 C   0  0  2  0  0  0  0  0  0  0  0  0
    6.9420  -11.9741   27.5095 C   0  0  0  0  0  0  0  0  0  0  0  0
    7.4794  -14.0274   26.1675 C   0  0  0  0  0  0  0  0  0  0  0  0
    6.8880  -14.9107   25.0825 C   0  0  2  0  0  0  0  0  0  0  0  0
    5.7697  -15.6123   25.6773 N   0  0  0  0  0  0  0  0  0  0  0  0
    7.8447  -15.8735   24.5482 C   0  0  0  0  0  0  0  0  0  0  0  0
    8.0904  -16.9320   25.1822 O   0  0  0  0  0  0  0  0  0  0  0  0
    8.5553  -15.7180   23.3235 N   0  0  0  0  0  0  0  0  0  0  0  0
    9.6208  -16.5955   22.8849 C   0  0  1  0  0  0  0  0  0  0  0  0
   10.0370  -16.1071   21.4984 C   0  0  0  0  0  0  0  0  0  0  0  0
   11.2549  -17.2074   20.7429 S   0  0  0  0  0  0  0  0  0  0  0  0
   10.8161  -16.5047   23.7452 C   0  0  0  0  0  0  0  0  0  0  0  0
   11.3826  -15.4387   24.0745 O   0  0  0  0  0  0  0  0  0  0  0  0
   11.6865  -18.6882   29.5523 N   0  0  0  0  0  0  0  0  0  0  0  0
   11.1734  -17.7404   28.6454 C   0  0  0  0  0  0  0  0  0  0  0  0
   10.0375  -17.2715   28.8120 O   0  0  0  0  0  0  0  0  0  0  0  0
   11.9928  -17.3140   27.5033 C   0  0  0  0  0  0  0  0  0  0  0  0
   12.1311  -18.3197   26.4070 C   0  0  0  0  0  0  0  0  0  0  0  0
   12.5561  -17.7585   25.0813 C   0  0  2  0  0  0  0  0  0  0  0  0
   11.3643  -17.7224   24.2364 N   0  0  0  0  0  0  0  0  0  0  0  0
   13.5444  -18.6491   24.4346 C   0  0  0  0  0  0  0  0  0  0  0  0
   13.1839  -19.3954   23.5001 O   0  0  0  0  0  0  0  0  0  0  0  0
   14.8734  -18.6985   24.8195 O   0  0  0  0  0  0  0  0  0  0  0  0
  2  3  1  1
  2  1  1  0
  4  2  1  0
  5  7  1  0
  5  4  1  0
  5  6  1  1
  7  8  2  0
  9 10  1  0
  9  7  1  0
 10 11  1  6
 11 12  1  0
 13 10  1  0
 14 13  2  0
 16 15  1  0
 16 17  2  0
 18 16  1  0
 19 18  1  0
 20 19  1  1
 20 21  1  0
 21 13  1  0
 22 20  1  0
 22 24  1  0
 23 22  2  0
M  END
$$$$
