LCQ.pdb
     RDKit          3D

 24 23  0  0  1  0  0  0  0  0999 V2000
    8.5961  -14.6540   19.1036 C   0  0  0  0  0  0  0  0  0  0  0  0
    7.5238  -13.7503   19.6120 C   0  0  2  0  0  0  0  0  0  0  0  0
    7.1889  -12.6236   18.6587 C   0  0  0  0  0  0  0  0  0  0  0  0
    7.8223  -13.2510   21.0062 C   0  0  0  0  0  0  0  0  0  0  0  0
    8.1008  -14.4721   21.8656 C   0  0  2  0  0  0  0  0  0  0  0  0
    6.9050  -15.2879   21.8336 N   0  0  0  0  0  0  0  0  0  0  0  0
    8.4285  -14.1337   23.2461 C   0  0  0  0  0  0  0  0  0  0  0  0
    8.4280  -12.9307   23.6145 O   0  0  0  0  0  0  0  0  0  0  0  0
    8.7629  -15.0801   24.2568 N   0  0  0  0  0  0  0  0  0  0  0  0
    9.3299  -14.7300   25.5428 C   0  0  1  0  0  0  0  0  0  0  0  0
    8.2364  -13.9848   26.3064 C   0  0  0  0  0  0  0  0  0  0  0  0
    8.7786  -13.5275   27.9682 S   0  0  0  0  0  0  0  0  0  0  0  0
    9.6782  -15.9168   26.3473 C   0  0  0  0  0  0  0  0  0  0  0  0
    8.8822  -16.8312   26.6572 O   0  0  0  0  0  0  0  0  0  0  0  0
   13.9948  -15.3601   25.5243 N   0  0  0  0  0  0  0  0  0  0  0  0
   13.6790  -16.5590   24.8557 C   0  0  0  0  0  0  0  0  0  0  0  0
   13.9032  -16.6716   23.6412 O   0  0  0  0  0  0  0  0  0  0  0  0
   13.0829  -17.6714   25.6072 C   0  0  0  0  0  0  0  0  0  0  0  0
   12.9195  -17.4353   27.0734 C   0  0  0  0  0  0  0  0  0  0  0  0
   11.5069  -17.2028   27.5250 C   0  0  2  0  0  0  0  0  0  0  0  0
   11.0211  -16.0281   26.8041 N   0  0  0  0  0  0  0  0  0  0  0  0
   11.4694  -16.8956   28.9714 C   0  0  0  0  0  0  0  0  0  0  0  0
   11.1451  -15.7506   29.3509 O   0  0  0  0  0  0  0  0  0  0  0  0
   11.7813  -17.8300   29.9444 O   0  0  0  0  0  0  0  0  0  0  0  0
  2  3  1  6
  2  1  1  0
  4  2  1  0
  5  7  1  0
  5  4  1  0
  5  6  1  1
  7  8  2  0
  9 10  1  0
  9  7  1  0
 10 11  1  1
 11 12  1  0
 13 10  1  0
 14 13  2  0
 16 15  1  0
 16 17  2  0
 18 16  1  0
 19 18  1  0
 20 19  1  6
 20 21  1  0
 21 13  1  0
 22 20  1  0
 22 24  1  0
 23 22  2  0
M  END
$$$$
