LCQ.pdb
     RDKit          3D

 24 23  0  0  1  0  0  0  0  0999 V2000
    7.6301  -14.6010   18.7093 C   0  0  0  0  0  0  0  0  0  0  0  0
    7.7137  -13.6375   19.8449 C   0  0  2  0  0  0  0  0  0  0  0  0
    7.5466  -12.1949   19.4193 C   0  0  0  0  0  0  0  0  0  0  0  0
    8.9595  -13.8496   20.6728 C   0  0  0  0  0  0  0  0  0  0  0  0
    8.7018  -15.0527   21.5635 C   0  0  2  0  0  0  0  0  0  0  0  0
    7.2666  -15.2380   21.6117 N   0  0  0  0  0  0  0  0  0  0  0  0
    9.2213  -14.8813   22.9157 C   0  0  0  0  0  0  0  0  0  0  0  0
   10.4583  -14.7440   23.1001 O   0  0  0  0  0  0  0  0  0  0  0  0
    8.4229  -14.8541   24.0950 N   0  0  0  0  0  0  0  0  0  0  0  0
    8.9596  -14.7920   25.4388 C   0  0  1  0  0  0  0  0  0  0  0  0
    8.0770  -13.8117   26.2096 C   0  0  0  0  0  0  0  0  0  0  0  0
    8.6397  -13.6082   27.9145 S   0  0  0  0  0  0  0  0  0  0  0  0
    8.8724  -16.0868   26.1411 C   0  0  0  0  0  0  0  0  0  0  0  0
    7.8194  -16.7417   26.3084 O   0  0  0  0  0  0  0  0  0  0  0  0
   11.9229  -19.4305   23.9099 N   0  0  0  0  0  0  0  0  0  0  0  0
   12.7747  -18.7552   24.8058 C   0  0  0  0  0  0  0  0  0  0  0  0
   13.9228  -18.4426   24.4565 O   0  0  0  0  0  0  0  0  0  0  0  0
   12.2928  -18.4261   26.1538 C   0  0  0  0  0  0  0  0  0  0  0  0
   10.8928  -18.8537   26.4526 C   0  0  0  0  0  0  0  0  0  0  0  0
   10.1221  -17.9241   27.3441 C   0  0  2  0  0  0  0  0  0  0  0  0
   10.0778  -16.6298   26.6671 N   0  0  0  0  0  0  0  0  0  0  0  0
   10.8261  -17.7391   28.6319 C   0  0  0  0  0  0  0  0  0  0  0  0
   11.3070  -16.6222   28.9174 O   0  0  0  0  0  0  0  0  0  0  0  0
   10.9821  -18.7599   29.5541 O   0  0  0  0  0  0  0  0  0  0  0  0
  2  3  1  6
  2  1  1  0
  4  2  1  0
  5  7  1  0
  5  4  1  0
  5  6  1  1
  7  8  2  0
  9 10  1  0
  9  7  1  0
 10 11  1  1
 11 12  1  0
 13 10  1  0
 14 13  2  0
 16 15  1  0
 16 17  2  0
 18 16  1  0
 19 18  1  0
 20 19  1  6
 20 21  1  0
 21 13  1  0
 22 20  1  0
 22 24  1  0
 23 22  2  0
M  END
$$$$
