LCQ.pdb
     RDKit          3D

 24 23  0  0  1  0  0  0  0  0999 V2000
    8.0850  -12.8608   18.5082 C   0  0  0  0  0  0  0  0  0  0  0  0
    7.7246  -13.6090   19.7473 C   0  0  2  0  0  0  0  0  0  0  0  0
    7.3396  -12.7074   20.9002 C   0  0  0  0  0  0  0  0  0  0  0  0
    8.7909  -14.6075   20.1325 C   0  0  0  0  0  0  0  0  0  0  0  0
    8.2108  -15.4731   21.2377 C   0  0  2  0  0  0  0  0  0  0  0  0
    6.7770  -15.5018   21.0378 N   0  0  0  0  0  0  0  0  0  0  0  0
    8.5113  -14.9684   22.5729 C   0  0  0  0  0  0  0  0  0  0  0  0
    9.7038  -14.9176   22.9710 O   0  0  0  0  0  0  0  0  0  0  0  0
    7.5377  -14.5090   23.5055 N   0  0  0  0  0  0  0  0  0  0  0  0
    7.8165  -14.2244   24.8980 C   0  0  1  0  0  0  0  0  0  0  0  0
    6.7877  -13.1845   25.3389 C   0  0  0  0  0  0  0  0  0  0  0  0
    6.9890  -12.7458   27.0801 S   0  0  0  0  0  0  0  0  0  0  0  0
    7.6276  -15.4044   25.7634 C   0  0  0  0  0  0  0  0  0  0  0  0
    6.5301  -15.9639   25.9825 O   0  0  0  0  0  0  0  0  0  0  0  0
    7.7248  -20.7449   28.7499 N   0  0  0  0  0  0  0  0  0  0  0  0
    7.4318  -20.1158   27.5241 C   0  0  0  0  0  0  0  0  0  0  0  0
    6.2531  -19.9344   27.1841 O   0  0  0  0  0  0  0  0  0  0  0  0
    8.5315  -19.6784   26.6540 C   0  0  0  0  0  0  0  0  0  0  0  0
    8.4182  -18.2813   26.1367 C   0  0  0  0  0  0  0  0  0  0  0  0
    8.7510  -17.2076   27.1313 C   0  0  2  0  0  0  0  0  0  0  0  0
    8.7818  -15.9453   26.3956 N   0  0  0  0  0  0  0  0  0  0  0  0
   10.0959  -17.4317   27.7050 C   0  0  0  0  0  0  0  0  0  0  0  0
   11.0958  -16.9323   27.1473 O   0  0  0  0  0  0  0  0  0  0  0  0
   10.3069  -18.1809   28.8500 O   0  0  0  0  0  0  0  0  0  0  0  0
  2  3  1  1
  2  1  1  0
  4  2  1  0
  5  7  1  0
  5  4  1  0
  5  6  1  6
  7  8  2  0
  9 10  1  0
  9  7  1  0
 10 11  1  1
 11 12  1  0
 13 10  1  0
 14 13  2  0
 16 15  1  0
 16 17  2  0
 18 16  1  0
 19 18  1  0
 20 19  1  6
 20 21  1  0
 21 13  1  0
 22 20  1  0
 22 24  1  0
 23 22  2  0
M  END
$$$$
