LCQ.pdb
     RDKit          3D

 24 23  0  0  1  0  0  0  0  0999 V2000
    9.2449  -12.8821   19.3329 C   0  0  0  0  0  0  0  0  0  0  0  0
    7.8123  -13.2778   19.4598 C   0  0  2  0  0  0  0  0  0  0  0  0
    6.8505  -12.1795   19.0613 C   0  0  0  0  0  0  0  0  0  0  0  0
    7.5028  -13.8418   20.8268 C   0  0  0  0  0  0  0  0  0  0  0  0
    8.5317  -14.9241   21.1045 C   0  0  2  0  0  0  0  0  0  0  0  0
    8.3300  -15.9581   20.1112 N   0  0  0  0  0  0  0  0  0  0  0  0
    8.4100  -15.4955   22.4411 C   0  0  0  0  0  0  0  0  0  0  0  0
    8.5787  -14.7669   23.4529 O   0  0  0  0  0  0  0  0  0  0  0  0
    8.1049  -16.8593   22.7165 N   0  0  0  0  0  0  0  0  0  0  0  0
    7.9679  -17.4085   24.0497 C   0  0  1  0  0  0  0  0  0  0  0  0
    7.5156  -18.8571   23.8738 C   0  0  0  0  0  0  0  0  0  0  0  0
    5.7849  -18.9568   23.3646 S   0  0  0  0  0  0  0  0  0  0  0  0
    9.2507  -17.4480   24.7777 C   0  0  0  0  0  0  0  0  0  0  0  0
   10.3548  -17.7436   24.2684 O   0  0  0  0  0  0  0  0  0  0  0  0
    9.8471  -13.6272   29.5414 N   0  0  0  0  0  0  0  0  0  0  0  0
    9.4307  -13.5178   28.2002 C   0  0  0  0  0  0  0  0  0  0  0  0
    8.9132  -12.4669   27.7932 O   0  0  0  0  0  0  0  0  0  0  0  0
    9.6137  -14.6565   27.2904 C   0  0  0  0  0  0  0  0  0  0  0  0
   10.2531  -15.8622   27.8985 C   0  0  0  0  0  0  0  0  0  0  0  0
   10.4483  -17.0177   26.9606 C   0  0  2  0  0  0  0  0  0  0  0  0
    9.2285  -17.1252   26.1632 N   0  0  0  0  0  0  0  0  0  0  0  0
   10.6083  -18.2783   27.7180 C   0  0  0  0  0  0  0  0  0  0  0  0
    9.6746  -19.1077   27.7400 O   0  0  0  0  0  0  0  0  0  0  0  0
   11.7618  -18.5914   28.4168 O   0  0  0  0  0  0  0  0  0  0  0  0
  2  3  1  1
  2  1  1  0
  4  2  1  0
  5  7  1  0
  5  4  1  0
  5  6  1  6
  7  8  2  0
  9 10  1  0
  9  7  1  0
 10 11  1  6
 11 12  1  0
 13 10  1  0
 14 13  2  0
 16 15  1  0
 16 17  2  0
 18 16  1  0
 19 18  1  0
 20 19  1  1
 20 21  1  0
 21 13  1  0
 22 20  1  0
 22 24  1  0
 23 22  2  0
M  END
$$$$
