LCQ.pdb
     RDKit          3D

 24 23  0  0  1  0  0  0  0  0999 V2000
    8.2777  -14.3591   18.2689 C   0  0  0  0  0  0  0  0  0  0  0  0
    7.6813  -13.5574   19.3764 C   0  0  2  0  0  0  0  0  0  0  0  0
    7.2001  -12.1921   18.9349 C   0  0  0  0  0  0  0  0  0  0  0  0
    8.5988  -13.4814   20.5741 C   0  0  0  0  0  0  0  0  0  0  0  0
    8.7316  -14.8916   21.1225 C   0  0  2  0  0  0  0  0  0  0  0  0
    7.4653  -15.5532   20.8870 N   0  0  0  0  0  0  0  0  0  0  0  0
    9.0445  -14.9212   22.5469 C   0  0  0  0  0  0  0  0  0  0  0  0
   10.1752  -14.5432   22.9491 O   0  0  0  0  0  0  0  0  0  0  0  0
    8.1498  -15.3569   23.5660 N   0  0  0  0  0  0  0  0  0  0  0  0
    8.4952  -15.4393   24.9702 C   0  0  1  0  0  0  0  0  0  0  0  0
    7.1768  -15.3933   25.7409 C   0  0  0  0  0  0  0  0  0  0  0  0
    6.4979  -13.7199   25.7988 S   0  0  0  0  0  0  0  0  0  0  0  0
    9.1468  -16.7171   25.3165 C   0  0  0  0  0  0  0  0  0  0  0  0
    8.7309  -17.8480   24.9792 O   0  0  0  0  0  0  0  0  0  0  0  0
   14.5118  -16.1279   24.4896 N   0  0  0  0  0  0  0  0  0  0  0  0
   13.8788  -17.1897   23.8142 C   0  0  0  0  0  0  0  0  0  0  0  0
   14.1997  -17.4646   22.6483 O   0  0  0  0  0  0  0  0  0  0  0  0
   12.8377  -17.9658   24.5007 C   0  0  0  0  0  0  0  0  0  0  0  0
   12.5395  -17.5351   25.8999 C   0  0  0  0  0  0  0  0  0  0  0  0
   11.1483  -17.8393   26.3744 C   0  0  2  0  0  0  0  0  0  0  0  0
   10.3379  -16.6564   26.0925 N   0  0  0  0  0  0  0  0  0  0  0  0
   11.1366  -18.0597   27.8371 C   0  0  0  0  0  0  0  0  0  0  0  0
   10.8302  -17.1196   28.6004 O   0  0  0  0  0  0  0  0  0  0  0  0
   11.4537  -19.2777   28.4140 O   0  0  0  0  0  0  0  0  0  0  0  0
  2  3  1  6
  2  1  1  0
  4  2  1  0
  5  7  1  0
  5  4  1  0
  5  6  1  1
  7  8  2  0
  9 10  1  0
  9  7  1  0
 10 11  1  1
 11 12  1  0
 13 10  1  0
 14 13  2  0
 16 15  1  0
 16 17  2  0
 18 16  1  0
 19 18  1  0
 20 19  1  1
 20 21  1  0
 21 13  1  0
 22 20  1  0
 22 24  1  0
 23 22  2  0
M  END
$$$$
