HRC.pdb
     RDKit          3D

 28 28  0  0  1  0  0  0  0  0999 V2000
   25.2347  -16.3230  -17.9345 N   0  0  0  0  0  0  0  0  0  0  0  0
   25.9163  -16.6612  -16.6760 C   0  0  1  0  0  0  0  0  0  0  0  0
   25.4684  -15.5697  -15.7101 C   0  0  0  0  0  0  0  0  0  0  0  0
   26.2009  -14.3335  -16.0841 C   0  0  0  0  0  0  0  0  0  0  0  0
   27.4568  -14.2186  -16.6421 C   0  0  0  0  0  0  0  0  0  0  0  0
   27.7417  -12.9166  -16.8191 N   0  0  0  0  0  0  0  0  0  0  0  0
   26.6670  -12.2263  -16.3731 C   0  0  0  0  0  0  0  0  0  0  0  0
   25.7459  -13.0791  -15.9332 N   0  0  0  0  0  0  0  0  0  0  0  0
   25.4255  -17.9902  -16.2540 C   0  0  0  0  0  0  0  0  0  0  0  0
   24.2472  -18.3177  -16.5161 O   0  0  0  0  0  0  0  0  0  0  0  0
   24.9130  -25.8051  -15.5235 N   0  0  0  0  0  0  0  0  0  0  0  0
   24.1054  -25.0716  -14.6046 C   0  0  0  0  0  0  0  0  0  0  0  0
   23.6852  -25.6255  -13.5286 N   0  0  0  0  0  0  0  0  0  0  0  0
   23.7769  -23.7315  -14.8956 N   0  0  0  0  0  0  0  0  0  0  0  0
   24.3843  -23.0501  -16.0347 C   0  0  0  0  0  0  0  0  0  0  0  0
   25.8353  -22.7720  -15.7434 C   0  0  0  0  0  0  0  0  0  0  0  0
   26.1916  -21.3868  -16.0753 C   0  0  0  0  0  0  0  0  0  0  0  0
   25.7166  -20.2755  -15.2343 C   0  0  2  0  0  0  0  0  0  0  0  0
   26.1996  -18.9599  -15.5545 N   0  0  0  0  0  0  0  0  0  0  0  0
   26.2717  -20.5641  -13.8491 C   0  0  0  0  0  0  0  0  0  0  0  0
   27.4974  -20.7175  -13.6352 O   0  0  0  0  0  0  0  0  0  0  0  0
   23.0599  -25.1689  -12.8363 N   0  0  0  0  0  0  0  0  0  0  0  0
   25.4028  -20.6698  -12.7360 C   0  0  2  0  0  0  0  0  0  0  0  0
   25.6503  -21.5847  -11.6337 C   0  0  0  0  0  0  0  0  0  0  0  0
   26.1202  -20.8247  -10.4025 S   0  0  0  0  0  0  0  0  0  0  0  0
   24.7504  -20.0889   -9.5099 C   0  0  0  0  0  0  0  0  0  0  0  0
   24.4358  -22.3800  -11.3382 O   0  0  0  0  0  0  0  0  0  0  0  0
   24.5103  -23.2971  -10.4854 O   0  0  0  0  0  0  0  0  0  0  0  0
  2  1  1  6
  2  9  1  0
  3  2  1  0
  4  5  2  0
  4  3  1  0
  6  5  1  0
  7  8  2  0
  7  6  1  0
  8  4  1  0
  9 10  2  0
 11 12  1  0
 12 14  1  0
 13 12  2  0
 14 15  1  0
 16 17  1  0
 16 15  1  0
 18 17  1  6
 18 20  1  0
 19  9  1  0
 19 18  1  0
 20 21  2  0
 22 23  1  0
 22 20  1  0
 23 26  1  0
 23 24  1  6
 25 24  1  0
 26 27  2  0
 26 28  1  0
M  END
$$$$
