HRC.pdb
     RDKit          3D

 28 28  0  0  1  0  0  0  0  0999 V2000
   19.2561  -12.9111  -16.4109 N   0  0  0  0  0  0  0  0  0  0  0  0
   18.9990  -11.5819  -16.9852 C   0  0  1  0  0  0  0  0  0  0  0  0
   17.6948  -11.1431  -16.3284 C   0  0  0  0  0  0  0  0  0  0  0  0
   16.5969  -11.8609  -17.0242 C   0  0  0  0  0  0  0  0  0  0  0  0
   16.1104  -11.6527  -18.2976 C   0  0  0  0  0  0  0  0  0  0  0  0
   15.1104  -12.5200  -18.5334 N   0  0  0  0  0  0  0  0  0  0  0  0
   14.9771  -13.2636  -17.4110 C   0  0  0  0  0  0  0  0  0  0  0  0
   15.8697  -12.8654  -16.5089 N   0  0  0  0  0  0  0  0  0  0  0  0
   20.1234  -10.7075  -16.5897 C   0  0  0  0  0  0  0  0  0  0  0  0
   20.6692  -10.8798  -15.4777 O   0  0  0  0  0  0  0  0  0  0  0  0
   26.6654   -6.7285  -20.9921 N   0  0  0  0  0  0  0  0  0  0  0  0
   26.8894   -6.3270  -19.6418 C   0  0  0  0  0  0  0  0  0  0  0  0
   27.9443   -5.6708  -19.3293 N   0  0  0  0  0  0  0  0  0  0  0  0
   25.9361   -6.6611  -18.6579 N   0  0  0  0  0  0  0  0  0  0  0  0
   24.7419   -7.4227  -19.0112 C   0  0  0  0  0  0  0  0  0  0  0  0
   23.9163   -7.6712  -17.7766 C   0  0  0  0  0  0  0  0  0  0  0  0
   22.7139   -8.4548  -18.0861 C   0  0  0  0  0  0  0  0  0  0  0  0
   21.8056   -8.8792  -17.0078 C   0  0  2  0  0  0  0  0  0  0  0  0
   20.6564   -9.6548  -17.3877 N   0  0  0  0  0  0  0  0  0  0  0  0
   21.2319   -7.5891  -16.4449 C   0  0  0  0  0  0  0  0  0  0  0  0
   20.3214   -6.9503  -17.0233 O   0  0  0  0  0  0  0  0  0  0  0  0
   28.1418   -5.2883  -18.3841 N   0  0  0  0  0  0  0  0  0  0  0  0
   21.7185   -7.0599  -15.2250 C   0  0  2  0  0  0  0  0  0  0  0  0
   21.2585   -5.7921  -14.6827 C   0  0  0  0  0  0  0  0  0  0  0  0
   20.7962   -5.9618  -13.2433 S   0  0  0  0  0  0  0  0  0  0  0  0
   19.4169   -7.1000  -13.1156 C   0  0  0  0  0  0  0  0  0  0  0  0
   22.3247   -4.7684  -14.7831 O   0  0  0  0  0  0  0  0  0  0  0  0
   23.4437   -5.1082  -15.2373 O   0  0  0  0  0  0  0  0  0  0  0  0
  2  1  1  1
  2  9  1  0
  3  2  1  0
  4  5  2  0
  4  3  1  0
  6  5  1  0
  7  8  2  0
  7  6  1  0
  8  4  1  0
  9 10  2  0
 11 12  1  0
 12 14  1  0
 13 12  2  0
 14 15  1  0
 16 17  1  0
 16 15  1  0
 18 17  1  6
 18 20  1  0
 19  9  1  0
 19 18  1  0
 20 21  2  0
 22 23  1  0
 22 20  1  0
 23 26  1  0
 23 24  1  1
 25 24  1  0
 26 27  2  0
 26 28  1  0
M  END
$$$$
