HRC.pdb
     RDKit          3D

 28 28  0  0  1  0  0  0  0  0999 V2000
   17.9329  -11.6689    6.5984 N   0  0  0  0  0  0  0  0  0  0  0  0
   18.7617  -12.8552    6.3366 C   0  0  1  0  0  0  0  0  0  0  0  0
   19.6573  -12.9571    7.5663 C   0  0  0  0  0  0  0  0  0  0  0  0
   20.7546  -11.9732    7.3853 C   0  0  0  0  0  0  0  0  0  0  0  0
   21.3165  -11.5249    6.2085 C   0  0  0  0  0  0  0  0  0  0  0  0
   22.2848  -10.6369    6.4941 N   0  0  0  0  0  0  0  0  0  0  0  0
   22.3236  -10.5344    7.8426 C   0  0  0  0  0  0  0  0  0  0  0  0
   21.4050  -11.3370    8.3729 N   0  0  0  0  0  0  0  0  0  0  0  0
   17.8499  -14.0143    6.2352 C   0  0  0  0  0  0  0  0  0  0  0  0
   16.9073  -14.1231    7.0502 O   0  0  0  0  0  0  0  0  0  0  0  0
   16.2341  -21.9212    3.0394 N   0  0  0  0  0  0  0  0  0  0  0  0
   15.5840  -21.0621    2.1045 C   0  0  0  0  0  0  0  0  0  0  0  0
   15.4645  -21.4138    0.8784 N   0  0  0  0  0  0  0  0  0  0  0  0
   15.0756  -19.8235    2.5470 N   0  0  0  0  0  0  0  0  0  0  0  0
   15.9227  -18.6347    2.5549 C   0  0  0  0  0  0  0  0  0  0  0  0
   16.0979  -18.1473    3.9689 C   0  0  0  0  0  0  0  0  0  0  0  0
   16.9272  -16.9367    4.0185 C   0  0  0  0  0  0  0  0  0  0  0  0
   17.1652  -16.2510    5.2995 C   0  0  2  0  0  0  0  0  0  0  0  0
   17.9530  -15.0490    5.2618 N   0  0  0  0  0  0  0  0  0  0  0  0
   17.9900  -17.2275    6.1221 C   0  0  0  0  0  0  0  0  0  0  0  0
   19.2100  -17.4221    5.9090 O   0  0  0  0  0  0  0  0  0  0  0  0
   15.0301  -20.8296    0.1377 N   0  0  0  0  0  0  0  0  0  0  0  0
   17.3925  -17.9612    7.1756 C   0  0  1  0  0  0  0  0  0  0  0  0
   18.1309  -18.9240    7.9762 C   0  0  0  0  0  0  0  0  0  0  0  0
   18.8204  -18.2331    9.1430 S   0  0  0  0  0  0  0  0  0  0  0  0
   19.5104  -19.4129   10.3034 C   0  0  0  0  0  0  0  0  0  0  0  0
   17.2313  -20.0014    8.4505 O   0  0  0  0  0  0  0  0  0  0  0  0
   15.9930  -19.8549    8.3130 O   0  0  0  0  0  0  0  0  0  0  0  0
  2  1  1  1
  2  9  1  0
  3  2  1  0
  4  5  2  0
  4  3  1  0
  6  5  1  0
  7  8  2  0
  7  6  1  0
  8  4  1  0
  9 10  2  0
 11 12  1  0
 12 14  1  0
 13 12  2  0
 14 15  1  0
 16 17  1  0
 16 15  1  0
 18 17  1  6
 18 20  1  0
 19  9  1  0
 19 18  1  0
 20 21  2  0
 22 23  1  0
 22 20  1  0
 23 26  1  0
 23 24  1  1
 25 24  1  0
 26 27  2  0
 26 28  1  0
M  END
$$$$
