HRC.pdb
     RDKit          3D

 28 28  0  0  1  0  0  0  0  0999 V2000
   23.5876  -21.3790  -16.2378 N   0  0  0  0  0  0  0  0  0  0  0  0
   23.9263  -20.2625  -15.3426 C   0  0  1  0  0  0  0  0  0  0  0  0
   22.5766  -19.7992  -14.8051 C   0  0  0  0  0  0  0  0  0  0  0  0
   21.9306  -19.0072  -15.8821 C   0  0  0  0  0  0  0  0  0  0  0  0
   22.4468  -18.6526  -17.1108 C   0  0  0  0  0  0  0  0  0  0  0  0
   21.5308  -17.9318  -17.7809 N   0  0  0  0  0  0  0  0  0  0  0  0
   20.4505  -17.8396  -16.9716 C   0  0  0  0  0  0  0  0  0  0  0  0
   20.6943  -18.4853  -15.8346 N   0  0  0  0  0  0  0  0  0  0  0  0
   24.7787  -20.8068  -14.2645 C   0  0  0  0  0  0  0  0  0  0  0  0
   24.3240  -21.7032  -13.5201 O   0  0  0  0  0  0  0  0  0  0  0  0
   33.4458  -22.8664  -10.3366 N   0  0  0  0  0  0  0  0  0  0  0  0
   32.5491  -22.7242  -11.4368 C   0  0  0  0  0  0  0  0  0  0  0  0
   32.9046  -23.0908  -12.6117 N   0  0  0  0  0  0  0  0  0  0  0  0
   31.2690  -22.1763  -11.2142 N   0  0  0  0  0  0  0  0  0  0  0  0
   30.4570  -21.7107  -12.3343 C   0  0  0  0  0  0  0  0  0  0  0  0
   29.1959  -21.0725  -11.8146 C   0  0  0  0  0  0  0  0  0  0  0  0
   28.3371  -20.6128  -12.9132 C   0  0  0  0  0  0  0  0  0  0  0  0
   26.8934  -20.9014  -12.8983 C   0  0  2  0  0  0  0  0  0  0  0  0
   26.1124  -20.3882  -13.9908 N   0  0  0  0  0  0  0  0  0  0  0  0
   26.3600  -20.1813  -11.6706 C   0  0  0  0  0  0  0  0  0  0  0  0
   26.2572  -18.9330  -11.6158 O   0  0  0  0  0  0  0  0  0  0  0  0
   32.2981  -23.0401  -13.4533 N   0  0  0  0  0  0  0  0  0  0  0  0
   25.9544  -20.9143  -10.5290 C   0  0  2  0  0  0  0  0  0  0  0  0
   25.5731  -20.2727   -9.2815 C   0  0  0  0  0  0  0  0  0  0  0  0
   24.4968  -21.0801   -8.5715 S   0  0  0  0  0  0  0  0  0  0  0  0
   22.9393  -21.0406   -9.4587 C   0  0  0  0  0  0  0  0  0  0  0  0
   26.7583  -20.0841   -8.4128 O   0  0  0  0  0  0  0  0  0  0  0  0
   27.8213  -20.6812   -8.7079 O   0  0  0  0  0  0  0  0  0  0  0  0
  2  1  1  6
  2  9  1  0
  3  2  1  0
  4  5  2  0
  4  3  1  0
  6  5  1  0
  7  8  2  0
  7  6  1  0
  8  4  1  0
  9 10  2  0
 11 12  1  0
 12 14  1  0
 13 12  2  0
 14 15  1  0
 16 17  1  0
 16 15  1  0
 18 17  1  6
 18 20  1  0
 19  9  1  0
 19 18  1  0
 20 21  2  0
 22 23  1  0
 22 20  1  0
 23 26  1  0
 23 24  1  6
 25 24  1  0
 26 27  2  0
 26 28  1  0
M  END
$$$$
