HRC.pdb
     RDKit          3D

 28 28  0  0  1  0  0  0  0  0999 V2000
   27.0159  -21.8425  -15.5838 N   0  0  0  0  0  0  0  0  0  0  0  0
   25.6269  -22.2846  -15.7789 C   0  0  1  0  0  0  0  0  0  0  0  0
   25.5876  -23.6679  -15.1386 C   0  0  0  0  0  0  0  0  0  0  0  0
   26.3418  -24.5809  -16.0341 C   0  0  0  0  0  0  0  0  0  0  0  0
   27.0181  -24.2742  -17.1961 C   0  0  0  0  0  0  0  0  0  0  0  0
   27.5618  -25.3970  -17.6977 N   0  0  0  0  0  0  0  0  0  0  0  0
   27.2245  -26.3963  -16.8503 C   0  0  0  0  0  0  0  0  0  0  0  0
   26.4933  -25.9031  -15.8547 N   0  0  0  0  0  0  0  0  0  0  0  0
   24.7571  -21.3311  -15.0581 C   0  0  0  0  0  0  0  0  0  0  0  0
   25.1328  -20.8746  -13.9560 O   0  0  0  0  0  0  0  0  0  0  0  0
   19.0452  -15.0811  -17.6403 N   0  0  0  0  0  0  0  0  0  0  0  0
   19.0770  -14.9512  -16.2201 C   0  0  0  0  0  0  0  0  0  0  0  0
   18.4930  -13.9648  -15.6482 N   0  0  0  0  0  0  0  0  0  0  0  0
   19.7582  -15.9211  -15.4560 N   0  0  0  0  0  0  0  0  0  0  0  0
   20.5638  -16.9479  -16.1097 C   0  0  0  0  0  0  0  0  0  0  0  0
   21.2407  -17.7994  -15.0684 C   0  0  0  0  0  0  0  0  0  0  0  0
   22.0367  -18.8676  -15.6857 C   0  0  0  0  0  0  0  0  0  0  0  0
   22.7183  -19.8665  -14.8458 C   0  0  2  0  0  0  0  0  0  0  0  0
   23.4910  -20.8725  -15.5222 N   0  0  0  0  0  0  0  0  0  0  0  0
   21.5998  -20.6346  -14.1606 C   0  0  0  0  0  0  0  0  0  0  0  0
   20.9826  -21.5685  -14.7250 O   0  0  0  0  0  0  0  0  0  0  0  0
   18.4293  -13.8337  -14.6199 N   0  0  0  0  0  0  0  0  0  0  0  0
   21.2144  -20.3118  -12.8368 C   0  0  2  0  0  0  0  0  0  0  0  0
   20.2187  -21.0756  -12.1030 C   0  0  0  0  0  0  0  0  0  0  0  0
   20.4286  -20.9274  -10.6036 S   0  0  0  0  0  0  0  0  0  0  0  0
   21.7319  -19.7558  -10.2253 C   0  0  0  0  0  0  0  0  0  0  0  0
   18.8527  -20.6564  -12.4942 O   0  0  0  0  0  0  0  0  0  0  0  0
   18.6731  -19.4760  -12.8792 O   0  0  0  0  0  0  0  0  0  0  0  0
  2  1  1  1
  2  9  1  0
  3  2  1  0
  4  5  2  0
  4  3  1  0
  6  5  1  0
  7  8  2  0
  7  6  1  0
  8  4  1  0
  9 10  2  0
 11 12  1  0
 12 14  1  0
 13 12  2  0
 14 15  1  0
 16 17  1  0
 16 15  1  0
 18 17  1  6
 18 20  1  0
 19  9  1  0
 19 18  1  0
 20 21  2  0
 22 23  1  0
 22 20  1  0
 23 26  1  0
 23 24  1  6
 25 24  1  0
 26 27  2  0
 26 28  1  0
M  END
$$$$
