HRC.pdb
     RDKit          3D

 28 28  0  0  1  0  0  0  0  0999 V2000
   25.3270  -15.6968  -15.4419 N   0  0  0  0  0  0  0  0  0  0  0  0
   24.9927  -16.9903  -16.0565 C   0  0  1  0  0  0  0  0  0  0  0  0
   24.8757  -16.6722  -17.5431 C   0  0  0  0  0  0  0  0  0  0  0  0
   23.6076  -15.9219  -17.7266 C   0  0  0  0  0  0  0  0  0  0  0  0
   22.4103  -16.0897  -17.0633 C   0  0  0  0  0  0  0  0  0  0  0  0
   21.5172  -15.2036  -17.5375 N   0  0  0  0  0  0  0  0  0  0  0  0
   22.1577  -14.4885  -18.4909 C   0  0  0  0  0  0  0  0  0  0  0  0
   23.4102  -14.9223  -18.6013 N   0  0  0  0  0  0  0  0  0  0  0  0
   26.1196  -17.9086  -15.7880 C   0  0  0  0  0  0  0  0  0  0  0  0
   27.2913  -17.4980  -15.9389 O   0  0  0  0  0  0  0  0  0  0  0  0
   24.9068  -20.1026   -9.3889 N   0  0  0  0  0  0  0  0  0  0  0  0
   24.4518  -20.9063  -10.4760 C   0  0  0  0  0  0  0  0  0  0  0  0
   23.1983  -21.0217  -10.7140 N   0  0  0  0  0  0  0  0  0  0  0  0
   25.3981  -21.5702  -11.2836 N   0  0  0  0  0  0  0  0  0  0  0  0
   26.7848  -21.1163  -11.3260 C   0  0  0  0  0  0  0  0  0  0  0  0
   26.9676  -20.1537  -12.4695 C   0  0  0  0  0  0  0  0  0  0  0  0
   27.0101  -20.8559  -13.7583 C   0  0  0  0  0  0  0  0  0  0  0  0
   27.1028  -20.0959  -15.0159 C   0  0  2  0  0  0  0  0  0  0  0  0
   25.9846  -19.2602  -15.3592 N   0  0  0  0  0  0  0  0  0  0  0  0
   27.1481  -21.1493  -16.1107 C   0  0  0  0  0  0  0  0  0  0  0  0
   26.1105  -21.6584  -16.5963 O   0  0  0  0  0  0  0  0  0  0  0  0
   22.7952  -21.5813  -11.4905 N   0  0  0  0  0  0  0  0  0  0  0  0
   28.3894  -21.5956  -16.6257 C   0  0  1  0  0  0  0  0  0  0  0  0
   28.4893  -22.6372  -17.6348 C   0  0  0  0  0  0  0  0  0  0  0  0
   29.8722  -22.6373  -18.2687 S   0  0  0  0  0  0  0  0  0  0  0  0
   30.3077  -21.0244  -18.9195 C   0  0  0  0  0  0  0  0  0  0  0  0
   28.1720  -23.9596  -17.0473 O   0  0  0  0  0  0  0  0  0  0  0  0
   27.9791  -24.0373  -15.8101 O   0  0  0  0  0  0  0  0  0  0  0  0
  2  1  1  1
  2  9  1  0
  3  2  1  0
  4  5  2  0
  4  3  1  0
  6  5  1  0
  7  8  2  0
  7  6  1  0
  8  4  1  0
  9 10  2  0
 11 12  1  0
 12 14  1  0
 13 12  2  0
 14 15  1  0
 16 17  1  0
 16 15  1  0
 18 17  1  1
 18 20  1  0
 19  9  1  0
 19 18  1  0
 20 21  2  0
 22 23  1  0
 22 20  1  0
 23 26  1  0
 23 24  1  6
 25 24  1  0
 26 27  2  0
 26 28  1  0
M  END
$$$$
