HRC.pdb
     RDKit          3D

 28 28  0  0  1  0  0  0  0  0999 V2000
   25.0375  -18.0158  -18.6328 N   0  0  0  0  0  0  0  0  0  0  0  0
   24.3215  -17.5577  -17.4328 C   0  0  1  0  0  0  0  0  0  0  0  0
   22.9743  -17.0833  -17.9667 C   0  0  0  0  0  0  0  0  0  0  0  0
   23.1951  -15.7451  -18.5710 C   0  0  0  0  0  0  0  0  0  0  0  0
   23.3522  -15.4228  -19.9026 C   0  0  0  0  0  0  0  0  0  0  0  0
   23.5310  -14.0950  -20.0153 N   0  0  0  0  0  0  0  0  0  0  0  0
   23.4849  -13.5953  -18.7589 C   0  0  0  0  0  0  0  0  0  0  0  0
   23.2835  -14.5875  -17.8962 N   0  0  0  0  0  0  0  0  0  0  0  0
   24.1674  -18.7261  -16.5404 C   0  0  0  0  0  0  0  0  0  0  0  0
   23.7874  -19.8162  -17.0215 O   0  0  0  0  0  0  0  0  0  0  0  0
   26.8484  -22.8241  -11.1138 N   0  0  0  0  0  0  0  0  0  0  0  0
   27.4001  -21.5087  -11.0965 C   0  0  0  0  0  0  0  0  0  0  0  0
   28.6529  -21.3307  -11.2967 N   0  0  0  0  0  0  0  0  0  0  0  0
   26.5498  -20.4095  -10.8570 N   0  0  0  0  0  0  0  0  0  0  0  0
   25.1207  -20.6117  -10.6387 C   0  0  0  0  0  0  0  0  0  0  0  0
   24.4374  -20.8611  -11.9572 C   0  0  0  0  0  0  0  0  0  0  0  0
   24.6886  -19.7682  -12.9049 C   0  0  0  0  0  0  0  0  0  0  0  0
   24.1955  -19.8572  -14.2895 C   0  0  2  0  0  0  0  0  0  0  0  0
   24.4217  -18.7197  -15.1389 N   0  0  0  0  0  0  0  0  0  0  0  0
   22.6836  -19.9511  -14.1642 C   0  0  0  0  0  0  0  0  0  0  0  0
   21.9792  -18.9838  -13.7903 O   0  0  0  0  0  0  0  0  0  0  0  0
   29.1179  -20.4026  -11.3309 N   0  0  0  0  0  0  0  0  0  0  0  0
   22.0120  -21.1588  -14.4734 C   0  0  2  0  0  0  0  0  0  0  0  0
   20.5843  -21.3362  -14.2645 C   0  0  0  0  0  0  0  0  0  0  0  0
   20.1350  -22.6993  -14.7688 S   0  0  0  0  0  0  0  0  0  0  0  0
   18.6805  -23.2856  -13.8999 C   0  0  0  0  0  0  0  0  0  0  0  0
   20.2442  -21.1583  -12.8336 O   0  0  0  0  0  0  0  0  0  0  0  0
   21.0214  -21.6277  -11.9679 O   0  0  0  0  0  0  0  0  0  0  0  0
  2  1  1  6
  2  9  1  0
  3  2  1  0
  4  5  2  0
  4  3  1  0
  6  5  1  0
  7  8  2  0
  7  6  1  0
  8  4  1  0
  9 10  2  0
 11 12  1  0
 12 14  1  0
 13 12  2  0
 14 15  1  0
 16 17  1  0
 16 15  1  0
 18 17  1  1
 18 20  1  0
 19  9  1  0
 19 18  1  0
 20 21  2  0
 22 23  1  0
 22 20  1  0
 23 26  1  0
 23 24  1  6
 25 24  1  0
 26 27  2  0
 26 28  1  0
M  END
$$$$
