HRC.pdb
     RDKit          3D

 28 28  0  0  1  0  0  0  0  0999 V2000
   28.7285  -31.0505  -17.0838 N   0  0  0  0  0  0  0  0  0  0  0  0
   29.1189  -32.2796  -16.3771 C   0  0  1  0  0  0  0  0  0  0  0  0
   28.1490  -33.3313  -16.9044 C   0  0  0  0  0  0  0  0  0  0  0  0
   26.9312  -33.2602  -16.0580 C   0  0  0  0  0  0  0  0  0  0  0  0
   25.7288  -32.6459  -16.3383 C   0  0  0  0  0  0  0  0  0  0  0  0
   24.8941  -32.8184  -15.2985 N   0  0  0  0  0  0  0  0  0  0  0  0
   25.5755  -33.5371  -14.3767 C   0  0  0  0  0  0  0  0  0  0  0  0
   26.7960  -33.7997  -14.8357 N   0  0  0  0  0  0  0  0  0  0  0  0
   30.5117  -32.5864  -16.7660 C   0  0  0  0  0  0  0  0  0  0  0  0
   30.8917  -32.3292  -17.9295 O   0  0  0  0  0  0  0  0  0  0  0  0
   37.2689  -31.8560  -13.0136 N   0  0  0  0  0  0  0  0  0  0  0  0
   37.5705  -31.3520  -14.3135 C   0  0  0  0  0  0  0  0  0  0  0  0
   38.7792  -31.0737  -14.6343 N   0  0  0  0  0  0  0  0  0  0  0  0
   36.5228  -31.1650  -15.2387 N   0  0  0  0  0  0  0  0  0  0  0  0
   35.1970  -31.7174  -14.9786 C   0  0  0  0  0  0  0  0  0  0  0  0
   35.1749  -33.1768  -15.3493 C   0  0  0  0  0  0  0  0  0  0  0  0
   33.8179  -33.7305  -15.2614 C   0  0  0  0  0  0  0  0  0  0  0  0
   32.8336  -33.4571  -16.3217 C   0  0  2  0  0  0  0  0  0  0  0  0
   31.4885  -33.1660  -15.9065 N   0  0  0  0  0  0  0  0  0  0  0  0
   32.7240  -34.7566  -17.1025 C   0  0  0  0  0  0  0  0  0  0  0  0
   32.0621  -35.7366  -16.6863 O   0  0  0  0  0  0  0  0  0  0  0  0
   39.0722  -30.6986  -15.5574 N   0  0  0  0  0  0  0  0  0  0  0  0
   33.3794  -34.9016  -18.3494 C   0  0  2  0  0  0  0  0  0  0  0  0
   33.3560  -36.1424  -19.1065 C   0  0  0  0  0  0  0  0  0  0  0  0
   33.5521  -35.8679  -20.5899 S   0  0  0  0  0  0  0  0  0  0  0  0
   33.0737  -37.2721  -21.5969 C   0  0  0  0  0  0  0  0  0  0  0  0
   34.3842  -37.0794  -18.5971 O   0  0  0  0  0  0  0  0  0  0  0  0
   34.4569  -38.2252  -19.1026 O   0  0  0  0  0  0  0  0  0  0  0  0
  2  1  1  6
  2  9  1  0
  3  2  1  0
  4  5  2  0
  4  3  1  0
  6  5  1  0
  7  8  2  0
  7  6  1  0
  8  4  1  0
  9 10  2  0
 11 12  1  0
 12 14  1  0
 13 12  2  0
 14 15  1  0
 16 17  1  0
 16 15  1  0
 18 17  1  1
 18 20  1  0
 19  9  1  0
 19 18  1  0
 20 21  2  0
 22 23  1  0
 22 20  1  0
 23 26  1  0
 23 24  1  6
 25 24  1  0
 26 27  2  0
 26 28  1  0
M  END
$$$$
