HRC.pdb
     RDKit          3D

 28 28  0  0  1  0  0  0  0  0999 V2000
   27.3353  -20.0300  -18.4235 N   0  0  0  0  0  0  0  0  0  0  0  0
   27.2587  -19.2404  -17.1852 C   0  0  1  0  0  0  0  0  0  0  0  0
   26.9433  -17.8288  -17.6677 C   0  0  0  0  0  0  0  0  0  0  0  0
   28.2069  -17.2617  -18.2025 C   0  0  0  0  0  0  0  0  0  0  0  0
   29.4508  -17.8535  -18.2669 C   0  0  0  0  0  0  0  0  0  0  0  0
   30.3199  -16.9908  -18.8221 N   0  0  0  0  0  0  0  0  0  0  0  0
   29.6182  -15.8683  -19.1014 C   0  0  0  0  0  0  0  0  0  0  0  0
   28.3524  -16.0347  -18.7284 N   0  0  0  0  0  0  0  0  0  0  0  0
   26.1514  -19.7951  -16.3782 C   0  0  0  0  0  0  0  0  0  0  0  0
   25.1827  -20.3330  -16.9583 O   0  0  0  0  0  0  0  0  0  0  0  0
   22.1055  -19.4058  -10.1095 N   0  0  0  0  0  0  0  0  0  0  0  0
   22.1518  -20.7043   -9.5209 C   0  0  0  0  0  0  0  0  0  0  0  0
   21.1532  -21.1462   -8.8511 N   0  0  0  0  0  0  0  0  0  0  0  0
   23.3088  -21.4933   -9.6862 N   0  0  0  0  0  0  0  0  0  0  0  0
   24.4341  -21.0025  -10.4760 C   0  0  0  0  0  0  0  0  0  0  0  0
   24.0168  -20.8567  -11.9155 C   0  0  0  0  0  0  0  0  0  0  0  0
   25.1360  -20.4094  -12.7541 C   0  0  0  0  0  0  0  0  0  0  0  0
   24.9563  -20.2427  -14.2059 C   0  0  2  0  0  0  0  0  0  0  0  0
   26.0887  -19.7707  -14.9554 N   0  0  0  0  0  0  0  0  0  0  0  0
   23.9134  -19.1464  -14.3508 C   0  0  0  0  0  0  0  0  0  0  0  0
   24.1642  -17.9436  -14.1017 O   0  0  0  0  0  0  0  0  0  0  0  0
   21.1005  -22.0932   -8.4278 N   0  0  0  0  0  0  0  0  0  0  0  0
   22.6006  -19.4577  -14.7808 C   0  0  2  0  0  0  0  0  0  0  0  0
   21.5462  -18.4602  -14.8620 C   0  0  0  0  0  0  0  0  0  0  0  0
   21.4805  -17.8635  -16.2598 S   0  0  0  0  0  0  0  0  0  0  0  0
   21.1738  -19.1156  -17.5058 C   0  0  0  0  0  0  0  0  0  0  0  0
   20.2443  -19.0500  -14.4723 O   0  0  0  0  0  0  0  0  0  0  0  0
   20.1775  -20.2885  -14.2836 O   0  0  0  0  0  0  0  0  0  0  0  0
  2  1  1  6
  2  9  1  0
  3  2  1  0
  4  5  2  0
  4  3  1  0
  6  5  1  0
  7  8  2  0
  7  6  1  0
  8  4  1  0
  9 10  2  0
 11 12  1  0
 12 14  1  0
 13 12  2  0
 14 15  1  0
 16 17  1  0
 16 15  1  0
 18 17  1  1
 18 20  1  0
 19  9  1  0
 19 18  1  0
 20 21  2  0
 22 23  1  0
 22 20  1  0
 23 26  1  0
 23 24  1  6
 25 24  1  0
 26 27  2  0
 26 28  1  0
M  END
$$$$
