HRC.pdb
     RDKit          3D

 28 28  0  0  1  0  0  0  0  0999 V2000
   18.9144  -24.5342   -7.3950 N   0  0  0  0  0  0  0  0  0  0  0  0
   17.6735  -25.2462   -7.0545 C   0  0  1  0  0  0  0  0  0  0  0  0
   18.0936  -26.7107   -6.9961 C   0  0  0  0  0  0  0  0  0  0  0  0
   18.1239  -27.2084   -8.3946 C   0  0  0  0  0  0  0  0  0  0  0  0
   17.0602  -27.4945   -9.2244 C   0  0  0  0  0  0  0  0  0  0  0  0
   17.5299  -27.9224  -10.4094 N   0  0  0  0  0  0  0  0  0  0  0  0
   18.8794  -27.9017  -10.3155 C   0  0  0  0  0  0  0  0  0  0  0  0
   19.2313  -27.4734   -9.1064 N   0  0  0  0  0  0  0  0  0  0  0  0
   17.2356  -24.7569   -5.7300 C   0  0  0  0  0  0  0  0  0  0  0  0
   18.0807  -24.2633   -4.9513 O   0  0  0  0  0  0  0  0  0  0  0  0
   10.9215  -23.1412   -1.3692 N   0  0  0  0  0  0  0  0  0  0  0  0
   11.1760  -21.7438   -1.2376 C   0  0  0  0  0  0  0  0  0  0  0  0
   10.6990  -21.0908   -0.2440 N   0  0  0  0  0  0  0  0  0  0  0  0
   11.9583  -21.0924   -2.2135 N   0  0  0  0  0  0  0  0  0  0  0  0
   12.4358  -21.8185   -3.3863 C   0  0  0  0  0  0  0  0  0  0  0  0
   13.6605  -22.6163   -3.0239 C   0  0  0  0  0  0  0  0  0  0  0  0
   14.2133  -23.3092   -4.1944 C   0  0  0  0  0  0  0  0  0  0  0  0
   15.4546  -24.0921   -4.0768 C   0  0  2  0  0  0  0  0  0  0  0  0
   15.8959  -24.7989   -5.2483 N   0  0  0  0  0  0  0  0  0  0  0  0
   15.1394  -25.1812   -3.0646 C   0  0  0  0  0  0  0  0  0  0  0  0
   14.3860  -26.1475   -3.3302 O   0  0  0  0  0  0  0  0  0  0  0  0
   10.9023  -20.0923   -0.0431 N   0  0  0  0  0  0  0  0  0  0  0  0
   15.6994  -25.1362   -1.7647 C   0  0  2  0  0  0  0  0  0  0  0  0
   15.4674  -26.1762   -0.7759 C   0  0  0  0  0  0  0  0  0  0  0  0
   16.7864  -26.6807   -0.2101 S   0  0  0  0  0  0  0  0  0  0  0  0
   18.0668  -26.7493   -1.4632 C   0  0  0  0  0  0  0  0  0  0  0  0
   14.5809  -25.6779    0.3015 O   0  0  0  0  0  0  0  0  0  0  0  0
   14.2364  -24.4718    0.2870 O   0  0  0  0  0  0  0  0  0  0  0  0
  2  1  1  1
  2  9  1  0
  3  2  1  0
  4  5  2  0
  4  3  1  0
  6  5  1  0
  7  8  2  0
  7  6  1  0
  8  4  1  0
  9 10  2  0
 11 12  1  0
 12 14  1  0
 13 12  2  0
 14 15  1  0
 16 17  1  0
 16 15  1  0
 18 17  1  6
 18 20  1  0
 19  9  1  0
 19 18  1  0
 20 21  2  0
 22 23  1  0
 22 20  1  0
 23 26  1  0
 23 24  1  6
 25 24  1  0
 26 27  2  0
 26 28  1  0
M  END
$$$$
