HRC.pdb
     RDKit          3D

 28 28  0  0  1  0  0  0  0  0999 V2000
   21.7630  -12.7021  -18.1406 N   0  0  0  0  0  0  0  0  0  0  0  0
   20.6789  -11.7102  -18.0789 C   0  0  1  0  0  0  0  0  0  0  0  0
   19.8251  -12.1708  -16.9025 C   0  0  0  0  0  0  0  0  0  0  0  0
   19.0370  -13.3388  -17.3708 C   0  0  0  0  0  0  0  0  0  0  0  0
   19.1968  -14.6677  -17.0388 C   0  0  0  0  0  0  0  0  0  0  0  0
   18.2726  -15.3972  -17.6879 N   0  0  0  0  0  0  0  0  0  0  0  0
   17.5420  -14.5246  -18.4196 C   0  0  0  0  0  0  0  0  0  0  0  0
   18.0034  -13.2921  -18.2268 N   0  0  0  0  0  0  0  0  0  0  0  0
   21.3008  -10.3958  -17.8128 C   0  0  0  0  0  0  0  0  0  0  0  0
   22.1682  -10.3007  -16.9168 O   0  0  0  0  0  0  0  0  0  0  0  0
   22.3511   -2.8505  -22.4598 N   0  0  0  0  0  0  0  0  0  0  0  0
   22.9457   -2.5604  -21.1961 C   0  0  0  0  0  0  0  0  0  0  0  0
   23.5160   -1.4311  -20.9942 N   0  0  0  0  0  0  0  0  0  0  0  0
   22.8970   -3.5309  -20.1742 N   0  0  0  0  0  0  0  0  0  0  0  0
   22.2188   -4.8047  -20.3936 C   0  0  0  0  0  0  0  0  0  0  0  0
   22.3274   -5.6559  -19.1561 C   0  0  0  0  0  0  0  0  0  0  0  0
   21.6970   -6.9674  -19.3518 C   0  0  0  0  0  0  0  0  0  0  0  0
   21.6410   -7.9374  -18.2455 C   0  0  2  0  0  0  0  0  0  0  0  0
   20.9901   -9.1920  -18.5079 N   0  0  0  0  0  0  0  0  0  0  0  0
   20.7832   -7.2725  -17.1814 C   0  0  0  0  0  0  0  0  0  0  0  0
   19.5524   -7.0866  -17.3302 O   0  0  0  0  0  0  0  0  0  0  0  0
   23.9634   -1.1485  -20.1005 N   0  0  0  0  0  0  0  0  0  0  0  0
   21.3608   -6.8350  -15.9647 C   0  0  2  0  0  0  0  0  0  0  0  0
   20.5875   -6.1822  -14.9211 C   0  0  0  0  0  0  0  0  0  0  0  0
   20.3479   -7.1332  -13.7583 S   0  0  0  0  0  0  0  0  0  0  0  0
   21.8861   -7.6979  -13.0306 C   0  0  0  0  0  0  0  0  0  0  0  0
   21.2684   -4.9469  -14.4681 O   0  0  0  0  0  0  0  0  0  0  0  0
   22.3958   -4.6723  -14.9447 O   0  0  0  0  0  0  0  0  0  0  0  0
  2  1  1  1
  2  9  1  0
  3  2  1  0
  4  5  2  0
  4  3  1  0
  6  5  1  0
  7  8  2  0
  7  6  1  0
  8  4  1  0
  9 10  2  0
 11 12  1  0
 12 14  1  0
 13 12  2  0
 14 15  1  0
 16 17  1  0
 16 15  1  0
 18 17  1  6
 18 20  1  0
 19  9  1  0
 19 18  1  0
 20 21  2  0
 22 23  1  0
 22 20  1  0
 23 26  1  0
 23 24  1  6
 25 24  1  0
 26 27  2  0
 26 28  1  0
M  END
$$$$
