HRC.pdb
     RDKit          3D

 28 28  0  0  1  0  0  0  0  0999 V2000
   19.8700  -13.3406  -17.3166 N   0  0  0  0  0  0  0  0  0  0  0  0
   19.1235  -12.1961  -16.7730 C   0  0  1  0  0  0  0  0  0  0  0  0
   19.0245  -12.4962  -15.2814 C   0  0  0  0  0  0  0  0  0  0  0  0
   18.0451  -13.6014  -15.1263 C   0  0  0  0  0  0  0  0  0  0  0  0
   18.2568  -14.8683  -14.6246 C   0  0  0  0  0  0  0  0  0  0  0  0
   17.1016  -15.5552  -14.6635 N   0  0  0  0  0  0  0  0  0  0  0  0
   16.1767  -14.7178  -15.1869 C   0  0  0  0  0  0  0  0  0  0  0  0
   16.7463  -13.5480  -15.4631 N   0  0  0  0  0  0  0  0  0  0  0  0
   19.9310  -10.9842  -17.0274 C   0  0  0  0  0  0  0  0  0  0  0  0
   21.1612  -11.0118  -16.8035 O   0  0  0  0  0  0  0  0  0  0  0  0
   23.6874   -8.1843  -22.3463 N   0  0  0  0  0  0  0  0  0  0  0  0
   22.5170   -8.7776  -22.9057 C   0  0  0  0  0  0  0  0  0  0  0  0
   22.5622   -9.3329  -24.0593 N   0  0  0  0  0  0  0  0  0  0  0  0
   21.3124   -8.7451  -22.1732 N   0  0  0  0  0  0  0  0  0  0  0  0
   21.2949   -8.2597  -20.7967 C   0  0  0  0  0  0  0  0  0  0  0  0
   19.8756   -8.2086  -20.2959 C   0  0  0  0  0  0  0  0  0  0  0  0
   19.8148   -7.7323  -18.9084 C   0  0  0  0  0  0  0  0  0  0  0  0
   20.2398   -8.6073  -17.8032 C   0  0  2  0  0  0  0  0  0  0  0  0
   19.4161   -9.7510  -17.5203 N   0  0  0  0  0  0  0  0  0  0  0  0
   20.1421   -7.7433  -16.5564 C   0  0  0  0  0  0  0  0  0  0  0  0
   19.0636   -7.5720  -15.9407 O   0  0  0  0  0  0  0  0  0  0  0  0
   21.7837   -9.8738  -24.4836 N   0  0  0  0  0  0  0  0  0  0  0  0
   21.2904   -7.0933  -16.0425 C   0  0  2  0  0  0  0  0  0  0  0  0
   21.2594   -6.2915  -14.8303 C   0  0  0  0  0  0  0  0  0  0  0  0
   22.3571   -6.7278  -13.8718 S   0  0  0  0  0  0  0  0  0  0  0  0
   22.5029   -5.6149  -12.4737 C   0  0  0  0  0  0  0  0  0  0  0  0
   21.3793   -4.8518  -15.1585 O   0  0  0  0  0  0  0  0  0  0  0  0
   22.0162   -4.5206  -16.1874 O   0  0  0  0  0  0  0  0  0  0  0  0
  2  1  1  6
  2  9  1  0
  3  2  1  0
  4  5  2  0
  4  3  1  0
  6  5  1  0
  7  8  2  0
  7  6  1  0
  8  4  1  0
  9 10  2  0
 11 12  1  0
 12 14  1  0
 13 12  2  0
 14 15  1  0
 16 17  1  0
 16 15  1  0
 18 17  1  6
 18 20  1  0
 19  9  1  0
 19 18  1  0
 20 21  2  0
 22 23  1  0
 22 20  1  0
 23 26  1  0
 23 24  1  1
 25 24  1  0
 26 27  2  0
 26 28  1  0
M  END
$$$$
