HRC.pdb
     RDKit          3D

 28 28  0  0  1  0  0  0  0  0999 V2000
   20.9809  -19.8809  -16.4009 N   0  0  0  0  0  0  0  0  0  0  0  0
   22.0200  -19.0206  -15.8152 C   0  0  1  0  0  0  0  0  0  0  0  0
   21.2579  -18.1424  -14.8288 C   0  0  0  0  0  0  0  0  0  0  0  0
   20.5799  -17.0871  -15.6232 C   0  0  0  0  0  0  0  0  0  0  0  0
   19.2765  -17.0589  -16.0729 C   0  0  0  0  0  0  0  0  0  0  0  0
   19.0722  -15.9198  -16.7572 N   0  0  0  0  0  0  0  0  0  0  0  0
   20.2438  -15.2436  -16.7322 C   0  0  0  0  0  0  0  0  0  0  0  0
   21.1448  -15.9467  -16.0517 N   0  0  0  0  0  0  0  0  0  0  0  0
   22.9813  -19.9034  -15.1211 C   0  0  0  0  0  0  0  0  0  0  0  0
   22.5496  -20.8398  -14.4132 O   0  0  0  0  0  0  0  0  0  0  0  0
   30.4644  -23.8126  -15.6153 N   0  0  0  0  0  0  0  0  0  0  0  0
   29.5716  -23.2451  -16.5723 C   0  0  0  0  0  0  0  0  0  0  0  0
   29.3389  -23.8502  -17.6772 N   0  0  0  0  0  0  0  0  0  0  0  0
   28.9497  -22.0123  -16.2861 N   0  0  0  0  0  0  0  0  0  0  0  0
   29.0361  -21.4312  -14.9498 C   0  0  0  0  0  0  0  0  0  0  0  0
   27.6927  -21.5133  -14.2743 C   0  0  0  0  0  0  0  0  0  0  0  0
   26.6804  -20.7363  -15.0003 C   0  0  0  0  0  0  0  0  0  0  0  0
   25.3037  -20.6455  -14.4863 C   0  0  2  0  0  0  0  0  0  0  0  0
   24.3985  -19.7781  -15.1898 N   0  0  0  0  0  0  0  0  0  0  0  0
   25.4386  -20.0246  -13.1055 C   0  0  0  0  0  0  0  0  0  0  0  0
   25.8771  -18.8631  -12.9312 O   0  0  0  0  0  0  0  0  0  0  0  0
   28.7117  -23.4927  -18.4239 N   0  0  0  0  0  0  0  0  0  0  0  0
   25.0648  -20.7546  -11.9511 C   0  0  2  0  0  0  0  0  0  0  0  0
   25.3019  -20.2638  -10.6035 C   0  0  0  0  0  0  0  0  0  0  0  0
   24.3302  -20.9024   -9.6226 S   0  0  0  0  0  0  0  0  0  0  0  0
   22.6255  -20.5280  -10.0332 C   0  0  0  0  0  0  0  0  0  0  0  0
   26.7059  -20.5124  -10.2014 O   0  0  0  0  0  0  0  0  0  0  0  0
   27.4231  -21.2336  -10.9358 O   0  0  0  0  0  0  0  0  0  0  0  0
  2  1  1  1
  2  9  1  0
  3  2  1  0
  4  5  2  0
  4  3  1  0
  6  5  1  0
  7  8  2  0
  7  6  1  0
  8  4  1  0
  9 10  2  0
 11 12  1  0
 12 14  1  0
 13 12  2  0
 14 15  1  0
 16 17  1  0
 16 15  1  0
 18 17  1  6
 18 20  1  0
 19  9  1  0
 19 18  1  0
 20 21  2  0
 22 23  1  0
 22 20  1  0
 23 26  1  0
 23 24  1  6
 25 24  1  0
 26 27  2  0
 26 28  1  0
M  END
$$$$
