RGK.pdb
     RDKit          3D

 25 24  0  0  1  0  0  0  0  0999 V2000
    1.2138  -19.0949   22.8834 N   0  0  0  0  0  0  0  0  0  0  0  0
    1.3695  -19.6811   21.6093 C   0  0  0  0  0  0  0  0  0  0  0  0
    1.0803  -20.9096   21.3512 N   0  0  0  0  0  0  0  0  0  0  0  0
    1.8692  -18.9218   20.5143 N   0  0  0  0  0  0  0  0  0  0  0  0
    2.9692  -18.0429   20.6516 C   0  0  0  0  0  0  0  0  0  0  0  0
    4.3072  -18.6993   20.7158 C   0  0  0  0  0  0  0  0  0  0  0  0
    5.4215  -17.7454   20.8997 C   0  0  0  0  0  0  0  0  0  0  0  0
    6.8018  -18.2834   20.9059 C   0  0  2  0  0  0  0  0  0  0  0  0
    7.0372  -19.3899   21.7875 N   0  0  0  0  0  0  0  0  0  0  0  0
    7.8503  -17.2576   21.0755 C   0  0  0  0  0  0  0  0  0  0  0  0
    7.8635  -16.2546   20.3105 O   0  0  0  0  0  0  0  0  0  0  0  0
    1.2577  -21.2666   20.3867 N   0  0  0  0  0  0  0  0  0  0  0  0
    8.8644  -17.3228   22.0591 C   0  0  0  0  0  0  0  0  0  0  0  0
    9.9626  -16.3670   22.0960 C   0  0  0  0  0  0  0  0  0  0  0  0
    9.9798  -15.7872   23.4688 O   0  0  0  0  0  0  0  0  0  0  0  0
   10.8341  -14.9878   23.8826 N   0  0  0  0  0  0  0  0  0  0  0  0
    8.9263  -16.1948   24.3586 C   0  0  1  0  0  0  0  0  0  0  0  0
    8.9638  -15.8039   25.7260 C   0  0  0  0  0  0  0  0  0  0  0  0
    7.7067  -15.1949   26.2285 C   0  0  0  0  0  0  0  0  0  0  0  0
    7.4546  -13.7768   25.9877 C   0  0  0  0  0  0  0  0  0  0  0  0
    6.2159  -13.1336   26.4985 C   0  0  0  0  0  0  0  0  0  0  0  0
    6.3761  -11.6242   26.1573 N   0  0  0  0  0  0  0  0  0  0  0  0
    5.2468  -10.8876   26.6347 C   0  0  0  0  0  0  0  0  0  0  0  0
    9.4369  -16.9311   26.5741 O   0  0  0  0  0  0  0  0  0  0  0  0
    9.5785  -18.2105   26.0715 O   0  0  0  0  0  0  0  0  0  0  0  0
  1  2  1  0
  2  3  2  0
  4  5  1  0
  4  2  1  0
  6  7  1  0
  6  5  1  0
  7  8  1  0
  8 10  1  0
  8  9  1  1
 10 12  1  0
 11 10  2  0
 12 13  1  0
 14 15  2  0
 14 13  1  0
 16 14  1  0
 17 23  1  0
 17 16  1  0
 17 18  1  1
 19 18  1  0
 20 19  1  0
 21 20  1  0
 21 22  1  0
 23 24  1  0
 25 23  2  0
M  END
$$$$
