RGK.pdb
     RDKit          3D

 25 24  0  0  1  0  0  0  0  0999 V2000
    7.3104  -12.3072   18.4385 N   0  0  0  0  0  0  0  0  0  0  0  0
    8.4708  -12.8139   19.0613 C   0  0  0  0  0  0  0  0  0  0  0  0
    9.3264  -12.0758   19.6800 N   0  0  0  0  0  0  0  0  0  0  0  0
    8.7624  -14.2066   19.0351 N   0  0  0  0  0  0  0  0  0  0  0  0
    7.7429  -15.1846   18.9612 C   0  0  0  0  0  0  0  0  0  0  0  0
    7.1603  -15.6002   20.2700 C   0  0  0  0  0  0  0  0  0  0  0  0
    8.1446  -16.2236   21.1799 C   0  0  0  0  0  0  0  0  0  0  0  0
    8.6523  -17.5718   20.8345 C   0  0  2  0  0  0  0  0  0  0  0  0
    7.9897  -18.2290   19.7456 N   0  0  0  0  0  0  0  0  0  0  0  0
    8.7772  -18.4851   21.9881 C   0  0  0  0  0  0  0  0  0  0  0  0
    8.4304  -19.6915   21.8620 O   0  0  0  0  0  0  0  0  0  0  0  0
   10.2201  -12.5134   19.9944 N   0  0  0  0  0  0  0  0  0  0  0  0
    9.2701  -18.0923   23.2541 C   0  0  0  0  0  0  0  0  0  0  0  0
   10.2481  -17.0231   23.4008 C   0  0  0  0  0  0  0  0  0  0  0  0
   11.3299  -17.5498   24.2802 O   0  0  0  0  0  0  0  0  0  0  0  0
   11.6454  -18.7470   24.3648 N   0  0  0  0  0  0  0  0  0  0  0  0
   12.0443  -16.5888   25.0764 C   0  0  1  0  0  0  0  0  0  0  0  0
   11.6209  -16.3177   26.4073 C   0  0  0  0  0  0  0  0  0  0  0  0
   10.3572  -15.5452   26.5076 C   0  0  0  0  0  0  0  0  0  0  0  0
    9.8097  -15.2404   27.8266 C   0  0  0  0  0  0  0  0  0  0  0  0
   10.7000  -14.7837   28.9256 C   0  0  0  0  0  0  0  0  0  0  0  0
    9.7526  -14.5368   30.1347 N   0  0  0  0  0  0  0  0  0  0  0  0
   10.5123  -14.1754   31.2914 C   0  0  0  0  0  0  0  0  0  0  0  0
   11.5948  -17.5713   27.2081 O   0  0  0  0  0  0  0  0  0  0  0  0
   12.6372  -17.9224   28.0446 O   0  0  0  0  0  0  0  0  0  0  0  0
  1  2  1  0
  2  3  2  0
  4  5  1  0
  4  2  1  0
  6  7  1  0
  6  5  1  0
  7  8  1  0
  8 10  1  0
  8  9  1  6
 10 12  1  0
 11 10  2  0
 12 13  1  0
 14 15  2  0
 14 13  1  0
 16 14  1  0
 17 23  1  0
 17 16  1  0
 17 18  1  6
 19 18  1  0
 20 19  1  0
 21 20  1  0
 21 22  1  0
 23 24  1  0
 25 23  2  0
M  END
$$$$
