RGK.pdb
     RDKit          3D

 25 24  0  0  1  0  0  0  0  0999 V2000
   10.3347  -13.3241   19.7487 N   0  0  0  0  0  0  0  0  0  0  0  0
    9.1559  -12.6944   19.2960 C   0  0  0  0  0  0  0  0  0  0  0  0
    9.1491  -11.7086   18.4667 N   0  0  0  0  0  0  0  0  0  0  0  0
    7.8782  -13.1295   19.7473 N   0  0  0  0  0  0  0  0  0  0  0  0
    7.5282  -14.4992   19.7995 C   0  0  0  0  0  0  0  0  0  0  0  0
    7.5282  -15.2090   18.4874 C   0  0  0  0  0  0  0  0  0  0  0  0
    7.0792  -16.6144   18.5795 C   0  0  0  0  0  0  0  0  0  0  0  0
    7.9755  -17.5870   19.2470 C   0  0  2  0  0  0  0  0  0  0  0  0
    8.0622  -18.8802   18.6330 N   0  0  0  0  0  0  0  0  0  0  0  0
    7.7484  -17.7208   20.6999 C   0  0  0  0  0  0  0  0  0  0  0  0
    6.7694  -18.4011   21.1126 O   0  0  0  0  0  0  0  0  0  0  0  0
    8.2299  -11.2887   18.2061 N   0  0  0  0  0  0  0  0  0  0  0  0
    8.5713  -17.1254   21.6839 C   0  0  0  0  0  0  0  0  0  0  0  0
    8.1034  -16.9009   23.0447 C   0  0  0  0  0  0  0  0  0  0  0  0
    9.2044  -16.2025   23.7665 O   0  0  0  0  0  0  0  0  0  0  0  0
   10.3582  -16.0711   23.3290 N   0  0  0  0  0  0  0  0  0  0  0  0
    8.8872  -15.6505   25.0560 C   0  0  1  0  0  0  0  0  0  0  0  0
    9.8798  -15.6159   26.0747 C   0  0  0  0  0  0  0  0  0  0  0  0
    9.3950  -15.1341   27.3924 C   0  0  0  0  0  0  0  0  0  0  0  0
   10.3401  -15.0099   28.4988 C   0  0  0  0  0  0  0  0  0  0  0  0
    9.9005  -14.4608   29.8081 C   0  0  0  0  0  0  0  0  0  0  0  0
   11.1361  -14.6087   30.7418 N   0  0  0  0  0  0  0  0  0  0  0  0
   10.8328  -14.1050   32.0456 C   0  0  0  0  0  0  0  0  0  0  0  0
   10.5783  -16.9267   26.1620 O   0  0  0  0  0  0  0  0  0  0  0  0
   11.9462  -17.0120   26.3386 O   0  0  0  0  0  0  0  0  0  0  0  0
  1  2  1  0
  2  3  2  0
  4  5  1  0
  4  2  1  0
  6  7  1  0
  6  5  1  0
  7  8  1  0
  8 10  1  0
  8  9  1  6
 10 12  1  0
 11 10  2  0
 12 13  1  0
 14 15  2  0
 14 13  1  0
 16 14  1  0
 17 23  1  0
 17 16  1  0
 17 18  1  1
 19 18  1  0
 20 19  1  0
 21 20  1  0
 21 22  1  0
 23 24  1  0
 25 23  2  0
M  END
$$$$
