RGK.pdb
     RDKit          3D

 25 24  0  0  1  0  0  0  0  0999 V2000
   10.5002  -13.7556   19.9286 N   0  0  0  0  0  0  0  0  0  0  0  0
    9.4690  -12.8734   19.5420 C   0  0  0  0  0  0  0  0  0  0  0  0
    9.6768  -11.7656   18.9182 N   0  0  0  0  0  0  0  0  0  0  0  0
    8.1081  -13.1724   19.8315 N   0  0  0  0  0  0  0  0  0  0  0  0
    7.7417  -14.1948   20.7380 C   0  0  0  0  0  0  0  0  0  0  0  0
    7.0616  -15.3748   20.1293 C   0  0  0  0  0  0  0  0  0  0  0  0
    7.9780  -16.4997   19.8461 C   0  0  0  0  0  0  0  0  0  0  0  0
    7.6802  -17.8108   20.4683 C   0  0  2  0  0  0  0  0  0  0  0  0
    6.5470  -18.5115   19.9373 N   0  0  0  0  0  0  0  0  0  0  0  0
    7.6225  -17.7813   21.9435 C   0  0  0  0  0  0  0  0  0  0  0  0
    6.5044  -17.6666   22.5164 O   0  0  0  0  0  0  0  0  0  0  0  0
    8.8596  -11.1448   18.7286 N   0  0  0  0  0  0  0  0  0  0  0  0
    8.7601  -17.8748   22.7784 C   0  0  0  0  0  0  0  0  0  0  0  0
    8.6455  -17.9635   24.2276 C   0  0  0  0  0  0  0  0  0  0  0  0
    9.2053  -16.6975   24.7798 O   0  0  0  0  0  0  0  0  0  0  0  0
    9.8861  -15.8887   24.1300 N   0  0  0  0  0  0  0  0  0  0  0  0
    8.9259  -16.4128   26.1614 C   0  0  1  0  0  0  0  0  0  0  0  0
    9.4485  -15.2330   26.7606 C   0  0  0  0  0  0  0  0  0  0  0  0
    8.4394  -14.3950   27.4558 C   0  0  0  0  0  0  0  0  0  0  0  0
    7.5961  -13.4962   26.6725 C   0  0  0  0  0  0  0  0  0  0  0  0
    6.6062  -12.6143   27.3443 C   0  0  0  0  0  0  0  0  0  0  0  0
    5.9695  -11.7773   26.1977 N   0  0  0  0  0  0  0  0  0  0  0  0
    4.9682  -10.9015   26.7231 C   0  0  0  0  0  0  0  0  0  0  0  0
   10.6155  -15.5629   27.6223 O   0  0  0  0  0  0  0  0  0  0  0  0
   11.5115  -14.5955   28.0360 O   0  0  0  0  0  0  0  0  0  0  0  0
  1  2  1  0
  2  3  2  0
  4  5  1  0
  4  2  1  0
  6  7  1  0
  6  5  1  0
  7  8  1  0
  8 10  1  0
  8  9  1  6
 10 12  1  0
 11 10  2  0
 12 13  1  0
 14 15  2  0
 14 13  1  0
 16 14  1  0
 17 23  1  0
 17 16  1  0
 17 18  1  1
 19 18  1  0
 20 19  1  0
 21 20  1  0
 21 22  1  0
 23 24  1  0
 25 23  2  0
M  END
$$$$
