RGK.pdb
     RDKit          3D

 25 24  0  0  1  0  0  0  0  0999 V2000
    6.5651  -18.6280   23.2529 N   0  0  0  0  0  0  0  0  0  0  0  0
    6.5081  -19.8391   22.5310 C   0  0  0  0  0  0  0  0  0  0  0  0
    5.4956  -20.6351   22.5554 N   0  0  0  0  0  0  0  0  0  0  0  0
    7.5993  -20.2537   21.7168 N   0  0  0  0  0  0  0  0  0  0  0  0
    8.3646  -19.3328   20.9634 C   0  0  0  0  0  0  0  0  0  0  0  0
    7.8193  -19.0015   19.6150 C   0  0  0  0  0  0  0  0  0  0  0  0
    7.1382  -17.6904   19.5626 C   0  0  0  0  0  0  0  0  0  0  0  0
    7.9455  -16.5031   19.1974 C   0  0  2  0  0  0  0  0  0  0  0  0
    9.1662  -16.7700   18.4934 N   0  0  0  0  0  0  0  0  0  0  0  0
    8.1892  -15.5701   20.3156 C   0  0  0  0  0  0  0  0  0  0  0  0
    9.3746  -15.2547   20.6106 O   0  0  0  0  0  0  0  0  0  0  0  0
    5.5332  -21.5000   21.9726 N   0  0  0  0  0  0  0  0  0  0  0  0
    7.1622  -14.9919   21.0973 C   0  0  0  0  0  0  0  0  0  0  0  0
    7.4514  -14.0687   22.1860 C   0  0  0  0  0  0  0  0  0  0  0  0
    8.1177  -14.8636   23.2561 O   0  0  0  0  0  0  0  0  0  0  0  0
    8.7016  -15.9425   23.0688 N   0  0  0  0  0  0  0  0  0  0  0  0
    8.0690  -14.3264   24.5891 C   0  0  1  0  0  0  0  0  0  0  0  0
    8.7705  -14.9786   25.6411 C   0  0  0  0  0  0  0  0  0  0  0  0
    8.9394  -14.1620   26.8692 C   0  0  0  0  0  0  0  0  0  0  0  0
    9.6564  -14.7270   28.0091 C   0  0  0  0  0  0  0  0  0  0  0  0
    9.8379  -13.9350   29.2536 C   0  0  0  0  0  0  0  0  0  0  0  0
   10.6150  -14.8753   30.2192 N   0  0  0  0  0  0  0  0  0  0  0  0
   10.9044  -14.1955   31.4438 C   0  0  0  0  0  0  0  0  0  0  0  0
    8.1711  -16.3126   25.9143 O   0  0  0  0  0  0  0  0  0  0  0  0
    6.8095  -16.5310   25.8238 O   0  0  0  0  0  0  0  0  0  0  0  0
  1  2  1  0
  2  3  2  0
  4  5  1  0
  4  2  1  0
  6  7  1  0
  6  5  1  0
  7  8  1  0
  8 10  1  0
  8  9  1  1
 10 12  1  0
 11 10  2  0
 12 13  1  0
 14 15  2  0
 14 13  1  0
 16 14  1  0
 17 23  1  0
 17 16  1  0
 17 18  1  1
 19 18  1  0
 20 19  1  0
 21 20  1  0
 21 22  1  0
 23 24  1  0
 25 23  2  0
M  END
$$$$
