RGK.pdb
     RDKit          3D

 25 24  0  0  1  0  0  0  0  0999 V2000
    9.1654  -15.7410   16.3995 N   0  0  0  0  0  0  0  0  0  0  0  0
    8.5435  -14.4745   16.3772 C   0  0  0  0  0  0  0  0  0  0  0  0
    7.6607  -14.1306   15.5045 N   0  0  0  0  0  0  0  0  0  0  0  0
    8.8713  -13.4850   17.3461 N   0  0  0  0  0  0  0  0  0  0  0  0
    8.2639  -13.4564   18.6234 C   0  0  0  0  0  0  0  0  0  0  0  0
    6.9219  -14.1023   18.7072 C   0  0  0  0  0  0  0  0  0  0  0  0
    6.5950  -14.6050   20.0584 C   0  0  0  0  0  0  0  0  0  0  0  0
    7.3277  -15.7939   20.5526 C   0  0  2  0  0  0  0  0  0  0  0  0
    6.5160  -16.8617   21.0605 N   0  0  0  0  0  0  0  0  0  0  0  0
    8.4191  -15.4825   21.4972 C   0  0  0  0  0  0  0  0  0  0  0  0
    9.4884  -14.9749   21.0609 O   0  0  0  0  0  0  0  0  0  0  0  0
    7.2026  -13.1984   15.6063 N   0  0  0  0  0  0  0  0  0  0  0  0
    8.3472  -15.7192   22.8896 C   0  0  0  0  0  0  0  0  0  0  0  0
    9.4215  -15.3294   23.7925 C   0  0  0  0  0  0  0  0  0  0  0  0
    8.9314  -15.5844   25.1767 O   0  0  0  0  0  0  0  0  0  0  0  0
    7.9132  -16.2384   25.4516 N   0  0  0  0  0  0  0  0  0  0  0  0
    9.7054  -15.0259   26.2522 C   0  0  1  0  0  0  0  0  0  0  0  0
    9.0470  -14.4032   27.3490 C   0  0  0  0  0  0  0  0  0  0  0  0
    9.9456  -13.9991   28.4594 C   0  0  0  0  0  0  0  0  0  0  0  0
   10.3643  -14.9984   29.4385 C   0  0  0  0  0  0  0  0  0  0  0  0
   11.1678  -16.1759   29.0180 C   0  0  0  0  0  0  0  0  0  0  0  0
   11.3952  -16.9942   30.3214 N   0  0  0  0  0  0  0  0  0  0  0  0
   12.0649  -18.2222   30.0229 C   0  0  0  0  0  0  0  0  0  0  0  0
    8.1851  -13.2888   26.8708 O   0  0  0  0  0  0  0  0  0  0  0  0
    7.1664  -12.7716   27.6482 O   0  0  0  0  0  0  0  0  0  0  0  0
  1  2  1  0
  2  3  2  0
  4  5  1  0
  4  2  1  0
  6  7  1  0
  6  5  1  0
  7  8  1  0
  8 10  1  0
  8  9  1  1
 10 12  1  0
 11 10  2  0
 12 13  1  0
 14 15  2  0
 14 13  1  0
 16 14  1  0
 17 23  1  0
 17 16  1  0
 17 18  1  1
 19 18  1  0
 20 19  1  0
 21 20  1  0
 21 22  1  0
 23 24  1  0
 25 23  2  0
M  END
$$$$
