RGK.pdb
     RDKit          3D

 25 24  0  0  1  0  0  0  0  0999 V2000
    9.9360  -13.9527   17.2177 N   0  0  0  0  0  0  0  0  0  0  0  0
   10.1286  -13.2659   18.4352 C   0  0  0  0  0  0  0  0  0  0  0  0
   11.2691  -13.1724   19.0268 N   0  0  0  0  0  0  0  0  0  0  0  0
    9.0399  -12.6240   19.0895 N   0  0  0  0  0  0  0  0  0  0  0  0
    7.6941  -12.9538   18.8042 C   0  0  0  0  0  0  0  0  0  0  0  0
    7.3481  -14.3986   18.9390 C   0  0  0  0  0  0  0  0  0  0  0  0
    7.3216  -14.8681   20.3405 C   0  0  0  0  0  0  0  0  0  0  0  0
    7.0104  -16.2951   20.5885 C   0  0  2  0  0  0  0  0  0  0  0  0
    5.6322  -16.6673   20.4510 N   0  0  0  0  0  0  0  0  0  0  0  0
    7.5632  -16.8243   21.8514 C   0  0  0  0  0  0  0  0  0  0  0  0
    6.8467  -16.8202   22.8897 O   0  0  0  0  0  0  0  0  0  0  0  0
   11.3284  -12.6001   19.8975 N   0  0  0  0  0  0  0  0  0  0  0  0
    8.8707  -17.3476   21.9809 C   0  0  0  0  0  0  0  0  0  0  0  0
    9.3496  -17.9201   23.2315 C   0  0  0  0  0  0  0  0  0  0  0  0
   10.5005  -17.0825   23.6731 O   0  0  0  0  0  0  0  0  0  0  0  0
   11.1690  -16.3557   22.9216 N   0  0  0  0  0  0  0  0  0  0  0  0
   10.8431  -17.1346   25.0687 C   0  0  1  0  0  0  0  0  0  0  0  0
   12.0373  -16.5125   25.5281 C   0  0  0  0  0  0  0  0  0  0  0  0
   12.0972  -16.3004   26.9961 C   0  0  0  0  0  0  0  0  0  0  0  0
   11.0941  -15.4542   27.6366 C   0  0  0  0  0  0  0  0  0  0  0  0
   11.0725  -15.2969   29.1143 C   0  0  0  0  0  0  0  0  0  0  0  0
    9.8673  -14.3558   29.4012 N   0  0  0  0  0  0  0  0  0  0  0  0
    9.7511  -14.1169   30.8066 C   0  0  0  0  0  0  0  0  0  0  0  0
   13.2301  -17.2282   25.0003 O   0  0  0  0  0  0  0  0  0  0  0  0
   14.4913  -16.6644   25.0347 O   0  0  0  0  0  0  0  0  0  0  0  0
  1  2  1  0
  2  3  2  0
  4  5  1  0
  4  2  1  0
  6  7  1  0
  6  5  1  0
  7  8  1  0
  8 10  1  0
  8  9  1  1
 10 12  1  0
 11 10  2  0
 12 13  1  0
 14 15  2  0
 14 13  1  0
 16 14  1  0
 17 23  1  0
 17 16  1  0
 17 18  1  1
 19 18  1  0
 20 19  1  0
 21 20  1  0
 21 22  1  0
 23 24  1  0
 25 23  2  0
M  END
$$$$
