RGK.pdb
     RDKit          3D

 25 24  0  0  1  0  0  0  0  0999 V2000
    7.9461  -15.2674   16.9888 N   0  0  0  0  0  0  0  0  0  0  0  0
    8.1889  -13.8796   17.0662 C   0  0  0  0  0  0  0  0  0  0  0  0
    8.2621  -13.1113   16.0348 N   0  0  0  0  0  0  0  0  0  0  0  0
    8.3712  -13.2412   18.3251 N   0  0  0  0  0  0  0  0  0  0  0  0
    7.4816  -13.4470   19.4056 C   0  0  0  0  0  0  0  0  0  0  0  0
    6.9275  -14.8270   19.5230 C   0  0  0  0  0  0  0  0  0  0  0  0
    7.1310  -15.4304   20.8572 C   0  0  0  0  0  0  0  0  0  0  0  0
    8.5210  -15.7043   21.2903 C   0  0  2  0  0  0  0  0  0  0  0  0
    9.2153  -16.7220   20.5560 N   0  0  0  0  0  0  0  0  0  0  0  0
    8.6697  -15.9249   22.7428 C   0  0  0  0  0  0  0  0  0  0  0  0
    8.1031  -15.1373   23.5490 O   0  0  0  0  0  0  0  0  0  0  0  0
    8.4809  -12.1020   16.1853 N   0  0  0  0  0  0  0  0  0  0  0  0
    9.4208  -16.9826   23.3060 C   0  0  0  0  0  0  0  0  0  0  0  0
    9.2721  -17.3737   24.7010 C   0  0  0  0  0  0  0  0  0  0  0  0
   10.1021  -16.4295   25.5014 O   0  0  0  0  0  0  0  0  0  0  0  0
   11.2169  -16.0080   25.1555 N   0  0  0  0  0  0  0  0  0  0  0  0
    9.5557  -15.9891   26.7566 C   0  0  1  0  0  0  0  0  0  0  0  0
   10.2672  -15.0424   27.5451 C   0  0  0  0  0  0  0  0  0  0  0  0
    9.4316  -13.9465   28.0967 C   0  0  0  0  0  0  0  0  0  0  0  0
    8.6118  -13.1481   27.1895 C   0  0  0  0  0  0  0  0  0  0  0  0
    7.1940  -12.8489   27.5202 C   0  0  0  0  0  0  0  0  0  0  0  0
    6.6746  -11.9941   26.3285 N   0  0  0  0  0  0  0  0  0  0  0  0
    5.3009  -11.6501   26.5294 C   0  0  0  0  0  0  0  0  0  0  0  0
   11.0696  -15.7361   28.5884 O   0  0  0  0  0  0  0  0  0  0  0  0
   11.9779  -15.0577   29.3787 O   0  0  0  0  0  0  0  0  0  0  0  0
  1  2  1  0
  2  3  2  0
  4  5  1  0
  4  2  1  0
  6  7  1  0
  6  5  1  0
  7  8  1  0
  8 10  1  0
  8  9  1  6
 10 12  1  0
 11 10  2  0
 12 13  1  0
 14 15  2  0
 14 13  1  0
 16 14  1  0
 17 23  1  0
 17 16  1  0
 17 18  1  1
 19 18  1  0
 20 19  1  0
 21 20  1  0
 21 22  1  0
 23 24  1  0
 25 23  2  0
M  END
$$$$
