RGK.pdb
     RDKit          3D

 25 24  0  0  1  0  0  0  0  0999 V2000
    3.2523  -23.4481   22.2415 N   0  0  0  0  0  0  0  0  0  0  0  0
    3.2191  -24.2879   21.1081 C   0  0  0  0  0  0  0  0  0  0  0  0
    2.1706  -24.9352   20.7325 N   0  0  0  0  0  0  0  0  0  0  0  0
    4.3770  -24.4673   20.3004 N   0  0  0  0  0  0  0  0  0  0  0  0
    5.5375  -23.6758   20.4676 C   0  0  0  0  0  0  0  0  0  0  0  0
    5.6587  -22.5153   19.5381 C   0  0  0  0  0  0  0  0  0  0  0  0
    6.9525  -21.8084   19.6462 C   0  0  0  0  0  0  0  0  0  0  0  0
    6.9421  -20.4152   20.1499 C   0  0  2  0  0  0  0  0  0  0  0  0
    7.5422  -19.4358   19.2912 N   0  0  0  0  0  0  0  0  0  0  0  0
    7.4451  -20.2673   21.5303 C   0  0  0  0  0  0  0  0  0  0  0  0
    6.7507  -20.6989   22.4911 O   0  0  0  0  0  0  0  0  0  0  0  0
    2.2561  -25.5858   19.9210 N   0  0  0  0  0  0  0  0  0  0  0  0
    8.6802  -19.6612   21.8580 C   0  0  0  0  0  0  0  0  0  0  0  0
    9.1634  -19.5929   23.2302 C   0  0  0  0  0  0  0  0  0  0  0  0
    9.8848  -18.2959   23.3662 O   0  0  0  0  0  0  0  0  0  0  0  0
   10.1585  -17.5421   22.4192 N   0  0  0  0  0  0  0  0  0  0  0  0
   10.2819  -17.9105   24.6935 C   0  0  1  0  0  0  0  0  0  0  0  0
   11.0938  -16.7576   24.8826 C   0  0  0  0  0  0  0  0  0  0  0  0
   11.2457  -16.3352   26.2976 C   0  0  0  0  0  0  0  0  0  0  0  0
   10.3466  -15.3204   26.8400 C   0  0  0  0  0  0  0  0  0  0  0  0
   10.4247  -14.9315   28.2724 C   0  0  0  0  0  0  0  0  0  0  0  0
    9.2686  -13.9105   28.4759 N   0  0  0  0  0  0  0  0  0  0  0  0
    9.2379  -13.4636   29.8342 C   0  0  0  0  0  0  0  0  0  0  0  0
   12.3988  -16.9234   24.1877 O   0  0  0  0  0  0  0  0  0  0  0  0
   12.9532  -18.1701   23.9683 O   0  0  0  0  0  0  0  0  0  0  0  0
  1  2  1  0
  2  3  2  0
  4  5  1  0
  4  2  1  0
  6  7  1  0
  6  5  1  0
  7  8  1  0
  8 10  1  0
  8  9  1  6
 10 12  1  0
 11 10  2  0
 12 13  1  0
 14 15  2  0
 14 13  1  0
 16 14  1  0
 17 23  1  0
 17 16  1  0
 17 18  1  6
 19 18  1  0
 20 19  1  0
 21 20  1  0
 21 22  1  0
 23 24  1  0
 25 23  2  0
M  END
$$$$
