RGK.pdb
     RDKit          3D

 25 24  0  0  1  0  0  0  0  0999 V2000
    6.8836  -13.9296   19.4816 N   0  0  0  0  0  0  0  0  0  0  0  0
    7.4737  -12.7800   20.0484 C   0  0  0  0  0  0  0  0  0  0  0  0
    6.8817  -12.0277   20.9103 N   0  0  0  0  0  0  0  0  0  0  0  0
    8.7909  -12.3828   19.6845 N   0  0  0  0  0  0  0  0  0  0  0  0
    9.5176  -13.0412   18.6648 C   0  0  0  0  0  0  0  0  0  0  0  0
    9.0362  -14.4102   18.3194 C   0  0  0  0  0  0  0  0  0  0  0  0
    9.8566  -15.0786   17.2871 C   0  0  0  0  0  0  0  0  0  0  0  0
   10.9465  -15.9742   17.7394 C   0  0  2  0  0  0  0  0  0  0  0  0
   10.9233  -16.3353   19.1272 N   0  0  0  0  0  0  0  0  0  0  0  0
   12.2982  -15.5290   17.3456 C   0  0  0  0  0  0  0  0  0  0  0  0
   12.4958  -15.1189   16.1691 O   0  0  0  0  0  0  0  0  0  0  0  0
    7.3602  -11.1504   21.2114 N   0  0  0  0  0  0  0  0  0  0  0  0
   13.4128  -15.5303   18.2162 C   0  0  0  0  0  0  0  0  0  0  0  0
   14.0699  -14.2969   18.6261 C   0  0  0  0  0  0  0  0  0  0  0  0
   14.4383  -14.4642   20.0605 O   0  0  0  0  0  0  0  0  0  0  0  0
   15.1063  -13.6474   20.7137 N   0  0  0  0  0  0  0  0  0  0  0  0
   13.9787  -15.6603   20.7132 C   0  0  1  0  0  0  0  0  0  0  0  0
   14.1354  -15.8038   22.1200 C   0  0  0  0  0  0  0  0  0  0  0  0
   13.0177  -16.5084   22.7967 C   0  0  0  0  0  0  0  0  0  0  0  0
   13.1552  -16.8806   24.2020 C   0  0  0  0  0  0  0  0  0  0  0  0
   12.0497  -17.5784   24.9090 C   0  0  0  0  0  0  0  0  0  0  0  0
   12.5576  -17.7621   26.3681 N   0  0  0  0  0  0  0  0  0  0  0  0
   11.5528  -18.3959   27.1645 C   0  0  0  0  0  0  0  0  0  0  0  0
   15.4639  -16.3946   22.4355 O   0  0  0  0  0  0  0  0  0  0  0  0
   16.1324  -17.2041   21.5369 O   0  0  0  0  0  0  0  0  0  0  0  0
  1  2  1  0
  2  3  2  0
  4  5  1  0
  4  2  1  0
  6  7  1  0
  6  5  1  0
  7  8  1  0
  8 10  1  0
  8  9  1  1
 10 12  1  0
 11 10  2  0
 12 13  1  0
 14 15  2  0
 14 13  1  0
 16 14  1  0
 17 23  1  0
 17 16  1  0
 17 18  1  1
 19 18  1  0
 20 19  1  0
 21 20  1  0
 21 22  1  0
 23 24  1  0
 25 23  2  0
M  END
$$$$
