RGK.pdb
     RDKit          3D

 25 24  0  0  1  0  0  0  0  0999 V2000
    8.1984  -12.8062   12.9974 N   0  0  0  0  0  0  0  0  0  0  0  0
    8.0998  -14.1563   13.3955 C   0  0  0  0  0  0  0  0  0  0  0  0
    7.2581  -14.9885   12.8871 N   0  0  0  0  0  0  0  0  0  0  0  0
    8.9503  -14.6808   14.4090 N   0  0  0  0  0  0  0  0  0  0  0  0
    8.9564  -14.1617   15.7250 C   0  0  0  0  0  0  0  0  0  0  0  0
    7.6175  -14.0463   16.3725 C   0  0  0  0  0  0  0  0  0  0  0  0
    7.6797  -13.5667   17.7694 C   0  0  0  0  0  0  0  0  0  0  0  0
    8.7712  -14.0779   18.6307 C   0  0  2  0  0  0  0  0  0  0  0  0
    9.7358  -14.9193   17.9837 N   0  0  0  0  0  0  0  0  0  0  0  0
    8.3094  -14.6972   19.8891 C   0  0  0  0  0  0  0  0  0  0  0  0
    7.3861  -14.1446   20.5478 O   0  0  0  0  0  0  0  0  0  0  0  0
    7.2170  -15.9533   13.2830 N   0  0  0  0  0  0  0  0  0  0  0  0
    8.8425  -15.8948   20.4198 C   0  0  0  0  0  0  0  0  0  0  0  0
    8.3026  -16.5095   21.6247 C   0  0  0  0  0  0  0  0  0  0  0  0
    8.8734  -15.7610   22.7801 O   0  0  0  0  0  0  0  0  0  0  0  0
    9.8442  -14.9913   22.7074 N   0  0  0  0  0  0  0  0  0  0  0  0
    8.2418  -15.9582   24.0568 C   0  0  1  0  0  0  0  0  0  0  0  0
    8.3788  -14.9730   25.0740 C   0  0  0  0  0  0  0  0  0  0  0  0
    7.1492  -14.1846   25.3390 C   0  0  0  0  0  0  0  0  0  0  0  0
    7.1725  -13.1507   26.3700 C   0  0  0  0  0  0  0  0  0  0  0  0
    5.9901  -12.2773   26.5891 C   0  0  0  0  0  0  0  0  0  0  0  0
    6.3885  -11.3501   27.7732 N   0  0  0  0  0  0  0  0  0  0  0  0
    5.2900  -10.5071   28.1314 C   0  0  0  0  0  0  0  0  0  0  0  0
    8.9524  -15.5772   26.3065 O   0  0  0  0  0  0  0  0  0  0  0  0
    9.0392  -16.9463   26.4734 O   0  0  0  0  0  0  0  0  0  0  0  0
  1  2  1  0
  2  3  2  0
  4  5  1  0
  4  2  1  0
  6  7  1  0
  6  5  1  0
  7  8  1  0
  8 10  1  0
  8  9  1  6
 10 12  1  0
 11 10  2  0
 12 13  1  0
 14 15  2  0
 14 13  1  0
 16 14  1  0
 17 23  1  0
 17 16  1  0
 17 18  1  1
 19 18  1  0
 20 19  1  0
 21 20  1  0
 21 22  1  0
 23 24  1  0
 25 23  2  0
M  END
$$$$
