RGK.pdb
     RDKit          3D

 25 24  0  0  1  0  0  0  0  0999 V2000
    5.0117  -22.4413   18.0243 N   0  0  0  0  0  0  0  0  0  0  0  0
    5.9608  -23.1092   18.8269 C   0  0  0  0  0  0  0  0  0  0  0  0
    7.0996  -23.5216   18.3881 N   0  0  0  0  0  0  0  0  0  0  0  0
    5.6988  -23.3685   20.2015 N   0  0  0  0  0  0  0  0  0  0  0  0
    5.8284  -22.3662   21.1914 C   0  0  0  0  0  0  0  0  0  0  0  0
    4.7350  -21.3518   21.2204 C   0  0  0  0  0  0  0  0  0  0  0  0
    4.9195  -20.3185   22.2613 C   0  0  0  0  0  0  0  0  0  0  0  0
    6.2656  -19.7187   22.4128 C   0  0  2  0  0  0  0  0  0  0  0  0
    7.0748  -20.2575   23.4673 N   0  0  0  0  0  0  0  0  0  0  0  0
    6.2681  -18.2429   22.4646 C   0  0  0  0  0  0  0  0  0  0  0  0
    5.3536  -17.6448   23.0951 O   0  0  0  0  0  0  0  0  0  0  0  0
    7.7346  -24.0169   19.0519 N   0  0  0  0  0  0  0  0  0  0  0  0
    7.2473  -17.4345   21.8419 C   0  0  0  0  0  0  0  0  0  0  0  0
    7.2692  -15.9878   22.0079 C   0  0  0  0  0  0  0  0  0  0  0  0
    8.4416  -15.6736   22.8726 O   0  0  0  0  0  0  0  0  0  0  0  0
    9.6001  -15.5185   22.4555 N   0  0  0  0  0  0  0  0  0  0  0  0
    8.1919  -15.5456   24.2830 C   0  0  1  0  0  0  0  0  0  0  0  0
    9.2612  -15.2245   25.1648 C   0  0  0  0  0  0  0  0  0  0  0  0
    8.8370  -14.8358   26.5332 C   0  0  0  0  0  0  0  0  0  0  0  0
    9.8538  -14.5437   27.5399 C   0  0  0  0  0  0  0  0  0  0  0  0
    9.4599  -14.1720   28.9239 C   0  0  0  0  0  0  0  0  0  0  0  0
   10.8012  -13.9089   29.6671 N   0  0  0  0  0  0  0  0  0  0  0  0
   10.5466  -13.4389   30.9938 C   0  0  0  0  0  0  0  0  0  0  0  0
   10.2776  -16.3110   25.1637 O   0  0  0  0  0  0  0  0  0  0  0  0
    9.9172  -17.6447   25.1298 O   0  0  0  0  0  0  0  0  0  0  0  0
  1  2  1  0
  2  3  2  0
  4  5  1  0
  4  2  1  0
  6  7  1  0
  6  5  1  0
  7  8  1  0
  8 10  1  0
  8  9  1  1
 10 12  1  0
 11 10  2  0
 12 13  1  0
 14 15  2  0
 14 13  1  0
 16 14  1  0
 17 23  1  0
 17 16  1  0
 17 18  1  1
 19 18  1  0
 20 19  1  0
 21 20  1  0
 21 22  1  0
 23 24  1  0
 25 23  2  0
M  END
$$$$
