RGK.pdb
     RDKit          3D

 25 24  0  0  1  0  0  0  0  0999 V2000
    8.3356  -14.0246   16.7455 N   0  0  0  0  0  0  0  0  0  0  0  0
    9.0269  -13.3551   17.7775 C   0  0  0  0  0  0  0  0  0  0  0  0
   10.2943  -13.1256   17.7526 N   0  0  0  0  0  0  0  0  0  0  0  0
    8.3378  -12.8871   18.9314 N   0  0  0  0  0  0  0  0  0  0  0  0
    7.1531  -13.5034   19.3982 C   0  0  0  0  0  0  0  0  0  0  0  0
    7.2283  -14.9831   19.5717 C   0  0  0  0  0  0  0  0  0  0  0  0
    7.0431  -15.4208   20.9715 C   0  0  0  0  0  0  0  0  0  0  0  0
    8.2512  -15.7658   21.7563 C   0  0  2  0  0  0  0  0  0  0  0  0
    9.0617  -16.8224   21.2238 N   0  0  0  0  0  0  0  0  0  0  0  0
    7.9961  -15.9868   23.1939 C   0  0  0  0  0  0  0  0  0  0  0  0
    7.2433  -15.1898   23.8179 O   0  0  0  0  0  0  0  0  0  0  0  0
   10.7129  -12.5802   18.5377 N   0  0  0  0  0  0  0  0  0  0  0  0
    8.5500  -17.0550   23.9371 C   0  0  0  0  0  0  0  0  0  0  0  0
    8.2838  -17.2218   25.3592 C   0  0  0  0  0  0  0  0  0  0  0  0
    9.4322  -16.6087   26.0847 O   0  0  0  0  0  0  0  0  0  0  0  0
   10.4226  -16.1043   25.5329 N   0  0  0  0  0  0  0  0  0  0  0  0
    9.3685  -16.6123   27.5213 C   0  0  1  0  0  0  0  0  0  0  0  0
    9.8367  -15.4858   28.2534 C   0  0  0  0  0  0  0  0  0  0  0  0
    8.8611  -14.3723   28.3630 C   0  0  0  0  0  0  0  0  0  0  0  0
    8.2390  -13.8465   27.1509 C   0  0  0  0  0  0  0  0  0  0  0  0
    7.2680  -12.7239   27.2277 C   0  0  0  0  0  0  0  0  0  0  0  0
    6.9159  -12.3944   25.7486 N   0  0  0  0  0  0  0  0  0  0  0  0
    5.9860  -11.3092   25.6924 C   0  0  0  0  0  0  0  0  0  0  0  0
   10.3742  -15.9127   29.5733 O   0  0  0  0  0  0  0  0  0  0  0  0
   11.1041  -15.0548   30.3739 O   0  0  0  0  0  0  0  0  0  0  0  0
  1  2  1  0
  2  3  2  0
  4  5  1  0
  4  2  1  0
  6  7  1  0
  6  5  1  0
  7  8  1  0
  8 10  1  0
  8  9  1  6
 10 12  1  0
 11 10  2  0
 12 13  1  0
 14 15  2  0
 14 13  1  0
 16 14  1  0
 17 23  1  0
 17 16  1  0
 17 18  1  1
 19 18  1  0
 20 19  1  0
 21 20  1  0
 21 22  1  0
 23 24  1  0
 25 23  2  0
M  END
$$$$
