RGK.pdb
     RDKit          3D

 25 24  0  0  1  0  0  0  0  0999 V2000
    7.2629  -12.7040   18.4203 N   0  0  0  0  0  0  0  0  0  0  0  0
    8.4965  -13.0126   19.0319 C   0  0  0  0  0  0  0  0  0  0  0  0
    9.1824  -12.1651   19.7179 N   0  0  0  0  0  0  0  0  0  0  0  0
    9.0610  -14.3140   18.9170 N   0  0  0  0  0  0  0  0  0  0  0  0
    8.3872  -15.4672   19.3834 C   0  0  0  0  0  0  0  0  0  0  0  0
    7.1315  -15.2087   20.1461 C   0  0  0  0  0  0  0  0  0  0  0  0
    6.5067  -16.4363   20.6828 C   0  0  0  0  0  0  0  0  0  0  0  0
    7.3636  -17.3758   21.4428 C   0  0  2  0  0  0  0  0  0  0  0  0
    7.6546  -18.6210   20.7934 N   0  0  0  0  0  0  0  0  0  0  0  0
    6.9204  -17.6105   22.8317 C   0  0  0  0  0  0  0  0  0  0  0  0
    5.7309  -17.9701   23.0487 O   0  0  0  0  0  0  0  0  0  0  0  0
   10.1021  -12.4716   20.1045 N   0  0  0  0  0  0  0  0  0  0  0  0
    7.7564  -17.4565   23.9620 C   0  0  0  0  0  0  0  0  0  0  0  0
    7.2566  -17.6348   25.3183 C   0  0  0  0  0  0  0  0  0  0  0  0
    8.3802  -17.2958   26.2368 O   0  0  0  0  0  0  0  0  0  0  0  0
    9.4171  -17.9671   26.3553 N   0  0  0  0  0  0  0  0  0  0  0  0
    8.2327  -16.1059   27.0308 C   0  0  1  0  0  0  0  0  0  0  0  0
    9.3845  -15.3650   27.4163 C   0  0  0  0  0  0  0  0  0  0  0  0
    9.1317  -13.9271   27.6851 C   0  0  0  0  0  0  0  0  0  0  0  0
    8.5004  -13.1084   26.6537 C   0  0  0  0  0  0  0  0  0  0  0  0
    7.4640  -12.1064   27.0157 C   0  0  0  0  0  0  0  0  0  0  0  0
    7.0776  -11.4238   25.6721 N   0  0  0  0  0  0  0  0  0  0  0  0
    6.1580  -10.3541   25.9084 C   0  0  0  0  0  0  0  0  0  0  0  0
   10.0871  -16.0457   28.5372 O   0  0  0  0  0  0  0  0  0  0  0  0
   11.3577  -15.6732   28.9329 O   0  0  0  0  0  0  0  0  0  0  0  0
  1  2  1  0
  2  3  2  0
  4  5  1  0
  4  2  1  0
  6  7  1  0
  6  5  1  0
  7  8  1  0
  8 10  1  0
  8  9  1  6
 10 12  1  0
 11 10  2  0
 12 13  1  0
 14 15  2  0
 14 13  1  0
 16 14  1  0
 17 23  1  0
 17 16  1  0
 17 18  1  1
 19 18  1  0
 20 19  1  0
 21 20  1  0
 21 22  1  0
 23 24  1  0
 25 23  2  0
M  END
$$$$
