RGK.pdb
     RDKit          3D

 25 24  0  0  1  0  0  0  0  0999 V2000
    9.7364  -15.2212   15.3856 N   0  0  0  0  0  0  0  0  0  0  0  0
    8.6253  -14.4959   14.9055 C   0  0  0  0  0  0  0  0  0  0  0  0
    7.9978  -14.7912   13.8199 N   0  0  0  0  0  0  0  0  0  0  0  0
    8.1287  -13.3682   15.6177 N   0  0  0  0  0  0  0  0  0  0  0  0
    8.5717  -13.0518   16.9234 C   0  0  0  0  0  0  0  0  0  0  0  0
    7.7201  -13.5744   18.0311 C   0  0  0  0  0  0  0  0  0  0  0  0
    8.0496  -14.9617   18.4212 C   0  0  0  0  0  0  0  0  0  0  0  0
    9.1813  -15.1701   19.3541 C   0  0  2  0  0  0  0  0  0  0  0  0
   10.2993  -15.8981   18.8276 N   0  0  0  0  0  0  0  0  0  0  0  0
    8.7884  -15.7111   20.6707 C   0  0  0  0  0  0  0  0  0  0  0  0
    7.7992  -15.2122   21.2740 O   0  0  0  0  0  0  0  0  0  0  0  0
    7.1319  -14.2565   13.5888 N   0  0  0  0  0  0  0  0  0  0  0  0
    9.4597  -16.7746   21.3175 C   0  0  0  0  0  0  0  0  0  0  0  0
    9.0154  -17.2962   22.6027 C   0  0  0  0  0  0  0  0  0  0  0  0
    9.2947  -16.2378   23.6141 O   0  0  0  0  0  0  0  0  0  0  0  0
   10.2223  -15.4173   23.5340 N   0  0  0  0  0  0  0  0  0  0  0  0
    8.4179  -16.1807   24.7526 C   0  0  1  0  0  0  0  0  0  0  0  0
    8.5172  -15.0968   25.6687 C   0  0  0  0  0  0  0  0  0  0  0  0
    7.2821  -14.2835   25.7985 C   0  0  0  0  0  0  0  0  0  0  0  0
    7.2570  -13.1692   26.7420 C   0  0  0  0  0  0  0  0  0  0  0  0
    6.0177  -12.3716   26.9344 C   0  0  0  0  0  0  0  0  0  0  0  0
    6.4043  -11.2688   27.9614 N   0  0  0  0  0  0  0  0  0  0  0  0
    5.2657  -10.4597   28.2690 C   0  0  0  0  0  0  0  0  0  0  0  0
    9.0339  -15.5726   26.9802 O   0  0  0  0  0  0  0  0  0  0  0  0
    9.5626  -14.7015   27.9136 O   0  0  0  0  0  0  0  0  0  0  0  0
  1  2  1  0
  2  3  2  0
  4  5  1  0
  4  2  1  0
  6  7  1  0
  6  5  1  0
  7  8  1  0
  8 10  1  0
  8  9  1  6
 10 12  1  0
 11 10  2  0
 12 13  1  0
 14 15  2  0
 14 13  1  0
 16 14  1  0
 17 23  1  0
 17 16  1  0
 17 18  1  1
 19 18  1  0
 20 19  1  0
 21 20  1  0
 21 22  1  0
 23 24  1  0
 25 23  2  0
M  END
$$$$
