GMT.pdb
     RDKit          3D

 20 19  0  0  1  0  0  0  0  0999 V2000
   18.2412  -12.3938  -18.5980 N   0  0  0  0  0  0  0  0  0  0  0  0
   18.8566  -11.1254  -18.8563 C   0  0  0  0  0  0  0  0  0  0  0  0
   18.9502  -10.3593  -17.5905 C   0  0  0  0  0  0  0  0  0  0  0  0
   17.9322  -10.2407  -16.8617 O   0  0  0  0  0  0  0  0  0  0  0  0
   21.7365   -8.3411  -11.2926 C   0  0  0  0  0  0  0  0  0  0  0  0
   21.5269   -9.3131  -12.8154 S   0  0  0  0  0  0  0  0  0  0  0  0
   21.9000   -8.2821  -14.2377 C   0  0  0  0  0  0  0  0  0  0  0  0
   21.7865   -9.0422  -15.5495 C   0  0  0  0  0  0  0  0  0  0  0  0
   20.3568   -8.9731  -16.0303 C   0  0  2  0  0  0  0  0  0  0  0  0
   20.1937   -9.7676  -17.2178 N   0  0  0  0  0  0  0  0  0  0  0  0
   19.9718   -7.5457  -16.3345 C   0  0  0  0  0  0  0  0  0  0  0  0
   20.4319   -6.9643  -17.3457 O   0  0  0  0  0  0  0  0  0  0  0  0
   17.0366   -3.6868  -15.1203 C   0  0  0  0  0  0  0  0  0  0  0  0
   17.3625   -5.1472  -14.9527 C   0  0  1  0  0  0  0  0  0  0  0  0
   16.3315   -5.9756  -15.3498 O   0  0  0  0  0  0  0  0  0  0  0  0
   18.6731   -5.4824  -15.5846 C   0  0  2  0  0  0  0  0  0  0  0  0
   19.0858   -6.8383  -15.4853 N   0  0  0  0  0  0  0  0  0  0  0  0
   19.7142   -4.4651  -15.2772 C   0  0  0  0  0  0  0  0  0  0  0  0
   19.7309   -3.3866  -15.9136 O   0  0  0  0  0  0  0  0  0  0  0  0
   20.6554   -4.6924  -14.3127 O   0  0  0  0  0  0  0  0  0  0  0  0
  2  3  1  0
  2  1  1  0
  3 10  1  0
  4  3  2  0
  5  6  1  0
  7  6  1  0
  8  7  1  0
  9  8  1  6
  9 11  1  0
 10  9  1  0
 11 17  1  0
 11 12  2  0
 14 16  1  0
 14 13  1  6
 15 14  1  0
 16 18  1  0
 16 17  1  1
 18 20  1  0
 19 18  2  0
M  END
$$$$
