GMT.pdb
     RDKit          3D

 20 19  0  0  1  0  0  0  0  0999 V2000
   28.6226  -21.7228  -15.2441 N   0  0  0  0  0  0  0  0  0  0  0  0
   28.2041  -20.7622  -14.2662 C   0  0  0  0  0  0  0  0  0  0  0  0
   26.9767  -21.2510  -13.5933 C   0  0  0  0  0  0  0  0  0  0  0  0
   26.2528  -22.1035  -14.1685 O   0  0  0  0  0  0  0  0  0  0  0  0
   26.7986  -18.9824   -7.6821 C   0  0  0  0  0  0  0  0  0  0  0  0
   26.6833  -20.7961   -7.7529 S   0  0  0  0  0  0  0  0  0  0  0  0
   26.5465  -21.3192   -9.4654 C   0  0  0  0  0  0  0  0  0  0  0  0
   25.4393  -20.5879  -10.2076 C   0  0  0  0  0  0  0  0  0  0  0  0
   25.4047  -21.0772  -11.6356 C   0  0  2  0  0  0  0  0  0  0  0  0
   26.6347  -20.7469  -12.3033 N   0  0  0  0  0  0  0  0  0  0  0  0
   24.2535  -20.4465  -12.3807 C   0  0  0  0  0  0  0  0  0  0  0  0
   24.2932  -19.2363  -12.7065 O   0  0  0  0  0  0  0  0  0  0  0  0
   20.6602  -21.0116  -15.5929 C   0  0  0  0  0  0  0  0  0  0  0  0
   21.8738  -21.4988  -14.8464 C   0  0  1  0  0  0  0  0  0  0  0  0
   23.0254  -21.4525  -15.6070 O   0  0  0  0  0  0  0  0  0  0  0  0
   22.0041  -20.8147  -13.5257 C   0  0  2  0  0  0  0  0  0  0  0  0
   23.1099  -21.2081  -12.7249 N   0  0  0  0  0  0  0  0  0  0  0  0
   20.6979  -20.7147  -12.8207 C   0  0  0  0  0  0  0  0  0  0  0  0
   20.4654  -21.4610  -11.8422 O   0  0  0  0  0  0  0  0  0  0  0  0
   19.7460  -19.8227  -13.2283 O   0  0  0  0  0  0  0  0  0  0  0  0
  2  3  1  0
  2  1  1  0
  3 10  1  0
  4  3  2  0
  5  6  1  0
  7  6  1  0
  8  7  1  0
  9  8  1  1
  9 11  1  0
 10  9  1  0
 11 17  1  0
 11 12  2  0
 14 16  1  0
 14 13  1  6
 15 14  1  0
 16 18  1  0
 16 17  1  1
 18 20  1  0
 19 18  2  0
M  END
$$$$
