GMT.pdb
     RDKit          3D

 20 19  0  0  1  0  0  0  0  0999 V2000
   28.3839  -22.6895  -16.3528 N   0  0  0  0  0  0  0  0  0  0  0  0
   28.0893  -21.4401  -15.7153 C   0  0  0  0  0  0  0  0  0  0  0  0
   26.9678  -21.6279  -14.7641 C   0  0  0  0  0  0  0  0  0  0  0  0
   26.0992  -22.5072  -14.9965 O   0  0  0  0  0  0  0  0  0  0  0  0
   23.5934  -21.5933   -8.2989 C   0  0  0  0  0  0  0  0  0  0  0  0
   25.0110  -21.5721   -9.4381 S   0  0  0  0  0  0  0  0  0  0  0  0
   24.8992  -20.1309  -10.5036 C   0  0  0  0  0  0  0  0  0  0  0  0
   26.0755  -20.0260  -11.4611 C   0  0  0  0  0  0  0  0  0  0  0  0
   25.7663  -20.8288  -12.7020 C   0  0  2  0  0  0  0  0  0  0  0  0
   26.8900  -20.8080  -13.5991 N   0  0  0  0  0  0  0  0  0  0  0  0
   24.5593  -20.2618  -13.4091 C   0  0  0  0  0  0  0  0  0  0  0  0
   24.5781  -19.0926  -13.8618 O   0  0  0  0  0  0  0  0  0  0  0  0
   20.4918  -21.0040  -15.9992 C   0  0  0  0  0  0  0  0  0  0  0  0
   21.7440  -21.5359  -15.3541 C   0  0  1  0  0  0  0  0  0  0  0  0
   22.7500  -21.7901  -16.2653 O   0  0  0  0  0  0  0  0  0  0  0  0
   22.1746  -20.6683  -14.2178 C   0  0  2  0  0  0  0  0  0  0  0  0
   23.3860  -21.0380  -13.5739 N   0  0  0  0  0  0  0  0  0  0  0  0
   21.0402  -20.3295  -13.3168 C   0  0  0  0  0  0  0  0  0  0  0  0
   20.8132  -21.0444  -12.3139 O   0  0  0  0  0  0  0  0  0  0  0  0
   20.2396  -19.2513  -13.5703 O   0  0  0  0  0  0  0  0  0  0  0  0
  2  3  1  0
  2  1  1  0
  3 10  1  0
  4  3  2  0
  5  6  1  0
  7  6  1  0
  8  7  1  0
  9  8  1  1
  9 11  1  0
 10  9  1  0
 11 17  1  0
 11 12  2  0
 14 16  1  0
 14 13  1  6
 15 14  1  0
 16 18  1  0
 16 17  1  1
 18 20  1  0
 19 18  2  0
M  END
$$$$
