GMT.pdb
     RDKit          3D

 20 19  0  0  1  0  0  0  0  0999 V2000
   20.1889  -13.6482  -21.0385 N   0  0  0  0  0  0  0  0  0  0  0  0
   19.8025  -12.2855  -20.8198 C   0  0  0  0  0  0  0  0  0  0  0  0
   20.1266  -11.9023  -19.4247 C   0  0  0  0  0  0  0  0  0  0  0  0
   19.2115  -11.8708  -18.5627 O   0  0  0  0  0  0  0  0  0  0  0  0
   24.2125  -14.1952  -14.6853 C   0  0  0  0  0  0  0  0  0  0  0  0
   22.9465  -12.9213  -14.9719 S   0  0  0  0  0  0  0  0  0  0  0  0
   23.6242  -11.6317  -16.0220 C   0  0  0  0  0  0  0  0  0  0  0  0
   23.2717  -11.8332  -17.4871 C   0  0  0  0  0  0  0  0  0  0  0  0
   21.8864  -11.2857  -17.7345 C   0  0  2  0  0  0  0  0  0  0  0  0
   21.4718  -11.5744  -19.0808 N   0  0  0  0  0  0  0  0  0  0  0  0
   21.8646   -9.7916  -17.5208 C   0  0  0  0  0  0  0  0  0  0  0  0
   22.5191   -9.0317  -18.2734 O   0  0  0  0  0  0  0  0  0  0  0  0
   19.2397   -7.4049  -17.9022 C   0  0  0  0  0  0  0  0  0  0  0  0
   19.5892   -7.2697  -16.4438 C   0  0  1  0  0  0  0  0  0  0  0  0
   18.5976   -7.7449  -15.6086 O   0  0  0  0  0  0  0  0  0  0  0  0
   20.9365   -7.8460  -16.1573 C   0  0  2  0  0  0  0  0  0  0  0  0
   21.1064   -9.2218  -16.4687 N   0  0  0  0  0  0  0  0  0  0  0  0
   21.4547   -7.4140  -14.8313 C   0  0  0  0  0  0  0  0  0  0  0  0
   21.7683   -8.2771  -13.9797 O   0  0  0  0  0  0  0  0  0  0  0  0
   21.5895   -6.0884  -14.5276 O   0  0  0  0  0  0  0  0  0  0  0  0
  2  3  1  0
  2  1  1  0
  3 10  1  0
  4  3  2  0
  5  6  1  0
  7  6  1  0
  8  7  1  0
  9  8  1  6
  9 11  1  0
 10  9  1  0
 11 17  1  0
 11 12  2  0
 14 16  1  0
 14 13  1  6
 15 14  1  0
 16 18  1  0
 16 17  1  1
 18 20  1  0
 19 18  2  0
M  END
$$$$
