GMT.pdb
     RDKit          3D

 20 19  0  0  1  0  0  0  0  0999 V2000
   21.6422  -21.7300   -7.2989 N   0  0  0  0  0  0  0  0  0  0  0  0
   23.0214  -22.0150   -7.0326 C   0  0  0  0  0  0  0  0  0  0  0  0
   23.8736  -21.1471   -7.8803 C   0  0  0  0  0  0  0  0  0  0  0  0
   23.3440  -20.4548   -8.7869 O   0  0  0  0  0  0  0  0  0  0  0  0
   28.3794  -19.8960   -3.8407 C   0  0  0  0  0  0  0  0  0  0  0  0
   28.6877  -19.1078   -5.4505 S   0  0  0  0  0  0  0  0  0  0  0  0
   27.2282  -19.2704   -6.4841 C   0  0  0  0  0  0  0  0  0  0  0  0
   27.4855  -20.1172   -7.7202 C   0  0  0  0  0  0  0  0  0  0  0  0
   26.1805  -20.3194   -8.4523 C   0  0  2  0  0  0  0  0  0  0  0  0
   25.2819  -21.1102   -7.6554 N   0  0  0  0  0  0  0  0  0  0  0  0
   26.4179  -21.0182   -9.7690 C   0  0  0  0  0  0  0  0  0  0  0  0
   26.9243  -22.1649   -9.7985 O   0  0  0  0  0  0  0  0  0  0  0  0
   23.9058  -21.9246  -12.5282 C   0  0  0  0  0  0  0  0  0  0  0  0
   24.8928  -20.9388  -13.0950 C   0  0  1  0  0  0  0  0  0  0  0  0
   24.3500  -19.6824  -13.2792 O   0  0  0  0  0  0  0  0  0  0  0  0
   26.1597  -20.9304  -12.3050 C   0  0  2  0  0  0  0  0  0  0  0  0
   26.0740  -20.3930  -10.9926 N   0  0  0  0  0  0  0  0  0  0  0  0
   27.3180  -20.4710  -13.1179 C   0  0  0  0  0  0  0  0  0  0  0  0
   27.9772  -19.4735  -12.7452 O   0  0  0  0  0  0  0  0  0  0  0  0
   27.6705  -21.1196  -14.2680 O   0  0  0  0  0  0  0  0  0  0  0  0
  2  3  1  0
  2  1  1  0
  3 10  1  0
  4  3  2  0
  5  6  1  0
  7  6  1  0
  8  7  1  0
  9  8  1  1
  9 11  1  0
 10  9  1  0
 11 17  1  0
 11 12  2  0
 14 16  1  0
 14 13  1  1
 15 14  1  0
 16 18  1  0
 16 17  1  1
 18 20  1  0
 19 18  2  0
M  END
$$$$
