GMT.pdb
     RDKit          3D

 20 19  0  0  1  0  0  0  0  0999 V2000
   22.7331  -12.3867  -20.3835 N   0  0  0  0  0  0  0  0  0  0  0  0
   22.3249  -11.0137  -20.3348 C   0  0  0  0  0  0  0  0  0  0  0  0
   22.3180  -10.5542  -18.9253 C   0  0  0  0  0  0  0  0  0  0  0  0
   21.2907  -10.7305  -18.2215 O   0  0  0  0  0  0  0  0  0  0  0  0
   27.7099  -10.5274  -15.0951 C   0  0  0  0  0  0  0  0  0  0  0  0
   26.7753  -11.8187  -15.9708 S   0  0  0  0  0  0  0  0  0  0  0  0
   25.0729  -11.2861  -16.1788 C   0  0  0  0  0  0  0  0  0  0  0  0
   24.9641   -9.8010  -16.4853 C   0  0  0  0  0  0  0  0  0  0  0  0
   23.5787   -9.5127  -17.0122 C   0  0  2  0  0  0  0  0  0  0  0  0
   23.4766   -9.9185  -18.3879 N   0  0  0  0  0  0  0  0  0  0  0  0
   23.2719   -8.0384  -16.9082 C   0  0  0  0  0  0  0  0  0  0  0  0
   23.8888   -7.2086  -17.6175 O   0  0  0  0  0  0  0  0  0  0  0  0
   20.3661   -6.2295  -17.8776 C   0  0  0  0  0  0  0  0  0  0  0  0
   20.4280   -5.9785  -16.3943 C   0  0  1  0  0  0  0  0  0  0  0  0
   19.4313   -6.6330  -15.6977 O   0  0  0  0  0  0  0  0  0  0  0  0
   21.7978   -6.2396  -15.8607 C   0  0  2  0  0  0  0  0  0  0  0  0
   22.2839   -7.5663  -16.0097 N   0  0  0  0  0  0  0  0  0  0  0  0
   21.9989   -5.6235  -14.5215 C   0  0  0  0  0  0  0  0  0  0  0  0
   22.2144   -6.3575  -13.5299 O   0  0  0  0  0  0  0  0  0  0  0  0
   21.9477   -4.2677  -14.3570 O   0  0  0  0  0  0  0  0  0  0  0  0
  2  3  1  0
  2  1  1  0
  3 10  1  0
  4  3  2  0
  5  6  1  0
  7  6  1  0
  8  7  1  0
  9  8  1  6
  9 11  1  0
 10  9  1  0
 11 17  1  0
 11 12  2  0
 14 16  1  0
 14 13  1  6
 15 14  1  0
 16 18  1  0
 16 17  1  1
 18 20  1  0
 19 18  2  0
M  END
$$$$
