GMT.pdb
     RDKit          3D

 20 19  0  0  1  0  0  0  0  0999 V2000
   26.3522  -25.6134  -16.1842 N   0  0  0  0  0  0  0  0  0  0  0  0
   26.4516  -24.1837  -16.2026 C   0  0  0  0  0  0  0  0  0  0  0  0
   25.6779  -23.6241  -15.0685 C   0  0  0  0  0  0  0  0  0  0  0  0
   24.7317  -24.2902  -14.5759 O   0  0  0  0  0  0  0  0  0  0  0  0
   24.7636  -20.5333   -8.7281 C   0  0  0  0  0  0  0  0  0  0  0  0
   25.6570  -21.2349  -10.1484 S   0  0  0  0  0  0  0  0  0  0  0  0
   25.4648  -20.1525  -11.5684 C   0  0  0  0  0  0  0  0  0  0  0  0
   26.1825  -20.6804  -12.8003 C   0  0  0  0  0  0  0  0  0  0  0  0
   25.3118  -21.7214  -13.4624 C   0  0  2  0  0  0  0  0  0  0  0  0
   26.0179  -22.3382  -14.5527 N   0  0  0  0  0  0  0  0  0  0  0  0
   24.0448  -21.0913  -13.9880 C   0  0  0  0  0  0  0  0  0  0  0  0
   24.0974  -20.1663  -14.8330 O   0  0  0  0  0  0  0  0  0  0  0  0
   19.0495  -21.3426  -14.1123 C   0  0  0  0  0  0  0  0  0  0  0  0
   20.3355  -21.9231  -13.5866 C   0  0  1  0  0  0  0  0  0  0  0  0
   20.5229  -23.2387  -13.9624 O   0  0  0  0  0  0  0  0  0  0  0  0
   21.4959  -21.0405  -13.9083 C   0  0  2  0  0  0  0  0  0  0  0  0
   22.7763  -21.5322  -13.5376 N   0  0  0  0  0  0  0  0  0  0  0  0
   21.2244  -19.6187  -13.5643 C   0  0  0  0  0  0  0  0  0  0  0  0
   20.3910  -18.9690  -14.2364 O   0  0  0  0  0  0  0  0  0  0  0  0
   21.8747  -19.0102  -12.5277 O   0  0  0  0  0  0  0  0  0  0  0  0
  2  3  1  0
  2  1  1  0
  3 10  1  0
  4  3  2  0
  5  6  1  0
  7  6  1  0
  8  7  1  0
  9  8  1  6
  9 11  1  0
 10  9  1  0
 11 17  1  0
 11 12  2  0
 14 16  1  0
 14 13  1  6
 15 14  1  0
 16 18  1  0
 16 17  1  1
 18 20  1  0
 19 18  2  0
M  END
$$$$
