GMT.pdb
     RDKit          3D

 20 19  0  0  1  0  0  0  0  0999 V2000
   18.1518  -13.8701  -19.0925 N   0  0  0  0  0  0  0  0  0  0  0  0
   18.7961  -12.6189  -19.3634 C   0  0  0  0  0  0  0  0  0  0  0  0
   19.4982  -12.1549  -18.1429 C   0  0  0  0  0  0  0  0  0  0  0  0
   18.9265  -12.2476  -17.0266 O   0  0  0  0  0  0  0  0  0  0  0  0
   26.2406  -10.4798  -14.5422 C   0  0  0  0  0  0  0  0  0  0  0  0
   25.4774  -11.1309  -16.0592 S   0  0  0  0  0  0  0  0  0  0  0  0
   23.7051  -10.8462  -16.0054 C   0  0  0  0  0  0  0  0  0  0  0  0
   22.9964  -11.3716  -17.2436 C   0  0  0  0  0  0  0  0  0  0  0  0
   21.5242  -11.0546  -17.1334 C   0  0  2  0  0  0  0  0  0  0  0  0
   20.8120  -11.6097  -18.2526 N   0  0  0  0  0  0  0  0  0  0  0  0
   21.3079   -9.5611  -17.1019 C   0  0  0  0  0  0  0  0  0  0  0  0
   21.6456   -8.8487  -18.0770 O   0  0  0  0  0  0  0  0  0  0  0  0
   18.3239   -7.5142  -17.0375 C   0  0  0  0  0  0  0  0  0  0  0  0
   19.0104   -7.1679  -15.7428 C   0  0  1  0  0  0  0  0  0  0  0  0
   18.3368   -7.6433  -14.6350 O   0  0  0  0  0  0  0  0  0  0  0  0
   20.4514   -7.5573  -15.7764 C   0  0  2  0  0  0  0  0  0  0  0  0
   20.7208   -8.9384  -15.9733 N   0  0  0  0  0  0  0  0  0  0  0  0
   21.2314   -6.8934  -14.6974 C   0  0  0  0  0  0  0  0  0  0  0  0
   21.3614   -5.6478  -14.7062 O   0  0  0  0  0  0  0  0  0  0  0  0
   21.8116   -7.6239  -13.6987 O   0  0  0  0  0  0  0  0  0  0  0  0
  2  3  1  0
  2  1  1  0
  3 10  1  0
  4  3  2  0
  5  6  1  0
  7  6  1  0
  8  7  1  0
  9  8  1  6
  9 11  1  0
 10  9  1  0
 11 17  1  0
 11 12  2  0
 14 16  1  0
 14 13  1  6
 15 14  1  0
 16 18  1  0
 16 17  1  1
 18 20  1  0
 19 18  2  0
M  END
$$$$
