GMT.pdb
     RDKit          3D

 20 19  0  0  1  0  0  0  0  0999 V2000
   28.5318  -21.9776  -16.3149 N   0  0  0  0  0  0  0  0  0  0  0  0
   27.9435  -20.8740  -15.6149 C   0  0  0  0  0  0  0  0  0  0  0  0
   27.0382  -21.3894  -14.5600 C   0  0  0  0  0  0  0  0  0  0  0  0
   26.3439  -22.4135  -14.7859 O   0  0  0  0  0  0  0  0  0  0  0  0
   24.7491  -21.0470   -7.0336 C   0  0  0  0  0  0  0  0  0  0  0  0
   25.8261  -20.2706   -8.2766 S   0  0  0  0  0  0  0  0  0  0  0  0
   25.4299  -20.9243   -9.9016 C   0  0  0  0  0  0  0  0  0  0  0  0
   26.3921  -20.4358  -10.9726 C   0  0  0  0  0  0  0  0  0  0  0  0
   25.9918  -21.0380  -12.2982 C   0  0  2  0  0  0  0  0  0  0  0  0
   26.9676  -20.7161  -13.3042 N   0  0  0  0  0  0  0  0  0  0  0  0
   24.6447  -20.5117  -12.7305 C   0  0  0  0  0  0  0  0  0  0  0  0
   24.5135  -19.3174  -13.0892 O   0  0  0  0  0  0  0  0  0  0  0  0
   20.4272  -21.4452  -14.9218 C   0  0  0  0  0  0  0  0  0  0  0  0
   21.7716  -21.8959  -14.4152 C   0  0  1  0  0  0  0  0  0  0  0  0
   22.7192  -21.9847  -15.4158 O   0  0  0  0  0  0  0  0  0  0  0  0
   22.2113  -21.0731  -13.2495 C   0  0  2  0  0  0  0  0  0  0  0  0
   23.5069  -21.3552  -12.7390 N   0  0  0  0  0  0  0  0  0  0  0  0
   21.1335  -20.9274  -12.2344 C   0  0  0  0  0  0  0  0  0  0  0  0
   21.0060  -21.7948  -11.3401 O   0  0  0  0  0  0  0  0  0  0  0  0
   20.2776  -19.8624  -12.2664 O   0  0  0  0  0  0  0  0  0  0  0  0
  2  3  1  0
  2  1  1  0
  3 10  1  0
  4  3  2  0
  5  6  1  0
  7  6  1  0
  8  7  1  0
  9  8  1  1
  9 11  1  0
 10  9  1  0
 11 17  1  0
 11 12  2  0
 14 16  1  0
 14 13  1  6
 15 14  1  0
 16 18  1  0
 16 17  1  1
 18 20  1  0
 19 18  2  0
M  END
$$$$
