GMT.pdb
     RDKit          3D

 20 19  0  0  1  0  0  0  0  0999 V2000
   21.3136  -19.0168  -14.9392 N   0  0  0  0  0  0  0  0  0  0  0  0
   21.1884  -18.1261  -16.0551 C   0  0  0  0  0  0  0  0  0  0  0  0
   21.3881  -16.7314  -15.5935 C   0  0  0  0  0  0  0  0  0  0  0  0
   20.7286  -16.3036  -14.6118 O   0  0  0  0  0  0  0  0  0  0  0  0
   27.1683  -15.7225  -16.4677 C   0  0  0  0  0  0  0  0  0  0  0  0
   26.5640  -15.2414  -14.8211 S   0  0  0  0  0  0  0  0  0  0  0  0
   24.7693  -15.3018  -14.8027 C   0  0  0  0  0  0  0  0  0  0  0  0
   24.1480  -14.3685  -15.8295 C   0  0  0  0  0  0  0  0  0  0  0  0
   22.6511  -14.5669  -15.8251 C   0  0  2  0  0  0  0  0  0  0  0  0
   22.3253  -15.8950  -16.2698 N   0  0  0  0  0  0  0  0  0  0  0  0
   21.9842  -13.5639  -16.7348 C   0  0  0  0  0  0  0  0  0  0  0  0
   21.9401  -13.7586  -17.9727 O   0  0  0  0  0  0  0  0  0  0  0  0
   19.1820   -9.4193  -16.9453 C   0  0  0  0  0  0  0  0  0  0  0  0
   19.9107  -10.4155  -16.0828 C   0  0  1  0  0  0  0  0  0  0  0  0
   19.0806  -11.0532  -15.1821 O   0  0  0  0  0  0  0  0  0  0  0  0
   20.7225  -11.3543  -16.9128 C   0  0  2  0  0  0  0  0  0  0  0  0
   21.3972  -12.3872  -16.2083 N   0  0  0  0  0  0  0  0  0  0  0  0
   21.5286  -10.6357  -17.9361 C   0  0  0  0  0  0  0  0  0  0  0  0
   21.0154  -10.3595  -19.0446 O   0  0  0  0  0  0  0  0  0  0  0  0
   22.8231  -10.2761  -17.6852 O   0  0  0  0  0  0  0  0  0  0  0  0
  2  3  1  0
  2  1  1  0
  3 10  1  0
  4  3  2  0
  5  6  1  0
  7  6  1  0
  8  7  1  0
  9  8  1  6
  9 11  1  0
 10  9  1  0
 11 17  1  0
 11 12  2  0
 14 16  1  0
 14 13  1  6
 15 14  1  0
 16 18  1  0
 16 17  1  1
 18 20  1  0
 19 18  2  0
M  END
$$$$
