GMT.pdb
     RDKit          3D

 20 19  0  0  1  0  0  0  0  0999 V2000
   27.0960  -25.1502  -16.4586 N   0  0  0  0  0  0  0  0  0  0  0  0
   27.4594  -23.8097  -16.1048 C   0  0  0  0  0  0  0  0  0  0  0  0
   26.4914  -23.2856  -15.1116 C   0  0  0  0  0  0  0  0  0  0  0  0
   25.4409  -23.9332  -14.8694 O   0  0  0  0  0  0  0  0  0  0  0  0
   23.9140  -20.5761   -9.1951 C   0  0  0  0  0  0  0  0  0  0  0  0
   25.0301  -21.3210  -10.4226 S   0  0  0  0  0  0  0  0  0  0  0  0
   25.6971  -20.0335  -11.4820 C   0  0  0  0  0  0  0  0  0  0  0  0
   26.6516  -20.5828  -12.5302 C   0  0  0  0  0  0  0  0  0  0  0  0
   25.8804  -21.4795  -13.4690 C   0  0  2  0  0  0  0  0  0  0  0  0
   26.7658  -22.0543  -14.4454 N   0  0  0  0  0  0  0  0  0  0  0  0
   24.8033  -20.6962  -14.1795 C   0  0  0  0  0  0  0  0  0  0  0  0
   25.0938  -19.6729  -14.8434 O   0  0  0  0  0  0  0  0  0  0  0  0
   22.9138  -21.2760  -17.0375 C   0  0  0  0  0  0  0  0  0  0  0  0
   21.8396  -21.2187  -15.9838 C   0  0  1  0  0  0  0  0  0  0  0  0
   21.2737  -22.4520  -15.7276 O   0  0  0  0  0  0  0  0  0  0  0  0
   22.3252  -20.5196  -14.7572 C   0  0  2  0  0  0  0  0  0  0  0  0
   23.4479  -21.1016  -14.1096 N   0  0  0  0  0  0  0  0  0  0  0  0
   21.2034  -20.1147  -13.8679 C   0  0  0  0  0  0  0  0  0  0  0  0
   21.2027  -20.4789  -12.6697 O   0  0  0  0  0  0  0  0  0  0  0  0
   20.1711  -19.3541  -14.3410 O   0  0  0  0  0  0  0  0  0  0  0  0
  2  3  1  0
  2  1  1  0
  3 10  1  0
  4  3  2  0
  5  6  1  0
  7  6  1  0
  8  7  1  0
  9  8  1  1
  9 11  1  0
 10  9  1  0
 11 17  1  0
 11 12  2  0
 14 16  1  0
 14 13  1  6
 15 14  1  0
 16 18  1  0
 16 17  1  1
 18 20  1  0
 19 18  2  0
M  END
$$$$
