GMT.pdb
     RDKit          3D

 20 19  0  0  1  0  0  0  0  0999 V2000
   23.9964   -9.5071  -20.3366 N   0  0  0  0  0  0  0  0  0  0  0  0
   24.3895   -9.8883  -19.0121 C   0  0  0  0  0  0  0  0  0  0  0  0
   23.3478   -9.4580  -18.0489 C   0  0  0  0  0  0  0  0  0  0  0  0
   22.1403   -9.4607  -18.4005 O   0  0  0  0  0  0  0  0  0  0  0  0
   22.6190   -8.2934  -10.7060 C   0  0  0  0  0  0  0  0  0  0  0  0
   22.2365   -9.6785  -11.8209 S   0  0  0  0  0  0  0  0  0  0  0  0
   21.9125   -9.0455  -13.4700 C   0  0  0  0  0  0  0  0  0  0  0  0
   23.0307   -9.3739  -14.4463 C   0  0  0  0  0  0  0  0  0  0  0  0
   22.7810   -8.6348  -15.7392 C   0  0  2  0  0  0  0  0  0  0  0  0
   23.7304   -9.0468  -16.7375 N   0  0  0  0  0  0  0  0  0  0  0  0
   22.9030   -7.1454  -15.5264 C   0  0  0  0  0  0  0  0  0  0  0  0
   24.0299   -6.5961  -15.5043 O   0  0  0  0  0  0  0  0  0  0  0  0
   19.2322   -4.7349  -15.5829 C   0  0  0  0  0  0  0  0  0  0  0  0
   20.5914   -4.2680  -16.0319 C   0  0  1  0  0  0  0  0  0  0  0  0
   20.6993   -2.8919  -16.0721 O   0  0  0  0  0  0  0  0  0  0  0  0
   21.6748   -4.9278  -15.2443 C   0  0  2  0  0  0  0  0  0  0  0  0
   21.7495   -6.3428  -15.3484 N   0  0  0  0  0  0  0  0  0  0  0  0
   21.7762   -4.3741  -13.8672 C   0  0  0  0  0  0  0  0  0  0  0  0
   21.4673   -5.0919  -12.8886 O   0  0  0  0  0  0  0  0  0  0  0  0
   22.1980   -3.0915  -13.6550 O   0  0  0  0  0  0  0  0  0  0  0  0
  2  3  1  0
  2  1  1  0
  3 10  1  0
  4  3  2  0
  5  6  1  0
  7  6  1  0
  8  7  1  0
  9  8  1  1
  9 11  1  0
 10  9  1  0
 11 17  1  0
 11 12  2  0
 14 16  1  0
 14 13  1  1
 15 14  1  0
 16 18  1  0
 16 17  1  1
 18 20  1  0
 19 18  2  0
M  END
$$$$
