GMT.pdb
     RDKit          3D

 20 19  0  0  1  0  0  0  0  0999 V2000
   22.1863  -19.5928  -17.1997 N   0  0  0  0  0  0  0  0  0  0  0  0
   21.8261  -18.4275  -17.9524 C   0  0  0  0  0  0  0  0  0  0  0  0
   21.8603  -17.2408  -17.0644 C   0  0  0  0  0  0  0  0  0  0  0  0
   21.0708  -17.1753  -16.0876 O   0  0  0  0  0  0  0  0  0  0  0  0
   27.4189  -15.2201  -16.1592 C   0  0  0  0  0  0  0  0  0  0  0  0
   26.3890  -15.5910  -14.7069 S   0  0  0  0  0  0  0  0  0  0  0  0
   24.6802  -15.7900  -15.2219 C   0  0  0  0  0  0  0  0  0  0  0  0
   24.2099  -14.6559  -16.1186 C   0  0  0  0  0  0  0  0  0  0  0  0
   22.8077  -14.9578  -16.5907 C   0  0  2  0  0  0  0  0  0  0  0  0
   22.7881  -16.1904  -17.3311 N   0  0  0  0  0  0  0  0  0  0  0  0
   22.2976  -13.8439  -17.4724 C   0  0  0  0  0  0  0  0  0  0  0  0
   22.7037  -13.7305  -18.6533 O   0  0  0  0  0  0  0  0  0  0  0  0
   18.6741  -13.0640  -18.3865 C   0  0  0  0  0  0  0  0  0  0  0  0
   19.2239  -11.8575  -17.6729 C   0  0  1  0  0  0  0  0  0  0  0  0
   18.6887  -11.6912  -16.4107 O   0  0  0  0  0  0  0  0  0  0  0  0
   20.7168  -11.8542  -17.6922 C   0  0  2  0  0  0  0  0  0  0  0  0
   21.3530  -12.9085  -16.9834 N   0  0  0  0  0  0  0  0  0  0  0  0
   21.2722  -10.4932  -17.4630 C   0  0  0  0  0  0  0  0  0  0  0  0
   22.1060  -10.3126  -16.5462 O   0  0  0  0  0  0  0  0  0  0  0  0
   20.8822   -9.4359  -18.2363 O   0  0  0  0  0  0  0  0  0  0  0  0
  2  3  1  0
  2  1  1  0
  3 10  1  0
  4  3  2  0
  5  6  1  0
  7  6  1  0
  8  7  1  0
  9  8  1  6
  9 11  1  0
 10  9  1  0
 11 17  1  0
 11 12  2  0
 14 16  1  0
 14 13  1  1
 15 14  1  0
 16 18  1  0
 16 17  1  1
 18 20  1  0
 19 18  2  0
M  END
$$$$
