GMT.pdb
     RDKit          3D

 20 19  0  0  1  0  0  0  0  0999 V2000
   19.1388  -11.9540  -20.2072 N   0  0  0  0  0  0  0  0  0  0  0  0
   20.5553  -11.9912  -19.9919 C   0  0  0  0  0  0  0  0  0  0  0  0
   20.8653  -11.4009  -18.6677 C   0  0  0  0  0  0  0  0  0  0  0  0
   20.0350  -11.5136  -17.7298 O   0  0  0  0  0  0  0  0  0  0  0  0
   27.0907   -9.8791  -16.1993 C   0  0  0  0  0  0  0  0  0  0  0  0
   25.9058  -10.5141  -14.9743 S   0  0  0  0  0  0  0  0  0  0  0  0
   24.2376  -10.0756  -15.4743 C   0  0  0  0  0  0  0  0  0  0  0  0
   23.9064  -10.5626  -16.8760 C   0  0  0  0  0  0  0  0  0  0  0  0
   22.4942  -10.1487  -17.2143 C   0  0  2  0  0  0  0  0  0  0  0  0
   22.1006  -10.7134  -18.4769 N   0  0  0  0  0  0  0  0  0  0  0  0
   22.3905   -8.6448  -17.2922 C   0  0  0  0  0  0  0  0  0  0  0  0
   23.1984   -7.9866  -17.9896 O   0  0  0  0  0  0  0  0  0  0  0  0
   19.3038   -6.7580  -18.3413 C   0  0  0  0  0  0  0  0  0  0  0  0
   19.6681   -6.2147  -16.9851 C   0  0  1  0  0  0  0  0  0  0  0  0
   18.7497   -6.5488  -16.0094 O   0  0  0  0  0  0  0  0  0  0  0  0
   21.0741   -6.5645  -16.6247 C   0  0  2  0  0  0  0  0  0  0  0  0
   21.3811   -7.9511  -16.5807 N   0  0  0  0  0  0  0  0  0  0  0  0
   21.5719   -5.7550  -15.4800 C   0  0  0  0  0  0  0  0  0  0  0  0
   21.9606   -6.3316  -14.4385 O   0  0  0  0  0  0  0  0  0  0  0  0
   21.6072   -4.3904  -15.5474 O   0  0  0  0  0  0  0  0  0  0  0  0
  2  3  1  0
  2  1  1  0
  3 10  1  0
  4  3  2  0
  5  6  1  0
  7  6  1  0
  8  7  1  0
  9  8  1  6
  9 11  1  0
 10  9  1  0
 11 17  1  0
 11 12  2  0
 14 16  1  0
 14 13  1  6
 15 14  1  0
 16 18  1  0
 16 17  1  1
 18 20  1  0
 19 18  2  0
M  END
$$$$
