GMT.pdb
     RDKit          3D

 20 19  0  0  1  0  0  0  0  0999 V2000
   25.1902  -11.4202  -15.7118 N   0  0  0  0  0  0  0  0  0  0  0  0
   24.1192  -11.1617  -14.7951 C   0  0  0  0  0  0  0  0  0  0  0  0
   23.0061  -10.4994  -15.5164 C   0  0  0  0  0  0  0  0  0  0  0  0
   23.2203   -9.9772  -16.6403 O   0  0  0  0  0  0  0  0  0  0  0  0
   18.0528  -14.5578  -16.3029 C   0  0  0  0  0  0  0  0  0  0  0  0
   17.8821  -12.9163  -15.5387 S   0  0  0  0  0  0  0  0  0  0  0  0
   19.3447  -11.9370  -15.8947 C   0  0  0  0  0  0  0  0  0  0  0  0
   19.3106  -10.5773  -15.2154 C   0  0  0  0  0  0  0  0  0  0  0  0
   20.5797   -9.8321  -15.5533 C   0  0  2  0  0  0  0  0  0  0  0  0
   21.7083  -10.4638  -14.9249 N   0  0  0  0  0  0  0  0  0  0  0  0
   20.4905   -8.4002  -15.0841 C   0  0  0  0  0  0  0  0  0  0  0  0
   20.8050   -8.0950  -13.9093 O   0  0  0  0  0  0  0  0  0  0  0  0
   19.6714   -3.6566  -16.4315 C   0  0  0  0  0  0  0  0  0  0  0  0
   19.6381   -5.1049  -16.8421 C   0  0  1  0  0  0  0  0  0  0  0  0
   20.4802   -5.3813  -17.9012 O   0  0  0  0  0  0  0  0  0  0  0  0
   19.8442   -6.0027  -15.6671 C   0  0  2  0  0  0  0  0  0  0  0  0
   20.0512   -7.3774  -15.9600 N   0  0  0  0  0  0  0  0  0  0  0  0
   18.8811   -5.7126  -14.5709 C   0  0  0  0  0  0  0  0  0  0  0  0
   17.8137   -6.3636  -14.4982 O   0  0  0  0  0  0  0  0  0  0  0  0
   19.1427   -4.7428  -13.6441 O   0  0  0  0  0  0  0  0  0  0  0  0
  2  3  1  0
  2  1  1  0
  3 10  1  0
  4  3  2  0
  5  6  1  0
  7  6  1  0
  8  7  1  0
  9  8  1  1
  9 11  1  0
 10  9  1  0
 11 17  1  0
 11 12  2  0
 14 16  1  0
 14 13  1  1
 15 14  1  0
 16 18  1  0
 16 17  1  6
 18 20  1  0
 19 18  2  0
M  END
$$$$
