YFI.pdb
     RDKit          3D

 32 33  0  0  1  0  0  0  0  0999 V2000
   16.4597  -22.6798  -16.9533 O   0  0  0  0  0  0  0  0  0  0  0  0
   17.5928  -21.9319  -16.6809 C   0  0  0  0  0  0  0  0  0  0  0  0
   17.5219  -20.5518  -16.6264 C   0  0  0  0  0  0  0  0  0  0  0  0
   18.6683  -19.8107  -16.3515 C   0  0  0  0  0  0  0  0  0  0  0  0
   19.8890  -20.4086  -16.1283 C   0  0  0  0  0  0  0  0  0  0  0  0
   21.1118  -19.6153  -15.8352 C   0  0  0  0  0  0  0  0  0  0  0  0
   21.2422  -19.5318  -14.3304 C   0  0  2  0  0  0  0  0  0  0  0  0
   20.5357  -18.3535  -13.8989 N   0  0  0  0  0  0  0  0  0  0  0  0
   22.6664  -19.4137  -13.9331 C   0  0  0  0  0  0  0  0  0  0  0  0
   23.2873  -18.3654  -14.1443 O   0  0  0  0  0  0  0  0  0  0  0  0
   19.9242  -21.7962  -16.1906 C   0  0  0  0  0  0  0  0  0  0  0  0
   18.7921  -22.5406  -16.4627 C   0  0  0  0  0  0  0  0  0  0  0  0
   23.3403  -20.4900  -13.3085 N   0  0  0  0  0  0  0  0  0  0  0  0
   24.6974  -20.3187  -12.8915 C   0  0  1  0  0  0  0  0  0  0  0  0
   25.0479  -21.1133  -11.6567 C   0  0  0  0  0  0  0  0  0  0  0  0
   26.4829  -20.9478  -11.2684 C   0  0  0  0  0  0  0  0  0  0  0  0
   27.0581  -21.5506  -10.2002 C   0  0  0  0  0  0  0  0  0  0  0  0
   28.3870  -21.3401   -9.9187 C   0  0  0  0  0  0  0  0  0  0  0  0
   29.1660  -20.5199  -10.7039 C   0  0  0  0  0  0  0  0  0  0  0  0
   28.6009  -19.8969  -11.7954 C   0  0  0  0  0  0  0  0  0  0  0  0
   27.2687  -20.1277  -12.0506 C   0  0  0  0  0  0  0  0  0  0  0  0
   25.5913  -20.7853  -13.9744 C   0  0  0  0  0  0  0  0  0  0  0  0
   25.5887  -21.9569  -14.4282 O   0  0  0  0  0  0  0  0  0  0  0  0
   27.5898  -16.6257  -17.0878 C   0  0  0  0  0  0  0  0  0  0  0  0
   27.0050  -17.8939  -16.5693 C   0  0  0  0  0  0  0  0  0  0  0  0
   27.9290  -19.0035  -16.2730 C   0  0  2  0  0  0  0  0  0  0  0  0
   28.9576  -19.1904  -17.3742 C   0  0  0  0  0  0  0  0  0  0  0  0
   27.3614  -20.2453  -15.7020 C   0  0  2  0  0  0  0  0  0  0  0  0
   26.5088  -19.8712  -14.5433 N   0  0  0  0  0  0  0  0  0  0  0  0
   28.3337  -21.2282  -15.2767 C   0  0  0  0  0  0  0  0  0  0  0  0
   28.7575  -21.2586  -14.0702 O   0  0  0  0  0  0  0  0  0  0  0  0
   28.8579  -22.1856  -16.1181 O   0  0  0  0  0  0  0  0  0  0  0  0
  2  3  2  0
  2  1  1  0
  4  3  1  0
  5  4  2  0
  6  7  1  0
  6  5  1  0
  7  9  1  0
  7  8  1  6
  9 10  2  0
 11  5  1  0
 11 12  2  0
 12  2  1  0
 13  9  1  0
 14 13  1  0
 14 15  1  1
 16 15  1  0
 17 16  2  0
 18 17  1  0
 19 18  2  0
 19 20  1  0
 20 21  2  0
 21 16  1  0
 22 29  1  0
 22 14  1  0
 23 22  2  0
 24 25  1  0
 25 26  1  0
 26 27  1  6
 28 29  1  1
 28 26  1  0
 30 28  1  0
 31 30  2  0
 32 30  1  0
M  END
$$$$
