YFI.pdb
     RDKit          3D

 32 33  0  0  1  0  0  0  0  0999 V2000
   24.9586  -31.9156  -20.0871 O   0  0  0  0  0  0  0  0  0  0  0  0
   24.7582  -30.9027  -19.1643 C   0  0  0  0  0  0  0  0  0  0  0  0
   25.5880  -29.7963  -19.1509 C   0  0  0  0  0  0  0  0  0  0  0  0
   25.3763  -28.7844  -18.2181 C   0  0  0  0  0  0  0  0  0  0  0  0
   24.3565  -28.8439  -17.2940 C   0  0  0  0  0  0  0  0  0  0  0  0
   24.1324  -27.7623  -16.2988 C   0  0  0  0  0  0  0  0  0  0  0  0
   23.2095  -26.7486  -16.9383 C   0  0  2  0  0  0  0  0  0  0  0  0
   24.0322  -25.7191  -17.5188 N   0  0  0  0  0  0  0  0  0  0  0  0
   22.3167  -26.1383  -15.9230 C   0  0  0  0  0  0  0  0  0  0  0  0
   22.7764  -25.3693  -15.0707 O   0  0  0  0  0  0  0  0  0  0  0  0
   23.5423  -29.9690  -17.3357 C   0  0  0  0  0  0  0  0  0  0  0  0
   23.7441  -30.9786  -18.2575 C   0  0  0  0  0  0  0  0  0  0  0  0
   20.9301  -26.4207  -15.9080 N   0  0  0  0  0  0  0  0  0  0  0  0
   20.0928  -25.7668  -14.9508 C   0  0  1  0  0  0  0  0  0  0  0  0
   19.0192  -24.9127  -15.5807 C   0  0  0  0  0  0  0  0  0  0  0  0
   19.5911  -23.7621  -16.3465 C   0  0  0  0  0  0  0  0  0  0  0  0
   19.9266  -23.8107  -17.6581 C   0  0  0  0  0  0  0  0  0  0  0  0
   20.4472  -22.7016  -18.2813 C   0  0  0  0  0  0  0  0  0  0  0  0
   20.6417  -21.5205  -17.6005 C   0  0  0  0  0  0  0  0  0  0  0  0
   20.3072  -21.4494  -16.2657 C   0  0  0  0  0  0  0  0  0  0  0  0
   19.7885  -22.5763  -15.6705 C   0  0  0  0  0  0  0  0  0  0  0  0
   19.4062  -26.7944  -14.1372 C   0  0  0  0  0  0  0  0  0  0  0  0
   18.7342  -27.7382  -14.6232 O   0  0  0  0  0  0  0  0  0  0  0  0
   18.2185  -26.7432   -8.5485 C   0  0  0  0  0  0  0  0  0  0  0  0
   19.1747  -26.5156   -9.6680 C   0  0  0  0  0  0  0  0  0  0  0  0
   19.5183  -27.6681  -10.5203 C   0  0  2  0  0  0  0  0  0  0  0  0
   21.0025  -27.9848  -10.4692 C   0  0  0  0  0  0  0  0  0  0  0  0
   18.8845  -27.7576  -11.8547 C   0  0  2  0  0  0  0  0  0  0  0  0
   19.5019  -26.7249  -12.7275 N   0  0  0  0  0  0  0  0  0  0  0  0
   17.4478  -27.5903  -11.8666 C   0  0  0  0  0  0  0  0  0  0  0  0
   16.9175  -26.4530  -12.1147 O   0  0  0  0  0  0  0  0  0  0  0  0
   16.5652  -28.6204  -11.6237 O   0  0  0  0  0  0  0  0  0  0  0  0
  2  3  2  0
  2  1  1  0
  4  3  1  0
  5  4  2  0
  6  7  1  0
  6  5  1  0
  7  9  1  0
  7  8  1  1
  9 10  2  0
 11  5  1  0
 11 12  2  0
 12  2  1  0
 13  9  1  0
 14 13  1  0
 14 15  1  6
 16 15  1  0
 17 16  2  0
 18 17  1  0
 19 18  2  0
 19 20  1  0
 20 21  2  0
 21 16  1  0
 22 29  1  0
 22 14  1  0
 23 22  2  0
 24 25  1  0
 25 26  1  0
 26 27  1  6
 28 29  1  6
 28 26  1  0
 30 28  1  0
 31 30  2  0
 32 30  1  0
M  END
$$$$
