YFI.pdb
     RDKit          3D

 32 33  0  0  1  0  0  0  0  0999 V2000
   16.5826  -23.8797   -9.0939 O   0  0  0  0  0  0  0  0  0  0  0  0
   17.7307  -23.5213   -9.7801 C   0  0  0  0  0  0  0  0  0  0  0  0
   18.9434  -23.4439   -9.1196 C   0  0  0  0  0  0  0  0  0  0  0  0
   20.0909  -23.0824   -9.8208 C   0  0  0  0  0  0  0  0  0  0  0  0
   20.0642  -22.7946  -11.1675 C   0  0  0  0  0  0  0  0  0  0  0  0
   21.2907  -22.4086  -11.9141 C   0  0  0  0  0  0  0  0  0  0  0  0
   21.7056  -21.0409  -11.4187 C   0  0  2  0  0  0  0  0  0  0  0  0
   20.8028  -20.0788  -11.9958 N   0  0  0  0  0  0  0  0  0  0  0  0
   23.0891  -20.7243  -11.8499 C   0  0  0  0  0  0  0  0  0  0  0  0
   23.2917  -19.8528  -12.7035 O   0  0  0  0  0  0  0  0  0  0  0  0
   18.8299  -22.8821  -11.7994 C   0  0  0  0  0  0  0  0  0  0  0  0
   17.6853  -23.2399  -11.1125 C   0  0  0  0  0  0  0  0  0  0  0  0
   24.1986  -21.4076  -11.2979 N   0  0  0  0  0  0  0  0  0  0  0  0
   25.5215  -20.9789  -11.6316 C   0  0  1  0  0  0  0  0  0  0  0  0
   26.5679  -21.4518  -10.6516 C   0  0  0  0  0  0  0  0  0  0  0  0
   26.4574  -20.7586   -9.3307 C   0  0  0  0  0  0  0  0  0  0  0  0
   26.6397  -19.4285   -9.1502 C   0  0  0  0  0  0  0  0  0  0  0  0
   26.5180  -18.8766   -7.8971 C   0  0  0  0  0  0  0  0  0  0  0  0
   26.2107  -19.6489   -6.7992 C   0  0  0  0  0  0  0  0  0  0  0  0
   26.0213  -21.0042   -6.9606 C   0  0  0  0  0  0  0  0  0  0  0  0
   26.1499  -21.5264   -8.2271 C   0  0  0  0  0  0  0  0  0  0  0  0
   25.8838  -21.5359  -12.9536 C   0  0  0  0  0  0  0  0  0  0  0  0
   25.5079  -22.6617  -13.3658 O   0  0  0  0  0  0  0  0  0  0  0  0
   26.3488  -18.6519  -18.2563 C   0  0  0  0  0  0  0  0  0  0  0  0
   26.5824  -19.9122  -17.4972 C   0  0  0  0  0  0  0  0  0  0  0  0
   26.5752  -19.8365  -16.0250 C   0  0  2  0  0  0  0  0  0  0  0  0
   27.3043  -18.6039  -15.5201 C   0  0  0  0  0  0  0  0  0  0  0  0
   26.8127  -21.0840  -15.2650 C   0  0  2  0  0  0  0  0  0  0  0  0
   26.7009  -20.7688  -13.8167 N   0  0  0  0  0  0  0  0  0  0  0  0
   28.0859  -21.7236  -15.5136 C   0  0  0  0  0  0  0  0  0  0  0  0
   29.0939  -21.5040  -14.7573 O   0  0  0  0  0  0  0  0  0  0  0  0
   28.3004  -22.6008  -16.5546 O   0  0  0  0  0  0  0  0  0  0  0  0
  2  3  2  0
  2  1  1  0
  4  3  1  0
  5  4  2  0
  6  7  1  0
  6  5  1  0
  7  9  1  0
  7  8  1  6
  9 10  2  0
 11  5  1  0
 11 12  2  0
 12  2  1  0
 13  9  1  0
 14 13  1  0
 14 15  1  1
 16 15  1  0
 17 16  2  0
 18 17  1  0
 19 18  2  0
 19 20  1  0
 20 21  2  0
 21 16  1  0
 22 29  1  0
 22 14  1  0
 23 22  2  0
 24 25  1  0
 25 26  1  0
 26 27  1  6
 28 29  1  1
 28 26  1  0
 30 28  1  0
 31 30  2  0
 32 30  1  0
M  END
$$$$
