YFI.pdb
     RDKit          3D

 32 33  0  0  1  0  0  0  0  0999 V2000
   28.0765  -16.6668  -21.0687 O   0  0  0  0  0  0  0  0  0  0  0  0
   27.6688  -17.6751  -20.2115 C   0  0  0  0  0  0  0  0  0  0  0  0
   27.4918  -17.4170  -18.8644 C   0  0  0  0  0  0  0  0  0  0  0  0
   27.0815  -18.4392  -18.0125 C   0  0  0  0  0  0  0  0  0  0  0  0
   26.8415  -19.7172  -18.4670 C   0  0  0  0  0  0  0  0  0  0  0  0
   26.4036  -20.8072  -17.5555 C   0  0  0  0  0  0  0  0  0  0  0  0
   27.3437  -20.8056  -16.3704 C   0  0  2  0  0  0  0  0  0  0  0  0
   28.3874  -21.7592  -16.6439 N   0  0  0  0  0  0  0  0  0  0  0  0
   26.6304  -21.2113  -15.1347 C   0  0  0  0  0  0  0  0  0  0  0  0
   26.4381  -22.4082  -14.8907 O   0  0  0  0  0  0  0  0  0  0  0  0
   27.0290  -19.9413  -19.8253 C   0  0  0  0  0  0  0  0  0  0  0  0
   27.4360  -18.9336  -20.6790 C   0  0  0  0  0  0  0  0  0  0  0  0
   26.1582  -20.2446  -14.2153 N   0  0  0  0  0  0  0  0  0  0  0  0
   25.5529  -20.6771  -12.9940 C   0  0  1  0  0  0  0  0  0  0  0  0
   26.1288  -20.0051  -11.7710 C   0  0  0  0  0  0  0  0  0  0  0  0
   27.5484  -20.4062  -11.5233 C   0  0  0  0  0  0  0  0  0  0  0  0
   28.5919  -20.0384  -12.3048 C   0  0  0  0  0  0  0  0  0  0  0  0
   29.8659  -20.4551  -12.0000 C   0  0  0  0  0  0  0  0  0  0  0  0
   30.1186  -21.2496  -10.9041 C   0  0  0  0  0  0  0  0  0  0  0  0
   29.0714  -21.6353  -10.0958 C   0  0  0  0  0  0  0  0  0  0  0  0
   27.8082  -21.2020  -10.4273 C   0  0  0  0  0  0  0  0  0  0  0  0
   24.1117  -20.3441  -13.0323 C   0  0  0  0  0  0  0  0  0  0  0  0
   23.6655  -19.1885  -13.2426 O   0  0  0  0  0  0  0  0  0  0  0  0
   19.4005  -21.1539  -15.4204 C   0  0  0  0  0  0  0  0  0  0  0  0
   19.8168  -22.1500  -14.3940 C   0  0  0  0  0  0  0  0  0  0  0  0
   21.2379  -22.1780  -14.0033 C   0  0  2  0  0  0  0  0  0  0  0  0
   21.7283  -23.5944  -13.7606 C   0  0  0  0  0  0  0  0  0  0  0  0
   21.7139  -21.1564  -13.0441 C   0  0  2  0  0  0  0  0  0  0  0  0
   23.1671  -21.3758  -12.8217 N   0  0  0  0  0  0  0  0  0  0  0  0
   21.0353  -21.1474  -11.7667 C   0  0  0  0  0  0  0  0  0  0  0  0
   19.8147  -20.7775  -11.6701 O   0  0  0  0  0  0  0  0  0  0  0  0
   21.6372  -21.5337  -10.5887 O   0  0  0  0  0  0  0  0  0  0  0  0
  2  3  2  0
  2  1  1  0
  4  3  1  0
  5  4  2  0
  6  7  1  0
  6  5  1  0
  7  9  1  0
  7  8  1  6
  9 10  2  0
 11  5  1  0
 11 12  2  0
 12  2  1  0
 13  9  1  0
 14 13  1  0
 14 15  1  1
 16 15  1  0
 17 16  2  0
 18 17  1  0
 19 18  2  0
 19 20  1  0
 20 21  2  0
 21 16  1  0
 22 29  1  0
 22 14  1  0
 23 22  2  0
 24 25  1  0
 25 26  1  0
 26 27  1  1
 28 29  1  1
 28 26  1  0
 30 28  1  0
 31 30  2  0
 32 30  1  0
M  END
$$$$
