YFI.pdb
     RDKit          3D

 32 33  0  0  1  0  0  0  0  0999 V2000
   21.4974  -18.5621  -16.6012 O   0  0  0  0  0  0  0  0  0  0  0  0
   22.0296  -19.1657  -15.4742 C   0  0  0  0  0  0  0  0  0  0  0  0
   22.1664  -20.5408  -15.4175 C   0  0  0  0  0  0  0  0  0  0  0  0
   22.7030  -21.1359  -14.2786 C   0  0  0  0  0  0  0  0  0  0  0  0
   23.1090  -20.3963  -13.1898 C   0  0  0  0  0  0  0  0  0  0  0  0
   23.6815  -21.0340  -11.9748 C   0  0  0  0  0  0  0  0  0  0  0  0
   25.1844  -20.8804  -12.0536 C   0  0  2  0  0  0  0  0  0  0  0  0
   25.6776  -21.8971  -12.9461 N   0  0  0  0  0  0  0  0  0  0  0  0
   25.8015  -21.0693  -10.7181 C   0  0  0  0  0  0  0  0  0  0  0  0
   25.8932  -22.2011  -10.2284 O   0  0  0  0  0  0  0  0  0  0  0  0
   22.9573  -19.0182  -13.2807 C   0  0  0  0  0  0  0  0  0  0  0  0
   22.4260  -18.4180  -14.4063 C   0  0  0  0  0  0  0  0  0  0  0  0
   26.2950  -19.9666   -9.9809 N   0  0  0  0  0  0  0  0  0  0  0  0
   26.9042  -20.1925   -8.7070 C   0  0  1  0  0  0  0  0  0  0  0  0
   27.9712  -19.1800   -8.3670 C   0  0  0  0  0  0  0  0  0  0  0  0
   28.6342  -19.4772   -7.0595 C   0  0  0  0  0  0  0  0  0  0  0  0
   29.4342  -20.5473   -6.8363 C   0  0  0  0  0  0  0  0  0  0  0  0
   30.0025  -20.7412   -5.5998 C   0  0  0  0  0  0  0  0  0  0  0  0
   29.7792  -19.8646   -4.5616 C   0  0  0  0  0  0  0  0  0  0  0  0
   28.9685  -18.7694   -4.7671 C   0  0  0  0  0  0  0  0  0  0  0  0
   28.4146  -18.6031   -6.0156 C   0  0  0  0  0  0  0  0  0  0  0  0
   25.8654  -20.0951   -7.6579 C   0  0  0  0  0  0  0  0  0  0  0  0
   24.9587  -19.2253   -7.6492 O   0  0  0  0  0  0  0  0  0  0  0  0
   21.5857  -22.1107   -4.9131 C   0  0  0  0  0  0  0  0  0  0  0  0
   23.0041  -22.3423   -4.5211 C   0  0  0  0  0  0  0  0  0  0  0  0
   24.0385  -22.1661   -5.5564 C   0  0  2  0  0  0  0  0  0  0  0  0
   24.7570  -23.4681   -5.8632 C   0  0  0  0  0  0  0  0  0  0  0  0
   24.8915  -20.9587   -5.4864 C   0  0  2  0  0  0  0  0  0  0  0  0
   25.8793  -21.0283   -6.5949 N   0  0  0  0  0  0  0  0  0  0  0  0
   25.5948  -20.7731   -4.2363 C   0  0  0  0  0  0  0  0  0  0  0  0
   26.7768  -21.2327   -4.0691 O   0  0  0  0  0  0  0  0  0  0  0  0
   25.0590  -20.0982   -3.1608 O   0  0  0  0  0  0  0  0  0  0  0  0
  2  3  2  0
  2  1  1  0
  4  3  1  0
  5  4  2  0
  6  7  1  0
  6  5  1  0
  7  9  1  0
  7  8  1  6
  9 10  2  0
 11  5  1  0
 11 12  2  0
 12  2  1  0
 13  9  1  0
 14 13  1  0
 14 15  1  1
 16 15  1  0
 17 16  2  0
 18 17  1  0
 19 18  2  0
 19 20  1  0
 20 21  2  0
 21 16  1  0
 22 29  1  0
 22 14  1  0
 23 22  2  0
 24 25  1  0
 25 26  1  0
 26 27  1  1
 28 29  1  6
 28 26  1  0
 30 28  1  0
 31 30  2  0
 32 30  1  0
M  END
$$$$
