YFI.pdb
     RDKit          3D

 32 33  0  0  1  0  0  0  0  0999 V2000
   21.4588  -18.9551  -15.8825 O   0  0  0  0  0  0  0  0  0  0  0  0
   22.0538  -19.3498  -14.6960 C   0  0  0  0  0  0  0  0  0  0  0  0
   21.7038  -20.5503  -14.1051 C   0  0  0  0  0  0  0  0  0  0  0  0
   22.3091  -20.9362  -12.9119 C   0  0  0  0  0  0  0  0  0  0  0  0
   23.2577  -20.1562  -12.2880 C   0  0  0  0  0  0  0  0  0  0  0  0
   23.9027  -20.5702  -11.0140 C   0  0  0  0  0  0  0  0  0  0  0  0
   25.3781  -20.7496  -11.2958 C   0  0  2  0  0  0  0  0  0  0  0  0
   25.5194  -21.9008  -12.1493 N   0  0  0  0  0  0  0  0  0  0  0  0
   26.1274  -20.9863  -10.0377 C   0  0  0  0  0  0  0  0  0  0  0  0
   26.0196  -22.0644   -9.4417 O   0  0  0  0  0  0  0  0  0  0  0  0
   23.5855  -18.9572  -12.9088 C   0  0  0  0  0  0  0  0  0  0  0  0
   22.9904  -18.5652  -14.0929 C   0  0  0  0  0  0  0  0  0  0  0  0
   26.9752  -19.9909   -9.4963 N   0  0  0  0  0  0  0  0  0  0  0  0
   27.6515  -20.2431   -8.2618 C   0  0  1  0  0  0  0  0  0  0  0  0
   28.8907  -19.4011   -8.0764 C   0  0  0  0  0  0  0  0  0  0  0  0
   29.4959  -19.5797   -6.7203 C   0  0  0  0  0  0  0  0  0  0  0  0
   30.1624  -20.6902   -6.3231 C   0  0  0  0  0  0  0  0  0  0  0  0
   30.6866  -20.7667   -5.0547 C   0  0  0  0  0  0  0  0  0  0  0  0
   30.5525  -19.7297   -4.1586 C   0  0  0  0  0  0  0  0  0  0  0  0
   29.8782  -18.5909   -4.5422 C   0  0  0  0  0  0  0  0  0  0  0  0
   29.3652  -18.5448   -5.8181 C   0  0  0  0  0  0  0  0  0  0  0  0
   26.7380  -19.9204   -7.1434 C   0  0  0  0  0  0  0  0  0  0  0  0
   25.9829  -18.9164   -7.1237 O   0  0  0  0  0  0  0  0  0  0  0  0
   22.7725  -22.5470   -5.9452 C   0  0  0  0  0  0  0  0  0  0  0  0
   23.8700  -21.5402   -5.9755 C   0  0  0  0  0  0  0  0  0  0  0  0
   24.7478  -21.4480   -4.7948 C   0  0  2  0  0  0  0  0  0  0  0  0
   23.9576  -21.4989   -3.4992 C   0  0  0  0  0  0  0  0  0  0  0  0
   25.8627  -20.4755   -4.8336 C   0  0  2  0  0  0  0  0  0  0  0  0
   26.7001  -20.7827   -6.0226 N   0  0  0  0  0  0  0  0  0  0  0  0
   26.7023  -20.4539   -3.6559 C   0  0  0  0  0  0  0  0  0  0  0  0
   27.5912  -21.3531   -3.4621 O   0  0  0  0  0  0  0  0  0  0  0  0
   26.6132  -19.4828   -2.6822 O   0  0  0  0  0  0  0  0  0  0  0  0
  2  3  2  0
  2  1  1  0
  4  3  1  0
  5  4  2  0
  6  7  1  0
  6  5  1  0
  7  9  1  0
  7  8  1  6
  9 10  2  0
 11  5  1  0
 11 12  2  0
 12  2  1  0
 13  9  1  0
 14 13  1  0
 14 15  1  1
 16 15  1  0
 17 16  2  0
 18 17  1  0
 19 18  2  0
 19 20  1  0
 20 21  2  0
 21 16  1  0
 22 29  1  0
 22 14  1  0
 23 22  2  0
 24 25  1  0
 25 26  1  0
 26 27  1  1
 28 29  1  6
 28 26  1  0
 30 28  1  0
 31 30  2  0
 32 30  1  0
M  END
$$$$
