YFI.pdb
     RDKit          3D

 32 33  0  0  1  0  0  0  0  0999 V2000
   20.7235  -23.1569  -15.1639 O   0  0  0  0  0  0  0  0  0  0  0  0
   21.8510  -22.8391  -14.4254 C   0  0  0  0  0  0  0  0  0  0  0  0
   23.0822  -22.7255  -15.0450 C   0  0  0  0  0  0  0  0  0  0  0  0
   24.2087  -22.4055  -14.2915 C   0  0  0  0  0  0  0  0  0  0  0  0
   24.1427  -22.1944  -12.9319 C   0  0  0  0  0  0  0  0  0  0  0  0
   25.3469  -21.8529  -12.1293 C   0  0  0  0  0  0  0  0  0  0  0  0
   25.1330  -20.4644  -11.5685 C   0  0  2  0  0  0  0  0  0  0  0  0
   25.3205  -19.5281  -12.6463 N   0  0  0  0  0  0  0  0  0  0  0  0
   26.1186  -20.1733  -10.4989 C   0  0  0  0  0  0  0  0  0  0  0  0
   27.2953  -19.9251  -10.7866 O   0  0  0  0  0  0  0  0  0  0  0  0
   22.8907  -22.3165  -12.3421 C   0  0  0  0  0  0  0  0  0  0  0  0
   21.7668  -22.6338  -13.0810 C   0  0  0  0  0  0  0  0  0  0  0  0
   25.7364  -20.1734   -9.1363 N   0  0  0  0  0  0  0  0  0  0  0  0
   26.7197  -19.9041   -8.1334 C   0  0  1  0  0  0  0  0  0  0  0  0
   26.1337  -19.7327   -6.7528 C   0  0  0  0  0  0  0  0  0  0  0  0
   27.1685  -19.3427   -5.7456 C   0  0  0  0  0  0  0  0  0  0  0  0
   27.8282  -18.1596   -5.7494 C   0  0  0  0  0  0  0  0  0  0  0  0
   28.7656  -17.8863   -4.7818 C   0  0  0  0  0  0  0  0  0  0  0  0
   29.0600  -18.7953   -3.7902 C   0  0  0  0  0  0  0  0  0  0  0  0
   28.4005  -20.0050   -3.7678 C   0  0  0  0  0  0  0  0  0  0  0  0
   27.4680  -20.2487   -4.7499 C   0  0  0  0  0  0  0  0  0  0  0  0
   27.6575  -21.0467   -8.0665 C   0  0  0  0  0  0  0  0  0  0  0  0
   27.2942  -22.2478   -8.0044 O   0  0  0  0  0  0  0  0  0  0  0  0
   33.1289  -22.8884   -9.8764 C   0  0  0  0  0  0  0  0  0  0  0  0
   32.1127  -22.8855   -8.7872 C   0  0  0  0  0  0  0  0  0  0  0  0
   31.0198  -21.9000   -8.8726 C   0  0  2  0  0  0  0  0  0  0  0  0
   31.5116  -20.5547   -9.3764 C   0  0  0  0  0  0  0  0  0  0  0  0
   30.0376  -21.8557   -7.7664 C   0  0  2  0  0  0  0  0  0  0  0  0
   29.0485  -20.7891   -8.0718 N   0  0  0  0  0  0  0  0  0  0  0  0
   30.5983  -21.6199   -6.4540 C   0  0  0  0  0  0  0  0  0  0  0  0
   31.2955  -22.5150   -5.8633 O   0  0  0  0  0  0  0  0  0  0  0  0
   30.4323  -20.4395   -5.7624 O   0  0  0  0  0  0  0  0  0  0  0  0
  2  3  2  0
  2  1  1  0
  4  3  1  0
  5  4  2  0
  6  7  1  0
  6  5  1  0
  7  9  1  0
  7  8  1  6
  9 10  2  0
 11  5  1  0
 11 12  2  0
 12  2  1  0
 13  9  1  0
 14 13  1  0
 14 15  1  1
 16 15  1  0
 17 16  2  0
 18 17  1  0
 19 18  2  0
 19 20  1  0
 20 21  2  0
 21 16  1  0
 22 29  1  0
 22 14  1  0
 23 22  2  0
 24 25  1  0
 25 26  1  0
 26 27  1  1
 28 29  1  6
 28 26  1  0
 30 28  1  0
 31 30  2  0
 32 30  1  0
M  END
$$$$
