YFI.pdb
     RDKit          3D

 32 33  0  0  1  0  0  0  0  0999 V2000
   20.7482  -19.1765  -15.9582 O   0  0  0  0  0  0  0  0  0  0  0  0
   21.4562  -19.6083  -14.8492 C   0  0  0  0  0  0  0  0  0  0  0  0
   22.3400  -18.7577  -14.2105 C   0  0  0  0  0  0  0  0  0  0  0  0
   23.0461  -19.2037  -13.0962 C   0  0  0  0  0  0  0  0  0  0  0  0
   22.8958  -20.4791  -12.5982 C   0  0  0  0  0  0  0  0  0  0  0  0
   23.6509  -20.9533  -11.4084 C   0  0  0  0  0  0  0  0  0  0  0  0
   25.1130  -20.9988  -11.7940 C   0  0  2  0  0  0  0  0  0  0  0  0
   25.2894  -22.1092  -12.6937 N   0  0  0  0  0  0  0  0  0  0  0  0
   25.9647  -21.2066  -10.5975 C   0  0  0  0  0  0  0  0  0  0  0  0
   26.0511  -22.3268  -10.0810 O   0  0  0  0  0  0  0  0  0  0  0  0
   22.0001  -21.3068  -13.2639 C   0  0  0  0  0  0  0  0  0  0  0  0
   21.2946  -20.8737  -14.3704 C   0  0  0  0  0  0  0  0  0  0  0  0
   26.6913  -20.1353  -10.0255 N   0  0  0  0  0  0  0  0  0  0  0  0
   27.5060  -20.3773   -8.8754 C   0  0  1  0  0  0  0  0  0  0  0  0
   28.8199  -19.6344   -8.9069 C   0  0  0  0  0  0  0  0  0  0  0  0
   29.5829  -19.7843   -7.6291 C   0  0  0  0  0  0  0  0  0  0  0  0
   29.5947  -18.8635   -6.6356 C   0  0  0  0  0  0  0  0  0  0  0  0
   30.3265  -19.0862   -5.4935 C   0  0  0  0  0  0  0  0  0  0  0  0
   31.0617  -20.2383   -5.3252 C   0  0  0  0  0  0  0  0  0  0  0  0
   31.0637  -21.1881   -6.3235 C   0  0  0  0  0  0  0  0  0  0  0  0
   30.3214  -20.9359   -7.4542 C   0  0  0  0  0  0  0  0  0  0  0  0
   26.7787  -19.9190   -7.6711 C   0  0  0  0  0  0  0  0  0  0  0  0
   26.0906  -18.8687   -7.6262 O   0  0  0  0  0  0  0  0  0  0  0  0
   26.9309  -22.2593   -2.8703 C   0  0  0  0  0  0  0  0  0  0  0  0
   26.1846  -22.5602   -4.1239 C   0  0  0  0  0  0  0  0  0  0  0  0
   25.4070  -21.4683   -4.7372 C   0  0  2  0  0  0  0  0  0  0  0  0
   24.3020  -21.9975   -5.6341 C   0  0  0  0  0  0  0  0  0  0  0  0
   26.1462  -20.2924   -5.2482 C   0  0  2  0  0  0  0  0  0  0  0  0
   26.8518  -20.6975   -6.4922 N   0  0  0  0  0  0  0  0  0  0  0  0
   27.1021  -19.7178   -4.3273 C   0  0  0  0  0  0  0  0  0  0  0  0
   28.3254  -20.0916   -4.3269 O   0  0  0  0  0  0  0  0  0  0  0  0
   26.7750  -18.7441   -3.4086 O   0  0  0  0  0  0  0  0  0  0  0  0
  2  3  2  0
  2  1  1  0
  4  3  1  0
  5  4  2  0
  6  7  1  0
  6  5  1  0
  7  9  1  0
  7  8  1  6
  9 10  2  0
 11  5  1  0
 11 12  2  0
 12  2  1  0
 13  9  1  0
 14 13  1  0
 14 15  1  6
 16 15  1  0
 17 16  2  0
 18 17  1  0
 19 18  2  0
 19 20  1  0
 20 21  2  0
 21 16  1  0
 22 29  1  0
 22 14  1  0
 23 22  2  0
 24 25  1  0
 25 26  1  0
 26 27  1  6
 28 29  1  6
 28 26  1  0
 30 28  1  0
 31 30  2  0
 32 30  1  0
M  END
$$$$
