YFI.pdb
     RDKit          3D

 32 33  0  0  1  0  0  0  0  0999 V2000
   21.4795  -22.5526  -22.6289 O   0  0  0  0  0  0  0  0  0  0  0  0
   22.4230  -22.7218  -21.6295 C   0  0  0  0  0  0  0  0  0  0  0  0
   22.3169  -22.0189  -20.4431 C   0  0  0  0  0  0  0  0  0  0  0  0
   23.2720  -22.1977  -19.4457 C   0  0  0  0  0  0  0  0  0  0  0  0
   24.3346  -23.0610  -19.5976 C   0  0  0  0  0  0  0  0  0  0  0  0
   25.3533  -23.2502  -18.5312 C   0  0  0  0  0  0  0  0  0  0  0  0
   26.1608  -21.9736  -18.4509 C   0  0  2  0  0  0  0  0  0  0  0  0
   27.3623  -22.1717  -19.2196 N   0  0  0  0  0  0  0  0  0  0  0  0
   26.5303  -21.6743  -17.0458 C   0  0  0  0  0  0  0  0  0  0  0  0
   27.4944  -22.2430  -16.5204 O   0  0  0  0  0  0  0  0  0  0  0  0
   24.4103  -23.7507  -20.8013 C   0  0  0  0  0  0  0  0  0  0  0  0
   23.4677  -23.5803  -21.7973 C   0  0  0  0  0  0  0  0  0  0  0  0
   25.7930  -20.7384  -16.2821 N   0  0  0  0  0  0  0  0  0  0  0  0
   26.3116  -20.2976  -15.0244 C   0  0  1  0  0  0  0  0  0  0  0  0
   26.3800  -18.7947  -14.8999 C   0  0  0  0  0  0  0  0  0  0  0  0
   27.4079  -18.1999  -15.8093 C   0  0  0  0  0  0  0  0  0  0  0  0
   27.1187  -17.4469  -16.8976 C   0  0  0  0  0  0  0  0  0  0  0  0
   28.1307  -16.9401  -17.6778 C   0  0  0  0  0  0  0  0  0  0  0  0
   29.4541  -17.1790  -17.3815 C   0  0  0  0  0  0  0  0  0  0  0  0
   29.7704  -17.9426  -16.2789 C   0  0  0  0  0  0  0  0  0  0  0  0
   28.7352  -18.4354  -15.5181 C   0  0  0  0  0  0  0  0  0  0  0  0
   25.4212  -20.7810  -13.9459 C   0  0  0  0  0  0  0  0  0  0  0  0
   24.2118  -21.0758  -14.1161 O   0  0  0  0  0  0  0  0  0  0  0  0
   25.8855  -20.5774   -7.7224 C   0  0  0  0  0  0  0  0  0  0  0  0
   25.1589  -21.0237   -8.9438 C   0  0  0  0  0  0  0  0  0  0  0  0
   25.8250  -20.8334  -10.2450 C   0  0  2  0  0  0  0  0  0  0  0  0
   26.6169  -19.5386  -10.2892 C   0  0  0  0  0  0  0  0  0  0  0  0
   25.0636  -21.1669  -11.4695 C   0  0  2  0  0  0  0  0  0  0  0  0
   25.9467  -20.9253  -12.6405 N   0  0  0  0  0  0  0  0  0  0  0  0
   23.8302  -20.4326  -11.6470 C   0  0  0  0  0  0  0  0  0  0  0  0
   22.7409  -20.8315  -11.1079 O   0  0  0  0  0  0  0  0  0  0  0  0
   23.7407  -19.2734  -12.3868 O   0  0  0  0  0  0  0  0  0  0  0  0
  2  3  2  0
  2  1  1  0
  4  3  1  0
  5  4  2  0
  6  7  1  0
  6  5  1  0
  7  9  1  0
  7  8  1  6
  9 10  2  0
 11  5  1  0
 11 12  2  0
 12  2  1  0
 13  9  1  0
 14 13  1  0
 14 15  1  6
 16 15  1  0
 17 16  2  0
 18 17  1  0
 19 18  2  0
 19 20  1  0
 20 21  2  0
 21 16  1  0
 22 29  1  0
 22 14  1  0
 23 22  2  0
 24 25  1  0
 25 26  1  0
 26 27  1  6
 28 29  1  6
 28 26  1  0
 30 28  1  0
 31 30  2  0
 32 30  1  0
M  END
$$$$
