YFI.pdb
     RDKit          3D

 32 33  0  0  1  0  0  0  0  0999 V2000
   29.0778  -14.4376  -17.1245 O   0  0  0  0  0  0  0  0  0  0  0  0
   28.4714  -15.5702  -16.6077 C   0  0  0  0  0  0  0  0  0  0  0  0
   27.8602  -15.5308  -15.3677 C   0  0  0  0  0  0  0  0  0  0  0  0
   27.2537  -16.6764  -14.8589 C   0  0  0  0  0  0  0  0  0  0  0  0
   27.2389  -17.8656  -15.5538 C   0  0  0  0  0  0  0  0  0  0  0  0
   26.5909  -19.0876  -15.0085 C   0  0  0  0  0  0  0  0  0  0  0  0
   27.4645  -19.5938  -13.8820 C   0  0  2  0  0  0  0  0  0  0  0  0
   28.5319  -20.3595  -14.4719 N   0  0  0  0  0  0  0  0  0  0  0  0
   26.6889  -20.4693  -12.9698 C   0  0  0  0  0  0  0  0  0  0  0  0
   26.4303  -21.6341  -13.2945 O   0  0  0  0  0  0  0  0  0  0  0  0
   27.8619  -17.8697  -16.7957 C   0  0  0  0  0  0  0  0  0  0  0  0
   28.4665  -16.7382  -17.3095 C   0  0  0  0  0  0  0  0  0  0  0  0
   26.2317  -19.9941  -11.7176 N   0  0  0  0  0  0  0  0  0  0  0  0
   25.2991  -20.7785  -10.9694 C   0  0  1  0  0  0  0  0  0  0  0  0
   25.2930  -20.4542   -9.4950 C   0  0  0  0  0  0  0  0  0  0  0  0
   26.6579  -20.5511   -8.8909 C   0  0  0  0  0  0  0  0  0  0  0  0
   27.6056  -21.4345   -9.2862 C   0  0  0  0  0  0  0  0  0  0  0  0
   28.8354  -21.4520   -8.6722 C   0  0  0  0  0  0  0  0  0  0  0  0
   29.1391  -20.5826   -7.6484 C   0  0  0  0  0  0  0  0  0  0  0  0
   28.1894  -19.6758   -7.2306 C   0  0  0  0  0  0  0  0  0  0  0  0
   26.9684  -19.6832   -7.8650 C   0  0  0  0  0  0  0  0  0  0  0  0
   23.9353  -20.5101  -11.4770 C   0  0  0  0  0  0  0  0  0  0  0  0
   23.4775  -19.3575  -11.6782 O   0  0  0  0  0  0  0  0  0  0  0  0
   20.6622  -23.0844  -15.7883 C   0  0  0  0  0  0  0  0  0  0  0  0
   20.6259  -22.2471  -14.5567 C   0  0  0  0  0  0  0  0  0  0  0  0
   21.8347  -22.2162  -13.7136 C   0  0  2  0  0  0  0  0  0  0  0  0
   22.4809  -23.5858  -13.6037 C   0  0  0  0  0  0  0  0  0  0  0  0
   21.7902  -21.4211  -12.4661 C   0  0  2  0  0  0  0  0  0  0  0  0
   23.0838  -21.6044  -11.7573 N   0  0  0  0  0  0  0  0  0  0  0  0
   20.7064  -21.7479  -11.5658 C   0  0  0  0  0  0  0  0  0  0  0  0
   19.4913  -21.4969  -11.8767 O   0  0  0  0  0  0  0  0  0  0  0  0
   20.8976  -22.3452  -10.3386 O   0  0  0  0  0  0  0  0  0  0  0  0
  2  3  2  0
  2  1  1  0
  4  3  1  0
  5  4  2  0
  6  7  1  0
  6  5  1  0
  7  9  1  0
  7  8  1  6
  9 10  2  0
 11  5  1  0
 11 12  2  0
 12  2  1  0
 13  9  1  0
 14 13  1  0
 14 15  1  1
 16 15  1  0
 17 16  2  0
 18 17  1  0
 19 18  2  0
 19 20  1  0
 20 21  2  0
 21 16  1  0
 22 29  1  0
 22 14  1  0
 23 22  2  0
 24 25  1  0
 25 26  1  0
 26 27  1  1
 28 29  1  1
 28 26  1  0
 30 28  1  0
 31 30  2  0
 32 30  1  0
M  END
$$$$
