YFI.pdb
     RDKit          3D

 32 33  0  0  1  0  0  0  0  0999 V2000
   21.6052  -25.7341  -23.9329 O   0  0  0  0  0  0  0  0  0  0  0  0
   21.6605  -25.6410  -22.5524 C   0  0  0  0  0  0  0  0  0  0  0  0
   20.6241  -25.0532  -21.8502 C   0  0  0  0  0  0  0  0  0  0  0  0
   20.6915  -24.9655  -20.4621 C   0  0  0  0  0  0  0  0  0  0  0  0
   21.7672  -25.4492  -19.7506 C   0  0  0  0  0  0  0  0  0  0  0  0
   21.8370  -25.3543  -18.2685 C   0  0  0  0  0  0  0  0  0  0  0  0
   21.9183  -23.8854  -17.9164 C   0  0  2  0  0  0  0  0  0  0  0  0
   23.2656  -23.4505  -18.1797 N   0  0  0  0  0  0  0  0  0  0  0  0
   21.6140  -23.6727  -16.4803 C   0  0  0  0  0  0  0  0  0  0  0  0
   22.4312  -24.0063  -15.6142 O   0  0  0  0  0  0  0  0  0  0  0  0
   22.7902  -26.0333  -20.4874 C   0  0  0  0  0  0  0  0  0  0  0  0
   22.7328  -26.1251  -21.8651 C   0  0  0  0  0  0  0  0  0  0  0  0
   20.3913  -23.0878  -16.0734 N   0  0  0  0  0  0  0  0  0  0  0  0
   20.1467  -22.8744  -14.6807 C   0  0  1  0  0  0  0  0  0  0  0  0
   19.8173  -21.4399  -14.3448 C   0  0  0  0  0  0  0  0  0  0  0  0
   20.9683  -20.5211  -14.6062 C   0  0  0  0  0  0  0  0  0  0  0  0
   21.9019  -20.1870  -13.6832 C   0  0  0  0  0  0  0  0  0  0  0  0
   22.9275  -19.3333  -14.0132 C   0  0  0  0  0  0  0  0  0  0  0  0
   23.0370  -18.7973  -15.2769 C   0  0  0  0  0  0  0  0  0  0  0  0
   22.0980  -19.1240  -16.2310 C   0  0  0  0  0  0  0  0  0  0  0  0
   21.0838  -19.9809  -15.8699 C   0  0  0  0  0  0  0  0  0  0  0  0
   18.9843  -23.6927  -14.2700 C   0  0  0  0  0  0  0  0  0  0  0  0
   17.9134  -23.7651  -14.9232 O   0  0  0  0  0  0  0  0  0  0  0  0
   19.3249  -26.7456   -9.2872 C   0  0  0  0  0  0  0  0  0  0  0  0
   18.7951  -25.7713  -10.2818 C   0  0  0  0  0  0  0  0  0  0  0  0
   18.4836  -26.2724  -11.6327 C   0  0  2  0  0  0  0  0  0  0  0  0
   19.5534  -27.2217  -12.1427 C   0  0  0  0  0  0  0  0  0  0  0  0
   17.9476  -25.3115  -12.6225 C   0  0  2  0  0  0  0  0  0  0  0  0
   19.0668  -24.4439  -13.0742 N   0  0  0  0  0  0  0  0  0  0  0  0
   16.8644  -24.4786  -12.1483 C   0  0  0  0  0  0  0  0  0  0  0  0
   15.6921  -24.9583  -11.9698 O   0  0  0  0  0  0  0  0  0  0  0  0
   17.0130  -23.1404  -11.8545 O   0  0  0  0  0  0  0  0  0  0  0  0
  2  3  2  0
  2  1  1  0
  4  3  1  0
  5  4  2  0
  6  7  1  0
  6  5  1  0
  7  9  1  0
  7  8  1  1
  9 10  2  0
 11  5  1  0
 11 12  2  0
 12  2  1  0
 13  9  1  0
 14 13  1  0
 14 15  1  6
 16 15  1  0
 17 16  2  0
 18 17  1  0
 19 18  2  0
 19 20  1  0
 20 21  2  0
 21 16  1  0
 22 29  1  0
 22 14  1  0
 23 22  2  0
 24 25  1  0
 25 26  1  0
 26 27  1  6
 28 29  1  1
 28 26  1  0
 30 28  1  0
 31 30  2  0
 32 30  1  0
M  END
$$$$
