YFI.pdb
     RDKit          3D

 32 33  0  0  1  0  0  0  0  0999 V2000
   23.2864  -12.9802  -25.2915 O   0  0  0  0  0  0  0  0  0  0  0  0
   22.8672  -12.4250  -24.0942 C   0  0  0  0  0  0  0  0  0  0  0  0
   22.1019  -13.1653  -23.2115 C   0  0  0  0  0  0  0  0  0  0  0  0
   21.6864  -12.5958  -22.0106 C   0  0  0  0  0  0  0  0  0  0  0  0
   22.0134  -11.3037  -21.6628 C   0  0  0  0  0  0  0  0  0  0  0  0
   21.5686  -10.6976  -20.3800 C   0  0  0  0  0  0  0  0  0  0  0  0
   22.7797  -10.6196  -19.4770 C   0  0  2  0  0  0  0  0  0  0  0  0
   23.0782  -11.9574  -19.0358 N   0  0  0  0  0  0  0  0  0  0  0  0
   22.4972   -9.7721  -18.2929 C   0  0  0  0  0  0  0  0  0  0  0  0
   21.7967  -10.2045  -17.3701 O   0  0  0  0  0  0  0  0  0  0  0  0
   22.7830  -10.5890  -22.5724 C   0  0  0  0  0  0  0  0  0  0  0  0
   23.2003  -11.1450  -23.7667 C   0  0  0  0  0  0  0  0  0  0  0  0
   23.0192   -8.4605  -18.1943 N   0  0  0  0  0  0  0  0  0  0  0  0
   22.7768   -7.6978  -17.0092 C   0  0  1  0  0  0  0  0  0  0  0  0
   24.0397   -7.1884  -16.3576 C   0  0  0  0  0  0  0  0  0  0  0  0
   24.9589   -8.3007  -15.9637 C   0  0  0  0  0  0  0  0  0  0  0  0
   24.7791   -9.0898  -14.8774 C   0  0  0  0  0  0  0  0  0  0  0  0
   25.6772  -10.0906  -14.5921 C   0  0  0  0  0  0  0  0  0  0  0  0
   26.7747  -10.3198  -15.3916 C   0  0  0  0  0  0  0  0  0  0  0  0
   26.9766   -9.5286  -16.5016 C   0  0  0  0  0  0  0  0  0  0  0  0
   26.0600   -8.5355  -16.7603 C   0  0  0  0  0  0  0  0  0  0  0  0
   21.9643   -6.5128  -17.3629 C   0  0  0  0  0  0  0  0  0  0  0  0
   22.2535   -5.7176  -18.2917 O   0  0  0  0  0  0  0  0  0  0  0  0
   17.2039   -7.1222  -19.0154 C   0  0  0  0  0  0  0  0  0  0  0  0
   18.5187   -6.5451  -18.6188 C   0  0  0  0  0  0  0  0  0  0  0  0
   18.5697   -5.7417  -17.3838 C   0  0  2  0  0  0  0  0  0  0  0  0
   17.3563   -4.8391  -17.2477 C   0  0  0  0  0  0  0  0  0  0  0  0
   19.8670   -5.1422  -16.9992 C   0  0  2  0  0  0  0  0  0  0  0  0
   20.7895   -6.2449  -16.6218 N   0  0  0  0  0  0  0  0  0  0  0  0
   19.8061   -4.1844  -15.9171 C   0  0  0  0  0  0  0  0  0  0  0  0
   19.8788   -4.5612  -14.6969 O   0  0  0  0  0  0  0  0  0  0  0  0
   19.6748   -2.8270  -16.1160 O   0  0  0  0  0  0  0  0  0  0  0  0
  2  3  2  0
  2  1  1  0
  4  3  1  0
  5  4  2  0
  6  7  1  0
  6  5  1  0
  7  9  1  0
  7  8  1  1
  9 10  2  0
 11  5  1  0
 11 12  2  0
 12  2  1  0
 13  9  1  0
 14 13  1  0
 14 15  1  6
 16 15  1  0
 17 16  2  0
 18 17  1  0
 19 18  2  0
 19 20  1  0
 20 21  2  0
 21 16  1  0
 22 29  1  0
 22 14  1  0
 23 22  2  0
 24 25  1  0
 25 26  1  0
 26 27  1  6
 28 29  1  1
 28 26  1  0
 30 28  1  0
 31 30  2  0
 32 30  1  0
M  END
$$$$
