QYW.pdb
     RDKit          3D

 36 38  0  0  1  0  0  0  0  0999 V2000
   23.7550  -12.2770  -19.3578 N   0  0  0  0  0  0  0  0  0  0  0  0
   22.6704  -13.1721  -19.6551 C   0  0  0  0  0  0  0  0  0  0  0  0
   22.7113  -14.3540  -19.2398 O   0  0  0  0  0  0  0  0  0  0  0  0
   21.5519  -12.6707  -20.4301 C   0  0  0  0  0  0  0  0  0  0  0  0
   21.6718  -11.2460  -20.8017 C   0  0  0  0  0  0  0  0  0  0  0  0
   20.5081  -10.5986  -21.4622 C   0  0  2  0  0  0  0  0  0  0  0  0
   20.3807  -10.8426  -22.8692 N   0  0  0  0  0  0  0  0  0  0  0  0
   20.5163   -9.1295  -21.2304 C   0  0  0  0  0  0  0  0  0  0  0  0
   20.7623   -8.3800  -22.2190 O   0  0  0  0  0  0  0  0  0  0  0  0
   18.4407   -0.9179  -19.9374 O   0  0  0  0  0  0  0  0  0  0  0  0
   18.6170   -2.2984  -20.1445 C   0  0  0  0  0  0  0  0  0  0  0  0
   17.7703   -3.2116  -19.5562 C   0  0  0  0  0  0  0  0  0  0  0  0
   17.9378   -4.5658  -19.7550 C   0  0  0  0  0  0  0  0  0  0  0  0
   18.9642   -5.0624  -20.5543 C   0  0  0  0  0  0  0  0  0  0  0  0
   19.1693   -6.4973  -20.7181 C   0  0  0  0  0  0  0  0  0  0  0  0
   20.2103   -7.0532  -19.8206 C   0  0  2  0  0  0  0  0  0  0  0  0
   20.2710   -8.5287  -20.0006 N   0  0  0  0  0  0  0  0  0  0  0  0
   19.9218   -6.8499  -18.4078 C   0  0  0  0  0  0  0  0  0  0  0  0
   19.0298   -7.5824  -17.8550 O   0  0  0  0  0  0  0  0  0  0  0  0
   19.8040   -4.1457  -21.1375 C   0  0  0  0  0  0  0  0  0  0  0  0
   19.6365   -2.7711  -20.9375 C   0  0  0  0  0  0  0  0  0  0  0  0
   20.5290   -5.9159  -17.5292 N   0  0  0  0  0  0  0  0  0  0  0  0
   20.1210   -5.7707  -16.1457 C   0  0  1  0  0  0  0  0  0  0  0  0
   21.3520   -5.9557  -15.2667 C   0  0  0  0  0  0  0  0  0  0  0  0
   21.2761   -7.2081  -14.5035 C   0  0  0  0  0  0  0  0  0  0  0  0
   20.3086   -7.5869  -13.6006 C   0  0  0  0  0  0  0  0  0  0  0  0
   20.6157   -8.8187  -13.1216 N   0  0  0  0  0  0  0  0  0  0  0  0
   21.7571   -9.2606  -13.6834 C   0  0  0  0  0  0  0  0  0  0  0  0
   22.4632  -10.4418  -13.5169 C   0  0  0  0  0  0  0  0  0  0  0  0
   23.6200  -10.6086  -14.2453 C   0  0  0  0  0  0  0  0  0  0  0  0
   24.0496   -9.6274  -15.1067 C   0  0  0  0  0  0  0  0  0  0  0  0
   23.3244   -8.4544  -15.2551 C   0  0  0  0  0  0  0  0  0  0  0  0
   22.1740   -8.2652  -14.5437 C   0  0  0  0  0  0  0  0  0  0  0  0
   19.3996   -4.5431  -15.8409 C   0  0  0  0  0  0  0  0  0  0  0  0
   19.4653   -3.4810  -16.5018 O   0  0  0  0  0  0  0  0  0  0  0  0
   18.5383   -4.4727  -14.7248 O   0  0  0  0  0  0  0  0  0  0  0  0
  2  1  1  0
  3  2  2  0
  4  2  1  0
  5  6  1  0
  5  4  1  0
  6  7  1  6
  8  9  2  0
  8  6  1  0
 10 11  1  0
 11 12  2  0
 12 13  1  0
 14 13  2  0
 14 15  1  0
 16 15  1  6
 16 17  1  0
 17  8  1  0
 18 19  2  0
 18 16  1  0
 20 14  1  0
 21 11  1  0
 21 20  2  0
 22 18  1  0
 23 24  1  1
 23 22  1  0
 25 24  1  0
 25 33  1  0
 26 27  1  0
 26 25  2  0
 27 28  1  0
 28 29  2  0
 28 33  1  0
 29 30  1  0
 30 31  2  0
 32 31  1  0
 33 32  2  0
 34 23  1  0
 35 34  2  0
 36 34  1  0
M  END
$$$$
