QYW.pdb
     RDKit          3D

 36 38  0  0  1  0  0  0  0  0999 V2000
   29.2716  -19.9270  -21.1137 N   0  0  0  0  0  0  0  0  0  0  0  0
   30.1476  -21.0664  -21.0950 C   0  0  0  0  0  0  0  0  0  0  0  0
   30.6502  -21.4788  -22.1666 O   0  0  0  0  0  0  0  0  0  0  0  0
   30.4263  -21.7042  -19.8227 C   0  0  0  0  0  0  0  0  0  0  0  0
   29.8087  -21.0258  -18.6650 C   0  0  0  0  0  0  0  0  0  0  0  0
   29.4277  -21.8571  -17.4930 C   0  0  2  0  0  0  0  0  0  0  0  0
   28.5380  -22.9465  -17.7702 N   0  0  0  0  0  0  0  0  0  0  0  0
   28.8355  -21.0178  -16.4174 C   0  0  0  0  0  0  0  0  0  0  0  0
   29.5538  -20.1005  -15.9252 O   0  0  0  0  0  0  0  0  0  0  0  0
   28.4013  -15.1495  -18.6290 O   0  0  0  0  0  0  0  0  0  0  0  0
   27.8174  -16.1909  -17.8844 C   0  0  0  0  0  0  0  0  0  0  0  0
   27.3736  -17.3368  -18.5063 C   0  0  0  0  0  0  0  0  0  0  0  0
   26.8002  -18.3609  -17.7824 C   0  0  0  0  0  0  0  0  0  0  0  0
   26.6476  -18.2786  -16.4007 C   0  0  0  0  0  0  0  0  0  0  0  0
   25.9922  -19.3416  -15.6469 C   0  0  0  0  0  0  0  0  0  0  0  0
   26.9390  -20.2365  -14.9393 C   0  0  2  0  0  0  0  0  0  0  0  0
   27.5467  -21.1757  -15.9199 N   0  0  0  0  0  0  0  0  0  0  0  0
   26.2971  -21.0829  -13.9433 C   0  0  0  0  0  0  0  0  0  0  0  0
   25.8991  -22.2470  -14.2961 O   0  0  0  0  0  0  0  0  0  0  0  0
   27.0927  -17.1330  -15.7880 C   0  0  0  0  0  0  0  0  0  0  0  0
   27.6747  -16.0923  -16.5200 C   0  0  0  0  0  0  0  0  0  0  0  0
   26.0533  -20.7771  -12.5794 N   0  0  0  0  0  0  0  0  0  0  0  0
   25.3907  -21.7024  -11.6813 C   0  0  1  0  0  0  0  0  0  0  0  0
   26.3656  -22.0607  -10.5662 C   0  0  0  0  0  0  0  0  0  0  0  0
   26.5143  -20.9522   -9.6144 C   0  0  0  0  0  0  0  0  0  0  0  0
   25.5908  -19.9802   -9.3026 C   0  0  0  0  0  0  0  0  0  0  0  0
   26.1284  -19.1474   -8.3761 N   0  0  0  0  0  0  0  0  0  0  0  0
   27.3786  -19.5437   -8.0699 C   0  0  0  0  0  0  0  0  0  0  0  0
   28.3161  -19.0225   -7.1918 C   0  0  0  0  0  0  0  0  0  0  0  0
   29.5323  -19.6612   -7.0946 C   0  0  0  0  0  0  0  0  0  0  0  0
   29.7953  -20.7793   -7.8498 C   0  0  0  0  0  0  0  0  0  0  0  0
   28.8396  -21.2808   -8.7210 C   0  0  0  0  0  0  0  0  0  0  0  0
   27.6261  -20.6651   -8.8354 C   0  0  0  0  0  0  0  0  0  0  0  0
   24.1036  -21.2518  -11.1710 C   0  0  0  0  0  0  0  0  0  0  0  0
   23.2660  -21.9720  -10.5801 O   0  0  0  0  0  0  0  0  0  0  0  0
   23.7016  -19.9067  -11.3188 O   0  0  0  0  0  0  0  0  0  0  0  0
  2  1  1  0
  3  2  2  0
  4  2  1  0
  5  6  1  0
  5  4  1  0
  6  7  1  6
  8  9  2  0
  8  6  1  0
 10 11  1  0
 11 12  2  0
 12 13  1  0
 14 13  2  0
 14 15  1  0
 16 15  1  6
 16 17  1  0
 17  8  1  0
 18 19  2  0
 18 16  1  0
 20 14  1  0
 21 11  1  0
 21 20  2  0
 22 18  1  0
 23 24  1  1
 23 22  1  0
 25 24  1  0
 25 33  1  0
 26 27  1  0
 26 25  2  0
 27 28  1  0
 28 29  2  0
 28 33  1  0
 29 30  1  0
 30 31  2  0
 32 31  1  0
 33 32  2  0
 34 23  1  0
 35 34  2  0
 36 34  1  0
M  END
$$$$
