QYW.pdb
     RDKit          3D

 36 38  0  0  1  0  0  0  0  0999 V2000
   28.8337  -23.5029  -16.3914 N   0  0  0  0  0  0  0  0  0  0  0  0
   27.9616  -22.6236  -17.1210 C   0  0  0  0  0  0  0  0  0  0  0  0
   28.1189  -21.3832  -17.0342 O   0  0  0  0  0  0  0  0  0  0  0  0
   26.9210  -23.2081  -17.9448 C   0  0  0  0  0  0  0  0  0  0  0  0
   25.5674  -23.1045  -17.3625 C   0  0  0  0  0  0  0  0  0  0  0  0
   25.2733  -23.8963  -16.1392 C   0  0  2  0  0  0  0  0  0  0  0  0
   25.1561  -25.3120  -16.3320 N   0  0  0  0  0  0  0  0  0  0  0  0
   24.0407  -23.4009  -15.4704 C   0  0  0  0  0  0  0  0  0  0  0  0
   22.9748  -24.0602  -15.6398 O   0  0  0  0  0  0  0  0  0  0  0  0
   18.7163  -18.9315   -9.8596 O   0  0  0  0  0  0  0  0  0  0  0  0
   19.7868  -19.5081  -10.5675 C   0  0  0  0  0  0  0  0  0  0  0  0
   20.0542  -20.8552  -10.4636 C   0  0  0  0  0  0  0  0  0  0  0  0
   21.1020  -21.4265  -11.1545 C   0  0  0  0  0  0  0  0  0  0  0  0
   21.9278  -20.6687  -11.9809 C   0  0  0  0  0  0  0  0  0  0  0  0
   23.0669  -21.2678  -12.6673 C   0  0  0  0  0  0  0  0  0  0  0  0
   22.7354  -21.8025  -14.0098 C   0  0  2  0  0  0  0  0  0  0  0  0
   23.9849  -22.2635  -14.6725 N   0  0  0  0  0  0  0  0  0  0  0  0
   22.1717  -20.8022  -14.9055 C   0  0  0  0  0  0  0  0  0  0  0  0
   22.9703  -20.1054  -15.6229 O   0  0  0  0  0  0  0  0  0  0  0  0
   21.6547  -19.3265  -12.0794 C   0  0  0  0  0  0  0  0  0  0  0  0
   20.5923  -18.7442  -11.3794 C   0  0  0  0  0  0  0  0  0  0  0  0
   20.8007  -20.4931  -15.0997 N   0  0  0  0  0  0  0  0  0  0  0  0
   20.3581  -19.4667  -16.0230 C   0  0  1  0  0  0  0  0  0  0  0  0
   20.9348  -19.7848  -17.3973 C   0  0  0  0  0  0  0  0  0  0  0  0
   20.5885  -18.7430  -18.3726 C   0  0  0  0  0  0  0  0  0  0  0  0
   21.1036  -17.4697  -18.4636 C   0  0  0  0  0  0  0  0  0  0  0  0
   20.5126  -16.8323  -19.5053 N   0  0  0  0  0  0  0  0  0  0  0  0
   19.6238  -17.6496  -20.1018 C   0  0  0  0  0  0  0  0  0  0  0  0
   18.7868  -17.4557  -21.1897 C   0  0  0  0  0  0  0  0  0  0  0  0
   17.9749  -18.5005  -21.5717 C   0  0  0  0  0  0  0  0  0  0  0  0
   18.0034  -19.6923  -20.8875 C   0  0  0  0  0  0  0  0  0  0  0  0
   18.8503  -19.8605  -19.8020 C   0  0  0  0  0  0  0  0  0  0  0  0
   19.6650  -18.8394  -19.4037 C   0  0  0  0  0  0  0  0  0  0  0  0
   18.9187  -19.2501  -16.0607 C   0  0  0  0  0  0  0  0  0  0  0  0
   18.0497  -20.1523  -16.0492 O   0  0  0  0  0  0  0  0  0  0  0  0
   18.3888  -17.9429  -16.1152 O   0  0  0  0  0  0  0  0  0  0  0  0
  2  1  1  0
  3  2  2  0
  4  2  1  0
  5  6  1  0
  5  4  1  0
  6  7  1  6
  8  9  2  0
  8  6  1  0
 10 11  1  0
 11 12  2  0
 12 13  1  0
 14 13  2  0
 14 15  1  0
 16 15  1  1
 16 17  1  0
 17  8  1  0
 18 19  2  0
 18 16  1  0
 20 14  1  0
 21 11  1  0
 21 20  2  0
 22 18  1  0
 23 24  1  6
 23 22  1  0
 25 24  1  0
 25 33  1  0
 26 27  1  0
 26 25  2  0
 27 28  1  0
 28 29  2  0
 28 33  1  0
 29 30  1  0
 30 31  2  0
 32 31  1  0
 33 32  2  0
 34 23  1  0
 35 34  2  0
 36 34  1  0
M  END
$$$$
