QYW.pdb
     RDKit          3D

 36 38  0  0  1  0  0  0  0  0999 V2000
   26.0306  -34.1172  -15.2783 N   0  0  0  0  0  0  0  0  0  0  0  0
   26.5690  -33.7056  -14.0108 C   0  0  0  0  0  0  0  0  0  0  0  0
   25.8830  -33.8467  -12.9713 O   0  0  0  0  0  0  0  0  0  0  0  0
   27.9036  -33.1391  -13.9769 C   0  0  0  0  0  0  0  0  0  0  0  0
   28.5899  -33.1451  -15.2849 C   0  0  0  0  0  0  0  0  0  0  0  0
   28.9885  -31.8371  -15.8680 C   0  0  2  0  0  0  0  0  0  0  0  0
   27.9439  -30.8605  -15.9685 N   0  0  0  0  0  0  0  0  0  0  0  0
   29.6033  -32.0197  -17.2099 C   0  0  0  0  0  0  0  0  0  0  0  0
   28.8636  -31.8548  -18.2225 O   0  0  0  0  0  0  0  0  0  0  0  0
   30.1029  -27.0857  -21.9492 O   0  0  0  0  0  0  0  0  0  0  0  0
   30.6668  -28.1588  -21.2350 C   0  0  0  0  0  0  0  0  0  0  0  0
   30.9133  -28.0524  -19.8842 C   0  0  0  0  0  0  0  0  0  0  0  0
   31.4660  -29.1003  -19.1785 C   0  0  0  0  0  0  0  0  0  0  0  0
   31.7956  -30.3023  -19.7997 C   0  0  0  0  0  0  0  0  0  0  0  0
   32.4291  -31.3879  -19.0597 C   0  0  0  0  0  0  0  0  0  0  0  0
   31.5191  -32.5246  -18.7805 C   0  0  2  0  0  0  0  0  0  0  0  0
   30.9350  -32.3585  -17.4224 N   0  0  0  0  0  0  0  0  0  0  0  0
   32.1977  -33.8127  -18.7521 C   0  0  0  0  0  0  0  0  0  0  0  0
   32.5515  -34.2919  -17.6194 O   0  0  0  0  0  0  0  0  0  0  0  0
   31.5466  -30.4007  -21.1466 C   0  0  0  0  0  0  0  0  0  0  0  0
   30.9860  -29.3390  -21.8651 C   0  0  0  0  0  0  0  0  0  0  0  0
   32.5231  -34.6407  -19.8574 N   0  0  0  0  0  0  0  0  0  0  0  0
   33.1750  -35.9261  -19.7009 C   0  0  1  0  0  0  0  0  0  0  0  0
   32.4663  -36.6841  -18.5849 C   0  0  0  0  0  0  0  0  0  0  0  0
   33.0727  -38.0045  -18.3716 C   0  0  0  0  0  0  0  0  0  0  0  0
   34.2602  -38.2937  -17.7384 C   0  0  0  0  0  0  0  0  0  0  0  0
   34.4507  -39.6369  -17.7583 N   0  0  0  0  0  0  0  0  0  0  0  0
   33.4229  -40.2392  -18.3864 C   0  0  0  0  0  0  0  0  0  0  0  0
   33.1681  -41.5754  -18.6534 C   0  0  0  0  0  0  0  0  0  0  0  0
   32.0086  -41.8876  -19.3275 C   0  0  0  0  0  0  0  0  0  0  0  0
   31.1399  -40.8962  -19.7175 C   0  0  0  0  0  0  0  0  0  0  0  0
   31.4183  -39.5665  -19.4378 C   0  0  0  0  0  0  0  0  0  0  0  0
   32.5618  -39.2314  -18.7706 C   0  0  0  0  0  0  0  0  0  0  0  0
   33.2895  -36.7123  -20.9212 C   0  0  0  0  0  0  0  0  0  0  0  0
   34.1746  -37.5686  -21.1510 O   0  0  0  0  0  0  0  0  0  0  0  0
   32.3622  -36.5483  -21.9727 O   0  0  0  0  0  0  0  0  0  0  0  0
  2  1  1  0
  3  2  2  0
  4  2  1  0
  5  6  1  0
  5  4  1  0
  6  7  1  6
  8  9  2  0
  8  6  1  0
 10 11  1  0
 11 12  2  0
 12 13  1  0
 14 13  2  0
 14 15  1  0
 16 15  1  1
 16 17  1  0
 17  8  1  0
 18 19  2  0
 18 16  1  0
 20 14  1  0
 21 11  1  0
 21 20  2  0
 22 18  1  0
 23 24  1  1
 23 22  1  0
 25 24  1  0
 25 33  1  0
 26 27  1  0
 26 25  2  0
 27 28  1  0
 28 29  2  0
 28 33  1  0
 29 30  1  0
 30 31  2  0
 32 31  1  0
 33 32  2  0
 34 23  1  0
 35 34  2  0
 36 34  1  0
M  END
$$$$
