QYW.pdb
     RDKit          3D

 36 38  0  0  1  0  0  0  0  0999 V2000
   24.4627  -25.6286  -14.3276 N   0  0  0  0  0  0  0  0  0  0  0  0
   23.7593  -26.2507  -15.4159 C   0  0  0  0  0  0  0  0  0  0  0  0
   23.9175  -27.4743  -15.6365 O   0  0  0  0  0  0  0  0  0  0  0  0
   22.8781  -25.4334  -16.2274 C   0  0  0  0  0  0  0  0  0  0  0  0
   22.8207  -24.0178  -15.8094 C   0  0  0  0  0  0  0  0  0  0  0  0
   21.5778  -23.5361  -15.1514 C   0  0  2  0  0  0  0  0  0  0  0  0
   20.3645  -23.7602  -15.8815 N   0  0  0  0  0  0  0  0  0  0  0  0
   21.6781  -22.0890  -14.8230 C   0  0  0  0  0  0  0  0  0  0  0  0
   21.3632  -21.2589  -15.7237 O   0  0  0  0  0  0  0  0  0  0  0  0
   16.7646  -22.7060  -11.5554 O   0  0  0  0  0  0  0  0  0  0  0  0
   17.9501  -21.9604  -11.6904 C   0  0  0  0  0  0  0  0  0  0  0  0
   18.0565  -20.9757  -12.6474 C   0  0  0  0  0  0  0  0  0  0  0  0
   19.2157  -20.2416  -12.7851 C   0  0  0  0  0  0  0  0  0  0  0  0
   20.3199  -20.4648  -11.9665 C   0  0  0  0  0  0  0  0  0  0  0  0
   21.5617  -19.7222  -12.1515 C   0  0  0  0  0  0  0  0  0  0  0  0
   22.3316  -20.1437  -13.3463 C   0  0  2  0  0  0  0  0  0  0  0  0
   22.0939  -21.5913  -13.5930 N   0  0  0  0  0  0  0  0  0  0  0  0
   23.7723  -20.0138  -13.1789 C   0  0  0  0  0  0  0  0  0  0  0  0
   24.2277  -18.9707  -12.5937 O   0  0  0  0  0  0  0  0  0  0  0  0
   20.2059  -21.4480  -11.0146 C   0  0  0  0  0  0  0  0  0  0  0  0
   19.0311  -22.1944  -10.8728 C   0  0  0  0  0  0  0  0  0  0  0  0
   24.7743  -20.9311  -13.5884 N   0  0  0  0  0  0  0  0  0  0  0  0
   26.1326  -20.8751  -13.0846 C   0  0  1  0  0  0  0  0  0  0  0  0
   26.0708  -20.7745  -11.5653 C   0  0  0  0  0  0  0  0  0  0  0  0
   27.3943  -20.9851  -10.9649 C   0  0  0  0  0  0  0  0  0  0  0  0
   28.5639  -21.3297  -11.6038 C   0  0  0  0  0  0  0  0  0  0  0  0
   29.5548  -21.4231  -10.6817 N   0  0  0  0  0  0  0  0  0  0  0  0
   29.0706  -21.1501   -9.4551 C   0  0  0  0  0  0  0  0  0  0  0  0
   29.6857  -21.1174   -8.2132 C   0  0  0  0  0  0  0  0  0  0  0  0
   28.9119  -20.7986   -7.1196 C   0  0  0  0  0  0  0  0  0  0  0  0
   27.5734  -20.5235   -7.2684 C   0  0  0  0  0  0  0  0  0  0  0  0
   26.9821  -20.5630   -8.5225 C   0  0  0  0  0  0  0  0  0  0  0  0
   27.7282  -20.8767   -9.6224 C   0  0  0  0  0  0  0  0  0  0  0  0
   27.0025  -21.9523  -13.5355 C   0  0  0  0  0  0  0  0  0  0  0  0
   26.6321  -22.9623  -14.1774 O   0  0  0  0  0  0  0  0  0  0  0  0
   28.3871  -21.9213  -13.2624 O   0  0  0  0  0  0  0  0  0  0  0  0
  2  1  1  0
  3  2  2  0
  4  2  1  0
  5  6  1  0
  5  4  1  0
  6  7  1  6
  8  9  2  0
  8  6  1  0
 10 11  1  0
 11 12  2  0
 12 13  1  0
 14 13  2  0
 14 15  1  0
 16 15  1  1
 16 17  1  0
 17  8  1  0
 18 19  2  0
 18 16  1  0
 20 14  1  0
 21 11  1  0
 21 20  2  0
 22 18  1  0
 23 24  1  1
 23 22  1  0
 25 24  1  0
 25 33  1  0
 26 27  1  0
 26 25  2  0
 27 28  1  0
 28 29  2  0
 28 33  1  0
 29 30  1  0
 30 31  2  0
 32 31  1  0
 33 32  2  0
 34 23  1  0
 35 34  2  0
 36 34  1  0
M  END
$$$$
