QYW.pdb
     RDKit          3D

 36 38  0  0  1  0  0  0  0  0999 V2000
   27.1464  -17.1187  -17.3726 N   0  0  0  0  0  0  0  0  0  0  0  0
   28.1840  -17.9532  -16.8312 C   0  0  0  0  0  0  0  0  0  0  0  0
   29.3651  -17.5347  -16.8055 O   0  0  0  0  0  0  0  0  0  0  0  0
   27.8242  -19.2633  -16.3239 C   0  0  0  0  0  0  0  0  0  0  0  0
   26.3700  -19.5230  -16.3143 C   0  0  0  0  0  0  0  0  0  0  0  0
   25.8154  -20.4160  -17.3653 C   0  0  2  0  0  0  0  0  0  0  0  0
   26.1185  -20.0442  -18.7162 N   0  0  0  0  0  0  0  0  0  0  0  0
   24.3406  -20.5481  -17.2250 C   0  0  0  0  0  0  0  0  0  0  0  0
   23.6402  -19.5061  -17.3777 O   0  0  0  0  0  0  0  0  0  0  0  0
   16.0529  -23.6679  -17.2422 O   0  0  0  0  0  0  0  0  0  0  0  0
   17.4493  -23.5000  -17.2805 C   0  0  0  0  0  0  0  0  0  0  0  0
   18.0250  -22.5906  -18.1399 C   0  0  0  0  0  0  0  0  0  0  0  0
   19.3929  -22.4214  -18.1826 C   0  0  0  0  0  0  0  0  0  0  0  0
   20.2432  -23.1592  -17.3629 C   0  0  0  0  0  0  0  0  0  0  0  0
   21.6921  -23.0146  -17.4500 C   0  0  0  0  0  0  0  0  0  0  0  0
   22.2124  -21.8230  -16.7377 C   0  0  2  0  0  0  0  0  0  0  0  0
   23.6841  -21.7399  -16.9384 N   0  0  0  0  0  0  0  0  0  0  0  0
   22.0242  -21.8860  -15.2950 C   0  0  0  0  0  0  0  0  0  0  0  0
   20.8300  -21.9075  -14.8353 O   0  0  0  0  0  0  0  0  0  0  0  0
   19.6617  -24.0636  -16.5087 C   0  0  0  0  0  0  0  0  0  0  0  0
   18.2741  -24.2374  -16.4634 C   0  0  0  0  0  0  0  0  0  0  0  0
   23.0298  -21.9364  -14.2954 N   0  0  0  0  0  0  0  0  0  0  0  0
   22.7178  -22.0013  -12.8811 C   0  0  1  0  0  0  0  0  0  0  0  0
   23.9838  -22.4043  -12.1346 C   0  0  0  0  0  0  0  0  0  0  0  0
   24.9502  -21.2993  -12.0930 C   0  0  0  0  0  0  0  0  0  0  0  0
   24.9983  -20.2558  -11.1966 C   0  0  0  0  0  0  0  0  0  0  0  0
   26.0476  -19.4557  -11.5127 N   0  0  0  0  0  0  0  0  0  0  0  0
   26.6906  -19.9430  -12.5911 C   0  0  0  0  0  0  0  0  0  0  0  0
   27.8031  -19.4848  -13.2794 C   0  0  0  0  0  0  0  0  0  0  0  0
   28.2335  -20.2137  -14.3657 C   0  0  0  0  0  0  0  0  0  0  0  0
   27.5720  -21.3575  -14.7447 C   0  0  0  0  0  0  0  0  0  0  0  0
   26.4611  -21.7945  -14.0386 C   0  0  0  0  0  0  0  0  0  0  0  0
   26.0147  -21.0890  -12.9579 C   0  0  0  0  0  0  0  0  0  0  0  0
   22.1051  -20.8014  -12.3290 C   0  0  0  0  0  0  0  0  0  0  0  0
   22.1648  -19.6579  -12.8370 O   0  0  0  0  0  0  0  0  0  0  0  0
   21.3688  -20.8576  -11.1260 O   0  0  0  0  0  0  0  0  0  0  0  0
  2  1  1  0
  3  2  2  0
  4  2  1  0
  5  6  1  0
  5  4  1  0
  6  7  1  6
  8  9  2  0
  8  6  1  0
 10 11  1  0
 11 12  2  0
 12 13  1  0
 14 13  2  0
 14 15  1  0
 16 15  1  6
 16 17  1  0
 17  8  1  0
 18 19  2  0
 18 16  1  0
 20 14  1  0
 21 11  1  0
 21 20  2  0
 22 18  1  0
 23 24  1  1
 23 22  1  0
 25 24  1  0
 25 33  1  0
 26 27  1  0
 26 25  2  0
 27 28  1  0
 28 29  2  0
 28 33  1  0
 29 30  1  0
 30 31  2  0
 32 31  1  0
 33 32  2  0
 34 23  1  0
 35 34  2  0
 36 34  1  0
M  END
$$$$
