QYW.pdb
     RDKit          3D

 36 38  0  0  1  0  0  0  0  0999 V2000
   26.6667  -26.2680  -16.2639 N   0  0  0  0  0  0  0  0  0  0  0  0
   26.4747  -25.7861  -17.6044 C   0  0  0  0  0  0  0  0  0  0  0  0
   26.0506  -26.5669  -18.4884 O   0  0  0  0  0  0  0  0  0  0  0  0
   26.7772  -24.3969  -17.8903 C   0  0  0  0  0  0  0  0  0  0  0  0
   27.1622  -23.6109  -16.7003 C   0  0  0  0  0  0  0  0  0  0  0  0
   26.0788  -22.9732  -15.9069 C   0  0  2  0  0  0  0  0  0  0  0  0
   25.2041  -22.1054  -16.6397 N   0  0  0  0  0  0  0  0  0  0  0  0
   26.6390  -22.2229  -14.7513 C   0  0  0  0  0  0  0  0  0  0  0  0
   27.7132  -22.6501  -14.2383 O   0  0  0  0  0  0  0  0  0  0  0  0
   29.1860  -17.2080  -18.1278 O   0  0  0  0  0  0  0  0  0  0  0  0
   28.5223  -17.6009  -16.9510 C   0  0  0  0  0  0  0  0  0  0  0  0
   29.2123  -18.2024  -15.9219 C   0  0  0  0  0  0  0  0  0  0  0  0
   28.5677  -18.5900  -14.7661 C   0  0  0  0  0  0  0  0  0  0  0  0
   27.2004  -18.3902  -14.5934 C   0  0  0  0  0  0  0  0  0  0  0  0
   26.5142  -18.8504  -13.3913 C   0  0  0  0  0  0  0  0  0  0  0  0
   26.7039  -20.2949  -13.1170 C   0  0  2  0  0  0  0  0  0  0  0  0
   26.0599  -21.0850  -14.2005 N   0  0  0  0  0  0  0  0  0  0  0  0
   26.0634  -20.7370  -11.8862 C   0  0  0  0  0  0  0  0  0  0  0  0
   24.8259  -21.0612  -11.9240 O   0  0  0  0  0  0  0  0  0  0  0  0
   26.5196  -17.7898  -15.6239 C   0  0  0  0  0  0  0  0  0  0  0  0
   27.1710  -17.3956  -16.7977 C   0  0  0  0  0  0  0  0  0  0  0  0
   26.6565  -20.8675  -10.6040 N   0  0  0  0  0  0  0  0  0  0  0  0
   25.8871  -21.2018   -9.4216 C   0  0  1  0  0  0  0  0  0  0  0  0
   26.8619  -21.5828   -8.3139 C   0  0  0  0  0  0  0  0  0  0  0  0
   27.4531  -20.3903   -7.6934 C   0  0  0  0  0  0  0  0  0  0  0  0
   27.3572  -19.0844   -8.1183 C   0  0  0  0  0  0  0  0  0  0  0  0
   28.0495  -18.2935   -7.2604 N   0  0  0  0  0  0  0  0  0  0  0  0
   28.5979  -19.0415   -6.2838 C   0  0  0  0  0  0  0  0  0  0  0  0
   29.3816  -18.6948   -5.1942 C   0  0  0  0  0  0  0  0  0  0  0  0
   29.7998  -19.7033   -4.3549 C   0  0  0  0  0  0  0  0  0  0  0  0
   29.4442  -21.0081   -4.6010 C   0  0  0  0  0  0  0  0  0  0  0  0
   28.6589  -21.3284   -5.6985 C   0  0  0  0  0  0  0  0  0  0  0  0
   28.2318  -20.3462   -6.5457 C   0  0  0  0  0  0  0  0  0  0  0  0
   24.9341  -20.1856   -8.9981 C   0  0  0  0  0  0  0  0  0  0  0  0
   24.0386  -20.3460   -8.1370 O   0  0  0  0  0  0  0  0  0  0  0  0
   24.9638  -18.8917   -9.5616 O   0  0  0  0  0  0  0  0  0  0  0  0
  2  1  1  0
  3  2  2  0
  4  2  1  0
  5  6  1  0
  5  4  1  0
  6  7  1  6
  8  9  2  0
  8  6  1  0
 10 11  1  0
 11 12  2  0
 12 13  1  0
 14 13  2  0
 14 15  1  0
 16 15  1  6
 16 17  1  0
 17  8  1  0
 18 19  2  0
 18 16  1  0
 20 14  1  0
 21 11  1  0
 21 20  2  0
 22 18  1  0
 23 24  1  1
 23 22  1  0
 25 24  1  0
 25 33  1  0
 26 27  1  0
 26 25  2  0
 27 28  1  0
 28 29  2  0
 28 33  1  0
 29 30  1  0
 30 31  2  0
 32 31  1  0
 33 32  2  0
 34 23  1  0
 35 34  2  0
 36 34  1  0
M  END
$$$$
