QYW.pdb
     RDKit          3D

 36 38  0  0  1  0  0  0  0  0999 V2000
   30.5818  -20.5447  -16.4410 N   0  0  0  0  0  0  0  0  0  0  0  0
   29.8630  -20.5045  -17.6850 C   0  0  0  0  0  0  0  0  0  0  0  0
   30.3712  -21.0151  -18.7107 O   0  0  0  0  0  0  0  0  0  0  0  0
   28.5585  -19.8714  -17.7103 C   0  0  0  0  0  0  0  0  0  0  0  0
   28.1310  -19.3287  -16.4046 C   0  0  0  0  0  0  0  0  0  0  0  0
   27.8217  -20.2938  -15.3171 C   0  0  2  0  0  0  0  0  0  0  0  0
   27.4468  -21.6094  -15.7458 N   0  0  0  0  0  0  0  0  0  0  0  0
   26.7599  -19.7617  -14.4219 C   0  0  0  0  0  0  0  0  0  0  0  0
   26.8363  -18.5474  -14.0767 O   0  0  0  0  0  0  0  0  0  0  0  0
   22.1186  -17.9263  -18.8331 O   0  0  0  0  0  0  0  0  0  0  0  0
   22.4179  -18.5153  -17.5909 C   0  0  0  0  0  0  0  0  0  0  0  0
   22.8675  -19.8151  -17.5190 C   0  0  0  0  0  0  0  0  0  0  0  0
   23.1624  -20.3983  -16.3047 C   0  0  0  0  0  0  0  0  0  0  0  0
   23.0183  -19.7005  -15.1083 C   0  0  0  0  0  0  0  0  0  0  0  0
   23.2805  -20.3392  -13.8233 C   0  0  0  0  0  0  0  0  0  0  0  0
   24.5533  -19.9087  -13.1965 C   0  0  2  0  0  0  0  0  0  0  0  0
   25.6912  -20.5108  -13.9420 N   0  0  0  0  0  0  0  0  0  0  0  0
   24.7052  -20.3711  -11.8240 C   0  0  0  0  0  0  0  0  0  0  0  0
   23.8391  -20.0038  -10.9564 O   0  0  0  0  0  0  0  0  0  0  0  0
   22.5698  -18.4051  -15.1883 C   0  0  0  0  0  0  0  0  0  0  0  0
   22.2698  -17.8109  -16.4189 C   0  0  0  0  0  0  0  0  0  0  0  0
   25.7220  -21.2138  -11.3054 N   0  0  0  0  0  0  0  0  0  0  0  0
   25.8213  -21.5354   -9.8952 C   0  0  1  0  0  0  0  0  0  0  0  0
   27.2822  -21.4063   -9.4814 C   0  0  0  0  0  0  0  0  0  0  0  0
   27.4342  -20.4808   -8.3513 C   0  0  0  0  0  0  0  0  0  0  0  0
   26.5080  -19.5861   -7.8649 C   0  0  0  0  0  0  0  0  0  0  0  0
   27.0503  -18.9245   -6.8118 N   0  0  0  0  0  0  0  0  0  0  0  0
   28.3062  -19.3582   -6.5918 C   0  0  0  0  0  0  0  0  0  0  0  0
   29.2499  -18.9914   -5.6449 C   0  0  0  0  0  0  0  0  0  0  0  0
   30.4710  -19.6275   -5.6729 C   0  0  0  0  0  0  0  0  0  0  0  0
   30.7329  -20.5936   -6.6150 C   0  0  0  0  0  0  0  0  0  0  0  0
   29.7711  -20.9422   -7.5516 C   0  0  0  0  0  0  0  0  0  0  0  0
   28.5525  -20.3258   -7.5446 C   0  0  0  0  0  0  0  0  0  0  0  0
   24.9286  -20.7816   -9.0263 C   0  0  0  0  0  0  0  0  0  0  0  0
   24.5433  -19.6067   -9.2273 O   0  0  0  0  0  0  0  0  0  0  0  0
   24.4173  -21.3594   -7.8443 O   0  0  0  0  0  0  0  0  0  0  0  0
  2  1  1  0
  3  2  2  0
  4  2  1  0
  5  6  1  0
  5  4  1  0
  6  7  1  6
  8  9  2  0
  8  6  1  0
 10 11  1  0
 11 12  2  0
 12 13  1  0
 14 13  2  0
 14 15  1  0
 16 15  1  6
 16 17  1  0
 17  8  1  0
 18 19  2  0
 18 16  1  0
 20 14  1  0
 21 11  1  0
 21 20  2  0
 22 18  1  0
 23 24  1  1
 23 22  1  0
 25 24  1  0
 25 33  1  0
 26 27  1  0
 26 25  2  0
 27 28  1  0
 28 29  2  0
 28 33  1  0
 29 30  1  0
 30 31  2  0
 32 31  1  0
 33 32  2  0
 34 23  1  0
 35 34  2  0
 36 34  1  0
M  END
$$$$
