QYW.pdb
     RDKit          3D

 36 38  0  0  1  0  0  0  0  0999 V2000
   24.2326  -18.5969  -18.6085 N   0  0  0  0  0  0  0  0  0  0  0  0
   25.6100  -18.5423  -19.0159 C   0  0  0  0  0  0  0  0  0  0  0  0
   25.8920  -18.4264  -20.2317 O   0  0  0  0  0  0  0  0  0  0  0  0
   26.6372  -18.6198  -17.9952 C   0  0  0  0  0  0  0  0  0  0  0  0
   26.1084  -18.6832  -16.6173 C   0  0  0  0  0  0  0  0  0  0  0  0
   26.8284  -19.5342  -15.6339 C   0  0  2  0  0  0  0  0  0  0  0  0
   26.9350  -20.9219  -15.9776 N   0  0  0  0  0  0  0  0  0  0  0  0
   26.2134  -19.4216  -14.2844 C   0  0  0  0  0  0  0  0  0  0  0  0
   26.0686  -18.2625  -13.7995 O   0  0  0  0  0  0  0  0  0  0  0  0
   19.9100  -18.0854  -15.5169 O   0  0  0  0  0  0  0  0  0  0  0  0
   20.8531  -18.7977  -14.7535 C   0  0  0  0  0  0  0  0  0  0  0  0
   21.6308  -19.7765  -15.3313 C   0  0  0  0  0  0  0  0  0  0  0  0
   22.5567  -20.4784  -14.5886 C   0  0  0  0  0  0  0  0  0  0  0  0
   22.7420  -20.2274  -13.2315 C   0  0  0  0  0  0  0  0  0  0  0  0
   23.6846  -21.0092  -12.4390 C   0  0  0  0  0  0  0  0  0  0  0  0
   25.0032  -20.3529  -12.2694 C   0  0  2  0  0  0  0  0  0  0  0  0
   25.7879  -20.5052  -13.5240 N   0  0  0  0  0  0  0  0  0  0  0  0
   25.8203  -20.9612  -11.2287 C   0  0  0  0  0  0  0  0  0  0  0  0
   26.4193  -22.0620  -11.4879 O   0  0  0  0  0  0  0  0  0  0  0  0
   21.9631  -19.2499  -12.6627 C   0  0  0  0  0  0  0  0  0  0  0  0
   21.0228  -18.5363  -13.4138 C   0  0  0  0  0  0  0  0  0  0  0  0
   26.0539  -20.4701   -9.9183 N   0  0  0  0  0  0  0  0  0  0  0  0
   26.4069  -21.3398   -8.8134 C   0  0  1  0  0  0  0  0  0  0  0  0
   27.8231  -20.9925   -8.3706 C   0  0  0  0  0  0  0  0  0  0  0  0
   27.8234  -19.8677   -7.4264 C   0  0  0  0  0  0  0  0  0  0  0  0
   27.1839  -18.6560   -7.5596 C   0  0  0  0  0  0  0  0  0  0  0  0
   27.4426  -17.9020   -6.4617 N   0  0  0  0  0  0  0  0  0  0  0  0
   28.2337  -18.5828   -5.6106 C   0  0  0  0  0  0  0  0  0  0  0  0
   28.7606  -18.2393   -4.3752 C   0  0  0  0  0  0  0  0  0  0  0  0
   29.5508  -19.1659   -3.7321 C   0  0  0  0  0  0  0  0  0  0  0  0
   29.8013  -20.3887   -4.3078 C   0  0  0  0  0  0  0  0  0  0  0  0
   29.2618  -20.7077   -5.5451 C   0  0  0  0  0  0  0  0  0  0  0  0
   28.4750  -19.8058   -6.2029 C   0  0  0  0  0  0  0  0  0  0  0  0
   25.4629  -21.3428   -7.7048 C   0  0  0  0  0  0  0  0  0  0  0  0
   24.4966  -20.5563   -7.5738 O   0  0  0  0  0  0  0  0  0  0  0  0
   25.5860  -22.2807   -6.6571 O   0  0  0  0  0  0  0  0  0  0  0  0
  2  1  1  0
  3  2  2  0
  4  2  1  0
  5  6  1  0
  5  4  1  0
  6  7  1  6
  8  9  2  0
  8  6  1  0
 10 11  1  0
 11 12  2  0
 12 13  1  0
 14 13  2  0
 14 15  1  0
 16 15  1  6
 16 17  1  0
 17  8  1  0
 18 19  2  0
 18 16  1  0
 20 14  1  0
 21 11  1  0
 21 20  2  0
 22 18  1  0
 23 24  1  1
 23 22  1  0
 25 24  1  0
 25 33  1  0
 26 27  1  0
 26 25  2  0
 27 28  1  0
 28 29  2  0
 28 33  1  0
 29 30  1  0
 30 31  2  0
 32 31  1  0
 33 32  2  0
 34 23  1  0
 35 34  2  0
 36 34  1  0
M  END
$$$$
