QYW.pdb
     RDKit          3D

 36 38  0  0  1  0  0  0  0  0999 V2000
   24.6713  -14.0283  -17.2623 N   0  0  0  0  0  0  0  0  0  0  0  0
   25.4533  -13.8387  -18.4534 C   0  0  0  0  0  0  0  0  0  0  0  0
   25.7382  -14.8262  -19.1708 O   0  0  0  0  0  0  0  0  0  0  0  0
   25.8868  -12.4965  -18.7902 C   0  0  0  0  0  0  0  0  0  0  0  0
   25.4159  -11.4610  -17.8478 C   0  0  0  0  0  0  0  0  0  0  0  0
   24.0374  -10.9336  -18.0249 C   0  0  2  0  0  0  0  0  0  0  0  0
   23.6594  -10.6314  -19.3743 N   0  0  0  0  0  0  0  0  0  0  0  0
   23.8198   -9.7254  -17.1853 C   0  0  0  0  0  0  0  0  0  0  0  0
   24.1249   -9.7985  -15.9601 O   0  0  0  0  0  0  0  0  0  0  0  0
   21.6355   -1.3890  -14.8385 O   0  0  0  0  0  0  0  0  0  0  0  0
   22.1231   -2.5861  -15.3942 C   0  0  0  0  0  0  0  0  0  0  0  0
   22.8202   -3.4876  -14.6209 C   0  0  0  0  0  0  0  0  0  0  0  0
   23.3010   -4.6626  -15.1595 C   0  0  0  0  0  0  0  0  0  0  0  0
   23.1021   -4.9835  -16.4999 C   0  0  0  0  0  0  0  0  0  0  0  0
   23.6587   -6.2020  -17.0770 C   0  0  0  0  0  0  0  0  0  0  0  0
   22.8740   -7.4195  -16.7604 C   0  0  2  0  0  0  0  0  0  0  0  0
   23.3048   -8.5238  -17.6592 N   0  0  0  0  0  0  0  0  0  0  0  0
   21.4462   -7.2636  -17.0002 C   0  0  0  0  0  0  0  0  0  0  0  0
   21.0086   -7.4035  -18.1947 O   0  0  0  0  0  0  0  0  0  0  0  0
   22.4059   -4.0796  -17.2642 C   0  0  0  0  0  0  0  0  0  0  0  0
   21.9172   -2.8868  -16.7204 C   0  0  0  0  0  0  0  0  0  0  0  0
   20.4378   -6.9736  -16.0452 N   0  0  0  0  0  0  0  0  0  0  0  0
   19.0524   -6.7626  -16.4167 C   0  0  1  0  0  0  0  0  0  0  0  0
   18.5354   -8.0414  -17.0644 C   0  0  0  0  0  0  0  0  0  0  0  0
   18.4073   -9.1219  -16.0780 C   0  0  0  0  0  0  0  0  0  0  0  0
   18.3935   -9.0125  -14.7059 C   0  0  0  0  0  0  0  0  0  0  0  0
   18.2574  -10.2514  -14.1698 N   0  0  0  0  0  0  0  0  0  0  0  0
   18.1814  -11.1722  -15.1497 C   0  0  0  0  0  0  0  0  0  0  0  0
   18.0401  -12.5504  -15.1034 C   0  0  0  0  0  0  0  0  0  0  0  0
   17.9924  -13.2333  -16.2983 C   0  0  0  0  0  0  0  0  0  0  0  0
   18.0829  -12.5577  -17.4920 C   0  0  0  0  0  0  0  0  0  0  0  0
   18.2238  -11.1779  -17.5107 C   0  0  0  0  0  0  0  0  0  0  0  0
   18.2738  -10.4782  -16.3390 C   0  0  0  0  0  0  0  0  0  0  0  0
   18.1894   -6.2962  -15.3406 C   0  0  0  0  0  0  0  0  0  0  0  0
   16.9885   -5.9633  -15.4676 O   0  0  0  0  0  0  0  0  0  0  0  0
   18.6796   -6.1857  -14.0215 O   0  0  0  0  0  0  0  0  0  0  0  0
  2  1  1  0
  3  2  2  0
  4  2  1  0
  5  6  1  0
  5  4  1  0
  6  7  1  6
  8  9  2  0
  8  6  1  0
 10 11  1  0
 11 12  2  0
 12 13  1  0
 14 13  2  0
 14 15  1  0
 16 15  1  6
 16 17  1  0
 17  8  1  0
 18 19  2  0
 18 16  1  0
 20 14  1  0
 21 11  1  0
 21 20  2  0
 22 18  1  0
 23 24  1  1
 23 22  1  0
 25 24  1  0
 25 33  1  0
 26 27  1  0
 26 25  2  0
 27 28  1  0
 28 29  2  0
 28 33  1  0
 29 30  1  0
 30 31  2  0
 32 31  1  0
 33 32  2  0
 34 23  1  0
 35 34  2  0
 36 34  1  0
M  END
$$$$
