QYW.pdb
     RDKit          3D

 36 38  0  0  1  0  0  0  0  0999 V2000
   27.2979  -17.3241  -18.7149 N   0  0  0  0  0  0  0  0  0  0  0  0
   27.7151  -18.6995  -18.6978 C   0  0  0  0  0  0  0  0  0  0  0  0
   28.9131  -18.9862  -18.9295 O   0  0  0  0  0  0  0  0  0  0  0  0
   26.7260  -19.7191  -18.4056 C   0  0  0  0  0  0  0  0  0  0  0  0
   25.4102  -19.1797  -18.0059 C   0  0  0  0  0  0  0  0  0  0  0  0
   24.2388  -19.4938  -18.8655 C   0  0  2  0  0  0  0  0  0  0  0  0
   24.1778  -18.7861  -20.1107 N   0  0  0  0  0  0  0  0  0  0  0  0
   22.9659  -19.2750  -18.1280 C   0  0  0  0  0  0  0  0  0  0  0  0
   22.8211  -18.1761  -17.5189 O   0  0  0  0  0  0  0  0  0  0  0  0
   19.2297  -15.0051  -21.2917 O   0  0  0  0  0  0  0  0  0  0  0  0
   19.3164  -16.2010  -20.5556 C   0  0  0  0  0  0  0  0  0  0  0  0
   20.0946  -17.2463  -21.0013 C   0  0  0  0  0  0  0  0  0  0  0  0
   20.1836  -18.4211  -20.2847 C   0  0  0  0  0  0  0  0  0  0  0  0
   19.4942  -18.5974  -19.0878 C   0  0  0  0  0  0  0  0  0  0  0  0
   19.5496  -19.8611  -18.3614 C   0  0  0  0  0  0  0  0  0  0  0  0
   20.6448  -19.9236  -17.3640 C   0  0  2  0  0  0  0  0  0  0  0  0
   21.9275  -20.1977  -18.0659 N   0  0  0  0  0  0  0  0  0  0  0  0
   20.4909  -21.0098  -16.4063 C   0  0  0  0  0  0  0  0  0  0  0  0
   21.2051  -22.0613  -16.5555 O   0  0  0  0  0  0  0  0  0  0  0  0
   18.7207  -17.5506  -18.6499 C   0  0  0  0  0  0  0  0  0  0  0  0
   18.6284  -16.3576  -19.3750 C   0  0  0  0  0  0  0  0  0  0  0  0
   19.6258  -21.0528  -15.2826 N   0  0  0  0  0  0  0  0  0  0  0  0
   19.6137  -22.1649  -14.3526 C   0  0  1  0  0  0  0  0  0  0  0  0
   21.0256  -22.3419  -13.8072 C   0  0  0  0  0  0  0  0  0  0  0  0
   21.3857  -21.2448  -12.8997 C   0  0  0  0  0  0  0  0  0  0  0  0
   22.0703  -20.0900  -13.2043 C   0  0  0  0  0  0  0  0  0  0  0  0
   22.1916  -19.3436  -12.0778 N   0  0  0  0  0  0  0  0  0  0  0  0
   21.6067  -19.9741  -11.0415 C   0  0  0  0  0  0  0  0  0  0  0  0
   21.4723  -19.6168   -9.7088 C   0  0  0  0  0  0  0  0  0  0  0  0
   20.8093  -20.4872   -8.8726 C   0  0  0  0  0  0  0  0  0  0  0  0
   20.3015  -21.6693   -9.3567 C   0  0  0  0  0  0  0  0  0  0  0  0
   20.4495  -22.0031  -10.6947 C   0  0  0  0  0  0  0  0  0  0  0  0
   21.1032  -21.1568  -11.5440 C   0  0  0  0  0  0  0  0  0  0  0  0
   18.6166  -22.0740  -13.2954 C   0  0  0  0  0  0  0  0  0  0  0  0
   18.0089  -21.0310  -12.9602 O   0  0  0  0  0  0  0  0  0  0  0  0
   18.2562  -23.2146  -12.5460 O   0  0  0  0  0  0  0  0  0  0  0  0
  2  1  1  0
  3  2  2  0
  4  2  1  0
  5  6  1  0
  5  4  1  0
  6  7  1  6
  8  9  2  0
  8  6  1  0
 10 11  1  0
 11 12  2  0
 12 13  1  0
 14 13  2  0
 14 15  1  0
 16 15  1  6
 16 17  1  0
 17  8  1  0
 18 19  2  0
 18 16  1  0
 20 14  1  0
 21 11  1  0
 21 20  2  0
 22 18  1  0
 23 24  1  1
 23 22  1  0
 25 24  1  0
 25 33  1  0
 26 27  1  0
 26 25  2  0
 27 28  1  0
 28 29  2  0
 28 33  1  0
 29 30  1  0
 30 31  2  0
 32 31  1  0
 33 32  2  0
 34 23  1  0
 35 34  2  0
 36 34  1  0
M  END
$$$$
