QYW.pdb
     RDKit          3D

 36 38  0  0  1  0  0  0  0  0999 V2000
   18.0529  -28.1026  -14.6090 N   0  0  0  0  0  0  0  0  0  0  0  0
   18.8952  -28.3937  -15.7368 C   0  0  0  0  0  0  0  0  0  0  0  0
   18.8958  -29.5469  -16.2279 O   0  0  0  0  0  0  0  0  0  0  0  0
   19.7211  -27.3308  -16.2763 C   0  0  0  0  0  0  0  0  0  0  0  0
   19.5101  -26.0206  -15.6274 C   0  0  0  0  0  0  0  0  0  0  0  0
   20.4558  -24.9214  -15.9546 C   0  0  2  0  0  0  0  0  0  0  0  0
   21.8464  -25.2376  -15.8082 N   0  0  0  0  0  0  0  0  0  0  0  0
   20.1546  -23.7061  -15.1520 C   0  0  0  0  0  0  0  0  0  0  0  0
   18.9925  -23.2150  -15.2427 O   0  0  0  0  0  0  0  0  0  0  0  0
   16.9348  -25.8034  -10.0205 O   0  0  0  0  0  0  0  0  0  0  0  0
   17.9364  -24.9425  -10.5054 C   0  0  0  0  0  0  0  0  0  0  0  0
   17.8324  -23.5791  -10.3404 C   0  0  0  0  0  0  0  0  0  0  0  0
   18.8104  -22.7299  -10.8136 C   0  0  0  0  0  0  0  0  0  0  0  0
   19.9370  -23.2137  -11.4739 C   0  0  0  0  0  0  0  0  0  0  0  0
   20.9419  -22.3079  -12.0192 C   0  0  0  0  0  0  0  0  0  0  0  0
   20.6972  -21.9335  -13.4327 C   0  0  2  0  0  0  0  0  0  0  0  0
   21.0652  -23.0771  -14.3101 N   0  0  0  0  0  0  0  0  0  0  0  0
   21.5210  -20.8212  -13.8853 C   0  0  0  0  0  0  0  0  0  0  0  0
   21.2803  -19.6538  -13.4193 O   0  0  0  0  0  0  0  0  0  0  0  0
   20.0336  -24.5741  -11.6342 C   0  0  0  0  0  0  0  0  0  0  0  0
   19.0427  -25.4381  -11.1553 C   0  0  0  0  0  0  0  0  0  0  0  0
   22.6012  -20.8658  -14.8040 N   0  0  0  0  0  0  0  0  0  0  0  0
   23.2743  -19.6700  -15.2717 C   0  0  1  0  0  0  0  0  0  0  0  0
   24.7616  -19.8160  -14.9735 C   0  0  0  0  0  0  0  0  0  0  0  0
   25.0089  -20.9153  -14.0316 C   0  0  0  0  0  0  0  0  0  0  0  0
   25.3217  -22.2229  -14.3267 C   0  0  0  0  0  0  0  0  0  0  0  0
   25.4688  -22.9100  -13.1660 N   0  0  0  0  0  0  0  0  0  0  0  0
   25.2617  -22.0919  -12.1164 C   0  0  0  0  0  0  0  0  0  0  0  0
   25.2990  -22.3260  -10.7506 C   0  0  0  0  0  0  0  0  0  0  0  0
   25.0379  -21.2679   -9.9086 C   0  0  0  0  0  0  0  0  0  0  0  0
   24.7509  -20.0244  -10.4193 C   0  0  0  0  0  0  0  0  0  0  0  0
   24.7200  -19.8168  -11.7903 C   0  0  0  0  0  0  0  0  0  0  0  0
   24.9753  -20.8501  -12.6460 C   0  0  0  0  0  0  0  0  0  0  0  0
   23.0176  -19.3215  -16.6619 C   0  0  0  0  0  0  0  0  0  0  0  0
   22.3402  -20.0022  -17.4664 O   0  0  0  0  0  0  0  0  0  0  0  0
   23.5438  -18.1342  -17.2152 O   0  0  0  0  0  0  0  0  0  0  0  0
  2  1  1  0
  3  2  2  0
  4  2  1  0
  5  6  1  0
  5  4  1  0
  6  7  1  1
  8  9  2  0
  8  6  1  0
 10 11  1  0
 11 12  2  0
 12 13  1  0
 14 13  2  0
 14 15  1  0
 16 15  1  1
 16 17  1  0
 17  8  1  0
 18 19  2  0
 18 16  1  0
 20 14  1  0
 21 11  1  0
 21 20  2  0
 22 18  1  0
 23 24  1  6
 23 22  1  0
 25 24  1  0
 25 33  1  0
 26 27  1  0
 26 25  2  0
 27 28  1  0
 28 29  2  0
 28 33  1  0
 29 30  1  0
 30 31  2  0
 32 31  1  0
 33 32  2  0
 34 23  1  0
 35 34  2  0
 36 34  1  0
M  END
$$$$
