QYW.pdb
     RDKit          3D

 36 38  0  0  1  0  0  0  0  0999 V2000
   15.3762  -17.9135   10.1418 N   0  0  0  0  0  0  0  0  0  0  0  0
   14.6112  -17.1653    9.1822 C   0  0  0  0  0  0  0  0  0  0  0  0
   14.1674  -16.0343    9.4902 O   0  0  0  0  0  0  0  0  0  0  0  0
   14.3801  -17.7490    7.8749 C   0  0  0  0  0  0  0  0  0  0  0  0
   15.0075  -19.0736    7.6912 C   0  0  0  0  0  0  0  0  0  0  0  0
   16.1222  -19.1865    6.7141 C   0  0  2  0  0  0  0  0  0  0  0  0
   15.8886  -18.5799    5.4364 N   0  0  0  0  0  0  0  0  0  0  0  0
   16.5028  -20.6091    6.5058 C   0  0  0  0  0  0  0  0  0  0  0  0
   15.9698  -21.4760    7.2567 O   0  0  0  0  0  0  0  0  0  0  0  0
   19.8396  -28.0125    2.8036 O   0  0  0  0  0  0  0  0  0  0  0  0
   19.4732  -26.6893    3.1112 C   0  0  0  0  0  0  0  0  0  0  0  0
   18.2301  -26.4069    3.6326 C   0  0  0  0  0  0  0  0  0  0  0  0
   17.8647  -25.1123    3.9359 C   0  0  0  0  0  0  0  0  0  0  0  0
   18.7331  -24.0436    3.7285 C   0  0  0  0  0  0  0  0  0  0  0  0
   18.3224  -22.6707    4.0009 C   0  0  0  0  0  0  0  0  0  0  0  0
   17.7604  -22.4790    5.3594 C   0  0  2  0  0  0  0  0  0  0  0  0
   17.4038  -21.0462    5.5411 N   0  0  0  0  0  0  0  0  0  0  0  0
   18.7094  -22.7767    6.4231 C   0  0  0  0  0  0  0  0  0  0  0  0
   19.7087  -21.9941    6.5868 O   0  0  0  0  0  0  0  0  0  0  0  0
   19.9707  -24.3333    3.2086 C   0  0  0  0  0  0  0  0  0  0  0  0
   20.3440  -25.6459    2.8998 C   0  0  0  0  0  0  0  0  0  0  0  0
   18.6648  -23.8575    7.3411 N   0  0  0  0  0  0  0  0  0  0  0  0
   19.7352  -24.1234    8.2821 C   0  0  1  0  0  0  0  0  0  0  0  0
   19.1270  -24.2236    9.6758 C   0  0  0  0  0  0  0  0  0  0  0  0
   18.9511  -22.8946   10.2752 C   0  0  0  0  0  0  0  0  0  0  0  0
   19.3156  -21.6771    9.7464 C   0  0  0  0  0  0  0  0  0  0  0  0
   18.9736  -20.6995   10.6229 N   0  0  0  0  0  0  0  0  0  0  0  0
   18.3949  -21.2390   11.7127 C   0  0  0  0  0  0  0  0  0  0  0  0
   17.8850  -20.6568   12.8628 C   0  0  0  0  0  0  0  0  0  0  0  0
   17.3455  -21.4871   13.8200 C   0  0  0  0  0  0  0  0  0  0  0  0
   17.3196  -22.8480   13.6286 C   0  0  0  0  0  0  0  0  0  0  0  0
   17.8365  -23.4054   12.4684 C   0  0  0  0  0  0  0  0  0  0  0  0
   18.3770  -22.6032   11.5044 C   0  0  0  0  0  0  0  0  0  0  0  0
   20.5718  -25.2698    7.9568 C   0  0  0  0  0  0  0  0  0  0  0  0
   21.4581  -25.7537    8.6982 O   0  0  0  0  0  0  0  0  0  0  0  0
   20.4268  -25.9396    6.7228 O   0  0  0  0  0  0  0  0  0  0  0  0
  2  1  1  0
  3  2  2  0
  4  2  1  0
  5  6  1  0
  5  4  1  0
  6  7  1  6
  8  9  2  0
  8  6  1  0
 10 11  1  0
 11 12  2  0
 12 13  1  0
 14 13  2  0
 14 15  1  0
 16 15  1  6
 16 17  1  0
 17  8  1  0
 18 19  2  0
 18 16  1  0
 20 14  1  0
 21 11  1  0
 21 20  2  0
 22 18  1  0
 23 24  1  1
 23 22  1  0
 25 24  1  0
 25 33  1  0
 26 27  1  0
 26 25  2  0
 27 28  1  0
 28 29  2  0
 28 33  1  0
 29 30  1  0
 30 31  2  0
 32 31  1  0
 33 32  2  0
 34 23  1  0
 35 34  2  0
 36 34  1  0
M  END
$$$$
