QYW.pdb
     RDKit          3D

 36 38  0  0  1  0  0  0  0  0999 V2000
   26.0793  -17.4265  -16.7894 N   0  0  0  0  0  0  0  0  0  0  0  0
   26.5930  -17.3914  -18.1314 C   0  0  0  0  0  0  0  0  0  0  0  0
   27.4453  -16.5279  -18.4459 O   0  0  0  0  0  0  0  0  0  0  0  0
   26.1055  -18.3694  -19.0848 C   0  0  0  0  0  0  0  0  0  0  0  0
   25.1305  -19.3235  -18.5181 C   0  0  0  0  0  0  0  0  0  0  0  0
   25.6555  -20.5616  -17.8846 C   0  0  2  0  0  0  0  0  0  0  0  0
   26.3988  -21.4312  -18.7485 N   0  0  0  0  0  0  0  0  0  0  0  0
   24.5577  -21.3402  -17.2517 C   0  0  0  0  0  0  0  0  0  0  0  0
   23.7727  -21.9750  -18.0135 O   0  0  0  0  0  0  0  0  0  0  0  0
   26.3692  -27.4762  -16.9642 O   0  0  0  0  0  0  0  0  0  0  0  0
   25.7317  -26.4127  -16.2993 C   0  0  0  0  0  0  0  0  0  0  0  0
   24.4470  -26.5505  -15.8225 C   0  0  0  0  0  0  0  0  0  0  0  0
   23.8164  -25.5120  -15.1702 C   0  0  0  0  0  0  0  0  0  0  0  0
   24.4496  -24.2883  -14.9682 C   0  0  0  0  0  0  0  0  0  0  0  0
   23.7591  -23.1759  -14.3251 C   0  0  0  0  0  0  0  0  0  0  0  0
   23.2147  -22.1835  -15.2826 C   0  0  2  0  0  0  0  0  0  0  0  0
   24.3398  -21.4155  -15.8804 N   0  0  0  0  0  0  0  0  0  0  0  0
   22.3591  -21.1862  -14.6550 C   0  0  0  0  0  0  0  0  0  0  0  0
   22.9078  -20.2553  -13.9692 O   0  0  0  0  0  0  0  0  0  0  0  0
   25.7304  -24.1588  -15.4463 C   0  0  0  0  0  0  0  0  0  0  0  0
   26.3725  -25.2108  -16.1085 C   0  0  0  0  0  0  0  0  0  0  0  0
   20.9439  -21.1042  -14.7132 N   0  0  0  0  0  0  0  0  0  0  0  0
   20.2065  -19.9835  -14.1636 C   0  0  1  0  0  0  0  0  0  0  0  0
   20.8772  -18.6985  -14.6342 C   0  0  0  0  0  0  0  0  0  0  0  0
   20.1599  -17.5147  -14.1433 C   0  0  0  0  0  0  0  0  0  0  0  0
   20.2062  -16.9645  -12.8824 C   0  0  0  0  0  0  0  0  0  0  0  0
   19.3945  -15.8779  -12.8493 N   0  0  0  0  0  0  0  0  0  0  0  0
   18.8157  -15.6978  -14.0519 C   0  0  0  0  0  0  0  0  0  0  0  0
   17.9223  -14.7394  -14.5049 C   0  0  0  0  0  0  0  0  0  0  0  0
   17.5014  -14.8191  -15.8137 C   0  0  0  0  0  0  0  0  0  0  0  0
   17.9602  -15.8219  -16.6343 C   0  0  0  0  0  0  0  0  0  0  0  0
   18.8541  -16.7686  -16.1562 C   0  0  0  0  0  0  0  0  0  0  0  0
   19.2863  -16.7112  -14.8621 C   0  0  0  0  0  0  0  0  0  0  0  0
   18.7757  -19.9948  -14.4332 C   0  0  0  0  0  0  0  0  0  0  0  0
   18.2455  -20.3266  -15.5186 O   0  0  0  0  0  0  0  0  0  0  0  0
   17.8524  -19.6129  -13.4361 O   0  0  0  0  0  0  0  0  0  0  0  0
  2  1  1  0
  3  2  2  0
  4  2  1  0
  5  6  1  0
  5  4  1  0
  6  7  1  6
  8  9  2  0
  8  6  1  0
 10 11  1  0
 11 12  2  0
 12 13  1  0
 14 13  2  0
 14 15  1  0
 16 15  1  1
 16 17  1  0
 17  8  1  0
 18 19  2  0
 18 16  1  0
 20 14  1  0
 21 11  1  0
 21 20  2  0
 22 18  1  0
 23 24  1  6
 23 22  1  0
 25 24  1  0
 25 33  1  0
 26 27  1  0
 26 25  2  0
 27 28  1  0
 28 29  2  0
 28 33  1  0
 29 30  1  0
 30 31  2  0
 32 31  1  0
 33 32  2  0
 34 23  1  0
 35 34  2  0
 36 34  1  0
M  END
$$$$
