QYW.pdb
     RDKit          3D

 36 38  0  0  1  0  0  0  0  0999 V2000
   29.2726  -19.2131  -18.2211 N   0  0  0  0  0  0  0  0  0  0  0  0
   29.0419  -19.8143  -19.5062 C   0  0  0  0  0  0  0  0  0  0  0  0
   29.8557  -19.6148  -20.4383 O   0  0  0  0  0  0  0  0  0  0  0  0
   27.8650  -20.6435  -19.6810 C   0  0  0  0  0  0  0  0  0  0  0  0
   27.1604  -20.9562  -18.4209 C   0  0  0  0  0  0  0  0  0  0  0  0
   27.7410  -22.0036  -17.5401 C   0  0  2  0  0  0  0  0  0  0  0  0
   27.8328  -23.3138  -18.1147 N   0  0  0  0  0  0  0  0  0  0  0  0
   26.9912  -22.0947  -16.2590 C   0  0  0  0  0  0  0  0  0  0  0  0
   26.0311  -22.9157  -16.1970 O   0  0  0  0  0  0  0  0  0  0  0  0
   24.1506  -20.0654   -8.0314 O   0  0  0  0  0  0  0  0  0  0  0  0
   24.8979  -20.2320   -9.2118 C   0  0  0  0  0  0  0  0  0  0  0  0
   24.6592  -21.2977  -10.0509 C   0  0  0  0  0  0  0  0  0  0  0  0
   25.3882  -21.4668  -11.2091 C   0  0  0  0  0  0  0  0  0  0  0  0
   26.3901  -20.5716  -11.5755 C   0  0  0  0  0  0  0  0  0  0  0  0
   27.1940  -20.7844  -12.7738 C   0  0  0  0  0  0  0  0  0  0  0  0
   26.4293  -21.3607  -13.9057 C   0  0  2  0  0  0  0  0  0  0  0  0
   27.2771  -21.3381  -15.1279 N   0  0  0  0  0  0  0  0  0  0  0  0
   25.2404  -20.5928  -14.2484 C   0  0  0  0  0  0  0  0  0  0  0  0
   25.3912  -19.4327  -14.7672 O   0  0  0  0  0  0  0  0  0  0  0  0
   26.6220  -19.5116  -10.7338 C   0  0  0  0  0  0  0  0  0  0  0  0
   25.8839  -19.3377   -9.5580 C   0  0  0  0  0  0  0  0  0  0  0  0
   23.8857  -20.9808  -14.0831 N   0  0  0  0  0  0  0  0  0  0  0  0
   22.7806  -20.0838  -14.3588 C   0  0  1  0  0  0  0  0  0  0  0  0
   22.9307  -19.5717  -15.7862 C   0  0  0  0  0  0  0  0  0  0  0  0
   21.6455  -19.1023  -16.3197 C   0  0  0  0  0  0  0  0  0  0  0  0
   20.8963  -18.0303  -15.8904 C   0  0  0  0  0  0  0  0  0  0  0  0
   19.7781  -17.9444  -16.6539 N   0  0  0  0  0  0  0  0  0  0  0  0
   19.7703  -18.9290  -17.5728 C   0  0  0  0  0  0  0  0  0  0  0  0
   18.8548  -19.2520  -18.5624 C   0  0  0  0  0  0  0  0  0  0  0  0
   19.1288  -20.3383  -19.3632 C   0  0  0  0  0  0  0  0  0  0  0  0
   20.2770  -21.0706  -19.1767 C   0  0  0  0  0  0  0  0  0  0  0  0
   21.1769  -20.7262  -18.1790 C   0  0  0  0  0  0  0  0  0  0  0  0
   20.9278  -19.6533  -17.3718 C   0  0  0  0  0  0  0  0  0  0  0  0
   21.4584  -20.6372  -14.1027 C   0  0  0  0  0  0  0  0  0  0  0  0
   21.1698  -21.8562  -14.1074 O   0  0  0  0  0  0  0  0  0  0  0  0
   20.3660  -19.7895  -13.8191 O   0  0  0  0  0  0  0  0  0  0  0  0
  2  1  1  0
  3  2  2  0
  4  2  1  0
  5  6  1  0
  5  4  1  0
  6  7  1  6
  8  9  2  0
  8  6  1  0
 10 11  1  0
 11 12  2  0
 12 13  1  0
 14 13  2  0
 14 15  1  0
 16 15  1  1
 16 17  1  0
 17  8  1  0
 18 19  2  0
 18 16  1  0
 20 14  1  0
 21 11  1  0
 21 20  2  0
 22 18  1  0
 23 24  1  6
 23 22  1  0
 25 24  1  0
 25 33  1  0
 26 27  1  0
 26 25  2  0
 27 28  1  0
 28 29  2  0
 28 33  1  0
 29 30  1  0
 30 31  2  0
 32 31  1  0
 33 32  2  0
 34 23  1  0
 35 34  2  0
 36 34  1  0
M  END
$$$$
