GVE.pdb
     RDKit          3D

 21 20  0  0  1  0  0  0  0  0999 V2000
    4.5262  -19.1613   22.7804 N   0  0  0  0  0  0  0  0  0  0  0  0
    4.7724  -18.5423   24.0672 C   0  0  0  0  0  0  0  0  0  0  0  0
    5.8635  -17.5444   23.9204 C   0  0  0  0  0  0  0  0  0  0  0  0
    6.7687  -17.6948   23.0267 O   0  0  0  0  0  0  0  0  0  0  0  0
    6.4536  -14.0340   26.7045 C   0  0  0  0  0  0  0  0  0  0  0  0
    6.7953  -14.1104   25.2199 C   0  0  1  0  0  0  0  0  0  0  0  0
    7.9123  -13.1511   24.9484 C   0  0  0  0  0  0  0  0  0  0  0  0
    7.0530  -15.4906   24.7576 C   0  0  2  0  0  0  0  0  0  0  0  0
    5.9301  -16.3968   24.7721 N   0  0  0  0  0  0  0  0  0  0  0  0
    8.3228  -16.0848   25.2506 C   0  0  0  0  0  0  0  0  0  0  0  0
    8.2374  -16.8658   26.2330 O   0  0  0  0  0  0  0  0  0  0  0  0
    9.5816  -15.8369   24.7075 N   0  0  0  0  0  0  0  0  0  0  0  0
   10.6500  -16.8825   24.7180 C   0  0  1  0  0  0  0  0  0  0  0  0
   11.5511  -16.5884   23.5674 C   0  0  0  0  0  0  0  0  0  0  0  0
   12.7323  -17.5102   23.5562 C   0  0  0  0  0  0  0  0  0  0  0  0
   13.6190  -17.1967   22.4037 C   0  0  0  0  0  0  0  0  0  0  0  0
   13.2645  -16.3198   21.6020 O   0  0  0  0  0  0  0  0  0  0  0  0
   11.4015  -16.7022   25.9832 C   0  0  0  0  0  0  0  0  0  0  0  0
   12.2324  -17.6364   26.5635 O   0  0  0  0  0  0  0  0  0  0  0  0
   14.8169  -17.8827   22.2574 O   0  0  0  0  0  0  0  0  0  0  0  0
   11.2807  -15.6133   26.5952 O   0  0  0  0  0  0  0  0  0  0  0  0
  2  1  1  0
  3  2  1  0
  4  3  2  0
  6  5  1  1
  6  8  1  0
  7  6  1  0
  8  9  1  1
  9  3  1  0
 10  8  1  0
 10 11  2  0
 12 10  1  0
 13 12  1  0
 13 14  1  6
 14 15  1  0
 15 16  1  0
 16 20  1  0
 17 16  2  0
 18 13  1  0
 19 18  1  0
 21 18  2  0
M  END
$$$$
