GVE.pdb
     RDKit          3D

 21 20  0  0  1  0  0  0  0  0999 V2000
    7.5766  -15.6155   20.6949 N   0  0  0  0  0  0  0  0  0  0  0  0
    6.7013  -14.9726   21.6542 C   0  0  0  0  0  0  0  0  0  0  0  0
    7.4857  -14.6333   22.8696 C   0  0  0  0  0  0  0  0  0  0  0  0
    8.6680  -15.0982   23.0334 O   0  0  0  0  0  0  0  0  0  0  0  0
    5.7752  -12.5037   26.4080 C   0  0  0  0  0  0  0  0  0  0  0  0
    7.1740  -12.2748   25.8443 C   0  0  1  0  0  0  0  0  0  0  0  0
    8.0659  -11.8483   26.9686 C   0  0  0  0  0  0  0  0  0  0  0  0
    7.6799  -13.4282   25.0705 C   0  0  2  0  0  0  0  0  0  0  0  0
    6.9404  -13.7840   23.8836 N   0  0  0  0  0  0  0  0  0  0  0  0
    8.1085  -14.5892   25.8931 C   0  0  0  0  0  0  0  0  0  0  0  0
    7.2381  -15.4662   26.1299 O   0  0  0  0  0  0  0  0  0  0  0  0
    9.3886  -14.7676   26.4132 N   0  0  0  0  0  0  0  0  0  0  0  0
    9.7727  -16.0328   27.1106 C   0  0  1  0  0  0  0  0  0  0  0  0
   10.9848  -16.5553   26.4176 C   0  0  0  0  0  0  0  0  0  0  0  0
   11.5121  -17.7804   27.1002 C   0  0  0  0  0  0  0  0  0  0  0  0
   12.7069  -18.2969   26.3801 C   0  0  0  0  0  0  0  0  0  0  0  0
   12.8708  -17.9761   25.1937 O   0  0  0  0  0  0  0  0  0  0  0  0
   10.1307  -15.6550   28.4988 C   0  0  0  0  0  0  0  0  0  0  0  0
   10.2264  -14.3672   28.9810 O   0  0  0  0  0  0  0  0  0  0  0  0
   13.6075  -19.1138   27.0498 O   0  0  0  0  0  0  0  0  0  0  0  0
   10.3747  -16.5725   29.3194 O   0  0  0  0  0  0  0  0  0  0  0  0
  2  1  1  0
  3  2  1  0
  4  3  2  0
  6  5  1  1
  6  8  1  0
  7  6  1  0
  8  9  1  6
  9  3  1  0
 10  8  1  0
 10 11  2  0
 12 10  1  0
 13 12  1  0
 13 14  1  6
 14 15  1  0
 15 16  1  0
 16 20  1  0
 17 16  2  0
 18 13  1  0
 19 18  1  0
 21 18  2  0
M  END
$$$$
