GVE.pdb
     RDKit          3D

 21 20  0  0  1  0  0  0  0  0999 V2000
    5.8637  -17.7188   22.5785 N   0  0  0  0  0  0  0  0  0  0  0  0
    5.7216  -17.2404   23.9389 C   0  0  0  0  0  0  0  0  0  0  0  0
    6.5562  -16.0231   24.1106 C   0  0  0  0  0  0  0  0  0  0  0  0
    7.4797  -15.7417   23.2689 O   0  0  0  0  0  0  0  0  0  0  0  0
    7.7989  -11.9065   26.6659 C   0  0  0  0  0  0  0  0  0  0  0  0
    6.7668  -13.0001   26.4101 C   0  0  1  0  0  0  0  0  0  0  0  0
    5.5129  -12.3508   25.9122 C   0  0  0  0  0  0  0  0  0  0  0  0
    7.2767  -14.0829   25.5426 C   0  0  2  0  0  0  0  0  0  0  0  0
    6.3503  -15.1404   25.2176 N   0  0  0  0  0  0  0  0  0  0  0  0
    8.6468  -14.5529   25.8746 C   0  0  0  0  0  0  0  0  0  0  0  0
    9.5251  -13.6665   26.0347 O   0  0  0  0  0  0  0  0  0  0  0  0
    9.0183  -15.8881   26.0161 N   0  0  0  0  0  0  0  0  0  0  0  0
   10.4177  -16.2694   26.3781 C   0  0  1  0  0  0  0  0  0  0  0  0
   10.3193  -17.3968   27.3485 C   0  0  0  0  0  0  0  0  0  0  0  0
   11.6747  -17.9357   27.6908 C   0  0  0  0  0  0  0  0  0  0  0  0
   11.5500  -19.0902   28.6205 C   0  0  0  0  0  0  0  0  0  0  0  0
   10.6152  -19.0993   29.4350 O   0  0  0  0  0  0  0  0  0  0  0  0
   11.0566  -16.7546   25.1314 C   0  0  0  0  0  0  0  0  0  0  0  0
   12.4136  -16.8447   24.9072 O   0  0  0  0  0  0  0  0  0  0  0  0
   12.4715  -20.1259   28.5505 O   0  0  0  0  0  0  0  0  0  0  0  0
   10.3146  -17.1155   24.1859 O   0  0  0  0  0  0  0  0  0  0  0  0
  2  1  1  0
  3  2  1  0
  4  3  2  0
  6  5  1  6
  6  8  1  0
  7  6  1  0
  8  9  1  1
  9  3  1  0
 10  8  1  0
 10 11  2  0
 12 10  1  0
 13 12  1  0
 13 14  1  1
 14 15  1  0
 15 16  1  0
 16 20  1  0
 17 16  2  0
 18 13  1  0
 19 18  1  0
 21 18  2  0
M  END
$$$$
