GVE.pdb
     RDKit          3D

 21 20  0  0  1  0  0  0  0  0999 V2000
    5.1449  -18.2965   22.3383 N   0  0  0  0  0  0  0  0  0  0  0  0
    5.1538  -17.8567   23.7189 C   0  0  0  0  0  0  0  0  0  0  0  0
    6.2244  -16.8413   23.8937 C   0  0  0  0  0  0  0  0  0  0  0  0
    7.2933  -16.8931   23.1899 O   0  0  0  0  0  0  0  0  0  0  0  0
    6.1200  -13.7738   27.1587 C   0  0  0  0  0  0  0  0  0  0  0  0
    6.8375  -13.6245   25.8209 C   0  0  1  0  0  0  0  0  0  0  0  0
    7.9999  -12.7011   26.0156 C   0  0  0  0  0  0  0  0  0  0  0  0
    7.1881  -14.9225   25.2065 C   0  0  2  0  0  0  0  0  0  0  0  0
    6.0885  -15.7864   24.8506 N   0  0  0  0  0  0  0  0  0  0  0  0
    8.3330  -15.6234   25.8437 C   0  0  0  0  0  0  0  0  0  0  0  0
    8.0521  -16.5273   26.6722 O   0  0  0  0  0  0  0  0  0  0  0  0
    9.6753  -15.3492   25.5907 N   0  0  0  0  0  0  0  0  0  0  0  0
   10.7272  -16.3968   25.7666 C   0  0  1  0  0  0  0  0  0  0  0  0
   11.8393  -16.0505   24.8363 C   0  0  0  0  0  0  0  0  0  0  0  0
   13.0146  -16.9580   25.0368 C   0  0  0  0  0  0  0  0  0  0  0  0
   14.0885  -16.6330   24.0601 C   0  0  0  0  0  0  0  0  0  0  0  0
   14.4916  -17.5262   23.3005 O   0  0  0  0  0  0  0  0  0  0  0  0
   11.2072  -16.2792   27.1643 C   0  0  0  0  0  0  0  0  0  0  0  0
   11.8549  -17.2658   27.8764 O   0  0  0  0  0  0  0  0  0  0  0  0
   14.6055  -15.3455   24.0172 O   0  0  0  0  0  0  0  0  0  0  0  0
   11.0132  -15.1971   27.7694 O   0  0  0  0  0  0  0  0  0  0  0  0
  2  1  1  0
  3  2  1  0
  4  3  2  0
  6  5  1  1
  6  8  1  0
  7  6  1  0
  8  9  1  1
  9  3  1  0
 10  8  1  0
 10 11  2  0
 12 10  1  0
 13 12  1  0
 13 14  1  6
 14 15  1  0
 15 16  1  0
 16 20  1  0
 17 16  2  0
 18 13  1  0
 19 18  1  0
 21 18  2  0
M  END
$$$$
