GVE.pdb
     RDKit          3D

 21 20  0  0  1  0  0  0  0  0999 V2000
    4.3108  -18.8358   22.7407 N   0  0  0  0  0  0  0  0  0  0  0  0
    4.6999  -18.3631   24.0541 C   0  0  0  0  0  0  0  0  0  0  0  0
    5.7552  -17.3285   23.9001 C   0  0  0  0  0  0  0  0  0  0  0  0
    6.5886  -17.3867   22.9292 O   0  0  0  0  0  0  0  0  0  0  0  0
    6.4536  -13.9746   26.8514 C   0  0  0  0  0  0  0  0  0  0  0  0
    6.7020  -13.9644   25.3464 C   0  0  1  0  0  0  0  0  0  0  0  0
    7.7753  -12.9613   25.0576 C   0  0  0  0  0  0  0  0  0  0  0  0
    6.9640  -15.3110   24.7959 C   0  0  2  0  0  0  0  0  0  0  0  0
    5.8668  -16.2476   24.8307 N   0  0  0  0  0  0  0  0  0  0  0  0
    8.2764  -15.8944   25.1774 C   0  0  0  0  0  0  0  0  0  0  0  0
    8.2811  -16.6822   26.1582 O   0  0  0  0  0  0  0  0  0  0  0  0
    9.4830  -15.6299   24.5332 N   0  0  0  0  0  0  0  0  0  0  0  0
   10.6260  -16.5910   24.6027 C   0  0  1  0  0  0  0  0  0  0  0  0
   11.5752  -16.2098   23.5182 C   0  0  0  0  0  0  0  0  0  0  0  0
   12.8384  -17.0116   23.5986 C   0  0  0  0  0  0  0  0  0  0  0  0
   13.7355  -16.6744   22.4609 C   0  0  0  0  0  0  0  0  0  0  0  0
   13.3519  -15.8393   21.6286 O   0  0  0  0  0  0  0  0  0  0  0  0
   11.2767  -16.3751   25.9172 C   0  0  0  0  0  0  0  0  0  0  0  0
   12.0236  -17.3067   26.6058 O   0  0  0  0  0  0  0  0  0  0  0  0
   14.9746  -17.2922   22.3621 O   0  0  0  0  0  0  0  0  0  0  0  0
   11.1445  -15.2554   26.4681 O   0  0  0  0  0  0  0  0  0  0  0  0
  2  1  1  0
  3  2  1  0
  4  3  2  0
  6  5  1  1
  6  8  1  0
  7  6  1  0
  8  9  1  1
  9  3  1  0
 10  8  1  0
 10 11  2  0
 12 10  1  0
 13 12  1  0
 13 14  1  6
 14 15  1  0
 15 16  1  0
 16 20  1  0
 17 16  2  0
 18 13  1  0
 19 18  1  0
 21 18  2  0
M  END
$$$$
