GVE.pdb
     RDKit          3D

 21 20  0  0  1  0  0  0  0  0999 V2000
    8.7076  -17.5415   16.7689 N   0  0  0  0  0  0  0  0  0  0  0  0
    7.7966  -17.1604   17.8293 C   0  0  0  0  0  0  0  0  0  0  0  0
    8.5621  -16.4594   18.8927 C   0  0  0  0  0  0  0  0  0  0  0  0
    9.8354  -16.5777   18.9650 O   0  0  0  0  0  0  0  0  0  0  0  0
    7.5954  -12.7143   20.1274 C   0  0  0  0  0  0  0  0  0  0  0  0
    8.0016  -13.6122   21.2917 C   0  0  1  0  0  0  0  0  0  0  0  0
    6.8136  -13.7811   22.1870 C   0  0  0  0  0  0  0  0  0  0  0  0
    8.6180  -14.8821   20.8530 C   0  0  2  0  0  0  0  0  0  0  0  0
    7.8972  -15.6402   19.8590 N   0  0  0  0  0  0  0  0  0  0  0  0
    9.1944  -15.7047   21.9481 C   0  0  0  0  0  0  0  0  0  0  0  0
    8.5355  -16.7162   22.3020 O   0  0  0  0  0  0  0  0  0  0  0  0
   10.3954  -15.4338   22.6002 N   0  0  0  0  0  0  0  0  0  0  0  0
   10.9536  -16.3744   23.6192 C   0  0  1  0  0  0  0  0  0  0  0  0
   12.4044  -16.0568   23.7488 C   0  0  0  0  0  0  0  0  0  0  0  0
   13.2492  -17.1163   23.1094 C   0  0  0  0  0  0  0  0  0  0  0  0
   14.4893  -16.5165   22.5479 C   0  0  0  0  0  0  0  0  0  0  0  0
   14.8300  -16.8246   21.3963 O   0  0  0  0  0  0  0  0  0  0  0  0
   10.2709  -16.0619   24.8976 C   0  0  0  0  0  0  0  0  0  0  0  0
   10.2045  -16.8919   25.9960 O   0  0  0  0  0  0  0  0  0  0  0  0
   15.2268  -15.6274   23.3176 O   0  0  0  0  0  0  0  0  0  0  0  0
    9.6948  -14.9524   25.0069 O   0  0  0  0  0  0  0  0  0  0  0  0
  2  1  1  0
  3  2  1  0
  4  3  2  0
  6  5  1  6
  6  8  1  0
  7  6  1  0
  8  9  1  1
  9  3  1  0
 10  8  1  0
 10 11  2  0
 12 10  1  0
 13 12  1  0
 13 14  1  1
 14 15  1  0
 15 16  1  0
 16 20  1  0
 17 16  2  0
 18 13  1  0
 19 18  1  0
 21 18  2  0
M  END
$$$$
