GVE.pdb
     RDKit          3D

 21 20  0  0  1  0  0  0  0  0999 V2000
    7.0629  -14.5160   20.2992 N   0  0  0  0  0  0  0  0  0  0  0  0
    6.2988  -14.7446   21.5089 C   0  0  0  0  0  0  0  0  0  0  0  0
    7.1532  -14.4332   22.6840 C   0  0  0  0  0  0  0  0  0  0  0  0
    8.4266  -14.3649   22.5643 O   0  0  0  0  0  0  0  0  0  0  0  0
    7.7880  -12.6173   27.2287 C   0  0  0  0  0  0  0  0  0  0  0  0
    6.7840  -13.0608   26.1694 C   0  0  1  0  0  0  0  0  0  0  0  0
    6.1134  -11.8393   25.6218 C   0  0  0  0  0  0  0  0  0  0  0  0
    7.3806  -13.9396   25.1414 C   0  0  2  0  0  0  0  0  0  0  0  0
    6.5762  -14.2053   23.9732 N   0  0  0  0  0  0  0  0  0  0  0  0
    8.0906  -15.1302   25.6767 C   0  0  0  0  0  0  0  0  0  0  0  0
    7.3754  -16.1012   26.0347 O   0  0  0  0  0  0  0  0  0  0  0  0
    9.4732  -15.2403   25.8087 N   0  0  0  0  0  0  0  0  0  0  0  0
   10.1101  -16.5171   26.2547 C   0  0  1  0  0  0  0  0  0  0  0  0
   11.5171  -16.4909   25.7626 C   0  0  0  0  0  0  0  0  0  0  0  0
   11.5710  -16.6238   24.2711 C   0  0  0  0  0  0  0  0  0  0  0  0
   12.9416  -16.3238   23.7768 C   0  0  0  0  0  0  0  0  0  0  0  0
   13.7996  -15.9533   24.5915 O   0  0  0  0  0  0  0  0  0  0  0  0
   10.1123  -16.4899   27.7370 C   0  0  0  0  0  0  0  0  0  0  0  0
   10.3555  -17.5690   28.5594 O   0  0  0  0  0  0  0  0  0  0  0  0
   13.2279  -16.4713   22.4266 O   0  0  0  0  0  0  0  0  0  0  0  0
    9.8705  -15.4004   28.3109 O   0  0  0  0  0  0  0  0  0  0  0  0
  2  1  1  0
  3  2  1  0
  4  3  2  0
  6  5  1  1
  6  8  1  0
  7  6  1  0
  8  9  1  6
  9  3  1  0
 10  8  1  0
 10 11  2  0
 12 10  1  0
 13 12  1  0
 13 14  1  6
 14 15  1  0
 15 16  1  0
 16 20  1  0
 17 16  2  0
 18 13  1  0
 19 18  1  0
 21 18  2  0
M  END
$$$$
