GVE.pdb
     RDKit          3D

 21 20  0  0  1  0  0  0  0  0999 V2000
    8.3858  -18.3747   16.9068 N   0  0  0  0  0  0  0  0  0  0  0  0
    7.6777  -18.1966   18.1585 C   0  0  0  0  0  0  0  0  0  0  0  0
    8.3939  -17.1839   18.9768 C   0  0  0  0  0  0  0  0  0  0  0  0
    9.6597  -17.0273   18.8591 O   0  0  0  0  0  0  0  0  0  0  0  0
    6.4694  -14.7947   22.2985 C   0  0  0  0  0  0  0  0  0  0  0  0
    7.5687  -14.3361   21.3456 C   0  0  1  0  0  0  0  0  0  0  0  0
    8.3743  -13.2801   22.0366 C   0  0  0  0  0  0  0  0  0  0  0  0
    8.3688  -15.4559   20.8063 C   0  0  2  0  0  0  0  0  0  0  0  0
    7.6895  -16.3639   19.9140 N   0  0  0  0  0  0  0  0  0  0  0  0
    9.2535  -16.1221   21.7972 C   0  0  0  0  0  0  0  0  0  0  0  0
    8.8318  -17.1955   22.2996 O   0  0  0  0  0  0  0  0  0  0  0  0
   10.4978  -15.6438   22.2021 N   0  0  0  0  0  0  0  0  0  0  0  0
   11.4492  -16.5075   22.9661 C   0  0  1  0  0  0  0  0  0  0  0  0
   12.8209  -16.0071   22.6656 C   0  0  0  0  0  0  0  0  0  0  0  0
   13.8524  -16.7435   23.4648 C   0  0  0  0  0  0  0  0  0  0  0  0
   15.2151  -16.4391   22.9517 C   0  0  0  0  0  0  0  0  0  0  0  0
   15.6983  -17.1723   22.0764 O   0  0  0  0  0  0  0  0  0  0  0  0
   11.1548  -16.2880   24.4024 C   0  0  0  0  0  0  0  0  0  0  0  0
   11.4751  -17.1507   25.4286 O   0  0  0  0  0  0  0  0  0  0  0  0
   15.9059  -15.3456   23.4556 O   0  0  0  0  0  0  0  0  0  0  0  0
   10.5599  -15.2332   24.7318 O   0  0  0  0  0  0  0  0  0  0  0  0
  2  1  1  0
  3  2  1  0
  4  3  2  0
  6  5  1  1
  6  8  1  0
  7  6  1  0
  8  9  1  1
  9  3  1  0
 10  8  1  0
 10 11  2  0
 12 10  1  0
 13 12  1  0
 13 14  1  1
 14 15  1  0
 15 16  1  0
 16 20  1  0
 17 16  2  0
 18 13  1  0
 19 18  1  0
 21 18  2  0
M  END
$$$$
