GVE.pdb
     RDKit          3D

 21 20  0  0  1  0  0  0  0  0999 V2000
    8.2537  -17.8556   16.3044 N   0  0  0  0  0  0  0  0  0  0  0  0
    7.5789  -17.6747   17.5740 C   0  0  0  0  0  0  0  0  0  0  0  0
    8.3512  -16.7074   18.3960 C   0  0  0  0  0  0  0  0  0  0  0  0
    9.6275  -16.6482   18.3057 O   0  0  0  0  0  0  0  0  0  0  0  0
    6.5027  -14.2159   21.6715 C   0  0  0  0  0  0  0  0  0  0  0  0
    7.7097  -13.8482   20.8144 C   0  0  1  0  0  0  0  0  0  0  0  0
    8.5807  -12.9240   21.6073 C   0  0  0  0  0  0  0  0  0  0  0  0
    8.4125  -15.0297   20.2709 C   0  0  2  0  0  0  0  0  0  0  0  0
    7.6902  -15.8237   19.3065 N   0  0  0  0  0  0  0  0  0  0  0  0
    9.1617  -15.8254   21.2778 C   0  0  0  0  0  0  0  0  0  0  0  0
    8.6170  -16.8861   21.6790 O   0  0  0  0  0  0  0  0  0  0  0  0
   10.4060  -15.4798   21.8005 N   0  0  0  0  0  0  0  0  0  0  0  0
   11.1838  -16.4354   22.6471 C   0  0  1  0  0  0  0  0  0  0  0  0
   12.6029  -15.9795   22.6178 C   0  0  0  0  0  0  0  0  0  0  0  0
   13.4608  -16.8242   23.5096 C   0  0  0  0  0  0  0  0  0  0  0  0
   14.8568  -16.3105   23.5181 C   0  0  0  0  0  0  0  0  0  0  0  0
   15.1172  -15.2858   22.8704 O   0  0  0  0  0  0  0  0  0  0  0  0
   10.6572  -16.2989   24.0263 C   0  0  0  0  0  0  0  0  0  0  0  0
   10.7282  -17.2603   25.0115 O   0  0  0  0  0  0  0  0  0  0  0  0
   15.8266  -16.9808   24.2509 O   0  0  0  0  0  0  0  0  0  0  0  0
   10.0913  -15.2242   24.3418 O   0  0  0  0  0  0  0  0  0  0  0  0
  2  1  1  0
  3  2  1  0
  4  3  2  0
  6  5  1  1
  6  8  1  0
  7  6  1  0
  8  9  1  1
  9  3  1  0
 10  8  1  0
 10 11  2  0
 12 10  1  0
 13 12  1  0
 13 14  1  1
 14 15  1  0
 15 16  1  0
 16 20  1  0
 17 16  2  0
 18 13  1  0
 19 18  1  0
 21 18  2  0
M  END
$$$$
