GVE.pdb
     RDKit          3D

 21 20  0  0  1  0  0  0  0  0999 V2000
    5.4850  -16.7985   21.5989 N   0  0  0  0  0  0  0  0  0  0  0  0
    5.1943  -16.6328   23.0087 C   0  0  0  0  0  0  0  0  0  0  0  0
    6.3036  -15.8745   23.6431 C   0  0  0  0  0  0  0  0  0  0  0  0
    7.4478  -15.7939   23.0729 O   0  0  0  0  0  0  0  0  0  0  0  0
    8.1664  -12.9156   27.1638 C   0  0  0  0  0  0  0  0  0  0  0  0
    6.9177  -13.5704   26.5815 C   0  0  1  0  0  0  0  0  0  0  0  0
    6.0617  -12.4956   25.9868 C   0  0  0  0  0  0  0  0  0  0  0  0
    7.2269  -14.6824   25.6581 C   0  0  2  0  0  0  0  0  0  0  0  0
    6.1216  -15.2206   24.9024 N   0  0  0  0  0  0  0  0  0  0  0  0
    8.1474  -15.7108   26.2089 C   0  0  0  0  0  0  0  0  0  0  0  0
    7.6320  -16.6013   26.9326 O   0  0  0  0  0  0  0  0  0  0  0  0
    9.5215  -15.7527   25.9828 N   0  0  0  0  0  0  0  0  0  0  0  0
   10.3536  -16.8934   26.4739 C   0  0  1  0  0  0  0  0  0  0  0  0
   11.6407  -16.8416   25.7236 C   0  0  0  0  0  0  0  0  0  0  0  0
   11.4239  -17.0816   24.2606 C   0  0  0  0  0  0  0  0  0  0  0  0
   12.7056  -16.9365   23.5197 C   0  0  0  0  0  0  0  0  0  0  0  0
   12.7835  -17.3960   22.3707 O   0  0  0  0  0  0  0  0  0  0  0  0
   10.6164  -16.6337   27.9097 C   0  0  0  0  0  0  0  0  0  0  0  0
   10.2703  -15.4889   28.5950 O   0  0  0  0  0  0  0  0  0  0  0  0
   13.7742  -16.2889   24.1242 O   0  0  0  0  0  0  0  0  0  0  0  0
   11.2071  -17.5191   28.5745 O   0  0  0  0  0  0  0  0  0  0  0  0
  2  1  1  0
  3  2  1  0
  4  3  2  0
  6  5  1  6
  6  8  1  0
  7  6  1  0
  8  9  1  1
  9  3  1  0
 10  8  1  0
 10 11  2  0
 12 10  1  0
 13 12  1  0
 13 14  1  6
 14 15  1  0
 15 16  1  0
 16 20  1  0
 17 16  2  0
 18 13  1  0
 19 18  1  0
 21 18  2  0
M  END
$$$$
