GVE.pdb
     RDKit          3D

 21 20  0  0  1  0  0  0  0  0999 V2000
    4.7149  -18.9628   21.7418 N   0  0  0  0  0  0  0  0  0  0  0  0
    4.8558  -17.5865   22.1727 C   0  0  0  0  0  0  0  0  0  0  0  0
    6.2325  -17.1228   21.8602 C   0  0  0  0  0  0  0  0  0  0  0  0
    7.0900  -17.9247   21.3481 O   0  0  0  0  0  0  0  0  0  0  0  0
    7.2661  -13.8014   20.0255 C   0  0  0  0  0  0  0  0  0  0  0  0
    8.1207  -13.9743   21.2771 C   0  0  1  0  0  0  0  0  0  0  0  0
    7.8269  -12.8353   22.2034 C   0  0  0  0  0  0  0  0  0  0  0  0
    7.9789  -15.3109   21.8923 C   0  0  2  0  0  0  0  0  0  0  0  0
    6.6325  -15.7749   22.1251 N   0  0  0  0  0  0  0  0  0  0  0  0
    8.9201  -15.5847   23.0091 C   0  0  0  0  0  0  0  0  0  0  0  0
    8.4528  -15.5055   24.1744 O   0  0  0  0  0  0  0  0  0  0  0  0
   10.2646  -15.9157   22.8546 N   0  0  0  0  0  0  0  0  0  0  0  0
   11.1099  -16.2934   24.0282 C   0  0  1  0  0  0  0  0  0  0  0  0
   10.8439  -17.7341   24.3042 C   0  0  0  0  0  0  0  0  0  0  0  0
   11.7963  -18.2736   25.3274 C   0  0  0  0  0  0  0  0  0  0  0  0
   11.0477  -18.9381   26.4277 C   0  0  0  0  0  0  0  0  0  0  0  0
    9.8172  -19.0509   26.3261 O   0  0  0  0  0  0  0  0  0  0  0  0
   12.5199  -16.1323   23.5992 C   0  0  0  0  0  0  0  0  0  0  0  0
   13.6081  -16.0317   24.4393 O   0  0  0  0  0  0  0  0  0  0  0  0
   11.7394  -19.4192   27.5308 O   0  0  0  0  0  0  0  0  0  0  0  0
   12.7634  -16.0768   22.3694 O   0  0  0  0  0  0  0  0  0  0  0  0
  2  1  1  0
  3  2  1  0
  4  3  2  0
  6  5  1  6
  6  8  1  0
  7  6  1  0
  8  9  1  1
  9  3  1  0
 10  8  1  0
 10 11  2  0
 12 10  1  0
 13 12  1  0
 13 14  1  6
 14 15  1  0
 15 16  1  0
 16 20  1  0
 17 16  2  0
 18 13  1  0
 19 18  1  0
 21 18  2  0
M  END
$$$$
