GVE.pdb
     RDKit          3D

 21 20  0  0  1  0  0  0  0  0999 V2000
    7.5415  -18.0711   17.1795 N   0  0  0  0  0  0  0  0  0  0  0  0
    6.9227  -17.4691   18.3433 C   0  0  0  0  0  0  0  0  0  0  0  0
    7.9222  -16.6102   19.0297 C   0  0  0  0  0  0  0  0  0  0  0  0
    9.1595  -16.6603   18.7022 O   0  0  0  0  0  0  0  0  0  0  0  0
    7.5079  -12.7531   20.1796 C   0  0  0  0  0  0  0  0  0  0  0  0
    8.0625  -13.6212   21.3046 C   0  0  1  0  0  0  0  0  0  0  0  0
    7.0593  -13.6416   22.4159 C   0  0  0  0  0  0  0  0  0  0  0  0
    8.4873  -14.9601   20.8441 C   0  0  2  0  0  0  0  0  0  0  0  0
    7.5282  -15.7114   20.0708 N   0  0  0  0  0  0  0  0  0  0  0  0
    9.2171  -15.7642   21.8585 C   0  0  0  0  0  0  0  0  0  0  0  0
    8.5970  -16.7358   22.3625 O   0  0  0  0  0  0  0  0  0  0  0  0
   10.5206  -15.5168   22.2835 N   0  0  0  0  0  0  0  0  0  0  0  0
   11.2876  -16.5345   23.0650 C   0  0  1  0  0  0  0  0  0  0  0  0
   12.7312  -16.3017   22.7746 C   0  0  0  0  0  0  0  0  0  0  0  0
   13.5973  -17.2566   23.5379 C   0  0  0  0  0  0  0  0  0  0  0  0
   15.0331  -16.9839   23.2605 C   0  0  0  0  0  0  0  0  0  0  0  0
   15.5094  -15.8936   23.6093 O   0  0  0  0  0  0  0  0  0  0  0  0
   11.0269  -16.2486   24.4962 C   0  0  0  0  0  0  0  0  0  0  0  0
   11.2501  -17.1181   25.5422 O   0  0  0  0  0  0  0  0  0  0  0  0
   15.8022  -17.9515   22.6287 O   0  0  0  0  0  0  0  0  0  0  0  0
   10.5591  -15.1248   24.8013 O   0  0  0  0  0  0  0  0  0  0  0  0
  2  1  1  0
  3  2  1  0
  4  3  2  0
  6  5  1  6
  6  8  1  0
  7  6  1  0
  8  9  1  1
  9  3  1  0
 10  8  1  0
 10 11  2  0
 12 10  1  0
 13 12  1  0
 13 14  1  1
 14 15  1  0
 15 16  1  0
 16 20  1  0
 17 16  2  0
 18 13  1  0
 19 18  1  0
 21 18  2  0
M  END
$$$$
