GVE.pdb
     RDKit          3D

 21 20  0  0  1  0  0  0  0  0999 V2000
    8.6688  -17.5953   16.7671 N   0  0  0  0  0  0  0  0  0  0  0  0
    7.7641  -17.0935   17.7817 C   0  0  0  0  0  0  0  0  0  0  0  0
    8.5559  -16.4097   18.8369 C   0  0  0  0  0  0  0  0  0  0  0  0
    9.8177  -16.6065   18.9357 O   0  0  0  0  0  0  0  0  0  0  0  0
    7.7884  -12.6251   20.1703 C   0  0  0  0  0  0  0  0  0  0  0  0
    8.1345  -13.5813   21.3073 C   0  0  1  0  0  0  0  0  0  0  0  0
    6.9395  -13.6938   22.2022 C   0  0  0  0  0  0  0  0  0  0  0  0
    8.6617  -14.8774   20.8306 C   0  0  2  0  0  0  0  0  0  0  0  0
    7.9296  -15.5200   19.7659 N   0  0  0  0  0  0  0  0  0  0  0  0
    9.1101  -15.7999   21.9058 C   0  0  0  0  0  0  0  0  0  0  0  0
    8.2991  -16.6951   22.2572 O   0  0  0  0  0  0  0  0  0  0  0  0
   10.3480  -15.7393   22.5422 N   0  0  0  0  0  0  0  0  0  0  0  0
   10.7407  -16.7495   23.5718 C   0  0  1  0  0  0  0  0  0  0  0  0
   12.2245  -16.8776   23.5049 C   0  0  0  0  0  0  0  0  0  0  0  0
   12.8239  -15.7911   22.6652 C   0  0  0  0  0  0  0  0  0  0  0  0
   14.2887  -16.0037   22.5171 C   0  0  0  0  0  0  0  0  0  0  0  0
   14.7203  -16.4398   21.4397 O   0  0  0  0  0  0  0  0  0  0  0  0
   10.3602  -16.1790   24.8862 C   0  0  0  0  0  0  0  0  0  0  0  0
   10.3932  -16.8474   26.0913 O   0  0  0  0  0  0  0  0  0  0  0  0
   15.1327  -15.7045   23.5778 O   0  0  0  0  0  0  0  0  0  0  0  0
    9.9682  -14.9876   24.9250 O   0  0  0  0  0  0  0  0  0  0  0  0
  2  1  1  0
  3  2  1  0
  4  3  2  0
  6  5  1  6
  6  8  1  0
  7  6  1  0
  8  9  1  1
  9  3  1  0
 10  8  1  0
 10 11  2  0
 12 10  1  0
 13 12  1  0
 13 14  1  1
 14 15  1  0
 15 16  1  0
 16 20  1  0
 17 16  2  0
 18 13  1  0
 19 18  1  0
 21 18  2  0
M  END
$$$$
