KVW.pdb
     RDKit          3D

 31 32  0  0  1  0  0  0  0  0999 V2000
   23.2422  -22.5156  -16.7679 N   0  0  0  0  0  0  0  0  0  0  0  0
   23.1582  -21.4755  -15.8068 C   0  0  1  0  0  0  0  0  0  0  0  0
   21.9169  -21.2362  -15.0983 C   0  0  0  0  0  0  0  0  0  0  0  0
   20.7194  -20.7683  -15.7465 C   0  0  0  0  0  0  0  0  0  0  0  0
   20.4096  -19.6848  -16.6236 C   0  0  0  0  0  0  0  0  0  0  0  0
   19.2197  -18.8241  -16.6048 C   0  0  0  0  0  0  0  0  0  0  0  0
   18.2281  -19.0057  -15.6223 N   0  0  0  0  0  0  0  0  0  0  0  0
   24.3392  -21.6116  -14.8429 C   0  0  0  0  0  0  0  0  0  0  0  0
   24.4650  -22.6306  -14.1575 O   0  0  0  0  0  0  0  0  0  0  0  0
   28.4466  -19.5413  -12.8227 C   0  0  0  0  0  0  0  0  0  0  0  0
   27.4538  -19.6147  -13.9663 C   0  0  1  0  0  0  0  0  0  0  0  0
   28.1234  -19.8049  -15.3055 C   0  0  0  0  0  0  0  0  0  0  0  0
   26.3387  -20.5830  -13.7007 C   0  0  2  0  0  0  0  0  0  0  0  0
   25.3122  -20.6080  -14.6974 N   0  0  0  0  0  0  0  0  0  0  0  0
   25.8206  -20.3060  -12.3420 C   0  0  0  0  0  0  0  0  0  0  0  0
   24.9317  -19.4541  -12.0964 O   0  0  0  0  0  0  0  0  0  0  0  0
   26.3552  -21.0435  -11.2518 N   0  0  0  0  0  0  0  0  0  0  0  0
   26.0143  -20.8012   -9.8901 C   0  0  1  0  0  0  0  0  0  0  0  0
   26.9472  -21.5488   -8.9792 C   0  0  0  0  0  0  0  0  0  0  0  0
   26.8304  -21.2465   -7.5526 C   0  0  0  0  0  0  0  0  0  0  0  0
   25.7005  -21.5097   -6.7615 C   0  0  0  0  0  0  0  0  0  0  0  0
   26.0077  -21.0593   -5.5420 N   0  0  0  0  0  0  0  0  0  0  0  0
   27.2482  -20.5340   -5.5140 C   0  0  0  0  0  0  0  0  0  0  0  0
   27.9807  -19.9659   -4.4834 C   0  0  0  0  0  0  0  0  0  0  0  0
   29.2533  -19.5150   -4.7458 C   0  0  0  0  0  0  0  0  0  0  0  0
   29.8292  -19.6057   -5.9937 C   0  0  0  0  0  0  0  0  0  0  0  0
   29.0800  -20.1731   -6.9973 C   0  0  0  0  0  0  0  0  0  0  0  0
   27.8029  -20.6395   -6.7894 C   0  0  0  0  0  0  0  0  0  0  0  0
   25.9220  -19.3787   -9.5330 C   0  0  0  0  0  0  0  0  0  0  0  0
   24.9034  -18.8008   -8.8293 O   0  0  0  0  0  0  0  0  0  0  0  0
   26.8655  -18.6277   -9.9095 O   0  0  0  0  0  0  0  0  0  0  0  0
  2  1  1  1
  2  3  1  0
  4  5  1  0
  4  3  1  0
  6  5  1  0
  7  6  1  0
  8  2  1  0
  8  9  2  0
 11 10  1  1
 11 12  1  0
 13 14  1  6
 13 11  1  0
 14  8  1  0
 15 13  1  0
 16 15  2  0
 17 15  1  0
 18 17  1  0
 19 20  1  0
 18 19  1  1
 20 28  1  0
 21 22  1  0
 21 20  2  0
 22 23  1  0
 23 28  2  0
 23 24  1  0
 24 25  2  0
 25 26  1  0
 27 26  2  0
 28 27  1  0
 29 18  1  0
 29 30  1  0
 31 29  2  0
M  END
$$$$
