KVW.pdb
     RDKit          3D

 31 32  0  0  1  0  0  0  0  0999 V2000
   27.8470  -21.9911  -17.4188 N   0  0  0  0  0  0  0  0  0  0  0  0
   28.0976  -22.7223  -16.2292 C   0  0  1  0  0  0  0  0  0  0  0  0
   29.3555  -23.4202  -16.0539 C   0  0  0  0  0  0  0  0  0  0  0  0
   29.7608  -24.5290  -16.8781 C   0  0  0  0  0  0  0  0  0  0  0  0
   29.0704  -25.5519  -17.5967 C   0  0  0  0  0  0  0  0  0  0  0  0
   28.9525  -26.9736  -17.2477 C   0  0  0  0  0  0  0  0  0  0  0  0
   30.1074  -27.7586  -17.0699 N   0  0  0  0  0  0  0  0  0  0  0  0
   27.7823  -21.8215  -15.0328 C   0  0  0  0  0  0  0  0  0  0  0  0
   28.6935  -21.4178  -14.3043 O   0  0  0  0  0  0  0  0  0  0  0  0
   23.6549  -20.5775  -14.1796 C   0  0  0  0  0  0  0  0  0  0  0  0
   24.8745  -19.7200  -13.9040 C   0  0  1  0  0  0  0  0  0  0  0  0
   24.6166  -18.6623  -12.8587 C   0  0  0  0  0  0  0  0  0  0  0  0
   26.1083  -20.5359  -13.6522 C   0  0  2  0  0  0  0  0  0  0  0  0
   26.4730  -21.4210  -14.7159 N   0  0  0  0  0  0  0  0  0  0  0  0
   25.9286  -21.2297  -12.3570 C   0  0  0  0  0  0  0  0  0  0  0  0
   25.2068  -22.2457  -12.2060 O   0  0  0  0  0  0  0  0  0  0  0  0
   26.6095  -20.7218  -11.2184 N   0  0  0  0  0  0  0  0  0  0  0  0
   26.5031  -21.2877   -9.9155 C   0  0  1  0  0  0  0  0  0  0  0  0
   27.7436  -20.9960   -9.1185 C   0  0  0  0  0  0  0  0  0  0  0  0
   27.5814  -20.0763   -7.9923 C   0  0  0  0  0  0  0  0  0  0  0  0
   26.6855  -18.9956   -7.9553 C   0  0  0  0  0  0  0  0  0  0  0  0
   26.8788  -18.4144   -6.7682 N   0  0  0  0  0  0  0  0  0  0  0  0
   27.8304  -19.0542   -6.0606 C   0  0  0  0  0  0  0  0  0  0  0  0
   28.3481  -18.8183   -4.7966 C   0  0  0  0  0  0  0  0  0  0  0  0
   29.3248  -19.6576   -4.3138 C   0  0  0  0  0  0  0  0  0  0  0  0
   29.8095  -20.7246   -5.0376 C   0  0  0  0  0  0  0  0  0  0  0  0
   29.2785  -20.9350   -6.2883 C   0  0  0  0  0  0  0  0  0  0  0  0
   28.3009  -20.1260   -6.8191 C   0  0  0  0  0  0  0  0  0  0  0  0
   25.2829  -20.9095   -9.1890 C   0  0  0  0  0  0  0  0  0  0  0  0
   24.7169  -21.6155   -8.1653 O   0  0  0  0  0  0  0  0  0  0  0  0
   24.7099  -19.8406   -9.5424 O   0  0  0  0  0  0  0  0  0  0  0  0
  2  1  1  6
  2  3  1  0
  4  5  1  0
  4  3  1  0
  6  5  1  0
  7  6  1  0
  8  2  1  0
  8  9  2  0
 11 10  1  1
 11 12  1  0
 13 14  1  6
 13 11  1  0
 14  8  1  0
 15 13  1  0
 16 15  2  0
 17 15  1  0
 18 17  1  0
 19 20  1  0
 18 19  1  1
 20 28  1  0
 21 22  1  0
 21 20  2  0
 22 23  1  0
 23 28  2  0
 23 24  1  0
 24 25  2  0
 25 26  1  0
 27 26  2  0
 28 27  1  0
 29 18  1  0
 29 30  1  0
 31 29  2  0
M  END
$$$$
