KVW.pdb
     RDKit          3D

 31 32  0  0  1  0  0  0  0  0999 V2000
   24.6624  -19.0607  -17.7038 N   0  0  0  0  0  0  0  0  0  0  0  0
   25.6664  -19.3497  -16.7441 C   0  0  1  0  0  0  0  0  0  0  0  0
   27.0237  -18.8841  -16.9463 C   0  0  0  0  0  0  0  0  0  0  0  0
   27.8566  -19.3362  -18.0303 C   0  0  0  0  0  0  0  0  0  0  0  0
   27.7072  -20.2914  -19.0812 C   0  0  0  0  0  0  0  0  0  0  0  0
   28.7673  -20.9918  -19.8178 C   0  0  0  0  0  0  0  0  0  0  0  0
   30.0966  -20.5326  -19.7560 N   0  0  0  0  0  0  0  0  0  0  0  0
   25.1386  -18.9620  -15.3608 C   0  0  0  0  0  0  0  0  0  0  0  0
   25.0576  -17.7727  -15.0398 O   0  0  0  0  0  0  0  0  0  0  0  0
   21.9710  -18.7449  -14.0695 C   0  0  0  0  0  0  0  0  0  0  0  0
   22.6333  -19.7259  -13.1220 C   0  0  1  0  0  0  0  0  0  0  0  0
   22.1060  -21.1313  -13.2791 C   0  0  0  0  0  0  0  0  0  0  0  0
   24.1306  -19.6315  -13.1480 C   0  0  2  0  0  0  0  0  0  0  0  0
   24.7306  -19.9182  -14.4151 N   0  0  0  0  0  0  0  0  0  0  0  0
   24.6510  -20.4828  -12.0545 C   0  0  0  0  0  0  0  0  0  0  0  0
   24.7685  -21.7299  -12.1392 O   0  0  0  0  0  0  0  0  0  0  0  0
   25.0415  -19.8584  -10.8397 N   0  0  0  0  0  0  0  0  0  0  0  0
   25.4967  -20.5723   -9.6941 C   0  0  1  0  0  0  0  0  0  0  0  0
   26.7337  -19.9263   -9.1360 C   0  0  0  0  0  0  0  0  0  0  0  0
   27.2418  -20.4877   -7.8842 C   0  0  0  0  0  0  0  0  0  0  0  0
   27.1686  -21.8415   -7.5182 C   0  0  0  0  0  0  0  0  0  0  0  0
   27.7218  -21.9118   -6.3044 N   0  0  0  0  0  0  0  0  0  0  0  0
   28.1358  -20.6998   -5.8858 C   0  0  0  0  0  0  0  0  0  0  0  0
   28.7634  -20.2981   -4.7169 C   0  0  0  0  0  0  0  0  0  0  0  0
   29.0866  -18.9704   -4.5615 C   0  0  0  0  0  0  0  0  0  0  0  0
   28.8111  -18.0229   -5.5226 C   0  0  0  0  0  0  0  0  0  0  0  0
   28.1878  -18.4491   -6.6717 C   0  0  0  0  0  0  0  0  0  0  0  0
   27.8423  -19.7644   -6.8778 C   0  0  0  0  0  0  0  0  0  0  0  0
   24.4713  -20.7771   -8.6615 C   0  0  0  0  0  0  0  0  0  0  0  0
   24.3767  -21.8653   -7.8408 O   0  0  0  0  0  0  0  0  0  0  0  0
   23.6045  -19.8687   -8.5222 O   0  0  0  0  0  0  0  0  0  0  0  0
  2  1  1  6
  2  3  1  0
  4  5  1  0
  4  3  1  0
  6  5  1  0
  7  6  1  0
  8  2  1  0
  8  9  2  0
 11 10  1  6
 11 12  1  0
 13 14  1  6
 13 11  1  0
 14  8  1  0
 15 13  1  0
 16 15  2  0
 17 15  1  0
 18 17  1  0
 19 20  1  0
 18 19  1  1
 20 28  1  0
 21 22  1  0
 21 20  2  0
 22 23  1  0
 23 28  2  0
 23 24  1  0
 24 25  2  0
 25 26  1  0
 27 26  2  0
 28 27  1  0
 29 18  1  0
 29 30  1  0
 31 29  2  0
M  END
$$$$
