KVW.pdb
     RDKit          3D

 31 32  0  0  1  0  0  0  0  0999 V2000
   12.7720  -23.4501    0.4021 N   0  0  0  0  0  0  0  0  0  0  0  0
   13.9557  -22.6791    0.2725 C   0  0  1  0  0  0  0  0  0  0  0  0
   14.1473  -21.8263   -0.8834 C   0  0  0  0  0  0  0  0  0  0  0  0
   14.2759  -22.3361   -2.2237 C   0  0  0  0  0  0  0  0  0  0  0  0
   14.7695  -23.5484   -2.7945 C   0  0  0  0  0  0  0  0  0  0  0  0
   14.8506  -23.9055   -4.2168 C   0  0  0  0  0  0  0  0  0  0  0  0
   15.3372  -25.1682   -4.6048 N   0  0  0  0  0  0  0  0  0  0  0  0
   14.1800  -21.9147    1.5793 C   0  0  0  0  0  0  0  0  0  0  0  0
   13.2558  -21.2742    2.0887 O   0  0  0  0  0  0  0  0  0  0  0  0
   16.5132  -21.5978    5.8737 C   0  0  0  0  0  0  0  0  0  0  0  0
   16.1011  -22.2893    4.5888 C   0  0  1  0  0  0  0  0  0  0  0  0
   15.1245  -23.4160    4.8229 C   0  0  0  0  0  0  0  0  0  0  0  0
   15.6702  -21.3219    3.5258 C   0  0  2  0  0  0  0  0  0  0  0  0
   15.4180  -21.9072    2.2446 N   0  0  0  0  0  0  0  0  0  0  0  0
   16.6732  -20.2341    3.4786 C   0  0  0  0  0  0  0  0  0  0  0  0
   17.8359  -20.3786    3.0276 O   0  0  0  0  0  0  0  0  0  0  0  0
   16.3038  -18.9530    3.9689 N   0  0  0  0  0  0  0  0  0  0  0  0
   17.2023  -17.8513    4.0588 C   0  0  1  0  0  0  0  0  0  0  0  0
   16.5864  -16.6259    3.4440 C   0  0  0  0  0  0  0  0  0  0  0  0
   17.5123  -15.5478    3.0962 C   0  0  0  0  0  0  0  0  0  0  0  0
   18.3437  -15.5314    1.9647 C   0  0  0  0  0  0  0  0  0  0  0  0
   19.0321  -14.3896    2.0461 N   0  0  0  0  0  0  0  0  0  0  0  0
   18.6905  -13.6912    3.1466 C   0  0  0  0  0  0  0  0  0  0  0  0
   19.1286  -12.4678    3.6294 C   0  0  0  0  0  0  0  0  0  0  0  0
   18.5851  -11.9833    4.7961 C   0  0  0  0  0  0  0  0  0  0  0  0
   17.6216  -12.6665    5.5048 C   0  0  0  0  0  0  0  0  0  0  0  0
   17.2059  -13.8774    5.0033 C   0  0  0  0  0  0  0  0  0  0  0  0
   17.7167  -14.4080    3.8417 C   0  0  0  0  0  0  0  0  0  0  0  0
   17.7067  -17.5904    5.4142 C   0  0  0  0  0  0  0  0  0  0  0  0
   18.9927  -17.2563    5.7326 O   0  0  0  0  0  0  0  0  0  0  0  0
   16.8796  -17.6836    6.3645 O   0  0  0  0  0  0  0  0  0  0  0  0
  2  1  1  1
  2  3  1  0
  4  5  1  0
  4  3  1  0
  6  5  1  0
  7  6  1  0
  8  2  1  0
  8  9  2  0
 11 10  1  1
 11 12  1  0
 13 14  1  6
 13 11  1  0
 14  8  1  0
 15 13  1  0
 16 15  2  0
 17 15  1  0
 18 17  1  0
 19 20  1  0
 18 19  1  1
 20 28  1  0
 21 22  1  0
 21 20  2  0
 22 23  1  0
 23 28  2  0
 23 24  1  0
 24 25  2  0
 25 26  1  0
 27 26  2  0
 28 27  1  0
 29 18  1  0
 29 30  1  0
 31 29  2  0
M  END
$$$$
