KVW.pdb
     RDKit          3D

 31 32  0  0  1  0  0  0  0  0999 V2000
   22.2737  -19.0138  -16.0866 N   0  0  0  0  0  0  0  0  0  0  0  0
   22.8774  -18.2371  -15.0645 C   0  0  1  0  0  0  0  0  0  0  0  0
   22.0674  -17.6710  -14.0045 C   0  0  0  0  0  0  0  0  0  0  0  0
   20.9785  -16.7610  -14.2478 C   0  0  0  0  0  0  0  0  0  0  0  0
   20.8411  -15.5220  -14.9444 C   0  0  0  0  0  0  0  0  0  0  0  0
   19.6448  -14.6765  -15.0488 C   0  0  0  0  0  0  0  0  0  0  0  0
   19.6734  -13.4987  -15.8194 N   0  0  0  0  0  0  0  0  0  0  0  0
   24.0704  -19.0164  -14.5061 C   0  0  0  0  0  0  0  0  0  0  0  0
   23.9181  -20.1695  -14.0926 O   0  0  0  0  0  0  0  0  0  0  0  0
   29.0426  -19.3275  -13.9741 C   0  0  0  0  0  0  0  0  0  0  0  0
   27.8332  -18.5523  -14.4592 C   0  0  1  0  0  0  0  0  0  0  0  0
   27.8878  -18.2567  -15.9382 C   0  0  0  0  0  0  0  0  0  0  0  0
   26.5385  -19.1619  -14.0080 C   0  0  2  0  0  0  0  0  0  0  0  0
   25.3633  -18.4694  -14.4406 N   0  0  0  0  0  0  0  0  0  0  0  0
   26.6084  -19.3224  -12.5381 C   0  0  0  0  0  0  0  0  0  0  0  0
   26.6697  -18.3594  -11.7350 O   0  0  0  0  0  0  0  0  0  0  0  0
   26.6054  -20.6377  -12.0013 N   0  0  0  0  0  0  0  0  0  0  0  0
   26.8010  -20.9290  -10.6207 C   0  0  1  0  0  0  0  0  0  0  0  0
   25.7813  -20.2054   -9.7867 C   0  0  0  0  0  0  0  0  0  0  0  0
   25.8292  -20.4638   -8.3475 C   0  0  0  0  0  0  0  0  0  0  0  0
   24.9220  -21.2704   -7.6416 C   0  0  0  0  0  0  0  0  0  0  0  0
   25.3138  -21.2132   -6.3658 N   0  0  0  0  0  0  0  0  0  0  0  0
   26.4006  -20.4295   -6.2237 C   0  0  0  0  0  0  0  0  0  0  0  0
   27.1471  -20.0902   -5.1061 C   0  0  0  0  0  0  0  0  0  0  0  0
   28.2349  -19.2633   -5.2624 C   0  0  0  0  0  0  0  0  0  0  0  0
   28.6122  -18.7583   -6.4871 C   0  0  0  0  0  0  0  0  0  0  0  0
   27.8538  -19.1108   -7.5784 C   0  0  0  0  0  0  0  0  0  0  0  0
   26.7562  -19.9337   -7.4779 C   0  0  0  0  0  0  0  0  0  0  0  0
   26.8492  -22.3636  -10.3055 C   0  0  0  0  0  0  0  0  0  0  0  0
   26.1344  -23.3406  -10.9390 O   0  0  0  0  0  0  0  0  0  0  0  0
   27.6174  -22.7221   -9.3689 O   0  0  0  0  0  0  0  0  0  0  0  0
  2  1  1  1
  2  3  1  0
  4  5  1  0
  4  3  1  0
  6  5  1  0
  7  6  1  0
  8  2  1  0
  8  9  2  0
 11 10  1  6
 11 12  1  0
 13 14  1  1
 13 11  1  0
 14  8  1  0
 15 13  1  0
 16 15  2  0
 17 15  1  0
 18 17  1  0
 19 20  1  0
 18 19  1  1
 20 28  1  0
 21 22  1  0
 21 20  2  0
 22 23  1  0
 23 28  2  0
 23 24  1  0
 24 25  2  0
 25 26  1  0
 27 26  2  0
 28 27  1  0
 29 18  1  0
 29 30  1  0
 31 29  2  0
M  END
$$$$
