KVW.pdb
     RDKit          3D

 31 32  0  0  1  0  0  0  0  0999 V2000
   22.9909  -21.1566  -20.6198 N   0  0  0  0  0  0  0  0  0  0  0  0
   22.9867  -20.1037  -19.6691 C   0  0  1  0  0  0  0  0  0  0  0  0
   21.8046  -19.8467  -18.8712 C   0  0  0  0  0  0  0  0  0  0  0  0
   20.9410  -20.8918  -18.3863 C   0  0  0  0  0  0  0  0  0  0  0  0
   20.9076  -21.7035  -17.2119 C   0  0  0  0  0  0  0  0  0  0  0  0
   20.2417  -21.4122  -15.9356 C   0  0  0  0  0  0  0  0  0  0  0  0
   19.9954  -20.0805  -15.5516 N   0  0  0  0  0  0  0  0  0  0  0  0
   24.2370  -20.2354  -18.7964 C   0  0  0  0  0  0  0  0  0  0  0  0
   24.6786  -21.3525  -18.5116 O   0  0  0  0  0  0  0  0  0  0  0  0
   28.2073  -18.0470  -16.6975 C   0  0  0  0  0  0  0  0  0  0  0  0
   27.0683  -18.0414  -17.6983 C   0  0  1  0  0  0  0  0  0  0  0  0
   27.5485  -17.9240  -19.1243 C   0  0  0  0  0  0  0  0  0  0  0  0
   26.0977  -19.1635  -17.4737 C   0  0  2  0  0  0  0  0  0  0  0  0
   24.9245  -19.1183  -18.2918 N   0  0  0  0  0  0  0  0  0  0  0  0
   25.7931  -19.2076  -16.0257 C   0  0  0  0  0  0  0  0  0  0  0  0
   24.7356  -18.7549  -15.5229 O   0  0  0  0  0  0  0  0  0  0  0  0
   26.7472  -19.7950  -15.1523 N   0  0  0  0  0  0  0  0  0  0  0  0
   26.6504  -19.7530  -13.7318 C   0  0  1  0  0  0  0  0  0  0  0  0
   25.7695  -20.8657  -13.2370 C   0  0  0  0  0  0  0  0  0  0  0  0
   25.4600  -20.8518  -11.8072 C   0  0  0  0  0  0  0  0  0  0  0  0
   24.1667  -20.8817  -11.2609 C   0  0  0  0  0  0  0  0  0  0  0  0
   24.3389  -20.8305   -9.9373 N   0  0  0  0  0  0  0  0  0  0  0  0
   25.6463  -20.7712   -9.6170 C   0  0  0  0  0  0  0  0  0  0  0  0
   26.2886  -20.7148   -8.3899 C   0  0  0  0  0  0  0  0  0  0  0  0
   27.6630  -20.6729   -8.3632 C   0  0  0  0  0  0  0  0  0  0  0  0
   28.4274  -20.6848   -9.5090 C   0  0  0  0  0  0  0  0  0  0  0  0
   27.7643  -20.7407  -10.7121 C   0  0  0  0  0  0  0  0  0  0  0  0
   26.3921  -20.7836  -10.7956 C   0  0  0  0  0  0  0  0  0  0  0  0
   27.9452  -19.7283  -13.0371 C   0  0  0  0  0  0  0  0  0  0  0  0
   28.3205  -18.8196  -12.0884 O   0  0  0  0  0  0  0  0  0  0  0  0
   28.7811  -20.6241  -13.3446 O   0  0  0  0  0  0  0  0  0  0  0  0
  2  1  1  1
  2  3  1  0
  4  5  1  0
  4  3  1  0
  6  5  1  0
  7  6  1  0
  8  2  1  0
  8  9  2  0
 11 10  1  1
 11 12  1  0
 13 14  1  6
 13 11  1  0
 14  8  1  0
 15 13  1  0
 16 15  2  0
 17 15  1  0
 18 17  1  0
 19 20  1  0
 18 19  1  1
 20 28  1  0
 21 22  1  0
 21 20  2  0
 22 23  1  0
 23 28  2  0
 23 24  1  0
 24 25  2  0
 25 26  1  0
 27 26  2  0
 28 27  1  0
 29 18  1  0
 29 30  1  0
 31 29  2  0
M  END
$$$$
