KVW.pdb
     RDKit          3D

 31 32  0  0  1  0  0  0  0  0999 V2000
   27.8287  -22.3854  -17.8146 N   0  0  0  0  0  0  0  0  0  0  0  0
   27.9894  -23.0939  -16.5962 C   0  0  1  0  0  0  0  0  0  0  0  0
   28.9433  -24.1811  -16.5054 C   0  0  0  0  0  0  0  0  0  0  0  0
   28.6968  -25.4906  -17.0507 C   0  0  0  0  0  0  0  0  0  0  0  0
   27.5568  -26.1517  -17.6008 C   0  0  0  0  0  0  0  0  0  0  0  0
   27.4229  -27.5712  -17.9530 C   0  0  0  0  0  0  0  0  0  0  0  0
   28.0625  -28.5577  -17.1789 N   0  0  0  0  0  0  0  0  0  0  0  0
   28.1852  -22.0778  -15.4685 C   0  0  0  0  0  0  0  0  0  0  0  0
   29.3209  -21.8139  -15.0629 O   0  0  0  0  0  0  0  0  0  0  0  0
   27.5213  -18.3659  -15.1611 C   0  0  0  0  0  0  0  0  0  0  0  0
   26.6776  -19.0908  -14.1308 C   0  0  1  0  0  0  0  0  0  0  0  0
   25.2071  -19.0772  -14.4706 C   0  0  0  0  0  0  0  0  0  0  0  0
   27.2134  -20.4533  -13.8020 C   0  0  2  0  0  0  0  0  0  0  0  0
   27.1079  -21.4133  -14.8579 N   0  0  0  0  0  0  0  0  0  0  0  0
   26.5648  -20.8976  -12.5477 C   0  0  0  0  0  0  0  0  0  0  0  0
   25.5476  -21.6326  -12.5128 O   0  0  0  0  0  0  0  0  0  0  0  0
   27.1213  -20.4721  -11.3119 N   0  0  0  0  0  0  0  0  0  0  0  0
   26.6025  -20.8480  -10.0396 C   0  0  1  0  0  0  0  0  0  0  0  0
   27.5722  -20.4786   -8.9524 C   0  0  0  0  0  0  0  0  0  0  0  0
   27.0632  -20.5613   -7.5832 C   0  0  0  0  0  0  0  0  0  0  0  0
   25.8960  -21.2388   -7.1955 C   0  0  0  0  0  0  0  0  0  0  0  0
   25.7920  -21.0423   -5.8783 N   0  0  0  0  0  0  0  0  0  0  0  0
   26.8102  -20.2912   -5.4150 C   0  0  0  0  0  0  0  0  0  0  0  0
   27.1161  -19.8483   -4.1377 C   0  0  0  0  0  0  0  0  0  0  0  0
   28.2491  -19.0908   -3.9531 C   0  0  0  0  0  0  0  0  0  0  0  0
   29.0927  -18.7545   -4.9887 C   0  0  0  0  0  0  0  0  0  0  0  0
   28.7649  -19.2067   -6.2450 C   0  0  0  0  0  0  0  0  0  0  0  0
   27.6438  -19.9666   -6.4851 C   0  0  0  0  0  0  0  0  0  0  0  0
   25.2504  -20.3424   -9.7638 C   0  0  0  0  0  0  0  0  0  0  0  0
   24.2636  -21.0276   -9.1130 O   0  0  0  0  0  0  0  0  0  0  0  0
   24.9793  -19.1750  -10.1631 O   0  0  0  0  0  0  0  0  0  0  0  0
  2  1  1  6
  2  3  1  0
  4  5  1  0
  4  3  1  0
  6  5  1  0
  7  6  1  0
  8  2  1  0
  8  9  2  0
 11 10  1  6
 11 12  1  0
 13 14  1  6
 13 11  1  0
 14  8  1  0
 15 13  1  0
 16 15  2  0
 17 15  1  0
 18 17  1  0
 19 20  1  0
 18 19  1  1
 20 28  1  0
 21 22  1  0
 21 20  2  0
 22 23  1  0
 23 28  2  0
 23 24  1  0
 24 25  2  0
 25 26  1  0
 27 26  2  0
 28 27  1  0
 29 18  1  0
 29 30  1  0
 31 29  2  0
M  END
$$$$
