KVW.pdb
     RDKit          3D

 31 32  0  0  1  0  0  0  0  0999 V2000
   25.7974  -18.6356  -16.2334 N   0  0  0  0  0  0  0  0  0  0  0  0
   25.4844  -17.5966  -15.3197 C   0  0  1  0  0  0  0  0  0  0  0  0
   24.7036  -16.4553  -15.7531 C   0  0  0  0  0  0  0  0  0  0  0  0
   24.8469  -15.8528  -17.0529 C   0  0  0  0  0  0  0  0  0  0  0  0
   25.8846  -15.8132  -18.0331 C   0  0  0  0  0  0  0  0  0  0  0  0
   25.8863  -15.0927  -19.3128 C   0  0  0  0  0  0  0  0  0  0  0  0
   24.8688  -14.1652  -19.6063 N   0  0  0  0  0  0  0  0  0  0  0  0
   24.9038  -18.2269  -14.0516 C   0  0  0  0  0  0  0  0  0  0  0  0
   23.9573  -17.6886  -13.4699 O   0  0  0  0  0  0  0  0  0  0  0  0
   22.9636  -21.1527  -13.6235 C   0  0  0  0  0  0  0  0  0  0  0  0
   24.1374  -21.3764  -12.6902 C   0  0  1  0  0  0  0  0  0  0  0  0
   25.0341  -22.5023  -13.1441 C   0  0  0  0  0  0  0  0  0  0  0  0
   24.8700  -20.1065  -12.3703 C   0  0  2  0  0  0  0  0  0  0  0  0
   25.4080  -19.4191  -13.5042 N   0  0  0  0  0  0  0  0  0  0  0  0
   25.8916  -20.4256  -11.3477 C   0  0  0  0  0  0  0  0  0  0  0  0
   27.1250  -20.4513  -11.5806 O   0  0  0  0  0  0  0  0  0  0  0  0
   25.4572  -20.7190  -10.0273 N   0  0  0  0  0  0  0  0  0  0  0  0
   26.3366  -21.0861   -8.9686 C   0  0  1  0  0  0  0  0  0  0  0  0
   27.2908  -19.9634   -8.6717 C   0  0  0  0  0  0  0  0  0  0  0  0
   28.3566  -20.2630   -7.7153 C   0  0  0  0  0  0  0  0  0  0  0  0
   29.3500  -21.2394   -7.8935 C   0  0  0  0  0  0  0  0  0  0  0  0
   30.0933  -21.1965   -6.7845 N   0  0  0  0  0  0  0  0  0  0  0  0
   29.6364  -20.2635   -5.9264 C   0  0  0  0  0  0  0  0  0  0  0  0
   30.0880  -19.8660   -4.6776 C   0  0  0  0  0  0  0  0  0  0  0  0
   29.4192  -18.8594   -4.0211 C   0  0  0  0  0  0  0  0  0  0  0  0
   28.3171  -18.2299   -4.5562 C   0  0  0  0  0  0  0  0  0  0  0  0
   27.8907  -18.6444   -5.7959 C   0  0  0  0  0  0  0  0  0  0  0  0
   28.5223  -19.6464   -6.4951 C   0  0  0  0  0  0  0  0  0  0  0  0
   25.6578  -21.5641   -7.7559 C   0  0  0  0  0  0  0  0  0  0  0  0
   24.5284  -21.0212   -7.2114 O   0  0  0  0  0  0  0  0  0  0  0  0
   26.1629  -22.5619   -7.1684 O   0  0  0  0  0  0  0  0  0  0  0  0
  2  1  1  6
  2  3  1  0
  4  5  1  0
  4  3  1  0
  6  5  1  0
  7  6  1  0
  8  2  1  0
  8  9  2  0
 11 10  1  6
 11 12  1  0
 13 14  1  6
 13 11  1  0
 14  8  1  0
 15 13  1  0
 16 15  2  0
 17 15  1  0
 18 17  1  0
 19 20  1  0
 18 19  1  1
 20 28  1  0
 21 22  1  0
 21 20  2  0
 22 23  1  0
 23 28  2  0
 23 24  1  0
 24 25  2  0
 25 26  1  0
 27 26  2  0
 28 27  1  0
 29 18  1  0
 29 30  1  0
 31 29  2  0
M  END
$$$$
