KVW.pdb
     RDKit          3D

 31 32  0  0  1  0  0  0  0  0999 V2000
   19.8953  -20.9210  -13.6309 N   0  0  0  0  0  0  0  0  0  0  0  0
   20.9020  -19.9610  -13.3525 C   0  0  1  0  0  0  0  0  0  0  0  0
   20.5698  -18.7408  -12.6446 C   0  0  0  0  0  0  0  0  0  0  0  0
   20.0986  -17.5518  -13.3059 C   0  0  0  0  0  0  0  0  0  0  0  0
   20.3449  -16.9427  -14.5738 C   0  0  0  0  0  0  0  0  0  0  0  0
   19.4766  -16.0147  -15.3099 C   0  0  0  0  0  0  0  0  0  0  0  0
   19.8641  -15.5321  -16.5742 N   0  0  0  0  0  0  0  0  0  0  0  0
   22.0902  -20.6794  -12.7088 C   0  0  0  0  0  0  0  0  0  0  0  0
   21.9771  -21.1798  -11.5859 O   0  0  0  0  0  0  0  0  0  0  0  0
   26.7417  -22.4846  -13.1657 C   0  0  0  0  0  0  0  0  0  0  0  0
   25.4739  -21.9520  -13.8043 C   0  0  1  0  0  0  0  0  0  0  0  0
   24.8663  -22.9230  -14.7870 C   0  0  0  0  0  0  0  0  0  0  0  0
   24.5000  -21.4182  -12.7953 C   0  0  2  0  0  0  0  0  0  0  0  0
   23.3346  -20.8008  -13.3505 N   0  0  0  0  0  0  0  0  0  0  0  0
   25.2481  -20.5266  -11.8805 C   0  0  0  0  0  0  0  0  0  0  0  0
   25.4423  -19.3064  -12.1026 O   0  0  0  0  0  0  0  0  0  0  0  0
   25.7769  -21.0777  -10.6827 N   0  0  0  0  0  0  0  0  0  0  0  0
   26.6851  -20.3887   -9.8286 C   0  0  1  0  0  0  0  0  0  0  0  0
   26.2148  -20.4601   -8.4029 C   0  0  0  0  0  0  0  0  0  0  0  0
   26.9375  -19.6221   -7.4459 C   0  0  0  0  0  0  0  0  0  0  0  0
   27.0375  -18.2230   -7.5126 C   0  0  0  0  0  0  0  0  0  0  0  0
   27.7961  -17.8710   -6.4710 N   0  0  0  0  0  0  0  0  0  0  0  0
   28.1770  -18.9490   -5.7581 C   0  0  0  0  0  0  0  0  0  0  0  0
   28.9480  -19.0653   -4.6120 C   0  0  0  0  0  0  0  0  0  0  0  0
   29.1687  -20.3170   -4.0866 C   0  0  0  0  0  0  0  0  0  0  0  0
   28.6533  -21.4610   -4.6549 C   0  0  0  0  0  0  0  0  0  0  0  0
   27.8927  -21.3163   -5.7911 C   0  0  0  0  0  0  0  0  0  0  0  0
   27.6416  -20.0886   -6.3582 C   0  0  0  0  0  0  0  0  0  0  0  0
   28.0856  -20.8125   -9.9661 C   0  0  0  0  0  0  0  0  0  0  0  0
   29.1757  -19.9939   -9.8757 O   0  0  0  0  0  0  0  0  0  0  0  0
   28.2975  -22.0382  -10.1865 O   0  0  0  0  0  0  0  0  0  0  0  0
  2  1  1  1
  2  3  1  0
  4  5  1  0
  4  3  1  0
  6  5  1  0
  7  6  1  0
  8  2  1  0
  8  9  2  0
 11 10  1  1
 11 12  1  0
 13 14  1  6
 13 11  1  0
 14  8  1  0
 15 13  1  0
 16 15  2  0
 17 15  1  0
 18 17  1  0
 19 20  1  0
 18 19  1  1
 20 28  1  0
 21 22  1  0
 21 20  2  0
 22 23  1  0
 23 28  2  0
 23 24  1  0
 24 25  2  0
 25 26  1  0
 27 26  2  0
 28 27  1  0
 29 18  1  0
 29 30  1  0
 31 29  2  0
M  END
$$$$
