KVW.pdb
     RDKit          3D

 31 32  0  0  1  0  0  0  0  0999 V2000
   28.3068  -21.3892  -17.1210 N   0  0  0  0  0  0  0  0  0  0  0  0
   28.3464  -22.1078  -15.8985 C   0  0  1  0  0  0  0  0  0  0  0  0
   29.6187  -22.4550  -15.2979 C   0  0  0  0  0  0  0  0  0  0  0  0
   30.6185  -23.2409  -15.9731 C   0  0  0  0  0  0  0  0  0  0  0  0
   30.5858  -24.3153  -16.9132 C   0  0  0  0  0  0  0  0  0  0  0  0
   31.2720  -25.6107  -16.8231 C   0  0  0  0  0  0  0  0  0  0  0  0
   32.6781  -25.6679  -16.7875 N   0  0  0  0  0  0  0  0  0  0  0  0
   27.4233  -21.4095  -14.8973 C   0  0  0  0  0  0  0  0  0  0  0  0
   27.3114  -20.1802  -14.9110 O   0  0  0  0  0  0  0  0  0  0  0  0
   23.4611  -21.4444  -12.0191 C   0  0  0  0  0  0  0  0  0  0  0  0
   24.3587  -22.0363  -13.0881 C   0  0  1  0  0  0  0  0  0  0  0  0
   23.7621  -21.9320  -14.4706 C   0  0  0  0  0  0  0  0  0  0  0  0
   25.7711  -21.5382  -12.9960 C   0  0  2  0  0  0  0  0  0  0  0  0
   26.6773  -22.1179  -13.9396 N   0  0  0  0  0  0  0  0  0  0  0  0
   26.2122  -21.7027  -11.5925 C   0  0  0  0  0  0  0  0  0  0  0  0
   26.7711  -22.7384  -11.1556 O   0  0  0  0  0  0  0  0  0  0  0  0
   25.9940  -20.6310  -10.6858 N   0  0  0  0  0  0  0  0  0  0  0  0
   26.4041  -20.6530   -9.3219 C   0  0  1  0  0  0  0  0  0  0  0  0
   27.2230  -19.4333   -9.0049 C   0  0  0  0  0  0  0  0  0  0  0  0
   27.5638  -19.2375   -7.5956 C   0  0  0  0  0  0  0  0  0  0  0  0
   27.0306  -18.2364   -6.7677 C   0  0  0  0  0  0  0  0  0  0  0  0
   27.6239  -18.4022   -5.5825 N   0  0  0  0  0  0  0  0  0  0  0  0
   28.4889  -19.4349   -5.6099 C   0  0  0  0  0  0  0  0  0  0  0  0
   29.3073  -19.9723   -4.6286 C   0  0  0  0  0  0  0  0  0  0  0  0
   30.0931  -21.0565   -4.9423 C   0  0  0  0  0  0  0  0  0  0  0  0
   30.0992  -21.6300   -6.1946 C   0  0  0  0  0  0  0  0  0  0  0  0
   29.2783  -21.0765   -7.1487 C   0  0  0  0  0  0  0  0  0  0  0  0
   28.4730  -19.9922   -6.8883 C   0  0  0  0  0  0  0  0  0  0  0  0
   25.3067  -20.8414   -8.3627 C   0  0  0  0  0  0  0  0  0  0  0  0
   25.3623  -21.6068   -7.2323 O   0  0  0  0  0  0  0  0  0  0  0  0
   24.2203  -20.2441   -8.6056 O   0  0  0  0  0  0  0  0  0  0  0  0
  2  1  1  6
  2  3  1  0
  4  5  1  0
  4  3  1  0
  6  5  1  0
  7  6  1  0
  8  2  1  0
  8  9  2  0
 11 10  1  1
 11 12  1  0
 13 14  1  6
 13 11  1  0
 14  8  1  0
 15 13  1  0
 16 15  2  0
 17 15  1  0
 18 17  1  0
 19 20  1  0
 18 19  1  1
 20 28  1  0
 21 22  1  0
 21 20  2  0
 22 23  1  0
 23 28  2  0
 23 24  1  0
 24 25  2  0
 25 26  1  0
 27 26  2  0
 28 27  1  0
 29 18  1  0
 29 30  1  0
 31 29  2  0
M  END
$$$$
