KVW.pdb
     RDKit          3D

 31 32  0  0  1  0  0  0  0  0999 V2000
   25.3060  -18.3084  -16.3323 N   0  0  0  0  0  0  0  0  0  0  0  0
   26.4013  -18.4399  -15.4404 C   0  0  1  0  0  0  0  0  0  0  0  0
   27.5196  -17.5216  -15.5190 C   0  0  0  0  0  0  0  0  0  0  0  0
   28.6136  -17.6921  -16.4394 C   0  0  0  0  0  0  0  0  0  0  0  0
   28.9929  -18.7042  -17.3727 C   0  0  0  0  0  0  0  0  0  0  0  0
   30.1747  -18.7269  -18.2443 C   0  0  0  0  0  0  0  0  0  0  0  0
   31.1724  -17.7425  -18.1127 N   0  0  0  0  0  0  0  0  0  0  0  0
   25.8541  -18.5397  -14.0146 C   0  0  0  0  0  0  0  0  0  0  0  0
   25.4168  -17.5343  -13.4471 O   0  0  0  0  0  0  0  0  0  0  0  0
   22.8302  -20.2864  -12.8812 C   0  0  0  0  0  0  0  0  0  0  0  0
   23.9844  -20.8737  -12.0926 C   0  0  1  0  0  0  0  0  0  0  0  0
   24.3137  -22.2863  -12.5096 C   0  0  0  0  0  0  0  0  0  0  0  0
   25.1741  -19.9605  -12.0448 C   0  0  2  0  0  0  0  0  0  0  0  0
   25.8238  -19.7510  -13.3025 N   0  0  0  0  0  0  0  0  0  0  0  0
   26.0879  -20.4716  -10.9985 C   0  0  0  0  0  0  0  0  0  0  0  0
   26.8755  -21.4338  -11.1718 O   0  0  0  0  0  0  0  0  0  0  0  0
   26.0776  -19.8408   -9.7256 N   0  0  0  0  0  0  0  0  0  0  0  0
   26.8777  -20.2650   -8.6261 C   0  0  1  0  0  0  0  0  0  0  0  0
   27.3558  -19.0759   -7.8410 C   0  0  0  0  0  0  0  0  0  0  0  0
   28.3106  -19.3567   -6.7687 C   0  0  0  0  0  0  0  0  0  0  0  0
   29.6620  -19.6885   -6.9575 C   0  0  0  0  0  0  0  0  0  0  0  0
   30.1543  -19.8845   -5.7313 N   0  0  0  0  0  0  0  0  0  0  0  0
   29.2083  -19.6987   -4.7900 C   0  0  0  0  0  0  0  0  0  0  0  0
   29.2610  -19.7829   -3.4074 C   0  0  0  0  0  0  0  0  0  0  0  0
   28.1199  -19.5247   -2.6843 C   0  0  0  0  0  0  0  0  0  0  0  0
   26.9254  -19.1854   -3.2805 C   0  0  0  0  0  0  0  0  0  0  0  0
   26.9017  -19.1096   -4.6532 C   0  0  0  0  0  0  0  0  0  0  0  0
   28.0134  -19.3585   -5.4239 C   0  0  0  0  0  0  0  0  0  0  0  0
   26.2393  -21.2702   -7.7649 C   0  0  0  0  0  0  0  0  0  0  0  0
   26.8855  -22.2781   -7.1066 O   0  0  0  0  0  0  0  0  0  0  0  0
   24.9863  -21.1945   -7.6224 O   0  0  0  0  0  0  0  0  0  0  0  0
  2  1  1  6
  2  3  1  0
  4  5  1  0
  4  3  1  0
  6  5  1  0
  7  6  1  0
  8  2  1  0
  8  9  2  0
 11 10  1  6
 11 12  1  0
 13 14  1  6
 13 11  1  0
 14  8  1  0
 15 13  1  0
 16 15  2  0
 17 15  1  0
 18 17  1  0
 19 20  1  0
 18 19  1  1
 20 28  1  0
 21 22  1  0
 21 20  2  0
 22 23  1  0
 23 28  2  0
 23 24  1  0
 24 25  2  0
 25 26  1  0
 27 26  2  0
 28 27  1  0
 29 18  1  0
 29 30  1  0
 31 29  2  0
M  END
$$$$
