KVW.pdb
     RDKit          3D

 31 32  0  0  1  0  0  0  0  0999 V2000
   20.2719  -21.8654  -10.3405 N   0  0  0  0  0  0  0  0  0  0  0  0
   20.5353  -21.6621  -11.7195 C   0  0  1  0  0  0  0  0  0  0  0  0
   19.5039  -21.1311  -12.5881 C   0  0  0  0  0  0  0  0  0  0  0  0
   18.3869  -21.9128  -13.0511 C   0  0  0  0  0  0  0  0  0  0  0  0
   18.2477  -23.1276  -13.7888 C   0  0  0  0  0  0  0  0  0  0  0  0
   17.0059  -23.7686  -14.2405 C   0  0  0  0  0  0  0  0  0  0  0  0
   16.4593  -23.4495  -15.4979 N   0  0  0  0  0  0  0  0  0  0  0  0
   21.8417  -20.8758  -11.8512 C   0  0  0  0  0  0  0  0  0  0  0  0
   22.0145  -19.8468  -11.1914 O   0  0  0  0  0  0  0  0  0  0  0  0
   25.6353  -22.2046  -11.6731 C   0  0  0  0  0  0  0  0  0  0  0  0
   25.3274  -21.4967  -12.9781 C   0  0  1  0  0  0  0  0  0  0  0  0
   25.2903  -22.4398  -14.1558 C   0  0  0  0  0  0  0  0  0  0  0  0
   24.1284  -20.6000  -12.8788 C   0  0  2  0  0  0  0  0  0  0  0  0
   22.8805  -21.2791  -12.7076 N   0  0  0  0  0  0  0  0  0  0  0  0
   24.1430  -19.7025  -14.0559 C   0  0  0  0  0  0  0  0  0  0  0  0
   23.4249  -19.8746  -15.0712 O   0  0  0  0  0  0  0  0  0  0  0  0
   25.0161  -18.5820  -14.0403 N   0  0  0  0  0  0  0  0  0  0  0  0
   25.1137  -17.6404  -15.1047 C   0  0  1  0  0  0  0  0  0  0  0  0
   26.0801  -16.5469  -14.7452 C   0  0  0  0  0  0  0  0  0  0  0  0
   26.2417  -15.4821  -15.7354 C   0  0  0  0  0  0  0  0  0  0  0  0
   25.3994  -14.3660  -15.8653 C   0  0  0  0  0  0  0  0  0  0  0  0
   25.8883  -13.6699  -16.8952 N   0  0  0  0  0  0  0  0  0  0  0  0
   26.9756  -14.2701  -17.4178 C   0  0  0  0  0  0  0  0  0  0  0  0
   27.8032  -13.9132  -18.4710 C   0  0  0  0  0  0  0  0  0  0  0  0
   28.8679  -14.7265  -18.7815 C   0  0  0  0  0  0  0  0  0  0  0  0
   29.1446  -15.8831  -18.0864 C   0  0  0  0  0  0  0  0  0  0  0  0
   28.3072  -16.2131  -17.0471 C   0  0  0  0  0  0  0  0  0  0  0  0
   27.2284  -15.4359  -16.6950 C   0  0  0  0  0  0  0  0  0  0  0  0
   25.4205  -18.2353  -16.4130 C   0  0  0  0  0  0  0  0  0  0  0  0
   24.8815  -17.8486  -17.6075 O   0  0  0  0  0  0  0  0  0  0  0  0
   26.2535  -19.1848  -16.4331 O   0  0  0  0  0  0  0  0  0  0  0  0
  2  1  1  1
  2  3  1  0
  4  5  1  0
  4  3  1  0
  6  5  1  0
  7  6  1  0
  8  2  1  0
  8  9  2  0
 11 10  1  1
 11 12  1  0
 13 14  1  6
 13 11  1  0
 14  8  1  0
 15 13  1  0
 16 15  2  0
 17 15  1  0
 18 17  1  0
 19 20  1  0
 18 19  1  1
 20 28  1  0
 21 22  1  0
 21 20  2  0
 22 23  1  0
 23 28  2  0
 23 24  1  0
 24 25  2  0
 25 26  1  0
 27 26  2  0
 28 27  1  0
 29 18  1  0
 29 30  1  0
 31 29  2  0
M  END
$$$$
