KVW.pdb
     RDKit          3D

 31 32  0  0  1  0  0  0  0  0999 V2000
   26.0840  -21.9512  -17.2428 N   0  0  0  0  0  0  0  0  0  0  0  0
   27.1351  -22.7241  -16.6858 C   0  0  1  0  0  0  0  0  0  0  0  0
   28.2720  -23.1032  -17.5005 C   0  0  0  0  0  0  0  0  0  0  0  0
   28.1443  -23.8138  -18.7462 C   0  0  0  0  0  0  0  0  0  0  0  0
   27.7851  -25.1472  -19.1100 C   0  0  0  0  0  0  0  0  0  0  0  0
   28.6823  -26.2716  -19.4065 C   0  0  0  0  0  0  0  0  0  0  0  0
   30.0723  -26.1358  -19.2300 N   0  0  0  0  0  0  0  0  0  0  0  0
   27.5758  -22.0674  -15.3755 C   0  0  0  0  0  0  0  0  0  0  0  0
   28.6221  -22.4234  -14.8255 O   0  0  0  0  0  0  0  0  0  0  0  0
   28.1079  -18.3245  -14.6699 C   0  0  0  0  0  0  0  0  0  0  0  0
   27.1532  -18.8757  -13.6290 C   0  0  1  0  0  0  0  0  0  0  0  0
   25.7617  -18.3054  -13.7573 C   0  0  0  0  0  0  0  0  0  0  0  0
   27.1916  -20.3734  -13.5469 C   0  0  2  0  0  0  0  0  0  0  0  0
   26.8288  -21.0527  -14.7530 N   0  0  0  0  0  0  0  0  0  0  0  0
   26.3697  -20.7783  -12.3841 C   0  0  0  0  0  0  0  0  0  0  0  0
   25.1367  -21.0056  -12.4488 O   0  0  0  0  0  0  0  0  0  0  0  0
   27.0075  -20.9198  -11.1226 N   0  0  0  0  0  0  0  0  0  0  0  0
   26.3181  -21.2494   -9.9204 C   0  0  1  0  0  0  0  0  0  0  0  0
   27.2995  -21.5032   -8.8107 C   0  0  0  0  0  0  0  0  0  0  0  0
   27.4350  -20.4375   -7.8176 C   0  0  0  0  0  0  0  0  0  0  0  0
   26.7774  -19.1978   -7.8691 C   0  0  0  0  0  0  0  0  0  0  0  0
   27.1991  -18.5270   -6.7937 N   0  0  0  0  0  0  0  0  0  0  0  0
   28.0724  -19.2581   -6.0738 C   0  0  0  0  0  0  0  0  0  0  0  0
   28.7504  -18.9803   -4.8971 C   0  0  0  0  0  0  0  0  0  0  0  0
   29.5864  -19.9381   -4.3725 C   0  0  0  0  0  0  0  0  0  0  0  0
   29.7768  -21.1640   -4.9710 C   0  0  0  0  0  0  0  0  0  0  0  0
   29.0922  -21.4127   -6.1371 C   0  0  0  0  0  0  0  0  0  0  0  0
   28.2445  -20.4901   -6.7047 C   0  0  0  0  0  0  0  0  0  0  0  0
   25.2861  -20.2792   -9.5288 C   0  0  0  0  0  0  0  0  0  0  0  0
   24.1983  -20.5486   -8.7472 O   0  0  0  0  0  0  0  0  0  0  0  0
   25.4175  -19.0961   -9.9517 O   0  0  0  0  0  0  0  0  0  0  0  0
  2  1  1  6
  2  3  1  0
  4  5  1  0
  4  3  1  0
  6  5  1  0
  7  6  1  0
  8  2  1  0
  8  9  2  0
 11 10  1  6
 11 12  1  0
 13 14  1  6
 13 11  1  0
 14  8  1  0
 15 13  1  0
 16 15  2  0
 17 15  1  0
 18 17  1  0
 19 20  1  0
 18 19  1  1
 20 28  1  0
 21 22  1  0
 21 20  2  0
 22 23  1  0
 23 28  2  0
 23 24  1  0
 24 25  2  0
 25 26  1  0
 27 26  2  0
 28 27  1  0
 29 18  1  0
 29 30  1  0
 31 29  2  0
M  END
$$$$
