KVW.pdb
     RDKit          3D

 31 32  0  0  1  0  0  0  0  0999 V2000
   26.8426  -21.0260  -17.4482 N   0  0  0  0  0  0  0  0  0  0  0  0
   27.2384  -21.6290  -16.2266 C   0  0  1  0  0  0  0  0  0  0  0  0
   28.6266  -21.9795  -16.0029 C   0  0  0  0  0  0  0  0  0  0  0  0
   29.3763  -22.8281  -16.8921 C   0  0  0  0  0  0  0  0  0  0  0  0
   29.7998  -22.7330  -18.2526 C   0  0  0  0  0  0  0  0  0  0  0  0
   31.1689  -22.5720  -18.7594 C   0  0  0  0  0  0  0  0  0  0  0  0
   32.0646  -23.6578  -18.7406 N   0  0  0  0  0  0  0  0  0  0  0  0
   26.6748  -20.7971  -15.0722 C   0  0  0  0  0  0  0  0  0  0  0  0
   26.9456  -19.5958  -14.9846 O   0  0  0  0  0  0  0  0  0  0  0  0
   23.4508  -19.4718  -14.3029 C   0  0  0  0  0  0  0  0  0  0  0  0
   23.7817  -20.3728  -13.1292 C   0  0  1  0  0  0  0  0  0  0  0  0
   22.9388  -21.6244  -13.1021 C   0  0  0  0  0  0  0  0  0  0  0  0
   25.2542  -20.6280  -12.9951 C   0  0  2  0  0  0  0  0  0  0  0  0
   25.8425  -21.3481  -14.0829 N   0  0  0  0  0  0  0  0  0  0  0  0
   25.4778  -21.2758  -11.6830 C   0  0  0  0  0  0  0  0  0  0  0  0
   25.4736  -22.5195  -11.5112 O   0  0  0  0  0  0  0  0  0  0  0  0
   25.7114  -20.4484  -10.5522 N   0  0  0  0  0  0  0  0  0  0  0  0
   25.9313  -20.9497   -9.2371 C   0  0  1  0  0  0  0  0  0  0  0  0
   27.0114  -20.1598   -8.5528 C   0  0  0  0  0  0  0  0  0  0  0  0
   27.3216  -20.5535   -7.1783 C   0  0  0  0  0  0  0  0  0  0  0  0
   26.9602  -21.7751   -6.5875 C   0  0  0  0  0  0  0  0  0  0  0  0
   27.4139  -21.7109   -5.3328 N   0  0  0  0  0  0  0  0  0  0  0  0
   28.0330  -20.5375   -5.0970 C   0  0  0  0  0  0  0  0  0  0  0  0
   28.6553  -20.0403   -3.9626 C   0  0  0  0  0  0  0  0  0  0  0  0
   29.2244  -18.7894   -4.0140 C   0  0  0  0  0  0  0  0  0  0  0  0
   29.2004  -18.0101   -5.1495 C   0  0  0  0  0  0  0  0  0  0  0  0
   28.5762  -18.5279   -6.2598 C   0  0  0  0  0  0  0  0  0  0  0  0
   27.9908  -19.7725   -6.2625 C   0  0  0  0  0  0  0  0  0  0  0  0
   24.7170  -21.0454   -8.4148 C   0  0  0  0  0  0  0  0  0  0  0  0
   24.4788  -21.9901   -7.4569 O   0  0  0  0  0  0  0  0  0  0  0  0
   23.8182  -20.1798   -8.6117 O   0  0  0  0  0  0  0  0  0  0  0  0
  2  1  1  6
  2  3  1  0
  4  5  1  0
  4  3  1  0
  6  5  1  0
  7  6  1  0
  8  2  1  0
  8  9  2  0
 11 10  1  6
 11 12  1  0
 13 14  1  6
 13 11  1  0
 14  8  1  0
 15 13  1  0
 16 15  2  0
 17 15  1  0
 18 17  1  0
 19 20  1  0
 18 19  1  1
 20 28  1  0
 21 22  1  0
 21 20  2  0
 22 23  1  0
 23 28  2  0
 23 24  1  0
 24 25  2  0
 25 26  1  0
 27 26  2  0
 28 27  1  0
 29 18  1  0
 29 30  1  0
 31 29  2  0
M  END
$$$$
