MTA.pdb
     RDKit          3D

 21 20  0  0  1  0  0  0  0  0999 V2000
   14.0921  -13.3909  -16.9029 C   0  0  0  0  0  0  0  0  0  0  0  0
   14.9880  -13.0767  -18.4481 S   0  0  0  0  0  0  0  0  0  0  0  0
   16.7732  -13.1688  -18.0484 C   0  0  0  0  0  0  0  0  0  0  0  0
   17.0877  -12.0956  -17.0604 C   0  0  0  0  0  0  0  0  0  0  0  0
   18.5088  -12.0988  -16.5953 C   0  0  2  0  0  0  0  0  0  0  0  0
   18.8387  -13.3857  -15.9962 N   0  0  0  0  0  0  0  0  0  0  0  0
   18.7759  -10.9887  -15.6750 C   0  0  0  0  0  0  0  0  0  0  0  0
   18.4270  -11.0173  -14.4715 O   0  0  0  0  0  0  0  0  0  0  0  0
   21.9061   -9.7462  -14.4525 C   0  0  0  0  0  0  0  0  0  0  0  0
   21.2240   -8.5932  -15.1005 C   0  0  1  0  0  0  0  0  0  0  0  0
   21.6904   -8.5523  -16.4368 O   0  0  0  0  0  0  0  0  0  0  0  0
   19.7152   -8.6884  -15.1485 C   0  0  2  0  0  0  0  0  0  0  0  0
   19.4538   -9.7938  -16.0849 N   0  0  0  0  0  0  0  0  0  0  0  0
   19.0516   -7.4709  -15.6126 C   0  0  0  0  0  0  0  0  0  0  0  0
   19.1900   -7.1193  -16.8343 O   0  0  0  0  0  0  0  0  0  0  0  0
   16.3629   -5.0381  -14.7515 C   0  0  0  0  0  0  0  0  0  0  0  0
   17.6974   -5.3641  -15.3591 C   0  0  2  0  0  0  0  0  0  0  0  0
   18.2438   -6.6094  -14.8291 N   0  0  0  0  0  0  0  0  0  0  0  0
   18.6617   -4.2505  -15.2139 C   0  0  0  0  0  0  0  0  0  0  0  0
   18.4784   -3.0614  -15.9046 O   0  0  0  0  0  0  0  0  0  0  0  0
   19.6403   -4.3847  -14.4680 O   0  0  0  0  0  0  0  0  0  0  0  0
  2  1  1  0
  3  4  1  0
  3  2  1  0
  4  5  1  0
  5  7  1  0
  5  6  1  1
  7 13  1  0
  8  7  2  0
 10  9  1  6
 10 11  1  0
 10 12  1  0
 12 14  1  0
 12 13  1  6
 14 15  2  0
 14 18  1  0
 17 19  1  0
 17 16  1  1
 18 17  1  0
 19 20  1  0
 21 19  2  0
M  END
$$$$
