MTA.pdb
     RDKit          3D

 21 20  0  0  1  0  0  0  0  0999 V2000
   24.0764  -20.8394   -9.1559 C   0  0  0  0  0  0  0  0  0  0  0  0
   25.7280  -20.1333   -8.9056 S   0  0  0  0  0  0  0  0  0  0  0  0
   26.7507  -20.6725  -10.3265 C   0  0  0  0  0  0  0  0  0  0  0  0
   25.9150  -20.5963  -11.5604 C   0  0  0  0  0  0  0  0  0  0  0  0
   26.3525  -21.5269  -12.6459 C   0  0  2  0  0  0  0  0  0  0  0  0
   27.6937  -21.1781  -13.0969 N   0  0  0  0  0  0  0  0  0  0  0  0
   25.3953  -21.5449  -13.7569 C   0  0  0  0  0  0  0  0  0  0  0  0
   25.5144  -20.7978  -14.7561 O   0  0  0  0  0  0  0  0  0  0  0  0
   22.1082  -24.3716  -16.1224 C   0  0  0  0  0  0  0  0  0  0  0  0
   23.1222  -24.0040  -15.0971 C   0  0  1  0  0  0  0  0  0  0  0  0
   24.3362  -24.6117  -15.4996 O   0  0  0  0  0  0  0  0  0  0  0  0
   23.3812  -22.5203  -14.9581 C   0  0  2  0  0  0  0  0  0  0  0  0
   24.2573  -22.4166  -13.7796 N   0  0  0  0  0  0  0  0  0  0  0  0
   22.1759  -21.7168  -14.7589 C   0  0  0  0  0  0  0  0  0  0  0  0
   21.5842  -21.7612  -13.6260 O   0  0  0  0  0  0  0  0  0  0  0  0
   20.0010  -19.1491  -16.4921 C   0  0  0  0  0  0  0  0  0  0  0  0
   20.2820  -20.2243  -15.4814 C   0  0  2  0  0  0  0  0  0  0  0  0
   21.5720  -20.8649  -15.7171 N   0  0  0  0  0  0  0  0  0  0  0  0
   19.1915  -21.2230  -15.4140 C   0  0  0  0  0  0  0  0  0  0  0  0
   18.0808  -21.0045  -14.6119 O   0  0  0  0  0  0  0  0  0  0  0  0
   19.2745  -22.2624  -16.0810 O   0  0  0  0  0  0  0  0  0  0  0  0
  2  1  1  0
  3  4  1  0
  3  2  1  0
  4  5  1  0
  5  7  1  0
  5  6  1  6
  7 13  1  0
  8  7  2  0
 10  9  1  6
 10 11  1  0
 10 12  1  0
 12 14  1  0
 12 13  1  1
 14 15  2  0
 14 18  1  0
 17 19  1  0
 17 16  1  6
 18 17  1  0
 19 20  1  0
 21 19  2  0
M  END
$$$$
