MTA.pdb
     RDKit          3D

 21 20  0  0  1  0  0  0  0  0999 V2000
   22.9637  -19.9447   -9.9416 C   0  0  0  0  0  0  0  0  0  0  0  0
   23.8366  -21.4470   -9.4215 S   0  0  0  0  0  0  0  0  0  0  0  0
   25.5491  -20.9438   -9.0098 C   0  0  0  0  0  0  0  0  0  0  0  0
   26.0691  -20.0979  -10.1238 C   0  0  0  0  0  0  0  0  0  0  0  0
   26.4376  -20.8711  -11.3493 C   0  0  2  0  0  0  0  0  0  0  0  0
   27.4689  -21.8515  -11.0340 N   0  0  0  0  0  0  0  0  0  0  0  0
   26.8503  -19.9834  -12.4413 C   0  0  0  0  0  0  0  0  0  0  0  0
   27.8857  -19.2801  -12.3782 O   0  0  0  0  0  0  0  0  0  0  0  0
   27.9537  -20.8831  -15.6500 C   0  0  0  0  0  0  0  0  0  0  0  0
   26.8323  -19.9357  -15.8934 C   0  0  1  0  0  0  0  0  0  0  0  0
   25.6751  -20.7279  -16.0892 O   0  0  0  0  0  0  0  0  0  0  0  0
   26.5429  -18.9824  -14.7553 C   0  0  2  0  0  0  0  0  0  0  0  0
   26.1006  -19.8568  -13.6568 N   0  0  0  0  0  0  0  0  0  0  0  0
   25.5115  -17.9893  -15.0518 C   0  0  0  0  0  0  0  0  0  0  0  0
   24.2906  -18.2718  -14.7970 O   0  0  0  0  0  0  0  0  0  0  0  0
   25.1090  -14.4231  -16.2660 C   0  0  0  0  0  0  0  0  0  0  0  0
   24.6216  -15.8026  -15.9253 C   0  0  2  0  0  0  0  0  0  0  0  0
   25.7252  -16.7039  -15.6091 N   0  0  0  0  0  0  0  0  0  0  0  0
   23.7568  -16.3651  -16.9868 C   0  0  0  0  0  0  0  0  0  0  0  0
   22.4258  -15.9875  -17.0889 O   0  0  0  0  0  0  0  0  0  0  0  0
   24.2291  -17.1801  -17.7897 O   0  0  0  0  0  0  0  0  0  0  0  0
  2  1  1  0
  3  4  1  0
  3  2  1  0
  4  5  1  0
  5  7  1  0
  5  6  1  1
  7 13  1  0
  8  7  2  0
 10  9  1  1
 10 11  1  0
 10 12  1  0
 12 14  1  0
 12 13  1  1
 14 15  2  0
 14 18  1  0
 17 19  1  0
 17 16  1  6
 18 17  1  0
 19 20  1  0
 21 19  2  0
M  END
$$$$
