MTA.pdb
     RDKit          3D

 21 20  0  0  1  0  0  0  0  0999 V2000
   25.9068  -18.5044   -7.5615 C   0  0  0  0  0  0  0  0  0  0  0  0
   26.8470  -19.8655   -6.8182 S   0  0  0  0  0  0  0  0  0  0  0  0
   27.0178  -21.1530   -8.1099 C   0  0  0  0  0  0  0  0  0  0  0  0
   26.6735  -20.5428   -9.4274 C   0  0  0  0  0  0  0  0  0  0  0  0
   26.7099  -21.5077  -10.5691 C   0  0  2  0  0  0  0  0  0  0  0  0
   28.0690  -21.9917  -10.7752 N   0  0  0  0  0  0  0  0  0  0  0  0
   26.1547  -20.9163  -11.7909 C   0  0  0  0  0  0  0  0  0  0  0  0
   26.7691  -20.0483  -12.4542 O   0  0  0  0  0  0  0  0  0  0  0  0
   23.9370  -22.3000  -15.7854 C   0  0  0  0  0  0  0  0  0  0  0  0
   24.4017  -22.3287  -14.3719 C   0  0  1  0  0  0  0  0  0  0  0  0
   25.7111  -22.8674  -14.3925 O   0  0  0  0  0  0  0  0  0  0  0  0
   24.4768  -20.9775  -13.6966 C   0  0  2  0  0  0  0  0  0  0  0  0
   24.8723  -21.2879  -12.3130 N   0  0  0  0  0  0  0  0  0  0  0  0
   23.2187  -20.2325  -13.7033 C   0  0  0  0  0  0  0  0  0  0  0  0
   22.2910  -20.5798  -12.8945 O   0  0  0  0  0  0  0  0  0  0  0  0
   21.4988  -17.3735  -15.5114 C   0  0  0  0  0  0  0  0  0  0  0  0
   21.6165  -18.4480  -14.4683 C   0  0  2  0  0  0  0  0  0  0  0  0
   22.9053  -19.1296  -14.5363 N   0  0  0  0  0  0  0  0  0  0  0  0
   20.4954  -19.4124  -14.5341 C   0  0  0  0  0  0  0  0  0  0  0  0
   20.5447  -20.4964  -15.3985 O   0  0  0  0  0  0  0  0  0  0  0  0
   19.5057  -19.2472  -13.8094 O   0  0  0  0  0  0  0  0  0  0  0  0
  2  1  1  0
  3  4  1  0
  3  2  1  0
  4  5  1  0
  5  7  1  0
  5  6  1  6
  7 13  1  0
  8  7  2  0
 10  9  1  6
 10 11  1  0
 10 12  1  0
 12 14  1  0
 12 13  1  1
 14 15  2  0
 14 18  1  0
 17 19  1  0
 17 16  1  6
 18 17  1  0
 19 20  1  0
 21 19  2  0
M  END
$$$$
