MTA.pdb
     RDKit          3D

 21 20  0  0  1  0  0  0  0  0999 V2000
   28.5086  -20.0127   -4.4162 C   0  0  0  0  0  0  0  0  0  0  0  0
   27.5703  -19.3882   -5.8369 S   0  0  0  0  0  0  0  0  0  0  0  0
   27.7730  -20.6160   -7.1812 C   0  0  0  0  0  0  0  0  0  0  0  0
   26.9537  -20.1730   -8.3471 C   0  0  0  0  0  0  0  0  0  0  0  0
   26.9305  -21.1520   -9.4771 C   0  0  2  0  0  0  0  0  0  0  0  0
   28.2700  -21.6731   -9.7184 N   0  0  0  0  0  0  0  0  0  0  0  0
   26.3530  -20.5610  -10.6887 C   0  0  0  0  0  0  0  0  0  0  0  0
   26.7936  -19.5016  -11.1930 O   0  0  0  0  0  0  0  0  0  0  0  0
   26.7557  -21.7781  -13.8248 C   0  0  0  0  0  0  0  0  0  0  0  0
   25.2777  -21.6975  -13.6719 C   0  0  1  0  0  0  0  0  0  0  0  0
   24.8560  -22.9609  -13.1912 O   0  0  0  0  0  0  0  0  0  0  0  0
   24.7930  -20.6532  -12.6909 C   0  0  2  0  0  0  0  0  0  0  0  0
   25.2456  -21.1515  -11.3817 N   0  0  0  0  0  0  0  0  0  0  0  0
   23.3429  -20.4656  -12.6818 C   0  0  0  0  0  0  0  0  0  0  0  0
   22.6453  -21.0856  -11.8075 O   0  0  0  0  0  0  0  0  0  0  0  0
   20.5975  -18.6169  -14.5379 C   0  0  0  0  0  0  0  0  0  0  0  0
   21.1421  -19.6425  -13.5850 C   0  0  2  0  0  0  0  0  0  0  0  0
   22.6015  -19.6430  -13.5662 N   0  0  0  0  0  0  0  0  0  0  0  0
   20.6087  -20.9957  -13.8596 C   0  0  0  0  0  0  0  0  0  0  0  0
   21.2974  -21.8736  -14.6839 O   0  0  0  0  0  0  0  0  0  0  0  0
   19.5373  -21.3443  -13.3471 O   0  0  0  0  0  0  0  0  0  0  0  0
  2  1  1  0
  3  4  1  0
  3  2  1  0
  4  5  1  0
  5  7  1  0
  5  6  1  6
  7 13  1  0
  8  7  2  0
 10  9  1  1
 10 11  1  0
 10 12  1  0
 12 14  1  0
 12 13  1  1
 14 15  2  0
 14 18  1  0
 17 19  1  0
 17 16  1  6
 18 17  1  0
 19 20  1  0
 21 19  2  0
M  END
$$$$
