MTA.pdb
     RDKit          3D

 21 20  0  0  1  0  0  0  0  0999 V2000
   29.0418  -20.7361   -7.2665 C   0  0  0  0  0  0  0  0  0  0  0  0
   28.0210  -19.2407   -7.1632 S   0  0  0  0  0  0  0  0  0  0  0  0
   26.3935  -19.6643   -7.8893 C   0  0  0  0  0  0  0  0  0  0  0  0
   26.5993  -20.0207   -9.3237 C   0  0  0  0  0  0  0  0  0  0  0  0
   25.3398  -20.3813  -10.0443 C   0  0  2  0  0  0  0  0  0  0  0  0
   24.6855  -21.5028   -9.3824 N   0  0  0  0  0  0  0  0  0  0  0  0
   25.5925  -20.6615  -11.4615 C   0  0  0  0  0  0  0  0  0  0  0  0
   26.3401  -21.5947  -11.8371 O   0  0  0  0  0  0  0  0  0  0  0  0
   23.3944  -22.0496  -13.7553 C   0  0  0  0  0  0  0  0  0  0  0  0
   23.8025  -20.7483  -14.3507 C   0  0  1  0  0  0  0  0  0  0  0  0
   22.8537  -19.7930  -13.9122 O   0  0  0  0  0  0  0  0  0  0  0  0
   25.1700  -20.2554  -13.9328 C   0  0  2  0  0  0  0  0  0  0  0  0
   25.0037  -19.8899  -12.5165 N   0  0  0  0  0  0  0  0  0  0  0  0
   25.6515  -19.1039  -14.6945 C   0  0  0  0  0  0  0  0  0  0  0  0
   25.2159  -17.9394  -14.3951 O   0  0  0  0  0  0  0  0  0  0  0  0
   28.3938  -18.0169  -16.9746 C   0  0  0  0  0  0  0  0  0  0  0  0
   26.9747  -17.9352  -16.4889 C   0  0  2  0  0  0  0  0  0  0  0  0
   26.5804  -19.1392  -15.7642 N   0  0  0  0  0  0  0  0  0  0  0  0
   26.0276  -17.6353  -17.5863 C   0  0  0  0  0  0  0  0  0  0  0  0
   25.8593  -16.3351  -18.0399 O   0  0  0  0  0  0  0  0  0  0  0  0
   25.3808  -18.5560  -18.1021 O   0  0  0  0  0  0  0  0  0  0  0  0
  2  1  1  0
  3  4  1  0
  3  2  1  0
  4  5  1  0
  5  7  1  0
  5  6  1  1
  7 13  1  0
  8  7  2  0
 10  9  1  1
 10 11  1  0
 10 12  1  0
 12 14  1  0
 12 13  1  1
 14 15  2  0
 14 18  1  0
 17 19  1  0
 17 16  1  6
 18 17  1  0
 19 20  1  0
 21 19  2  0
M  END
$$$$
