MTA.pdb
     RDKit          3D

 21 20  0  0  1  0  0  0  0  0999 V2000
   19.0608  -19.1643  -16.0761 C   0  0  0  0  0  0  0  0  0  0  0  0
   19.9851  -17.8028  -16.8384 S   0  0  0  0  0  0  0  0  0  0  0  0
   21.4897  -18.5393  -17.5795 C   0  0  0  0  0  0  0  0  0  0  0  0
   22.0103  -19.5799  -16.6452 C   0  0  0  0  0  0  0  0  0  0  0  0
   22.7137  -19.0221  -15.4494 C   0  0  2  0  0  0  0  0  0  0  0  0
   23.6652  -17.9969  -15.8587 N   0  0  0  0  0  0  0  0  0  0  0  0
   23.3605  -20.0786  -14.6645 C   0  0  0  0  0  0  0  0  0  0  0  0
   22.8266  -21.1971  -14.4782 O   0  0  0  0  0  0  0  0  0  0  0  0
   27.4311  -20.6870  -14.5352 C   0  0  0  0  0  0  0  0  0  0  0  0
   26.2990  -21.5820  -14.1723 C   0  0  1  0  0  0  0  0  0  0  0  0
   26.8664  -22.6923  -13.5012 O   0  0  0  0  0  0  0  0  0  0  0  0
   25.2711  -20.9689  -13.2475 C   0  0  2  0  0  0  0  0  0  0  0  0
   24.6471  -19.9082  -14.0554 N   0  0  0  0  0  0  0  0  0  0  0  0
   25.8299  -20.4017  -12.0210 C   0  0  0  0  0  0  0  0  0  0  0  0
   26.5741  -19.3650  -12.1032 O   0  0  0  0  0  0  0  0  0  0  0  0
   25.7602  -18.7884   -9.4541 C   0  0  0  0  0  0  0  0  0  0  0  0
   26.1898  -20.2254   -9.5359 C   0  0  2  0  0  0  0  0  0  0  0  0
   25.6289  -20.8923  -10.7067 N   0  0  0  0  0  0  0  0  0  0  0  0
   25.8802  -20.9702   -8.2947 C   0  0  0  0  0  0  0  0  0  0  0  0
   26.3724  -20.5408   -7.0707 O   0  0  0  0  0  0  0  0  0  0  0  0
   25.1749  -21.9856   -8.3528 O   0  0  0  0  0  0  0  0  0  0  0  0
  2  1  1  0
  3  4  1  0
  3  2  1  0
  4  5  1  0
  5  7  1  0
  5  6  1  6
  7 13  1  0
  8  7  2  0
 10  9  1  1
 10 11  1  0
 10 12  1  0
 12 14  1  0
 12 13  1  6
 14 15  2  0
 14 18  1  0
 17 19  1  0
 17 16  1  1
 18 17  1  0
 19 20  1  0
 21 19  2  0
M  END
$$$$
