MTA.pdb
     RDKit          3D

 21 20  0  0  1  0  0  0  0  0999 V2000
   18.6607  -15.7541  -15.1548 C   0  0  0  0  0  0  0  0  0  0  0  0
   18.7811  -14.2455  -16.1541 S   0  0  0  0  0  0  0  0  0  0  0  0
   18.7927  -12.8382  -14.9816 C   0  0  0  0  0  0  0  0  0  0  0  0
   18.9499  -11.5777  -15.7648 C   0  0  0  0  0  0  0  0  0  0  0  0
   17.6910  -10.7804  -15.8872 C   0  0  2  0  0  0  0  0  0  0  0  0
   16.8107  -11.3802  -16.8819 N   0  0  0  0  0  0  0  0  0  0  0  0
   17.9728   -9.3737  -16.1915 C   0  0  0  0  0  0  0  0  0  0  0  0
   18.2119   -8.9748  -17.3554 O   0  0  0  0  0  0  0  0  0  0  0  0
   16.0508   -6.5950  -16.5325 C   0  0  0  0  0  0  0  0  0  0  0  0
   17.0009   -6.2378  -15.4443 C   0  0  1  0  0  0  0  0  0  0  0  0
   16.3695   -6.5963  -14.2286 O   0  0  0  0  0  0  0  0  0  0  0  0
   18.3303   -6.9575  -15.4952 C   0  0  2  0  0  0  0  0  0  0  0  0
   17.9948   -8.3562  -15.1818 N   0  0  0  0  0  0  0  0  0  0  0  0
   19.3216   -6.4549  -14.5450 C   0  0  0  0  0  0  0  0  0  0  0  0
   19.0155   -6.3992  -13.3046 O   0  0  0  0  0  0  0  0  0  0  0  0
   22.9016   -6.1320  -13.9469 C   0  0  0  0  0  0  0  0  0  0  0  0
   21.5422   -5.5017  -13.8402 C   0  0  2  0  0  0  0  0  0  0  0  0
   20.6292   -6.0081  -14.8600 N   0  0  0  0  0  0  0  0  0  0  0  0
   21.6108   -4.0233  -13.8681 C   0  0  0  0  0  0  0  0  0  0  0  0
   21.0090   -3.3065  -14.8920 O   0  0  0  0  0  0  0  0  0  0  0  0
   22.2119   -3.4238  -12.9673 O   0  0  0  0  0  0  0  0  0  0  0  0
  2  1  1  0
  3  4  1  0
  3  2  1  0
  4  5  1  0
  5  7  1  0
  5  6  1  6
  7 13  1  0
  8  7  2  0
 10  9  1  6
 10 11  1  0
 10 12  1  0
 12 14  1  0
 12 13  1  1
 14 15  2  0
 14 18  1  0
 17 19  1  0
 17 16  1  6
 18 17  1  0
 19 20  1  0
 21 19  2  0
M  END
$$$$
