MTA.pdb
     RDKit          3D

 21 20  0  0  1  0  0  0  0  0999 V2000
   20.6145  -13.5666  -21.4202 C   0  0  0  0  0  0  0  0  0  0  0  0
   20.1426  -11.9652  -20.7120 S   0  0  0  0  0  0  0  0  0  0  0  0
   20.1776  -12.1648  -18.8915 C   0  0  0  0  0  0  0  0  0  0  0  0
   19.7871  -10.8653  -18.2705 C   0  0  0  0  0  0  0  0  0  0  0  0
   19.7439  -10.8975  -16.7763 C   0  0  2  0  0  0  0  0  0  0  0  0
   18.8202  -11.9293  -16.3222 N   0  0  0  0  0  0  0  0  0  0  0  0
   19.4044   -9.5838  -16.2196 C   0  0  0  0  0  0  0  0  0  0  0  0
   18.2231   -9.1712  -16.1487 O   0  0  0  0  0  0  0  0  0  0  0  0
   19.9825   -8.5692  -12.8238 C   0  0  0  0  0  0  0  0  0  0  0  0
   20.6097   -7.5239  -13.6774 C   0  0  1  0  0  0  0  0  0  0  0  0
   21.9737   -7.8804  -13.8086 O   0  0  0  0  0  0  0  0  0  0  0  0
   20.0343   -7.4077  -15.0714 C   0  0  2  0  0  0  0  0  0  0  0  0
   20.3972   -8.6795  -15.7179 N   0  0  0  0  0  0  0  0  0  0  0  0
   20.5596   -6.2840  -15.8457 C   0  0  0  0  0  0  0  0  0  0  0  0
   21.4163   -6.5153  -16.7665 O   0  0  0  0  0  0  0  0  0  0  0  0
   20.4468   -4.1488  -17.9969 C   0  0  0  0  0  0  0  0  0  0  0  0
   20.7405   -3.8739  -16.5495 C   0  0  2  0  0  0  0  0  0  0  0  0
   20.2101   -4.9204  -15.6813 N   0  0  0  0  0  0  0  0  0  0  0  0
   20.2650   -2.5365  -16.1297 C   0  0  0  0  0  0  0  0  0  0  0  0
   20.9318   -1.3894  -16.5348 O   0  0  0  0  0  0  0  0  0  0  0  0
   19.2621   -2.4441  -15.4101 O   0  0  0  0  0  0  0  0  0  0  0  0
  2  1  1  0
  3  4  1  0
  3  2  1  0
  4  5  1  0
  5  7  1  0
  5  6  1  6
  7 13  1  0
  8  7  2  0
 10  9  1  1
 10 11  1  0
 10 12  1  0
 12 14  1  0
 12 13  1  6
 14 15  2  0
 14 18  1  0
 17 19  1  0
 17 16  1  6
 18 17  1  0
 19 20  1  0
 21 19  2  0
M  END
$$$$
