MTA.pdb
     RDKit          3D

 21 20  0  0  1  0  0  0  0  0999 V2000
   13.1380   -4.3192   -6.2694 C   0  0  0  0  0  0  0  0  0  0  0  0
   14.6291   -4.7688   -7.1987 S   0  0  0  0  0  0  0  0  0  0  0  0
   14.1534   -6.1293   -8.3292 C   0  0  0  0  0  0  0  0  0  0  0  0
   15.3746   -6.5806   -9.0584 C   0  0  0  0  0  0  0  0  0  0  0  0
   15.1191   -7.6697  -10.0506 C   0  0  2  0  0  0  0  0  0  0  0  0
   14.9116   -8.9377   -9.3628 N   0  0  0  0  0  0  0  0  0  0  0  0
   16.1983   -7.7604  -11.0394 C   0  0  0  0  0  0  0  0  0  0  0  0
   17.0017   -8.7218  -11.0682 O   0  0  0  0  0  0  0  0  0  0  0  0
   17.5590   -6.2783  -15.5615 C   0  0  0  0  0  0  0  0  0  0  0  0
   16.7062   -6.3682  -14.3453 C   0  0  1  0  0  0  0  0  0  0  0  0
   15.6342   -7.2337  -14.6718 O   0  0  0  0  0  0  0  0  0  0  0  0
   17.3934   -6.9369  -13.1238 C   0  0  2  0  0  0  0  0  0  0  0  0
   16.4111   -6.7579  -12.0420 N   0  0  0  0  0  0  0  0  0  0  0  0
   18.6482   -6.2713  -12.7767 C   0  0  0  0  0  0  0  0  0  0  0  0
   18.6123   -5.0600  -12.3681 O   0  0  0  0  0  0  0  0  0  0  0  0
   22.3768   -6.9370  -12.5577 C   0  0  0  0  0  0  0  0  0  0  0  0
   21.1461   -6.0759  -12.5347 C   0  0  2  0  0  0  0  0  0  0  0  0
   19.9435   -6.8421  -12.8458 N   0  0  0  0  0  0  0  0  0  0  0  0
   21.2753   -4.8971  -13.4206 C   0  0  0  0  0  0  0  0  0  0  0  0
   21.8098   -3.7091  -12.9438 O   0  0  0  0  0  0  0  0  0  0  0  0
   20.9018   -4.9756  -14.5981 O   0  0  0  0  0  0  0  0  0  0  0  0
  2  1  1  0
  3  4  1  0
  3  2  1  0
  4  5  1  0
  5  7  1  0
  5  6  1  1
  7 13  1  0
  8  7  2  0
 10  9  1  6
 10 11  1  0
 10 12  1  0
 12 14  1  0
 12 13  1  1
 14 15  2  0
 14 18  1  0
 17 19  1  0
 17 16  1  6
 18 17  1  0
 19 20  1  0
 21 19  2  0
M  END
$$$$
