MTA.pdb
     RDKit          3D

 21 20  0  0  1  0  0  0  0  0999 V2000
   20.8804  -12.4423  -21.7180 C   0  0  0  0  0  0  0  0  0  0  0  0
   20.1813  -11.0319  -20.8173 S   0  0  0  0  0  0  0  0  0  0  0  0
   20.3900  -11.3920  -19.0334 C   0  0  0  0  0  0  0  0  0  0  0  0
   19.9512  -10.1938  -18.2596 C   0  0  0  0  0  0  0  0  0  0  0  0
   19.9950  -10.3818  -16.7769 C   0  0  2  0  0  0  0  0  0  0  0  0
   19.0154  -11.3802  -16.3676 N   0  0  0  0  0  0  0  0  0  0  0  0
   19.8029   -9.1124  -16.0680 C   0  0  0  0  0  0  0  0  0  0  0  0
   18.6715   -8.7100  -15.7091 O   0  0  0  0  0  0  0  0  0  0  0  0
   21.6415   -5.6307  -13.1759 C   0  0  0  0  0  0  0  0  0  0  0  0
   21.5530   -6.9304  -13.8954 C   0  0  1  0  0  0  0  0  0  0  0  0
   20.9937   -7.8560  -12.9813 O   0  0  0  0  0  0  0  0  0  0  0  0
   20.6745   -6.9205  -15.1265 C   0  0  2  0  0  0  0  0  0  0  0  0
   20.8930   -8.2428  -15.7355 N   0  0  0  0  0  0  0  0  0  0  0  0
   20.9989   -5.8666  -16.0868 C   0  0  0  0  0  0  0  0  0  0  0  0
   22.1503   -5.8713  -16.6434 O   0  0  0  0  0  0  0  0  0  0  0  0
   19.3769   -3.2915  -18.2505 C   0  0  0  0  0  0  0  0  0  0  0  0
   20.5517   -3.8140  -17.4737 C   0  0  2  0  0  0  0  0  0  0  0  0
   20.1470   -4.8049  -16.4815 N   0  0  0  0  0  0  0  0  0  0  0  0
   21.3377   -2.7238  -16.8534 C   0  0  0  0  0  0  0  0  0  0  0  0
   22.3034   -2.0450  -17.5823 O   0  0  0  0  0  0  0  0  0  0  0  0
   21.1287   -2.4172  -15.6726 O   0  0  0  0  0  0  0  0  0  0  0  0
  2  1  1  0
  3  4  1  0
  3  2  1  0
  4  5  1  0
  5  7  1  0
  5  6  1  1
  7 13  1  0
  8  7  2  0
 10  9  1  1
 10 11  1  0
 10 12  1  0
 12 14  1  0
 12 13  1  6
 14 15  2  0
 14 18  1  0
 17 19  1  0
 17 16  1  1
 18 17  1  0
 19 20  1  0
 21 19  2  0
M  END
$$$$
