MTA.pdb
     RDKit          3D

 21 20  0  0  1  0  0  0  0  0999 V2000
   26.7803   -9.8857  -14.7403 C   0  0  0  0  0  0  0  0  0  0  0  0
   26.2089  -10.9991  -16.0529 S   0  0  0  0  0  0  0  0  0  0  0  0
   24.5190  -11.5332  -15.5902 C   0  0  0  0  0  0  0  0  0  0  0  0
   23.5604  -10.4696  -16.0105 C   0  0  0  0  0  0  0  0  0  0  0  0
   22.1399  -10.7550  -15.6412 C   0  0  2  0  0  0  0  0  0  0  0  0
   21.7441  -12.0657  -16.1408 N   0  0  0  0  0  0  0  0  0  0  0  0
   21.2384   -9.7000  -16.1156 C   0  0  0  0  0  0  0  0  0  0  0  0
   20.8899   -9.6061  -17.3158 O   0  0  0  0  0  0  0  0  0  0  0  0
   17.8256   -9.3339  -15.2587 C   0  0  0  0  0  0  0  0  0  0  0  0
   18.4585   -8.0280  -14.9293 C   0  0  1  0  0  0  0  0  0  0  0  0
   18.8168   -8.0913  -13.5608 O   0  0  0  0  0  0  0  0  0  0  0  0
   19.7124   -7.7101  -15.7130 C   0  0  2  0  0  0  0  0  0  0  0  0
   20.6925   -8.7026  -15.2425 N   0  0  0  0  0  0  0  0  0  0  0  0
   20.2265   -6.3579  -15.5001 C   0  0  0  0  0  0  0  0  0  0  0  0
   21.4369   -6.2110  -15.1144 O   0  0  0  0  0  0  0  0  0  0  0  0
   21.2681   -3.6576  -16.5013 C   0  0  0  0  0  0  0  0  0  0  0  0
   20.1334   -3.8426  -15.5344 C   0  0  2  0  0  0  0  0  0  0  0  0
   19.5049   -5.1517  -15.6813 N   0  0  0  0  0  0  0  0  0  0  0  0
   19.1351   -2.7541  -15.6335 C   0  0  0  0  0  0  0  0  0  0  0  0
   19.4362   -1.4755  -15.1874 O   0  0  0  0  0  0  0  0  0  0  0  0
   18.0216   -2.9905  -16.1196 O   0  0  0  0  0  0  0  0  0  0  0  0
  2  1  1  0
  3  4  1  0
  3  2  1  0
  4  5  1  0
  5  7  1  0
  5  6  1  6
  7 13  1  0
  8  7  2  0
 10  9  1  6
 10 11  1  0
 10 12  1  0
 12 14  1  0
 12 13  1  1
 14 15  2  0
 14 18  1  0
 17 19  1  0
 17 16  1  6
 18 17  1  0
 19 20  1  0
 21 19  2  0
M  END
$$$$
