MTA.pdb
     RDKit          3D

 21 20  0  0  1  0  0  0  0  0999 V2000
   28.4236  -19.1798   -4.1554 C   0  0  0  0  0  0  0  0  0  0  0  0
   28.2812  -18.7377   -5.9085 S   0  0  0  0  0  0  0  0  0  0  0  0
   27.1674  -19.9745   -6.6735 C   0  0  0  0  0  0  0  0  0  0  0  0
   26.9467  -19.5881   -8.0978 C   0  0  0  0  0  0  0  0  0  0  0  0
   26.2011  -20.6110   -8.8937 C   0  0  2  0  0  0  0  0  0  0  0  0
   26.9230  -21.8771   -8.8873 N   0  0  0  0  0  0  0  0  0  0  0  0
   25.9394  -20.1440  -10.2591 C   0  0  0  0  0  0  0  0  0  0  0  0
   26.8087  -19.5562  -10.9444 O   0  0  0  0  0  0  0  0  0  0  0  0
   26.7599  -21.0439  -12.7316 C   0  0  0  0  0  0  0  0  0  0  0  0
   25.3064  -21.0666  -13.0499 C   0  0  1  0  0  0  0  0  0  0  0  0
   24.8288  -22.3372  -12.6469 O   0  0  0  0  0  0  0  0  0  0  0  0
   24.4793  -20.0222  -12.3337 C   0  0  2  0  0  0  0  0  0  0  0  0
   24.6732  -20.3259  -10.9064 N   0  0  0  0  0  0  0  0  0  0  0  0
   23.0552  -20.0544  -12.6641 C   0  0  0  0  0  0  0  0  0  0  0  0
   22.2510  -20.6562  -11.8726 O   0  0  0  0  0  0  0  0  0  0  0  0
   20.5904  -18.4746  -15.0560 C   0  0  0  0  0  0  0  0  0  0  0  0
   21.0007  -19.4438  -13.9842 C   0  0  2  0  0  0  0  0  0  0  0  0
   22.4489  -19.4709  -13.8044 N   0  0  0  0  0  0  0  0  0  0  0  0
   20.4649  -20.8020  -14.2277 C   0  0  0  0  0  0  0  0  0  0  0  0
   19.1431  -21.1041  -13.9340 O   0  0  0  0  0  0  0  0  0  0  0  0
   21.2062  -21.6746  -14.6980 O   0  0  0  0  0  0  0  0  0  0  0  0
  2  1  1  0
  3  4  1  0
  3  2  1  0
  4  5  1  0
  5  7  1  0
  5  6  1  6
  7 13  1  0
  8  7  2  0
 10  9  1  1
 10 11  1  0
 10 12  1  0
 12 14  1  0
 12 13  1  1
 14 15  2  0
 14 18  1  0
 17 19  1  0
 17 16  1  6
 18 17  1  0
 19 20  1  0
 21 19  2  0
M  END
$$$$
