LFY.pdb
     RDKit          3D

 32 33  0  0  1  0  0  0  0  0999 V2000
   15.7734  -20.3871    3.8740 C   0  0  0  0  0  0  0  0  0  0  0  0
   16.1994  -19.2098    3.0255 C   0  0  2  0  0  0  0  0  0  0  0  0
   16.5008  -19.6238    1.6041 C   0  0  0  0  0  0  0  0  0  0  0  0
   17.3353  -18.4461    3.6378 C   0  0  0  0  0  0  0  0  0  0  0  0
   17.0343  -18.0087    5.0549 C   0  0  2  0  0  0  0  0  0  0  0  0
   15.7173  -17.4710    5.1997 N   0  0  0  0  0  0  0  0  0  0  0  0
   18.0365  -17.0253    5.5148 C   0  0  0  0  0  0  0  0  0  0  0  0
   19.2755  -17.1981    5.2994 O   0  0  0  0  0  0  0  0  0  0  0  0
   17.6416  -15.8635    6.2084 N   0  0  0  0  0  0  0  0  0  0  0  0
   18.6701  -14.8800    6.6581 C   0  0  1  0  0  0  0  0  0  0  0  0
   18.3712  -13.5585    6.0631 C   0  0  0  0  0  0  0  0  0  0  0  0
   19.2758  -12.4412    6.4018 C   0  0  0  0  0  0  0  0  0  0  0  0
   19.0127  -11.5812    7.4395 C   0  0  0  0  0  0  0  0  0  0  0  0
   19.8455  -10.5669    7.7976 C   0  0  0  0  0  0  0  0  0  0  0  0
   21.0227  -10.3999    7.0688 C   0  0  0  0  0  0  0  0  0  0  0  0
   21.2940  -11.2549    6.0298 C   0  0  0  0  0  0  0  0  0  0  0  0
   20.4382  -12.2730    5.6853 C   0  0  0  0  0  0  0  0  0  0  0  0
   18.6850  -14.9770    8.1301 C   0  0  0  0  0  0  0  0  0  0  0  0
   18.1949  -14.0051    8.8267 O   0  0  0  0  0  0  0  0  0  0  0  0
   20.5099  -21.4351    6.8934 O   0  0  0  0  0  0  0  0  0  0  0  0
   20.7605  -20.2040    7.4820 C   0  0  0  0  0  0  0  0  0  0  0  0
   20.3502  -19.8596    8.7401 C   0  0  0  0  0  0  0  0  0  0  0  0
   20.6371  -18.6134    9.2601 C   0  0  0  0  0  0  0  0  0  0  0  0
   21.3508  -17.6572    8.5358 C   0  0  0  0  0  0  0  0  0  0  0  0
   21.5998  -16.3415    9.1470 C   0  0  0  0  0  0  0  0  0  0  0  0
   20.3102  -15.8459    9.7790 C   0  0  2  0  0  0  0  0  0  0  0  0
   19.1920  -16.0662    8.8842 N   0  0  0  0  0  0  0  0  0  0  0  0
   20.3770  -14.4635   10.2385 C   0  0  0  0  0  0  0  0  0  0  0  0
   20.0155  -14.0906   11.3980 O   0  0  0  0  0  0  0  0  0  0  0  0
   21.7480  -18.0395    7.2717 C   0  0  0  0  0  0  0  0  0  0  0  0
   21.4673  -19.2822    6.7410 C   0  0  0  0  0  0  0  0  0  0  0  0
   20.8545  -13.4676    9.4008 O   0  0  0  0  0  0  0  0  0  0  0  0
  2  3  1  6
  2  1  1  0
  4  2  1  0
  5  4  1  0
  5  6  1  6
  7  8  2  0
  7  5  1  0
  9  7  1  0
 10  9  1  0
 11 12  1  0
 10 11  1  1
 12 13  2  0
 12 17  1  0
 13 14  1  0
 14 15  2  0
 16 15  1  0
 17 16  2  0
 18 10  1  0
 18 19  2  0
 20 21  1  0
 21 22  2  0
 22 23  1  0
 24 25  1  0
 24 23  2  0
 26 27  1  0
 26 25  1  6
 27 18  1  0
 28 26  1  0
 29 28  2  0
 30 24  1  0
 31 30  2  0
 31 21  1  0
 32 28  1  0
M  END
$$$$
