LFY.pdb
     RDKit          3D

 32 33  0  0  1  0  0  0  0  0999 V2000
   22.1003  -22.4097  -21.2909 C   0  0  0  0  0  0  0  0  0  0  0  0
   23.4640  -23.0212  -21.5227 C   0  0  2  0  0  0  0  0  0  0  0  0
   23.3679  -24.3517  -22.2322 C   0  0  0  0  0  0  0  0  0  0  0  0
   24.2684  -23.1177  -20.2610 C   0  0  0  0  0  0  0  0  0  0  0  0
   24.4705  -21.7689  -19.6053 C   0  0  2  0  0  0  0  0  0  0  0  0
   25.2352  -20.8704  -20.4131 N   0  0  0  0  0  0  0  0  0  0  0  0
   25.1088  -21.9292  -18.2824 C   0  0  0  0  0  0  0  0  0  0  0  0
   25.7463  -22.9852  -17.9826 O   0  0  0  0  0  0  0  0  0  0  0  0
   25.0264  -20.9089  -17.3134 N   0  0  0  0  0  0  0  0  0  0  0  0
   25.7722  -21.0423  -16.0276 C   0  0  1  0  0  0  0  0  0  0  0  0
   26.7676  -19.9520  -15.9281 C   0  0  0  0  0  0  0  0  0  0  0  0
   27.5535  -19.8618  -14.6809 C   0  0  0  0  0  0  0  0  0  0  0  0
   28.5873  -20.7236  -14.4086 C   0  0  0  0  0  0  0  0  0  0  0  0
   29.3518  -20.6412  -13.2863 C   0  0  0  0  0  0  0  0  0  0  0  0
   29.0637  -19.6278  -12.3726 C   0  0  0  0  0  0  0  0  0  0  0  0
   28.0320  -18.7617  -12.6364 C   0  0  0  0  0  0  0  0  0  0  0  0
   27.2725  -18.8635  -13.7768 C   0  0  0  0  0  0  0  0  0  0  0  0
   24.7349  -21.1157  -14.9810 C   0  0  0  0  0  0  0  0  0  0  0  0
   23.8009  -20.2230  -14.9614 O   0  0  0  0  0  0  0  0  0  0  0  0
   26.5947  -19.6387   -6.9111 O   0  0  0  0  0  0  0  0  0  0  0  0
   26.4839  -20.0568   -8.2294 C   0  0  0  0  0  0  0  0  0  0  0  0
   25.4136  -19.7779   -9.0333 C   0  0  0  0  0  0  0  0  0  0  0  0
   25.3735  -20.2285  -10.3376 C   0  0  0  0  0  0  0  0  0  0  0  0
   26.4106  -20.9810  -10.8912 C   0  0  0  0  0  0  0  0  0  0  0  0
   26.2878  -21.4462  -12.2823 C   0  0  0  0  0  0  0  0  0  0  0  0
   24.8213  -21.7069  -12.5814 C   0  0  2  0  0  0  0  0  0  0  0  0
   24.6505  -22.1020  -13.9650 N   0  0  0  0  0  0  0  0  0  0  0  0
   23.9439  -20.6003  -12.2178 C   0  0  0  0  0  0  0  0  0  0  0  0
   23.1680  -20.6205  -11.2119 O   0  0  0  0  0  0  0  0  0  0  0  0
   27.4728  -21.2427  -10.0516 C   0  0  0  0  0  0  0  0  0  0  0  0
   27.5243  -20.7977   -8.7461 C   0  0  0  0  0  0  0  0  0  0  0  0
   23.9212  -19.4428  -12.9802 O   0  0  0  0  0  0  0  0  0  0  0  0
  2  3  1  1
  2  1  1  0
  4  2  1  0
  5  4  1  0
  5  6  1  6
  7  8  2  0
  7  5  1  0
  9  7  1  0
 10  9  1  0
 11 12  1  0
 10 11  1  1
 12 13  2  0
 12 17  1  0
 13 14  1  0
 14 15  2  0
 16 15  1  0
 17 16  2  0
 18 10  1  0
 18 19  2  0
 20 21  1  0
 21 22  2  0
 22 23  1  0
 24 25  1  0
 24 23  2  0
 26 27  1  0
 26 25  1  6
 27 18  1  0
 28 26  1  0
 29 28  2  0
 30 24  1  0
 31 30  2  0
 31 21  1  0
 32 28  1  0
M  END
$$$$
