LFY.pdb
     RDKit          3D

 32 33  0  0  1  0  0  0  0  0999 V2000
   38.9560  -26.3561    3.0047 C   0  0  0  0  0  0  0  0  0  0  0  0
   38.9822  -26.7978    4.4509 C   0  0  2  0  0  0  0  0  0  0  0  0
   38.6626  -28.2676    4.5935 C   0  0  0  0  0  0  0  0  0  0  0  0
   38.1069  -25.9486    5.3232 C   0  0  0  0  0  0  0  0  0  0  0  0
   38.3692  -24.4705    5.1329 C   0  0  2  0  0  0  0  0  0  0  0  0
   39.6600  -24.0729    5.6022 N   0  0  0  0  0  0  0  0  0  0  0  0
   37.3198  -23.6708    5.7981 C   0  0  0  0  0  0  0  0  0  0  0  0
   37.4685  -23.2470    6.9854 O   0  0  0  0  0  0  0  0  0  0  0  0
   36.1200  -23.3556    5.1288 N   0  0  0  0  0  0  0  0  0  0  0  0
   35.1121  -22.4721    5.7853 C   0  0  1  0  0  0  0  0  0  0  0  0
   34.4328  -21.6592    4.7521 C   0  0  0  0  0  0  0  0  0  0  0  0
   33.2906  -20.8286    5.1843 C   0  0  0  0  0  0  0  0  0  0  0  0
   32.0161  -21.0475    4.7225 C   0  0  0  0  0  0  0  0  0  0  0  0
   30.9395  -20.3230    5.1310 C   0  0  0  0  0  0  0  0  0  0  0  0
   31.1506  -19.3096    6.0654 C   0  0  0  0  0  0  0  0  0  0  0  0
   32.4213  -19.0835    6.5326 C   0  0  0  0  0  0  0  0  0  0  0  0
   33.4945  -19.8278    6.1060 C   0  0  0  0  0  0  0  0  0  0  0  0
   34.2766  -23.3731    6.6017 C   0  0  0  0  0  0  0  0  0  0  0  0
   34.2967  -24.6413    6.3543 O   0  0  0  0  0  0  0  0  0  0  0  0
   35.7558  -26.0608   14.3771 O   0  0  0  0  0  0  0  0  0  0  0  0
   35.6091  -25.4541   13.1380 C   0  0  0  0  0  0  0  0  0  0  0  0
   35.4938  -24.1039   12.9560 C   0  0  0  0  0  0  0  0  0  0  0  0
   35.3504  -23.5715   11.6903 C   0  0  0  0  0  0  0  0  0  0  0  0
   35.3167  -24.3760   10.5501 C   0  0  0  0  0  0  0  0  0  0  0  0
   35.1386  -23.7390    9.2352 C   0  0  0  0  0  0  0  0  0  0  0  0
   33.6532  -23.5361    8.9891 C   0  0  2  0  0  0  0  0  0  0  0  0
   33.4313  -22.9785    7.6703 N   0  0  0  0  0  0  0  0  0  0  0  0
   32.9883  -22.7592   10.0288 C   0  0  0  0  0  0  0  0  0  0  0  0
   32.2702  -23.2759   10.9407 O   0  0  0  0  0  0  0  0  0  0  0  0
   35.4356  -25.7318   10.7722 C   0  0  0  0  0  0  0  0  0  0  0  0
   35.5794  -26.2758   12.0325 C   0  0  0  0  0  0  0  0  0  0  0  0
   33.1183  -21.3796   10.0656 O   0  0  0  0  0  0  0  0  0  0  0  0
  2  3  1  6
  2  1  1  0
  4  2  1  0
  5  4  1  0
  5  6  1  1
  7  8  2  0
  7  5  1  0
  9  7  1  0
 10  9  1  0
 11 12  1  0
 10 11  1  6
 12 13  2  0
 12 17  1  0
 13 14  1  0
 14 15  2  0
 16 15  1  0
 17 16  2  0
 18 10  1  0
 18 19  2  0
 20 21  1  0
 21 22  2  0
 22 23  1  0
 24 25  1  0
 24 23  2  0
 26 27  1  0
 26 25  1  1
 27 18  1  0
 28 26  1  0
 29 28  2  0
 30 24  1  0
 31 30  2  0
 31 21  1  0
 32 28  1  0
M  END
$$$$
