LFY.pdb
     RDKit          3D

 32 33  0  0  1  0  0  0  0  0999 V2000
   30.0402  -38.1195  -11.1252 C   0  0  0  0  0  0  0  0  0  0  0  0
   30.1683  -39.1944  -10.0690 C   0  0  2  0  0  0  0  0  0  0  0  0
   28.8932  -39.9919   -9.9240 C   0  0  0  0  0  0  0  0  0  0  0  0
   30.6390  -38.6495   -8.7538 C   0  0  0  0  0  0  0  0  0  0  0  0
   31.9245  -37.8622   -8.8864 C   0  0  2  0  0  0  0  0  0  0  0  0
   33.0233  -38.6668   -9.3221 N   0  0  0  0  0  0  0  0  0  0  0  0
   32.2573  -37.1993   -7.6085 C   0  0  0  0  0  0  0  0  0  0  0  0
   32.7537  -37.8507   -6.6387 O   0  0  0  0  0  0  0  0  0  0  0  0
   32.0314  -35.8193   -7.4315 N   0  0  0  0  0  0  0  0  0  0  0  0
   32.3305  -35.1793   -6.1169 C   0  0  1  0  0  0  0  0  0  0  0  0
   33.5820  -34.3980   -6.2308 C   0  0  0  0  0  0  0  0  0  0  0  0
   34.8242  -35.1437   -6.5174 C   0  0  0  0  0  0  0  0  0  0  0  0
   35.3510  -35.2203   -7.7832 C   0  0  0  0  0  0  0  0  0  0  0  0
   36.5123  -35.8682   -8.0703 C   0  0  0  0  0  0  0  0  0  0  0  0
   37.1947  -36.4820   -7.0204 C   0  0  0  0  0  0  0  0  0  0  0  0
   36.6755  -36.4106   -5.7518 C   0  0  0  0  0  0  0  0  0  0  0  0
   35.5005  -35.7507   -5.4845 C   0  0  0  0  0  0  0  0  0  0  0  0
   31.1021  -34.4489   -5.7503 C   0  0  0  0  0  0  0  0  0  0  0  0
   30.5064  -33.7353   -6.6479 O   0  0  0  0  0  0  0  0  0  0  0  0
   25.8828  -31.3709   -9.0277 O   0  0  0  0  0  0  0  0  0  0  0  0
   26.4442  -32.2509   -8.1139 C   0  0  0  0  0  0  0  0  0  0  0  0
   26.0513  -32.3520   -6.8081 C   0  0  0  0  0  0  0  0  0  0  0  0
   26.6578  -33.2529   -5.9558 C   0  0  0  0  0  0  0  0  0  0  0  0
   27.6881  -34.0932   -6.3807 C   0  0  0  0  0  0  0  0  0  0  0  0
   28.3025  -35.0127   -5.4093 C   0  0  0  0  0  0  0  0  0  0  0  0
   29.0612  -34.1958   -4.3773 C   0  0  2  0  0  0  0  0  0  0  0  0
   30.4834  -34.4554   -4.4739 N   0  0  0  0  0  0  0  0  0  0  0  0
   28.5666  -34.3672   -3.0161 C   0  0  0  0  0  0  0  0  0  0  0  0
   29.2008  -34.9958   -2.1124 O   0  0  0  0  0  0  0  0  0  0  0  0
   28.0577  -33.9633   -7.7029 C   0  0  0  0  0  0  0  0  0  0  0  0
   27.4590  -33.0666   -8.5646 C   0  0  0  0  0  0  0  0  0  0  0  0
   27.3439  -33.8323   -2.6410 O   0  0  0  0  0  0  0  0  0  0  0  0
  2  3  1  1
  2  1  1  0
  4  2  1  0
  5  4  1  0
  5  6  1  1
  7  8  2  0
  7  5  1  0
  9  7  1  0
 10  9  1  0
 11 12  1  0
 10 11  1  6
 12 13  2  0
 12 17  1  0
 13 14  1  0
 14 15  2  0
 16 15  1  0
 17 16  2  0
 18 10  1  0
 18 19  2  0
 20 21  1  0
 21 22  2  0
 22 23  1  0
 24 25  1  0
 24 23  2  0
 26 27  1  0
 26 25  1  6
 27 18  1  0
 28 26  1  0
 29 28  2  0
 30 24  1  0
 31 30  2  0
 31 21  1  0
 32 28  1  0
M  END
$$$$
