LFY.pdb
     RDKit          3D

 32 33  0  0  1  0  0  0  0  0999 V2000
   29.0100  -21.6691  -19.3920 C   0  0  0  0  0  0  0  0  0  0  0  0
   29.5623  -22.3837  -18.1789 C   0  0  2  0  0  0  0  0  0  0  0  0
   30.4278  -23.5596  -18.5674 C   0  0  0  0  0  0  0  0  0  0  0  0
   28.4880  -22.7768  -17.2096 C   0  0  0  0  0  0  0  0  0  0  0  0
   27.6624  -21.5920  -16.7571 C   0  0  2  0  0  0  0  0  0  0  0  0
   28.3904  -20.3620  -16.8002 N   0  0  0  0  0  0  0  0  0  0  0  0
   27.1346  -21.8210  -15.3962 C   0  0  0  0  0  0  0  0  0  0  0  0
   26.4626  -22.8611  -15.1171 O   0  0  0  0  0  0  0  0  0  0  0  0
   27.3644  -20.8861  -14.3666 N   0  0  0  0  0  0  0  0  0  0  0  0
   26.7601  -21.1002  -13.0190 C   0  0  1  0  0  0  0  0  0  0  0  0
   27.6247  -20.4744  -11.9941 C   0  0  0  0  0  0  0  0  0  0  0  0
   27.1222  -20.4489  -10.6055 C   0  0  0  0  0  0  0  0  0  0  0  0
   26.2115  -19.5141  -10.1786 C   0  0  0  0  0  0  0  0  0  0  0  0
   25.7033  -19.4890   -8.9169 C   0  0  0  0  0  0  0  0  0  0  0  0
   26.1346  -20.4653   -8.0194 C   0  0  0  0  0  0  0  0  0  0  0  0
   27.0450  -21.4038   -8.4373 C   0  0  0  0  0  0  0  0  0  0  0  0
   27.5453  -21.4102   -9.7169 C   0  0  0  0  0  0  0  0  0  0  0  0
   25.3729  -20.6108  -13.1314 C   0  0  0  0  0  0  0  0  0  0  0  0
   25.1479  -19.5057  -13.7622 O   0  0  0  0  0  0  0  0  0  0  0  0
   17.1615  -18.7075  -14.6075 O   0  0  0  0  0  0  0  0  0  0  0  0
   18.4366  -19.2435  -14.4999 C   0  0  0  0  0  0  0  0  0  0  0  0
   19.5625  -18.6449  -14.9937 C   0  0  0  0  0  0  0  0  0  0  0  0
   20.8000  -19.2394  -14.8485 C   0  0  0  0  0  0  0  0  0  0  0  0
   20.9592  -20.4644  -14.1987 C   0  0  0  0  0  0  0  0  0  0  0  0
   22.3070  -21.0483  -14.1017 C   0  0  0  0  0  0  0  0  0  0  0  0
   22.9254  -20.6295  -12.7787 C   0  0  2  0  0  0  0  0  0  0  0  0
   24.2219  -21.2533  -12.6074 N   0  0  0  0  0  0  0  0  0  0  0  0
   22.0562  -20.8532  -11.6293 C   0  0  0  0  0  0  0  0  0  0  0  0
   22.0549  -21.9256  -10.9479 O   0  0  0  0  0  0  0  0  0  0  0  0
   19.8027  -21.0382  -13.7141 C   0  0  0  0  0  0  0  0  0  0  0  0
   18.5601  -20.4537  -13.8531 C   0  0  0  0  0  0  0  0  0  0  0  0
   21.1674  -19.8714  -11.2198 O   0  0  0  0  0  0  0  0  0  0  0  0
  2  3  1  6
  2  1  1  0
  4  2  1  0
  5  4  1  0
  5  6  1  1
  7  8  2  0
  7  5  1  0
  9  7  1  0
 10  9  1  0
 11 12  1  0
 10 11  1  1
 12 13  2  0
 12 17  1  0
 13 14  1  0
 14 15  2  0
 16 15  1  0
 17 16  2  0
 18 10  1  0
 18 19  2  0
 20 21  1  0
 21 22  2  0
 22 23  1  0
 24 25  1  0
 24 23  2  0
 26 27  1  0
 26 25  1  6
 27 18  1  0
 28 26  1  0
 29 28  2  0
 30 24  1  0
 31 30  2  0
 31 21  1  0
 32 28  1  0
M  END
$$$$
