LFY.pdb
     RDKit          3D

 32 33  0  0  1  0  0  0  0  0999 V2000
   27.5946  -32.1338   -8.3623 C   0  0  0  0  0  0  0  0  0  0  0  0
   26.6101  -32.9100   -7.5163 C   0  0  2  0  0  0  0  0  0  0  0  0
   25.3658  -32.1044   -7.2240 C   0  0  0  0  0  0  0  0  0  0  0  0
   27.2340  -33.4486   -6.2638 C   0  0  0  0  0  0  0  0  0  0  0  0
   28.4599  -34.2887   -6.5492 C   0  0  2  0  0  0  0  0  0  0  0  0
   28.1867  -35.3860   -7.4243 N   0  0  0  0  0  0  0  0  0  0  0  0
   29.0522  -34.7814   -5.2884 C   0  0  0  0  0  0  0  0  0  0  0  0
   28.7344  -35.9134   -4.8100 O   0  0  0  0  0  0  0  0  0  0  0  0
   29.9905  -34.0039   -4.5800 N   0  0  0  0  0  0  0  0  0  0  0  0
   30.6676  -34.5693   -3.3763 C   0  0  1  0  0  0  0  0  0  0  0  0
   32.1335  -34.4732   -3.5536 C   0  0  0  0  0  0  0  0  0  0  0  0
   32.7801  -35.4797   -4.4198 C   0  0  0  0  0  0  0  0  0  0  0  0
   33.1788  -36.7033   -3.9408 C   0  0  0  0  0  0  0  0  0  0  0  0
   33.7425  -37.6634   -4.7226 C   0  0  0  0  0  0  0  0  0  0  0  0
   33.9202  -37.3818   -6.0768 C   0  0  0  0  0  0  0  0  0  0  0  0
   33.5246  -36.1613   -6.5646 C   0  0  0  0  0  0  0  0  0  0  0  0
   32.9573  -35.2060   -5.7564 C   0  0  0  0  0  0  0  0  0  0  0  0
   30.0726  -33.8625   -2.2260 C   0  0  0  0  0  0  0  0  0  0  0  0
   29.8173  -32.6001   -2.3307 O   0  0  0  0  0  0  0  0  0  0  0  0
   23.0442  -31.6221    1.6988 O   0  0  0  0  0  0  0  0  0  0  0  0
   24.1630  -32.0627    1.0068 C   0  0  0  0  0  0  0  0  0  0  0  0
   25.4501  -31.8300    1.4054 C   0  0  0  0  0  0  0  0  0  0  0  0
   26.5152  -32.3007    0.6638 C   0  0  0  0  0  0  0  0  0  0  0  0
   26.3316  -33.0275   -0.5136 C   0  0  0  0  0  0  0  0  0  0  0  0
   27.5154  -33.4779   -1.2635 C   0  0  0  0  0  0  0  0  0  0  0  0
   28.5558  -33.9796   -0.2765 C   0  0  2  0  0  0  0  0  0  0  0  0
   29.7340  -34.4469   -0.9787 N   0  0  0  0  0  0  0  0  0  0  0  0
   28.0448  -34.9774    0.6561 C   0  0  0  0  0  0  0  0  0  0  0  0
   27.7094  -36.1536    0.3121 O   0  0  0  0  0  0  0  0  0  0  0  0
   25.0209  -33.2427   -0.8843 C   0  0  0  0  0  0  0  0  0  0  0  0
   23.9479  -32.7773   -0.1514 C   0  0  0  0  0  0  0  0  0  0  0  0
   27.9005  -34.6727    2.0007 O   0  0  0  0  0  0  0  0  0  0  0  0
  2  3  1  1
  2  1  1  0
  4  2  1  0
  5  4  1  0
  5  6  1  6
  7  8  2  0
  7  5  1  0
  9  7  1  0
 10  9  1  0
 11 12  1  0
 10 11  1  6
 12 13  2  0
 12 17  1  0
 13 14  1  0
 14 15  2  0
 16 15  1  0
 17 16  2  0
 18 10  1  0
 18 19  2  0
 20 21  1  0
 21 22  2  0
 22 23  1  0
 24 25  1  0
 24 23  2  0
 26 27  1  0
 26 25  1  6
 27 18  1  0
 28 26  1  0
 29 28  2  0
 30 24  1  0
 31 30  2  0
 31 21  1  0
 32 28  1  0
M  END
$$$$
