LFY.pdb
     RDKit          3D

 32 33  0  0  1  0  0  0  0  0999 V2000
   28.1580  -21.0950  -20.4575 C   0  0  0  0  0  0  0  0  0  0  0  0
   28.3217  -22.4677  -19.8441 C   0  0  2  0  0  0  0  0  0  0  0  0
   28.0029  -23.5646  -20.8330 C   0  0  0  0  0  0  0  0  0  0  0  0
   27.5451  -22.6204  -18.5707 C   0  0  0  0  0  0  0  0  0  0  0  0
   27.8463  -21.5171  -17.5796 C   0  0  2  0  0  0  0  0  0  0  0  0
   29.2480  -21.2830  -17.4219 N   0  0  0  0  0  0  0  0  0  0  0  0
   27.2324  -21.8188  -16.2699 C   0  0  0  0  0  0  0  0  0  0  0  0
   26.5167  -22.8535  -16.1010 O   0  0  0  0  0  0  0  0  0  0  0  0
   27.4261  -20.9616  -15.1679 N   0  0  0  0  0  0  0  0  0  0  0  0
   26.7380  -21.2459  -13.8745 C   0  0  1  0  0  0  0  0  0  0  0  0
   27.4212  -20.5086  -12.7886 C   0  0  0  0  0  0  0  0  0  0  0  0
   26.8099  -20.5581  -11.4451 C   0  0  0  0  0  0  0  0  0  0  0  0
   25.8726  -19.6409  -11.0381 C   0  0  0  0  0  0  0  0  0  0  0  0
   25.2656  -19.6836   -9.8213 C   0  0  0  0  0  0  0  0  0  0  0  0
   25.6194  -20.7139   -8.9506 C   0  0  0  0  0  0  0  0  0  0  0  0
   26.5556  -21.6354   -9.3489 C   0  0  0  0  0  0  0  0  0  0  0  0
   27.1562  -21.5730  -10.5831 C   0  0  0  0  0  0  0  0  0  0  0  0
   25.3147  -20.9408  -14.1147 C   0  0  0  0  0  0  0  0  0  0  0  0
   25.0066  -19.8887  -14.7988 O   0  0  0  0  0  0  0  0  0  0  0  0
   16.8201  -20.1874  -15.3894 O   0  0  0  0  0  0  0  0  0  0  0  0
   18.0983  -20.7000  -15.2207 C   0  0  0  0  0  0  0  0  0  0  0  0
   18.4202  -21.6692  -14.3115 C   0  0  0  0  0  0  0  0  0  0  0  0
   19.7164  -22.1309  -14.2004 C   0  0  0  0  0  0  0  0  0  0  0  0
   20.7477  -21.6367  -15.0008 C   0  0  0  0  0  0  0  0  0  0  0  0
   22.1098  -22.1611  -14.8102 C   0  0  0  0  0  0  0  0  0  0  0  0
   22.8685  -21.2227  -13.8872 C   0  0  2  0  0  0  0  0  0  0  0  0
   24.2136  -21.7129  -13.6634 N   0  0  0  0  0  0  0  0  0  0  0  0
   22.1740  -20.9445  -12.6355 C   0  0  0  0  0  0  0  0  0  0  0  0
   21.3492  -19.9896  -12.4872 O   0  0  0  0  0  0  0  0  0  0  0  0
   20.3860  -20.6609  -15.9056 C   0  0  0  0  0  0  0  0  0  0  0  0
   19.0938  -20.1913  -16.0260 C   0  0  0  0  0  0  0  0  0  0  0  0
   22.3926  -21.7380  -11.5200 O   0  0  0  0  0  0  0  0  0  0  0  0
  2  3  1  6
  2  1  1  0
  4  2  1  0
  5  4  1  0
  5  6  1  1
  7  8  2  0
  7  5  1  0
  9  7  1  0
 10  9  1  0
 11 12  1  0
 10 11  1  1
 12 13  2  0
 12 17  1  0
 13 14  1  0
 14 15  2  0
 16 15  1  0
 17 16  2  0
 18 10  1  0
 18 19  2  0
 20 21  1  0
 21 22  2  0
 22 23  1  0
 24 25  1  0
 24 23  2  0
 26 27  1  0
 26 25  1  1
 27 18  1  0
 28 26  1  0
 29 28  2  0
 30 24  1  0
 31 30  2  0
 31 21  1  0
 32 28  1  0
M  END
$$$$
