LFY.pdb
     RDKit          3D

 32 33  0  0  1  0  0  0  0  0999 V2000
   33.4123  -30.0188  -18.2619 C   0  0  0  0  0  0  0  0  0  0  0  0
   32.8975  -31.1666  -19.1016 C   0  0  2  0  0  0  0  0  0  0  0  0
   32.7503  -30.7762  -20.5537 C   0  0  0  0  0  0  0  0  0  0  0  0
   31.6335  -31.7553  -18.5504 C   0  0  0  0  0  0  0  0  0  0  0  0
   31.7908  -32.2101  -17.1157 C   0  0  2  0  0  0  0  0  0  0  0  0
   32.8312  -33.1774  -16.9532 N   0  0  0  0  0  0  0  0  0  0  0  0
   30.5140  -32.7482  -16.6025 C   0  0  0  0  0  0  0  0  0  0  0  0
   30.2382  -33.9842  -16.6891 O   0  0  0  0  0  0  0  0  0  0  0  0
   29.5636  -31.8992  -16.0001 N   0  0  0  0  0  0  0  0  0  0  0  0
   28.2877  -32.4665  -15.4732 C   0  0  1  0  0  0  0  0  0  0  0  0
   28.3744  -32.5703  -13.9997 C   0  0  0  0  0  0  0  0  0  0  0  0
   27.3870  -33.4336  -13.3206 C   0  0  0  0  0  0  0  0  0  0  0  0
   26.2397  -32.9265  -12.7620 C   0  0  0  0  0  0  0  0  0  0  0  0
   25.2953  -33.7014  -12.1635 C   0  0  0  0  0  0  0  0  0  0  0  0
   25.5118  -35.0784  -12.1199 C   0  0  0  0  0  0  0  0  0  0  0  0
   26.6559  -35.5943  -12.6758 C   0  0  0  0  0  0  0  0  0  0  0  0
   27.5968  -34.7926  -13.2755 C   0  0  0  0  0  0  0  0  0  0  0  0
   27.2213  -31.6156  -16.0348 C   0  0  0  0  0  0  0  0  0  0  0  0
   27.5288  -30.4473  -16.4934 O   0  0  0  0  0  0  0  0  0  0  0  0
   24.2706  -34.8054  -23.1826 O   0  0  0  0  0  0  0  0  0  0  0  0
   24.7581  -34.4523  -21.9326 C   0  0  0  0  0  0  0  0  0  0  0  0
   25.7058  -33.4888  -21.7251 C   0  0  0  0  0  0  0  0  0  0  0  0
   26.1431  -33.1913  -20.4499 C   0  0  0  0  0  0  0  0  0  0  0  0
   25.6451  -33.8516  -19.3254 C   0  0  0  0  0  0  0  0  0  0  0  0
   26.1754  -33.4966  -17.9990 C   0  0  0  0  0  0  0  0  0  0  0  0
   25.3184  -32.3877  -17.4124 C   0  0  2  0  0  0  0  0  0  0  0  0
   25.8494  -31.9623  -16.1331 N   0  0  0  0  0  0  0  0  0  0  0  0
   23.9017  -32.7238  -17.3305 C   0  0  0  0  0  0  0  0  0  0  0  0
   23.0312  -32.3023  -18.1543 O   0  0  0  0  0  0  0  0  0  0  0  0
   24.6915  -34.8165  -19.5731 C   0  0  0  0  0  0  0  0  0  0  0  0
   24.2464  -35.1228  -20.8431 C   0  0  0  0  0  0  0  0  0  0  0  0
   23.4326  -33.5451  -16.3170 O   0  0  0  0  0  0  0  0  0  0  0  0
  2  3  1  6
  2  1  1  0
  4  2  1  0
  5  4  1  0
  5  6  1  6
  7  8  2  0
  7  5  1  0
  9  7  1  0
 10  9  1  0
 11 12  1  0
 10 11  1  1
 12 13  2  0
 12 17  1  0
 13 14  1  0
 14 15  2  0
 16 15  1  0
 17 16  2  0
 18 10  1  0
 18 19  2  0
 20 21  1  0
 21 22  2  0
 22 23  1  0
 24 25  1  0
 24 23  2  0
 26 27  1  0
 26 25  1  1
 27 18  1  0
 28 26  1  0
 29 28  2  0
 30 24  1  0
 31 30  2  0
 31 21  1  0
 32 28  1  0
M  END
$$$$
