LFY.pdb
     RDKit          3D

 32 33  0  0  1  0  0  0  0  0999 V2000
   28.6259  -19.0420  -19.1905 C   0  0  0  0  0  0  0  0  0  0  0  0
   27.6589  -20.0911  -19.6924 C   0  0  2  0  0  0  0  0  0  0  0  0
   26.6731  -19.5161  -20.6825 C   0  0  0  0  0  0  0  0  0  0  0  0
   26.9702  -20.8144  -18.5741 C   0  0  0  0  0  0  0  0  0  0  0  0
   27.9407  -21.2888  -17.5144 C   0  0  2  0  0  0  0  0  0  0  0  0
   28.7550  -22.3773  -17.9579 N   0  0  0  0  0  0  0  0  0  0  0  0
   27.2160  -21.6670  -16.2835 C   0  0  0  0  0  0  0  0  0  0  0  0
   26.6123  -22.7797  -16.1906 O   0  0  0  0  0  0  0  0  0  0  0  0
   27.1754  -20.7979  -15.1745 N   0  0  0  0  0  0  0  0  0  0  0  0
   26.4033  -21.1820  -13.9565 C   0  0  1  0  0  0  0  0  0  0  0  0
   26.9846  -20.5010  -12.7783 C   0  0  0  0  0  0  0  0  0  0  0  0
   26.2575  -20.6197  -11.4983 C   0  0  0  0  0  0  0  0  0  0  0  0
   25.2625  -19.7427  -11.1428 C   0  0  0  0  0  0  0  0  0  0  0  0
   24.5509  -19.8493   -9.9882 C   0  0  0  0  0  0  0  0  0  0  0  0
   24.8542  -20.9050   -9.1291 C   0  0  0  0  0  0  0  0  0  0  0  0
   25.8474  -21.7867   -9.4762 C   0  0  0  0  0  0  0  0  0  0  0  0
   26.5536  -21.6598  -10.6478 C   0  0  0  0  0  0  0  0  0  0  0  0
   24.9932  -20.8956  -14.2822 C   0  0  0  0  0  0  0  0  0  0  0  0
   24.6866  -19.7417  -14.7763 O   0  0  0  0  0  0  0  0  0  0  0  0
   16.6302  -20.1272  -16.2618 O   0  0  0  0  0  0  0  0  0  0  0  0
   17.9243  -20.5910  -16.0745 C   0  0  0  0  0  0  0  0  0  0  0  0
   19.0090  -20.1345  -16.7707 C   0  0  0  0  0  0  0  0  0  0  0  0
   20.2689  -20.6446  -16.5293 C   0  0  0  0  0  0  0  0  0  0  0  0
   20.4931  -21.6382  -15.5750 C   0  0  0  0  0  0  0  0  0  0  0  0
   21.8607  -22.1496  -15.3883 C   0  0  0  0  0  0  0  0  0  0  0  0
   22.5556  -21.3084  -14.3311 C   0  0  2  0  0  0  0  0  0  0  0  0
   23.9046  -21.7886  -14.1100 N   0  0  0  0  0  0  0  0  0  0  0  0
   21.8053  -21.1966  -13.0856 C   0  0  0  0  0  0  0  0  0  0  0  0
   21.0655  -20.2046  -12.7980 O   0  0  0  0  0  0  0  0  0  0  0  0
   19.3766  -22.0739  -14.8929 C   0  0  0  0  0  0  0  0  0  0  0  0
   18.1122  -21.5718  -15.1252 C   0  0  0  0  0  0  0  0  0  0  0  0
   21.8708  -22.2025  -12.1340 O   0  0  0  0  0  0  0  0  0  0  0  0
  2  3  1  6
  2  1  1  0
  4  2  1  0
  5  4  1  0
  5  6  1  6
  7  8  2  0
  7  5  1  0
  9  7  1  0
 10  9  1  0
 11 12  1  0
 10 11  1  1
 12 13  2  0
 12 17  1  0
 13 14  1  0
 14 15  2  0
 16 15  1  0
 17 16  2  0
 18 10  1  0
 18 19  2  0
 20 21  1  0
 21 22  2  0
 22 23  1  0
 24 25  1  0
 24 23  2  0
 26 27  1  0
 26 25  1  6
 27 18  1  0
 28 26  1  0
 29 28  2  0
 30 24  1  0
 31 30  2  0
 31 21  1  0
 32 28  1  0
M  END
$$$$
