LFY.pdb
     RDKit          3D

 32 33  0  0  1  0  0  0  0  0999 V2000
   17.7593  -10.1345  -18.8551 C   0  0  0  0  0  0  0  0  0  0  0  0
   18.8304  -10.6526  -17.9214 C   0  0  2  0  0  0  0  0  0  0  0  0
   18.4445  -11.9779  -17.3070 C   0  0  0  0  0  0  0  0  0  0  0  0
   19.2161   -9.6452  -16.8800 C   0  0  0  0  0  0  0  0  0  0  0  0
   19.4893   -8.2811  -17.4753 C   0  0  2  0  0  0  0  0  0  0  0  0
   20.6084   -8.2802  -18.3654 N   0  0  0  0  0  0  0  0  0  0  0  0
   19.6924   -7.2827  -16.4051 C   0  0  0  0  0  0  0  0  0  0  0  0
   18.8382   -7.1274  -15.4791 O   0  0  0  0  0  0  0  0  0  0  0  0
   20.8455   -6.4725  -16.3839 N   0  0  0  0  0  0  0  0  0  0  0  0
   21.0741   -5.5338  -15.2464 C   0  0  1  0  0  0  0  0  0  0  0  0
   22.3454   -5.8847  -14.5752 C   0  0  0  0  0  0  0  0  0  0  0  0
   22.4218   -7.2020  -13.9118 C   0  0  0  0  0  0  0  0  0  0  0  0
   21.7478   -7.4694  -12.7457 C   0  0  0  0  0  0  0  0  0  0  0  0
   21.7697   -8.6835  -12.1325 C   0  0  0  0  0  0  0  0  0  0  0  0
   22.5167   -9.7012  -12.7251 C   0  0  0  0  0  0  0  0  0  0  0  0
   23.1937   -9.4431  -13.8909 C   0  0  0  0  0  0  0  0  0  0  0  0
   23.1576   -8.2087  -14.4931 C   0  0  0  0  0  0  0  0  0  0  0  0
   20.9605   -4.1823  -15.8271 C   0  0  0  0  0  0  0  0  0  0  0  0
   21.6283   -3.9025  -16.8974 O   0  0  0  0  0  0  0  0  0  0  0  0
   19.2436    3.3843  -19.4042 O   0  0  0  0  0  0  0  0  0  0  0  0
   19.2323    2.1079  -18.8607 C   0  0  0  0  0  0  0  0  0  0  0  0
   18.2436    1.6324  -18.0446 C   0  0  0  0  0  0  0  0  0  0  0  0
   18.3005    0.3485  -17.5404 C   0  0  0  0  0  0  0  0  0  0  0  0
   19.3567   -0.5149  -17.8358 C   0  0  0  0  0  0  0  0  0  0  0  0
   19.3608   -1.8624  -17.2435 C   0  0  0  0  0  0  0  0  0  0  0  0
   20.1973   -1.8349  -15.9756 C   0  0  2  0  0  0  0  0  0  0  0  0
   20.1617   -3.1260  -15.3189 N   0  0  0  0  0  0  0  0  0  0  0  0
   19.8463   -0.7504  -15.0660 C   0  0  0  0  0  0  0  0  0  0  0  0
   18.9846   -0.8622  -14.1392 O   0  0  0  0  0  0  0  0  0  0  0  0
   20.3347   -0.0014  -18.6612 C   0  0  0  0  0  0  0  0  0  0  0  0
   20.2890    1.2802  -19.1714 C   0  0  0  0  0  0  0  0  0  0  0  0
   20.4602    0.4874  -15.1796 O   0  0  0  0  0  0  0  0  0  0  0  0
  2  3  1  1
  2  1  1  0
  4  2  1  0
  5  4  1  0
  5  6  1  6
  7  8  2  0
  7  5  1  0
  9  7  1  0
 10  9  1  0
 11 12  1  0
 10 11  1  6
 12 13  2  0
 12 17  1  0
 13 14  1  0
 14 15  2  0
 16 15  1  0
 17 16  2  0
 18 10  1  0
 18 19  2  0
 20 21  1  0
 21 22  2  0
 22 23  1  0
 24 25  1  0
 24 23  2  0
 26 27  1  0
 26 25  1  6
 27 18  1  0
 28 26  1  0
 29 28  2  0
 30 24  1  0
 31 30  2  0
 31 21  1  0
 32 28  1  0
M  END
$$$$
