LFY.pdb
     RDKit          3D

 32 33  0  0  1  0  0  0  0  0999 V2000
   27.6767  -28.8004  -22.4203 C   0  0  0  0  0  0  0  0  0  0  0  0
   28.6015  -29.4282  -21.4014 C   0  0  2  0  0  0  0  0  0  0  0  0
   28.5551  -30.9373  -21.4579 C   0  0  0  0  0  0  0  0  0  0  0  0
   28.3570  -28.9132  -20.0146 C   0  0  0  0  0  0  0  0  0  0  0  0
   28.2373  -27.4052  -19.9758 C   0  0  2  0  0  0  0  0  0  0  0  0
   29.5072  -26.7487  -20.0097 N   0  0  0  0  0  0  0  0  0  0  0  0
   27.4782  -26.9787  -18.7821 C   0  0  0  0  0  0  0  0  0  0  0  0
   27.6815  -27.5110  -17.6478 O   0  0  0  0  0  0  0  0  0  0  0  0
   26.5033  -25.9646  -18.8715 N   0  0  0  0  0  0  0  0  0  0  0  0
   25.8456  -25.4539  -17.6330 C   0  0  1  0  0  0  0  0  0  0  0  0
   26.0436  -23.9900  -17.5464 C   0  0  0  0  0  0  0  0  0  0  0  0
   27.4036  -23.5061  -17.2345 C   0  0  0  0  0  0  0  0  0  0  0  0
   27.7335  -23.0109  -15.9969 C   0  0  0  0  0  0  0  0  0  0  0  0
   28.9862  -22.5930  -15.6698 C   0  0  0  0  0  0  0  0  0  0  0  0
   29.9782  -22.6755  -16.6466 C   0  0  0  0  0  0  0  0  0  0  0  0
   29.6576  -23.1691  -17.8866 C   0  0  0  0  0  0  0  0  0  0  0  0
   28.3852  -23.5856  -18.1952 C   0  0  0  0  0  0  0  0  0  0  0  0
   24.4581  -25.9515  -17.6947 C   0  0  0  0  0  0  0  0  0  0  0  0
   23.7490  -25.7005  -18.7454 O   0  0  0  0  0  0  0  0  0  0  0  0
   16.6218  -29.5889  -17.1293 O   0  0  0  0  0  0  0  0  0  0  0  0
   17.9711  -29.3289  -16.9373 C   0  0  0  0  0  0  0  0  0  0  0  0
   18.5616  -29.2169  -15.7091 C   0  0  0  0  0  0  0  0  0  0  0  0
   19.9126  -28.9564  -15.5961 C   0  0  0  0  0  0  0  0  0  0  0  0
   20.7303  -28.7969  -16.7161 C   0  0  0  0  0  0  0  0  0  0  0  0
   22.1580  -28.4986  -16.5178 C   0  0  0  0  0  0  0  0  0  0  0  0
   22.4017  -27.0371  -16.8537 C   0  0  2  0  0  0  0  0  0  0  0  0
   23.8032  -26.7081  -16.6894 N   0  0  0  0  0  0  0  0  0  0  0  0
   21.5362  -26.1168  -16.1253 C   0  0  0  0  0  0  0  0  0  0  0  0
   21.8179  -25.6460  -14.9793 O   0  0  0  0  0  0  0  0  0  0  0  0
   20.1006  -28.9165  -17.9371 C   0  0  0  0  0  0  0  0  0  0  0  0
   18.7510  -29.1766  -18.0629 C   0  0  0  0  0  0  0  0  0  0  0  0
   20.3314  -25.7042  -16.6728 O   0  0  0  0  0  0  0  0  0  0  0  0
  2  3  1  1
  2  1  1  0
  4  2  1  0
  5  4  1  0
  5  6  1  1
  7  8  2  0
  7  5  1  0
  9  7  1  0
 10  9  1  0
 11 12  1  0
 10 11  1  6
 12 13  2  0
 12 17  1  0
 13 14  1  0
 14 15  2  0
 16 15  1  0
 17 16  2  0
 18 10  1  0
 18 19  2  0
 20 21  1  0
 21 22  2  0
 22 23  1  0
 24 25  1  0
 24 23  2  0
 26 27  1  0
 26 25  1  1
 27 18  1  0
 28 26  1  0
 29 28  2  0
 30 24  1  0
 31 30  2  0
 31 21  1  0
 32 28  1  0
M  END
$$$$
