LFY.pdb
     RDKit          3D

 32 33  0  0  1  0  0  0  0  0999 V2000
   29.0910  -17.8334  -17.4582 C   0  0  0  0  0  0  0  0  0  0  0  0
   28.1208  -18.8018  -18.0973 C   0  0  2  0  0  0  0  0  0  0  0  0
   27.2577  -18.1258  -19.1369 C   0  0  0  0  0  0  0  0  0  0  0  0
   27.2992  -19.5397  -17.0831 C   0  0  0  0  0  0  0  0  0  0  0  0
   28.1516  -20.1690  -16.0027 C   0  0  2  0  0  0  0  0  0  0  0  0
   29.0221  -21.1852  -16.5070 N   0  0  0  0  0  0  0  0  0  0  0  0
   27.2993  -20.7193  -14.9285 C   0  0  0  0  0  0  0  0  0  0  0  0
   26.7404  -21.8528  -15.0471 O   0  0  0  0  0  0  0  0  0  0  0  0
   27.0831  -19.9967  -13.7378 N   0  0  0  0  0  0  0  0  0  0  0  0
   26.2534  -20.5897  -12.6482 C   0  0  1  0  0  0  0  0  0  0  0  0
   26.8381  -20.2241  -11.3389 C   0  0  0  0  0  0  0  0  0  0  0  0
   28.1596  -20.7916  -11.0033 C   0  0  0  0  0  0  0  0  0  0  0  0
   29.2970  -20.4410  -11.6880 C   0  0  0  0  0  0  0  0  0  0  0  0
   30.5324  -20.9187  -11.3775 C   0  0  0  0  0  0  0  0  0  0  0  0
   30.6391  -21.8082  -10.3088 C   0  0  0  0  0  0  0  0  0  0  0  0
   29.5074  -22.1645   -9.6185 C   0  0  0  0  0  0  0  0  0  0  0  0
   28.2693  -21.6695   -9.9497 C   0  0  0  0  0  0  0  0  0  0  0  0
   24.8730  -20.1486  -12.9251 C   0  0  0  0  0  0  0  0  0  0  0  0
   24.6848  -19.0180  -13.5218 O   0  0  0  0  0  0  0  0  0  0  0  0
   17.4223  -19.1073  -16.7847 O   0  0  0  0  0  0  0  0  0  0  0  0
   18.6598  -19.4823  -16.2819 C   0  0  0  0  0  0  0  0  0  0  0  0
   19.0292  -20.7775  -16.0456 C   0  0  0  0  0  0  0  0  0  0  0  0
   20.2803  -21.0746  -15.5432 C   0  0  0  0  0  0  0  0  0  0  0  0
   21.2163  -20.0797  -15.2561 C   0  0  0  0  0  0  0  0  0  0  0  0
   22.5224  -20.4707  -14.7013 C   0  0  0  0  0  0  0  0  0  0  0  0
   22.4328  -20.4530  -13.1848 C   0  0  2  0  0  0  0  0  0  0  0  0
   23.6927  -20.8649  -12.5996 N   0  0  0  0  0  0  0  0  0  0  0  0
   21.3096  -21.2180  -12.6558 C   0  0  0  0  0  0  0  0  0  0  0  0
   20.2485  -20.6858  -12.2031 O   0  0  0  0  0  0  0  0  0  0  0  0
   20.8090  -18.7863  -15.5069 C   0  0  0  0  0  0  0  0  0  0  0  0
   19.5612  -18.4768  -16.0089 C   0  0  0  0  0  0  0  0  0  0  0  0
   21.3559  -22.6032  -12.6255 O   0  0  0  0  0  0  0  0  0  0  0  0
  2  3  1  6
  2  1  1  0
  4  2  1  0
  5  4  1  0
  5  6  1  6
  7  8  2  0
  7  5  1  0
  9  7  1  0
 10  9  1  0
 11 12  1  0
 10 11  1  1
 12 13  2  0
 12 17  1  0
 13 14  1  0
 14 15  2  0
 16 15  1  0
 17 16  2  0
 18 10  1  0
 18 19  2  0
 20 21  1  0
 21 22  2  0
 22 23  1  0
 24 25  1  0
 24 23  2  0
 26 27  1  0
 26 25  1  6
 27 18  1  0
 28 26  1  0
 29 28  2  0
 30 24  1  0
 31 30  2  0
 31 21  1  0
 32 28  1  0
M  END
$$$$
