NRI.pdb
     RDKit          3D

 28 27  0  0  1  0  0  0  0  0999 V2000
   15.3106  -19.1211   22.8526 N   0  0  0  0  0  0  0  0  0  0  0  0
   15.0198  -18.2618   21.7690 C   0  0  0  0  0  0  0  0  0  0  0  0
   15.5769  -18.4433   20.6674 O   0  0  0  0  0  0  0  0  0  0  0  0
   14.0578  -17.1537   21.9483 C   0  0  0  0  0  0  0  0  0  0  0  0
   12.8397  -17.6343   22.6890 C   0  0  2  0  0  0  0  0  0  0  0  0
   12.2204  -18.6745   21.9266 N   0  0  0  0  0  0  0  0  0  0  0  0
   11.9093  -16.4846   22.8820 C   0  0  0  0  0  0  0  0  0  0  0  0
   12.2930  -15.5066   23.5579 O   0  0  0  0  0  0  0  0  0  0  0  0
    7.9495  -12.3478   18.3486 N   0  0  0  0  0  0  0  0  0  0  0  0
    7.8803  -13.7609   18.2220 C   0  0  0  0  0  0  0  0  0  0  0  0
    8.3030  -14.3733   17.1649 N   0  0  0  0  0  0  0  0  0  0  0  0
    7.3316  -14.5086   19.2872 N   0  0  0  0  0  0  0  0  0  0  0  0
    6.8285  -13.9080   20.5017 C   0  0  0  0  0  0  0  0  0  0  0  0
    7.8744  -14.0306   21.5617 C   0  0  0  0  0  0  0  0  0  0  0  0
    8.6322  -15.3162   21.4546 C   0  0  0  0  0  0  0  0  0  0  0  0
    9.7264  -15.3546   22.4708 C   0  0  2  0  0  0  0  0  0  0  0  0
   10.6104  -16.4705   22.3236 N   0  0  0  0  0  0  0  0  0  0  0  0
    9.0679  -15.4698   23.8052 C   0  0  0  0  0  0  0  0  0  0  0  0
    9.0860  -16.6090   24.3385 O   0  0  0  0  0  0  0  0  0  0  0  0
    8.3228  -15.3882   17.0581 C   0  0  0  0  0  0  0  0  0  0  0  0
    7.5336  -10.7958   26.6463 C   0  0  0  0  0  0  0  0  0  0  0  0
    8.1349  -12.1261   26.3815 C   0  0  2  0  0  0  0  0  0  0  0  0
    7.2144  -13.2615   26.1480 C   0  0  0  0  0  0  0  0  0  0  0  0
    6.1509  -13.3534   27.2188 C   0  0  2  0  0  0  0  0  0  0  0  0
    7.7917  -14.5631   25.7176 N   0  0  0  0  0  0  0  0  0  0  0  0
    8.4636  -14.3568   24.4223 C   0  0  0  0  0  0  0  0  0  0  0  0
    6.8360  -15.6607   25.4972 O   0  0  0  0  0  0  0  0  0  0  0  0
    6.0728  -15.7637   24.3331 O   0  0  0  0  0  0  0  0  0  0  0  0
  2  1  1  0
  2  3  2  0
  4  2  1  0
  5  4  1  0
  5  6  1  6
  7  8  2  0
  7  5  1  0
 10  9  1  0
 10 12  1  0
 11 10  2  0
 12 13  1  0
 13 14  1  0
 14 15  1  0
 16 15  1  6
 16 17  1  0
 17  7  1  0
 18 19  2  0
 18 16  1  0
 21 22  1  0
 21 20  1  0
 22 23  1  6
 24 22  1  0
 24 25  1  1
 25 18  1  0
 26 24  1  0
 27 26  1  0
 28 26  2  0
M  END
$$$$
