NRI.pdb
     RDKit          3D

 28 27  0  0  1  0  0  0  0  0999 V2000
   12.5550  -18.7998   18.6067 N   0  0  0  0  0  0  0  0  0  0  0  0
   12.4461  -18.4465   19.9707 C   0  0  0  0  0  0  0  0  0  0  0  0
   12.8619  -19.2293   20.8488 O   0  0  0  0  0  0  0  0  0  0  0  0
   11.8400  -17.1518   20.3476 C   0  0  0  0  0  0  0  0  0  0  0  0
   10.9533  -17.3210   21.5512 C   0  0  2  0  0  0  0  0  0  0  0  0
    9.8849  -18.2099   21.2120 N   0  0  0  0  0  0  0  0  0  0  0  0
   10.4303  -15.9838   21.9551 C   0  0  0  0  0  0  0  0  0  0  0  0
   11.2380  -15.1140   22.3447 O   0  0  0  0  0  0  0  0  0  0  0  0
    7.8831  -12.5960   16.2367 N   0  0  0  0  0  0  0  0  0  0  0  0
    7.9260  -14.0035   16.4227 C   0  0  0  0  0  0  0  0  0  0  0  0
    8.1058  -14.8178   15.4348 N   0  0  0  0  0  0  0  0  0  0  0  0
    7.7659  -14.5176   17.7284 N   0  0  0  0  0  0  0  0  0  0  0  0
    7.9360  -13.7200   18.9216 C   0  0  0  0  0  0  0  0  0  0  0  0
    7.5681  -14.5524   20.1066 C   0  0  0  0  0  0  0  0  0  0  0  0
    7.6105  -13.7655   21.3785 C   0  0  0  0  0  0  0  0  0  0  0  0
    8.5349  -14.4159   22.3552 C   0  0  2  0  0  0  0  0  0  0  0  0
    9.0515  -15.6740   21.9096 N   0  0  0  0  0  0  0  0  0  0  0  0
    7.7422  -14.6639   23.5953 C   0  0  0  0  0  0  0  0  0  0  0  0
    6.5500  -14.2627   23.5835 O   0  0  0  0  0  0  0  0  0  0  0  0
    8.2975  -15.8148   15.5396 C   0  0  0  0  0  0  0  0  0  0  0  0
    5.7262  -12.0787   26.0637 C   0  0  0  0  0  0  0  0  0  0  0  0
    6.8931  -12.7993   25.4978 C   0  0  2  0  0  0  0  0  0  0  0  0
    7.6100  -13.7460   26.3814 C   0  0  0  0  0  0  0  0  0  0  0  0
    7.8010  -13.1838   27.7719 C   0  0  2  0  0  0  0  0  0  0  0  0
    8.7809  -14.4797   25.8303 N   0  0  0  0  0  0  0  0  0  0  0  0
    8.3095  -15.3127   24.7097 C   0  0  0  0  0  0  0  0  0  0  0  0
    9.4648  -15.4033   26.7498 O   0  0  0  0  0  0  0  0  0  0  0  0
   10.2571  -14.9536   27.8073 O   0  0  0  0  0  0  0  0  0  0  0  0
  2  1  1  0
  2  3  2  0
  4  2  1  0
  5  4  1  0
  5  6  1  6
  7  8  2  0
  7  5  1  0
 10  9  1  0
 10 12  1  0
 11 10  2  0
 12 13  1  0
 13 14  1  0
 14 15  1  0
 16 15  1  6
 16 17  1  0
 17  7  1  0
 18 19  2  0
 18 16  1  0
 21 22  1  0
 21 20  1  0
 22 23  1  1
 24 22  1  0
 24 25  1  6
 25 18  1  0
 26 24  1  0
 27 26  1  0
 28 26  2  0
M  END
$$$$
