NRI.pdb
     RDKit          3D

 28 27  0  0  1  0  0  0  0  0999 V2000
    7.8051  -16.1712   16.7160 N   0  0  0  0  0  0  0  0  0  0  0  0
    7.9030  -17.2622   17.6089 C   0  0  0  0  0  0  0  0  0  0  0  0
    8.5164  -18.2925   17.2637 O   0  0  0  0  0  0  0  0  0  0  0  0
    7.2776  -17.1754   18.9456 C   0  0  0  0  0  0  0  0  0  0  0  0
    8.3351  -17.1199   20.0144 C   0  0  2  0  0  0  0  0  0  0  0  0
    8.9077  -18.4228   20.1606 N   0  0  0  0  0  0  0  0  0  0  0  0
    7.7079  -16.6639   21.2885 C   0  0  0  0  0  0  0  0  0  0  0  0
    7.1603  -15.5416   21.3220 O   0  0  0  0  0  0  0  0  0  0  0  0
    6.0848  -23.1797   26.0832 N   0  0  0  0  0  0  0  0  0  0  0  0
    6.0038  -23.0609   24.6700 C   0  0  0  0  0  0  0  0  0  0  0  0
    5.7243  -24.0720   23.9146 N   0  0  0  0  0  0  0  0  0  0  0  0
    6.2378  -21.7975   24.0838 N   0  0  0  0  0  0  0  0  0  0  0  0
    6.5670  -20.6163   24.8490 C   0  0  0  0  0  0  0  0  0  0  0  0
    6.6675  -19.4559   23.9131 C   0  0  0  0  0  0  0  0  0  0  0  0
    6.8632  -18.1640   24.6419 C   0  0  0  0  0  0  0  0  0  0  0  0
    7.0781  -17.0516   23.6685 C   0  0  2  0  0  0  0  0  0  0  0  0
    7.7156  -17.4630   22.4549 N   0  0  0  0  0  0  0  0  0  0  0  0
    7.9728  -16.0627   24.3387 C   0  0  0  0  0  0  0  0  0  0  0  0
    9.2050  -16.1881   24.1185 O   0  0  0  0  0  0  0  0  0  0  0  0
    5.6032  -24.0170   22.9026 C   0  0  0  0  0  0  0  0  0  0  0  0
    6.1813  -11.2982   27.2540 C   0  0  0  0  0  0  0  0  0  0  0  0
    6.6545  -12.6728   26.9576 C   0  0  2  0  0  0  0  0  0  0  0  0
    7.7676  -12.8229   25.9936 C   0  0  0  0  0  0  0  0  0  0  0  0
    7.4860  -12.1063   24.6923 C   0  0  1  0  0  0  0  0  0  0  0  0
    8.4068  -14.1588   25.8536 N   0  0  0  0  0  0  0  0  0  0  0  0
    7.4534  -15.0500   25.1690 C   0  0  0  0  0  0  0  0  0  0  0  0
    8.7631  -14.8469   27.1051 O   0  0  0  0  0  0  0  0  0  0  0  0
    9.8167  -14.4227   27.9165 O   0  0  0  0  0  0  0  0  0  0  0  0
  2  1  1  0
  2  3  2  0
  4  2  1  0
  5  4  1  0
  5  6  1  1
  7  8  2  0
  7  5  1  0
 10  9  1  0
 10 12  1  0
 11 10  2  0
 12 13  1  0
 13 14  1  0
 14 15  1  0
 16 15  1  1
 16 17  1  0
 17  7  1  0
 18 19  2  0
 18 16  1  0
 21 22  1  0
 21 20  1  0
 22 23  1  1
 24 22  1  0
 24 25  1  6
 25 18  1  0
 26 24  1  0
 27 26  1  0
 28 26  2  0
M  END
$$$$
