NRI.pdb
     RDKit          3D

 28 27  0  0  1  0  0  0  0  0999 V2000
   14.5029  -17.6943   21.0218 N   0  0  0  0  0  0  0  0  0  0  0  0
   13.6985  -17.4487   19.8860 C   0  0  0  0  0  0  0  0  0  0  0  0
   14.2323  -17.3093   18.7669 O   0  0  0  0  0  0  0  0  0  0  0  0
   12.2302  -17.3584   20.0319 C   0  0  0  0  0  0  0  0  0  0  0  0
   11.8360  -17.5432   21.4720 C   0  0  2  0  0  0  0  0  0  0  0  0
   10.9683  -18.6767   21.5678 N   0  0  0  0  0  0  0  0  0  0  0  0
   11.1541  -16.3046   21.9469 C   0  0  0  0  0  0  0  0  0  0  0  0
   11.8211  -15.4511   22.5692 O   0  0  0  0  0  0  0  0  0  0  0  0
    8.2292  -15.4335   17.3650 N   0  0  0  0  0  0  0  0  0  0  0  0
    7.9929  -14.0810   17.0007 C   0  0  0  0  0  0  0  0  0  0  0  0
    8.2933  -13.6270   15.8282 N   0  0  0  0  0  0  0  0  0  0  0  0
    7.4132  -13.2159   17.9548 N   0  0  0  0  0  0  0  0  0  0  0  0
    7.0017  -13.6479   19.2712 C   0  0  0  0  0  0  0  0  0  0  0  0
    8.2179  -14.0442   20.0436 C   0  0  0  0  0  0  0  0  0  0  0  0
    7.8729  -14.5633   21.4037 C   0  0  0  0  0  0  0  0  0  0  0  0
    9.1186  -14.8830   22.1636 C   0  0  2  0  0  0  0  0  0  0  0  0
    9.7795  -16.0700   21.7133 N   0  0  0  0  0  0  0  0  0  0  0  0
    8.7107  -15.1009   23.5827 C   0  0  0  0  0  0  0  0  0  0  0  0
    9.0982  -16.1728   24.1150 O   0  0  0  0  0  0  0  0  0  0  0  0
    8.0901  -12.6788   15.5098 C   0  0  0  0  0  0  0  0  0  0  0  0
    6.8302  -10.7243   26.4351 C   0  0  0  0  0  0  0  0  0  0  0  0
    7.6166  -11.9734   26.2847 C   0  0  2  0  0  0  0  0  0  0  0  0
    6.8714  -13.2509   26.2246 C   0  0  0  0  0  0  0  0  0  0  0  0
    6.0729  -13.4967   27.4847 C   0  0  2  0  0  0  0  0  0  0  0  0
    7.5612  -14.4467   25.6704 N   0  0  0  0  0  0  0  0  0  0  0  0
    7.9350  -14.1509   24.2759 C   0  0  0  0  0  0  0  0  0  0  0  0
    6.7723  -15.6881   25.6139 O   0  0  0  0  0  0  0  0  0  0  0  0
    6.0110  -16.0387   24.4978 O   0  0  0  0  0  0  0  0  0  0  0  0
  2  1  1  0
  2  3  2  0
  4  2  1  0
  5  4  1  0
  5  6  1  6
  7  8  2  0
  7  5  1  0
 10  9  1  0
 10 12  1  0
 11 10  2  0
 12 13  1  0
 13 14  1  0
 14 15  1  0
 16 15  1  6
 16 17  1  0
 17  7  1  0
 18 19  2  0
 18 16  1  0
 21 22  1  0
 21 20  1  0
 22 23  1  6
 24 22  1  0
 24 25  1  1
 25 18  1  0
 26 24  1  0
 27 26  1  0
 28 26  2  0
M  END
$$$$
