NRI.pdb
     RDKit          3D

 28 27  0  0  1  0  0  0  0  0999 V2000
    7.1519  -13.2270   16.7069 N   0  0  0  0  0  0  0  0  0  0  0  0
    7.8415  -14.0038   17.6652 C   0  0  0  0  0  0  0  0  0  0  0  0
    8.6175  -14.9058   17.2897 O   0  0  0  0  0  0  0  0  0  0  0  0
    7.6384  -13.7423   19.1060 C   0  0  0  0  0  0  0  0  0  0  0  0
    8.5243  -14.6373   19.9293 C   0  0  2  0  0  0  0  0  0  0  0  0
    8.7182  -15.8659   19.2224 N   0  0  0  0  0  0  0  0  0  0  0  0
    7.8733  -14.8756   21.2499 C   0  0  0  0  0  0  0  0  0  0  0  0
    7.3825  -13.9043   21.8632 O   0  0  0  0  0  0  0  0  0  0  0  0
    6.3325  -22.6881   24.0126 N   0  0  0  0  0  0  0  0  0  0  0  0
    6.1799  -21.5342   24.8267 C   0  0  0  0  0  0  0  0  0  0  0  0
    6.0075  -21.6183   26.1051 N   0  0  0  0  0  0  0  0  0  0  0  0
    6.2186  -20.2634   24.2116 N   0  0  0  0  0  0  0  0  0  0  0  0
    6.3760  -20.0758   22.7872 C   0  0  0  0  0  0  0  0  0  0  0  0
    6.3688  -18.6102   22.4967 C   0  0  0  0  0  0  0  0  0  0  0  0
    7.1641  -17.8365   23.5005 C   0  0  0  0  0  0  0  0  0  0  0  0
    7.2175  -16.3947   23.1137 C   0  0  2  0  0  0  0  0  0  0  0  0
    7.7962  -16.1650   21.8249 N   0  0  0  0  0  0  0  0  0  0  0  0
    8.0762  -15.7113   24.1253 C   0  0  0  0  0  0  0  0  0  0  0  0
    9.3035  -15.6418   23.8580 O   0  0  0  0  0  0  0  0  0  0  0  0
    5.9668  -20.8150   26.7335 C   0  0  0  0  0  0  0  0  0  0  0  0
    6.1170  -11.2312   26.0660 C   0  0  0  0  0  0  0  0  0  0  0  0
    7.0121  -12.3182   25.5986 C   0  0  2  0  0  0  0  0  0  0  0  0
    7.6405  -13.1795   26.6254 C   0  0  0  0  0  0  0  0  0  0  0  0
    8.2992  -12.3659   27.7163 C   0  0  2  0  0  0  0  0  0  0  0  0
    8.4083  -14.3715   26.1753 N   0  0  0  0  0  0  0  0  0  0  0  0
    7.5300  -15.1780   25.3094 C   0  0  0  0  0  0  0  0  0  0  0  0
    8.8720  -15.2865   27.2308 O   0  0  0  0  0  0  0  0  0  0  0  0
   10.0643  -15.0805   27.9267 O   0  0  0  0  0  0  0  0  0  0  0  0
  2  1  1  0
  2  3  2  0
  4  2  1  0
  5  4  1  0
  5  6  1  6
  7  8  2  0
  7  5  1  0
 10  9  1  0
 10 12  1  0
 11 10  2  0
 12 13  1  0
 13 14  1  0
 14 15  1  0
 16 15  1  1
 16 17  1  0
 17  7  1  0
 18 19  2  0
 18 16  1  0
 21 22  1  0
 21 20  1  0
 22 23  1  1
 24 22  1  0
 24 25  1  6
 25 18  1  0
 26 24  1  0
 27 26  1  0
 28 26  2  0
M  END
$$$$
