NRI.pdb
     RDKit          3D

 28 27  0  0  1  0  0  0  0  0999 V2000
    9.3628  -22.6412   26.5940 N   0  0  0  0  0  0  0  0  0  0  0  0
    8.5721  -22.1030   25.5536 C   0  0  0  0  0  0  0  0  0  0  0  0
    7.4908  -22.6476   25.2518 O   0  0  0  0  0  0  0  0  0  0  0  0
    9.0317  -20.8986   24.8300 C   0  0  0  0  0  0  0  0  0  0  0  0
    7.9008  -19.9184   24.6761 C   0  0  2  0  0  0  0  0  0  0  0  0
    6.8432  -20.5495   23.9482 N   0  0  0  0  0  0  0  0  0  0  0  0
    8.4034  -18.7135   23.9548 C   0  0  0  0  0  0  0  0  0  0  0  0
    9.6335  -18.5876   23.7773 O   0  0  0  0  0  0  0  0  0  0  0  0
    7.8910  -13.5154   17.3250 N   0  0  0  0  0  0  0  0  0  0  0  0
    8.1689  -13.0732   18.6460 C   0  0  0  0  0  0  0  0  0  0  0  0
    7.7803  -11.9174   19.0752 N   0  0  0  0  0  0  0  0  0  0  0  0
    8.8917  -13.9284   19.5066 N   0  0  0  0  0  0  0  0  0  0  0  0
    8.3100  -15.0863   20.1468 C   0  0  0  0  0  0  0  0  0  0  0  0
    7.5312  -14.6304   21.3377 C   0  0  0  0  0  0  0  0  0  0  0  0
    6.9346  -15.7782   22.0895 C   0  0  0  0  0  0  0  0  0  0  0  0
    8.0060  -16.5439   22.7945 C   0  0  2  0  0  0  0  0  0  0  0  0
    7.5302  -17.7137   23.4679 N   0  0  0  0  0  0  0  0  0  0  0  0
    8.5795  -15.6286   23.8246 C   0  0  0  0  0  0  0  0  0  0  0  0
    9.3917  -14.7623   23.4094 O   0  0  0  0  0  0  0  0  0  0  0  0
    8.0264  -11.5307   19.9872 C   0  0  0  0  0  0  0  0  0  0  0  0
    5.7466  -12.4815   26.2343 C   0  0  0  0  0  0  0  0  0  0  0  0
    6.8466  -13.3164   25.6921 C   0  0  2  0  0  0  0  0  0  0  0  0
    7.8077  -13.8968   26.6567 C   0  0  0  0  0  0  0  0  0  0  0  0
    8.2885  -12.8714   27.6585 C   0  0  2  0  0  0  0  0  0  0  0  0
    8.8565  -14.8181   26.1429 N   0  0  0  0  0  0  0  0  0  0  0  0
    8.2224  -15.7391   25.1830 C   0  0  0  0  0  0  0  0  0  0  0  0
    9.5162  -15.6775   27.1393 O   0  0  0  0  0  0  0  0  0  0  0  0
   10.6436  -15.2651   27.8514 O   0  0  0  0  0  0  0  0  0  0  0  0
  2  1  1  0
  2  3  2  0
  4  2  1  0
  5  4  1  0
  5  6  1  6
  7  8  2  0
  7  5  1  0
 10  9  1  0
 10 12  1  0
 11 10  2  0
 12 13  1  0
 13 14  1  0
 14 15  1  0
 16 15  1  1
 16 17  1  0
 17  7  1  0
 18 19  2  0
 18 16  1  0
 21 22  1  0
 21 20  1  0
 22 23  1  1
 24 22  1  0
 24 25  1  6
 25 18  1  0
 26 24  1  0
 27 26  1  0
 28 26  2  0
M  END
$$$$
