NRI.pdb
     RDKit          3D

 28 27  0  0  1  0  0  0  0  0999 V2000
    8.8675  -12.8582   16.9451 N   0  0  0  0  0  0  0  0  0  0  0  0
    7.6207  -13.5089   17.0842 C   0  0  0  0  0  0  0  0  0  0  0  0
    6.8518  -13.5911   16.1050 O   0  0  0  0  0  0  0  0  0  0  0  0
    7.2361  -14.0875   18.3891 C   0  0  0  0  0  0  0  0  0  0  0  0
    8.2580  -13.7386   19.4368 C   0  0  2  0  0  0  0  0  0  0  0  0
    9.5515  -14.1222   18.9609 N   0  0  0  0  0  0  0  0  0  0  0  0
    7.9168  -14.4559   20.6992 C   0  0  0  0  0  0  0  0  0  0  0  0
    6.8546  -14.1649   21.2888 O   0  0  0  0  0  0  0  0  0  0  0  0
   10.0133  -20.5896   18.8034 N   0  0  0  0  0  0  0  0  0  0  0  0
   11.1253  -20.0224   19.4811 C   0  0  0  0  0  0  0  0  0  0  0  0
   12.3038  -19.9891   18.9508 N   0  0  0  0  0  0  0  0  0  0  0  0
   10.9268  -19.4826   20.7710 N   0  0  0  0  0  0  0  0  0  0  0  0
    9.6800  -19.5923   21.4939 C   0  0  0  0  0  0  0  0  0  0  0  0
    8.9564  -18.2888   21.3948 C   0  0  0  0  0  0  0  0  0  0  0  0
    9.1536  -17.4448   22.6144 C   0  0  0  0  0  0  0  0  0  0  0  0
    8.4406  -16.1414   22.4587 C   0  0  2  0  0  0  0  0  0  0  0  0
    8.7584  -15.4522   21.2453 N   0  0  0  0  0  0  0  0  0  0  0  0
    8.8721  -15.2785   23.5975 C   0  0  0  0  0  0  0  0  0  0  0  0
   10.0206  -14.7728   23.5088 O   0  0  0  0  0  0  0  0  0  0  0  0
   13.1321  -19.6139   19.4145 C   0  0  0  0  0  0  0  0  0  0  0  0
    5.6000  -11.7770   25.7788 C   0  0  0  0  0  0  0  0  0  0  0  0
    6.8626  -12.4391   25.3678 C   0  0  2  0  0  0  0  0  0  0  0  0
    7.4917  -13.3740   26.3276 C   0  0  0  0  0  0  0  0  0  0  0  0
    7.7662  -12.7133   27.6596 C   0  0  2  0  0  0  0  0  0  0  0  0
    8.5683  -14.2748   25.8354 N   0  0  0  0  0  0  0  0  0  0  0  0
    8.0304  -15.0509   24.7041 C   0  0  0  0  0  0  0  0  0  0  0  0
    9.0754  -15.2708   26.7932 O   0  0  0  0  0  0  0  0  0  0  0  0
    8.7317  -16.6215   26.7179 O   0  0  0  0  0  0  0  0  0  0  0  0
  2  1  1  0
  2  3  2  0
  4  2  1  0
  5  4  1  0
  5  6  1  6
  7  8  2  0
  7  5  1  0
 10  9  1  0
 10 12  1  0
 11 10  2  0
 12 13  1  0
 13 14  1  0
 14 15  1  0
 16 15  1  6
 16 17  1  0
 17  7  1  0
 18 19  2  0
 18 16  1  0
 21 22  1  0
 21 20  1  0
 22 23  1  1
 24 22  1  0
 24 25  1  6
 25 18  1  0
 26 24  1  0
 27 26  1  0
 28 26  2  0
M  END
$$$$
