NRI.pdb
     RDKit          3D

 28 27  0  0  1  0  0  0  0  0999 V2000
    9.2203  -12.1905   18.4680 N   0  0  0  0  0  0  0  0  0  0  0  0
    8.3744  -13.2491   18.0668 C   0  0  0  0  0  0  0  0  0  0  0  0
    8.3863  -13.6366   16.8808 O   0  0  0  0  0  0  0  0  0  0  0  0
    7.4810  -13.8899   19.0551 C   0  0  0  0  0  0  0  0  0  0  0  0
    8.0272  -15.2321   19.4599 C   0  0  2  0  0  0  0  0  0  0  0  0
    7.7603  -16.1701   18.4131 N   0  0  0  0  0  0  0  0  0  0  0  0
    7.3762  -15.6518   20.7345 C   0  0  0  0  0  0  0  0  0  0  0  0
    6.1295  -15.6265   20.8106 O   0  0  0  0  0  0  0  0  0  0  0  0
    8.9787  -19.7530   27.3869 N   0  0  0  0  0  0  0  0  0  0  0  0
    7.6091  -20.1142   27.4930 C   0  0  0  0  0  0  0  0  0  0  0  0
    7.1016  -20.5506   28.5990 N   0  0  0  0  0  0  0  0  0  0  0  0
    6.7872  -19.9895   26.3513 N   0  0  0  0  0  0  0  0  0  0  0  0
    7.3049  -19.7523   25.0229 C   0  0  0  0  0  0  0  0  0  0  0  0
    7.1528  -18.3002   24.7052 C   0  0  0  0  0  0  0  0  0  0  0  0
    7.6658  -17.9691   23.3393 C   0  0  0  0  0  0  0  0  0  0  0  0
    7.5094  -16.5079   23.0713 C   0  0  2  0  0  0  0  0  0  0  0  0
    8.1273  -16.0760   21.8547 N   0  0  0  0  0  0  0  0  0  0  0  0
    8.1761  -15.7919   24.1984 C   0  0  0  0  0  0  0  0  0  0  0  0
    9.4340  -15.8011   24.1974 O   0  0  0  0  0  0  0  0  0  0  0  0
    6.1152  -20.7790   28.7278 C   0  0  0  0  0  0  0  0  0  0  0  0
    5.7870  -11.2388   25.8128 C   0  0  0  0  0  0  0  0  0  0  0  0
    6.9064  -12.1673   25.5194 C   0  0  2  0  0  0  0  0  0  0  0  0
    7.2522  -13.1730   26.5490 C   0  0  0  0  0  0  0  0  0  0  0  0
    7.5615  -12.5304   27.8822 C   0  0  2  0  0  0  0  0  0  0  0  0
    8.1478  -14.2975   26.1667 N   0  0  0  0  0  0  0  0  0  0  0  0
    7.4266  -15.1456   25.2011 C   0  0  0  0  0  0  0  0  0  0  0  0
    8.5635  -15.1998   27.2528 O   0  0  0  0  0  0  0  0  0  0  0  0
    8.0113  -16.4708   27.4200 O   0  0  0  0  0  0  0  0  0  0  0  0
  2  1  1  0
  2  3  2  0
  4  2  1  0
  5  4  1  0
  5  6  1  6
  7  8  2  0
  7  5  1  0
 10  9  1  0
 10 12  1  0
 11 10  2  0
 12 13  1  0
 13 14  1  0
 14 15  1  0
 16 15  1  1
 16 17  1  0
 17  7  1  0
 18 19  2  0
 18 16  1  0
 21 22  1  0
 21 20  1  0
 22 23  1  1
 24 22  1  0
 24 25  1  6
 25 18  1  0
 26 24  1  0
 27 26  1  0
 28 26  2  0
M  END
$$$$
