NRI.pdb
     RDKit          3D

 28 27  0  0  1  0  0  0  0  0999 V2000
    8.0583  -12.3178   16.9277 N   0  0  0  0  0  0  0  0  0  0  0  0
    7.8897  -13.7027   17.1526 C   0  0  0  0  0  0  0  0  0  0  0  0
    8.1065  -14.5117   16.2277 O   0  0  0  0  0  0  0  0  0  0  0  0
    7.4572  -14.1834   18.4820 C   0  0  0  0  0  0  0  0  0  0  0  0
    8.6436  -14.3316   19.3952 C   0  0  2  0  0  0  0  0  0  0  0  0
    9.5634  -15.2551   18.8053 N   0  0  0  0  0  0  0  0  0  0  0  0
    8.1708  -14.8203   20.7227 C   0  0  0  0  0  0  0  0  0  0  0  0
    7.2492  -14.2034   21.2980 O   0  0  0  0  0  0  0  0  0  0  0  0
   11.1283  -21.9494   22.0734 N   0  0  0  0  0  0  0  0  0  0  0  0
   10.3222  -21.4666   21.0081 C   0  0  0  0  0  0  0  0  0  0  0  0
   10.6896  -21.5692   19.7730 N   0  0  0  0  0  0  0  0  0  0  0  0
    9.0860  -20.8582   21.3185 N   0  0  0  0  0  0  0  0  0  0  0  0
    8.8261  -20.1823   22.5693 C   0  0  0  0  0  0  0  0  0  0  0  0
    8.2060  -18.8555   22.2732 C   0  0  0  0  0  0  0  0  0  0  0  0
    8.8793  -17.7445   23.0154 C   0  0  0  0  0  0  0  0  0  0  0  0
    8.2884  -16.4303   22.6214 C   0  0  2  0  0  0  0  0  0  0  0  0
    8.7338  -15.9576   21.3460 N   0  0  0  0  0  0  0  0  0  0  0  0
    8.7228  -15.4398   23.6499 C   0  0  0  0  0  0  0  0  0  0  0  0
    9.9195  -15.0576   23.5842 O   0  0  0  0  0  0  0  0  0  0  0  0
   10.1694  -21.1820   18.9847 C   0  0  0  0  0  0  0  0  0  0  0  0
    6.4685  -10.8055   26.8857 C   0  0  0  0  0  0  0  0  0  0  0  0
    7.5713  -11.7651   26.6320 C   0  0  2  0  0  0  0  0  0  0  0  0
    7.2938  -12.9079   25.7331 C   0  0  0  0  0  0  0  0  0  0  0  0
    5.8763  -13.4117   25.8840 C   0  0  2  0  0  0  0  0  0  0  0  0
    8.3294  -13.9669   25.5951 N   0  0  0  0  0  0  0  0  0  0  0  0
    7.8321  -14.9671   24.6337 C   0  0  0  0  0  0  0  0  0  0  0  0
    8.6594  -14.7208   26.8154 O   0  0  0  0  0  0  0  0  0  0  0  0
    9.5065  -14.2119   27.8012 O   0  0  0  0  0  0  0  0  0  0  0  0
  2  1  1  0
  2  3  2  0
  4  2  1  0
  5  4  1  0
  5  6  1  6
  7  8  2  0
  7  5  1  0
 10  9  1  0
 10 12  1  0
 11 10  2  0
 12 13  1  0
 13 14  1  0
 14 15  1  0
 16 15  1  1
 16 17  1  0
 17  7  1  0
 18 19  2  0
 18 16  1  0
 21 22  1  0
 21 20  1  0
 22 23  1  6
 24 22  1  0
 24 25  1  1
 25 18  1  0
 26 24  1  0
 27 26  1  0
 28 26  2  0
M  END
$$$$
