NRI.pdb
     RDKit          3D

 28 27  0  0  1  0  0  0  0  0999 V2000
   12.1093  -14.6412   17.6496 N   0  0  0  0  0  0  0  0  0  0  0  0
   12.1918  -13.8157   18.7937 C   0  0  0  0  0  0  0  0  0  0  0  0
   13.2456  -13.1920   19.0332 O   0  0  0  0  0  0  0  0  0  0  0  0
   11.0292  -13.6973   19.6990 C   0  0  0  0  0  0  0  0  0  0  0  0
    9.9030  -14.5725   19.2202 C   0  0  2  0  0  0  0  0  0  0  0  0
    9.3218  -13.9759   18.0570 N   0  0  0  0  0  0  0  0  0  0  0  0
    8.8977  -14.7044   20.3141 C   0  0  0  0  0  0  0  0  0  0  0  0
    8.0024  -13.8392   20.4165 O   0  0  0  0  0  0  0  0  0  0  0  0
    8.4987  -22.2169   24.0895 N   0  0  0  0  0  0  0  0  0  0  0  0
    9.6389  -21.7375   23.3910 C   0  0  0  0  0  0  0  0  0  0  0  0
   10.7297  -22.4264   23.3101 N   0  0  0  0  0  0  0  0  0  0  0  0
    9.5681  -20.4704   22.7713 N   0  0  0  0  0  0  0  0  0  0  0  0
    8.3534  -19.6908   22.6957 C   0  0  0  0  0  0  0  0  0  0  0  0
    8.7210  -18.2532   22.5197 C   0  0  0  0  0  0  0  0  0  0  0  0
    7.5142  -17.3724   22.4403 C   0  0  0  0  0  0  0  0  0  0  0  0
    7.9273  -15.9506   22.2419 C   0  0  2  0  0  0  0  0  0  0  0  0
    8.9294  -15.7769   21.2349 N   0  0  0  0  0  0  0  0  0  0  0  0
    8.5016  -15.4864   23.5389 C   0  0  0  0  0  0  0  0  0  0  0  0
    9.7558  -15.4069   23.5957 O   0  0  0  0  0  0  0  0  0  0  0  0
   11.5710  -22.1153   22.8230 C   0  0  0  0  0  0  0  0  0  0  0  0
    5.7824  -11.5444   25.8308 C   0  0  0  0  0  0  0  0  0  0  0  0
    6.8529  -12.4567   25.3584 C   0  0  2  0  0  0  0  0  0  0  0  0
    7.3535  -13.4770   26.3067 C   0  0  0  0  0  0  0  0  0  0  0  0
    7.7221  -12.8717   27.6423 C   0  0  2  0  0  0  0  0  0  0  0  0
    8.2948  -14.5117   25.8006 N   0  0  0  0  0  0  0  0  0  0  0  0
    7.6741  -15.1585   24.6309 C   0  0  0  0  0  0  0  0  0  0  0  0
    8.6244  -15.6052   26.7291 O   0  0  0  0  0  0  0  0  0  0  0  0
    9.7364  -15.5597   27.5715 O   0  0  0  0  0  0  0  0  0  0  0  0
  2  1  1  0
  2  3  2  0
  4  2  1  0
  5  4  1  0
  5  6  1  6
  7  8  2  0
  7  5  1  0
 10  9  1  0
 10 12  1  0
 11 10  2  0
 12 13  1  0
 13 14  1  0
 14 15  1  0
 16 15  1  1
 16 17  1  0
 17  7  1  0
 18 19  2  0
 18 16  1  0
 21 22  1  0
 21 20  1  0
 22 23  1  1
 24 22  1  0
 24 25  1  6
 25 18  1  0
 26 24  1  0
 27 26  1  0
 28 26  2  0
M  END
$$$$
