NRI.pdb
     RDKit          3D

 28 27  0  0  1  0  0  0  0  0999 V2000
    8.5865  -11.6293   18.6451 N   0  0  0  0  0  0  0  0  0  0  0  0
    8.2299  -12.9635   18.3455 C   0  0  0  0  0  0  0  0  0  0  0  0
    8.5750  -13.4680   17.2577 O   0  0  0  0  0  0  0  0  0  0  0  0
    7.4501  -13.7523   19.3230 C   0  0  0  0  0  0  0  0  0  0  0  0
    8.0970  -15.0919   19.5480 C   0  0  2  0  0  0  0  0  0  0  0  0
    7.7237  -15.9663   18.4789 N   0  0  0  0  0  0  0  0  0  0  0  0
    7.6443  -15.6298   20.8634 C   0  0  0  0  0  0  0  0  0  0  0  0
    6.4202  -15.7779   21.0642 O   0  0  0  0  0  0  0  0  0  0  0  0
    6.1354  -20.5985   25.7107 N   0  0  0  0  0  0  0  0  0  0  0  0
    7.1517  -20.5277   26.7006 C   0  0  0  0  0  0  0  0  0  0  0  0
    6.9054  -20.7529   27.9495 N   0  0  0  0  0  0  0  0  0  0  0  0
    8.4653  -20.2006   26.2980 N   0  0  0  0  0  0  0  0  0  0  0  0
    8.8105  -19.8251   24.9457 C   0  0  0  0  0  0  0  0  0  0  0  0
    8.2812  -18.4526   24.6833 C   0  0  0  0  0  0  0  0  0  0  0  0
    8.6668  -17.9537   23.3265 C   0  0  0  0  0  0  0  0  0  0  0  0
    8.1384  -16.5723   23.1170 C   0  0  2  0  0  0  0  0  0  0  0  0
    8.5579  -15.9756   21.8855 N   0  0  0  0  0  0  0  0  0  0  0  0
    8.6722  -15.7359   24.2319 C   0  0  0  0  0  0  0  0  0  0  0  0
    9.9111  -15.5174   24.2201 O   0  0  0  0  0  0  0  0  0  0  0  0
    7.6117  -20.7377   28.6863 C   0  0  0  0  0  0  0  0  0  0  0  0
    6.1618  -11.3420   25.9135 C   0  0  0  0  0  0  0  0  0  0  0  0
    7.1288  -12.4174   25.5825 C   0  0  2  0  0  0  0  0  0  0  0  0
    7.5401  -13.3304   26.6726 C   0  0  0  0  0  0  0  0  0  0  0  0
    7.8974  -12.5767   27.9336 C   0  0  2  0  0  0  0  0  0  0  0  0
    8.4387  -14.4685   26.3407 N   0  0  0  0  0  0  0  0  0  0  0  0
    7.8251  -15.2254   25.2351 C   0  0  0  0  0  0  0  0  0  0  0  0
    8.6712  -15.4510   27.4118 O   0  0  0  0  0  0  0  0  0  0  0  0
    9.7075  -15.3157   28.3370 O   0  0  0  0  0  0  0  0  0  0  0  0
  2  1  1  0
  2  3  2  0
  4  2  1  0
  5  4  1  0
  5  6  1  6
  7  8  2  0
  7  5  1  0
 10  9  1  0
 10 12  1  0
 11 10  2  0
 12 13  1  0
 13 14  1  0
 14 15  1  0
 16 15  1  1
 16 17  1  0
 17  7  1  0
 18 19  2  0
 18 16  1  0
 21 22  1  0
 21 20  1  0
 22 23  1  1
 24 22  1  0
 24 25  1  6
 25 18  1  0
 26 24  1  0
 27 26  1  0
 28 26  2  0
M  END
$$$$
