PYN.pdb
     RDKit          3D

 28 29  0  0  1  0  0  0  0  0999 V2000
   26.8902  -18.6409  -15.5714 N   0  0  0  0  0  0  0  0  0  0  0  0
   28.0433  -18.2891  -16.3485 C   0  0  0  0  0  0  0  0  0  0  0  0
   29.0938  -19.3244  -15.9723 C   0  0  0  0  0  0  0  0  0  0  0  0
   28.2417  -20.5555  -15.7409 C   0  0  0  0  0  0  0  0  0  0  0  0
   26.8018  -20.0677  -15.7667 C   0  0  1  0  0  0  0  0  0  0  0  0
   26.1212  -20.7242  -14.5935 C   0  0  0  0  0  0  0  0  0  0  0  0
   25.8593  -21.9543  -14.6000 O   0  0  0  0  0  0  0  0  0  0  0  0
   31.0857  -21.6805  -10.6209 O   0  0  0  0  0  0  0  0  0  0  0  0
   29.7419  -21.3117  -10.7395 C   0  0  0  0  0  0  0  0  0  0  0  0
   29.3915  -20.2513  -11.5204 C   0  0  0  0  0  0  0  0  0  0  0  0
   28.0365  -19.9287  -11.6014 C   0  0  0  0  0  0  0  0  0  0  0  0
   27.0696  -20.6390  -10.9279 C   0  0  0  0  0  0  0  0  0  0  0  0
   25.6656  -20.2732  -11.0196 C   0  0  0  0  0  0  0  0  0  0  0  0
   25.0073  -20.6226  -12.3500 C   0  0  2  0  0  0  0  0  0  0  0  0
   25.7511  -19.9918  -13.4438 N   0  0  0  0  0  0  0  0  0  0  0  0
   23.5898  -20.2431  -12.3692 C   0  0  0  0  0  0  0  0  0  0  0  0
   23.2886  -19.0279  -12.4429 O   0  0  0  0  0  0  0  0  0  0  0  0
   27.4585  -21.7028  -10.1491 C   0  0  0  0  0  0  0  0  0  0  0  0
   28.8094  -22.0353  -10.0598 C   0  0  0  0  0  0  0  0  0  0  0  0
   19.8730  -20.8202  -16.4773 N   0  0  0  0  0  0  0  0  0  0  0  0
   20.0265  -20.6696  -15.0493 C   0  0  0  0  0  0  0  0  0  0  0  0
   19.0908  -20.1687  -14.4000 O   0  0  0  0  0  0  0  0  0  0  0  0
   21.2628  -21.1019  -14.3942 C   0  0  0  0  0  0  0  0  0  0  0  0
   21.2347  -20.8310  -12.9276 C   0  0  2  0  0  0  0  0  0  0  0  0
   22.5211  -21.1720  -12.3111 N   0  0  0  0  0  0  0  0  0  0  0  0
   20.1679  -21.6132  -12.2772 C   0  0  0  0  0  0  0  0  0  0  0  0
   20.4181  -22.8493  -12.0485 O   0  0  0  0  0  0  0  0  0  0  0  0
   18.9344  -21.1764  -11.8855 O   0  0  0  0  0  0  0  0  0  0  0  0
  1  5  1  0
  2  1  1  0
  3  2  1  0
  3  4  1  0
  4  5  1  0
  5  6  1  1
  6 15  1  0
  6  7  2  0
  9  8  1  0
 10  9  2  0
 11 10  1  0
 12 18  1  0
 12 11  2  0
 14 13  1  1
 13 12  1  0
 14 16  1  0
 15 14  1  0
 16 17  2  0
 18 19  2  0
 19  9  1  0
 20 21  1  0
 21 23  1  0
 22 21  2  0
 24 23  1  6
 24 26  1  0
 25 16  1  0
 25 24  1  0
 26 28  1  0
 27 26  2  0
M  END
$$$$
