PYN.pdb
     RDKit          3D

 28 29  0  0  1  0  0  0  0  0999 V2000
   26.4701  -20.1011  -16.2205 N   0  0  0  0  0  0  0  0  0  0  0  0
   27.7894  -19.9879  -16.7717 C   0  0  0  0  0  0  0  0  0  0  0  0
   28.7021  -20.6024  -15.7199 C   0  0  0  0  0  0  0  0  0  0  0  0
   27.8232  -21.6993  -15.1545 C   0  0  0  0  0  0  0  0  0  0  0  0
   26.4425  -21.4635  -15.7461 C   0  0  1  0  0  0  0  0  0  0  0  0
   25.4717  -21.6093  -14.6029 C   0  0  0  0  0  0  0  0  0  0  0  0
   25.3901  -22.6833  -13.9537 O   0  0  0  0  0  0  0  0  0  0  0  0
   28.3424  -21.1648   -8.6957 O   0  0  0  0  0  0  0  0  0  0  0  0
   27.2911  -20.7937   -9.5401 C   0  0  0  0  0  0  0  0  0  0  0  0
   27.5530  -20.3486  -10.8011 C   0  0  0  0  0  0  0  0  0  0  0  0
   26.4655  -19.9922  -11.5992 C   0  0  0  0  0  0  0  0  0  0  0  0
   25.1666  -20.0777  -11.1534 C   0  0  0  0  0  0  0  0  0  0  0  0
   24.0523  -19.6873  -12.0015 C   0  0  0  0  0  0  0  0  0  0  0  0
   23.6965  -20.7010  -13.0837 C   0  0  2  0  0  0  0  0  0  0  0  0
   24.6180  -20.5535  -14.2135 N   0  0  0  0  0  0  0  0  0  0  0  0
   22.2968  -20.5738  -13.5061 C   0  0  0  0  0  0  0  0  0  0  0  0
   22.0120  -19.7709  -14.4264 O   0  0  0  0  0  0  0  0  0  0  0  0
   24.9388  -20.5308   -9.8758 C   0  0  0  0  0  0  0  0  0  0  0  0
   26.0169  -20.8901   -9.0685 C   0  0  0  0  0  0  0  0  0  0  0  0
   20.3216  -22.8370  -17.3640 N   0  0  0  0  0  0  0  0  0  0  0  0
   19.9296  -22.1505  -16.1555 C   0  0  0  0  0  0  0  0  0  0  0  0
   19.1430  -21.1907  -16.2451 O   0  0  0  0  0  0  0  0  0  0  0  0
   20.4551  -22.5866  -14.8600 C   0  0  0  0  0  0  0  0  0  0  0  0
   20.0666  -21.6527  -13.7637 C   0  0  2  0  0  0  0  0  0  0  0  0
   21.2283  -21.3101  -12.9364 N   0  0  0  0  0  0  0  0  0  0  0  0
   19.0307  -22.2605  -12.9090 C   0  0  0  0  0  0  0  0  0  0  0  0
   19.4317  -23.0973  -12.0250 O   0  0  0  0  0  0  0  0  0  0  0  0
   17.6836  -22.0378  -12.9456 O   0  0  0  0  0  0  0  0  0  0  0  0
  1  5  1  0
  2  1  1  0
  3  2  1  0
  3  4  1  0
  4  5  1  0
  5  6  1  1
  6 15  1  0
  6  7  2  0
  9  8  1  0
 10  9  2  0
 11 10  1  0
 12 18  1  0
 12 11  2  0
 14 13  1  1
 13 12  1  0
 14 16  1  0
 15 14  1  0
 16 17  2  0
 18 19  2  0
 19  9  1  0
 20 21  1  0
 21 23  1  0
 22 21  2  0
 24 23  1  6
 24 26  1  0
 25 16  1  0
 25 24  1  0
 26 28  1  0
 27 26  2  0
M  END
$$$$
