PYN.pdb
     RDKit          3D

 28 29  0  0  1  0  0  0  0  0999 V2000
   22.1265  -10.9120  -15.8230 N   0  0  0  0  0  0  0  0  0  0  0  0
   22.9531  -12.0026  -16.2526 C   0  0  0  0  0  0  0  0  0  0  0  0
   24.3515  -11.6403  -15.7729 C   0  0  0  0  0  0  0  0  0  0  0  0
   24.0527  -10.9143  -14.4772 C   0  0  0  0  0  0  0  0  0  0  0  0
   22.5449  -10.7188  -14.4557 C   0  0  1  0  0  0  0  0  0  0  0  0
   22.3185   -9.2923  -14.0263 C   0  0  0  0  0  0  0  0  0  0  0  0
   22.6551   -8.8981  -12.8805 O   0  0  0  0  0  0  0  0  0  0  0  0
   20.3701   -0.6723  -14.5697 O   0  0  0  0  0  0  0  0  0  0  0  0
   20.6648   -2.0091  -14.8564 C   0  0  0  0  0  0  0  0  0  0  0  0
   19.7455   -2.7897  -15.4910 C   0  0  0  0  0  0  0  0  0  0  0  0
   20.0936   -4.1154  -15.7512 C   0  0  0  0  0  0  0  0  0  0  0  0
   21.3135   -4.6401  -15.3909 C   0  0  0  0  0  0  0  0  0  0  0  0
   21.6455   -6.0291  -15.6626 C   0  0  0  0  0  0  0  0  0  0  0  0
   21.5182   -6.9563  -14.4588 C   0  0  2  0  0  0  0  0  0  0  0  0
   21.7230   -8.3430  -14.8862 N   0  0  0  0  0  0  0  0  0  0  0  0
   20.2304   -6.7845  -13.7764 C   0  0  0  0  0  0  0  0  0  0  0  0
   19.2233   -7.3844  -14.2223 O   0  0  0  0  0  0  0  0  0  0  0  0
   22.2168   -3.8244  -14.7522 C   0  0  0  0  0  0  0  0  0  0  0  0
   21.8811   -2.4978  -14.4864 C   0  0  0  0  0  0  0  0  0  0  0  0
   16.3464   -5.8586  -10.6219 N   0  0  0  0  0  0  0  0  0  0  0  0
   17.5551   -5.9605   -9.8381 C   0  0  0  0  0  0  0  0  0  0  0  0
   17.4596   -5.9840   -8.5979 O   0  0  0  0  0  0  0  0  0  0  0  0
   18.8575   -6.0339  -10.5036 C   0  0  0  0  0  0  0  0  0  0  0  0
   18.7275   -5.9251  -11.9855 C   0  0  2  0  0  0  0  0  0  0  0  0
   20.0451   -5.9748  -12.6281 N   0  0  0  0  0  0  0  0  0  0  0  0
   18.0600   -4.6639  -12.3553 C   0  0  0  0  0  0  0  0  0  0  0  0
   18.8138   -3.6408  -12.5215 O   0  0  0  0  0  0  0  0  0  0  0  0
   16.7239   -4.4520  -12.5438 O   0  0  0  0  0  0  0  0  0  0  0  0
  1  5  1  0
  2  1  1  0
  3  2  1  0
  3  4  1  0
  4  5  1  0
  5  6  1  6
  6 15  1  0
  6  7  2  0
  9  8  1  0
 10  9  2  0
 11 10  1  0
 12 18  1  0
 12 11  2  0
 14 13  1  6
 13 12  1  0
 14 16  1  0
 15 14  1  0
 16 17  2  0
 18 19  2  0
 19  9  1  0
 20 21  1  0
 21 23  1  0
 22 21  2  0
 24 23  1  1
 24 26  1  0
 25 16  1  0
 25 24  1  0
 26 28  1  0
 27 26  2  0
M  END
$$$$
