PYN.pdb
     RDKit          3D

 28 29  0  0  1  0  0  0  0  0999 V2000
   28.6255  -21.6747  -17.7253 N   0  0  0  0  0  0  0  0  0  0  0  0
   29.8814  -21.7514  -18.4140 C   0  0  0  0  0  0  0  0  0  0  0  0
   30.8065  -22.4820  -17.4511 C   0  0  0  0  0  0  0  0  0  0  0  0
   29.8489  -23.4409  -16.7740 C   0  0  0  0  0  0  0  0  0  0  0  0
   28.4593  -23.0168  -17.2224 C   0  0  1  0  0  0  0  0  0  0  0  0
   27.6053  -23.0180  -15.9810 C   0  0  0  0  0  0  0  0  0  0  0  0
   27.2669  -24.0951  -15.4270 O   0  0  0  0  0  0  0  0  0  0  0  0
   23.7005  -20.4884   -8.5093 O   0  0  0  0  0  0  0  0  0  0  0  0
   24.4448  -20.5465   -9.6920 C   0  0  0  0  0  0  0  0  0  0  0  0
   25.7032  -21.0693   -9.6815 C   0  0  0  0  0  0  0  0  0  0  0  0
   26.3992  -21.1017  -10.8903 C   0  0  0  0  0  0  0  0  0  0  0  0
   25.8577  -20.6298  -12.0638 C   0  0  0  0  0  0  0  0  0  0  0  0
   26.6100  -20.6636  -13.3073 C   0  0  0  0  0  0  0  0  0  0  0  0
   26.2679  -21.8355  -14.2210 C   0  0  2  0  0  0  0  0  0  0  0  0
   27.1517  -21.8180  -15.3899 N   0  0  0  0  0  0  0  0  0  0  0  0
   24.8533  -21.8231  -14.6114 C   0  0  0  0  0  0  0  0  0  0  0  0
   24.4803  -21.0361  -15.5138 O   0  0  0  0  0  0  0  0  0  0  0  0
   24.5859  -20.1089  -12.0380 C   0  0  0  0  0  0  0  0  0  0  0  0
   23.8800  -20.0709  -10.8365 C   0  0  0  0  0  0  0  0  0  0  0  0
   23.4589  -25.9424  -14.5751 N   0  0  0  0  0  0  0  0  0  0  0  0
   22.9652  -24.8271  -15.3482 C   0  0  0  0  0  0  0  0  0  0  0  0
   23.4278  -24.6425  -16.4883 O   0  0  0  0  0  0  0  0  0  0  0  0
   21.9420  -23.9415  -14.7885 C   0  0  0  0  0  0  0  0  0  0  0  0
   22.4818  -22.5786  -14.5128 C   0  0  2  0  0  0  0  0  0  0  0  0
   23.8645  -22.6550  -14.0293 N   0  0  0  0  0  0  0  0  0  0  0  0
   21.6573  -21.8898  -13.5035 C   0  0  0  0  0  0  0  0  0  0  0  0
   22.2280  -21.6026  -12.3924 O   0  0  0  0  0  0  0  0  0  0  0  0
   20.3475  -21.5176  -13.6100 O   0  0  0  0  0  0  0  0  0  0  0  0
  1  5  1  0
  2  1  1  0
  3  2  1  0
  3  4  1  0
  4  5  1  0
  5  6  1  1
  6 15  1  0
  6  7  2  0
  9  8  1  0
 10  9  2  0
 11 10  1  0
 12 18  1  0
 12 11  2  0
 14 13  1  1
 13 12  1  0
 14 16  1  0
 15 14  1  0
 16 17  2  0
 18 19  2  0
 19  9  1  0
 20 21  1  0
 21 23  1  0
 22 21  2  0
 24 23  1  1
 24 26  1  0
 25 16  1  0
 25 24  1  0
 26 28  1  0
 27 26  2  0
M  END
$$$$
