PYN.pdb
     RDKit          3D

 28 29  0  0  1  0  0  0  0  0999 V2000
   17.9492  -11.5420  -13.9468 N   0  0  0  0  0  0  0  0  0  0  0  0
   18.1332  -12.7867  -14.6353 C   0  0  0  0  0  0  0  0  0  0  0  0
   16.7295  -13.3549  -14.7891 C   0  0  0  0  0  0  0  0  0  0  0  0
   15.9070  -12.0954  -14.9688 C   0  0  0  0  0  0  0  0  0  0  0  0
   16.8516  -10.9428  -14.6666 C   0  0  1  0  0  0  0  0  0  0  0  0
   16.0832  -10.0001  -13.7770 C   0  0  0  0  0  0  0  0  0  0  0  0
   15.0612   -9.3995  -14.1967 O   0  0  0  0  0  0  0  0  0  0  0  0
   12.7213   -6.1457   -6.6211 O   0  0  0  0  0  0  0  0  0  0  0  0
   13.4665   -6.9257   -7.5111 C   0  0  0  0  0  0  0  0  0  0  0  0
   12.8454   -7.8594   -8.2854 C   0  0  0  0  0  0  0  0  0  0  0  0
   13.6386   -8.6086   -9.1550 C   0  0  0  0  0  0  0  0  0  0  0  0
   14.9999   -8.4308   -9.2467 C   0  0  0  0  0  0  0  0  0  0  0  0
   15.8048   -9.2343  -10.1522 C   0  0  0  0  0  0  0  0  0  0  0  0
   15.7557   -8.7854  -11.6086 C   0  0  2  0  0  0  0  0  0  0  0  0
   16.4747   -9.7524  -12.4426 N   0  0  0  0  0  0  0  0  0  0  0  0
   16.2856   -7.4270  -11.7751 C   0  0  0  0  0  0  0  0  0  0  0  0
   17.5279   -7.2559  -11.7671 O   0  0  0  0  0  0  0  0  0  0  0  0
   15.5936   -7.4802   -8.4509 C   0  0  0  0  0  0  0  0  0  0  0  0
   14.8120   -6.7251   -7.5779 C   0  0  0  0  0  0  0  0  0  0  0  0
   16.1183   -2.3232  -14.6929 N   0  0  0  0  0  0  0  0  0  0  0  0
   16.7158   -3.2512  -13.7616 C   0  0  0  0  0  0  0  0  0  0  0  0
   17.7331   -2.8970  -13.1390 O   0  0  0  0  0  0  0  0  0  0  0  0
   16.1253   -4.5768  -13.5653 C   0  0  0  0  0  0  0  0  0  0  0  0
   16.1107   -4.9672  -12.1257 C   0  0  2  0  0  0  0  0  0  0  0  0
   15.4754   -6.2773  -11.9487 N   0  0  0  0  0  0  0  0  0  0  0  0
   15.3807   -3.9673  -11.3256 C   0  0  0  0  0  0  0  0  0  0  0  0
   15.8450   -2.7727  -11.3341 O   0  0  0  0  0  0  0  0  0  0  0  0
   14.2597   -4.1615  -10.5698 O   0  0  0  0  0  0  0  0  0  0  0  0
  1  5  1  0
  2  1  1  0
  3  2  1  0
  3  4  1  0
  4  5  1  0
  5  6  1  1
  6 15  1  0
  6  7  2  0
  9  8  1  0
 10  9  2  0
 11 10  1  0
 12 18  1  0
 12 11  2  0
 14 13  1  1
 13 12  1  0
 14 16  1  0
 15 14  1  0
 16 17  2  0
 18 19  2  0
 19  9  1  0
 20 21  1  0
 21 23  1  0
 22 21  2  0
 24 23  1  6
 24 26  1  0
 25 16  1  0
 25 24  1  0
 26 28  1  0
 27 26  2  0
M  END
$$$$
