PYN.pdb
     RDKit          3D

 28 29  0  0  1  0  0  0  0  0999 V2000
   27.4245  -12.9347  -19.1684 N   0  0  0  0  0  0  0  0  0  0  0  0
   28.2968  -13.7146  -19.9978 C   0  0  0  0  0  0  0  0  0  0  0  0
   27.5348  -15.0074  -20.2525 C   0  0  0  0  0  0  0  0  0  0  0  0
   26.1027  -14.5152  -20.2980 C   0  0  0  0  0  0  0  0  0  0  0  0
   26.1524  -13.0673  -19.8363 C   0  0  1  0  0  0  0  0  0  0  0  0
   25.0181  -12.9057  -18.8577 C   0  0  0  0  0  0  0  0  0  0  0  0
   23.8319  -13.1562  -19.1918 O   0  0  0  0  0  0  0  0  0  0  0  0
   25.6633  -18.5109  -15.4402 O   0  0  0  0  0  0  0  0  0  0  0  0
   25.4199  -17.1349  -15.3835 C   0  0  0  0  0  0  0  0  0  0  0  0
   26.3791  -16.2910  -14.9094 C   0  0  0  0  0  0  0  0  0  0  0  0
   26.0812  -14.9284  -14.8757 C   0  0  0  0  0  0  0  0  0  0  0  0
   24.8711  -14.4292  -15.2997 C   0  0  0  0  0  0  0  0  0  0  0  0
   24.5819  -13.0057  -15.2416 C   0  0  0  0  0  0  0  0  0  0  0  0
   24.1365  -12.3968  -16.5668 C   0  0  2  0  0  0  0  0  0  0  0  0
   25.2367  -12.4693  -17.5321 N   0  0  0  0  0  0  0  0  0  0  0  0
   23.6552  -11.0210  -16.3963 C   0  0  0  0  0  0  0  0  0  0  0  0
   24.4931  -10.0911  -16.3174 O   0  0  0  0  0  0  0  0  0  0  0  0
   23.9265  -15.3090  -15.7720 C   0  0  0  0  0  0  0  0  0  0  0  0
   24.2119  -16.6729  -15.8108 C   0  0  0  0  0  0  0  0  0  0  0  0
   21.1868   -6.6091  -16.0587 N   0  0  0  0  0  0  0  0  0  0  0  0
   20.9519   -7.3134  -17.2973 C   0  0  0  0  0  0  0  0  0  0  0  0
   20.3896   -6.7089  -18.2280 O   0  0  0  0  0  0  0  0  0  0  0  0
   21.3725   -8.7090  -17.4394 C   0  0  0  0  0  0  0  0  0  0  0  0
   21.9139   -9.2555  -16.1614 C   0  0  2  0  0  0  0  0  0  0  0  0
   22.2856  -10.6661  -16.3152 N   0  0  0  0  0  0  0  0  0  0  0  0
   20.9154   -9.1367  -15.0835 C   0  0  0  0  0  0  0  0  0  0  0  0
   20.0865  -10.1062  -14.9571 O   0  0  0  0  0  0  0  0  0  0  0  0
   20.7652   -8.1097  -14.1957 O   0  0  0  0  0  0  0  0  0  0  0  0
  1  5  1  0
  2  1  1  0
  3  2  1  0
  3  4  1  0
  4  5  1  0
  5  6  1  1
  6 15  1  0
  6  7  2  0
  9  8  1  0
 10  9  2  0
 11 10  1  0
 12 18  1  0
 12 11  2  0
 14 13  1  1
 13 12  1  0
 14 16  1  0
 15 14  1  0
 16 17  2  0
 18 19  2  0
 19  9  1  0
 20 21  1  0
 21 23  1  0
 22 21  2  0
 24 23  1  6
 24 26  1  0
 25 16  1  0
 25 24  1  0
 26 28  1  0
 27 26  2  0
M  END
$$$$
