PYN.pdb
     RDKit          3D

 28 29  0  0  1  0  0  0  0  0999 V2000
   30.8625    2.9639   -1.9752 N   0  0  0  0  0  0  0  0  0  0  0  0
   31.9203    3.3614   -2.8587 C   0  0  0  0  0  0  0  0  0  0  0  0
   32.7099    4.3995   -2.0740 C   0  0  0  0  0  0  0  0  0  0  0  0
   32.5807    3.8769   -0.6579 C   0  0  0  0  0  0  0  0  0  0  0  0
   31.5557    2.7559   -0.7270 C   0  0  1  0  0  0  0  0  0  0  0  0
   30.6269    2.9718    0.4398 C   0  0  0  0  0  0  0  0  0  0  0  0
   31.0380    2.8708    1.6240 O   0  0  0  0  0  0  0  0  0  0  0  0
   24.0684    6.4734    5.1252 O   0  0  0  0  0  0  0  0  0  0  0  0
   24.8618    6.0179    4.0674 C   0  0  0  0  0  0  0  0  0  0  0  0
   24.3888    6.0644    2.7902 C   0  0  0  0  0  0  0  0  0  0  0  0
   25.2237    5.5966    1.7749 C   0  0  0  0  0  0  0  0  0  0  0  0
   26.4824    5.1016    2.0271 C   0  0  0  0  0  0  0  0  0  0  0  0
   27.3268    4.6082    0.9515 C   0  0  0  0  0  0  0  0  0  0  0  0
   28.4015    3.6209    1.3940 C   0  0  2  0  0  0  0  0  0  0  0  0
   29.2643    3.2950    0.2552 N   0  0  0  0  0  0  0  0  0  0  0  0
   27.8164    2.4156    1.9927 C   0  0  0  0  0  0  0  0  0  0  0  0
   27.1191    1.6596    1.2751 O   0  0  0  0  0  0  0  0  0  0  0  0
   26.9275    5.0692    3.3272 C   0  0  0  0  0  0  0  0  0  0  0  0
   26.1030    5.5338    4.3506 C   0  0  0  0  0  0  0  0  0  0  0  0
   27.4678   -2.3777    4.1282 N   0  0  0  0  0  0  0  0  0  0  0  0
   27.7377   -1.2869    5.0352 C   0  0  0  0  0  0  0  0  0  0  0  0
   27.4399   -1.4237    6.2354 O   0  0  0  0  0  0  0  0  0  0  0  0
   28.3491   -0.0527    4.5377 C   0  0  0  0  0  0  0  0  0  0  0  0
   27.3540    0.8169    3.8460 C   0  0  2  0  0  0  0  0  0  0  0  0
   27.9903    2.0412    3.3485 N   0  0  0  0  0  0  0  0  0  0  0  0
   26.2601    1.1829    4.7637 C   0  0  0  0  0  0  0  0  0  0  0  0
   25.1869    0.4865    4.6870 O   0  0  0  0  0  0  0  0  0  0  0  0
   26.2517    2.1831    5.6939 O   0  0  0  0  0  0  0  0  0  0  0  0
  1  5  1  0
  2  1  1  0
  3  2  1  0
  3  4  1  0
  4  5  1  0
  5  6  1  1
  6 15  1  0
  6  7  2  0
  9  8  1  0
 10  9  2  0
 11 10  1  0
 12 18  1  0
 12 11  2  0
 14 13  1  6
 13 12  1  0
 14 16  1  0
 15 14  1  0
 16 17  2  0
 18 19  2  0
 19  9  1  0
 20 21  1  0
 21 23  1  0
 22 21  2  0
 24 23  1  1
 24 26  1  0
 25 16  1  0
 25 24  1  0
 26 28  1  0
 27 26  2  0
M  END
$$$$
