PYN.pdb
     RDKit          3D

 28 29  0  0  1  0  0  0  0  0999 V2000
   24.5540   -8.9088  -20.8095 N   0  0  0  0  0  0  0  0  0  0  0  0
   25.5510   -9.1954  -21.8000 C   0  0  0  0  0  0  0  0  0  0  0  0
   26.8590   -8.7247  -21.1797 C   0  0  0  0  0  0  0  0  0  0  0  0
   26.6289   -9.0270  -19.7131 C   0  0  0  0  0  0  0  0  0  0  0  0
   25.1608   -9.4057  -19.5984 C   0  0  1  0  0  0  0  0  0  0  0  0
   24.6347   -8.6645  -18.3966 C   0  0  0  0  0  0  0  0  0  0  0  0
   24.9984   -8.9734  -17.2331 O   0  0  0  0  0  0  0  0  0  0  0  0
   20.3783   -2.3225  -13.8916 O   0  0  0  0  0  0  0  0  0  0  0  0
   21.0929   -3.0792  -14.8257 C   0  0  0  0  0  0  0  0  0  0  0  0
   20.6062   -3.2421  -16.0881 C   0  0  0  0  0  0  0  0  0  0  0  0
   21.3612   -4.0069  -16.9778 C   0  0  0  0  0  0  0  0  0  0  0  0
   22.5565   -4.5863  -16.6189 C   0  0  0  0  0  0  0  0  0  0  0  0
   23.3170   -5.3895  -17.5622 C   0  0  0  0  0  0  0  0  0  0  0  0
   23.2038   -6.8947  -17.3456 C   0  0  2  0  0  0  0  0  0  0  0  0
   23.7173   -7.5980  -18.5242 N   0  0  0  0  0  0  0  0  0  0  0  0
   21.8269   -7.2950  -17.0331 C   0  0  0  0  0  0  0  0  0  0  0  0
   21.0357   -7.5325  -17.9767 O   0  0  0  0  0  0  0  0  0  0  0  0
   23.0178   -4.4015  -15.3373 C   0  0  0  0  0  0  0  0  0  0  0  0
   22.2726   -3.6394  -14.4389 C   0  0  0  0  0  0  0  0  0  0  0  0
   17.4073   -8.8074  -15.0088 N   0  0  0  0  0  0  0  0  0  0  0  0
   18.4521   -9.7806  -15.2246 C   0  0  0  0  0  0  0  0  0  0  0  0
   18.1516  -10.9878  -15.2158 O   0  0  0  0  0  0  0  0  0  0  0  0
   19.8309   -9.3402  -15.4477 C   0  0  0  0  0  0  0  0  0  0  0  0
   19.9315   -7.8535  -15.5165 C   0  0  2  0  0  0  0  0  0  0  0  0
   21.3232   -7.4353  -15.7159 N   0  0  0  0  0  0  0  0  0  0  0  0
   19.4191   -7.2422  -14.2770 C   0  0  0  0  0  0  0  0  0  0  0  0
   20.2918   -6.7872  -13.4559 O   0  0  0  0  0  0  0  0  0  0  0  0
   18.1156   -7.1007  -13.8942 O   0  0  0  0  0  0  0  0  0  0  0  0
  1  5  1  0
  2  1  1  0
  3  2  1  0
  3  4  1  0
  4  5  1  0
  5  6  1  1
  6 15  1  0
  6  7  2  0
  9  8  1  0
 10  9  2  0
 11 10  1  0
 12 18  1  0
 12 11  2  0
 14 13  1  6
 13 12  1  0
 14 16  1  0
 15 14  1  0
 16 17  2  0
 18 19  2  0
 19  9  1  0
 20 21  1  0
 21 23  1  0
 22 21  2  0
 24 23  1  1
 24 26  1  0
 25 16  1  0
 25 24  1  0
 26 28  1  0
 27 26  2  0
M  END
$$$$
