PYN.pdb
     RDKit          3D

 28 29  0  0  1  0  0  0  0  0999 V2000
   24.7751  -11.7307  -15.7862 N   0  0  0  0  0  0  0  0  0  0  0  0
   25.4739  -12.9458  -16.0903 C   0  0  0  0  0  0  0  0  0  0  0  0
   24.6134  -13.6344  -17.1402 C   0  0  0  0  0  0  0  0  0  0  0  0
   24.0560  -12.4508  -17.9041 C   0  0  0  0  0  0  0  0  0  0  0  0
   24.4419  -11.2226  -17.0949 C   0  0  1  0  0  0  0  0  0  0  0  0
   23.2061  -10.3626  -17.0331 C   0  0  0  0  0  0  0  0  0  0  0  0
   22.6825   -9.9026  -18.0799 O   0  0  0  0  0  0  0  0  0  0  0  0
   18.0094  -14.3444  -17.8030 O   0  0  0  0  0  0  0  0  0  0  0  0
   18.5932  -13.2921  -17.0906 C   0  0  0  0  0  0  0  0  0  0  0  0
   19.5096  -13.5529  -16.1163 C   0  0  0  0  0  0  0  0  0  0  0  0
   20.0591  -12.4644  -15.4383 C   0  0  0  0  0  0  0  0  0  0  0  0
   19.7058  -11.1655  -15.7235 C   0  0  0  0  0  0  0  0  0  0  0  0
   20.2843  -10.0501  -14.9924 C   0  0  0  0  0  0  0  0  0  0  0  0
   21.3409   -9.2681  -15.7653 C   0  0  2  0  0  0  0  0  0  0  0  0
   22.5868  -10.0386  -15.8056 N   0  0  0  0  0  0  0  0  0  0  0  0
   21.5490   -7.9312  -15.1970 C   0  0  0  0  0  0  0  0  0  0  0  0
   22.2127   -7.8189  -14.1389 O   0  0  0  0  0  0  0  0  0  0  0  0
   18.7782  -10.9388  -16.7122 C   0  0  0  0  0  0  0  0  0  0  0  0
   18.2218  -12.0180  -17.3971 C   0  0  0  0  0  0  0  0  0  0  0  0
   22.8028   -3.0053  -14.4710 N   0  0  0  0  0  0  0  0  0  0  0  0
   21.9740   -3.1196  -15.6480 C   0  0  0  0  0  0  0  0  0  0  0  0
   21.5100   -2.0810  -16.1520 O   0  0  0  0  0  0  0  0  0  0  0  0
   21.6948   -4.4366  -16.2242 C   0  0  0  0  0  0  0  0  0  0  0  0
   21.3845   -5.4459  -15.1706 C   0  0  2  0  0  0  0  0  0  0  0  0
   21.0440   -6.7390  -15.7734 N   0  0  0  0  0  0  0  0  0  0  0  0
   20.2568   -4.9931  -14.3362 C   0  0  0  0  0  0  0  0  0  0  0  0
   19.1514   -5.6281  -14.4684 O   0  0  0  0  0  0  0  0  0  0  0  0
   20.2472   -3.9697  -13.4316 O   0  0  0  0  0  0  0  0  0  0  0  0
  1  5  1  0
  2  1  1  0
  3  2  1  0
  3  4  1  0
  4  5  1  0
  5  6  1  1
  6 15  1  0
  6  7  2  0
  9  8  1  0
 10  9  2  0
 11 10  1  0
 12 18  1  0
 12 11  2  0
 14 13  1  1
 13 12  1  0
 14 16  1  0
 15 14  1  0
 16 17  2  0
 18 19  2  0
 19  9  1  0
 20 21  1  0
 21 23  1  0
 22 21  2  0
 24 23  1  6
 24 26  1  0
 25 16  1  0
 25 24  1  0
 26 28  1  0
 27 26  2  0
M  END
$$$$
