PYN.pdb
     RDKit          3D

 28 29  0  0  1  0  0  0  0  0999 V2000
   27.8097  -20.6860  -16.8324 N   0  0  0  0  0  0  0  0  0  0  0  0
   28.8453  -20.8185  -17.8159 C   0  0  0  0  0  0  0  0  0  0  0  0
   29.8311  -21.8067  -17.2088 C   0  0  0  0  0  0  0  0  0  0  0  0
   28.9074  -22.7253  -16.4355 C   0  0  0  0  0  0  0  0  0  0  0  0
   27.5422  -22.0567  -16.4696 C   0  0  1  0  0  0  0  0  0  0  0  0
   27.0051  -22.1401  -15.0642 C   0  0  0  0  0  0  0  0  0  0  0  0
   26.2599  -23.0890  -14.7094 O   0  0  0  0  0  0  0  0  0  0  0  0
   25.8569  -20.1375   -6.4979 O   0  0  0  0  0  0  0  0  0  0  0  0
   26.3124  -20.2764   -7.8129 C   0  0  0  0  0  0  0  0  0  0  0  0
   25.4240  -20.2796   -8.8462 C   0  0  0  0  0  0  0  0  0  0  0  0
   25.9349  -20.4214  -10.1368 C   0  0  0  0  0  0  0  0  0  0  0  0
   27.2817  -20.5548  -10.3842 C   0  0  0  0  0  0  0  0  0  0  0  0
   27.7863  -20.7142  -11.7383 C   0  0  0  0  0  0  0  0  0  0  0  0
   26.7614  -21.2422  -12.7364 C   0  0  2  0  0  0  0  0  0  0  0  0
   27.3135  -21.1634  -14.0915 N   0  0  0  0  0  0  0  0  0  0  0  0
   25.4836  -20.5285  -12.6297 C   0  0  0  0  0  0  0  0  0  0  0  0
   25.4334  -19.3217  -12.9671 O   0  0  0  0  0  0  0  0  0  0  0  0
   28.1496  -20.5475   -9.3183 C   0  0  0  0  0  0  0  0  0  0  0  0
   27.6517  -20.4065   -8.0239 C   0  0  0  0  0  0  0  0  0  0  0  0
   19.8648  -21.5611  -13.9886 N   0  0  0  0  0  0  0  0  0  0  0  0
   21.0392  -20.7207  -13.9826 C   0  0  0  0  0  0  0  0  0  0  0  0
   20.9130  -19.5201  -14.2833 O   0  0  0  0  0  0  0  0  0  0  0  0
   22.3435  -21.2844  -13.6280 C   0  0  0  0  0  0  0  0  0  0  0  0
   22.9950  -20.5186  -12.5261 C   0  0  2  0  0  0  0  0  0  0  0  0
   24.2828  -21.1207  -12.1652 N   0  0  0  0  0  0  0  0  0  0  0  0
   22.1281  -20.4881  -11.3342 C   0  0  0  0  0  0  0  0  0  0  0  0
   22.5142  -21.1755  -10.3238 O   0  0  0  0  0  0  0  0  0  0  0  0
   20.9531  -19.8101  -11.1751 O   0  0  0  0  0  0  0  0  0  0  0  0
  1  5  1  0
  2  1  1  0
  3  2  1  0
  3  4  1  0
  4  5  1  0
  5  6  1  1
  6 15  1  0
  6  7  2  0
  9  8  1  0
 10  9  2  0
 11 10  1  0
 12 18  1  0
 12 11  2  0
 14 13  1  1
 13 12  1  0
 14 16  1  0
 15 14  1  0
 16 17  2  0
 18 19  2  0
 19  9  1  0
 20 21  1  0
 21 23  1  0
 22 21  2  0
 24 23  1  6
 24 26  1  0
 25 16  1  0
 25 24  1  0
 26 28  1  0
 27 26  2  0
M  END
$$$$
