PYN.pdb
     RDKit          3D

 28 29  0  0  1  0  0  0  0  0999 V2000
   28.1895  -20.8894  -18.1101 N   0  0  0  0  0  0  0  0  0  0  0  0
   29.3355  -20.7722  -18.9645 C   0  0  0  0  0  0  0  0  0  0  0  0
   30.4821  -21.3642  -18.1571 C   0  0  0  0  0  0  0  0  0  0  0  0
   29.7784  -22.4609  -17.3841 C   0  0  0  0  0  0  0  0  0  0  0  0
   28.2931  -22.2453  -17.6278 C   0  0  1  0  0  0  0  0  0  0  0  0
   27.6285  -22.3840  -16.2826 C   0  0  0  0  0  0  0  0  0  0  0  0
   27.6677  -23.4690  -15.6480 O   0  0  0  0  0  0  0  0  0  0  0  0
   24.0720  -20.5547   -8.4628 O   0  0  0  0  0  0  0  0  0  0  0  0
   24.6750  -20.4804   -9.7225 C   0  0  0  0  0  0  0  0  0  0  0  0
   23.9838  -19.9721  -10.7812 C   0  0  0  0  0  0  0  0  0  0  0  0
   24.6353  -19.9223  -12.0139 C   0  0  0  0  0  0  0  0  0  0  0  0
   25.9277  -20.3637  -12.1813 C   0  0  0  0  0  0  0  0  0  0  0  0
   26.5785  -20.3124  -13.4803 C   0  0  0  0  0  0  0  0  0  0  0  0
   26.2384  -21.4771  -14.4039 C   0  0  2  0  0  0  0  0  0  0  0  0
   26.9380  -21.3088  -15.6805 N   0  0  0  0  0  0  0  0  0  0  0  0
   24.7895  -21.6126  -14.5939 C   0  0  0  0  0  0  0  0  0  0  0  0
   24.2020  -20.8159  -15.3638 O   0  0  0  0  0  0  0  0  0  0  0  0
   26.5953  -20.8706  -11.0920 C   0  0  0  0  0  0  0  0  0  0  0  0
   25.9554  -20.9257   -9.8547 C   0  0  0  0  0  0  0  0  0  0  0  0
   23.7646  -26.1426  -14.8115 N   0  0  0  0  0  0  0  0  0  0  0  0
   23.0665  -24.9716  -15.2878 C   0  0  0  0  0  0  0  0  0  0  0  0
   23.2079  -24.6379  -16.4780 O   0  0  0  0  0  0  0  0  0  0  0  0
   22.2141  -24.2041  -14.3774 C   0  0  0  0  0  0  0  0  0  0  0  0
   22.5930  -22.7616  -14.3502 C   0  0  2  0  0  0  0  0  0  0  0  0
   23.9969  -22.6000  -13.9573 N   0  0  0  0  0  0  0  0  0  0  0  0
   21.7407  -22.0204  -13.4030 C   0  0  0  0  0  0  0  0  0  0  0  0
   20.4777  -22.0524  -13.6184 O   0  0  0  0  0  0  0  0  0  0  0  0
   22.1377  -21.2973  -12.3144 O   0  0  0  0  0  0  0  0  0  0  0  0
  1  5  1  0
  2  1  1  0
  3  2  1  0
  3  4  1  0
  4  5  1  0
  5  6  1  1
  6 15  1  0
  6  7  2  0
  9  8  1  0
 10  9  2  0
 11 10  1  0
 12 18  1  0
 12 11  2  0
 14 13  1  1
 13 12  1  0
 14 16  1  0
 15 14  1  0
 16 17  2  0
 18 19  2  0
 19  9  1  0
 20 21  1  0
 21 23  1  0
 22 21  2  0
 24 23  1  1
 24 26  1  0
 25 16  1  0
 25 24  1  0
 26 28  1  0
 27 26  2  0
M  END
$$$$
