PYN.pdb
     RDKit          3D

 28 29  0  0  1  0  0  0  0  0999 V2000
   32.6240  -35.6057   -5.1345 N   0  0  0  0  0  0  0  0  0  0  0  0
   32.5148  -35.8369   -6.5458 C   0  0  0  0  0  0  0  0  0  0  0  0
   33.9520  -35.9771   -7.0271 C   0  0  0  0  0  0  0  0  0  0  0  0
   34.6096  -36.6468   -5.8378 C   0  0  0  0  0  0  0  0  0  0  0  0
   33.5760  -36.6090   -4.7233 C   0  0  1  0  0  0  0  0  0  0  0  0
   34.3156  -36.1661   -3.4875 C   0  0  0  0  0  0  0  0  0  0  0  0
   35.1873  -36.8996   -2.9549 O   0  0  0  0  0  0  0  0  0  0  0  0
   38.2206  -31.0757    2.4799 O   0  0  0  0  0  0  0  0  0  0  0  0
   37.3914  -31.5380    1.4530 C   0  0  0  0  0  0  0  0  0  0  0  0
   36.0723  -31.1962    1.4347 C   0  0  0  0  0  0  0  0  0  0  0  0
   35.2927  -31.6861    0.3865 C   0  0  0  0  0  0  0  0  0  0  0  0
   35.8120  -32.4866   -0.6048 C   0  0  0  0  0  0  0  0  0  0  0  0
   34.9740  -32.9943   -1.6788 C   0  0  0  0  0  0  0  0  0  0  0  0
   34.7783  -34.5065   -1.6665 C   0  0  2  0  0  0  0  0  0  0  0  0
   34.0640  -34.9167   -2.8785 N   0  0  0  0  0  0  0  0  0  0  0  0
   34.0858  -34.9534   -0.4522 C   0  0  0  0  0  0  0  0  0  0  0  0
   32.8339  -34.8925   -0.4112 O   0  0  0  0  0  0  0  0  0  0  0  0
   37.1466  -32.8118   -0.5551 C   0  0  0  0  0  0  0  0  0  0  0  0
   37.9363  -32.3285    0.4870 C   0  0  0  0  0  0  0  0  0  0  0  0
   34.2739  -38.3623    4.6766 N   0  0  0  0  0  0  0  0  0  0  0  0
   33.7681  -37.3741    3.7529 C   0  0  0  0  0  0  0  0  0  0  0  0
   32.6357  -36.8987    3.9516 O   0  0  0  0  0  0  0  0  0  0  0  0
   34.5825  -36.9511    2.6117 C   0  0  0  0  0  0  0  0  0  0  0  0
   33.9625  -35.8055    1.8851 C   0  0  2  0  0  0  0  0  0  0  0  0
   34.7467  -35.4588    0.6950 N   0  0  0  0  0  0  0  0  0  0  0  0
   33.8727  -34.6240    2.7621 C   0  0  0  0  0  0  0  0  0  0  0  0
   34.8558  -33.8026    2.7238 O   0  0  0  0  0  0  0  0  0  0  0  0
   32.8600  -34.2961    3.6179 O   0  0  0  0  0  0  0  0  0  0  0  0
  1  5  1  0
  2  1  1  0
  3  2  1  0
  3  4  1  0
  4  5  1  0
  5  6  1  1
  6 15  1  0
  6  7  2  0
  9  8  1  0
 10  9  2  0
 11 10  1  0
 12 18  1  0
 12 11  2  0
 14 13  1  1
 13 12  1  0
 14 16  1  0
 15 14  1  0
 16 17  2  0
 18 19  2  0
 19  9  1  0
 20 21  1  0
 21 23  1  0
 22 21  2  0
 24 23  1  1
 24 26  1  0
 25 16  1  0
 25 24  1  0
 26 28  1  0
 27 26  2  0
M  END
$$$$
