ASK.pdb
     RDKit          3D

 21 20  0  0  1  0  0  0  0  0999 V2000
    7.9810  -16.2859   14.9025 C   0  0  0  0  0  0  0  0  0  0  0  0
    8.2086  -14.7763   14.9329 C   0  0  2  0  0  0  0  0  0  0  0  0
    9.0232  -14.4386   13.8010 N   0  0  0  0  0  0  0  0  0  0  0  0
    8.8768  -14.4791   16.2235 C   0  0  0  0  0  0  0  0  0  0  0  0
   10.1119  -14.6415   16.3031 O   0  0  0  0  0  0  0  0  0  0  0  0
    6.6504  -13.7945   19.6592 O   0  0  0  0  0  0  0  0  0  0  0  0
    7.7801  -13.0013   19.4780 C   0  0  0  0  0  0  0  0  0  0  0  0
    8.8147  -13.6724   18.6080 C   0  0  2  0  0  0  0  0  0  0  0  0
    8.1688  -14.0219   17.3580 N   0  0  0  0  0  0  0  0  0  0  0  0
    9.2429  -14.9218   19.3313 C   0  0  0  0  0  0  0  0  0  0  0  0
    8.7231  -16.0189   19.0314 O   0  0  0  0  0  0  0  0  0  0  0  0
   10.2212  -14.8446   20.3354 N   0  0  0  0  0  0  0  0  0  0  0  0
   10.7602  -16.1192   20.9711 C   0  0  1  0  0  0  0  0  0  0  0  0
   12.1476  -15.7385   21.3049 C   0  0  0  0  0  0  0  0  0  0  0  0
   13.1078  -16.5973   21.9641 C   0  0  0  0  0  0  0  0  0  0  0  0
   14.3511  -16.9149   21.2098 C   0  0  0  0  0  0  0  0  0  0  0  0
   15.2526  -17.8581   22.0431 C   0  0  0  0  0  0  0  0  0  0  0  0
   16.3730  -18.2410   21.2256 N   0  0  0  0  0  0  0  0  0  0  0  0
    9.8117  -16.3323   22.0786 C   0  0  0  0  0  0  0  0  0  0  0  0
    9.1062  -15.3350   22.4672 O   0  0  0  0  0  0  0  0  0  0  0  0
    9.5636  -17.4873   22.7720 O   0  0  0  0  0  0  0  0  0  0  0  0
  2  1  1  1
  2  4  1  0
  3  2  1  0
  4  5  2  0
  8  7  1  1
  7  6  1  0
  8 10  1  0
  9  4  1  0
  9  8  1  0
 10 11  2  0
 12 10  1  0
 12 13  1  0
 13 19  1  0
 14 15  1  0
 13 14  1  1
 16 15  1  0
 17 18  1  0
 17 16  1  0
 19 21  1  0
 20 19  2  0
M  END
$$$$
