ASK.pdb
     RDKit          3D

 21 20  0  0  1  0  0  0  0  0999 V2000
    5.6901  -18.6736   19.1132 C   0  0  0  0  0  0  0  0  0  0  0  0
    5.2471  -18.4658   20.5597 C   0  0  2  0  0  0  0  0  0  0  0  0
    4.1430  -17.5496   20.5468 N   0  0  0  0  0  0  0  0  0  0  0  0
    6.4240  -17.9282   21.2852 C   0  0  0  0  0  0  0  0  0  0  0  0
    7.4386  -18.6485   21.3859 O   0  0  0  0  0  0  0  0  0  0  0  0
    6.2294  -14.1417   23.0059 O   0  0  0  0  0  0  0  0  0  0  0  0
    7.4788  -14.6438   22.6520 C   0  0  0  0  0  0  0  0  0  0  0  0
    7.5202  -16.1519   22.6936 C   0  0  2  0  0  0  0  0  0  0  0  0
    6.4366  -16.6381   21.8622 N   0  0  0  0  0  0  0  0  0  0  0  0
    7.2865  -16.5512   24.1266 C   0  0  0  0  0  0  0  0  0  0  0  0
    6.1248  -16.5423   24.5895 O   0  0  0  0  0  0  0  0  0  0  0  0
    8.3737  -16.9298   24.9303 N   0  0  0  0  0  0  0  0  0  0  0  0
    8.1352  -17.4025   26.3582 C   0  0  1  0  0  0  0  0  0  0  0  0
    7.5867  -18.7580   26.1504 C   0  0  0  0  0  0  0  0  0  0  0  0
    7.2569  -19.6904   27.2067 C   0  0  0  0  0  0  0  0  0  0  0  0
    6.7075  -21.0092   26.7888 C   0  0  0  0  0  0  0  0  0  0  0  0
    6.4981  -21.9147   28.0269 C   0  0  0  0  0  0  0  0  0  0  0  0
    6.0084  -23.1881   27.5699 N   0  0  0  0  0  0  0  0  0  0  0  0
    9.4796  -17.2790   26.9488 C   0  0  0  0  0  0  0  0  0  0  0  0
    9.6072  -17.4966   28.2057 O   0  0  0  0  0  0  0  0  0  0  0  0
   10.6550  -16.9596   26.3220 O   0  0  0  0  0  0  0  0  0  0  0  0
  2  1  1  6
  2  4  1  0
  3  2  1  0
  4  5  2  0
  8  7  1  1
  7  6  1  0
  8 10  1  0
  9  4  1  0
  9  8  1  0
 10 11  2  0
 12 10  1  0
 12 13  1  0
 13 19  1  0
 14 15  1  0
 13 14  1  6
 16 15  1  0
 17 18  1  0
 17 16  1  0
 19 21  1  0
 20 19  2  0
M  END
$$$$
