ASK.pdb
     RDKit          3D

 21 20  0  0  1  0  0  0  0  0999 V2000
    7.5017  -12.1870   19.1510 C   0  0  0  0  0  0  0  0  0  0  0  0
    8.6063  -13.2410   19.1248 C   0  0  2  0  0  0  0  0  0  0  0  0
    8.3997  -14.0555   17.9617 N   0  0  0  0  0  0  0  0  0  0  0  0
    8.4817  -14.0100   20.3871 C   0  0  0  0  0  0  0  0  0  0  0  0
    8.5788  -13.3944   21.4687 O   0  0  0  0  0  0  0  0  0  0  0  0
    8.8101  -18.1801   20.6203 O   0  0  0  0  0  0  0  0  0  0  0  0
    7.7123  -17.5771   21.2282 C   0  0  0  0  0  0  0  0  0  0  0  0
    7.9933  -16.1481   21.6243 C   0  0  2  0  0  0  0  0  0  0  0  0
    8.2583  -15.4055   20.4078 N   0  0  0  0  0  0  0  0  0  0  0  0
    9.2260  -16.1738   22.4889 C   0  0  0  0  0  0  0  0  0  0  0  0
   10.3487  -15.9873   21.9707 O   0  0  0  0  0  0  0  0  0  0  0  0
    9.1046  -16.4066   23.8681 N   0  0  0  0  0  0  0  0  0  0  0  0
   10.3317  -16.3147   24.7654 C   0  0  1  0  0  0  0  0  0  0  0  0
    9.7918  -15.6414   25.9639 C   0  0  0  0  0  0  0  0  0  0  0  0
   10.5254  -15.4176   27.1910 C   0  0  0  0  0  0  0  0  0  0  0  0
    9.7904  -14.7472   28.2982 C   0  0  0  0  0  0  0  0  0  0  0  0
   10.7380  -14.5111   29.4995 C   0  0  0  0  0  0  0  0  0  0  0  0
   10.0067  -13.7933   30.5095 N   0  0  0  0  0  0  0  0  0  0  0  0
   10.7306  -17.7285   24.8821 C   0  0  0  0  0  0  0  0  0  0  0  0
    9.8286  -18.6242   24.7156 O   0  0  0  0  0  0  0  0  0  0  0  0
   11.9737  -18.2397   25.1465 O   0  0  0  0  0  0  0  0  0  0  0  0
  2  1  1  1
  2  4  1  0
  3  2  1  0
  4  5  2  0
  8  7  1  6
  7  6  1  0
  8 10  1  0
  9  4  1  0
  9  8  1  0
 10 11  2  0
 12 10  1  0
 12 13  1  0
 13 19  1  0
 14 15  1  0
 13 14  1  1
 16 15  1  0
 17 18  1  0
 17 16  1  0
 19 21  1  0
 20 19  2  0
M  END
$$$$
