ASK.pdb
     RDKit          3D

 21 20  0  0  1  0  0  0  0  0999 V2000
    8.7143  -12.2991   19.1212 C   0  0  0  0  0  0  0  0  0  0  0  0
    8.7012  -13.7409   18.6185 C   0  0  2  0  0  0  0  0  0  0  0  0
    7.7482  -13.8176   17.5486 N   0  0  0  0  0  0  0  0  0  0  0  0
    8.3237  -14.5855   19.7781 C   0  0  0  0  0  0  0  0  0  0  0  0
    7.1117  -14.7995   19.9865 O   0  0  0  0  0  0  0  0  0  0  0  0
   11.0986  -17.1525   21.2375 O   0  0  0  0  0  0  0  0  0  0  0  0
    9.7305  -17.3938   21.3287 C   0  0  0  0  0  0  0  0  0  0  0  0
    8.9511  -16.1430   21.6545 C   0  0  2  0  0  0  0  0  0  0  0  0
    9.2817  -15.1524   20.6490 N   0  0  0  0  0  0  0  0  0  0  0  0
    9.4240  -15.6793   23.0069 C   0  0  0  0  0  0  0  0  0  0  0  0
   10.5507  -15.1484   23.1194 O   0  0  0  0  0  0  0  0  0  0  0  0
    8.5970  -15.8466   24.1290 N   0  0  0  0  0  0  0  0  0  0  0  0
    9.0889  -15.4214   25.5061 C   0  0  1  0  0  0  0  0  0  0  0  0
    7.8999  -14.7493   26.0681 C   0  0  0  0  0  0  0  0  0  0  0  0
    7.7122  -13.3162   26.1375 C   0  0  0  0  0  0  0  0  0  0  0  0
    6.4201  -12.8361   26.6994 C   0  0  0  0  0  0  0  0  0  0  0  0
    6.3778  -11.2886   26.6893 C   0  0  0  0  0  0  0  0  0  0  0  0
    5.1180  -10.8737   27.2469 N   0  0  0  0  0  0  0  0  0  0  0  0
    9.5030  -16.7082   26.0927 C   0  0  0  0  0  0  0  0  0  0  0  0
   10.2783  -16.6828   27.1134 O   0  0  0  0  0  0  0  0  0  0  0  0
    9.1599  -17.9723   25.6918 O   0  0  0  0  0  0  0  0  0  0  0  0
  2  1  1  1
  2  4  1  0
  3  2  1  0
  4  5  2  0
  8  7  1  6
  7  6  1  0
  8 10  1  0
  9  4  1  0
  9  8  1  0
 10 11  2  0
 12 10  1  0
 12 13  1  0
 13 19  1  0
 14 15  1  0
 13 14  1  1
 16 15  1  0
 17 18  1  0
 17 16  1  0
 19 21  1  0
 20 19  2  0
M  END
$$$$
