ASK.pdb
     RDKit          3D

 21 20  0  0  1  0  0  0  0  0999 V2000
    7.9313  -12.4492   18.4687 C   0  0  0  0  0  0  0  0  0  0  0  0
    8.3525  -13.9057   18.6500 C   0  0  2  0  0  0  0  0  0  0  0  0
    7.1590  -14.6827   18.8249 N   0  0  0  0  0  0  0  0  0  0  0  0
    9.2344  -13.9415   19.8422 C   0  0  0  0  0  0  0  0  0  0  0  0
   10.3458  -13.3771   19.7751 O   0  0  0  0  0  0  0  0  0  0  0  0
    8.0839  -16.0477   23.2750 O   0  0  0  0  0  0  0  0  0  0  0  0
    8.7826  -14.8512   23.4118 C   0  0  0  0  0  0  0  0  0  0  0  0
    9.6882  -14.5817   22.2349 C   0  0  2  0  0  0  0  0  0  0  0  0
    8.8629  -14.5878   21.0430 N   0  0  0  0  0  0  0  0  0  0  0  0
   10.6761  -15.7170   22.1810 C   0  0  0  0  0  0  0  0  0  0  0  0
   10.3513  -16.7939   21.6345 O   0  0  0  0  0  0  0  0  0  0  0  0
   11.9522  -15.5570   22.7441 N   0  0  0  0  0  0  0  0  0  0  0  0
   12.9915  -16.6604   22.5973 C   0  0  1  0  0  0  0  0  0  0  0  0
   14.2479  -15.8921   22.4842 C   0  0  0  0  0  0  0  0  0  0  0  0
   14.8638  -15.4878   21.2388 C   0  0  0  0  0  0  0  0  0  0  0  0
   14.1734  -14.4193   20.4659 C   0  0  0  0  0  0  0  0  0  0  0  0
   14.9345  -14.1403   19.1470 C   0  0  0  0  0  0  0  0  0  0  0  0
   14.1361  -14.6374   18.0581 N   0  0  0  0  0  0  0  0  0  0  0  0
   12.7688  -17.4536   23.8191 C   0  0  0  0  0  0  0  0  0  0  0  0
   12.1200  -16.9082   24.7809 O   0  0  0  0  0  0  0  0  0  0  0  0
   13.1653  -18.7386   24.0797 O   0  0  0  0  0  0  0  0  0  0  0  0
  2  1  1  1
  2  4  1  0
  3  2  1  0
  4  5  2  0
  8  7  1  1
  7  6  1  0
  8 10  1  0
  9  4  1  0
  9  8  1  0
 10 11  2  0
 12 10  1  0
 12 13  1  0
 13 19  1  0
 14 15  1  0
 13 14  1  1
 16 15  1  0
 17 18  1  0
 17 16  1  0
 19 21  1  0
 20 19  2  0
M  END
$$$$
