ASK.pdb
     RDKit          3D

 21 20  0  0  1  0  0  0  0  0999 V2000
    8.4428  -19.4828   18.4536 C   0  0  0  0  0  0  0  0  0  0  0  0
    8.3357  -18.0449   17.9508 C   0  0  2  0  0  0  0  0  0  0  0  0
    9.0897  -17.9549   16.7334 N   0  0  0  0  0  0  0  0  0  0  0  0
    8.8857  -17.1831   19.0256 C   0  0  0  0  0  0  0  0  0  0  0  0
   10.1257  -17.0991   19.1423 O   0  0  0  0  0  0  0  0  0  0  0  0
    6.4554  -15.6974   22.0072 O   0  0  0  0  0  0  0  0  0  0  0  0
    7.3951  -14.8045   21.4991 C   0  0  0  0  0  0  0  0  0  0  0  0
    8.5780  -15.5108   20.8828 C   0  0  2  0  0  0  0  0  0  0  0  0
    8.0607  -16.4590   19.9158 N   0  0  0  0  0  0  0  0  0  0  0  0
    9.2734  -16.2439   21.9992 C   0  0  0  0  0  0  0  0  0  0  0  0
    8.9233  -17.4098   22.2857 O   0  0  0  0  0  0  0  0  0  0  0  0
   10.3078  -15.6131   22.7086 N   0  0  0  0  0  0  0  0  0  0  0  0
   11.0520  -16.3697   23.8007 C   0  0  1  0  0  0  0  0  0  0  0  0
   12.3742  -15.7116   23.7905 C   0  0  0  0  0  0  0  0  0  0  0  0
   13.5630  -16.2280   24.4340 C   0  0  0  0  0  0  0  0  0  0  0  0
   14.3692  -17.2121   23.6613 C   0  0  0  0  0  0  0  0  0  0  0  0
   15.5289  -17.7515   24.5335 C   0  0  0  0  0  0  0  0  0  0  0  0
   16.2981  -18.6683   23.7348 N   0  0  0  0  0  0  0  0  0  0  0  0
   10.1783  -16.1575   24.9683 C   0  0  0  0  0  0  0  0  0  0  0  0
   10.3502  -16.9082   25.9931 O   0  0  0  0  0  0  0  0  0  0  0  0
    9.1771  -15.2352   25.1215 O   0  0  0  0  0  0  0  0  0  0  0  0
  2  1  1  1
  2  4  1  0
  3  2  1  0
  4  5  2  0
  8  7  1  1
  7  6  1  0
  8 10  1  0
  9  4  1  0
  9  8  1  0
 10 11  2  0
 12 10  1  0
 12 13  1  0
 13 19  1  0
 14 15  1  0
 13 14  1  1
 16 15  1  0
 17 18  1  0
 17 16  1  0
 19 21  1  0
 20 19  2  0
M  END
$$$$
