ASK.pdb
     RDKit          3D

 21 20  0  0  1  0  0  0  0  0999 V2000
    2.2502  -19.7090   19.6546 C   0  0  0  0  0  0  0  0  0  0  0  0
    2.5708  -19.5882   21.1427 C   0  0  2  0  0  0  0  0  0  0  0  0
    1.8620  -18.4470   21.6468 N   0  0  0  0  0  0  0  0  0  0  0  0
    4.0427  -19.4336   21.2430 C   0  0  0  0  0  0  0  0  0  0  0  0
    4.7673  -20.3302   20.7641 O   0  0  0  0  0  0  0  0  0  0  0  0
    5.3027  -15.9390   21.6451 O   0  0  0  0  0  0  0  0  0  0  0  0
    6.4325  -16.7317   21.8282 C   0  0  0  0  0  0  0  0  0  0  0  0
    6.0823  -18.1855   22.0321 C   0  0  2  0  0  0  0  0  0  0  0  0
    4.6489  -18.3145   21.8574 N   0  0  0  0  0  0  0  0  0  0  0  0
    6.4594  -18.5261   23.4496 C   0  0  0  0  0  0  0  0  0  0  0  0
    5.7489  -18.1168   24.3938 O   0  0  0  0  0  0  0  0  0  0  0  0
    7.6043  -19.2995   23.6991 N   0  0  0  0  0  0  0  0  0  0  0  0
    7.9530  -19.7030   25.1256 C   0  0  1  0  0  0  0  0  0  0  0  0
    7.6606  -21.1507   25.1204 C   0  0  0  0  0  0  0  0  0  0  0  0
    6.4118  -21.7464   25.5441 C   0  0  0  0  0  0  0  0  0  0  0  0
    6.3027  -23.2265   25.4295 C   0  0  0  0  0  0  0  0  0  0  0  0
    4.9319  -23.7022   25.9691 C   0  0  0  0  0  0  0  0  0  0  0  0
    4.8625  -25.1307   25.8119 N   0  0  0  0  0  0  0  0  0  0  0  0
    9.3602  -19.2778   25.2274 C   0  0  0  0  0  0  0  0  0  0  0  0
    9.9315  -19.3566   26.3723 O   0  0  0  0  0  0  0  0  0  0  0  0
   10.1752  -18.7992   24.2358 O   0  0  0  0  0  0  0  0  0  0  0  0
  2  1  1  6
  2  4  1  0
  3  2  1  0
  4  5  2  0
  8  7  1  1
  7  6  1  0
  8 10  1  0
  9  4  1  0
  9  8  1  0
 10 11  2  0
 12 10  1  0
 12 13  1  0
 13 19  1  0
 14 15  1  0
 13 14  1  6
 16 15  1  0
 17 18  1  0
 17 16  1  0
 19 21  1  0
 20 19  2  0
M  END
$$$$
