ASK.pdb
     RDKit          3D

 21 20  0  0  1  0  0  0  0  0999 V2000
    7.7182  -16.7015   15.4795 C   0  0  0  0  0  0  0  0  0  0  0  0
    8.3842  -15.3360   15.3270 C   0  0  2  0  0  0  0  0  0  0  0  0
    9.3689  -15.4482   14.2894 N   0  0  0  0  0  0  0  0  0  0  0  0
    8.9817  -15.0116   16.6454 C   0  0  0  0  0  0  0  0  0  0  0  0
   10.1294  -15.4335   16.8965 O   0  0  0  0  0  0  0  0  0  0  0  0
    6.6524  -13.3253   19.5935 O   0  0  0  0  0  0  0  0  0  0  0  0
    7.9702  -12.8787   19.5452 C   0  0  0  0  0  0  0  0  0  0  0  0
    8.8895  -13.8835   18.8948 C   0  0  2  0  0  0  0  0  0  0  0  0
    8.3017  -14.2470   17.6203 N   0  0  0  0  0  0  0  0  0  0  0  0
    8.9290  -15.0841   19.8028 C   0  0  0  0  0  0  0  0  0  0  0  0
    8.1315  -16.0287   19.6141 O   0  0  0  0  0  0  0  0  0  0  0  0
    9.8599  -15.1330   20.8527 N   0  0  0  0  0  0  0  0  0  0  0  0
    9.9118  -16.3501   21.7665 C   0  0  1  0  0  0  0  0  0  0  0  0
   11.2462  -16.9081   21.4672 C   0  0  0  0  0  0  0  0  0  0  0  0
   11.6644  -18.2618   21.7614 C   0  0  0  0  0  0  0  0  0  0  0  0
   13.0647  -18.6221   21.4079 C   0  0  0  0  0  0  0  0  0  0  0  0
   13.3409  -20.1017   21.7701 C   0  0  0  0  0  0  0  0  0  0  0  0
   14.7362  -20.3644   21.5371 N   0  0  0  0  0  0  0  0  0  0  0  0
    9.6920  -15.7455   23.0923 C   0  0  0  0  0  0  0  0  0  0  0  0
    9.8047  -14.4730   23.1998 O   0  0  0  0  0  0  0  0  0  0  0  0
    9.3668  -16.3718   24.2664 O   0  0  0  0  0  0  0  0  0  0  0  0
  2  1  1  1
  2  4  1  0
  3  2  1  0
  4  5  2  0
  8  7  1  1
  7  6  1  0
  8 10  1  0
  9  4  1  0
  9  8  1  0
 10 11  2  0
 12 10  1  0
 12 13  1  0
 13 19  1  0
 14 15  1  0
 13 14  1  1
 16 15  1  0
 17 18  1  0
 17 16  1  0
 19 21  1  0
 20 19  2  0
M  END
$$$$
