ASK.pdb
     RDKit          3D

 21 20  0  0  1  0  0  0  0  0999 V2000
   10.2497  -20.2027   18.7162 C   0  0  0  0  0  0  0  0  0  0  0  0
   10.4386  -18.7007   18.5163 C   0  0  2  0  0  0  0  0  0  0  0  0
   11.2119  -18.5169   17.3218 N   0  0  0  0  0  0  0  0  0  0  0  0
   11.1350  -18.2012   19.7272 C   0  0  0  0  0  0  0  0  0  0  0  0
   12.3604  -18.4124   19.8362 O   0  0  0  0  0  0  0  0  0  0  0  0
    8.9356  -16.4266   22.7732 O   0  0  0  0  0  0  0  0  0  0  0  0
   10.2461  -15.9934   22.5904 C   0  0  0  0  0  0  0  0  0  0  0  0
   11.1177  -17.0584   21.9709 C   0  0  2  0  0  0  0  0  0  0  0  0
   10.4641  -17.4996   20.7544 N   0  0  0  0  0  0  0  0  0  0  0  0
   11.1824  -18.1927   22.9592 C   0  0  0  0  0  0  0  0  0  0  0  0
   10.2832  -19.0619   22.9626 O   0  0  0  0  0  0  0  0  0  0  0  0
   12.2504  -18.2650   23.8676 N   0  0  0  0  0  0  0  0  0  0  0  0
   12.4109  -19.4913   24.7562 C   0  0  1  0  0  0  0  0  0  0  0  0
   13.8131  -19.8793   24.5018 C   0  0  0  0  0  0  0  0  0  0  0  0
   14.2311  -21.1112   23.8681 C   0  0  0  0  0  0  0  0  0  0  0  0
   15.6893  -21.2749   23.6182 C   0  0  0  0  0  0  0  0  0  0  0  0
   15.9526  -22.5918   22.8482 C   0  0  0  0  0  0  0  0  0  0  0  0
   17.3667  -22.6882   22.6007 N   0  0  0  0  0  0  0  0  0  0  0  0
   12.0683  -18.9524   26.0843 C   0  0  0  0  0  0  0  0  0  0  0  0
   12.0681  -17.6794   26.2356 O   0  0  0  0  0  0  0  0  0  0  0  0
   11.7320  -19.6430   27.2185 O   0  0  0  0  0  0  0  0  0  0  0  0
  2  1  1  1
  2  4  1  0
  3  2  1  0
  4  5  2  0
  8  7  1  1
  7  6  1  0
  8 10  1  0
  9  4  1  0
  9  8  1  0
 10 11  2  0
 12 10  1  0
 12 13  1  0
 13 19  1  0
 14 15  1  0
 13 14  1  1
 16 15  1  0
 17 18  1  0
 17 16  1  0
 19 21  1  0
 20 19  2  0
M  END
$$$$
