ASK.pdb
     RDKit          3D

 21 20  0  0  1  0  0  0  0  0999 V2000
    8.6160  -12.3649   18.7250 C   0  0  0  0  0  0  0  0  0  0  0  0
    8.7496  -13.8162   18.2692 C   0  0  2  0  0  0  0  0  0  0  0  0
    7.8219  -14.0190   17.1935 N   0  0  0  0  0  0  0  0  0  0  0  0
    8.4419  -14.6569   19.4519 C   0  0  0  0  0  0  0  0  0  0  0  0
    7.2507  -14.7644   19.8095 O   0  0  0  0  0  0  0  0  0  0  0  0
   11.4157  -17.0594   21.1799 O   0  0  0  0  0  0  0  0  0  0  0  0
   10.0746  -17.4303   21.1318 C   0  0  0  0  0  0  0  0  0  0  0  0
    9.1499  -16.2458   21.2725 C   0  0  2  0  0  0  0  0  0  0  0  0
    9.4431  -15.3355   20.1830 N   0  0  0  0  0  0  0  0  0  0  0  0
    9.4800  -15.5938   22.5891 C   0  0  0  0  0  0  0  0  0  0  0  0
   10.4456  -14.8026   22.6624 O   0  0  0  0  0  0  0  0  0  0  0  0
    8.7018  -15.8794   23.7222 N   0  0  0  0  0  0  0  0  0  0  0  0
    9.0401  -15.2335   25.0592 C   0  0  1  0  0  0  0  0  0  0  0  0
    7.7667  -14.5780   25.4199 C   0  0  0  0  0  0  0  0  0  0  0  0
    7.6516  -13.2927   26.0747 C   0  0  0  0  0  0  0  0  0  0  0  0
    6.2754  -12.8258   26.3968 C   0  0  0  0  0  0  0  0  0  0  0  0
    6.3283  -11.4205   27.0440 C   0  0  0  0  0  0  0  0  0  0  0  0
    4.9824  -11.0278   27.3672 N   0  0  0  0  0  0  0  0  0  0  0  0
    9.4757  -16.3936   25.8567 C   0  0  0  0  0  0  0  0  0  0  0  0
    9.2097  -17.5654   25.4098 O   0  0  0  0  0  0  0  0  0  0  0  0
   10.1539  -16.3978   27.0469 O   0  0  0  0  0  0  0  0  0  0  0  0
  2  1  1  1
  2  4  1  0
  3  2  1  0
  4  5  2  0
  8  7  1  6
  7  6  1  0
  8 10  1  0
  9  4  1  0
  9  8  1  0
 10 11  2  0
 12 10  1  0
 12 13  1  0
 13 19  1  0
 14 15  1  0
 13 14  1  1
 16 15  1  0
 17 18  1  0
 17 16  1  0
 19 21  1  0
 20 19  2  0
M  END
$$$$
