ASK.pdb
     RDKit          3D

 21 20  0  0  1  0  0  0  0  0999 V2000
    7.4759  -12.6793   20.4412 C   0  0  0  0  0  0  0  0  0  0  0  0
    8.4824  -13.4285   19.5710 C   0  0  2  0  0  0  0  0  0  0  0  0
    7.9239  -13.5302   18.2533 N   0  0  0  0  0  0  0  0  0  0  0  0
    8.6826  -14.7532   20.2078 C   0  0  0  0  0  0  0  0  0  0  0  0
    7.9259  -15.6899   19.8788 O   0  0  0  0  0  0  0  0  0  0  0  0
   11.5067  -15.4845   23.3752 O   0  0  0  0  0  0  0  0  0  0  0  0
   11.4114  -16.2619   22.2241 C   0  0  0  0  0  0  0  0  0  0  0  0
   10.0033  -16.3091   21.6828 C   0  0  2  0  0  0  0  0  0  0  0  0
    9.6930  -14.9902   21.1672 N   0  0  0  0  0  0  0  0  0  0  0  0
    9.1034  -16.6301   22.8467 C   0  0  0  0  0  0  0  0  0  0  0  0
    8.5675  -15.7004   23.4887 O   0  0  0  0  0  0  0  0  0  0  0  0
    8.8737  -17.9691   23.2009 N   0  0  0  0  0  0  0  0  0  0  0  0
    7.9311  -18.3004   24.3502 C   0  0  1  0  0  0  0  0  0  0  0  0
    7.2339  -19.5006   23.8455 C   0  0  0  0  0  0  0  0  0  0  0  0
    6.3031  -20.3024   24.6102 C   0  0  0  0  0  0  0  0  0  0  0  0
    5.8163  -21.5556   23.9713 C   0  0  0  0  0  0  0  0  0  0  0  0
    4.9513  -22.3611   24.9711 C   0  0  0  0  0  0  0  0  0  0  0  0
    4.5772  -23.5989   24.3402 N   0  0  0  0  0  0  0  0  0  0  0  0
    8.8680  -18.4620   25.4761 C   0  0  0  0  0  0  0  0  0  0  0  0
   10.1051  -18.6619   25.2058 O   0  0  0  0  0  0  0  0  0  0  0  0
    8.5959  -18.4214   26.8180 O   0  0  0  0  0  0  0  0  0  0  0  0
  2  1  1  1
  2  4  1  0
  3  2  1  0
  4  5  2  0
  8  7  1  1
  7  6  1  0
  8 10  1  0
  9  4  1  0
  9  8  1  0
 10 11  2  0
 12 10  1  0
 12 13  1  0
 13 19  1  0
 14 15  1  0
 13 14  1  6
 16 15  1  0
 17 18  1  0
 17 16  1  0
 19 21  1  0
 20 19  2  0
M  END
$$$$
