ASK.pdb
     RDKit          3D

 21 20  0  0  1  0  0  0  0  0999 V2000
    8.5688  -19.1669   17.7416 C   0  0  0  0  0  0  0  0  0  0  0  0
    7.8503  -17.8196   17.7276 C   0  0  2  0  0  0  0  0  0  0  0  0
    7.9750  -17.2764   16.4054 N   0  0  0  0  0  0  0  0  0  0  0  0
    8.5157  -16.9792   18.7529 C   0  0  0  0  0  0  0  0  0  0  0  0
    9.7608  -16.8921   18.7316 O   0  0  0  0  0  0  0  0  0  0  0  0
    6.4031  -15.6500   22.0373 O   0  0  0  0  0  0  0  0  0  0  0  0
    7.3336  -14.7528   21.5200 C   0  0  0  0  0  0  0  0  0  0  0  0
    8.4298  -15.4484   20.7504 C   0  0  2  0  0  0  0  0  0  0  0  0
    7.7944  -16.2786   19.7460 N   0  0  0  0  0  0  0  0  0  0  0  0
    9.1695  -16.3123   21.7374 C   0  0  0  0  0  0  0  0  0  0  0  0
    8.7911  -17.4877   21.9356 O   0  0  0  0  0  0  0  0  0  0  0  0
   10.2766  -15.7916   22.4261 N   0  0  0  0  0  0  0  0  0  0  0  0
   11.1093  -16.6983   23.3225 C   0  0  1  0  0  0  0  0  0  0  0  0
   12.4525  -16.0935   23.2163 C   0  0  0  0  0  0  0  0  0  0  0  0
   13.6970  -16.7866   23.4706 C   0  0  0  0  0  0  0  0  0  0  0  0
   14.9506  -16.0126   23.2580 C   0  0  0  0  0  0  0  0  0  0  0  0
   16.1825  -16.9207   23.4909 C   0  0  0  0  0  0  0  0  0  0  0  0
   17.3608  -16.1702   23.1465 N   0  0  0  0  0  0  0  0  0  0  0  0
   10.3982  -16.5919   24.6088 C   0  0  0  0  0  0  0  0  0  0  0  0
   10.7808  -17.3461   25.5723 O   0  0  0  0  0  0  0  0  0  0  0  0
    9.3536  -15.7678   24.9344 O   0  0  0  0  0  0  0  0  0  0  0  0
  2  1  1  6
  2  4  1  0
  3  2  1  0
  4  5  2  0
  8  7  1  1
  7  6  1  0
  8 10  1  0
  9  4  1  0
  9  8  1  0
 10 11  2  0
 12 10  1  0
 12 13  1  0
 13 19  1  0
 14 15  1  0
 13 14  1  1
 16 15  1  0
 17 18  1  0
 17 16  1  0
 19 21  1  0
 20 19  2  0
M  END
$$$$
