HQL.pdb
     RDKit          3D

 28 28  0  0  1  0  0  0  0  0999 V2000
    7.2908  -16.8451   19.7471 N   0  0  0  0  0  0  0  0  0  0  0  0
    8.3175  -16.0032   20.3833 C   0  0  1  0  0  0  0  0  0  0  0  0
    7.8193  -14.5714   20.2118 C   0  0  0  0  0  0  0  0  0  0  0  0
    7.9229  -14.1481   18.7922 C   0  0  0  0  0  0  0  0  0  0  0  0
    6.8630  -13.7329   17.9970 C   0  0  0  0  0  0  0  0  0  0  0  0
    7.3411  -13.4298   16.7595 N   0  0  0  0  0  0  0  0  0  0  0  0
    8.6681  -13.6630   16.8235 C   0  0  0  0  0  0  0  0  0  0  0  0
    9.0102  -14.0897   18.0338 N   0  0  0  0  0  0  0  0  0  0  0  0
    8.2864  -16.3446   21.8375 C   0  0  0  0  0  0  0  0  0  0  0  0
    7.2062  -16.6213   22.4435 O   0  0  0  0  0  0  0  0  0  0  0  0
   12.3386  -19.7902   24.6133 N   0  0  0  0  0  0  0  0  0  0  0  0
   11.3332  -20.1247   23.6763 C   0  0  0  0  0  0  0  0  0  0  0  0
   11.3541  -21.2245   23.0941 O   0  0  0  0  0  0  0  0  0  0  0  0
   10.2328  -19.1558   23.3760 C   0  0  0  0  0  0  0  0  0  0  0  0
   10.4410  -17.9387   24.2243 C   0  0  0  0  0  0  0  0  0  0  0  0
    9.4493  -16.8404   24.0201 C   0  0  2  0  0  0  0  0  0  0  0  0
    9.4593  -16.3827   22.6360 N   0  0  0  0  0  0  0  0  0  0  0  0
    9.6956  -15.7112   24.9570 C   0  0  0  0  0  0  0  0  0  0  0  0
   10.8255  -15.1728   25.0317 O   0  0  0  0  0  0  0  0  0  0  0  0
    6.0177  -11.8471   26.1633 C   0  0  0  0  0  0  0  0  0  0  0  0
    7.2310  -12.6919   25.9338 C   0  0  1  0  0  0  0  0  0  0  0  0
    8.3162  -11.6959   25.4464 C   0  0  0  0  0  0  0  0  0  0  0  0
    7.7515  -13.3739   27.1430 C   0  0  0  0  0  0  0  0  0  0  0  0
    8.8587  -14.3347   26.9395 C   0  0  2  0  0  0  0  0  0  0  0  0
    8.6783  -15.1915   25.8027 N   0  0  0  0  0  0  0  0  0  0  0  0
    9.3155  -15.0151   28.1676 C   0  0  0  0  0  0  0  0  0  0  0  0
    9.4149  -16.3871   28.3020 O   0  0  0  0  0  0  0  0  0  0  0  0
    9.6391  -14.3393   29.1680 O   0  0  0  0  0  0  0  0  0  0  0  0
  2  9  1  0
  2  1  1  6
  3  2  1  0
  4  3  1  0
  4  5  2  0
  6  5  1  0
  7  6  1  0
  8  7  2  0
  8  4  1  0
  9 10  2  0
 12 11  1  0
 12 14  1  0
 13 12  2  0
 16 15  1  6
 15 14  1  0
 17 16  1  0
 17  9  1  0
 18 16  1  0
 19 18  2  0
 21 20  1  1
 21 22  1  0
 23 21  1  0
 24 25  1  0
 24 23  1  1
 25 18  1  0
 26 24  1  0
 27 26  1  0
 28 26  2  0
M  END
$$$$
