HQL.pdb
     RDKit          3D

 28 28  0  0  1  0  0  0  0  0999 V2000
    9.8694  -15.1819   18.3654 N   0  0  0  0  0  0  0  0  0  0  0  0
    9.2883  -14.3965   19.4670 C   0  0  1  0  0  0  0  0  0  0  0  0
    7.9594  -13.8771   18.9266 C   0  0  0  0  0  0  0  0  0  0  0  0
    7.8925  -14.0454   17.4528 C   0  0  0  0  0  0  0  0  0  0  0  0
    8.5512  -13.2534   16.5217 C   0  0  0  0  0  0  0  0  0  0  0  0
    8.2479  -13.7055   15.2746 N   0  0  0  0  0  0  0  0  0  0  0  0
    7.4198  -14.7528   15.4671 C   0  0  0  0  0  0  0  0  0  0  0  0
    7.2111  -14.9518   16.7636 N   0  0  0  0  0  0  0  0  0  0  0  0
    9.0054  -15.3718   20.5629 C   0  0  0  0  0  0  0  0  0  0  0  0
    8.4108  -16.4727   20.3507 O   0  0  0  0  0  0  0  0  0  0  0  0
   11.8633  -19.3569   22.4763 N   0  0  0  0  0  0  0  0  0  0  0  0
   10.6129  -19.5110   21.8333 C   0  0  0  0  0  0  0  0  0  0  0  0
   10.3555  -20.5474   21.1941 O   0  0  0  0  0  0  0  0  0  0  0  0
    9.5858  -18.4255   21.9162 C   0  0  0  0  0  0  0  0  0  0  0  0
   10.1705  -17.2918   22.7018 C   0  0  0  0  0  0  0  0  0  0  0  0
    9.2470  -16.1446   22.9517 C   0  0  2  0  0  0  0  0  0  0  0  0
    9.3820  -15.1332   21.9105 N   0  0  0  0  0  0  0  0  0  0  0  0
    9.4717  -15.5559   24.2995 C   0  0  0  0  0  0  0  0  0  0  0  0
   10.6040  -15.1360   24.6368 O   0  0  0  0  0  0  0  0  0  0  0  0
    5.5290  -12.4529   26.1069 C   0  0  0  0  0  0  0  0  0  0  0  0
    6.8901  -13.0273   25.8697 C   0  0  1  0  0  0  0  0  0  0  0  0
    7.8444  -11.8047   25.9096 C   0  0  0  0  0  0  0  0  0  0  0  0
    7.3457  -13.9922   26.8990 C   0  0  0  0  0  0  0  0  0  0  0  0
    8.5179  -14.8274   26.5546 C   0  0  2  0  0  0  0  0  0  0  0  0
    8.4304  -15.4399   25.2599 N   0  0  0  0  0  0  0  0  0  0  0  0
    8.9761  -15.7201   27.6376 C   0  0  0  0  0  0  0  0  0  0  0  0
    9.1737  -17.0800   27.4894 O   0  0  0  0  0  0  0  0  0  0  0  0
    9.2080  -15.2508   28.7726 O   0  0  0  0  0  0  0  0  0  0  0  0
  2  9  1  0
  2  1  1  6
  3  2  1  0
  4  3  1  0
  4  5  2  0
  6  5  1  0
  7  6  1  0
  8  7  2  0
  8  4  1  0
  9 10  2  0
 12 11  1  0
 12 14  1  0
 13 12  2  0
 16 15  1  6
 15 14  1  0
 17 16  1  0
 17  9  1  0
 18 16  1  0
 19 18  2  0
 21 20  1  1
 21 22  1  0
 23 21  1  0
 24 25  1  0
 24 23  1  1
 25 18  1  0
 26 24  1  0
 27 26  1  0
 28 26  2  0
M  END
$$$$
