HQL.pdb
     RDKit          3D

 28 28  0  0  1  0  0  0  0  0999 V2000
    6.5573  -19.5859   19.8333 N   0  0  0  0  0  0  0  0  0  0  0  0
    7.3546  -18.3967   20.1771 C   0  0  1  0  0  0  0  0  0  0  0  0
    6.9704  -17.3470   19.1387 C   0  0  0  0  0  0  0  0  0  0  0  0
    7.9511  -17.3307   18.0238 C   0  0  0  0  0  0  0  0  0  0  0  0
    9.0593  -18.1602   17.9148 C   0  0  0  0  0  0  0  0  0  0  0  0
    9.7214  -17.8519   16.7665 N   0  0  0  0  0  0  0  0  0  0  0  0
    9.0120  -16.8520   16.2039 C   0  0  0  0  0  0  0  0  0  0  0  0
    7.9600  -16.5451   16.9544 N   0  0  0  0  0  0  0  0  0  0  0  0
    6.8627  -17.9438   21.5131 C   0  0  0  0  0  0  0  0  0  0  0  0
    5.6438  -17.6601   21.7236 O   0  0  0  0  0  0  0  0  0  0  0  0
    9.5342  -20.0006   26.0758 N   0  0  0  0  0  0  0  0  0  0  0  0
    8.2877  -20.4755   25.6053 C   0  0  0  0  0  0  0  0  0  0  0  0
    7.6887  -21.3827   26.2110 O   0  0  0  0  0  0  0  0  0  0  0  0
    7.6769  -19.8893   24.3710 C   0  0  0  0  0  0  0  0  0  0  0  0
    6.9270  -18.6538   24.7655 C   0  0  0  0  0  0  0  0  0  0  0  0
    7.2316  -17.4359   23.9560 C   0  0  2  0  0  0  0  0  0  0  0  0
    7.7231  -17.8013   22.6331 N   0  0  0  0  0  0  0  0  0  0  0  0
    8.1991  -16.5504   24.6585 C   0  0  0  0  0  0  0  0  0  0  0  0
    9.4285  -16.6280   24.4245 O   0  0  0  0  0  0  0  0  0  0  0  0
    5.8960  -12.0433   26.9955 C   0  0  0  0  0  0  0  0  0  0  0  0
    6.7208  -13.0347   26.2370 C   0  0  1  0  0  0  0  0  0  0  0  0
    7.2436  -12.2496   25.0052 C   0  0  0  0  0  0  0  0  0  0  0  0
    7.8962  -13.5585   26.9734 C   0  0  0  0  0  0  0  0  0  0  0  0
    8.6292  -14.6797   26.3442 C   0  0  2  0  0  0  0  0  0  0  0  0
    7.7864  -15.5846   25.6162 N   0  0  0  0  0  0  0  0  0  0  0  0
    9.6316  -15.3247   27.2155 C   0  0  0  0  0  0  0  0  0  0  0  0
   10.7123  -14.6669   27.7721 O   0  0  0  0  0  0  0  0  0  0  0  0
    9.5281  -16.5404   27.4865 O   0  0  0  0  0  0  0  0  0  0  0  0
  2  9  1  0
  2  1  1  6
  3  2  1  0
  4  3  1  0
  4  5  2  0
  6  5  1  0
  7  6  1  0
  8  7  2  0
  8  4  1  0
  9 10  2  0
 12 11  1  0
 12 14  1  0
 13 12  2  0
 16 15  1  1
 15 14  1  0
 17 16  1  0
 17  9  1  0
 18 16  1  0
 19 18  2  0
 21 20  1  1
 21 22  1  0
 23 21  1  0
 24 25  1  0
 24 23  1  1
 25 18  1  0
 26 24  1  0
 27 26  1  0
 28 26  2  0
M  END
$$$$
