HQL.pdb
     RDKit          3D

 28 28  0  0  1  0  0  0  0  0999 V2000
    9.3369  -15.5762   19.6355 N   0  0  0  0  0  0  0  0  0  0  0  0
    8.3304  -14.6309   20.1467 C   0  0  1  0  0  0  0  0  0  0  0  0
    7.1487  -14.7526   19.1894 C   0  0  0  0  0  0  0  0  0  0  0  0
    7.5729  -14.4654   17.7957 C   0  0  0  0  0  0  0  0  0  0  0  0
    8.2178  -13.3107   17.3727 C   0  0  0  0  0  0  0  0  0  0  0  0
    8.4422  -13.4041   16.0338 N   0  0  0  0  0  0  0  0  0  0  0  0
    7.9360  -14.6005   15.6705 C   0  0  0  0  0  0  0  0  0  0  0  0
    7.4202  -15.2286   16.7209 N   0  0  0  0  0  0  0  0  0  0  0  0
    7.9142  -15.1554   21.4823 C   0  0  0  0  0  0  0  0  0  0  0  0
    6.9104  -14.6935   22.1066 O   0  0  0  0  0  0  0  0  0  0  0  0
   10.4066  -20.0982   24.3997 N   0  0  0  0  0  0  0  0  0  0  0  0
    9.5063  -19.6738   25.4047 C   0  0  0  0  0  0  0  0  0  0  0  0
    9.3746  -20.3319   26.4528 O   0  0  0  0  0  0  0  0  0  0  0  0
    8.7018  -18.4260   25.2154 C   0  0  0  0  0  0  0  0  0  0  0  0
    9.0183  -17.8702   23.8607 C   0  0  0  0  0  0  0  0  0  0  0  0
    8.3137  -16.6004   23.5106 C   0  0  2  0  0  0  0  0  0  0  0  0
    8.6112  -16.2025   22.1401 N   0  0  0  0  0  0  0  0  0  0  0  0
    8.6551  -15.5135   24.4676 C   0  0  0  0  0  0  0  0  0  0  0  0
    8.6866  -14.3164   24.0959 O   0  0  0  0  0  0  0  0  0  0  0  0
    5.9692  -12.4259   26.0757 C   0  0  0  0  0  0  0  0  0  0  0  0
    7.3053  -13.0927   25.9824 C   0  0  1  0  0  0  0  0  0  0  0  0
    8.3298  -11.9568   26.2412 C   0  0  0  0  0  0  0  0  0  0  0  0
    7.5416  -14.1549   26.9894 C   0  0  0  0  0  0  0  0  0  0  0  0
    8.8460  -14.8513   26.9274 C   0  0  2  0  0  0  0  0  0  0  0  0
    8.9579  -15.7715   25.8321 N   0  0  0  0  0  0  0  0  0  0  0  0
    9.3320  -15.3628   28.2243 C   0  0  0  0  0  0  0  0  0  0  0  0
    9.6517  -16.6859   28.4648 O   0  0  0  0  0  0  0  0  0  0  0  0
    9.4737  -14.5786   29.1872 O   0  0  0  0  0  0  0  0  0  0  0  0
  2  9  1  0
  2  1  1  6
  3  2  1  0
  4  3  1  0
  4  5  2  0
  6  5  1  0
  7  6  1  0
  8  7  2  0
  8  4  1  0
  9 10  2  0
 12 11  1  0
 12 14  1  0
 13 12  2  0
 16 15  1  1
 15 14  1  0
 17 16  1  0
 17  9  1  0
 18 16  1  0
 19 18  2  0
 21 20  1  1
 21 22  1  0
 23 21  1  0
 24 25  1  0
 24 23  1  1
 25 18  1  0
 26 24  1  0
 27 26  1  0
 28 26  2  0
M  END
$$$$
