HQL.pdb
     RDKit          3D

 28 28  0  0  1  0  0  0  0  0999 V2000
    8.9783  -16.4033   20.0341 N   0  0  0  0  0  0  0  0  0  0  0  0
    8.1167  -15.2560   20.3649 C   0  0  1  0  0  0  0  0  0  0  0  0
    6.9950  -15.2906   19.3313 C   0  0  0  0  0  0  0  0  0  0  0  0
    7.4457  -14.6904   18.0500 C   0  0  0  0  0  0  0  0  0  0  0  0
    8.7177  -14.1940   17.7975 C   0  0  0  0  0  0  0  0  0  0  0  0
    8.7548  -13.7233   16.5212 N   0  0  0  0  0  0  0  0  0  0  0  0
    7.5190  -13.9397   16.0257 C   0  0  0  0  0  0  0  0  0  0  0  0
    6.7436  -14.5151   16.9378 N   0  0  0  0  0  0  0  0  0  0  0  0
    7.5329  -15.5535   21.7076 C   0  0  0  0  0  0  0  0  0  0  0  0
    6.6122  -14.8434   22.2163 O   0  0  0  0  0  0  0  0  0  0  0  0
    7.2342  -20.8584   25.3282 N   0  0  0  0  0  0  0  0  0  0  0  0
    6.3984  -20.4588   24.2593 C   0  0  0  0  0  0  0  0  0  0  0  0
    5.8194  -21.3093   23.5591 O   0  0  0  0  0  0  0  0  0  0  0  0
    6.2031  -19.0054   23.9602 C   0  0  0  0  0  0  0  0  0  0  0  0
    7.4983  -18.2992   24.2213 C   0  0  0  0  0  0  0  0  0  0  0  0
    7.5154  -16.8467   23.8730 C   0  0  2  0  0  0  0  0  0  0  0  0
    7.9674  -16.6470   22.5016 N   0  0  0  0  0  0  0  0  0  0  0  0
    8.3535  -16.0735   24.8288 C   0  0  0  0  0  0  0  0  0  0  0  0
    9.6025  -16.0555   24.7196 O   0  0  0  0  0  0  0  0  0  0  0  0
    6.3168  -11.4602   26.6366 C   0  0  0  0  0  0  0  0  0  0  0  0
    7.2087  -12.5722   26.1820 C   0  0  1  0  0  0  0  0  0  0  0  0
    8.3022  -11.8750   25.3304 C   0  0  0  0  0  0  0  0  0  0  0  0
    7.8866  -13.3113   27.2739 C   0  0  0  0  0  0  0  0  0  0  0  0
    8.5041  -14.6077   26.9155 C   0  0  2  0  0  0  0  0  0  0  0  0
    7.7906  -15.3257   25.8985 N   0  0  0  0  0  0  0  0  0  0  0  0
    8.9356  -15.4226   28.0686 C   0  0  0  0  0  0  0  0  0  0  0  0
    9.8426  -14.9981   29.0214 O   0  0  0  0  0  0  0  0  0  0  0  0
    8.4732  -16.5734   28.2233 O   0  0  0  0  0  0  0  0  0  0  0  0
  2  9  1  0
  2  1  1  6
  3  2  1  0
  4  3  1  0
  4  5  2  0
  6  5  1  0
  7  6  1  0
  8  7  2  0
  8  4  1  0
  9 10  2  0
 12 11  1  0
 12 14  1  0
 13 12  2  0
 16 15  1  1
 15 14  1  0
 17 16  1  0
 17  9  1  0
 18 16  1  0
 19 18  2  0
 21 20  1  1
 21 22  1  0
 23 21  1  0
 24 25  1  0
 24 23  1  1
 25 18  1  0
 26 24  1  0
 27 26  1  0
 28 26  2  0
M  END
$$$$
