HQL.pdb
     RDKit          3D

 28 28  0  0  1  0  0  0  0  0999 V2000
    9.5008  -15.7480   20.1793 N   0  0  0  0  0  0  0  0  0  0  0  0
    8.5959  -14.8131   20.8685 C   0  0  1  0  0  0  0  0  0  0  0  0
    7.3251  -14.7952   20.0244 C   0  0  0  0  0  0  0  0  0  0  0  0
    7.6080  -14.2710   18.6642 C   0  0  0  0  0  0  0  0  0  0  0  0
    7.9197  -12.9527   18.3587 C   0  0  0  0  0  0  0  0  0  0  0  0
    8.1090  -12.8514   17.0149 N   0  0  0  0  0  0  0  0  0  0  0  0
    7.9119  -14.0956   16.5326 C   0  0  0  0  0  0  0  0  0  0  0  0
    7.6144  -14.9368   17.5164 N   0  0  0  0  0  0  0  0  0  0  0  0
    8.2804  -15.4420   22.1865 C   0  0  0  0  0  0  0  0  0  0  0  0
    7.3006  -15.0630   22.8985 O   0  0  0  0  0  0  0  0  0  0  0  0
    9.8756  -21.0820   24.3357 N   0  0  0  0  0  0  0  0  0  0  0  0
   10.0948  -20.4977   23.0664 C   0  0  0  0  0  0  0  0  0  0  0  0
   10.5871  -21.1672   22.1400 O   0  0  0  0  0  0  0  0  0  0  0  0
    9.7358  -19.0647   22.8261 C   0  0  0  0  0  0  0  0  0  0  0  0
    9.1776  -18.5058   24.0991 C   0  0  0  0  0  0  0  0  0  0  0  0
    8.7945  -17.0629   24.0493 C   0  0  2  0  0  0  0  0  0  0  0  0
    9.0527  -16.5024   22.7286 N   0  0  0  0  0  0  0  0  0  0  0  0
    9.4942  -16.2830   25.1057 C   0  0  0  0  0  0  0  0  0  0  0  0
   10.6831  -15.9156   24.9522 O   0  0  0  0  0  0  0  0  0  0  0  0
    6.7841  -12.3046   27.0638 C   0  0  0  0  0  0  0  0  0  0  0  0
    7.8459  -13.2655   26.6305 C   0  0  1  0  0  0  0  0  0  0  0  0
    8.8824  -12.3912   25.8766 C   0  0  0  0  0  0  0  0  0  0  0  0
    8.5522  -13.9526   27.7382 C   0  0  0  0  0  0  0  0  0  0  0  0
    9.4092  -15.1013   27.3689 C   0  0  2  0  0  0  0  0  0  0  0  0
    8.8609  -15.9189   26.3250 N   0  0  0  0  0  0  0  0  0  0  0  0
    9.9681  -15.8449   28.5155 C   0  0  0  0  0  0  0  0  0  0  0  0
   10.7724  -15.2802   29.4874 O   0  0  0  0  0  0  0  0  0  0  0  0
    9.7199  -17.0629   28.6460 O   0  0  0  0  0  0  0  0  0  0  0  0
  2  9  1  0
  2  1  1  6
  3  2  1  0
  4  3  1  0
  4  5  2  0
  6  5  1  0
  7  6  1  0
  8  7  2  0
  8  4  1  0
  9 10  2  0
 12 11  1  0
 12 14  1  0
 13 12  2  0
 16 15  1  6
 15 14  1  0
 17 16  1  0
 17  9  1  0
 18 16  1  0
 19 18  2  0
 21 20  1  1
 21 22  1  0
 23 21  1  0
 24 25  1  0
 24 23  1  1
 25 18  1  0
 26 24  1  0
 27 26  1  0
 28 26  2  0
M  END
$$$$
