HQL.pdb
     RDKit          3D

 28 28  0  0  1  0  0  0  0  0999 V2000
    8.6407  -18.5048   19.3766 N   0  0  0  0  0  0  0  0  0  0  0  0
    9.5723  -17.8826   20.3321 C   0  0  1  0  0  0  0  0  0  0  0  0
   10.1904  -16.7094   19.5777 C   0  0  0  0  0  0  0  0  0  0  0  0
   11.3801  -17.1516   18.8069 C   0  0  0  0  0  0  0  0  0  0  0  0
   12.6094  -17.4971   19.3523 C   0  0  0  0  0  0  0  0  0  0  0  0
   13.4511  -17.8446   18.3411 N   0  0  0  0  0  0  0  0  0  0  0  0
   12.7269  -17.7062   17.2115 C   0  0  0  0  0  0  0  0  0  0  0  0
   11.4959  -17.2942   17.4927 N   0  0  0  0  0  0  0  0  0  0  0  0
    8.7265  -17.3417   21.4385 C   0  0  0  0  0  0  0  0  0  0  0  0
    7.8186  -16.4786   21.2347 O   0  0  0  0  0  0  0  0  0  0  0  0
    7.4295  -21.0724   25.1289 N   0  0  0  0  0  0  0  0  0  0  0  0
    6.3581  -20.5864   24.3437 C   0  0  0  0  0  0  0  0  0  0  0  0
    5.4721  -21.3601   23.9371 O   0  0  0  0  0  0  0  0  0  0  0  0
    6.2809  -19.1333   23.9937 C   0  0  0  0  0  0  0  0  0  0  0  0
    7.4481  -18.4402   24.6275 C   0  0  0  0  0  0  0  0  0  0  0  0
    8.0043  -17.2893   23.8546 C   0  0  2  0  0  0  0  0  0  0  0  0
    8.8809  -17.7559   22.7874 N   0  0  0  0  0  0  0  0  0  0  0  0
    8.7132  -16.3332   24.7473 C   0  0  0  0  0  0  0  0  0  0  0  0
    9.9518  -16.4162   24.9238 O   0  0  0  0  0  0  0  0  0  0  0  0
    6.1094  -11.5274   25.9529 C   0  0  0  0  0  0  0  0  0  0  0  0
    7.0440  -12.6409   25.5992 C   0  0  1  0  0  0  0  0  0  0  0  0
    8.1167  -11.9802   24.6938 C   0  0  0  0  0  0  0  0  0  0  0  0
    7.7415  -13.2574   26.7531 C   0  0  0  0  0  0  0  0  0  0  0  0
    8.5680  -14.4519   26.4694 C   0  0  2  0  0  0  0  0  0  0  0  0
    8.0339  -15.2915   25.4356 N   0  0  0  0  0  0  0  0  0  0  0  0
    9.0468  -15.1671   27.6690 C   0  0  0  0  0  0  0  0  0  0  0  0
    8.8273  -16.5104   27.9094 O   0  0  0  0  0  0  0  0  0  0  0  0
    9.6931  -14.5500   28.5430 O   0  0  0  0  0  0  0  0  0  0  0  0
  2  9  1  0
  2  1  1  6
  3  2  1  0
  4  3  1  0
  4  5  2  0
  6  5  1  0
  7  6  1  0
  8  7  2  0
  8  4  1  0
  9 10  2  0
 12 11  1  0
 12 14  1  0
 13 12  2  0
 16 15  1  1
 15 14  1  0
 17 16  1  0
 17  9  1  0
 18 16  1  0
 19 18  2  0
 21 20  1  1
 21 22  1  0
 23 21  1  0
 24 25  1  0
 24 23  1  1
 25 18  1  0
 26 24  1  0
 27 26  1  0
 28 26  2  0
M  END
$$$$
