HQL.pdb
     RDKit          3D

 28 28  0  0  1  0  0  0  0  0999 V2000
    9.7514  -14.8044   19.6279 N   0  0  0  0  0  0  0  0  0  0  0  0
    8.3574  -14.5882   20.0498 C   0  0  1  0  0  0  0  0  0  0  0  0
    7.5087  -15.2767   18.9853 C   0  0  0  0  0  0  0  0  0  0  0  0
    7.7473  -14.6682   17.6519 C   0  0  0  0  0  0  0  0  0  0  0  0
    8.6995  -13.6981   17.3689 C   0  0  0  0  0  0  0  0  0  0  0  0
    8.6202  -13.3840   16.0472 N   0  0  0  0  0  0  0  0  0  0  0  0
    7.6326  -14.1601   15.5554 C   0  0  0  0  0  0  0  0  0  0  0  0
    7.1162  -14.9225   16.5126 N   0  0  0  0  0  0  0  0  0  0  0  0
    8.1972  -15.3303   21.3366 C   0  0  0  0  0  0  0  0  0  0  0  0
    7.0871  -15.3890   21.9489 O   0  0  0  0  0  0  0  0  0  0  0  0
   11.2164  -20.6147   23.3943 N   0  0  0  0  0  0  0  0  0  0  0  0
   10.0080  -20.2892   22.7351 C   0  0  0  0  0  0  0  0  0  0  0  0
    9.1039  -21.1367   22.6199 O   0  0  0  0  0  0  0  0  0  0  0  0
    9.8061  -18.9188   22.1683 C   0  0  0  0  0  0  0  0  0  0  0  0
   10.0106  -17.9253   23.2708 C   0  0  0  0  0  0  0  0  0  0  0  0
    9.1211  -16.7262   23.2233 C   0  0  2  0  0  0  0  0  0  0  0  0
    9.2724  -16.0175   21.9583 N   0  0  0  0  0  0  0  0  0  0  0  0
    9.3761  -15.8204   24.3758 C   0  0  0  0  0  0  0  0  0  0  0  0
   10.4807  -15.2416   24.5063 O   0  0  0  0  0  0  0  0  0  0  0  0
    5.6250  -12.3450   26.1611 C   0  0  0  0  0  0  0  0  0  0  0  0
    6.9053  -13.0501   25.8414 C   0  0  1  0  0  0  0  0  0  0  0  0
    7.9444  -11.9127   25.6580 C   0  0  0  0  0  0  0  0  0  0  0  0
    7.4023  -13.9508   26.9091 C   0  0  0  0  0  0  0  0  0  0  0  0
    8.5670  -14.8000   26.5735 C   0  0  2  0  0  0  0  0  0  0  0  0
    8.3956  -15.5674   25.3732 N   0  0  0  0  0  0  0  0  0  0  0  0
    9.1335  -15.5454   27.7152 C   0  0  0  0  0  0  0  0  0  0  0  0
    9.7020  -14.9487   28.8248 O   0  0  0  0  0  0  0  0  0  0  0  0
    9.1160  -16.7951   27.7107 O   0  0  0  0  0  0  0  0  0  0  0  0
  2  9  1  0
  2  1  1  6
  3  2  1  0
  4  3  1  0
  4  5  2  0
  6  5  1  0
  7  6  1  0
  8  7  2  0
  8  4  1  0
  9 10  2  0
 12 11  1  0
 12 14  1  0
 13 12  2  0
 16 15  1  6
 15 14  1  0
 17 16  1  0
 17  9  1  0
 18 16  1  0
 19 18  2  0
 21 20  1  1
 21 22  1  0
 23 21  1  0
 24 25  1  0
 24 23  1  1
 25 18  1  0
 26 24  1  0
 27 26  1  0
 28 26  2  0
M  END
$$$$
