HQL.pdb
     RDKit          3D

 28 28  0  0  1  0  0  0  0  0999 V2000
    8.3574  -17.3123   19.4132 N   0  0  0  0  0  0  0  0  0  0  0  0
    8.7297  -16.1509   20.2381 C   0  0  1  0  0  0  0  0  0  0  0  0
    7.5996  -15.1451   20.0411 C   0  0  0  0  0  0  0  0  0  0  0  0
    7.8312  -14.3302   18.8216 C   0  0  0  0  0  0  0  0  0  0  0  0
    8.8546  -14.5280   17.9041 C   0  0  0  0  0  0  0  0  0  0  0  0
    8.7481  -13.5886   16.9254 N   0  0  0  0  0  0  0  0  0  0  0  0
    7.6739  -12.8449   17.2609 C   0  0  0  0  0  0  0  0  0  0  0  0
    7.1313  -13.2893   18.3888 N   0  0  0  0  0  0  0  0  0  0  0  0
    8.7000  -16.6257   21.6544 C   0  0  0  0  0  0  0  0  0  0  0  0
    7.7311  -17.2996   22.1208 O   0  0  0  0  0  0  0  0  0  0  0  0
   12.3269  -20.0759   24.8841 N   0  0  0  0  0  0  0  0  0  0  0  0
   11.5619  -20.2233   23.7035 C   0  0  0  0  0  0  0  0  0  0  0  0
   11.7882  -21.1617   22.9180 O   0  0  0  0  0  0  0  0  0  0  0  0
   10.4708  -19.2487   23.3879 C   0  0  0  0  0  0  0  0  0  0  0  0
   10.7887  -17.9565   24.0761 C   0  0  0  0  0  0  0  0  0  0  0  0
    9.7592  -16.8842   23.9288 C   0  0  2  0  0  0  0  0  0  0  0  0
    9.7505  -16.3559   22.5701 N   0  0  0  0  0  0  0  0  0  0  0  0
    9.9682  -15.7967   24.9225 C   0  0  0  0  0  0  0  0  0  0  0  0
   11.0335  -15.1354   24.9371 O   0  0  0  0  0  0  0  0  0  0  0  0
    5.9267  -12.5190   26.5581 C   0  0  0  0  0  0  0  0  0  0  0  0
    7.2088  -13.1994   26.1952 C   0  0  1  0  0  0  0  0  0  0  0  0
    8.0910  -12.0764   25.5889 C   0  0  0  0  0  0  0  0  0  0  0  0
    7.9460  -13.7876   27.3392 C   0  0  0  0  0  0  0  0  0  0  0  0
    9.1539  -14.5790   27.0153 C   0  0  2  0  0  0  0  0  0  0  0  0
    8.9861  -15.4554   25.8916 N   0  0  0  0  0  0  0  0  0  0  0  0
    9.8241  -15.1837   28.1837 C   0  0  0  0  0  0  0  0  0  0  0  0
   10.3618  -14.4580   29.2300 O   0  0  0  0  0  0  0  0  0  0  0  0
    9.9308  -16.4264   28.2639 O   0  0  0  0  0  0  0  0  0  0  0  0
  2  9  1  0
  2  1  1  6
  3  2  1  0
  4  3  1  0
  4  5  2  0
  6  5  1  0
  7  6  1  0
  8  7  2  0
  8  4  1  0
  9 10  2  0
 12 11  1  0
 12 14  1  0
 13 12  2  0
 16 15  1  6
 15 14  1  0
 17 16  1  0
 17  9  1  0
 18 16  1  0
 19 18  2  0
 21 20  1  1
 21 22  1  0
 23 21  1  0
 24 25  1  0
 24 23  1  1
 25 18  1  0
 26 24  1  0
 27 26  1  0
 28 26  2  0
M  END
$$$$
