LMC.pdb
     RDKit          3D

 23 22  0  0  1  0  0  0  0  0999 V2000
   26.6997  -16.8351  -18.0173 C   0  0  0  0  0  0  0  0  0  0  0  0
   27.7002  -17.6359  -17.2223 C   0  0  2  0  0  0  0  0  0  0  0  0
   28.8904  -17.9528  -18.0646 C   0  0  0  0  0  0  0  0  0  0  0  0
   27.0568  -18.9070  -16.6571 C   0  0  0  0  0  0  0  0  0  0  0  0
   25.7904  -18.4668  -15.9371 C   0  0  2  0  0  0  0  0  0  0  0  0
   26.1912  -17.4809  -14.9507 N   0  0  0  0  0  0  0  0  0  0  0  0
   25.0838  -19.5787  -15.2998 C   0  0  0  0  0  0  0  0  0  0  0  0
   24.7602  -20.5867  -16.0161 O   0  0  0  0  0  0  0  0  0  0  0  0
   24.8319  -20.4986   -8.9982 C   0  0  0  0  0  0  0  0  0  0  0  0
   26.1795  -21.2676   -9.8975 S   0  0  0  0  0  0  0  0  0  0  0  0
   25.8556  -21.3092  -11.6919 C   0  0  0  0  0  0  0  0  0  0  0  0
   24.4165  -20.9681  -11.8913 C   0  0  0  0  0  0  0  0  0  0  0  0
   24.0230  -20.7724  -13.3321 C   0  0  2  0  0  0  0  0  0  0  0  0
   24.7128  -19.6574  -13.9455 N   0  0  0  0  0  0  0  0  0  0  0  0
   22.5792  -20.7596  -13.5373 C   0  0  0  0  0  0  0  0  0  0  0  0
   21.8257  -19.8086  -13.2115 O   0  0  0  0  0  0  0  0  0  0  0  0
   21.9444  -21.8774  -14.1426 N   0  0  0  0  0  0  0  0  0  0  0  0
   20.5007  -21.9150  -14.3827 C   0  0  1  0  0  0  0  0  0  0  0  0
   20.2774  -22.9077  -15.5232 C   0  0  0  0  0  0  0  0  0  0  0  0
   21.1827  -24.4353  -15.1489 S   0  0  0  0  0  0  0  0  0  0  0  0
   19.7525  -22.2773  -13.1827 C   0  0  0  0  0  0  0  0  0  0  0  0
   20.4007  -22.7950  -12.0804 O   0  0  0  0  0  0  0  0  0  0  0  0
   18.5134  -22.1221  -13.1413 O   0  0  0  0  0  0  0  0  0  0  0  0
  2  1  1  6
  3  2  1  0
  4  2  1  0
  5  4  1  0
  5  6  1  1
  7  8  2  0
  7  5  1  0
  9 10  1  0
 11 10  1  0
 12 11  1  0
 13 12  1  1
 13 14  1  0
 14  7  1  0
 15 13  1  0
 15 17  1  0
 16 15  2  0
 18 17  1  0
 18 21  1  0
 18 19  1  6
 20 19  1  0
 21 22  1  0
 23 21  2  0
M  END
$$$$
