LMC.pdb
     RDKit          3D

 23 22  0  0  1  0  0  0  0  0999 V2000
   17.8742  -14.2481  -16.5459 C   0  0  0  0  0  0  0  0  0  0  0  0
   19.2423  -14.7715  -16.1874 C   0  0  2  0  0  0  0  0  0  0  0  0
   19.1215  -15.9268  -15.2509 C   0  0  0  0  0  0  0  0  0  0  0  0
   20.1154  -13.6584  -15.5976 C   0  0  0  0  0  0  0  0  0  0  0  0
   20.0719  -12.5042  -16.5885 C   0  0  2  0  0  0  0  0  0  0  0  0
   20.8781  -12.9005  -17.7279 N   0  0  0  0  0  0  0  0  0  0  0  0
   20.5623  -11.2483  -16.0194 C   0  0  0  0  0  0  0  0  0  0  0  0
   19.9610  -10.7641  -15.0005 O   0  0  0  0  0  0  0  0  0  0  0  0
   26.6254  -10.3868  -16.3368 C   0  0  0  0  0  0  0  0  0  0  0  0
   25.9422  -10.1955  -14.6897 S   0  0  0  0  0  0  0  0  0  0  0  0
   24.1201  -10.2778  -14.7019 C   0  0  0  0  0  0  0  0  0  0  0  0
   23.6373   -9.2811  -15.7021 C   0  0  0  0  0  0  0  0  0  0  0  0
   22.1430   -9.2716  -15.8916 C   0  0  2  0  0  0  0  0  0  0  0  0
   21.6551  -10.4971  -16.4878 N   0  0  0  0  0  0  0  0  0  0  0  0
   21.6534   -8.0618  -16.5422 C   0  0  0  0  0  0  0  0  0  0  0  0
   21.7478   -7.8319  -17.7738 O   0  0  0  0  0  0  0  0  0  0  0  0
   21.0217   -7.0522  -15.7672 N   0  0  0  0  0  0  0  0  0  0  0  0
   20.5320   -5.8078  -16.3632 C   0  0  1  0  0  0  0  0  0  0  0  0
   19.0089   -5.9228  -16.4147 C   0  0  0  0  0  0  0  0  0  0  0  0
   18.3146   -4.2845  -16.7710 S   0  0  0  0  0  0  0  0  0  0  0  0
   20.9707   -4.6313  -15.6186 C   0  0  0  0  0  0  0  0  0  0  0  0
   21.2357   -4.7137  -14.2673 O   0  0  0  0  0  0  0  0  0  0  0  0
   21.1111   -3.5339  -16.1993 O   0  0  0  0  0  0  0  0  0  0  0  0
  2  1  1  1
  3  2  1  0
  4  2  1  0
  5  4  1  0
  5  6  1  6
  7  8  2  0
  7  5  1  0
  9 10  1  0
 11 10  1  0
 12 11  1  0
 13 12  1  6
 13 14  1  0
 14  7  1  0
 15 13  1  0
 15 17  1  0
 16 15  2  0
 18 17  1  0
 18 21  1  0
 18 19  1  1
 20 19  1  0
 21 22  1  0
 23 21  2  0
M  END
$$$$
