LMC.pdb
     RDKit          3D

 23 22  0  0  1  0  0  0  0  0999 V2000
   27.6102  -15.0190  -22.4966 C   0  0  0  0  0  0  0  0  0  0  0  0
   26.5467  -14.0336  -22.0815 C   0  0  2  0  0  0  0  0  0  0  0  0
   25.9042  -13.4328  -23.2867 C   0  0  0  0  0  0  0  0  0  0  0  0
   27.1299  -12.9570  -21.1595 C   0  0  0  0  0  0  0  0  0  0  0  0
   27.7080  -13.6862  -19.9554 C   0  0  2  0  0  0  0  0  0  0  0  0
   26.5834  -14.2207  -19.2104 N   0  0  0  0  0  0  0  0  0  0  0  0
   28.5265  -12.8200  -19.1061 C   0  0  0  0  0  0  0  0  0  0  0  0
   27.9370  -11.9904  -18.3326 O   0  0  0  0  0  0  0  0  0  0  0  0
   35.6775  -11.0412  -18.6839 C   0  0  0  0  0  0  0  0  0  0  0  0
   34.7106  -11.9165  -17.4531 S   0  0  0  0  0  0  0  0  0  0  0  0
   32.9945  -11.3027  -17.3823 C   0  0  0  0  0  0  0  0  0  0  0  0
   32.1418  -12.2830  -18.1166 C   0  0  0  0  0  0  0  0  0  0  0  0
   30.7274  -11.8188  -18.3473 C   0  0  2  0  0  0  0  0  0  0  0  0
   29.9317  -12.8032  -19.0495 N   0  0  0  0  0  0  0  0  0  0  0  0
   30.6477  -10.4787  -18.9169 C   0  0  0  0  0  0  0  0  0  0  0  0
   30.5926  -10.2342  -20.1480 O   0  0  0  0  0  0  0  0  0  0  0  0
   30.6286   -9.3481  -18.0564 N   0  0  0  0  0  0  0  0  0  0  0  0
   30.5996   -7.9787  -18.5735 C   0  0  1  0  0  0  0  0  0  0  0  0
   29.1661   -7.7216  -19.0370 C   0  0  0  0  0  0  0  0  0  0  0  0
   28.9925   -5.9602  -19.4376 S   0  0  0  0  0  0  0  0  0  0  0  0
   31.0396   -7.0054  -17.5785 C   0  0  0  0  0  0  0  0  0  0  0  0
   31.2378   -7.3827  -16.2665 O   0  0  0  0  0  0  0  0  0  0  0  0
   31.2420   -5.8167  -17.9058 O   0  0  0  0  0  0  0  0  0  0  0  0
  2  1  1  6
  3  2  1  0
  4  2  1  0
  5  4  1  0
  5  6  1  1
  7  8  2  0
  7  5  1  0
  9 10  1  0
 11 10  1  0
 12 11  1  0
 13 12  1  6
 13 14  1  0
 14  7  1  0
 15 13  1  0
 15 17  1  0
 16 15  2  0
 18 17  1  0
 18 21  1  0
 18 19  1  1
 20 19  1  0
 21 22  1  0
 23 21  2  0
M  END
$$$$
