LMC.pdb
     RDKit          3D

 23 22  0  0  1  0  0  0  0  0999 V2000
   20.1332  -16.5084  -17.6724 C   0  0  0  0  0  0  0  0  0  0  0  0
   21.4858  -16.8740  -17.1148 C   0  0  2  0  0  0  0  0  0  0  0  0
   21.3850  -18.1167  -16.2950 C   0  0  0  0  0  0  0  0  0  0  0  0
   22.0749  -15.7130  -16.3059 C   0  0  0  0  0  0  0  0  0  0  0  0
   22.0717  -14.5004  -17.2254 C   0  0  2  0  0  0  0  0  0  0  0  0
   22.9939  -14.7930  -18.3069 N   0  0  0  0  0  0  0  0  0  0  0  0
   22.4545  -13.2660  -16.5388 C   0  0  0  0  0  0  0  0  0  0  0  0
   21.8953  -12.9898  -15.4230 O   0  0  0  0  0  0  0  0  0  0  0  0
   28.1174  -10.2943  -16.6687 C   0  0  0  0  0  0  0  0  0  0  0  0
   27.7871  -11.7892  -15.7348 S   0  0  0  0  0  0  0  0  0  0  0  0
   25.9986  -12.0492  -15.4890 C   0  0  0  0  0  0  0  0  0  0  0  0
   25.2870  -10.9596  -16.2195 C   0  0  0  0  0  0  0  0  0  0  0  0
   23.7913  -11.1292  -16.2754 C   0  0  2  0  0  0  0  0  0  0  0  0
   23.3984  -12.3257  -16.9892 N   0  0  0  0  0  0  0  0  0  0  0  0
   23.0919   -9.9254  -16.7093 C   0  0  0  0  0  0  0  0  0  0  0  0
   23.1219   -9.4719  -17.8806 O   0  0  0  0  0  0  0  0  0  0  0  0
   22.3142   -9.1883  -15.7762 N   0  0  0  0  0  0  0  0  0  0  0  0
   21.5639   -7.9922  -16.1634 C   0  0  1  0  0  0  0  0  0  0  0  0
   20.1428   -8.1826  -15.6341 C   0  0  0  0  0  0  0  0  0  0  0  0
   19.4368   -9.6740  -16.3895 S   0  0  0  0  0  0  0  0  0  0  0  0
   22.1802   -6.7688  -15.6590 C   0  0  0  0  0  0  0  0  0  0  0  0
   21.6525   -5.5341  -15.9758 O   0  0  0  0  0  0  0  0  0  0  0  0
   23.1953   -6.8272  -14.9328 O   0  0  0  0  0  0  0  0  0  0  0  0
  2  1  1  1
  3  2  1  0
  4  2  1  0
  5  4  1  0
  5  6  1  6
  7  8  2  0
  7  5  1  0
  9 10  1  0
 11 10  1  0
 12 11  1  0
 13 12  1  6
 13 14  1  0
 14  7  1  0
 15 13  1  0
 15 17  1  0
 16 15  2  0
 18 17  1  0
 18 21  1  0
 18 19  1  1
 20 19  1  0
 21 22  1  0
 23 21  2  0
M  END
$$$$
