LMC.pdb
     RDKit          3D

 23 22  0  0  1  0  0  0  0  0999 V2000
   28.9257  -17.6384  -15.1634 C   0  0  0  0  0  0  0  0  0  0  0  0
   28.0759  -18.3522  -16.1845 C   0  0  2  0  0  0  0  0  0  0  0  0
   27.5825  -17.3857  -17.2085 C   0  0  0  0  0  0  0  0  0  0  0  0
   26.9181  -19.0948  -15.5081 C   0  0  0  0  0  0  0  0  0  0  0  0
   27.5471  -20.0779  -14.5315 C   0  0  2  0  0  0  0  0  0  0  0  0
   28.2635  -21.0573  -15.3272 N   0  0  0  0  0  0  0  0  0  0  0  0
   26.5613  -20.7322  -13.6702 C   0  0  0  0  0  0  0  0  0  0  0  0
   25.8605  -21.6834  -14.1581 O   0  0  0  0  0  0  0  0  0  0  0  0
   28.0411  -20.3345   -6.9564 C   0  0  0  0  0  0  0  0  0  0  0  0
   26.5055  -20.0245   -7.8292 S   0  0  0  0  0  0  0  0  0  0  0  0
   26.4872  -20.8266   -9.4672 C   0  0  0  0  0  0  0  0  0  0  0  0
   25.2019  -20.4559  -10.1288 C   0  0  0  0  0  0  0  0  0  0  0  0
   25.1256  -20.8356  -11.5845 C   0  0  2  0  0  0  0  0  0  0  0  0
   26.2962  -20.4162  -12.3257 N   0  0  0  0  0  0  0  0  0  0  0  0
   23.8634  -20.4607  -12.2112 C   0  0  0  0  0  0  0  0  0  0  0  0
   23.5816  -19.2988  -12.5974 O   0  0  0  0  0  0  0  0  0  0  0  0
   22.8598  -21.4454  -12.4166 N   0  0  0  0  0  0  0  0  0  0  0  0
   21.5756  -21.1268  -13.0435 C   0  0  1  0  0  0  0  0  0  0  0  0
   21.5072  -21.9476  -14.3310 C   0  0  0  0  0  0  0  0  0  0  0  0
   22.0943  -23.6284  -13.9799 S   0  0  0  0  0  0  0  0  0  0  0  0
   20.4481  -21.3980  -12.1569 C   0  0  0  0  0  0  0  0  0  0  0  0
   19.1592  -21.1005  -12.5484 O   0  0  0  0  0  0  0  0  0  0  0  0
   20.6393  -21.9039  -11.0305 O   0  0  0  0  0  0  0  0  0  0  0  0
  2  1  1  1
  3  2  1  0
  4  2  1  0
  5  4  1  0
  5  6  1  6
  7  8  2  0
  7  5  1  0
  9 10  1  0
 11 10  1  0
 12 11  1  0
 13 12  1  1
 13 14  1  0
 14  7  1  0
 15 13  1  0
 15 17  1  0
 16 15  2  0
 18 17  1  0
 18 21  1  0
 18 19  1  6
 20 19  1  0
 21 22  1  0
 23 21  2  0
M  END
$$$$
