LMC.pdb
     RDKit          3D

 23 22  0  0  1  0  0  0  0  0999 V2000
   20.7153  -21.9178  -16.6659 C   0  0  0  0  0  0  0  0  0  0  0  0
   21.1503  -22.1101  -15.2348 C   0  0  2  0  0  0  0  0  0  0  0  0
   20.7850  -23.4787  -14.7661 C   0  0  0  0  0  0  0  0  0  0  0  0
   20.5498  -21.0273  -14.3314 C   0  0  0  0  0  0  0  0  0  0  0  0
   20.9557  -21.3785  -12.9074 C   0  0  2  0  0  0  0  0  0  0  0  0
   19.8588  -20.9739  -12.0479 N   0  0  0  0  0  0  0  0  0  0  0  0
   22.2017  -20.7307  -12.4958 C   0  0  0  0  0  0  0  0  0  0  0  0
   22.2944  -19.4605  -12.6062 O   0  0  0  0  0  0  0  0  0  0  0  0
   28.0388  -19.8256   -7.4743 C   0  0  0  0  0  0  0  0  0  0  0  0
   26.6153  -20.7121   -8.1099 S   0  0  0  0  0  0  0  0  0  0  0  0
   26.3221  -20.3420   -9.8716 C   0  0  0  0  0  0  0  0  0  0  0  0
   25.0825  -21.0673  -10.2773 C   0  0  0  0  0  0  0  0  0  0  0  0
   24.5946  -20.7281  -11.6615 C   0  0  2  0  0  0  0  0  0  0  0  0
   23.3390  -21.3754  -11.9775 N   0  0  0  0  0  0  0  0  0  0  0  0
   25.6180  -20.8899  -12.6878 C   0  0  0  0  0  0  0  0  0  0  0  0
   26.0608  -21.9989  -13.0782 O   0  0  0  0  0  0  0  0  0  0  0  0
   26.1765  -19.7421  -13.3120 N   0  0  0  0  0  0  0  0  0  0  0  0
   27.1299  -19.8460  -14.4182 C   0  0  1  0  0  0  0  0  0  0  0  0
   27.5805  -18.4206  -14.7363 C   0  0  0  0  0  0  0  0  0  0  0  0
   28.8124  -18.4844  -16.0672 S   0  0  0  0  0  0  0  0  0  0  0  0
   28.2538  -20.7199  -14.0958 C   0  0  0  0  0  0  0  0  0  0  0  0
   28.7205  -21.6334  -15.0182 O   0  0  0  0  0  0  0  0  0  0  0  0
   28.8066  -20.6495  -12.9775 O   0  0  0  0  0  0  0  0  0  0  0  0
  2  1  1  6
  3  2  1  0
  4  2  1  0
  5  4  1  0
  5  6  1  1
  7  8  2  0
  7  5  1  0
  9 10  1  0
 11 10  1  0
 12 11  1  0
 13 12  1  1
 13 14  1  0
 14  7  1  0
 15 13  1  0
 15 17  1  0
 16 15  2  0
 18 17  1  0
 18 21  1  0
 18 19  1  1
 20 19  1  0
 21 22  1  0
 23 21  2  0
M  END
$$$$
