LMC.pdb
     RDKit          3D

 23 22  0  0  1  0  0  0  0  0999 V2000
   23.1152  -20.6308  -19.2768 C   0  0  0  0  0  0  0  0  0  0  0  0
   22.7274  -20.1419  -17.9039 C   0  0  2  0  0  0  0  0  0  0  0  0
   21.2586  -20.3033  -17.6968 C   0  0  0  0  0  0  0  0  0  0  0  0
   23.1681  -18.6885  -17.6972 C   0  0  0  0  0  0  0  0  0  0  0  0
   24.6705  -18.6543  -17.9372 C   0  0  2  0  0  0  0  0  0  0  0  0
   25.2801  -19.4477  -16.8863 N   0  0  0  0  0  0  0  0  0  0  0  0
   25.2141  -17.2956  -17.9411 C   0  0  0  0  0  0  0  0  0  0  0  0
   25.2744  -16.6592  -16.8342 O   0  0  0  0  0  0  0  0  0  0  0  0
   30.8879  -14.3771  -19.6677 C   0  0  0  0  0  0  0  0  0  0  0  0
   29.5577  -13.6061  -20.5909 S   0  0  0  0  0  0  0  0  0  0  0  0
   27.9877  -13.6356  -19.6630 C   0  0  0  0  0  0  0  0  0  0  0  0
   27.4687  -15.0339  -19.7130 C   0  0  0  0  0  0  0  0  0  0  0  0
   26.1191  -15.2143  -19.0687 C   0  0  2  0  0  0  0  0  0  0  0  0
   25.6903  -16.5968  -19.0649 N   0  0  0  0  0  0  0  0  0  0  0  0
   25.1136  -14.2847  -19.5701 C   0  0  0  0  0  0  0  0  0  0  0  0
   24.5512  -14.3851  -20.6890 O   0  0  0  0  0  0  0  0  0  0  0  0
   24.7161  -13.1793  -18.7707 N   0  0  0  0  0  0  0  0  0  0  0  0
   23.7327  -12.1989  -19.2347 C   0  0  1  0  0  0  0  0  0  0  0  0
   22.9108  -11.7977  -18.0101 C   0  0  0  0  0  0  0  0  0  0  0  0
   21.8993  -13.2153  -17.4999 S   0  0  0  0  0  0  0  0  0  0  0  0
   24.3627  -11.0487  -19.8760 C   0  0  0  0  0  0  0  0  0  0  0  0
   23.5963  -10.0780  -20.4870 O   0  0  0  0  0  0  0  0  0  0  0  0
   25.6066  -10.9311  -19.8782 O   0  0  0  0  0  0  0  0  0  0  0  0
  2  1  1  6
  3  2  1  0
  4  2  1  0
  5  4  1  0
  5  6  1  1
  7  8  2  0
  7  5  1  0
  9 10  1  0
 11 10  1  0
 12 11  1  0
 13 12  1  6
 13 14  1  0
 14  7  1  0
 15 13  1  0
 15 17  1  0
 16 15  2  0
 18 17  1  0
 18 21  1  0
 18 19  1  1
 20 19  1  0
 21 22  1  0
 23 21  2  0
M  END
$$$$
