LMC.pdb
     RDKit          3D

 23 22  0  0  1  0  0  0  0  0999 V2000
  -31.0131   27.5128   11.0865 C   0  0  0  0  0  0  0  0  0  0  0  0
  -31.0560   26.8193    9.7480 C   0  0  2  0  0  0  0  0  0  0  0  0
  -32.4371   26.3292    9.4672 C   0  0  0  0  0  0  0  0  0  0  0  0
  -30.0323   25.6800    9.6903 C   0  0  0  0  0  0  0  0  0  0  0  0
  -30.4128   24.8173    8.4958 C   0  0  2  0  0  0  0  0  0  0  0  0
  -29.2364   24.7307    7.6508 N   0  0  0  0  0  0  0  0  0  0  0  0
  -31.5495   25.3541    7.7467 C   0  0  0  0  0  0  0  0  0  0  0  0
  -32.1811   24.5748    6.9544 O   0  0  0  0  0  0  0  0  0  0  0  0
  -36.6428   24.5883   11.6802 C   0  0  0  0  0  0  0  0  0  0  0  0
  -36.4259   25.4711   10.1343 S   0  0  0  0  0  0  0  0  0  0  0  0
  -34.9698   26.5685   10.1832 C   0  0  0  0  0  0  0  0  0  0  0  0
  -34.1813   26.3155    8.9417 C   0  0  0  0  0  0  0  0  0  0  0  0
  -32.9550   27.1792    8.8032 C   0  0  2  0  0  0  0  0  0  0  0  0
  -32.0338   26.6731    7.8078 N   0  0  0  0  0  0  0  0  0  0  0  0
  -32.3285   27.4975   10.0810 C   0  0  0  0  0  0  0  0  0  0  0  0
  -32.6307   26.9549   11.1730 O   0  0  0  0  0  0  0  0  0  0  0  0
  -31.3042   28.4808   10.1370 N   0  0  0  0  0  0  0  0  0  0  0  0
  -30.6040   28.8030   11.3818 C   0  0  1  0  0  0  0  0  0  0  0  0
  -30.1613   27.4709   11.9864 C   0  0  0  0  0  0  0  0  0  0  0  0
  -29.1735   27.8069   13.4712 S   0  0  0  0  0  0  0  0  0  0  0  0
  -29.4804   29.7088   11.1624 C   0  0  0  0  0  0  0  0  0  0  0  0
  -28.6816   30.1048   12.2151 O   0  0  0  0  0  0  0  0  0  0  0  0
  -29.2298   30.1363   10.0155 O   0  0  0  0  0  0  0  0  0  0  0  0
  2  1  1  1
  3  2  1  0
  4  2  1  0
  5  4  1  0
  5  6  1  6
  7  8  2  0
  7  5  1  0
  9 10  1  0
 11 10  1  0
 12 11  1  0
 13 12  1  1
 13 14  1  0
 14  7  1  0
 15 13  1  0
 15 17  1  0
 16 15  2  0
 18 17  1  0
 18 21  1  0
 18 19  1  6
 20 19  1  0
 21 22  1  0
 23 21  2  0
M  END
$$$$
