LMC.pdb
     RDKit          3D

 23 22  0  0  1  0  0  0  0  0999 V2000
   21.9540   -9.6717  -11.5024 C   0  0  0  0  0  0  0  0  0  0  0  0
   21.3351   -9.3990  -12.8503 C   0  0  2  0  0  0  0  0  0  0  0  0
   22.3090   -8.6872  -13.7284 C   0  0  0  0  0  0  0  0  0  0  0  0
   20.0299   -8.6093  -12.7020 C   0  0  0  0  0  0  0  0  0  0  0  0
   19.0545   -9.5200  -11.9706 C   0  0  2  0  0  0  0  0  0  0  0  0
   18.7826  -10.6380  -12.8547 N   0  0  0  0  0  0  0  0  0  0  0  0
   17.8128   -8.8405  -11.5987 C   0  0  0  0  0  0  0  0  0  0  0  0
   16.9429   -8.6180  -12.5086 O   0  0  0  0  0  0  0  0  0  0  0  0
   12.7917  -10.3765   -8.8618 C   0  0  0  0  0  0  0  0  0  0  0  0
   12.9045   -8.7843   -8.0443 S   0  0  0  0  0  0  0  0  0  0  0  0
   14.0123   -7.6442   -8.9385 C   0  0  0  0  0  0  0  0  0  0  0  0
   15.3122   -8.3507   -9.1344 C   0  0  0  0  0  0  0  0  0  0  0  0
   16.2998   -7.5996   -9.9885 C   0  0  2  0  0  0  0  0  0  0  0  0
   17.4660   -8.3941  -10.3110 N   0  0  0  0  0  0  0  0  0  0  0  0
   16.6130   -6.2719   -9.4730 C   0  0  0  0  0  0  0  0  0  0  0  0
   17.3509   -6.0534   -8.4799 O   0  0  0  0  0  0  0  0  0  0  0  0
   16.0675   -5.1237  -10.1077 N   0  0  0  0  0  0  0  0  0  0  0  0
   16.3353   -3.7679   -9.6242 C   0  0  1  0  0  0  0  0  0  0  0  0
   16.6954   -2.9336  -10.8531 C   0  0  0  0  0  0  0  0  0  0  0  0
   16.8855   -1.2022  -10.3441 S   0  0  0  0  0  0  0  0  0  0  0  0
   15.2015   -3.2105   -8.8930 C   0  0  0  0  0  0  0  0  0  0  0  0
   15.4036   -2.3701   -7.8178 O   0  0  0  0  0  0  0  0  0  0  0  0
   14.0324   -3.4897   -9.2343 O   0  0  0  0  0  0  0  0  0  0  0  0
  2  1  1  1
  3  2  1  0
  4  2  1  0
  5  4  1  0
  5  6  1  6
  7  8  2  0
  7  5  1  0
  9 10  1  0
 11 10  1  0
 12 11  1  0
 13 12  1  1
 13 14  1  0
 14  7  1  0
 15 13  1  0
 15 17  1  0
 16 15  2  0
 18 17  1  0
 18 21  1  0
 18 19  1  6
 20 19  1  0
 21 22  1  0
 23 21  2  0
M  END
$$$$
