LMC.pdb
     RDKit          3D

 23 22  0  0  1  0  0  0  0  0999 V2000
   28.1941  -20.5973  -18.0511 C   0  0  0  0  0  0  0  0  0  0  0  0
   29.0169  -21.1582  -16.9186 C   0  0  2  0  0  0  0  0  0  0  0  0
   29.9798  -22.1734  -17.4366 C   0  0  0  0  0  0  0  0  0  0  0  0
   28.1151  -21.7442  -15.8265 C   0  0  0  0  0  0  0  0  0  0  0  0
   27.1029  -20.6633  -15.4759 C   0  0  2  0  0  0  0  0  0  0  0  0
   27.8445  -19.5808  -14.8564 N   0  0  0  0  0  0  0  0  0  0  0  0
   26.0459  -21.1428  -14.5846 C   0  0  0  0  0  0  0  0  0  0  0  0
   25.3092  -22.1109  -14.9771 O   0  0  0  0  0  0  0  0  0  0  0  0
   25.8792  -19.4333   -8.4314 C   0  0  0  0  0  0  0  0  0  0  0  0
   26.4260  -21.1107   -8.7534 S   0  0  0  0  0  0  0  0  0  0  0  0
   26.2079  -21.5662  -10.5060 C   0  0  0  0  0  0  0  0  0  0  0  0
   24.9715  -20.8856  -10.9910 C   0  0  0  0  0  0  0  0  0  0  0  0
   24.6778  -21.1079  -12.4516 C   0  0  2  0  0  0  0  0  0  0  0  0
   25.7466  -20.6371  -13.3068 N   0  0  0  0  0  0  0  0  0  0  0  0
   23.3541  -20.6428  -12.8493 C   0  0  0  0  0  0  0  0  0  0  0  0
   22.9912  -19.4401  -12.8333 O   0  0  0  0  0  0  0  0  0  0  0  0
   22.3818  -21.5804  -13.2904 N   0  0  0  0  0  0  0  0  0  0  0  0
   21.0184  -21.1786  -13.6415 C   0  0  1  0  0  0  0  0  0  0  0  0
   20.6670  -21.9210  -14.9304 C   0  0  0  0  0  0  0  0  0  0  0  0
   21.8398  -21.4263  -16.2237 S   0  0  0  0  0  0  0  0  0  0  0  0
   20.0688  -21.4581  -12.5685 C   0  0  0  0  0  0  0  0  0  0  0  0
   18.7852  -20.9552  -12.6179 O   0  0  0  0  0  0  0  0  0  0  0  0
   20.4099  -22.1578  -11.5912 O   0  0  0  0  0  0  0  0  0  0  0  0
  2  1  1  6
  3  2  1  0
  4  2  1  0
  5  4  1  0
  5  6  1  1
  7  8  2  0
  7  5  1  0
  9 10  1  0
 11 10  1  0
 12 11  1  0
 13 12  1  1
 13 14  1  0
 14  7  1  0
 15 13  1  0
 15 17  1  0
 16 15  2  0
 18 17  1  0
 18 21  1  0
 18 19  1  6
 20 19  1  0
 21 22  1  0
 23 21  2  0
M  END
$$$$
