LMC.pdb
     RDKit          3D

 23 22  0  0  1  0  0  0  0  0999 V2000
   18.7973  -14.3091  -15.1901 C   0  0  0  0  0  0  0  0  0  0  0  0
   19.1230  -13.9195  -16.6101 C   0  0  2  0  0  0  0  0  0  0  0  0
   20.5261  -14.3051  -16.9399 C   0  0  0  0  0  0  0  0  0  0  0  0
   18.8839  -12.4222  -16.8339 C   0  0  0  0  0  0  0  0  0  0  0  0
   17.4231  -12.1625  -16.4955 C   0  0  2  0  0  0  0  0  0  0  0  0
   16.6324  -12.8589  -17.4933 N   0  0  0  0  0  0  0  0  0  0  0  0
   17.0898  -10.7377  -16.4733 C   0  0  0  0  0  0  0  0  0  0  0  0
   17.0412  -10.1051  -17.5830 O   0  0  0  0  0  0  0  0  0  0  0  0
   12.3179   -5.1167  -14.2492 C   0  0  0  0  0  0  0  0  0  0  0  0
   13.0042   -6.7675  -14.1083 S   0  0  0  0  0  0  0  0  0  0  0  0
   14.6601   -6.8761  -14.8651 C   0  0  0  0  0  0  0  0  0  0  0  0
   15.0748   -8.3090  -14.8221 C   0  0  0  0  0  0  0  0  0  0  0  0
   16.4701   -8.5628  -15.3298 C   0  0  2  0  0  0  0  0  0  0  0  0
   16.8098   -9.9699  -15.3288 N   0  0  0  0  0  0  0  0  0  0  0  0
   17.4742   -7.7118  -14.7019 C   0  0  0  0  0  0  0  0  0  0  0  0
   17.9963   -7.9399  -13.5821 O   0  0  0  0  0  0  0  0  0  0  0  0
   17.9181   -6.5378  -15.3680 N   0  0  0  0  0  0  0  0  0  0  0  0
   18.9881   -5.6964  -14.8290 C   0  0  1  0  0  0  0  0  0  0  0  0
   20.3022   -6.2904  -15.3351 C   0  0  0  0  0  0  0  0  0  0  0  0
   20.9655   -7.4012  -14.0625 S   0  0  0  0  0  0  0  0  0  0  0  0
   18.8330   -4.2963  -15.2121 C   0  0  0  0  0  0  0  0  0  0  0  0
   17.8800   -3.9226  -16.1370 O   0  0  0  0  0  0  0  0  0  0  0  0
   19.5639   -3.4191  -14.7049 O   0  0  0  0  0  0  0  0  0  0  0  0
  2  1  1  1
  3  2  1  0
  4  2  1  0
  5  4  1  0
  5  6  1  6
  7  8  2  0
  7  5  1  0
  9 10  1  0
 11 10  1  0
 12 11  1  0
 13 12  1  1
 13 14  1  0
 14  7  1  0
 15 13  1  0
 15 17  1  0
 16 15  2  0
 18 17  1  0
 18 21  1  0
 18 19  1  6
 20 19  1  0
 21 22  1  0
 23 21  2  0
M  END
$$$$
