PTA.pdb
     RDKit          3D

 20 20  0  0  1  0  0  0  0  0999 V2000
   17.6519  -11.2497  -15.8865 N   0  0  0  0  0  0  0  0  0  0  0  0
   16.9556  -12.5036  -16.0374 C   0  0  0  0  0  0  0  0  0  0  0  0
   17.9855  -13.5681  -16.2918 C   0  0  0  0  0  0  0  0  0  0  0  0
   19.1804  -12.7194  -16.7499 C   0  0  0  0  0  0  0  0  0  0  0  0
   19.0442  -11.5792  -15.7522 C   0  0  1  0  0  0  0  0  0  0  0  0
   19.9500  -10.4697  -16.0095 C   0  0  0  0  0  0  0  0  0  0  0  0
   21.1921  -10.6488  -15.9044 O   0  0  0  0  0  0  0  0  0  0  0  0
   18.5390   -7.1494  -18.1951 C   0  0  0  0  0  0  0  0  0  0  0  0
   19.9827   -7.5715  -18.0598 C   0  0  1  0  0  0  0  0  0  0  0  0
   20.7285   -6.4093  -18.3388 O   0  0  0  0  0  0  0  0  0  0  0  0
   20.3357   -8.0498  -16.6623 C   0  0  2  0  0  0  0  0  0  0  0  0
   19.4599   -9.2140  -16.3703 N   0  0  0  0  0  0  0  0  0  0  0  0
   20.1669   -7.0371  -15.6134 C   0  0  0  0  0  0  0  0  0  0  0  0
   18.9787   -6.7744  -15.1922 O   0  0  0  0  0  0  0  0  0  0  0  0
   22.2348   -5.1298  -13.1257 C   0  0  0  0  0  0  0  0  0  0  0  0
   20.9695   -5.3493  -13.9287 C   0  0  2  0  0  0  0  0  0  0  0  0
   21.1889   -6.3075  -15.0019 N   0  0  0  0  0  0  0  0  0  0  0  0
   20.6096   -4.0427  -14.5361 C   0  0  0  0  0  0  0  0  0  0  0  0
   19.9715   -3.0258  -13.8399 O   0  0  0  0  0  0  0  0  0  0  0  0
   20.8749   -3.7859  -15.7534 O   0  0  0  0  0  0  0  0  0  0  0  0
  1  2  1  0
  3  2  1  0
  4  3  1  0
  4  5  1  0
  5  1  1  0
  6 12  1  0
  5  6  1  6
  7  6  2  0
  9  8  1  1
  9 11  1  0
 10  9  1  0
 11 12  1  1
 11 13  1  0
 13 14  2  0
 16 15  1  6
 16 18  1  0
 17 13  1  0
 17 16  1  0
 18 19  1  0
 20 18  2  0
M  END
$$$$
