PTA.pdb
     RDKit          3D

 20 20  0  0  1  0  0  0  0  0999 V2000
   28.4620  -20.8750  -15.9576 N   0  0  0  0  0  0  0  0  0  0  0  0
   29.0880  -19.9137  -16.8316 C   0  0  0  0  0  0  0  0  0  0  0  0
   28.3771  -18.6023  -16.6491 C   0  0  0  0  0  0  0  0  0  0  0  0
   27.0583  -19.0672  -16.0145 C   0  0  0  0  0  0  0  0  0  0  0  0
   27.6196  -20.1202  -15.0711 C   0  0  1  0  0  0  0  0  0  0  0  0
   26.5948  -20.9081  -14.4028 C   0  0  0  0  0  0  0  0  0  0  0  0
   26.3920  -22.0960  -14.7686 O   0  0  0  0  0  0  0  0  0  0  0  0
   26.2928  -21.4968  -10.7525 C   0  0  0  0  0  0  0  0  0  0  0  0
   24.9531  -20.9624  -11.2000 C   0  0  1  0  0  0  0  0  0  0  0  0
   24.9786  -19.5936  -10.8678 O   0  0  0  0  0  0  0  0  0  0  0  0
   24.7283  -21.0937  -12.6963 C   0  0  2  0  0  0  0  0  0  0  0  0
   25.8367  -20.3645  -13.3651 N   0  0  0  0  0  0  0  0  0  0  0  0
   23.4425  -20.5638  -13.1658 C   0  0  0  0  0  0  0  0  0  0  0  0
   23.3056  -19.2892  -13.2874 O   0  0  0  0  0  0  0  0  0  0  0  0
   20.3271  -21.7974  -14.8533 C   0  0  0  0  0  0  0  0  0  0  0  0
   21.1082  -20.7506  -14.0862 C   0  0  2  0  0  0  0  0  0  0  0  0
   22.3177  -21.3176  -13.5084 N   0  0  0  0  0  0  0  0  0  0  0  0
   20.2359  -20.2844  -12.9784 C   0  0  0  0  0  0  0  0  0  0  0  0
   19.2090  -19.3665  -13.1483 O   0  0  0  0  0  0  0  0  0  0  0  0
   20.3912  -20.7141  -11.7911 O   0  0  0  0  0  0  0  0  0  0  0  0
  1  2  1  0
  3  2  1  0
  4  3  1  0
  4  5  1  0
  5  1  1  0
  6 12  1  0
  5  6  1  6
  7  6  2  0
  9  8  1  6
  9 11  1  0
 10  9  1  0
 11 12  1  6
 11 13  1  0
 13 14  2  0
 16 15  1  1
 16 18  1  0
 17 13  1  0
 17 16  1  0
 18 19  1  0
 20 18  2  0
M  END
$$$$
