PTA.pdb
     RDKit          3D

 20 20  0  0  1  0  0  0  0  0999 V2000
   24.7948  -12.4512  -17.1483 N   0  0  0  0  0  0  0  0  0  0  0  0
   26.0905  -13.0425  -16.9211 C   0  0  0  0  0  0  0  0  0  0  0  0
   26.7823  -12.2297  -15.8631 C   0  0  0  0  0  0  0  0  0  0  0  0
   25.9793  -10.9223  -15.9232 C   0  0  0  0  0  0  0  0  0  0  0  0
   24.5878  -11.5176  -16.0756 C   0  0  1  0  0  0  0  0  0  0  0  0
   23.5558  -10.5253  -16.3358 C   0  0  0  0  0  0  0  0  0  0  0  0
   23.2242  -10.2757  -17.5248 O   0  0  0  0  0  0  0  0  0  0  0  0
   20.0877  -10.5998  -15.4902 C   0  0  0  0  0  0  0  0  0  0  0  0
   20.6144   -9.3437  -14.8381 C   0  0  1  0  0  0  0  0  0  0  0  0
   20.9145   -9.7203  -13.5141 O   0  0  0  0  0  0  0  0  0  0  0  0
   21.8810   -8.8187  -15.4914 C   0  0  2  0  0  0  0  0  0  0  0  0
   22.9315   -9.8494  -15.2869 N   0  0  0  0  0  0  0  0  0  0  0  0
   22.3494   -7.5328  -14.9610 C   0  0  0  0  0  0  0  0  0  0  0  0
   22.9451   -7.5141  -13.8195 O   0  0  0  0  0  0  0  0  0  0  0  0
   22.6347   -3.9208  -16.0495 C   0  0  0  0  0  0  0  0  0  0  0  0
   22.7927   -5.0580  -15.0617 C   0  0  2  0  0  0  0  0  0  0  0  0
   22.2168   -6.2890  -15.5824 N   0  0  0  0  0  0  0  0  0  0  0  0
   22.0456   -4.6749  -13.8367 C   0  0  0  0  0  0  0  0  0  0  0  0
   20.8036   -5.1971  -13.5041 O   0  0  0  0  0  0  0  0  0  0  0  0
   22.5191   -3.8292  -13.0128 O   0  0  0  0  0  0  0  0  0  0  0  0
  1  2  1  0
  3  2  1  0
  4  3  1  0
  4  5  1  0
  5  1  1  0
  6 12  1  0
  5  6  1  6
  7  6  2  0
  9  8  1  6
  9 11  1  0
 10  9  1  0
 11 12  1  1
 11 13  1  0
 13 14  2  0
 16 15  1  6
 16 18  1  0
 17 13  1  0
 17 16  1  0
 18 19  1  0
 20 18  2  0
M  END
$$$$
