PTA.pdb
     RDKit          3D

 20 20  0  0  1  0  0  0  0  0999 V2000
   26.7961  -20.8678  -15.4685 N   0  0  0  0  0  0  0  0  0  0  0  0
   27.9298  -21.5968  -15.9815 C   0  0  0  0  0  0  0  0  0  0  0  0
   28.7476  -20.6439  -16.8071 C   0  0  0  0  0  0  0  0  0  0  0  0
   27.7188  -19.5395  -17.0890 C   0  0  0  0  0  0  0  0  0  0  0  0
   27.0694  -19.4786  -15.7147 C   0  0  1  0  0  0  0  0  0  0  0  0
   25.8964  -18.6189  -15.6631 C   0  0  0  0  0  0  0  0  0  0  0  0
   26.0172  -17.3925  -15.9225 O   0  0  0  0  0  0  0  0  0  0  0  0
   23.0761  -19.0105  -17.8073 C   0  0  0  0  0  0  0  0  0  0  0  0
   23.2334  -17.8723  -16.8274 C   0  0  1  0  0  0  0  0  0  0  0  0
   22.0374  -17.1353  -16.9318 O   0  0  0  0  0  0  0  0  0  0  0  0
   23.3908  -18.3396  -15.3909 C   0  0  2  0  0  0  0  0  0  0  0  0
   24.6438  -19.1359  -15.3306 N   0  0  0  0  0  0  0  0  0  0  0  0
   22.2736  -19.1493  -14.8902 C   0  0  0  0  0  0  0  0  0  0  0  0
   22.2028  -20.3876  -15.2363 O   0  0  0  0  0  0  0  0  0  0  0  0
   19.3755  -18.8626  -12.4793 C   0  0  0  0  0  0  0  0  0  0  0  0
   20.1881  -19.5670  -13.5459 C   0  0  2  0  0  0  0  0  0  0  0  0
   21.2491  -18.7077  -14.0499 N   0  0  0  0  0  0  0  0  0  0  0  0
   19.2618  -19.8708  -14.6663 C   0  0  0  0  0  0  0  0  0  0  0  0
   18.3708  -20.9347  -14.6546 O   0  0  0  0  0  0  0  0  0  0  0  0
   19.2395  -19.1534  -15.7166 O   0  0  0  0  0  0  0  0  0  0  0  0
  1  2  1  0
  3  2  1  0
  4  3  1  0
  4  5  1  0
  5  1  1  0
  6 12  1  0
  5  6  1  6
  7  6  2  0
  9  8  1  6
  9 11  1  0
 10  9  1  0
 11 12  1  6
 11 13  1  0
 13 14  2  0
 16 15  1  1
 16 18  1  0
 17 13  1  0
 17 16  1  0
 18 19  1  0
 20 18  2  0
M  END
$$$$
