PTA.pdb
     RDKit          3D

 20 20  0  0  1  0  0  0  0  0999 V2000
   24.2083  -11.6215  -15.9442 N   0  0  0  0  0  0  0  0  0  0  0  0
   24.8460  -12.9123  -16.0293 C   0  0  0  0  0  0  0  0  0  0  0  0
   24.8985  -13.2989  -17.4806 C   0  0  0  0  0  0  0  0  0  0  0  0
   23.8228  -12.3760  -18.0711 C   0  0  0  0  0  0  0  0  0  0  0  0
   24.1516  -11.1143  -17.2875 C   0  0  1  0  0  0  0  0  0  0  0  0
   23.1886  -10.0408  -17.4824 C   0  0  0  0  0  0  0  0  0  0  0  0
   23.2761   -9.3102  -18.5044 O   0  0  0  0  0  0  0  0  0  0  0  0
   19.6632  -10.5260  -17.9426 C   0  0  0  0  0  0  0  0  0  0  0  0
   19.7808   -9.5778  -16.7732 C   0  0  1  0  0  0  0  0  0  0  0  0
   19.7250  -10.4009  -15.6312 O   0  0  0  0  0  0  0  0  0  0  0  0
   21.0926   -8.8127  -16.7553 C   0  0  2  0  0  0  0  0  0  0  0  0
   22.1730   -9.8125  -16.5533 N   0  0  0  0  0  0  0  0  0  0  0  0
   21.1803   -7.7825  -15.7135 C   0  0  0  0  0  0  0  0  0  0  0  0
   21.5820   -8.1231  -14.5384 O   0  0  0  0  0  0  0  0  0  0  0  0
   20.1166   -5.9972  -13.5745 C   0  0  0  0  0  0  0  0  0  0  0  0
   20.8772   -5.4685  -14.7729 C   0  0  2  0  0  0  0  0  0  0  0  0
   20.8681   -6.4297  -15.8657 N   0  0  0  0  0  0  0  0  0  0  0  0
   22.2834   -5.2678  -14.3396 C   0  0  0  0  0  0  0  0  0  0  0  0
   22.6648   -4.3286  -13.3917 O   0  0  0  0  0  0  0  0  0  0  0  0
   23.2297   -5.9638  -14.8279 O   0  0  0  0  0  0  0  0  0  0  0  0
  1  2  1  0
  3  2  1  0
  4  3  1  0
  4  5  1  0
  5  1  1  0
  6 12  1  0
  5  6  1  1
  7  6  2  0
  9  8  1  6
  9 11  1  0
 10  9  1  0
 11 12  1  1
 11 13  1  0
 13 14  2  0
 16 15  1  1
 16 18  1  0
 17 13  1  0
 17 16  1  0
 18 19  1  0
 20 18  2  0
M  END
$$$$
