PTA.pdb
     RDKit          3D

 20 20  0  0  1  0  0  0  0  0999 V2000
   18.2741  -11.3937  -15.0741 N   0  0  0  0  0  0  0  0  0  0  0  0
   17.6942  -12.7140  -15.0941 C   0  0  0  0  0  0  0  0  0  0  0  0
   18.4075  -13.5081  -16.1521 C   0  0  0  0  0  0  0  0  0  0  0  0
   19.0308  -12.3853  -16.9939 C   0  0  0  0  0  0  0  0  0  0  0  0
   19.4740  -11.4720  -15.8610 C   0  0  1  0  0  0  0  0  0  0  0  0
   19.9779  -10.1845  -16.3149 C   0  0  0  0  0  0  0  0  0  0  0  0
   21.0345  -10.1406  -16.9986 O   0  0  0  0  0  0  0  0  0  0  0  0
   18.6307   -7.8081  -18.7126 C   0  0  0  0  0  0  0  0  0  0  0  0
   18.6778   -7.1159  -17.3712 C   0  0  1  0  0  0  0  0  0  0  0  0
   17.4224   -7.3726  -16.7857 O   0  0  0  0  0  0  0  0  0  0  0  0
   19.7600   -7.6620  -16.4561 C   0  0  2  0  0  0  0  0  0  0  0  0
   19.3061   -9.0021  -16.0024 N   0  0  0  0  0  0  0  0  0  0  0  0
   20.0468   -6.8224  -15.2869 C   0  0  0  0  0  0  0  0  0  0  0  0
   19.3005   -6.9379  -14.2439 O   0  0  0  0  0  0  0  0  0  0  0  0
   22.6799   -4.4645  -13.9912 C   0  0  0  0  0  0  0  0  0  0  0  0
   21.2743   -5.0281  -14.0200 C   0  0  2  0  0  0  0  0  0  0  0  0
   21.0763   -5.8846  -15.1799 N   0  0  0  0  0  0  0  0  0  0  0  0
   20.3465   -3.8736  -14.1287 C   0  0  0  0  0  0  0  0  0  0  0  0
   20.0421   -3.0347  -13.0659 O   0  0  0  0  0  0  0  0  0  0  0  0
   19.7718   -3.5905  -15.2277 O   0  0  0  0  0  0  0  0  0  0  0  0
  1  2  1  0
  3  2  1  0
  4  3  1  0
  4  5  1  0
  5  1  1  0
  6 12  1  0
  5  6  1  6
  7  6  2  0
  9  8  1  6
  9 11  1  0
 10  9  1  0
 11 12  1  1
 11 13  1  0
 13 14  2  0
 16 15  1  6
 16 18  1  0
 17 13  1  0
 17 16  1  0
 18 19  1  0
 20 18  2  0
M  END
$$$$
