PTA.pdb
     RDKit          3D

 20 20  0  0  1  0  0  0  0  0999 V2000
   24.5937  -12.3142  -15.9039 N   0  0  0  0  0  0  0  0  0  0  0  0
   25.0574  -13.6795  -15.8741 C   0  0  0  0  0  0  0  0  0  0  0  0
   24.6936  -14.3122  -17.1879 C   0  0  0  0  0  0  0  0  0  0  0  0
   23.5977  -13.3569  -17.6822 C   0  0  0  0  0  0  0  0  0  0  0  0
   24.2409  -12.0414  -17.2700 C   0  0  1  0  0  0  0  0  0  0  0  0
   23.3708  -10.8883  -17.4454 C   0  0  0  0  0  0  0  0  0  0  0  0
   23.1323  -10.4651  -18.6073 O   0  0  0  0  0  0  0  0  0  0  0  0
   19.9056  -10.6437  -16.8423 C   0  0  0  0  0  0  0  0  0  0  0  0
   20.5133   -9.5719  -15.9691 C   0  0  1  0  0  0  0  0  0  0  0  0
   20.6832  -10.1819  -14.7105 O   0  0  0  0  0  0  0  0  0  0  0  0
   21.8683   -9.0968  -16.4640 C   0  0  2  0  0  0  0  0  0  0  0  0
   22.7997  -10.2483  -16.3449 N   0  0  0  0  0  0  0  0  0  0  0  0
   22.4146   -7.9495  -15.7294 C   0  0  0  0  0  0  0  0  0  0  0  0
   23.0894   -8.1672  -14.6545 O   0  0  0  0  0  0  0  0  0  0  0  0
   22.7517   -4.2016  -16.0859 C   0  0  0  0  0  0  0  0  0  0  0  0
   22.8494   -5.5051  -15.3208 C   0  0  2  0  0  0  0  0  0  0  0  0
   22.2794   -6.6054  -16.0841 N   0  0  0  0  0  0  0  0  0  0  0  0
   22.0545   -5.3384  -14.0775 C   0  0  0  0  0  0  0  0  0  0  0  0
   22.5233   -4.6727  -12.9537 O   0  0  0  0  0  0  0  0  0  0  0  0
   20.8767   -5.8092  -13.9797 O   0  0  0  0  0  0  0  0  0  0  0  0
  1  2  1  0
  3  2  1  0
  4  3  1  0
  4  5  1  0
  5  1  1  0
  6 12  1  0
  5  6  1  1
  7  6  2  0
  9  8  1  6
  9 11  1  0
 10  9  1  0
 11 12  1  1
 11 13  1  0
 13 14  2  0
 16 15  1  6
 16 18  1  0
 17 13  1  0
 17 16  1  0
 18 19  1  0
 20 18  2  0
M  END
$$$$
