PTA.pdb
     RDKit          3D

 20 20  0  0  1  0  0  0  0  0999 V2000
   23.4905  -13.6540  -16.9552 N   0  0  0  0  0  0  0  0  0  0  0  0
   24.5884  -14.5559  -16.7080 C   0  0  0  0  0  0  0  0  0  0  0  0
   25.6031  -13.8206  -15.8784 C   0  0  0  0  0  0  0  0  0  0  0  0
   25.1943  -12.3630  -16.1353 C   0  0  0  0  0  0  0  0  0  0  0  0
   23.6844  -12.5367  -16.0725 C   0  0  1  0  0  0  0  0  0  0  0  0
   22.9450  -11.3410  -16.4482 C   0  0  0  0  0  0  0  0  0  0  0  0
   22.8133  -11.0534  -17.6672 O   0  0  0  0  0  0  0  0  0  0  0  0
   19.4981  -10.7749  -16.0280 C   0  0  0  0  0  0  0  0  0  0  0  0
   20.1473   -9.6164  -15.3090 C   0  0  1  0  0  0  0  0  0  0  0  0
   20.2176  -10.0191  -13.9608 O   0  0  0  0  0  0  0  0  0  0  0  0
   21.5538   -9.3221  -15.8007 C   0  0  2  0  0  0  0  0  0  0  0  0
   22.3824  -10.5122  -15.4769 N   0  0  0  0  0  0  0  0  0  0  0  0
   22.1657   -8.1262  -15.2095 C   0  0  0  0  0  0  0  0  0  0  0  0
   22.7711   -8.2355  -14.0782 O   0  0  0  0  0  0  0  0  0  0  0  0
   22.7695   -4.4871  -16.0522 C   0  0  0  0  0  0  0  0  0  0  0  0
   22.7954   -5.6912  -15.1338 C   0  0  2  0  0  0  0  0  0  0  0  0
   22.1645   -6.8430  -15.7611 N   0  0  0  0  0  0  0  0  0  0  0  0
   22.0122   -5.3310  -13.9246 C   0  0  0  0  0  0  0  0  0  0  0  0
   20.7119   -5.7608  -13.6998 O   0  0  0  0  0  0  0  0  0  0  0  0
   22.5068   -4.5931  -13.0141 O   0  0  0  0  0  0  0  0  0  0  0  0
  1  2  1  0
  3  2  1  0
  4  3  1  0
  4  5  1  0
  5  1  1  0
  6 12  1  0
  5  6  1  6
  7  6  2  0
  9  8  1  6
  9 11  1  0
 10  9  1  0
 11 12  1  1
 11 13  1  0
 13 14  2  0
 16 15  1  6
 16 18  1  0
 17 13  1  0
 17 16  1  0
 18 19  1  0
 20 18  2  0
M  END
$$$$
