PTA.pdb
     RDKit          3D

 20 20  0  0  1  0  0  0  0  0999 V2000
   19.5142  -11.3010  -15.4655 N   0  0  0  0  0  0  0  0  0  0  0  0
   18.8371  -12.2405  -16.3250 C   0  0  0  0  0  0  0  0  0  0  0  0
   17.8991  -11.4602  -17.2023 C   0  0  0  0  0  0  0  0  0  0  0  0
   17.7749  -10.1505  -16.4104 C   0  0  0  0  0  0  0  0  0  0  0  0
   19.2308   -9.9964  -15.9975 C   0  0  1  0  0  0  0  0  0  0  0  0
   19.4578   -8.9055  -15.0615 C   0  0  0  0  0  0  0  0  0  0  0  0
   19.0643   -9.0208  -13.8708 O   0  0  0  0  0  0  0  0  0  0  0  0
   22.0940   -5.0384  -13.7002 C   0  0  0  0  0  0  0  0  0  0  0  0
   21.7646   -6.2697  -14.5102 C   0  0  1  0  0  0  0  0  0  0  0  0
   22.3889   -7.3317  -13.8268 O   0  0  0  0  0  0  0  0  0  0  0  0
   20.2744   -6.5522  -14.5867 C   0  0  2  0  0  0  0  0  0  0  0  0
   20.1040   -7.7371  -15.4668 N   0  0  0  0  0  0  0  0  0  0  0  0
   19.4714   -5.4389  -15.1066 C   0  0  0  0  0  0  0  0  0  0  0  0
   19.5641   -5.1392  -16.3555 O   0  0  0  0  0  0  0  0  0  0  0  0
   16.5918   -3.2576  -14.0762 C   0  0  0  0  0  0  0  0  0  0  0  0
   17.7935   -3.5710  -14.9432 C   0  0  2  0  0  0  0  0  0  0  0  0
   18.5878   -4.6472  -14.3696 N   0  0  0  0  0  0  0  0  0  0  0  0
   18.6299   -2.3445  -14.9844 C   0  0  0  0  0  0  0  0  0  0  0  0
   18.3463   -1.2525  -15.7924 O   0  0  0  0  0  0  0  0  0  0  0  0
   19.6722   -2.2326  -14.2638 O   0  0  0  0  0  0  0  0  0  0  0  0
  1  2  1  0
  3  2  1  0
  4  3  1  0
  4  5  1  0
  5  1  1  0
  6 12  1  0
  5  6  1  1
  7  6  2  0
  9  8  1  1
  9 11  1  0
 10  9  1  0
 11 12  1  6
 11 13  1  0
 13 14  2  0
 16 15  1  1
 16 18  1  0
 17 13  1  0
 17 16  1  0
 18 19  1  0
 20 18  2  0
M  END
$$$$
