PTA.pdb
     RDKit          3D

 20 20  0  0  1  0  0  0  0  0999 V2000
   19.0568  -12.0046  -15.7031 N   0  0  0  0  0  0  0  0  0  0  0  0
   18.4712  -13.3171  -15.8229 C   0  0  0  0  0  0  0  0  0  0  0  0
   19.2916  -14.0923  -16.8152 C   0  0  0  0  0  0  0  0  0  0  0  0
   20.0153  -12.9559  -17.5518 C   0  0  0  0  0  0  0  0  0  0  0  0
   20.3366  -12.0769  -16.3526 C   0  0  1  0  0  0  0  0  0  0  0  0
   20.8996  -10.7843  -16.7129 C   0  0  0  0  0  0  0  0  0  0  0  0
   22.0465  -10.7324  -17.2305 O   0  0  0  0  0  0  0  0  0  0  0  0
   20.0882   -8.4543  -19.3138 C   0  0  0  0  0  0  0  0  0  0  0  0
   19.8186   -7.7579  -18.0012 C   0  0  1  0  0  0  0  0  0  0  0  0
   18.4760   -8.0596  -17.6990 O   0  0  0  0  0  0  0  0  0  0  0  0
   20.6952   -8.2615  -16.8678 C   0  0  2  0  0  0  0  0  0  0  0  0
   20.1858   -9.6059  -16.4924 N   0  0  0  0  0  0  0  0  0  0  0  0
   20.7102   -7.3969  -15.6818 C   0  0  0  0  0  0  0  0  0  0  0  0
   19.8636   -7.6251  -14.7387 O   0  0  0  0  0  0  0  0  0  0  0  0
   22.7565   -4.5967  -14.1834 C   0  0  0  0  0  0  0  0  0  0  0  0
   21.5319   -5.4839  -14.2689 C   0  0  2  0  0  0  0  0  0  0  0  0
   21.5732   -6.3217  -15.4582 N   0  0  0  0  0  0  0  0  0  0  0  0
   20.3529   -4.5866  -14.3708 C   0  0  0  0  0  0  0  0  0  0  0  0
   19.7913   -3.9354  -13.2815 O   0  0  0  0  0  0  0  0  0  0  0  0
   19.7867   -4.3660  -15.4884 O   0  0  0  0  0  0  0  0  0  0  0  0
  1  2  1  0
  3  2  1  0
  4  3  1  0
  4  5  1  0
  5  1  1  0
  6 12  1  0
  5  6  1  6
  7  6  2  0
  9  8  1  6
  9 11  1  0
 10  9  1  0
 11 12  1  1
 11 13  1  0
 13 14  2  0
 16 15  1  6
 16 18  1  0
 17 13  1  0
 17 16  1  0
 18 19  1  0
 20 18  2  0
M  END
$$$$
