PTA.pdb
     RDKit          3D

 20 20  0  0  1  0  0  0  0  0999 V2000
   21.0216  -15.3923  -15.2355 N   0  0  0  0  0  0  0  0  0  0  0  0
   20.6623  -16.7171  -14.7933 C   0  0  0  0  0  0  0  0  0  0  0  0
   19.6530  -17.2625  -15.7641 C   0  0  0  0  0  0  0  0  0  0  0  0
   19.1567  -15.9713  -16.4307 C   0  0  0  0  0  0  0  0  0  0  0  0
   20.4933  -15.2575  -16.5651 C   0  0  1  0  0  0  0  0  0  0  0  0
   20.3746  -13.8823  -17.0261 C   0  0  0  0  0  0  0  0  0  0  0  0
   20.9513  -13.5355  -18.0905 O   0  0  0  0  0  0  0  0  0  0  0  0
   17.5208  -12.1709  -18.2894 C   0  0  0  0  0  0  0  0  0  0  0  0
   17.9509  -11.3923  -17.0689 C   0  0  1  0  0  0  0  0  0  0  0  0
   17.2060  -11.9414  -16.0067 O   0  0  0  0  0  0  0  0  0  0  0  0
   19.4288  -11.5453  -16.7542 C   0  0  2  0  0  0  0  0  0  0  0  0
   19.6318  -12.9469  -16.3049 N   0  0  0  0  0  0  0  0  0  0  0  0
   19.9286  -10.6258  -15.7251 C   0  0  0  0  0  0  0  0  0  0  0  0
   19.6224  -10.8489  -14.4944 O   0  0  0  0  0  0  0  0  0  0  0  0
   22.2241   -7.6374  -15.4080 C   0  0  0  0  0  0  0  0  0  0  0  0
   21.2080   -8.6299  -14.8822 C   0  0  2  0  0  0  0  0  0  0  0  0
   20.7282   -9.5018  -15.9441 N   0  0  0  0  0  0  0  0  0  0  0  0
   20.0579   -7.8423  -14.3696 C   0  0  0  0  0  0  0  0  0  0  0  0
   20.0221   -7.2777  -13.1024 O   0  0  0  0  0  0  0  0  0  0  0  0
   19.0248   -7.6421  -15.0844 O   0  0  0  0  0  0  0  0  0  0  0  0
  1  2  1  0
  3  2  1  0
  4  3  1  0
  4  5  1  0
  5  1  1  0
  6 12  1  0
  5  6  1  1
  7  6  2  0
  9  8  1  6
  9 11  1  0
 10  9  1  0
 11 12  1  1
 11 13  1  0
 13 14  2  0
 16 15  1  6
 16 18  1  0
 17 13  1  0
 17 16  1  0
 18 19  1  0
 20 18  2  0
M  END
$$$$
