PTA.pdb
     RDKit          3D

 20 20  0  0  1  0  0  0  0  0999 V2000
   18.1376  -11.9191  -14.8814 N   0  0  0  0  0  0  0  0  0  0  0  0
   17.4831  -13.2041  -14.8940 C   0  0  0  0  0  0  0  0  0  0  0  0
   17.4574  -13.6875  -16.3167 C   0  0  0  0  0  0  0  0  0  0  0  0
   17.6849  -12.3742  -17.0790 C   0  0  0  0  0  0  0  0  0  0  0  0
   18.7468  -11.7680  -16.1741 C   0  0  1  0  0  0  0  0  0  0  0  0
   19.0902  -10.3963  -16.5179 C   0  0  0  0  0  0  0  0  0  0  0  0
   19.6850  -10.1616  -17.6029 O   0  0  0  0  0  0  0  0  0  0  0  0
   16.9014   -7.4062  -14.6879 C   0  0  0  0  0  0  0  0  0  0  0  0
   17.6386   -7.2352  -15.9948 C   0  0  1  0  0  0  0  0  0  0  0  0
   17.8299   -5.8455  -16.1248 O   0  0  0  0  0  0  0  0  0  0  0  0
   18.9970   -7.9144  -16.0064 C   0  0  2  0  0  0  0  0  0  0  0  0
   18.7692   -9.3418  -15.6625 N   0  0  0  0  0  0  0  0  0  0  0  0
   19.9721   -7.3374  -15.0732 C   0  0  0  0  0  0  0  0  0  0  0  0
   19.8751   -7.6234  -13.8214 O   0  0  0  0  0  0  0  0  0  0  0  0
   23.3055   -5.6234  -15.1436 C   0  0  0  0  0  0  0  0  0  0  0  0
   22.0125   -6.0025  -14.4519 C   0  0  2  0  0  0  0  0  0  0  0  0
   21.0286   -6.4876  -15.4084 N   0  0  0  0  0  0  0  0  0  0  0  0
   21.4805   -4.7680  -13.8207 C   0  0  0  0  0  0  0  0  0  0  0  0
   20.3019   -4.1527  -14.2185 O   0  0  0  0  0  0  0  0  0  0  0  0
   22.0941   -4.2006  -12.8615 O   0  0  0  0  0  0  0  0  0  0  0  0
  1  2  1  0
  3  2  1  0
  4  3  1  0
  4  5  1  0
  5  1  1  0
  6 12  1  0
  5  6  1  6
  7  6  2  0
  9  8  1  1
  9 11  1  0
 10  9  1  0
 11 12  1  1
 11 13  1  0
 13 14  2  0
 16 15  1  6
 16 18  1  0
 17 13  1  0
 17 16  1  0
 18 19  1  0
 20 18  2  0
M  END
$$$$
