EHP.pdb
     RDKit          3D

 27 28  0  0  1  0  0  0  0  0999 V2000
   12.9843  -23.2921   -1.4058 N   0  0  0  0  0  0  0  0  0  0  0  0
   14.3748  -23.5700   -1.6356 C   0  0  1  0  0  0  0  0  0  0  0  0
   14.7616  -23.2704   -3.0391 C   0  0  0  0  0  0  0  0  0  0  0  0
   13.7099  -23.4777   -4.0702 C   0  0  0  0  0  0  0  0  0  0  0  0
   13.9825  -22.9940   -5.4147 C   0  0  0  0  0  0  0  0  0  0  0  0
   15.0682  -22.3868   -5.7072 O   0  0  0  0  0  0  0  0  0  0  0  0
   15.2733  -22.9567   -0.6061 C   0  0  0  0  0  0  0  0  0  0  0  0
   16.5160  -22.9660   -0.7338 O   0  0  0  0  0  0  0  0  0  0  0  0
   13.0710  -23.1739   -6.4547 O   0  0  0  0  0  0  0  0  0  0  0  0
   14.6648  -22.3733    0.5140 N   0  0  0  0  0  0  0  0  0  0  0  0
   15.3047  -21.7631    1.6311 C   0  0  1  0  0  0  0  0  0  0  0  0
   14.5948  -20.5497    2.2177 C   0  0  0  0  0  0  0  0  0  0  0  0
   15.4211  -19.8382    3.2226 C   0  0  0  0  0  0  0  0  0  0  0  0
   16.2656  -18.7587    2.9023 C   0  0  0  0  0  0  0  0  0  0  0  0
   16.8372  -18.3790    4.0451 N   0  0  0  0  0  0  0  0  0  0  0  0
   16.4095  -19.1463    5.0557 C   0  0  0  0  0  0  0  0  0  0  0  0
   15.5587  -20.0146    4.5311 N   0  0  0  0  0  0  0  0  0  0  0  0
   15.7757  -22.7079    2.6734 C   0  0  0  0  0  0  0  0  0  0  0  0
   14.7886  -23.3736    3.1639 O   0  0  0  0  0  0  0  0  0  0  0  0
   17.1007  -22.8656    3.0720 N   0  0  0  0  0  0  0  0  0  0  0  0
   18.3072  -22.3898    2.3666 C   0  0  0  0  0  0  0  0  0  0  0  0
   18.9309  -21.5614    3.4547 C   0  0  0  0  0  0  0  0  0  0  0  0
   18.5087  -22.2600    4.7373 C   0  0  0  0  0  0  0  0  0  0  0  0
   17.7115  -23.4898    4.1856 C   0  0  1  0  0  0  0  0  0  0  0  0
   16.9409  -24.0844    5.2433 C   0  0  0  0  0  0  0  0  0  0  0  0
   17.2497  -25.1917    5.9555 O   0  0  0  0  0  0  0  0  0  0  0  0
   15.8439  -23.5071    5.5455 O   0  0  0  0  0  0  0  0  0  0  0  0
  2  7  1  0
  2  1  1  1
  3  2  1  0
  4  3  1  0
  5  4  1  0
  5  6  2  0
  7  8  2  0
  9  5  1  0
 10  7  1  0
 10 11  1  0
 11 12  1  1
 12 13  1  0
 13 14  2  0
 15 14  1  0
 16 15  1  0
 17 13  1  0
 17 16  2  0
 18 11  1  0
 18 19  2  0
 20 18  1  0
 21 20  1  0
 22 21  1  0
 23 22  1  0
 24 23  1  0
 24 20  1  0
 24 25  1  1
 26 25  1  0
 27 25  2  0
M  END
$$$$
