EHP.pdb
     RDKit          3D

 27 28  0  0  1  0  0  0  0  0999 V2000
   18.8732  -15.4308  -17.4152 N   0  0  0  0  0  0  0  0  0  0  0  0
   18.3875  -14.1320  -17.0399 C   0  0  1  0  0  0  0  0  0  0  0  0
   17.5765  -14.1963  -15.7960 C   0  0  0  0  0  0  0  0  0  0  0  0
   16.3251  -14.9969  -15.8669 C   0  0  0  0  0  0  0  0  0  0  0  0
   15.4491  -14.9789  -14.7057 C   0  0  0  0  0  0  0  0  0  0  0  0
   15.4567  -15.9179  -13.8390 O   0  0  0  0  0  0  0  0  0  0  0  0
   19.4610  -13.0876  -17.0204 C   0  0  0  0  0  0  0  0  0  0  0  0
   20.6696  -13.3935  -16.9409 O   0  0  0  0  0  0  0  0  0  0  0  0
   14.5585  -13.9302  -14.4786 O   0  0  0  0  0  0  0  0  0  0  0  0
   19.0564  -11.7472  -17.0901 N   0  0  0  0  0  0  0  0  0  0  0  0
   19.8824  -10.5975  -17.2504 C   0  0  1  0  0  0  0  0  0  0  0  0
   20.1318  -10.1582  -18.6874 C   0  0  0  0  0  0  0  0  0  0  0  0
   21.0886   -9.0290  -18.7788 C   0  0  0  0  0  0  0  0  0  0  0  0
   22.4052   -9.1700  -19.2563 C   0  0  0  0  0  0  0  0  0  0  0  0
   22.9569   -7.9581  -19.1958 N   0  0  0  0  0  0  0  0  0  0  0  0
   22.0775   -7.0710  -18.7134 C   0  0  0  0  0  0  0  0  0  0  0  0
   20.9630   -7.7436  -18.4719 N   0  0  0  0  0  0  0  0  0  0  0  0
   19.5515   -9.4615  -16.3555 C   0  0  0  0  0  0  0  0  0  0  0  0
   18.4102   -8.9536  -16.6677 O   0  0  0  0  0  0  0  0  0  0  0  0
   20.3542   -9.0013  -15.3147 N   0  0  0  0  0  0  0  0  0  0  0  0
   21.5644   -9.6472  -14.7688 C   0  0  0  0  0  0  0  0  0  0  0  0
   22.5526   -8.5277  -14.9408 C   0  0  0  0  0  0  0  0  0  0  0  0
   21.7133   -7.2692  -14.7903 C   0  0  0  0  0  0  0  0  0  0  0  0
   20.2984   -7.8624  -14.4765 C   0  0  1  0  0  0  0  0  0  0  0  0
   19.2967   -6.8444  -14.6400 C   0  0  0  0  0  0  0  0  0  0  0  0
   18.5866   -6.2337  -13.6647 O   0  0  0  0  0  0  0  0  0  0  0  0
   19.0472   -6.4747  -15.8354 O   0  0  0  0  0  0  0  0  0  0  0  0
  2  7  1  0
  2  1  1  1
  3  2  1  0
  4  3  1  0
  5  4  1  0
  5  6  2  0
  7  8  2  0
  9  5  1  0
 10  7  1  0
 10 11  1  0
 11 12  1  6
 12 13  1  0
 13 14  2  0
 15 14  1  0
 16 15  1  0
 17 13  1  0
 17 16  2  0
 18 11  1  0
 18 19  2  0
 20 18  1  0
 21 20  1  0
 22 21  1  0
 23 22  1  0
 24 23  1  0
 24 20  1  0
 24 25  1  6
 26 25  1  0
 27 25  2  0
M  END
$$$$
