EHP.pdb
     RDKit          3D

 27 28  0  0  1  0  0  0  0  0999 V2000
   20.2694  -11.4713  -19.7502 N   0  0  0  0  0  0  0  0  0  0  0  0
   21.1731  -10.7205  -18.9236 C   0  0  1  0  0  0  0  0  0  0  0  0
   22.2700  -10.1206  -19.7274 C   0  0  0  0  0  0  0  0  0  0  0  0
   21.9867   -9.9076  -21.1719 C   0  0  0  0  0  0  0  0  0  0  0  0
   23.0445   -9.3293  -21.9859 C   0  0  0  0  0  0  0  0  0  0  0  0
   23.9458  -10.0502  -22.5343 O   0  0  0  0  0  0  0  0  0  0  0  0
   20.4739   -9.7528  -18.0191 C   0  0  0  0  0  0  0  0  0  0  0  0
   19.4489   -9.1394  -18.3847 O   0  0  0  0  0  0  0  0  0  0  0  0
   23.1242   -7.9555  -22.2118 O   0  0  0  0  0  0  0  0  0  0  0  0
   21.0184   -9.5565  -16.7422 N   0  0  0  0  0  0  0  0  0  0  0  0
   20.4783   -8.7790  -15.6776 C   0  0  1  0  0  0  0  0  0  0  0  0
   19.9243   -9.5679  -14.4982 C   0  0  0  0  0  0  0  0  0  0  0  0
   18.7512  -10.3958  -14.8686 C   0  0  0  0  0  0  0  0  0  0  0  0
   18.1437  -10.3492  -16.1374 C   0  0  0  0  0  0  0  0  0  0  0  0
   17.1357  -11.2208  -16.1019 N   0  0  0  0  0  0  0  0  0  0  0  0
   17.0710  -11.8071  -14.8998 C   0  0  0  0  0  0  0  0  0  0  0  0
   18.0548  -11.2915  -14.1794 N   0  0  0  0  0  0  0  0  0  0  0  0
   21.3188   -7.6326  -15.2530 C   0  0  0  0  0  0  0  0  0  0  0  0
   22.3778   -8.0444  -14.6471 O   0  0  0  0  0  0  0  0  0  0  0  0
   21.0173   -6.2917  -15.4773 N   0  0  0  0  0  0  0  0  0  0  0  0
   20.1382   -5.7383  -16.5263 C   0  0  0  0  0  0  0  0  0  0  0  0
   19.1693   -4.9709  -15.6710 C   0  0  0  0  0  0  0  0  0  0  0  0
   19.9988   -4.5378  -14.4728 C   0  0  0  0  0  0  0  0  0  0  0  0
   21.4160   -5.0887  -14.8473 C   0  0  1  0  0  0  0  0  0  0  0  0
   22.2635   -5.0812  -13.6863 C   0  0  0  0  0  0  0  0  0  0  0  0
   23.1496   -4.1245  -13.3285 O   0  0  0  0  0  0  0  0  0  0  0  0
   22.1728   -6.0865  -12.9058 O   0  0  0  0  0  0  0  0  0  0  0  0
  2  7  1  0
  2  1  1  6
  3  2  1  0
  4  3  1  0
  5  4  1  0
  5  6  2  0
  7  8  2  0
  9  5  1  0
 10  7  1  0
 10 11  1  0
 11 12  1  1
 12 13  1  0
 13 14  2  0
 15 14  1  0
 16 15  1  0
 17 13  1  0
 17 16  2  0
 18 11  1  0
 18 19  2  0
 20 18  1  0
 21 20  1  0
 22 21  1  0
 23 22  1  0
 24 23  1  0
 24 20  1  0
 24 25  1  1
 26 25  1  0
 27 25  2  0
M  END
$$$$
