EHP.pdb
     RDKit          3D

 27 28  0  0  1  0  0  0  0  0999 V2000
   24.3698   -8.7179  -18.5610 N   0  0  0  0  0  0  0  0  0  0  0  0
   23.0387   -8.8933  -19.0718 C   0  0  1  0  0  0  0  0  0  0  0  0
   22.7706  -10.3166  -19.4056 C   0  0  0  0  0  0  0  0  0  0  0  0
   23.6642  -10.9340  -20.4216 C   0  0  0  0  0  0  0  0  0  0  0  0
   23.3461  -12.2821  -20.8659 C   0  0  0  0  0  0  0  0  0  0  0  0
   22.8041  -12.5092  -22.0006 O   0  0  0  0  0  0  0  0  0  0  0  0
   21.9916   -8.2561  -18.2110 C   0  0  0  0  0  0  0  0  0  0  0  0
   20.7775   -8.5069  -18.3643 O   0  0  0  0  0  0  0  0  0  0  0  0
   23.6220  -13.3965  -20.0743 O   0  0  0  0  0  0  0  0  0  0  0  0
   22.4269   -7.3594  -17.2252 N   0  0  0  0  0  0  0  0  0  0  0  0
   21.6404   -6.7198  -16.2242 C   0  0  1  0  0  0  0  0  0  0  0  0
   21.5459   -7.4506  -14.8910 C   0  0  0  0  0  0  0  0  0  0  0  0
   20.9287   -8.7926  -15.0206 C   0  0  0  0  0  0  0  0  0  0  0  0
   19.5386   -9.0098  -14.9795 C   0  0  0  0  0  0  0  0  0  0  0  0
   19.3604  -10.3223  -15.1297 N   0  0  0  0  0  0  0  0  0  0  0  0
   20.5415  -10.9393  -15.2607 C   0  0  0  0  0  0  0  0  0  0  0  0
   21.4662   -9.9943  -15.1914 N   0  0  0  0  0  0  0  0  0  0  0  0
   21.8968   -5.2676  -16.0621 C   0  0  0  0  0  0  0  0  0  0  0  0
   23.0205   -5.0676  -15.4659 O   0  0  0  0  0  0  0  0  0  0  0  0
   21.0491   -4.2511  -16.4950 N   0  0  0  0  0  0  0  0  0  0  0  0
   19.9545   -4.3611  -17.4795 C   0  0  0  0  0  0  0  0  0  0  0  0
   18.8101   -3.8508  -16.6494 C   0  0  0  0  0  0  0  0  0  0  0  0
   19.4571   -2.8488  -15.7067 C   0  0  0  0  0  0  0  0  0  0  0  0
   20.9479   -2.8739  -16.1854 C   0  0  1  0  0  0  0  0  0  0  0  0
   21.7867   -2.2514  -15.1978 C   0  0  0  0  0  0  0  0  0  0  0  0
   22.3200   -1.0097  -15.2451 O   0  0  0  0  0  0  0  0  0  0  0  0
   22.0607   -2.9440  -14.1619 O   0  0  0  0  0  0  0  0  0  0  0  0
  2  7  1  0
  2  1  1  1
  3  2  1  0
  4  3  1  0
  5  4  1  0
  5  6  2  0
  7  8  2  0
  9  5  1  0
 10  7  1  0
 10 11  1  0
 11 12  1  1
 12 13  1  0
 13 14  2  0
 15 14  1  0
 16 15  1  0
 17 13  1  0
 17 16  2  0
 18 11  1  0
 18 19  2  0
 20 18  1  0
 21 20  1  0
 22 21  1  0
 23 22  1  0
 24 23  1  0
 24 20  1  0
 24 25  1  1
 26 25  1  0
 27 25  2  0
M  END
$$$$
