EHP.pdb
     RDKit          3D

 27 28  0  0  1  0  0  0  0  0999 V2000
   17.0884  -17.3567    2.7389 N   0  0  0  0  0  0  0  0  0  0  0  0
   17.2047  -17.7828    4.1058 C   0  0  1  0  0  0  0  0  0  0  0  0
   17.2962  -19.2630    4.2051 C   0  0  0  0  0  0  0  0  0  0  0  0
   16.1497  -20.0319    3.6516 C   0  0  0  0  0  0  0  0  0  0  0  0
   16.1627  -21.4761    3.8252 C   0  0  0  0  0  0  0  0  0  0  0  0
   17.1498  -22.0829    4.3640 O   0  0  0  0  0  0  0  0  0  0  0  0
   18.2707  -17.0492    4.8601 C   0  0  0  0  0  0  0  0  0  0  0  0
   19.2987  -16.6236    4.2920 O   0  0  0  0  0  0  0  0  0  0  0  0
   15.0931  -22.2710    3.4146 O   0  0  0  0  0  0  0  0  0  0  0  0
   18.0729  -16.8613    6.2352 N   0  0  0  0  0  0  0  0  0  0  0  0
   18.8918  -16.1236    7.1379 C   0  0  1  0  0  0  0  0  0  0  0  0
   18.3303  -14.7835    7.5950 C   0  0  0  0  0  0  0  0  0  0  0  0
   18.4376  -13.7360    6.5509 C   0  0  0  0  0  0  0  0  0  0  0  0
   19.0503  -13.9514    5.3021 C   0  0  0  0  0  0  0  0  0  0  0  0
   18.9564  -12.8007    4.6359 N   0  0  0  0  0  0  0  0  0  0  0  0
   18.3290  -11.8823    5.3815 C   0  0  0  0  0  0  0  0  0  0  0  0
   18.0287  -12.4733    6.5275 N   0  0  0  0  0  0  0  0  0  0  0  0
   19.4588  -16.9163    8.2565 C   0  0  0  0  0  0  0  0  0  0  0  0
   18.5197  -17.4165    8.9817 O   0  0  0  0  0  0  0  0  0  0  0  0
   20.8175  -17.1047    8.4968 N   0  0  0  0  0  0  0  0  0  0  0  0
   21.9291  -16.8911    7.5491 C   0  0  0  0  0  0  0  0  0  0  0  0
   22.7560  -15.9154    8.3387 C   0  0  0  0  0  0  0  0  0  0  0  0
   22.4926  -16.2967    9.7866 C   0  0  0  0  0  0  0  0  0  0  0  0
   21.5524  -17.5387    9.6257 C   0  0  1  0  0  0  0  0  0  0  0  0
   20.9172  -17.8340   10.8809 C   0  0  0  0  0  0  0  0  0  0  0  0
   19.6635  -17.4983   11.2604 O   0  0  0  0  0  0  0  0  0  0  0  0
   21.6097  -18.4837   11.7332 O   0  0  0  0  0  0  0  0  0  0  0  0
  2  7  1  0
  2  1  1  6
  3  2  1  0
  4  3  1  0
  5  4  1  0
  5  6  2  0
  7  8  2  0
  9  5  1  0
 10  7  1  0
 10 11  1  0
 11 12  1  1
 12 13  1  0
 13 14  2  0
 15 14  1  0
 16 15  1  0
 17 13  1  0
 17 16  2  0
 18 11  1  0
 18 19  2  0
 20 18  1  0
 21 20  1  0
 22 21  1  0
 23 22  1  0
 24 23  1  0
 24 20  1  0
 24 25  1  1
 26 25  1  0
 27 25  2  0
M  END
$$$$
