EHP.pdb
     RDKit          3D

 27 28  0  0  1  0  0  0  0  0999 V2000
   22.8839  -12.6663  -16.7054 N   0  0  0  0  0  0  0  0  0  0  0  0
   22.1182  -12.2278  -17.8390 C   0  0  1  0  0  0  0  0  0  0  0  0
   21.3501  -13.3497  -18.4396 C   0  0  0  0  0  0  0  0  0  0  0  0
   21.0980  -14.5209  -17.5583 C   0  0  0  0  0  0  0  0  0  0  0  0
   20.2093  -15.5586  -18.0577 C   0  0  0  0  0  0  0  0  0  0  0  0
   20.4133  -16.1422  -19.1760 O   0  0  0  0  0  0  0  0  0  0  0  0
   21.3007  -11.0049  -17.5569 C   0  0  0  0  0  0  0  0  0  0  0  0
   20.4996  -10.5454  -18.3981 O   0  0  0  0  0  0  0  0  0  0  0  0
   19.0899  -15.9716  -17.3358 O   0  0  0  0  0  0  0  0  0  0  0  0
   21.4728  -10.3892  -16.3092 N   0  0  0  0  0  0  0  0  0  0  0  0
   20.7240   -9.3068  -15.7639 C   0  0  1  0  0  0  0  0  0  0  0  0
   19.5625   -9.6966  -14.8588 C   0  0  0  0  0  0  0  0  0  0  0  0
   18.5529  -10.5292  -15.5560 C   0  0  0  0  0  0  0  0  0  0  0  0
   18.4419  -11.9206  -15.3745 C   0  0  0  0  0  0  0  0  0  0  0  0
   17.4352  -12.3202  -16.1514 N   0  0  0  0  0  0  0  0  0  0  0  0
   16.9108  -11.2762  -16.8057 C   0  0  0  0  0  0  0  0  0  0  0  0
   17.6030  -10.2128  -16.4276 N   0  0  0  0  0  0  0  0  0  0  0  0
   21.5408   -8.2036  -15.2011 C   0  0  0  0  0  0  0  0  0  0  0  0
   22.1734   -8.5960  -14.1503 O   0  0  0  0  0  0  0  0  0  0  0  0
   21.6240   -6.9180  -15.7298 N   0  0  0  0  0  0  0  0  0  0  0  0
   21.3671   -6.5088  -17.1249 C   0  0  0  0  0  0  0  0  0  0  0  0
   20.3075   -5.4677  -16.8961 C   0  0  0  0  0  0  0  0  0  0  0  0
   20.6535   -4.8826  -15.5363 C   0  0  0  0  0  0  0  0  0  0  0  0
   21.9638   -5.6608  -15.1759 C   0  0  1  0  0  0  0  0  0  0  0  0
   22.2574   -5.4983  -13.7781 C   0  0  0  0  0  0  0  0  0  0  0  0
   21.9661   -6.3595  -12.7772 O   0  0  0  0  0  0  0  0  0  0  0  0
   22.8582   -4.4243  -13.4413 O   0  0  0  0  0  0  0  0  0  0  0  0
  2  7  1  0
  2  1  1  1
  3  2  1  0
  4  3  1  0
  5  4  1  0
  5  6  2  0
  7  8  2  0
  9  5  1  0
 10  7  1  0
 10 11  1  0
 11 12  1  1
 12 13  1  0
 13 14  2  0
 15 14  1  0
 16 15  1  0
 17 13  1  0
 17 16  2  0
 18 11  1  0
 18 19  2  0
 20 18  1  0
 21 20  1  0
 22 21  1  0
 23 22  1  0
 24 23  1  0
 24 20  1  0
 24 25  1  1
 26 25  1  0
 27 25  2  0
M  END
$$$$
