EHP.pdb
     RDKit          3D

 27 28  0  0  1  0  0  0  0  0999 V2000
   18.2461   -7.9836  -14.7932 N   0  0  0  0  0  0  0  0  0  0  0  0
   19.4502   -7.7205  -15.5312 C   0  0  1  0  0  0  0  0  0  0  0  0
   19.9108   -6.3211  -15.3339 C   0  0  0  0  0  0  0  0  0  0  0  0
   19.0764   -5.2595  -15.9574 C   0  0  0  0  0  0  0  0  0  0  0  0
   19.4563   -3.8766  -15.7142 C   0  0  0  0  0  0  0  0  0  0  0  0
   18.7614   -2.8979  -16.1525 O   0  0  0  0  0  0  0  0  0  0  0  0
   20.5115   -8.7539  -15.3095 C   0  0  0  0  0  0  0  0  0  0  0  0
   20.6819   -9.2872  -14.1928 O   0  0  0  0  0  0  0  0  0  0  0  0
   20.5992   -3.5504  -14.9847 O   0  0  0  0  0  0  0  0  0  0  0  0
   21.3138   -9.0983  -16.4064 N   0  0  0  0  0  0  0  0  0  0  0  0
   22.3433  -10.0819  -16.4550 C   0  0  1  0  0  0  0  0  0  0  0  0
   21.9411  -11.4312  -17.0363 C   0  0  0  0  0  0  0  0  0  0  0  0
   20.7757  -12.0263  -16.3389 C   0  0  0  0  0  0  0  0  0  0  0  0
   20.8972  -12.9437  -15.2783 C   0  0  0  0  0  0  0  0  0  0  0  0
   19.6549  -13.2528  -14.9068 N   0  0  0  0  0  0  0  0  0  0  0  0
   18.7668  -12.5935  -15.6617 C   0  0  0  0  0  0  0  0  0  0  0  0
   19.4699  -11.8638  -16.5138 N   0  0  0  0  0  0  0  0  0  0  0  0
   23.6438   -9.5988  -16.9804 C   0  0  0  0  0  0  0  0  0  0  0  0
   23.5234   -9.2028  -18.1997 O   0  0  0  0  0  0  0  0  0  0  0  0
   24.8366   -9.5684  -16.2621 N   0  0  0  0  0  0  0  0  0  0  0  0
   25.0082   -9.7649  -14.8091 C   0  0  0  0  0  0  0  0  0  0  0  0
   25.9895  -10.9033  -14.8180 C   0  0  0  0  0  0  0  0  0  0  0  0
   26.7991  -10.6818  -16.0855 C   0  0  0  0  0  0  0  0  0  0  0  0
   26.1854   -9.3477  -16.6295 C   0  0  1  0  0  0  0  0  0  0  0  0
   26.5803   -9.1527  -17.9978 C   0  0  0  0  0  0  0  0  0  0  0  0
   27.5732   -8.3571  -18.4555 O   0  0  0  0  0  0  0  0  0  0  0  0
   25.9233   -9.7992  -18.8801 O   0  0  0  0  0  0  0  0  0  0  0  0
  2  7  1  0
  2  1  1  1
  3  2  1  0
  4  3  1  0
  5  4  1  0
  5  6  2  0
  7  8  2  0
  9  5  1  0
 10  7  1  0
 10 11  1  0
 11 12  1  6
 12 13  1  0
 13 14  2  0
 15 14  1  0
 16 15  1  0
 17 13  1  0
 17 16  2  0
 18 11  1  0
 18 19  2  0
 20 18  1  0
 21 20  1  0
 22 21  1  0
 23 22  1  0
 24 23  1  0
 24 20  1  0
 24 25  1  6
 26 25  1  0
 27 25  2  0
M  END
$$$$
