EHP.pdb
     RDKit          3D

 27 28  0  0  1  0  0  0  0  0999 V2000
   19.4382  -13.9090  -16.0728 N   0  0  0  0  0  0  0  0  0  0  0  0
   19.2983  -12.5386  -16.4802 C   0  0  1  0  0  0  0  0  0  0  0  0
   17.8741  -12.1136  -16.4693 C   0  0  0  0  0  0  0  0  0  0  0  0
   17.5964  -10.7305  -16.9406 C   0  0  0  0  0  0  0  0  0  0  0  0
   16.3281  -10.1314  -16.5553 C   0  0  0  0  0  0  0  0  0  0  0  0
   15.3173  -10.8413  -16.2280 O   0  0  0  0  0  0  0  0  0  0  0  0
   20.2217  -11.6126  -15.7499 C   0  0  0  0  0  0  0  0  0  0  0  0
   20.3144  -11.6297  -14.5042 O   0  0  0  0  0  0  0  0  0  0  0  0
   16.1543   -8.7482  -16.5200 O   0  0  0  0  0  0  0  0  0  0  0  0
   20.9780  -10.7181  -16.5201 N   0  0  0  0  0  0  0  0  0  0  0  0
   21.8989   -9.7353  -16.0556 C   0  0  1  0  0  0  0  0  0  0  0  0
   23.3468   -9.9304  -16.4867 C   0  0  0  0  0  0  0  0  0  0  0  0
   23.9377  -11.1785  -15.9464 C   0  0  0  0  0  0  0  0  0  0  0  0
   23.2575  -12.0327  -15.0583 C   0  0  0  0  0  0  0  0  0  0  0  0
   24.0903  -13.0400  -14.7962 N   0  0  0  0  0  0  0  0  0  0  0  0
   25.2427  -12.8737  -15.4576 C   0  0  0  0  0  0  0  0  0  0  0  0
   25.1218  -11.7462  -16.1409 N   0  0  0  0  0  0  0  0  0  0  0  0
   21.4427   -8.3317  -16.2064 C   0  0  0  0  0  0  0  0  0  0  0  0
   21.1935   -8.0643  -17.4411 O   0  0  0  0  0  0  0  0  0  0  0  0
   21.2958   -7.4206  -15.1635 N   0  0  0  0  0  0  0  0  0  0  0  0
   21.1468   -7.7257  -13.7267 C   0  0  0  0  0  0  0  0  0  0  0  0
   22.2978   -6.9320  -13.1749 C   0  0  0  0  0  0  0  0  0  0  0  0
   22.4228   -5.7537  -14.1273 C   0  0  0  0  0  0  0  0  0  0  0  0
   21.2309   -6.0078  -15.1108 C   0  0  1  0  0  0  0  0  0  0  0  0
   21.3869   -5.1936  -16.2851 C   0  0  0  0  0  0  0  0  0  0  0  0
   22.5411   -4.7049  -16.7924 O   0  0  0  0  0  0  0  0  0  0  0  0
   20.3210   -4.8968  -16.9206 O   0  0  0  0  0  0  0  0  0  0  0  0
  2  7  1  0
  2  1  1  1
  3  2  1  0
  4  3  1  0
  5  4  1  0
  5  6  2  0
  7  8  2  0
  9  5  1  0
 10  7  1  0
 10 11  1  0
 11 12  1  6
 12 13  1  0
 13 14  2  0
 15 14  1  0
 16 15  1  0
 17 13  1  0
 17 16  2  0
 18 11  1  0
 18 19  2  0
 20 18  1  0
 21 20  1  0
 22 21  1  0
 23 22  1  0
 24 23  1  0
 24 20  1  0
 24 25  1  6
 26 25  1  0
 27 25  2  0
M  END
$$$$
