EHP.pdb
     RDKit          3D

 27 28  0  0  1  0  0  0  0  0999 V2000
   22.5185  -21.0398  -16.1944 N   0  0  0  0  0  0  0  0  0  0  0  0
   22.9134  -20.2280  -15.0770 C   0  0  1  0  0  0  0  0  0  0  0  0
   23.5303  -18.9525  -15.5262 C   0  0  0  0  0  0  0  0  0  0  0  0
   22.9467  -18.3327  -16.7458 C   0  0  0  0  0  0  0  0  0  0  0  0
   23.6288  -17.1753  -17.3035 C   0  0  0  0  0  0  0  0  0  0  0  0
   23.0583  -16.0358  -17.3986 O   0  0  0  0  0  0  0  0  0  0  0  0
   21.8260  -20.0604  -14.0607 C   0  0  0  0  0  0  0  0  0  0  0  0
   21.9910  -19.3671  -13.0347 O   0  0  0  0  0  0  0  0  0  0  0  0
   24.9445  -17.2520  -17.7591 O   0  0  0  0  0  0  0  0  0  0  0  0
   20.6118  -20.7180  -14.3026 N   0  0  0  0  0  0  0  0  0  0  0  0
   19.4065  -20.6220  -13.5491 C   0  0  1  0  0  0  0  0  0  0  0  0
   18.4711  -19.4853  -13.9406 C   0  0  0  0  0  0  0  0  0  0  0  0
   19.0876  -18.1503  -13.7496 C   0  0  0  0  0  0  0  0  0  0  0  0
   19.5368  -17.3482  -14.8156 C   0  0  0  0  0  0  0  0  0  0  0  0
   20.0219  -16.2343  -14.2671 N   0  0  0  0  0  0  0  0  0  0  0  0
   19.9078  -16.2854  -12.9339 C   0  0  0  0  0  0  0  0  0  0  0  0
   19.3424  -17.4488  -12.6518 N   0  0  0  0  0  0  0  0  0  0  0  0
   18.6914  -21.9063  -13.3490 C   0  0  0  0  0  0  0  0  0  0  0  0
   18.1108  -22.2782  -14.4366 O   0  0  0  0  0  0  0  0  0  0  0  0
   18.6502  -22.6229  -12.1557 N   0  0  0  0  0  0  0  0  0  0  0  0
   19.5178  -22.4406  -10.9752 C   0  0  0  0  0  0  0  0  0  0  0  0
   18.4719  -22.2029   -9.9221 C   0  0  0  0  0  0  0  0  0  0  0  0
   17.2781  -23.0146  -10.3989 C   0  0  0  0  0  0  0  0  0  0  0  0
   17.8456  -23.6910  -11.6922 C   0  0  1  0  0  0  0  0  0  0  0  0
   16.7657  -24.2268  -12.4751 C   0  0  0  0  0  0  0  0  0  0  0  0
   15.9393  -23.5455  -13.3005 O   0  0  0  0  0  0  0  0  0  0  0  0
   16.5610  -25.4828  -12.3828 O   0  0  0  0  0  0  0  0  0  0  0  0
  2  7  1  0
  2  1  1  6
  3  2  1  0
  4  3  1  0
  5  4  1  0
  5  6  2  0
  7  8  2  0
  9  5  1  0
 10  7  1  0
 10 11  1  0
 11 12  1  6
 12 13  1  0
 13 14  2  0
 15 14  1  0
 16 15  1  0
 17 13  1  0
 17 16  2  0
 18 11  1  0
 18 19  2  0
 20 18  1  0
 21 20  1  0
 22 21  1  0
 23 22  1  0
 24 23  1  0
 24 20  1  0
 24 25  1  6
 26 25  1  0
 27 25  2  0
M  END
$$$$
