EHP.pdb
     RDKit          3D

 27 28  0  0  1  0  0  0  0  0999 V2000
   12.1992  -21.1998    3.3347 N   0  0  0  0  0  0  0  0  0  0  0  0
   12.8937  -20.2227    4.1263 C   0  0  1  0  0  0  0  0  0  0  0  0
   12.8851  -20.5882    5.5669 C   0  0  0  0  0  0  0  0  0  0  0  0
   11.6861  -20.1746    6.3437 C   0  0  0  0  0  0  0  0  0  0  0  0
   11.8755  -19.1913    7.3989 C   0  0  0  0  0  0  0  0  0  0  0  0
   12.2640  -19.5235    8.5700 O   0  0  0  0  0  0  0  0  0  0  0  0
   14.2494  -19.8862    3.5856 C   0  0  0  0  0  0  0  0  0  0  0  0
   14.5772  -20.1761    2.4155 O   0  0  0  0  0  0  0  0  0  0  0  0
   11.6456  -17.8332    7.1818 O   0  0  0  0  0  0  0  0  0  0  0  0
   15.1428  -19.2350    4.4477 N   0  0  0  0  0  0  0  0  0  0  0  0
   16.3733  -18.6026    4.1076 C   0  0  1  0  0  0  0  0  0  0  0  0
   16.3203  -17.6488    2.9211 C   0  0  0  0  0  0  0  0  0  0  0  0
   17.6586  -17.1309    2.5476 C   0  0  0  0  0  0  0  0  0  0  0  0
   18.1157  -15.8476    2.9019 C   0  0  0  0  0  0  0  0  0  0  0  0
   19.3466  -15.7377    2.4022 N   0  0  0  0  0  0  0  0  0  0  0  0
   19.6893  -16.8618    1.7603 C   0  0  0  0  0  0  0  0  0  0  0  0
   18.6548  -17.6815    1.8645 N   0  0  0  0  0  0  0  0  0  0  0  0
   17.1258  -18.0425    5.2569 C   0  0  0  0  0  0  0  0  0  0  0  0
   16.5727  -16.9587    5.6784 O   0  0  0  0  0  0  0  0  0  0  0  0
   18.2711  -18.6046    5.8151 N   0  0  0  0  0  0  0  0  0  0  0  0
   18.8528  -19.9279    5.5147 C   0  0  0  0  0  0  0  0  0  0  0  0
   20.2396  -19.5130    5.1102 C   0  0  0  0  0  0  0  0  0  0  0  0
   20.5053  -18.2635    5.9344 C   0  0  0  0  0  0  0  0  0  0  0  0
   19.1967  -18.1574    6.7879 C   0  0  1  0  0  0  0  0  0  0  0  0
   19.1070  -16.8512    7.3811 C   0  0  0  0  0  0  0  0  0  0  0  0
   19.5700  -16.4716    8.5936 O   0  0  0  0  0  0  0  0  0  0  0  0
   18.5269  -15.9484    6.6909 O   0  0  0  0  0  0  0  0  0  0  0  0
  2  7  1  0
  2  1  1  6
  3  2  1  0
  4  3  1  0
  5  4  1  0
  5  6  2  0
  7  8  2  0
  9  5  1  0
 10  7  1  0
 10 11  1  0
 11 12  1  6
 12 13  1  0
 13 14  2  0
 15 14  1  0
 16 15  1  0
 17 13  1  0
 17 16  2  0
 18 11  1  0
 18 19  2  0
 20 18  1  0
 21 20  1  0
 22 21  1  0
 23 22  1  0
 24 23  1  0
 24 20  1  0
 24 25  1  6
 26 25  1  0
 27 25  2  0
M  END
$$$$
