EHP.pdb
     RDKit          3D

 27 28  0  0  1  0  0  0  0  0999 V2000
   15.4825  -11.5304  -15.3218 N   0  0  0  0  0  0  0  0  0  0  0  0
   15.8248  -10.1353  -15.3152 C   0  0  1  0  0  0  0  0  0  0  0  0
   14.9221   -9.3609  -14.4238 C   0  0  0  0  0  0  0  0  0  0  0  0
   13.4961   -9.2823  -14.8388 C   0  0  0  0  0  0  0  0  0  0  0  0
   13.1562   -8.3501  -15.9024 C   0  0  0  0  0  0  0  0  0  0  0  0
   13.9673   -7.4417  -16.2894 O   0  0  0  0  0  0  0  0  0  0  0  0
   17.2830   -9.8904  -15.0761 C   0  0  0  0  0  0  0  0  0  0  0  0
   17.9040  -10.4780  -14.1652 O   0  0  0  0  0  0  0  0  0  0  0  0
   11.9260   -8.4052  -16.5568 O   0  0  0  0  0  0  0  0  0  0  0  0
   17.9269   -8.9689  -15.9137 N   0  0  0  0  0  0  0  0  0  0  0  0
   19.2992   -8.5867  -15.8925 C   0  0  1  0  0  0  0  0  0  0  0  0
   20.1678   -9.1813  -16.9935 C   0  0  0  0  0  0  0  0  0  0  0  0
   20.0488  -10.6569  -17.0772 C   0  0  0  0  0  0  0  0  0  0  0  0
   19.4063  -11.3201  -18.1397 C   0  0  0  0  0  0  0  0  0  0  0  0
   19.4980  -12.6237  -17.8771 N   0  0  0  0  0  0  0  0  0  0  0  0
   20.1516  -12.8206  -16.7251 C   0  0  0  0  0  0  0  0  0  0  0  0
   20.4707  -11.6201  -16.2670 N   0  0  0  0  0  0  0  0  0  0  0  0
   19.5402   -7.1361  -15.6961 C   0  0  0  0  0  0  0  0  0  0  0  0
   18.9999   -6.4525  -16.6442 O   0  0  0  0  0  0  0  0  0  0  0  0
   20.2476   -6.5780  -14.6343 N   0  0  0  0  0  0  0  0  0  0  0  0
   20.5849   -7.2232  -13.3499 C   0  0  0  0  0  0  0  0  0  0  0  0
   22.0792   -7.0623  -13.3663 C   0  0  0  0  0  0  0  0  0  0  0  0
   22.3021   -5.7702  -14.1356 C   0  0  0  0  0  0  0  0  0  0  0  0
   20.8331   -5.3077  -14.4190 C   0  0  1  0  0  0  0  0  0  0  0  0
   20.8310   -4.2865  -15.4307 C   0  0  0  0  0  0  0  0  0  0  0  0
   20.7039   -2.9532  -15.2446 O   0  0  0  0  0  0  0  0  0  0  0  0
   20.9624   -4.6776  -16.6380 O   0  0  0  0  0  0  0  0  0  0  0  0
  2  7  1  0
  2  1  1  1
  3  2  1  0
  4  3  1  0
  5  4  1  0
  5  6  2  0
  7  8  2  0
  9  5  1  0
 10  7  1  0
 10 11  1  0
 11 12  1  6
 12 13  1  0
 13 14  2  0
 15 14  1  0
 16 15  1  0
 17 13  1  0
 17 16  2  0
 18 11  1  0
 18 19  2  0
 20 18  1  0
 21 20  1  0
 22 21  1  0
 23 22  1  0
 24 23  1  0
 24 20  1  0
 24 25  1  6
 26 25  1  0
 27 25  2  0
M  END
$$$$
