EHP.pdb
     RDKit          3D

 27 28  0  0  1  0  0  0  0  0999 V2000
   29.2537  -21.2910  -18.3568 N   0  0  0  0  0  0  0  0  0  0  0  0
   28.2417  -20.5037  -17.7092 C   0  0  1  0  0  0  0  0  0  0  0  0
   27.0090  -20.4214  -18.5356 C   0  0  0  0  0  0  0  0  0  0  0  0
   27.1715  -19.8680  -19.9065 C   0  0  0  0  0  0  0  0  0  0  0  0
   26.9731  -20.7759  -21.0256 C   0  0  0  0  0  0  0  0  0  0  0  0
   25.8223  -21.2497  -21.3154 O   0  0  0  0  0  0  0  0  0  0  0  0
   28.0025  -20.9105  -16.2876 C   0  0  0  0  0  0  0  0  0  0  0  0
   28.2783  -22.0590  -15.8809 O   0  0  0  0  0  0  0  0  0  0  0  0
   28.0321  -21.1715  -21.8421 O   0  0  0  0  0  0  0  0  0  0  0  0
   27.4503  -19.9509  -15.4277 N   0  0  0  0  0  0  0  0  0  0  0  0
   27.1517  -20.0952  -14.0421 C   0  0  1  0  0  0  0  0  0  0  0  0
   28.0274  -19.2906  -13.0902 C   0  0  0  0  0  0  0  0  0  0  0  0
   29.0884  -20.1133  -12.4608 C   0  0  0  0  0  0  0  0  0  0  0  0
   29.1818  -21.5083  -12.6242 C   0  0  0  0  0  0  0  0  0  0  0  0
   30.2473  -21.8965  -11.9235 N   0  0  0  0  0  0  0  0  0  0  0  0
   30.8245  -20.8421  -11.3336 C   0  0  0  0  0  0  0  0  0  0  0  0
   30.1061  -19.7837  -11.6749 N   0  0  0  0  0  0  0  0  0  0  0  0
   25.7103  -20.0094  -13.7019 C   0  0  0  0  0  0  0  0  0  0  0  0
   25.1574  -19.0178  -14.3095 O   0  0  0  0  0  0  0  0  0  0  0  0
   25.0355  -20.8784  -12.8482 N   0  0  0  0  0  0  0  0  0  0  0  0
   25.5657  -22.1070  -12.2245 C   0  0  0  0  0  0  0  0  0  0  0  0
   25.3142  -21.7893  -10.7770 C   0  0  0  0  0  0  0  0  0  0  0  0
   24.0686  -20.9181  -10.8022 C   0  0  0  0  0  0  0  0  0  0  0  0
   23.7193  -20.9013  -12.3286 C   0  0  1  0  0  0  0  0  0  0  0  0
   22.7746  -19.8525  -12.6001 C   0  0  0  0  0  0  0  0  0  0  0  0
   21.4806  -19.7984  -12.2114 O   0  0  0  0  0  0  0  0  0  0  0  0
   23.2002  -18.8625  -13.2834 O   0  0  0  0  0  0  0  0  0  0  0  0
  2  7  1  0
  2  1  1  6
  3  2  1  0
  4  3  1  0
  5  4  1  0
  5  6  2  0
  7  8  2  0
  9  5  1  0
 10  7  1  0
 10 11  1  0
 11 12  1  1
 12 13  1  0
 13 14  2  0
 15 14  1  0
 16 15  1  0
 17 13  1  0
 17 16  2  0
 18 11  1  0
 18 19  2  0
 20 18  1  0
 21 20  1  0
 22 21  1  0
 23 22  1  0
 24 23  1  0
 24 20  1  0
 24 25  1  1
 26 25  1  0
 27 25  2  0
M  END
$$$$
