EHP.pdb
     RDKit          3D

 27 28  0  0  1  0  0  0  0  0999 V2000
   40.3050   -9.2104  -11.9171 N   0  0  0  0  0  0  0  0  0  0  0  0
   40.8623   -8.3583  -10.9037 C   0  0  1  0  0  0  0  0  0  0  0  0
   41.8347   -7.3944  -11.4821 C   0  0  0  0  0  0  0  0  0  0  0  0
   43.0741   -7.9776  -12.0618 C   0  0  0  0  0  0  0  0  0  0  0  0
   44.2506   -8.0390  -11.2086 C   0  0  0  0  0  0  0  0  0  0  0  0
   44.1670   -7.9625   -9.9358 O   0  0  0  0  0  0  0  0  0  0  0  0
   39.8219   -7.7309  -10.0278 C   0  0  0  0  0  0  0  0  0  0  0  0
   38.6920   -7.4298  -10.4674 O   0  0  0  0  0  0  0  0  0  0  0  0
   45.5312   -8.1892  -11.7398 O   0  0  0  0  0  0  0  0  0  0  0  0
   40.1670   -7.4884   -8.6908 N   0  0  0  0  0  0  0  0  0  0  0  0
   39.3231   -7.0052   -7.6497 C   0  0  1  0  0  0  0  0  0  0  0  0
   39.2719   -7.8602   -6.3901 C   0  0  0  0  0  0  0  0  0  0  0  0
   38.6103   -9.1677   -6.6168 C   0  0  0  0  0  0  0  0  0  0  0  0
   37.9683   -9.5088   -7.8221 C   0  0  0  0  0  0  0  0  0  0  0  0
   37.5001  -10.7463   -7.6595 N   0  0  0  0  0  0  0  0  0  0  0  0
   37.8040  -11.2008   -6.4372 C   0  0  0  0  0  0  0  0  0  0  0  0
   38.4717  -10.2302   -5.8332 N   0  0  0  0  0  0  0  0  0  0  0  0
   39.4646   -5.5587   -7.3522 C   0  0  0  0  0  0  0  0  0  0  0  0
   40.6285   -5.3063   -6.8627 O   0  0  0  0  0  0  0  0  0  0  0  0
   38.4828   -4.5957   -7.5721 N   0  0  0  0  0  0  0  0  0  0  0  0
   37.3385   -4.6842   -8.5006 C   0  0  0  0  0  0  0  0  0  0  0  0
   36.2084   -4.4440   -7.5391 C   0  0  0  0  0  0  0  0  0  0  0  0
   36.8094   -3.5266   -6.4863 C   0  0  0  0  0  0  0  0  0  0  0  0
   38.2558   -3.3028   -7.0432 C   0  0  1  0  0  0  0  0  0  0  0  0
   39.0912   -2.7420   -6.0167 C   0  0  0  0  0  0  0  0  0  0  0  0
   39.3589   -1.4334   -5.8063 O   0  0  0  0  0  0  0  0  0  0  0  0
   39.6428   -3.5668   -5.2146 O   0  0  0  0  0  0  0  0  0  0  0  0
  2  7  1  0
  2  1  1  6
  3  2  1  0
  4  3  1  0
  5  4  1  0
  5  6  2  0
  7  8  2  0
  9  5  1  0
 10  7  1  0
 10 11  1  0
 11 12  1  1
 12 13  1  0
 13 14  2  0
 15 14  1  0
 16 15  1  0
 17 13  1  0
 17 16  2  0
 18 11  1  0
 18 19  2  0
 20 18  1  0
 21 20  1  0
 22 21  1  0
 23 22  1  0
 24 23  1  0
 24 20  1  0
 24 25  1  1
 26 25  1  0
 27 25  2  0
M  END
$$$$
