EHP.pdb
     RDKit          3D

 27 28  0  0  1  0  0  0  0  0999 V2000
   25.8513  -22.0101  -15.1723 N   0  0  0  0  0  0  0  0  0  0  0  0
   26.3136  -20.8311  -14.4941 C   0  0  1  0  0  0  0  0  0  0  0  0
   27.1848  -20.0080  -15.3731 C   0  0  0  0  0  0  0  0  0  0  0  0
   28.3140  -20.7177  -16.0315 C   0  0  0  0  0  0  0  0  0  0  0  0
   27.9845  -21.7452  -17.0070 C   0  0  0  0  0  0  0  0  0  0  0  0
   27.2492  -21.5011  -18.0231 O   0  0  0  0  0  0  0  0  0  0  0  0
   25.2102  -20.0652  -13.8313 C   0  0  0  0  0  0  0  0  0  0  0  0
   25.4249  -18.9811  -13.2489 O   0  0  0  0  0  0  0  0  0  0  0  0
   28.4602  -23.0502  -16.8826 O   0  0  0  0  0  0  0  0  0  0  0  0
   23.9220  -20.6158  -13.8848 N   0  0  0  0  0  0  0  0  0  0  0  0
   22.7200  -20.0673  -13.3521 C   0  0  1  0  0  0  0  0  0  0  0  0
   21.8609  -19.2803  -14.3334 C   0  0  0  0  0  0  0  0  0  0  0  0
   20.6676  -18.6797  -13.6899 C   0  0  0  0  0  0  0  0  0  0  0  0
   19.3695  -19.2063  -13.8278 C   0  0  0  0  0  0  0  0  0  0  0  0
   18.5671  -18.4147  -13.1161 N   0  0  0  0  0  0  0  0  0  0  0  0
   19.2731  -17.4309  -12.5446 C   0  0  0  0  0  0  0  0  0  0  0  0
   20.5329  -17.6161  -12.9072 N   0  0  0  0  0  0  0  0  0  0  0  0
   21.9239  -21.0007  -12.5179 C   0  0  0  0  0  0  0  0  0  0  0  0
   21.1742  -21.7438  -13.2554 O   0  0  0  0  0  0  0  0  0  0  0  0
   21.9750  -21.0758  -11.1283 N   0  0  0  0  0  0  0  0  0  0  0  0
   23.1073  -20.7062  -10.2559 C   0  0  0  0  0  0  0  0  0  0  0  0
   22.4282  -19.7049   -9.3641 C   0  0  0  0  0  0  0  0  0  0  0  0
   20.9895  -20.1911   -9.2929 C   0  0  0  0  0  0  0  0  0  0  0  0
   21.0516  -21.5036  -10.1448 C   0  0  1  0  0  0  0  0  0  0  0  0
   19.7204  -21.9279  -10.4827 C   0  0  0  0  0  0  0  0  0  0  0  0
   18.7174  -21.1611  -10.9669 O   0  0  0  0  0  0  0  0  0  0  0  0
   19.4522  -23.1628  -10.3071 O   0  0  0  0  0  0  0  0  0  0  0  0
  2  7  1  0
  2  1  1  6
  3  2  1  0
  4  3  1  0
  5  4  1  0
  5  6  2  0
  7  8  2  0
  9  5  1  0
 10  7  1  0
 10 11  1  0
 11 12  1  6
 12 13  1  0
 13 14  2  0
 15 14  1  0
 16 15  1  0
 17 13  1  0
 17 16  2  0
 18 11  1  0
 18 19  2  0
 20 18  1  0
 21 20  1  0
 22 21  1  0
 23 22  1  0
 24 23  1  0
 24 20  1  0
 24 25  1  6
 26 25  1  0
 27 25  2  0
M  END
$$$$
