EHP.pdb
     RDKit          3D

 27 28  0  0  1  0  0  0  0  0999 V2000
   22.0247  -13.1261  -18.7904 N   0  0  0  0  0  0  0  0  0  0  0  0
   22.4197  -11.7544  -18.6293 C   0  0  1  0  0  0  0  0  0  0  0  0
   22.9193  -11.1817  -19.9067 C   0  0  0  0  0  0  0  0  0  0  0  0
   21.8969  -10.9179  -20.9541 C   0  0  0  0  0  0  0  0  0  0  0  0
   22.3502  -10.3188  -22.1998 C   0  0  0  0  0  0  0  0  0  0  0  0
   22.1161   -9.0955  -22.4856 O   0  0  0  0  0  0  0  0  0  0  0  0
   21.3789  -10.9206  -17.9475 C   0  0  0  0  0  0  0  0  0  0  0  0
   20.1595  -11.1069  -18.1447 O   0  0  0  0  0  0  0  0  0  0  0  0
   23.0685  -11.0516  -23.1440 O   0  0  0  0  0  0  0  0  0  0  0  0
   21.8267   -9.9151  -17.0793 N   0  0  0  0  0  0  0  0  0  0  0  0
   21.0983   -9.2867  -16.0285 C   0  0  1  0  0  0  0  0  0  0  0  0
   20.7671  -10.1711  -14.8332 C   0  0  0  0  0  0  0  0  0  0  0  0
   19.8315   -9.5191  -13.8854 C   0  0  0  0  0  0  0  0  0  0  0  0
   20.2573   -8.8023  -12.7512 C   0  0  0  0  0  0  0  0  0  0  0  0
   19.1518   -8.3637  -12.1491 N   0  0  0  0  0  0  0  0  0  0  0  0
   18.0664   -8.7572  -12.8273 C   0  0  0  0  0  0  0  0  0  0  0  0
   18.5060   -9.4498  -13.8664 N   0  0  0  0  0  0  0  0  0  0  0  0
   21.6073   -7.9522  -15.6274 C   0  0  0  0  0  0  0  0  0  0  0  0
   22.7290   -8.0613  -15.0045 O   0  0  0  0  0  0  0  0  0  0  0  0
   20.9712   -6.7409  -15.8870 N   0  0  0  0  0  0  0  0  0  0  0  0
   19.8190   -6.5120  -16.7812 C   0  0  0  0  0  0  0  0  0  0  0  0
   18.8645   -5.8731  -15.8117 C   0  0  0  0  0  0  0  0  0  0  0  0
   19.7685   -5.1379  -14.8352 C   0  0  0  0  0  0  0  0  0  0  0  0
   21.1865   -5.4159  -15.4387 C   0  0  1  0  0  0  0  0  0  0  0  0
   22.1991   -5.0942  -14.4705 C   0  0  0  0  0  0  0  0  0  0  0  0
   23.2278   -4.2297  -14.6215 O   0  0  0  0  0  0  0  0  0  0  0  0
   22.1222   -5.6884  -13.3440 O   0  0  0  0  0  0  0  0  0  0  0  0
  2  7  1  0
  2  1  1  6
  3  2  1  0
  4  3  1  0
  5  4  1  0
  5  6  2  0
  7  8  2  0
  9  5  1  0
 10  7  1  0
 10 11  1  0
 11 12  1  1
 12 13  1  0
 13 14  2  0
 15 14  1  0
 16 15  1  0
 17 13  1  0
 17 16  2  0
 18 11  1  0
 18 19  2  0
 20 18  1  0
 21 20  1  0
 22 21  1  0
 23 22  1  0
 24 23  1  0
 24 20  1  0
 24 25  1  1
 26 25  1  0
 27 25  2  0
M  END
$$$$
