GCG.pdb
     RDKit          3D

 15 14  0  0  1  0  0  0  0  0999 V2000
    7.0790  -18.9707   17.4377 N   0  0  0  0  0  0  0  0  0  0  0  0
    6.3961  -18.1080   18.3674 C   0  0  0  0  0  0  0  0  0  0  0  0
    7.3635  -17.1064   18.8752 C   0  0  0  0  0  0  0  0  0  0  0  0
    8.6154  -17.3042   18.7581 O   0  0  0  0  0  0  0  0  0  0  0  0
    6.9299  -15.9067   19.5021 N   0  0  0  0  0  0  0  0  0  0  0  0
    7.8060  -14.9452   20.0789 C   0  0  1  0  0  0  0  0  0  0  0  0
    7.1383  -13.5794   20.2099 C   0  0  0  0  0  0  0  0  0  0  0  0
    8.3699  -12.4002   20.8426 S   0  0  0  0  0  0  0  0  0  0  0  0
    8.3897  -15.3597   21.3658 C   0  0  0  0  0  0  0  0  0  0  0  0
    7.5881  -15.6572   22.2957 O   0  0  0  0  0  0  0  0  0  0  0  0
    9.7840  -15.4367   21.5989 N   0  0  0  0  0  0  0  0  0  0  0  0
   10.2808  -15.9179   22.8690 C   0  0  0  0  0  0  0  0  0  0  0  0
   11.7819  -15.9842   22.8627 C   0  0  0  0  0  0  0  0  0  0  0  0
   12.4164  -15.6529   21.8306 O   0  0  0  0  0  0  0  0  0  0  0  0
   12.4153  -16.4142   24.0115 O   0  0  0  0  0  0  0  0  0  0  0  0
  1  2  1  0
  3  4  2  0
  3  2  1  0
  5  3  1  0
  6  9  1  0
  6  5  1  0
  7  8  1  0
  6  7  1  1
  9 11  1  0
 10  9  2  0
 11 12  1  0
 12 13  1  0
 13 14  2  0
 13 15  1  0
M  END
$$$$
