GCG.pdb
     RDKit          3D

 15 14  0  0  1  0  0  0  0  0999 V2000
    9.4345  -16.7549   15.6052 N   0  0  0  0  0  0  0  0  0  0  0  0
    8.4249  -16.2170   16.4806 C   0  0  0  0  0  0  0  0  0  0  0  0
    9.0984  -15.5743   17.6340 C   0  0  0  0  0  0  0  0  0  0  0  0
   10.3538  -15.7032   17.7994 O   0  0  0  0  0  0  0  0  0  0  0  0
    8.3728  -14.8024   18.5816 N   0  0  0  0  0  0  0  0  0  0  0  0
    8.9548  -14.1908   19.7270 C   0  0  1  0  0  0  0  0  0  0  0  0
    8.1090  -13.0279   20.2376 C   0  0  0  0  0  0  0  0  0  0  0  0
    8.0263  -11.7653   18.9311 S   0  0  0  0  0  0  0  0  0  0  0  0
    9.2564  -15.1289   20.8214 C   0  0  0  0  0  0  0  0  0  0  0  0
    8.3090  -15.8506   21.2424 O   0  0  0  0  0  0  0  0  0  0  0  0
   10.5385  -15.2526   21.4090 N   0  0  0  0  0  0  0  0  0  0  0  0
   10.7916  -16.2903   22.3839 C   0  0  0  0  0  0  0  0  0  0  0  0
   12.1598  -16.1336   22.9850 C   0  0  0  0  0  0  0  0  0  0  0  0
   13.1663  -16.0708   22.2363 O   0  0  0  0  0  0  0  0  0  0  0  0
   12.2581  -16.0636   24.3601 O   0  0  0  0  0  0  0  0  0  0  0  0
  1  2  1  0
  3  4  2  0
  3  2  1  0
  5  3  1  0
  6  9  1  0
  6  5  1  0
  7  8  1  0
  6  7  1  1
  9 11  1  0
 10  9  2  0
 11 12  1  0
 12 13  1  0
 13 14  2  0
 13 15  1  0
M  END
$$$$
