GCG.pdb
     RDKit          3D

 15 14  0  0  1  0  0  0  0  0999 V2000
    5.5177  -18.1617   23.8776 N   0  0  0  0  0  0  0  0  0  0  0  0
    5.6733  -17.3737   25.0732 C   0  0  0  0  0  0  0  0  0  0  0  0
    6.5172  -16.1979   24.7534 C   0  0  0  0  0  0  0  0  0  0  0  0
    7.1289  -16.1290   23.6393 O   0  0  0  0  0  0  0  0  0  0  0  0
    6.6691  -15.1218   25.6695 N   0  0  0  0  0  0  0  0  0  0  0  0
    7.6126  -14.0681   25.5144 C   0  0  1  0  0  0  0  0  0  0  0  0
    7.2655  -12.8659   26.3878 C   0  0  0  0  0  0  0  0  0  0  0  0
    5.4583  -12.8047   26.5826 S   0  0  0  0  0  0  0  0  0  0  0  0
    9.0108  -14.4765   25.7310 C   0  0  0  0  0  0  0  0  0  0  0  0
    9.5190  -14.2244   26.8597 O   0  0  0  0  0  0  0  0  0  0  0  0
    9.7929  -15.1270   24.7463 N   0  0  0  0  0  0  0  0  0  0  0  0
   11.1638  -15.4880   25.0319 C   0  0  0  0  0  0  0  0  0  0  0  0
   11.7916  -16.1706   23.8496 C   0  0  0  0  0  0  0  0  0  0  0  0
   11.2709  -17.2139   23.3828 O   0  0  0  0  0  0  0  0  0  0  0  0
   12.9359  -15.6143   23.3140 O   0  0  0  0  0  0  0  0  0  0  0  0
  1  2  1  0
  3  4  2  0
  3  2  1  0
  5  3  1  0
  6  9  1  0
  6  5  1  0
  7  8  1  0
  6  7  1  1
  9 11  1  0
 10  9  2  0
 11 12  1  0
 12 13  1  0
 13 14  2  0
 13 15  1  0
M  END
$$$$
