GCG.pdb
     RDKit          3D

 15 14  0  0  1  0  0  0  0  0999 V2000
    7.3485  -13.2195   19.5110 N   0  0  0  0  0  0  0  0  0  0  0  0
    6.5547  -13.4379   20.6930 C   0  0  0  0  0  0  0  0  0  0  0  0
    7.4662  -13.5424   21.8572 C   0  0  0  0  0  0  0  0  0  0  0  0
    8.7275  -13.5562   21.6875 O   0  0  0  0  0  0  0  0  0  0  0  0
    6.9672  -13.6297   23.1853 N   0  0  0  0  0  0  0  0  0  0  0  0
    7.7892  -13.6759   24.3458 C   0  0  1  0  0  0  0  0  0  0  0  0
    7.1338  -12.9721   25.5306 C   0  0  0  0  0  0  0  0  0  0  0  0
    8.3244  -12.9396   26.9051 S   0  0  0  0  0  0  0  0  0  0  0  0
    8.2183  -15.0327   24.7248 C   0  0  0  0  0  0  0  0  0  0  0  0
    7.3132  -15.8893   24.9312 O   0  0  0  0  0  0  0  0  0  0  0  0
    9.5761  -15.4088   24.8644 N   0  0  0  0  0  0  0  0  0  0  0  0
    9.9197  -16.7755   25.1888 C   0  0  0  0  0  0  0  0  0  0  0  0
   11.4078  -16.9320   25.3257 C   0  0  0  0  0  0  0  0  0  0  0  0
   11.8921  -17.3778   26.3954 O   0  0  0  0  0  0  0  0  0  0  0  0
   12.1975  -16.5732   24.2518 O   0  0  0  0  0  0  0  0  0  0  0  0
  1  2  1  0
  3  4  2  0
  3  2  1  0
  5  3  1  0
  6  9  1  0
  6  5  1  0
  7  8  1  0
  6  7  1  1
  9 11  1  0
 10  9  2  0
 11 12  1  0
 12 13  1  0
 13 14  2  0
 13 15  1  0
M  END
$$$$
