GCG.pdb
     RDKit          3D

 15 14  0  0  1  0  0  0  0  0999 V2000
   10.1482  -16.6195   22.7160 N   0  0  0  0  0  0  0  0  0  0  0  0
    9.3095  -16.1013   23.7662 C   0  0  0  0  0  0  0  0  0  0  0  0
   10.0913  -16.0844   25.0254 C   0  0  0  0  0  0  0  0  0  0  0  0
   11.2620  -16.5826   25.0625 O   0  0  0  0  0  0  0  0  0  0  0  0
    9.5653  -15.5180   26.2182 N   0  0  0  0  0  0  0  0  0  0  0  0
   10.2423  -15.5211   27.4698 C   0  0  1  0  0  0  0  0  0  0  0  0
    9.8202  -14.3432   28.3432 C   0  0  0  0  0  0  0  0  0  0  0  0
   10.1199  -12.8081   27.4151 S   0  0  0  0  0  0  0  0  0  0  0  0
   10.1218  -16.7854   28.2153 C   0  0  0  0  0  0  0  0  0  0  0  0
    8.9594  -17.2526   28.3779 O   0  0  0  0  0  0  0  0  0  0  0  0
   11.2324  -17.4845   28.7463 N   0  0  0  0  0  0  0  0  0  0  0  0
   11.0406  -18.7601   29.4000 C   0  0  0  0  0  0  0  0  0  0  0  0
   12.3440  -19.2884   29.9289 C   0  0  0  0  0  0  0  0  0  0  0  0
   13.4210  -18.7294   29.6048 O   0  0  0  0  0  0  0  0  0  0  0  0
   12.3055  -20.3865   30.7647 O   0  0  0  0  0  0  0  0  0  0  0  0
  1  2  1  0
  3  4  2  0
  3  2  1  0
  5  3  1  0
  6  9  1  0
  6  5  1  0
  7  8  1  0
  6  7  1  1
  9 11  1  0
 10  9  2  0
 11 12  1  0
 12 13  1  0
 13 14  2  0
 13 15  1  0
M  END
$$$$
