GCG.pdb
     RDKit          3D

 15 14  0  0  1  0  0  0  0  0999 V2000
    5.5413  -18.9990   23.4941 N   0  0  0  0  0  0  0  0  0  0  0  0
    5.7617  -18.1971   24.6702 C   0  0  0  0  0  0  0  0  0  0  0  0
    6.4929  -16.9710   24.2715 C   0  0  0  0  0  0  0  0  0  0  0  0
    6.9930  -16.8707   23.1054 O   0  0  0  0  0  0  0  0  0  0  0  0
    6.6575  -15.8802   25.1679 N   0  0  0  0  0  0  0  0  0  0  0  0
    7.5486  -14.7930   24.9476 C   0  0  1  0  0  0  0  0  0  0  0  0
    7.1892  -13.5849   25.8078 C   0  0  0  0  0  0  0  0  0  0  0  0
    5.3845  -13.5602   26.0318 S   0  0  0  0  0  0  0  0  0  0  0  0
    8.9706  -15.1386   25.1119 C   0  0  0  0  0  0  0  0  0  0  0  0
    9.4067  -15.2486   26.2924 O   0  0  0  0  0  0  0  0  0  0  0  0
    9.8512  -15.3485   24.0234 N   0  0  0  0  0  0  0  0  0  0  0  0
   11.2371  -15.6821   24.2665 C   0  0  0  0  0  0  0  0  0  0  0  0
   11.9790  -15.8513   22.9708 C   0  0  0  0  0  0  0  0  0  0  0  0
   11.3640  -15.7410   21.8811 O   0  0  0  0  0  0  0  0  0  0  0  0
   13.3305  -16.1259   23.0303 O   0  0  0  0  0  0  0  0  0  0  0  0
  1  2  1  0
  3  4  2  0
  3  2  1  0
  5  3  1  0
  6  9  1  0
  6  5  1  0
  7  8  1  0
  6  7  1  1
  9 11  1  0
 10  9  2  0
 11 12  1  0
 12 13  1  0
 13 14  2  0
 13 15  1  0
M  END
$$$$
