GCG.pdb
     RDKit          3D

 15 14  0  0  1  0  0  0  0  0999 V2000
    6.8245  -13.9237   20.8076 N   0  0  0  0  0  0  0  0  0  0  0  0
    6.1222  -13.8789   22.0645 C   0  0  0  0  0  0  0  0  0  0  0  0
    7.1207  -13.7982   23.1570 C   0  0  0  0  0  0  0  0  0  0  0  0
    8.3586  -13.9618   22.9104 O   0  0  0  0  0  0  0  0  0  0  0  0
    6.7328  -13.5386   24.4995 N   0  0  0  0  0  0  0  0  0  0  0  0
    7.6435  -13.4336   25.5878 C   0  0  1  0  0  0  0  0  0  0  0  0
    7.0323  -12.6793   26.7651 C   0  0  0  0  0  0  0  0  0  0  0  0
    6.3470  -11.1128   26.1455 S   0  0  0  0  0  0  0  0  0  0  0  0
    8.1987  -14.7228   26.0334 C   0  0  0  0  0  0  0  0  0  0  0  0
    7.3899  -15.5666   26.5125 O   0  0  0  0  0  0  0  0  0  0  0  0
    9.5739  -15.0486   25.9486 N   0  0  0  0  0  0  0  0  0  0  0  0
   10.0216  -16.3881   26.2595 C   0  0  0  0  0  0  0  0  0  0  0  0
   11.2857  -16.7129   25.5149 C   0  0  0  0  0  0  0  0  0  0  0  0
   11.6586  -15.9764   24.5683 O   0  0  0  0  0  0  0  0  0  0  0  0
   11.9994  -17.8275   25.9074 O   0  0  0  0  0  0  0  0  0  0  0  0
  1  2  1  0
  3  4  2  0
  3  2  1  0
  5  3  1  0
  6  9  1  0
  6  5  1  0
  7  8  1  0
  6  7  1  1
  9 11  1  0
 10  9  2  0
 11 12  1  0
 12 13  1  0
 13 14  2  0
 13 15  1  0
M  END
$$$$
