GCG.pdb
     RDKit          3D

 15 14  0  0  1  0  0  0  0  0999 V2000
    6.9488  -19.0150   26.2295 N   0  0  0  0  0  0  0  0  0  0  0  0
    7.1283  -17.7290   26.8530 C   0  0  0  0  0  0  0  0  0  0  0  0
    6.7338  -16.6790   25.8840 C   0  0  0  0  0  0  0  0  0  0  0  0
    6.3859  -16.9935   24.7007 O   0  0  0  0  0  0  0  0  0  0  0  0
    6.7312  -15.3030   26.2404 N   0  0  0  0  0  0  0  0  0  0  0  0
    6.6047  -14.2365   25.3070 C   0  0  1  0  0  0  0  0  0  0  0  0
    6.3662  -12.9006   26.0047 C   0  0  0  0  0  0  0  0  0  0  0  0
    7.4430  -12.8206   27.4681 S   0  0  0  0  0  0  0  0  0  0  0  0
    7.7273  -14.1306   24.3597 C   0  0  0  0  0  0  0  0  0  0  0  0
    7.5894  -13.3385   23.3854 O   0  0  0  0  0  0  0  0  0  0  0  0
    8.9302  -14.8651   24.4934 N   0  0  0  0  0  0  0  0  0  0  0  0
    9.9515  -14.7748   23.4736 C   0  0  0  0  0  0  0  0  0  0  0  0
   11.1533  -15.5946   23.8499 C   0  0  0  0  0  0  0  0  0  0  0  0
   11.0691  -16.4338   24.7806 O   0  0  0  0  0  0  0  0  0  0  0  0
   12.3226  -15.3893   23.1455 O   0  0  0  0  0  0  0  0  0  0  0  0
  1  2  1  0
  3  4  2  0
  3  2  1  0
  5  3  1  0
  6  9  1  0
  6  5  1  0
  7  8  1  0
  6  7  1  1
  9 11  1  0
 10  9  2  0
 11 12  1  0
 12 13  1  0
 13 14  2  0
 13 15  1  0
M  END
$$$$
