GCG.pdb
     RDKit          3D

 15 14  0  0  1  0  0  0  0  0999 V2000
    5.4681  -19.0056   23.6953 N   0  0  0  0  0  0  0  0  0  0  0  0
    5.7019  -18.1717   24.8463 C   0  0  0  0  0  0  0  0  0  0  0  0
    6.4246  -16.9551   24.4049 C   0  0  0  0  0  0  0  0  0  0  0  0
    6.8652  -16.8651   23.2142 O   0  0  0  0  0  0  0  0  0  0  0  0
    6.6464  -15.8625   25.2865 N   0  0  0  0  0  0  0  0  0  0  0  0
    7.5165  -14.7726   25.0043 C   0  0  1  0  0  0  0  0  0  0  0  0
    7.2381  -13.5779   25.9120 C   0  0  0  0  0  0  0  0  0  0  0  0
    5.4367  -13.4059   26.0928 S   0  0  0  0  0  0  0  0  0  0  0  0
    8.9469  -15.1218   25.0354 C   0  0  0  0  0  0  0  0  0  0  0  0
    9.3949  -15.6321   26.1005 O   0  0  0  0  0  0  0  0  0  0  0  0
    9.8226  -14.9133   23.9427 N   0  0  0  0  0  0  0  0  0  0  0  0
   11.2273  -15.2330   24.0687 C   0  0  0  0  0  0  0  0  0  0  0  0
   11.6248  -16.2858   23.0730 C   0  0  0  0  0  0  0  0  0  0  0  0
   11.0064  -17.3785   23.0404 O   0  0  0  0  0  0  0  0  0  0  0  0
   12.6723  -16.0054   22.2186 O   0  0  0  0  0  0  0  0  0  0  0  0
  1  2  1  0
  3  4  2  0
  3  2  1  0
  5  3  1  0
  6  9  1  0
  6  5  1  0
  7  8  1  0
  6  7  1  1
  9 11  1  0
 10  9  2  0
 11 12  1  0
 12 13  1  0
 13 14  2  0
 13 15  1  0
M  END
$$$$
