GCG.pdb
     RDKit          3D

 15 14  0  0  1  0  0  0  0  0999 V2000
    5.4004  -19.0481   23.7282 N   0  0  0  0  0  0  0  0  0  0  0  0
    5.5527  -18.0595   24.7648 C   0  0  0  0  0  0  0  0  0  0  0  0
    6.3372  -16.9260   24.2201 C   0  0  0  0  0  0  0  0  0  0  0  0
    6.9042  -17.0228   23.0847 O   0  0  0  0  0  0  0  0  0  0  0  0
    6.4800  -15.7084   24.9394 N   0  0  0  0  0  0  0  0  0  0  0  0
    7.3105  -14.6294   24.5261 C   0  0  1  0  0  0  0  0  0  0  0  0
    6.8136  -13.2934   25.0709 C   0  0  0  0  0  0  0  0  0  0  0  0
    6.3022  -13.5364   26.7992 S   0  0  0  0  0  0  0  0  0  0  0  0
    8.7375  -14.8154   24.8387 C   0  0  0  0  0  0  0  0  0  0  0  0
    9.0316  -15.1569   26.0188 O   0  0  0  0  0  0  0  0  0  0  0  0
    9.7723  -14.6311   23.8902 N   0  0  0  0  0  0  0  0  0  0  0  0
   11.1484  -14.8729   24.2630 C   0  0  0  0  0  0  0  0  0  0  0  0
   11.5943  -16.2311   23.8003 C   0  0  0  0  0  0  0  0  0  0  0  0
   10.9603  -17.2528   24.1633 O   0  0  0  0  0  0  0  0  0  0  0  0
   12.7025  -16.3035   22.9803 O   0  0  0  0  0  0  0  0  0  0  0  0
  1  2  1  0
  3  4  2  0
  3  2  1  0
  5  3  1  0
  6  9  1  0
  6  5  1  0
  7  8  1  0
  6  7  1  1
  9 11  1  0
 10  9  2  0
 11 12  1  0
 12 13  1  0
 13 14  2  0
 13 15  1  0
M  END
$$$$
