GCG.pdb
     RDKit          3D

 15 14  0  0  1  0  0  0  0  0999 V2000
    5.3851  -18.2649   24.1354 N   0  0  0  0  0  0  0  0  0  0  0  0
    5.5882  -17.4217   25.2855 C   0  0  0  0  0  0  0  0  0  0  0  0
    6.3682  -16.2338   24.8642 C   0  0  0  0  0  0  0  0  0  0  0  0
    6.9230  -16.2015   23.7191 O   0  0  0  0  0  0  0  0  0  0  0  0
    6.5201  -15.1054   25.7151 N   0  0  0  0  0  0  0  0  0  0  0  0
    7.5403  -14.1248   25.5664 C   0  0  1  0  0  0  0  0  0  0  0  0
    7.3244  -12.9388   26.5021 C   0  0  0  0  0  0  0  0  0  0  0  0
    5.5409  -12.5914   26.5812 S   0  0  0  0  0  0  0  0  0  0  0  0
    8.9074  -14.6531   25.7102 C   0  0  0  0  0  0  0  0  0  0  0  0
    9.3084  -14.9098   26.8803 O   0  0  0  0  0  0  0  0  0  0  0  0
    9.7730  -14.8805   24.6133 N   0  0  0  0  0  0  0  0  0  0  0  0
   11.0627  -15.4997   24.8243 C   0  0  0  0  0  0  0  0  0  0  0  0
   11.7814  -15.6906   23.5186 C   0  0  0  0  0  0  0  0  0  0  0  0
   11.1298  -15.7094   22.4450 O   0  0  0  0  0  0  0  0  0  0  0  0
   13.1534  -15.8402   23.5512 O   0  0  0  0  0  0  0  0  0  0  0  0
  1  2  1  0
  3  4  2  0
  3  2  1  0
  5  3  1  0
  6  9  1  0
  6  5  1  0
  7  8  1  0
  6  7  1  1
  9 11  1  0
 10  9  2  0
 11 12  1  0
 12 13  1  0
 13 14  2  0
 13 15  1  0
M  END
$$$$
