GCG.pdb
     RDKit          3D

 15 14  0  0  1  0  0  0  0  0999 V2000
    5.7862  -19.2923   23.8507 N   0  0  0  0  0  0  0  0  0  0  0  0
    6.0383  -18.4038   24.9561 C   0  0  0  0  0  0  0  0  0  0  0  0
    6.5705  -17.1283   24.4205 C   0  0  0  0  0  0  0  0  0  0  0  0
    6.8744  -17.0247   23.1888 O   0  0  0  0  0  0  0  0  0  0  0  0
    6.7566  -15.9928   25.2549 N   0  0  0  0  0  0  0  0  0  0  0  0
    7.5645  -14.8730   24.9113 C   0  0  1  0  0  0  0  0  0  0  0  0
    7.2053  -13.6422   25.7387 C   0  0  0  0  0  0  0  0  0  0  0  0
    5.3950  -13.5695   25.8975 S   0  0  0  0  0  0  0  0  0  0  0  0
    9.0124  -15.1339   24.9765 C   0  0  0  0  0  0  0  0  0  0  0  0
    9.5582  -15.0865   26.1147 O   0  0  0  0  0  0  0  0  0  0  0  0
    9.8017  -15.4296   23.8389 N   0  0  0  0  0  0  0  0  0  0  0  0
   11.2214  -15.6636   23.9831 C   0  0  0  0  0  0  0  0  0  0  0  0
   11.8613  -15.8952   22.6434 C   0  0  0  0  0  0  0  0  0  0  0  0
   11.1536  -15.8940   21.6058 O   0  0  0  0  0  0  0  0  0  0  0  0
   13.2254  -16.1037   22.6055 O   0  0  0  0  0  0  0  0  0  0  0  0
  1  2  1  0
  3  4  2  0
  3  2  1  0
  5  3  1  0
  6  9  1  0
  6  5  1  0
  7  8  1  0
  6  7  1  1
  9 11  1  0
 10  9  2  0
 11 12  1  0
 12 13  1  0
 13 14  2  0
 13 15  1  0
M  END
$$$$
