WKT.pdb
     RDKit          3D

 31 32  0  0  1  0  0  0  0  0999 V2000
   24.2907  -19.7892  -10.6902 N   0  0  0  0  0  0  0  0  0  0  0  0
   25.6186  -20.2397  -11.0009 C   0  0  1  0  0  0  0  0  0  0  0  0
   26.0340  -21.4242  -10.1613 C   0  0  0  0  0  0  0  0  0  0  0  0
   26.3868  -20.9407   -8.8018 C   0  0  0  0  0  0  0  0  0  0  0  0
   25.5043  -20.4792   -7.8615 C   0  0  0  0  0  0  0  0  0  0  0  0
   26.1924  -20.1330   -6.7596 N   0  0  0  0  0  0  0  0  0  0  0  0
   27.5088  -20.3527   -6.9442 C   0  0  0  0  0  0  0  0  0  0  0  0
   28.6079  -20.1555   -6.1082 C   0  0  0  0  0  0  0  0  0  0  0  0
   29.8354  -20.4937   -6.6265 C   0  0  0  0  0  0  0  0  0  0  0  0
   29.9668  -21.0007   -7.9062 C   0  0  0  0  0  0  0  0  0  0  0  0
   28.8705  -21.1879   -8.7150 C   0  0  0  0  0  0  0  0  0  0  0  0
   27.6314  -20.8575   -8.2203 C   0  0  0  0  0  0  0  0  0  0  0  0
   25.7200  -20.5132  -12.4487 C   0  0  0  0  0  0  0  0  0  0  0  0
   24.7283  -20.9222  -13.1304 O   0  0  0  0  0  0  0  0  0  0  0  0
   26.9393  -20.3228  -13.1149 N   0  0  0  0  0  0  0  0  0  0  0  0
   26.9910  -20.1753  -14.5642 C   0  0  1  0  0  0  0  0  0  0  0  0
   28.1887  -19.3738  -14.9823 C   0  0  0  0  0  0  0  0  0  0  0  0
   28.1644  -19.0869  -16.4459 C   0  0  0  0  0  0  0  0  0  0  0  0
   29.3122  -18.2277  -16.9029 C   0  0  0  0  0  0  0  0  0  0  0  0
   29.1867  -17.8697  -18.3694 C   0  0  0  0  0  0  0  0  0  0  0  0
   30.2755  -16.9999  -18.7397 N   0  0  0  0  0  0  0  0  0  0  0  0
   27.0358  -21.5464  -15.1994 C   0  0  0  0  0  0  0  0  0  0  0  0
   28.0472  -22.2809  -15.1154 O   0  0  0  0  0  0  0  0  0  0  0  0
   24.9325  -24.5075  -14.4545 C   0  0  0  0  0  0  0  0  0  0  0  0
   24.6969  -24.1364  -15.9036 C   0  0  1  0  0  0  0  0  0  0  0  0
   23.5122  -23.4546  -16.0620 O   0  0  0  0  0  0  0  0  0  0  0  0
   25.8562  -23.3578  -16.4700 C   0  0  2  0  0  0  0  0  0  0  0  0
   25.9114  -22.0312  -15.9139 N   0  0  0  0  0  0  0  0  0  0  0  0
   25.8155  -23.3436  -17.9551 C   0  0  0  0  0  0  0  0  0  0  0  0
   25.5205  -22.1778  -18.6559 O   0  0  0  0  0  0  0  0  0  0  0  0
   26.0554  -24.4158  -18.5629 O   0  0  0  0  0  0  0  0  0  0  0  0
  2  1  1  6
  3  4  1  0
  3  2  1  0
  4  5  2  0
  5  6  1  0
  7  6  1  0
  8  7  2  0
  9  8  1  0
 10 11  1  0
 10  9  2  0
 11 12  2  0
 12  4  1  0
 12  7  1  0
 13  2  1  0
 13 15  1  0
 14 13  2  0
 16 15  1  0
 16 22  1  0
 16 17  1  1
 18 17  1  0
 19 18  1  0
 20 19  1  0
 21 20  1  0
 22 23  2  0
 22 28  1  0
 25 24  1  1
 25 26  1  0
 27 25  1  0
 27 29  1  0
 27 28  1  1
 29 30  1  0
 31 29  2  0
M  END
$$$$
