WKT.pdb
     RDKit          3D

 31 32  0  0  1  0  0  0  0  0999 V2000
   26.3293  -29.9826  -18.9365 N   0  0  0  0  0  0  0  0  0  0  0  0
   27.4084  -30.4941  -18.1386 C   0  0  1  0  0  0  0  0  0  0  0  0
   27.1408  -31.8948  -17.6417 C   0  0  0  0  0  0  0  0  0  0  0  0
   25.8864  -31.8835  -16.8460 C   0  0  0  0  0  0  0  0  0  0  0  0
   25.5757  -30.9931  -15.8528 C   0  0  0  0  0  0  0  0  0  0  0  0
   24.3603  -31.2988  -15.3663 N   0  0  0  0  0  0  0  0  0  0  0  0
   23.8562  -32.3692  -16.0110 C   0  0  0  0  0  0  0  0  0  0  0  0
   22.6488  -33.0531  -15.8691 C   0  0  0  0  0  0  0  0  0  0  0  0
   22.4537  -34.1244  -16.7081 C   0  0  0  0  0  0  0  0  0  0  0  0
   23.4053  -34.4983  -17.6390 C   0  0  0  0  0  0  0  0  0  0  0  0
   24.5897  -33.8108  -17.7634 C   0  0  0  0  0  0  0  0  0  0  0  0
   24.8093  -32.7354  -16.9360 C   0  0  0  0  0  0  0  0  0  0  0  0
   28.6712  -30.3985  -18.8983 C   0  0  0  0  0  0  0  0  0  0  0  0
   28.6926  -30.1648  -20.1475 O   0  0  0  0  0  0  0  0  0  0  0  0
   29.8992  -30.5674  -18.2422 N   0  0  0  0  0  0  0  0  0  0  0  0
   31.1617  -30.3642  -18.9422 C   0  0  1  0  0  0  0  0  0  0  0  0
   32.1529  -29.6506  -18.0703 C   0  0  0  0  0  0  0  0  0  0  0  0
   33.4055  -29.3384  -18.8176 C   0  0  0  0  0  0  0  0  0  0  0  0
   34.3366  -28.4278  -18.0639 C   0  0  0  0  0  0  0  0  0  0  0  0
   35.5692  -28.0970  -18.8800 C   0  0  0  0  0  0  0  0  0  0  0  0
   36.3703  -27.1377  -18.1611 N   0  0  0  0  0  0  0  0  0  0  0  0
   31.7137  -31.7062  -19.3657 C   0  0  0  0  0  0  0  0  0  0  0  0
   31.9051  -32.6316  -18.5431 O   0  0  0  0  0  0  0  0  0  0  0  0
   32.2573  -34.9217  -23.0278 C   0  0  0  0  0  0  0  0  0  0  0  0
   31.7126  -33.6359  -22.4419 C   0  0  1  0  0  0  0  0  0  0  0  0
   30.3645  -33.7323  -22.1834 O   0  0  0  0  0  0  0  0  0  0  0  0
   32.4776  -33.2221  -21.2111 C   0  0  2  0  0  0  0  0  0  0  0  0
   32.0294  -31.9426  -20.7275 N   0  0  0  0  0  0  0  0  0  0  0  0
   33.9423  -33.2478  -21.4589 C   0  0  0  0  0  0  0  0  0  0  0  0
   34.7063  -34.3672  -21.1416 O   0  0  0  0  0  0  0  0  0  0  0  0
   34.4739  -32.2287  -21.9640 O   0  0  0  0  0  0  0  0  0  0  0  0
  2  1  1  6
  3  4  1  0
  3  2  1  0
  4  5  2  0
  5  6  1  0
  7  6  1  0
  8  7  2  0
  9  8  1  0
 10 11  1  0
 10  9  2  0
 11 12  2  0
 12  4  1  0
 12  7  1  0
 13  2  1  0
 13 15  1  0
 14 13  2  0
 16 15  1  0
 16 22  1  0
 16 17  1  1
 18 17  1  0
 19 18  1  0
 20 19  1  0
 21 20  1  0
 22 23  2  0
 22 28  1  0
 25 24  1  1
 25 26  1  0
 27 25  1  0
 27 29  1  0
 27 28  1  6
 29 30  1  0
 31 29  2  0
M  END
$$$$
