WKT.pdb
     RDKit          3D

 31 32  0  0  1  0  0  0  0  0999 V2000
   24.5652  -16.1263  -18.9882 N   0  0  0  0  0  0  0  0  0  0  0  0
   24.3820  -16.2581  -17.5698 C   0  0  1  0  0  0  0  0  0  0  0  0
   23.7781  -15.0197  -16.9516 C   0  0  0  0  0  0  0  0  0  0  0  0
   24.7708  -13.9176  -17.0325 C   0  0  0  0  0  0  0  0  0  0  0  0
   24.6445  -12.7791  -17.7834 C   0  0  0  0  0  0  0  0  0  0  0  0
   25.7391  -12.0202  -17.6006 N   0  0  0  0  0  0  0  0  0  0  0  0
   26.5886  -12.6254  -16.7478 C   0  0  0  0  0  0  0  0  0  0  0  0
   27.8352  -12.2423  -16.2529 C   0  0  0  0  0  0  0  0  0  0  0  0
   28.4394  -13.1174  -15.3816 C   0  0  0  0  0  0  0  0  0  0  0  0
   27.8396  -14.3095  -15.0198 C   0  0  0  0  0  0  0  0  0  0  0  0
   26.6098  -14.6692  -15.5190 C   0  0  0  0  0  0  0  0  0  0  0  0
   25.9843  -13.8115  -16.3922 C   0  0  0  0  0  0  0  0  0  0  0  0
   23.5900  -17.4719  -17.2859 C   0  0  0  0  0  0  0  0  0  0  0  0
   22.7337  -17.9277  -18.1072 O   0  0  0  0  0  0  0  0  0  0  0  0
   23.7709  -18.1610  -16.0780 N   0  0  0  0  0  0  0  0  0  0  0  0
   23.0822  -19.4192  -15.8179 C   0  0  1  0  0  0  0  0  0  0  0  0
   23.9633  -20.3700  -15.0619 C   0  0  0  0  0  0  0  0  0  0  0  0
   23.2968  -21.6908  -14.8711 C   0  0  0  0  0  0  0  0  0  0  0  0
   24.1428  -22.6806  -14.1169 C   0  0  0  0  0  0  0  0  0  0  0  0
   23.4265  -24.0043  -13.9451 C   0  0  0  0  0  0  0  0  0  0  0  0
   24.1884  -24.8433  -13.0537 N   0  0  0  0  0  0  0  0  0  0  0  0
   21.8228  -19.1397  -15.0299 C   0  0  0  0  0  0  0  0  0  0  0  0
   21.8559  -18.5941  -13.9027 O   0  0  0  0  0  0  0  0  0  0  0  0
   18.7420  -17.3571  -16.6462 C   0  0  0  0  0  0  0  0  0  0  0  0
   18.3204  -18.6578  -15.9953 C   0  0  1  0  0  0  0  0  0  0  0  0
   18.1012  -19.6413  -16.9323 O   0  0  0  0  0  0  0  0  0  0  0  0
   19.3167  -19.1039  -14.9564 C   0  0  2  0  0  0  0  0  0  0  0  0
   20.5600  -19.4981  -15.5654 N   0  0  0  0  0  0  0  0  0  0  0  0
   18.7484  -20.1734  -14.0958 C   0  0  0  0  0  0  0  0  0  0  0  0
   19.2445  -21.4731  -14.1408 O   0  0  0  0  0  0  0  0  0  0  0  0
   17.8050  -19.8717  -13.3241 O   0  0  0  0  0  0  0  0  0  0  0  0
  2  1  1  6
  3  4  1  0
  3  2  1  0
  4  5  2  0
  5  6  1  0
  7  6  1  0
  8  7  2  0
  9  8  1  0
 10 11  1  0
 10  9  2  0
 11 12  2  0
 12  4  1  0
 12  7  1  0
 13  2  1  0
 13 15  1  0
 14 13  2  0
 16 15  1  0
 16 22  1  0
 16 17  1  1
 18 17  1  0
 19 18  1  0
 20 19  1  0
 21 20  1  0
 22 23  2  0
 22 28  1  0
 25 24  1  6
 25 26  1  0
 27 25  1  0
 27 29  1  0
 27 28  1  6
 29 30  1  0
 31 29  2  0
M  END
$$$$
