WKT.pdb
     RDKit          3D

 31 32  0  0  1  0  0  0  0  0999 V2000
   23.6949  -17.9525  -18.3813 N   0  0  0  0  0  0  0  0  0  0  0  0
   22.4966  -18.0354  -17.5938 C   0  0  1  0  0  0  0  0  0  0  0  0
   21.4239  -17.0903  -18.0800 C   0  0  0  0  0  0  0  0  0  0  0  0
   21.8556  -15.6976  -17.7964 C   0  0  0  0  0  0  0  0  0  0  0  0
   22.5231  -14.8735  -18.6632 C   0  0  0  0  0  0  0  0  0  0  0  0
   22.7410  -13.6950  -18.0541 N   0  0  0  0  0  0  0  0  0  0  0  0
   22.2355  -13.7155  -16.8054 C   0  0  0  0  0  0  0  0  0  0  0  0
   22.2116  -12.7501  -15.7988 C   0  0  0  0  0  0  0  0  0  0  0  0
   21.6008  -13.1128  -14.6219 C   0  0  0  0  0  0  0  0  0  0  0  0
   21.0430  -14.3664  -14.4514 C   0  0  0  0  0  0  0  0  0  0  0  0
   21.0768  -15.3045  -15.4562 C   0  0  0  0  0  0  0  0  0  0  0  0
   21.6819  -14.9667  -16.6433 C   0  0  0  0  0  0  0  0  0  0  0  0
   22.0330  -19.4369  -17.5482 C   0  0  0  0  0  0  0  0  0  0  0  0
   22.0845  -20.1994  -18.5638 O   0  0  0  0  0  0  0  0  0  0  0  0
   21.5154  -19.9662  -16.3571 N   0  0  0  0  0  0  0  0  0  0  0  0
   20.9780  -21.3203  -16.3052 C   0  0  1  0  0  0  0  0  0  0  0  0
   21.9160  -22.2455  -15.5869 C   0  0  0  0  0  0  0  0  0  0  0  0
   23.0148  -22.7065  -16.4842 C   0  0  0  0  0  0  0  0  0  0  0  0
   23.9494  -23.6852  -15.8259 C   0  0  0  0  0  0  0  0  0  0  0  0
   25.0415  -24.1329  -16.7754 C   0  0  0  0  0  0  0  0  0  0  0  0
   25.9660  -24.9831  -16.0672 N   0  0  0  0  0  0  0  0  0  0  0  0
   19.6377  -21.2938  -15.6065 C   0  0  0  0  0  0  0  0  0  0  0  0
   19.4326  -20.5805  -14.5972 O   0  0  0  0  0  0  0  0  0  0  0  0
   14.8702  -22.7341  -15.7464 C   0  0  0  0  0  0  0  0  0  0  0  0
   16.2388  -22.7038  -16.3938 C   0  0  1  0  0  0  0  0  0  0  0  0
   16.2120  -22.0346  -17.5958 O   0  0  0  0  0  0  0  0  0  0  0  0
   17.2755  -22.1228  -15.4670 C   0  0  2  0  0  0  0  0  0  0  0  0
   18.5715  -22.0918  -16.0925 N   0  0  0  0  0  0  0  0  0  0  0  0
   17.2952  -22.8442  -14.1683 C   0  0  0  0  0  0  0  0  0  0  0  0
   16.5707  -22.3781  -13.0750 O   0  0  0  0  0  0  0  0  0  0  0  0
   17.9856  -23.8895  -14.0836 O   0  0  0  0  0  0  0  0  0  0  0  0
  2  1  1  6
  3  4  1  0
  3  2  1  0
  4  5  2  0
  5  6  1  0
  7  6  1  0
  8  7  2  0
  9  8  1  0
 10 11  1  0
 10  9  2  0
 11 12  2  0
 12  4  1  0
 12  7  1  0
 13  2  1  0
 13 15  1  0
 14 13  2  0
 16 15  1  0
 16 22  1  0
 16 17  1  1
 18 17  1  0
 19 18  1  0
 20 19  1  0
 21 20  1  0
 22 23  2  0
 22 28  1  0
 25 24  1  1
 25 26  1  0
 27 25  1  0
 27 29  1  0
 27 28  1  6
 29 30  1  0
 31 29  2  0
M  END
$$$$
