WKT.pdb
     RDKit          3D

 31 32  0  0  1  0  0  0  0  0999 V2000
   25.0279  -20.9608   -7.7988 N   0  0  0  0  0  0  0  0  0  0  0  0
   25.8732  -20.3815   -8.8051 C   0  0  1  0  0  0  0  0  0  0  0  0
   27.3380  -20.6362   -8.5403 C   0  0  0  0  0  0  0  0  0  0  0  0
   27.7731  -19.7713   -7.4137 C   0  0  0  0  0  0  0  0  0  0  0  0
   27.3035  -18.5138   -7.1414 C   0  0  0  0  0  0  0  0  0  0  0  0
   27.9310  -18.0484   -6.0473 N   0  0  0  0  0  0  0  0  0  0  0  0
   28.8050  -18.9643   -5.5864 C   0  0  0  0  0  0  0  0  0  0  0  0
   29.6755  -18.9491   -4.4966 C   0  0  0  0  0  0  0  0  0  0  0  0
   30.4411  -20.0760   -4.3132 C   0  0  0  0  0  0  0  0  0  0  0  0
   30.3488  -21.1612   -5.1652 C   0  0  0  0  0  0  0  0  0  0  0  0
   29.4840  -21.1567   -6.2343 C   0  0  0  0  0  0  0  0  0  0  0  0
   28.7071  -20.0416   -6.4398 C   0  0  0  0  0  0  0  0  0  0  0  0
   25.4512  -20.8585  -10.1375 C   0  0  0  0  0  0  0  0  0  0  0  0
   25.4778  -22.0891  -10.4547 O   0  0  0  0  0  0  0  0  0  0  0  0
   25.0028  -19.9431  -11.1008 N   0  0  0  0  0  0  0  0  0  0  0  0
   24.6601  -20.3763  -12.4499 C   0  0  1  0  0  0  0  0  0  0  0  0
   23.2844  -19.9140  -12.8315 C   0  0  0  0  0  0  0  0  0  0  0  0
   22.2333  -20.6880  -12.1096 C   0  0  0  0  0  0  0  0  0  0  0  0
   22.0466  -22.0815  -12.6462 C   0  0  0  0  0  0  0  0  0  0  0  0
   20.9855  -22.1217  -13.7265 C   0  0  0  0  0  0  0  0  0  0  0  0
   20.8834  -23.4649  -14.2408 N   0  0  0  0  0  0  0  0  0  0  0  0
   25.6808  -19.8264  -13.4199 C   0  0  0  0  0  0  0  0  0  0  0  0
   26.0410  -18.6268  -13.3908 O   0  0  0  0  0  0  0  0  0  0  0  0
   29.2229  -20.9292  -13.9010 C   0  0  0  0  0  0  0  0  0  0  0  0
   28.5023  -21.1110  -15.2204 C   0  0  1  0  0  0  0  0  0  0  0  0
   28.1865  -22.4317  -15.4433 O   0  0  0  0  0  0  0  0  0  0  0  0
   27.2800  -20.2339  -15.3076 C   0  0  2  0  0  0  0  0  0  0  0  0
   26.2573  -20.6769  -14.3967 N   0  0  0  0  0  0  0  0  0  0  0  0
   26.7863  -20.1432  -16.7060 C   0  0  0  0  0  0  0  0  0  0  0  0
   27.5884  -19.6285  -17.7205 O   0  0  0  0  0  0  0  0  0  0  0  0
   25.6218  -20.5450  -16.9486 O   0  0  0  0  0  0  0  0  0  0  0  0
  2  1  1  1
  3  4  1  0
  3  2  1  0
  4  5  2  0
  5  6  1  0
  7  6  1  0
  8  7  2  0
  9  8  1  0
 10 11  1  0
 10  9  2  0
 11 12  2  0
 12  4  1  0
 12  7  1  0
 13  2  1  0
 13 15  1  0
 14 13  2  0
 16 15  1  0
 16 22  1  0
 16 17  1  6
 18 17  1  0
 19 18  1  0
 20 19  1  0
 21 20  1  0
 22 23  2  0
 22 28  1  0
 25 24  1  1
 25 26  1  0
 27 25  1  0
 27 29  1  0
 27 28  1  1
 29 30  1  0
 31 29  2  0
M  END
$$$$
