WKT.pdb
     RDKit          3D

 31 32  0  0  1  0  0  0  0  0999 V2000
   25.7516  -19.7811  -18.2321 N   0  0  0  0  0  0  0  0  0  0  0  0
   25.3502  -19.1277  -17.0177 C   0  0  1  0  0  0  0  0  0  0  0  0
   24.0425  -18.3878  -17.1694 C   0  0  0  0  0  0  0  0  0  0  0  0
   24.2589  -17.2222  -18.0645 C   0  0  0  0  0  0  0  0  0  0  0  0
   25.0377  -16.1309  -17.7847 C   0  0  0  0  0  0  0  0  0  0  0  0
   24.9886  -15.2882  -18.8311 N   0  0  0  0  0  0  0  0  0  0  0  0
   24.1974  -15.7920  -19.7982 C   0  0  0  0  0  0  0  0  0  0  0  0
   23.8381  -15.2990  -21.0527 C   0  0  0  0  0  0  0  0  0  0  0  0
   22.9950  -16.0883  -21.7983 C   0  0  0  0  0  0  0  0  0  0  0  0
   22.5323  -17.3025  -21.3256 C   0  0  0  0  0  0  0  0  0  0  0  0
   22.8983  -17.7712  -20.0857 C   0  0  0  0  0  0  0  0  0  0  0  0
   23.7407  -17.0007  -19.3201 C   0  0  0  0  0  0  0  0  0  0  0  0
   25.3153  -20.1118  -15.9171 C   0  0  0  0  0  0  0  0  0  0  0  0
   24.7566  -21.2466  -16.0423 O   0  0  0  0  0  0  0  0  0  0  0  0
   25.9110  -19.8072  -14.6845 N   0  0  0  0  0  0  0  0  0  0  0  0
   25.5728  -20.5542  -13.4792 C   0  0  1  0  0  0  0  0  0  0  0  0
   26.4230  -20.1220  -12.3207 C   0  0  0  0  0  0  0  0  0  0  0  0
   27.4194  -21.1714  -11.9589 C   0  0  0  0  0  0  0  0  0  0  0  0
   28.2998  -20.7823  -10.8022 C   0  0  0  0  0  0  0  0  0  0  0  0
   29.3020  -21.8709  -10.4780 C   0  0  0  0  0  0  0  0  0  0  0  0
   30.1440  -21.4321   -9.3928 N   0  0  0  0  0  0  0  0  0  0  0  0
   24.1109  -20.3407  -13.1591 C   0  0  0  0  0  0  0  0  0  0  0  0
   23.6266  -19.1944  -13.0147 O   0  0  0  0  0  0  0  0  0  0  0  0
   21.4046  -23.5696  -13.7822 C   0  0  0  0  0  0  0  0  0  0  0  0
   21.0400  -22.0999  -13.7986 C   0  0  1  0  0  0  0  0  0  0  0  0
   19.6878  -21.9150  -13.6236 O   0  0  0  0  0  0  0  0  0  0  0  0
   21.8348  -21.3223  -12.7813 C   0  0  2  0  0  0  0  0  0  0  0  0
   23.2488  -21.4569  -13.0147 N   0  0  0  0  0  0  0  0  0  0  0  0
   21.4542  -21.7079  -11.3979 C   0  0  0  0  0  0  0  0  0  0  0  0
   20.1745  -21.4623  -10.9086 O   0  0  0  0  0  0  0  0  0  0  0  0
   22.3214  -22.2633  -10.6797 O   0  0  0  0  0  0  0  0  0  0  0  0
  2  1  1  6
  3  4  1  0
  3  2  1  0
  4  5  2  0
  5  6  1  0
  7  6  1  0
  8  7  2  0
  9  8  1  0
 10 11  1  0
 10  9  2  0
 11 12  2  0
 12  4  1  0
 12  7  1  0
 13  2  1  0
 13 15  1  0
 14 13  2  0
 16 15  1  0
 16 22  1  0
 16 17  1  1
 18 17  1  0
 19 18  1  0
 20 19  1  0
 21 20  1  0
 22 23  2  0
 22 28  1  0
 25 24  1  1
 25 26  1  0
 27 25  1  0
 27 29  1  0
 27 28  1  6
 29 30  1  0
 31 29  2  0
M  END
$$$$
