WKT.pdb
     RDKit          3D

 31 32  0  0  1  0  0  0  0  0999 V2000
   24.9150  -21.2897  -16.6486 N   0  0  0  0  0  0  0  0  0  0  0  0
   24.8695  -22.4708  -15.8328 C   0  0  1  0  0  0  0  0  0  0  0  0
   23.5805  -22.5808  -15.0538 C   0  0  0  0  0  0  0  0  0  0  0  0
   23.6112  -21.5925  -13.9452 C   0  0  0  0  0  0  0  0  0  0  0  0
   23.0132  -20.3604  -13.9535 C   0  0  0  0  0  0  0  0  0  0  0  0
   23.2589  -19.7554  -12.7783 N   0  0  0  0  0  0  0  0  0  0  0  0
   24.0046  -20.5541  -11.9901 C   0  0  0  0  0  0  0  0  0  0  0  0
   24.5081  -20.3764  -10.7015 C   0  0  0  0  0  0  0  0  0  0  0  0
   25.2449  -21.4167  -10.1870 C   0  0  0  0  0  0  0  0  0  0  0  0
   25.4710  -22.5724  -10.9116 C   0  0  0  0  0  0  0  0  0  0  0  0
   24.9659  -22.7283  -12.1810 C   0  0  0  0  0  0  0  0  0  0  0  0
   24.2254  -21.7026  -12.7186 C   0  0  0  0  0  0  0  0  0  0  0  0
   25.1227  -23.6594  -16.6720 C   0  0  0  0  0  0  0  0  0  0  0  0
   24.7818  -23.7081  -17.8955 O   0  0  0  0  0  0  0  0  0  0  0  0
   25.7584  -24.7828  -16.1236 N   0  0  0  0  0  0  0  0  0  0  0  0
   26.0210  -25.9684  -16.9301 C   0  0  1  0  0  0  0  0  0  0  0  0
   27.3148  -26.6159  -16.5317 C   0  0  0  0  0  0  0  0  0  0  0  0
   28.4858  -25.8391  -17.0321 C   0  0  0  0  0  0  0  0  0  0  0  0
   29.8051  -26.5092  -16.7582 C   0  0  0  0  0  0  0  0  0  0  0  0
   30.9645  -25.6805  -17.2716 C   0  0  0  0  0  0  0  0  0  0  0  0
   32.2036  -26.3075  -16.8837 N   0  0  0  0  0  0  0  0  0  0  0  0
   24.8784  -26.9438  -16.7620 C   0  0  0  0  0  0  0  0  0  0  0  0
   24.3735  -27.1833  -15.6406 O   0  0  0  0  0  0  0  0  0  0  0  0
   23.1755  -28.9197  -20.2781 C   0  0  0  0  0  0  0  0  0  0  0  0
   22.3870  -28.3878  -19.0997 C   0  0  1  0  0  0  0  0  0  0  0  0
   21.1792  -29.0341  -18.9697 O   0  0  0  0  0  0  0  0  0  0  0  0
   23.1856  -28.4585  -17.8237 C   0  0  2  0  0  0  0  0  0  0  0  0
   24.3504  -27.6155  -17.8932 N   0  0  0  0  0  0  0  0  0  0  0  0
   23.5282  -29.8640  -17.4851 C   0  0  0  0  0  0  0  0  0  0  0  0
   22.5760  -30.7288  -16.9534 O   0  0  0  0  0  0  0  0  0  0  0  0
   24.7043  -30.2517  -17.6925 O   0  0  0  0  0  0  0  0  0  0  0  0
  2  1  1  6
  3  4  1  0
  3  2  1  0
  4  5  2  0
  5  6  1  0
  7  6  1  0
  8  7  2  0
  9  8  1  0
 10 11  1  0
 10  9  2  0
 11 12  2  0
 12  4  1  0
 12  7  1  0
 13  2  1  0
 13 15  1  0
 14 13  2  0
 16 15  1  0
 16 22  1  0
 16 17  1  1
 18 17  1  0
 19 18  1  0
 20 19  1  0
 21 20  1  0
 22 23  2  0
 22 28  1  0
 25 24  1  6
 25 26  1  0
 27 25  1  0
 27 29  1  0
 27 28  1  6
 29 30  1  0
 31 29  2  0
M  END
$$$$
