WKT.pdb
     RDKit          3D

 31 32  0  0  1  0  0  0  0  0999 V2000
   28.2484  -19.7420  -16.6487 N   0  0  0  0  0  0  0  0  0  0  0  0
   27.3136  -18.9306  -15.9204 C   0  0  1  0  0  0  0  0  0  0  0  0
   26.5523  -17.9854  -16.8189 C   0  0  0  0  0  0  0  0  0  0  0  0
   27.4321  -16.8355  -17.1509 C   0  0  0  0  0  0  0  0  0  0  0  0
   28.0618  -16.6283  -18.3494 C   0  0  0  0  0  0  0  0  0  0  0  0
   28.7670  -15.4863  -18.2726 N   0  0  0  0  0  0  0  0  0  0  0  0
   28.6218  -14.9301  -17.0541 C   0  0  0  0  0  0  0  0  0  0  0  0
   29.1457  -13.7623  -16.4995 C   0  0  0  0  0  0  0  0  0  0  0  0
   28.7844  -13.4895  -15.2015 C   0  0  0  0  0  0  0  0  0  0  0  0
   27.9479  -14.3300  -14.4904 C   0  0  0  0  0  0  0  0  0  0  0  0
   27.4416  -15.4770  -15.0552 C   0  0  0  0  0  0  0  0  0  0  0  0
   27.7876  -15.7726  -16.3522 C   0  0  0  0  0  0  0  0  0  0  0  0
   26.4181  -19.7994  -15.1302 C   0  0  0  0  0  0  0  0  0  0  0  0
   26.2311  -21.0220  -15.4229 O   0  0  0  0  0  0  0  0  0  0  0  0
   25.7412  -19.2813  -14.0165 N   0  0  0  0  0  0  0  0  0  0  0  0
   24.9281  -20.1389  -13.1631 C   0  0  1  0  0  0  0  0  0  0  0  0
   25.2112  -19.8802  -11.7123 C   0  0  0  0  0  0  0  0  0  0  0  0
   24.3385  -20.7116  -10.8335 C   0  0  0  0  0  0  0  0  0  0  0  0
   24.6052  -20.5083   -9.3665 C   0  0  0  0  0  0  0  0  0  0  0  0
   23.6315  -21.2938   -8.5123 C   0  0  0  0  0  0  0  0  0  0  0  0
   23.9281  -21.0616   -7.1205 N   0  0  0  0  0  0  0  0  0  0  0  0
   23.4670  -19.8893  -13.4600 C   0  0  0  0  0  0  0  0  0  0  0  0
   22.9660  -18.7429  -13.3956 O   0  0  0  0  0  0  0  0  0  0  0  0
   21.4283  -20.7705  -16.5944 C   0  0  0  0  0  0  0  0  0  0  0  0
   20.8442  -21.4864  -15.3946 C   0  0  1  0  0  0  0  0  0  0  0  0
   21.1999  -22.8155  -15.3796 O   0  0  0  0  0  0  0  0  0  0  0  0
   21.2234  -20.8038  -14.1056 C   0  0  2  0  0  0  0  0  0  0  0  0
   22.6249  -20.9705  -13.8231 N   0  0  0  0  0  0  0  0  0  0  0  0
   20.3650  -21.2655  -12.9842 C   0  0  0  0  0  0  0  0  0  0  0  0
   19.0168  -20.9252  -12.9226 O   0  0  0  0  0  0  0  0  0  0  0  0
   20.8909  -21.9735  -12.0906 O   0  0  0  0  0  0  0  0  0  0  0  0
  2  1  1  6
  3  4  1  0
  3  2  1  0
  4  5  2  0
  5  6  1  0
  7  6  1  0
  8  7  2  0
  9  8  1  0
 10 11  1  0
 10  9  2  0
 11 12  2  0
 12  4  1  0
 12  7  1  0
 13  2  1  0
 13 15  1  0
 14 13  2  0
 16 15  1  0
 16 22  1  0
 16 17  1  1
 18 17  1  0
 19 18  1  0
 20 19  1  0
 21 20  1  0
 22 23  2  0
 22 28  1  0
 25 24  1  6
 25 26  1  0
 27 25  1  0
 27 29  1  0
 27 28  1  1
 29 30  1  0
 31 29  2  0
M  END
$$$$
