PHT.pdb
     RDKit          3D

 25 26  0  0  1  0  0  0  0  0999 V2000
   27.2305  -19.2484  -14.8176 N   0  0  0  0  0  0  0  0  0  0  0  0
   28.6572  -19.3528  -14.7653 C   0  0  0  0  0  0  0  0  0  0  0  0
   29.0997  -20.0120  -16.0411 C   0  0  0  0  0  0  0  0  0  0  0  0
   27.8529  -20.0863  -16.8767 C   0  0  0  0  0  0  0  0  0  0  0  0
   26.8529  -19.1825  -16.2169 C   0  0  1  0  0  0  0  0  0  0  0  0
   25.4610  -19.6631  -16.3680 C   0  0  0  0  0  0  0  0  0  0  0  0
   24.9186  -19.7250  -17.4854 O   0  0  0  0  0  0  0  0  0  0  0  0
   24.7498  -20.0536  -15.2215 N   0  0  0  0  0  0  0  0  0  0  0  0
   23.4011  -20.5792  -15.2392 C   0  0  1  0  0  0  0  0  0  0  0  0
   23.4078  -21.8287  -14.3832 C   0  0  0  0  0  0  0  0  0  0  0  0
   24.0445  -22.9697  -15.0639 C   0  0  0  0  0  0  0  0  0  0  0  0
   24.5312  -22.9032  -16.3524 C   0  0  0  0  0  0  0  0  0  0  0  0
   25.0420  -24.0834  -16.6819 N   0  0  0  0  0  0  0  0  0  0  0  0
   24.9001  -24.9139  -15.6427 C   0  0  0  0  0  0  0  0  0  0  0  0
   24.2876  -24.2245  -14.6539 N   0  0  0  0  0  0  0  0  0  0  0  0
   22.5190  -19.6043  -14.5596 C   0  0  0  0  0  0  0  0  0  0  0  0
   22.8013  -19.2386  -13.3956 O   0  0  0  0  0  0  0  0  0  0  0  0
   21.8328  -16.0447  -15.2357 C   0  0  0  0  0  0  0  0  0  0  0  0
   20.5085  -16.7456  -15.2136 C   0  0  1  0  0  0  0  0  0  0  0  0
   20.1030  -17.0144  -16.5130 O   0  0  0  0  0  0  0  0  0  0  0  0
   20.5330  -18.0433  -14.4632 C   0  0  2  0  0  0  0  0  0  0  0  0
   21.3535  -19.0471  -15.1515 N   0  0  0  0  0  0  0  0  0  0  0  0
   19.1595  -18.6011  -14.2779 C   0  0  0  0  0  0  0  0  0  0  0  0
   18.2528  -17.9807  -13.4307 O   0  0  0  0  0  0  0  0  0  0  0  0
   18.7929  -19.6394  -14.8806 O   0  0  0  0  0  0  0  0  0  0  0  0
  2  1  1  0
  3  2  1  0
  4  3  1  0
  4  5  1  0
  5  1  1  0
  5  6  1  1
  6  7  2  0
  8  6  1  0
  8  9  1  0
  9 16  1  0
  9 10  1  1
 10 11  1  0
 11 12  2  0
 12 13  1  0
 14 13  1  0
 15 11  1  0
 15 14  2  0
 16 17  2  0
 19 18  1  6
 19 21  1  0
 20 19  1  0
 21 23  1  0
 21 22  1  6
 22 16  1  0
 23 25  2  0
 23 24  1  0
M  END
$$$$
