PHT.pdb
     RDKit          3D

 25 26  0  0  1  0  0  0  0  0999 V2000
   23.7601  -11.5369  -15.8152 N   0  0  0  0  0  0  0  0  0  0  0  0
   24.2652  -12.8625  -16.0060 C   0  0  0  0  0  0  0  0  0  0  0  0
   23.4825  -13.4763  -17.1325 C   0  0  0  0  0  0  0  0  0  0  0  0
   22.6540  -12.3452  -17.6732 C   0  0  0  0  0  0  0  0  0  0  0  0
   23.2301  -11.0886  -17.0892 C   0  0  1  0  0  0  0  0  0  0  0  0
   22.2054  -10.0473  -16.8502 C   0  0  0  0  0  0  0  0  0  0  0  0
   21.6008   -9.5097  -17.7947 O   0  0  0  0  0  0  0  0  0  0  0  0
   21.9192   -9.6678  -15.5284 N   0  0  0  0  0  0  0  0  0  0  0  0
   20.8926   -8.7167  -15.1582 C   0  0  1  0  0  0  0  0  0  0  0  0
   20.0620   -9.3704  -14.0734 C   0  0  0  0  0  0  0  0  0  0  0  0
   18.9429  -10.1556  -14.6225 C   0  0  0  0  0  0  0  0  0  0  0  0
   18.6565  -10.2204  -15.9698 C   0  0  0  0  0  0  0  0  0  0  0  0
   17.5980  -11.0014  -16.1487 N   0  0  0  0  0  0  0  0  0  0  0  0
   17.1896  -11.4452  -14.9545 C   0  0  0  0  0  0  0  0  0  0  0  0
   18.0187  -10.9228  -14.0230 N   0  0  0  0  0  0  0  0  0  0  0  0
   21.5528   -7.5456  -14.5392 C   0  0  0  0  0  0  0  0  0  0  0  0
   22.3265   -7.7262  -13.5711 O   0  0  0  0  0  0  0  0  0  0  0  0
   24.1501   -5.4449  -15.9087 C   0  0  0  0  0  0  0  0  0  0  0  0
   23.0597   -4.5100  -15.4814 C   0  0  1  0  0  0  0  0  0  0  0  0
   22.2847   -4.1667  -16.5799 O   0  0  0  0  0  0  0  0  0  0  0  0
   22.1495   -5.0911  -14.4415 C   0  0  2  0  0  0  0  0  0  0  0  0
   21.3628   -6.2078  -14.9788 N   0  0  0  0  0  0  0  0  0  0  0  0
   21.2073   -4.0675  -13.8968 C   0  0  0  0  0  0  0  0  0  0  0  0
   19.8429   -4.1688  -14.1271 O   0  0  0  0  0  0  0  0  0  0  0  0
   21.6238   -3.0953  -13.2207 O   0  0  0  0  0  0  0  0  0  0  0  0
  2  1  1  0
  3  2  1  0
  4  3  1  0
  4  5  1  0
  5  1  1  0
  5  6  1  1
  6  7  2  0
  8  6  1  0
  8  9  1  0
  9 16  1  0
  9 10  1  1
 10 11  1  0
 11 12  2  0
 12 13  1  0
 14 13  1  0
 15 11  1  0
 15 14  2  0
 16 17  2  0
 19 18  1  6
 19 21  1  0
 20 19  1  0
 21 23  1  0
 21 22  1  6
 22 16  1  0
 23 25  2  0
 23 24  1  0
M  END
$$$$
