PHT.pdb
     RDKit          3D

 25 26  0  0  1  0  0  0  0  0999 V2000
   18.3268  -11.8302  -15.6220 N   0  0  0  0  0  0  0  0  0  0  0  0
   18.4611  -12.8180  -16.6492 C   0  0  0  0  0  0  0  0  0  0  0  0
   19.0421  -12.1295  -17.8519 C   0  0  0  0  0  0  0  0  0  0  0  0
   19.3972  -10.7542  -17.3614 C   0  0  0  0  0  0  0  0  0  0  0  0
   19.3355  -10.8157  -15.8633 C   0  0  1  0  0  0  0  0  0  0  0  0
   18.8960   -9.5391  -15.2564 C   0  0  0  0  0  0  0  0  0  0  0  0
   19.5058   -8.4777  -15.4760 O   0  0  0  0  0  0  0  0  0  0  0  0
   17.7683   -9.5386  -14.4188 N   0  0  0  0  0  0  0  0  0  0  0  0
   17.2020   -8.3507  -13.8158 C   0  0  1  0  0  0  0  0  0  0  0  0
   15.7216   -8.6154  -13.6360 C   0  0  0  0  0  0  0  0  0  0  0  0
   14.9657   -8.4399  -14.8883 C   0  0  0  0  0  0  0  0  0  0  0  0
   14.4301   -7.2321  -15.2830 C   0  0  0  0  0  0  0  0  0  0  0  0
   13.8118   -7.3942  -16.4465 N   0  0  0  0  0  0  0  0  0  0  0  0
   13.9313   -8.6740  -16.8177 C   0  0  0  0  0  0  0  0  0  0  0  0
   14.6401   -9.3096  -15.8576 N   0  0  0  0  0  0  0  0  0  0  0  0
   17.7749   -8.2063  -12.4589 C   0  0  0  0  0  0  0  0  0  0  0  0
   17.8361   -9.2123  -11.7155 O   0  0  0  0  0  0  0  0  0  0  0  0
   21.2274   -7.5928  -11.4460 C   0  0  0  0  0  0  0  0  0  0  0  0
   20.3960   -6.5231  -10.8056 C   0  0  1  0  0  0  0  0  0  0  0  0
   20.4440   -5.3718  -11.5785 O   0  0  0  0  0  0  0  0  0  0  0  0
   18.9557   -6.9054  -10.6413 C   0  0  2  0  0  0  0  0  0  0  0  0
   18.2683   -6.9807  -11.9361 N   0  0  0  0  0  0  0  0  0  0  0  0
   18.2222   -5.9372   -9.7716 C   0  0  0  0  0  0  0  0  0  0  0  0
   18.4839   -5.8704   -8.4107 O   0  0  0  0  0  0  0  0  0  0  0  0
   17.3553   -5.1639  -10.2471 O   0  0  0  0  0  0  0  0  0  0  0  0
  2  1  1  0
  3  2  1  0
  4  3  1  0
  4  5  1  0
  5  1  1  0
  5  6  1  6
  6  7  2  0
  8  6  1  0
  8  9  1  0
  9 16  1  0
  9 10  1  1
 10 11  1  0
 11 12  2  0
 12 13  1  0
 14 13  1  0
 15 11  1  0
 15 14  2  0
 16 17  2  0
 19 18  1  6
 19 21  1  0
 20 19  1  0
 21 23  1  0
 21 22  1  6
 22 16  1  0
 23 25  2  0
 23 24  1  0
M  END
$$$$
