PHT.pdb
     RDKit          3D

 25 26  0  0  1  0  0  0  0  0999 V2000
   22.0778  -11.9504  -17.8650 N   0  0  0  0  0  0  0  0  0  0  0  0
   22.1919  -13.2117  -18.5321 C   0  0  0  0  0  0  0  0  0  0  0  0
   21.0567  -13.2978  -19.5130 C   0  0  0  0  0  0  0  0  0  0  0  0
   20.4295  -11.9325  -19.4811 C   0  0  0  0  0  0  0  0  0  0  0  0
   21.4065  -11.0399  -18.7735 C   0  0  1  0  0  0  0  0  0  0  0  0
   20.7429   -9.9732  -17.9906 C   0  0  0  0  0  0  0  0  0  0  0  0
   20.0500   -9.1027  -18.5461 O   0  0  0  0  0  0  0  0  0  0  0  0
   20.9059   -9.9540  -16.5955 N   0  0  0  0  0  0  0  0  0  0  0  0
   20.2336   -9.0276  -15.7095 C   0  0  1  0  0  0  0  0  0  0  0  0
   19.7394   -9.8345  -14.5269 C   0  0  0  0  0  0  0  0  0  0  0  0
   18.4659  -10.5191  -14.8098 C   0  0  0  0  0  0  0  0  0  0  0  0
   17.7746  -10.3670  -15.9932 C   0  0  0  0  0  0  0  0  0  0  0  0
   16.6733  -11.1068  -15.9474 N   0  0  0  0  0  0  0  0  0  0  0  0
   16.6309  -11.7348  -14.7668 C   0  0  0  0  0  0  0  0  0  0  0  0
   17.7332  -11.3699  -14.0742 N   0  0  0  0  0  0  0  0  0  0  0  0
   21.2419   -8.0798  -15.1846 C   0  0  0  0  0  0  0  0  0  0  0  0
   22.3592   -8.5183  -14.8273 O   0  0  0  0  0  0  0  0  0  0  0  0
   22.6020   -4.9855  -17.0379 C   0  0  0  0  0  0  0  0  0  0  0  0
   22.1626   -4.5962  -15.6591 C   0  0  1  0  0  0  0  0  0  0  0  0
   20.8995   -4.0249  -15.7177 O   0  0  0  0  0  0  0  0  0  0  0  0
   22.0998   -5.7508  -14.7049 C   0  0  2  0  0  0  0  0  0  0  0  0
   21.0212   -6.6819  -15.0575 N   0  0  0  0  0  0  0  0  0  0  0  0
   21.8901   -5.2948  -13.2978 C   0  0  0  0  0  0  0  0  0  0  0  0
   22.8438   -4.5168  -12.6572 O   0  0  0  0  0  0  0  0  0  0  0  0
   20.8519   -5.6020  -12.6628 O   0  0  0  0  0  0  0  0  0  0  0  0
  2  1  1  0
  3  2  1  0
  4  3  1  0
  4  5  1  0
  5  1  1  0
  5  6  1  1
  6  7  2  0
  8  6  1  0
  8  9  1  0
  9 16  1  0
  9 10  1  1
 10 11  1  0
 11 12  2  0
 12 13  1  0
 14 13  1  0
 15 11  1  0
 15 14  2  0
 16 17  2  0
 19 18  1  6
 19 21  1  0
 20 19  1  0
 21 23  1  0
 21 22  1  6
 22 16  1  0
 23 25  2  0
 23 24  1  0
M  END
$$$$
