PHT.pdb
     RDKit          3D

 25 26  0  0  1  0  0  0  0  0999 V2000
   24.4450  -12.4937  -15.5830 N   0  0  0  0  0  0  0  0  0  0  0  0
   24.9662  -13.8143  -15.7655 C   0  0  0  0  0  0  0  0  0  0  0  0
   24.4197  -14.3299  -17.0668 C   0  0  0  0  0  0  0  0  0  0  0  0
   23.7263  -13.1449  -17.6779 C   0  0  0  0  0  0  0  0  0  0  0  0
   24.1848  -11.9457  -16.9009 C   0  0  1  0  0  0  0  0  0  0  0  0
   23.1423  -10.9001  -16.7955 C   0  0  0  0  0  0  0  0  0  0  0  0
   22.7106  -10.3167  -17.8055 O   0  0  0  0  0  0  0  0  0  0  0  0
   22.6389  -10.5692  -15.5266 N   0  0  0  0  0  0  0  0  0  0  0  0
   21.5769   -9.6130  -15.2955 C   0  0  1  0  0  0  0  0  0  0  0  0
   20.6940  -10.1942  -14.2107 C   0  0  0  0  0  0  0  0  0  0  0  0
   19.7221  -11.1659  -14.7414 C   0  0  0  0  0  0  0  0  0  0  0  0
   19.6076  -11.4619  -16.0834 C   0  0  0  0  0  0  0  0  0  0  0  0
   18.6504  -12.3675  -16.2450 N   0  0  0  0  0  0  0  0  0  0  0  0
   18.1408  -12.6674  -15.0450 C   0  0  0  0  0  0  0  0  0  0  0  0
   18.8025  -11.9270  -14.1274 N   0  0  0  0  0  0  0  0  0  0  0  0
   22.1802   -8.3822  -14.7372 C   0  0  0  0  0  0  0  0  0  0  0  0
   23.0210   -8.4828  -13.8146 O   0  0  0  0  0  0  0  0  0  0  0  0
   24.1046   -5.6050  -16.6116 C   0  0  0  0  0  0  0  0  0  0  0  0
   23.0197   -4.9927  -15.7788 C   0  0  1  0  0  0  0  0  0  0  0  0
   21.9270   -4.6986  -16.5817 O   0  0  0  0  0  0  0  0  0  0  0  0
   22.5465   -5.8820  -14.6683 C   0  0  2  0  0  0  0  0  0  0  0  0
   21.8623   -7.0724  -15.1871 N   0  0  0  0  0  0  0  0  0  0  0  0
   21.6157   -5.1660  -13.7447 C   0  0  0  0  0  0  0  0  0  0  0  0
   22.0575   -4.0876  -12.9918 O   0  0  0  0  0  0  0  0  0  0  0  0
   20.4172   -5.5198  -13.6270 O   0  0  0  0  0  0  0  0  0  0  0  0
  2  1  1  0
  3  2  1  0
  4  3  1  0
  4  5  1  0
  5  1  1  0
  5  6  1  1
  6  7  2  0
  8  6  1  0
  8  9  1  0
  9 16  1  0
  9 10  1  1
 10 11  1  0
 11 12  2  0
 12 13  1  0
 14 13  1  0
 15 11  1  0
 15 14  2  0
 16 17  2  0
 19 18  1  6
 19 21  1  0
 20 19  1  0
 21 23  1  0
 21 22  1  6
 22 16  1  0
 23 25  2  0
 23 24  1  0
M  END
$$$$
