PHT.pdb
     RDKit          3D

 25 26  0  0  1  0  0  0  0  0999 V2000
   12.1385  -22.7909   -4.5313 N   0  0  0  0  0  0  0  0  0  0  0  0
   11.7015  -22.5646   -5.8754 C   0  0  0  0  0  0  0  0  0  0  0  0
   12.4526  -21.3689   -6.3895 C   0  0  0  0  0  0  0  0  0  0  0  0
   13.4642  -21.0729   -5.3185 C   0  0  0  0  0  0  0  0  0  0  0  0
   13.4913  -22.2777   -4.4243 C   0  0  1  0  0  0  0  0  0  0  0  0
   13.7710  -21.9350   -3.0117 C   0  0  0  0  0  0  0  0  0  0  0  0
   14.8427  -21.3989   -2.6789 O   0  0  0  0  0  0  0  0  0  0  0  0
   12.8009  -22.2253   -2.0381 N   0  0  0  0  0  0  0  0  0  0  0  0
   12.9009  -21.8366   -0.6473 C   0  0  1  0  0  0  0  0  0  0  0  0
   11.5053  -21.4557   -0.1986 C   0  0  0  0  0  0  0  0  0  0  0  0
   11.1821  -20.0519   -0.5072 C   0  0  0  0  0  0  0  0  0  0  0  0
   12.0566  -19.0097   -0.2821 C   0  0  0  0  0  0  0  0  0  0  0  0
   11.4809  -17.8746   -0.6597 N   0  0  0  0  0  0  0  0  0  0  0  0
   10.2570  -18.1515   -1.1237 C   0  0  0  0  0  0  0  0  0  0  0  0
   10.0803  -19.4885   -1.0273 N   0  0  0  0  0  0  0  0  0  0  0  0
   13.2875  -23.0307    0.1370 C   0  0  0  0  0  0  0  0  0  0  0  0
   12.6997  -23.2634    1.2181 O   0  0  0  0  0  0  0  0  0  0  0  0
   14.1807  -26.8851   -1.1422 C   0  0  0  0  0  0  0  0  0  0  0  0
   15.2158  -26.2198   -0.2869 C   0  0  1  0  0  0  0  0  0  0  0  0
   16.2143  -25.6910   -1.0921 O   0  0  0  0  0  0  0  0  0  0  0  0
   14.6681  -25.1067    0.5549 C   0  0  2  0  0  0  0  0  0  0  0  0
   14.2985  -23.9454   -0.2633 N   0  0  0  0  0  0  0  0  0  0  0  0
   15.6486  -24.6627    1.5910 C   0  0  0  0  0  0  0  0  0  0  0  0
   16.0070  -25.5062    2.6326 O   0  0  0  0  0  0  0  0  0  0  0  0
   16.1702  -23.5219    1.5458 O   0  0  0  0  0  0  0  0  0  0  0  0
  2  1  1  0
  3  2  1  0
  4  3  1  0
  4  5  1  0
  5  1  1  0
  5  6  1  1
  6  7  2  0
  8  6  1  0
  8  9  1  0
  9 16  1  0
  9 10  1  1
 10 11  1  0
 11 12  2  0
 12 13  1  0
 14 13  1  0
 15 11  1  0
 15 14  2  0
 16 17  2  0
 19 18  1  6
 19 21  1  0
 20 19  1  0
 21 23  1  0
 21 22  1  6
 22 16  1  0
 23 25  2  0
 23 24  1  0
M  END
$$$$
