PHT.pdb
     RDKit          3D

 25 26  0  0  1  0  0  0  0  0999 V2000
   24.4102  -11.2563  -15.7065 N   0  0  0  0  0  0  0  0  0  0  0  0
   25.0005  -12.5589  -15.7660 C   0  0  0  0  0  0  0  0  0  0  0  0
   24.2113  -13.3573  -16.7649 C   0  0  0  0  0  0  0  0  0  0  0  0
   23.2776  -12.3588  -17.3890 C   0  0  0  0  0  0  0  0  0  0  0  0
   23.7881  -11.0044  -16.9928 C   0  0  1  0  0  0  0  0  0  0  0  0
   22.7031  -10.0120  -16.8222 C   0  0  0  0  0  0  0  0  0  0  0  0
   22.0909   -9.5520  -17.8020 O   0  0  0  0  0  0  0  0  0  0  0  0
   22.3677   -9.5896  -15.5252 N   0  0  0  0  0  0  0  0  0  0  0  0
   21.3064   -8.6528  -15.2226 C   0  0  1  0  0  0  0  0  0  0  0  0
   20.4572   -9.2888  -14.1416 C   0  0  0  0  0  0  0  0  0  0  0  0
   19.5043  -10.2722  -14.6851 C   0  0  0  0  0  0  0  0  0  0  0  0
   18.7481  -10.0445  -15.8155 C   0  0  0  0  0  0  0  0  0  0  0  0
   17.9914  -11.1098  -16.0498 N   0  0  0  0  0  0  0  0  0  0  0  0
   18.2356  -12.0224  -15.1026 C   0  0  0  0  0  0  0  0  0  0  0  0
   19.1644  -11.5023  -14.2690 N   0  0  0  0  0  0  0  0  0  0  0  0
   21.9169   -7.4438  -14.6258 C   0  0  0  0  0  0  0  0  0  0  0  0
   22.7400   -7.5774  -13.6914 O   0  0  0  0  0  0  0  0  0  0  0  0
   24.1539   -5.0193  -16.3299 C   0  0  0  0  0  0  0  0  0  0  0  0
   23.0558   -4.2307  -15.6834 C   0  0  1  0  0  0  0  0  0  0  0  0
   22.0901   -3.9168  -16.6289 O   0  0  0  0  0  0  0  0  0  0  0  0
   22.3794   -4.9594  -14.5613 C   0  0  2  0  0  0  0  0  0  0  0  0
   21.6253   -6.1197  -15.0509 N   0  0  0  0  0  0  0  0  0  0  0  0
   21.4438   -4.0703  -13.8089 C   0  0  0  0  0  0  0  0  0  0  0  0
   21.9273   -3.0058  -13.0618 O   0  0  0  0  0  0  0  0  0  0  0  0
   20.2036   -4.2625  -13.8332 O   0  0  0  0  0  0  0  0  0  0  0  0
  2  1  1  0
  3  2  1  0
  4  3  1  0
  4  5  1  0
  5  1  1  0
  5  6  1  1
  6  7  2  0
  8  6  1  0
  8  9  1  0
  9 16  1  0
  9 10  1  1
 10 11  1  0
 11 12  2  0
 12 13  1  0
 14 13  1  0
 15 11  1  0
 15 14  2  0
 16 17  2  0
 19 18  1  6
 19 21  1  0
 20 19  1  0
 21 23  1  0
 21 22  1  6
 22 16  1  0
 23 25  2  0
 23 24  1  0
M  END
$$$$
