PHT.pdb
     RDKit          3D

 25 26  0  0  1  0  0  0  0  0999 V2000
   18.9995  -11.4360  -15.2373 N   0  0  0  0  0  0  0  0  0  0  0  0
   18.1835  -12.5660  -14.9115 C   0  0  0  0  0  0  0  0  0  0  0  0
   17.6950  -13.1477  -16.2081 C   0  0  0  0  0  0  0  0  0  0  0  0
   18.4459  -12.3889  -17.2658 C   0  0  0  0  0  0  0  0  0  0  0  0
   19.5562  -11.6707  -16.5563 C   0  0  1  0  0  0  0  0  0  0  0  0
   19.8881  -10.3710  -17.1823 C   0  0  0  0  0  0  0  0  0  0  0  0
   20.2371  -10.3003  -18.3739 O   0  0  0  0  0  0  0  0  0  0  0  0
   19.8037   -9.2030  -16.4066 N   0  0  0  0  0  0  0  0  0  0  0  0
   20.0963   -7.8742  -16.9006 C   0  0  1  0  0  0  0  0  0  0  0  0
   18.8896   -7.4298  -17.7008 C   0  0  0  0  0  0  0  0  0  0  0  0
   17.6380   -7.5354  -16.9308 C   0  0  0  0  0  0  0  0  0  0  0  0
   17.5386   -8.2323  -15.7450 C   0  0  0  0  0  0  0  0  0  0  0  0
   16.2926   -8.1433  -15.2957 N   0  0  0  0  0  0  0  0  0  0  0  0
   15.5807   -7.4079  -16.1572 C   0  0  0  0  0  0  0  0  0  0  0  0
   16.4119   -7.0384  -17.1575 N   0  0  0  0  0  0  0  0  0  0  0  0
   20.1935   -6.9629  -15.7384 C   0  0  0  0  0  0  0  0  0  0  0  0
   19.8988   -7.3962  -14.6009 O   0  0  0  0  0  0  0  0  0  0  0  0
   23.3336   -6.1931  -14.6316 C   0  0  0  0  0  0  0  0  0  0  0  0
   22.6893   -4.8484  -14.7814 C   0  0  1  0  0  0  0  0  0  0  0  0
   23.0253   -4.3065  -16.0137 O   0  0  0  0  0  0  0  0  0  0  0  0
   21.1934   -4.8906  -14.6916 C   0  0  2  0  0  0  0  0  0  0  0  0
   20.6062   -5.6064  -15.8306 N   0  0  0  0  0  0  0  0  0  0  0  0
   20.6035   -3.5189  -14.6396 C   0  0  0  0  0  0  0  0  0  0  0  0
   19.8070   -3.0522  -15.6753 O   0  0  0  0  0  0  0  0  0  0  0  0
   20.8122   -2.7582  -13.6632 O   0  0  0  0  0  0  0  0  0  0  0  0
  2  1  1  0
  3  2  1  0
  4  3  1  0
  4  5  1  0
  5  1  1  0
  5  6  1  6
  6  7  2  0
  8  6  1  0
  8  9  1  0
  9 16  1  0
  9 10  1  6
 10 11  1  0
 11 12  2  0
 12 13  1  0
 14 13  1  0
 15 11  1  0
 15 14  2  0
 16 17  2  0
 19 18  1  6
 19 21  1  0
 20 19  1  0
 21 23  1  0
 21 22  1  6
 22 16  1  0
 23 25  2  0
 23 24  1  0
M  END
$$$$
