PHT.pdb
     RDKit          3D

 25 26  0  0  1  0  0  0  0  0999 V2000
   44.7527  -10.9401   -6.3558 N   0  0  0  0  0  0  0  0  0  0  0  0
   45.3660  -12.2330   -6.3888 C   0  0  0  0  0  0  0  0  0  0  0  0
   45.1204  -12.8044   -7.7568 C   0  0  0  0  0  0  0  0  0  0  0  0
   44.5060  -11.6725   -8.5310 C   0  0  0  0  0  0  0  0  0  0  0  0
   44.7368  -10.4341   -7.7155 C   0  0  1  0  0  0  0  0  0  0  0  0
   43.6431   -9.4463   -7.8540 C   0  0  0  0  0  0  0  0  0  0  0  0
   43.3329   -8.9802   -8.9645 O   0  0  0  0  0  0  0  0  0  0  0  0
   42.9502   -9.0353   -6.7034 N   0  0  0  0  0  0  0  0  0  0  0  0
   41.8035   -8.1519   -6.7150 C   0  0  1  0  0  0  0  0  0  0  0  0
   40.8149   -8.7058   -5.7102 C   0  0  0  0  0  0  0  0  0  0  0  0
   39.9216   -9.7163   -6.3029 C   0  0  0  0  0  0  0  0  0  0  0  0
   39.9045  -10.0105   -7.6500 C   0  0  0  0  0  0  0  0  0  0  0  0
   38.9999  -10.9561   -7.8735 N   0  0  0  0  0  0  0  0  0  0  0  0
   38.4295  -11.2837   -6.7084 C   0  0  0  0  0  0  0  0  0  0  0  0
   38.9994  -10.5196   -5.7496 N   0  0  0  0  0  0  0  0  0  0  0  0
   42.2349   -6.8322   -6.2024 C   0  0  0  0  0  0  0  0  0  0  0  0
   42.9172   -6.7819   -5.1534 O   0  0  0  0  0  0  0  0  0  0  0  0
   44.5492   -4.3551   -7.7258 C   0  0  0  0  0  0  0  0  0  0  0  0
   43.2748   -3.6353   -7.4039 C   0  0  1  0  0  0  0  0  0  0  0  0
   42.4975   -3.5317   -8.5485 O   0  0  0  0  0  0  0  0  0  0  0  0
   42.4535   -4.3183   -6.3520 C   0  0  2  0  0  0  0  0  0  0  0  0
   41.9203   -5.5984   -6.8331 N   0  0  0  0  0  0  0  0  0  0  0  0
   41.3098   -3.4675   -5.9043 C   0  0  0  0  0  0  0  0  0  0  0  0
   40.0006   -3.8621   -6.1395 O   0  0  0  0  0  0  0  0  0  0  0  0
   41.5031   -2.3803   -5.3075 O   0  0  0  0  0  0  0  0  0  0  0  0
  2  1  1  0
  3  2  1  0
  4  3  1  0
  4  5  1  0
  5  1  1  0
  5  6  1  1
  6  7  2  0
  8  6  1  0
  8  9  1  0
  9 16  1  0
  9 10  1  1
 10 11  1  0
 11 12  2  0
 12 13  1  0
 14 13  1  0
 15 11  1  0
 15 14  2  0
 16 17  2  0
 19 18  1  6
 19 21  1  0
 20 19  1  0
 21 23  1  0
 21 22  1  6
 22 16  1  0
 23 25  2  0
 23 24  1  0
M  END
$$$$
