PHT.pdb
     RDKit          3D

 25 26  0  0  1  0  0  0  0  0999 V2000
   23.5095  -19.1326  -17.8623 N   0  0  0  0  0  0  0  0  0  0  0  0
   23.0777  -18.9782  -19.2182 C   0  0  0  0  0  0  0  0  0  0  0  0
   24.1695  -19.5233  -20.0951 C   0  0  0  0  0  0  0  0  0  0  0  0
   25.1369  -20.1598  -19.1373 C   0  0  0  0  0  0  0  0  0  0  0  0
   24.4182  -20.2630  -17.8240 C   0  0  1  0  0  0  0  0  0  0  0  0
   25.3252  -20.1186  -16.6631 C   0  0  0  0  0  0  0  0  0  0  0  0
   26.2473  -20.9284  -16.4614 O   0  0  0  0  0  0  0  0  0  0  0  0
   25.1313  -19.0436  -15.7801 N   0  0  0  0  0  0  0  0  0  0  0  0
   25.9596  -18.7808  -14.6223 C   0  0  1  0  0  0  0  0  0  0  0  0
   25.9814  -17.2783  -14.4325 C   0  0  0  0  0  0  0  0  0  0  0  0
   26.8944  -16.6087  -15.3751 C   0  0  0  0  0  0  0  0  0  0  0  0
   27.6453  -17.2894  -16.3101 C   0  0  0  0  0  0  0  0  0  0  0  0
   28.3629  -16.4157  -17.0058 N   0  0  0  0  0  0  0  0  0  0  0  0
   28.0984  -15.1867  -16.5480 C   0  0  0  0  0  0  0  0  0  0  0  0
   27.1971  -15.3124  -15.5481 N   0  0  0  0  0  0  0  0  0  0  0  0
   25.2828  -19.3485  -13.4348 C   0  0  0  0  0  0  0  0  0  0  0  0
   24.0555  -19.1509  -13.2831 O   0  0  0  0  0  0  0  0  0  0  0  0
   25.1413  -22.9874  -12.5061 C   0  0  0  0  0  0  0  0  0  0  0  0
   25.5319  -22.2325  -11.2720 C   0  0  1  0  0  0  0  0  0  0  0  0
   26.8966  -22.3638  -11.0589 O   0  0  0  0  0  0  0  0  0  0  0  0
   25.2179  -20.7683  -11.3443 C   0  0  2  0  0  0  0  0  0  0  0  0
   25.9457  -20.1156  -12.4392 N   0  0  0  0  0  0  0  0  0  0  0  0
   25.5538  -20.0669  -10.0686 C   0  0  0  0  0  0  0  0  0  0  0  0
   24.8684  -20.3606   -8.8986 O   0  0  0  0  0  0  0  0  0  0  0  0
   26.4595  -19.1990  -10.0230 O   0  0  0  0  0  0  0  0  0  0  0  0
  2  1  1  0
  3  2  1  0
  4  3  1  0
  4  5  1  0
  5  1  1  0
  5  6  1  1
  6  7  2  0
  8  6  1  0
  8  9  1  0
  9 16  1  0
  9 10  1  1
 10 11  1  0
 11 12  2  0
 12 13  1  0
 14 13  1  0
 15 11  1  0
 15 14  2  0
 16 17  2  0
 19 18  1  6
 19 21  1  0
 20 19  1  0
 21 23  1  0
 21 22  1  6
 22 16  1  0
 23 25  2  0
 23 24  1  0
M  END
$$$$
