PHT.pdb
     RDKit          3D

 25 26  0  0  1  0  0  0  0  0999 V2000
   21.3029  -12.0588  -17.6115 N   0  0  0  0  0  0  0  0  0  0  0  0
   21.1806  -13.4850  -17.6205 C   0  0  0  0  0  0  0  0  0  0  0  0
   20.1101  -13.8310  -18.6168 C   0  0  0  0  0  0  0  0  0  0  0  0
   19.7901  -12.5268  -19.2912 C   0  0  0  0  0  0  0  0  0  0  0  0
   20.8949  -11.5816  -18.9194 C   0  0  1  0  0  0  0  0  0  0  0  0
   20.4331  -10.1800  -18.8033 C   0  0  0  0  0  0  0  0  0  0  0  0
   19.8631   -9.6091  -19.7498 O   0  0  0  0  0  0  0  0  0  0  0  0
   20.6481   -9.4924  -17.5975 N   0  0  0  0  0  0  0  0  0  0  0  0
   20.3106   -8.1014  -17.3817 C   0  0  1  0  0  0  0  0  0  0  0  0
   18.8399   -8.0592  -17.0224 C   0  0  0  0  0  0  0  0  0  0  0  0
   18.4821   -9.0685  -16.0105 C   0  0  0  0  0  0  0  0  0  0  0  0
   19.3762   -9.9992  -15.5246 C   0  0  0  0  0  0  0  0  0  0  0  0
   18.7598  -10.7640  -14.6317 N   0  0  0  0  0  0  0  0  0  0  0  0
   17.4903  -10.3553  -14.5247 C   0  0  0  0  0  0  0  0  0  0  0  0
   17.3269   -9.3153  -15.3730 N   0  0  0  0  0  0  0  0  0  0  0  0
   21.0518   -7.6280  -16.1913 C   0  0  0  0  0  0  0  0  0  0  0  0
   21.4676   -8.4685  -15.3611 O   0  0  0  0  0  0  0  0  0  0  0  0
   24.2472   -5.8932  -16.5557 C   0  0  0  0  0  0  0  0  0  0  0  0
   23.4489   -5.0784  -15.5839 C   0  0  1  0  0  0  0  0  0  0  0  0
   22.8935   -3.9878  -16.2375 O   0  0  0  0  0  0  0  0  0  0  0  0
   22.3326   -5.8440  -14.9394 C   0  0  2  0  0  0  0  0  0  0  0  0
   21.3269   -6.2597  -15.9245 N   0  0  0  0  0  0  0  0  0  0  0  0
   21.6523   -5.0420  -13.8782 C   0  0  0  0  0  0  0  0  0  0  0  0
   22.3185   -4.7087  -12.7077 O   0  0  0  0  0  0  0  0  0  0  0  0
   20.4675   -4.6516  -14.0177 O   0  0  0  0  0  0  0  0  0  0  0  0
  2  1  1  0
  3  2  1  0
  4  3  1  0
  4  5  1  0
  5  1  1  0
  5  6  1  1
  6  7  2  0
  8  6  1  0
  8  9  1  0
  9 16  1  0
  9 10  1  1
 10 11  1  0
 11 12  2  0
 12 13  1  0
 14 13  1  0
 15 11  1  0
 15 14  2  0
 16 17  2  0
 19 18  1  6
 19 21  1  0
 20 19  1  0
 21 23  1  0
 21 22  1  6
 22 16  1  0
 23 25  2  0
 23 24  1  0
M  END
$$$$
