PHT.pdb
     RDKit          3D

 25 26  0  0  1  0  0  0  0  0999 V2000
   29.5142  -20.3495  -10.4196 N   0  0  0  0  0  0  0  0  0  0  0  0
   30.8733  -20.6812  -10.1166 C   0  0  0  0  0  0  0  0  0  0  0  0
   31.1520  -22.0193  -10.7413 C   0  0  0  0  0  0  0  0  0  0  0  0
   29.9293  -22.3103  -11.5650 C   0  0  0  0  0  0  0  0  0  0  0  0
   29.1724  -21.0181  -11.6610 C   0  0  1  0  0  0  0  0  0  0  0  0
   27.7067  -21.2170  -11.7186 C   0  0  0  0  0  0  0  0  0  0  0  0
   27.1833  -21.8930  -12.6218 O   0  0  0  0  0  0  0  0  0  0  0  0
   26.9025  -20.6267  -10.7297 N   0  0  0  0  0  0  0  0  0  0  0  0
   25.5147  -20.9672  -10.4981 C   0  0  1  0  0  0  0  0  0  0  0  0
   25.1400  -20.3822   -9.1522 C   0  0  0  0  0  0  0  0  0  0  0  0
   23.7736  -20.7506   -8.7429 C   0  0  0  0  0  0  0  0  0  0  0  0
   22.6502  -20.0748   -9.1706 C   0  0  0  0  0  0  0  0  0  0  0  0
   21.5761  -20.6405   -8.6333 N   0  0  0  0  0  0  0  0  0  0  0  0
   21.9715  -21.6647   -7.8688 C   0  0  0  0  0  0  0  0  0  0  0  0
   23.3202  -21.7266   -7.9406 N   0  0  0  0  0  0  0  0  0  0  0  0
   24.6940  -20.2643  -11.5094 C   0  0  0  0  0  0  0  0  0  0  0  0
   24.8796  -19.0401  -11.6976 O   0  0  0  0  0  0  0  0  0  0  0  0
   24.7432  -20.4131  -15.0893 C   0  0  0  0  0  0  0  0  0  0  0  0
   23.3207  -20.6915  -14.7089 C   0  0  1  0  0  0  0  0  0  0  0  0
   23.0937  -22.0601  -14.7274 O   0  0  0  0  0  0  0  0  0  0  0  0
   22.9580  -20.1849  -13.3452 C   0  0  2  0  0  0  0  0  0  0  0  0
   23.6929  -20.8981  -12.2936 N   0  0  0  0  0  0  0  0  0  0  0  0
   21.4949  -20.3211  -13.0756 C   0  0  0  0  0  0  0  0  0  0  0  0
   20.5685  -19.6130  -13.8275 O   0  0  0  0  0  0  0  0  0  0  0  0
   21.0688  -21.0753  -12.1672 O   0  0  0  0  0  0  0  0  0  0  0  0
  2  1  1  0
  3  2  1  0
  4  3  1  0
  4  5  1  0
  5  1  1  0
  5  6  1  1
  6  7  2  0
  8  6  1  0
  8  9  1  0
  9 16  1  0
  9 10  1  1
 10 11  1  0
 11 12  2  0
 12 13  1  0
 14 13  1  0
 15 11  1  0
 15 14  2  0
 16 17  2  0
 19 18  1  1
 19 21  1  0
 20 19  1  0
 21 23  1  0
 21 22  1  1
 22 16  1  0
 23 25  2  0
 23 24  1  0
M  END
$$$$
