PHT.pdb
     RDKit          3D

 25 26  0  0  1  0  0  0  0  0999 V2000
   27.8339  -22.0219  -16.3394 N   0  0  0  0  0  0  0  0  0  0  0  0
   28.4923  -22.3951  -17.5544 C   0  0  0  0  0  0  0  0  0  0  0  0
   28.6089  -21.1541  -18.3937 C   0  0  0  0  0  0  0  0  0  0  0  0
   28.1513  -20.0451  -17.4887 C   0  0  0  0  0  0  0  0  0  0  0  0
   28.1249  -20.6204  -16.1029 C   0  0  1  0  0  0  0  0  0  0  0  0
   27.0555  -20.0369  -15.2620 C   0  0  0  0  0  0  0  0  0  0  0  0
   27.0225  -18.8184  -15.0154 O   0  0  0  0  0  0  0  0  0  0  0  0
   26.0652  -20.8846  -14.7387 N   0  0  0  0  0  0  0  0  0  0  0  0
   24.9363  -20.4313  -13.9542 C   0  0  1  0  0  0  0  0  0  0  0  0
   23.6959  -21.0225  -14.5912 C   0  0  0  0  0  0  0  0  0  0  0  0
   23.3795  -20.3961  -15.8866 C   0  0  0  0  0  0  0  0  0  0  0  0
   23.6484  -20.9947  -17.0995 C   0  0  0  0  0  0  0  0  0  0  0  0
   23.2506  -20.1882  -18.0760 N   0  0  0  0  0  0  0  0  0  0  0  0
   22.7310  -19.0827  -17.5303 C   0  0  0  0  0  0  0  0  0  0  0  0
   22.8133  -19.2168  -16.1874 N   0  0  0  0  0  0  0  0  0  0  0  0
   25.0454  -21.0282  -12.6043 C   0  0  0  0  0  0  0  0  0  0  0  0
   25.3486  -22.2387  -12.4985 O   0  0  0  0  0  0  0  0  0  0  0  0
   27.4695  -20.4086   -9.9980 C   0  0  0  0  0  0  0  0  0  0  0  0
   26.1368  -20.2591   -9.3292 C   0  0  1  0  0  0  0  0  0  0  0  0
   25.8299  -18.9121   -9.2001 O   0  0  0  0  0  0  0  0  0  0  0  0
   25.0163  -20.9147  -10.0791 C   0  0  2  0  0  0  0  0  0  0  0  0
   24.8249  -20.3056  -11.4009 N   0  0  0  0  0  0  0  0  0  0  0  0
   23.7267  -20.8333   -9.3293 C   0  0  0  0  0  0  0  0  0  0  0  0
   23.6073  -21.3926   -8.0652 O   0  0  0  0  0  0  0  0  0  0  0  0
   22.7240  -20.2600   -9.8209 O   0  0  0  0  0  0  0  0  0  0  0  0
  2  1  1  0
  3  2  1  0
  4  3  1  0
  4  5  1  0
  5  1  1  0
  5  6  1  1
  6  7  2  0
  8  6  1  0
  8  9  1  0
  9 16  1  0
  9 10  1  6
 10 11  1  0
 11 12  2  0
 12 13  1  0
 14 13  1  0
 15 11  1  0
 15 14  2  0
 16 17  2  0
 19 18  1  6
 19 21  1  0
 20 19  1  0
 21 23  1  0
 21 22  1  6
 22 16  1  0
 23 25  2  0
 23 24  1  0
M  END
$$$$
