LNP.pdb
     RDKit          3D

 24 24  0  0  1  0  0  0  0  0999 V2000
   19.6036  -18.4723  -16.9740 C   0  0  0  0  0  0  0  0  0  0  0  0
   18.9770  -19.1732  -15.8163 C   0  0  2  0  0  0  0  0  0  0  0  0
   18.2074  -18.1843  -14.9693 C   0  0  0  0  0  0  0  0  0  0  0  0
   19.9678  -19.9684  -14.9828 C   0  0  0  0  0  0  0  0  0  0  0  0
   20.7400  -20.8551  -15.9189 C   0  0  2  0  0  0  0  0  0  0  0  0
   19.9179  -21.9992  -16.2624 N   0  0  0  0  0  0  0  0  0  0  0  0
   22.0394  -21.2848  -15.3356 C   0  0  0  0  0  0  0  0  0  0  0  0
   22.0004  -22.2567  -14.5454 O   0  0  0  0  0  0  0  0  0  0  0  0
   27.4732  -22.1666  -15.2460 N   0  0  0  0  0  0  0  0  0  0  0  0
   26.9327  -20.8642  -15.4275 C   0  0  0  0  0  0  0  0  0  0  0  0
   27.5653  -19.8555  -15.0474 O   0  0  0  0  0  0  0  0  0  0  0  0
   25.5902  -20.6316  -16.0749 C   0  0  0  0  0  0  0  0  0  0  0  0
   24.5354  -21.0227  -15.0482 C   0  0  2  0  0  0  0  0  0  0  0  0
   23.2571  -20.6559  -15.6324 N   0  0  0  0  0  0  0  0  0  0  0  0
   24.6965  -20.3852  -13.7473 C   0  0  0  0  0  0  0  0  0  0  0  0
   24.6365  -19.1021  -13.7390 O   0  0  0  0  0  0  0  0  0  0  0  0
   24.9077  -21.0060  -12.5001 N   0  0  0  0  0  0  0  0  0  0  0  0
   24.9468  -22.4150  -12.1902 C   0  0  0  0  0  0  0  0  0  0  0  0
   26.1461  -22.4267  -11.2279 C   0  0  0  0  0  0  0  0  0  0  0  0
   25.6500  -21.3457  -10.2580 C   0  0  0  0  0  0  0  0  0  0  0  0
   25.1378  -20.2921  -11.2467 C   0  0  1  0  0  0  0  0  0  0  0  0
   26.2501  -19.3100  -11.3688 C   0  0  0  0  0  0  0  0  0  0  0  0
   26.3695  -18.3879  -10.3360 O   0  0  0  0  0  0  0  0  0  0  0  0
   27.0596  -19.2723  -12.3255 O   0  0  0  0  0  0  0  0  0  0  0  0
  2  1  1  6
  2  3  1  0
  4  5  1  0
  4  2  1  0
  5  6  1  1
  5  7  1  0
  7  8  2  0
  9 10  1  0
 10 12  1  0
 11 10  2  0
 13 12  1  6
 14  7  1  0
 14 13  1  0
 15 13  1  0
 15 16  2  0
 17 15  1  0
 18 17  1  0
 19 18  1  0
 20 21  1  0
 20 19  1  0
 21 17  1  0
 21 22  1  6
 23 22  1  0
 24 22  2  0
M  END
$$$$
