LNP.pdb
     RDKit          3D

 24 24  0  0  1  0  0  0  0  0999 V2000
   16.7909  -20.2923    1.4337 C   0  0  0  0  0  0  0  0  0  0  0  0
   17.5107  -18.9949    1.2824 C   0  0  2  0  0  0  0  0  0  0  0  0
   18.6556  -19.1508    0.3064 C   0  0  0  0  0  0  0  0  0  0  0  0
   17.9799  -18.4064    2.6024 C   0  0  0  0  0  0  0  0  0  0  0  0
   16.7575  -18.0659    3.4078 C   0  0  2  0  0  0  0  0  0  0  0  0
   16.0419  -16.9961    2.7398 N   0  0  0  0  0  0  0  0  0  0  0  0
   17.0978  -17.6911    4.8068 C   0  0  0  0  0  0  0  0  0  0  0  0
   17.7083  -16.6075    4.9597 O   0  0  0  0  0  0  0  0  0  0  0  0
   15.0917  -16.3339    7.6326 N   0  0  0  0  0  0  0  0  0  0  0  0
   14.9181  -17.6030    8.2497 C   0  0  0  0  0  0  0  0  0  0  0  0
   13.8942  -17.8466    8.9236 O   0  0  0  0  0  0  0  0  0  0  0  0
   15.9415  -18.7046    8.1292 C   0  0  0  0  0  0  0  0  0  0  0  0
   17.0856  -18.1496    7.2909 C   0  0  2  0  0  0  0  0  0  0  0  0
   16.7690  -18.4865    5.9139 N   0  0  0  0  0  0  0  0  0  0  0  0
   18.4000  -18.6692    7.6476 C   0  0  0  0  0  0  0  0  0  0  0  0
   18.6414  -19.8794    7.2910 O   0  0  0  0  0  0  0  0  0  0  0  0
   19.4360  -18.0044    8.3332 N   0  0  0  0  0  0  0  0  0  0  0  0
   19.4805  -16.6364    8.7910 C   0  0  0  0  0  0  0  0  0  0  0  0
   20.1157  -16.8556   10.1741 C   0  0  0  0  0  0  0  0  0  0  0  0
   21.3466  -17.6510    9.7182 C   0  0  0  0  0  0  0  0  0  0  0  0
   20.7033  -18.6195    8.7192 C   0  0  1  0  0  0  0  0  0  0  0  0
   20.4931  -19.8773    9.4877 C   0  0  0  0  0  0  0  0  0  0  0  0
   21.6200  -20.6632    9.6967 O   0  0  0  0  0  0  0  0  0  0  0  0
   19.3866  -20.2531    9.9418 O   0  0  0  0  0  0  0  0  0  0  0  0
  2  1  1  1
  2  3  1  0
  4  5  1  0
  4  2  1  0
  5  6  1  6
  5  7  1  0
  7  8  2  0
  9 10  1  0
 10 12  1  0
 11 10  2  0
 13 12  1  1
 14  7  1  0
 14 13  1  0
 15 13  1  0
 15 16  2  0
 17 15  1  0
 18 17  1  0
 19 18  1  0
 20 21  1  0
 20 19  1  0
 21 17  1  0
 21 22  1  1
 23 22  1  0
 24 22  2  0
M  END
$$$$
