LNP.pdb
     RDKit          3D

 24 24  0  0  1  0  0  0  0  0999 V2000
   16.0875  -13.2211  -15.8087 C   0  0  0  0  0  0  0  0  0  0  0  0
   17.3378  -13.9052  -16.2478 C   0  0  2  0  0  0  0  0  0  0  0  0
   17.3625  -15.3229  -15.7213 C   0  0  0  0  0  0  0  0  0  0  0  0
   18.6028  -13.1503  -15.8751 C   0  0  0  0  0  0  0  0  0  0  0  0
   18.4749  -11.7545  -16.4175 C   0  0  2  0  0  0  0  0  0  0  0  0
   18.5114  -11.8117  -17.8660 N   0  0  0  0  0  0  0  0  0  0  0  0
   19.5335  -10.8519  -15.8900 C   0  0  0  0  0  0  0  0  0  0  0  0
   19.8300  -10.9895  -14.6802 O   0  0  0  0  0  0  0  0  0  0  0  0
   23.1667  -11.5775  -17.6620 N   0  0  0  0  0  0  0  0  0  0  0  0
   23.1724  -10.3941  -16.8739 C   0  0  0  0  0  0  0  0  0  0  0  0
   23.8526  -10.3315  -15.8273 O   0  0  0  0  0  0  0  0  0  0  0  0
   22.3716   -9.1720  -17.2490 C   0  0  0  0  0  0  0  0  0  0  0  0
   21.2635   -9.0396  -16.2124 C   0  0  2  0  0  0  0  0  0  0  0  0
   20.1808   -9.8889  -16.6776 N   0  0  0  0  0  0  0  0  0  0  0  0
   20.7854   -7.6770  -16.0136 C   0  0  0  0  0  0  0  0  0  0  0  0
   20.0558   -7.1947  -16.9543 O   0  0  0  0  0  0  0  0  0  0  0  0
   21.0253   -6.8279  -14.9150 N   0  0  0  0  0  0  0  0  0  0  0  0
   21.7558   -7.1082  -13.7023 C   0  0  0  0  0  0  0  0  0  0  0  0
   22.5278   -5.7856  -13.5634 C   0  0  0  0  0  0  0  0  0  0  0  0
   21.3288   -4.8311  -13.6446 C   0  0  0  0  0  0  0  0  0  0  0  0
   20.5539   -5.4491  -14.8140 C   0  0  1  0  0  0  0  0  0  0  0  0
   20.9491   -4.6439  -16.0023 C   0  0  0  0  0  0  0  0  0  0  0  0
   20.2681   -3.4463  -16.1850 O   0  0  0  0  0  0  0  0  0  0  0  0
   21.8365   -4.9796  -16.8218 O   0  0  0  0  0  0  0  0  0  0  0  0
  2  1  1  1
  2  3  1  0
  4  5  1  0
  4  2  1  0
  5  6  1  6
  5  7  1  0
  7  8  2  0
  9 10  1  0
 10 12  1  0
 11 10  2  0
 13 12  1  6
 14  7  1  0
 14 13  1  0
 15 13  1  0
 15 16  2  0
 17 15  1  0
 18 17  1  0
 19 18  1  0
 20 21  1  0
 20 19  1  0
 21 17  1  0
 21 22  1  6
 23 22  1  0
 24 22  2  0
M  END
$$$$
