LNP.pdb
     RDKit          3D

 24 24  0  0  1  0  0  0  0  0999 V2000
   27.4025  -20.8975  -14.9960 C   0  0  0  0  0  0  0  0  0  0  0  0
   26.0668  -20.5477  -14.4323 C   0  0  2  0  0  0  0  0  0  0  0  0
   25.1812  -19.9789  -15.5185 C   0  0  0  0  0  0  0  0  0  0  0  0
   26.1417  -19.6197  -13.2315 C   0  0  0  0  0  0  0  0  0  0  0  0
   26.8905  -20.3410  -12.1461 C   0  0  2  0  0  0  0  0  0  0  0  0
   26.7787  -21.7690  -12.3720 N   0  0  0  0  0  0  0  0  0  0  0  0
   26.4001  -19.9729  -10.7906 C   0  0  0  0  0  0  0  0  0  0  0  0
   26.1664  -18.7574  -10.5946 O   0  0  0  0  0  0  0  0  0  0  0  0
   24.8139  -20.1740   -5.9067 N   0  0  0  0  0  0  0  0  0  0  0  0
   24.0628  -21.0249   -6.7630 C   0  0  0  0  0  0  0  0  0  0  0  0
   22.9715  -21.5028   -6.3851 O   0  0  0  0  0  0  0  0  0  0  0  0
   24.5329  -21.3927   -8.1483 C   0  0  0  0  0  0  0  0  0  0  0  0
   25.7912  -20.5770   -8.4146 C   0  0  2  0  0  0  0  0  0  0  0  0
   26.2023  -20.9109   -9.7672 N   0  0  0  0  0  0  0  0  0  0  0  0
   26.8808  -20.8294   -7.4799 C   0  0  0  0  0  0  0  0  0  0  0  0
   27.0587  -22.0560   -7.1422 O   0  0  0  0  0  0  0  0  0  0  0  0
   27.7619  -19.8921   -6.9050 N   0  0  0  0  0  0  0  0  0  0  0  0
   27.8765  -18.4793   -7.1761 C   0  0  0  0  0  0  0  0  0  0  0  0
   28.0447  -17.9610   -5.7382 C   0  0  0  0  0  0  0  0  0  0  0  0
   29.2212  -18.8564   -5.3266 C   0  0  0  0  0  0  0  0  0  0  0  0
   28.7566  -20.2072   -5.8828 C   0  0  1  0  0  0  0  0  0  0  0  0
   28.1475  -20.9100   -4.7202 C   0  0  0  0  0  0  0  0  0  0  0  0
   29.0341  -21.4193   -3.7789 O   0  0  0  0  0  0  0  0  0  0  0  0
   26.9145  -21.0622   -4.5513 O   0  0  0  0  0  0  0  0  0  0  0  0
  2  1  1  6
  2  3  1  0
  4  5  1  0
  4  2  1  0
  5  6  1  6
  5  7  1  0
  7  8  2  0
  9 10  1  0
 10 12  1  0
 11 10  2  0
 13 12  1  1
 14  7  1  0
 14 13  1  0
 15 13  1  0
 15 16  2  0
 17 15  1  0
 18 17  1  0
 19 18  1  0
 20 21  1  0
 20 19  1  0
 21 17  1  0
 21 22  1  1
 23 22  1  0
 24 22  2  0
M  END
$$$$
