LNP.pdb
     RDKit          3D

 24 24  0  0  1  0  0  0  0  0999 V2000
   25.5993  -22.6241  -14.0948 C   0  0  0  0  0  0  0  0  0  0  0  0
   25.3070  -21.2261  -13.6654 C   0  0  2  0  0  0  0  0  0  0  0  0
   24.7945  -20.4221  -14.8394 C   0  0  0  0  0  0  0  0  0  0  0  0
   26.4851  -20.5415  -12.9929 C   0  0  0  0  0  0  0  0  0  0  0  0
   26.8411  -21.3443  -11.7733 C   0  0  2  0  0  0  0  0  0  0  0  0
   25.7478  -22.2488  -11.4746 N   0  0  0  0  0  0  0  0  0  0  0  0
   27.1528  -20.4765  -10.6057 C   0  0  0  0  0  0  0  0  0  0  0  0
   27.8426  -19.4566  -10.8389 O   0  0  0  0  0  0  0  0  0  0  0  0
   26.9302  -17.6120   -6.3251 N   0  0  0  0  0  0  0  0  0  0  0  0
   25.9806  -18.6699   -6.3524 C   0  0  0  0  0  0  0  0  0  0  0  0
   25.3519  -18.9856   -5.3194 O   0  0  0  0  0  0  0  0  0  0  0  0
   25.6859  -19.4563   -7.6054 C   0  0  0  0  0  0  0  0  0  0  0  0
   27.0250  -19.9482   -8.1388 C   0  0  2  0  0  0  0  0  0  0  0  0
   26.7152  -20.7588   -9.3036 N   0  0  0  0  0  0  0  0  0  0  0  0
   27.8071  -20.7202   -7.1811 C   0  0  0  0  0  0  0  0  0  0  0  0
   27.3018  -21.8445   -6.8196 O   0  0  0  0  0  0  0  0  0  0  0  0
   29.0490  -20.3831   -6.6071 N   0  0  0  0  0  0  0  0  0  0  0  0
   29.9417  -19.3054   -6.9598 C   0  0  0  0  0  0  0  0  0  0  0  0
   30.3393  -18.8378   -5.5499 C   0  0  0  0  0  0  0  0  0  0  0  0
   30.8024  -20.1937   -4.9999 C   0  0  0  0  0  0  0  0  0  0  0  0
   29.6732  -21.1021   -5.4993 C   0  0  1  0  0  0  0  0  0  0  0  0
   28.7491  -21.2359   -4.3397 C   0  0  0  0  0  0  0  0  0  0  0  0
   29.1318  -22.1354   -3.3519 O   0  0  0  0  0  0  0  0  0  0  0  0
   27.6765  -20.5994   -4.2119 O   0  0  0  0  0  0  0  0  0  0  0  0
  2  1  1  6
  2  3  1  0
  4  5  1  0
  4  2  1  0
  5  6  1  1
  5  7  1  0
  7  8  2  0
  9 10  1  0
 10 12  1  0
 11 10  2  0
 13 12  1  1
 14  7  1  0
 14 13  1  0
 15 13  1  0
 15 16  2  0
 17 15  1  0
 18 17  1  0
 19 18  1  0
 20 21  1  0
 20 19  1  0
 21 17  1  0
 21 22  1  1
 23 22  1  0
 24 22  2  0
M  END
$$$$
