LNP.pdb
     RDKit          3D

 24 24  0  0  1  0  0  0  0  0999 V2000
   25.2772  -13.4520  -15.6787 C   0  0  0  0  0  0  0  0  0  0  0  0
   25.6417  -13.0622  -17.0713 C   0  0  2  0  0  0  0  0  0  0  0  0
   27.1426  -12.9188  -17.1909 C   0  0  0  0  0  0  0  0  0  0  0  0
   24.9222  -11.8155  -17.5581 C   0  0  0  0  0  0  0  0  0  0  0  0
   23.4453  -12.0736  -17.4534 C   0  0  2  0  0  0  0  0  0  0  0  0
   23.0728  -13.0621  -18.4467 N   0  0  0  0  0  0  0  0  0  0  0  0
   22.6485  -10.8273  -17.6127 C   0  0  0  0  0  0  0  0  0  0  0  0
   22.5296  -10.3883  -18.7804 O   0  0  0  0  0  0  0  0  0  0  0  0
   18.7329  -11.1727  -17.7725 N   0  0  0  0  0  0  0  0  0  0  0  0
   19.2910   -9.8683  -17.6799 C   0  0  0  0  0  0  0  0  0  0  0  0
   19.3477   -9.1289  -18.6860 O   0  0  0  0  0  0  0  0  0  0  0  0
   19.8371   -9.3151  -16.3871 C   0  0  0  0  0  0  0  0  0  0  0  0
   21.2860   -8.9286  -16.6536 C   0  0  2  0  0  0  0  0  0  0  0  0
   22.0530  -10.1564  -16.5348 N   0  0  0  0  0  0  0  0  0  0  0  0
   21.8143   -7.9147  -15.7494 C   0  0  0  0  0  0  0  0  0  0  0  0
   21.7515   -8.1915  -14.4966 O   0  0  0  0  0  0  0  0  0  0  0  0
   22.3862   -6.6711  -16.0837 N   0  0  0  0  0  0  0  0  0  0  0  0
   22.6085   -6.1042  -17.3921 C   0  0  0  0  0  0  0  0  0  0  0  0
   22.1743   -4.6554  -17.1145 C   0  0  0  0  0  0  0  0  0  0  0  0
   23.0744   -4.3938  -15.8992 C   0  0  0  0  0  0  0  0  0  0  0  0
   22.8727   -5.6941  -15.1128 C   0  0  1  0  0  0  0  0  0  0  0  0
   21.8371   -5.3679  -14.0942 C   0  0  0  0  0  0  0  0  0  0  0  0
   22.2853   -4.7154  -12.9519 O   0  0  0  0  0  0  0  0  0  0  0  0
   20.6193   -5.6429  -14.2092 O   0  0  0  0  0  0  0  0  0  0  0  0
  2  1  1  1
  2  3  1  0
  4  5  1  0
  4  2  1  0
  5  6  1  6
  5  7  1  0
  7  8  2  0
  9 10  1  0
 10 12  1  0
 11 10  2  0
 13 12  1  1
 14  7  1  0
 14 13  1  0
 15 13  1  0
 15 16  2  0
 17 15  1  0
 18 17  1  0
 19 18  1  0
 20 21  1  0
 20 19  1  0
 21 17  1  0
 21 22  1  1
 23 22  1  0
 24 22  2  0
M  END
$$$$
