LNP.pdb
     RDKit          3D

 24 24  0  0  1  0  0  0  0  0999 V2000
   20.5067  -23.2360  -14.4206 C   0  0  0  0  0  0  0  0  0  0  0  0
   20.1379  -21.9121  -14.9998 C   0  0  2  0  0  0  0  0  0  0  0  0
   19.8060  -22.0653  -16.4674 C   0  0  0  0  0  0  0  0  0  0  0  0
   21.1910  -20.8398  -14.7756 C   0  0  0  0  0  0  0  0  0  0  0  0
   21.5484  -20.8525  -13.3158 C   0  0  2  0  0  0  0  0  0  0  0  0
   20.5471  -20.1013  -12.5839 N   0  0  0  0  0  0  0  0  0  0  0  0
   22.9115  -20.3091  -13.0705 C   0  0  0  0  0  0  0  0  0  0  0  0
   23.0627  -19.0796  -13.2600 O   0  0  0  0  0  0  0  0  0  0  0  0
   24.4580  -20.9765   -9.3429 N   0  0  0  0  0  0  0  0  0  0  0  0
   25.5457  -20.5673  -10.1621 C   0  0  0  0  0  0  0  0  0  0  0  0
   26.1866  -19.5283   -9.8942 O   0  0  0  0  0  0  0  0  0  0  0  0
   25.9776  -21.3486  -11.3780 C   0  0  0  0  0  0  0  0  0  0  0  0
   25.3670  -20.6508  -12.5864 C   0  0  2  0  0  0  0  0  0  0  0  0
   23.9884  -21.1037  -12.6520 N   0  0  0  0  0  0  0  0  0  0  0  0
   26.0477  -20.9234  -13.8461 C   0  0  0  0  0  0  0  0  0  0  0  0
   26.0361  -22.1468  -14.2377 O   0  0  0  0  0  0  0  0  0  0  0  0
   26.7138  -20.0081  -14.6851 N   0  0  0  0  0  0  0  0  0  0  0  0
   26.9311  -18.5956  -14.4846 C   0  0  0  0  0  0  0  0  0  0  0  0
   28.3904  -18.4967  -14.9592 C   0  0  0  0  0  0  0  0  0  0  0  0
   28.2105  -19.1529  -16.3349 C   0  0  0  0  0  0  0  0  0  0  0  0
   27.3313  -20.3523  -15.9633 C   0  0  1  0  0  0  0  0  0  0  0  0
   28.2785  -21.4929  -15.8276 C   0  0  0  0  0  0  0  0  0  0  0  0
   28.7026  -22.0816  -17.0129 O   0  0  0  0  0  0  0  0  0  0  0  0
   28.7002  -21.9368  -14.7335 O   0  0  0  0  0  0  0  0  0  0  0  0
  2  1  1  6
  2  3  1  0
  4  5  1  0
  4  2  1  0
  5  6  1  1
  5  7  1  0
  7  8  2  0
  9 10  1  0
 10 12  1  0
 11 10  2  0
 13 12  1  1
 14  7  1  0
 14 13  1  0
 15 13  1  0
 15 16  2  0
 17 15  1  0
 18 17  1  0
 19 18  1  0
 20 21  1  0
 20 19  1  0
 21 17  1  0
 21 22  1  1
 23 22  1  0
 24 22  2  0
M  END
$$$$
