LNP.pdb
     RDKit          3D

 24 24  0  0  1  0  0  0  0  0999 V2000
   25.7736  -22.7959  -16.9614 C   0  0  0  0  0  0  0  0  0  0  0  0
   26.6187  -21.8363  -16.1939 C   0  0  2  0  0  0  0  0  0  0  0  0
   27.8486  -22.5402  -15.6654 C   0  0  0  0  0  0  0  0  0  0  0  0
   25.8659  -21.1213  -15.0844 C   0  0  0  0  0  0  0  0  0  0  0  0
   24.7036  -20.4050  -15.7128 C   0  0  2  0  0  0  0  0  0  0  0  0
   25.2130  -19.4082  -16.6345 N   0  0  0  0  0  0  0  0  0  0  0  0
   23.8123  -19.7873  -14.6942 C   0  0  0  0  0  0  0  0  0  0  0  0
   23.8166  -18.5354  -14.6369 O   0  0  0  0  0  0  0  0  0  0  0  0
   20.2022  -17.5508  -12.1604 N   0  0  0  0  0  0  0  0  0  0  0  0
   19.9366  -18.6471  -13.0260 C   0  0  0  0  0  0  0  0  0  0  0  0
   18.7920  -19.1452  -13.0869 O   0  0  0  0  0  0  0  0  0  0  0  0
   21.0017  -19.2596  -13.9012 C   0  0  0  0  0  0  0  0  0  0  0  0
   21.9738  -19.9750  -12.9722 C   0  0  2  0  0  0  0  0  0  0  0  0
   23.0020  -20.5376  -13.8301 N   0  0  0  0  0  0  0  0  0  0  0  0
   21.3682  -21.0215  -12.1581 C   0  0  0  0  0  0  0  0  0  0  0  0
   20.6283  -21.8637  -12.7852 O   0  0  0  0  0  0  0  0  0  0  0  0
   21.4981  -21.2212  -10.7693 N   0  0  0  0  0  0  0  0  0  0  0  0
   22.2687  -20.4575   -9.8176 C   0  0  0  0  0  0  0  0  0  0  0  0
   21.2551  -20.4005   -8.6627 C   0  0  0  0  0  0  0  0  0  0  0  0
   20.9868  -21.9068   -8.5418 C   0  0  0  0  0  0  0  0  0  0  0  0
   20.8387  -22.2872  -10.0193 C   0  0  1  0  0  0  0  0  0  0  0  0
   19.3703  -22.3051  -10.2640 C   0  0  0  0  0  0  0  0  0  0  0  0
   18.6804  -23.4064   -9.7716 O   0  0  0  0  0  0  0  0  0  0  0  0
   18.7428  -21.4063  -10.8726 O   0  0  0  0  0  0  0  0  0  0  0  0
  2  1  1  1
  2  3  1  0
  4  5  1  0
  4  2  1  0
  5  6  1  6
  5  7  1  0
  7  8  2  0
  9 10  1  0
 10 12  1  0
 11 10  2  0
 13 12  1  6
 14  7  1  0
 14 13  1  0
 15 13  1  0
 15 16  2  0
 17 15  1  0
 18 17  1  0
 19 18  1  0
 20 21  1  0
 20 19  1  0
 21 17  1  0
 21 22  1  6
 23 22  1  0
 24 22  2  0
M  END
$$$$
