LNP.pdb
     RDKit          3D

 24 24  0  0  1  0  0  0  0  0999 V2000
   23.7852  -20.7666  -10.1949 C   0  0  0  0  0  0  0  0  0  0  0  0
   25.2467  -21.0547  -10.1242 C   0  0  2  0  0  0  0  0  0  0  0  0
   25.8590  -20.3306   -8.9459 C   0  0  0  0  0  0  0  0  0  0  0  0
   25.9871  -20.7451  -11.4145 C   0  0  0  0  0  0  0  0  0  0  0  0
   25.2593  -21.4368  -12.5328 C   0  0  2  0  0  0  0  0  0  0  0  0
   25.3981  -22.8702  -12.3635 N   0  0  0  0  0  0  0  0  0  0  0  0
   25.7503  -21.0050  -13.8692 C   0  0  0  0  0  0  0  0  0  0  0  0
   26.9249  -21.3290  -14.1617 O   0  0  0  0  0  0  0  0  0  0  0  0
   25.2464  -22.5125  -17.9441 N   0  0  0  0  0  0  0  0  0  0  0  0
   24.3012  -21.8336  -17.1274 C   0  0  0  0  0  0  0  0  0  0  0  0
   23.4700  -22.4758  -16.4501 O   0  0  0  0  0  0  0  0  0  0  0  0
   24.2488  -20.3288  -17.0358 C   0  0  0  0  0  0  0  0  0  0  0  0
   25.3856  -19.9064  -16.1144 C   0  0  2  0  0  0  0  0  0  0  0  0
   24.9667  -20.2729  -14.7727 N   0  0  0  0  0  0  0  0  0  0  0  0
   25.7098  -18.4864  -16.1709 C   0  0  0  0  0  0  0  0  0  0  0  0
   24.7237  -17.6783  -16.0140 O   0  0  0  0  0  0  0  0  0  0  0  0
   26.9723  -17.8949  -16.3746 N   0  0  0  0  0  0  0  0  0  0  0  0
   28.2694  -18.5270  -16.4025 C   0  0  0  0  0  0  0  0  0  0  0  0
   28.8849  -17.7833  -17.5994 C   0  0  0  0  0  0  0  0  0  0  0  0
   28.6363  -16.3504  -17.1089 C   0  0  0  0  0  0  0  0  0  0  0  0
   27.1928  -16.4697  -16.6069 C   0  0  1  0  0  0  0  0  0  0  0  0
   26.3554  -15.9586  -17.7267 C   0  0  0  0  0  0  0  0  0  0  0  0
   26.2196  -14.5781  -17.8097 O   0  0  0  0  0  0  0  0  0  0  0  0
   25.7835  -16.6862  -18.5726 O   0  0  0  0  0  0  0  0  0  0  0  0
  2  1  1  6
  2  3  1  0
  4  5  1  0
  4  2  1  0
  5  6  1  1
  5  7  1  0
  7  8  2  0
  9 10  1  0
 10 12  1  0
 11 10  2  0
 13 12  1  6
 14  7  1  0
 14 13  1  0
 15 13  1  0
 15 16  2  0
 17 15  1  0
 18 17  1  0
 19 18  1  0
 20 21  1  0
 20 19  1  0
 21 17  1  0
 21 22  1  6
 23 22  1  0
 24 22  2  0
M  END
$$$$
