LNP.pdb
     RDKit          3D

 24 24  0  0  1  0  0  0  0  0999 V2000
   27.7771  -19.8279  -15.7928 C   0  0  0  0  0  0  0  0  0  0  0  0
   27.1998  -18.7540  -16.6518 C   0  0  2  0  0  0  0  0  0  0  0  0
   28.1716  -17.6000  -16.7580 C   0  0  0  0  0  0  0  0  0  0  0  0
   25.8278  -18.2870  -16.1954 C   0  0  0  0  0  0  0  0  0  0  0  0
   24.9622  -19.5056  -16.0387 C   0  0  2  0  0  0  0  0  0  0  0  0
   24.6394  -20.0209  -17.3551 N   0  0  0  0  0  0  0  0  0  0  0  0
   23.7285  -19.2170  -15.2588 C   0  0  0  0  0  0  0  0  0  0  0  0
   23.1466  -18.1376  -15.5174 O   0  0  0  0  0  0  0  0  0  0  0  0
   20.9188  -17.9035  -16.0725 N   0  0  0  0  0  0  0  0  0  0  0  0
   20.3325  -18.7951  -15.1330 C   0  0  0  0  0  0  0  0  0  0  0  0
   19.2994  -18.4706  -14.5089 O   0  0  0  0  0  0  0  0  0  0  0  0
   20.9145  -20.1558  -14.8412 C   0  0  0  0  0  0  0  0  0  0  0  0
   21.8975  -19.9744  -13.6921 C   0  0  2  0  0  0  0  0  0  0  0  0
   23.2210  -20.0840  -14.2805 N   0  0  0  0  0  0  0  0  0  0  0  0
   21.7447  -20.9406  -12.6114 C   0  0  0  0  0  0  0  0  0  0  0  0
   21.6911  -22.1745  -12.9644 O   0  0  0  0  0  0  0  0  0  0  0  0
   21.6510  -20.6844  -11.2290 N   0  0  0  0  0  0  0  0  0  0  0  0
   21.7244  -19.4183  -10.5403 C   0  0  0  0  0  0  0  0  0  0  0  0
   20.5889  -19.6201   -9.5233 C   0  0  0  0  0  0  0  0  0  0  0  0
   21.0699  -20.9514   -8.9302 C   0  0  0  0  0  0  0  0  0  0  0  0
   21.4502  -21.7090  -10.2074 C   0  0  1  0  0  0  0  0  0  0  0  0
   20.2697  -22.5642  -10.5102 C   0  0  0  0  0  0  0  0  0  0  0  0
   20.1800  -23.7573   -9.8032 O   0  0  0  0  0  0  0  0  0  0  0  0
   19.3800  -22.2735  -11.3443 O   0  0  0  0  0  0  0  0  0  0  0  0
  2  1  1  1
  2  3  1  0
  4  5  1  0
  4  2  1  0
  5  6  1  6
  5  7  1  0
  7  8  2  0
  9 10  1  0
 10 12  1  0
 11 10  2  0
 13 12  1  6
 14  7  1  0
 14 13  1  0
 15 13  1  0
 15 16  2  0
 17 15  1  0
 18 17  1  0
 19 18  1  0
 20 21  1  0
 20 19  1  0
 21 17  1  0
 21 22  1  6
 23 22  1  0
 24 22  2  0
M  END
$$$$
