LNP.pdb
     RDKit          3D

 24 24  0  0  1  0  0  0  0  0999 V2000
   27.8728  -21.6781  -16.2943 C   0  0  0  0  0  0  0  0  0  0  0  0
   26.6736  -20.8211  -16.0668 C   0  0  2  0  0  0  0  0  0  0  0  0
   26.3104  -20.0929  -17.3417 C   0  0  0  0  0  0  0  0  0  0  0  0
   26.8305  -19.8592  -14.9010 C   0  0  0  0  0  0  0  0  0  0  0  0
   27.2792  -20.6586  -13.7100 C   0  0  2  0  0  0  0  0  0  0  0  0
   26.7974  -22.0188  -13.8527 N   0  0  0  0  0  0  0  0  0  0  0  0
   26.8177  -20.0583  -12.4293 C   0  0  0  0  0  0  0  0  0  0  0  0
   26.8612  -18.8082  -12.3532 O   0  0  0  0  0  0  0  0  0  0  0  0
   23.5315  -20.8793   -7.6673 N   0  0  0  0  0  0  0  0  0  0  0  0
   23.6909  -20.1607   -8.8836 C   0  0  0  0  0  0  0  0  0  0  0  0
   23.2939  -18.9795   -8.9801 O   0  0  0  0  0  0  0  0  0  0  0  0
   24.3344  -20.7726  -10.1030 C   0  0  0  0  0  0  0  0  0  0  0  0
   25.7710  -20.2679  -10.1399 C   0  0  2  0  0  0  0  0  0  0  0  0
   26.3561  -20.8227  -11.3480 N   0  0  0  0  0  0  0  0  0  0  0  0
   26.5687  -20.6380   -8.9774 C   0  0  0  0  0  0  0  0  0  0  0  0
   26.6217  -21.8931   -8.7090 O   0  0  0  0  0  0  0  0  0  0  0  0
   27.2888  -19.7868   -8.1159 N   0  0  0  0  0  0  0  0  0  0  0  0
   27.5266  -18.3689   -8.2421 C   0  0  0  0  0  0  0  0  0  0  0  0
   27.3067  -17.9469   -6.7799 C   0  0  0  0  0  0  0  0  0  0  0  0
   28.2882  -18.9291   -6.1262 C   0  0  0  0  0  0  0  0  0  0  0  0
   27.9473  -20.2167   -6.8849 C   0  0  1  0  0  0  0  0  0  0  0  0
   27.0130  -20.9522   -5.9890 C   0  0  0  0  0  0  0  0  0  0  0  0
   27.5726  -21.5120   -4.8467 O   0  0  0  0  0  0  0  0  0  0  0  0
   25.7855  -21.0892   -6.2047 O   0  0  0  0  0  0  0  0  0  0  0  0
  2  1  1  6
  2  3  1  0
  4  5  1  0
  4  2  1  0
  5  6  1  6
  5  7  1  0
  7  8  2  0
  9 10  1  0
 10 12  1  0
 11 10  2  0
 13 12  1  1
 14  7  1  0
 14 13  1  0
 15 13  1  0
 15 16  2  0
 17 15  1  0
 18 17  1  0
 19 18  1  0
 20 21  1  0
 20 19  1  0
 21 17  1  0
 21 22  1  1
 23 22  1  0
 24 22  2  0
M  END
$$$$
