LNP.pdb
     RDKit          3D

 24 24  0  0  1  0  0  0  0  0999 V2000
   20.1016  -22.6856    3.9476 C   0  0  0  0  0  0  0  0  0  0  0  0
   18.7925  -22.0616    4.2956 C   0  0  2  0  0  0  0  0  0  0  0  0
   17.6803  -23.0746    4.1398 C   0  0  0  0  0  0  0  0  0  0  0  0
   18.5021  -20.7907    3.5149 C   0  0  0  0  0  0  0  0  0  0  0  0
   17.3173  -20.1246    4.1562 C   0  0  2  0  0  0  0  0  0  0  0  0
   16.5234  -19.4889    3.1226 N   0  0  0  0  0  0  0  0  0  0  0  0
   17.7251  -19.1438    5.1980 C   0  0  0  0  0  0  0  0  0  0  0  0
   18.1922  -18.0563    4.7859 O   0  0  0  0  0  0  0  0  0  0  0  0
   16.1587  -16.5344    7.1847 N   0  0  0  0  0  0  0  0  0  0  0  0
   15.9359  -17.4092    8.2831 C   0  0  0  0  0  0  0  0  0  0  0  0
   14.9065  -17.2996    8.9834 O   0  0  0  0  0  0  0  0  0  0  0  0
   16.9117  -18.4966    8.6585 C   0  0  0  0  0  0  0  0  0  0  0  0
   18.0203  -18.4695    7.6144 C   0  0  2  0  0  0  0  0  0  0  0  0
   17.6077  -19.3939    6.5728 N   0  0  0  0  0  0  0  0  0  0  0  0
   19.3354  -18.8382    8.1236 C   0  0  0  0  0  0  0  0  0  0  0  0
   19.5274  -20.0918    8.3282 O   0  0  0  0  0  0  0  0  0  0  0  0
   20.4196  -17.9871    8.4159 N   0  0  0  0  0  0  0  0  0  0  0  0
   20.4978  -16.5516    8.2886 C   0  0  0  0  0  0  0  0  0  0  0  0
   21.2349  -16.2239    9.5978 C   0  0  0  0  0  0  0  0  0  0  0  0
   22.4284  -17.1706    9.4115 C   0  0  0  0  0  0  0  0  0  0  0  0
   21.7125  -18.4361    8.9261 C   0  0  1  0  0  0  0  0  0  0  0  0
   21.5609  -19.2800   10.1432 C   0  0  0  0  0  0  0  0  0  0  0  0
   22.6938  -19.9722   10.5540 O   0  0  0  0  0  0  0  0  0  0  0  0
   20.4971  -19.3957   10.7967 O   0  0  0  0  0  0  0  0  0  0  0  0
  2  1  1  6
  2  3  1  0
  4  5  1  0
  4  2  1  0
  5  6  1  6
  5  7  1  0
  7  8  2  0
  9 10  1  0
 10 12  1  0
 11 10  2  0
 13 12  1  1
 14  7  1  0
 14 13  1  0
 15 13  1  0
 15 16  2  0
 17 15  1  0
 18 17  1  0
 19 18  1  0
 20 21  1  0
 20 19  1  0
 21 17  1  0
 21 22  1  1
 23 22  1  0
 24 22  2  0
M  END
$$$$
