LNP.pdb
     RDKit          3D

 24 24  0  0  1  0  0  0  0  0999 V2000
   18.3513  -21.1099  -12.7629 C   0  0  0  0  0  0  0  0  0  0  0  0
   19.2806  -21.6202  -11.7139 C   0  0  2  0  0  0  0  0  0  0  0  0
   18.5602  -21.7131  -10.3873 C   0  0  0  0  0  0  0  0  0  0  0  0
   20.5621  -20.8123  -11.5967 C   0  0  0  0  0  0  0  0  0  0  0  0
   21.1431  -20.6797  -12.9765 C   0  0  2  0  0  0  0  0  0  0  0  0
   21.1230  -21.9800  -13.6181 N   0  0  0  0  0  0  0  0  0  0  0  0
   22.5198  -20.1163  -12.9503 C   0  0  0  0  0  0  0  0  0  0  0  0
   22.6623  -19.0229  -12.3548 O   0  0  0  0  0  0  0  0  0  0  0  0
   25.2042  -20.4951  -10.8996 N   0  0  0  0  0  0  0  0  0  0  0  0
   25.8917  -21.4347  -11.7157 C   0  0  0  0  0  0  0  0  0  0  0  0
   26.5288  -22.3779  -11.1994 O   0  0  0  0  0  0  0  0  0  0  0  0
   25.8921  -21.3463  -13.2216 C   0  0  0  0  0  0  0  0  0  0  0  0
   24.9613  -20.1993  -13.5930 C   0  0  2  0  0  0  0  0  0  0  0  0
   23.6174  -20.7489  -13.5516 N   0  0  0  0  0  0  0  0  0  0  0  0
   25.2248  -19.6098  -14.8998 C   0  0  0  0  0  0  0  0  0  0  0  0
   24.7879  -20.2691  -15.9120 O   0  0  0  0  0  0  0  0  0  0  0  0
   25.8978  -18.4053  -15.1856 N   0  0  0  0  0  0  0  0  0  0  0  0
   26.3393  -17.3809  -14.2700 C   0  0  0  0  0  0  0  0  0  0  0  0
   27.7220  -17.0840  -14.8739 C   0  0  0  0  0  0  0  0  0  0  0  0
   27.2696  -16.8131  -16.3153 C   0  0  0  0  0  0  0  0  0  0  0  0
   26.2851  -17.9691  -16.5248 C   0  0  1  0  0  0  0  0  0  0  0  0
   27.0691  -19.0142  -17.2387 C   0  0  0  0  0  0  0  0  0  0  0  0
   27.1952  -18.8534  -18.6133 O   0  0  0  0  0  0  0  0  0  0  0  0
   27.6047  -20.0016  -16.6819 O   0  0  0  0  0  0  0  0  0  0  0  0
  2  1  1  6
  2  3  1  0
  4  5  1  0
  4  2  1  0
  5  6  1  1
  5  7  1  0
  7  8  2  0
  9 10  1  0
 10 12  1  0
 11 10  2  0
 13 12  1  6
 14  7  1  0
 14 13  1  0
 15 13  1  0
 15 16  2  0
 17 15  1  0
 18 17  1  0
 19 18  1  0
 20 21  1  0
 20 19  1  0
 21 17  1  0
 21 22  1  1
 23 22  1  0
 24 22  2  0
M  END
$$$$
