HHH.pdb
     RDKit          3D

 31 33  0  0  1  0  0  0  0  0999 V2000
   10.1946  -22.7546   13.8452 N   0  0  0  0  0  0  0  0  0  0  0  0
   10.8856  -21.7109   14.5795 C   0  0  1  0  0  0  0  0  0  0  0  0
    9.8653  -20.9712   15.3968 C   0  0  0  0  0  0  0  0  0  0  0  0
    8.9278  -20.3139   14.4373 C   0  0  0  0  0  0  0  0  0  0  0  0
    9.2332  -19.9169   13.1372 C   0  0  0  0  0  0  0  0  0  0  0  0
    8.1450  -19.3643   12.5786 N   0  0  0  0  0  0  0  0  0  0  0  0
    7.1506  -19.3963   13.4852 C   0  0  0  0  0  0  0  0  0  0  0  0
    7.6375  -19.9751   14.6101 N   0  0  0  0  0  0  0  0  0  0  0  0
   11.9592  -22.3204   15.3757 C   0  0  0  0  0  0  0  0  0  0  0  0
   11.7671  -23.3432   16.0825 O   0  0  0  0  0  0  0  0  0  0  0  0
   13.3021  -21.7932   15.4040 N   0  0  0  0  0  0  0  0  0  0  0  0
   14.3407  -22.4248   16.1726 C   0  0  1  0  0  0  0  0  0  0  0  0
   15.6780  -22.0710   15.6180 C   0  0  0  0  0  0  0  0  0  0  0  0
   16.8271  -22.8045   16.1225 C   0  0  0  0  0  0  0  0  0  0  0  0
   16.9359  -24.0141   16.7168 C   0  0  0  0  0  0  0  0  0  0  0  0
   18.2654  -24.2603   16.9723 N   0  0  0  0  0  0  0  0  0  0  0  0
   18.9466  -23.2059   16.5333 C   0  0  0  0  0  0  0  0  0  0  0  0
   18.0942  -22.3123   16.0147 N   0  0  0  0  0  0  0  0  0  0  0  0
   14.2892  -22.1245   17.6224 C   0  0  0  0  0  0  0  0  0  0  0  0
   15.2071  -22.5683   18.3478 O   0  0  0  0  0  0  0  0  0  0  0  0
   13.2547  -21.3654   18.2161 N   0  0  0  0  0  0  0  0  0  0  0  0
   13.3411  -21.1469   19.6848 C   0  0  1  0  0  0  0  0  0  0  0  0
   12.8398  -22.3435   20.4076 C   0  0  0  0  0  0  0  0  0  0  0  0
   11.5362  -22.8371   19.9334 C   0  0  0  0  0  0  0  0  0  0  0  0
   10.8205  -22.1477   18.9443 C   0  0  0  0  0  0  0  0  0  0  0  0
    9.6972  -22.8397   18.7379 N   0  0  0  0  0  0  0  0  0  0  0  0
    9.6965  -23.9176   19.5551 C   0  0  0  0  0  0  0  0  0  0  0  0
   10.8172  -23.9210   20.2876 N   0  0  0  0  0  0  0  0  0  0  0  0
   14.7974  -20.9648   20.0149 C   0  0  0  0  0  0  0  0  0  0  0  0
   15.2841  -19.6946   20.3807 O   0  0  0  0  0  0  0  0  0  0  0  0
   15.6316  -21.8778   19.9891 O   0  0  0  0  0  0  0  0  0  0  0  0
  2  1  1  1
  2  3  1  0
  3  4  1  0
  4  8  1  0
  5  4  2  0
  5  6  1  0
  6  7  1  0
  8  7  2  0
  9  2  1  0
 10  9  2  0
 11  9  1  0
 12 13  1  6
 12 11  1  0
 14 15  2  0
 14 13  1  0
 16 15  1  0
 17 18  2  0
 17 16  1  0
 18 14  1  0
 19 20  2  0
 19 12  1  0
 21 19  1  0
 22 21  1  0
 22 23  1  1
 24 23  1  0
 25 24  2  0
 26 25  1  0
 27 26  1  0
 27 28  2  0
 28 24  1  0
 29 30  1  0
 29 22  1  0
 31 29  2  0
M  END
$$$$
