HHH.pdb
     RDKit          3D

 31 33  0  0  1  0  0  0  0  0999 V2000
    8.0986  -18.0870   11.7010 N   0  0  0  0  0  0  0  0  0  0  0  0
    9.4454  -17.9577   12.2260 C   0  0  1  0  0  0  0  0  0  0  0  0
    9.5272  -16.6528   12.9654 C   0  0  0  0  0  0  0  0  0  0  0  0
    9.3931  -15.5647   11.9507 C   0  0  0  0  0  0  0  0  0  0  0  0
   10.4133  -15.0720   11.1399 C   0  0  0  0  0  0  0  0  0  0  0  0
    9.9214  -14.1006   10.3550 N   0  0  0  0  0  0  0  0  0  0  0  0
    8.6139  -13.9573   10.6407 C   0  0  0  0  0  0  0  0  0  0  0  0
    8.3042  -14.8516   11.6112 N   0  0  0  0  0  0  0  0  0  0  0  0
    9.7479  -19.1324   13.0545 C   0  0  0  0  0  0  0  0  0  0  0  0
    8.9603  -19.5401   13.9468 O   0  0  0  0  0  0  0  0  0  0  0  0
   10.9619  -19.8979   12.9054 N   0  0  0  0  0  0  0  0  0  0  0  0
   11.1956  -21.0920   13.6720 C   0  0  1  0  0  0  0  0  0  0  0  0
   11.7259  -22.1720   12.7923 C   0  0  0  0  0  0  0  0  0  0  0  0
   10.9039  -22.5813   11.6655 C   0  0  0  0  0  0  0  0  0  0  0  0
    9.5649  -22.7026   11.5220 C   0  0  0  0  0  0  0  0  0  0  0  0
    9.2952  -23.0965   10.2314 N   0  0  0  0  0  0  0  0  0  0  0  0
   10.4643  -23.2092    9.6078 C   0  0  0  0  0  0  0  0  0  0  0  0
   11.4518  -22.9014   10.4586 N   0  0  0  0  0  0  0  0  0  0  0  0
   12.0850  -20.8973   14.8407 C   0  0  0  0  0  0  0  0  0  0  0  0
   12.6369  -19.7830   14.9804 O   0  0  0  0  0  0  0  0  0  0  0  0
   12.3357  -21.9093   15.7956 N   0  0  0  0  0  0  0  0  0  0  0  0
   12.7281  -21.4627   17.1590 C   0  0  1  0  0  0  0  0  0  0  0  0
   11.6865  -20.5649   17.7199 C   0  0  0  0  0  0  0  0  0  0  0  0
   11.9281  -20.1499   19.1117 C   0  0  0  0  0  0  0  0  0  0  0  0
   13.0858  -20.5514   19.7931 C   0  0  0  0  0  0  0  0  0  0  0  0
   13.0097  -20.0189   21.0154 N   0  0  0  0  0  0  0  0  0  0  0  0
   11.8599  -19.3125   21.1090 C   0  0  0  0  0  0  0  0  0  0  0  0
   11.1954  -19.3890   19.9492 N   0  0  0  0  0  0  0  0  0  0  0  0
   12.8083  -22.6959   18.0170 C   0  0  0  0  0  0  0  0  0  0  0  0
   12.3913  -23.9398   17.5043 O   0  0  0  0  0  0  0  0  0  0  0  0
   13.2274  -22.7024   19.1807 O   0  0  0  0  0  0  0  0  0  0  0  0
  2  1  1  1
  2  3  1  0
  3  4  1  0
  4  8  1  0
  5  4  2  0
  5  6  1  0
  6  7  1  0
  8  7  2  0
  9  2  1  0
 10  9  2  0
 11  9  1  0
 12 13  1  6
 12 11  1  0
 14 15  2  0
 14 13  1  0
 16 15  1  0
 17 18  2  0
 17 16  1  0
 18 14  1  0
 19 20  2  0
 19 12  1  0
 21 19  1  0
 22 21  1  0
 22 23  1  1
 24 23  1  0
 25 24  2  0
 26 25  1  0
 27 26  1  0
 27 28  2  0
 28 24  1  0
 29 30  1  0
 29 22  1  0
 31 29  2  0
M  END
$$$$
