HHH.pdb
     RDKit          3D

 31 33  0  0  1  0  0  0  0  0999 V2000
   10.2595  -15.5172   17.8084 N   0  0  0  0  0  0  0  0  0  0  0  0
   11.0744  -14.5470   18.5161 C   0  0  1  0  0  0  0  0  0  0  0  0
   10.3830  -14.2218   19.8092 C   0  0  0  0  0  0  0  0  0  0  0  0
    9.0183  -13.7222   19.4633 C   0  0  0  0  0  0  0  0  0  0  0  0
    8.6866  -12.4095   19.1354 C   0  0  0  0  0  0  0  0  0  0  0  0
    7.3698  -12.3376   18.8855 N   0  0  0  0  0  0  0  0  0  0  0  0
    6.8486  -13.5683   19.0444 C   0  0  0  0  0  0  0  0  0  0  0  0
    7.8590  -14.4011   19.3953 N   0  0  0  0  0  0  0  0  0  0  0  0
   12.4272  -15.0943   18.6844 C   0  0  0  0  0  0  0  0  0  0  0  0
   12.6304  -16.3182   18.8931 O   0  0  0  0  0  0  0  0  0  0  0  0
   13.6120  -14.2731   18.6227 N   0  0  0  0  0  0  0  0  0  0  0  0
   14.9283  -14.8467   18.7053 C   0  0  1  0  0  0  0  0  0  0  0  0
   15.9066  -13.9959   17.9700 C   0  0  0  0  0  0  0  0  0  0  0  0
   16.1820  -14.3377   16.5843 C   0  0  0  0  0  0  0  0  0  0  0  0
   15.7738  -15.3688   15.8107 C   0  0  0  0  0  0  0  0  0  0  0  0
   16.2975  -15.2055   14.5488 N   0  0  0  0  0  0  0  0  0  0  0  0
   17.0129  -14.0848   14.5675 C   0  0  0  0  0  0  0  0  0  0  0  0
   16.9561  -13.5432   15.7913 N   0  0  0  0  0  0  0  0  0  0  0  0
   15.3970  -15.0909   20.0892 C   0  0  0  0  0  0  0  0  0  0  0  0
   15.0532  -14.2802   20.9782 O   0  0  0  0  0  0  0  0  0  0  0  0
   16.2108  -16.1912   20.4445 N   0  0  0  0  0  0  0  0  0  0  0  0
   16.6820  -16.2495   21.8540 C   0  0  1  0  0  0  0  0  0  0  0  0
   16.7815  -14.8778   22.4144 C   0  0  0  0  0  0  0  0  0  0  0  0
   18.0373  -14.1801   22.0922 C   0  0  0  0  0  0  0  0  0  0  0  0
   18.9377  -14.7108   21.1577 C   0  0  0  0  0  0  0  0  0  0  0  0
   19.9613  -13.8558   21.0901 N   0  0  0  0  0  0  0  0  0  0  0  0
   19.7253  -12.8301   21.9397 C   0  0  0  0  0  0  0  0  0  0  0  0
   18.5516  -13.0229   22.5544 N   0  0  0  0  0  0  0  0  0  0  0  0
   15.6420  -17.0090   22.6317 C   0  0  0  0  0  0  0  0  0  0  0  0
   14.4478  -17.4134   22.0037 O   0  0  0  0  0  0  0  0  0  0  0  0
   15.7584  -17.3172   23.8240 O   0  0  0  0  0  0  0  0  0  0  0  0
  2  1  1  1
  2  3  1  0
  3  4  1  0
  4  8  1  0
  5  4  2  0
  5  6  1  0
  6  7  1  0
  8  7  2  0
  9  2  1  0
 10  9  2  0
 11  9  1  0
 12 13  1  1
 12 11  1  0
 14 15  2  0
 14 13  1  0
 16 15  1  0
 17 18  2  0
 17 16  1  0
 18 14  1  0
 19 20  2  0
 19 12  1  0
 21 19  1  0
 22 21  1  0
 22 23  1  1
 24 23  1  0
 25 24  2  0
 26 25  1  0
 27 26  1  0
 27 28  2  0
 28 24  1  0
 29 30  1  0
 29 22  1  0
 31 29  2  0
M  END
$$$$
