HHH.pdb
     RDKit          3D

 31 33  0  0  1  0  0  0  0  0999 V2000
   12.5688  -16.2615   19.0167 N   0  0  0  0  0  0  0  0  0  0  0  0
   12.9963  -15.0467   19.6858 C   0  0  1  0  0  0  0  0  0  0  0  0
   13.4350  -14.0711   18.6313 C   0  0  0  0  0  0  0  0  0  0  0  0
   14.6560  -14.6416   17.9868 C   0  0  0  0  0  0  0  0  0  0  0  0
   15.2841  -15.8348   18.3370 C   0  0  0  0  0  0  0  0  0  0  0  0
   16.3482  -16.0223   17.5406 N   0  0  0  0  0  0  0  0  0  0  0  0
   16.4191  -14.9818   16.6896 C   0  0  0  0  0  0  0  0  0  0  0  0
   15.3863  -14.1497   16.9699 N   0  0  0  0  0  0  0  0  0  0  0  0
   11.8989  -14.5577   20.5310 C   0  0  0  0  0  0  0  0  0  0  0  0
   11.9980  -13.5023   21.2085 O   0  0  0  0  0  0  0  0  0  0  0  0
   10.6369  -15.2481   20.6441 N   0  0  0  0  0  0  0  0  0  0  0  0
    9.6342  -14.8302   21.5865 C   0  0  1  0  0  0  0  0  0  0  0  0
    8.2768  -14.9624   20.9852 C   0  0  0  0  0  0  0  0  0  0  0  0
    8.0448  -14.3107   19.7069 C   0  0  0  0  0  0  0  0  0  0  0  0
    7.7940  -13.0221   19.3830 C   0  0  0  0  0  0  0  0  0  0  0  0
    7.6845  -12.9261   18.0147 N   0  0  0  0  0  0  0  0  0  0  0  0
    7.8692  -14.1482   17.5240 C   0  0  0  0  0  0  0  0  0  0  0  0
    8.0891  -15.0020   18.5324 N   0  0  0  0  0  0  0  0  0  0  0  0
    9.6921  -15.5381   22.8866 C   0  0  0  0  0  0  0  0  0  0  0  0
   10.3282  -16.6142   22.9423 O   0  0  0  0  0  0  0  0  0  0  0  0
    9.0630  -15.0541   24.0566 N   0  0  0  0  0  0  0  0  0  0  0  0
    9.6910  -15.4170   25.3551 C   0  0  1  0  0  0  0  0  0  0  0  0
    9.6443  -14.2593   26.2840 C   0  0  0  0  0  0  0  0  0  0  0  0
   10.1768  -14.5376   27.6282 C   0  0  0  0  0  0  0  0  0  0  0  0
   11.0674  -15.5985   27.8454 C   0  0  0  0  0  0  0  0  0  0  0  0
   11.3605  -15.5862   29.1482 N   0  0  0  0  0  0  0  0  0  0  0  0
   10.6899  -14.5675   29.7331 C   0  0  0  0  0  0  0  0  0  0  0  0
    9.9654  -13.9237   28.8096 N   0  0  0  0  0  0  0  0  0  0  0  0
    8.8699  -16.5331   25.9411 C   0  0  0  0  0  0  0  0  0  0  0  0
    7.7188  -16.9892   25.2697 O   0  0  0  0  0  0  0  0  0  0  0  0
    9.1371  -17.1023   27.0063 O   0  0  0  0  0  0  0  0  0  0  0  0
  2  1  1  6
  2  3  1  0
  3  4  1  0
  4  8  1  0
  5  4  2  0
  5  6  1  0
  6  7  1  0
  8  7  2  0
  9  2  1  0
 10  9  2  0
 11  9  1  0
 12 13  1  6
 12 11  1  0
 14 15  2  0
 14 13  1  0
 16 15  1  0
 17 18  2  0
 17 16  1  0
 18 14  1  0
 19 20  2  0
 19 12  1  0
 21 19  1  0
 22 21  1  0
 22 23  1  1
 24 23  1  0
 25 24  2  0
 26 25  1  0
 27 26  1  0
 27 28  2  0
 28 24  1  0
 29 30  1  0
 29 22  1  0
 31 29  2  0
M  END
$$$$
