HHH.pdb
     RDKit          3D

 31 33  0  0  1  0  0  0  0  0999 V2000
   13.9870  -16.4431   19.4302 N   0  0  0  0  0  0  0  0  0  0  0  0
   13.3406  -15.1860   19.7592 C   0  0  1  0  0  0  0  0  0  0  0  0
   12.9515  -14.5183   18.4713 C   0  0  0  0  0  0  0  0  0  0  0  0
   14.2079  -14.3018   17.6926 C   0  0  0  0  0  0  0  0  0  0  0  0
   15.2871  -13.5124   18.0839 C   0  0  0  0  0  0  0  0  0  0  0  0
   16.2330  -13.5572   17.1327 N   0  0  0  0  0  0  0  0  0  0  0  0
   15.7894  -14.3536   16.1424 C   0  0  0  0  0  0  0  0  0  0  0  0
   14.5585  -14.8002   16.4934 N   0  0  0  0  0  0  0  0  0  0  0  0
   12.2096  -15.4536   20.6575 C   0  0  0  0  0  0  0  0  0  0  0  0
   11.4497  -14.5372   21.0646 O   0  0  0  0  0  0  0  0  0  0  0  0
   11.8910  -16.7776   21.1344 N   0  0  0  0  0  0  0  0  0  0  0  0
   10.7545  -17.0170   21.9826 C   0  0  1  0  0  0  0  0  0  0  0  0
   10.2351  -18.3975   21.7684 C   0  0  0  0  0  0  0  0  0  0  0  0
    9.4318  -18.6334   20.5802 C   0  0  0  0  0  0  0  0  0  0  0  0
    9.0348  -17.8129   19.5815 C   0  0  0  0  0  0  0  0  0  0  0  0
    8.3106  -18.5475   18.6709 N   0  0  0  0  0  0  0  0  0  0  0  0
    8.2753  -19.7981   19.1214 C   0  0  0  0  0  0  0  0  0  0  0  0
    8.9487  -19.8719   20.2769 N   0  0  0  0  0  0  0  0  0  0  0  0
   11.0129  -16.7822   23.4223 C   0  0  0  0  0  0  0  0  0  0  0  0
   12.1261  -17.1205   23.8828 O   0  0  0  0  0  0  0  0  0  0  0  0
   10.0622  -16.1984   24.2908 N   0  0  0  0  0  0  0  0  0  0  0  0
   10.4967  -15.9500   25.6915 C   0  0  1  0  0  0  0  0  0  0  0  0
    9.6900  -14.8549   26.2877 C   0  0  0  0  0  0  0  0  0  0  0  0
    9.9871  -14.5840   27.7041 C   0  0  0  0  0  0  0  0  0  0  0  0
   11.1122  -15.1449   28.3248 C   0  0  0  0  0  0  0  0  0  0  0  0
   11.1015  -14.7144   29.5889 N   0  0  0  0  0  0  0  0  0  0  0  0
   10.0225  -13.9179   29.7657 C   0  0  0  0  0  0  0  0  0  0  0  0
    9.3383  -13.8347   28.6179 N   0  0  0  0  0  0  0  0  0  0  0  0
   10.2303  -17.2139   26.4627 C   0  0  0  0  0  0  0  0  0  0  0  0
   11.1071  -17.6102   27.4913 O   0  0  0  0  0  0  0  0  0  0  0  0
    9.2653  -17.9596   26.2559 O   0  0  0  0  0  0  0  0  0  0  0  0
  2  1  1  6
  2  3  1  0
  3  4  1  0
  4  8  1  0
  5  4  2  0
  5  6  1  0
  6  7  1  0
  8  7  2  0
  9  2  1  0
 10  9  2  0
 11  9  1  0
 12 13  1  1
 12 11  1  0
 14 15  2  0
 14 13  1  0
 16 15  1  0
 17 18  2  0
 17 16  1  0
 18 14  1  0
 19 20  2  0
 19 12  1  0
 21 19  1  0
 22 21  1  0
 22 23  1  1
 24 23  1  0
 25 24  2  0
 26 25  1  0
 27 26  1  0
 27 28  2  0
 28 24  1  0
 29 30  1  0
 29 22  1  0
 31 29  2  0
M  END
$$$$
