HHH.pdb
     RDKit          3D

 31 33  0  0  1  0  0  0  0  0999 V2000
   13.9520  -14.6482   10.6105 N   0  0  0  0  0  0  0  0  0  0  0  0
   14.5795  -15.6212   11.4855 C   0  0  1  0  0  0  0  0  0  0  0  0
   16.0625  -15.3864   11.4455 C   0  0  0  0  0  0  0  0  0  0  0  0
   16.6199  -16.2821   10.3877 C   0  0  0  0  0  0  0  0  0  0  0  0
   17.5945  -17.2600   10.5741 C   0  0  0  0  0  0  0  0  0  0  0  0
   17.8434  -17.8625    9.4009 N   0  0  0  0  0  0  0  0  0  0  0  0
   17.0550  -17.2975    8.4677 C   0  0  0  0  0  0  0  0  0  0  0  0
   16.3163  -16.3389    9.0785 N   0  0  0  0  0  0  0  0  0  0  0  0
   13.9930  -15.5025   12.8270 C   0  0  0  0  0  0  0  0  0  0  0  0
   13.7830  -14.3857   13.3669 O   0  0  0  0  0  0  0  0  0  0  0  0
   13.6182  -16.6506   13.6166 N   0  0  0  0  0  0  0  0  0  0  0  0
   13.0481  -16.5056   14.9290 C   0  0  1  0  0  0  0  0  0  0  0  0
   11.9615  -17.5057   15.1308 C   0  0  0  0  0  0  0  0  0  0  0  0
   10.7372  -17.3265   14.3681 C   0  0  0  0  0  0  0  0  0  0  0  0
   10.2355  -16.2612   13.7034 C   0  0  0  0  0  0  0  0  0  0  0  0
    9.0481  -16.6304   13.1140 N   0  0  0  0  0  0  0  0  0  0  0  0
    8.8417  -17.9071   13.4235 C   0  0  0  0  0  0  0  0  0  0  0  0
    9.8533  -18.3481   14.1826 N   0  0  0  0  0  0  0  0  0  0  0  0
   14.0350  -16.5890   16.0308 C   0  0  0  0  0  0  0  0  0  0  0  0
   15.0624  -17.2797   15.8489 O   0  0  0  0  0  0  0  0  0  0  0  0
   13.8655  -15.9280   17.2690 N   0  0  0  0  0  0  0  0  0  0  0  0
   14.9805  -16.0395   18.2471 C   0  0  1  0  0  0  0  0  0  0  0  0
   15.1803  -14.7417   18.9410 C   0  0  0  0  0  0  0  0  0  0  0  0
   15.9807  -13.7653   18.1835 C   0  0  0  0  0  0  0  0  0  0  0  0
   16.5998  -14.1215   16.9771 C   0  0  0  0  0  0  0  0  0  0  0  0
   17.2395  -13.0324   16.5436 N   0  0  0  0  0  0  0  0  0  0  0  0
   17.0381  -12.0307   17.4300 C   0  0  0  0  0  0  0  0  0  0  0  0
   16.2701  -12.4726   18.4336 N   0  0  0  0  0  0  0  0  0  0  0  0
   14.5678  -17.0670   19.2654 C   0  0  0  0  0  0  0  0  0  0  0  0
   15.4863  -17.5012   20.2411 O   0  0  0  0  0  0  0  0  0  0  0  0
   13.4429  -17.5792   19.3142 O   0  0  0  0  0  0  0  0  0  0  0  0
  2  1  1  6
  2  3  1  0
  3  4  1  0
  4  8  1  0
  5  4  2  0
  5  6  1  0
  6  7  1  0
  8  7  2  0
  9  2  1  0
 10  9  2  0
 11  9  1  0
 12 13  1  1
 12 11  1  0
 14 15  2  0
 14 13  1  0
 16 15  1  0
 17 18  2  0
 17 16  1  0
 18 14  1  0
 19 20  2  0
 19 12  1  0
 21 19  1  0
 22 21  1  0
 22 23  1  1
 24 23  1  0
 25 24  2  0
 26 25  1  0
 27 26  1  0
 27 28  2  0
 28 24  1  0
 29 30  1  0
 29 22  1  0
 31 29  2  0
M  END
$$$$
