HHH.pdb
     RDKit          3D

 31 33  0  0  1  0  0  0  0  0999 V2000
    9.1002  -16.6014   19.9687 N   0  0  0  0  0  0  0  0  0  0  0  0
    8.9123  -15.6049   21.0069 C   0  0  1  0  0  0  0  0  0  0  0  0
    7.5826  -14.9457   20.7761 C   0  0  0  0  0  0  0  0  0  0  0  0
    7.6611  -14.2503   19.4562 C   0  0  0  0  0  0  0  0  0  0  0  0
    8.2824  -13.0276   19.2116 C   0  0  0  0  0  0  0  0  0  0  0  0
    8.1509  -12.7193   17.9119 N   0  0  0  0  0  0  0  0  0  0  0  0
    7.4623  -13.7111   17.3169 C   0  0  0  0  0  0  0  0  0  0  0  0
    7.1702  -14.6354   18.2645 N   0  0  0  0  0  0  0  0  0  0  0  0
    9.0358  -16.2552   22.3183 C   0  0  0  0  0  0  0  0  0  0  0  0
    8.1866  -17.0852   22.7340 O   0  0  0  0  0  0  0  0  0  0  0  0
   10.1325  -15.9905   23.2178 N   0  0  0  0  0  0  0  0  0  0  0  0
   10.2372  -16.6534   24.4898 C   0  0  1  0  0  0  0  0  0  0  0  0
   11.3609  -17.6323   24.4682 C   0  0  0  0  0  0  0  0  0  0  0  0
   11.2564  -18.7508   23.5457 C   0  0  0  0  0  0  0  0  0  0  0  0
   11.8229  -18.9822   22.3399 C   0  0  0  0  0  0  0  0  0  0  0  0
   11.4190  -20.2201   21.8950 N   0  0  0  0  0  0  0  0  0  0  0  0
   10.6174  -20.7253   22.8281 C   0  0  0  0  0  0  0  0  0  0  0  0
   10.5057  -19.8511   23.8368 N   0  0  0  0  0  0  0  0  0  0  0  0
   10.3783  -15.7336   25.6425 C   0  0  0  0  0  0  0  0  0  0  0  0
   11.2365  -14.8260   25.5689 O   0  0  0  0  0  0  0  0  0  0  0  0
    9.5921  -15.8383   26.8129 N   0  0  0  0  0  0  0  0  0  0  0  0
    9.8988  -14.8870   27.9144 C   0  0  1  0  0  0  0  0  0  0  0  0
    8.6464  -14.2613   28.4098 C   0  0  0  0  0  0  0  0  0  0  0  0
    7.8947  -13.5153   27.3869 C   0  0  0  0  0  0  0  0  0  0  0  0
    8.3967  -12.3209   26.8512 C   0  0  0  0  0  0  0  0  0  0  0  0
    7.4952  -11.8960   25.9624 N   0  0  0  0  0  0  0  0  0  0  0  0
    6.4685  -12.7762   25.9327 C   0  0  0  0  0  0  0  0  0  0  0  0
    6.7071  -13.7672   26.8007 N   0  0  0  0  0  0  0  0  0  0  0  0
   10.5048  -15.6921   29.0314 C   0  0  0  0  0  0  0  0  0  0  0  0
   10.7181  -17.0749   28.8686 O   0  0  0  0  0  0  0  0  0  0  0  0
   10.8427  -15.2164   30.1221 O   0  0  0  0  0  0  0  0  0  0  0  0
  2  1  1  6
  2  3  1  0
  3  4  1  0
  4  8  1  0
  5  4  2  0
  5  6  1  0
  6  7  1  0
  8  7  2  0
  9  2  1  0
 10  9  2  0
 11  9  1  0
 12 13  1  6
 12 11  1  0
 14 15  2  0
 14 13  1  0
 16 15  1  0
 17 18  2  0
 17 16  1  0
 18 14  1  0
 19 20  2  0
 19 12  1  0
 21 19  1  0
 22 21  1  0
 22 23  1  1
 24 23  1  0
 25 24  2  0
 26 25  1  0
 27 26  1  0
 27 28  2  0
 28 24  1  0
 29 30  1  0
 29 22  1  0
 31 29  2  0
M  END
$$$$
