HHH.pdb
     RDKit          3D

 31 33  0  0  1  0  0  0  0  0999 V2000
    5.9828  -20.5194   17.2375 N   0  0  0  0  0  0  0  0  0  0  0  0
    7.1937  -20.5960   18.0337 C   0  0  1  0  0  0  0  0  0  0  0  0
    7.6328  -19.1923   18.3387 C   0  0  0  0  0  0  0  0  0  0  0  0
    8.1045  -18.5917   17.0548 C   0  0  0  0  0  0  0  0  0  0  0  0
    9.4301  -18.4868   16.6391 C   0  0  0  0  0  0  0  0  0  0  0  0
    9.4684  -17.8931   15.4359 N   0  0  0  0  0  0  0  0  0  0  0  0
    8.2036  -17.6147   15.0692 C   0  0  0  0  0  0  0  0  0  0  0  0
    7.3838  -18.0434   16.0601 N   0  0  0  0  0  0  0  0  0  0  0  0
    6.9277  -21.4101   19.2271 C   0  0  0  0  0  0  0  0  0  0  0  0
    5.9540  -21.1783   19.9893 O   0  0  0  0  0  0  0  0  0  0  0  0
    7.7583  -22.5267   19.6083 N   0  0  0  0  0  0  0  0  0  0  0  0
    7.5125  -23.2676   20.8161 C   0  0  1  0  0  0  0  0  0  0  0  0
    7.9952  -24.6698   20.6662 C   0  0  0  0  0  0  0  0  0  0  0  0
    7.8043  -25.5673   21.7934 C   0  0  0  0  0  0  0  0  0  0  0  0
    6.8193  -25.6624   22.7149 C   0  0  0  0  0  0  0  0  0  0  0  0
    7.1032  -26.7148   23.5547 N   0  0  0  0  0  0  0  0  0  0  0  0
    8.2491  -27.2455   23.1381 C   0  0  0  0  0  0  0  0  0  0  0  0
    8.6907  -26.5653   22.0720 N   0  0  0  0  0  0  0  0  0  0  0  0
    8.0911  -22.6518   22.0330 C   0  0  0  0  0  0  0  0  0  0  0  0
    9.1122  -21.9403   21.9033 O   0  0  0  0  0  0  0  0  0  0  0  0
    7.5436  -22.8337   23.3238 N   0  0  0  0  0  0  0  0  0  0  0  0
    8.2066  -22.1107   24.4417 C   0  0  1  0  0  0  0  0  0  0  0  0
    7.4342  -20.8903   24.7874 C   0  0  0  0  0  0  0  0  0  0  0  0
    7.9227  -20.1807   25.9814 C   0  0  0  0  0  0  0  0  0  0  0  0
    9.0858  -19.3995   25.9303 C   0  0  0  0  0  0  0  0  0  0  0  0
    9.2583  -18.8964   27.1553 N   0  0  0  0  0  0  0  0  0  0  0  0
    8.2545  -19.3352   27.9487 C   0  0  0  0  0  0  0  0  0  0  0  0
    7.4358  -20.1199   27.2370 N   0  0  0  0  0  0  0  0  0  0  0  0
    8.1952  -23.0353   25.6283 C   0  0  0  0  0  0  0  0  0  0  0  0
    9.1012  -22.8339   26.6879 O   0  0  0  0  0  0  0  0  0  0  0  0
    7.4234  -23.9942   25.7503 O   0  0  0  0  0  0  0  0  0  0  0  0
  2  1  1  6
  2  3  1  0
  3  4  1  0
  4  8  1  0
  5  4  2  0
  5  6  1  0
  6  7  1  0
  8  7  2  0
  9  2  1  0
 10  9  2  0
 11  9  1  0
 12 13  1  6
 12 11  1  0
 14 15  2  0
 14 13  1  0
 16 15  1  0
 17 18  2  0
 17 16  1  0
 18 14  1  0
 19 20  2  0
 19 12  1  0
 21 19  1  0
 22 21  1  0
 22 23  1  1
 24 23  1  0
 25 24  2  0
 26 25  1  0
 27 26  1  0
 27 28  2  0
 28 24  1  0
 29 30  1  0
 29 22  1  0
 31 29  2  0
M  END
$$$$
