HHH.pdb
     RDKit          3D

 31 33  0  0  1  0  0  0  0  0999 V2000
   10.4733  -18.4718   19.4294 N   0  0  0  0  0  0  0  0  0  0  0  0
   11.3152  -17.2939   19.5293 C   0  0  1  0  0  0  0  0  0  0  0  0
   11.2633  -16.5784   18.2097 C   0  0  0  0  0  0  0  0  0  0  0  0
   11.8165  -17.5118   17.1828 C   0  0  0  0  0  0  0  0  0  0  0  0
   13.1450  -17.9180   17.0777 C   0  0  0  0  0  0  0  0  0  0  0  0
   13.2677  -18.7568   16.0371 N   0  0  0  0  0  0  0  0  0  0  0  0
   12.0542  -18.8992   15.4725 C   0  0  0  0  0  0  0  0  0  0  0  0
   11.1807  -18.1385   16.1766 N   0  0  0  0  0  0  0  0  0  0  0  0
   10.8632  -16.4812   20.6664 C   0  0  0  0  0  0  0  0  0  0  0  0
   11.4346  -15.4074   20.9879 O   0  0  0  0  0  0  0  0  0  0  0  0
    9.7389  -16.8535   21.4907 N   0  0  0  0  0  0  0  0  0  0  0  0
    9.4382  -16.1542   22.7109 C   0  0  1  0  0  0  0  0  0  0  0  0
    8.0738  -15.5587   22.6391 C   0  0  0  0  0  0  0  0  0  0  0  0
    7.8055  -14.6293   21.5542 C   0  0  0  0  0  0  0  0  0  0  0  0
    8.0693  -13.3111   21.4089 C   0  0  0  0  0  0  0  0  0  0  0  0
    7.6352  -12.9105   20.1660 N   0  0  0  0  0  0  0  0  0  0  0  0
    7.1164  -13.9814   19.5724 C   0  0  0  0  0  0  0  0  0  0  0  0
    7.2098  -15.0334   20.3962 N   0  0  0  0  0  0  0  0  0  0  0  0
    9.5750  -16.9810   23.9325 C   0  0  0  0  0  0  0  0  0  0  0  0
    8.8242  -17.9742   24.0575 O   0  0  0  0  0  0  0  0  0  0  0  0
   10.5091  -16.6967   24.9551 N   0  0  0  0  0  0  0  0  0  0  0  0
   10.5119  -17.6054   26.1326 C   0  0  1  0  0  0  0  0  0  0  0  0
   11.9069  -17.9605   26.4978 C   0  0  0  0  0  0  0  0  0  0  0  0
   12.5859  -18.8323   25.5248 C   0  0  0  0  0  0  0  0  0  0  0  0
   11.8729  -19.4428   24.4833 C   0  0  0  0  0  0  0  0  0  0  0  0
   12.7594  -20.1573   23.7854 N   0  0  0  0  0  0  0  0  0  0  0  0
   13.9779  -20.0097   24.3538 C   0  0  0  0  0  0  0  0  0  0  0  0
   13.8779  -19.2015   25.4165 N   0  0  0  0  0  0  0  0  0  0  0  0
    9.8986  -16.8426   27.2751 C   0  0  0  0  0  0  0  0  0  0  0  0
    9.7193  -17.4676   28.5246 O   0  0  0  0  0  0  0  0  0  0  0  0
    9.5257  -15.6656   27.1995 O   0  0  0  0  0  0  0  0  0  0  0  0
  2  1  1  6
  2  3  1  0
  3  4  1  0
  4  8  1  0
  5  4  2  0
  5  6  1  0
  6  7  1  0
  8  7  2  0
  9  2  1  0
 10  9  2  0
 11  9  1  0
 12 13  1  6
 12 11  1  0
 14 15  2  0
 14 13  1  0
 16 15  1  0
 17 18  2  0
 17 16  1  0
 18 14  1  0
 19 20  2  0
 19 12  1  0
 21 19  1  0
 22 21  1  0
 22 23  1  1
 24 23  1  0
 25 24  2  0
 26 25  1  0
 27 26  1  0
 27 28  2  0
 28 24  1  0
 29 30  1  0
 29 22  1  0
 31 29  2  0
M  END
$$$$
