HHH.pdb
     RDKit          3D

 31 33  0  0  1  0  0  0  0  0999 V2000
    9.9128  -17.8121   17.1905 N   0  0  0  0  0  0  0  0  0  0  0  0
   11.2806  -17.3403   17.0776 C   0  0  1  0  0  0  0  0  0  0  0  0
   11.3852  -16.5314   15.8163 C   0  0  0  0  0  0  0  0  0  0  0  0
   11.3164  -17.4907   14.6732 C   0  0  0  0  0  0  0  0  0  0  0  0
   12.3626  -18.2835   14.2065 C   0  0  0  0  0  0  0  0  0  0  0  0
   11.9302  -19.0164   13.1685 N   0  0  0  0  0  0  0  0  0  0  0  0
   10.6355  -18.7150   12.9573 C   0  0  0  0  0  0  0  0  0  0  0  0
   10.2735  -17.7873   13.8770 N   0  0  0  0  0  0  0  0  0  0  0  0
   11.6288  -16.5950   18.2946 C   0  0  0  0  0  0  0  0  0  0  0  0
   12.7639  -16.0777   18.4582 O   0  0  0  0  0  0  0  0  0  0  0  0
   10.7002  -16.4038   19.3823 N   0  0  0  0  0  0  0  0  0  0  0  0
   11.0953  -15.7500   20.6008 C   0  0  1  0  0  0  0  0  0  0  0  0
   10.6436  -14.3297   20.5918 C   0  0  0  0  0  0  0  0  0  0  0  0
    9.2885  -14.0612   20.1396 C   0  0  0  0  0  0  0  0  0  0  0  0
    8.3217  -14.8722   19.6540 C   0  0  0  0  0  0  0  0  0  0  0  0
    7.1990  -14.1168   19.4041 N   0  0  0  0  0  0  0  0  0  0  0  0
    7.4922  -12.8636   19.7383 C   0  0  0  0  0  0  0  0  0  0  0  0
    8.7533  -12.8080   20.1865 N   0  0  0  0  0  0  0  0  0  0  0  0
   10.6295  -16.4301   21.8318 C   0  0  0  0  0  0  0  0  0  0  0  0
    9.5791  -17.1071   21.7680 O   0  0  0  0  0  0  0  0  0  0  0  0
   11.3152  -16.3459   23.0654 N   0  0  0  0  0  0  0  0  0  0  0  0
   10.8201  -17.2121   24.1685 C   0  0  1  0  0  0  0  0  0  0  0  0
   11.9580  -17.6689   25.0064 C   0  0  0  0  0  0  0  0  0  0  0  0
   12.8282  -18.6640   24.3582 C   0  0  0  0  0  0  0  0  0  0  0  0
   12.4688  -19.2486   23.1355 C   0  0  0  0  0  0  0  0  0  0  0  0
   13.4511  -20.0954   22.8173 N   0  0  0  0  0  0  0  0  0  0  0  0
   14.3910  -20.0529   23.7892 C   0  0  0  0  0  0  0  0  0  0  0  0
   14.0157  -19.1804   24.7328 N   0  0  0  0  0  0  0  0  0  0  0  0
    9.9124  -16.3639   25.0169 C   0  0  0  0  0  0  0  0  0  0  0  0
    9.1926  -16.9457   26.0787 O   0  0  0  0  0  0  0  0  0  0  0  0
    9.7429  -15.1503   24.8481 O   0  0  0  0  0  0  0  0  0  0  0  0
  2  1  1  1
  2  3  1  0
  3  4  1  0
  4  8  1  0
  5  4  2  0
  5  6  1  0
  6  7  1  0
  8  7  2  0
  9  2  1  0
 10  9  2  0
 11  9  1  0
 12 13  1  6
 12 11  1  0
 14 15  2  0
 14 13  1  0
 16 15  1  0
 17 18  2  0
 17 16  1  0
 18 14  1  0
 19 20  2  0
 19 12  1  0
 21 19  1  0
 22 21  1  0
 22 23  1  1
 24 23  1  0
 25 24  2  0
 26 25  1  0
 27 26  1  0
 27 28  2  0
 28 24  1  0
 29 30  1  0
 29 22  1  0
 31 29  2  0
M  END
$$$$
