DKE.pdb
     RDKit          3D

 27 26  0  0  1  0  0  0  0  0999 V2000
    8.3034  -17.6070   19.9182 N   0  0  0  0  0  0  0  0  0  0  0  0
    9.6560  -17.1454   19.8760 C   0  0  1  0  0  0  0  0  0  0  0  0
   10.0985  -16.5383   18.5935 C   0  0  0  0  0  0  0  0  0  0  0  0
    9.8982  -17.4947   17.4854 C   0  0  0  0  0  0  0  0  0  0  0  0
   10.0859  -18.7228   17.7130 O   0  0  0  0  0  0  0  0  0  0  0  0
    9.9164  -16.3093   21.0813 C   0  0  0  0  0  0  0  0  0  0  0  0
   11.0340  -15.7618   21.3020 O   0  0  0  0  0  0  0  0  0  0  0  0
    9.5167  -17.1275   16.2090 O   0  0  0  0  0  0  0  0  0  0  0  0
    8.9036  -16.0721   22.0818 N   0  0  0  0  0  0  0  0  0  0  0  0
    9.1484  -15.2192   23.2201 C   0  0  1  0  0  0  0  0  0  0  0  0
    7.8875  -14.6836   23.7711 C   0  0  0  0  0  0  0  0  0  0  0  0
    7.9482  -13.7925   24.9519 C   0  0  0  0  0  0  0  0  0  0  0  0
    6.6735  -13.2006   25.4296 C   0  0  0  0  0  0  0  0  0  0  0  0
    7.0297  -12.2727   26.6041 C   0  0  0  0  0  0  0  0  0  0  0  0
    5.8469  -11.6606   27.1490 N   0  0  0  0  0  0  0  0  0  0  0  0
    9.7704  -16.0333   24.3414 C   0  0  0  0  0  0  0  0  0  0  0  0
    9.1503  -17.0612   24.6791 O   0  0  0  0  0  0  0  0  0  0  0  0
   10.9707  -15.6776   24.9802 N   0  0  0  0  0  0  0  0  0  0  0  0
   11.5065  -16.4829   26.0572 C   0  0  1  0  0  0  0  0  0  0  0  0
   11.0104  -16.1117   27.4136 C   0  0  0  0  0  0  0  0  0  0  0  0
   11.0214  -14.6742   27.7669 C   0  0  0  0  0  0  0  0  0  0  0  0
   10.5750  -14.4318   29.1540 C   0  0  0  0  0  0  0  0  0  0  0  0
   11.3252  -14.7368   30.0985 O   0  0  0  0  0  0  0  0  0  0  0  0
   11.3228  -17.8967   25.7243 C   0  0  0  0  0  0  0  0  0  0  0  0
   10.5759  -18.2697   24.6262 O   0  0  0  0  0  0  0  0  0  0  0  0
    9.3249  -13.8671   29.3535 O   0  0  0  0  0  0  0  0  0  0  0  0
   11.8471  -18.7796   26.4394 O   0  0  0  0  0  0  0  0  0  0  0  0
  2  1  1  6
  2  3  1  0
  2  6  1  0
  4  3  1  0
  4  8  1  0
  5  4  2  0
  6  7  2  0
  9  6  1  0
  9 10  1  0
 10 11  1  1
 11 12  1  0
 13 12  1  0
 13 14  1  0
 14 15  1  0
 16 17  2  0
 16 10  1  0
 18 16  1  0
 19 20  1  1
 19 18  1  0
 20 21  1  0
 22 21  1  0
 22 23  2  0
 24 19  1  0
 25 24  1  0
 26 22  1  0
 27 24  2  0
M  END
$$$$
