DKE.pdb
     RDKit          3D

 27 26  0  0  1  0  0  0  0  0999 V2000
   11.5578  -18.4447   16.4229 N   0  0  0  0  0  0  0  0  0  0  0  0
   12.7271  -17.7228   16.8181 C   0  0  1  0  0  0  0  0  0  0  0  0
   13.3970  -16.9323   15.7526 C   0  0  0  0  0  0  0  0  0  0  0  0
   13.6416  -17.7828   14.5696 C   0  0  0  0  0  0  0  0  0  0  0  0
   13.6522  -19.0362   14.7251 O   0  0  0  0  0  0  0  0  0  0  0  0
   12.4231  -16.9586   18.0603 C   0  0  0  0  0  0  0  0  0  0  0  0
   13.3103  -16.3376   18.7121 O   0  0  0  0  0  0  0  0  0  0  0  0
   13.8609  -17.2901   13.2973 O   0  0  0  0  0  0  0  0  0  0  0  0
   11.0884  -16.8806   18.6039 N   0  0  0  0  0  0  0  0  0  0  0  0
   10.7961  -16.1061   19.7863 C   0  0  1  0  0  0  0  0  0  0  0  0
    9.3404  -15.9753   19.9964 C   0  0  0  0  0  0  0  0  0  0  0  0
    8.5623  -15.1172   19.0743 C   0  0  0  0  0  0  0  0  0  0  0  0
    7.7079  -14.0632   19.6763 C   0  0  0  0  0  0  0  0  0  0  0  0
    7.0554  -13.3026   18.5088 C   0  0  0  0  0  0  0  0  0  0  0  0
    6.1763  -12.2733   18.9969 N   0  0  0  0  0  0  0  0  0  0  0  0
   11.3217  -16.8320   21.0126 C   0  0  0  0  0  0  0  0  0  0  0  0
   11.2226  -18.0750   20.9961 O   0  0  0  0  0  0  0  0  0  0  0  0
   11.8911  -16.1727   22.1155 N   0  0  0  0  0  0  0  0  0  0  0  0
   12.6865  -16.8963   23.0847 C   0  0  1  0  0  0  0  0  0  0  0  0
   14.1173  -16.4806   23.1455 C   0  0  0  0  0  0  0  0  0  0  0  0
   14.9602  -17.1102   24.1869 C   0  0  0  0  0  0  0  0  0  0  0  0
   16.3412  -16.5862   24.1863 C   0  0  0  0  0  0  0  0  0  0  0  0
   16.7147  -15.8495   25.1167 O   0  0  0  0  0  0  0  0  0  0  0  0
   12.0017  -16.8584   24.3782 C   0  0  0  0  0  0  0  0  0  0  0  0
   12.4116  -17.6705   25.4152 O   0  0  0  0  0  0  0  0  0  0  0  0
   17.1783  -16.9393   23.1394 O   0  0  0  0  0  0  0  0  0  0  0  0
   11.0349  -16.0830   24.5501 O   0  0  0  0  0  0  0  0  0  0  0  0
  2  1  1  6
  2  3  1  0
  2  6  1  0
  4  3  1  0
  4  8  1  0
  5  4  2  0
  6  7  2  0
  9  6  1  0
  9 10  1  0
 10 11  1  1
 11 12  1  0
 13 12  1  0
 13 14  1  0
 14 15  1  0
 16 17  2  0
 16 10  1  0
 18 16  1  0
 19 20  1  1
 19 18  1  0
 20 21  1  0
 22 21  1  0
 22 23  2  0
 24 19  1  0
 25 24  1  0
 26 22  1  0
 27 24  2  0
M  END
$$$$
