DKE.pdb
     RDKit          3D

 27 26  0  0  1  0  0  0  0  0999 V2000
   14.1778  -16.6825   19.4875 N   0  0  0  0  0  0  0  0  0  0  0  0
   13.6289  -15.4667   20.0023 C   0  0  1  0  0  0  0  0  0  0  0  0
   13.3357  -14.4079   19.0013 C   0  0  0  0  0  0  0  0  0  0  0  0
   14.5278  -14.1579   18.1653 C   0  0  0  0  0  0  0  0  0  0  0  0
   15.5645  -13.6992   18.7225 O   0  0  0  0  0  0  0  0  0  0  0  0
   12.4926  -15.7977   20.9072 C   0  0  0  0  0  0  0  0  0  0  0  0
   11.7897  -14.9108   21.4702 O   0  0  0  0  0  0  0  0  0  0  0  0
   14.5798  -14.3953   16.8050 O   0  0  0  0  0  0  0  0  0  0  0  0
   12.1216  -17.1606   21.2031 N   0  0  0  0  0  0  0  0  0  0  0  0
   11.1098  -17.4744   22.1835 C   0  0  1  0  0  0  0  0  0  0  0  0
   10.7529  -18.9068   22.1476 C   0  0  0  0  0  0  0  0  0  0  0  0
    9.7499  -19.3660   21.1602 C   0  0  0  0  0  0  0  0  0  0  0  0
    8.3325  -19.4192   21.5977 C   0  0  0  0  0  0  0  0  0  0  0  0
    7.5144  -19.9048   20.3885 C   0  0  0  0  0  0  0  0  0  0  0  0
    6.1156  -19.9853   20.7166 N   0  0  0  0  0  0  0  0  0  0  0  0
   11.6580  -17.2254   23.5779 C   0  0  0  0  0  0  0  0  0  0  0  0
   12.8484  -17.5479   23.7626 O   0  0  0  0  0  0  0  0  0  0  0  0
   10.8967  -16.6669   24.6189 N   0  0  0  0  0  0  0  0  0  0  0  0
   11.4776  -16.4392   25.9252 C   0  0  1  0  0  0  0  0  0  0  0  0
   11.0013  -15.2016   26.6074 C   0  0  0  0  0  0  0  0  0  0  0  0
    9.8127  -15.3264   27.4809 C   0  0  0  0  0  0  0  0  0  0  0  0
    9.3560  -14.0212   28.0002 C   0  0  0  0  0  0  0  0  0  0  0  0
    9.9267  -12.9815   27.6242 O   0  0  0  0  0  0  0  0  0  0  0  0
   11.3253  -17.6550   26.7266 C   0  0  0  0  0  0  0  0  0  0  0  0
   12.1435  -17.8891   27.8122 O   0  0  0  0  0  0  0  0  0  0  0  0
    8.2976  -14.0031   28.8950 O   0  0  0  0  0  0  0  0  0  0  0  0
   10.4452  -18.4929   26.4284 O   0  0  0  0  0  0  0  0  0  0  0  0
  2  1  1  6
  2  3  1  0
  2  6  1  0
  4  3  1  0
  4  8  1  0
  5  4  2  0
  6  7  2  0
  9  6  1  0
  9 10  1  0
 10 11  1  1
 11 12  1  0
 13 12  1  0
 13 14  1  0
 14 15  1  0
 16 17  2  0
 16 10  1  0
 18 16  1  0
 19 20  1  1
 19 18  1  0
 20 21  1  0
 22 21  1  0
 22 23  2  0
 24 19  1  0
 25 24  1  0
 26 22  1  0
 27 24  2  0
M  END
$$$$
