DKE.pdb
     RDKit          3D

 27 26  0  0  1  0  0  0  0  0999 V2000
    8.7209  -17.6038   20.2566 N   0  0  0  0  0  0  0  0  0  0  0  0
    9.9968  -16.9585   20.2514 C   0  0  1  0  0  0  0  0  0  0  0  0
   10.3581  -16.2373   19.0030 C   0  0  0  0  0  0  0  0  0  0  0  0
   10.3068  -17.1617   17.8518 C   0  0  0  0  0  0  0  0  0  0  0  0
    9.6072  -16.8351   16.8521 O   0  0  0  0  0  0  0  0  0  0  0  0
   10.1324  -16.1514   21.4963 C   0  0  0  0  0  0  0  0  0  0  0  0
   11.2371  -15.6722   21.8804 O   0  0  0  0  0  0  0  0  0  0  0  0
   10.9797  -18.3676   17.8001 O   0  0  0  0  0  0  0  0  0  0  0  0
    9.0045  -15.8661   22.3503 N   0  0  0  0  0  0  0  0  0  0  0  0
    9.1599  -15.1609   23.6000 C   0  0  1  0  0  0  0  0  0  0  0  0
    7.9008  -14.5058   24.0072 C   0  0  0  0  0  0  0  0  0  0  0  0
    7.8698  -13.7527   25.2815 C   0  0  0  0  0  0  0  0  0  0  0  0
    6.6109  -13.0479   25.6303 C   0  0  0  0  0  0  0  0  0  0  0  0
    6.8608  -12.3326   26.9693 C   0  0  0  0  0  0  0  0  0  0  0  0
    5.7043  -11.5750   27.3681 N   0  0  0  0  0  0  0  0  0  0  0  0
    9.4810  -16.1509   24.7062 C   0  0  0  0  0  0  0  0  0  0  0  0
    8.7748  -17.1781   24.7421 O   0  0  0  0  0  0  0  0  0  0  0  0
   10.5051  -15.9516   25.6479 N   0  0  0  0  0  0  0  0  0  0  0  0
   10.9022  -17.0119   26.5498 C   0  0  1  0  0  0  0  0  0  0  0  0
   12.3201  -17.4504   26.4037 C   0  0  0  0  0  0  0  0  0  0  0  0
   12.5971  -18.5265   25.4257 C   0  0  0  0  0  0  0  0  0  0  0  0
   14.0440  -18.7457   25.2244 C   0  0  0  0  0  0  0  0  0  0  0  0
   14.7909  -18.8362   26.2153 O   0  0  0  0  0  0  0  0  0  0  0  0
   10.5365  -16.6304   27.9151 C   0  0  0  0  0  0  0  0  0  0  0  0
   10.7142  -17.5098   28.9630 O   0  0  0  0  0  0  0  0  0  0  0  0
   14.5200  -18.8444   23.9264 O   0  0  0  0  0  0  0  0  0  0  0  0
   10.0580  -15.4962   28.1393 O   0  0  0  0  0  0  0  0  0  0  0  0
  2  1  1  6
  2  3  1  0
  2  6  1  0
  4  3  1  0
  4  8  1  0
  5  4  2  0
  6  7  2  0
  9  6  1  0
  9 10  1  0
 10 11  1  1
 11 12  1  0
 13 12  1  0
 13 14  1  0
 14 15  1  0
 16 17  2  0
 16 10  1  0
 18 16  1  0
 19 20  1  1
 19 18  1  0
 20 21  1  0
 22 21  1  0
 22 23  2  0
 24 19  1  0
 25 24  1  0
 26 22  1  0
 27 24  2  0
M  END
$$$$
