DKE.pdb
     RDKit          3D

 27 26  0  0  1  0  0  0  0  0999 V2000
    9.7327  -19.0773   18.0818 N   0  0  0  0  0  0  0  0  0  0  0  0
   10.6364  -17.9699   18.1173 C   0  0  1  0  0  0  0  0  0  0  0  0
   10.4118  -16.9115   17.0983 C   0  0  0  0  0  0  0  0  0  0  0  0
   10.6874  -17.4428   15.7476 C   0  0  0  0  0  0  0  0  0  0  0  0
    9.7502  -18.0206   15.1286 O   0  0  0  0  0  0  0  0  0  0  0  0
   10.7325  -17.4726   19.5184 C   0  0  0  0  0  0  0  0  0  0  0  0
   11.6592  -16.7058   19.9069 O   0  0  0  0  0  0  0  0  0  0  0  0
   11.9128  -17.3470   15.1162 O   0  0  0  0  0  0  0  0  0  0  0  0
    9.7693  -17.8394   20.5286 N   0  0  0  0  0  0  0  0  0  0  0  0
    9.8560  -17.3327   21.8774 C   0  0  1  0  0  0  0  0  0  0  0  0
    8.8000  -17.9063   22.7355 C   0  0  0  0  0  0  0  0  0  0  0  0
    8.7944  -17.5712   24.1776 C   0  0  0  0  0  0  0  0  0  0  0  0
    7.7652  -18.2204   25.0276 C   0  0  0  0  0  0  0  0  0  0  0  0
    7.9579  -17.6719   26.4521 C   0  0  0  0  0  0  0  0  0  0  0  0
    7.1096  -18.3641   27.3858 N   0  0  0  0  0  0  0  0  0  0  0  0
   11.1703  -17.7689   22.5012 C   0  0  0  0  0  0  0  0  0  0  0  0
   11.4686  -18.9717   22.3619 O   0  0  0  0  0  0  0  0  0  0  0  0
   12.0217  -16.8951   23.1991 N   0  0  0  0  0  0  0  0  0  0  0  0
   13.2379  -17.3786   23.8177 C   0  0  1  0  0  0  0  0  0  0  0  0
   14.4602  -16.5961   23.4749 C   0  0  0  0  0  0  0  0  0  0  0  0
   14.9178  -16.6397   22.0678 C   0  0  0  0  0  0  0  0  0  0  0  0
   16.1010  -15.7870   21.8338 C   0  0  0  0  0  0  0  0  0  0  0  0
   16.5836  -15.7137   20.6894 O   0  0  0  0  0  0  0  0  0  0  0  0
   13.0092  -17.5226   25.2566 C   0  0  0  0  0  0  0  0  0  0  0  0
   11.8469  -17.0555   25.8344 O   0  0  0  0  0  0  0  0  0  0  0  0
   16.6341  -15.0925   22.9084 O   0  0  0  0  0  0  0  0  0  0  0  0
   13.8733  -18.0745   25.9737 O   0  0  0  0  0  0  0  0  0  0  0  0
  2  1  1  1
  2  3  1  0
  2  6  1  0
  4  3  1  0
  4  8  1  0
  5  4  2  0
  6  7  2  0
  9  6  1  0
  9 10  1  0
 10 11  1  1
 11 12  1  0
 13 12  1  0
 13 14  1  0
 14 15  1  0
 16 17  2  0
 16 10  1  0
 18 16  1  0
 19 20  1  1
 19 18  1  0
 20 21  1  0
 22 21  1  0
 22 23  2  0
 24 19  1  0
 25 24  1  0
 26 22  1  0
 27 24  2  0
M  END
$$$$
