DKE.pdb
     RDKit          3D

 27 26  0  0  1  0  0  0  0  0999 V2000
    7.7929  -17.4170   19.7626 N   0  0  0  0  0  0  0  0  0  0  0  0
    9.0660  -16.7730   19.6693 C   0  0  1  0  0  0  0  0  0  0  0  0
    9.3228  -16.0131   18.4180 C   0  0  0  0  0  0  0  0  0  0  0  0
    9.1849  -16.9041   17.2477 C   0  0  0  0  0  0  0  0  0  0  0  0
    9.5461  -18.1086   17.3662 O   0  0  0  0  0  0  0  0  0  0  0  0
    9.3094  -16.0056   20.9230 C   0  0  0  0  0  0  0  0  0  0  0  0
   10.4572  -15.5969   21.2593 O   0  0  0  0  0  0  0  0  0  0  0  0
    8.6831  -16.4999   16.0253 O   0  0  0  0  0  0  0  0  0  0  0  0
    8.2440  -15.6806   21.8407 N   0  0  0  0  0  0  0  0  0  0  0  0
    8.4990  -14.9962   23.0856 C   0  0  1  0  0  0  0  0  0  0  0  0
    7.2423  -14.5557   23.7236 C   0  0  0  0  0  0  0  0  0  0  0  0
    7.3160  -13.7981   24.9935 C   0  0  0  0  0  0  0  0  0  0  0  0
    6.0495  -13.2460   25.5362 C   0  0  0  0  0  0  0  0  0  0  0  0
    6.4184  -12.4589   26.8056 C   0  0  0  0  0  0  0  0  0  0  0  0
    5.2564  -11.8249   27.3699 N   0  0  0  0  0  0  0  0  0  0  0  0
    9.1424  -15.9560   24.0713 C   0  0  0  0  0  0  0  0  0  0  0  0
    8.7086  -17.1250   24.0580 O   0  0  0  0  0  0  0  0  0  0  0  0
   10.1666  -15.5813   24.9578 N   0  0  0  0  0  0  0  0  0  0  0  0
   11.1069  -16.5591   25.4633 C   0  0  1  0  0  0  0  0  0  0  0  0
   12.4958  -16.4099   24.9412 C   0  0  0  0  0  0  0  0  0  0  0  0
   13.5186  -17.3424   25.4661 C   0  0  0  0  0  0  0  0  0  0  0  0
   14.8580  -17.0868   24.8982 C   0  0  0  0  0  0  0  0  0  0  0  0
   15.0191  -16.1269   24.1232 O   0  0  0  0  0  0  0  0  0  0  0  0
   11.0213  -16.5831   26.9246 C   0  0  0  0  0  0  0  0  0  0  0  0
   11.6486  -17.5747   27.6499 O   0  0  0  0  0  0  0  0  0  0  0  0
   15.8961  -17.9336   25.2543 O   0  0  0  0  0  0  0  0  0  0  0  0
   10.3743  -15.6972   27.5266 O   0  0  0  0  0  0  0  0  0  0  0  0
  2  1  1  6
  2  3  1  0
  2  6  1  0
  4  3  1  0
  4  8  1  0
  5  4  2  0
  6  7  2  0
  9  6  1  0
  9 10  1  0
 10 11  1  1
 11 12  1  0
 13 12  1  0
 13 14  1  0
 14 15  1  0
 16 17  2  0
 16 10  1  0
 18 16  1  0
 19 20  1  1
 19 18  1  0
 20 21  1  0
 22 21  1  0
 22 23  2  0
 24 19  1  0
 25 24  1  0
 26 22  1  0
 27 24  2  0
M  END
$$$$
