DKE.pdb
     RDKit          3D

 27 26  0  0  1  0  0  0  0  0999 V2000
    8.0695  -17.0805   19.9086 N   0  0  0  0  0  0  0  0  0  0  0  0
    9.4755  -16.9310   20.1207 C   0  0  1  0  0  0  0  0  0  0  0  0
   10.2743  -16.5228   18.9356 C   0  0  0  0  0  0  0  0  0  0  0  0
    9.7568  -17.1888   17.7228 C   0  0  0  0  0  0  0  0  0  0  0  0
    8.7767  -17.9764   17.8440 O   0  0  0  0  0  0  0  0  0  0  0  0
    9.6924  -16.0942   21.3340 C   0  0  0  0  0  0  0  0  0  0  0  0
   10.8416  -15.7300   21.7137 O   0  0  0  0  0  0  0  0  0  0  0  0
   10.2808  -17.0034   16.4576 O   0  0  0  0  0  0  0  0  0  0  0  0
    8.5973  -15.6456   22.1603 N   0  0  0  0  0  0  0  0  0  0  0  0
    8.8218  -14.9084   23.3807 C   0  0  1  0  0  0  0  0  0  0  0  0
    7.5756  -14.2842   23.8681 C   0  0  0  0  0  0  0  0  0  0  0  0
    7.6163  -13.4979   25.1219 C   0  0  0  0  0  0  0  0  0  0  0  0
    6.3467  -12.8863   25.5884 C   0  0  0  0  0  0  0  0  0  0  0  0
    6.6714  -12.1308   26.8887 C   0  0  0  0  0  0  0  0  0  0  0  0
    5.4743  -11.5970   27.4825 N   0  0  0  0  0  0  0  0  0  0  0  0
    9.2565  -15.8631   24.4791 C   0  0  0  0  0  0  0  0  0  0  0  0
    8.6946  -16.9763   24.4895 O   0  0  0  0  0  0  0  0  0  0  0  0
   10.2303  -15.5424   25.4405 N   0  0  0  0  0  0  0  0  0  0  0  0
   10.7723  -16.5589   26.3172 C   0  0  1  0  0  0  0  0  0  0  0  0
   12.2426  -16.7706   26.1850 C   0  0  0  0  0  0  0  0  0  0  0  0
   12.7406  -17.2550   24.8778 C   0  0  0  0  0  0  0  0  0  0  0  0
   14.2093  -17.4113   24.8577 C   0  0  0  0  0  0  0  0  0  0  0  0
   14.7036  -18.4811   24.4589 O   0  0  0  0  0  0  0  0  0  0  0  0
   10.3329  -16.2831   27.6862 C   0  0  0  0  0  0  0  0  0  0  0  0
   10.6439  -17.1501   28.7131 O   0  0  0  0  0  0  0  0  0  0  0  0
   14.9897  -16.3492   25.2869 O   0  0  0  0  0  0  0  0  0  0  0  0
    9.6688  -15.2517   27.9327 O   0  0  0  0  0  0  0  0  0  0  0  0
  2  1  1  6
  2  3  1  0
  2  6  1  0
  4  3  1  0
  4  8  1  0
  5  4  2  0
  6  7  2  0
  9  6  1  0
  9 10  1  0
 10 11  1  1
 11 12  1  0
 13 12  1  0
 13 14  1  0
 14 15  1  0
 16 17  2  0
 16 10  1  0
 18 16  1  0
 19 20  1  1
 19 18  1  0
 20 21  1  0
 22 21  1  0
 22 23  2  0
 24 19  1  0
 25 24  1  0
 26 22  1  0
 27 24  2  0
M  END
$$$$
