DKE.pdb
     RDKit          3D

 27 26  0  0  1  0  0  0  0  0999 V2000
   11.6681  -17.7758   17.0525 N   0  0  0  0  0  0  0  0  0  0  0  0
   12.8464  -17.6021   17.8436 C   0  0  1  0  0  0  0  0  0  0  0  0
   14.0542  -17.1265   17.1195 C   0  0  0  0  0  0  0  0  0  0  0  0
   14.3674  -18.0413   16.0026 C   0  0  0  0  0  0  0  0  0  0  0  0
   15.5188  -18.5585   15.9570 O   0  0  0  0  0  0  0  0  0  0  0  0
   12.4983  -16.8112   19.0572 C   0  0  0  0  0  0  0  0  0  0  0  0
   13.3741  -16.2919   19.8061 O   0  0  0  0  0  0  0  0  0  0  0  0
   13.4749  -18.3679   14.9994 O   0  0  0  0  0  0  0  0  0  0  0  0
   11.1302  -16.5887   19.4595 N   0  0  0  0  0  0  0  0  0  0  0  0
   10.8031  -15.8563   20.6595 C   0  0  1  0  0  0  0  0  0  0  0  0
    9.3751  -15.4818   20.6877 C   0  0  0  0  0  0  0  0  0  0  0  0
    8.8939  -14.4392   19.7532 C   0  0  0  0  0  0  0  0  0  0  0  0
    7.4333  -14.1777   19.7118 C   0  0  0  0  0  0  0  0  0  0  0  0
    7.2279  -12.9601   18.7940 C   0  0  0  0  0  0  0  0  0  0  0  0
    5.8268  -12.6847   18.6158 N   0  0  0  0  0  0  0  0  0  0  0  0
   11.0157  -16.7457   21.8722 C   0  0  0  0  0  0  0  0  0  0  0  0
   10.7439  -17.9531   21.7187 O   0  0  0  0  0  0  0  0  0  0  0  0
   11.4888  -16.2687   23.1066 N   0  0  0  0  0  0  0  0  0  0  0  0
   11.7716  -17.1788   24.1963 C   0  0  1  0  0  0  0  0  0  0  0  0
   13.2102  -17.5443   24.3400 C   0  0  0  0  0  0  0  0  0  0  0  0
   14.1937  -16.4381   24.3192 C   0  0  0  0  0  0  0  0  0  0  0  0
   15.5881  -16.9235   24.3646 C   0  0  0  0  0  0  0  0  0  0  0  0
   16.5100  -16.1130   24.5676 O   0  0  0  0  0  0  0  0  0  0  0  0
   11.1684  -16.6492   25.4207 C   0  0  0  0  0  0  0  0  0  0  0  0
   10.4543  -15.4691   25.3997 O   0  0  0  0  0  0  0  0  0  0  0  0
   15.8196  -18.2775   24.1787 O   0  0  0  0  0  0  0  0  0  0  0  0
   11.2985  -17.2697   26.4994 O   0  0  0  0  0  0  0  0  0  0  0  0
  2  1  1  6
  2  3  1  0
  2  6  1  0
  4  3  1  0
  4  8  1  0
  5  4  2  0
  6  7  2  0
  9  6  1  0
  9 10  1  0
 10 11  1  6
 11 12  1  0
 13 12  1  0
 13 14  1  0
 14 15  1  0
 16 17  2  0
 16 10  1  0
 18 16  1  0
 19 20  1  1
 19 18  1  0
 20 21  1  0
 22 21  1  0
 22 23  2  0
 24 19  1  0
 25 24  1  0
 26 22  1  0
 27 24  2  0
M  END
$$$$
