DKE.pdb
     RDKit          3D

 27 26  0  0  1  0  0  0  0  0999 V2000
   15.3380  -13.6137   17.1316 N   0  0  0  0  0  0  0  0  0  0  0  0
   14.8376  -14.8970   17.5151 C   0  0  1  0  0  0  0  0  0  0  0  0
   15.8554  -15.9625   17.7102 C   0  0  0  0  0  0  0  0  0  0  0  0
   16.5794  -16.2081   16.4462 C   0  0  0  0  0  0  0  0  0  0  0  0
   16.1990  -15.5954   15.4092 O   0  0  0  0  0  0  0  0  0  0  0  0
   13.8934  -14.7239   18.6545 C   0  0  0  0  0  0  0  0  0  0  0  0
   14.2158  -14.1284   19.7217 O   0  0  0  0  0  0  0  0  0  0  0  0
   17.6522  -17.0710   16.3267 O   0  0  0  0  0  0  0  0  0  0  0  0
   12.5428  -15.2309   18.6133 N   0  0  0  0  0  0  0  0  0  0  0  0
   11.6250  -15.0312   19.7092 C   0  0  1  0  0  0  0  0  0  0  0  0
   10.2220  -15.1268   19.2590 C   0  0  0  0  0  0  0  0  0  0  0  0
    9.7360  -14.1732   18.2360 C   0  0  0  0  0  0  0  0  0  0  0  0
    8.3810  -14.4022   17.6749 C   0  0  0  0  0  0  0  0  0  0  0  0
    8.1347  -13.2865   16.6445 C   0  0  0  0  0  0  0  0  0  0  0  0
    6.7931  -13.3539   16.1287 N   0  0  0  0  0  0  0  0  0  0  0  0
   11.8024  -16.1417   20.7301 C   0  0  0  0  0  0  0  0  0  0  0  0
   12.3357  -17.1885   20.3117 O   0  0  0  0  0  0  0  0  0  0  0  0
   11.4012  -16.0284   22.0723 N   0  0  0  0  0  0  0  0  0  0  0  0
   11.5758  -17.1294   22.9958 C   0  0  1  0  0  0  0  0  0  0  0  0
   11.3380  -16.7813   24.4262 C   0  0  0  0  0  0  0  0  0  0  0  0
   11.4728  -17.8716   25.4183 C   0  0  0  0  0  0  0  0  0  0  0  0
   11.1670  -17.4237   26.7923 C   0  0  0  0  0  0  0  0  0  0  0  0
   10.8108  -16.2473   26.9854 O   0  0  0  0  0  0  0  0  0  0  0  0
   10.7883  -18.2696   22.5234 C   0  0  0  0  0  0  0  0  0  0  0  0
   11.2795  -19.5546   22.6258 O   0  0  0  0  0  0  0  0  0  0  0  0
   11.2883  -18.3400   27.8252 O   0  0  0  0  0  0  0  0  0  0  0  0
    9.6576  -18.0822   22.0216 O   0  0  0  0  0  0  0  0  0  0  0  0
  2  1  1  1
  2  3  1  0
  2  6  1  0
  4  3  1  0
  4  8  1  0
  5  4  2  0
  6  7  2  0
  9  6  1  0
  9 10  1  0
 10 11  1  6
 11 12  1  0
 13 12  1  0
 13 14  1  0
 14 15  1  0
 16 17  2  0
 16 10  1  0
 18 16  1  0
 19 20  1  1
 19 18  1  0
 20 21  1  0
 22 21  1  0
 22 23  2  0
 24 19  1  0
 25 24  1  0
 26 22  1  0
 27 24  2  0
M  END
$$$$
