DKE.pdb
     RDKit          3D

 27 26  0  0  1  0  0  0  0  0999 V2000
    9.4237  -17.9840   18.5124 N   0  0  0  0  0  0  0  0  0  0  0  0
   10.7847  -17.7834   18.9022 C   0  0  1  0  0  0  0  0  0  0  0  0
   11.7152  -17.3545   17.8255 C   0  0  0  0  0  0  0  0  0  0  0  0
   11.6763  -18.3207   16.7086 C   0  0  0  0  0  0  0  0  0  0  0  0
   11.4924  -19.5408   16.9783 O   0  0  0  0  0  0  0  0  0  0  0  0
   10.8141  -16.9317   20.1242 C   0  0  0  0  0  0  0  0  0  0  0  0
   11.8903  -16.6050   20.7009 O   0  0  0  0  0  0  0  0  0  0  0  0
   11.8296  -17.9711   15.3805 O   0  0  0  0  0  0  0  0  0  0  0  0
    9.6078  -16.4247   20.7332 N   0  0  0  0  0  0  0  0  0  0  0  0
    9.6481  -15.5607   21.8887 C   0  0  1  0  0  0  0  0  0  0  0  0
    8.3155  -14.9981   22.1854 C   0  0  0  0  0  0  0  0  0  0  0  0
    7.8040  -13.8953   21.3402 C   0  0  0  0  0  0  0  0  0  0  0  0
    7.4143  -14.2247   19.9463 C   0  0  0  0  0  0  0  0  0  0  0  0
    6.8581  -12.9316   19.3254 C   0  0  0  0  0  0  0  0  0  0  0  0
    6.3853  -13.1691   17.9872 N   0  0  0  0  0  0  0  0  0  0  0  0
   10.0318  -16.3696   23.1157 C   0  0  0  0  0  0  0  0  0  0  0  0
    9.6490  -17.5563   23.1294 O   0  0  0  0  0  0  0  0  0  0  0  0
   10.7727  -15.8427   24.1875 N   0  0  0  0  0  0  0  0  0  0  0  0
   11.4474  -16.7155   25.1248 C   0  0  1  0  0  0  0  0  0  0  0  0
   12.9348  -16.6083   25.1101 C   0  0  0  0  0  0  0  0  0  0  0  0
   13.6784  -17.6321   24.3418 C   0  0  0  0  0  0  0  0  0  0  0  0
   15.1363  -17.3948   24.3519 C   0  0  0  0  0  0  0  0  0  0  0  0
   15.5855  -16.3804   24.9151 O   0  0  0  0  0  0  0  0  0  0  0  0
   10.8521  -16.5336   26.4499 C   0  0  0  0  0  0  0  0  0  0  0  0
   11.2281  -17.3370   27.5064 O   0  0  0  0  0  0  0  0  0  0  0  0
   15.9578  -18.3210   23.7284 O   0  0  0  0  0  0  0  0  0  0  0  0
    9.9937  -15.6416   26.6314 O   0  0  0  0  0  0  0  0  0  0  0  0
  2  1  1  6
  2  3  1  0
  2  6  1  0
  4  3  1  0
  4  8  1  0
  5  4  2  0
  6  7  2  0
  9  6  1  0
  9 10  1  0
 10 11  1  1
 11 12  1  0
 13 12  1  0
 13 14  1  0
 14 15  1  0
 16 17  2  0
 16 10  1  0
 18 16  1  0
 19 20  1  1
 19 18  1  0
 20 21  1  0
 22 21  1  0
 22 23  2  0
 24 19  1  0
 25 24  1  0
 26 22  1  0
 27 24  2  0
M  END
$$$$
