DKE.pdb
     RDKit          3D

 27 26  0  0  1  0  0  0  0  0999 V2000
   14.0154  -18.8386   14.6915 N   0  0  0  0  0  0  0  0  0  0  0  0
   13.7411  -19.9761   15.5134 C   0  0  1  0  0  0  0  0  0  0  0  0
   14.6967  -21.1088   15.3998 C   0  0  0  0  0  0  0  0  0  0  0  0
   16.0286  -20.6981   15.8895 C   0  0  0  0  0  0  0  0  0  0  0  0
   16.5366  -19.6385   15.4263 O   0  0  0  0  0  0  0  0  0  0  0  0
   13.4900  -19.5128   16.9069 C   0  0  0  0  0  0  0  0  0  0  0  0
   14.0584  -18.4971   17.3998 O   0  0  0  0  0  0  0  0  0  0  0  0
   16.7573  -21.4047   16.8273 O   0  0  0  0  0  0  0  0  0  0  0  0
   12.5784  -20.2003   17.7897 N   0  0  0  0  0  0  0  0  0  0  0  0
   12.3478  -19.7493   19.1412 C   0  0  1  0  0  0  0  0  0  0  0  0
   11.0481  -20.2281   19.6529 C   0  0  0  0  0  0  0  0  0  0  0  0
   10.6405  -19.8508   21.0252 C   0  0  0  0  0  0  0  0  0  0  0  0
    9.3834  -20.4384   21.5524 C   0  0  0  0  0  0  0  0  0  0  0  0
    9.2171  -19.9114   22.9883 C   0  0  0  0  0  0  0  0  0  0  0  0
    8.0984  -20.5417   23.6379 N   0  0  0  0  0  0  0  0  0  0  0  0
   13.3952  -20.3489   20.0633 C   0  0  0  0  0  0  0  0  0  0  0  0
   14.1357  -21.2159   19.5583 O   0  0  0  0  0  0  0  0  0  0  0  0
   13.5471  -19.9715   21.4086 N   0  0  0  0  0  0  0  0  0  0  0  0
   14.8459  -20.0023   22.0472 C   0  0  1  0  0  0  0  0  0  0  0  0
   15.9055  -19.2339   21.3326 C   0  0  0  0  0  0  0  0  0  0  0  0
   17.2440  -19.1827   21.9627 C   0  0  0  0  0  0  0  0  0  0  0  0
   18.2269  -18.4509   21.1378 C   0  0  0  0  0  0  0  0  0  0  0  0
   18.3747  -18.7646   19.9430 O   0  0  0  0  0  0  0  0  0  0  0  0
   14.6879  -19.6286   23.4539 C   0  0  0  0  0  0  0  0  0  0  0  0
   15.1960  -20.4291   24.4559 O   0  0  0  0  0  0  0  0  0  0  0  0
   18.9543  -17.4312   21.7314 O   0  0  0  0  0  0  0  0  0  0  0  0
   14.0873  -18.5732   23.7557 O   0  0  0  0  0  0  0  0  0  0  0  0
  2  1  1  6
  2  3  1  0
  2  6  1  0
  4  3  1  0
  4  8  1  0
  5  4  2  0
  6  7  2  0
  9  6  1  0
  9 10  1  0
 10 11  1  1
 11 12  1  0
 13 12  1  0
 13 14  1  0
 14 15  1  0
 16 17  2  0
 16 10  1  0
 18 16  1  0
 19 20  1  6
 19 18  1  0
 20 21  1  0
 22 21  1  0
 22 23  2  0
 24 19  1  0
 25 24  1  0
 26 22  1  0
 27 24  2  0
M  END
$$$$
