DKE.pdb
     RDKit          3D

 27 26  0  0  1  0  0  0  0  0999 V2000
    9.7749  -16.1380   18.8735 N   0  0  0  0  0  0  0  0  0  0  0  0
    8.8065  -16.5469   19.8427 C   0  0  1  0  0  0  0  0  0  0  0  0
    8.5316  -18.0057   19.9151 C   0  0  0  0  0  0  0  0  0  0  0  0
    8.2304  -18.5313   18.5676 C   0  0  0  0  0  0  0  0  0  0  0  0
    9.1543  -19.1107   17.9305 O   0  0  0  0  0  0  0  0  0  0  0  0
    9.1362  -15.9115   21.1493 C   0  0  0  0  0  0  0  0  0  0  0  0
   10.2979  -15.9398   21.6465 O   0  0  0  0  0  0  0  0  0  0  0  0
    6.9948  -18.4277   17.9576 O   0  0  0  0  0  0  0  0  0  0  0  0
    8.1432  -15.2213   21.9371 N   0  0  0  0  0  0  0  0  0  0  0  0
    8.4332  -14.7362   23.2652 C   0  0  1  0  0  0  0  0  0  0  0  0
    7.2969  -13.9723   23.8180 C   0  0  0  0  0  0  0  0  0  0  0  0
    7.4367  -13.3575   25.1575 C   0  0  0  0  0  0  0  0  0  0  0  0
    6.2813  -12.5868   25.6815 C   0  0  0  0  0  0  0  0  0  0  0  0
    6.7287  -11.9744   27.0201 C   0  0  0  0  0  0  0  0  0  0  0  0
    5.6365  -11.2900   27.6598 N   0  0  0  0  0  0  0  0  0  0  0  0
    8.6294  -15.9130   24.2051 C   0  0  0  0  0  0  0  0  0  0  0  0
    8.1988  -17.0118   23.8021 O   0  0  0  0  0  0  0  0  0  0  0  0
    9.2544  -15.8041   25.4592 N   0  0  0  0  0  0  0  0  0  0  0  0
   10.0545  -16.8886   25.9876 C   0  0  1  0  0  0  0  0  0  0  0  0
   11.1039  -17.3944   25.0566 C   0  0  0  0  0  0  0  0  0  0  0  0
   11.9895  -18.4700   25.5569 C   0  0  0  0  0  0  0  0  0  0  0  0
   12.9779  -18.9007   24.5472 C   0  0  0  0  0  0  0  0  0  0  0  0
   12.6171  -19.6482   23.6204 O   0  0  0  0  0  0  0  0  0  0  0  0
   10.5657  -16.4991   27.3031 C   0  0  0  0  0  0  0  0  0  0  0  0
   10.8150  -15.1745   27.5970 O   0  0  0  0  0  0  0  0  0  0  0  0
   14.2831  -18.4507   24.6707 O   0  0  0  0  0  0  0  0  0  0  0  0
   10.7797  -17.3724   28.1732 O   0  0  0  0  0  0  0  0  0  0  0  0
  2  1  1  6
  2  3  1  0
  2  6  1  0
  4  3  1  0
  4  8  1  0
  5  4  2  0
  6  7  2  0
  9  6  1  0
  9 10  1  0
 10 11  1  1
 11 12  1  0
 13 12  1  0
 13 14  1  0
 14 15  1  0
 16 17  2  0
 16 10  1  0
 18 16  1  0
 19 20  1  6
 19 18  1  0
 20 21  1  0
 22 21  1  0
 22 23  2  0
 24 19  1  0
 25 24  1  0
 26 22  1  0
 27 24  2  0
M  END
$$$$
