QRW.pdb
     RDKit          3D

 35 36  0  0  1  0  0  0  0  0999 V2000
   20.5127  -16.1298  -15.5276 N   0  0  0  0  0  0  0  0  0  0  0  0
   19.8227  -16.1253  -14.2962 C   0  0  0  0  0  0  0  0  0  0  0  0
   18.8047  -15.3920  -14.1803 O   0  0  0  0  0  0  0  0  0  0  0  0
   20.2421  -16.9417  -13.1303 C   0  0  0  0  0  0  0  0  0  0  0  0
   21.5336  -17.6716  -13.3865 C   0  0  0  0  0  0  0  0  0  0  0  0
   21.2579  -19.0845  -13.7356 C   0  0  2  0  0  0  0  0  0  0  0  0
   19.8716  -19.4154  -13.5299 N   0  0  0  0  0  0  0  0  0  0  0  0
   22.0899  -20.0549  -12.9756 C   0  0  0  0  0  0  0  0  0  0  0  0
   21.7730  -20.4038  -11.7893 O   0  0  0  0  0  0  0  0  0  0  0  0
   24.6672  -26.7635  -15.9535 N   0  0  0  0  0  0  0  0  0  0  0  0
   24.7626  -25.4497  -16.4782 C   0  0  0  0  0  0  0  0  0  0  0  0
   24.2783  -25.1603  -17.6321 N   0  0  0  0  0  0  0  0  0  0  0  0
   25.3875  -24.3754  -15.7564 N   0  0  0  0  0  0  0  0  0  0  0  0
   25.6249  -24.5462  -14.3709 C   0  0  0  0  0  0  0  0  0  0  0  0
   24.8756  -23.6931  -13.4185 C   0  0  0  0  0  0  0  0  0  0  0  0
   25.1259  -22.2177  -13.6228 C   0  0  0  0  0  0  0  0  0  0  0  0
   24.2007  -21.4080  -12.7295 C   0  0  2  0  0  0  0  0  0  0  0  0
   23.2669  -20.6405  -13.5109 N   0  0  0  0  0  0  0  0  0  0  0  0
   25.0730  -20.4900  -11.8748 C   0  0  0  0  0  0  0  0  0  0  0  0
   25.0221  -19.2846  -12.0845 O   0  0  0  0  0  0  0  0  0  0  0  0
   24.3677  -24.1969  -18.0276 N   0  0  0  0  0  0  0  0  0  0  0  0
   25.8822  -21.0776  -10.8854 C   0  0  2  0  0  0  0  0  0  0  0  0
   26.8679  -20.4849  -10.0305 C   0  0  0  0  0  0  0  0  0  0  0  0
   26.2784  -20.3944   -8.6158 C   0  0  0  0  0  0  0  0  0  0  0  0
   27.1727  -19.6722   -7.7273 C   0  0  0  0  0  0  0  0  0  0  0  0
   27.7057  -18.4428   -7.7595 N   0  0  0  0  0  0  0  0  0  0  0  0
   28.5329  -18.1917   -6.7459 C   0  0  0  0  0  0  0  0  0  0  0  0
   28.5508  -19.3092   -6.0040 C   0  0  0  0  0  0  0  0  0  0  0  0
   29.2115  -19.6218   -4.8357 C   0  0  0  0  0  0  0  0  0  0  0  0
   29.0706  -20.8384   -4.2211 C   0  0  0  0  0  0  0  0  0  0  0  0
   28.2418  -21.7713   -4.7939 C   0  0  0  0  0  0  0  0  0  0  0  0
   27.5762  -21.4799   -5.9583 C   0  0  0  0  0  0  0  0  0  0  0  0
   27.7210  -20.2699   -6.5650 C   0  0  0  0  0  0  0  0  0  0  0  0
   28.1581  -21.1128  -10.0055 O   0  0  0  0  0  0  0  0  0  0  0  0
   28.3341  -22.5173   -9.8503 O   0  0  0  0  0  0  0  0  0  0  0  0
  2  3  2  0
  2  1  1  0
  4  2  1  0
  5  6  1  0
  5  4  1  0
  6  8  1  0
  6  7  1  1
  8  9  2  0
 10 11  1  0
 11 13  1  0
 11 12  2  0
 13 14  1  0
 14 15  1  0
 16 15  1  0
 17 16  1  6
 17 19  1  0
 18 17  1  0
 18  8  1  0
 19 20  2  0
 19 21  1  0
 21 22  1  0
 22 33  1  0
 22 23  1  1
 24 23  1  0
 24 25  2  0
 26 25  1  0
 27 26  1  0
 28 27  2  0
 29 28  1  0
 30 29  2  0
 30 31  1  0
 31 32  2  0
 32 27  1  0
 32 24  1  0
 33 35  2  0
 33 34  1  0
M  END
$$$$
