QRW.pdb
     RDKit          3D

 35 36  0  0  1  0  0  0  0  0999 V2000
   18.5728  -29.5474  -11.0357 N   0  0  0  0  0  0  0  0  0  0  0  0
   17.9681  -29.7225  -12.2990 C   0  0  0  0  0  0  0  0  0  0  0  0
   17.2353  -30.7313  -12.4800 O   0  0  0  0  0  0  0  0  0  0  0  0
   18.1576  -28.7753  -13.4255 C   0  0  0  0  0  0  0  0  0  0  0  0
   19.0649  -27.6322  -13.0563 C   0  0  0  0  0  0  0  0  0  0  0  0
   20.2065  -27.5654  -13.9978 C   0  0  2  0  0  0  0  0  0  0  0  0
   21.0266  -28.7460  -13.9135 N   0  0  0  0  0  0  0  0  0  0  0  0
   21.0741  -26.3753  -13.7922 C   0  0  0  0  0  0  0  0  0  0  0  0
   21.7027  -26.2028  -12.6945 O   0  0  0  0  0  0  0  0  0  0  0  0
   27.8147  -26.7178  -16.3437 N   0  0  0  0  0  0  0  0  0  0  0  0
   26.6172  -26.8067  -17.0978 C   0  0  0  0  0  0  0  0  0  0  0  0
   26.3665  -27.8358  -17.8242 N   0  0  0  0  0  0  0  0  0  0  0  0
   25.6209  -25.7709  -17.0861 N   0  0  0  0  0  0  0  0  0  0  0  0
   25.6015  -24.8701  -15.9937 C   0  0  0  0  0  0  0  0  0  0  0  0
   24.4394  -24.9039  -15.0747 C   0  0  0  0  0  0  0  0  0  0  0  0
   23.2204  -24.2117  -15.6369 C   0  0  0  0  0  0  0  0  0  0  0  0
   22.0995  -24.2246  -14.6108 C   0  0  2  0  0  0  0  0  0  0  0  0
   21.2522  -25.3751  -14.7836 N   0  0  0  0  0  0  0  0  0  0  0  0
   21.3006  -22.9340  -14.7853 C   0  0  0  0  0  0  0  0  0  0  0  0
   20.5841  -22.8268  -15.7726 O   0  0  0  0  0  0  0  0  0  0  0  0
   25.4894  -27.8953  -18.3896 N   0  0  0  0  0  0  0  0  0  0  0  0
   21.4235  -21.9401  -13.7973 C   0  0  2  0  0  0  0  0  0  0  0  0
   21.3474  -20.5137  -13.9119 C   0  0  0  0  0  0  0  0  0  0  0  0
   22.7368  -19.9368  -13.6051 C   0  0  0  0  0  0  0  0  0  0  0  0
   23.1144  -20.2010  -12.2273 C   0  0  0  0  0  0  0  0  0  0  0  0
   22.4569  -20.1209  -11.0620 N   0  0  0  0  0  0  0  0  0  0  0  0
   23.2090  -20.4138  -10.0022 C   0  0  0  0  0  0  0  0  0  0  0  0
   24.4261  -20.7022  -10.4868 C   0  0  0  0  0  0  0  0  0  0  0  0
   25.5925  -21.0872   -9.8620 C   0  0  0  0  0  0  0  0  0  0  0  0
   26.7395  -21.3580  -10.5612 C   0  0  0  0  0  0  0  0  0  0  0  0
   26.7180  -21.2402  -11.9290 C   0  0  0  0  0  0  0  0  0  0  0  0
   25.5665  -20.8564  -12.5700 C   0  0  0  0  0  0  0  0  0  0  0  0
   24.4305  -20.5875  -11.8700 C   0  0  0  0  0  0  0  0  0  0  0  0
   20.8426  -19.9945  -15.1510 O   0  0  0  0  0  0  0  0  0  0  0  0
   21.3921  -20.3411  -16.4181 O   0  0  0  0  0  0  0  0  0  0  0  0
  2  3  2  0
  2  1  1  0
  4  2  1  0
  5  6  1  0
  5  4  1  0
  6  8  1  0
  6  7  1  1
  8  9  2  0
 10 11  1  0
 11 13  1  0
 11 12  2  0
 13 14  1  0
 14 15  1  0
 16 15  1  0
 17 16  1  6
 17 19  1  0
 18 17  1  0
 18  8  1  0
 19 20  2  0
 19 21  1  0
 21 22  1  0
 22 33  1  0
 22 23  1  1
 24 23  1  0
 24 25  2  0
 26 25  1  0
 27 26  1  0
 28 27  2  0
 29 28  1  0
 30 29  2  0
 30 31  1  0
 31 32  2  0
 32 27  1  0
 32 24  1  0
 33 35  2  0
 33 34  1  0
M  END
$$$$
