QRW.pdb
     RDKit          3D

 35 36  0  0  1  0  0  0  0  0999 V2000
   25.0554  -24.0817  -16.3900 N   0  0  0  0  0  0  0  0  0  0  0  0
   26.2511  -24.8116  -16.2173 C   0  0  0  0  0  0  0  0  0  0  0  0
   26.1993  -25.9158  -15.6127 O   0  0  0  0  0  0  0  0  0  0  0  0
   27.5675  -24.3378  -16.7120 C   0  0  0  0  0  0  0  0  0  0  0  0
   27.4642  -23.0065  -17.4070 C   0  0  0  0  0  0  0  0  0  0  0  0
   28.5156  -22.0901  -16.9080 C   0  0  2  0  0  0  0  0  0  0  0  0
   29.7696  -22.7757  -16.7324 N   0  0  0  0  0  0  0  0  0  0  0  0
   28.1608  -21.4246  -15.6263 C   0  0  0  0  0  0  0  0  0  0  0  0
   28.8213  -21.6599  -14.5595 O   0  0  0  0  0  0  0  0  0  0  0  0
   23.0370  -18.6498  -18.0278 N   0  0  0  0  0  0  0  0  0  0  0  0
   22.5158  -17.7369  -17.0762 C   0  0  0  0  0  0  0  0  0  0  0  0
   21.2507  -17.5437  -16.9672 N   0  0  0  0  0  0  0  0  0  0  0  0
   23.3584  -16.9921  -16.1814 N   0  0  0  0  0  0  0  0  0  0  0  0
   24.7542  -17.2275  -16.2213 C   0  0  0  0  0  0  0  0  0  0  0  0
   25.2556  -18.5567  -15.7994 C   0  0  0  0  0  0  0  0  0  0  0  0
   26.0857  -18.5029  -14.5388 C   0  0  0  0  0  0  0  0  0  0  0  0
   26.7181  -19.8600  -14.2782 C   0  0  2  0  0  0  0  0  0  0  0  0
   27.0850  -20.5058  -15.5110 N   0  0  0  0  0  0  0  0  0  0  0  0
   25.7014  -20.7017  -13.5088 C   0  0  0  0  0  0  0  0  0  0  0  0
   24.9334  -21.4085  -14.1494 O   0  0  0  0  0  0  0  0  0  0  0  0
   20.8677  -16.8609  -16.2746 N   0  0  0  0  0  0  0  0  0  0  0  0
   25.7070  -20.6271  -12.1040 C   0  0  2  0  0  0  0  0  0  0  0  0
   24.9295  -21.3487  -11.1406 C   0  0  0  0  0  0  0  0  0  0  0  0
   25.2220  -20.7578   -9.7541 C   0  0  0  0  0  0  0  0  0  0  0  0
   26.6527  -20.6276   -9.5379 C   0  0  0  0  0  0  0  0  0  0  0  0
   27.7275  -21.0085  -10.2424 N   0  0  0  0  0  0  0  0  0  0  0  0
   28.8851  -20.7285   -9.6454 C   0  0  0  0  0  0  0  0  0  0  0  0
   28.5637  -20.1329   -8.4872 C   0  0  0  0  0  0  0  0  0  0  0  0
   29.3446  -19.6166   -7.4758 C   0  0  0  0  0  0  0  0  0  0  0  0
   28.8024  -19.0208   -6.3673 C   0  0  0  0  0  0  0  0  0  0  0  0
   27.4354  -18.9388   -6.2684 C   0  0  0  0  0  0  0  0  0  0  0  0
   26.6402  -19.4487   -7.2642 C   0  0  0  0  0  0  0  0  0  0  0  0
   27.1845  -20.0405   -8.3626 C   0  0  0  0  0  0  0  0  0  0  0  0
   23.5157  -21.4174  -11.3772 O   0  0  0  0  0  0  0  0  0  0  0  0
   22.6478  -22.2765  -10.6448 O   0  0  0  0  0  0  0  0  0  0  0  0
  2  3  2  0
  2  1  1  0
  4  2  1  0
  5  6  1  0
  5  4  1  0
  6  8  1  0
  6  7  1  1
  8  9  2  0
 10 11  1  0
 11 13  1  0
 11 12  2  0
 13 14  1  0
 14 15  1  0
 16 15  1  0
 17 16  1  6
 17 19  1  0
 18 17  1  0
 18  8  1  0
 19 20  2  0
 19 21  1  0
 21 22  1  0
 22 33  1  0
 22 23  1  6
 24 23  1  0
 24 25  2  0
 26 25  1  0
 27 26  1  0
 28 27  2  0
 29 28  1  0
 30 29  2  0
 30 31  1  0
 31 32  2  0
 32 27  1  0
 32 24  1  0
 33 35  2  0
 33 34  1  0
M  END
$$$$
