QRW.pdb
     RDKit          3D

 35 36  0  0  1  0  0  0  0  0999 V2000
   28.3988  -14.6596  -16.8131 N   0  0  0  0  0  0  0  0  0  0  0  0
   27.0985  -14.8306  -16.2912 C   0  0  0  0  0  0  0  0  0  0  0  0
   26.6266  -13.9303  -15.5466 O   0  0  0  0  0  0  0  0  0  0  0  0
   26.2621  -16.0227  -16.5759 C   0  0  0  0  0  0  0  0  0  0  0  0
   25.6940  -16.6277  -15.3200 C   0  0  0  0  0  0  0  0  0  0  0  0
   26.7628  -17.3149  -14.5588 C   0  0  2  0  0  0  0  0  0  0  0  0
   27.8280  -17.7494  -15.4249 N   0  0  0  0  0  0  0  0  0  0  0  0
   26.2775  -18.4892  -13.7861 C   0  0  0  0  0  0  0  0  0  0  0  0
   25.2311  -18.4098  -13.0590 O   0  0  0  0  0  0  0  0  0  0  0  0
   26.2867  -24.3439  -17.2642 N   0  0  0  0  0  0  0  0  0  0  0  0
   25.7018  -25.0911  -16.2106 C   0  0  0  0  0  0  0  0  0  0  0  0
   25.7452  -26.3747  -16.2051 N   0  0  0  0  0  0  0  0  0  0  0  0
   25.0447  -24.4661  -15.0956 N   0  0  0  0  0  0  0  0  0  0  0  0
   25.1142  -23.0566  -14.9791 C   0  0  0  0  0  0  0  0  0  0  0  0
   26.4479  -22.4120  -15.0239 C   0  0  0  0  0  0  0  0  0  0  0  0
   27.0389  -22.1799  -13.6535 C   0  0  0  0  0  0  0  0  0  0  0  0
   26.4854  -20.8935  -13.0631 C   0  0  2  0  0  0  0  0  0  0  0  0
   26.9360  -19.7465  -13.8066 N   0  0  0  0  0  0  0  0  0  0  0  0
   26.9538  -20.8145  -11.6110 C   0  0  0  0  0  0  0  0  0  0  0  0
   28.1396  -20.5960  -11.3973 O   0  0  0  0  0  0  0  0  0  0  0  0
   25.3699  -26.9230  -15.3982 N   0  0  0  0  0  0  0  0  0  0  0  0
   25.9958  -20.9879  -10.5956 C   0  0  1  0  0  0  0  0  0  0  0  0
   26.1566  -21.0075   -9.1717 C   0  0  0  0  0  0  0  0  0  0  0  0
   26.8790  -19.7179   -8.7567 C   0  0  0  0  0  0  0  0  0  0  0  0
   27.0080  -19.6387   -7.3117 C   0  0  0  0  0  0  0  0  0  0  0  0
   26.1431  -19.3651   -6.3250 N   0  0  0  0  0  0  0  0  0  0  0  0
   26.6997  -19.3495   -5.1148 C   0  0  0  0  0  0  0  0  0  0  0  0
   27.9983  -19.6257   -5.3068 C   0  0  0  0  0  0  0  0  0  0  0  0
   29.0466  -19.7574   -4.4220 C   0  0  0  0  0  0  0  0  0  0  0  0
   30.3152  -20.0698   -4.8355 C   0  0  0  0  0  0  0  0  0  0  0  0
   30.5412  -20.2569   -6.1768 C   0  0  0  0  0  0  0  0  0  0  0  0
   29.5106  -20.1286   -7.0742 C   0  0  0  0  0  0  0  0  0  0  0  0
   28.2527  -19.8168   -6.6577 C   0  0  0  0  0  0  0  0  0  0  0  0
   24.9662  -21.1977   -8.3931 O   0  0  0  0  0  0  0  0  0  0  0  0
   23.6807  -20.7608   -8.8225 O   0  0  0  0  0  0  0  0  0  0  0  0
  2  3  2  0
  2  1  1  0
  4  2  1  0
  5  6  1  0
  5  4  1  0
  6  8  1  0
  6  7  1  6
  8  9  2  0
 10 11  1  0
 11 13  1  0
 11 12  2  0
 13 14  1  0
 14 15  1  0
 16 15  1  0
 17 16  1  6
 17 19  1  0
 18 17  1  0
 18  8  1  0
 19 20  2  0
 19 21  1  0
 21 22  1  0
 22 33  1  0
 22 23  1  1
 24 23  1  0
 24 25  2  0
 26 25  1  0
 27 26  1  0
 28 27  2  0
 29 28  1  0
 30 29  2  0
 30 31  1  0
 31 32  2  0
 32 27  1  0
 32 24  1  0
 33 35  2  0
 33 34  1  0
M  END
$$$$
