QRW.pdb
     RDKit          3D

 35 36  0  0  1  0  0  0  0  0999 V2000
   23.0746  -16.3974  -17.5096 N   0  0  0  0  0  0  0  0  0  0  0  0
   22.3587  -16.8069  -16.3641 C   0  0  0  0  0  0  0  0  0  0  0  0
   22.0544  -15.9385  -15.5033 O   0  0  0  0  0  0  0  0  0  0  0  0
   21.9500  -18.2131  -16.1245 C   0  0  0  0  0  0  0  0  0  0  0  0
   22.8704  -18.9127  -15.1603 C   0  0  0  0  0  0  0  0  0  0  0  0
   24.0822  -19.3867  -15.8680 C   0  0  2  0  0  0  0  0  0  0  0  0
   23.7412  -20.1302  -17.0531 N   0  0  0  0  0  0  0  0  0  0  0  0
   24.9687  -20.2305  -15.0233 C   0  0  0  0  0  0  0  0  0  0  0  0
   24.7396  -21.4773  -14.8724 O   0  0  0  0  0  0  0  0  0  0  0  0
   32.2128  -22.3694  -10.9275 N   0  0  0  0  0  0  0  0  0  0  0  0
   32.1398  -22.5266  -12.3348 C   0  0  0  0  0  0  0  0  0  0  0  0
   32.7088  -23.5176  -12.9211 N   0  0  0  0  0  0  0  0  0  0  0  0
   31.4255  -21.6066  -13.1767 N   0  0  0  0  0  0  0  0  0  0  0  0
   30.6066  -20.6295  -12.5604 C   0  0  0  0  0  0  0  0  0  0  0  0
   29.1486  -20.8824  -12.4805 C   0  0  0  0  0  0  0  0  0  0  0  0
   28.3668  -20.1849  -13.5685 C   0  0  0  0  0  0  0  0  0  0  0  0
   26.8835  -20.4718  -13.4040 C   0  0  2  0  0  0  0  0  0  0  0  0
   26.1016  -19.7117  -14.3434 N   0  0  0  0  0  0  0  0  0  0  0  0
   26.5018  -20.1139  -11.9686 C   0  0  0  0  0  0  0  0  0  0  0  0
   26.5241  -18.9339  -11.6418 O   0  0  0  0  0  0  0  0  0  0  0  0
   32.6332  -23.6472  -13.9556 N   0  0  0  0  0  0  0  0  0  0  0  0
   26.1358  -21.1584  -11.1003 C   0  0  1  0  0  0  0  0  0  0  0  0
   25.3852  -21.1211   -9.8802 C   0  0  0  0  0  0  0  0  0  0  0  0
   26.0296  -20.0775   -8.9567 C   0  0  0  0  0  0  0  0  0  0  0  0
   27.3817  -20.4689   -8.5970 C   0  0  0  0  0  0  0  0  0  0  0  0
   28.2847  -21.2823   -9.1623 N   0  0  0  0  0  0  0  0  0  0  0  0
   29.4115  -21.4001   -8.4614 C   0  0  0  0  0  0  0  0  0  0  0  0
   29.2491  -20.6274   -7.3769 C   0  0  0  0  0  0  0  0  0  0  0  0
   30.0852  -20.3500   -6.3171 C   0  0  0  0  0  0  0  0  0  0  0  0
   29.7231  -19.4995   -5.3055 C   0  0  0  0  0  0  0  0  0  0  0  0
   28.4852  -18.9078   -5.3567 C   0  0  0  0  0  0  0  0  0  0  0  0
   27.6371  -19.1725   -6.4030 C   0  0  0  0  0  0  0  0  0  0  0  0
   28.0019  -20.0191   -7.4045 C   0  0  0  0  0  0  0  0  0  0  0  0
   23.9736  -20.8921  -10.0008 O   0  0  0  0  0  0  0  0  0  0  0  0
   23.1095  -20.7662   -8.8760 O   0  0  0  0  0  0  0  0  0  0  0  0
  2  3  2  0
  2  1  1  0
  4  2  1  0
  5  6  1  0
  5  4  1  0
  6  8  1  0
  6  7  1  6
  8  9  2  0
 10 11  1  0
 11 13  1  0
 11 12  2  0
 13 14  1  0
 14 15  1  0
 16 15  1  0
 17 16  1  1
 17 19  1  0
 18 17  1  0
 18  8  1  0
 19 20  2  0
 19 21  1  0
 21 22  1  0
 22 33  1  0
 22 23  1  1
 24 23  1  0
 24 25  2  0
 26 25  1  0
 27 26  1  0
 28 27  2  0
 29 28  1  0
 30 29  2  0
 30 31  1  0
 31 32  2  0
 32 27  1  0
 32 24  1  0
 33 35  2  0
 33 34  1  0
M  END
$$$$
