QRW.pdb
     RDKit          3D

 35 36  0  0  1  0  0  0  0  0999 V2000
   21.5236  -17.8925  -13.5115 N   0  0  0  0  0  0  0  0  0  0  0  0
   21.0243  -18.8451  -14.4256 C   0  0  0  0  0  0  0  0  0  0  0  0
   20.0308  -19.5413  -14.0856 O   0  0  0  0  0  0  0  0  0  0  0  0
   21.6167  -19.0671  -15.7679 C   0  0  0  0  0  0  0  0  0  0  0  0
   22.7579  -18.1252  -16.0448 C   0  0  0  0  0  0  0  0  0  0  0  0
   23.8489  -18.8413  -16.7457 C   0  0  2  0  0  0  0  0  0  0  0  0
   23.3479  -19.5937  -17.8666 N   0  0  0  0  0  0  0  0  0  0  0  0
   24.6126  -19.7641  -15.8645 C   0  0  0  0  0  0  0  0  0  0  0  0
   24.1099  -20.8737  -15.4827 O   0  0  0  0  0  0  0  0  0  0  0  0
   31.9497  -22.8785  -12.5274 N   0  0  0  0  0  0  0  0  0  0  0  0
   31.7901  -22.6729  -13.9212 C   0  0  0  0  0  0  0  0  0  0  0  0
   32.1445  -23.5710  -14.7682 N   0  0  0  0  0  0  0  0  0  0  0  0
   31.2199  -21.4696  -14.4621 N   0  0  0  0  0  0  0  0  0  0  0  0
   30.3620  -20.7031  -13.6366 C   0  0  0  0  0  0  0  0  0  0  0  0
   28.9072  -20.9815  -13.6836 C   0  0  0  0  0  0  0  0  0  0  0  0
   28.1429  -19.9933  -14.5325 C   0  0  0  0  0  0  0  0  0  0  0  0
   26.6618  -20.3328  -14.5137 C   0  0  2  0  0  0  0  0  0  0  0  0
   25.9220  -19.4732  -15.4000 N   0  0  0  0  0  0  0  0  0  0  0  0
   26.1717  -20.1760  -13.0751 C   0  0  0  0  0  0  0  0  0  0  0  0
   25.9832  -19.0436  -12.6489 O   0  0  0  0  0  0  0  0  0  0  0  0
   32.0492  -23.4093  -15.7965 N   0  0  0  0  0  0  0  0  0  0  0  0
   25.9541  -21.3419  -12.3186 C   0  0  1  0  0  0  0  0  0  0  0  0
   25.3712  -21.5009  -11.0192 C   0  0  0  0  0  0  0  0  0  0  0  0
   26.4857  -21.9053  -10.0439 C   0  0  0  0  0  0  0  0  0  0  0  0
   26.6353  -20.9168   -8.9897 C   0  0  0  0  0  0  0  0  0  0  0  0
   25.8525  -19.9259   -8.5406 N   0  0  0  0  0  0  0  0  0  0  0  0
   26.4055  -19.2080   -7.5641 C   0  0  0  0  0  0  0  0  0  0  0  0
   27.6154  -19.7481   -7.3544 C   0  0  0  0  0  0  0  0  0  0  0  0
   28.6164  -19.4325   -6.4613 C   0  0  0  0  0  0  0  0  0  0  0  0
   29.7882  -20.1402   -6.3990 C   0  0  0  0  0  0  0  0  0  0  0  0
   29.9632  -21.1973   -7.2575 C   0  0  0  0  0  0  0  0  0  0  0  0
   28.9789  -21.5265   -8.1556 C   0  0  0  0  0  0  0  0  0  0  0  0
   27.8173  -20.8191   -8.2137 C   0  0  0  0  0  0  0  0  0  0  0  0
   24.6269  -20.3854  -10.5080 O   0  0  0  0  0  0  0  0  0  0  0  0
   23.7736  -20.4779   -9.3718 O   0  0  0  0  0  0  0  0  0  0  0  0
  2  3  2  0
  2  1  1  0
  4  2  1  0
  5  6  1  0
  5  4  1  0
  6  8  1  0
  6  7  1  6
  8  9  2  0
 10 11  1  0
 11 13  1  0
 11 12  2  0
 13 14  1  0
 14 15  1  0
 16 15  1  0
 17 16  1  1
 17 19  1  0
 18 17  1  0
 18  8  1  0
 19 20  2  0
 19 21  1  0
 21 22  1  0
 22 33  1  0
 22 23  1  1
 24 23  1  0
 24 25  2  0
 26 25  1  0
 27 26  1  0
 28 27  2  0
 29 28  1  0
 30 29  2  0
 30 31  1  0
 31 32  2  0
 32 27  1  0
 32 24  1  0
 33 35  2  0
 33 34  1  0
M  END
$$$$
