QRW.pdb
     RDKit          3D

 35 36  0  0  1  0  0  0  0  0999 V2000
   20.5176  -24.9317  -15.7192 N   0  0  0  0  0  0  0  0  0  0  0  0
   21.5625  -25.0486  -14.7776 C   0  0  0  0  0  0  0  0  0  0  0  0
   21.4181  -24.5071  -13.6491 O   0  0  0  0  0  0  0  0  0  0  0  0
   22.8249  -25.7773  -15.0555 C   0  0  0  0  0  0  0  0  0  0  0  0
   22.8835  -26.2869  -16.4708 C   0  0  0  0  0  0  0  0  0  0  0  0
   24.2425  -26.7934  -16.7724 C   0  0  2  0  0  0  0  0  0  0  0  0
   24.5267  -28.0014  -16.0421 N   0  0  0  0  0  0  0  0  0  0  0  0
   25.3184  -25.8075  -16.4861 C   0  0  0  0  0  0  0  0  0  0  0  0
   25.3094  -25.1195  -15.4108 O   0  0  0  0  0  0  0  0  0  0  0  0
   33.3382  -26.0640  -16.9565 N   0  0  0  0  0  0  0  0  0  0  0  0
   32.7873  -25.1270  -16.0460 C   0  0  0  0  0  0  0  0  0  0  0  0
   33.2910  -24.9656  -14.8756 N   0  0  0  0  0  0  0  0  0  0  0  0
   31.6558  -24.3050  -16.3769 N   0  0  0  0  0  0  0  0  0  0  0  0
   30.8203  -24.7113  -17.4456 C   0  0  0  0  0  0  0  0  0  0  0  0
   29.6886  -23.8337  -17.8265 C   0  0  0  0  0  0  0  0  0  0  0  0
   28.4605  -24.6031  -18.2521 C   0  0  0  0  0  0  0  0  0  0  0  0
   27.4370  -24.6054  -17.1288 C   0  0  2  0  0  0  0  0  0  0  0  0
   26.4002  -25.5728  -17.3747 N   0  0  0  0  0  0  0  0  0  0  0  0
   26.8515  -23.1972  -17.0366 C   0  0  0  0  0  0  0  0  0  0  0  0
   25.6366  -23.0697  -17.1237 O   0  0  0  0  0  0  0  0  0  0  0  0
   32.8300  -24.3456  -14.1715 N   0  0  0  0  0  0  0  0  0  0  0  0
   27.7385  -22.1219  -16.8474 C   0  0  2  0  0  0  0  0  0  0  0  0
   27.4673  -20.7300  -16.6411 C   0  0  0  0  0  0  0  0  0  0  0  0
   26.7537  -20.5794  -15.2901 C   0  0  0  0  0  0  0  0  0  0  0  0
   26.3844  -19.1948  -15.0510 C   0  0  0  0  0  0  0  0  0  0  0  0
   27.0889  -18.0925  -14.7591 N   0  0  0  0  0  0  0  0  0  0  0  0
   26.3350  -17.0110  -14.5673 C   0  0  0  0  0  0  0  0  0  0  0  0
   25.0674  -17.4145  -14.7398 C   0  0  0  0  0  0  0  0  0  0  0  0
   23.8728  -16.7298  -14.6815 C   0  0  0  0  0  0  0  0  0  0  0  0
   22.6691  -17.3416  -14.9154 C   0  0  0  0  0  0  0  0  0  0  0  0
   22.6612  -18.6810  -15.2175 C   0  0  0  0  0  0  0  0  0  0  0  0
   23.8402  -19.3811  -15.2787 C   0  0  0  0  0  0  0  0  0  0  0  0
   25.0328  -18.7681  -15.0442 C   0  0  0  0  0  0  0  0  0  0  0  0
   28.5876  -19.8372  -16.7278 O   0  0  0  0  0  0  0  0  0  0  0  0
   28.4526  -18.4495  -17.0172 O   0  0  0  0  0  0  0  0  0  0  0  0
  2  3  2  0
  2  1  1  0
  4  2  1  0
  5  6  1  0
  5  4  1  0
  6  8  1  0
  6  7  1  1
  8  9  2  0
 10 11  1  0
 11 13  1  0
 11 12  2  0
 13 14  1  0
 14 15  1  0
 16 15  1  0
 17 16  1  6
 17 19  1  0
 18 17  1  0
 18  8  1  0
 19 20  2  0
 19 21  1  0
 21 22  1  0
 22 33  1  0
 22 23  1  1
 24 23  1  0
 24 25  2  0
 26 25  1  0
 27 26  1  0
 28 27  2  0
 29 28  1  0
 30 29  2  0
 30 31  1  0
 31 32  2  0
 32 27  1  0
 32 24  1  0
 33 35  2  0
 33 34  1  0
M  END
$$$$
