QRW.pdb
     RDKit          3D

 35 36  0  0  1  0  0  0  0  0999 V2000
   24.7983  -14.9041  -17.1341 N   0  0  0  0  0  0  0  0  0  0  0  0
   26.2092  -14.9401  -17.1106 C   0  0  0  0  0  0  0  0  0  0  0  0
   26.8423  -14.2368  -17.9424 O   0  0  0  0  0  0  0  0  0  0  0  0
   26.9820  -15.7701  -16.1537 C   0  0  0  0  0  0  0  0  0  0  0  0
   26.0853  -16.5613  -15.2392 C   0  0  0  0  0  0  0  0  0  0  0  0
   26.8918  -17.2362  -14.1961 C   0  0  2  0  0  0  0  0  0  0  0  0
   28.2591  -17.4036  -14.6158 N   0  0  0  0  0  0  0  0  0  0  0  0
   26.3557  -18.5660  -13.8017 C   0  0  0  0  0  0  0  0  0  0  0  0
   25.1163  -18.7225  -13.5385 O   0  0  0  0  0  0  0  0  0  0  0  0
   22.7088  -24.1621  -15.6236 N   0  0  0  0  0  0  0  0  0  0  0  0
   23.7958  -24.9821  -15.2279 C   0  0  0  0  0  0  0  0  0  0  0  0
   23.9396  -26.1666  -15.7033 N   0  0  0  0  0  0  0  0  0  0  0  0
   24.7942  -24.5398  -14.2935 N   0  0  0  0  0  0  0  0  0  0  0  0
   25.1745  -23.1759  -14.3127 C   0  0  0  0  0  0  0  0  0  0  0  0
   26.4806  -22.8184  -14.9150 C   0  0  0  0  0  0  0  0  0  0  0  0
   27.4138  -22.1371  -13.9423 C   0  0  0  0  0  0  0  0  0  0  0  0
   26.6894  -20.9995  -13.2417 C   0  0  2  0  0  0  0  0  0  0  0  0
   27.1732  -19.7214  -13.6933 N   0  0  0  0  0  0  0  0  0  0  0  0
   26.9177  -21.1639  -11.7400 C   0  0  0  0  0  0  0  0  0  0  0  0
   28.0623  -21.3496  -11.3463 O   0  0  0  0  0  0  0  0  0  0  0  0
   24.7115  -26.7895  -15.3734 N   0  0  0  0  0  0  0  0  0  0  0  0
   25.8014  -21.0842  -10.8876 C   0  0  1  0  0  0  0  0  0  0  0  0
   25.7155  -21.2424   -9.4659 C   0  0  0  0  0  0  0  0  0  0  0  0
   26.7575  -20.3179   -8.8204 C   0  0  0  0  0  0  0  0  0  0  0  0
   26.8495  -20.5597   -7.3908 C   0  0  0  0  0  0  0  0  0  0  0  0
   26.1974  -21.3776   -6.5527 N   0  0  0  0  0  0  0  0  0  0  0  0
   26.5676  -21.2451   -5.2799 C   0  0  0  0  0  0  0  0  0  0  0  0
   27.5116  -20.2921   -5.2717 C   0  0  0  0  0  0  0  0  0  0  0  0
   28.2595  -19.7534   -4.2472 C   0  0  0  0  0  0  0  0  0  0  0  0
   29.2036  -18.7843   -4.4648 C   0  0  0  0  0  0  0  0  0  0  0  0
   29.4056  -18.3409   -5.7484 C   0  0  0  0  0  0  0  0  0  0  0  0
   28.6696  -18.8635   -6.7824 C   0  0  0  0  0  0  0  0  0  0  0  0
   27.7322  -19.8253   -6.5599 C   0  0  0  0  0  0  0  0  0  0  0  0
   24.4230  -21.0446   -8.8743 O   0  0  0  0  0  0  0  0  0  0  0  0
   24.0019  -21.7135   -7.6898 O   0  0  0  0  0  0  0  0  0  0  0  0
  2  3  2  0
  2  1  1  0
  4  2  1  0
  5  6  1  0
  5  4  1  0
  6  8  1  0
  6  7  1  6
  8  9  2  0
 10 11  1  0
 11 13  1  0
 11 12  2  0
 13 14  1  0
 14 15  1  0
 16 15  1  0
 17 16  1  6
 17 19  1  0
 18 17  1  0
 18  8  1  0
 19 20  2  0
 19 21  1  0
 21 22  1  0
 22 33  1  0
 22 23  1  1
 24 23  1  0
 24 25  2  0
 26 25  1  0
 27 26  1  0
 28 27  2  0
 29 28  1  0
 30 29  2  0
 30 31  1  0
 31 32  2  0
 32 27  1  0
 32 24  1  0
 33 35  2  0
 33 34  1  0
M  END
$$$$
