QRW.pdb
     RDKit          3D

 35 36  0  0  1  0  0  0  0  0999 V2000
   26.2047  -24.8097  -16.4100 N   0  0  0  0  0  0  0  0  0  0  0  0
   26.8380  -25.1086  -17.6355 C   0  0  0  0  0  0  0  0  0  0  0  0
   26.2489  -25.8726  -18.4459 O   0  0  0  0  0  0  0  0  0  0  0  0
   28.1670  -24.5673  -18.0131 C   0  0  0  0  0  0  0  0  0  0  0  0
   28.7159  -23.6351  -16.9663 C   0  0  0  0  0  0  0  0  0  0  0  0
   28.3049  -22.2427  -17.2603 C   0  0  2  0  0  0  0  0  0  0  0  0
   29.2328  -21.5987  -18.1534 N   0  0  0  0  0  0  0  0  0  0  0  0
   28.1610  -21.3989  -16.0443 C   0  0  0  0  0  0  0  0  0  0  0  0
   29.0368  -21.4302  -15.1160 O   0  0  0  0  0  0  0  0  0  0  0  0
   29.3567  -16.2966  -18.0232 N   0  0  0  0  0  0  0  0  0  0  0  0
   28.0355  -16.5802  -18.4528 C   0  0  0  0  0  0  0  0  0  0  0  0
   27.7857  -16.8721  -19.6783 N   0  0  0  0  0  0  0  0  0  0  0  0
   26.9142  -16.5696  -17.5539 N   0  0  0  0  0  0  0  0  0  0  0  0
   27.1693  -16.4974  -16.1629 C   0  0  0  0  0  0  0  0  0  0  0  0
   27.5828  -17.7339  -15.4585 C   0  0  0  0  0  0  0  0  0  0  0  0
   26.4373  -18.4282  -14.7606 C   0  0  0  0  0  0  0  0  0  0  0  0
   26.7592  -19.9025  -14.5805 C   0  0  2  0  0  0  0  0  0  0  0  0
   27.0610  -20.5247  -15.8428 N   0  0  0  0  0  0  0  0  0  0  0  0
   25.5451  -20.5627  -13.9291 C   0  0  0  0  0  0  0  0  0  0  0  0
   24.5665  -20.7909  -14.6289 O   0  0  0  0  0  0  0  0  0  0  0  0
   26.8141  -17.0972  -19.9912 N   0  0  0  0  0  0  0  0  0  0  0  0
   25.6191  -20.8818  -12.5610 C   0  0  2  0  0  0  0  0  0  0  0  0
   24.6318  -21.4547  -11.6946 C   0  0  0  0  0  0  0  0  0  0  0  0
   25.3534  -22.0415  -10.4731 C   0  0  0  0  0  0  0  0  0  0  0  0
   25.9822  -20.9920   -9.6896 C   0  0  0  0  0  0  0  0  0  0  0  0
   25.5014  -19.9762   -8.9592 N   0  0  0  0  0  0  0  0  0  0  0  0
   26.4481  -19.2015   -8.4317 C   0  0  0  0  0  0  0  0  0  0  0  0
   27.6153  -19.7280   -8.8315 C   0  0  0  0  0  0  0  0  0  0  0  0
   28.9193  -19.3598   -8.5806 C   0  0  0  0  0  0  0  0  0  0  0  0
   29.9847  -20.0623   -9.0799 C   0  0  0  0  0  0  0  0  0  0  0  0
   29.7367  -21.1686   -9.8544 C   0  0  0  0  0  0  0  0  0  0  0  0
   28.4449  -21.5508  -10.1173 C   0  0  0  0  0  0  0  0  0  0  0  0
   27.3906  -20.8482   -9.6195 C   0  0  0  0  0  0  0  0  0  0  0  0
   23.5576  -20.5946  -11.2871 O   0  0  0  0  0  0  0  0  0  0  0  0
   23.5905  -19.1808  -11.4535 O   0  0  0  0  0  0  0  0  0  0  0  0
  2  3  2  0
  2  1  1  0
  4  2  1  0
  5  6  1  0
  5  4  1  0
  6  8  1  0
  6  7  1  6
  8  9  2  0
 10 11  1  0
 11 13  1  0
 11 12  2  0
 13 14  1  0
 14 15  1  0
 16 15  1  0
 17 16  1  6
 17 19  1  0
 18 17  1  0
 18  8  1  0
 19 20  2  0
 19 21  1  0
 21 22  1  0
 22 33  1  0
 22 23  1  6
 24 23  1  0
 24 25  2  0
 26 25  1  0
 27 26  1  0
 28 27  2  0
 29 28  1  0
 30 29  2  0
 30 31  1  0
 31 32  2  0
 32 27  1  0
 32 24  1  0
 33 35  2  0
 33 34  1  0
M  END
$$$$
