QRW.pdb
     RDKit          3D

 35 36  0  0  1  0  0  0  0  0999 V2000
   21.6049  -27.7068  -23.4618 N   0  0  0  0  0  0  0  0  0  0  0  0
   22.8816  -27.6872  -24.0633 C   0  0  0  0  0  0  0  0  0  0  0  0
   23.0337  -27.0330  -25.1294 O   0  0  0  0  0  0  0  0  0  0  0  0
   24.0528  -28.4036  -23.5006 C   0  0  0  0  0  0  0  0  0  0  0  0
   23.7134  -29.1270  -22.2247 C   0  0  0  0  0  0  0  0  0  0  0  0
   24.9284  -29.7592  -21.6606 C   0  0  2  0  0  0  0  0  0  0  0  0
   25.4959  -30.7154  -22.5756 N   0  0  0  0  0  0  0  0  0  0  0  0
   24.6921  -30.4380  -20.3588 C   0  0  0  0  0  0  0  0  0  0  0  0
   23.8632  -31.4041  -20.2630 O   0  0  0  0  0  0  0  0  0  0  0  0
   30.4814  -32.1003  -16.6130 N   0  0  0  0  0  0  0  0  0  0  0  0
   29.7000  -32.5289  -15.5102 C   0  0  0  0  0  0  0  0  0  0  0  0
   30.2443  -32.8054  -14.3802 N   0  0  0  0  0  0  0  0  0  0  0  0
   28.2714  -32.6666  -15.5856 N   0  0  0  0  0  0  0  0  0  0  0  0
   27.6418  -32.4587  -16.8368 C   0  0  0  0  0  0  0  0  0  0  0  0
   27.5365  -31.0722  -17.3494 C   0  0  0  0  0  0  0  0  0  0  0  0
   26.2653  -30.3781  -16.9208 C   0  0  0  0  0  0  0  0  0  0  0  0
   25.1451  -30.7037  -17.8948 C   0  0  2  0  0  0  0  0  0  0  0  0
   25.3590  -30.0598  -19.1642 N   0  0  0  0  0  0  0  0  0  0  0  0
   23.8354  -30.2334  -17.2641 C   0  0  0  0  0  0  0  0  0  0  0  0
   23.6850  -29.0335  -17.0712 O   0  0  0  0  0  0  0  0  0  0  0  0
   29.6738  -33.1629  -13.5806 N   0  0  0  0  0  0  0  0  0  0  0  0
   22.8673  -31.2034  -16.9466 C   0  0  2  0  0  0  0  0  0  0  0  0
   21.5777  -31.0528  -16.3400 C   0  0  0  0  0  0  0  0  0  0  0  0
   20.5139  -31.2380  -17.4314 C   0  0  0  0  0  0  0  0  0  0  0  0
   19.6131  -30.0990  -17.4751 C   0  0  0  0  0  0  0  0  0  0  0  0
   19.7476  -28.8070  -17.1446 N   0  0  0  0  0  0  0  0  0  0  0  0
   18.6314  -28.0963  -17.2989 C   0  0  0  0  0  0  0  0  0  0  0  0
   17.7099  -28.9584  -17.7538 C   0  0  0  0  0  0  0  0  0  0  0  0
   16.3885  -28.7850  -18.1046 C   0  0  0  0  0  0  0  0  0  0  0  0
   15.6174  -29.8156  -18.5750 C   0  0  0  0  0  0  0  0  0  0  0  0
   16.1872  -31.0586  -18.6986 C   0  0  0  0  0  0  0  0  0  0  0  0
   17.5014  -31.2522  -18.3529 C   0  0  0  0  0  0  0  0  0  0  0  0
   18.2621  -30.2249  -17.8850 C   0  0  0  0  0  0  0  0  0  0  0  0
   21.2979  -31.8904  -15.2087 O   0  0  0  0  0  0  0  0  0  0  0  0
   20.1900  -31.6759  -14.3403 O   0  0  0  0  0  0  0  0  0  0  0  0
  2  3  2  0
  2  1  1  0
  4  2  1  0
  5  6  1  0
  5  4  1  0
  6  8  1  0
  6  7  1  6
  8  9  2  0
 10 11  1  0
 11 13  1  0
 11 12  2  0
 13 14  1  0
 14 15  1  0
 16 15  1  0
 17 16  1  1
 17 19  1  0
 18 17  1  0
 18  8  1  0
 19 20  2  0
 19 21  1  0
 21 22  1  0
 22 33  1  0
 22 23  1  6
 24 23  1  0
 24 25  2  0
 26 25  1  0
 27 26  1  0
 28 27  2  0
 29 28  1  0
 30 29  2  0
 30 31  1  0
 31 32  2  0
 32 27  1  0
 32 24  1  0
 33 35  2  0
 33 34  1  0
M  END
$$$$
