QRW.pdb
     RDKit          3D

 35 36  0  0  1  0  0  0  0  0999 V2000
   22.0434  -26.8245  -16.9244 N   0  0  0  0  0  0  0  0  0  0  0  0
   22.8449  -27.3875  -17.9408 C   0  0  0  0  0  0  0  0  0  0  0  0
   23.6874  -26.6505  -18.5193 O   0  0  0  0  0  0  0  0  0  0  0  0
   22.7397  -28.8063  -18.3622 C   0  0  0  0  0  0  0  0  0  0  0  0
   21.7288  -29.5653  -17.5447 C   0  0  0  0  0  0  0  0  0  0  0  0
   22.3020  -29.9140  -16.2242 C   0  0  2  0  0  0  0  0  0  0  0  0
   23.3397  -30.9048  -16.3472 N   0  0  0  0  0  0  0  0  0  0  0  0
   21.2914  -30.4107  -15.2529 C   0  0  0  0  0  0  0  0  0  0  0  0
   20.2119  -30.9624  -15.6530 O   0  0  0  0  0  0  0  0  0  0  0  0
   23.8150  -33.8474   -8.0833 N   0  0  0  0  0  0  0  0  0  0  0  0
   23.9365  -32.5173   -8.5593 C   0  0  0  0  0  0  0  0  0  0  0  0
   24.7095  -31.6731   -7.9768 N   0  0  0  0  0  0  0  0  0  0  0  0
   23.2212  -32.0435   -9.7124 N   0  0  0  0  0  0  0  0  0  0  0  0
   22.6037  -32.9967  -10.5580 C   0  0  0  0  0  0  0  0  0  0  0  0
   21.9388  -32.5160  -11.7921 C   0  0  0  0  0  0  0  0  0  0  0  0
   21.2025  -31.2117  -11.5977 C   0  0  0  0  0  0  0  0  0  0  0  0
   20.5122  -30.8102  -12.8907 C   0  0  2  0  0  0  0  0  0  0  0  0
   21.4598  -30.3023  -13.8476 N   0  0  0  0  0  0  0  0  0  0  0  0
   19.4702  -29.7475  -12.5456 C   0  0  0  0  0  0  0  0  0  0  0  0
   19.8127  -28.8123  -11.8330 O   0  0  0  0  0  0  0  0  0  0  0  0
   24.8551  -30.7156   -8.3698 N   0  0  0  0  0  0  0  0  0  0  0  0
   18.1742  -29.8948  -13.0723 C   0  0  2  0  0  0  0  0  0  0  0  0
   16.9973  -29.1061  -12.8560 C   0  0  0  0  0  0  0  0  0  0  0  0
   16.0816  -29.2731  -14.0769 C   0  0  0  0  0  0  0  0  0  0  0  0
   15.0214  -28.2799  -14.0688 C   0  0  0  0  0  0  0  0  0  0  0  0
   14.9978  -26.9582  -14.2907 N   0  0  0  0  0  0  0  0  0  0  0  0
   13.7943  -26.4101  -14.1299 C   0  0  0  0  0  0  0  0  0  0  0  0
   12.9782  -27.4169  -13.7836 C   0  0  0  0  0  0  0  0  0  0  0  0
   11.6281  -27.4475  -13.5087 C   0  0  0  0  0  0  0  0  0  0  0  0
   10.9748  -28.6091  -13.1898 C   0  0  0  0  0  0  0  0  0  0  0  0
   11.6957  -29.7768  -13.1450 C   0  0  0  0  0  0  0  0  0  0  0  0
   13.0417  -29.7670  -13.4139 C   0  0  0  0  0  0  0  0  0  0  0  0
   13.6854  -28.6097  -13.7290 C   0  0  0  0  0  0  0  0  0  0  0  0
   16.2749  -29.3499  -11.6402 O   0  0  0  0  0  0  0  0  0  0  0  0
   15.7199  -28.3068  -10.8456 O   0  0  0  0  0  0  0  0  0  0  0  0
  2  3  2  0
  2  1  1  0
  4  2  1  0
  5  6  1  0
  5  4  1  0
  6  8  1  0
  6  7  1  6
  8  9  2  0
 10 11  1  0
 11 13  1  0
 11 12  2  0
 13 14  1  0
 14 15  1  0
 16 15  1  0
 17 16  1  1
 17 19  1  0
 18 17  1  0
 18  8  1  0
 19 20  2  0
 19 21  1  0
 21 22  1  0
 22 33  1  0
 22 23  1  1
 24 23  1  0
 24 25  2  0
 26 25  1  0
 27 26  1  0
 28 27  2  0
 29 28  1  0
 30 29  2  0
 30 31  1  0
 31 32  2  0
 32 27  1  0
 32 24  1  0
 33 35  2  0
 33 34  1  0
M  END
$$$$
