QRW.pdb
     RDKit          3D

 35 36  0  0  1  0  0  0  0  0999 V2000
   27.5381  -15.6792  -16.8443 N   0  0  0  0  0  0  0  0  0  0  0  0
   28.8140  -16.2153  -17.1219 C   0  0  0  0  0  0  0  0  0  0  0  0
   29.4535  -15.7645  -18.1095 O   0  0  0  0  0  0  0  0  0  0  0  0
   29.4364  -17.2877  -16.3067 C   0  0  0  0  0  0  0  0  0  0  0  0
   28.5761  -17.6781  -15.1347 C   0  0  0  0  0  0  0  0  0  0  0  0
   28.0857  -19.0655  -15.3044 C   0  0  2  0  0  0  0  0  0  0  0  0
   27.4793  -19.2537  -16.5969 N   0  0  0  0  0  0  0  0  0  0  0  0
   27.1086  -19.4793  -14.2626 C   0  0  0  0  0  0  0  0  0  0  0  0
   26.1517  -18.7084  -13.9166 O   0  0  0  0  0  0  0  0  0  0  0  0
   24.3364  -24.8387  -15.8089 N   0  0  0  0  0  0  0  0  0  0  0  0
   23.3401  -24.8434  -14.7999 C   0  0  0  0  0  0  0  0  0  0  0  0
   22.8123  -25.9421  -14.3952 N   0  0  0  0  0  0  0  0  0  0  0  0
   22.8758  -23.6378  -14.1702 N   0  0  0  0  0  0  0  0  0  0  0  0
   23.7121  -22.4958  -14.2075 C   0  0  0  0  0  0  0  0  0  0  0  0
   25.1801  -22.6983  -14.1966 C   0  0  0  0  0  0  0  0  0  0  0  0
   25.7839  -22.5756  -12.8176 C   0  0  0  0  0  0  0  0  0  0  0  0
   26.2492  -21.1482  -12.5823 C   0  0  2  0  0  0  0  0  0  0  0  0
   27.1791  -20.7322  -13.5991 N   0  0  0  0  0  0  0  0  0  0  0  0
   26.9004  -21.0979  -11.2011 C   0  0  0  0  0  0  0  0  0  0  0  0
   28.0751  -21.4300  -11.1036 O   0  0  0  0  0  0  0  0  0  0  0  0
   22.1380  -25.9537  -13.5966 N   0  0  0  0  0  0  0  0  0  0  0  0
   26.1183  -20.6640  -10.1154 C   0  0  1  0  0  0  0  0  0  0  0  0
   26.0186  -21.1875   -8.7851 C   0  0  0  0  0  0  0  0  0  0  0  0
   27.4099  -21.1158   -8.1399 C   0  0  0  0  0  0  0  0  0  0  0  0
   27.4843  -20.0192   -7.1899 C   0  0  0  0  0  0  0  0  0  0  0  0
   26.8405  -18.8482   -7.0850 N   0  0  0  0  0  0  0  0  0  0  0  0
   27.2574  -18.0980   -6.0662 C   0  0  0  0  0  0  0  0  0  0  0  0
   28.2260  -18.8048   -5.4649 C   0  0  0  0  0  0  0  0  0  0  0  0
   29.0008  -18.5377   -4.3569 C   0  0  0  0  0  0  0  0  0  0  0  0
   29.9367  -19.4234   -3.8905 C   0  0  0  0  0  0  0  0  0  0  0  0
   30.1018  -20.6141   -4.5539 C   0  0  0  0  0  0  0  0  0  0  0  0
   29.3411  -20.8982   -5.6605 C   0  0  0  0  0  0  0  0  0  0  0  0
   28.4137  -20.0139   -6.1199 C   0  0  0  0  0  0  0  0  0  0  0  0
   25.0302  -20.5914   -7.9323 O   0  0  0  0  0  0  0  0  0  0  0  0
   24.6218  -21.1694   -6.6967 O   0  0  0  0  0  0  0  0  0  0  0  0
  2  3  2  0
  2  1  1  0
  4  2  1  0
  5  6  1  0
  5  4  1  0
  6  8  1  0
  6  7  1  6
  8  9  2  0
 10 11  1  0
 11 13  1  0
 11 12  2  0
 13 14  1  0
 14 15  1  0
 16 15  1  0
 17 16  1  6
 17 19  1  0
 18 17  1  0
 18  8  1  0
 19 20  2  0
 19 21  1  0
 21 22  1  0
 22 33  1  0
 22 23  1  1
 24 23  1  0
 24 25  2  0
 26 25  1  0
 27 26  1  0
 28 27  2  0
 29 28  1  0
 30 29  2  0
 30 31  1  0
 31 32  2  0
 32 27  1  0
 32 24  1  0
 33 35  2  0
 33 34  1  0
M  END
$$$$
