LCE.pdb
     RDKit          3D

 24 23  0  0  1  0  0  0  0  0999 V2000
    8.2743  -13.9777   18.3842 C   0  0  0  0  0  0  0  0  0  0  0  0
    7.2606  -13.6131   19.4374 C   0  0  2  0  0  0  0  0  0  0  0  0
    6.5139  -12.3777   18.9152 C   0  0  0  0  0  0  0  0  0  0  0  0
    7.8799  -13.2225   20.7378 C   0  0  0  0  0  0  0  0  0  0  0  0
    8.5886  -14.3698   21.4207 C   0  0  2  0  0  0  0  0  0  0  0  0
    7.8651  -15.5932   21.3643 N   0  0  0  0  0  0  0  0  0  0  0  0
    8.9463  -14.0482   22.8183 C   0  0  0  0  0  0  0  0  0  0  0  0
    9.2131  -12.8690   23.1757 O   0  0  0  0  0  0  0  0  0  0  0  0
    8.9902  -15.0863   23.7748 N   0  0  0  0  0  0  0  0  0  0  0  0
    9.3172  -14.8793   25.1884 C   0  0  1  0  0  0  0  0  0  0  0  0
    8.1428  -14.2139   25.8783 C   0  0  0  0  0  0  0  0  0  0  0  0
    8.5276  -13.9274   27.6108 S   0  0  0  0  0  0  0  0  0  0  0  0
    9.5020  -16.2230   25.7710 C   0  0  0  0  0  0  0  0  0  0  0  0
    8.6321  -17.1283   25.5189 O   0  0  0  0  0  0  0  0  0  0  0  0
   10.5904  -16.5953   26.6011 N   0  0  0  0  0  0  0  0  0  0  0  0
   10.7563  -17.9787   27.0188 C   0  0  1  0  0  0  0  0  0  0  0  0
   11.8709  -18.6593   26.2685 C   0  0  0  0  0  0  0  0  0  0  0  0
   12.0115  -20.1208   26.5896 C   0  0  0  0  0  0  0  0  0  0  0  0
   13.1393  -20.6432   25.7846 C   0  0  0  0  0  0  0  0  0  0  0  0
   12.8971  -21.1273   24.6551 O   0  0  0  0  0  0  0  0  0  0  0  0
   11.0860  -18.0737   28.4614 C   0  0  0  0  0  0  0  0  0  0  0  0
   11.2811  -16.9749   29.2846 O   0  0  0  0  0  0  0  0  0  0  0  0
   14.4447  -20.6150   26.2351 O   0  0  0  0  0  0  0  0  0  0  0  0
   11.1976  -19.2127   28.9783 O   0  0  0  0  0  0  0  0  0  0  0  0
  2  1  1  6
  2  3  1  0
  4  5  1  0
  4  2  1  0
  5  6  1  1
  5  7  1  0
  7  8  2  0
  9  7  1  0
  9 10  1  0
 10 13  1  0
 10 11  1  1
 11 12  1  0
 13 14  2  0
 15 16  1  0
 15 13  1  0
 16 21  1  0
 16 17  1  6
 18 17  1  0
 19 20  2  0
 19 18  1  0
 21 24  2  0
 21 22  1  0
 23 19  1  0
M  END
$$$$
