LCE.pdb
     RDKit          3D

 24 23  0  0  1  0  0  0  0  0999 V2000
    8.1545  -14.5389   18.4649 C   0  0  0  0  0  0  0  0  0  0  0  0
    7.3109  -13.6077   19.2960 C   0  0  2  0  0  0  0  0  0  0  0  0
    7.2265  -12.2858   18.5202 C   0  0  0  0  0  0  0  0  0  0  0  0
    7.9193  -13.2897   20.6211 C   0  0  0  0  0  0  0  0  0  0  0  0
    8.0081  -14.4925   21.5323 C   0  0  2  0  0  0  0  0  0  0  0  0
    6.7801  -15.2000   21.6535 N   0  0  0  0  0  0  0  0  0  0  0  0
    8.5317  -14.1390   22.8685 C   0  0  0  0  0  0  0  0  0  0  0  0
    9.6613  -13.5979   23.0119 O   0  0  0  0  0  0  0  0  0  0  0  0
    7.7479  -14.4144   24.0107 N   0  0  0  0  0  0  0  0  0  0  0  0
    8.1119  -14.0000   25.3686 C   0  0  1  0  0  0  0  0  0  0  0  0
    6.8502  -13.6863   26.1480 C   0  0  0  0  0  0  0  0  0  0  0  0
    7.2663  -13.2299   27.8362 S   0  0  0  0  0  0  0  0  0  0  0  0
    8.7707  -15.1640   25.9934 C   0  0  0  0  0  0  0  0  0  0  0  0
    8.0894  -16.2330   26.1746 O   0  0  0  0  0  0  0  0  0  0  0  0
   10.1254  -15.1901   26.4132 N   0  0  0  0  0  0  0  0  0  0  0  0
   10.6663  -16.3656   27.0777 C   0  0  1  0  0  0  0  0  0  0  0  0
   11.9834  -16.7881   26.4817 C   0  0  0  0  0  0  0  0  0  0  0  0
   11.9650  -16.8844   24.9819 C   0  0  0  0  0  0  0  0  0  0  0  0
   13.3455  -16.6374   24.5066 C   0  0  0  0  0  0  0  0  0  0  0  0
   14.2479  -16.4502   25.3548 O   0  0  0  0  0  0  0  0  0  0  0  0
   10.9061  -16.1115   28.5188 C   0  0  0  0  0  0  0  0  0  0  0  0
   11.3431  -17.0774   29.4126 O   0  0  0  0  0  0  0  0  0  0  0  0
   13.6711  -16.6065   23.1647 O   0  0  0  0  0  0  0  0  0  0  0  0
   10.7043  -14.9557   28.9666 O   0  0  0  0  0  0  0  0  0  0  0  0
  2  1  1  6
  2  3  1  0
  4  5  1  0
  4  2  1  0
  5  6  1  1
  5  7  1  0
  7  8  2  0
  9  7  1  0
  9 10  1  0
 10 13  1  0
 10 11  1  1
 11 12  1  0
 13 14  2  0
 15 16  1  0
 15 13  1  0
 16 21  1  0
 16 17  1  6
 18 17  1  0
 19 20  2  0
 19 18  1  0
 21 24  2  0
 21 22  1  0
 23 19  1  0
M  END
$$$$
