LCE.pdb
     RDKit          3D

 24 23  0  0  1  0  0  0  0  0999 V2000
    7.4778  -11.1659   25.6825 C   0  0  0  0  0  0  0  0  0  0  0  0
    6.3274  -12.1337   25.5844 C   0  0  2  0  0  0  0  0  0  0  0  0
    5.5626  -12.0385   26.9120 C   0  0  0  0  0  0  0  0  0  0  0  0
    6.7653  -13.5533   25.4422 C   0  0  0  0  0  0  0  0  0  0  0  0
    7.8697  -13.7299   24.4254 C   0  0  2  0  0  0  0  0  0  0  0  0
    7.5639  -13.1641   23.1567 N   0  0  0  0  0  0  0  0  0  0  0  0
    8.2643  -15.1464   24.2748 C   0  0  0  0  0  0  0  0  0  0  0  0
    8.1888  -15.9575   25.2370 O   0  0  0  0  0  0  0  0  0  0  0  0
    8.7367  -15.6008   23.0239 N   0  0  0  0  0  0  0  0  0  0  0  0
    9.0927  -16.9948   22.7442 C   0  0  1  0  0  0  0  0  0  0  0  0
    9.2766  -17.1711   21.2500 C   0  0  0  0  0  0  0  0  0  0  0  0
    7.7007  -16.9742   20.4077 S   0  0  0  0  0  0  0  0  0  0  0  0
   10.3909  -17.2307   23.4064 C   0  0  0  0  0  0  0  0  0  0  0  0
   11.3426  -16.3967   23.2101 O   0  0  0  0  0  0  0  0  0  0  0  0
   10.6685  -18.3285   24.2608 N   0  0  0  0  0  0  0  0  0  0  0  0
   12.0021  -18.5119   24.8118 C   0  0  1  0  0  0  0  0  0  0  0  0
   11.9575  -18.8946   26.2679 C   0  0  0  0  0  0  0  0  0  0  0  0
   11.2076  -17.9158   27.1274 C   0  0  0  0  0  0  0  0  0  0  0  0
   11.2148  -18.4464   28.5099 C   0  0  0  0  0  0  0  0  0  0  0  0
   11.7071  -19.5796   28.7154 O   0  0  0  0  0  0  0  0  0  0  0  0
   12.7376  -19.5880   24.1049 C   0  0  0  0  0  0  0  0  0  0  0  0
   14.0938  -19.8307   24.2621 O   0  0  0  0  0  0  0  0  0  0  0  0
   10.6988  -17.7369   29.5767 O   0  0  0  0  0  0  0  0  0  0  0  0
   12.1035  -20.3295   23.3142 O   0  0  0  0  0  0  0  0  0  0  0  0
  2  1  1  1
  2  3  1  0
  4  5  1  0
  4  2  1  0
  5  6  1  6
  5  7  1  0
  7  8  2  0
  9  7  1  0
  9 10  1  0
 10 13  1  0
 10 11  1  6
 11 12  1  0
 13 14  2  0
 15 16  1  0
 15 13  1  0
 16 21  1  0
 16 17  1  1
 18 17  1  0
 19 20  2  0
 19 18  1  0
 21 24  2  0
 21 22  1  0
 23 19  1  0
M  END
$$$$
