LCE.pdb
     RDKit          3D

 24 23  0  0  1  0  0  0  0  0999 V2000
    7.6979  -13.8181   17.8391 C   0  0  0  0  0  0  0  0  0  0  0  0
    7.5149  -13.4249   19.2819 C   0  0  2  0  0  0  0  0  0  0  0  0
    7.3552  -11.8982   19.3013 C   0  0  0  0  0  0  0  0  0  0  0  0
    8.6996  -13.7433   20.1318 C   0  0  0  0  0  0  0  0  0  0  0  0
    8.5969  -15.0938   20.8031 C   0  0  2  0  0  0  0  0  0  0  0  0
    7.2617  -15.5746   20.9013 N   0  0  0  0  0  0  0  0  0  0  0  0
    9.2460  -15.1044   22.1309 C   0  0  0  0  0  0  0  0  0  0  0  0
   10.4775  -14.8699   22.2645 O   0  0  0  0  0  0  0  0  0  0  0  0
    8.4680  -15.3838   23.2761 N   0  0  0  0  0  0  0  0  0  0  0  0
    9.0171  -15.4775   24.6317 C   0  0  1  0  0  0  0  0  0  0  0  0
    7.8776  -15.4708   25.6315 C   0  0  0  0  0  0  0  0  0  0  0  0
    6.6749  -16.7364   25.2035 S   0  0  0  0  0  0  0  0  0  0  0  0
    9.7014  -16.7832   24.7112 C   0  0  0  0  0  0  0  0  0  0  0  0
    9.6065  -17.5892   23.7208 O   0  0  0  0  0  0  0  0  0  0  0  0
   10.4719  -17.2195   25.8194 N   0  0  0  0  0  0  0  0  0  0  0  0
   11.6469  -18.0524   25.6151 C   0  0  1  0  0  0  0  0  0  0  0  0
   12.7245  -17.3224   24.8571 C   0  0  0  0  0  0  0  0  0  0  0  0
   13.9900  -18.1160   24.6909 C   0  0  0  0  0  0  0  0  0  0  0  0
   14.9645  -17.2508   23.9877 C   0  0  0  0  0  0  0  0  0  0  0  0
   14.8219  -16.0083   24.0547 O   0  0  0  0  0  0  0  0  0  0  0  0
   12.2400  -18.4791   26.9054 C   0  0  0  0  0  0  0  0  0  0  0  0
   13.1444  -19.5224   27.0339 O   0  0  0  0  0  0  0  0  0  0  0  0
   16.0216  -17.7653   23.2628 O   0  0  0  0  0  0  0  0  0  0  0  0
   11.9100  -17.8655   27.9502 O   0  0  0  0  0  0  0  0  0  0  0  0
  2  1  1  6
  2  3  1  0
  4  5  1  0
  4  2  1  0
  5  6  1  1
  5  7  1  0
  7  8  2  0
  9  7  1  0
  9 10  1  0
 10 13  1  0
 10 11  1  1
 11 12  1  0
 13 14  2  0
 15 16  1  0
 15 13  1  0
 16 21  1  0
 16 17  1  1
 18 17  1  0
 19 20  2  0
 19 18  1  0
 21 24  2  0
 21 22  1  0
 23 19  1  0
M  END
$$$$
