LCE.pdb
     RDKit          3D

 24 23  0  0  1  0  0  0  0  0999 V2000
    5.4028  -12.2622   26.5376 C   0  0  0  0  0  0  0  0  0  0  0  0
    6.6412  -12.9451   27.0569 C   0  0  2  0  0  0  0  0  0  0  0  0
    7.6108  -11.8310   27.4757 C   0  0  0  0  0  0  0  0  0  0  0  0
    7.3425  -13.7569   26.0194 C   0  0  0  0  0  0  0  0  0  0  0  0
    6.5245  -14.9345   25.5408 C   0  0  2  0  0  0  0  0  0  0  0  0
    6.2285  -15.8709   26.5697 N   0  0  0  0  0  0  0  0  0  0  0  0
    7.1540  -15.6166   24.3905 C   0  0  0  0  0  0  0  0  0  0  0  0
    7.6122  -16.7870   24.4883 O   0  0  0  0  0  0  0  0  0  0  0  0
    7.2438  -14.9410   23.1535 N   0  0  0  0  0  0  0  0  0  0  0  0
    7.8340  -15.5257   21.9461 C   0  0  1  0  0  0  0  0  0  0  0  0
    7.7047  -14.5400   20.8017 C   0  0  0  0  0  0  0  0  0  0  0  0
    8.5624  -15.1646   19.3506 S   0  0  0  0  0  0  0  0  0  0  0  0
    9.2682  -15.7176   22.2384 C   0  0  0  0  0  0  0  0  0  0  0  0
    9.9247  -14.7505   22.7613 O   0  0  0  0  0  0  0  0  0  0  0  0
    9.9866  -16.9137   21.9822 N   0  0  0  0  0  0  0  0  0  0  0  0
   11.3834  -17.0296   22.3714 C   0  0  1  0  0  0  0  0  0  0  0  0
   11.5773  -18.0526   23.4596 C   0  0  0  0  0  0  0  0  0  0  0  0
   13.0128  -18.2416   23.8627 C   0  0  0  0  0  0  0  0  0  0  0  0
   13.0339  -19.2176   24.9763 C   0  0  0  0  0  0  0  0  0  0  0  0
   14.1369  -19.5264   25.4829 O   0  0  0  0  0  0  0  0  0  0  0  0
   12.2315  -17.4480   21.2293 C   0  0  0  0  0  0  0  0  0  0  0  0
   11.7303  -17.8878   20.0135 O   0  0  0  0  0  0  0  0  0  0  0  0
   11.8829  -19.7969   25.4734 O   0  0  0  0  0  0  0  0  0  0  0  0
   13.4797  -17.4052   21.3607 O   0  0  0  0  0  0  0  0  0  0  0  0
  2  1  1  6
  2  3  1  0
  4  5  1  0
  4  2  1  0
  5  6  1  1
  5  7  1  0
  7  8  2  0
  9  7  1  0
  9 10  1  0
 10 13  1  0
 10 11  1  6
 11 12  1  0
 13 14  2  0
 15 16  1  0
 15 13  1  0
 16 21  1  0
 16 17  1  1
 18 17  1  0
 19 20  2  0
 19 18  1  0
 21 24  2  0
 21 22  1  0
 23 19  1  0
M  END
$$$$
