LCE.pdb
     RDKit          3D

 24 23  0  0  1  0  0  0  0  0999 V2000
    8.7021  -12.0929   18.8690 C   0  0  0  0  0  0  0  0  0  0  0  0
    8.9787  -13.4903   18.3789 C   0  0  2  0  0  0  0  0  0  0  0  0
    7.6566  -14.0225   17.8086 C   0  0  0  0  0  0  0  0  0  0  0  0
    9.3831  -14.4254   19.4695 C   0  0  0  0  0  0  0  0  0  0  0  0
   10.6250  -13.9730   20.2028 C   0  0  2  0  0  0  0  0  0  0  0  0
   11.7886  -13.9573   19.3848 N   0  0  0  0  0  0  0  0  0  0  0  0
   10.8673  -14.7665   21.4260 C   0  0  0  0  0  0  0  0  0  0  0  0
   11.8638  -15.5320   21.5286 O   0  0  0  0  0  0  0  0  0  0  0  0
    9.9611  -14.6644   22.5045 N   0  0  0  0  0  0  0  0  0  0  0  0
   10.1940  -15.2579   23.8241 C   0  0  1  0  0  0  0  0  0  0  0  0
    9.0108  -14.9546   24.7218 C   0  0  0  0  0  0  0  0  0  0  0  0
    9.1971  -15.8044   26.2950 S   0  0  0  0  0  0  0  0  0  0  0  0
   10.2604  -16.7177   23.6149 C   0  0  0  0  0  0  0  0  0  0  0  0
    9.7294  -17.2133   22.5603 O   0  0  0  0  0  0  0  0  0  0  0  0
   10.8809  -17.6292   24.5073 N   0  0  0  0  0  0  0  0  0  0  0  0
   11.0739  -19.0186   24.1221 C   0  0  1  0  0  0  0  0  0  0  0  0
   12.1137  -19.1598   23.0418 C   0  0  0  0  0  0  0  0  0  0  0  0
   11.5732  -18.9638   21.6531 C   0  0  0  0  0  0  0  0  0  0  0  0
   12.6920  -19.1849   20.7085 C   0  0  0  0  0  0  0  0  0  0  0  0
   13.2354  -20.3128   20.6752 O   0  0  0  0  0  0  0  0  0  0  0  0
   11.5283  -19.8411   25.2691 C   0  0  0  0  0  0  0  0  0  0  0  0
   11.6043  -21.2255   25.2467 O   0  0  0  0  0  0  0  0  0  0  0  0
   13.1551  -18.1933   19.8660 O   0  0  0  0  0  0  0  0  0  0  0  0
   11.8670  -19.2587   26.3290 O   0  0  0  0  0  0  0  0  0  0  0  0
  2  1  1  1
  2  3  1  0
  4  5  1  0
  4  2  1  0
  5  6  1  6
  5  7  1  0
  7  8  2  0
  9  7  1  0
  9 10  1  0
 10 13  1  0
 10 11  1  1
 11 12  1  0
 13 14  2  0
 15 16  1  0
 15 13  1  0
 16 21  1  0
 16 17  1  6
 18 17  1  0
 19 20  2  0
 19 18  1  0
 21 24  2  0
 21 22  1  0
 23 19  1  0
M  END
$$$$
