LCE.pdb
     RDKit          3D

 24 23  0  0  1  0  0  0  0  0999 V2000
    5.9093  -13.8967   18.6913 C   0  0  0  0  0  0  0  0  0  0  0  0
    7.2808  -14.5201   18.6849 C   0  0  2  0  0  0  0  0  0  0  0  0
    7.1121  -15.9402   18.1269 C   0  0  0  0  0  0  0  0  0  0  0  0
    7.8673  -14.6621   20.0498 C   0  0  0  0  0  0  0  0  0  0  0  0
    8.0093  -13.3408   20.7702 C   0  0  2  0  0  0  0  0  0  0  0  0
    8.7923  -12.3911   20.0572 N   0  0  0  0  0  0  0  0  0  0  0  0
    8.5309  -13.5102   22.1428 C   0  0  0  0  0  0  0  0  0  0  0  0
    9.7503  -13.7450   22.3602 O   0  0  0  0  0  0  0  0  0  0  0  0
    7.6420  -13.4065   23.2354 N   0  0  0  0  0  0  0  0  0  0  0  0
    8.0302  -13.6475   24.6280 C   0  0  1  0  0  0  0  0  0  0  0  0
    6.8862  -13.2494   25.5393 C   0  0  0  0  0  0  0  0  0  0  0  0
    5.8447  -14.6746   25.8792 S   0  0  0  0  0  0  0  0  0  0  0  0
    8.2424  -15.1031   24.7519 C   0  0  0  0  0  0  0  0  0  0  0  0
    7.4800  -15.8946   24.0945 O   0  0  0  0  0  0  0  0  0  0  0  0
    9.2458  -15.7025   25.5558 N   0  0  0  0  0  0  0  0  0  0  0  0
    9.4035  -17.1484   25.5776 C   0  0  1  0  0  0  0  0  0  0  0  0
   10.3713  -17.6210   24.5247 C   0  0  0  0  0  0  0  0  0  0  0  0
   11.7367  -17.0031   24.6379 C   0  0  0  0  0  0  0  0  0  0  0  0
   12.5447  -17.5071   23.5039 C   0  0  0  0  0  0  0  0  0  0  0  0
   12.6447  -18.7449   23.3415 O   0  0  0  0  0  0  0  0  0  0  0  0
    9.9240  -17.6174   26.8844 C   0  0  0  0  0  0  0  0  0  0  0  0
   10.0849  -18.9535   27.2189 O   0  0  0  0  0  0  0  0  0  0  0  0
   13.1897  -16.6618   22.6224 O   0  0  0  0  0  0  0  0  0  0  0  0
   10.2411  -16.7614   27.7468 O   0  0  0  0  0  0  0  0  0  0  0  0
  2  1  1  1
  2  3  1  0
  4  5  1  0
  4  2  1  0
  5  6  1  6
  5  7  1  0
  7  8  2  0
  9  7  1  0
  9 10  1  0
 10 13  1  0
 10 11  1  1
 11 12  1  0
 13 14  2  0
 15 16  1  0
 15 13  1  0
 16 21  1  0
 16 17  1  6
 18 17  1  0
 19 20  2  0
 19 18  1  0
 21 24  2  0
 21 22  1  0
 23 19  1  0
M  END
$$$$
