LCE.pdb
     RDKit          3D

 24 23  0  0  1  0  0  0  0  0999 V2000
    8.3184  -13.8382   18.2347 C   0  0  0  0  0  0  0  0  0  0  0  0
    7.2047  -13.3835   19.1416 C   0  0  2  0  0  0  0  0  0  0  0  0
    6.8232  -11.9674   18.6880 C   0  0  0  0  0  0  0  0  0  0  0  0
    7.6180  -13.2793   20.5719 C   0  0  0  0  0  0  0  0  0  0  0  0
    7.8873  -14.6245   21.2065 C   0  0  2  0  0  0  0  0  0  0  0  0
    6.8692  -15.5837   20.9483 N   0  0  0  0  0  0  0  0  0  0  0  0
    8.1320  -14.5134   22.6600 C   0  0  0  0  0  0  0  0  0  0  0  0
    7.7366  -13.5151   23.3206 O   0  0  0  0  0  0  0  0  0  0  0  0
    8.8251  -15.5499   23.3232 N   0  0  0  0  0  0  0  0  0  0  0  0
    9.1055  -15.5528   24.7618 C   0  0  1  0  0  0  0  0  0  0  0  0
    7.7978  -15.6399   25.5233 C   0  0  0  0  0  0  0  0  0  0  0  0
    7.0087  -17.2252   25.2136 S   0  0  0  0  0  0  0  0  0  0  0  0
    9.8847  -16.7780   25.0285 C   0  0  0  0  0  0  0  0  0  0  0  0
    9.4403  -17.8972   24.5931 O   0  0  0  0  0  0  0  0  0  0  0  0
   11.1111  -16.8102   25.7406 N   0  0  0  0  0  0  0  0  0  0  0  0
   11.9133  -18.0234   25.7680 C   0  0  1  0  0  0  0  0  0  0  0  0
   13.2493  -17.8252   25.1017 C   0  0  0  0  0  0  0  0  0  0  0  0
   13.5730  -16.3862   24.8124 C   0  0  0  0  0  0  0  0  0  0  0  0
   14.8705  -16.3603   24.0993 C   0  0  0  0  0  0  0  0  0  0  0  0
   15.6023  -15.3512   24.2212 O   0  0  0  0  0  0  0  0  0  0  0  0
   12.1849  -18.4625   27.1581 C   0  0  0  0  0  0  0  0  0  0  0  0
   11.7577  -17.7751   28.2841 O   0  0  0  0  0  0  0  0  0  0  0  0
   15.2999  -17.4070   23.3071 O   0  0  0  0  0  0  0  0  0  0  0  0
   12.8401  -19.5187   27.3371 O   0  0  0  0  0  0  0  0  0  0  0  0
  2  1  1  6
  2  3  1  0
  4  5  1  0
  4  2  1  0
  5  6  1  1
  5  7  1  0
  7  8  2  0
  9  7  1  0
  9 10  1  0
 10 13  1  0
 10 11  1  1
 11 12  1  0
 13 14  2  0
 15 16  1  0
 15 13  1  0
 16 21  1  0
 16 17  1  1
 18 17  1  0
 19 20  2  0
 19 18  1  0
 21 24  2  0
 21 22  1  0
 23 19  1  0
M  END
$$$$
