LCE.pdb
     RDKit          3D

 24 23  0  0  1  0  0  0  0  0999 V2000
    7.6980  -13.2659   24.6452 C   0  0  0  0  0  0  0  0  0  0  0  0
    8.0408  -13.9255   23.3349 C   0  0  2  0  0  0  0  0  0  0  0  0
    8.5575  -12.8151   22.4094 C   0  0  0  0  0  0  0  0  0  0  0  0
    6.8586  -14.5338   22.6570 C   0  0  0  0  0  0  0  0  0  0  0  0
    7.2407  -15.5596   21.6146 C   0  0  2  0  0  0  0  0  0  0  0  0
    6.1199  -16.1612   20.9781 N   0  0  0  0  0  0  0  0  0  0  0  0
    8.1400  -16.5977   22.1610 C   0  0  0  0  0  0  0  0  0  0  0  0
    7.7105  -17.5102   22.9175 O   0  0  0  0  0  0  0  0  0  0  0  0
    9.5120  -16.5658   21.8275 N   0  0  0  0  0  0  0  0  0  0  0  0
   10.4605  -17.6276   22.1754 C   0  0  1  0  0  0  0  0  0  0  0  0
   11.2318  -18.0318   20.9347 C   0  0  0  0  0  0  0  0  0  0  0  0
   12.1518  -16.6258   20.2957 S   0  0  0  0  0  0  0  0  0  0  0  0
   11.4064  -17.0363   23.1424 C   0  0  0  0  0  0  0  0  0  0  0  0
   11.1652  -15.8659   23.6025 O   0  0  0  0  0  0  0  0  0  0  0  0
   12.5814  -17.6781   23.6110 N   0  0  0  0  0  0  0  0  0  0  0  0
   13.2832  -17.1656   24.7775 C   0  0  1  0  0  0  0  0  0  0  0  0
   12.4448  -17.2695   26.0244 C   0  0  0  0  0  0  0  0  0  0  0  0
   11.9565  -18.6618   26.3103 C   0  0  0  0  0  0  0  0  0  0  0  0
   11.2203  -18.6166   27.5943 C   0  0  0  0  0  0  0  0  0  0  0  0
   11.1431  -17.5252   28.2038 O   0  0  0  0  0  0  0  0  0  0  0  0
   14.5332  -17.9212   25.0335 C   0  0  0  0  0  0  0  0  0  0  0  0
   14.8742  -19.0967   24.3817 O   0  0  0  0  0  0  0  0  0  0  0  0
   10.6180  -19.7330   28.1410 O   0  0  0  0  0  0  0  0  0  0  0  0
   15.3380  -17.4784   25.8899 O   0  0  0  0  0  0  0  0  0  0  0  0
  2  1  1  1
  2  3  1  0
  4  5  1  0
  4  2  1  0
  5  6  1  1
  5  7  1  0
  7  8  2  0
  9  7  1  0
  9 10  1  0
 10 13  1  0
 10 11  1  6
 11 12  1  0
 13 14  2  0
 15 16  1  0
 15 13  1  0
 16 21  1  0
 16 17  1  1
 18 17  1  0
 19 20  2  0
 19 18  1  0
 21 24  2  0
 21 22  1  0
 23 19  1  0
M  END
$$$$
