ERH.pdb
     RDKit          3D

 31 31  0  0  1  0  0  0  0  0999 V2000
   22.9609  -22.3786  -15.3149 N   0  0  0  0  0  0  0  0  0  0  0  0
   21.8084  -21.7847  -15.9437 C   0  0  1  0  0  0  0  0  0  0  0  0
   20.5162  -21.9764  -15.2232 C   0  0  0  0  0  0  0  0  0  0  0  0
   20.1024  -23.3823  -14.9867 C   0  0  0  0  0  0  0  0  0  0  0  0
   18.7524  -23.6143  -14.4910 C   0  0  0  0  0  0  0  0  0  0  0  0
   18.6847  -24.1913  -13.3421 O   0  0  0  0  0  0  0  0  0  0  0  0
   22.1136  -20.3607  -16.2102 C   0  0  0  0  0  0  0  0  0  0  0  0
   22.1270  -19.5233  -15.2768 O   0  0  0  0  0  0  0  0  0  0  0  0
   17.5603  -23.3007  -15.0896 O   0  0  0  0  0  0  0  0  0  0  0  0
   27.9167  -18.7126  -18.3447 N   0  0  0  0  0  0  0  0  0  0  0  0
   27.4420  -19.6150  -19.3339 C   0  0  0  0  0  0  0  0  0  0  0  0
   27.8716  -20.8190  -19.4146 N   0  0  0  0  0  0  0  0  0  0  0  0
   26.4539  -19.2043  -20.2870 N   0  0  0  0  0  0  0  0  0  0  0  0
   25.6701  -18.0213  -20.0158 C   0  0  0  0  0  0  0  0  0  0  0  0
   24.8509  -18.2515  -18.7757 C   0  0  0  0  0  0  0  0  0  0  0  0
   23.3663  -18.3143  -19.0839 C   0  0  0  0  0  0  0  0  0  0  0  0
   22.5579  -18.4496  -17.7875 C   0  0  2  0  0  0  0  0  0  0  0  0
   22.4089  -19.8470  -17.5223 N   0  0  0  0  0  0  0  0  0  0  0  0
   21.3008  -17.7289  -18.0158 C   0  0  0  0  0  0  0  0  0  0  0  0
   20.3249  -18.3986  -18.4316 O   0  0  0  0  0  0  0  0  0  0  0  0
   27.6235  -21.4828  -20.1601 N   0  0  0  0  0  0  0  0  0  0  0  0
   21.1249  -16.3137  -17.7921 C   0  0  1  0  0  0  0  0  0  0  0  0
   19.8005  -15.7506  -17.8699 C   0  0  0  0  0  0  0  0  0  0  0  0
   18.7845  -16.5114  -17.1155 C   0  0  0  0  0  0  0  0  0  0  0  0
   17.4171  -16.0459  -17.1108 C   0  0  0  0  0  0  0  0  0  0  0  0
   16.8063  -14.9640  -17.6694 N   0  0  0  0  0  0  0  0  0  0  0  0
   15.4656  -14.9717  -17.3996 C   0  0  0  0  0  0  0  0  0  0  0  0
   15.2759  -16.0777  -16.6683 N   0  0  0  0  0  0  0  0  0  0  0  0
   16.4190  -16.7415  -16.4778 C   0  0  0  0  0  0  0  0  0  0  0  0
   19.7912  -14.2961  -17.5922 O   0  0  0  0  0  0  0  0  0  0  0  0
   18.6215  -13.6077  -17.6560 O   0  0  0  0  0  0  0  0  0  0  0  0
  2  1  1  1
  3  2  1  0
  3  4  1  0
  4  5  1  0
  5  9  1  0
  6  5  2  0
  7  2  1  0
  8  7  2  0
 10 11  1  0
 11 12  2  0
 13 14  1  0
 13 11  1  0
 14 15  1  0
 16 15  1  0
 17 16  1  6
 17 18  1  0
 18  7  1  0
 19 21  1  0
 19 17  1  0
 20 19  2  0
 22 21  1  0
 22 29  1  0
 22 23  1  6
 23 24  1  0
 24 28  1  0
 24 25  2  0
 25 26  1  0
 27 26  1  0
 28 27  2  0
 29 30  1  0
 31 29  2  0
M  END
$$$$
