ERH.pdb
     RDKit          3D

 31 31  0  0  1  0  0  0  0  0999 V2000
   15.4898   -5.5244   -7.6298 N   0  0  0  0  0  0  0  0  0  0  0  0
   15.0449   -5.9425   -8.9350 C   0  0  1  0  0  0  0  0  0  0  0  0
   15.0402   -4.8786   -9.9809 C   0  0  0  0  0  0  0  0  0  0  0  0
   16.3334   -4.1891  -10.2170 C   0  0  0  0  0  0  0  0  0  0  0  0
   16.6077   -2.9856   -9.4435 C   0  0  0  0  0  0  0  0  0  0  0  0
   15.6731   -2.6348   -8.6304 O   0  0  0  0  0  0  0  0  0  0  0  0
   15.8312   -7.1337   -9.3284 C   0  0  0  0  0  0  0  0  0  0  0  0
   16.8683   -7.4525   -8.6994 O   0  0  0  0  0  0  0  0  0  0  0  0
   17.7222   -2.1888   -9.4752 O   0  0  0  0  0  0  0  0  0  0  0  0
   11.2697  -10.4827  -10.1221 N   0  0  0  0  0  0  0  0  0  0  0  0
   11.6270  -11.8161   -9.7864 C   0  0  0  0  0  0  0  0  0  0  0  0
   10.9571  -12.5039   -8.9386 N   0  0  0  0  0  0  0  0  0  0  0  0
   12.7630  -12.4451  -10.3925 N   0  0  0  0  0  0  0  0  0  0  0  0
   13.5311  -11.7089  -11.3698 C   0  0  0  0  0  0  0  0  0  0  0  0
   14.4806  -10.7888  -10.6528 C   0  0  0  0  0  0  0  0  0  0  0  0
   15.3964  -10.0593  -11.6184 C   0  0  0  0  0  0  0  0  0  0  0  0
   16.2971   -9.0767  -10.8598 C   0  0  2  0  0  0  0  0  0  0  0  0
   15.4739   -7.9892  -10.4298 N   0  0  0  0  0  0  0  0  0  0  0  0
   17.3690   -8.7069  -11.7904 C   0  0  0  0  0  0  0  0  0  0  0  0
   17.1014   -7.8383  -12.6551 O   0  0  0  0  0  0  0  0  0  0  0  0
   11.1701  -13.4734   -8.6690 N   0  0  0  0  0  0  0  0  0  0  0  0
   18.6951   -9.2767  -11.7682 C   0  0  2  0  0  0  0  0  0  0  0  0
   19.6446   -8.8830  -12.7783 C   0  0  0  0  0  0  0  0  0  0  0  0
   20.9797   -9.4909  -12.6102 C   0  0  0  0  0  0  0  0  0  0  0  0
   22.0052   -9.2186  -13.5903 C   0  0  0  0  0  0  0  0  0  0  0  0
   22.0303   -8.4478  -14.7133 N   0  0  0  0  0  0  0  0  0  0  0  0
   23.2624   -8.4937  -15.3049 C   0  0  0  0  0  0  0  0  0  0  0  0
   23.9826   -9.3054  -14.5198 N   0  0  0  0  0  0  0  0  0  0  0  0
   23.2632   -9.7550  -13.4883 C   0  0  0  0  0  0  0  0  0  0  0  0
   19.0941   -9.0105  -14.1471 O   0  0  0  0  0  0  0  0  0  0  0  0
   19.1425   -7.9476  -14.9922 O   0  0  0  0  0  0  0  0  0  0  0  0
  2  1  1  1
  3  2  1  0
  3  4  1  0
  4  5  1  0
  5  9  1  0
  6  5  2  0
  7  2  1  0
  8  7  2  0
 10 11  1  0
 11 12  2  0
 13 14  1  0
 13 11  1  0
 14 15  1  0
 16 15  1  0
 17 16  1  6
 17 18  1  0
 18  7  1  0
 19 21  1  0
 19 17  1  0
 20 19  2  0
 22 21  1  0
 22 29  1  0
 22 23  1  1
 23 24  1  0
 24 28  1  0
 24 25  2  0
 25 26  1  0
 27 26  1  0
 28 27  2  0
 29 30  1  0
 31 29  2  0
M  END
$$$$
