ERH.pdb
     RDKit          3D

 31 31  0  0  1  0  0  0  0  0999 V2000
   27.7927  -22.0502  -18.2703 N   0  0  0  0  0  0  0  0  0  0  0  0
   27.7620  -20.9818  -17.3039 C   0  0  1  0  0  0  0  0  0  0  0  0
   27.6888  -19.6050  -17.8739 C   0  0  0  0  0  0  0  0  0  0  0  0
   26.6997  -19.4002  -18.9617 C   0  0  0  0  0  0  0  0  0  0  0  0
   26.6681  -18.0951  -19.6081 C   0  0  0  0  0  0  0  0  0  0  0  0
   27.4429  -17.9729  -20.6291 O   0  0  0  0  0  0  0  0  0  0  0  0
   26.6741  -21.2651  -16.3406 C   0  0  0  0  0  0  0  0  0  0  0  0
   25.5942  -21.7733  -16.7257 O   0  0  0  0  0  0  0  0  0  0  0  0
   25.9270  -16.9940  -19.2671 O   0  0  0  0  0  0  0  0  0  0  0  0
   25.8243  -20.0762   -7.4420 N   0  0  0  0  0  0  0  0  0  0  0  0
   24.6465  -20.7296   -7.8938 C   0  0  0  0  0  0  0  0  0  0  0  0
   23.6849  -21.0189   -7.0986 N   0  0  0  0  0  0  0  0  0  0  0  0
   24.4918  -21.0917   -9.2716 N   0  0  0  0  0  0  0  0  0  0  0  0
   25.5559  -20.7839  -10.1990 C   0  0  0  0  0  0  0  0  0  0  0  0
   25.1009  -21.1178  -11.5932 C   0  0  0  0  0  0  0  0  0  0  0  0
   26.1930  -20.8703  -12.6175 C   0  0  0  0  0  0  0  0  0  0  0  0
   25.6801  -21.1805  -14.0292 C   0  0  2  0  0  0  0  0  0  0  0  0
   26.7725  -20.9865  -14.9315 N   0  0  0  0  0  0  0  0  0  0  0  0
   24.5344  -20.2912  -14.2495 C   0  0  0  0  0  0  0  0  0  0  0  0
   24.7719  -19.0622  -14.3323 O   0  0  0  0  0  0  0  0  0  0  0  0
   22.8032  -21.4669   -7.3811 N   0  0  0  0  0  0  0  0  0  0  0  0
   23.1691  -20.7430  -14.3750 C   0  0  1  0  0  0  0  0  0  0  0  0
   22.1211  -19.7690  -14.5476 C   0  0  0  0  0  0  0  0  0  0  0  0
   21.9780  -19.2876  -15.9361 C   0  0  0  0  0  0  0  0  0  0  0  0
   20.9616  -18.3072  -16.2396 C   0  0  0  0  0  0  0  0  0  0  0  0
   20.0631  -17.6363  -15.4661 N   0  0  0  0  0  0  0  0  0  0  0  0
   19.3158  -16.7784  -16.2250 C   0  0  0  0  0  0  0  0  0  0  0  0
   19.7784  -16.9417  -17.4713 N   0  0  0  0  0  0  0  0  0  0  0  0
   20.7603  -17.8460  -17.5153 C   0  0  0  0  0  0  0  0  0  0  0  0
   20.8474  -20.1980  -13.9259 O   0  0  0  0  0  0  0  0  0  0  0  0
   20.7975  -21.3672  -13.2354 O   0  0  0  0  0  0  0  0  0  0  0  0
  2  1  1  6
  3  2  1  0
  3  4  1  0
  4  5  1  0
  5  9  1  0
  6  5  2  0
  7  2  1  0
  8  7  2  0
 10 11  1  0
 11 12  2  0
 13 14  1  0
 13 11  1  0
 14 15  1  0
 16 15  1  0
 17 16  1  1
 17 18  1  0
 18  7  1  0
 19 21  1  0
 19 17  1  0
 20 19  2  0
 22 21  1  0
 22 29  1  0
 22 23  1  6
 23 24  1  0
 24 28  1  0
 24 25  2  0
 25 26  1  0
 27 26  1  0
 28 27  2  0
 29 30  1  0
 31 29  2  0
M  END
$$$$
