ERH.pdb
     RDKit          3D

 31 31  0  0  1  0  0  0  0  0999 V2000
   47.5783  -10.6622   -4.9800 N   0  0  0  0  0  0  0  0  0  0  0  0
   46.1713  -10.8123   -4.7081 C   0  0  1  0  0  0  0  0  0  0  0  0
   45.7495  -10.4810   -3.3159 C   0  0  0  0  0  0  0  0  0  0  0  0
   45.7589   -9.0409   -2.9557 C   0  0  0  0  0  0  0  0  0  0  0  0
   45.4348   -8.6871   -1.5803 C   0  0  0  0  0  0  0  0  0  0  0  0
   44.2809   -8.1404   -1.4149 O   0  0  0  0  0  0  0  0  0  0  0  0
   45.4217  -10.0516   -5.7335 C   0  0  0  0  0  0  0  0  0  0  0  0
   45.9171   -9.0266   -6.2595 O   0  0  0  0  0  0  0  0  0  0  0  0
   46.1973   -8.8595   -0.4547 O   0  0  0  0  0  0  0  0  0  0  0  0
   42.8028  -11.6843  -11.7888 N   0  0  0  0  0  0  0  0  0  0  0  0
   42.9496  -13.0466  -11.4135 C   0  0  0  0  0  0  0  0  0  0  0  0
   43.4502  -13.9179  -12.2078 N   0  0  0  0  0  0  0  0  0  0  0  0
   42.5376  -13.4982  -10.1175 N   0  0  0  0  0  0  0  0  0  0  0  0
   41.8899  -12.5648   -9.2251 C   0  0  0  0  0  0  0  0  0  0  0  0
   42.9065  -11.5699   -8.7366 C   0  0  0  0  0  0  0  0  0  0  0  0
   42.3051  -10.5881   -7.7479 C   0  0  0  0  0  0  0  0  0  0  0  0
   43.3944   -9.6718   -7.1768 C   0  0  2  0  0  0  0  0  0  0  0  0
   44.1072  -10.4216   -6.1894 N   0  0  0  0  0  0  0  0  0  0  0  0
   42.6999   -8.4850   -6.6658 C   0  0  0  0  0  0  0  0  0  0  0  0
   42.2285   -8.5535   -5.5053 O   0  0  0  0  0  0  0  0  0  0  0  0
   43.6471  -14.8961  -11.9583 N   0  0  0  0  0  0  0  0  0  0  0  0
   42.5309   -7.2603   -7.4111 C   0  0  2  0  0  0  0  0  0  0  0  0
   42.2554   -6.0381   -6.6988 C   0  0  0  0  0  0  0  0  0  0  0  0
   43.2453   -5.7245   -5.6490 C   0  0  0  0  0  0  0  0  0  0  0  0
   43.0831   -4.5215   -4.8660 C   0  0  0  0  0  0  0  0  0  0  0  0
   42.1131   -4.1004   -4.0072 N   0  0  0  0  0  0  0  0  0  0  0  0
   42.4279   -2.8772   -3.4830 C   0  0  0  0  0  0  0  0  0  0  0  0
   43.6058   -2.5658   -4.0394 N   0  0  0  0  0  0  0  0  0  0  0  0
   44.0250   -3.5248   -4.8690 C   0  0  0  0  0  0  0  0  0  0  0  0
   41.9690   -4.9080   -7.6118 O   0  0  0  0  0  0  0  0  0  0  0  0
   41.6186   -3.7005   -7.0965 O   0  0  0  0  0  0  0  0  0  0  0  0
  2  1  1  1
  3  2  1  0
  3  4  1  0
  4  5  1  0
  5  9  1  0
  6  5  2  0
  7  2  1  0
  8  7  2  0
 10 11  1  0
 11 12  2  0
 13 14  1  0
 13 11  1  0
 14 15  1  0
 16 15  1  0
 17 16  1  1
 17 18  1  0
 18  7  1  0
 19 21  1  0
 19 17  1  0
 20 19  2  0
 22 21  1  0
 22 29  1  0
 22 23  1  1
 23 24  1  0
 24 28  1  0
 24 25  2  0
 25 26  1  0
 27 26  1  0
 28 27  2  0
 29 30  1  0
 31 29  2  0
M  END
$$$$
