ERH.pdb
     RDKit          3D

 31 31  0  0  1  0  0  0  0  0999 V2000
   25.0906  -19.8598  -19.4962 N   0  0  0  0  0  0  0  0  0  0  0  0
   25.0269  -19.0688  -18.2934 C   0  0  1  0  0  0  0  0  0  0  0  0
   24.6793  -17.6314  -18.4903 C   0  0  0  0  0  0  0  0  0  0  0  0
   25.6834  -16.8092  -19.2109 C   0  0  0  0  0  0  0  0  0  0  0  0
   26.9164  -16.4805  -18.5082 C   0  0  0  0  0  0  0  0  0  0  0  0
   27.9951  -16.8957  -19.0754 O   0  0  0  0  0  0  0  0  0  0  0  0
   24.1250  -19.7543  -17.3403 C   0  0  0  0  0  0  0  0  0  0  0  0
   23.1347  -20.4050  -17.7509 O   0  0  0  0  0  0  0  0  0  0  0  0
   27.0686  -15.7949  -17.3314 O   0  0  0  0  0  0  0  0  0  0  0  0
   27.0355  -21.3072  -11.6541 N   0  0  0  0  0  0  0  0  0  0  0  0
   26.0881  -20.7781  -10.7372 C   0  0  0  0  0  0  0  0  0  0  0  0
   26.4290  -19.9774   -9.7974 N   0  0  0  0  0  0  0  0  0  0  0  0
   24.7014  -21.1262  -10.8336 N   0  0  0  0  0  0  0  0  0  0  0  0
   24.3118  -22.2110  -11.7046 C   0  0  0  0  0  0  0  0  0  0  0  0
   23.4772  -21.6602  -12.8281 C   0  0  0  0  0  0  0  0  0  0  0  0
   24.3127  -20.8638  -13.8134 C   0  0  0  0  0  0  0  0  0  0  0  0
   23.4561  -20.4281  -15.0087 C   0  0  2  0  0  0  0  0  0  0  0  0
   24.3127  -19.7257  -15.9131 N   0  0  0  0  0  0  0  0  0  0  0  0
   22.3596  -19.6280  -14.4524 C   0  0  0  0  0  0  0  0  0  0  0  0
   22.6538  -18.5021  -13.9837 O   0  0  0  0  0  0  0  0  0  0  0  0
   25.7750  -19.5225   -9.1467 N   0  0  0  0  0  0  0  0  0  0  0  0
   20.9814  -20.0557  -14.4143 C   0  0  1  0  0  0  0  0  0  0  0  0
   19.9471  -19.1226  -14.7837 C   0  0  0  0  0  0  0  0  0  0  0  0
   20.2470  -18.3552  -16.0090 C   0  0  0  0  0  0  0  0  0  0  0  0
   19.3148  -17.3446  -16.4520 C   0  0  0  0  0  0  0  0  0  0  0  0
   18.1515  -16.8661  -15.9290 N   0  0  0  0  0  0  0  0  0  0  0  0
   17.6375  -15.8743  -16.7178 C   0  0  0  0  0  0  0  0  0  0  0  0
   18.5106  -15.7608  -17.7272 N   0  0  0  0  0  0  0  0  0  0  0  0
   19.5227  -16.6228  -17.5993 C   0  0  0  0  0  0  0  0  0  0  0  0
   18.6024  -19.7428  -14.7769 O   0  0  0  0  0  0  0  0  0  0  0  0
   17.4981  -18.9525  -14.8226 O   0  0  0  0  0  0  0  0  0  0  0  0
  2  1  1  6
  3  2  1  0
  3  4  1  0
  4  5  1  0
  5  9  1  0
  6  5  2  0
  7  2  1  0
  8  7  2  0
 10 11  1  0
 11 12  2  0
 13 14  1  0
 13 11  1  0
 14 15  1  0
 16 15  1  0
 17 16  1  1
 17 18  1  0
 18  7  1  0
 19 21  1  0
 19 17  1  0
 20 19  2  0
 22 21  1  0
 22 29  1  0
 22 23  1  1
 23 24  1  0
 24 28  1  0
 24 25  2  0
 25 26  1  0
 27 26  1  0
 28 27  2  0
 29 30  1  0
 31 29  2  0
M  END
$$$$
