ERH.pdb
     RDKit          3D

 31 31  0  0  1  0  0  0  0  0999 V2000
   15.4737  -25.2847  -13.8630 N   0  0  0  0  0  0  0  0  0  0  0  0
   15.8197  -26.5588  -13.2858 C   0  0  1  0  0  0  0  0  0  0  0  0
   16.3022  -27.5890  -14.2511 C   0  0  0  0  0  0  0  0  0  0  0  0
   17.4908  -27.2201  -15.0603 C   0  0  0  0  0  0  0  0  0  0  0  0
   18.6397  -28.1147  -15.0186 C   0  0  0  0  0  0  0  0  0  0  0  0
   19.7650  -27.5459  -14.7583 O   0  0  0  0  0  0  0  0  0  0  0  0
   16.7710  -26.3176  -12.1773 C   0  0  0  0  0  0  0  0  0  0  0  0
   17.2182  -27.2725  -11.4983 O   0  0  0  0  0  0  0  0  0  0  0  0
   18.6714  -29.4695  -15.2221 O   0  0  0  0  0  0  0  0  0  0  0  0
   22.0610  -20.2958  -13.4671 N   0  0  0  0  0  0  0  0  0  0  0  0
   20.7557  -20.6674  -13.8871 C   0  0  0  0  0  0  0  0  0  0  0  0
   20.0907  -19.9687  -14.7298 N   0  0  0  0  0  0  0  0  0  0  0  0
   20.1307  -21.8512  -13.3760 N   0  0  0  0  0  0  0  0  0  0  0  0
   20.9253  -22.7897  -12.6177 C   0  0  0  0  0  0  0  0  0  0  0  0
   20.0618  -23.9574  -12.2267 C   0  0  0  0  0  0  0  0  0  0  0  0
   19.0416  -23.5757  -11.1700 C   0  0  0  0  0  0  0  0  0  0  0  0
   18.2034  -24.7971  -10.7724 C   0  0  2  0  0  0  0  0  0  0  0  0
   17.2394  -25.0074  -11.8077 N   0  0  0  0  0  0  0  0  0  0  0  0
   17.6352  -24.4885   -9.4557 C   0  0  0  0  0  0  0  0  0  0  0  0
   16.8615  -23.5036   -9.3831 O   0  0  0  0  0  0  0  0  0  0  0  0
   19.1481  -20.1997  -15.0707 N   0  0  0  0  0  0  0  0  0  0  0  0
   17.9111  -25.2426   -8.2561 C   0  0  1  0  0  0  0  0  0  0  0  0
   17.2692  -24.8598   -7.0239 C   0  0  0  0  0  0  0  0  0  0  0  0
   16.2873  -25.8468   -6.5320 C   0  0  0  0  0  0  0  0  0  0  0  0
   15.1633  -26.1980   -7.3686 C   0  0  0  0  0  0  0  0  0  0  0  0
   14.4159  -25.4886   -8.2594 N   0  0  0  0  0  0  0  0  0  0  0  0
   13.4606  -26.2828   -8.8311 C   0  0  0  0  0  0  0  0  0  0  0  0
   13.6435  -27.4855   -8.2708 N   0  0  0  0  0  0  0  0  0  0  0  0
   14.6510  -27.4698   -7.3942 C   0  0  0  0  0  0  0  0  0  0  0  0
   18.2410  -24.4163   -5.9983 O   0  0  0  0  0  0  0  0  0  0  0  0
   17.7907  -23.9297   -4.8123 O   0  0  0  0  0  0  0  0  0  0  0  0
  2  1  1  6
  3  2  1  0
  3  4  1  0
  4  5  1  0
  5  9  1  0
  6  5  2  0
  7  2  1  0
  8  7  2  0
 10 11  1  0
 11 12  2  0
 13 14  1  0
 13 11  1  0
 14 15  1  0
 16 15  1  0
 17 16  1  6
 17 18  1  0
 18  7  1  0
 19 21  1  0
 19 17  1  0
 20 19  2  0
 22 21  1  0
 22 29  1  0
 22 23  1  1
 23 24  1  0
 24 28  1  0
 24 25  2  0
 25 26  1  0
 27 26  1  0
 28 27  2  0
 29 30  1  0
 31 29  2  0
M  END
$$$$
