ERH.pdb
     RDKit          3D

 31 31  0  0  1  0  0  0  0  0999 V2000
   28.5758   -8.8999  -20.1744 N   0  0  0  0  0  0  0  0  0  0  0  0
   27.8914   -7.9244  -19.3644 C   0  0  1  0  0  0  0  0  0  0  0  0
   27.9484   -6.5211  -19.8675 C   0  0  0  0  0  0  0  0  0  0  0  0
   29.2942   -5.8960  -19.9085 C   0  0  0  0  0  0  0  0  0  0  0  0
   29.8249   -5.3543  -18.6647 C   0  0  0  0  0  0  0  0  0  0  0  0
   28.9499   -5.1439  -17.7439 O   0  0  0  0  0  0  0  0  0  0  0  0
   26.5074   -8.4012  -19.1429 C   0  0  0  0  0  0  0  0  0  0  0  0
   25.7679   -8.6932  -20.1128 O   0  0  0  0  0  0  0  0  0  0  0  0
   31.1235   -5.0424  -18.3576 O   0  0  0  0  0  0  0  0  0  0  0  0
   23.1011  -14.6399  -14.3744 N   0  0  0  0  0  0  0  0  0  0  0  0
   21.9691  -14.0019  -14.9488 C   0  0  0  0  0  0  0  0  0  0  0  0
   20.7967  -14.5134  -14.8820 N   0  0  0  0  0  0  0  0  0  0  0  0
   22.1018  -12.7487  -15.6309 N   0  0  0  0  0  0  0  0  0  0  0  0
   23.3675  -12.0542  -15.5775 C   0  0  0  0  0  0  0  0  0  0  0  0
   23.3135  -10.8682  -16.5009 C   0  0  0  0  0  0  0  0  0  0  0  0
   24.6645  -10.1880  -16.6251 C   0  0  0  0  0  0  0  0  0  0  0  0
   24.5920   -9.0396  -17.6390 C   0  0  2  0  0  0  0  0  0  0  0  0
   25.9250   -8.5604  -17.8359 N   0  0  0  0  0  0  0  0  0  0  0  0
   23.6617   -8.0565  -17.0734 C   0  0  0  0  0  0  0  0  0  0  0  0
   24.0200   -7.4667  -16.0258 O   0  0  0  0  0  0  0  0  0  0  0  0
   19.9411  -14.0711  -15.2429 N   0  0  0  0  0  0  0  0  0  0  0  0
   22.3762   -7.7334  -17.6452 C   0  0  2  0  0  0  0  0  0  0  0  0
   21.4994   -6.8351  -16.9371 C   0  0  0  0  0  0  0  0  0  0  0  0
   20.4021   -6.2973  -17.7659 C   0  0  0  0  0  0  0  0  0  0  0  0
   19.4428   -5.3991  -17.1662 C   0  0  0  0  0  0  0  0  0  0  0  0
   18.2444   -5.6019  -16.5513 N   0  0  0  0  0  0  0  0  0  0  0  0
   17.7146   -4.4173  -16.1199 C   0  0  0  0  0  0  0  0  0  0  0  0
   18.6139   -3.4940  -16.4843 N   0  0  0  0  0  0  0  0  0  0  0  0
   19.6567   -4.0457  -17.1103 C   0  0  0  0  0  0  0  0  0  0  0  0
   21.0550   -7.3911  -15.6386 O   0  0  0  0  0  0  0  0  0  0  0  0
   20.9564   -6.5746  -14.5570 O   0  0  0  0  0  0  0  0  0  0  0  0
  2  1  1  6
  3  2  1  0
  3  4  1  0
  4  5  1  0
  5  9  1  0
  6  5  2  0
  7  2  1  0
  8  7  2  0
 10 11  1  0
 11 12  2  0
 13 14  1  0
 13 11  1  0
 14 15  1  0
 16 15  1  0
 17 16  1  1
 17 18  1  0
 18  7  1  0
 19 21  1  0
 19 17  1  0
 20 19  2  0
 22 21  1  0
 22 29  1  0
 22 23  1  6
 23 24  1  0
 24 28  1  0
 24 25  2  0
 25 26  1  0
 27 26  1  0
 28 27  2  0
 29 30  1  0
 31 29  2  0
M  END
$$$$
