ERH.pdb
     RDKit          3D

 31 31  0  0  1  0  0  0  0  0999 V2000
   26.7308  -18.8344  -16.8906 N   0  0  0  0  0  0  0  0  0  0  0  0
   25.6106  -17.9374  -17.0207 C   0  0  1  0  0  0  0  0  0  0  0  0
   25.4413  -17.3158  -18.3663 C   0  0  0  0  0  0  0  0  0  0  0  0
   25.0894  -18.2401  -19.4733 C   0  0  0  0  0  0  0  0  0  0  0  0
   24.7832  -17.6533  -20.7709 C   0  0  0  0  0  0  0  0  0  0  0  0
   23.5427  -17.3655  -20.9605 O   0  0  0  0  0  0  0  0  0  0  0  0
   24.3972  -18.6480  -16.5576 C   0  0  0  0  0  0  0  0  0  0  0  0
   24.3467  -19.9010  -16.5660 O   0  0  0  0  0  0  0  0  0  0  0  0
   25.6406  -17.3753  -21.8032 O   0  0  0  0  0  0  0  0  0  0  0  0
   20.3269  -19.3383   -9.1996 N   0  0  0  0  0  0  0  0  0  0  0  0
   19.7550  -20.3249  -10.0468 C   0  0  0  0  0  0  0  0  0  0  0  0
   18.8756  -21.1543   -9.6232 N   0  0  0  0  0  0  0  0  0  0  0  0
   20.1470  -20.4272  -11.4213 N   0  0  0  0  0  0  0  0  0  0  0  0
   21.1283  -19.5020  -11.9391 C   0  0  0  0  0  0  0  0  0  0  0  0
   21.2776  -19.7254  -13.4190 C   0  0  0  0  0  0  0  0  0  0  0  0
   22.3147  -18.7996  -14.0275 C   0  0  0  0  0  0  0  0  0  0  0  0
   22.0946  -18.6733  -15.5401 C   0  0  2  0  0  0  0  0  0  0  0  0
   23.2198  -17.9728  -16.0772 N   0  0  0  0  0  0  0  0  0  0  0  0
   20.8072  -17.9905  -15.7075 C   0  0  0  0  0  0  0  0  0  0  0  0
   20.6121  -16.9606  -15.0183 O   0  0  0  0  0  0  0  0  0  0  0  0
   18.4447  -21.8953  -10.1917 N   0  0  0  0  0  0  0  0  0  0  0  0
   19.7672  -18.4292  -16.6073 C   0  0  2  0  0  0  0  0  0  0  0  0
   18.8461  -19.4482  -16.1710 C   0  0  0  0  0  0  0  0  0  0  0  0
   19.5031  -20.6344  -15.5867 C   0  0  0  0  0  0  0  0  0  0  0  0
   18.6891  -21.7409  -15.1399 C   0  0  0  0  0  0  0  0  0  0  0  0
   17.5362  -22.2912  -15.6127 N   0  0  0  0  0  0  0  0  0  0  0  0
   17.1599  -23.3599  -14.8469 C   0  0  0  0  0  0  0  0  0  0  0  0
   18.1058  -23.4468  -13.9026 N   0  0  0  0  0  0  0  0  0  0  0  0
   19.0328  -22.4964  -14.0484 C   0  0  0  0  0  0  0  0  0  0  0  0
   17.7511  -18.8972  -15.3402 O   0  0  0  0  0  0  0  0  0  0  0  0
   16.5213  -18.7113  -15.8874 O   0  0  0  0  0  0  0  0  0  0  0  0
  2  1  1  6
  3  2  1  0
  3  4  1  0
  4  5  1  0
  5  9  1  0
  6  5  2  0
  7  2  1  0
  8  7  2  0
 10 11  1  0
 11 12  2  0
 13 14  1  0
 13 11  1  0
 14 15  1  0
 16 15  1  0
 17 16  1  1
 17 18  1  0
 18  7  1  0
 19 21  1  0
 19 17  1  0
 20 19  2  0
 22 21  1  0
 22 29  1  0
 22 23  1  1
 23 24  1  0
 24 28  1  0
 24 25  2  0
 25 26  1  0
 27 26  1  0
 28 27  2  0
 29 30  1  0
 31 29  2  0
M  END
$$$$
