ERH.pdb
     RDKit          3D

 31 31  0  0  1  0  0  0  0  0999 V2000
   24.4048  -17.9514  -19.7118 N   0  0  0  0  0  0  0  0  0  0  0  0
   24.6909  -18.5688  -18.4417 C   0  0  1  0  0  0  0  0  0  0  0  0
   25.3716  -17.6936  -17.4434 C   0  0  0  0  0  0  0  0  0  0  0  0
   26.7418  -17.2441  -17.7956 C   0  0  0  0  0  0  0  0  0  0  0  0
   27.8546  -17.8340  -17.0637 C   0  0  0  0  0  0  0  0  0  0  0  0
   29.0229  -17.4477  -17.4426 O   0  0  0  0  0  0  0  0  0  0  0  0
   23.4361  -19.1624  -17.9267 C   0  0  0  0  0  0  0  0  0  0  0  0
   22.3525  -18.5359  -18.0044 O   0  0  0  0  0  0  0  0  0  0  0  0
   27.8129  -18.7399  -16.0362 O   0  0  0  0  0  0  0  0  0  0  0  0
   24.0108  -25.7233  -15.7779 N   0  0  0  0  0  0  0  0  0  0  0  0
   23.5441  -25.3019  -14.5039 C   0  0  0  0  0  0  0  0  0  0  0  0
   24.2329  -25.4770  -13.4383 N   0  0  0  0  0  0  0  0  0  0  0  0
   22.2712  -24.6585  -14.3658 N   0  0  0  0  0  0  0  0  0  0  0  0
   21.4083  -24.5607  -15.5203 C   0  0  0  0  0  0  0  0  0  0  0  0
   21.1839  -23.1085  -15.8411 C   0  0  0  0  0  0  0  0  0  0  0  0
   22.4563  -22.4331  -16.3183 C   0  0  0  0  0  0  0  0  0  0  0  0
   22.1626  -20.9941  -16.7602 C   0  0  2  0  0  0  0  0  0  0  0  0
   23.3690  -20.4647  -17.3166 N   0  0  0  0  0  0  0  0  0  0  0  0
   21.6763  -20.2940  -15.5664 C   0  0  0  0  0  0  0  0  0  0  0  0
   22.5256  -19.6779  -14.8788 O   0  0  0  0  0  0  0  0  0  0  0  0
   23.9699  -25.1328  -12.5054 N   0  0  0  0  0  0  0  0  0  0  0  0
   20.2961  -20.2732  -15.1440 C   0  0  1  0  0  0  0  0  0  0  0  0
   19.7957  -19.1203  -14.4387 C   0  0  0  0  0  0  0  0  0  0  0  0
   20.0375  -17.8427  -15.1383 C   0  0  0  0  0  0  0  0  0  0  0  0
   19.5144  -16.6209  -14.5727 C   0  0  0  0  0  0  0  0  0  0  0  0
   19.3883  -16.1742  -13.2920 N   0  0  0  0  0  0  0  0  0  0  0  0
   18.8465  -14.9188  -13.2679 C   0  0  0  0  0  0  0  0  0  0  0  0
   18.6473  -14.6136  -14.5568 N   0  0  0  0  0  0  0  0  0  0  0  0
   19.0350  -15.6066  -15.3613 C   0  0  0  0  0  0  0  0  0  0  0  0
   18.3978  -19.3022  -13.9852 O   0  0  0  0  0  0  0  0  0  0  0  0
   17.4153  -19.5039  -14.9019 O   0  0  0  0  0  0  0  0  0  0  0  0
  2  1  1  6
  3  2  1  0
  3  4  1  0
  4  5  1  0
  5  9  1  0
  6  5  2  0
  7  2  1  0
  8  7  2  0
 10 11  1  0
 11 12  2  0
 13 14  1  0
 13 11  1  0
 14 15  1  0
 16 15  1  0
 17 16  1  1
 17 18  1  0
 18  7  1  0
 19 21  1  0
 19 17  1  0
 20 19  2  0
 22 21  1  0
 22 29  1  0
 22 23  1  1
 23 24  1  0
 24 28  1  0
 24 25  2  0
 25 26  1  0
 27 26  1  0
 28 27  2  0
 29 30  1  0
 31 29  2  0
M  END
$$$$
