ERH.pdb
     RDKit          3D

 31 31  0  0  1  0  0  0  0  0999 V2000
   20.0314  -27.4006  -10.8184 N   0  0  0  0  0  0  0  0  0  0  0  0
   19.6357  -27.0283  -12.1530 C   0  0  1  0  0  0  0  0  0  0  0  0
   18.1644  -26.9399  -12.3832 C   0  0  0  0  0  0  0  0  0  0  0  0
   17.3994  -28.2005  -12.2121 C   0  0  0  0  0  0  0  0  0  0  0  0
   17.0024  -28.5708  -10.8603 C   0  0  0  0  0  0  0  0  0  0  0  0
   16.7203  -27.5829  -10.0845 O   0  0  0  0  0  0  0  0  0  0  0  0
   20.3511  -25.7833  -12.5135 C   0  0  0  0  0  0  0  0  0  0  0  0
   20.4078  -24.8220  -11.7101 O   0  0  0  0  0  0  0  0  0  0  0  0
   16.8956  -29.8248  -10.3179 O   0  0  0  0  0  0  0  0  0  0  0  0
   27.0718  -26.6111  -16.2703 N   0  0  0  0  0  0  0  0  0  0  0  0
   25.8045  -27.1807  -16.5669 C   0  0  0  0  0  0  0  0  0  0  0  0
   25.6560  -28.4378  -16.7628 N   0  0  0  0  0  0  0  0  0  0  0  0
   24.6346  -26.3584  -16.6580 N   0  0  0  0  0  0  0  0  0  0  0  0
   24.7321  -24.9618  -16.3010 C   0  0  0  0  0  0  0  0  0  0  0  0
   23.8894  -24.7092  -15.0812 C   0  0  0  0  0  0  0  0  0  0  0  0
   22.4172  -24.5852  -15.4283 C   0  0  0  0  0  0  0  0  0  0  0  0
   21.5896  -24.3377  -14.1610 C   0  0  2  0  0  0  0  0  0  0  0  0
   21.0153  -25.5896  -13.7761 N   0  0  0  0  0  0  0  0  0  0  0  0
   20.6176  -23.2953  -14.5079 C   0  0  0  0  0  0  0  0  0  0  0  0
   19.4140  -23.5225  -14.2370 O   0  0  0  0  0  0  0  0  0  0  0  0
   24.7566  -28.9016  -16.9470 N   0  0  0  0  0  0  0  0  0  0  0  0
   20.9620  -22.0408  -15.1336 C   0  0  2  0  0  0  0  0  0  0  0  0
   20.6506  -20.8090  -14.4534 C   0  0  0  0  0  0  0  0  0  0  0  0
   21.1728  -20.7418  -13.0739 C   0  0  0  0  0  0  0  0  0  0  0  0
   20.9209  -19.5597  -12.2831 C   0  0  0  0  0  0  0  0  0  0  0  0
   20.2706  -18.3919  -12.5462 N   0  0  0  0  0  0  0  0  0  0  0  0
   20.2773  -17.5758  -11.4489 C   0  0  0  0  0  0  0  0  0  0  0  0
   20.9427  -18.2706  -10.5169 N   0  0  0  0  0  0  0  0  0  0  0  0
   21.3402  -19.4580  -10.9814 C   0  0  0  0  0  0  0  0  0  0  0  0
   20.9673  -19.6181  -15.2747 O   0  0  0  0  0  0  0  0  0  0  0  0
   20.6985  -18.3775  -14.7902 O   0  0  0  0  0  0  0  0  0  0  0  0
  2  1  1  1
  3  2  1  0
  3  4  1  0
  4  5  1  0
  5  9  1  0
  6  5  2  0
  7  2  1  0
  8  7  2  0
 10 11  1  0
 11 12  2  0
 13 14  1  0
 13 11  1  0
 14 15  1  0
 16 15  1  0
 17 16  1  6
 17 18  1  0
 18  7  1  0
 19 21  1  0
 19 17  1  0
 20 19  2  0
 22 21  1  0
 22 29  1  0
 22 23  1  1
 23 24  1  0
 24 28  1  0
 24 25  2  0
 25 26  1  0
 27 26  1  0
 28 27  2  0
 29 30  1  0
 31 29  2  0
M  END
$$$$
