ERH.pdb
     RDKit          3D

 31 31  0  0  1  0  0  0  0  0999 V2000
   20.6879  -14.1625  -17.3889 N   0  0  0  0  0  0  0  0  0  0  0  0
   21.0475  -13.2477  -16.3352 C   0  0  1  0  0  0  0  0  0  0  0  0
   22.5039  -13.1751  -16.0199 C   0  0  0  0  0  0  0  0  0  0  0  0
   23.4124  -12.9620  -17.1744 C   0  0  0  0  0  0  0  0  0  0  0  0
   24.8455  -12.9558  -16.9133 C   0  0  0  0  0  0  0  0  0  0  0  0
   25.4547  -11.8692  -17.2383 O   0  0  0  0  0  0  0  0  0  0  0  0
   20.4605  -11.9265  -16.6541 C   0  0  0  0  0  0  0  0  0  0  0  0
   20.5535  -11.4466  -17.8091 O   0  0  0  0  0  0  0  0  0  0  0  0
   25.6167  -13.9518  -16.3737 O   0  0  0  0  0  0  0  0  0  0  0  0
   13.0680  -11.3231  -13.7886 N   0  0  0  0  0  0  0  0  0  0  0  0
   13.3130  -11.7394  -15.1247 C   0  0  0  0  0  0  0  0  0  0  0  0
   12.4107  -12.3095  -15.8328 N   0  0  0  0  0  0  0  0  0  0  0  0
   14.5938  -11.5331  -15.7333 N   0  0  0  0  0  0  0  0  0  0  0  0
   15.5383  -10.6480  -15.0918 C   0  0  0  0  0  0  0  0  0  0  0  0
   16.8283  -10.6666  -15.8649 C   0  0  0  0  0  0  0  0  0  0  0  0
   17.8618   -9.7342  -15.2602 C   0  0  0  0  0  0  0  0  0  0  0  0
   19.1906   -9.8481  -16.0176 C   0  0  2  0  0  0  0  0  0  0  0  0
   19.7600  -11.1185  -15.6903 N   0  0  0  0  0  0  0  0  0  0  0  0
   19.9923   -8.6901  -15.6075 C   0  0  0  0  0  0  0  0  0  0  0  0
   20.4998   -8.7230  -14.4608 O   0  0  0  0  0  0  0  0  0  0  0  0
   12.5388  -12.6282  -16.8024 N   0  0  0  0  0  0  0  0  0  0  0  0
   20.2278   -7.5319  -16.4363 C   0  0  1  0  0  0  0  0  0  0  0  0
   21.0004   -6.4364  -15.9074 C   0  0  0  0  0  0  0  0  0  0  0  0
   22.0831   -5.9837  -16.8035 C   0  0  0  0  0  0  0  0  0  0  0  0
   23.1671   -6.8880  -17.1098 C   0  0  0  0  0  0  0  0  0  0  0  0
   23.2428   -8.2453  -17.1970 N   0  0  0  0  0  0  0  0  0  0  0  0
   24.5048   -8.6386  -17.5476 C   0  0  0  0  0  0  0  0  0  0  0  0
   25.1913   -7.4951  -17.6714 N   0  0  0  0  0  0  0  0  0  0  0  0
   24.4234   -6.4324  -17.4175 C   0  0  0  0  0  0  0  0  0  0  0  0
   20.1451   -5.3406  -15.3969 O   0  0  0  0  0  0  0  0  0  0  0  0
   20.7121   -4.3005  -14.7313 O   0  0  0  0  0  0  0  0  0  0  0  0
  2  1  1  6
  3  2  1  0
  3  4  1  0
  4  5  1  0
  5  9  1  0
  6  5  2  0
  7  2  1  0
  8  7  2  0
 10 11  1  0
 11 12  2  0
 13 14  1  0
 13 11  1  0
 14 15  1  0
 16 15  1  0
 17 16  1  1
 17 18  1  0
 18  7  1  0
 19 21  1  0
 19 17  1  0
 20 19  2  0
 22 21  1  0
 22 29  1  0
 22 23  1  1
 23 24  1  0
 24 28  1  0
 24 25  2  0
 25 26  1  0
 27 26  1  0
 28 27  2  0
 29 30  1  0
 31 29  2  0
M  END
$$$$
