ERH.pdb
     RDKit          3D

 31 31  0  0  1  0  0  0  0  0999 V2000
   16.9644  -11.4758    5.7510 N   0  0  0  0  0  0  0  0  0  0  0  0
   17.9737  -12.3282    5.1757 C   0  0  1  0  0  0  0  0  0  0  0  0
   19.3838  -11.9168    5.4368 C   0  0  0  0  0  0  0  0  0  0  0  0
   19.7853  -11.8294    6.8632 C   0  0  0  0  0  0  0  0  0  0  0  0
   21.1655  -11.4660    7.1548 C   0  0  0  0  0  0  0  0  0  0  0  0
   21.8886  -11.1978    6.1238 O   0  0  0  0  0  0  0  0  0  0  0  0
   17.6926  -13.7200    5.5948 C   0  0  0  0  0  0  0  0  0  0  0  0
   17.2986  -13.9709    6.7587 O   0  0  0  0  0  0  0  0  0  0  0  0
   21.7829  -11.3777    8.3750 O   0  0  0  0  0  0  0  0  0  0  0  0
   15.7707  -21.0786    0.9385 N   0  0  0  0  0  0  0  0  0  0  0  0
   15.6074  -21.4085    2.3106 C   0  0  0  0  0  0  0  0  0  0  0  0
   15.1193  -22.5325    2.6836 N   0  0  0  0  0  0  0  0  0  0  0  0
   15.9880  -20.4839    3.3370 N   0  0  0  0  0  0  0  0  0  0  0  0
   16.6099  -19.2361    2.9584 C   0  0  0  0  0  0  0  0  0  0  0  0
   16.8228  -18.4021    4.1918 C   0  0  0  0  0  0  0  0  0  0  0  0
   17.3843  -17.0325    3.8567 C   0  0  0  0  0  0  0  0  0  0  0  0
   17.5260  -16.1885    5.1294 C   0  0  2  0  0  0  0  0  0  0  0  0
   17.8462  -14.8553    4.7228 N   0  0  0  0  0  0  0  0  0  0  0  0
   18.5541  -16.8480    5.9417 C   0  0  0  0  0  0  0  0  0  0  0  0
   19.7372  -16.7837    5.5295 O   0  0  0  0  0  0  0  0  0  0  0  0
   14.9747  -22.8147    3.6621 N   0  0  0  0  0  0  0  0  0  0  0  0
   18.2862  -17.5562    7.1707 C   0  0  2  0  0  0  0  0  0  0  0  0
   19.3682  -18.2330    7.8403 C   0  0  0  0  0  0  0  0  0  0  0  0
   19.7019  -17.6619    9.1604 C   0  0  0  0  0  0  0  0  0  0  0  0
   20.6225  -16.5512    9.2340 C   0  0  0  0  0  0  0  0  0  0  0  0
   21.3098  -15.8550    8.2861 N   0  0  0  0  0  0  0  0  0  0  0  0
   22.0470  -14.8555    8.8586 C   0  0  0  0  0  0  0  0  0  0  0  0
   21.7934  -14.9591   10.1697 N   0  0  0  0  0  0  0  0  0  0  0  0
   20.9476  -15.9599   10.4278 C   0  0  0  0  0  0  0  0  0  0  0  0
   19.1916  -19.7033    7.8486 O   0  0  0  0  0  0  0  0  0  0  0  0
   18.0763  -20.2489    7.2967 O   0  0  0  0  0  0  0  0  0  0  0  0
  2  1  1  1
  3  2  1  0
  3  4  1  0
  4  5  1  0
  5  9  1  0
  6  5  2  0
  7  2  1  0
  8  7  2  0
 10 11  1  0
 11 12  2  0
 13 14  1  0
 13 11  1  0
 14 15  1  0
 16 15  1  0
 17 16  1  6
 17 18  1  0
 18  7  1  0
 19 21  1  0
 19 17  1  0
 20 19  2  0
 22 21  1  0
 22 29  1  0
 22 23  1  1
 23 24  1  0
 24 28  1  0
 24 25  2  0
 25 26  1  0
 27 26  1  0
 28 27  2  0
 29 30  1  0
 31 29  2  0
M  END
$$$$
