ERH.pdb
     RDKit          3D

 31 31  0  0  1  0  0  0  0  0999 V2000
   25.6090  -18.0805  -17.4643 N   0  0  0  0  0  0  0  0  0  0  0  0
   24.3764  -17.6619  -16.8464 C   0  0  1  0  0  0  0  0  0  0  0  0
   23.5961  -16.6397  -17.6027 C   0  0  0  0  0  0  0  0  0  0  0  0
   23.3195  -16.9516  -19.0274 C   0  0  0  0  0  0  0  0  0  0  0  0
   24.1679  -16.3254  -20.0325 C   0  0  0  0  0  0  0  0  0  0  0  0
   23.9339  -16.6865  -21.2459 O   0  0  0  0  0  0  0  0  0  0  0  0
   23.5858  -18.8735  -16.5319 C   0  0  0  0  0  0  0  0  0  0  0  0
   23.6487  -19.8876  -17.2671 O   0  0  0  0  0  0  0  0  0  0  0  0
   25.1735  -15.4127  -19.8487 O   0  0  0  0  0  0  0  0  0  0  0  0
   25.3959  -21.3805   -9.5183 N   0  0  0  0  0  0  0  0  0  0  0  0
   25.8034  -21.3120  -10.8775 C   0  0  0  0  0  0  0  0  0  0  0  0
   26.9562  -21.7183  -11.2604 N   0  0  0  0  0  0  0  0  0  0  0  0
   24.9279  -20.7794  -11.8791 N   0  0  0  0  0  0  0  0  0  0  0  0
   23.5861  -20.3976  -11.5036 C   0  0  0  0  0  0  0  0  0  0  0  0
   22.8911  -19.8119  -12.7019 C   0  0  0  0  0  0  0  0  0  0  0  0
   22.8257  -20.7977  -13.8538 C   0  0  0  0  0  0  0  0  0  0  0  0
   22.0528  -20.1910  -15.0315 C   0  0  2  0  0  0  0  0  0  0  0  0
   22.7120  -18.9743  -15.3921 N   0  0  0  0  0  0  0  0  0  0  0  0
   20.6702  -20.0284  -14.5691 C   0  0  0  0  0  0  0  0  0  0  0  0
   20.3735  -18.9375  -14.0252 O   0  0  0  0  0  0  0  0  0  0  0  0
   27.3349  -21.6019  -12.2096 N   0  0  0  0  0  0  0  0  0  0  0  0
   19.6461  -21.0370  -14.7026 C   0  0  2  0  0  0  0  0  0  0  0  0
   18.2996  -20.7280  -14.2921 C   0  0  0  0  0  0  0  0  0  0  0  0
   17.2614  -21.3737  -15.1201 C   0  0  0  0  0  0  0  0  0  0  0  0
   17.1035  -20.9639  -16.4962 C   0  0  0  0  0  0  0  0  0  0  0  0
   17.7297  -20.0255  -17.2596 N   0  0  0  0  0  0  0  0  0  0  0  0
   17.2363  -20.0307  -18.5351 C   0  0  0  0  0  0  0  0  0  0  0  0
   16.3007  -20.9892  -18.5300 N   0  0  0  0  0  0  0  0  0  0  0  0
   16.1961  -21.5658  -17.3298 C   0  0  0  0  0  0  0  0  0  0  0  0
   18.1021  -20.9041  -12.8351 O   0  0  0  0  0  0  0  0  0  0  0  0
   16.9538  -20.4664  -12.2554 O   0  0  0  0  0  0  0  0  0  0  0  0
  2  1  1  6
  3  2  1  0
  3  4  1  0
  4  5  1  0
  5  9  1  0
  6  5  2  0
  7  2  1  0
  8  7  2  0
 10 11  1  0
 11 12  2  0
 13 14  1  0
 13 11  1  0
 14 15  1  0
 16 15  1  0
 17 16  1  1
 17 18  1  0
 18  7  1  0
 19 21  1  0
 19 17  1  0
 20 19  2  0
 22 21  1  0
 22 29  1  0
 22 23  1  6
 23 24  1  0
 24 28  1  0
 24 25  2  0
 25 26  1  0
 27 26  1  0
 28 27  2  0
 29 30  1  0
 31 29  2  0
M  END
$$$$
