ERH.pdb
     RDKit          3D

 31 31  0  0  1  0  0  0  0  0999 V2000
   28.0933  -21.7534  -17.1546 N   0  0  0  0  0  0  0  0  0  0  0  0
   27.8810  -20.5701  -16.3601 C   0  0  1  0  0  0  0  0  0  0  0  0
   26.8417  -19.6316  -16.8747 C   0  0  0  0  0  0  0  0  0  0  0  0
   26.4071  -19.8439  -18.2781 C   0  0  0  0  0  0  0  0  0  0  0  0
   24.9751  -19.8970  -18.5404 C   0  0  0  0  0  0  0  0  0  0  0  0
   24.3773  -18.7567  -18.5380 O   0  0  0  0  0  0  0  0  0  0  0  0
   27.6340  -20.9934  -14.9630 C   0  0  0  0  0  0  0  0  0  0  0  0
   26.8656  -21.9518  -14.7108 O   0  0  0  0  0  0  0  0  0  0  0  0
   24.1946  -20.9967  -18.7840 O   0  0  0  0  0  0  0  0  0  0  0  0
   32.6170  -23.5944  -11.6779 N   0  0  0  0  0  0  0  0  0  0  0  0
   32.7343  -22.7434  -10.5464 C   0  0  0  0  0  0  0  0  0  0  0  0
   33.2417  -23.1499   -9.4428 N   0  0  0  0  0  0  0  0  0  0  0  0
   32.2837  -21.3843  -10.6017 N   0  0  0  0  0  0  0  0  0  0  0  0
   31.7335  -20.8799  -11.8387 C   0  0  0  0  0  0  0  0  0  0  0  0
   30.3651  -21.4703  -12.0416 C   0  0  0  0  0  0  0  0  0  0  0  0
   29.2672  -20.4900  -11.6720 C   0  0  0  0  0  0  0  0  0  0  0  0
   27.9973  -20.7819  -12.4809 C   0  0  2  0  0  0  0  0  0  0  0  0
   28.2401  -20.3547  -13.8239 N   0  0  0  0  0  0  0  0  0  0  0  0
   26.9089  -20.0749  -11.7973 C   0  0  0  0  0  0  0  0  0  0  0  0
   26.6909  -18.8890  -12.1434 O   0  0  0  0  0  0  0  0  0  0  0  0
   33.3802  -22.5642   -8.6087 N   0  0  0  0  0  0  0  0  0  0  0  0
   26.0859  -20.6575  -10.7643 C   0  0  2  0  0  0  0  0  0  0  0  0
   24.6666  -20.4073  -10.7738 C   0  0  0  0  0  0  0  0  0  0  0  0
   24.0371  -20.5975  -12.0959 C   0  0  0  0  0  0  0  0  0  0  0  0
   22.6117  -20.4064  -12.2304 C   0  0  0  0  0  0  0  0  0  0  0  0
   21.6375  -20.0571  -11.3445 N   0  0  0  0  0  0  0  0  0  0  0  0
   20.4221  -19.9799  -11.9666 C   0  0  0  0  0  0  0  0  0  0  0  0
   20.6781  -20.2882  -13.2447 N   0  0  0  0  0  0  0  0  0  0  0  0
   21.9741  -20.5478  -13.4362 C   0  0  0  0  0  0  0  0  0  0  0  0
   23.9663  -21.1016   -9.6691 O   0  0  0  0  0  0  0  0  0  0  0  0
   22.7441  -20.6635   -9.2685 O   0  0  0  0  0  0  0  0  0  0  0  0
  2  1  1  6
  3  2  1  0
  3  4  1  0
  4  5  1  0
  5  9  1  0
  6  5  2  0
  7  2  1  0
  8  7  2  0
 10 11  1  0
 11 12  2  0
 13 14  1  0
 13 11  1  0
 14 15  1  0
 16 15  1  0
 17 16  1  1
 17 18  1  0
 18  7  1  0
 19 21  1  0
 19 17  1  0
 20 19  2  0
 22 21  1  0
 22 29  1  0
 22 23  1  6
 23 24  1  0
 24 28  1  0
 24 25  2  0
 25 26  1  0
 27 26  1  0
 28 27  2  0
 29 30  1  0
 31 29  2  0
M  END
$$$$
