QCR.pdb
     RDKit          3D

 27 26  0  0  1  0  0  0  0  0999 V2000
   22.9243  -21.9444  -15.7230 N   0  0  0  0  0  0  0  0  0  0  0  0
   22.2165  -20.7027  -15.6900 C   0  0  0  0  0  0  0  0  0  0  0  0
   22.5375  -19.7682  -16.4689 O   0  0  0  0  0  0  0  0  0  0  0  0
   21.1034  -20.5514  -14.7188 C   0  0  0  0  0  0  0  0  0  0  0  0
   20.9409  -21.8187  -13.9297 C   0  0  0  0  0  0  0  0  0  0  0  0
   20.9475  -21.6154  -12.4527 C   0  0  2  0  0  0  0  0  0  0  0  0
   19.7445  -21.0971  -11.9007 N   0  0  0  0  0  0  0  0  0  0  0  0
   22.1572  -20.8369  -12.0487 C   0  0  0  0  0  0  0  0  0  0  0  0
   22.0674  -19.6095  -11.7846 O   0  0  0  0  0  0  0  0  0  0  0  0
   23.3856  -21.5379  -11.9792 N   0  0  0  0  0  0  0  0  0  0  0  0
   24.6091  -20.8671  -11.6141 C   0  0  1  0  0  0  0  0  0  0  0  0
   25.4461  -21.7344  -10.6661 C   0  0  0  0  0  0  0  0  0  0  0  0
   26.9490  -20.8659  -10.1890 S   0  0  0  0  0  0  0  0  0  0  0  0
   25.4402  -20.6670  -12.8410 C   0  0  0  0  0  0  0  0  0  0  0  0
   25.6302  -21.6204  -13.6466 O   0  0  0  0  0  0  0  0  0  0  0  0
   27.0769  -14.0833  -16.6618 N   0  0  0  0  0  0  0  0  0  0  0  0
   27.5660  -14.8730  -17.7421 C   0  0  0  0  0  0  0  0  0  0  0  0
   28.4306  -14.3920  -18.5699 N   0  0  0  0  0  0  0  0  0  0  0  0
   27.1260  -16.2064  -17.9489 N   0  0  0  0  0  0  0  0  0  0  0  0
   26.4656  -16.9670  -16.8420 C   0  0  0  0  0  0  0  0  0  0  0  0
   27.3420  -16.9735  -15.6515 C   0  0  0  0  0  0  0  0  0  0  0  0
   27.0613  -17.7580  -14.4697 C   0  0  0  0  0  0  0  0  0  0  0  0
   26.7659  -19.2070  -14.4472 C   0  0  2  0  0  0  0  0  0  0  0  0
   26.0289  -19.4329  -13.1360 N   0  0  0  0  0  0  0  0  0  0  0  0
   27.8636  -20.1677  -14.4645 C   0  0  0  0  0  0  0  0  0  0  0  0
   28.4904  -20.6611  -13.3477 O   0  0  0  0  0  0  0  0  0  0  0  0
   28.3358  -20.6236  -15.5769 O   0  0  0  0  0  0  0  0  0  0  0  0
  2  1  1  0
  2  3  2  0
  4  2  1  0
  5  4  1  0
  5  6  1  0
  6  8  1  0
  6  7  1  6
  8  9  2  0
 10 11  1  0
 10  8  1  0
 11 12  1  1
 12 13  1  0
 14 11  1  0
 15 14  2  0
 16 17  1  0
 17 19  1  0
 18 17  2  0
 20 19  1  0
 21 22  1  0
 21 20  1  0
 23 24  1  0
 23 22  1  1
 24 14  1  0
 25 23  1  0
 26 25  1  0
 27 25  2  0
M  END
$$$$
