QCR.pdb
     RDKit          3D

 27 26  0  0  1  0  0  0  0  0999 V2000
   28.0361  -19.8528  -17.9486 N   0  0  0  0  0  0  0  0  0  0  0  0
   27.2493  -18.8385  -18.5778 C   0  0  0  0  0  0  0  0  0  0  0  0
   27.4110  -18.5749  -19.7974 O   0  0  0  0  0  0  0  0  0  0  0  0
   26.2464  -18.1136  -17.7569 C   0  0  0  0  0  0  0  0  0  0  0  0
   26.3306  -18.5716  -16.3292 C   0  0  0  0  0  0  0  0  0  0  0  0
   25.3977  -19.6861  -15.9966 C   0  0  2  0  0  0  0  0  0  0  0  0
   24.9423  -20.4540  -17.1028 N   0  0  0  0  0  0  0  0  0  0  0  0
   24.2833  -19.1819  -15.1386 C   0  0  0  0  0  0  0  0  0  0  0  0
   24.5239  -18.4412  -14.1498 O   0  0  0  0  0  0  0  0  0  0  0  0
   22.9679  -19.5726  -15.4889 N   0  0  0  0  0  0  0  0  0  0  0  0
   21.8405  -19.2319  -14.6564 C   0  0  1  0  0  0  0  0  0  0  0  0
   21.0291  -18.0880  -15.2763 C   0  0  0  0  0  0  0  0  0  0  0  0
   19.7478  -17.5423  -14.1357 S   0  0  0  0  0  0  0  0  0  0  0  0
   20.9177  -20.4061  -14.5811 C   0  0  0  0  0  0  0  0  0  0  0  0
   20.7070  -21.1197  -15.6012 O   0  0  0  0  0  0  0  0  0  0  0  0
   18.7559  -24.9143   -7.1728 N   0  0  0  0  0  0  0  0  0  0  0  0
   18.4986  -25.7483   -8.2989 C   0  0  0  0  0  0  0  0  0  0  0  0
   18.2343  -27.0013   -8.1430 N   0  0  0  0  0  0  0  0  0  0  0  0
   18.5229  -25.2394   -9.6237 N   0  0  0  0  0  0  0  0  0  0  0  0
   18.7934  -23.7889   -9.8736 C   0  0  0  0  0  0  0  0  0  0  0  0
   18.8916  -23.5450  -11.3283 C   0  0  0  0  0  0  0  0  0  0  0  0
   19.1871  -22.2466  -11.8923 C   0  0  0  0  0  0  0  0  0  0  0  0
   19.3209  -21.9433  -13.3336 C   0  0  2  0  0  0  0  0  0  0  0  0
   20.2636  -20.7512  -13.3938 N   0  0  0  0  0  0  0  0  0  0  0  0
   18.1413  -21.5650  -14.1040 C   0  0  0  0  0  0  0  0  0  0  0  0
   17.3979  -22.4261  -14.8719 O   0  0  0  0  0  0  0  0  0  0  0  0
   17.7132  -20.3465  -14.1167 O   0  0  0  0  0  0  0  0  0  0  0  0
  2  1  1  0
  2  3  2  0
  4  2  1  0
  5  4  1  0
  5  6  1  0
  6  8  1  0
  6  7  1  6
  8  9  2  0
 10 11  1  0
 10  8  1  0
 11 12  1  6
 12 13  1  0
 14 11  1  0
 15 14  2  0
 16 17  1  0
 17 19  1  0
 18 17  2  0
 20 19  1  0
 21 22  1  0
 21 20  1  0
 23 24  1  0
 23 22  1  1
 24 14  1  0
 25 23  1  0
 26 25  1  0
 27 25  2  0
M  END
$$$$
