QCR.pdb
     RDKit          3D

 27 26  0  0  1  0  0  0  0  0999 V2000
   26.2752  -21.4746  -17.8872 N   0  0  0  0  0  0  0  0  0  0  0  0
   27.5789  -20.9333  -17.6615 C   0  0  0  0  0  0  0  0  0  0  0  0
   28.1935  -20.3494  -18.5913 O   0  0  0  0  0  0  0  0  0  0  0  0
   28.1790  -21.0796  -16.3111 C   0  0  0  0  0  0  0  0  0  0  0  0
   27.1928  -21.7302  -15.3840 C   0  0  0  0  0  0  0  0  0  0  0  0
   26.2767  -20.7689  -14.7058 C   0  0  2  0  0  0  0  0  0  0  0  0
   26.7507  -19.4319  -14.6147 N   0  0  0  0  0  0  0  0  0  0  0  0
   25.8372  -21.3227  -13.3895 C   0  0  0  0  0  0  0  0  0  0  0  0
   25.5391  -22.5403  -13.2768 O   0  0  0  0  0  0  0  0  0  0  0  0
   25.7749  -20.4241  -12.2967 N   0  0  0  0  0  0  0  0  0  0  0  0
   25.2645  -20.8419  -11.0140 C   0  0  1  0  0  0  0  0  0  0  0  0
   25.8298  -19.9663   -9.8893 C   0  0  0  0  0  0  0  0  0  0  0  0
   25.2576  -20.5597   -8.2890 S   0  0  0  0  0  0  0  0  0  0  0  0
   23.7823  -20.6456  -10.9919 C   0  0  0  0  0  0  0  0  0  0  0  0
   23.2671  -19.6099  -11.4978 O   0  0  0  0  0  0  0  0  0  0  0  0
   16.6458  -24.0884   -9.3472 N   0  0  0  0  0  0  0  0  0  0  0  0
   17.6806  -25.0670   -9.3847 C   0  0  0  0  0  0  0  0  0  0  0  0
   17.5277  -26.1609  -10.0511 N   0  0  0  0  0  0  0  0  0  0  0  0
   18.9081  -24.8797   -8.6972 N   0  0  0  0  0  0  0  0  0  0  0  0
   19.1781  -23.6047   -7.9616 C   0  0  0  0  0  0  0  0  0  0  0  0
   19.5887  -22.5558   -8.9189 C   0  0  0  0  0  0  0  0  0  0  0  0
   20.9682  -22.3106   -9.2766 C   0  0  0  0  0  0  0  0  0  0  0  0
   21.4394  -21.3069  -10.2554 C   0  0  2  0  0  0  0  0  0  0  0  0
   22.9249  -21.5899  -10.4173 N   0  0  0  0  0  0  0  0  0  0  0  0
   21.3304  -19.8864   -9.9417 C   0  0  0  0  0  0  0  0  0  0  0  0
   22.2460  -19.1736   -9.2087 O   0  0  0  0  0  0  0  0  0  0  0  0
   20.3211  -19.1881  -10.3440 O   0  0  0  0  0  0  0  0  0  0  0  0
  2  1  1  0
  2  3  2  0
  4  2  1  0
  5  4  1  0
  5  6  1  0
  6  8  1  0
  6  7  1  1
  8  9  2  0
 10 11  1  0
 10  8  1  0
 11 12  1  1
 12 13  1  0
 14 11  1  0
 15 14  2  0
 16 17  1  0
 17 19  1  0
 18 17  2  0
 20 19  1  0
 21 22  1  0
 21 20  1  0
 23 24  1  0
 23 22  1  1
 24 14  1  0
 25 23  1  0
 26 25  1  0
 27 25  2  0
M  END
$$$$
