QCR.pdb
     RDKit          3D

 27 26  0  0  1  0  0  0  0  0999 V2000
   27.1445  -20.7934   -9.9554 N   0  0  0  0  0  0  0  0  0  0  0  0
   25.9544  -21.5705  -10.1089 C   0  0  0  0  0  0  0  0  0  0  0  0
   25.8400  -22.6786   -9.5240 O   0  0  0  0  0  0  0  0  0  0  0  0
   24.8695  -21.0358  -10.9703 C   0  0  0  0  0  0  0  0  0  0  0  0
   25.3351  -19.7837  -11.6565 C   0  0  0  0  0  0  0  0  0  0  0  0
   25.5314  -19.9381  -13.1265 C   0  0  2  0  0  0  0  0  0  0  0  0
   26.6932  -20.6583  -13.5166 N   0  0  0  0  0  0  0  0  0  0  0  0
   25.4150  -18.6098  -13.8006 C   0  0  0  0  0  0  0  0  0  0  0  0
   24.7997  -17.6633  -13.2441 O   0  0  0  0  0  0  0  0  0  0  0  0
   26.0213  -18.4736  -15.0732 N   0  0  0  0  0  0  0  0  0  0  0  0
   26.0259  -17.2092  -15.7671 C   0  0  1  0  0  0  0  0  0  0  0  0
   27.4592  -16.7618  -16.0785 C   0  0  0  0  0  0  0  0  0  0  0  0
   28.4317  -18.1541  -16.6755 S   0  0  0  0  0  0  0  0  0  0  0  0
   25.3436  -17.3752  -17.0873 C   0  0  0  0  0  0  0  0  0  0  0  0
   25.6157  -18.3610  -17.8277 O   0  0  0  0  0  0  0  0  0  0  0  0
   19.7465  -18.0336  -13.9432 N   0  0  0  0  0  0  0  0  0  0  0  0
   19.1313  -18.4549  -15.1574 C   0  0  0  0  0  0  0  0  0  0  0  0
   17.8974  -18.8307  -15.1739 N   0  0  0  0  0  0  0  0  0  0  0  0
   19.8441  -18.4781  -16.3845 N   0  0  0  0  0  0  0  0  0  0  0  0
   21.2907  -18.0968  -16.4282 C   0  0  0  0  0  0  0  0  0  0  0  0
   21.7625  -18.0961  -17.8291 C   0  0  0  0  0  0  0  0  0  0  0  0
   22.2617  -16.9123  -18.4928 C   0  0  0  0  0  0  0  0  0  0  0  0
   23.6710  -16.6629  -18.8659 C   0  0  2  0  0  0  0  0  0  0  0  0
   24.3923  -16.4564  -17.5430 N   0  0  0  0  0  0  0  0  0  0  0  0
   24.0051  -15.5086  -19.6930 C   0  0  0  0  0  0  0  0  0  0  0  0
   24.0320  -15.5095  -21.0652 O   0  0  0  0  0  0  0  0  0  0  0  0
   24.3162  -14.3730  -19.1620 O   0  0  0  0  0  0  0  0  0  0  0  0
  2  1  1  0
  2  3  2  0
  4  2  1  0
  5  4  1  0
  5  6  1  0
  6  8  1  0
  6  7  1  1
  8  9  2  0
 10 11  1  0
 10  8  1  0
 11 12  1  6
 12 13  1  0
 14 11  1  0
 15 14  2  0
 16 17  1  0
 17 19  1  0
 18 17  2  0
 20 19  1  0
 21 22  1  0
 21 20  1  0
 23 24  1  0
 23 22  1  1
 24 14  1  0
 25 23  1  0
 26 25  1  0
 27 25  2  0
M  END
$$$$
