QCR.pdb
     RDKit          3D

 27 26  0  0  1  0  0  0  0  0999 V2000
   15.2541  -31.4850   -6.4946 N   0  0  0  0  0  0  0  0  0  0  0  0
   15.8752  -30.7027   -7.5173 C   0  0  0  0  0  0  0  0  0  0  0  0
   16.7213  -31.2236   -8.2892 O   0  0  0  0  0  0  0  0  0  0  0  0
   15.4953  -29.2724   -7.6394 C   0  0  0  0  0  0  0  0  0  0  0  0
   15.0400  -28.7514   -6.3066 C   0  0  0  0  0  0  0  0  0  0  0  0
   15.9124  -27.6794   -5.7472 C   0  0  2  0  0  0  0  0  0  0  0  0
   17.3083  -27.9459   -5.7820 N   0  0  0  0  0  0  0  0  0  0  0  0
   15.4285  -27.2815   -4.3908 C   0  0  0  0  0  0  0  0  0  0  0  0
   14.1977  -27.1409   -4.1682 O   0  0  0  0  0  0  0  0  0  0  0  0
   16.4072  -27.0752   -3.3882 N   0  0  0  0  0  0  0  0  0  0  0  0
   16.0326  -26.7468   -2.0347 C   0  0  1  0  0  0  0  0  0  0  0  0
   17.1420  -27.1367   -1.0506 C   0  0  0  0  0  0  0  0  0  0  0  0
   18.7354  -26.5398   -1.6381 S   0  0  0  0  0  0  0  0  0  0  0  0
   15.8732  -25.2645   -1.9191 C   0  0  0  0  0  0  0  0  0  0  0  0
   16.6419  -24.4879   -2.5515 O   0  0  0  0  0  0  0  0  0  0  0  0
    9.6212  -20.5254   -4.5152 N   0  0  0  0  0  0  0  0  0  0  0  0
   10.3552  -19.6127   -3.7039 C   0  0  0  0  0  0  0  0  0  0  0  0
   10.1944  -18.3395   -3.8354 N   0  0  0  0  0  0  0  0  0  0  0  0
   11.2834  -20.0629   -2.7291 N   0  0  0  0  0  0  0  0  0  0  0  0
   11.6469  -21.5119   -2.6407 C   0  0  0  0  0  0  0  0  0  0  0  0
   12.5788  -21.7228   -1.5127 C   0  0  0  0  0  0  0  0  0  0  0  0
   13.2300  -22.9876   -1.2534 C   0  0  0  0  0  0  0  0  0  0  0  0
   14.6833  -23.1858   -1.0636 C   0  0  2  0  0  0  0  0  0  0  0  0
   14.8800  -24.6930   -1.1168 N   0  0  0  0  0  0  0  0  0  0  0  0
   15.3173  -22.7388    0.1719 C   0  0  0  0  0  0  0  0  0  0  0  0
   15.8144  -21.4775    0.3854 O   0  0  0  0  0  0  0  0  0  0  0  0
   15.4619  -23.5377    1.1764 O   0  0  0  0  0  0  0  0  0  0  0  0
  2  1  1  0
  2  3  2  0
  4  2  1  0
  5  4  1  0
  5  6  1  0
  6  8  1  0
  6  7  1  1
  8  9  2  0
 10 11  1  0
 10  8  1  0
 11 12  1  1
 12 13  1  0
 14 11  1  0
 15 14  2  0
 16 17  1  0
 17 19  1  0
 18 17  2  0
 20 19  1  0
 21 22  1  0
 21 20  1  0
 23 24  1  0
 23 22  1  1
 24 14  1  0
 25 23  1  0
 26 25  1  0
 27 25  2  0
M  END
$$$$
