QCR.pdb
     RDKit          3D

 27 26  0  0  1  0  0  0  0  0999 V2000
   31.4570  -21.8280  -19.1965 N   0  0  0  0  0  0  0  0  0  0  0  0
   31.6645  -21.6391  -20.5982 C   0  0  0  0  0  0  0  0  0  0  0  0
   32.2665  -22.5129  -21.2743 O   0  0  0  0  0  0  0  0  0  0  0  0
   31.1535  -20.3937  -21.2250 C   0  0  0  0  0  0  0  0  0  0  0  0
   30.4771  -19.5431  -20.1886 C   0  0  0  0  0  0  0  0  0  0  0  0
   29.2389  -20.1511  -19.6226 C   0  0  2  0  0  0  0  0  0  0  0  0
   28.3880  -20.7942  -20.5624 N   0  0  0  0  0  0  0  0  0  0  0  0
   28.5209  -19.1534  -18.7733 C   0  0  0  0  0  0  0  0  0  0  0  0
   29.1603  -18.4060  -17.9879 O   0  0  0  0  0  0  0  0  0  0  0  0
   27.1113  -19.0931  -18.8956 N   0  0  0  0  0  0  0  0  0  0  0  0
   26.3296  -18.1864  -18.0913 C   0  0  1  0  0  0  0  0  0  0  0  0
   25.4266  -17.3142  -18.9718 C   0  0  0  0  0  0  0  0  0  0  0  0
   24.5294  -16.1254  -17.9609 S   0  0  0  0  0  0  0  0  0  0  0  0
   25.4162  -18.9789  -17.2116 C   0  0  0  0  0  0  0  0  0  0  0  0
   24.6808  -19.8807  -17.7014 O   0  0  0  0  0  0  0  0  0  0  0  0
   25.8537  -20.5081   -9.3919 N   0  0  0  0  0  0  0  0  0  0  0  0
   24.5142  -20.9907   -9.4469 C   0  0  0  0  0  0  0  0  0  0  0  0
   23.7777  -21.0095   -8.3880 N   0  0  0  0  0  0  0  0  0  0  0  0
   23.9427  -21.4654  -10.6562 N   0  0  0  0  0  0  0  0  0  0  0  0
   24.5746  -21.1385  -11.9729 C   0  0  0  0  0  0  0  0  0  0  0  0
   24.1592  -19.7861  -12.4015 C   0  0  0  0  0  0  0  0  0  0  0  0
   24.6831  -19.1374  -13.5829 C   0  0  0  0  0  0  0  0  0  0  0  0
   24.2924  -19.4398  -14.9770 C   0  0  2  0  0  0  0  0  0  0  0  0
   25.3450  -18.7523  -15.8331 N   0  0  0  0  0  0  0  0  0  0  0  0
   23.0013  -18.9833  -15.4798 C   0  0  0  0  0  0  0  0  0  0  0  0
   22.6963  -17.6809  -15.7868 O   0  0  0  0  0  0  0  0  0  0  0  0
   22.0261  -19.8095  -15.6660 O   0  0  0  0  0  0  0  0  0  0  0  0
  2  1  1  0
  2  3  2  0
  4  2  1  0
  5  4  1  0
  5  6  1  0
  6  8  1  0
  6  7  1  6
  8  9  2  0
 10 11  1  0
 10  8  1  0
 11 12  1  6
 12 13  1  0
 14 11  1  0
 15 14  2  0
 16 17  1  0
 17 19  1  0
 18 17  2  0
 20 19  1  0
 21 22  1  0
 21 20  1  0
 23 24  1  0
 23 22  1  1
 24 14  1  0
 25 23  1  0
 26 25  1  0
 27 25  2  0
M  END
$$$$
