QCR.pdb
     RDKit          3D

 27 26  0  0  1  0  0  0  0  0999 V2000
   18.0726  -31.8135   -5.0791 N   0  0  0  0  0  0  0  0  0  0  0  0
   17.3470  -32.9777   -4.6769 C   0  0  0  0  0  0  0  0  0  0  0  0
   17.7665  -34.1240   -4.9819 O   0  0  0  0  0  0  0  0  0  0  0  0
   16.0967  -32.7946   -3.8969 C   0  0  0  0  0  0  0  0  0  0  0  0
   15.7938  -31.3303   -3.7577 C   0  0  0  0  0  0  0  0  0  0  0  0
   16.3262  -30.7199   -2.5060 C   0  0  2  0  0  0  0  0  0  0  0  0
   15.7234  -31.1712   -1.3003 N   0  0  0  0  0  0  0  0  0  0  0  0
   16.3407  -29.2309   -2.6287 C   0  0  0  0  0  0  0  0  0  0  0  0
   15.3380  -28.5523   -2.2846 O   0  0  0  0  0  0  0  0  0  0  0  0
   17.5181  -28.6343   -3.1418 N   0  0  0  0  0  0  0  0  0  0  0  0
   17.6681  -27.2008   -3.1931 C   0  0  1  0  0  0  0  0  0  0  0  0
   19.0473  -26.7765   -2.6744 C   0  0  0  0  0  0  0  0  0  0  0  0
   19.1814  -27.1130   -0.9111 S   0  0  0  0  0  0  0  0  0  0  0  0
   17.6023  -26.7546   -4.6188 C   0  0  0  0  0  0  0  0  0  0  0  0
   18.0676  -27.4835   -5.5387 O   0  0  0  0  0  0  0  0  0  0  0  0
   13.1649  -24.8432  -11.1005 N   0  0  0  0  0  0  0  0  0  0  0  0
   13.4872  -23.4746  -10.8700 C   0  0  0  0  0  0  0  0  0  0  0  0
   13.1240  -22.5631  -11.7074 N   0  0  0  0  0  0  0  0  0  0  0  0
   14.2135  -23.0636   -9.7220 N   0  0  0  0  0  0  0  0  0  0  0  0
   14.6743  -24.0710   -8.7157 C   0  0  0  0  0  0  0  0  0  0  0  0
   15.2897  -23.3778   -7.5642 C   0  0  0  0  0  0  0  0  0  0  0  0
   15.8102  -24.0756   -6.4096 C   0  0  0  0  0  0  0  0  0  0  0  0
   16.8102  -25.1649   -6.4394 C   0  0  2  0  0  0  0  0  0  0  0  0
   17.0306  -25.5299   -4.9794 N   0  0  0  0  0  0  0  0  0  0  0  0
   18.1344  -24.9138   -6.9976 C   0  0  0  0  0  0  0  0  0  0  0  0
   18.4557  -25.0149   -8.3281 O   0  0  0  0  0  0  0  0  0  0  0  0
   19.1256  -24.5756   -6.2417 O   0  0  0  0  0  0  0  0  0  0  0  0
  2  1  1  0
  2  3  2  0
  4  2  1  0
  5  4  1  0
  5  6  1  0
  6  8  1  0
  6  7  1  1
  8  9  2  0
 10 11  1  0
 10  8  1  0
 11 12  1  6
 12 13  1  0
 14 11  1  0
 15 14  2  0
 16 17  1  0
 17 19  1  0
 18 17  2  0
 20 19  1  0
 21 22  1  0
 21 20  1  0
 23 24  1  0
 23 22  1  1
 24 14  1  0
 25 23  1  0
 26 25  1  0
 27 25  2  0
M  END
$$$$
