QCR.pdb
     RDKit          3D

 27 26  0  0  1  0  0  0  0  0999 V2000
   19.1437  -24.8774   -6.0931 N   0  0  0  0  0  0  0  0  0  0  0  0
   17.7756  -24.9958   -6.4906 C   0  0  0  0  0  0  0  0  0  0  0  0
   16.8808  -25.2054   -5.6313 O   0  0  0  0  0  0  0  0  0  0  0  0
   17.4467  -24.8655   -7.9327 C   0  0  0  0  0  0  0  0  0  0  0  0
   18.6947  -24.5711   -8.7146 C   0  0  0  0  0  0  0  0  0  0  0  0
   18.4628  -24.3897  -10.1762 C   0  0  2  0  0  0  0  0  0  0  0  0
   18.7067  -25.5354  -10.9816 N   0  0  0  0  0  0  0  0  0  0  0  0
   19.1811  -23.1725  -10.6611 C   0  0  0  0  0  0  0  0  0  0  0  0
   20.2482  -22.7985  -10.1083 O   0  0  0  0  0  0  0  0  0  0  0  0
   18.6103  -22.4754  -11.7537 N   0  0  0  0  0  0  0  0  0  0  0  0
   19.3011  -21.3759  -12.3814 C   0  0  1  0  0  0  0  0  0  0  0  0
   20.5400  -21.8693  -13.1384 C   0  0  0  0  0  0  0  0  0  0  0  0
   21.5802  -20.4771  -13.6076 S   0  0  0  0  0  0  0  0  0  0  0  0
   18.4040  -20.7577  -13.4057 C   0  0  0  0  0  0  0  0  0  0  0  0
   17.7796  -21.4828  -14.2293 O   0  0  0  0  0  0  0  0  0  0  0  0
   12.7718  -14.8305  -11.6031 N   0  0  0  0  0  0  0  0  0  0  0  0
   12.8681  -16.2514  -11.6483 C   0  0  0  0  0  0  0  0  0  0  0  0
   12.2067  -16.9824  -10.8163 N   0  0  0  0  0  0  0  0  0  0  0  0
   13.6873  -16.9124  -12.6002 N   0  0  0  0  0  0  0  0  0  0  0  0
   14.5427  -16.1240  -13.5418 C   0  0  0  0  0  0  0  0  0  0  0  0
   15.3721  -17.0439  -14.3487 C   0  0  0  0  0  0  0  0  0  0  0  0
   16.4916  -17.7797  -13.8044 C   0  0  0  0  0  0  0  0  0  0  0  0
   17.3218  -18.7563  -14.5423 C   0  0  2  0  0  0  0  0  0  0  0  0
   18.2271  -19.3725  -13.4868 N   0  0  0  0  0  0  0  0  0  0  0  0
   18.2020  -18.2942  -15.6100 C   0  0  0  0  0  0  0  0  0  0  0  0
   17.8156  -18.0916  -16.9112 O   0  0  0  0  0  0  0  0  0  0  0  0
   19.4499  -18.0459  -15.3875 O   0  0  0  0  0  0  0  0  0  0  0  0
  2  1  1  0
  2  3  2  0
  4  2  1  0
  5  4  1  0
  5  6  1  0
  6  8  1  0
  6  7  1  6
  8  9  2  0
 10 11  1  0
 10  8  1  0
 11 12  1  6
 12 13  1  0
 14 11  1  0
 15 14  2  0
 16 17  1  0
 17 19  1  0
 18 17  2  0
 20 19  1  0
 21 22  1  0
 21 20  1  0
 23 24  1  0
 23 22  1  1
 24 14  1  0
 25 23  1  0
 26 25  1  0
 27 25  2  0
M  END
$$$$
