QCR.pdb
     RDKit          3D

 27 26  0  0  1  0  0  0  0  0999 V2000
   27.3139  -18.7126  -17.4185 N   0  0  0  0  0  0  0  0  0  0  0  0
   27.9431  -17.5819  -16.8107 C   0  0  0  0  0  0  0  0  0  0  0  0
   28.4983  -16.7055  -17.5227 O   0  0  0  0  0  0  0  0  0  0  0  0
   27.9217  -17.4746  -15.3298 C   0  0  0  0  0  0  0  0  0  0  0  0
   27.1033  -18.5927  -14.7506 C   0  0  0  0  0  0  0  0  0  0  0  0
   27.8393  -19.4292  -13.7599 C   0  0  2  0  0  0  0  0  0  0  0  0
   29.0654  -19.9841  -14.2178 N   0  0  0  0  0  0  0  0  0  0  0  0
   26.9216  -20.4502  -13.1700 C   0  0  0  0  0  0  0  0  0  0  0  0
   26.5680  -21.4543  -13.8415 O   0  0  0  0  0  0  0  0  0  0  0  0
   26.4794  -20.2340  -11.8422 N   0  0  0  0  0  0  0  0  0  0  0  0
   25.4862  -21.0872  -11.2372 C   0  0  1  0  0  0  0  0  0  0  0  0
   25.2526  -20.7003   -9.7719 C   0  0  0  0  0  0  0  0  0  0  0  0
   26.7509  -20.9655   -8.8100 S   0  0  0  0  0  0  0  0  0  0  0  0
   24.1797  -20.8859  -11.9361 C   0  0  0  0  0  0  0  0  0  0  0  0
   23.9565  -19.8231  -12.5801 O   0  0  0  0  0  0  0  0  0  0  0  0
   20.0014  -26.2127  -16.1367 N   0  0  0  0  0  0  0  0  0  0  0  0
   21.1414  -25.8768  -16.9226 C   0  0  0  0  0  0  0  0  0  0  0  0
   21.0623  -25.8281  -18.2092 N   0  0  0  0  0  0  0  0  0  0  0  0
   22.3967  -25.5858  -16.3276 N   0  0  0  0  0  0  0  0  0  0  0  0
   22.5545  -25.6114  -14.8396 C   0  0  0  0  0  0  0  0  0  0  0  0
   21.9702  -24.3850  -14.2566 C   0  0  0  0  0  0  0  0  0  0  0  0
   22.7717  -23.2921  -13.7523 C   0  0  0  0  0  0  0  0  0  0  0  0
   22.2516  -22.0746  -13.0929 C   0  0  2  0  0  0  0  0  0  0  0  0
   23.1715  -21.8550  -11.9018 N   0  0  0  0  0  0  0  0  0  0  0  0
   20.8931  -22.0662  -12.5613 C   0  0  0  0  0  0  0  0  0  0  0  0
   19.7708  -21.7490  -13.2849 O   0  0  0  0  0  0  0  0  0  0  0  0
   20.6563  -22.3606  -11.3263 O   0  0  0  0  0  0  0  0  0  0  0  0
  2  1  1  0
  2  3  2  0
  4  2  1  0
  5  4  1  0
  5  6  1  0
  6  8  1  0
  6  7  1  6
  8  9  2  0
 10 11  1  0
 10  8  1  0
 11 12  1  1
 12 13  1  0
 14 11  1  0
 15 14  2  0
 16 17  1  0
 17 19  1  0
 18 17  2  0
 20 19  1  0
 21 22  1  0
 21 20  1  0
 23 24  1  0
 23 22  1  1
 24 14  1  0
 25 23  1  0
 26 25  1  0
 27 25  2  0
M  END
$$$$
