QCR.pdb
     RDKit          3D

 27 26  0  0  1  0  0  0  0  0999 V2000
   28.7903  -28.9993  -16.1066 N   0  0  0  0  0  0  0  0  0  0  0  0
   28.5669  -29.1123  -17.5141 C   0  0  0  0  0  0  0  0  0  0  0  0
   28.4099  -30.2431  -18.0431 O   0  0  0  0  0  0  0  0  0  0  0  0
   28.5263  -27.8681  -18.3237 C   0  0  0  0  0  0  0  0  0  0  0  0
   28.6022  -26.6708  -17.4204 C   0  0  0  0  0  0  0  0  0  0  0  0
   29.7002  -25.7229  -17.7653 C   0  0  2  0  0  0  0  0  0  0  0  0
   31.0167  -26.1874  -17.4973 N   0  0  0  0  0  0  0  0  0  0  0  0
   29.4232  -24.3806  -17.1704 C   0  0  0  0  0  0  0  0  0  0  0  0
   29.6755  -24.1554  -15.9580 O   0  0  0  0  0  0  0  0  0  0  0  0
   28.8732  -23.3941  -18.0247 N   0  0  0  0  0  0  0  0  0  0  0  0
   28.6027  -22.0598  -17.5485 C   0  0  1  0  0  0  0  0  0  0  0  0
   28.5523  -21.0635  -18.7130 C   0  0  0  0  0  0  0  0  0  0  0  0
   30.1929  -20.3961  -19.0347 S   0  0  0  0  0  0  0  0  0  0  0  0
   27.2477  -22.0332  -16.9165 C   0  0  0  0  0  0  0  0  0  0  0  0
   26.2465  -22.4949  -17.5317 O   0  0  0  0  0  0  0  0  0  0  0  0
   24.5277  -19.8494   -9.6203 N   0  0  0  0  0  0  0  0  0  0  0  0
   23.4048  -20.6544   -9.9683 C   0  0  0  0  0  0  0  0  0  0  0  0
   22.2116  -20.3016   -9.6278 N   0  0  0  0  0  0  0  0  0  0  0  0
   23.5524  -21.8642  -10.6956 N   0  0  0  0  0  0  0  0  0  0  0  0
   24.7710  -22.1024  -11.5312 C   0  0  0  0  0  0  0  0  0  0  0  0
   24.8690  -21.0610  -12.5757 C   0  0  0  0  0  0  0  0  0  0  0  0
   25.8775  -21.0754  -13.6119 C   0  0  0  0  0  0  0  0  0  0  0  0
   25.6520  -21.4333  -15.0291 C   0  0  2  0  0  0  0  0  0  0  0  0
   27.0438  -21.5027  -15.6383 N   0  0  0  0  0  0  0  0  0  0  0  0
   24.8802  -20.5390  -15.8852 C   0  0  0  0  0  0  0  0  0  0  0  0
   23.5364  -20.6609  -16.1359 O   0  0  0  0  0  0  0  0  0  0  0  0
   25.4394  -19.5437  -16.4893 O   0  0  0  0  0  0  0  0  0  0  0  0
  2  1  1  0
  2  3  2  0
  4  2  1  0
  5  4  1  0
  5  6  1  0
  6  8  1  0
  6  7  1  1
  8  9  2  0
 10 11  1  0
 10  8  1  0
 11 12  1  6
 12 13  1  0
 14 11  1  0
 15 14  2  0
 16 17  1  0
 17 19  1  0
 18 17  2  0
 20 19  1  0
 21 22  1  0
 21 20  1  0
 23 24  1  0
 23 22  1  1
 24 14  1  0
 25 23  1  0
 26 25  1  0
 27 25  2  0
M  END
$$$$
