QCR.pdb
     RDKit          3D

 27 26  0  0  1  0  0  0  0  0999 V2000
   26.6584  -18.5844  -16.7141 N   0  0  0  0  0  0  0  0  0  0  0  0
   27.4680  -18.8543  -17.8610 C   0  0  0  0  0  0  0  0  0  0  0  0
   28.0677  -17.9176  -18.4494 O   0  0  0  0  0  0  0  0  0  0  0  0
   27.5782  -20.2584  -18.3316 C   0  0  0  0  0  0  0  0  0  0  0  0
   26.8895  -21.1754  -17.3620 C   0  0  0  0  0  0  0  0  0  0  0  0
   27.6378  -21.3802  -16.0888 C   0  0  2  0  0  0  0  0  0  0  0  0
   28.8417  -22.1279  -16.1998 N   0  0  0  0  0  0  0  0  0  0  0  0
   26.7195  -21.9071  -15.0345 C   0  0  0  0  0  0  0  0  0  0  0  0
   26.1323  -23.0092  -15.1922 O   0  0  0  0  0  0  0  0  0  0  0  0
   26.5475  -21.1178  -13.8714 N   0  0  0  0  0  0  0  0  0  0  0  0
   25.7129  -21.5633  -12.7827 C   0  0  1  0  0  0  0  0  0  0  0  0
   26.0488  -20.8072  -11.4916 C   0  0  0  0  0  0  0  0  0  0  0  0
   25.0056  -21.3827  -10.1421 S   0  0  0  0  0  0  0  0  0  0  0  0
   24.2873  -21.2400  -13.0977 C   0  0  0  0  0  0  0  0  0  0  0  0
   23.9672  -20.0864  -13.4986 O   0  0  0  0  0  0  0  0  0  0  0  0
   17.3551  -27.0945  -14.1786 N   0  0  0  0  0  0  0  0  0  0  0  0
   17.1089  -25.8713  -14.8665 C   0  0  0  0  0  0  0  0  0  0  0  0
   16.1847  -25.7953  -15.7633 N   0  0  0  0  0  0  0  0  0  0  0  0
   17.8630  -24.6998  -14.5959 N   0  0  0  0  0  0  0  0  0  0  0  0
   19.3260  -24.7927  -14.2948 C   0  0  0  0  0  0  0  0  0  0  0  0
   19.8556  -23.4485  -13.9818 C   0  0  0  0  0  0  0  0  0  0  0  0
   21.2557  -23.1919  -13.7274 C   0  0  0  0  0  0  0  0  0  0  0  0
   21.8416  -21.8799  -13.3769 C   0  0  2  0  0  0  0  0  0  0  0  0
   23.2710  -22.1914  -12.9610 N   0  0  0  0  0  0  0  0  0  0  0  0
   21.2647  -21.0998  -12.2874 C   0  0  0  0  0  0  0  0  0  0  0  0
   20.2455  -20.1915  -12.4286 O   0  0  0  0  0  0  0  0  0  0  0  0
   21.7014  -21.2158  -11.0775 O   0  0  0  0  0  0  0  0  0  0  0  0
  2  1  1  0
  2  3  2  0
  4  2  1  0
  5  4  1  0
  5  6  1  0
  6  8  1  0
  6  7  1  6
  8  9  2  0
 10 11  1  0
 10  8  1  0
 11 12  1  1
 12 13  1  0
 14 11  1  0
 15 14  2  0
 16 17  1  0
 17 19  1  0
 18 17  2  0
 20 19  1  0
 21 22  1  0
 21 20  1  0
 23 24  1  0
 23 22  1  1
 24 14  1  0
 25 23  1  0
 26 25  1  0
 27 25  2  0
M  END
$$$$
