QCR.pdb
     RDKit          3D

 27 26  0  0  1  0  0  0  0  0999 V2000
   15.9730  -12.0771  -14.7689 N   0  0  0  0  0  0  0  0  0  0  0  0
   15.8683  -11.0654  -15.7735 C   0  0  0  0  0  0  0  0  0  0  0  0
   14.8988  -11.0650  -16.5754 O   0  0  0  0  0  0  0  0  0  0  0  0
   16.9273  -10.0266  -15.8410 C   0  0  0  0  0  0  0  0  0  0  0  0
   17.9973  -10.3246  -14.8302 C   0  0  0  0  0  0  0  0  0  0  0  0
   19.0950   -9.3161  -14.7977 C   0  0  2  0  0  0  0  0  0  0  0  0
   20.3040   -9.7063  -15.4354 N   0  0  0  0  0  0  0  0  0  0  0  0
   19.3033   -8.8313  -13.3998 C   0  0  0  0  0  0  0  0  0  0  0  0
   19.1338   -9.6071  -12.4233 O   0  0  0  0  0  0  0  0  0  0  0  0
   19.6941   -7.4803  -13.2339 N   0  0  0  0  0  0  0  0  0  0  0  0
   19.8649   -6.9077  -11.9212 C   0  0  1  0  0  0  0  0  0  0  0  0
   20.9772   -5.8522  -11.9258 C   0  0  0  0  0  0  0  0  0  0  0  0
   22.5530   -6.6081  -12.3572 S   0  0  0  0  0  0  0  0  0  0  0  0
   18.6105   -6.1914  -11.5349 C   0  0  0  0  0  0  0  0  0  0  0  0
   17.9785   -5.5052  -12.3856 O   0  0  0  0  0  0  0  0  0  0  0  0
   11.9771   -9.7256   -7.0495 N   0  0  0  0  0  0  0  0  0  0  0  0
   11.7187   -8.3245   -7.0398 C   0  0  0  0  0  0  0  0  0  0  0  0
   10.6861   -7.8501   -6.4293 N   0  0  0  0  0  0  0  0  0  0  0  0
   12.5779   -7.4041   -7.6950 N   0  0  0  0  0  0  0  0  0  0  0  0
   13.9964   -7.7739   -7.9966 C   0  0  0  0  0  0  0  0  0  0  0  0
   14.6596   -6.6611   -8.7086 C   0  0  0  0  0  0  0  0  0  0  0  0
   16.0379   -6.7126   -9.1429 C   0  0  0  0  0  0  0  0  0  0  0  0
   16.7459   -5.6515   -9.8914 C   0  0  2  0  0  0  0  0  0  0  0  0
   18.0992   -6.2550  -10.2343 N   0  0  0  0  0  0  0  0  0  0  0  0
   17.0253   -4.3748   -9.2432 C   0  0  0  0  0  0  0  0  0  0  0  0
   16.1821   -3.2919   -9.2497 O   0  0  0  0  0  0  0  0  0  0  0  0
   18.1309   -4.1763   -8.6056 O   0  0  0  0  0  0  0  0  0  0  0  0
  2  1  1  0
  2  3  2  0
  4  2  1  0
  5  4  1  0
  5  6  1  0
  6  8  1  0
  6  7  1  1
  8  9  2  0
 10 11  1  0
 10  8  1  0
 11 12  1  6
 12 13  1  0
 14 11  1  0
 15 14  2  0
 16 17  1  0
 17 19  1  0
 18 17  2  0
 20 19  1  0
 21 22  1  0
 21 20  1  0
 23 24  1  0
 23 22  1  1
 24 14  1  0
 25 23  1  0
 26 25  1  0
 27 25  2  0
M  END
$$$$
