QCR.pdb
     RDKit          3D

 27 26  0  0  1  0  0  0  0  0999 V2000
   16.9790  -23.7838  -10.6875 N   0  0  0  0  0  0  0  0  0  0  0  0
   18.3726  -23.5293  -10.4953 C   0  0  0  0  0  0  0  0  0  0  0  0
   19.0758  -23.0969  -11.4448 O   0  0  0  0  0  0  0  0  0  0  0  0
   18.9583  -23.7882   -9.1555 C   0  0  0  0  0  0  0  0  0  0  0  0
   17.9026  -24.3292   -8.2346 C   0  0  0  0  0  0  0  0  0  0  0  0
   18.2269  -25.6682   -7.6646 C   0  0  2  0  0  0  0  0  0  0  0  0
   18.3625  -26.7200   -8.6112 N   0  0  0  0  0  0  0  0  0  0  0  0
   17.2773  -25.9975   -6.5592 C   0  0  0  0  0  0  0  0  0  0  0  0
   16.0461  -26.1196   -6.7905 O   0  0  0  0  0  0  0  0  0  0  0  0
   17.8235  -26.1623   -5.2630 N   0  0  0  0  0  0  0  0  0  0  0  0
   16.9776  -26.4128   -4.1220 C   0  0  1  0  0  0  0  0  0  0  0  0
   17.7744  -27.0590   -2.9823 C   0  0  0  0  0  0  0  0  0  0  0  0
   16.9021  -26.8604   -1.4202 S   0  0  0  0  0  0  0  0  0  0  0  0
   16.4741  -25.1081   -3.5927 C   0  0  0  0  0  0  0  0  0  0  0  0
   17.2377  -24.1043   -3.5352 O   0  0  0  0  0  0  0  0  0  0  0  0
    9.1234  -20.6954   -5.3210 N   0  0  0  0  0  0  0  0  0  0  0  0
    9.9301  -19.8504   -4.5053 C   0  0  0  0  0  0  0  0  0  0  0  0
    9.5857  -18.6274   -4.2824 N   0  0  0  0  0  0  0  0  0  0  0  0
   11.1326  -20.3154   -3.9118 N   0  0  0  0  0  0  0  0  0  0  0  0
   11.6899  -21.6552   -4.2780 C   0  0  0  0  0  0  0  0  0  0  0  0
   12.8258  -21.9807   -3.3897 C   0  0  0  0  0  0  0  0  0  0  0  0
   13.5694  -23.2175   -3.4811 C   0  0  0  0  0  0  0  0  0  0  0  0
   14.6672  -23.6317   -2.5807 C   0  0  2  0  0  0  0  0  0  0  0  0
   15.1566  -24.9552   -3.1482 N   0  0  0  0  0  0  0  0  0  0  0  0
   14.3899  -23.8750   -1.1692 C   0  0  0  0  0  0  0  0  0  0  0  0
   14.3013  -22.8987   -0.2087 O   0  0  0  0  0  0  0  0  0  0  0  0
   14.2119  -25.0726   -0.7194 O   0  0  0  0  0  0  0  0  0  0  0  0
  2  1  1  0
  2  3  2  0
  4  2  1  0
  5  4  1  0
  5  6  1  0
  6  8  1  0
  6  7  1  6
  8  9  2  0
 10 11  1  0
 10  8  1  0
 11 12  1  1
 12 13  1  0
 14 11  1  0
 15 14  2  0
 16 17  1  0
 17 19  1  0
 18 17  2  0
 20 19  1  0
 21 22  1  0
 21 20  1  0
 23 24  1  0
 23 22  1  6
 24 14  1  0
 25 23  1  0
 26 25  1  0
 27 25  2  0
M  END
$$$$
