QCR.pdb
     RDKit          3D

 27 26  0  0  1  0  0  0  0  0999 V2000
   27.5956  -13.6063  -15.6421 N   0  0  0  0  0  0  0  0  0  0  0  0
   26.2467  -13.7447  -16.0949 C   0  0  0  0  0  0  0  0  0  0  0  0
   25.6316  -12.7550  -16.5693 O   0  0  0  0  0  0  0  0  0  0  0  0
   25.6009  -15.0777  -15.9892 C   0  0  0  0  0  0  0  0  0  0  0  0
   26.5560  -16.0582  -15.3716 C   0  0  0  0  0  0  0  0  0  0  0  0
   26.8619  -17.2316  -16.2392 C   0  0  2  0  0  0  0  0  0  0  0  0
   26.3502  -17.1636  -17.5637 N   0  0  0  0  0  0  0  0  0  0  0  0
   26.4938  -18.4976  -15.5363 C   0  0  0  0  0  0  0  0  0  0  0  0
   25.3537  -19.0071  -15.6943 O   0  0  0  0  0  0  0  0  0  0  0  0
   27.4749  -19.0833  -14.6997 N   0  0  0  0  0  0  0  0  0  0  0  0
   27.1902  -20.2708  -13.9322 C   0  0  1  0  0  0  0  0  0  0  0  0
   28.4862  -20.9792  -13.5202 C   0  0  0  0  0  0  0  0  0  0  0  0
   29.5306  -19.8650  -12.5673 S   0  0  0  0  0  0  0  0  0  0  0  0
   26.5065  -19.8777  -12.6617 C   0  0  0  0  0  0  0  0  0  0  0  0
   26.8232  -18.8083  -12.0701 O   0  0  0  0  0  0  0  0  0  0  0  0
   21.6505  -21.3901  -14.6096 N   0  0  0  0  0  0  0  0  0  0  0  0
   21.0983  -22.4902  -13.8922 C   0  0  0  0  0  0  0  0  0  0  0  0
   20.9294  -23.6325  -14.4673 N   0  0  0  0  0  0  0  0  0  0  0  0
   20.7154  -22.3745  -12.5304 N   0  0  0  0  0  0  0  0  0  0  0  0
   21.0588  -21.1457  -11.7482 C   0  0  0  0  0  0  0  0  0  0  0  0
   22.4339  -21.2619  -11.2181 C   0  0  0  0  0  0  0  0  0  0  0  0
   23.3655  -20.1563  -11.1926 C   0  0  0  0  0  0  0  0  0  0  0  0
   24.7935  -20.2411  -10.8171 C   0  0  2  0  0  0  0  0  0  0  0  0
   25.5052  -20.6704  -12.0909 N   0  0  0  0  0  0  0  0  0  0  0  0
   25.2133  -21.1809   -9.7833 C   0  0  0  0  0  0  0  0  0  0  0  0
   24.9882  -21.0188   -8.4392 O   0  0  0  0  0  0  0  0  0  0  0  0
   25.8550  -22.2613  -10.0822 O   0  0  0  0  0  0  0  0  0  0  0  0
  2  1  1  0
  2  3  2  0
  4  2  1  0
  5  4  1  0
  5  6  1  0
  6  8  1  0
  6  7  1  6
  8  9  2  0
 10 11  1  0
 10  8  1  0
 11 12  1  1
 12 13  1  0
 14 11  1  0
 15 14  2  0
 16 17  1  0
 17 19  1  0
 18 17  2  0
 20 19  1  0
 21 22  1  0
 21 20  1  0
 23 24  1  0
 23 22  1  6
 24 14  1  0
 25 23  1  0
 26 25  1  0
 27 25  2  0
M  END
$$$$
