QCR.pdb
     RDKit          3D

 27 26  0  0  1  0  0  0  0  0999 V2000
   26.9482  -17.2197  -15.1009 N   0  0  0  0  0  0  0  0  0  0  0  0
   28.0497  -17.4195  -15.9900 C   0  0  0  0  0  0  0  0  0  0  0  0
   28.6855  -16.4335  -16.4446 O   0  0  0  0  0  0  0  0  0  0  0  0
   28.4163  -18.8109  -16.3567 C   0  0  0  0  0  0  0  0  0  0  0  0
   27.5158  -19.7788  -15.6444 C   0  0  0  0  0  0  0  0  0  0  0  0
   27.8102  -19.9189  -14.1894 C   0  0  2  0  0  0  0  0  0  0  0  0
   29.1474  -20.2779  -13.8672 N   0  0  0  0  0  0  0  0  0  0  0  0
   26.7965  -20.8078  -13.5454 C   0  0  0  0  0  0  0  0  0  0  0  0
   26.4730  -21.8998  -14.0812 O   0  0  0  0  0  0  0  0  0  0  0  0
   26.2300  -20.3668  -12.3247 N   0  0  0  0  0  0  0  0  0  0  0  0
   25.1931  -21.1226  -11.6660 C   0  0  1  0  0  0  0  0  0  0  0  0
   24.9448  -20.5904  -10.2495 C   0  0  0  0  0  0  0  0  0  0  0  0
   26.4964  -20.4797   -9.3436 S   0  0  0  0  0  0  0  0  0  0  0  0
   23.9097  -20.9416  -12.4116 C   0  0  0  0  0  0  0  0  0  0  0  0
   23.5438  -19.7923  -12.7846 O   0  0  0  0  0  0  0  0  0  0  0  0
   17.3671  -24.3394  -13.7156 N   0  0  0  0  0  0  0  0  0  0  0  0
   17.3956  -24.7062  -15.0921 C   0  0  0  0  0  0  0  0  0  0  0  0
   16.3070  -24.7551  -15.7826 N   0  0  0  0  0  0  0  0  0  0  0  0
   18.6100  -25.0295  -15.7518 N   0  0  0  0  0  0  0  0  0  0  0  0
   19.9090  -24.9926  -15.0095 C   0  0  0  0  0  0  0  0  0  0  0  0
   20.2389  -23.5962  -14.6540 C   0  0  0  0  0  0  0  0  0  0  0  0
   21.4706  -23.2195  -13.9966 C   0  0  0  0  0  0  0  0  0  0  0  0
   21.8462  -21.8478  -13.5906 C   0  0  2  0  0  0  0  0  0  0  0  0
   23.0794  -22.0249  -12.7182 N   0  0  0  0  0  0  0  0  0  0  0  0
   20.9112  -21.0445  -12.8104 C   0  0  0  0  0  0  0  0  0  0  0  0
   20.8432  -21.0326  -11.4397 O   0  0  0  0  0  0  0  0  0  0  0  0
   20.0515  -20.2715  -13.3861 O   0  0  0  0  0  0  0  0  0  0  0  0
  2  1  1  0
  2  3  2  0
  4  2  1  0
  5  4  1  0
  5  6  1  0
  6  8  1  0
  6  7  1  6
  8  9  2  0
 10 11  1  0
 10  8  1  0
 11 12  1  1
 12 13  1  0
 14 11  1  0
 15 14  2  0
 16 17  1  0
 17 19  1  0
 18 17  2  0
 20 19  1  0
 21 22  1  0
 21 20  1  0
 23 24  1  0
 23 22  1  1
 24 14  1  0
 25 23  1  0
 26 25  1  0
 27 25  2  0
M  END
$$$$
