QCR.pdb
     RDKit          3D

 27 26  0  0  1  0  0  0  0  0999 V2000
   14.7267   -9.4959  -16.4515 N   0  0  0  0  0  0  0  0  0  0  0  0
   15.0373  -10.7504  -17.0627 C   0  0  0  0  0  0  0  0  0  0  0  0
   14.4798  -11.0873  -18.1392 O   0  0  0  0  0  0  0  0  0  0  0  0
   16.0270  -11.6338  -16.3956 C   0  0  0  0  0  0  0  0  0  0  0  0
   16.5242  -10.9817  -15.1375 C   0  0  0  0  0  0  0  0  0  0  0  0
   17.9327  -10.5002  -15.2229 C   0  0  2  0  0  0  0  0  0  0  0  0
   18.9089  -11.5038  -15.4687 N   0  0  0  0  0  0  0  0  0  0  0  0
   18.2558   -9.6504  -14.0372 C   0  0  0  0  0  0  0  0  0  0  0  0
   18.0171  -10.0628  -12.8723 O   0  0  0  0  0  0  0  0  0  0  0  0
   18.8335   -8.3818  -14.2872 N   0  0  0  0  0  0  0  0  0  0  0  0
   19.3084   -7.5512  -13.2079 C   0  0  1  0  0  0  0  0  0  0  0  0
   20.5651   -6.7781  -13.6253 C   0  0  0  0  0  0  0  0  0  0  0  0
   21.9675   -7.8976  -13.7691 S   0  0  0  0  0  0  0  0  0  0  0  0
   18.2704   -6.5224  -12.8916 C   0  0  0  0  0  0  0  0  0  0  0  0
   17.5829   -6.0034  -13.8147 O   0  0  0  0  0  0  0  0  0  0  0  0
   12.4309   -7.4499   -6.8190 N   0  0  0  0  0  0  0  0  0  0  0  0
   12.9446   -7.9504   -8.0501 C   0  0  0  0  0  0  0  0  0  0  0  0
   12.6791   -9.1532   -8.4333 N   0  0  0  0  0  0  0  0  0  0  0  0
   13.7610   -7.1542   -8.8951 N   0  0  0  0  0  0  0  0  0  0  0  0
   14.2608   -5.8222   -8.4305 C   0  0  0  0  0  0  0  0  0  0  0  0
   14.9875   -5.1529   -9.5300 C   0  0  0  0  0  0  0  0  0  0  0  0
   16.1502   -5.7259  -10.1709 C   0  0  0  0  0  0  0  0  0  0  0  0
   16.9263   -5.1026  -11.2648 C   0  0  2  0  0  0  0  0  0  0  0  0
   18.0273   -6.1037  -11.5792 N   0  0  0  0  0  0  0  0  0  0  0  0
   17.5940   -3.8253  -11.0390 C   0  0  0  0  0  0  0  0  0  0  0  0
   16.9664   -2.6048  -11.0272 O   0  0  0  0  0  0  0  0  0  0  0  0
   18.8680   -3.7632  -10.8365 O   0  0  0  0  0  0  0  0  0  0  0  0
  2  1  1  0
  2  3  2  0
  4  2  1  0
  5  4  1  0
  5  6  1  0
  6  8  1  0
  6  7  1  1
  8  9  2  0
 10 11  1  0
 10  8  1  0
 11 12  1  6
 12 13  1  0
 14 11  1  0
 15 14  2  0
 16 17  1  0
 17 19  1  0
 18 17  2  0
 20 19  1  0
 21 22  1  0
 21 20  1  0
 23 24  1  0
 23 22  1  1
 24 14  1  0
 25 23  1  0
 26 25  1  0
 27 25  2  0
M  END
$$$$
