QCR.pdb
     RDKit          3D

 27 26  0  0  1  0  0  0  0  0999 V2000
   26.6037  -22.3129  -19.6321 N   0  0  0  0  0  0  0  0  0  0  0  0
   27.9061  -22.3005  -20.2212 C   0  0  0  0  0  0  0  0  0  0  0  0
   28.0576  -22.6028  -21.4331 O   0  0  0  0  0  0  0  0  0  0  0  0
   29.0621  -21.9242  -19.3684 C   0  0  0  0  0  0  0  0  0  0  0  0
   28.5739  -21.4548  -18.0280 C   0  0  0  0  0  0  0  0  0  0  0  0
   28.1084  -20.0383  -18.0171 C   0  0  2  0  0  0  0  0  0  0  0  0
   29.1008  -19.0655  -18.3163 N   0  0  0  0  0  0  0  0  0  0  0  0
   27.3740  -19.7508  -16.7481 C   0  0  0  0  0  0  0  0  0  0  0  0
   27.5019  -20.5082  -15.7509 O   0  0  0  0  0  0  0  0  0  0  0  0
   26.5431  -18.6042  -16.7257 N   0  0  0  0  0  0  0  0  0  0  0  0
   25.9016  -18.1700  -15.5091 C   0  0  1  0  0  0  0  0  0  0  0  0
   25.7048  -16.6493  -15.5076 C   0  0  0  0  0  0  0  0  0  0  0  0
   27.2556  -15.8197  -15.1240 S   0  0  0  0  0  0  0  0  0  0  0  0
   24.5331  -18.7687  -15.4391 C   0  0  0  0  0  0  0  0  0  0  0  0
   23.8246  -18.8668  -16.4794 O   0  0  0  0  0  0  0  0  0  0  0  0
   20.3450  -22.3941   -8.2127 N   0  0  0  0  0  0  0  0  0  0  0  0
   19.7285  -22.9117   -9.3883 C   0  0  0  0  0  0  0  0  0  0  0  0
   18.7588  -23.7582   -9.3045 N   0  0  0  0  0  0  0  0  0  0  0  0
   20.1524  -22.5210  -10.6853 N   0  0  0  0  0  0  0  0  0  0  0  0
   21.2877  -21.5606  -10.8544 C   0  0  0  0  0  0  0  0  0  0  0  0
   21.3936  -21.1611  -12.2738 C   0  0  0  0  0  0  0  0  0  0  0  0
   22.4820  -20.3604  -12.7888 C   0  0  0  0  0  0  0  0  0  0  0  0
   22.6386  -19.9193  -14.1917 C   0  0  2  0  0  0  0  0  0  0  0  0
   23.9963  -19.2351  -14.2345 N   0  0  0  0  0  0  0  0  0  0  0  0
   21.6889  -18.9686  -14.7596 C   0  0  0  0  0  0  0  0  0  0  0  0
   20.6245  -19.3064  -15.5575 O   0  0  0  0  0  0  0  0  0  0  0  0
   21.8021  -17.7002  -14.5435 O   0  0  0  0  0  0  0  0  0  0  0  0
  2  1  1  0
  2  3  2  0
  4  2  1  0
  5  4  1  0
  5  6  1  0
  6  8  1  0
  6  7  1  1
  8  9  2  0
 10 11  1  0
 10  8  1  0
 11 12  1  6
 12 13  1  0
 14 11  1  0
 15 14  2  0
 16 17  1  0
 17 19  1  0
 18 17  2  0
 20 19  1  0
 21 22  1  0
 21 20  1  0
 23 24  1  0
 23 22  1  1
 24 14  1  0
 25 23  1  0
 26 25  1  0
 27 25  2  0
M  END
$$$$
