FEV.pdb
     RDKit          3D

 28 28  0  0  1  0  0  0  0  0999 V2000
    6.2108  -17.9870   23.3197 N   0  0  0  0  0  0  0  0  0  0  0  0
    6.8004  -16.7066   23.6475 C   0  0  1  0  0  0  0  0  0  0  0  0
    5.8702  -16.0378   24.6391 C   0  0  0  0  0  0  0  0  0  0  0  0
    6.3815  -14.7002   25.0334 C   0  0  0  0  0  0  0  0  0  0  0  0
    6.9408  -13.8618   24.0887 C   0  0  0  0  0  0  0  0  0  0  0  0
    7.4297  -12.6140   24.3967 C   0  0  0  0  0  0  0  0  0  0  0  0
    7.3687  -12.1670   25.6863 C   0  0  0  0  0  0  0  0  0  0  0  0
    6.8160  -12.9725   26.6711 C   0  0  0  0  0  0  0  0  0  0  0  0
    6.3281  -14.2324   26.3308 C   0  0  0  0  0  0  0  0  0  0  0  0
    8.1448  -16.9266   24.1996 C   0  0  0  0  0  0  0  0  0  0  0  0
    8.2703  -17.6818   25.1956 O   0  0  0  0  0  0  0  0  0  0  0  0
    9.3177  -16.3171   23.6511 N   0  0  0  0  0  0  0  0  0  0  0  0
   10.5943  -16.6328   24.1969 C   0  0  1  0  0  0  0  0  0  0  0  0
   11.7048  -16.5368   23.1481 C   0  0  0  0  0  0  0  0  0  0  0  0
   11.5152  -17.5405   22.0550 C   0  0  0  0  0  0  0  0  0  0  0  0
   12.6102  -17.3828   21.0666 C   0  0  0  0  0  0  0  0  0  0  0  0
   13.8017  -17.6439   21.3712 O   0  0  0  0  0  0  0  0  0  0  0  0
   10.9246  -15.8097   25.3973 C   0  0  0  0  0  0  0  0  0  0  0  0
   11.1195  -14.5815   25.3366 O   0  0  0  0  0  0  0  0  0  0  0  0
   12.3868  -16.9427   19.7623 O   0  0  0  0  0  0  0  0  0  0  0  0
   10.2049  -13.9114   26.9128 C   0  0  0  0  0  0  0  0  0  0  0  0
   10.5036  -14.6650   28.1807 C   0  0  1  0  0  0  0  0  0  0  0  0
    9.1448  -15.1839   28.6800 C   0  0  0  0  0  0  0  0  0  0  0  0
   11.3306  -15.8711   27.8913 C   0  0  2  0  0  0  0  0  0  0  0  0
   11.0108  -16.4860   26.6332 N   0  0  0  0  0  0  0  0  0  0  0  0
   11.4934  -16.8235   29.0200 C   0  0  0  0  0  0  0  0  0  0  0  0
   11.1973  -18.0352   29.0093 O   0  0  0  0  0  0  0  0  0  0  0  0
   12.0242  -16.3533   30.2159 O   0  0  0  0  0  0  0  0  0  0  0  0
  2  1  1  1
  3  2  1  0
  4  3  1  0
  4  9  2  0
  5  4  1  0
  6  5  2  0
  6  7  1  0
  7  8  2  0
  8  9  1  0
 10  2  1  0
 11 10  2  0
 12 10  1  0
 13 18  1  0
 13 12  1  0
 13 14  1  6
 15 14  1  0
 16 15  1  0
 17 16  2  0
 18 19  2  0
 20 16  1  0
 22 21  1  6
 22 24  1  0
 23 22  1  0
 24 25  1  6
 25 18  1  0
 26 28  1  0
 26 24  1  0
 27 26  2  0
M  END
$$$$
