FEV.pdb
     RDKit          3D

 28 28  0  0  1  0  0  0  0  0999 V2000
    5.7685  -17.8504   23.8988 N   0  0  0  0  0  0  0  0  0  0  0  0
    6.4870  -16.6021   24.0397 C   0  0  1  0  0  0  0  0  0  0  0  0
    5.7418  -15.7829   25.0738 C   0  0  0  0  0  0  0  0  0  0  0  0
    6.3126  -14.4162   25.1857 C   0  0  0  0  0  0  0  0  0  0  0  0
    6.0236  -13.6280   26.2826 C   0  0  0  0  0  0  0  0  0  0  0  0
    6.5237  -12.3566   26.4385 C   0  0  0  0  0  0  0  0  0  0  0  0
    7.3430  -11.8335   25.4784 C   0  0  0  0  0  0  0  0  0  0  0  0
    7.6626  -12.5863   24.3581 C   0  0  0  0  0  0  0  0  0  0  0  0
    7.1417  -13.8718   24.2259 C   0  0  0  0  0  0  0  0  0  0  0  0
    7.8709  -16.8899   24.4430 C   0  0  0  0  0  0  0  0  0  0  0  0
    8.0679  -17.6993   25.3834 O   0  0  0  0  0  0  0  0  0  0  0  0
    9.0044  -16.2876   23.8102 N   0  0  0  0  0  0  0  0  0  0  0  0
   10.3153  -16.7247   24.1530 C   0  0  1  0  0  0  0  0  0  0  0  0
   11.2613  -16.6952   22.9503 C   0  0  0  0  0  0  0  0  0  0  0  0
   12.6437  -17.1241   23.3291 C   0  0  0  0  0  0  0  0  0  0  0  0
   13.4894  -17.1407   22.1104 C   0  0  0  0  0  0  0  0  0  0  0  0
   13.6215  -16.1132   21.3982 O   0  0  0  0  0  0  0  0  0  0  0  0
   10.8917  -15.9648   25.3010 C   0  0  0  0  0  0  0  0  0  0  0  0
   11.3803  -14.8265   25.1755 O   0  0  0  0  0  0  0  0  0  0  0  0
   14.1769  -18.2786   21.6891 O   0  0  0  0  0  0  0  0  0  0  0  0
   10.1007  -14.0141   26.9643 C   0  0  0  0  0  0  0  0  0  0  0  0
   10.5013  -14.8010   28.1829 C   0  0  1  0  0  0  0  0  0  0  0  0
    9.1874  -15.3356   28.7770 C   0  0  0  0  0  0  0  0  0  0  0  0
   11.3016  -15.9972   27.7950 C   0  0  2  0  0  0  0  0  0  0  0  0
   10.8636  -16.5943   26.5641 N   0  0  0  0  0  0  0  0  0  0  0  0
   11.5777  -16.9664   28.8868 C   0  0  0  0  0  0  0  0  0  0  0  0
   11.2866  -18.1793   28.8856 O   0  0  0  0  0  0  0  0  0  0  0  0
   12.2213  -16.5121   30.0325 O   0  0  0  0  0  0  0  0  0  0  0  0
  2  1  1  1
  3  2  1  0
  4  3  1  0
  4  9  2  0
  5  4  1  0
  6  5  2  0
  6  7  1  0
  7  8  2  0
  8  9  1  0
 10  2  1  0
 11 10  2  0
 12 10  1  0
 13 18  1  0
 13 12  1  0
 13 14  1  6
 15 14  1  0
 16 15  1  0
 17 16  2  0
 18 19  2  0
 20 16  1  0
 22 21  1  6
 22 24  1  0
 23 22  1  0
 24 25  1  6
 25 18  1  0
 26 28  1  0
 26 24  1  0
 27 26  2  0
M  END
$$$$
