FEV.pdb
     RDKit          3D

 28 28  0  0  1  0  0  0  0  0999 V2000
    7.4066  -16.1720   20.7787 N   0  0  0  0  0  0  0  0  0  0  0  0
    7.7829  -15.3227   21.8885 C   0  0  1  0  0  0  0  0  0  0  0  0
    6.5093  -14.6795   22.3984 C   0  0  0  0  0  0  0  0  0  0  0  0
    6.7933  -13.7460   23.5183 C   0  0  0  0  0  0  0  0  0  0  0  0
    7.3107  -12.4906   23.2648 C   0  0  0  0  0  0  0  0  0  0  0  0
    7.5925  -11.5862   24.2616 C   0  0  0  0  0  0  0  0  0  0  0  0
    7.3577  -11.9254   25.5640 C   0  0  0  0  0  0  0  0  0  0  0  0
    6.8387  -13.1750   25.8694 C   0  0  0  0  0  0  0  0  0  0  0  0
    6.5624  -14.0718   24.8395 C   0  0  0  0  0  0  0  0  0  0  0  0
    8.4473  -16.1412   22.9129 C   0  0  0  0  0  0  0  0  0  0  0  0
    7.7926  -17.0583   23.4684 O   0  0  0  0  0  0  0  0  0  0  0  0
    9.8086  -15.9383   23.3051 N   0  0  0  0  0  0  0  0  0  0  0  0
   10.4027  -16.8122   24.2592 C   0  0  1  0  0  0  0  0  0  0  0  0
   11.5256  -17.6516   23.6454 C   0  0  0  0  0  0  0  0  0  0  0  0
   12.2631  -16.8920   22.5883 C   0  0  0  0  0  0  0  0  0  0  0  0
   13.3401  -17.7548   22.0438 C   0  0  0  0  0  0  0  0  0  0  0  0
   13.1136  -18.9479   21.7186 O   0  0  0  0  0  0  0  0  0  0  0  0
   10.8816  -16.0928   25.4761 C   0  0  0  0  0  0  0  0  0  0  0  0
   11.6098  -15.0846   25.4173 O   0  0  0  0  0  0  0  0  0  0  0  0
   14.6464  -17.3013   21.8633 O   0  0  0  0  0  0  0  0  0  0  0  0
   10.0270  -13.9602   27.5029 C   0  0  0  0  0  0  0  0  0  0  0  0
   10.2381  -15.0097   28.5606 C   0  0  1  0  0  0  0  0  0  0  0  0
    8.8325  -15.5203   28.9191 C   0  0  0  0  0  0  0  0  0  0  0  0
   10.9765  -16.1773   28.0005 C   0  0  2  0  0  0  0  0  0  0  0  0
   10.4717  -16.6055   26.7257 N   0  0  0  0  0  0  0  0  0  0  0  0
   11.2532  -17.2804   28.9567 C   0  0  0  0  0  0  0  0  0  0  0  0
   11.7700  -17.1634   30.0859 O   0  0  0  0  0  0  0  0  0  0  0  0
   10.9154  -18.5784   28.5906 O   0  0  0  0  0  0  0  0  0  0  0  0
  2  1  1  6
  3  2  1  0
  4  3  1  0
  4  9  2  0
  5  4  1  0
  6  5  2  0
  6  7  1  0
  7  8  2  0
  8  9  1  0
 10  2  1  0
 11 10  2  0
 12 10  1  0
 13 18  1  0
 13 12  1  0
 13 14  1  6
 15 14  1  0
 16 15  1  0
 17 16  2  0
 18 19  2  0
 20 16  1  0
 22 21  1  6
 22 24  1  0
 23 22  1  0
 24 25  1  6
 25 18  1  0
 26 28  1  0
 26 24  1  0
 27 26  2  0
M  END
$$$$
