FEV.pdb
     RDKit          3D

 28 28  0  0  1  0  0  0  0  0999 V2000
    7.2824  -17.8972   26.8866 N   0  0  0  0  0  0  0  0  0  0  0  0
    7.2394  -16.6256   26.1969 C   0  0  1  0  0  0  0  0  0  0  0  0
    7.8370  -15.5981   27.1365 C   0  0  0  0  0  0  0  0  0  0  0  0
    7.5231  -14.2173   26.6880 C   0  0  0  0  0  0  0  0  0  0  0  0
    6.2293  -13.7387   26.7596 C   0  0  0  0  0  0  0  0  0  0  0  0
    5.8815  -12.4700   26.3590 C   0  0  0  0  0  0  0  0  0  0  0  0
    6.8422  -11.6328   25.8666 C   0  0  0  0  0  0  0  0  0  0  0  0
    8.1562  -12.0676   25.7749 C   0  0  0  0  0  0  0  0  0  0  0  0
    8.4806  -13.3581   26.1881 C   0  0  0  0  0  0  0  0  0  0  0  0
    7.9903  -16.7388   24.9383 C   0  0  0  0  0  0  0  0  0  0  0  0
    9.2226  -16.4949   24.9485 O   0  0  0  0  0  0  0  0  0  0  0  0
    7.3776  -17.1152   23.7009 N   0  0  0  0  0  0  0  0  0  0  0  0
    8.1410  -17.0804   22.4996 C   0  0  1  0  0  0  0  0  0  0  0  0
    8.3906  -18.4824   21.9391 C   0  0  0  0  0  0  0  0  0  0  0  0
    9.2985  -18.4445   20.7506 C   0  0  0  0  0  0  0  0  0  0  0  0
    9.5416  -19.8338   20.2907 C   0  0  0  0  0  0  0  0  0  0  0  0
    8.5867  -20.5933   19.9876 O   0  0  0  0  0  0  0  0  0  0  0  0
    7.5380  -16.1930   21.4621 C   0  0  0  0  0  0  0  0  0  0  0  0
    6.4018  -15.6977   21.5799 O   0  0  0  0  0  0  0  0  0  0  0  0
   10.8227  -20.3712   20.1692 O   0  0  0  0  0  0  0  0  0  0  0  0
    8.0333  -12.2655   19.5221 C   0  0  0  0  0  0  0  0  0  0  0  0
    8.1916  -13.4886   20.3845 C   0  0  1  0  0  0  0  0  0  0  0  0
    6.8857  -13.5954   21.1896 C   0  0  0  0  0  0  0  0  0  0  0  0
    8.2656  -14.7171   19.5434 C   0  0  2  0  0  0  0  0  0  0  0  0
    8.3172  -15.9273   20.3155 N   0  0  0  0  0  0  0  0  0  0  0  0
    9.2292  -14.6644   18.4137 C   0  0  0  0  0  0  0  0  0  0  0  0
   10.4721  -14.7200   18.5031 O   0  0  0  0  0  0  0  0  0  0  0  0
    8.7324  -14.5430   17.1208 O   0  0  0  0  0  0  0  0  0  0  0  0
  2  1  1  1
  3  2  1  0
  4  3  1  0
  4  9  2  0
  5  4  1  0
  6  5  2  0
  6  7  1  0
  7  8  2  0
  8  9  1  0
 10  2  1  0
 11 10  2  0
 12 10  1  0
 13 18  1  0
 13 12  1  0
 13 14  1  6
 15 14  1  0
 16 15  1  0
 17 16  2  0
 18 19  2  0
 20 16  1  0
 22 21  1  6
 22 24  1  0
 23 22  1  0
 24 25  1  1
 25 18  1  0
 26 28  1  0
 26 24  1  0
 27 26  2  0
M  END
$$$$
