FEV.pdb
     RDKit          3D

 28 28  0  0  1  0  0  0  0  0999 V2000
    7.2002  -16.9262   21.2817 N   0  0  0  0  0  0  0  0  0  0  0  0
    7.6062  -15.8875   22.2040 C   0  0  1  0  0  0  0  0  0  0  0  0
    6.3545  -15.4282   22.9238 C   0  0  0  0  0  0  0  0  0  0  0  0
    6.6514  -14.3034   23.8474 C   0  0  0  0  0  0  0  0  0  0  0  0
    6.4795  -14.4562   25.2094 C   0  0  0  0  0  0  0  0  0  0  0  0
    6.7386  -13.4501   26.1102 C   0  0  0  0  0  0  0  0  0  0  0  0
    7.1856  -12.2409   25.6580 C   0  0  0  0  0  0  0  0  0  0  0  0
    7.3739  -12.0384   24.2987 C   0  0  0  0  0  0  0  0  0  0  0  0
    7.1036  -13.0755   23.4084 C   0  0  0  0  0  0  0  0  0  0  0  0
    8.6145  -16.4328   23.1242 C   0  0  0  0  0  0  0  0  0  0  0  0
    8.3276  -17.4563   23.7938 O   0  0  0  0  0  0  0  0  0  0  0  0
    9.9099  -15.8476   23.2904 N   0  0  0  0  0  0  0  0  0  0  0  0
   10.8745  -16.4975   24.1116 C   0  0  1  0  0  0  0  0  0  0  0  0
   12.1932  -16.7305   23.3706 C   0  0  0  0  0  0  0  0  0  0  0  0
   12.0175  -17.6713   22.2207 C   0  0  0  0  0  0  0  0  0  0  0  0
   13.3329  -17.8762   21.5660 C   0  0  0  0  0  0  0  0  0  0  0  0
   14.3465  -18.2022   22.2345 O   0  0  0  0  0  0  0  0  0  0  0  0
   11.1082  -15.7803   25.3995 C   0  0  0  0  0  0  0  0  0  0  0  0
   11.8898  -14.8163   25.4991 O   0  0  0  0  0  0  0  0  0  0  0  0
   13.5202  -17.7220   20.1928 O   0  0  0  0  0  0  0  0  0  0  0  0
    9.9355  -13.6957   27.6219 C   0  0  0  0  0  0  0  0  0  0  0  0
    9.9817  -14.8985   28.5252 C   0  0  1  0  0  0  0  0  0  0  0  0
    8.5309  -15.4004   28.6155 C   0  0  0  0  0  0  0  0  0  0  0  0
   10.7657  -15.9982   27.8943 C   0  0  2  0  0  0  0  0  0  0  0  0
   10.3967  -16.2421   26.5276 N   0  0  0  0  0  0  0  0  0  0  0  0
   10.9290  -17.2242   28.7176 C   0  0  0  0  0  0  0  0  0  0  0  0
   10.5617  -18.3747   28.4056 O   0  0  0  0  0  0  0  0  0  0  0  0
   11.5466  -17.1148   29.9584 O   0  0  0  0  0  0  0  0  0  0  0  0
  2  1  1  6
  3  2  1  0
  4  3  1  0
  4  9  2  0
  5  4  1  0
  6  5  2  0
  6  7  1  0
  7  8  2  0
  8  9  1  0
 10  2  1  0
 11 10  2  0
 12 10  1  0
 13 18  1  0
 13 12  1  0
 13 14  1  6
 15 14  1  0
 16 15  1  0
 17 16  2  0
 18 19  2  0
 20 16  1  0
 22 21  1  6
 22 24  1  0
 23 22  1  0
 24 25  1  6
 25 18  1  0
 26 28  1  0
 26 24  1  0
 27 26  2  0
M  END
$$$$
