FEV.pdb
     RDKit          3D

 28 28  0  0  1  0  0  0  0  0999 V2000
    8.7369  -16.3151   20.7742 N   0  0  0  0  0  0  0  0  0  0  0  0
    8.8706  -15.3991   21.8866 C   0  0  1  0  0  0  0  0  0  0  0  0
    7.6471  -14.5056   21.8669 C   0  0  0  0  0  0  0  0  0  0  0  0
    7.5983  -13.6935   20.6242 C   0  0  0  0  0  0  0  0  0  0  0  0
    8.5070  -12.6729   20.4226 C   0  0  0  0  0  0  0  0  0  0  0  0
    8.5086  -11.8897   19.2924 C   0  0  0  0  0  0  0  0  0  0  0  0
    7.5798  -12.1153   18.3163 C   0  0  0  0  0  0  0  0  0  0  0  0
    6.6458  -13.1289   18.4725 C   0  0  0  0  0  0  0  0  0  0  0  0
    6.6672  -13.9072   19.6280 C   0  0  0  0  0  0  0  0  0  0  0  0
    8.9807  -16.1723   23.1319 C   0  0  0  0  0  0  0  0  0  0  0  0
    8.1468  -15.9611   24.0474 O   0  0  0  0  0  0  0  0  0  0  0  0
    9.9977  -17.1561   23.3466 N   0  0  0  0  0  0  0  0  0  0  0  0
   10.2267  -17.6550   24.6603 C   0  0  1  0  0  0  0  0  0  0  0  0
   11.0878  -18.9201   24.6501 C   0  0  0  0  0  0  0  0  0  0  0  0
   11.3269  -19.4321   26.0354 C   0  0  0  0  0  0  0  0  0  0  0  0
   12.2567  -20.5859   25.9643 C   0  0  0  0  0  0  0  0  0  0  0  0
   13.4622  -20.4289   25.6442 O   0  0  0  0  0  0  0  0  0  0  0  0
   10.8061  -16.6252   25.5722 C   0  0  0  0  0  0  0  0  0  0  0  0
   11.8444  -15.9945   25.2995 O   0  0  0  0  0  0  0  0  0  0  0  0
   11.8553  -21.8919   26.2437 O   0  0  0  0  0  0  0  0  0  0  0  0
    9.6006  -13.6290   26.6349 C   0  0  0  0  0  0  0  0  0  0  0  0
    9.7981  -14.2784   27.9780 C   0  0  1  0  0  0  0  0  0  0  0  0
    8.3938  -14.7021   28.4400 C   0  0  0  0  0  0  0  0  0  0  0  0
   10.5897  -15.5342   27.8419 C   0  0  2  0  0  0  0  0  0  0  0  0
   10.1216  -16.3843   26.7829 N   0  0  0  0  0  0  0  0  0  0  0  0
   10.8941  -16.2419   29.1124 C   0  0  0  0  0  0  0  0  0  0  0  0
   11.4440  -15.7475   30.1168 O   0  0  0  0  0  0  0  0  0  0  0  0
   10.5453  -17.5829   29.2268 O   0  0  0  0  0  0  0  0  0  0  0  0
  2  1  1  6
  3  2  1  0
  4  3  1  0
  4  9  2  0
  5  4  1  0
  6  5  2  0
  6  7  1  0
  7  8  2  0
  8  9  1  0
 10  2  1  0
 11 10  2  0
 12 10  1  0
 13 18  1  0
 13 12  1  0
 13 14  1  6
 15 14  1  0
 16 15  1  0
 17 16  2  0
 18 19  2  0
 20 16  1  0
 22 21  1  6
 22 24  1  0
 23 22  1  0
 24 25  1  6
 25 18  1  0
 26 28  1  0
 26 24  1  0
 27 26  2  0
M  END
$$$$
