FEV.pdb
     RDKit          3D

 28 28  0  0  1  0  0  0  0  0999 V2000
    6.0239  -17.2681   23.2534 N   0  0  0  0  0  0  0  0  0  0  0  0
    6.9388  -16.2852   23.7932 C   0  0  1  0  0  0  0  0  0  0  0  0
    6.3283  -15.7829   25.0858 C   0  0  0  0  0  0  0  0  0  0  0  0
    6.5006  -14.3139   25.2228 C   0  0  0  0  0  0  0  0  0  0  0  0
    7.5073  -13.6634   24.5364 C   0  0  0  0  0  0  0  0  0  0  0  0
    7.7131  -12.3067   24.6255 C   0  0  0  0  0  0  0  0  0  0  0  0
    6.8975  -11.5534   25.4216 C   0  0  0  0  0  0  0  0  0  0  0  0
    5.8720  -12.1609   26.1312 C   0  0  0  0  0  0  0  0  0  0  0  0
    5.6863  -13.5375   26.0222 C   0  0  0  0  0  0  0  0  0  0  0  0
    8.2504  -16.9158   24.0000 C   0  0  0  0  0  0  0  0  0  0  0  0
    8.3309  -17.8945   24.7836 O   0  0  0  0  0  0  0  0  0  0  0  0
    9.4404  -16.4627   23.3469 N   0  0  0  0  0  0  0  0  0  0  0  0
   10.7121  -16.8656   23.8446 C   0  0  1  0  0  0  0  0  0  0  0  0
   11.8004  -16.7783   22.7721 C   0  0  0  0  0  0  0  0  0  0  0  0
   11.5129  -17.6925   21.6232 C   0  0  0  0  0  0  0  0  0  0  0  0
   12.3181  -17.2592   20.4550 C   0  0  0  0  0  0  0  0  0  0  0  0
   11.7774  -16.7075   19.4631 O   0  0  0  0  0  0  0  0  0  0  0  0
   11.1127  -16.1144   25.0705 C   0  0  0  0  0  0  0  0  0  0  0  0
   11.5681  -14.9563   25.0297 O   0  0  0  0  0  0  0  0  0  0  0  0
   13.6999  -17.4350   20.3887 O   0  0  0  0  0  0  0  0  0  0  0  0
    9.0734  -14.9341   27.7498 C   0  0  0  0  0  0  0  0  0  0  0  0
   10.5750  -14.8356   27.7418 C   0  0  1  0  0  0  0  0  0  0  0  0
   10.9614  -14.3360   29.1440 C   0  0  0  0  0  0  0  0  0  0  0  0
   11.1883  -16.1864   27.5959 C   0  0  2  0  0  0  0  0  0  0  0  0
   10.9544  -16.7761   26.3071 N   0  0  0  0  0  0  0  0  0  0  0  0
   10.9875  -17.1098   28.7426 C   0  0  0  0  0  0  0  0  0  0  0  0
   10.4126  -18.2161   28.7048 O   0  0  0  0  0  0  0  0  0  0  0  0
   11.4750  -16.7369   29.9901 O   0  0  0  0  0  0  0  0  0  0  0  0
  2  1  1  1
  3  2  1  0
  4  3  1  0
  4  9  2  0
  5  4  1  0
  6  5  2  0
  6  7  1  0
  7  8  2  0
  8  9  1  0
 10  2  1  0
 11 10  2  0
 12 10  1  0
 13 18  1  0
 13 12  1  0
 13 14  1  6
 15 14  1  0
 16 15  1  0
 17 16  2  0
 18 19  2  0
 20 16  1  0
 22 21  1  1
 22 24  1  0
 23 22  1  0
 24 25  1  6
 25 18  1  0
 26 28  1  0
 26 24  1  0
 27 26  2  0
M  END
$$$$
