FEV.pdb
     RDKit          3D

 28 28  0  0  1  0  0  0  0  0999 V2000
    6.0176  -18.3095   23.4939 N   0  0  0  0  0  0  0  0  0  0  0  0
    6.5632  -16.9813   23.6743 C   0  0  1  0  0  0  0  0  0  0  0  0
    5.7021  -16.2923   24.7134 C   0  0  0  0  0  0  0  0  0  0  0  0
    6.1164  -14.8779   24.8983 C   0  0  0  0  0  0  0  0  0  0  0  0
    6.5529  -14.1331   23.8201 C   0  0  0  0  0  0  0  0  0  0  0  0
    6.9483  -12.8208   23.9327 C   0  0  0  0  0  0  0  0  0  0  0  0
    6.9149  -12.2106   25.1545 C   0  0  0  0  0  0  0  0  0  0  0  0
    6.4840  -12.9170   26.2678 C   0  0  0  0  0  0  0  0  0  0  0  0
    6.0892  -14.2456   26.1248 C   0  0  0  0  0  0  0  0  0  0  0  0
    7.9672  -17.0942   24.0946 C   0  0  0  0  0  0  0  0  0  0  0  0
    8.2323  -17.7344   25.1424 O   0  0  0  0  0  0  0  0  0  0  0  0
    9.0461  -16.5060   23.3610 N   0  0  0  0  0  0  0  0  0  0  0  0
   10.3830  -16.6752   23.8205 C   0  0  1  0  0  0  0  0  0  0  0  0
   11.4077  -16.3647   22.7269 C   0  0  0  0  0  0  0  0  0  0  0  0
   12.8086  -16.4808   23.2390 C   0  0  0  0  0  0  0  0  0  0  0  0
   13.7236  -16.6743   22.0874 C   0  0  0  0  0  0  0  0  0  0  0  0
   13.2881  -16.6893   20.9082 O   0  0  0  0  0  0  0  0  0  0  0  0
   10.6691  -15.8879   25.0557 C   0  0  0  0  0  0  0  0  0  0  0  0
   10.8649  -14.6584   25.0383 O   0  0  0  0  0  0  0  0  0  0  0  0
   15.0986  -16.8482   22.2419 O   0  0  0  0  0  0  0  0  0  0  0  0
    9.3545  -14.9247   29.0349 C   0  0  0  0  0  0  0  0  0  0  0  0
   10.2263  -14.7707   27.8179 C   0  0  1  0  0  0  0  0  0  0  0  0
   11.2659  -13.7003   28.1900 C   0  0  0  0  0  0  0  0  0  0  0  0
   10.9913  -16.0237   27.5590 C   0  0  2  0  0  0  0  0  0  0  0  0
   10.7114  -16.6003   26.2735 N   0  0  0  0  0  0  0  0  0  0  0  0
   11.0230  -16.9994   28.6792 C   0  0  0  0  0  0  0  0  0  0  0  0
   10.5618  -18.1582   28.6593 O   0  0  0  0  0  0  0  0  0  0  0  0
   11.6164  -16.6177   29.8772 O   0  0  0  0  0  0  0  0  0  0  0  0
  2  1  1  1
  3  2  1  0
  4  3  1  0
  4  9  2  0
  5  4  1  0
  6  5  2  0
  6  7  1  0
  7  8  2  0
  8  9  1  0
 10  2  1  0
 11 10  2  0
 12 10  1  0
 13 18  1  0
 13 12  1  0
 13 14  1  6
 15 14  1  0
 16 15  1  0
 17 16  2  0
 18 19  2  0
 20 16  1  0
 22 21  1  1
 22 24  1  0
 23 22  1  0
 24 25  1  6
 25 18  1  0
 26 28  1  0
 26 24  1  0
 27 26  2  0
M  END
$$$$
