FEV.pdb
     RDKit          3D

 28 28  0  0  1  0  0  0  0  0999 V2000
    5.8988  -17.7779   24.4031 N   0  0  0  0  0  0  0  0  0  0  0  0
    6.6114  -16.5259   24.5410 C   0  0  1  0  0  0  0  0  0  0  0  0
    6.0444  -15.8322   25.7630 C   0  0  0  0  0  0  0  0  0  0  0  0
    6.3204  -14.3732   25.7256 C   0  0  0  0  0  0  0  0  0  0  0  0
    7.5991  -13.9001   25.9470 C   0  0  0  0  0  0  0  0  0  0  0  0
    7.9120  -12.5612   25.9244 C   0  0  0  0  0  0  0  0  0  0  0  0
    6.9300  -11.6450   25.6740 C   0  0  0  0  0  0  0  0  0  0  0  0
    5.6299  -12.0710   25.4453 C   0  0  0  0  0  0  0  0  0  0  0  0
    5.3411  -13.4337   25.4742 C   0  0  0  0  0  0  0  0  0  0  0  0
    8.0486  -16.8057   24.6710 C   0  0  0  0  0  0  0  0  0  0  0  0
    8.4150  -17.7289   25.4401 O   0  0  0  0  0  0  0  0  0  0  0  0
    9.0493  -16.0713   23.9586 N   0  0  0  0  0  0  0  0  0  0  0  0
   10.4128  -16.4704   24.0507 C   0  0  1  0  0  0  0  0  0  0  0  0
   11.2205  -16.0355   22.8257 C   0  0  0  0  0  0  0  0  0  0  0  0
   12.6256  -16.5460   22.8855 C   0  0  0  0  0  0  0  0  0  0  0  0
   13.1228  -16.7393   21.5012 C   0  0  0  0  0  0  0  0  0  0  0  0
   12.5088  -16.2536   20.5175 O   0  0  0  0  0  0  0  0  0  0  0  0
   11.0638  -16.0028   25.3097 C   0  0  0  0  0  0  0  0  0  0  0  0
   11.8614  -15.0472   25.3386 O   0  0  0  0  0  0  0  0  0  0  0  0
   14.2819  -17.4593   21.2135 O   0  0  0  0  0  0  0  0  0  0  0  0
   10.9041  -14.0686   27.4503 C   0  0  0  0  0  0  0  0  0  0  0  0
   10.8793  -15.2112   28.4294 C   0  0  1  0  0  0  0  0  0  0  0  0
    9.3959  -15.4243   28.7745 C   0  0  0  0  0  0  0  0  0  0  0  0
   11.3418  -16.4698   27.7782 C   0  0  2  0  0  0  0  0  0  0  0  0
   10.7374  -16.6964   26.4950 N   0  0  0  0  0  0  0  0  0  0  0  0
   11.3906  -17.6668   28.6572 C   0  0  0  0  0  0  0  0  0  0  0  0
   10.8527  -18.7690   28.4303 O   0  0  0  0  0  0  0  0  0  0  0  0
   12.0950  -17.5855   29.8531 O   0  0  0  0  0  0  0  0  0  0  0  0
  2  1  1  1
  3  2  1  0
  4  3  1  0
  4  9  2  0
  5  4  1  0
  6  5  2  0
  6  7  1  0
  7  8  2  0
  8  9  1  0
 10  2  1  0
 11 10  2  0
 12 10  1  0
 13 18  1  0
 13 12  1  0
 13 14  1  6
 15 14  1  0
 16 15  1  0
 17 16  2  0
 18 19  2  0
 20 16  1  0
 22 21  1  6
 22 24  1  0
 23 22  1  0
 24 25  1  6
 25 18  1  0
 26 28  1  0
 26 24  1  0
 27 26  2  0
M  END
$$$$
