FEV.pdb
     RDKit          3D

 28 28  0  0  1  0  0  0  0  0999 V2000
    5.8345  -18.0341   24.3310 N   0  0  0  0  0  0  0  0  0  0  0  0
    6.5025  -16.7542   24.2305 C   0  0  1  0  0  0  0  0  0  0  0  0
    5.7703  -15.8049   25.1570 C   0  0  0  0  0  0  0  0  0  0  0  0
    6.2693  -14.4146   25.0008 C   0  0  0  0  0  0  0  0  0  0  0  0
    6.1613  -13.5143   26.0429 C   0  0  0  0  0  0  0  0  0  0  0  0
    6.6057  -12.2161   25.9544 C   0  0  0  0  0  0  0  0  0  0  0  0
    7.1812  -11.7795   24.7948 C   0  0  0  0  0  0  0  0  0  0  0  0
    7.3123  -12.6463   23.7198 C   0  0  0  0  0  0  0  0  0  0  0  0
    6.8532  -13.9566   23.8371 C   0  0  0  0  0  0  0  0  0  0  0  0
    7.9151  -16.9218   24.6009 C   0  0  0  0  0  0  0  0  0  0  0  0
    8.1971  -17.6510   25.5843 O   0  0  0  0  0  0  0  0  0  0  0  0
    8.9837  -16.2897   23.8892 N   0  0  0  0  0  0  0  0  0  0  0  0
   10.3305  -16.6501   24.1783 C   0  0  1  0  0  0  0  0  0  0  0  0
   11.2656  -16.3606   23.0019 C   0  0  0  0  0  0  0  0  0  0  0  0
   12.6876  -16.6799   23.3400 C   0  0  0  0  0  0  0  0  0  0  0  0
   13.5309  -16.4260   22.1462 C   0  0  0  0  0  0  0  0  0  0  0  0
   14.7804  -16.3270   22.2438 O   0  0  0  0  0  0  0  0  0  0  0  0
   10.8385  -16.0148   25.4297 C   0  0  0  0  0  0  0  0  0  0  0  0
   11.2308  -14.8339   25.4720 O   0  0  0  0  0  0  0  0  0  0  0  0
   12.9967  -16.2843   20.8659 O   0  0  0  0  0  0  0  0  0  0  0  0
   10.1558  -14.2773   27.2028 C   0  0  0  0  0  0  0  0  0  0  0  0
   10.4947  -15.1741   28.3628 C   0  0  1  0  0  0  0  0  0  0  0  0
    9.1464  -15.6989   28.8840 C   0  0  0  0  0  0  0  0  0  0  0  0
   11.2561  -16.3682   27.8974 C   0  0  2  0  0  0  0  0  0  0  0  0
   10.8599  -16.8163   26.5914 N   0  0  0  0  0  0  0  0  0  0  0  0
   11.4219  -17.4538   28.8982 C   0  0  0  0  0  0  0  0  0  0  0  0
   11.0579  -18.6393   28.7653 O   0  0  0  0  0  0  0  0  0  0  0  0
   12.0382  -17.1546   30.1080 O   0  0  0  0  0  0  0  0  0  0  0  0
  2  1  1  1
  3  2  1  0
  4  3  1  0
  4  9  2  0
  5  4  1  0
  6  5  2  0
  6  7  1  0
  7  8  2  0
  8  9  1  0
 10  2  1  0
 11 10  2  0
 12 10  1  0
 13 18  1  0
 13 12  1  0
 13 14  1  6
 15 14  1  0
 16 15  1  0
 17 16  2  0
 18 19  2  0
 20 16  1  0
 22 21  1  6
 22 24  1  0
 23 22  1  0
 24 25  1  6
 25 18  1  0
 26 28  1  0
 26 24  1  0
 27 26  2  0
M  END
$$$$
