FEV.pdb
     RDKit          3D

 28 28  0  0  1  0  0  0  0  0999 V2000
    6.3561  -17.7783   23.3237 N   0  0  0  0  0  0  0  0  0  0  0  0
    6.9813  -16.5404   23.7374 C   0  0  1  0  0  0  0  0  0  0  0  0
    6.0825  -15.9277   24.7922 C   0  0  0  0  0  0  0  0  0  0  0  0
    6.4305  -14.5033   25.0290 C   0  0  0  0  0  0  0  0  0  0  0  0
    5.8359  -13.8029   26.0605 C   0  0  0  0  0  0  0  0  0  0  0  0
    6.1197  -12.4838   26.3256 C   0  0  0  0  0  0  0  0  0  0  0  0
    7.0255  -11.8208   25.5469 C   0  0  0  0  0  0  0  0  0  0  0  0
    7.6494  -12.4812   24.4987 C   0  0  0  0  0  0  0  0  0  0  0  0
    7.3429  -13.8179   24.2526 C   0  0  0  0  0  0  0  0  0  0  0  0
    8.3281  -16.8327   24.2488 C   0  0  0  0  0  0  0  0  0  0  0  0
    8.4429  -17.5940   25.2416 O   0  0  0  0  0  0  0  0  0  0  0  0
    9.5150  -16.2872   23.6642 N   0  0  0  0  0  0  0  0  0  0  0  0
   10.7896  -16.7297   24.1187 C   0  0  1  0  0  0  0  0  0  0  0  0
   11.8411  -16.6839   23.0077 C   0  0  0  0  0  0  0  0  0  0  0  0
   11.5302  -17.6604   21.9176 C   0  0  0  0  0  0  0  0  0  0  0  0
   12.5724  -17.5517   20.8675 C   0  0  0  0  0  0  0  0  0  0  0  0
   13.7862  -17.7394   21.1361 O   0  0  0  0  0  0  0  0  0  0  0  0
   11.2585  -15.9863   25.3250 C   0  0  0  0  0  0  0  0  0  0  0  0
   12.1995  -15.1718   25.2882 O   0  0  0  0  0  0  0  0  0  0  0  0
   12.2727  -17.2400   19.5417 O   0  0  0  0  0  0  0  0  0  0  0  0
   10.6065  -13.5309   27.3612 C   0  0  0  0  0  0  0  0  0  0  0  0
   10.4873  -14.6364   28.3753 C   0  0  1  0  0  0  0  0  0  0  0  0
    8.9786  -14.8914   28.5296 C   0  0  0  0  0  0  0  0  0  0  0  0
   11.0725  -15.9004   27.8443 C   0  0  2  0  0  0  0  0  0  0  0  0
   10.5837  -16.2433   26.5378 N   0  0  0  0  0  0  0  0  0  0  0  0
   11.1239  -17.0356   28.8014 C   0  0  0  0  0  0  0  0  0  0  0  0
   10.6397  -18.1712   28.6232 O   0  0  0  0  0  0  0  0  0  0  0  0
   11.7661  -16.8493   30.0205 O   0  0  0  0  0  0  0  0  0  0  0  0
  2  1  1  1
  3  2  1  0
  4  3  1  0
  4  9  2  0
  5  4  1  0
  6  5  2  0
  6  7  1  0
  7  8  2  0
  8  9  1  0
 10  2  1  0
 11 10  2  0
 12 10  1  0
 13 18  1  0
 13 12  1  0
 13 14  1  6
 15 14  1  0
 16 15  1  0
 17 16  2  0
 18 19  2  0
 20 16  1  0
 22 21  1  6
 22 24  1  0
 23 22  1  0
 24 25  1  6
 25 18  1  0
 26 28  1  0
 26 24  1  0
 27 26  2  0
M  END
$$$$
