FEV.pdb
     RDKit          3D

 28 28  0  0  1  0  0  0  0  0999 V2000
    5.7499  -17.2012   24.7626 N   0  0  0  0  0  0  0  0  0  0  0  0
    6.6295  -16.7293   23.7146 C   0  0  1  0  0  0  0  0  0  0  0  0
    6.2693  -15.2796   23.4611 C   0  0  0  0  0  0  0  0  0  0  0  0
    6.4951  -14.4528   24.6743 C   0  0  0  0  0  0  0  0  0  0  0  0
    7.6024  -13.6317   24.7618 C   0  0  0  0  0  0  0  0  0  0  0  0
    7.8614  -12.8452   25.8597 C   0  0  0  0  0  0  0  0  0  0  0  0
    6.9985  -12.8632   26.9187 C   0  0  0  0  0  0  0  0  0  0  0  0
    5.8721  -13.6717   26.8783 C   0  0  0  0  0  0  0  0  0  0  0  0
    5.6343  -14.4584   25.7531 C   0  0  0  0  0  0  0  0  0  0  0  0
    8.0236  -16.8931   24.1508 C   0  0  0  0  0  0  0  0  0  0  0  0
    8.2457  -17.3925   25.2820 O   0  0  0  0  0  0  0  0  0  0  0  0
    9.1397  -16.5081   23.3420 N   0  0  0  0  0  0  0  0  0  0  0  0
   10.4592  -16.8407   23.7610 C   0  0  1  0  0  0  0  0  0  0  0  0
   11.4471  -16.8439   22.5922 C   0  0  0  0  0  0  0  0  0  0  0  0
   12.8318  -17.1840   23.0453 C   0  0  0  0  0  0  0  0  0  0  0  0
   13.7144  -17.2755   21.8563 C   0  0  0  0  0  0  0  0  0  0  0  0
   14.4412  -18.2831   21.6639 O   0  0  0  0  0  0  0  0  0  0  0  0
   10.9476  -15.9658   24.8671 C   0  0  0  0  0  0  0  0  0  0  0  0
   11.3704  -14.8109   24.6732 O   0  0  0  0  0  0  0  0  0  0  0  0
   13.7891  -16.2659   20.8973 O   0  0  0  0  0  0  0  0  0  0  0  0
    9.0835  -14.5115   27.6058 C   0  0  0  0  0  0  0  0  0  0  0  0
   10.5694  -14.4139   27.3886 C   0  0  1  0  0  0  0  0  0  0  0  0
   11.1208  -13.7008   28.6346 C   0  0  0  0  0  0  0  0  0  0  0  0
   11.1876  -15.7702   27.3757 C   0  0  2  0  0  0  0  0  0  0  0  0
   10.9135  -16.5039   26.1716 N   0  0  0  0  0  0  0  0  0  0  0  0
   11.0341  -16.5575   28.6264 C   0  0  0  0  0  0  0  0  0  0  0  0
   10.4794  -17.6696   28.7328 O   0  0  0  0  0  0  0  0  0  0  0  0
   11.5470  -16.0351   29.8084 O   0  0  0  0  0  0  0  0  0  0  0  0
  2  1  1  1
  3  2  1  0
  4  3  1  0
  4  9  2  0
  5  4  1  0
  6  5  2  0
  6  7  1  0
  7  8  2  0
  8  9  1  0
 10  2  1  0
 11 10  2  0
 12 10  1  0
 13 18  1  0
 13 12  1  0
 13 14  1  6
 15 14  1  0
 16 15  1  0
 17 16  2  0
 18 19  2  0
 20 16  1  0
 22 21  1  1
 22 24  1  0
 23 22  1  0
 24 25  1  6
 25 18  1  0
 26 28  1  0
 26 24  1  0
 27 26  2  0
M  END
$$$$
