FEV.pdb
     RDKit          3D

 28 28  0  0  1  0  0  0  0  0999 V2000
    7.3425  -16.4759   21.0356 N   0  0  0  0  0  0  0  0  0  0  0  0
    7.7242  -15.5476   22.0782 C   0  0  1  0  0  0  0  0  0  0  0  0
    6.4480  -15.1285   22.7793 C   0  0  0  0  0  0  0  0  0  0  0  0
    6.7264  -14.1331   23.8460 C   0  0  0  0  0  0  0  0  0  0  0  0
    6.3295  -14.3761   25.1466 C   0  0  0  0  0  0  0  0  0  0  0  0
    6.5606  -13.4910   26.1733 C   0  0  0  0  0  0  0  0  0  0  0  0
    7.2086  -12.3162   25.9158 C   0  0  0  0  0  0  0  0  0  0  0  0
    7.6269  -12.0265   24.6254 C   0  0  0  0  0  0  0  0  0  0  0  0
    7.3796  -12.9415   23.6041 C   0  0  0  0  0  0  0  0  0  0  0  0
    8.6711  -16.2111   22.9859 C   0  0  0  0  0  0  0  0  0  0  0  0
    8.2482  -17.1310   23.7296 O   0  0  0  0  0  0  0  0  0  0  0  0
   10.0551  -15.8541   23.0590 N   0  0  0  0  0  0  0  0  0  0  0  0
   10.9283  -16.5952   23.9048 C   0  0  1  0  0  0  0  0  0  0  0  0
   12.2663  -16.8943   23.2249 C   0  0  0  0  0  0  0  0  0  0  0  0
   12.1090  -17.8879   22.1175 C   0  0  0  0  0  0  0  0  0  0  0  0
   13.3842  -17.9689   21.3637 C   0  0  0  0  0  0  0  0  0  0  0  0
   13.4042  -17.8723   20.1104 O   0  0  0  0  0  0  0  0  0  0  0  0
   11.1398  -15.9381   25.2280 C   0  0  0  0  0  0  0  0  0  0  0  0
   11.6565  -14.8111   25.3433 O   0  0  0  0  0  0  0  0  0  0  0  0
   14.6163  -18.1539   21.9902 O   0  0  0  0  0  0  0  0  0  0  0  0
   10.1779  -14.5345   29.4267 C   0  0  0  0  0  0  0  0  0  0  0  0
    9.9477  -15.0317   28.0251 C   0  0  1  0  0  0  0  0  0  0  0  0
   10.4004  -13.8869   27.1035 C   0  0  0  0  0  0  0  0  0  0  0  0
   10.8405  -16.1872   27.7255 C   0  0  2  0  0  0  0  0  0  0  0  0
   10.7248  -16.6536   26.3718 N   0  0  0  0  0  0  0  0  0  0  0  0
   10.8624  -17.2639   28.7492 C   0  0  0  0  0  0  0  0  0  0  0  0
   10.1419  -18.2820   28.7622 O   0  0  0  0  0  0  0  0  0  0  0  0
   11.7597  -17.1587   29.8060 O   0  0  0  0  0  0  0  0  0  0  0  0
  2  1  1  6
  3  2  1  0
  4  3  1  0
  4  9  2  0
  5  4  1  0
  6  5  2  0
  6  7  1  0
  7  8  2  0
  8  9  1  0
 10  2  1  0
 11 10  2  0
 12 10  1  0
 13 18  1  0
 13 12  1  0
 13 14  1  6
 15 14  1  0
 16 15  1  0
 17 16  2  0
 18 19  2  0
 20 16  1  0
 22 21  1  1
 22 24  1  0
 23 22  1  0
 24 25  1  6
 25 18  1  0
 26 28  1  0
 26 24  1  0
 27 26  2  0
M  END
$$$$
