FEV.pdb
     RDKit          3D

 28 28  0  0  1  0  0  0  0  0999 V2000
    7.2413  -17.1115   21.4461 N   0  0  0  0  0  0  0  0  0  0  0  0
    7.6017  -16.0540   22.3661 C   0  0  1  0  0  0  0  0  0  0  0  0
    6.3442  -15.6908   23.1293 C   0  0  0  0  0  0  0  0  0  0  0  0
    6.5832  -14.5388   24.0359 C   0  0  0  0  0  0  0  0  0  0  0  0
    7.0316  -13.3346   23.5291 C   0  0  0  0  0  0  0  0  0  0  0  0
    7.2694  -12.2358   24.3209 C   0  0  0  0  0  0  0  0  0  0  0  0
    7.0592  -12.3191   25.6682 C   0  0  0  0  0  0  0  0  0  0  0  0
    6.6090  -13.5073   26.2248 C   0  0  0  0  0  0  0  0  0  0  0  0
    6.3762  -14.6050   25.3989 C   0  0  0  0  0  0  0  0  0  0  0  0
    8.6750  -16.5335   23.2487 C   0  0  0  0  0  0  0  0  0  0  0  0
    8.4370  -17.4994   24.0159 O   0  0  0  0  0  0  0  0  0  0  0  0
    9.9803  -15.9471   23.2717 N   0  0  0  0  0  0  0  0  0  0  0  0
   11.0185  -16.5725   24.0188 C   0  0  1  0  0  0  0  0  0  0  0  0
   12.2744  -16.7995   23.1742 C   0  0  0  0  0  0  0  0  0  0  0  0
   12.0577  -17.8622   22.1437 C   0  0  0  0  0  0  0  0  0  0  0  0
   13.2902  -17.9956   21.3287 C   0  0  0  0  0  0  0  0  0  0  0  0
   13.9421  -19.0703   21.3095 O   0  0  0  0  0  0  0  0  0  0  0  0
   11.3480  -15.8334   25.2729 C   0  0  0  0  0  0  0  0  0  0  0  0
   12.1697  -14.8985   25.3054 O   0  0  0  0  0  0  0  0  0  0  0  0
   13.7906  -16.9538   20.5483 O   0  0  0  0  0  0  0  0  0  0  0  0
   10.3447  -13.7219   27.0636 C   0  0  0  0  0  0  0  0  0  0  0  0
   10.7373  -14.5767   28.2383 C   0  0  1  0  0  0  0  0  0  0  0  0
    9.4578  -14.7358   29.0765 C   0  0  0  0  0  0  0  0  0  0  0  0
   11.1141  -15.9466   27.7871 C   0  0  2  0  0  0  0  0  0  0  0  0
   10.6813  -16.2391   26.4490 N   0  0  0  0  0  0  0  0  0  0  0  0
   10.8675  -17.0357   28.7673 C   0  0  0  0  0  0  0  0  0  0  0  0
   10.2192  -18.0807   28.5589 O   0  0  0  0  0  0  0  0  0  0  0  0
   11.3959  -16.9109   30.0472 O   0  0  0  0  0  0  0  0  0  0  0  0
  2  1  1  6
  3  2  1  0
  4  3  1  0
  4  9  2  0
  5  4  1  0
  6  5  2  0
  6  7  1  0
  7  8  2  0
  8  9  1  0
 10  2  1  0
 11 10  2  0
 12 10  1  0
 13 18  1  0
 13 12  1  0
 13 14  1  6
 15 14  1  0
 16 15  1  0
 17 16  2  0
 18 19  2  0
 20 16  1  0
 22 21  1  6
 22 24  1  0
 23 22  1  0
 24 25  1  6
 25 18  1  0
 26 28  1  0
 26 24  1  0
 27 26  2  0
M  END
$$$$
