HCN.pdb
     RDKit          3D

 25 25  0  0  1  0  0  0  0  0999 V2000
   11.6528  -13.7562   19.2883 N   0  0  0  0  0  0  0  0  0  0  0  0
   10.3414  -14.0737   19.8537 C   0  0  1  0  0  0  0  0  0  0  0  0
    9.7101  -15.1581   19.0472 C   0  0  0  0  0  0  0  0  0  0  0  0
    9.1817  -14.6701   17.7495 C   0  0  0  0  0  0  0  0  0  0  0  0
    9.2658  -13.3866   17.2211 C   0  0  0  0  0  0  0  0  0  0  0  0
    8.6595  -13.3549   16.0114 N   0  0  0  0  0  0  0  0  0  0  0  0
    8.2072  -14.5913   15.7901 C   0  0  0  0  0  0  0  0  0  0  0  0
    8.5134  -15.3876   16.8235 N   0  0  0  0  0  0  0  0  0  0  0  0
   10.4767  -14.4260   21.2818 C   0  0  0  0  0  0  0  0  0  0  0  0
   11.5737  -14.8695   21.6896 O   0  0  0  0  0  0  0  0  0  0  0  0
    9.3893  -14.2654   22.1633 N   0  0  0  0  0  0  0  0  0  0  0  0
    9.4873  -14.6602   23.5358 C   0  0  1  0  0  0  0  0  0  0  0  0
    8.3394  -14.0808   24.3100 C   0  0  0  0  0  0  0  0  0  0  0  0
    6.7392  -14.5100   23.6264 S   0  0  0  0  0  0  0  0  0  0  0  0
    9.5917  -16.1332   23.6934 C   0  0  0  0  0  0  0  0  0  0  0  0
    8.9805  -16.9556   22.9899 O   0  0  0  0  0  0  0  0  0  0  0  0
   13.3211  -20.3713   24.6038 N   0  0  0  0  0  0  0  0  0  0  0  0
   11.9780  -20.0048   24.3890 C   0  0  0  0  0  0  0  0  0  0  0  0
   11.0493  -20.8339   24.4251 O   0  0  0  0  0  0  0  0  0  0  0  0
   11.6391  -18.5950   24.1104 C   0  0  0  0  0  0  0  0  0  0  0  0
   10.5028  -18.0812   24.9714 C   0  0  2  0  0  0  0  0  0  0  0  0
   10.4385  -16.6336   24.7062 N   0  0  0  0  0  0  0  0  0  0  0  0
   10.7100  -18.3062   26.4104 C   0  0  0  0  0  0  0  0  0  0  0  0
   10.5045  -19.4353   26.9202 O   0  0  0  0  0  0  0  0  0  0  0  0
   11.1353  -17.2894   27.2449 O   0  0  0  0  0  0  0  0  0  0  0  0
  2  1  1  6
  3  2  1  0
  4  3  1  0
  4  8  1  0
  5  4  2  0
  6  5  1  0
  6  7  1  0
  7  8  2  0
  9  2  1  0
  9 11  1  0
 10  9  2  0
 11 12  1  0
 12 15  1  0
 12 13  1  1
 14 13  1  0
 15 16  2  0
 15 22  1  0
 18 17  1  0
 18 19  2  0
 20 18  1  0
 21 20  1  6
 21 23  1  0
 22 21  1  0
 23 25  1  0
 24 23  2  0
M  END
$$$$
