HCN.pdb
     RDKit          3D

 25 25  0  0  1  0  0  0  0  0999 V2000
    8.7127  -16.8070   20.1222 N   0  0  0  0  0  0  0  0  0  0  0  0
   10.0188  -16.2023   20.3848 C   0  0  1  0  0  0  0  0  0  0  0  0
   10.1928  -15.0111   19.5041 C   0  0  0  0  0  0  0  0  0  0  0  0
    8.9008  -14.3840   19.1311 C   0  0  0  0  0  0  0  0  0  0  0  0
    8.3765  -13.1765   19.5786 C   0  0  0  0  0  0  0  0  0  0  0  0
    7.1738  -12.9618   18.9960 N   0  0  0  0  0  0  0  0  0  0  0  0
    6.9529  -14.0124   18.2024 C   0  0  0  0  0  0  0  0  0  0  0  0
    7.9794  -14.8707   18.2748 N   0  0  0  0  0  0  0  0  0  0  0  0
   10.1479  -15.8778   21.8201 C   0  0  0  0  0  0  0  0  0  0  0  0
   11.1911  -15.3111   22.2162 O   0  0  0  0  0  0  0  0  0  0  0  0
    9.1150  -16.2028   22.7216 N   0  0  0  0  0  0  0  0  0  0  0  0
    9.2776  -16.0102   24.1308 C   0  0  1  0  0  0  0  0  0  0  0  0
    8.0673  -15.3190   24.6878 C   0  0  0  0  0  0  0  0  0  0  0  0
    8.1549  -15.0610   26.4592 S   0  0  0  0  0  0  0  0  0  0  0  0
    9.5848  -17.2771   24.8420 C   0  0  0  0  0  0  0  0  0  0  0  0
    8.8322  -18.2661   24.8628 O   0  0  0  0  0  0  0  0  0  0  0  0
   13.7436  -18.5830   23.8971 N   0  0  0  0  0  0  0  0  0  0  0  0
   12.7846  -19.2716   24.6657 C   0  0  0  0  0  0  0  0  0  0  0  0
   12.1093  -20.2091   24.2007 O   0  0  0  0  0  0  0  0  0  0  0  0
   12.5574  -18.8838   26.0721 C   0  0  0  0  0  0  0  0  0  0  0  0
   11.1085  -18.5496   26.3642 C   0  0  2  0  0  0  0  0  0  0  0  0
   10.8090  -17.3663   25.5395 N   0  0  0  0  0  0  0  0  0  0  0  0
   10.8527  -18.2374   27.7789 C   0  0  0  0  0  0  0  0  0  0  0  0
   10.5608  -17.0695   28.1364 O   0  0  0  0  0  0  0  0  0  0  0  0
   10.9242  -19.2123   28.7564 O   0  0  0  0  0  0  0  0  0  0  0  0
  2  1  1  1
  3  2  1  0
  4  3  1  0
  4  8  1  0
  5  4  2  0
  6  5  1  0
  6  7  1  0
  7  8  2  0
  9  2  1  0
  9 11  1  0
 10  9  2  0
 11 12  1  0
 12 15  1  0
 12 13  1  1
 14 13  1  0
 15 16  2  0
 15 22  1  0
 18 17  1  0
 18 19  2  0
 20 18  1  0
 21 20  1  1
 21 23  1  0
 22 21  1  0
 23 25  1  0
 24 23  2  0
M  END
$$$$
