HCN.pdb
     RDKit          3D

 25 25  0  0  1  0  0  0  0  0999 V2000
   10.0199  -13.8909   20.7263 N   0  0  0  0  0  0  0  0  0  0  0  0
    8.7636  -13.9663   21.4721 C   0  0  1  0  0  0  0  0  0  0  0  0
    7.8531  -14.9383   20.8004 C   0  0  0  0  0  0  0  0  0  0  0  0
    7.5242  -14.5435   19.4084 C   0  0  0  0  0  0  0  0  0  0  0  0
    7.6917  -13.2991   18.8111 C   0  0  0  0  0  0  0  0  0  0  0  0
    7.2704  -13.3539   17.5260 N   0  0  0  0  0  0  0  0  0  0  0  0
    6.8494  -14.6048   17.3262 C   0  0  0  0  0  0  0  0  0  0  0  0
    6.9960  -15.3266   18.4457 N   0  0  0  0  0  0  0  0  0  0  0  0
    9.0315  -14.3126   22.8829 C   0  0  0  0  0  0  0  0  0  0  0  0
   10.0078  -15.0503   23.1453 O   0  0  0  0  0  0  0  0  0  0  0  0
    8.2008  -13.8208   23.9092 N   0  0  0  0  0  0  0  0  0  0  0  0
    8.5192  -14.0438   25.2870 C   0  0  1  0  0  0  0  0  0  0  0  0
    7.6328  -13.1965   26.1525 C   0  0  0  0  0  0  0  0  0  0  0  0
    7.9773  -13.3738   27.9024 S   0  0  0  0  0  0  0  0  0  0  0  0
    8.4632  -15.4818   25.6538 C   0  0  0  0  0  0  0  0  0  0  0  0
    7.4510  -16.1933   25.5356 O   0  0  0  0  0  0  0  0  0  0  0  0
   11.3567  -18.0033   23.6111 N   0  0  0  0  0  0  0  0  0  0  0  0
   10.4148  -18.4138   24.5747 C   0  0  0  0  0  0  0  0  0  0  0  0
    9.3390  -18.9582   24.2623 O   0  0  0  0  0  0  0  0  0  0  0  0
   10.6936  -18.2004   26.0088 C   0  0  0  0  0  0  0  0  0  0  0  0
    9.5865  -17.4472   26.7183 C   0  0  2  0  0  0  0  0  0  0  0  0
    9.6328  -16.0809   26.1696 N   0  0  0  0  0  0  0  0  0  0  0  0
    9.7564  -17.3939   28.1786 C   0  0  0  0  0  0  0  0  0  0  0  0
    9.9529  -16.2999   28.7630 O   0  0  0  0  0  0  0  0  0  0  0  0
    9.7055  -18.5384   28.9523 O   0  0  0  0  0  0  0  0  0  0  0  0
  2  1  1  6
  3  2  1  0
  4  3  1  0
  4  8  1  0
  5  4  2  0
  6  5  1  0
  6  7  1  0
  7  8  2  0
  9  2  1  0
  9 11  1  0
 10  9  2  0
 11 12  1  0
 12 15  1  0
 12 13  1  1
 14 13  1  0
 15 16  2  0
 15 22  1  0
 18 17  1  0
 18 19  2  0
 20 18  1  0
 21 20  1  6
 21 23  1  0
 22 21  1  0
 23 25  1  0
 24 23  2  0
M  END
$$$$
