HCN.pdb
     RDKit          3D

 25 25  0  0  1  0  0  0  0  0999 V2000
    8.1477  -12.2603   20.2475 N   0  0  0  0  0  0  0  0  0  0  0  0
    8.0116  -13.6436   20.7041 C   0  0  1  0  0  0  0  0  0  0  0  0
    8.8544  -14.5270   19.8473 C   0  0  0  0  0  0  0  0  0  0  0  0
    8.3865  -14.5715   18.4399 C   0  0  0  0  0  0  0  0  0  0  0  0
    7.4388  -13.7581   17.8285 C   0  0  0  0  0  0  0  0  0  0  0  0
    7.2996  -14.1215   16.5321 N   0  0  0  0  0  0  0  0  0  0  0  0
    8.1418  -15.1392   16.3392 C   0  0  0  0  0  0  0  0  0  0  0  0
    8.7980  -15.4180   17.4739 N   0  0  0  0  0  0  0  0  0  0  0  0
    8.3534  -13.7402   22.1379 C   0  0  0  0  0  0  0  0  0  0  0  0
    8.9215  -12.7694   22.6866 O   0  0  0  0  0  0  0  0  0  0  0  0
    8.0453  -14.9048   22.8687 N   0  0  0  0  0  0  0  0  0  0  0  0
    8.3598  -15.0069   24.2615 C   0  0  1  0  0  0  0  0  0  0  0  0
    7.7135  -13.8767   25.0082 C   0  0  0  0  0  0  0  0  0  0  0  0
    5.9335  -14.0422   25.1362 S   0  0  0  0  0  0  0  0  0  0  0  0
    8.0055  -16.3347   24.8244 C   0  0  0  0  0  0  0  0  0  0  0  0
    6.9073  -16.8926   24.6585 O   0  0  0  0  0  0  0  0  0  0  0  0
    9.0899  -21.0769   26.1147 N   0  0  0  0  0  0  0  0  0  0  0  0
   10.1407  -20.3025   26.6442 C   0  0  0  0  0  0  0  0  0  0  0  0
   11.1976  -20.8130   27.0606 O   0  0  0  0  0  0  0  0  0  0  0  0
   10.0039  -18.8341   26.7166 C   0  0  0  0  0  0  0  0  0  0  0  0
    8.6845  -18.3374   26.1608 C   0  0  2  0  0  0  0  0  0  0  0  0
    8.9761  -17.0079   25.5975 N   0  0  0  0  0  0  0  0  0  0  0  0
    7.6283  -18.2169   27.1777 C   0  0  0  0  0  0  0  0  0  0  0  0
    6.9284  -19.2093   27.4977 O   0  0  0  0  0  0  0  0  0  0  0  0
    7.3722  -17.0155   27.8119 O   0  0  0  0  0  0  0  0  0  0  0  0
  2  1  1  6
  3  2  1  0
  4  3  1  0
  4  8  1  0
  5  4  2  0
  6  5  1  0
  6  7  1  0
  7  8  2  0
  9  2  1  0
  9 11  1  0
 10  9  2  0
 11 12  1  0
 12 15  1  0
 12 13  1  1
 14 13  1  0
 15 16  2  0
 15 22  1  0
 18 17  1  0
 18 19  2  0
 20 18  1  0
 21 20  1  1
 21 23  1  0
 22 21  1  0
 23 25  1  0
 24 23  2  0
M  END
$$$$
