HCN.pdb
     RDKit          3D

 25 25  0  0  1  0  0  0  0  0999 V2000
    7.8824  -15.3454   21.5706 N   0  0  0  0  0  0  0  0  0  0  0  0
    8.3254  -13.9543   21.6658 C   0  0  1  0  0  0  0  0  0  0  0  0
    7.5641  -13.1298   20.6831 C   0  0  0  0  0  0  0  0  0  0  0  0
    7.7798  -13.5685   19.2822 C   0  0  0  0  0  0  0  0  0  0  0  0
    8.5469  -12.9493   18.3015 C   0  0  0  0  0  0  0  0  0  0  0  0
    8.4855  -13.6697   17.1573 N   0  0  0  0  0  0  0  0  0  0  0  0
    7.6975  -14.7151   17.4185 C   0  0  0  0  0  0  0  0  0  0  0  0
    7.2687  -14.6656   18.6871 N   0  0  0  0  0  0  0  0  0  0  0  0
    8.1812  -13.4701   23.0538 C   0  0  0  0  0  0  0  0  0  0  0  0
    8.1644  -12.2359   23.2607 O   0  0  0  0  0  0  0  0  0  0  0  0
    8.0663  -14.3833   24.1206 N   0  0  0  0  0  0  0  0  0  0  0  0
    7.7841  -13.9336   25.4500 C   0  0  1  0  0  0  0  0  0  0  0  0
    6.4711  -13.2066   25.4679 C   0  0  0  0  0  0  0  0  0  0  0  0
    5.9851  -12.6680   27.1067 S   0  0  0  0  0  0  0  0  0  0  0  0
    7.8348  -15.0375   26.4422 C   0  0  0  0  0  0  0  0  0  0  0  0
    7.6482  -14.8888   27.6620 O   0  0  0  0  0  0  0  0  0  0  0  0
    7.7812  -20.9923   26.4263 N   0  0  0  0  0  0  0  0  0  0  0  0
    7.4854  -19.8148   27.1407 C   0  0  0  0  0  0  0  0  0  0  0  0
    7.3480  -19.8056   28.3785 O   0  0  0  0  0  0  0  0  0  0  0  0
    7.3292  -18.5381   26.4157 C   0  0  0  0  0  0  0  0  0  0  0  0
    8.2605  -17.4553   26.9225 C   0  0  2  0  0  0  0  0  0  0  0  0
    8.1123  -16.3395   25.9722 N   0  0  0  0  0  0  0  0  0  0  0  0
    9.6707  -17.8714   26.9723 C   0  0  0  0  0  0  0  0  0  0  0  0
   10.4995  -17.4337   26.1365 O   0  0  0  0  0  0  0  0  0  0  0  0
   10.1287  -18.7520   27.9345 O   0  0  0  0  0  0  0  0  0  0  0  0
  2  1  1  1
  3  2  1  0
  4  3  1  0
  4  8  1  0
  5  4  2  0
  6  5  1  0
  6  7  1  0
  7  8  2  0
  9  2  1  0
  9 11  1  0
 10  9  2  0
 11 12  1  0
 12 15  1  0
 12 13  1  6
 14 13  1  0
 15 16  2  0
 15 22  1  0
 18 17  1  0
 18 19  2  0
 20 18  1  0
 21 20  1  6
 21 23  1  0
 22 21  1  0
 23 25  1  0
 24 23  2  0
M  END
$$$$
