HCN.pdb
     RDKit          3D

 25 25  0  0  1  0  0  0  0  0999 V2000
   10.2506  -15.8826   16.0800 N   0  0  0  0  0  0  0  0  0  0  0  0
   11.3607  -16.3819   16.8917 C   0  0  1  0  0  0  0  0  0  0  0  0
   12.6201  -16.3106   16.0956 C   0  0  0  0  0  0  0  0  0  0  0  0
   12.7541  -17.4362   15.1382 C   0  0  0  0  0  0  0  0  0  0  0  0
   11.9398  -18.5568   15.0176 C   0  0  0  0  0  0  0  0  0  0  0  0
   12.4013  -19.3460   14.0195 N   0  0  0  0  0  0  0  0  0  0  0  0
   13.4797  -18.7312   13.5284 C   0  0  0  0  0  0  0  0  0  0  0  0
   13.7012  -17.5870   14.1899 N   0  0  0  0  0  0  0  0  0  0  0  0
   11.4407  -15.6283   18.1597 C   0  0  0  0  0  0  0  0  0  0  0  0
   10.8057  -14.5546   18.2613 O   0  0  0  0  0  0  0  0  0  0  0  0
   12.2187  -16.1120   19.2302 N   0  0  0  0  0  0  0  0  0  0  0  0
   12.0014  -15.6508   20.5679 C   0  0  1  0  0  0  0  0  0  0  0  0
   10.5567  -15.8288   20.9338 C   0  0  0  0  0  0  0  0  0  0  0  0
   10.2205  -15.4956   22.6624 S   0  0  0  0  0  0  0  0  0  0  0  0
   12.9172  -16.2957   21.5431 C   0  0  0  0  0  0  0  0  0  0  0  0
   12.9081  -17.5091   21.8121 O   0  0  0  0  0  0  0  0  0  0  0  0
   16.6835  -16.4379   20.9860 N   0  0  0  0  0  0  0  0  0  0  0  0
   16.9528  -15.3709   21.8654 C   0  0  0  0  0  0  0  0  0  0  0  0
   17.9252  -14.6090   21.7073 O   0  0  0  0  0  0  0  0  0  0  0  0
   16.0638  -15.1310   23.0197 C   0  0  0  0  0  0  0  0  0  0  0  0
   14.8896  -16.0877   23.0676 C   0  0  2  0  0  0  0  0  0  0  0  0
   13.8588  -15.4806   22.2081 N   0  0  0  0  0  0  0  0  0  0  0  0
   14.3462  -16.2813   24.4209 C   0  0  0  0  0  0  0  0  0  0  0  0
   13.2718  -15.7307   24.7666 O   0  0  0  0  0  0  0  0  0  0  0  0
   14.9951  -17.0708   25.3519 O   0  0  0  0  0  0  0  0  0  0  0  0
  2  1  1  6
  3  2  1  0
  4  3  1  0
  4  8  1  0
  5  4  2  0
  6  5  1  0
  6  7  1  0
  7  8  2  0
  9  2  1  0
  9 11  1  0
 10  9  2  0
 11 12  1  0
 12 15  1  0
 12 13  1  1
 14 13  1  0
 15 16  2  0
 15 22  1  0
 18 17  1  0
 18 19  2  0
 20 18  1  0
 21 20  1  1
 21 23  1  0
 22 21  1  0
 23 25  1  0
 24 23  2  0
M  END
$$$$
