HCN.pdb
     RDKit          3D

 25 25  0  0  1  0  0  0  0  0999 V2000
    8.4065  -14.4405   15.9269 N   0  0  0  0  0  0  0  0  0  0  0  0
    8.1129  -15.4038   16.9881 C   0  0  1  0  0  0  0  0  0  0  0  0
    8.5865  -16.7544   16.5680 C   0  0  0  0  0  0  0  0  0  0  0  0
    7.7948  -17.3124   15.4439 C   0  0  0  0  0  0  0  0  0  0  0  0
    7.9410  -17.0548   14.0853 C   0  0  0  0  0  0  0  0  0  0  0  0
    7.0231  -17.7650   13.3890 N   0  0  0  0  0  0  0  0  0  0  0  0
    6.3198  -18.4504   14.2932 C   0  0  0  0  0  0  0  0  0  0  0  0
    6.7722  -18.1877   15.5270 N   0  0  0  0  0  0  0  0  0  0  0  0
    8.7145  -14.9556   18.2605 C   0  0  0  0  0  0  0  0  0  0  0  0
    9.8686  -14.4719   18.2416 O   0  0  0  0  0  0  0  0  0  0  0  0
    7.9999  -15.0734   19.4691 N   0  0  0  0  0  0  0  0  0  0  0  0
    8.5766  -14.6561   20.7112 C   0  0  1  0  0  0  0  0  0  0  0  0
    7.4926  -14.1882   21.6380 C   0  0  0  0  0  0  0  0  0  0  0  0
    6.3050  -15.4693   22.0384 S   0  0  0  0  0  0  0  0  0  0  0  0
    9.4282  -15.7093   21.3203 C   0  0  0  0  0  0  0  0  0  0  0  0
    9.3004  -16.9254   21.0978 O   0  0  0  0  0  0  0  0  0  0  0  0
   14.6954  -16.1832   24.2023 N   0  0  0  0  0  0  0  0  0  0  0  0
   13.7185  -16.6956   23.3263 C   0  0  0  0  0  0  0  0  0  0  0  0
   13.6661  -17.9022   23.0221 O   0  0  0  0  0  0  0  0  0  0  0  0
   12.7135  -15.7876   22.7382 C   0  0  0  0  0  0  0  0  0  0  0  0
   11.2978  -16.3120   22.8692 C   0  0  2  0  0  0  0  0  0  0  0  0
   10.4483  -15.3058   22.2089 N   0  0  0  0  0  0  0  0  0  0  0  0
   10.8620  -16.4807   24.2641 C   0  0  0  0  0  0  0  0  0  0  0  0
   10.0913  -15.6475   24.8016 O   0  0  0  0  0  0  0  0  0  0  0  0
   11.2829  -17.5549   25.0257 O   0  0  0  0  0  0  0  0  0  0  0  0
  2  1  1  6
  3  2  1  0
  4  3  1  0
  4  8  1  0
  5  4  2  0
  6  5  1  0
  6  7  1  0
  7  8  2  0
  9  2  1  0
  9 11  1  0
 10  9  2  0
 11 12  1  0
 12 15  1  0
 12 13  1  1
 14 13  1  0
 15 16  2  0
 15 22  1  0
 18 17  1  0
 18 19  2  0
 20 18  1  0
 21 20  1  1
 21 23  1  0
 22 21  1  0
 23 25  1  0
 24 23  2  0
M  END
$$$$
