HCN.pdb
     RDKit          3D

 25 25  0  0  1  0  0  0  0  0999 V2000
    8.5642  -17.7808   18.2993 N   0  0  0  0  0  0  0  0  0  0  0  0
    9.9517  -17.9513   18.7306 C   0  0  1  0  0  0  0  0  0  0  0  0
   10.8418  -17.9356   17.5337 C   0  0  0  0  0  0  0  0  0  0  0  0
   10.6012  -19.0866   16.6288 C   0  0  0  0  0  0  0  0  0  0  0  0
   11.0744  -20.3878   16.7572 C   0  0  0  0  0  0  0  0  0  0  0  0
   10.6259  -21.1363   15.7225 N   0  0  0  0  0  0  0  0  0  0  0  0
    9.8893  -20.3200   14.9655 C   0  0  0  0  0  0  0  0  0  0  0  0
    9.8670  -19.0903   15.4974 N   0  0  0  0  0  0  0  0  0  0  0  0
   10.3057  -16.9149   19.7217 C   0  0  0  0  0  0  0  0  0  0  0  0
    9.8048  -15.7741   19.6028 O   0  0  0  0  0  0  0  0  0  0  0  0
   11.1910  -17.2090   20.7777 N   0  0  0  0  0  0  0  0  0  0  0  0
   11.2492  -16.3813   21.9442 C   0  0  1  0  0  0  0  0  0  0  0  0
    9.8877  -16.2962   22.5702 C   0  0  0  0  0  0  0  0  0  0  0  0
    9.9016  -15.5231   24.1870 S   0  0  0  0  0  0  0  0  0  0  0  0
   12.2880  -16.8321   22.9050 C   0  0  0  0  0  0  0  0  0  0  0  0
   12.2713  -17.9305   23.4866 O   0  0  0  0  0  0  0  0  0  0  0  0
   17.8020  -16.2077   22.1456 N   0  0  0  0  0  0  0  0  0  0  0  0
   17.0801  -15.7154   23.2505 C   0  0  0  0  0  0  0  0  0  0  0  0
   17.5995  -15.5736   24.3736 O   0  0  0  0  0  0  0  0  0  0  0  0
   15.6584  -15.3495   23.0924 C   0  0  0  0  0  0  0  0  0  0  0  0
   14.7173  -16.4969   23.3992 C   0  0  2  0  0  0  0  0  0  0  0  0
   13.3640  -15.9594   23.1766 N   0  0  0  0  0  0  0  0  0  0  0  0
   14.8263  -16.9909   24.7807 C   0  0  0  0  0  0  0  0  0  0  0  0
   15.6634  -17.8773   25.0818 O   0  0  0  0  0  0  0  0  0  0  0  0
   14.0168  -16.4994   25.7878 O   0  0  0  0  0  0  0  0  0  0  0  0
  2  1  1  6
  3  2  1  0
  4  3  1  0
  4  8  1  0
  5  4  2  0
  6  5  1  0
  6  7  1  0
  7  8  2  0
  9  2  1  0
  9 11  1  0
 10  9  2  0
 11 12  1  0
 12 15  1  0
 12 13  1  1
 14 13  1  0
 15 16  2  0
 15 22  1  0
 18 17  1  0
 18 19  2  0
 20 18  1  0
 21 20  1  1
 21 23  1  0
 22 21  1  0
 23 25  1  0
 24 23  2  0
M  END
$$$$
