HCN.pdb
     RDKit          3D

 25 25  0  0  1  0  0  0  0  0999 V2000
    8.4514  -15.7171   16.7317 N   0  0  0  0  0  0  0  0  0  0  0  0
    8.6715  -16.6311   17.8526 C   0  0  1  0  0  0  0  0  0  0  0  0
    9.4927  -17.7865   17.3882 C   0  0  0  0  0  0  0  0  0  0  0  0
    8.7837  -18.6260   16.3911 C   0  0  0  0  0  0  0  0  0  0  0  0
    8.0227  -19.7668   16.6214 C   0  0  0  0  0  0  0  0  0  0  0  0
    7.5442  -20.2362   15.4455 N   0  0  0  0  0  0  0  0  0  0  0  0
    7.9967  -19.4066   14.5027 C   0  0  0  0  0  0  0  0  0  0  0  0
    8.7401  -18.4387   15.0562 N   0  0  0  0  0  0  0  0  0  0  0  0
    9.2878  -15.9076   18.9833 C   0  0  0  0  0  0  0  0  0  0  0  0
   10.1616  -15.0453   18.7399 O   0  0  0  0  0  0  0  0  0  0  0  0
    8.8974  -16.1869   20.3080 N   0  0  0  0  0  0  0  0  0  0  0  0
    9.4951  -15.5017   21.4137 C   0  0  1  0  0  0  0  0  0  0  0  0
    8.4292  -15.0899   22.3870 C   0  0  0  0  0  0  0  0  0  0  0  0
    7.3105  -16.4234   22.8141 S   0  0  0  0  0  0  0  0  0  0  0  0
   10.5724  -16.2973   22.0554 C   0  0  0  0  0  0  0  0  0  0  0  0
   10.6260  -17.5390   22.0412 O   0  0  0  0  0  0  0  0  0  0  0  0
   16.0765  -16.5839   22.9700 N   0  0  0  0  0  0  0  0  0  0  0  0
   15.1532  -15.9208   23.8019 C   0  0  0  0  0  0  0  0  0  0  0  0
   15.3425  -15.7805   25.0249 O   0  0  0  0  0  0  0  0  0  0  0  0
   13.9130  -15.3663   23.2237 C   0  0  0  0  0  0  0  0  0  0  0  0
   12.7490  -16.3346   23.2878 C   0  0  2  0  0  0  0  0  0  0  0  0
   11.6023  -15.6012   22.7246 N   0  0  0  0  0  0  0  0  0  0  0  0
   12.4260  -16.7730   24.6544 C   0  0  0  0  0  0  0  0  0  0  0  0
   13.1104  -17.6587   25.2236 O   0  0  0  0  0  0  0  0  0  0  0  0
   11.3653  -16.2284   25.3541 O   0  0  0  0  0  0  0  0  0  0  0  0
  2  1  1  6
  3  2  1  0
  4  3  1  0
  4  8  1  0
  5  4  2  0
  6  5  1  0
  6  7  1  0
  7  8  2  0
  9  2  1  0
  9 11  1  0
 10  9  2  0
 11 12  1  0
 12 15  1  0
 12 13  1  1
 14 13  1  0
 15 16  2  0
 15 22  1  0
 18 17  1  0
 18 19  2  0
 20 18  1  0
 21 20  1  1
 21 23  1  0
 22 21  1  0
 23 25  1  0
 24 23  2  0
M  END
$$$$
