HCN.pdb
     RDKit          3D

 25 25  0  0  1  0  0  0  0  0999 V2000
   10.6112  -13.4020   19.7969 N   0  0  0  0  0  0  0  0  0  0  0  0
    9.2783  -13.7375   20.2981 C   0  0  1  0  0  0  0  0  0  0  0  0
    8.7565  -14.9174   19.5494 C   0  0  0  0  0  0  0  0  0  0  0  0
    8.4158  -14.5946   18.1418 C   0  0  0  0  0  0  0  0  0  0  0  0
    8.6271  -13.3989   17.4642 C   0  0  0  0  0  0  0  0  0  0  0  0
    8.1759  -13.5134   16.1933 N   0  0  0  0  0  0  0  0  0  0  0  0
    7.6938  -14.7531   16.0806 C   0  0  0  0  0  0  0  0  0  0  0  0
    7.8314  -15.4101   17.2404 N   0  0  0  0  0  0  0  0  0  0  0  0
    9.3265  -13.9603   21.7575 C   0  0  0  0  0  0  0  0  0  0  0  0
   10.3324  -14.5220   22.2464 O   0  0  0  0  0  0  0  0  0  0  0  0
    8.2584  -13.5479   22.5787 N   0  0  0  0  0  0  0  0  0  0  0  0
    8.2440  -13.8500   23.9779 C   0  0  1  0  0  0  0  0  0  0  0  0
    7.0583  -13.1935   24.6229 C   0  0  0  0  0  0  0  0  0  0  0  0
    6.8536  -13.6428   26.3458 S   0  0  0  0  0  0  0  0  0  0  0  0
    8.2961  -15.3108   24.2407 C   0  0  0  0  0  0  0  0  0  0  0  0
    7.4340  -16.1200   23.8577 O   0  0  0  0  0  0  0  0  0  0  0  0
   10.9764  -20.1168   23.7354 N   0  0  0  0  0  0  0  0  0  0  0  0
   11.0954  -19.1085   24.7119 C   0  0  0  0  0  0  0  0  0  0  0  0
   11.5463  -19.3362   25.8503 O   0  0  0  0  0  0  0  0  0  0  0  0
   10.6771  -17.7285   24.3945 C   0  0  0  0  0  0  0  0  0  0  0  0
    9.5083  -17.2589   25.2372 C   0  0  2  0  0  0  0  0  0  0  0  0
    9.3938  -15.8145   24.9718 N   0  0  0  0  0  0  0  0  0  0  0  0
    9.7003  -17.4776   26.6792 C   0  0  0  0  0  0  0  0  0  0  0  0
   10.2120  -16.5869   27.4016 O   0  0  0  0  0  0  0  0  0  0  0  0
    9.3262  -18.6629   27.2845 O   0  0  0  0  0  0  0  0  0  0  0  0
  2  1  1  6
  3  2  1  0
  4  3  1  0
  4  8  1  0
  5  4  2  0
  6  5  1  0
  6  7  1  0
  7  8  2  0
  9  2  1  0
  9 11  1  0
 10  9  2  0
 11 12  1  0
 12 15  1  0
 12 13  1  6
 14 13  1  0
 15 16  2  0
 15 22  1  0
 18 17  1  0
 18 19  2  0
 20 18  1  0
 21 20  1  6
 21 23  1  0
 22 21  1  0
 23 25  1  0
 24 23  2  0
M  END
$$$$
