SRY.pdb
     RDKit          3D

 30 30  0  0  1  0  0  0  0  0999 V2000
   27.1091  -24.3054  -16.3940 O   0  0  0  0  0  0  0  0  0  0  0  0
   28.5023  -24.3835  -16.3254 C   0  0  0  0  0  0  0  0  0  0  0  0
   29.0935  -24.7628  -17.6649 C   0  0  2  0  0  0  0  0  0  0  0  0
   28.8454  -23.6904  -18.6087 N   0  0  0  0  0  0  0  0  0  0  0  0
   28.4909  -26.0029  -18.2116 C   0  0  0  0  0  0  0  0  0  0  0  0
   27.4661  -25.9556  -18.9366 O   0  0  0  0  0  0  0  0  0  0  0  0
   33.3387  -32.8114  -18.6000 N   0  0  0  0  0  0  0  0  0  0  0  0
   32.6748  -32.1635  -17.5094 C   0  0  0  0  0  0  0  0  0  0  0  0
   32.8582  -32.5902  -16.3054 N   0  0  0  0  0  0  0  0  0  0  0  0
   31.8266  -31.0698  -17.7335 N   0  0  0  0  0  0  0  0  0  0  0  0
   31.5063  -30.6522  -19.0807 C   0  0  0  0  0  0  0  0  0  0  0  0
   30.5679  -29.4703  -19.0800 C   0  0  0  0  0  0  0  0  0  0  0  0
   29.3283  -29.7292  -18.2296 C   0  0  0  0  0  0  0  0  0  0  0  0
   28.4465  -28.5437  -18.2947 C   0  0  2  0  0  0  0  0  0  0  0  0
   29.0121  -27.2966  -17.9636 N   0  0  0  0  0  0  0  0  0  0  0  0
   27.1667  -28.7207  -17.5399 C   0  0  0  0  0  0  0  0  0  0  0  0
   27.0133  -28.2051  -16.4173 O   0  0  0  0  0  0  0  0  0  0  0  0
   32.3456  -32.1769  -15.4887 O   0  0  0  0  0  0  0  0  0  0  0  0
   19.0147  -28.6379  -15.4604 C   0  0  0  0  0  0  0  0  0  0  0  0
   20.2945  -28.5445  -15.9779 C   0  0  0  0  0  0  0  0  0  0  0  0
   20.4900  -28.3472  -17.3262 C   0  0  0  0  0  0  0  0  0  0  0  0
   21.7563  -28.2540  -17.8429 C   0  0  0  0  0  0  0  0  0  0  0  0
   22.8251  -28.3623  -16.9819 C   0  0  0  0  0  0  0  0  0  0  0  0
   24.1801  -28.2630  -17.5334 C   0  0  1  0  0  0  0  0  0  0  0  0
   24.8323  -29.6521  -17.5061 N   0  0  0  0  0  0  0  0  0  0  0  0
   26.1432  -29.4759  -18.1173 C   0  0  0  0  0  0  0  0  0  0  0  0
   24.0265  -30.5021  -18.4059 O   0  0  0  0  0  0  0  0  0  0  0  0
   22.8615  -30.8207  -18.0755 C   0  0  0  0  0  0  0  0  0  0  0  0
   22.6393  -28.5590  -15.6364 C   0  0  0  0  0  0  0  0  0  0  0  0
   21.3661  -28.6515  -15.1253 O   0  0  0  0  0  0  0  0  0  0  0  0
  2  1  1  0
  3  2  1  0
  3  4  1  6
  5  6  2  0
  5  3  1  0
  7  8  1  0
  8  9  2  0
 10 11  1  0
 10  8  1  0
 11 12  1  0
 12 13  1  0
 14 13  1  1
 14 15  1  0
 15  5  1  0
 16 14  1  0
 17 16  2  0
 18 19  1  0
 19 20  2  0
 19 29  1  0
 20 21  1  0
 21 22  2  0
 22 23  1  0
 24 23  1  1
 24 25  1  0
 25 16  1  0
 26 30  1  0
 26 24  1  0
 27 26  2  0
 28 22  1  0
 29 28  2  0
M  END
$$$$
