SRY.pdb
     RDKit          3D

 30 30  0  0  1  0  0  0  0  0999 V2000
   23.6418  -23.8399  -15.1299 O   0  0  0  0  0  0  0  0  0  0  0  0
   24.7262  -23.2830  -14.4474 C   0  0  0  0  0  0  0  0  0  0  0  0
   24.8687  -21.8100  -14.7600 C   0  0  2  0  0  0  0  0  0  0  0  0
   26.0611  -21.3045  -14.1082 N   0  0  0  0  0  0  0  0  0  0  0  0
   23.7111  -21.0202  -14.2741 C   0  0  0  0  0  0  0  0  0  0  0  0
   23.5764  -20.7597  -13.0527 O   0  0  0  0  0  0  0  0  0  0  0  0
   20.6615  -14.8216  -18.9635 N   0  0  0  0  0  0  0  0  0  0  0  0
   21.9964  -14.9592  -18.4643 C   0  0  0  0  0  0  0  0  0  0  0  0
   22.9140  -14.1430  -18.8605 N   0  0  0  0  0  0  0  0  0  0  0  0
   22.3194  -15.9711  -17.5491 N   0  0  0  0  0  0  0  0  0  0  0  0
   21.3117  -16.9083  -17.1039 C   0  0  0  0  0  0  0  0  0  0  0  0
   21.8862  -17.9114  -16.1338 C   0  0  0  0  0  0  0  0  0  0  0  0
   20.8696  -18.9846  -15.7572 C   0  0  0  0  0  0  0  0  0  0  0  0
   21.4830  -19.9008  -14.7716 C   0  0  2  0  0  0  0  0  0  0  0  0
   22.6997  -20.5153  -15.1279 N   0  0  0  0  0  0  0  0  0  0  0  0
   20.5343  -20.9418  -14.2665 C   0  0  0  0  0  0  0  0  0  0  0  0
   20.8714  -22.1390  -14.2151 O   0  0  0  0  0  0  0  0  0  0  0  0
   23.9165  -14.2568  -18.5727 O   0  0  0  0  0  0  0  0  0  0  0  0
   15.4276  -25.4653   -9.4135 C   0  0  0  0  0  0  0  0  0  0  0  0
   16.2705  -24.5509  -10.0200 C   0  0  0  0  0  0  0  0  0  0  0  0
   16.2422  -23.2245   -9.6529 C   0  0  0  0  0  0  0  0  0  0  0  0
   17.0758  -22.3154  -10.2514 C   0  0  0  0  0  0  0  0  0  0  0  0
   17.9398  -22.7610  -11.2262 C   0  0  0  0  0  0  0  0  0  0  0  0
   18.8318  -21.7896  -11.8671 C   0  0  2  0  0  0  0  0  0  0  0  0
   18.2882  -21.4602  -13.2642 N   0  0  0  0  0  0  0  0  0  0  0  0
   19.2601  -20.5473  -13.8518 C   0  0  0  0  0  0  0  0  0  0  0  0
   17.0354  -20.7078  -13.0507 O   0  0  0  0  0  0  0  0  0  0  0  0
   17.0848  -19.4774  -12.8235 C   0  0  0  0  0  0  0  0  0  0  0  0
   17.9746  -24.0816  -11.5982 C   0  0  0  0  0  0  0  0  0  0  0  0
   17.1355  -24.9877  -10.9935 O   0  0  0  0  0  0  0  0  0  0  0  0
  2  1  1  0
  3  2  1  0
  3  4  1  1
  5  6  2  0
  5  3  1  0
  7  8  1  0
  8  9  2  0
 10 11  1  0
 10  8  1  0
 11 12  1  0
 12 13  1  0
 14 13  1  6
 14 15  1  0
 15  5  1  0
 16 14  1  0
 17 16  2  0
 18 19  1  0
 19 20  2  0
 19 29  1  0
 20 21  1  0
 21 22  2  0
 22 23  1  0
 24 23  1  6
 24 25  1  0
 25 16  1  0
 26 30  1  0
 26 24  1  0
 27 26  2  0
 28 22  1  0
 29 28  2  0
M  END
$$$$
