SRY.pdb
     RDKit          3D

 30 30  0  0  1  0  0  0  0  0999 V2000
   22.7182   -2.2533  -14.1500 O   0  0  0  0  0  0  0  0  0  0  0  0
   21.9013   -3.3751  -13.9885 C   0  0  0  0  0  0  0  0  0  0  0  0
   21.4183   -3.8945  -15.3244 C   0  0  2  0  0  0  0  0  0  0  0  0
   20.5899   -2.8824  -15.9504 N   0  0  0  0  0  0  0  0  0  0  0  0
   20.6073   -5.1285  -15.1850 C   0  0  0  0  0  0  0  0  0  0  0  0
   19.3624   -5.0668  -15.0290 O   0  0  0  0  0  0  0  0  0  0  0  0
   24.9395  -10.9935  -16.4991 N   0  0  0  0  0  0  0  0  0  0  0  0
   23.8259  -11.4634  -15.7316 C   0  0  0  0  0  0  0  0  0  0  0  0
   24.0266  -12.2602  -14.7365 N   0  0  0  0  0  0  0  0  0  0  0  0
   22.5184  -11.0683  -16.0481 N   0  0  0  0  0  0  0  0  0  0  0  0
   22.2598  -10.2484  -17.2113 C   0  0  0  0  0  0  0  0  0  0  0  0
   21.5160   -8.9890  -16.8400 C   0  0  0  0  0  0  0  0  0  0  0  0
   21.2738   -8.8939  -15.3370 C   0  0  0  0  0  0  0  0  0  0  0  0
   20.5008   -7.6654  -15.0530 C   0  0  2  0  0  0  0  0  0  0  0  0
   21.1614   -6.4319  -15.2168 N   0  0  0  0  0  0  0  0  0  0  0  0
   19.8270   -7.6903  -13.7172 C   0  0  0  0  0  0  0  0  0  0  0  0
   20.4942   -7.6523  -12.6670 O   0  0  0  0  0  0  0  0  0  0  0  0
   23.2314  -12.6844  -14.1993 O   0  0  0  0  0  0  0  0  0  0  0  0
   14.5059   -6.0750   -7.3292 C   0  0  0  0  0  0  0  0  0  0  0  0
   15.3218   -6.1570   -8.4437 C   0  0  0  0  0  0  0  0  0  0  0  0
   15.9805   -7.3282   -8.7424 C   0  0  0  0  0  0  0  0  0  0  0  0
   16.7898   -7.4135   -9.8457 C   0  0  0  0  0  0  0  0  0  0  0  0
   16.9269   -6.3014  -10.6455 C   0  0  0  0  0  0  0  0  0  0  0  0
   17.7923   -6.3914  -11.8258 C   0  0  1  0  0  0  0  0  0  0  0  0
   17.6745   -7.8000  -12.4239 N   0  0  0  0  0  0  0  0  0  0  0  0
   18.4326   -7.7566  -13.6675 C   0  0  0  0  0  0  0  0  0  0  0  0
   16.2503   -7.9813  -12.7708 O   0  0  0  0  0  0  0  0  0  0  0  0
   15.4006   -8.0863  -11.8571 C   0  0  0  0  0  0  0  0  0  0  0  0
   16.2738   -5.1298  -10.3551 C   0  0  0  0  0  0  0  0  0  0  0  0
   15.4637   -5.0516   -9.2468 O   0  0  0  0  0  0  0  0  0  0  0  0
  2  1  1  0
  3  2  1  0
  3  4  1  1
  5  6  2  0
  5  3  1  0
  7  8  1  0
  8  9  2  0
 10 11  1  0
 10  8  1  0
 11 12  1  0
 12 13  1  0
 14 13  1  1
 14 15  1  0
 15  5  1  0
 16 14  1  0
 17 16  2  0
 18 19  1  0
 19 20  2  0
 19 29  1  0
 20 21  1  0
 21 22  2  0
 22 23  1  0
 24 23  1  1
 24 25  1  0
 25 16  1  0
 26 30  1  0
 26 24  1  0
 27 26  2  0
 28 22  1  0
 29 28  2  0
M  END
$$$$
