SRY.pdb
     RDKit          3D

 30 30  0  0  1  0  0  0  0  0999 V2000
   23.1746  -14.7430  -15.7717 O   0  0  0  0  0  0  0  0  0  0  0  0
   24.4235  -15.1105  -16.2789 C   0  0  0  0  0  0  0  0  0  0  0  0
   24.2786  -16.0396  -17.4636 C   0  0  2  0  0  0  0  0  0  0  0  0
   23.5361  -15.3590  -18.5065 N   0  0  0  0  0  0  0  0  0  0  0  0
   23.5457  -17.2810  -17.1149 C   0  0  0  0  0  0  0  0  0  0  0  0
   22.2904  -17.3178  -17.1450 O   0  0  0  0  0  0  0  0  0  0  0  0
   27.2059  -23.7798  -16.2993 N   0  0  0  0  0  0  0  0  0  0  0  0
   25.8532  -24.1209  -16.6213 C   0  0  0  0  0  0  0  0  0  0  0  0
   25.2804  -25.1049  -16.0137 N   0  0  0  0  0  0  0  0  0  0  0  0
   25.1419  -23.3984  -17.5897 N   0  0  0  0  0  0  0  0  0  0  0  0
   25.7385  -22.2492  -18.2342 C   0  0  0  0  0  0  0  0  0  0  0  0
   24.9338  -20.9982  -17.9793 C   0  0  0  0  0  0  0  0  0  0  0  0
   24.4249  -20.9326  -16.5428 C   0  0  0  0  0  0  0  0  0  0  0  0
   23.6012  -19.7149  -16.3815 C   0  0  2  0  0  0  0  0  0  0  0  0
   24.1892  -18.4838  -16.7327 N   0  0  0  0  0  0  0  0  0  0  0  0
   22.9852  -19.5974  -15.0230 C   0  0  0  0  0  0  0  0  0  0  0  0
   23.6562  -19.2022  -14.0518 O   0  0  0  0  0  0  0  0  0  0  0  0
   24.3353  -25.4574  -16.3020 O   0  0  0  0  0  0  0  0  0  0  0  0
   17.0646  -16.3008  -16.9221 C   0  0  0  0  0  0  0  0  0  0  0  0
   17.9761  -16.8192  -16.0194 C   0  0  0  0  0  0  0  0  0  0  0  0
   17.5456  -17.4042  -14.8500 C   0  0  0  0  0  0  0  0  0  0  0  0
   18.4455  -17.9190  -13.9531 C   0  0  0  0  0  0  0  0  0  0  0  0
   19.7872  -17.8366  -14.2501 C   0  0  0  0  0  0  0  0  0  0  0  0
   20.7508  -18.3867  -13.2915 C   0  0  1  0  0  0  0  0  0  0  0  0
   20.9451  -19.8812  -13.5822 N   0  0  0  0  0  0  0  0  0  0  0  0
   21.6403  -19.9389  -14.8615 C   0  0  0  0  0  0  0  0  0  0  0  0
   19.5925  -20.4407  -13.7792 O   0  0  0  0  0  0  0  0  0  0  0  0
   18.7884  -20.4653  -12.8196 C   0  0  0  0  0  0  0  0  0  0  0  0
   20.2252  -17.2550  -15.4136 C   0  0  0  0  0  0  0  0  0  0  0  0
   19.3167  -16.7408  -16.3086 O   0  0  0  0  0  0  0  0  0  0  0  0
  2  1  1  0
  3  2  1  0
  3  4  1  6
  5  6  2  0
  5  3  1  0
  7  8  1  0
  8  9  2  0
 10 11  1  0
 10  8  1  0
 11 12  1  0
 12 13  1  0
 14 13  1  1
 14 15  1  0
 15  5  1  0
 16 14  1  0
 17 16  2  0
 18 19  1  0
 19 20  2  0
 19 29  1  0
 20 21  1  0
 21 22  2  0
 22 23  1  0
 24 23  1  1
 24 25  1  0
 25 16  1  0
 26 30  1  0
 26 24  1  0
 27 26  2  0
 28 22  1  0
 29 28  2  0
M  END
$$$$
