SRY.pdb
     RDKit          3D

 30 30  0  0  1  0  0  0  0  0999 V2000
   18.1470  -21.9141    4.3606 O   0  0  0  0  0  0  0  0  0  0  0  0
   16.8472  -21.7929    4.8582 C   0  0  0  0  0  0  0  0  0  0  0  0
   15.8528  -21.5785    3.7389 C   0  0  2  0  0  0  0  0  0  0  0  0
   16.1820  -22.4670    2.6413 N   0  0  0  0  0  0  0  0  0  0  0  0
   15.8792  -20.1872    3.2258 C   0  0  0  0  0  0  0  0  0  0  0  0
   15.5702  -19.9340    2.0348 O   0  0  0  0  0  0  0  0  0  0  0  0
    9.4396  -15.6158    3.6506 N   0  0  0  0  0  0  0  0  0  0  0  0
   10.1463  -16.8217    3.3406 C   0  0  0  0  0  0  0  0  0  0  0  0
    9.4866  -17.8924    3.0508 N   0  0  0  0  0  0  0  0  0  0  0  0
   11.5480  -16.8541    3.3479 N   0  0  0  0  0  0  0  0  0  0  0  0
   12.2964  -16.0618    4.2988 C   0  0  0  0  0  0  0  0  0  0  0  0
   13.7832  -16.2326    4.1052 C   0  0  0  0  0  0  0  0  0  0  0  0
   14.1988  -17.6993    4.1602 C   0  0  0  0  0  0  0  0  0  0  0  0
   15.6698  -17.7855    4.0337 C   0  0  2  0  0  0  0  0  0  0  0  0
   16.2445  -19.0717    4.0189 N   0  0  0  0  0  0  0  0  0  0  0  0
   16.3963  -16.9322    5.0252 C   0  0  0  0  0  0  0  0  0  0  0  0
   16.2954  -17.1495    6.2467 O   0  0  0  0  0  0  0  0  0  0  0  0
    9.9695  -18.7764    2.7576 O   0  0  0  0  0  0  0  0  0  0  0  0
   21.9089  -10.6408    7.5278 C   0  0  0  0  0  0  0  0  0  0  0  0
   21.1022  -11.4746    6.7739 C   0  0  0  0  0  0  0  0  0  0  0  0
   20.1036  -10.9526    5.9831 C   0  0  0  0  0  0  0  0  0  0  0  0
   19.3022  -11.7754    5.2347 C   0  0  0  0  0  0  0  0  0  0  0  0
   19.5204  -13.1334    5.2934 C   0  0  0  0  0  0  0  0  0  0  0  0
   18.6638  -14.0145    4.4934 C   0  0  2  0  0  0  0  0  0  0  0  0
   17.9341  -14.9858    5.4314 N   0  0  0  0  0  0  0  0  0  0  0  0
   17.1927  -15.8847    4.5564 C   0  0  0  0  0  0  0  0  0  0  0  0
   16.9526  -14.1749    6.1800 O   0  0  0  0  0  0  0  0  0  0  0  0
   15.8742  -13.8500    5.6327 C   0  0  0  0  0  0  0  0  0  0  0  0
   20.5137  -13.6623    6.0791 C   0  0  0  0  0  0  0  0  0  0  0  0
   21.3136  -12.8308    6.8271 O   0  0  0  0  0  0  0  0  0  0  0  0
  2  1  1  0
  3  2  1  0
  3  4  1  6
  5  6  2  0
  5  3  1  0
  7  8  1  0
  8  9  2  0
 10 11  1  0
 10  8  1  0
 11 12  1  0
 12 13  1  0
 14 13  1  1
 14 15  1  0
 15  5  1  0
 16 14  1  0
 17 16  2  0
 18 19  1  0
 19 20  2  0
 19 29  1  0
 20 21  1  0
 21 22  2  0
 22 23  1  0
 24 23  1  6
 24 25  1  0
 25 16  1  0
 26 30  1  0
 26 24  1  0
 27 26  2  0
 28 22  1  0
 29 28  2  0
M  END
$$$$
