SRY.pdb
     RDKit          3D

 30 30  0  0  1  0  0  0  0  0999 V2000
   19.9788  -24.1720   -7.1687 O   0  0  0  0  0  0  0  0  0  0  0  0
   18.8957  -24.5523   -6.3723 C   0  0  0  0  0  0  0  0  0  0  0  0
   17.5842  -24.3218   -7.0895 C   0  0  2  0  0  0  0  0  0  0  0  0
   16.5021  -24.8158   -6.2605 N   0  0  0  0  0  0  0  0  0  0  0  0
   17.5256  -25.0316   -8.3905 C   0  0  0  0  0  0  0  0  0  0  0  0
   17.1687  -26.2344   -8.4524 O   0  0  0  0  0  0  0  0  0  0  0  0
   18.6769  -20.7785  -15.6944 N   0  0  0  0  0  0  0  0  0  0  0  0
   17.9814  -20.6955  -14.4457 C   0  0  0  0  0  0  0  0  0  0  0  0
   17.1561  -19.7256  -14.2372 N   0  0  0  0  0  0  0  0  0  0  0  0
   18.1860  -21.6562  -13.4452 N   0  0  0  0  0  0  0  0  0  0  0  0
   19.2111  -22.6657  -13.5943 C   0  0  0  0  0  0  0  0  0  0  0  0
   19.2307  -23.6059  -12.4140 C   0  0  0  0  0  0  0  0  0  0  0  0
   17.8356  -24.1209  -12.0743 C   0  0  0  0  0  0  0  0  0  0  0  0
   17.9281  -25.0165  -10.9010 C   0  0  2  0  0  0  0  0  0  0  0  0
   17.8584  -24.4225   -9.6255 N   0  0  0  0  0  0  0  0  0  0  0  0
   19.1085  -25.9345  -10.9536 C   0  0  0  0  0  0  0  0  0  0  0  0
   20.1014  -25.7368  -10.2292 O   0  0  0  0  0  0  0  0  0  0  0  0
   16.6361  -19.6276  -13.3313 O   0  0  0  0  0  0  0  0  0  0  0  0
   23.8498  -32.9142  -10.8284 C   0  0  0  0  0  0  0  0  0  0  0  0
   22.9323  -31.8802  -10.7693 C   0  0  0  0  0  0  0  0  0  0  0  0
   21.6093  -32.1018  -11.0785 C   0  0  0  0  0  0  0  0  0  0  0  0
   20.6972  -31.0800  -11.0211 C   0  0  0  0  0  0  0  0  0  0  0  0
   21.1361  -29.8298  -10.6476 C   0  0  0  0  0  0  0  0  0  0  0  0
   20.1614  -28.7360  -10.5860 C   0  0  1  0  0  0  0  0  0  0  0  0
   20.1516  -28.0009  -11.9333 N   0  0  0  0  0  0  0  0  0  0  0  0
   19.0783  -27.0209  -11.8312 C   0  0  0  0  0  0  0  0  0  0  0  0
   19.7534  -29.0013  -12.9443 O   0  0  0  0  0  0  0  0  0  0  0  0
   20.5394  -29.9312  -13.2363 C   0  0  0  0  0  0  0  0  0  0  0  0
   22.4532  -29.6000  -10.3377 C   0  0  0  0  0  0  0  0  0  0  0  0
   23.3625  -30.6298  -10.3974 O   0  0  0  0  0  0  0  0  0  0  0  0
  2  1  1  0
  3  2  1  0
  3  4  1  1
  5  6  2  0
  5  3  1  0
  7  8  1  0
  8  9  2  0
 10 11  1  0
 10  8  1  0
 11 12  1  0
 12 13  1  0
 14 13  1  6
 14 15  1  0
 15  5  1  0
 16 14  1  0
 17 16  2  0
 18 19  1  0
 19 20  2  0
 19 29  1  0
 20 21  1  0
 21 22  2  0
 22 23  1  0
 24 23  1  1
 24 25  1  0
 25 16  1  0
 26 30  1  0
 26 24  1  0
 27 26  2  0
 28 22  1  0
 29 28  2  0
M  END
$$$$
