SRY.pdb
     RDKit          3D

 30 30  0  0  1  0  0  0  0  0999 V2000
   43.5587   -2.7847  -11.0116 O   0  0  0  0  0  0  0  0  0  0  0  0
   43.4206   -4.1385  -10.6951 C   0  0  0  0  0  0  0  0  0  0  0  0
   42.6197   -4.3224   -9.4254 C   0  0  2  0  0  0  0  0  0  0  0  0
   43.3189   -3.6774   -8.3311 N   0  0  0  0  0  0  0  0  0  0  0  0
   42.4441   -5.7533   -9.0768 C   0  0  0  0  0  0  0  0  0  0  0  0
   43.3114   -6.3632   -8.4032 O   0  0  0  0  0  0  0  0  0  0  0  0
   35.8857  -10.0852   -6.1234 N   0  0  0  0  0  0  0  0  0  0  0  0
   36.2586   -8.8005   -5.6131 C   0  0  0  0  0  0  0  0  0  0  0  0
   35.7521   -8.3827   -4.5021 N   0  0  0  0  0  0  0  0  0  0  0  0
   37.1682   -7.9895   -6.3064 N   0  0  0  0  0  0  0  0  0  0  0  0
   37.6907   -8.4026   -7.5903 C   0  0  0  0  0  0  0  0  0  0  0  0
   39.0997   -7.9029   -7.7955 C   0  0  0  0  0  0  0  0  0  0  0  0
   39.6573   -8.3162   -9.1538 C   0  0  0  0  0  0  0  0  0  0  0  0
   41.0694   -7.8857   -9.2432 C   0  0  2  0  0  0  0  0  0  0  0  0
   41.3164   -6.5169   -9.4669 N   0  0  0  0  0  0  0  0  0  0  0  0
   41.8710   -8.6962  -10.2125 C   0  0  0  0  0  0  0  0  0  0  0  0
   41.8022   -8.4764  -11.4358 O   0  0  0  0  0  0  0  0  0  0  0  0
   36.0773   -7.4958   -4.0456 O   0  0  0  0  0  0  0  0  0  0  0  0
   47.0882  -11.3680   -5.7396 C   0  0  0  0  0  0  0  0  0  0  0  0
   46.0786  -11.5374   -6.6704 C   0  0  0  0  0  0  0  0  0  0  0  0
   46.3118  -11.2967   -8.0055 C   0  0  0  0  0  0  0  0  0  0  0  0
   45.3141  -11.4633   -8.9308 C   0  0  0  0  0  0  0  0  0  0  0  0
   44.0761  -11.8763   -8.4926 C   0  0  0  0  0  0  0  0  0  0  0  0
   43.0081  -12.0547   -9.4813 C   0  0  2  0  0  0  0  0  0  0  0  0
   43.0591  -10.8945  -10.4848 N   0  0  0  0  0  0  0  0  0  0  0  0
   42.7010   -9.7066   -9.7208 C   0  0  0  0  0  0  0  0  0  0  0  0
   41.9781  -11.1461  -11.4592 O   0  0  0  0  0  0  0  0  0  0  0  0
   40.7873  -10.9509  -11.1248 C   0  0  0  0  0  0  0  0  0  0  0  0
   43.8348  -12.1185   -7.1634 C   0  0  0  0  0  0  0  0  0  0  0  0
   44.8405  -11.9492   -6.2410 O   0  0  0  0  0  0  0  0  0  0  0  0
  2  1  1  0
  3  2  1  0
  3  4  1  1
  5  6  2  0
  5  3  1  0
  7  8  1  0
  8  9  2  0
 10 11  1  0
 10  8  1  0
 11 12  1  0
 12 13  1  0
 14 13  1  6
 14 15  1  0
 15  5  1  0
 16 14  1  0
 17 16  2  0
 18 19  1  0
 19 20  2  0
 19 29  1  0
 20 21  1  0
 21 22  2  0
 22 23  1  0
 24 23  1  1
 24 25  1  0
 25 16  1  0
 26 30  1  0
 26 24  1  0
 27 26  2  0
 28 22  1  0
 29 28  2  0
M  END
$$$$
