SRY.pdb
     RDKit          3D

 30 30  0  0  1  0  0  0  0  0999 V2000
   23.6189  -15.0521  -17.7825 O   0  0  0  0  0  0  0  0  0  0  0  0
   23.9769  -15.7570  -18.9344 C   0  0  0  0  0  0  0  0  0  0  0  0
   25.0343  -16.7951  -18.6316 C   0  0  2  0  0  0  0  0  0  0  0  0
   25.3898  -17.4763  -19.8612 N   0  0  0  0  0  0  0  0  0  0  0  0
   24.5578  -17.8139  -17.6646 C   0  0  0  0  0  0  0  0  0  0  0  0
   23.9967  -18.8655  -18.0613 O   0  0  0  0  0  0  0  0  0  0  0  0
   26.6369  -22.0168  -12.9224 N   0  0  0  0  0  0  0  0  0  0  0  0
   26.5594  -20.9851  -11.9328 C   0  0  0  0  0  0  0  0  0  0  0  0
   26.1239  -21.2649  -10.7507 N   0  0  0  0  0  0  0  0  0  0  0  0
   26.9513  -19.6726  -12.2323 N   0  0  0  0  0  0  0  0  0  0  0  0
   27.6004  -19.3681  -13.4885 C   0  0  0  0  0  0  0  0  0  0  0  0
   26.5963  -19.2399  -14.6077 C   0  0  0  0  0  0  0  0  0  0  0  0
   25.2438  -18.7458  -14.1041 C   0  0  0  0  0  0  0  0  0  0  0  0
   24.3289  -18.5968  -15.2565 C   0  0  2  0  0  0  0  0  0  0  0  0
   24.6964  -17.6801  -16.2612 N   0  0  0  0  0  0  0  0  0  0  0  0
   22.9107  -18.3430  -14.8523 C   0  0  0  0  0  0  0  0  0  0  0  0
   22.5388  -17.2036  -14.5162 O   0  0  0  0  0  0  0  0  0  0  0  0
   26.0826  -20.5420   -9.9916 O   0  0  0  0  0  0  0  0  0  0  0  0
   19.7954  -15.3455  -19.2866 C   0  0  0  0  0  0  0  0  0  0  0  0
   19.8041  -16.4177  -18.4121 C   0  0  0  0  0  0  0  0  0  0  0  0
   20.8258  -17.3395  -18.4474 C   0  0  0  0  0  0  0  0  0  0  0  0
   20.8381  -18.4033  -17.5827 C   0  0  0  0  0  0  0  0  0  0  0  0
   19.8056  -18.5264  -16.6804 C   0  0  0  0  0  0  0  0  0  0  0  0
   19.8175  -19.6638  -15.7551 C   0  0  2  0  0  0  0  0  0  0  0  0
   20.6030  -19.2733  -14.4956 N   0  0  0  0  0  0  0  0  0  0  0  0
   22.0077  -19.4088  -14.8586 C   0  0  0  0  0  0  0  0  0  0  0  0
   20.2977  -20.3056  -13.4844 O   0  0  0  0  0  0  0  0  0  0  0  0
   19.1795  -20.3067  -12.9209 C   0  0  0  0  0  0  0  0  0  0  0  0
   18.7830  -17.6120  -16.6384 C   0  0  0  0  0  0  0  0  0  0  0  0
   18.7774  -16.5475  -17.5088 O   0  0  0  0  0  0  0  0  0  0  0  0
  2  1  1  0
  3  2  1  0
  3  4  1  6
  5  6  2  0
  5  3  1  0
  7  8  1  0
  8  9  2  0
 10 11  1  0
 10  8  1  0
 11 12  1  0
 12 13  1  0
 14 13  1  1
 14 15  1  0
 15  5  1  0
 16 14  1  0
 17 16  2  0
 18 19  1  0
 19 20  2  0
 19 29  1  0
 20 21  1  0
 21 22  2  0
 22 23  1  0
 24 23  1  6
 24 25  1  0
 25 16  1  0
 26 30  1  0
 26 24  1  0
 27 26  2  0
 28 22  1  0
 29 28  2  0
M  END
$$$$
