SRY.pdb
     RDKit          3D

 30 30  0  0  1  0  0  0  0  0999 V2000
   33.2679   -4.8280  -14.9768 O   0  0  0  0  0  0  0  0  0  0  0  0
   32.3484   -5.5578  -15.7343 C   0  0  0  0  0  0  0  0  0  0  0  0
   32.9980   -6.1348  -16.9723 C   0  0  2  0  0  0  0  0  0  0  0  0
   33.2194   -5.0670  -17.9279 N   0  0  0  0  0  0  0  0  0  0  0  0
   32.1492   -7.1628  -17.6224 C   0  0  0  0  0  0  0  0  0  0  0  0
   31.2302   -6.8333  -18.4128 O   0  0  0  0  0  0  0  0  0  0  0  0
   32.5983  -15.8272  -19.9546 N   0  0  0  0  0  0  0  0  0  0  0  0
   31.2611  -15.3628  -20.1693 C   0  0  0  0  0  0  0  0  0  0  0  0
   30.4090  -16.1238  -20.7695 N   0  0  0  0  0  0  0  0  0  0  0  0
   30.8652  -14.0897  -19.7351 N   0  0  0  0  0  0  0  0  0  0  0  0
   31.8139  -13.2025  -19.0988 C   0  0  0  0  0  0  0  0  0  0  0  0
   31.1872  -11.8672  -18.7800 C   0  0  0  0  0  0  0  0  0  0  0  0
   32.1968  -10.8945  -18.1787 C   0  0  0  0  0  0  0  0  0  0  0  0
   31.5182   -9.6099  -17.9019 C   0  0  2  0  0  0  0  0  0  0  0  0
   32.3078   -8.5538  -17.4060 N   0  0  0  0  0  0  0  0  0  0  0  0
   30.3013   -9.7605  -17.0445 C   0  0  0  0  0  0  0  0  0  0  0  0
   30.4035  -10.0691  -15.8429 O   0  0  0  0  0  0  0  0  0  0  0  0
   29.4441  -15.7901  -21.0106 O   0  0  0  0  0  0  0  0  0  0  0  0
   21.7199   -9.9984  -15.4329 C   0  0  0  0  0  0  0  0  0  0  0  0
   22.9555   -9.7823  -16.0168 C   0  0  0  0  0  0  0  0  0  0  0  0
   23.1173   -9.9126  -17.3776 C   0  0  0  0  0  0  0  0  0  0  0  0
   24.3399   -9.6993  -17.9600 C   0  0  0  0  0  0  0  0  0  0  0  0
   25.3992   -9.3524  -17.1521 C   0  0  0  0  0  0  0  0  0  0  0  0
   26.7074   -9.1241  -17.7738 C   0  0  1  0  0  0  0  0  0  0  0  0
   27.7913   -9.7845  -16.9107 N   0  0  0  0  0  0  0  0  0  0  0  0
   29.0443   -9.5480  -17.6158 C   0  0  0  0  0  0  0  0  0  0  0  0
   27.5198  -11.2357  -16.9494 O   0  0  0  0  0  0  0  0  0  0  0  0
   27.0262  -11.7988  -15.9458 C   0  0  0  0  0  0  0  0  0  0  0  0
   25.2467   -9.2202  -15.7945 C   0  0  0  0  0  0  0  0  0  0  0  0
   24.0174   -9.4358  -15.2174 O   0  0  0  0  0  0  0  0  0  0  0  0
  2  1  1  0
  3  2  1  0
  3  4  1  6
  5  6  2  0
  5  3  1  0
  7  8  1  0
  8  9  2  0
 10 11  1  0
 10  8  1  0
 11 12  1  0
 12 13  1  0
 14 13  1  1
 14 15  1  0
 15  5  1  0
 16 14  1  0
 17 16  2  0
 18 19  1  0
 19 20  2  0
 19 29  1  0
 20 21  1  0
 21 22  2  0
 22 23  1  0
 24 23  1  1
 24 25  1  0
 25 16  1  0
 26 30  1  0
 26 24  1  0
 27 26  2  0
 28 22  1  0
 29 28  2  0
M  END
$$$$
