SRY.pdb
     RDKit          3D

 30 30  0  0  1  0  0  0  0  0999 V2000
   36.4584   -1.3336   -6.1841 O   0  0  0  0  0  0  0  0  0  0  0  0
   36.1543   -0.4926   -5.1107 C   0  0  0  0  0  0  0  0  0  0  0  0
   36.3603    0.9594   -5.4806 C   0  0  2  0  0  0  0  0  0  0  0  0
   37.7809    1.2102   -5.6264 N   0  0  0  0  0  0  0  0  0  0  0  0
   35.8364    1.8809   -4.4433 C   0  0  0  0  0  0  0  0  0  0  0  0
   36.2899    1.8569   -3.2720 O   0  0  0  0  0  0  0  0  0  0  0  0
   30.6778    9.3297   -4.2578 N   0  0  0  0  0  0  0  0  0  0  0  0
   31.1378    9.0399   -2.9332 C   0  0  0  0  0  0  0  0  0  0  0  0
   30.8299    9.8324   -1.9623 N   0  0  0  0  0  0  0  0  0  0  0  0
   31.9196    7.9045   -2.6774 N   0  0  0  0  0  0  0  0  0  0  0  0
   32.2858    7.0074   -3.7513 C   0  0  0  0  0  0  0  0  0  0  0  0
   33.1020    5.8453   -3.2407 C   0  0  0  0  0  0  0  0  0  0  0  0
   33.5614    4.9323   -4.3730 C   0  0  0  0  0  0  0  0  0  0  0  0
   34.2516    3.7599   -3.7930 C   0  0  2  0  0  0  0  0  0  0  0  0
   34.8142    2.8303   -4.6898 N   0  0  0  0  0  0  0  0  0  0  0  0
   33.4238    3.0309   -2.7821 C   0  0  0  0  0  0  0  0  0  0  0  0
   32.2640    2.6676   -3.0515 O   0  0  0  0  0  0  0  0  0  0  0  0
   31.1330    9.6416   -0.9762 O   0  0  0  0  0  0  0  0  0  0  0  0
   27.8858    0.1306   -2.9974 C   0  0  0  0  0  0  0  0  0  0  0  0
   29.1704    0.2539   -2.4986 C   0  0  0  0  0  0  0  0  0  0  0  0
   29.3791    0.5182   -1.1638 C   0  0  0  0  0  0  0  0  0  0  0  0
   30.6503    0.6411   -0.6657 C   0  0  0  0  0  0  0  0  0  0  0  0
   31.7106    0.4939   -1.5314 C   0  0  0  0  0  0  0  0  0  0  0  0
   33.0708    0.6253   -0.9999 C   0  0  2  0  0  0  0  0  0  0  0  0
   33.2636    2.0535   -0.4718 N   0  0  0  0  0  0  0  0  0  0  0  0
   33.9753    2.7630   -1.5268 C   0  0  0  0  0  0  0  0  0  0  0  0
   34.1711    1.9436    0.6883 O   0  0  0  0  0  0  0  0  0  0  0  0
   33.7771    1.3685    1.7285 C   0  0  0  0  0  0  0  0  0  0  0  0
   31.5117    0.2303   -2.8635 C   0  0  0  0  0  0  0  0  0  0  0  0
   30.2337    0.1084   -3.3561 O   0  0  0  0  0  0  0  0  0  0  0  0
  2  1  1  0
  3  2  1  0
  3  4  1  1
  5  6  2  0
  5  3  1  0
  7  8  1  0
  8  9  2  0
 10 11  1  0
 10  8  1  0
 11 12  1  0
 12 13  1  0
 14 13  1  6
 14 15  1  0
 15  5  1  0
 16 14  1  0
 17 16  2  0
 18 19  1  0
 19 20  2  0
 19 29  1  0
 20 21  1  0
 21 22  2  0
 22 23  1  0
 24 23  1  6
 24 25  1  0
 25 16  1  0
 26 30  1  0
 26 24  1  0
 27 26  2  0
 28 22  1  0
 29 28  2  0
M  END
$$$$
