SRY.pdb
     RDKit          3D

 30 30  0  0  1  0  0  0  0  0999 V2000
   21.6306  -40.6230   -8.5332 O   0  0  0  0  0  0  0  0  0  0  0  0
   22.1680  -39.9784   -9.6501 C   0  0  0  0  0  0  0  0  0  0  0  0
   23.6426  -40.2810   -9.7970 C   0  0  2  0  0  0  0  0  0  0  0  0
   23.8222  -41.7177   -9.8736 N   0  0  0  0  0  0  0  0  0  0  0  0
   24.4339  -39.7810   -8.6464 C   0  0  0  0  0  0  0  0  0  0  0  0
   24.5724  -40.4763   -7.6094 O   0  0  0  0  0  0  0  0  0  0  0  0
   25.0405  -31.5815   -9.6027 N   0  0  0  0  0  0  0  0  0  0  0  0
   24.8356  -32.4540   -8.4861 C   0  0  0  0  0  0  0  0  0  0  0  0
   23.6941  -32.4643   -7.8843 N   0  0  0  0  0  0  0  0  0  0  0  0
   25.8611  -33.2985   -8.0378 N   0  0  0  0  0  0  0  0  0  0  0  0
   26.3263  -34.3916   -8.8629 C   0  0  0  0  0  0  0  0  0  0  0  0
   25.6306  -35.6824   -8.5063 C   0  0  0  0  0  0  0  0  0  0  0  0
   26.5993  -36.7097   -7.9291 C   0  0  0  0  0  0  0  0  0  0  0  0
   25.8520  -37.9446   -7.6067 C   0  0  2  0  0  0  0  0  0  0  0  0
   25.0742  -38.5175   -8.6322 N   0  0  0  0  0  0  0  0  0  0  0  0
   25.0221  -37.8232   -6.3676 C   0  0  0  0  0  0  0  0  0  0  0  0
   23.7819  -37.7423   -6.4376 O   0  0  0  0  0  0  0  0  0  0  0  0
   22.8830  -31.8946   -8.2283 O   0  0  0  0  0  0  0  0  0  0  0  0
   21.3068  -39.3742    0.9623 C   0  0  0  0  0  0  0  0  0  0  0  0
   22.0222  -39.3105   -0.2203 C   0  0  0  0  0  0  0  0  0  0  0  0
   21.8414  -38.2591   -1.0902 C   0  0  0  0  0  0  0  0  0  0  0  0
   22.5482  -38.1923   -2.2630 C   0  0  0  0  0  0  0  0  0  0  0  0
   23.4412  -39.2005   -2.5483 C   0  0  0  0  0  0  0  0  0  0  0  0
   24.1978  -39.1303   -3.8024 C   0  0  2  0  0  0  0  0  0  0  0  0
   24.9522  -37.7947   -3.8551 N   0  0  0  0  0  0  0  0  0  0  0  0
   25.6635  -37.8024   -5.1268 C   0  0  0  0  0  0  0  0  0  0  0  0
   25.9589  -37.8486   -2.7758 O   0  0  0  0  0  0  0  0  0  0  0  0
   25.6220  -37.5700   -1.6024 C   0  0  0  0  0  0  0  0  0  0  0  0
   23.6277  -40.2524   -1.6867 C   0  0  0  0  0  0  0  0  0  0  0  0
   22.9152  -40.3127   -0.5122 O   0  0  0  0  0  0  0  0  0  0  0  0
  2  1  1  0
  3  2  1  0
  3  4  1  1
  5  6  2  0
  5  3  1  0
  7  8  1  0
  8  9  2  0
 10 11  1  0
 10  8  1  0
 11 12  1  0
 12 13  1  0
 14 13  1  6
 14 15  1  0
 15  5  1  0
 16 14  1  0
 17 16  2  0
 18 19  1  0
 19 20  2  0
 19 29  1  0
 20 21  1  0
 21 22  2  0
 22 23  1  0
 24 23  1  6
 24 25  1  0
 25 16  1  0
 26 30  1  0
 26 24  1  0
 27 26  2  0
 28 22  1  0
 29 28  2  0
M  END
$$$$
