GMI.pdb
     RDKit          3D

 21 20  0  0  1  0  0  0  0  0999 V2000
    5.3772  -19.1401   21.9567 N   0  0  0  0  0  0  0  0  0  0  0  0
    5.3719  -18.6337   23.3153 C   0  0  0  0  0  0  0  0  0  0  0  0
    6.3717  -17.5552   23.4488 C   0  0  0  0  0  0  0  0  0  0  0  0
    7.2586  -17.4050   22.5825 O   0  0  0  0  0  0  0  0  0  0  0  0
    5.8297  -11.1898   26.0253 C   0  0  0  0  0  0  0  0  0  0  0  0
    6.8087  -12.2906   27.0807 S   0  0  0  0  0  0  0  0  0  0  0  0
    7.6630  -13.5186   26.0265 C   0  0  0  0  0  0  0  0  0  0  0  0
    6.7317  -14.6560   25.7395 C   0  0  0  0  0  0  0  0  0  0  0  0
    7.2716  -15.6640   24.7869 C   0  0  2  0  0  0  0  0  0  0  0  0
    6.2695  -16.7130   24.5982 N   0  0  0  0  0  0  0  0  0  0  0  0
    8.4674  -16.3687   25.3756 C   0  0  0  0  0  0  0  0  0  0  0  0
    8.2167  -17.2858   26.1791 O   0  0  0  0  0  0  0  0  0  0  0  0
   13.9666  -15.8536   23.1503 C   0  0  0  0  0  0  0  0  0  0  0  0
   12.9221  -15.7495   24.2209 C   0  0  0  0  0  0  0  0  0  0  0  0
   11.9330  -16.8544   24.2733 C   0  0  2  0  0  0  0  0  0  0  0  0
   11.4455  -17.2659   22.8872 C   0  0  0  0  0  0  0  0  0  0  0  0
   10.9136  -16.8754   25.3431 C   0  0  2  0  0  0  0  0  0  0  0  0
    9.7851  -16.0334   25.0570 N   0  0  0  0  0  0  0  0  0  0  0  0
   11.3501  -16.9314   26.7389 C   0  0  0  0  0  0  0  0  0  0  0  0
   12.1552  -17.7607   27.2411 O   0  0  0  0  0  0  0  0  0  0  0  0
   10.8923  -16.0092   27.7083 O   0  0  0  0  0  0  0  0  0  0  0  0
  2  1  1  0
  3  2  1  0
  3 10  1  0
  4  3  2  0
  6  5  1  0
  7  8  1  0
  7  6  1  0
  9  8  1  1
  9 10  1  0
  9 11  1  0
 11 12  2  0
 13 14  1  0
 15 14  1  0
 15 16  1  6
 17 15  1  0
 18 11  1  0
 17 18  1  1
 19 17  1  0
 20 19  2  0
 21 19  1  0
M  END
$$$$
