GMI.pdb
     RDKit          3D

 21 20  0  0  1  0  0  0  0  0999 V2000
    9.5379  -16.3331   19.9544 N   0  0  0  0  0  0  0  0  0  0  0  0
    8.5749  -16.6297   20.9970 C   0  0  0  0  0  0  0  0  0  0  0  0
    8.9250  -15.8868   22.2242 C   0  0  0  0  0  0  0  0  0  0  0  0
   10.0069  -15.2679   22.3013 O   0  0  0  0  0  0  0  0  0  0  0  0
    6.8840  -11.3934   25.9580 C   0  0  0  0  0  0  0  0  0  0  0  0
    5.5234  -12.5462   25.6356 S   0  0  0  0  0  0  0  0  0  0  0  0
    6.0897  -13.8143   24.4437 C   0  0  0  0  0  0  0  0  0  0  0  0
    6.9467  -14.8144   25.1568 C   0  0  0  0  0  0  0  0  0  0  0  0
    8.2412  -15.1036   24.4817 C   0  0  2  0  0  0  0  0  0  0  0  0
    7.9780  -15.9155   23.2935 N   0  0  0  0  0  0  0  0  0  0  0  0
    9.1187  -15.9638   25.3550 C   0  0  0  0  0  0  0  0  0  0  0  0
    9.3394  -17.1156   24.9372 O   0  0  0  0  0  0  0  0  0  0  0  0
   10.9359  -13.9372   30.3705 C   0  0  0  0  0  0  0  0  0  0  0  0
   10.5282  -15.2081   29.6875 C   0  0  0  0  0  0  0  0  0  0  0  0
   11.2313  -15.5179   28.4180 C   0  0  2  0  0  0  0  0  0  0  0  0
   12.0676  -14.3452   27.9142 C   0  0  0  0  0  0  0  0  0  0  0  0
   10.5466  -16.3108   27.3756 C   0  0  2  0  0  0  0  0  0  0  0  0
    9.6632  -15.5215   26.5627 N   0  0  0  0  0  0  0  0  0  0  0  0
   10.1041  -17.6692   27.6928 C   0  0  0  0  0  0  0  0  0  0  0  0
   10.8389  -18.6453   28.0019 O   0  0  0  0  0  0  0  0  0  0  0  0
    8.7383  -18.0360   27.6894 O   0  0  0  0  0  0  0  0  0  0  0  0
  2  1  1  0
  3  2  1  0
  3 10  1  0
  4  3  2  0
  6  5  1  0
  7  8  1  0
  7  6  1  0
  9  8  1  1
  9 10  1  0
  9 11  1  0
 11 12  2  0
 13 14  1  0
 15 14  1  0
 15 16  1  6
 17 15  1  0
 18 11  1  0
 17 18  1  1
 19 17  1  0
 20 19  2  0
 21 19  1  0
M  END
$$$$
