GMI.pdb
     RDKit          3D

 21 20  0  0  1  0  0  0  0  0999 V2000
    5.6624  -20.2348   24.0884 N   0  0  0  0  0  0  0  0  0  0  0  0
    5.4493  -18.8115   23.9119 C   0  0  0  0  0  0  0  0  0  0  0  0
    6.6290  -18.2085   23.2598 C   0  0  0  0  0  0  0  0  0  0  0  0
    7.6707  -18.8772   23.0949 O   0  0  0  0  0  0  0  0  0  0  0  0
    6.3898  -12.3582   20.0597 C   0  0  0  0  0  0  0  0  0  0  0  0
    8.1208  -12.7357   20.4407 S   0  0  0  0  0  0  0  0  0  0  0  0
    8.3368  -14.5525   20.4825 C   0  0  0  0  0  0  0  0  0  0  0  0
    7.2355  -15.1620   21.2942 C   0  0  0  0  0  0  0  0  0  0  0  0
    7.6903  -16.1920   22.2677 C   0  0  2  0  0  0  0  0  0  0  0  0
    6.5138  -16.8485   22.8379 N   0  0  0  0  0  0  0  0  0  0  0  0
    8.3845  -15.5484   23.4410 C   0  0  0  0  0  0  0  0  0  0  0  0
    9.4866  -15.0226   23.1991 O   0  0  0  0  0  0  0  0  0  0  0  0
    5.9523  -12.2054   26.2555 C   0  0  0  0  0  0  0  0  0  0  0  0
    7.0941  -12.9180   25.5948 C   0  0  0  0  0  0  0  0  0  0  0  0
    7.8823  -13.8272   26.4633 C   0  0  2  0  0  0  0  0  0  0  0  0
    8.6910  -13.0726   27.5144 C   0  0  0  0  0  0  0  0  0  0  0  0
    8.5425  -15.0119   25.8760 C   0  0  2  0  0  0  0  0  0  0  0  0
    7.8472  -15.5290   24.7300 N   0  0  0  0  0  0  0  0  0  0  0  0
    9.1572  -15.9968   26.7670 C   0  0  0  0  0  0  0  0  0  0  0  0
    9.9076  -15.7548   27.7502 O   0  0  0  0  0  0  0  0  0  0  0  0
    8.9535  -17.3870   26.6071 O   0  0  0  0  0  0  0  0  0  0  0  0
  2  1  1  0
  3  2  1  0
  3 10  1  0
  4  3  2  0
  6  5  1  0
  7  8  1  0
  7  6  1  0
  9  8  1  6
  9 10  1  0
  9 11  1  0
 11 12  2  0
 13 14  1  0
 15 14  1  0
 15 16  1  6
 17 15  1  0
 18 11  1  0
 17 18  1  1
 19 17  1  0
 20 19  2  0
 21 19  1  0
M  END
$$$$
