GMI.pdb
     RDKit          3D

 21 20  0  0  1  0  0  0  0  0999 V2000
    6.3310  -19.7719   23.5987 N   0  0  0  0  0  0  0  0  0  0  0  0
    6.2330  -18.7374   24.6099 C   0  0  0  0  0  0  0  0  0  0  0  0
    6.9570  -17.5315   24.1605 C   0  0  0  0  0  0  0  0  0  0  0  0
    7.7521  -17.5931   23.1995 O   0  0  0  0  0  0  0  0  0  0  0  0
    5.4197  -12.0249   26.8805 C   0  0  0  0  0  0  0  0  0  0  0  0
    6.5410  -11.2817   25.6663 S   0  0  0  0  0  0  0  0  0  0  0  0
    7.3886  -12.6172   24.7458 C   0  0  0  0  0  0  0  0  0  0  0  0
    6.7668  -13.9328   25.1006 C   0  0  0  0  0  0  0  0  0  0  0  0
    7.4249  -15.1105   24.4718 C   0  0  2  0  0  0  0  0  0  0  0  0
    6.7025  -16.3184   24.8709 N   0  0  0  0  0  0  0  0  0  0  0  0
    8.8203  -15.2944   25.0122 C   0  0  0  0  0  0  0  0  0  0  0  0
    9.7046  -14.5964   24.4827 O   0  0  0  0  0  0  0  0  0  0  0  0
   10.1744  -13.7774   29.4712 C   0  0  0  0  0  0  0  0  0  0  0  0
   10.1247  -14.3054   28.0688 C   0  0  0  0  0  0  0  0  0  0  0  0
   10.6429  -15.6822   27.8743 C   0  0  2  0  0  0  0  0  0  0  0  0
   12.0013  -15.8923   28.5368 C   0  0  0  0  0  0  0  0  0  0  0  0
   10.4523  -16.3603   26.5750 C   0  0  2  0  0  0  0  0  0  0  0  0
    9.1296  -16.1858   26.0418 N   0  0  0  0  0  0  0  0  0  0  0  0
   11.0784  -17.6648   26.3562 C   0  0  0  0  0  0  0  0  0  0  0  0
   10.4889  -18.7751   26.2674 O   0  0  0  0  0  0  0  0  0  0  0  0
   12.4770  -17.8134   26.2093 O   0  0  0  0  0  0  0  0  0  0  0  0
  2  1  1  0
  3  2  1  0
  3 10  1  0
  4  3  2  0
  6  5  1  0
  7  8  1  0
  7  6  1  0
  9  8  1  1
  9 10  1  0
  9 11  1  0
 11 12  2  0
 13 14  1  0
 15 14  1  0
 15 16  1  6
 17 15  1  0
 18 11  1  0
 17 18  1  1
 19 17  1  0
 20 19  2  0
 21 19  1  0
M  END
$$$$
