GMI.pdb
     RDKit          3D

 21 20  0  0  1  0  0  0  0  0999 V2000
    5.8321  -19.8630   23.7661 N   0  0  0  0  0  0  0  0  0  0  0  0
    5.5403  -18.4491   23.6322 C   0  0  0  0  0  0  0  0  0  0  0  0
    6.7241  -17.7444   23.1007 C   0  0  0  0  0  0  0  0  0  0  0  0
    7.8281  -18.3244   23.0348 O   0  0  0  0  0  0  0  0  0  0  0  0
    6.5079  -13.2275   18.5222 C   0  0  0  0  0  0  0  0  0  0  0  0
    7.6256  -12.4049   19.6876 S   0  0  0  0  0  0  0  0  0  0  0  0
    8.3400  -13.6602   20.8114 C   0  0  0  0  0  0  0  0  0  0  0  0
    7.2393  -14.5148   21.3605 C   0  0  0  0  0  0  0  0  0  0  0  0
    7.7061  -15.6396   22.2162 C   0  0  2  0  0  0  0  0  0  0  0  0
    6.5394  -16.3929   22.6760 N   0  0  0  0  0  0  0  0  0  0  0  0
    8.3552  -15.1203   23.4739 C   0  0  0  0  0  0  0  0  0  0  0  0
    9.4153  -14.4869   23.3169 O   0  0  0  0  0  0  0  0  0  0  0  0
    5.8434  -11.9231   26.4394 C   0  0  0  0  0  0  0  0  0  0  0  0
    6.8114  -12.8161   25.7228 C   0  0  0  0  0  0  0  0  0  0  0  0
    7.5986  -13.7393   26.5772 C   0  0  2  0  0  0  0  0  0  0  0  0
    8.2409  -13.0286   27.7649 C   0  0  0  0  0  0  0  0  0  0  0  0
    8.4114  -14.8033   25.9515 C   0  0  2  0  0  0  0  0  0  0  0  0
    7.8221  -15.3231   24.7487 N   0  0  0  0  0  0  0  0  0  0  0  0
    9.1027  -15.7663   26.8097 C   0  0  0  0  0  0  0  0  0  0  0  0
    9.8884  -15.4983   27.7579 O   0  0  0  0  0  0  0  0  0  0  0  0
    8.9431  -17.1628   26.6547 O   0  0  0  0  0  0  0  0  0  0  0  0
  2  1  1  0
  3  2  1  0
  3 10  1  0
  4  3  2  0
  6  5  1  0
  7  8  1  0
  7  6  1  0
  9  8  1  6
  9 10  1  0
  9 11  1  0
 11 12  2  0
 13 14  1  0
 15 14  1  0
 15 16  1  6
 17 15  1  0
 18 11  1  0
 17 18  1  6
 19 17  1  0
 20 19  2  0
 21 19  1  0
M  END
$$$$
