GMI.pdb
     RDKit          3D

 21 20  0  0  1  0  0  0  0  0999 V2000
    6.9175  -20.8625   25.2448 N   0  0  0  0  0  0  0  0  0  0  0  0
    7.5691  -19.7058   25.8275 C   0  0  0  0  0  0  0  0  0  0  0  0
    7.0648  -18.4746   25.1868 C   0  0  0  0  0  0  0  0  0  0  0  0
    6.2207  -18.5402   24.2689 O   0  0  0  0  0  0  0  0  0  0  0  0
    6.1072  -10.8015   26.5353 C   0  0  0  0  0  0  0  0  0  0  0  0
    6.9126  -12.3566   27.0011 S   0  0  0  0  0  0  0  0  0  0  0  0
    6.5851  -13.6062   25.7048 C   0  0  0  0  0  0  0  0  0  0  0  0
    7.2294  -14.9012   26.0934 C   0  0  0  0  0  0  0  0  0  0  0  0
    7.0657  -15.9911   25.0930 C   0  0  2  0  0  0  0  0  0  0  0  0
    7.5851  -17.2332   25.6653 N   0  0  0  0  0  0  0  0  0  0  0  0
    7.9208  -15.7341   23.8783 C   0  0  0  0  0  0  0  0  0  0  0  0
    9.1404  -15.6021   24.0900 O   0  0  0  0  0  0  0  0  0  0  0  0
    8.1847  -11.8444   19.5031 C   0  0  0  0  0  0  0  0  0  0  0  0
    8.4628  -13.2900   19.7872 C   0  0  0  0  0  0  0  0  0  0  0  0
    7.8637  -13.8347   21.0308 C   0  0  2  0  0  0  0  0  0  0  0  0
    7.8147  -12.8030   22.1541 C   0  0  0  0  0  0  0  0  0  0  0  0
    8.1697  -15.2196   21.4461 C   0  0  2  0  0  0  0  0  0  0  0  0
    7.4028  -15.6446   22.5844 N   0  0  0  0  0  0  0  0  0  0  0  0
    9.5529  -15.6927   21.3763 C   0  0  0  0  0  0  0  0  0  0  0  0
   10.3492  -15.5449   20.4108 O   0  0  0  0  0  0  0  0  0  0  0  0
   10.1638  -16.3922   22.4428 O   0  0  0  0  0  0  0  0  0  0  0  0
  2  1  1  0
  3  2  1  0
  3 10  1  0
  4  3  2  0
  6  5  1  0
  7  8  1  0
  7  6  1  0
  9  8  1  1
  9 10  1  0
  9 11  1  0
 11 12  2  0
 13 14  1  0
 15 14  1  0
 15 16  1  1
 17 15  1  0
 18 11  1  0
 17 18  1  1
 19 17  1  0
 20 19  2  0
 21 19  1  0
M  END
$$$$
