GMI.pdb
     RDKit          3D

 21 20  0  0  1  0  0  0  0  0999 V2000
    3.5621  -19.1037   22.8029 N   0  0  0  0  0  0  0  0  0  0  0  0
    4.8977  -19.1378   23.3663 C   0  0  0  0  0  0  0  0  0  0  0  0
    5.4119  -17.7613   23.5125 C   0  0  0  0  0  0  0  0  0  0  0  0
    5.2864  -16.9377   22.5822 O   0  0  0  0  0  0  0  0  0  0  0  0
    6.8724  -11.6666   26.6024 C   0  0  0  0  0  0  0  0  0  0  0  0
    6.2064  -13.3246   26.9045 S   0  0  0  0  0  0  0  0  0  0  0  0
    7.5409  -14.5534   26.6630 C   0  0  0  0  0  0  0  0  0  0  0  0
    6.9339  -15.8871   26.3531 C   0  0  0  0  0  0  0  0  0  0  0  0
    6.5938  -16.0865   24.9179 C   0  0  2  0  0  0  0  0  0  0  0  0
    6.0464  -17.4327   24.7495 N   0  0  0  0  0  0  0  0  0  0  0  0
    7.8373  -16.0620   24.0658 C   0  0  0  0  0  0  0  0  0  0  0  0
    8.5188  -17.1037   24.0687 O   0  0  0  0  0  0  0  0  0  0  0  0
    7.3857  -12.4031   19.9932 C   0  0  0  0  0  0  0  0  0  0  0  0
    7.5361  -13.5881   20.8995 C   0  0  0  0  0  0  0  0  0  0  0  0
    8.9282  -14.0174   21.1819 C   0  0  2  0  0  0  0  0  0  0  0  0
    9.7572  -14.1788   19.9110 C   0  0  0  0  0  0  0  0  0  0  0  0
    9.1875  -15.0098   22.2460 C   0  0  2  0  0  0  0  0  0  0  0  0
    8.2243  -14.9528   23.3105 N   0  0  0  0  0  0  0  0  0  0  0  0
   10.5707  -15.2937   22.6305 C   0  0  0  0  0  0  0  0  0  0  0  0
   11.4911  -15.7043   21.8739 O   0  0  0  0  0  0  0  0  0  0  0  0
   11.0345  -15.1199   23.9551 O   0  0  0  0  0  0  0  0  0  0  0  0
  2  1  1  0
  3  2  1  0
  3 10  1  0
  4  3  2  0
  6  5  1  0
  7  8  1  0
  7  6  1  0
  9  8  1  1
  9 10  1  0
  9 11  1  0
 11 12  2  0
 13 14  1  0
 15 14  1  0
 15 16  1  6
 17 15  1  0
 18 11  1  0
 17 18  1  1
 19 17  1  0
 20 19  2  0
 21 19  1  0
M  END
$$$$
