GMI.pdb
     RDKit          3D

 21 20  0  0  1  0  0  0  0  0999 V2000
    5.3119  -20.0256   24.4493 N   0  0  0  0  0  0  0  0  0  0  0  0
    6.1859  -19.2042   25.2640 C   0  0  0  0  0  0  0  0  0  0  0  0
    6.2324  -17.8330   24.7179 C   0  0  0  0  0  0  0  0  0  0  0  0
    5.6815  -17.5674   23.6291 O   0  0  0  0  0  0  0  0  0  0  0  0
    6.9761  -11.0594   26.5899 C   0  0  0  0  0  0  0  0  0  0  0  0
    6.8432  -12.4830   27.7033 S   0  0  0  0  0  0  0  0  0  0  0  0
    6.2527  -13.9292   26.7499 C   0  0  0  0  0  0  0  0  0  0  0  0
    7.4154  -14.5739   26.0600 C   0  0  0  0  0  0  0  0  0  0  0  0
    7.0372  -15.4933   24.9523 C   0  0  2  0  0  0  0  0  0  0  0  0
    6.9270  -16.8502   25.4877 N   0  0  0  0  0  0  0  0  0  0  0  0
    8.1354  -15.5687   23.9222 C   0  0  0  0  0  0  0  0  0  0  0  0
    8.9532  -16.4961   24.0664 O   0  0  0  0  0  0  0  0  0  0  0  0
    8.2555  -12.1934   18.9867 C   0  0  0  0  0  0  0  0  0  0  0  0
    8.8307  -12.8336   20.2144 C   0  0  0  0  0  0  0  0  0  0  0  0
    8.4074  -14.2314   20.4772 C   0  0  2  0  0  0  0  0  0  0  0  0
    6.9236  -14.4529   20.1983 C   0  0  0  0  0  0  0  0  0  0  0  0
    8.9551  -14.9561   21.6430 C   0  0  2  0  0  0  0  0  0  0  0  0
    8.2518  -14.6670   22.8621 N   0  0  0  0  0  0  0  0  0  0  0  0
   10.4034  -15.1362   21.7508 C   0  0  0  0  0  0  0  0  0  0  0  0
   11.1118  -14.9289   22.7723 O   0  0  0  0  0  0  0  0  0  0  0  0
   11.1884  -15.5897   20.6655 O   0  0  0  0  0  0  0  0  0  0  0  0
  2  1  1  0
  3  2  1  0
  3 10  1  0
  4  3  2  0
  6  5  1  0
  7  8  1  0
  7  6  1  0
  9  8  1  1
  9 10  1  0
  9 11  1  0
 11 12  2  0
 13 14  1  0
 15 14  1  0
 15 16  1  1
 17 15  1  0
 18 11  1  0
 17 18  1  1
 19 17  1  0
 20 19  2  0
 21 19  1  0
M  END
$$$$
