GMI.pdb
     RDKit          3D

 21 20  0  0  1  0  0  0  0  0999 V2000
    6.5198  -19.8249   23.2253 N   0  0  0  0  0  0  0  0  0  0  0  0
    5.9147  -18.5080   23.1817 C   0  0  0  0  0  0  0  0  0  0  0  0
    6.9370  -17.5015   22.8316 C   0  0  0  0  0  0  0  0  0  0  0  0
    8.1490  -17.8022   22.8409 O   0  0  0  0  0  0  0  0  0  0  0  0
    8.5718  -13.6952   18.2294 C   0  0  0  0  0  0  0  0  0  0  0  0
    7.4584  -12.6419   19.1962 S   0  0  0  0  0  0  0  0  0  0  0  0
    7.7182  -12.9797   20.9760 C   0  0  0  0  0  0  0  0  0  0  0  0
    6.7985  -14.0797   21.4091 C   0  0  0  0  0  0  0  0  0  0  0  0
    7.4596  -15.1564   22.1959 C   0  0  2  0  0  0  0  0  0  0  0  0
    6.4719  -16.1947   22.4897 N   0  0  0  0  0  0  0  0  0  0  0  0
    7.8965  -14.6415   23.5438 C   0  0  0  0  0  0  0  0  0  0  0  0
    7.9610  -13.4036   23.6581 O   0  0  0  0  0  0  0  0  0  0  0  0
    6.5910  -11.7024   25.9104 C   0  0  0  0  0  0  0  0  0  0  0  0
    7.4375  -12.8139   25.3662 C   0  0  0  0  0  0  0  0  0  0  0  0
    7.9144  -13.8115   26.3558 C   0  0  2  0  0  0  0  0  0  0  0  0
    8.4324  -13.1612   27.6352 C   0  0  0  0  0  0  0  0  0  0  0  0
    8.6595  -15.0020   25.8954 C   0  0  2  0  0  0  0  0  0  0  0  0
    8.2155  -15.4790   24.6149 N   0  0  0  0  0  0  0  0  0  0  0  0
    9.0469  -16.0194   26.8735 C   0  0  0  0  0  0  0  0  0  0  0  0
    9.6154  -15.8190   27.9802 O   0  0  0  0  0  0  0  0  0  0  0  0
    8.8027  -17.3964   26.6640 O   0  0  0  0  0  0  0  0  0  0  0  0
  2  1  1  0
  3  2  1  0
  3 10  1  0
  4  3  2  0
  6  5  1  0
  7  8  1  0
  7  6  1  0
  9  8  1  6
  9 10  1  0
  9 11  1  0
 11 12  2  0
 13 14  1  0
 15 14  1  0
 15 16  1  1
 17 15  1  0
 18 11  1  0
 17 18  1  6
 19 17  1  0
 20 19  2  0
 21 19  1  0
M  END
$$$$
