GMI.pdb
     RDKit          3D

 21 20  0  0  1  0  0  0  0  0999 V2000
    7.4655  -15.4963   19.7905 N   0  0  0  0  0  0  0  0  0  0  0  0
    6.7261  -15.4257   21.0358 C   0  0  0  0  0  0  0  0  0  0  0  0
    7.6483  -15.1112   22.1454 C   0  0  0  0  0  0  0  0  0  0  0  0
    8.8815  -15.0765   21.9516 O   0  0  0  0  0  0  0  0  0  0  0  0
    7.5017  -11.6518   27.8264 C   0  0  0  0  0  0  0  0  0  0  0  0
    6.0793  -11.5977   26.7048 S   0  0  0  0  0  0  0  0  0  0  0  0
    6.4708  -12.5667   25.2025 C   0  0  0  0  0  0  0  0  0  0  0  0
    7.1207  -13.8557   25.6019 C   0  0  0  0  0  0  0  0  0  0  0  0
    7.9429  -14.4841   24.5322 C   0  0  2  0  0  0  0  0  0  0  0  0
    7.0636  -14.8549   23.4234 N   0  0  0  0  0  0  0  0  0  0  0  0
    8.5374  -15.7845   25.0098 C   0  0  0  0  0  0  0  0  0  0  0  0
    7.7537  -16.7496   25.0736 O   0  0  0  0  0  0  0  0  0  0  0  0
   12.6841  -17.6907   22.5845 C   0  0  0  0  0  0  0  0  0  0  0  0
   11.4821  -17.3199   23.4003 C   0  0  0  0  0  0  0  0  0  0  0  0
   11.5775  -17.5879   24.8567 C   0  0  2  0  0  0  0  0  0  0  0  0
   12.2008  -18.9474   25.1592 C   0  0  0  0  0  0  0  0  0  0  0  0
   10.4762  -17.1748   25.7515 C   0  0  2  0  0  0  0  0  0  0  0  0
    9.8806  -15.9256   25.3655 N   0  0  0  0  0  0  0  0  0  0  0  0
   10.5970  -17.4250   27.1884 C   0  0  0  0  0  0  0  0  0  0  0  0
   10.5559  -16.5629   28.1067 O   0  0  0  0  0  0  0  0  0  0  0  0
   10.7744  -18.7259   27.7136 O   0  0  0  0  0  0  0  0  0  0  0  0
  2  1  1  0
  3  2  1  0
  3 10  1  0
  4  3  2  0
  6  5  1  0
  7  8  1  0
  7  6  1  0
  9  8  1  1
  9 10  1  0
  9 11  1  0
 11 12  2  0
 13 14  1  0
 15 14  1  0
 15 16  1  6
 17 15  1  0
 18 11  1  0
 17 18  1  1
 19 17  1  0
 20 19  2  0
 21 19  1  0
M  END
$$$$
