GMI.pdb
     RDKit          3D

 21 20  0  0  1  0  0  0  0  0999 V2000
    6.2834  -20.1710   24.0846 N   0  0  0  0  0  0  0  0  0  0  0  0
    6.0061  -18.7584   24.2578 C   0  0  0  0  0  0  0  0  0  0  0  0
    7.1958  -17.9677   23.8835 C   0  0  0  0  0  0  0  0  0  0  0  0
    8.2818  -18.5354   23.6432 O   0  0  0  0  0  0  0  0  0  0  0  0
    7.9410  -12.2250   20.7489 C   0  0  0  0  0  0  0  0  0  0  0  0
    6.6729  -13.4371   20.2941 S   0  0  0  0  0  0  0  0  0  0  0  0
    6.8975  -14.9414   21.3119 C   0  0  0  0  0  0  0  0  0  0  0  0
    7.6166  -14.5799   22.5751 C   0  0  0  0  0  0  0  0  0  0  0  0
    8.1583  -15.7451   23.3261 C   0  0  2  0  0  0  0  0  0  0  0  0
    7.0377  -16.5496   23.8132 N   0  0  0  0  0  0  0  0  0  0  0  0
    8.8809  -15.2906   24.5687 C   0  0  0  0  0  0  0  0  0  0  0  0
    9.2331  -14.0967   24.5868 O   0  0  0  0  0  0  0  0  0  0  0  0
    8.5448  -12.0403   26.8845 C   0  0  0  0  0  0  0  0  0  0  0  0
    9.0556  -13.3310   26.3178 C   0  0  0  0  0  0  0  0  0  0  0  0
    9.4093  -14.3797   27.3064 C   0  0  2  0  0  0  0  0  0  0  0  0
   10.1783  -13.8198   28.4995 C   0  0  0  0  0  0  0  0  0  0  0  0
    9.8376  -15.7143   26.8375 C   0  0  2  0  0  0  0  0  0  0  0  0
    9.1519  -16.1355   25.6473 N   0  0  0  0  0  0  0  0  0  0  0  0
   10.1310  -16.7535   27.8252 C   0  0  0  0  0  0  0  0  0  0  0  0
   10.8234  -16.6223   28.8700 O   0  0  0  0  0  0  0  0  0  0  0  0
    9.6355  -18.0721   27.7003 O   0  0  0  0  0  0  0  0  0  0  0  0
  2  1  1  0
  3  2  1  0
  3 10  1  0
  4  3  2  0
  6  5  1  0
  7  8  1  0
  7  6  1  0
  9  8  1  1
  9 10  1  0
  9 11  1  0
 11 12  2  0
 13 14  1  0
 15 14  1  0
 15 16  1  6
 17 15  1  0
 18 11  1  0
 17 18  1  6
 19 17  1  0
 20 19  2  0
 21 19  1  0
M  END
$$$$
