GMI.pdb
     RDKit          3D

 21 20  0  0  1  0  0  0  0  0999 V2000
    5.2129  -19.9432   22.0524 N   0  0  0  0  0  0  0  0  0  0  0  0
    4.9319  -18.6009   22.5234 C   0  0  0  0  0  0  0  0  0  0  0  0
    6.1930  -17.8433   22.6498 C   0  0  0  0  0  0  0  0  0  0  0  0
    7.2027  -18.3766   23.1555 O   0  0  0  0  0  0  0  0  0  0  0  0
    8.3279  -12.0062   20.0040 C   0  0  0  0  0  0  0  0  0  0  0  0
    7.5062  -13.3212   19.0662 S   0  0  0  0  0  0  0  0  0  0  0  0
    7.5025  -14.8521   20.0690 C   0  0  0  0  0  0  0  0  0  0  0  0
    7.3365  -14.4952   21.5141 C   0  0  0  0  0  0  0  0  0  0  0  0
    7.3629  -15.6606   22.4396 C   0  0  2  0  0  0  0  0  0  0  0  0
    6.1928  -16.4969   22.1721 N   0  0  0  0  0  0  0  0  0  0  0  0
    7.2019  -15.2109   23.8695 C   0  0  0  0  0  0  0  0  0  0  0  0
    6.3176  -14.3593   24.0753 O   0  0  0  0  0  0  0  0  0  0  0  0
    6.1581  -11.9744   26.2415 C   0  0  0  0  0  0  0  0  0  0  0  0
    7.0862  -12.9201   25.5399 C   0  0  0  0  0  0  0  0  0  0  0  0
    7.9100  -13.7908   26.4148 C   0  0  2  0  0  0  0  0  0  0  0  0
    8.5651  -13.0174   27.5554 C   0  0  0  0  0  0  0  0  0  0  0  0
    8.7288  -14.8661   25.8168 C   0  0  2  0  0  0  0  0  0  0  0  0
    7.9830  -15.7026   24.9177 N   0  0  0  0  0  0  0  0  0  0  0  0
    9.7399  -15.5301   26.6404 C   0  0  0  0  0  0  0  0  0  0  0  0
   10.5853  -14.9698   27.3885 O   0  0  0  0  0  0  0  0  0  0  0  0
    9.8694  -16.9377   26.6841 O   0  0  0  0  0  0  0  0  0  0  0  0
  2  1  1  0
  3  2  1  0
  3 10  1  0
  4  3  2  0
  6  5  1  0
  7  8  1  0
  7  6  1  0
  9  8  1  6
  9 10  1  0
  9 11  1  0
 11 12  2  0
 13 14  1  0
 15 14  1  0
 15 16  1  6
 17 15  1  0
 18 11  1  0
 17 18  1  1
 19 17  1  0
 20 19  2  0
 21 19  1  0
M  END
$$$$
