GMI.pdb
     RDKit          3D

 21 20  0  0  1  0  0  0  0  0999 V2000
    6.1895  -20.4362   23.9465 N   0  0  0  0  0  0  0  0  0  0  0  0
    5.7367  -19.0633   23.8359 C   0  0  0  0  0  0  0  0  0  0  0  0
    6.8429  -18.2111   23.3556 C   0  0  0  0  0  0  0  0  0  0  0  0
    8.0069  -18.6599   23.2974 O   0  0  0  0  0  0  0  0  0  0  0  0
    7.8925  -11.6875   20.7432 C   0  0  0  0  0  0  0  0  0  0  0  0
    7.1371  -12.9878   19.7320 S   0  0  0  0  0  0  0  0  0  0  0  0
    7.6940  -14.6183   20.3488 C   0  0  0  0  0  0  0  0  0  0  0  0
    6.9434  -14.9553   21.6004 C   0  0  0  0  0  0  0  0  0  0  0  0
    7.5713  -16.0263   22.4214 C   0  0  2  0  0  0  0  0  0  0  0  0
    6.5141  -16.8753   22.9705 N   0  0  0  0  0  0  0  0  0  0  0  0
    8.2646  -15.4397   23.6248 C   0  0  0  0  0  0  0  0  0  0  0  0
    9.3174  -14.8163   23.3955 O   0  0  0  0  0  0  0  0  0  0  0  0
    6.1474  -11.9650   26.5251 C   0  0  0  0  0  0  0  0  0  0  0  0
    6.8637  -13.0802   25.8244 C   0  0  0  0  0  0  0  0  0  0  0  0
    7.8155  -13.8622   26.6518 C   0  0  2  0  0  0  0  0  0  0  0  0
    8.7145  -12.9713   27.5042 C   0  0  0  0  0  0  0  0  0  0  0  0
    8.4579  -15.0678   26.0878 C   0  0  2  0  0  0  0  0  0  0  0  0
    7.7780  -15.5726   24.9271 N   0  0  0  0  0  0  0  0  0  0  0  0
    9.0227  -16.0638   26.9993 C   0  0  0  0  0  0  0  0  0  0  0  0
    8.6348  -17.2540   27.1446 O   0  0  0  0  0  0  0  0  0  0  0  0
   10.1190  -15.7746   27.8444 O   0  0  0  0  0  0  0  0  0  0  0  0
  2  1  1  0
  3  2  1  0
  3 10  1  0
  4  3  2  0
  6  5  1  0
  7  8  1  0
  7  6  1  0
  9  8  1  6
  9 10  1  0
  9 11  1  0
 11 12  2  0
 13 14  1  0
 15 14  1  0
 15 16  1  6
 17 15  1  0
 18 11  1  0
 17 18  1  1
 19 17  1  0
 20 19  2  0
 21 19  1  0
M  END
$$$$
