GMI.pdb
     RDKit          3D

 21 20  0  0  1  0  0  0  0  0999 V2000
    7.5715  -12.7086   18.2570 N   0  0  0  0  0  0  0  0  0  0  0  0
    8.6613  -13.3526   18.9641 C   0  0  0  0  0  0  0  0  0  0  0  0
    8.1247  -14.1542   20.0822 C   0  0  0  0  0  0  0  0  0  0  0  0
    6.9079  -14.1157   20.3604 O   0  0  0  0  0  0  0  0  0  0  0  0
    9.9045  -20.0704   22.2799 C   0  0  0  0  0  0  0  0  0  0  0  0
    9.8262  -19.5028   20.5606 S   0  0  0  0  0  0  0  0  0  0  0  0
    8.9645  -17.8892   20.5069 C   0  0  0  0  0  0  0  0  0  0  0  0
    9.2321  -17.1440   21.7782 C   0  0  0  0  0  0  0  0  0  0  0  0
    8.5458  -15.8266   21.8718 C   0  0  2  0  0  0  0  0  0  0  0  0
    9.0546  -14.9576   20.8106 N   0  0  0  0  0  0  0  0  0  0  0  0
    8.9078  -15.1258   23.1566 C   0  0  0  0  0  0  0  0  0  0  0  0
   10.0275  -14.5824   23.1826 O   0  0  0  0  0  0  0  0  0  0  0  0
    6.6170  -11.4547   27.3152 C   0  0  0  0  0  0  0  0  0  0  0  0
    7.7601  -12.3193   26.8752 C   0  0  0  0  0  0  0  0  0  0  0  0
    7.4880  -13.2227   25.7298 C   0  0  2  0  0  0  0  0  0  0  0  0
    5.9970  -13.4800   25.5323 C   0  0  0  0  0  0  0  0  0  0  0  0
    8.3758  -14.3776   25.4802 C   0  0  2  0  0  0  0  0  0  0  0  0
    8.0588  -15.0743   24.2643 N   0  0  0  0  0  0  0  0  0  0  0  0
    8.8060  -15.2000   26.6117 C   0  0  0  0  0  0  0  0  0  0  0  0
    8.6986  -16.4515   26.7140 O   0  0  0  0  0  0  0  0  0  0  0  0
    9.4214  -14.6427   27.7564 O   0  0  0  0  0  0  0  0  0  0  0  0
  2  1  1  0
  3  2  1  0
  3 10  1  0
  4  3  2  0
  6  5  1  0
  7  8  1  0
  7  6  1  0
  9  8  1  1
  9 10  1  0
  9 11  1  0
 11 12  2  0
 13 14  1  0
 15 14  1  0
 15 16  1  1
 17 15  1  0
 18 11  1  0
 17 18  1  6
 19 17  1  0
 20 19  2  0
 21 19  1  0
M  END
$$$$
