AYA.pdb
     RDKit          3D

 23 23  0  0  1  0  0  0  0  0999 V2000
   21.8930  -32.3747   -8.9409 C   0  0  0  0  0  0  0  0  0  0  0  0
   23.3377  -32.2238   -9.3563 C   0  0  2  0  0  0  0  0  0  0  0  0
   23.4585  -32.6047  -10.7304 N   0  0  0  0  0  0  0  0  0  0  0  0
   24.2547  -33.0169   -8.5300 C   0  0  0  0  0  0  0  0  0  0  0  0
   24.7839  -34.0351   -9.0838 O   0  0  0  0  0  0  0  0  0  0  0  0
   30.5436  -35.3158   -2.6707 O   0  0  0  0  0  0  0  0  0  0  0  0
   29.5725  -34.6947   -3.4677 C   0  0  0  0  0  0  0  0  0  0  0  0
   29.6560  -34.6961   -4.8429 C   0  0  0  0  0  0  0  0  0  0  0  0
   28.6958  -34.0823   -5.6205 C   0  0  0  0  0  0  0  0  0  0  0  0
   27.6049  -33.4363   -5.0847 C   0  0  0  0  0  0  0  0  0  0  0  0
   26.5610  -32.7740   -5.8818 C   0  0  0  0  0  0  0  0  0  0  0  0
   25.4878  -33.6202   -6.4531 C   0  0  2  0  0  0  0  0  0  0  0  0
   24.5685  -32.7085   -7.1805 N   0  0  0  0  0  0  0  0  0  0  0  0
   24.6410  -34.2771   -5.4447 C   0  0  0  0  0  0  0  0  0  0  0  0
   23.8379  -33.5880   -4.7189 O   0  0  0  0  0  0  0  0  0  0  0  0
   27.5324  -33.4424   -3.6836 C   0  0  0  0  0  0  0  0  0  0  0  0
   28.4897  -34.0544   -2.9052 C   0  0  0  0  0  0  0  0  0  0  0  0
   23.3405  -37.6353   -4.4250 C   0  0  0  0  0  0  0  0  0  0  0  0
   23.7419  -36.1901   -4.1321 C   0  0  2  0  0  0  0  0  0  0  0  0
   24.6063  -35.6797   -5.1721 N   0  0  0  0  0  0  0  0  0  0  0  0
   24.4097  -36.2179   -2.8157 C   0  0  0  0  0  0  0  0  0  0  0  0
   25.7336  -35.8853   -2.5851 O   0  0  0  0  0  0  0  0  0  0  0  0
   23.7668  -36.5690   -1.7689 O   0  0  0  0  0  0  0  0  0  0  0  0
  2  1  1  1
  2  4  1  0
  2  3  1  0
  4  5  2  0
  7  6  1  0
  7 17  2  0
  8  7  1  0
  9  8  2  0
  9 10  1  0
 10 16  2  0
 11 10  1  0
 12 11  1  1
 13 12  1  0
 13  4  1  0
 14 12  1  0
 15 14  2  0
 16 17  1  0
 19 18  1  6
 19 20  1  0
 20 14  1  0
 21 22  1  0
 21 19  1  0
 23 21  2  0
M  END
$$$$
