AYA.pdb
     RDKit          3D

 23 23  0  0  1  0  0  0  0  0999 V2000
   19.0369  -11.5142  -17.8394 C   0  0  0  0  0  0  0  0  0  0  0  0
   20.3829  -11.2271  -17.2162 C   0  0  2  0  0  0  0  0  0  0  0  0
   20.8107  -12.3901  -16.5006 N   0  0  0  0  0  0  0  0  0  0  0  0
   20.3610  -10.0639  -16.3221 C   0  0  0  0  0  0  0  0  0  0  0  0
   19.5925  -10.1393  -15.3087 O   0  0  0  0  0  0  0  0  0  0  0  0
   27.1823  -10.1143  -16.0247 O   0  0  0  0  0  0  0  0  0  0  0  0
   25.9147   -9.6697  -15.6254 C   0  0  0  0  0  0  0  0  0  0  0  0
   25.0765  -10.4587  -14.8685 C   0  0  0  0  0  0  0  0  0  0  0  0
   23.8299  -10.0136  -14.4793 C   0  0  0  0  0  0  0  0  0  0  0  0
   23.3450   -8.7700  -14.8149 C   0  0  0  0  0  0  0  0  0  0  0  0
   22.0238   -8.2612  -14.4160 C   0  0  0  0  0  0  0  0  0  0  0  0
   21.0953   -7.8357  -15.4889 C   0  0  2  0  0  0  0  0  0  0  0  0
   21.1358   -8.8931  -16.5310 N   0  0  0  0  0  0  0  0  0  0  0  0
   21.5077   -6.6078  -16.1872 C   0  0  0  0  0  0  0  0  0  0  0  0
   22.3306   -6.6620  -17.1703 O   0  0  0  0  0  0  0  0  0  0  0  0
   24.2087   -7.9771  -15.5856 C   0  0  0  0  0  0  0  0  0  0  0  0
   25.4535   -8.4192  -15.9754 C   0  0  0  0  0  0  0  0  0  0  0  0
   20.7090   -3.9327  -17.8865 C   0  0  0  0  0  0  0  0  0  0  0  0
   21.5621   -4.1617  -16.6395 C   0  0  2  0  0  0  0  0  0  0  0  0
   21.0630   -5.2850  -15.8788 N   0  0  0  0  0  0  0  0  0  0  0  0
   21.5025   -2.9001  -15.8751 C   0  0  0  0  0  0  0  0  0  0  0  0
   20.9271   -2.7508  -14.6248 O   0  0  0  0  0  0  0  0  0  0  0  0
   22.0040   -1.8268  -16.3535 O   0  0  0  0  0  0  0  0  0  0  0  0
  2  1  1  1
  2  4  1  0
  2  3  1  0
  4  5  2  0
  7  6  1  0
  7 17  2  0
  8  7  1  0
  9  8  2  0
  9 10  1  0
 10 16  2  0
 11 10  1  0
 12 11  1  1
 13 12  1  0
 13  4  1  0
 14 12  1  0
 15 14  2  0
 16 17  1  0
 19 18  1  6
 19 20  1  0
 20 14  1  0
 21 22  1  0
 21 19  1  0
 23 21  2  0
M  END
$$$$
