AYA.pdb
     RDKit          3D

 23 23  0  0  1  0  0  0  0  0999 V2000
   16.9774   -8.6455  -22.0134 C   0  0  0  0  0  0  0  0  0  0  0  0
   17.6436   -9.6848  -21.1425 C   0  0  2  0  0  0  0  0  0  0  0  0
   17.1395  -10.9740  -21.5056 N   0  0  0  0  0  0  0  0  0  0  0  0
   17.4359   -9.4466  -19.7097 C   0  0  0  0  0  0  0  0  0  0  0  0
   16.3110   -9.8048  -19.2304 O   0  0  0  0  0  0  0  0  0  0  0  0
   18.6710  -15.0631  -16.2508 O   0  0  0  0  0  0  0  0  0  0  0  0
   18.7796  -13.6699  -16.3558 C   0  0  0  0  0  0  0  0  0  0  0  0
   19.4576  -13.0734  -17.3963 C   0  0  0  0  0  0  0  0  0  0  0  0
   19.5600  -11.7009  -17.4926 C   0  0  0  0  0  0  0  0  0  0  0  0
   19.0006  -10.8459  -16.5704 C   0  0  0  0  0  0  0  0  0  0  0  0
   19.0870   -9.3792  -16.6421 C   0  0  0  0  0  0  0  0  0  0  0  0
   18.0550   -8.6647  -17.4287 C   0  0  2  0  0  0  0  0  0  0  0  0
   18.4048   -8.8521  -18.8597 N   0  0  0  0  0  0  0  0  0  0  0  0
   18.0544   -7.2062  -17.2327 C   0  0  0  0  0  0  0  0  0  0  0  0
   18.9953   -6.4826  -17.7204 O   0  0  0  0  0  0  0  0  0  0  0  0
   18.3133  -11.4665  -15.5164 C   0  0  0  0  0  0  0  0  0  0  0  0
   18.2098  -12.8364  -15.4180 C   0  0  0  0  0  0  0  0  0  0  0  0
   15.8739   -4.4212  -15.8821 C   0  0  0  0  0  0  0  0  0  0  0  0
   17.1621   -5.0217  -16.4437 C   0  0  2  0  0  0  0  0  0  0  0  0
   17.0615   -6.4614  -16.5242 N   0  0  0  0  0  0  0  0  0  0  0  0
   18.2384   -4.5882  -15.5308 C   0  0  0  0  0  0  0  0  0  0  0  0
   18.8152   -3.3298  -15.5175 O   0  0  0  0  0  0  0  0  0  0  0  0
   18.7170   -5.3941  -14.6626 O   0  0  0  0  0  0  0  0  0  0  0  0
  2  1  1  6
  2  4  1  0
  2  3  1  0
  4  5  2  0
  7  6  1  0
  7 17  2  0
  8  7  1  0
  9  8  2  0
  9 10  1  0
 10 16  2  0
 11 10  1  0
 12 11  1  1
 13 12  1  0
 13  4  1  0
 14 12  1  0
 15 14  2  0
 16 17  1  0
 19 18  1  1
 19 20  1  0
 20 14  1  0
 21 22  1  0
 21 19  1  0
 23 21  2  0
M  END
$$$$
