AYA.pdb
     RDKit          3D

 23 23  0  0  1  0  0  0  0  0999 V2000
   26.3173  -18.7583  -17.9976 C   0  0  0  0  0  0  0  0  0  0  0  0
   27.1935  -19.0222  -16.7955 C   0  0  2  0  0  0  0  0  0  0  0  0
   28.3896  -19.6714  -17.2377 N   0  0  0  0  0  0  0  0  0  0  0  0
   26.5271  -19.8345  -15.7713 C   0  0  0  0  0  0  0  0  0  0  0  0
   26.5542  -21.0972  -15.9397 O   0  0  0  0  0  0  0  0  0  0  0  0
   31.0029  -21.9678  -10.7040 O   0  0  0  0  0  0  0  0  0  0  0  0
   29.7763  -21.4199  -11.1026 C   0  0  0  0  0  0  0  0  0  0  0  0
   29.7095  -20.3329  -11.9466 C   0  0  0  0  0  0  0  0  0  0  0  0
   28.4978  -19.7992  -12.3344 C   0  0  0  0  0  0  0  0  0  0  0  0
   27.2907  -20.3078  -11.9117 C   0  0  0  0  0  0  0  0  0  0  0  0
   25.9807  -19.7671  -12.3062 C   0  0  0  0  0  0  0  0  0  0  0  0
   25.3999  -20.2314  -13.5874 C   0  0  2  0  0  0  0  0  0  0  0  0
   25.8731  -19.2911  -14.6349 N   0  0  0  0  0  0  0  0  0  0  0  0
   23.9319  -20.1471  -13.6459 C   0  0  0  0  0  0  0  0  0  0  0  0
   23.3441  -19.0065  -13.6497 O   0  0  0  0  0  0  0  0  0  0  0  0
   27.3733  -21.4142  -11.0529 C   0  0  0  0  0  0  0  0  0  0  0  0
   28.5817  -21.9487  -10.6643 C   0  0  0  0  0  0  0  0  0  0  0  0
   20.8410  -22.2594  -14.1178 C   0  0  0  0  0  0  0  0  0  0  0  0
   21.6103  -21.0412  -13.6082 C   0  0  2  0  0  0  0  0  0  0  0  0
   23.0357  -21.2586  -13.7096 N   0  0  0  0  0  0  0  0  0  0  0  0
   21.1739  -20.8463  -12.2114 C   0  0  0  0  0  0  0  0  0  0  0  0
   19.9572  -20.3127  -11.8223 O   0  0  0  0  0  0  0  0  0  0  0  0
   21.9365  -21.1767  -11.2410 O   0  0  0  0  0  0  0  0  0  0  0  0
  2  1  1  6
  2  4  1  0
  2  3  1  0
  4  5  2  0
  7  6  1  0
  7 17  2  0
  8  7  1  0
  9  8  2  0
  9 10  1  0
 10 16  2  0
 11 10  1  0
 12 11  1  1
 13 12  1  0
 13  4  1  0
 14 12  1  0
 15 14  2  0
 16 17  1  0
 19 18  1  1
 19 20  1  0
 20 14  1  0
 21 22  1  0
 21 19  1  0
 23 21  2  0
M  END
$$$$
