AYA.pdb
     RDKit          3D

 23 23  0  0  1  0  0  0  0  0999 V2000
   22.1885   -8.1133  -15.1732 C   0  0  0  0  0  0  0  0  0  0  0  0
   21.0567   -8.3486  -16.1458 C   0  0  2  0  0  0  0  0  0  0  0  0
   21.1695   -9.6783  -16.6625 N   0  0  0  0  0  0  0  0  0  0  0  0
   21.0397   -7.3788  -17.2467 C   0  0  0  0  0  0  0  0  0  0  0  0
   21.9680   -7.4849  -18.1130 O   0  0  0  0  0  0  0  0  0  0  0  0
   19.0258  -10.6360  -22.4857 O   0  0  0  0  0  0  0  0  0  0  0  0
   19.0079   -9.4506  -21.7383 C   0  0  0  0  0  0  0  0  0  0  0  0
   19.5573   -8.2828  -22.2206 C   0  0  0  0  0  0  0  0  0  0  0  0
   19.5356   -7.1199  -21.4787 C   0  0  0  0  0  0  0  0  0  0  0  0
   18.9723   -7.0469  -20.2250 C   0  0  0  0  0  0  0  0  0  0  0  0
   18.9285   -5.8252  -19.4068 C   0  0  0  0  0  0  0  0  0  0  0  0
   20.1216   -5.4965  -18.5928 C   0  0  2  0  0  0  0  0  0  0  0  0
   20.0632   -6.3580  -17.3846 N   0  0  0  0  0  0  0  0  0  0  0  0
   20.1308   -4.1209  -18.0700 C   0  0  0  0  0  0  0  0  0  0  0  0
   20.2053   -3.1202  -18.8697 O   0  0  0  0  0  0  0  0  0  0  0  0
   18.4167   -8.2429  -19.7461 C   0  0  0  0  0  0  0  0  0  0  0  0
   18.4372   -9.4052  -20.4849 C   0  0  0  0  0  0  0  0  0  0  0  0
   18.9188   -2.1547  -15.2287 C   0  0  0  0  0  0  0  0  0  0  0  0
   19.9680   -2.3589  -16.3209 C   0  0  2  0  0  0  0  0  0  0  0  0
   20.0547   -3.7535  -16.6909 N   0  0  0  0  0  0  0  0  0  0  0  0
   21.2356   -1.8510  -15.7598 C   0  0  0  0  0  0  0  0  0  0  0  0
   21.5427   -0.5156  -15.5621 O   0  0  0  0  0  0  0  0  0  0  0  0
   22.1612   -2.6596  -15.4109 O   0  0  0  0  0  0  0  0  0  0  0  0
  2  1  1  1
  2  4  1  0
  2  3  1  0
  4  5  2  0
  7  6  1  0
  7 17  2  0
  8  7  1  0
  9  8  2  0
  9 10  1  0
 10 16  2  0
 11 10  1  0
 12 11  1  6
 13 12  1  0
 13  4  1  0
 14 12  1  0
 15 14  2  0
 16 17  1  0
 19 18  1  1
 19 20  1  0
 20 14  1  0
 21 22  1  0
 21 19  1  0
 23 21  2  0
M  END
$$$$
