AYA.pdb
     RDKit          3D

 23 23  0  0  1  0  0  0  0  0999 V2000
   26.0448  -21.9112  -16.1857 C   0  0  0  0  0  0  0  0  0  0  0  0
   25.5604  -20.6684  -16.8951 C   0  0  2  0  0  0  0  0  0  0  0  0
   26.6994  -19.9188  -17.3292 N   0  0  0  0  0  0  0  0  0  0  0  0
   24.6961  -19.8321  -16.0546 C   0  0  0  0  0  0  0  0  0  0  0  0
   25.2816  -19.0128  -15.2740 O   0  0  0  0  0  0  0  0  0  0  0  0
   17.8081  -14.7407  -13.5744 O   0  0  0  0  0  0  0  0  0  0  0  0
   18.7625  -15.5681  -14.1815 C   0  0  0  0  0  0  0  0  0  0  0  0
   20.0957  -15.2235  -14.2253 C   0  0  0  0  0  0  0  0  0  0  0  0
   21.0293  -16.0435  -14.8250 C   0  0  0  0  0  0  0  0  0  0  0  0
   20.6986  -17.2439  -15.4116 C   0  0  0  0  0  0  0  0  0  0  0  0
   21.6662  -18.1444  -16.0570 C   0  0  0  0  0  0  0  0  0  0  0  0
   22.5289  -18.9719  -15.1822 C   0  0  2  0  0  0  0  0  0  0  0  0
   23.2782  -19.8943  -16.0727 N   0  0  0  0  0  0  0  0  0  0  0  0
   21.7860  -19.8556  -14.2697 C   0  0  0  0  0  0  0  0  0  0  0  0
   21.3010  -20.9669  -14.6896 O   0  0  0  0  0  0  0  0  0  0  0  0
   19.3379  -17.5824  -15.3598 C   0  0  0  0  0  0  0  0  0  0  0  0
   18.4042  -16.7654  -14.7618 C   0  0  0  0  0  0  0  0  0  0  0  0
   20.7721  -20.1845  -10.6353 C   0  0  0  0  0  0  0  0  0  0  0  0
   20.7022  -20.5082  -12.1272 C   0  0  2  0  0  0  0  0  0  0  0  0
   21.5354  -19.6027  -12.8855 N   0  0  0  0  0  0  0  0  0  0  0  0
   19.2771  -20.3959  -12.4960 C   0  0  0  0  0  0  0  0  0  0  0  0
   18.3335  -21.3983  -12.3504 O   0  0  0  0  0  0  0  0  0  0  0  0
   18.8190  -19.3123  -12.9945 O   0  0  0  0  0  0  0  0  0  0  0  0
  2  1  1  1
  2  4  1  0
  2  3  1  0
  4  5  2  0
  7  6  1  0
  7 17  2  0
  8  7  1  0
  9  8  2  0
  9 10  1  0
 10 16  2  0
 11 10  1  0
 12 11  1  6
 13 12  1  0
 13  4  1  0
 14 12  1  0
 15 14  2  0
 16 17  1  0
 19 18  1  1
 19 20  1  0
 20 14  1  0
 21 22  1  0
 21 19  1  0
 23 21  2  0
M  END
$$$$
