AYA.pdb
     RDKit          3D

 23 23  0  0  1  0  0  0  0  0999 V2000
   22.9614  -37.5752   -4.7070 C   0  0  0  0  0  0  0  0  0  0  0  0
   23.3960  -36.3185   -5.4241 C   0  0  2  0  0  0  0  0  0  0  0  0
   23.5223  -36.6110   -6.8192 N   0  0  0  0  0  0  0  0  0  0  0  0
   24.6559  -35.7731   -4.9064 C   0  0  0  0  0  0  0  0  0  0  0  0
   25.7255  -36.1836   -5.4639 O   0  0  0  0  0  0  0  0  0  0  0  0
   26.2660  -31.8659   -9.4513 O   0  0  0  0  0  0  0  0  0  0  0  0
   26.2618  -32.1400   -8.0769 C   0  0  0  0  0  0  0  0  0  0  0  0
   27.3834  -32.6102   -7.4295 C   0  0  0  0  0  0  0  0  0  0  0  0
   27.3713  -32.8776   -6.0761 C   0  0  0  0  0  0  0  0  0  0  0  0
   26.2553  -32.6961   -5.2912 C   0  0  0  0  0  0  0  0  0  0  0  0
   26.2062  -32.9678   -3.8463 C   0  0  0  0  0  0  0  0  0  0  0  0
   26.0786  -34.3787   -3.4133 C   0  0  2  0  0  0  0  0  0  0  0  0
   24.7327  -34.8359   -3.8432 N   0  0  0  0  0  0  0  0  0  0  0  0
   26.0859  -34.5610   -1.9531 C   0  0  0  0  0  0  0  0  0  0  0  0
   24.9844  -34.6062   -1.2964 O   0  0  0  0  0  0  0  0  0  0  0  0
   25.1206  -32.2171   -5.9631 C   0  0  0  0  0  0  0  0  0  0  0  0
   25.1303  -31.9494   -7.3141 C   0  0  0  0  0  0  0  0  0  0  0  0
   26.1347  -33.9136    0.8888 C   0  0  0  0  0  0  0  0  0  0  0  0
   27.1115  -34.9220    0.2849 C   0  0  2  0  0  0  0  0  0  0  0  0
   27.2505  -34.7087   -1.1380 N   0  0  0  0  0  0  0  0  0  0  0  0
   26.5574  -36.2542    0.5974 C   0  0  0  0  0  0  0  0  0  0  0  0
   26.0850  -37.1612   -0.3357 O   0  0  0  0  0  0  0  0  0  0  0  0
   26.4814  -36.6583    1.8071 O   0  0  0  0  0  0  0  0  0  0  0  0
  2  1  1  1
  2  4  1  0
  2  3  1  0
  4  5  2  0
  7  6  1  0
  7 17  2  0
  8  7  1  0
  9  8  2  0
  9 10  1  0
 10 16  2  0
 11 10  1  0
 12 11  1  1
 13 12  1  0
 13  4  1  0
 14 12  1  0
 15 14  2  0
 16 17  1  0
 19 18  1  6
 19 20  1  0
 20 14  1  0
 21 22  1  0
 21 19  1  0
 23 21  2  0
M  END
$$$$
