AYA.pdb
     RDKit          3D

 23 23  0  0  1  0  0  0  0  0999 V2000
   22.5182  -10.1484  -20.3353 C   0  0  0  0  0  0  0  0  0  0  0  0
   23.8298   -9.7437  -19.7040 C   0  0  2  0  0  0  0  0  0  0  0  0
   24.8269  -10.7019  -20.0718 N   0  0  0  0  0  0  0  0  0  0  0  0
   23.7497   -9.6336  -18.2431 C   0  0  0  0  0  0  0  0  0  0  0  0
   22.9823  -10.4608  -17.6512 O   0  0  0  0  0  0  0  0  0  0  0  0
   28.7806  -13.2806  -17.0614 O   0  0  0  0  0  0  0  0  0  0  0  0
   27.9965  -12.1954  -16.6476 C   0  0  0  0  0  0  0  0  0  0  0  0
   26.9973  -12.3405  -15.7101 C   0  0  0  0  0  0  0  0  0  0  0  0
   26.2296  -11.2670  -15.3079 C   0  0  0  0  0  0  0  0  0  0  0  0
   26.4060   -9.9967  -15.8074 C   0  0  0  0  0  0  0  0  0  0  0  0
   25.6091   -8.8291  -15.4007 C   0  0  0  0  0  0  0  0  0  0  0  0
   24.2701   -8.6606  -16.0114 C   0  0  2  0  0  0  0  0  0  0  0  0
   24.4686   -8.6743  -17.4831 N   0  0  0  0  0  0  0  0  0  0  0  0
   23.6426   -7.3592  -15.7317 C   0  0  0  0  0  0  0  0  0  0  0  0
   23.7314   -6.3977  -16.5768 O   0  0  0  0  0  0  0  0  0  0  0  0
   27.4264   -9.8632  -16.7610 C   0  0  0  0  0  0  0  0  0  0  0  0
   28.1941  -10.9333  -17.1641 C   0  0  0  0  0  0  0  0  0  0  0  0
   23.0213   -4.6856  -15.2478 C   0  0  0  0  0  0  0  0  0  0  0  0
   22.2513   -5.7400  -14.4538 C   0  0  2  0  0  0  0  0  0  0  0  0
   22.8961   -7.0295  -14.5584 N   0  0  0  0  0  0  0  0  0  0  0  0
   20.8874   -5.7512  -15.0187 C   0  0  0  0  0  0  0  0  0  0  0  0
   19.7890   -5.1155  -14.4655 O   0  0  0  0  0  0  0  0  0  0  0  0
   20.6386   -6.3810  -16.1021 O   0  0  0  0  0  0  0  0  0  0  0  0
  2  1  1  1
  2  4  1  0
  2  3  1  0
  4  5  2  0
  7  6  1  0
  7 17  2  0
  8  7  1  0
  9  8  2  0
  9 10  1  0
 10 16  2  0
 11 10  1  0
 12 11  1  1
 13 12  1  0
 13  4  1  0
 14 12  1  0
 15 14  2  0
 16 17  1  0
 19 18  1  6
 19 20  1  0
 20 14  1  0
 21 22  1  0
 21 19  1  0
 23 21  2  0
M  END
$$$$
