AYA.pdb
     RDKit          3D

 23 23  0  0  1  0  0  0  0  0999 V2000
   25.6563  -34.8148  -10.2287 C   0  0  0  0  0  0  0  0  0  0  0  0
   25.8934  -33.8789   -9.0668 C   0  0  2  0  0  0  0  0  0  0  0  0
   25.7423  -32.5328   -9.5283 N   0  0  0  0  0  0  0  0  0  0  0  0
   27.2134  -34.0565   -8.4514 C   0  0  0  0  0  0  0  0  0  0  0  0
   28.1781  -33.4114   -8.9773 O   0  0  0  0  0  0  0  0  0  0  0  0
   25.0730  -32.3366   -1.9214 O   0  0  0  0  0  0  0  0  0  0  0  0
   26.0131  -32.6283   -2.9189 C   0  0  0  0  0  0  0  0  0  0  0  0
   27.1548  -33.3503   -2.6483 C   0  0  0  0  0  0  0  0  0  0  0  0
   28.0756  -33.6333   -3.6360 C   0  0  0  0  0  0  0  0  0  0  0  0
   27.9198  -33.2205   -4.9397 C   0  0  0  0  0  0  0  0  0  0  0  0
   28.8781  -33.5055   -6.0186 C   0  0  0  0  0  0  0  0  0  0  0  0
   28.7927  -34.8248   -6.6869 C   0  0  2  0  0  0  0  0  0  0  0  0
   27.4553  -34.8910   -7.3289 N   0  0  0  0  0  0  0  0  0  0  0  0
   28.8194  -35.9688   -5.7616 C   0  0  0  0  0  0  0  0  0  0  0  0
   27.7355  -36.4008   -5.2278 O   0  0  0  0  0  0  0  0  0  0  0  0
   26.7531  -32.4863   -5.2012 C   0  0  0  0  0  0  0  0  0  0  0  0
   25.8325  -32.2025   -4.2169 C   0  0  0  0  0  0  0  0  0  0  0  0
   31.2001  -38.4970   -4.2439 C   0  0  0  0  0  0  0  0  0  0  0  0
   29.8900  -37.7177   -4.3524 C   0  0  2  0  0  0  0  0  0  0  0  0
   29.9850  -36.6992   -5.3737 N   0  0  0  0  0  0  0  0  0  0  0  0
   29.6522  -37.1439   -3.0131 C   0  0  0  0  0  0  0  0  0  0  0  0
   29.6165  -35.7915   -2.7191 O   0  0  0  0  0  0  0  0  0  0  0  0
   29.4579  -37.9053   -2.0058 O   0  0  0  0  0  0  0  0  0  0  0  0
  2  1  1  6
  2  4  1  0
  2  3  1  0
  4  5  2  0
  7  6  1  0
  7 17  2  0
  8  7  1  0
  9  8  2  0
  9 10  1  0
 10 16  2  0
 11 10  1  0
 12 11  1  1
 13 12  1  0
 13  4  1  0
 14 12  1  0
 15 14  2  0
 16 17  1  0
 19 18  1  1
 19 20  1  0
 20 14  1  0
 21 22  1  0
 21 19  1  0
 23 21  2  0
M  END
$$$$
