AYA.pdb
     RDKit          3D

 23 23  0  0  1  0  0  0  0  0999 V2000
   26.2679  -18.5961  -19.2207 C   0  0  0  0  0  0  0  0  0  0  0  0
   27.5663  -18.6437  -18.4498 C   0  0  2  0  0  0  0  0  0  0  0  0
   28.5828  -19.1793  -19.3027 N   0  0  0  0  0  0  0  0  0  0  0  0
   27.4702  -19.4368  -17.2191 C   0  0  0  0  0  0  0  0  0  0  0  0
   27.8101  -20.6619  -17.3035 O   0  0  0  0  0  0  0  0  0  0  0  0
   26.3672  -21.4109   -8.4972 O   0  0  0  0  0  0  0  0  0  0  0  0
   26.6020  -20.8346   -9.7528 C   0  0  0  0  0  0  0  0  0  0  0  0
   27.7350  -21.1240  -10.4813 C   0  0  0  0  0  0  0  0  0  0  0  0
   27.9589  -20.5524  -11.7169 C   0  0  0  0  0  0  0  0  0  0  0  0
   27.0797  -19.6674  -12.2983 C   0  0  0  0  0  0  0  0  0  0  0  0
   27.2837  -19.0410  -13.6135 C   0  0  0  0  0  0  0  0  0  0  0  0
   26.9559  -19.8402  -14.8169 C   0  0  2  0  0  0  0  0  0  0  0  0
   27.0283  -18.9142  -15.9756 N   0  0  0  0  0  0  0  0  0  0  0  0
   25.5780  -20.3563  -14.8372 C   0  0  0  0  0  0  0  0  0  0  0  0
   24.5930  -19.5751  -15.0941 O   0  0  0  0  0  0  0  0  0  0  0  0
   25.9305  -19.3815  -11.5458 C   0  0  0  0  0  0  0  0  0  0  0  0
   25.7048  -19.9509  -10.3121 C   0  0  0  0  0  0  0  0  0  0  0  0
   23.6287  -23.5867  -14.4480 C   0  0  0  0  0  0  0  0  0  0  0  0
   23.7942  -22.0770  -14.6179 C   0  0  2  0  0  0  0  0  0  0  0  0
   25.1924  -21.7111  -14.5952 N   0  0  0  0  0  0  0  0  0  0  0  0
   23.0390  -21.4629  -13.5078 C   0  0  0  0  0  0  0  0  0  0  0  0
   21.6709  -21.2516  -13.4939 O   0  0  0  0  0  0  0  0  0  0  0  0
   23.6408  -21.0749  -12.4497 O   0  0  0  0  0  0  0  0  0  0  0  0
  2  1  1  6
  2  4  1  0
  2  3  1  0
  4  5  2  0
  7  6  1  0
  7 17  2  0
  8  7  1  0
  9  8  2  0
  9 10  1  0
 10 16  2  0
 11 10  1  0
 12 11  1  1
 13 12  1  0
 13  4  1  0
 14 12  1  0
 15 14  2  0
 16 17  1  0
 19 18  1  1
 19 20  1  0
 20 14  1  0
 21 22  1  0
 21 19  1  0
 23 21  2  0
M  END
$$$$
