AYA.pdb
     RDKit          3D

 23 23  0  0  1  0  0  0  0  0999 V2000
   25.7838  -20.3504  -18.4926 C   0  0  0  0  0  0  0  0  0  0  0  0
   27.0074  -20.7397  -17.6967 C   0  0  2  0  0  0  0  0  0  0  0  0
   27.6518  -21.8330  -18.3580 N   0  0  0  0  0  0  0  0  0  0  0  0
   26.6943  -21.1023  -16.3098 C   0  0  0  0  0  0  0  0  0  0  0  0
   26.3912  -22.3210  -16.0947 O   0  0  0  0  0  0  0  0  0  0  0  0
   25.8966  -20.5969   -7.3644 O   0  0  0  0  0  0  0  0  0  0  0  0
   26.1861  -20.4136   -8.7232 C   0  0  0  0  0  0  0  0  0  0  0  0
   25.6318  -19.3815   -9.4483 C   0  0  0  0  0  0  0  0  0  0  0  0
   25.9218  -19.2078  -10.7859 C   0  0  0  0  0  0  0  0  0  0  0  0
   26.7717  -20.0405  -11.4778 C   0  0  0  0  0  0  0  0  0  0  0  0
   27.1060  -19.8846  -12.9018 C   0  0  0  0  0  0  0  0  0  0  0  0
   26.3317  -20.6791  -13.8834 C   0  0  2  0  0  0  0  0  0  0  0  0
   26.7136  -20.1818  -15.2296 N   0  0  0  0  0  0  0  0  0  0  0  0
   24.8767  -20.4724  -13.8083 C   0  0  0  0  0  0  0  0  0  0  0  0
   24.3403  -19.4230  -14.3156 O   0  0  0  0  0  0  0  0  0  0  0  0
   27.3289  -21.0870  -10.7275 C   0  0  0  0  0  0  0  0  0  0  0  0
   27.0409  -21.2625   -9.3922 C   0  0  0  0  0  0  0  0  0  0  0  0
   22.4513  -19.5843  -12.4293 C   0  0  0  0  0  0  0  0  0  0  0  0
   22.5553  -20.9705  -13.0642 C   0  0  2  0  0  0  0  0  0  0  0  0
   23.9387  -21.3655  -13.2038 N   0  0  0  0  0  0  0  0  0  0  0  0
   21.8706  -20.8674  -14.3680 C   0  0  0  0  0  0  0  0  0  0  0  0
   20.5421  -20.5212  -14.5467 O   0  0  0  0  0  0  0  0  0  0  0  0
   22.5015  -21.1051  -15.4532 O   0  0  0  0  0  0  0  0  0  0  0  0
  2  1  1  6
  2  4  1  0
  2  3  1  0
  4  5  2  0
  7  6  1  0
  7 17  2  0
  8  7  1  0
  9  8  2  0
  9 10  1  0
 10 16  2  0
 11 10  1  0
 12 11  1  1
 13 12  1  0
 13  4  1  0
 14 12  1  0
 15 14  2  0
 16 17  1  0
 19 18  1  6
 19 20  1  0
 20 14  1  0
 21 22  1  0
 21 19  1  0
 23 21  2  0
M  END
$$$$
