AYA.pdb
     RDKit          3D

 23 23  0  0  1  0  0  0  0  0999 V2000
   17.4003  -12.4689  -17.8232 C   0  0  0  0  0  0  0  0  0  0  0  0
   18.6318  -12.6745  -16.9725 C   0  0  2  0  0  0  0  0  0  0  0  0
   18.4908  -13.9060  -16.2575 N   0  0  0  0  0  0  0  0  0  0  0  0
   18.8684  -11.5707  -16.0352 C   0  0  0  0  0  0  0  0  0  0  0  0
   18.1948  -11.5880  -14.9538 O   0  0  0  0  0  0  0  0  0  0  0  0
   22.6312   -3.6199  -14.0549 O   0  0  0  0  0  0  0  0  0  0  0  0
   22.2901   -4.9577  -14.2955 C   0  0  0  0  0  0  0  0  0  0  0  0
   21.8141   -5.7745  -13.2933 C   0  0  0  0  0  0  0  0  0  0  0  0
   21.4804   -7.0906  -13.5382 C   0  0  0  0  0  0  0  0  0  0  0  0
   21.5979   -7.6696  -14.7813 C   0  0  0  0  0  0  0  0  0  0  0  0
   21.2496   -9.0672  -15.0800 C   0  0  0  0  0  0  0  0  0  0  0  0
   19.8216   -9.3893  -15.3066 C   0  0  2  0  0  0  0  0  0  0  0  0
   19.7876  -10.5159  -16.2737 N   0  0  0  0  0  0  0  0  0  0  0  0
   19.0603   -8.3131  -15.9606 C   0  0  0  0  0  0  0  0  0  0  0  0
   18.9407   -8.2826  -17.2378 O   0  0  0  0  0  0  0  0  0  0  0  0
   22.0837   -6.8268  -15.7924 C   0  0  0  0  0  0  0  0  0  0  0  0
   22.4175   -5.5127  -15.5503 C   0  0  0  0  0  0  0  0  0  0  0  0
   16.5376   -6.7614  -16.8114 C   0  0  0  0  0  0  0  0  0  0  0  0
   17.7475   -6.2021  -16.0639 C   0  0  2  0  0  0  0  0  0  0  0  0
   18.3950   -7.2390  -15.2926 N   0  0  0  0  0  0  0  0  0  0  0  0
   17.2254   -5.1162  -15.2107 C   0  0  0  0  0  0  0  0  0  0  0  0
   16.7213   -3.9118  -15.6709 O   0  0  0  0  0  0  0  0  0  0  0  0
   17.2122   -5.2391  -13.9391 O   0  0  0  0  0  0  0  0  0  0  0  0
  2  1  1  1
  2  4  1  0
  2  3  1  0
  4  5  2  0
  7  6  1  0
  7 17  2  0
  8  7  1  0
  9  8  2  0
  9 10  1  0
 10 16  2  0
 11 10  1  0
 12 11  1  6
 13 12  1  0
 13  4  1  0
 14 12  1  0
 15 14  2  0
 16 17  1  0
 19 18  1  1
 19 20  1  0
 20 14  1  0
 21 22  1  0
 21 19  1  0
 23 21  2  0
M  END
$$$$
