LWC.pdb
     RDKit          3D

 29 30  0  0  1  0  0  0  0  0999 V2000
    9.8824  -19.5866   17.5979 C   0  0  0  0  0  0  0  0  0  0  0  0
   11.1410  -18.8746   17.9957 C   0  0  2  0  0  0  0  0  0  0  0  0
   12.2528  -19.8959   18.0076 C   0  0  0  0  0  0  0  0  0  0  0  0
   11.0371  -18.1213   19.2859 C   0  0  0  0  0  0  0  0  0  0  0  0
    9.9114  -17.1145   19.2376 C   0  0  2  0  0  0  0  0  0  0  0  0
   10.2304  -16.1247   18.2497 N   0  0  0  0  0  0  0  0  0  0  0  0
    9.7281  -16.4369   20.5371 C   0  0  0  0  0  0  0  0  0  0  0  0
   10.5965  -15.6256   20.9846 O   0  0  0  0  0  0  0  0  0  0  0  0
    8.5873  -16.6325   21.3780 N   0  0  0  0  0  0  0  0  0  0  0  0
    8.4693  -16.0710   22.6874 C   0  0  1  0  0  0  0  0  0  0  0  0
    7.0538  -15.8994   23.1502 C   0  0  0  0  0  0  0  0  0  0  0  0
    6.9413  -15.3595   24.5253 C   0  0  0  0  0  0  0  0  0  0  0  0
    6.6948  -16.1133   25.6795 C   0  0  0  0  0  0  0  0  0  0  0  0
    6.6843  -15.2984   26.7378 N   0  0  0  0  0  0  0  0  0  0  0  0
    6.9135  -14.0102   26.3605 C   0  0  0  0  0  0  0  0  0  0  0  0
    6.9896  -12.8340   27.0781 C   0  0  0  0  0  0  0  0  0  0  0  0
    7.2293  -11.6482   26.4321 C   0  0  0  0  0  0  0  0  0  0  0  0
    7.3853  -11.6953   25.0650 C   0  0  0  0  0  0  0  0  0  0  0  0
    7.3096  -12.8704   24.3465 C   0  0  0  0  0  0  0  0  0  0  0  0
    7.0705  -14.0679   24.9814 C   0  0  0  0  0  0  0  0  0  0  0  0
    9.1865  -16.8743   23.7154 C   0  0  0  0  0  0  0  0  0  0  0  0
    8.9389  -18.0925   23.8244 O   0  0  0  0  0  0  0  0  0  0  0  0
   10.1445  -16.2579   24.5638 N   0  0  0  0  0  0  0  0  0  0  0  0
   10.8906  -16.9718   25.5635 C   0  0  1  0  0  0  0  0  0  0  0  0
   12.3832  -16.7584   25.4282 C   0  0  0  0  0  0  0  0  0  0  0  0
   12.7819  -16.2647   23.7125 S   0  0  0  0  0  0  0  0  0  0  0  0
   10.4669  -16.6912   26.9435 C   0  0  0  0  0  0  0  0  0  0  0  0
   11.0038  -17.4277   27.9792 O   0  0  0  0  0  0  0  0  0  0  0  0
    9.6311  -15.7999   27.1967 O   0  0  0  0  0  0  0  0  0  0  0  0
  2  3  1  1
  2  1  1  0
  4  2  1  0
  5  4  1  0
  5  6  1  6
  7  8  2  0
  7  5  1  0
  9  7  1  0
 10  9  1  0
 10 11  1  1
 11 12  1  0
 12 13  2  0
 12 20  1  0
 13 14  1  0
 14 15  1  0
 15 16  2  0
 17 16  1  0
 18 17  2  0
 19 20  2  0
 19 18  1  0
 20 15  1  0
 21 22  2  0
 21 10  1  0
 23 21  1  0
 24 25  1  1
 24 23  1  0
 26 25  1  0
 27 24  1  0
 28 27  1  0
 29 27  2  0
M  END
$$$$
