LWC.pdb
     RDKit          3D

 29 30  0  0  1  0  0  0  0  0999 V2000
    8.9690  -13.3591   18.6178 C   0  0  0  0  0  0  0  0  0  0  0  0
    7.7097  -13.4198   19.4300 C   0  0  2  0  0  0  0  0  0  0  0  0
    6.9168  -12.1712   19.1273 C   0  0  0  0  0  0  0  0  0  0  0  0
    7.9359  -13.6168   20.8973 C   0  0  0  0  0  0  0  0  0  0  0  0
    8.5013  -14.9893   21.1799 C   0  0  2  0  0  0  0  0  0  0  0  0
    7.6732  -15.9635   20.5298 N   0  0  0  0  0  0  0  0  0  0  0  0
    8.5229  -15.2841   22.6270 C   0  0  0  0  0  0  0  0  0  0  0  0
    7.5021  -15.7541   23.2183 O   0  0  0  0  0  0  0  0  0  0  0  0
    9.6653  -15.0706   23.4615 N   0  0  0  0  0  0  0  0  0  0  0  0
    9.8818  -15.7652   24.6921 C   0  0  1  0  0  0  0  0  0  0  0  0
    8.6542  -16.4287   25.2399 C   0  0  0  0  0  0  0  0  0  0  0  0
    7.5803  -15.4766   25.6079 C   0  0  0  0  0  0  0  0  0  0  0  0
    6.2050  -15.7310   25.5348 C   0  0  0  0  0  0  0  0  0  0  0  0
    5.5400  -14.6570   25.9686 N   0  0  0  0  0  0  0  0  0  0  0  0
    6.4015  -13.6694   26.3384 C   0  0  0  0  0  0  0  0  0  0  0  0
    6.1961  -12.3981   26.8343 C   0  0  0  0  0  0  0  0  0  0  0  0
    7.2666  -11.5906   27.1220 C   0  0  0  0  0  0  0  0  0  0  0  0
    8.5234  -12.1048   26.8946 C   0  0  0  0  0  0  0  0  0  0  0  0
    8.7301  -13.3755   26.3991 C   0  0  0  0  0  0  0  0  0  0  0  0
    7.6655  -14.1973   26.1066 C   0  0  0  0  0  0  0  0  0  0  0  0
   10.9434  -16.8026   24.5781 C   0  0  0  0  0  0  0  0  0  0  0  0
   10.6673  -17.9931   24.8308 O   0  0  0  0  0  0  0  0  0  0  0  0
   12.2589  -16.4389   24.1846 N   0  0  0  0  0  0  0  0  0  0  0  0
   13.3454  -17.3758   24.0972 C   0  0  1  0  0  0  0  0  0  0  0  0
   14.5524  -16.7921   23.3942 C   0  0  0  0  0  0  0  0  0  0  0  0
   14.1345  -15.1445   22.7182 S   0  0  0  0  0  0  0  0  0  0  0  0
   13.7473  -17.9514   25.3893 C   0  0  0  0  0  0  0  0  0  0  0  0
   14.7769  -18.8688   25.4305 O   0  0  0  0  0  0  0  0  0  0  0  0
   13.1756  -17.6267   26.4499 O   0  0  0  0  0  0  0  0  0  0  0  0
  2  3  1  1
  2  1  1  0
  4  2  1  0
  5  4  1  0
  5  6  1  6
  7  8  2  0
  7  5  1  0
  9  7  1  0
 10  9  1  0
 10 11  1  6
 11 12  1  0
 12 13  2  0
 12 20  1  0
 13 14  1  0
 14 15  1  0
 15 16  2  0
 17 16  1  0
 18 17  2  0
 19 20  2  0
 19 18  1  0
 20 15  1  0
 21 22  2  0
 21 10  1  0
 23 21  1  0
 24 25  1  1
 24 23  1  0
 26 25  1  0
 27 24  1  0
 28 27  1  0
 29 27  2  0
M  END
$$$$
