LWC.pdb
     RDKit          3D

 29 30  0  0  1  0  0  0  0  0999 V2000
    8.4048  -13.9901   18.3490 C   0  0  0  0  0  0  0  0  0  0  0  0
    7.8155  -13.4181   19.6039 C   0  0  2  0  0  0  0  0  0  0  0  0
    7.6111  -11.9401   19.3735 C   0  0  0  0  0  0  0  0  0  0  0  0
    8.6113  -13.7037   20.8400 C   0  0  0  0  0  0  0  0  0  0  0  0
    8.8329  -15.1884   21.0121 C   0  0  2  0  0  0  0  0  0  0  0  0
    7.5566  -15.8428   20.9909 N   0  0  0  0  0  0  0  0  0  0  0  0
    9.4960  -15.4970   22.2952 C   0  0  0  0  0  0  0  0  0  0  0  0
   10.6346  -15.0127   22.5809 O   0  0  0  0  0  0  0  0  0  0  0  0
    8.9262  -16.3448   23.2970 N   0  0  0  0  0  0  0  0  0  0  0  0
    9.4979  -16.5230   24.5952 C   0  0  1  0  0  0  0  0  0  0  0  0
    8.4858  -16.6287   25.6960 C   0  0  0  0  0  0  0  0  0  0  0  0
    7.4961  -15.5261   25.6989 C   0  0  0  0  0  0  0  0  0  0  0  0
    6.1471  -15.6406   25.3408 C   0  0  0  0  0  0  0  0  0  0  0  0
    5.5553  -14.4522   25.4876 N   0  0  0  0  0  0  0  0  0  0  0  0
    6.4425  -13.5201   25.9328 C   0  0  0  0  0  0  0  0  0  0  0  0
    6.3087  -12.1777   26.2232 C   0  0  0  0  0  0  0  0  0  0  0  0
    7.3914  -11.4564   26.6572 C   0  0  0  0  0  0  0  0  0  0  0  0
    8.5867  -12.1278   26.7833 C   0  0  0  0  0  0  0  0  0  0  0  0
    8.7218  -13.4696   26.4935 C   0  0  0  0  0  0  0  0  0  0  0  0
    7.6439  -14.2063   26.0579 C   0  0  0  0  0  0  0  0  0  0  0  0
   10.3730  -17.7251   24.6689 C   0  0  0  0  0  0  0  0  0  0  0  0
   10.0289  -18.7712   24.0818 O   0  0  0  0  0  0  0  0  0  0  0  0
   11.5891  -17.6800   25.4015 N   0  0  0  0  0  0  0  0  0  0  0  0
   12.4790  -18.8018   25.5260 C   0  0  1  0  0  0  0  0  0  0  0  0
   13.9038  -18.4489   25.1558 C   0  0  0  0  0  0  0  0  0  0  0  0
   14.9938  -19.8856   25.4622 S   0  0  0  0  0  0  0  0  0  0  0  0
   12.4493  -19.4482   26.8466 C   0  0  0  0  0  0  0  0  0  0  0  0
   13.1627  -20.6120   27.0465 O   0  0  0  0  0  0  0  0  0  0  0  0
   11.7915  -18.9650   27.7904 O   0  0  0  0  0  0  0  0  0  0  0  0
  2  3  1  6
  2  1  1  0
  4  2  1  0
  5  4  1  0
  5  6  1  1
  7  8  2  0
  7  5  1  0
  9  7  1  0
 10  9  1  0
 10 11  1  1
 11 12  1  0
 12 13  2  0
 12 20  1  0
 13 14  1  0
 14 15  1  0
 15 16  2  0
 17 16  1  0
 18 17  2  0
 19 20  2  0
 19 18  1  0
 20 15  1  0
 21 22  2  0
 21 10  1  0
 23 21  1  0
 24 25  1  1
 24 23  1  0
 26 25  1  0
 27 24  1  0
 28 27  1  0
 29 27  2  0
M  END
$$$$
