LWC.pdb
     RDKit          3D

 29 30  0  0  1  0  0  0  0  0999 V2000
    6.2922  -14.2965   20.5201 C   0  0  0  0  0  0  0  0  0  0  0  0
    7.6486  -13.6977   20.7458 C   0  0  2  0  0  0  0  0  0  0  0  0
    7.6129  -12.2856   20.2130 C   0  0  0  0  0  0  0  0  0  0  0  0
    8.7758  -14.5008   20.1734 C   0  0  0  0  0  0  0  0  0  0  0  0
    8.9205  -15.8221   20.8920 C   0  0  2  0  0  0  0  0  0  0  0  0
    7.6124  -16.3762   21.0902 N   0  0  0  0  0  0  0  0  0  0  0  0
    9.5646  -15.6592   22.2111 C   0  0  0  0  0  0  0  0  0  0  0  0
   10.5757  -14.9057   22.3613 O   0  0  0  0  0  0  0  0  0  0  0  0
    9.1154  -16.3192   23.3984 N   0  0  0  0  0  0  0  0  0  0  0  0
    9.7754  -16.2026   24.6611 C   0  0  1  0  0  0  0  0  0  0  0  0
    8.8749  -16.4182   25.8401 C   0  0  0  0  0  0  0  0  0  0  0  0
    7.6876  -15.5320   25.8487 C   0  0  0  0  0  0  0  0  0  0  0  0
    6.3787  -15.9196   25.5359 C   0  0  0  0  0  0  0  0  0  0  0  0
    5.5682  -14.8669   25.6738 N   0  0  0  0  0  0  0  0  0  0  0  0
    6.2655  -13.7662   26.0695 C   0  0  0  0  0  0  0  0  0  0  0  0
    5.8772  -12.4685   26.3331 C   0  0  0  0  0  0  0  0  0  0  0  0
    6.8074  -11.5364   26.7162 C   0  0  0  0  0  0  0  0  0  0  0  0
    8.1146  -11.9559   26.8202 C   0  0  0  0  0  0  0  0  0  0  0  0
    8.5040  -13.2528   26.5571 C   0  0  0  0  0  0  0  0  0  0  0  0
    7.5816  -14.1991   26.1726 C   0  0  0  0  0  0  0  0  0  0  0  0
   10.9220  -17.1434   24.7903 C   0  0  0  0  0  0  0  0  0  0  0  0
   10.7278  -18.3689   24.6574 O   0  0  0  0  0  0  0  0  0  0  0  0
   12.2254  -16.6486   25.0623 N   0  0  0  0  0  0  0  0  0  0  0  0
   13.3685  -17.4977   25.2577 C   0  0  1  0  0  0  0  0  0  0  0  0
   14.6732  -16.7362   25.1607 C   0  0  0  0  0  0  0  0  0  0  0  0
   14.6160  -15.5953   23.7320 S   0  0  0  0  0  0  0  0  0  0  0  0
   13.3329  -18.2749   26.5056 C   0  0  0  0  0  0  0  0  0  0  0  0
   14.3911  -19.1032   26.8173 O   0  0  0  0  0  0  0  0  0  0  0  0
   12.3642  -18.2002   27.2886 O   0  0  0  0  0  0  0  0  0  0  0  0
  2  3  1  6
  2  1  1  0
  4  2  1  0
  5  4  1  0
  5  6  1  1
  7  8  2  0
  7  5  1  0
  9  7  1  0
 10  9  1  0
 10 11  1  1
 11 12  1  0
 12 13  2  0
 12 20  1  0
 13 14  1  0
 14 15  1  0
 15 16  2  0
 17 16  1  0
 18 17  2  0
 19 20  2  0
 19 18  1  0
 20 15  1  0
 21 22  2  0
 21 10  1  0
 23 21  1  0
 24 25  1  1
 24 23  1  0
 26 25  1  0
 27 24  1  0
 28 27  1  0
 29 27  2  0
M  END
$$$$
