LWC.pdb
     RDKit          3D

 29 30  0  0  1  0  0  0  0  0999 V2000
    7.7924  -13.1284   18.9979 C   0  0  0  0  0  0  0  0  0  0  0  0
    7.7784  -14.1853   20.0620 C   0  0  2  0  0  0  0  0  0  0  0  0
    7.6001  -13.4874   21.3888 C   0  0  0  0  0  0  0  0  0  0  0  0
    8.9718  -15.0898   20.0428 C   0  0  0  0  0  0  0  0  0  0  0  0
    8.8334  -16.1929   21.0661 C   0  0  2  0  0  0  0  0  0  0  0  0
    7.4384  -16.3864   21.3384 N   0  0  0  0  0  0  0  0  0  0  0  0
    9.5146  -15.8530   22.3317 C   0  0  0  0  0  0  0  0  0  0  0  0
   10.3567  -14.9044   22.3918 O   0  0  0  0  0  0  0  0  0  0  0  0
    9.2889  -16.5457   23.5631 N   0  0  0  0  0  0  0  0  0  0  0  0
   10.1225  -16.3955   24.7147 C   0  0  1  0  0  0  0  0  0  0  0  0
    9.8378  -15.1600   25.5145 C   0  0  0  0  0  0  0  0  0  0  0  0
    8.4016  -14.7980   25.5546 C   0  0  0  0  0  0  0  0  0  0  0  0
    7.3353  -15.6609   25.2726 C   0  0  0  0  0  0  0  0  0  0  0  0
    6.1859  -14.9996   25.4332 N   0  0  0  0  0  0  0  0  0  0  0  0
    6.4157  -13.7128   25.8149 C   0  0  0  0  0  0  0  0  0  0  0  0
    5.5649  -12.6622   26.0915 C   0  0  0  0  0  0  0  0  0  0  0  0
    6.0741  -11.4417   26.4545 C   0  0  0  0  0  0  0  0  0  0  0  0
    7.4442  -11.3260   26.5254 C   0  0  0  0  0  0  0  0  0  0  0  0
    8.2958  -12.3754   26.2493 C   0  0  0  0  0  0  0  0  0  0  0  0
    7.7991  -13.6061   25.8847 C   0  0  0  0  0  0  0  0  0  0  0  0
   10.0316  -17.5612   25.6362 C   0  0  0  0  0  0  0  0  0  0  0  0
    8.9159  -18.0639   25.8810 O   0  0  0  0  0  0  0  0  0  0  0  0
   11.2057  -18.0957   26.2306 N   0  0  0  0  0  0  0  0  0  0  0  0
   11.1969  -19.2199   27.1262 C   0  0  1  0  0  0  0  0  0  0  0  0
   12.5407  -19.9139   27.1906 C   0  0  0  0  0  0  0  0  0  0  0  0
   13.3939  -19.7550   25.5803 S   0  0  0  0  0  0  0  0  0  0  0  0
   10.7310  -18.9020   28.4843 C   0  0  0  0  0  0  0  0  0  0  0  0
   10.4944  -17.5871   28.8281 O   0  0  0  0  0  0  0  0  0  0  0  0
   10.5452  -19.7982   29.3325 O   0  0  0  0  0  0  0  0  0  0  0  0
  2  3  1  1
  2  1  1  0
  4  2  1  0
  5  4  1  0
  5  6  1  1
  7  8  2  0
  7  5  1  0
  9  7  1  0
 10  9  1  0
 10 11  1  1
 11 12  1  0
 12 13  2  0
 12 20  1  0
 13 14  1  0
 14 15  1  0
 15 16  2  0
 17 16  1  0
 18 17  2  0
 19 20  2  0
 19 18  1  0
 20 15  1  0
 21 22  2  0
 21 10  1  0
 23 21  1  0
 24 25  1  1
 24 23  1  0
 26 25  1  0
 27 24  1  0
 28 27  1  0
 29 27  2  0
M  END
$$$$
