LWC.pdb
     RDKit          3D

 29 30  0  0  1  0  0  0  0  0999 V2000
    8.1302  -14.1491   18.2005 C   0  0  0  0  0  0  0  0  0  0  0  0
    7.4452  -13.6525   19.4389 C   0  0  2  0  0  0  0  0  0  0  0  0
    6.9200  -12.2689   19.1400 C   0  0  0  0  0  0  0  0  0  0  0  0
    8.2988  -13.6913   20.6687 C   0  0  0  0  0  0  0  0  0  0  0  0
    8.7872  -15.0940   20.9465 C   0  0  2  0  0  0  0  0  0  0  0  0
    7.6507  -15.9674   21.0009 N   0  0  0  0  0  0  0  0  0  0  0  0
    9.5041  -15.1779   22.2351 C   0  0  0  0  0  0  0  0  0  0  0  0
   10.4862  -14.4152   22.4928 O   0  0  0  0  0  0  0  0  0  0  0  0
    9.1613  -16.1010   23.2731 N   0  0  0  0  0  0  0  0  0  0  0  0
    9.8440  -16.1635   24.5276 C   0  0  1  0  0  0  0  0  0  0  0  0
    8.9607  -16.5262   25.6832 C   0  0  0  0  0  0  0  0  0  0  0  0
    7.7854  -15.6365   25.8326 C   0  0  0  0  0  0  0  0  0  0  0  0
    6.4506  -16.0079   25.6284 C   0  0  0  0  0  0  0  0  0  0  0  0
    5.6636  -14.9579   25.8777 N   0  0  0  0  0  0  0  0  0  0  0  0
    6.4020  -13.8746   26.2460 C   0  0  0  0  0  0  0  0  0  0  0  0
    6.0486  -12.5857   26.5900 C   0  0  0  0  0  0  0  0  0  0  0  0
    7.0165  -11.6714   26.9183 C   0  0  0  0  0  0  0  0  0  0  0  0
    8.3248  -12.0991   26.8863 C   0  0  0  0  0  0  0  0  0  0  0  0
    8.6794  -13.3872   26.5428 C   0  0  0  0  0  0  0  0  0  0  0  0
    7.7189  -14.3157   26.2118 C   0  0  0  0  0  0  0  0  0  0  0  0
   10.9797  -17.1260   24.5074 C   0  0  0  0  0  0  0  0  0  0  0  0
   10.8017  -18.2752   24.0546 O   0  0  0  0  0  0  0  0  0  0  0  0
   12.2543  -16.7379   24.9996 N   0  0  0  0  0  0  0  0  0  0  0  0
   13.3948  -17.6124   25.0170 C   0  0  1  0  0  0  0  0  0  0  0  0
   14.6986  -16.8597   24.8585 C   0  0  0  0  0  0  0  0  0  0  0  0
   14.5524  -15.6558   23.4890 S   0  0  0  0  0  0  0  0  0  0  0  0
   13.4617  -18.4887   26.1960 C   0  0  0  0  0  0  0  0  0  0  0  0
   14.4667  -19.4297   26.2836 O   0  0  0  0  0  0  0  0  0  0  0  0
   12.6273  -18.3982   27.1194 O   0  0  0  0  0  0  0  0  0  0  0  0
  2  3  1  6
  2  1  1  0
  4  2  1  0
  5  4  1  0
  5  6  1  1
  7  8  2  0
  7  5  1  0
  9  7  1  0
 10  9  1  0
 10 11  1  1
 11 12  1  0
 12 13  2  0
 12 20  1  0
 13 14  1  0
 14 15  1  0
 15 16  2  0
 17 16  1  0
 18 17  2  0
 19 20  2  0
 19 18  1  0
 20 15  1  0
 21 22  2  0
 21 10  1  0
 23 21  1  0
 24 25  1  1
 24 23  1  0
 26 25  1  0
 27 24  1  0
 28 27  1  0
 29 27  2  0
M  END
$$$$
