LWC.pdb
     RDKit          3D

 29 30  0  0  1  0  0  0  0  0999 V2000
    8.7147  -14.0390   18.4623 C   0  0  0  0  0  0  0  0  0  0  0  0
    7.8140  -13.6951   19.6112 C   0  0  2  0  0  0  0  0  0  0  0  0
    7.3111  -12.2896   19.3853 C   0  0  0  0  0  0  0  0  0  0  0  0
    8.4445  -13.8716   20.9581 C   0  0  0  0  0  0  0  0  0  0  0  0
    8.8970  -15.2987   21.1629 C   0  0  2  0  0  0  0  0  0  0  0  0
    7.7645  -16.1624   20.9925 N   0  0  0  0  0  0  0  0  0  0  0  0
    9.4464  -15.5088   22.5176 C   0  0  0  0  0  0  0  0  0  0  0  0
   10.4216  -14.8180   22.9469 O   0  0  0  0  0  0  0  0  0  0  0  0
    8.9394  -16.4824   23.4353 N   0  0  0  0  0  0  0  0  0  0  0  0
    9.4241  -16.6313   24.7720 C   0  0  1  0  0  0  0  0  0  0  0  0
    8.3424  -16.8056   25.7951 C   0  0  0  0  0  0  0  0  0  0  0  0
    7.3483  -15.7070   25.7994 C   0  0  0  0  0  0  0  0  0  0  0  0
    5.9904  -15.8352   25.4816 C   0  0  0  0  0  0  0  0  0  0  0  0
    5.3976  -14.6459   25.6166 N   0  0  0  0  0  0  0  0  0  0  0  0
    6.2926  -13.7000   26.0149 C   0  0  0  0  0  0  0  0  0  0  0  0
    6.1608  -12.3516   26.2771 C   0  0  0  0  0  0  0  0  0  0  0  0
    7.2519  -11.6161   26.6637 C   0  0  0  0  0  0  0  0  0  0  0  0
    8.4532  -12.2797   26.7725 C   0  0  0  0  0  0  0  0  0  0  0  0
    8.5862  -13.6276   26.5109 C   0  0  0  0  0  0  0  0  0  0  0  0
    7.5000  -14.3785   26.1229 C   0  0  0  0  0  0  0  0  0  0  0  0
   10.3649  -17.7770   24.9094 C   0  0  0  0  0  0  0  0  0  0  0  0
   10.3282  -18.7042   24.0750 O   0  0  0  0  0  0  0  0  0  0  0  0
   11.2959  -17.8126   25.9815 N   0  0  0  0  0  0  0  0  0  0  0  0
   12.2221  -18.8920   26.1886 C   0  0  1  0  0  0  0  0  0  0  0  0
   13.4444  -18.4586   26.9694 C   0  0  0  0  0  0  0  0  0  0  0  0
   12.9303  -17.4690   28.4194 S   0  0  0  0  0  0  0  0  0  0  0  0
   11.6261  -20.0837   26.8108 C   0  0  0  0  0  0  0  0  0  0  0  0
   12.3780  -21.2346   26.9261 O   0  0  0  0  0  0  0  0  0  0  0  0
   10.4532  -20.0749   27.2367 O   0  0  0  0  0  0  0  0  0  0  0  0
  2  3  1  6
  2  1  1  0
  4  2  1  0
  5  4  1  0
  5  6  1  1
  7  8  2  0
  7  5  1  0
  9  7  1  0
 10  9  1  0
 10 11  1  1
 11 12  1  0
 12 13  2  0
 12 20  1  0
 13 14  1  0
 14 15  1  0
 15 16  2  0
 17 16  1  0
 18 17  2  0
 19 20  2  0
 19 18  1  0
 20 15  1  0
 21 22  2  0
 21 10  1  0
 23 21  1  0
 24 25  1  1
 24 23  1  0
 26 25  1  0
 27 24  1  0
 28 27  1  0
 29 27  2  0
M  END
$$$$
