LWC.pdb
     RDKit          3D

 29 30  0  0  1  0  0  0  0  0999 V2000
    7.4359  -14.7839   18.8574 C   0  0  0  0  0  0  0  0  0  0  0  0
    7.5825  -13.9546   20.0985 C   0  0  2  0  0  0  0  0  0  0  0  0
    7.2894  -12.5224   19.7214 C   0  0  0  0  0  0  0  0  0  0  0  0
    8.9035  -14.1101   20.7867 C   0  0  0  0  0  0  0  0  0  0  0  0
    9.0727  -15.5112   21.3266 C   0  0  2  0  0  0  0  0  0  0  0  0
    7.7760  -16.1146   21.4361 N   0  0  0  0  0  0  0  0  0  0  0  0
    9.7027  -15.5098   22.6624 C   0  0  0  0  0  0  0  0  0  0  0  0
   10.7602  -14.8449   22.8908 O   0  0  0  0  0  0  0  0  0  0  0  0
    9.1880  -16.2381   23.7812 N   0  0  0  0  0  0  0  0  0  0  0  0
    9.8274  -16.2724   25.0594 C   0  0  1  0  0  0  0  0  0  0  0  0
    8.8811  -16.1551   26.2161 C   0  0  0  0  0  0  0  0  0  0  0  0
    7.7753  -15.1972   25.9821 C   0  0  0  0  0  0  0  0  0  0  0  0
    6.5544  -15.4964   25.3647 C   0  0  0  0  0  0  0  0  0  0  0  0
    5.7941  -14.3984   25.3485 N   0  0  0  0  0  0  0  0  0  0  0  0
    6.4416  -13.3512   25.9304 C   0  0  0  0  0  0  0  0  0  0  0  0
    6.0760  -12.0374   26.1414 C   0  0  0  0  0  0  0  0  0  0  0  0
    6.9432  -11.1727   26.7587 C   0  0  0  0  0  0  0  0  0  0  0  0
    8.1656  -11.6746   27.1454 C   0  0  0  0  0  0  0  0  0  0  0  0
    8.5321  -12.9877   26.9351 C   0  0  0  0  0  0  0  0  0  0  0  0
    7.6720  -13.8670   26.3177 C   0  0  0  0  0  0  0  0  0  0  0  0
   10.6321  -17.5092   25.2575 C   0  0  0  0  0  0  0  0  0  0  0  0
   10.0849  -18.5286   25.7251 O   0  0  0  0  0  0  0  0  0  0  0  0
   12.0109  -17.5271   24.9164 N   0  0  0  0  0  0  0  0  0  0  0  0
   12.7356  -18.7318   24.6171 C   0  0  1  0  0  0  0  0  0  0  0  0
   12.1490  -19.4771   23.4373 C   0  0  0  0  0  0  0  0  0  0  0  0
   10.7888  -20.5596   24.0068 S   0  0  0  0  0  0  0  0  0  0  0  0
   14.1783  -18.5304   24.4162 C   0  0  0  0  0  0  0  0  0  0  0  0
   14.6856  -17.2477   24.3922 O   0  0  0  0  0  0  0  0  0  0  0  0
   14.9534  -19.4968   24.2668 O   0  0  0  0  0  0  0  0  0  0  0  0
  2  3  1  6
  2  1  1  0
  4  2  1  0
  5  4  1  0
  5  6  1  1
  7  8  2  0
  7  5  1  0
  9  7  1  0
 10  9  1  0
 10 11  1  1
 11 12  1  0
 12 13  2  0
 12 20  1  0
 13 14  1  0
 14 15  1  0
 15 16  2  0
 17 16  1  0
 18 17  2  0
 19 20  2  0
 19 18  1  0
 20 15  1  0
 21 22  2  0
 21 10  1  0
 23 21  1  0
 24 25  1  6
 24 23  1  0
 26 25  1  0
 27 24  1  0
 28 27  1  0
 29 27  2  0
M  END
$$$$
