LWC.pdb
     RDKit          3D

 29 30  0  0  1  0  0  0  0  0999 V2000
    8.3712  -14.4096   18.1911 C   0  0  0  0  0  0  0  0  0  0  0  0
    7.6457  -13.8957   19.3989 C   0  0  2  0  0  0  0  0  0  0  0  0
    7.0940  -12.5347   19.0488 C   0  0  0  0  0  0  0  0  0  0  0  0
    8.4713  -13.8786   20.6483 C   0  0  0  0  0  0  0  0  0  0  0  0
    8.9519  -15.2671   21.0006 C   0  0  2  0  0  0  0  0  0  0  0  0
    7.8155  -16.1411   21.0508 N   0  0  0  0  0  0  0  0  0  0  0  0
    9.6230  -15.2959   22.3159 C   0  0  0  0  0  0  0  0  0  0  0  0
   10.6136  -14.5417   22.5660 O   0  0  0  0  0  0  0  0  0  0  0  0
    9.2241  -16.1531   23.3897 N   0  0  0  0  0  0  0  0  0  0  0  0
    9.8679  -16.1672   24.6661 C   0  0  1  0  0  0  0  0  0  0  0  0
    8.9306  -16.3745   25.8175 C   0  0  0  0  0  0  0  0  0  0  0  0
    7.7568  -15.4707   25.7962 C   0  0  0  0  0  0  0  0  0  0  0  0
    6.4448  -15.8457   25.4812 C   0  0  0  0  0  0  0  0  0  0  0  0
    5.6492  -14.7782   25.5886 N   0  0  0  0  0  0  0  0  0  0  0  0
    6.3598  -13.6793   25.9652 C   0  0  0  0  0  0  0  0  0  0  0  0
    5.9890  -12.3703   26.1961 C   0  0  0  0  0  0  0  0  0  0  0  0
    6.9300  -11.4438   26.5659 C   0  0  0  0  0  0  0  0  0  0  0  0
    8.2299  -11.8802   26.6902 C   0  0  0  0  0  0  0  0  0  0  0  0
    8.6018  -13.1884   26.4598 C   0  0  0  0  0  0  0  0  0  0  0  0
    7.6683  -14.1294   26.0890 C   0  0  0  0  0  0  0  0  0  0  0  0
   10.9290  -17.2078   24.7542 C   0  0  0  0  0  0  0  0  0  0  0  0
   10.6834  -18.3685   24.3671 O   0  0  0  0  0  0  0  0  0  0  0  0
   12.2096  -16.8804   25.2743 N   0  0  0  0  0  0  0  0  0  0  0  0
   13.2872  -17.8262   25.3751 C   0  0  1  0  0  0  0  0  0  0  0  0
   14.6253  -17.2124   25.0227 C   0  0  0  0  0  0  0  0  0  0  0  0
   14.3887  -15.4737   24.5060 S   0  0  0  0  0  0  0  0  0  0  0  0
   13.3730  -18.5020   26.6784 C   0  0  0  0  0  0  0  0  0  0  0  0
   14.3348  -19.4710   26.8761 O   0  0  0  0  0  0  0  0  0  0  0  0
   12.5929  -18.2165   27.6095 O   0  0  0  0  0  0  0  0  0  0  0  0
  2  3  1  6
  2  1  1  0
  4  2  1  0
  5  4  1  0
  5  6  1  1
  7  8  2  0
  7  5  1  0
  9  7  1  0
 10  9  1  0
 10 11  1  1
 11 12  1  0
 12 13  2  0
 12 20  1  0
 13 14  1  0
 14 15  1  0
 15 16  2  0
 17 16  1  0
 18 17  2  0
 19 20  2  0
 19 18  1  0
 20 15  1  0
 21 22  2  0
 21 10  1  0
 23 21  1  0
 24 25  1  1
 24 23  1  0
 26 25  1  0
 27 24  1  0
 28 27  1  0
 29 27  2  0
M  END
$$$$
