LWC.pdb
     RDKit          3D

 29 30  0  0  1  0  0  0  0  0999 V2000
    8.3138  -14.0813   18.3431 C   0  0  0  0  0  0  0  0  0  0  0  0
    7.5360  -13.6437   19.5485 C   0  0  2  0  0  0  0  0  0  0  0  0
    6.9737  -12.2747   19.2502 C   0  0  0  0  0  0  0  0  0  0  0  0
    8.3153  -13.6802   20.8269 C   0  0  0  0  0  0  0  0  0  0  0  0
    8.9270  -15.0436   21.0512 C   0  0  2  0  0  0  0  0  0  0  0  0
    7.8765  -16.0202   21.0336 N   0  0  0  0  0  0  0  0  0  0  0  0
    9.6196  -15.1244   22.3531 C   0  0  0  0  0  0  0  0  0  0  0  0
   10.5499  -14.3144   22.6552 O   0  0  0  0  0  0  0  0  0  0  0  0
    9.3089  -16.0961   23.3562 N   0  0  0  0  0  0  0  0  0  0  0  0
    9.9761  -16.1649   24.6187 C   0  0  1  0  0  0  0  0  0  0  0  0
    9.0627  -16.4406   25.7749 C   0  0  0  0  0  0  0  0  0  0  0  0
    7.9092  -15.5139   25.8528 C   0  0  0  0  0  0  0  0  0  0  0  0
    6.5778  -15.8440   25.5705 C   0  0  0  0  0  0  0  0  0  0  0  0
    5.8109  -14.7690   25.7708 N   0  0  0  0  0  0  0  0  0  0  0  0
    6.5599  -13.7080   26.1802 C   0  0  0  0  0  0  0  0  0  0  0  0
    6.2276  -12.4075   26.5003 C   0  0  0  0  0  0  0  0  0  0  0  0
    7.2027  -11.5227   26.8838 C   0  0  0  0  0  0  0  0  0  0  0  0
    8.4964  -11.9913   26.9302 C   0  0  0  0  0  0  0  0  0  0  0  0
    8.8299  -13.2911   26.6106 C   0  0  0  0  0  0  0  0  0  0  0  0
    7.8620  -14.1903   26.2250 C   0  0  0  0  0  0  0  0  0  0  0  0
   11.0510  -17.1948   24.6364 C   0  0  0  0  0  0  0  0  0  0  0  0
   10.7495  -18.3983   24.5019 O   0  0  0  0  0  0  0  0  0  0  0  0
   12.4076  -16.8092   24.8047 N   0  0  0  0  0  0  0  0  0  0  0  0
   13.5017  -17.7413   24.7926 C   0  0  1  0  0  0  0  0  0  0  0  0
   14.8206  -17.0751   24.4633 C   0  0  0  0  0  0  0  0  0  0  0  0
   14.6746  -15.2676   24.7034 S   0  0  0  0  0  0  0  0  0  0  0  0
   13.6325  -18.5299   26.0269 C   0  0  0  0  0  0  0  0  0  0  0  0
   14.5879  -19.5225   26.0977 O   0  0  0  0  0  0  0  0  0  0  0  0
   12.8963  -18.3191   27.0121 O   0  0  0  0  0  0  0  0  0  0  0  0
  2  3  1  6
  2  1  1  0
  4  2  1  0
  5  4  1  0
  5  6  1  1
  7  8  2  0
  7  5  1  0
  9  7  1  0
 10  9  1  0
 10 11  1  1
 11 12  1  0
 12 13  2  0
 12 20  1  0
 13 14  1  0
 14 15  1  0
 15 16  2  0
 17 16  1  0
 18 17  2  0
 19 20  2  0
 19 18  1  0
 20 15  1  0
 21 22  2  0
 21 10  1  0
 23 21  1  0
 24 25  1  1
 24 23  1  0
 26 25  1  0
 27 24  1  0
 28 27  1  0
 29 27  2  0
M  END
$$$$
