LWC.pdb
     RDKit          3D

 29 30  0  0  1  0  0  0  0  0999 V2000
    8.1950  -14.2111   18.1184 C   0  0  0  0  0  0  0  0  0  0  0  0
    7.5870  -13.6802   19.3825 C   0  0  2  0  0  0  0  0  0  0  0  0
    7.1411  -12.2641   19.1086 C   0  0  0  0  0  0  0  0  0  0  0  0
    8.4792  -13.7815   20.5810 C   0  0  0  0  0  0  0  0  0  0  0  0
    8.8274  -15.2214   20.8785 C   0  0  2  0  0  0  0  0  0  0  0  0
    7.6092  -15.9735   20.9674 N   0  0  0  0  0  0  0  0  0  0  0  0
    9.5544  -15.3550   22.1571 C   0  0  0  0  0  0  0  0  0  0  0  0
   10.6261  -14.7096   22.3755 O   0  0  0  0  0  0  0  0  0  0  0  0
    9.1237  -16.2002   23.2282 N   0  0  0  0  0  0  0  0  0  0  0  0
    9.7546  -16.2285   24.5107 C   0  0  1  0  0  0  0  0  0  0  0  0
    8.8057  -16.4465   25.6505 C   0  0  0  0  0  0  0  0  0  0  0  0
    7.6676  -15.4979   25.6638 C   0  0  0  0  0  0  0  0  0  0  0  0
    6.3330  -15.8219   25.3899 C   0  0  0  0  0  0  0  0  0  0  0  0
    5.5830  -14.7243   25.5199 N   0  0  0  0  0  0  0  0  0  0  0  0
    6.3469  -13.6537   25.8727 C   0  0  0  0  0  0  0  0  0  0  0  0
    6.0344  -12.3312   26.1129 C   0  0  0  0  0  0  0  0  0  0  0  0
    7.0215  -11.4416   26.4521 C   0  0  0  0  0  0  0  0  0  0  0  0
    8.3066  -11.9281   26.5372 C   0  0  0  0  0  0  0  0  0  0  0  0
    8.6204  -13.2499   26.2975 C   0  0  0  0  0  0  0  0  0  0  0  0
    7.6401  -14.1540   25.9571 C   0  0  0  0  0  0  0  0  0  0  0  0
   10.8136  -17.2712   24.5986 C   0  0  0  0  0  0  0  0  0  0  0  0
   10.6963  -18.3219   23.9356 O   0  0  0  0  0  0  0  0  0  0  0  0
   11.9474  -17.0702   25.4303 N   0  0  0  0  0  0  0  0  0  0  0  0
   13.0777  -17.9577   25.4541 C   0  0  1  0  0  0  0  0  0  0  0  0
   14.1354  -17.5684   24.4435 C   0  0  0  0  0  0  0  0  0  0  0  0
   14.6594  -15.8402   24.7350 S   0  0  0  0  0  0  0  0  0  0  0  0
   13.6878  -18.1176   26.7825 C   0  0  0  0  0  0  0  0  0  0  0  0
   14.7379  -18.9978   26.9433 O   0  0  0  0  0  0  0  0  0  0  0  0
   13.2747  -17.4728   27.7677 O   0  0  0  0  0  0  0  0  0  0  0  0
  2  3  1  6
  2  1  1  0
  4  2  1  0
  5  4  1  0
  5  6  1  1
  7  8  2  0
  7  5  1  0
  9  7  1  0
 10  9  1  0
 10 11  1  1
 11 12  1  0
 12 13  2  0
 12 20  1  0
 13 14  1  0
 14 15  1  0
 15 16  2  0
 17 16  1  0
 18 17  2  0
 19 20  2  0
 19 18  1  0
 20 15  1  0
 21 22  2  0
 21 10  1  0
 23 21  1  0
 24 25  1  6
 24 23  1  0
 26 25  1  0
 27 24  1  0
 28 27  1  0
 29 27  2  0
M  END
$$$$
