LWC.pdb
     RDKit          3D

 29 30  0  0  1  0  0  0  0  0999 V2000
    8.0265  -14.2911   18.0704 C   0  0  0  0  0  0  0  0  0  0  0  0
    7.4591  -13.7197   19.3357 C   0  0  2  0  0  0  0  0  0  0  0  0
    6.9445  -12.3370   19.0154 C   0  0  0  0  0  0  0  0  0  0  0  0
    8.4111  -13.7262   20.4918 C   0  0  0  0  0  0  0  0  0  0  0  0
    8.8383  -15.1343   20.8353 C   0  0  2  0  0  0  0  0  0  0  0  0
    7.6638  -15.9504   20.9454 N   0  0  0  0  0  0  0  0  0  0  0  0
    9.5668  -15.1867   22.1190 C   0  0  0  0  0  0  0  0  0  0  0  0
   10.5967  -14.4719   22.3210 O   0  0  0  0  0  0  0  0  0  0  0  0
    9.1833  -16.0250   23.2132 N   0  0  0  0  0  0  0  0  0  0  0  0
    9.8830  -16.0615   24.4593 C   0  0  1  0  0  0  0  0  0  0  0  0
    9.0027  -16.3257   25.6435 C   0  0  0  0  0  0  0  0  0  0  0  0
    7.8434  -15.4078   25.7366 C   0  0  0  0  0  0  0  0  0  0  0  0
    6.5084  -15.7533   25.4922 C   0  0  0  0  0  0  0  0  0  0  0  0
    5.7372  -14.6819   25.6958 N   0  0  0  0  0  0  0  0  0  0  0  0
    6.4868  -13.6087   26.0710 C   0  0  0  0  0  0  0  0  0  0  0  0
    6.1510  -12.3064   26.3802 C   0  0  0  0  0  0  0  0  0  0  0  0
    7.1275  -11.4078   26.7264 C   0  0  0  0  0  0  0  0  0  0  0  0
    8.4261  -11.8648   26.7475 C   0  0  0  0  0  0  0  0  0  0  0  0
    8.7630  -13.1664   26.4387 C   0  0  0  0  0  0  0  0  0  0  0  0
    7.7937  -14.0793   26.0904 C   0  0  0  0  0  0  0  0  0  0  0  0
   10.9706  -17.0782   24.4690 C   0  0  0  0  0  0  0  0  0  0  0  0
   10.7330  -18.2344   24.0640 O   0  0  0  0  0  0  0  0  0  0  0  0
   12.2672  -16.7334   24.9354 N   0  0  0  0  0  0  0  0  0  0  0  0
   13.3713  -17.6534   24.9535 C   0  0  1  0  0  0  0  0  0  0  0  0
   14.7078  -16.9491   24.8556 C   0  0  0  0  0  0  0  0  0  0  0  0
   14.7446  -15.5337   26.0138 S   0  0  0  0  0  0  0  0  0  0  0  0
   13.3704  -18.5700   26.1035 C   0  0  0  0  0  0  0  0  0  0  0  0
   14.3239  -19.5643   26.1770 O   0  0  0  0  0  0  0  0  0  0  0  0
   12.5241  -18.4664   27.0146 O   0  0  0  0  0  0  0  0  0  0  0  0
  2  3  1  6
  2  1  1  0
  4  2  1  0
  5  4  1  0
  5  6  1  1
  7  8  2  0
  7  5  1  0
  9  7  1  0
 10  9  1  0
 10 11  1  1
 11 12  1  0
 12 13  2  0
 12 20  1  0
 13 14  1  0
 14 15  1  0
 15 16  2  0
 17 16  1  0
 18 17  2  0
 19 20  2  0
 19 18  1  0
 20 15  1  0
 21 22  2  0
 21 10  1  0
 23 21  1  0
 24 25  1  1
 24 23  1  0
 26 25  1  0
 27 24  1  0
 28 27  1  0
 29 27  2  0
M  END
$$$$
