LWC.pdb
     RDKit          3D

 29 30  0  0  1  0  0  0  0  0999 V2000
    7.8825  -12.3623   19.0505 C   0  0  0  0  0  0  0  0  0  0  0  0
    7.9299  -13.7200   19.6859 C   0  0  2  0  0  0  0  0  0  0  0  0
    6.6153  -13.9313   20.3976 C   0  0  0  0  0  0  0  0  0  0  0  0
    9.1108  -13.9366   20.5812 C   0  0  0  0  0  0  0  0  0  0  0  0
    9.1979  -15.3782   21.0256 C   0  0  2  0  0  0  0  0  0  0  0  0
    7.8901  -15.9605   20.9350 N   0  0  0  0  0  0  0  0  0  0  0  0
    9.6654  -15.4923   22.4220 C   0  0  0  0  0  0  0  0  0  0  0  0
   10.7264  -14.9125   22.8103 O   0  0  0  0  0  0  0  0  0  0  0  0
    8.9805  -16.2457   23.4271 N   0  0  0  0  0  0  0  0  0  0  0  0
    9.4626  -16.3937   24.7648 C   0  0  1  0  0  0  0  0  0  0  0  0
    8.3792  -16.5717   25.7854 C   0  0  0  0  0  0  0  0  0  0  0  0
    7.3897  -15.4689   25.7976 C   0  0  0  0  0  0  0  0  0  0  0  0
    6.0348  -15.5857   25.4629 C   0  0  0  0  0  0  0  0  0  0  0  0
    5.4456  -14.3963   25.6116 N   0  0  0  0  0  0  0  0  0  0  0  0
    6.3401  -13.4613   26.0358 C   0  0  0  0  0  0  0  0  0  0  0  0
    6.2112  -12.1169   26.3194 C   0  0  0  0  0  0  0  0  0  0  0  0
    7.3010  -11.3929   26.7304 C   0  0  0  0  0  0  0  0  0  0  0  0
    8.4983  -12.0636   26.8410 C   0  0  0  0  0  0  0  0  0  0  0  0
    8.6285  -13.4074   26.5579 C   0  0  0  0  0  0  0  0  0  0  0  0
    7.5435  -14.1468   26.1453 C   0  0  0  0  0  0  0  0  0  0  0  0
   10.4064  -17.5367   24.9038 C   0  0  0  0  0  0  0  0  0  0  0  0
   10.8021  -18.1332   23.8816 O   0  0  0  0  0  0  0  0  0  0  0  0
   10.8521  -17.9432   26.1897 N   0  0  0  0  0  0  0  0  0  0  0  0
   12.1067  -18.6063   26.4185 C   0  0  1  0  0  0  0  0  0  0  0  0
   13.2823  -17.8071   25.8982 C   0  0  0  0  0  0  0  0  0  0  0  0
   13.9510  -18.6035   24.3932 S   0  0  0  0  0  0  0  0  0  0  0  0
   12.3388  -18.9852   27.8203 C   0  0  0  0  0  0  0  0  0  0  0  0
   13.1701  -20.0487   28.1050 O   0  0  0  0  0  0  0  0  0  0  0  0
   11.7987  -18.3638   28.7580 O   0  0  0  0  0  0  0  0  0  0  0  0
  2  3  1  1
  2  1  1  0
  4  2  1  0
  5  4  1  0
  5  6  1  1
  7  8  2  0
  7  5  1  0
  9  7  1  0
 10  9  1  0
 10 11  1  1
 11 12  1  0
 12 13  2  0
 12 20  1  0
 13 14  1  0
 14 15  1  0
 15 16  2  0
 17 16  1  0
 18 17  2  0
 19 20  2  0
 19 18  1  0
 20 15  1  0
 21 22  2  0
 21 10  1  0
 23 21  1  0
 24 25  1  1
 24 23  1  0
 26 25  1  0
 27 24  1  0
 28 27  1  0
 29 27  2  0
M  END
$$$$
