LWC.pdb
     RDKit          3D

 29 30  0  0  1  0  0  0  0  0999 V2000
    7.4624  -14.9691   19.2915 C   0  0  0  0  0  0  0  0  0  0  0  0
    7.8905  -14.1460   20.4700 C   0  0  2  0  0  0  0  0  0  0  0  0
    7.5699  -12.7048   20.1542 C   0  0  0  0  0  0  0  0  0  0  0  0
    9.3205  -14.3439   20.8685 C   0  0  0  0  0  0  0  0  0  0  0  0
    9.5224  -15.6958   21.5125 C   0  0  2  0  0  0  0  0  0  0  0  0
    8.2901  -16.4254   21.4312 N   0  0  0  0  0  0  0  0  0  0  0  0
    9.9006  -15.5727   22.9349 C   0  0  0  0  0  0  0  0  0  0  0  0
   10.8145  -14.7730   23.3061 O   0  0  0  0  0  0  0  0  0  0  0  0
    9.2854  -16.3241   23.9855 N   0  0  0  0  0  0  0  0  0  0  0  0
    9.6847  -16.2340   25.3553 C   0  0  1  0  0  0  0  0  0  0  0  0
    8.5459  -16.3122   26.3270 C   0  0  0  0  0  0  0  0  0  0  0  0
    7.5028  -15.2844   26.1014 C   0  0  0  0  0  0  0  0  0  0  0  0
    6.2713  -15.4978   25.4696 C   0  0  0  0  0  0  0  0  0  0  0  0
    5.5797  -14.3551   25.4667 N   0  0  0  0  0  0  0  0  0  0  0  0
    6.2850  -13.3595   26.0716 C   0  0  0  0  0  0  0  0  0  0  0  0
    5.9987  -12.0295   26.3028 C   0  0  0  0  0  0  0  0  0  0  0  0
    6.9118  -11.2302   26.9416 C   0  0  0  0  0  0  0  0  0  0  0  0
    8.0978  -11.8126   27.3287 C   0  0  0  0  0  0  0  0  0  0  0  0
    8.3851  -13.1419   27.0984 C   0  0  0  0  0  0  0  0  0  0  0  0
    7.4781  -13.9563   26.4593 C   0  0  0  0  0  0  0  0  0  0  0  0
   10.6703  -17.2855   25.7287 C   0  0  0  0  0  0  0  0  0  0  0  0
   10.9395  -17.4740   26.9325 O   0  0  0  0  0  0  0  0  0  0  0  0
   11.2977  -18.0668   24.7220 N   0  0  0  0  0  0  0  0  0  0  0  0
   12.2120  -19.1383   25.0081 C   0  0  1  0  0  0  0  0  0  0  0  0
   11.5182  -20.4818   25.0801 C   0  0  0  0  0  0  0  0  0  0  0  0
   12.6657  -21.7320   25.7631 S   0  0  0  0  0  0  0  0  0  0  0  0
   13.3562  -19.2134   24.0874 C   0  0  0  0  0  0  0  0  0  0  0  0
   14.4610  -19.9603   24.4405 O   0  0  0  0  0  0  0  0  0  0  0  0
   13.3479  -18.6149   22.9925 O   0  0  0  0  0  0  0  0  0  0  0  0
  2  3  1  6
  2  1  1  0
  4  2  1  0
  5  4  1  0
  5  6  1  1
  7  8  2  0
  7  5  1  0
  9  7  1  0
 10  9  1  0
 10 11  1  1
 11 12  1  0
 12 13  2  0
 12 20  1  0
 13 14  1  0
 14 15  1  0
 15 16  2  0
 17 16  1  0
 18 17  2  0
 19 20  2  0
 19 18  1  0
 20 15  1  0
 21 22  2  0
 21 10  1  0
 23 21  1  0
 24 25  1  6
 24 23  1  0
 26 25  1  0
 27 24  1  0
 28 27  1  0
 29 27  2  0
M  END
$$$$
