LWC.pdb
     RDKit          3D

 29 30  0  0  1  0  0  0  0  0999 V2000
    7.9717  -14.1861   18.3329 C   0  0  0  0  0  0  0  0  0  0  0  0
    7.7531  -13.5520   19.6744 C   0  0  2  0  0  0  0  0  0  0  0  0
    7.5280  -12.0768   19.4449 C   0  0  0  0  0  0  0  0  0  0  0  0
    8.8443  -13.8209   20.6643 C   0  0  0  0  0  0  0  0  0  0  0  0
    8.9666  -15.2998   20.9490 C   0  0  2  0  0  0  0  0  0  0  0  0
    7.6561  -15.8809   20.8997 N   0  0  0  0  0  0  0  0  0  0  0  0
    9.5410  -15.5533   22.2859 C   0  0  0  0  0  0  0  0  0  0  0  0
   10.6348  -15.0170   22.6448 O   0  0  0  0  0  0  0  0  0  0  0  0
    8.9297  -16.4017   23.2624 N   0  0  0  0  0  0  0  0  0  0  0  0
    9.5001  -16.6607   24.5474 C   0  0  1  0  0  0  0  0  0  0  0  0
    8.4871  -16.8331   25.6388 C   0  0  0  0  0  0  0  0  0  0  0  0
    7.5020  -15.7288   25.7128 C   0  0  0  0  0  0  0  0  0  0  0  0
    6.1491  -15.8184   25.3623 C   0  0  0  0  0  0  0  0  0  0  0  0
    5.5637  -14.6378   25.5807 N   0  0  0  0  0  0  0  0  0  0  0  0
    6.4591  -13.7350   26.0682 C   0  0  0  0  0  0  0  0  0  0  0  0
    6.3337  -12.4104   26.4340 C   0  0  0  0  0  0  0  0  0  0  0  0
    7.4235  -11.7182   26.8965 C   0  0  0  0  0  0  0  0  0  0  0  0
    8.6173  -12.3999   26.9733 C   0  0  0  0  0  0  0  0  0  0  0  0
    8.7439  -13.7240   26.6081 C   0  0  0  0  0  0  0  0  0  0  0  0
    7.6588  -14.4315   26.1430 C   0  0  0  0  0  0  0  0  0  0  0  0
   10.3737  -17.8662   24.5472 C   0  0  0  0  0  0  0  0  0  0  0  0
   10.1659  -18.7740   23.7165 O   0  0  0  0  0  0  0  0  0  0  0  0
   11.4344  -17.9804   25.4850 N   0  0  0  0  0  0  0  0  0  0  0  0
   12.6396  -18.7206   25.2291 C   0  0  1  0  0  0  0  0  0  0  0  0
   13.3260  -18.2781   23.9545 C   0  0  0  0  0  0  0  0  0  0  0  0
   14.8674  -19.2351   23.7207 S   0  0  0  0  0  0  0  0  0  0  0  0
   13.5981  -18.7115   26.3442 C   0  0  0  0  0  0  0  0  0  0  0  0
   14.6896  -19.5543   26.3053 O   0  0  0  0  0  0  0  0  0  0  0  0
   13.4441  -17.9563   27.3256 O   0  0  0  0  0  0  0  0  0  0  0  0
  2  3  1  6
  2  1  1  0
  4  2  1  0
  5  4  1  0
  5  6  1  1
  7  8  2  0
  7  5  1  0
  9  7  1  0
 10  9  1  0
 10 11  1  1
 11 12  1  0
 12 13  2  0
 12 20  1  0
 13 14  1  0
 14 15  1  0
 15 16  2  0
 17 16  1  0
 18 17  2  0
 19 20  2  0
 19 18  1  0
 20 15  1  0
 21 22  2  0
 21 10  1  0
 23 21  1  0
 24 25  1  6
 24 23  1  0
 26 25  1  0
 27 24  1  0
 28 27  1  0
 29 27  2  0
M  END
$$$$
