LWC.pdb
     RDKit          3D

 29 30  0  0  1  0  0  0  0  0999 V2000
    8.4811  -14.4525   18.0606 C   0  0  0  0  0  0  0  0  0  0  0  0
    7.7100  -13.9537   19.2463 C   0  0  2  0  0  0  0  0  0  0  0  0
    7.1390  -12.6053   18.8786 C   0  0  0  0  0  0  0  0  0  0  0  0
    8.4986  -13.9176   20.5189 C   0  0  0  0  0  0  0  0  0  0  0  0
    9.0305  -15.2884   20.8671 C   0  0  2  0  0  0  0  0  0  0  0  0
    7.9338  -16.2129   20.8703 N   0  0  0  0  0  0  0  0  0  0  0  0
    9.6620  -15.3067   22.2021 C   0  0  0  0  0  0  0  0  0  0  0  0
   10.6242  -14.5281   22.4858 O   0  0  0  0  0  0  0  0  0  0  0  0
    9.2535  -16.1800   23.2592 N   0  0  0  0  0  0  0  0  0  0  0  0
    9.8464  -16.1718   24.5601 C   0  0  1  0  0  0  0  0  0  0  0  0
    8.8770  -16.4391   25.6718 C   0  0  0  0  0  0  0  0  0  0  0  0
    7.7261  -15.5062   25.6915 C   0  0  0  0  0  0  0  0  0  0  0  0
    6.3983  -15.8434   25.4007 C   0  0  0  0  0  0  0  0  0  0  0  0
    5.6324  -14.7584   25.5430 N   0  0  0  0  0  0  0  0  0  0  0  0
    6.3787  -13.6837   25.9204 C   0  0  0  0  0  0  0  0  0  0  0  0
    6.0463  -12.3699   26.1802 C   0  0  0  0  0  0  0  0  0  0  0  0
    7.0184  -11.4730   26.5429 C   0  0  0  0  0  0  0  0  0  0  0  0
    8.3093  -11.9436   26.6306 C   0  0  0  0  0  0  0  0  0  0  0  0
    8.6429  -13.2567   26.3713 C   0  0  0  0  0  0  0  0  0  0  0  0
    7.6779  -14.1680   26.0072 C   0  0  0  0  0  0  0  0  0  0  0  0
   10.9572  -17.1555   24.6829 C   0  0  0  0  0  0  0  0  0  0  0  0
   10.7592  -18.3466   24.3678 O   0  0  0  0  0  0  0  0  0  0  0  0
   12.2309  -16.7400   25.1545 N   0  0  0  0  0  0  0  0  0  0  0  0
   13.3675  -17.6159   25.2372 C   0  0  1  0  0  0  0  0  0  0  0  0
   14.6789  -16.8602   25.2057 C   0  0  0  0  0  0  0  0  0  0  0  0
   14.6833  -15.6926   23.7976 S   0  0  0  0  0  0  0  0  0  0  0  0
   13.3411  -18.5266   26.3916 C   0  0  0  0  0  0  0  0  0  0  0  0
   14.3193  -19.4915   26.5148 O   0  0  0  0  0  0  0  0  0  0  0  0
   12.4511  -18.4442   27.2624 O   0  0  0  0  0  0  0  0  0  0  0  0
  2  3  1  6
  2  1  1  0
  4  2  1  0
  5  4  1  0
  5  6  1  1
  7  8  2  0
  7  5  1  0
  9  7  1  0
 10  9  1  0
 10 11  1  1
 11 12  1  0
 12 13  2  0
 12 20  1  0
 13 14  1  0
 14 15  1  0
 15 16  2  0
 17 16  1  0
 18 17  2  0
 19 20  2  0
 19 18  1  0
 20 15  1  0
 21 22  2  0
 21 10  1  0
 23 21  1  0
 24 25  1  1
 24 23  1  0
 26 25  1  0
 27 24  1  0
 28 27  1  0
 29 27  2  0
M  END
$$$$
