EQE.pdb
     RDKit          3D

 28 27  0  0  1  0  0  0  0  0999 V2000
   10.0619  -16.1072   19.5361 N   0  0  0  0  0  0  0  0  0  0  0  0
    8.9097  -16.3697   20.3968 C   0  0  1  0  0  0  0  0  0  0  0  0
    8.6453  -17.8365   20.3106 C   0  0  0  0  0  0  0  0  0  0  0  0
    9.6406  -18.6052   19.4764 C   0  0  0  0  0  0  0  0  0  0  0  0
    9.1744  -20.0039   19.4400 C   0  0  0  0  0  0  0  0  0  0  0  0
    9.9020  -20.9094   19.9057 O   0  0  0  0  0  0  0  0  0  0  0  0
    9.2149  -15.8759   21.7479 C   0  0  0  0  0  0  0  0  0  0  0  0
   10.3741  -16.0993   22.2495 O   0  0  0  0  0  0  0  0  0  0  0  0
    7.9455  -20.3139   18.9020 O   0  0  0  0  0  0  0  0  0  0  0  0
    5.7263  -12.2838   25.8817 N   0  0  0  0  0  0  0  0  0  0  0  0
    6.9641  -12.6189   26.4926 C   0  0  0  0  0  0  0  0  0  0  0  0
    7.2130  -12.0860   27.6211 O   0  0  0  0  0  0  0  0  0  0  0  0
    7.9147  -13.5334   25.8600 C   0  0  0  0  0  0  0  0  0  0  0  0
    7.5543  -13.9772   24.4717 C   0  0  0  0  0  0  0  0  0  0  0  0
    8.6898  -14.7994   23.8964 C   0  0  2  0  0  0  0  0  0  0  0  0
    8.2859  -15.1535   22.5450 N   0  0  0  0  0  0  0  0  0  0  0  0
    8.8998  -16.0469   24.6708 C   0  0  0  0  0  0  0  0  0  0  0  0
    8.0895  -17.0033   24.5581 O   0  0  0  0  0  0  0  0  0  0  0  0
    9.9870  -16.1736   25.5242 N   0  0  0  0  0  0  0  0  0  0  0  0
   10.2895  -17.3763   26.3413 C   0  0  1  0  0  0  0  0  0  0  0  0
   11.4858  -17.9564   25.6788 C   0  0  0  0  0  0  0  0  0  0  0  0
   12.6665  -18.3120   26.4741 C   0  0  0  0  0  0  0  0  0  0  0  0
   13.5738  -19.2299   25.7659 C   0  0  0  0  0  0  0  0  0  0  0  0
   13.5855  -19.2182   24.5054 O   0  0  0  0  0  0  0  0  0  0  0  0
   10.3538  -16.9742   27.7314 C   0  0  0  0  0  0  0  0  0  0  0  0
   10.1278  -15.7448   28.0274 O   0  0  0  0  0  0  0  0  0  0  0  0
   14.4273  -20.1182   26.3829 O   0  0  0  0  0  0  0  0  0  0  0  0
   10.6391  -17.7906   28.8220 O   0  0  0  0  0  0  0  0  0  0  0  0
  2  1  1  6
  2  3  1  0
  2  7  1  0
  4  3  1  0
  4  5  1  0
  5  6  2  0
  7  8  2  0
  9  5  1  0
 10 11  1  0
 11 12  2  0
 13 11  1  0
 13 14  1  0
 15 14  1  1
 16  7  1  0
 16 15  1  0
 17 15  1  0
 17 18  2  0
 19 17  1  0
 20 25  1  0
 20 19  1  0
 20 21  1  6
 22 21  1  0
 23 27  1  0
 23 22  1  0
 24 23  2  0
 25 28  1  0
 26 25  2  0
M  END
$$$$
