EQE.pdb
     RDKit          3D

 28 27  0  0  1  0  0  0  0  0999 V2000
    9.7329  -12.9214   17.7833 N   0  0  0  0  0  0  0  0  0  0  0  0
    9.2890  -14.3079   17.6494 C   0  0  1  0  0  0  0  0  0  0  0  0
    9.0556  -14.5364   16.1927 C   0  0  0  0  0  0  0  0  0  0  0  0
    8.0138  -13.6356   15.5756 C   0  0  0  0  0  0  0  0  0  0  0  0
    7.6118  -14.2609   14.3018 C   0  0  0  0  0  0  0  0  0  0  0  0
    8.0901  -15.3722   13.9817 O   0  0  0  0  0  0  0  0  0  0  0  0
   10.3029  -15.1828   18.2567 C   0  0  0  0  0  0  0  0  0  0  0  0
   10.1255  -16.4530   18.2398 O   0  0  0  0  0  0  0  0  0  0  0  0
    6.7132  -13.6307   13.4704 O   0  0  0  0  0  0  0  0  0  0  0  0
   16.4149  -14.2914   17.7607 N   0  0  0  0  0  0  0  0  0  0  0  0
   15.1035  -13.9355   17.3470 C   0  0  0  0  0  0  0  0  0  0  0  0
   14.9858  -13.4070   16.1953 O   0  0  0  0  0  0  0  0  0  0  0  0
   13.9367  -14.1622   18.1998 C   0  0  0  0  0  0  0  0  0  0  0  0
   13.6585  -15.5975   18.5416 C   0  0  0  0  0  0  0  0  0  0  0  0
   12.4190  -15.6760   19.4099 C   0  0  2  0  0  0  0  0  0  0  0  0
   11.4882  -14.6964   18.8722 N   0  0  0  0  0  0  0  0  0  0  0  0
   12.7219  -15.3196   20.8173 C   0  0  0  0  0  0  0  0  0  0  0  0
   12.9130  -14.1173   21.1366 O   0  0  0  0  0  0  0  0  0  0  0  0
   12.7975  -16.3028   21.7940 N   0  0  0  0  0  0  0  0  0  0  0  0
   13.1601  -16.0630   23.2142 C   0  0  1  0  0  0  0  0  0  0  0  0
   12.3890  -17.0970   23.9506 C   0  0  0  0  0  0  0  0  0  0  0  0
   12.6508  -17.3339   25.3749 C   0  0  0  0  0  0  0  0  0  0  0  0
   11.8967  -18.4799   25.9089 C   0  0  0  0  0  0  0  0  0  0  0  0
   11.1209  -19.1073   25.1383 O   0  0  0  0  0  0  0  0  0  0  0  0
   14.6050  -16.0287   23.3124 C   0  0  0  0  0  0  0  0  0  0  0  0
   15.1380  -15.5412   24.3747 O   0  0  0  0  0  0  0  0  0  0  0  0
   11.9725  -18.9300   27.2089 O   0  0  0  0  0  0  0  0  0  0  0  0
   15.5152  -16.4787   22.3605 O   0  0  0  0  0  0  0  0  0  0  0  0
  2  1  1  6
  2  3  1  0
  2  7  1  0
  4  3  1  0
  4  5  1  0
  5  6  2  0
  7  8  2  0
  9  5  1  0
 10 11  1  0
 11 12  2  0
 13 11  1  0
 13 14  1  0
 15 14  1  6
 16  7  1  0
 16 15  1  0
 17 15  1  0
 17 18  2  0
 19 17  1  0
 20 25  1  0
 20 19  1  0
 20 21  1  1
 22 21  1  0
 23 27  1  0
 23 22  1  0
 24 23  2  0
 25 28  1  0
 26 25  2  0
M  END
$$$$
