EQE.pdb
     RDKit          3D

 28 27  0  0  1  0  0  0  0  0999 V2000
    9.1119  -17.5420   18.7910 N   0  0  0  0  0  0  0  0  0  0  0  0
    9.2719  -18.5494   19.8382 C   0  0  1  0  0  0  0  0  0  0  0  0
   10.7221  -18.9030   19.8642 C   0  0  0  0  0  0  0  0  0  0  0  0
   11.5563  -18.2063   18.8172 C   0  0  0  0  0  0  0  0  0  0  0  0
   12.9463  -18.6601   19.0100 C   0  0  0  0  0  0  0  0  0  0  0  0
   13.8019  -17.8591   19.4487 O   0  0  0  0  0  0  0  0  0  0  0  0
    8.7479  -18.0001   21.0975 C   0  0  0  0  0  0  0  0  0  0  0  0
    8.8458  -16.7408   21.3205 O   0  0  0  0  0  0  0  0  0  0  0  0
   13.3022  -19.9570   18.7145 O   0  0  0  0  0  0  0  0  0  0  0  0
    4.9856  -21.3843   23.2526 N   0  0  0  0  0  0  0  0  0  0  0  0
    5.9659  -21.2938   24.2765 C   0  0  0  0  0  0  0  0  0  0  0  0
    6.1294  -22.3205   25.0104 O   0  0  0  0  0  0  0  0  0  0  0  0
    6.7554  -20.0799   24.4845 C   0  0  0  0  0  0  0  0  0  0  0  0
    6.3431  -18.8950   23.6597 C   0  0  0  0  0  0  0  0  0  0  0  0
    7.5752  -18.1100   23.2571 C   0  0  2  0  0  0  0  0  0  0  0  0
    8.1287  -18.7952   22.0999 N   0  0  0  0  0  0  0  0  0  0  0  0
    8.5912  -18.1076   24.3376 C   0  0  0  0  0  0  0  0  0  0  0  0
    9.6699  -18.7391   24.1907 O   0  0  0  0  0  0  0  0  0  0  0  0
    8.3657  -17.4122   25.5174 N   0  0  0  0  0  0  0  0  0  0  0  0
    9.4257  -16.9734   26.4605 C   0  0  1  0  0  0  0  0  0  0  0  0
    8.9781  -15.6221   26.8846 C   0  0  0  0  0  0  0  0  0  0  0  0
    9.7281  -14.8872   27.9096 C   0  0  0  0  0  0  0  0  0  0  0  0
    9.1688  -13.5517   28.1755 C   0  0  0  0  0  0  0  0  0  0  0  0
    9.7234  -12.8238   29.0425 O   0  0  0  0  0  0  0  0  0  0  0  0
    9.6143  -18.0176   27.4466 C   0  0  0  0  0  0  0  0  0  0  0  0
    8.6471  -18.8324   27.6726 O   0  0  0  0  0  0  0  0  0  0  0  0
    8.0660  -13.0239   27.5403 O   0  0  0  0  0  0  0  0  0  0  0  0
   10.7591  -18.2521   28.2026 O   0  0  0  0  0  0  0  0  0  0  0  0
  2  1  1  6
  2  3  1  0
  2  7  1  0
  4  3  1  0
  4  5  1  0
  5  6  2  0
  7  8  2  0
  9  5  1  0
 10 11  1  0
 11 12  2  0
 13 11  1  0
 13 14  1  0
 15 14  1  1
 16  7  1  0
 16 15  1  0
 17 15  1  0
 17 18  2  0
 19 17  1  0
 20 25  1  0
 20 19  1  0
 20 21  1  1
 22 21  1  0
 23 27  1  0
 23 22  1  0
 24 23  2  0
 25 28  1  0
 26 25  2  0
M  END
$$$$
