EQE.pdb
     RDKit          3D

 28 27  0  0  1  0  0  0  0  0999 V2000
    7.6235  -14.8142   18.3536 N   0  0  0  0  0  0  0  0  0  0  0  0
    7.7214  -15.9256   19.2984 C   0  0  1  0  0  0  0  0  0  0  0  0
    8.5195  -16.9878   18.6177 C   0  0  0  0  0  0  0  0  0  0  0  0
    7.8366  -18.3313   18.5382 C   0  0  0  0  0  0  0  0  0  0  0  0
    8.8194  -19.2749   17.9736 C   0  0  0  0  0  0  0  0  0  0  0  0
    8.5180  -20.4839   17.8570 O   0  0  0  0  0  0  0  0  0  0  0  0
    8.3046  -15.4226   20.5511 C   0  0  0  0  0  0  0  0  0  0  0  0
    9.5127  -14.9918   20.5510 O   0  0  0  0  0  0  0  0  0  0  0  0
   10.0594  -18.8308   17.5724 O   0  0  0  0  0  0  0  0  0  0  0  0
    5.8321  -13.8116   26.6021 N   0  0  0  0  0  0  0  0  0  0  0  0
    6.9155  -13.0914   26.0318 C   0  0  0  0  0  0  0  0  0  0  0  0
    7.0485  -11.8757   26.3837 O   0  0  0  0  0  0  0  0  0  0  0  0
    7.8401  -13.7112   25.0826 C   0  0  0  0  0  0  0  0  0  0  0  0
    7.2168  -14.2163   23.8134 C   0  0  0  0  0  0  0  0  0  0  0  0
    8.2881  -14.8382   22.9404 C   0  0  2  0  0  0  0  0  0  0  0  0
    7.5972  -15.3849   21.7834 N   0  0  0  0  0  0  0  0  0  0  0  0
    8.9835  -15.9436   23.6435 C   0  0  0  0  0  0  0  0  0  0  0  0
    8.4445  -17.0780   23.7238 O   0  0  0  0  0  0  0  0  0  0  0  0
   10.2306  -15.7411   24.2179 N   0  0  0  0  0  0  0  0  0  0  0  0
   11.1337  -16.8214   24.6902 C   0  0  1  0  0  0  0  0  0  0  0  0
   12.4224  -16.5184   24.0168 C   0  0  0  0  0  0  0  0  0  0  0  0
   13.6162  -17.3155   24.3212 C   0  0  0  0  0  0  0  0  0  0  0  0
   14.7918  -16.9009   23.5379 C   0  0  0  0  0  0  0  0  0  0  0  0
   15.3250  -15.7865   23.7885 O   0  0  0  0  0  0  0  0  0  0  0  0
   11.0646  -16.8688   26.1363 C   0  0  0  0  0  0  0  0  0  0  0  0
   10.5917  -15.8521   26.7633 O   0  0  0  0  0  0  0  0  0  0  0  0
   15.3665  -17.6482   22.5331 O   0  0  0  0  0  0  0  0  0  0  0  0
   11.4615  -17.9222   26.9548 O   0  0  0  0  0  0  0  0  0  0  0  0
  2  1  1  6
  2  3  1  0
  2  7  1  0
  4  3  1  0
  4  5  1  0
  5  6  2  0
  7  8  2  0
  9  5  1  0
 10 11  1  0
 11 12  2  0
 13 11  1  0
 13 14  1  0
 15 14  1  1
 16  7  1  0
 16 15  1  0
 17 15  1  0
 17 18  2  0
 19 17  1  0
 20 25  1  0
 20 19  1  0
 20 21  1  1
 22 21  1  0
 23 27  1  0
 23 22  1  0
 24 23  2  0
 25 28  1  0
 26 25  2  0
M  END
$$$$
