EQE.pdb
     RDKit          3D

 28 27  0  0  1  0  0  0  0  0999 V2000
    7.6292  -13.0225   18.7556 N   0  0  0  0  0  0  0  0  0  0  0  0
    7.1398  -13.8615   19.8482 C   0  0  1  0  0  0  0  0  0  0  0  0
    7.0594  -15.2511   19.3085 C   0  0  0  0  0  0  0  0  0  0  0  0
    8.3926  -15.8673   18.9617 C   0  0  0  0  0  0  0  0  0  0  0  0
    8.1230  -17.2548   18.5405 C   0  0  0  0  0  0  0  0  0  0  0  0
    7.3271  -17.4704   17.5991 O   0  0  0  0  0  0  0  0  0  0  0  0
    8.0386  -13.6979   21.0004 C   0  0  0  0  0  0  0  0  0  0  0  0
    9.2693  -13.3989   20.7973 O   0  0  0  0  0  0  0  0  0  0  0  0
    8.7445  -18.3075   19.1740 O   0  0  0  0  0  0  0  0  0  0  0  0
    6.3423  -11.8773   26.6148 N   0  0  0  0  0  0  0  0  0  0  0  0
    6.0307  -13.1711   26.1180 C   0  0  0  0  0  0  0  0  0  0  0  0
    5.0462  -13.7729   26.6546 O   0  0  0  0  0  0  0  0  0  0  0  0
    6.8014  -13.7904   25.0399 C   0  0  0  0  0  0  0  0  0  0  0  0
    7.9588  -12.9816   24.5294 C   0  0  0  0  0  0  0  0  0  0  0  0
    8.6261  -13.7236   23.3889 C   0  0  2  0  0  0  0  0  0  0  0  0
    7.6178  -13.8540   22.3490 N   0  0  0  0  0  0  0  0  0  0  0  0
    9.0560  -15.0806   23.8055 C   0  0  0  0  0  0  0  0  0  0  0  0
    8.2652  -16.0537   23.6978 O   0  0  0  0  0  0  0  0  0  0  0  0
   10.3291  -15.2922   24.3162 N   0  0  0  0  0  0  0  0  0  0  0  0
   10.9011  -16.6223   24.6470 C   0  0  1  0  0  0  0  0  0  0  0  0
   12.3111  -16.5188   24.1915 C   0  0  0  0  0  0  0  0  0  0  0  0
   13.2491  -17.6176   24.4483 C   0  0  0  0  0  0  0  0  0  0  0  0
   14.6183  -17.3126   24.0015 C   0  0  0  0  0  0  0  0  0  0  0  0
   15.5077  -17.1059   24.8706 O   0  0  0  0  0  0  0  0  0  0  0  0
   10.6069  -16.9083   26.0362 C   0  0  0  0  0  0  0  0  0  0  0  0
   10.1384  -15.9657   26.7726 O   0  0  0  0  0  0  0  0  0  0  0  0
   15.0126  -17.2333   22.6837 O   0  0  0  0  0  0  0  0  0  0  0  0
   10.7756  -18.1257   26.6895 O   0  0  0  0  0  0  0  0  0  0  0  0
  2  1  1  6
  2  3  1  0
  2  7  1  0
  4  3  1  0
  4  5  1  0
  5  6  2  0
  7  8  2  0
  9  5  1  0
 10 11  1  0
 11 12  2  0
 13 11  1  0
 13 14  1  0
 15 14  1  1
 16  7  1  0
 16 15  1  0
 17 15  1  0
 17 18  2  0
 19 17  1  0
 20 25  1  0
 20 19  1  0
 20 21  1  1
 22 21  1  0
 23 27  1  0
 23 22  1  0
 24 23  2  0
 25 28  1  0
 26 25  2  0
M  END
$$$$
