EQE.pdb
     RDKit          3D

 28 27  0  0  1  0  0  0  0  0999 V2000
   15.1419  -17.2194   15.3715 N   0  0  0  0  0  0  0  0  0  0  0  0
   14.4031  -18.3539   15.9232 C   0  0  1  0  0  0  0  0  0  0  0  0
   15.4123  -19.4183   16.2013 C   0  0  0  0  0  0  0  0  0  0  0  0
   16.5428  -18.9900   17.1046 C   0  0  0  0  0  0  0  0  0  0  0  0
   17.4011  -20.1732   17.3015 C   0  0  0  0  0  0  0  0  0  0  0  0
   17.6153  -20.9470   16.3416 O   0  0  0  0  0  0  0  0  0  0  0  0
   13.6517  -17.8931   17.1002 C   0  0  0  0  0  0  0  0  0  0  0  0
   14.0357  -16.8340   17.7134 O   0  0  0  0  0  0  0  0  0  0  0  0
   17.9678  -20.4248   18.5308 O   0  0  0  0  0  0  0  0  0  0  0  0
    7.7959  -19.6057   18.7943 N   0  0  0  0  0  0  0  0  0  0  0  0
    8.2338  -18.6930   17.7978 C   0  0  0  0  0  0  0  0  0  0  0  0
    7.3876  -18.3632   16.9063 O   0  0  0  0  0  0  0  0  0  0  0  0
    9.5932  -18.1526   17.7894 C   0  0  0  0  0  0  0  0  0  0  0  0
   10.4984  -18.6710   18.8693 C   0  0  0  0  0  0  0  0  0  0  0  0
   11.8457  -17.9849   18.7678 C   0  0  2  0  0  0  0  0  0  0  0  0
   12.5054  -18.5629   17.6078 N   0  0  0  0  0  0  0  0  0  0  0  0
   12.6779  -18.2485   19.9669 C   0  0  0  0  0  0  0  0  0  0  0  0
   13.2634  -19.3548   20.0977 O   0  0  0  0  0  0  0  0  0  0  0  0
   12.8203  -17.2829   20.9536 N   0  0  0  0  0  0  0  0  0  0  0  0
   13.5806  -17.4648   22.2164 C   0  0  1  0  0  0  0  0  0  0  0  0
   14.8592  -16.7538   21.9595 C   0  0  0  0  0  0  0  0  0  0  0  0
   15.8648  -16.6423   23.0223 C   0  0  0  0  0  0  0  0  0  0  0  0
   17.0750  -15.9258   22.5872 C   0  0  0  0  0  0  0  0  0  0  0  0
   17.7615  -16.4103   21.6475 O   0  0  0  0  0  0  0  0  0  0  0  0
   12.7326  -17.0570   23.3177 C   0  0  0  0  0  0  0  0  0  0  0  0
   11.6823  -16.3632   23.0612 O   0  0  0  0  0  0  0  0  0  0  0  0
   17.5260  -14.7452   23.1361 O   0  0  0  0  0  0  0  0  0  0  0  0
   12.9265  -17.3392   24.6667 O   0  0  0  0  0  0  0  0  0  0  0  0
  2  1  1  1
  2  3  1  0
  2  7  1  0
  4  3  1  0
  4  5  1  0
  5  6  2  0
  7  8  2  0
  9  5  1  0
 10 11  1  0
 11 12  2  0
 13 11  1  0
 13 14  1  0
 15 14  1  1
 16  7  1  0
 16 15  1  0
 17 15  1  0
 17 18  2  0
 19 17  1  0
 20 25  1  0
 20 19  1  0
 20 21  1  6
 22 21  1  0
 23 27  1  0
 23 22  1  0
 24 23  2  0
 25 28  1  0
 26 25  2  0
M  END
$$$$
