EQE.pdb
     RDKit          3D

 28 27  0  0  1  0  0  0  0  0999 V2000
    8.4848  -13.7775   18.9705 N   0  0  0  0  0  0  0  0  0  0  0  0
    7.5159  -14.3599   19.8974 C   0  0  1  0  0  0  0  0  0  0  0  0
    7.2430  -15.7432   19.4070 C   0  0  0  0  0  0  0  0  0  0  0  0
    8.3764  -16.3686   18.6312 C   0  0  0  0  0  0  0  0  0  0  0  0
    7.8572  -16.6620   17.2823 C   0  0  0  0  0  0  0  0  0  0  0  0
    6.7448  -17.2215   17.1572 O   0  0  0  0  0  0  0  0  0  0  0  0
    8.0690  -14.2852   21.2579 C   0  0  0  0  0  0  0  0  0  0  0  0
    9.3359  -14.3947   21.4259 O   0  0  0  0  0  0  0  0  0  0  0  0
    8.5873  -16.3198   16.1662 O   0  0  0  0  0  0  0  0  0  0  0  0
    5.4085  -12.0765   26.6998 N   0  0  0  0  0  0  0  0  0  0  0  0
    6.7266  -12.5143   26.9972 C   0  0  0  0  0  0  0  0  0  0  0  0
    7.1429  -12.3249   28.1848 O   0  0  0  0  0  0  0  0  0  0  0  0
    7.5734  -13.1540   25.9903 C   0  0  0  0  0  0  0  0  0  0  0  0
    6.9801  -13.2446   24.6140 C   0  0  0  0  0  0  0  0  0  0  0  0
    7.9553  -13.9484   23.6919 C   0  0  2  0  0  0  0  0  0  0  0  0
    7.2697  -14.0957   22.4178 N   0  0  0  0  0  0  0  0  0  0  0  0
    8.3036  -15.2969   24.2017 C   0  0  0  0  0  0  0  0  0  0  0  0
    7.5076  -16.2580   24.0387 O   0  0  0  0  0  0  0  0  0  0  0  0
    9.5056  -15.5138   24.8608 N   0  0  0  0  0  0  0  0  0  0  0  0
    9.9732  -16.8311   25.3628 C   0  0  1  0  0  0  0  0  0  0  0  0
   11.1203  -17.1551   24.4765 C   0  0  0  0  0  0  0  0  0  0  0  0
   11.9395  -18.3438   24.7393 C   0  0  0  0  0  0  0  0  0  0  0  0
   13.0156  -18.5227   23.7508 C   0  0  0  0  0  0  0  0  0  0  0  0
   13.0373  -17.7749   22.7362 O   0  0  0  0  0  0  0  0  0  0  0  0
   10.1697  -16.7258   26.7941 C   0  0  0  0  0  0  0  0  0  0  0  0
   10.2094  -15.5568   27.3254 O   0  0  0  0  0  0  0  0  0  0  0  0
   14.0201  -19.4607   23.8479 O   0  0  0  0  0  0  0  0  0  0  0  0
   10.3238  -17.7772   27.6930 O   0  0  0  0  0  0  0  0  0  0  0  0
  2  1  1  6
  2  3  1  0
  2  7  1  0
  4  3  1  0
  4  5  1  0
  5  6  2  0
  7  8  2  0
  9  5  1  0
 10 11  1  0
 11 12  2  0
 13 11  1  0
 13 14  1  0
 15 14  1  1
 16  7  1  0
 16 15  1  0
 17 15  1  0
 17 18  2  0
 19 17  1  0
 20 25  1  0
 20 19  1  0
 20 21  1  6
 22 21  1  0
 23 27  1  0
 23 22  1  0
 24 23  2  0
 25 28  1  0
 26 25  2  0
M  END
$$$$
