EQE.pdb
     RDKit          3D

 28 27  0  0  1  0  0  0  0  0999 V2000
   10.9106  -19.9806   19.0499 N   0  0  0  0  0  0  0  0  0  0  0  0
   12.1997  -19.3277   18.8282 C   0  0  1  0  0  0  0  0  0  0  0  0
   12.1417  -18.7354   17.4591 C   0  0  0  0  0  0  0  0  0  0  0  0
   13.4194  -18.0703   17.0088 C   0  0  0  0  0  0  0  0  0  0  0  0
   13.8426  -18.7554   15.7731 C   0  0  0  0  0  0  0  0  0  0  0  0
   13.2332  -18.5311   14.7033 O   0  0  0  0  0  0  0  0  0  0  0  0
   12.4238  -18.3584   19.9111 C   0  0  0  0  0  0  0  0  0  0  0  0
   13.5153  -17.6851   19.9332 O   0  0  0  0  0  0  0  0  0  0  0  0
   14.9034  -19.6329   15.7925 O   0  0  0  0  0  0  0  0  0  0  0  0
    8.4950  -16.2178   24.6111 N   0  0  0  0  0  0  0  0  0  0  0  0
    9.7637  -15.5945   24.7506 C   0  0  0  0  0  0  0  0  0  0  0  0
    9.8610  -14.6743   25.6243 O   0  0  0  0  0  0  0  0  0  0  0  0
   10.9107  -15.9861   23.9314 C   0  0  0  0  0  0  0  0  0  0  0  0
   10.6131  -16.9674   22.8347 C   0  0  0  0  0  0  0  0  0  0  0  0
   11.8456  -17.1446   21.9710 C   0  0  2  0  0  0  0  0  0  0  0  0
   11.4868  -18.1191   20.9528 N   0  0  0  0  0  0  0  0  0  0  0  0
   12.9843  -17.6780   22.7575 C   0  0  0  0  0  0  0  0  0  0  0  0
   13.0505  -18.9076   23.0175 O   0  0  0  0  0  0  0  0  0  0  0  0
   13.9854  -16.8317   23.2135 N   0  0  0  0  0  0  0  0  0  0  0  0
   15.2294  -17.2761   23.8923 C   0  0  1  0  0  0  0  0  0  0  0  0
   16.3102  -16.6899   23.0590 C   0  0  0  0  0  0  0  0  0  0  0  0
   17.7145  -16.8641   23.4474 C   0  0  0  0  0  0  0  0  0  0  0  0
   18.6396  -16.1012   22.5933 C   0  0  0  0  0  0  0  0  0  0  0  0
   19.8562  -16.4307   22.5719 O   0  0  0  0  0  0  0  0  0  0  0  0
   15.1271  -16.9307   25.2954 C   0  0  0  0  0  0  0  0  0  0  0  0
   14.3160  -15.9966   25.6415 O   0  0  0  0  0  0  0  0  0  0  0  0
   18.2747  -15.0352   21.8005 O   0  0  0  0  0  0  0  0  0  0  0  0
   15.8260  -17.5123   26.3491 O   0  0  0  0  0  0  0  0  0  0  0  0
  2  1  1  1
  2  3  1  0
  2  7  1  0
  4  3  1  0
  4  5  1  0
  5  6  2  0
  7  8  2  0
  9  5  1  0
 10 11  1  0
 11 12  2  0
 13 11  1  0
 13 14  1  0
 15 14  1  1
 16  7  1  0
 16 15  1  0
 17 15  1  0
 17 18  2  0
 19 17  1  0
 20 25  1  0
 20 19  1  0
 20 21  1  6
 22 21  1  0
 23 27  1  0
 23 22  1  0
 24 23  2  0
 25 28  1  0
 26 25  2  0
M  END
$$$$
