EQE.pdb
     RDKit          3D

 28 27  0  0  1  0  0  0  0  0999 V2000
   10.6712  -16.8421   14.9514 N   0  0  0  0  0  0  0  0  0  0  0  0
    9.9748  -17.5630   16.0156 C   0  0  1  0  0  0  0  0  0  0  0  0
   10.6548  -18.8860   16.1427 C   0  0  0  0  0  0  0  0  0  0  0  0
   10.3157  -19.8727   15.0522 C   0  0  0  0  0  0  0  0  0  0  0  0
   11.1559  -21.0633   15.2800 C   0  0  0  0  0  0  0  0  0  0  0  0
   11.6335  -21.2733   16.4174 O   0  0  0  0  0  0  0  0  0  0  0  0
    9.9995  -16.7370   17.2319 C   0  0  0  0  0  0  0  0  0  0  0  0
   11.0844  -16.1358   17.5589 O   0  0  0  0  0  0  0  0  0  0  0  0
   11.4111  -21.9418   14.2510 O   0  0  0  0  0  0  0  0  0  0  0  0
    7.7885  -12.4754   19.5755 N   0  0  0  0  0  0  0  0  0  0  0  0
    7.7838  -13.1179   20.8424 C   0  0  0  0  0  0  0  0  0  0  0  0
    7.8698  -12.3700   21.8684 O   0  0  0  0  0  0  0  0  0  0  0  0
    7.6852  -14.5718   20.9704 C   0  0  0  0  0  0  0  0  0  0  0  0
    7.6204  -15.3289   19.6754 C   0  0  0  0  0  0  0  0  0  0  0  0
    9.0250  -15.6799   19.2278 C   0  0  2  0  0  0  0  0  0  0  0  0
    8.8736  -16.5620   18.0815 N   0  0  0  0  0  0  0  0  0  0  0  0
    9.7651  -16.4046   20.2894 C   0  0  0  0  0  0  0  0  0  0  0  0
    9.4655  -17.5951   20.5669 O   0  0  0  0  0  0  0  0  0  0  0  0
   10.7917  -15.7818   20.9854 N   0  0  0  0  0  0  0  0  0  0  0  0
   11.5538  -16.3946   22.1032 C   0  0  1  0  0  0  0  0  0  0  0  0
   12.8872  -15.7465   22.0131 C   0  0  0  0  0  0  0  0  0  0  0  0
   14.0244  -16.2978   22.7588 C   0  0  0  0  0  0  0  0  0  0  0  0
   15.2715  -15.5501   22.5288 C   0  0  0  0  0  0  0  0  0  0  0  0
   15.2771  -14.6312   21.6657 O   0  0  0  0  0  0  0  0  0  0  0  0
   10.7654  -16.2666   23.3117 C   0  0  0  0  0  0  0  0  0  0  0  0
    9.8691  -15.3480   23.3673 O   0  0  0  0  0  0  0  0  0  0  0  0
   16.4560  -15.7792   23.1942 O   0  0  0  0  0  0  0  0  0  0  0  0
   10.8661  -17.0493   24.4583 O   0  0  0  0  0  0  0  0  0  0  0  0
  2  1  1  6
  2  3  1  0
  2  7  1  0
  4  3  1  0
  4  5  1  0
  5  6  2  0
  7  8  2  0
  9  5  1  0
 10 11  1  0
 11 12  2  0
 13 11  1  0
 13 14  1  0
 15 14  1  1
 16  7  1  0
 16 15  1  0
 17 15  1  0
 17 18  2  0
 19 17  1  0
 20 25  1  0
 20 19  1  0
 20 21  1  1
 22 21  1  0
 23 27  1  0
 23 22  1  0
 24 23  2  0
 25 28  1  0
 26 25  2  0
M  END
$$$$
