EQE.pdb
     RDKit          3D

 28 27  0  0  1  0  0  0  0  0999 V2000
    7.9924  -19.2695   17.4915 N   0  0  0  0  0  0  0  0  0  0  0  0
    9.4421  -19.0839   17.4542 C   0  0  1  0  0  0  0  0  0  0  0  0
    9.8048  -18.8893   16.0192 C   0  0  0  0  0  0  0  0  0  0  0  0
    9.4492  -17.5331   15.4608 C   0  0  0  0  0  0  0  0  0  0  0  0
    9.9770  -17.4884   14.0843 C   0  0  0  0  0  0  0  0  0  0  0  0
   11.1190  -17.9415   13.8461 O   0  0  0  0  0  0  0  0  0  0  0  0
    9.7912  -17.9609   18.3369 C   0  0  0  0  0  0  0  0  0  0  0  0
   11.0260  -17.6590   18.5079 O   0  0  0  0  0  0  0  0  0  0  0  0
    9.2190  -16.9565   13.0654 O   0  0  0  0  0  0  0  0  0  0  0  0
    6.2562  -13.0250   20.4606 N   0  0  0  0  0  0  0  0  0  0  0  0
    7.5528  -12.9174   21.0305 C   0  0  0  0  0  0  0  0  0  0  0  0
    7.7906  -11.8818   21.7308 O   0  0  0  0  0  0  0  0  0  0  0  0
    8.5737  -13.9451   20.8263 C   0  0  0  0  0  0  0  0  0  0  0  0
    8.1595  -15.1008   19.9619 C   0  0  0  0  0  0  0  0  0  0  0  0
    9.3099  -16.0808   19.8483 C   0  0  2  0  0  0  0  0  0  0  0  0
    8.8253  -17.1765   19.0239 N   0  0  0  0  0  0  0  0  0  0  0  0
    9.6933  -16.6198   21.1758 C   0  0  0  0  0  0  0  0  0  0  0  0
    8.9408  -17.4381   21.7658 O   0  0  0  0  0  0  0  0  0  0  0  0
   10.8807  -16.2304   21.7798 N   0  0  0  0  0  0  0  0  0  0  0  0
   11.4193  -16.8013   23.0406 C   0  0  1  0  0  0  0  0  0  0  0  0
   12.8759  -16.5235   22.9554 C   0  0  0  0  0  0  0  0  0  0  0  0
   13.7441  -16.7916   24.1075 C   0  0  0  0  0  0  0  0  0  0  0  0
   15.1489  -16.4289   23.8576 C   0  0  0  0  0  0  0  0  0  0  0  0
   16.0257  -16.7925   24.6872 O   0  0  0  0  0  0  0  0  0  0  0  0
   10.6435  -16.2730   24.1440 C   0  0  0  0  0  0  0  0  0  0  0  0
   10.1016  -15.1153   24.0163 O   0  0  0  0  0  0  0  0  0  0  0  0
   15.5901  -15.7095   22.7686 O   0  0  0  0  0  0  0  0  0  0  0  0
   10.4059  -16.8933   25.3671 O   0  0  0  0  0  0  0  0  0  0  0  0
  2  1  1  6
  2  3  1  0
  2  7  1  0
  4  3  1  0
  4  5  1  0
  5  6  2  0
  7  8  2  0
  9  5  1  0
 10 11  1  0
 11 12  2  0
 13 11  1  0
 13 14  1  0
 15 14  1  1
 16  7  1  0
 16 15  1  0
 17 15  1  0
 17 18  2  0
 19 17  1  0
 20 25  1  0
 20 19  1  0
 20 21  1  1
 22 21  1  0
 23 27  1  0
 23 22  1  0
 24 23  2  0
 25 28  1  0
 26 25  2  0
M  END
$$$$
