EQE.pdb
     RDKit          3D

 28 27  0  0  1  0  0  0  0  0999 V2000
   10.4792  -16.1275   20.0712 N   0  0  0  0  0  0  0  0  0  0  0  0
    9.1774  -16.1274   20.7366 C   0  0  1  0  0  0  0  0  0  0  0  0
    8.6248  -17.5055   20.5807 C   0  0  0  0  0  0  0  0  0  0  0  0
    9.6389  -18.6105   20.7478 C   0  0  0  0  0  0  0  0  0  0  0  0
    9.1936  -19.7287   19.8954 C   0  0  0  0  0  0  0  0  0  0  0  0
    8.1664  -19.5980   19.1927 O   0  0  0  0  0  0  0  0  0  0  0  0
    9.3652  -15.6915   22.1284 C   0  0  0  0  0  0  0  0  0  0  0  0
   10.4890  -15.9097   22.7070 O   0  0  0  0  0  0  0  0  0  0  0  0
    9.9037  -20.9080   19.8677 O   0  0  0  0  0  0  0  0  0  0  0  0
    5.3175  -12.7830   26.3404 N   0  0  0  0  0  0  0  0  0  0  0  0
    6.6524  -12.7128   26.8207 C   0  0  0  0  0  0  0  0  0  0  0  0
    6.8611  -11.9775   27.8382 O   0  0  0  0  0  0  0  0  0  0  0  0
    7.7429  -13.4485   26.1808 C   0  0  0  0  0  0  0  0  0  0  0  0
    7.4854  -13.8787   24.7655 C   0  0  0  0  0  0  0  0  0  0  0  0
    8.6761  -14.6648   24.2548 C   0  0  2  0  0  0  0  0  0  0  0  0
    8.3583  -15.0314   22.8838 N   0  0  0  0  0  0  0  0  0  0  0  0
    8.8823  -15.9050   25.0417 C   0  0  0  0  0  0  0  0  0  0  0  0
    8.1125  -16.8879   24.8834 O   0  0  0  0  0  0  0  0  0  0  0  0
    9.9217  -15.9958   25.9571 N   0  0  0  0  0  0  0  0  0  0  0  0
   10.2022  -17.1797   26.8087 C   0  0  1  0  0  0  0  0  0  0  0  0
   11.2481  -17.9142   26.0518 C   0  0  0  0  0  0  0  0  0  0  0  0
   11.9110  -19.0769   26.6533 C   0  0  0  0  0  0  0  0  0  0  0  0
   12.9195  -19.6788   25.7657 C   0  0  0  0  0  0  0  0  0  0  0  0
   12.5428  -20.1804   24.6723 O   0  0  0  0  0  0  0  0  0  0  0  0
   10.4720  -16.7153   28.1541 C   0  0  0  0  0  0  0  0  0  0  0  0
   10.4559  -17.5685   29.1143 O   0  0  0  0  0  0  0  0  0  0  0  0
   14.2683  -19.7391   26.0404 O   0  0  0  0  0  0  0  0  0  0  0  0
   10.7585  -15.4099   28.5425 O   0  0  0  0  0  0  0  0  0  0  0  0
  2  1  1  6
  2  3  1  0
  2  7  1  0
  4  3  1  0
  4  5  1  0
  5  6  2  0
  7  8  2  0
  9  5  1  0
 10 11  1  0
 11 12  2  0
 13 11  1  0
 13 14  1  0
 15 14  1  1
 16  7  1  0
 16 15  1  0
 17 15  1  0
 17 18  2  0
 19 17  1  0
 20 25  1  0
 20 19  1  0
 20 21  1  6
 22 21  1  0
 23 27  1  0
 23 22  1  0
 24 23  2  0
 25 28  1  0
 26 25  2  0
M  END
$$$$
