EQE.pdb
     RDKit          3D

 28 27  0  0  1  0  0  0  0  0999 V2000
    9.0494  -18.2436   16.8652 N   0  0  0  0  0  0  0  0  0  0  0  0
   10.3563  -17.5922   16.9346 C   0  0  1  0  0  0  0  0  0  0  0  0
   10.5432  -16.8838   15.6338 C   0  0  0  0  0  0  0  0  0  0  0  0
   10.0293  -17.6360   14.4306 C   0  0  0  0  0  0  0  0  0  0  0  0
   10.2571  -16.7699   13.2587 C   0  0  0  0  0  0  0  0  0  0  0  0
   11.0109  -17.1609   12.3394 O   0  0  0  0  0  0  0  0  0  0  0  0
   10.3815  -16.7226   18.1201 C   0  0  0  0  0  0  0  0  0  0  0  0
   11.4770  -16.1413   18.4475 O   0  0  0  0  0  0  0  0  0  0  0  0
    9.6426  -15.5409   13.1719 O   0  0  0  0  0  0  0  0  0  0  0  0
    8.7865  -12.6021   20.2004 N   0  0  0  0  0  0  0  0  0  0  0  0
    7.7457  -13.1642   19.4141 C   0  0  0  0  0  0  0  0  0  0  0  0
    7.1866  -12.3984   18.5653 O   0  0  0  0  0  0  0  0  0  0  0  0
    7.3293  -14.5583   19.5670 C   0  0  0  0  0  0  0  0  0  0  0  0
    8.0488  -15.3314   20.6342 C   0  0  0  0  0  0  0  0  0  0  0  0
    9.4366  -15.6922   20.1440 C   0  0  2  0  0  0  0  0  0  0  0  0
    9.2447  -16.4838   18.9392 N   0  0  0  0  0  0  0  0  0  0  0  0
   10.1648  -16.5144   21.1407 C   0  0  0  0  0  0  0  0  0  0  0  0
    9.9785  -17.7581   21.1896 O   0  0  0  0  0  0  0  0  0  0  0  0
   11.0560  -15.9250   22.0265 N   0  0  0  0  0  0  0  0  0  0  0  0
   11.8847  -16.6623   23.0141 C   0  0  1  0  0  0  0  0  0  0  0  0
   13.2602  -16.1649   22.7560 C   0  0  0  0  0  0  0  0  0  0  0  0
   14.3849  -16.6657   23.5544 C   0  0  0  0  0  0  0  0  0  0  0  0
   15.6707  -16.0627   23.1666 C   0  0  0  0  0  0  0  0  0  0  0  0
   15.6866  -14.8610   22.7861 O   0  0  0  0  0  0  0  0  0  0  0  0
   11.2860  -16.4938   24.3224 C   0  0  0  0  0  0  0  0  0  0  0  0
   10.4504  -15.5340   24.4976 O   0  0  0  0  0  0  0  0  0  0  0  0
   16.8815  -16.7199   23.1863 O   0  0  0  0  0  0  0  0  0  0  0  0
   11.5152  -17.2768   25.4500 O   0  0  0  0  0  0  0  0  0  0  0  0
  2  1  1  6
  2  3  1  0
  2  7  1  0
  4  3  1  0
  4  5  1  0
  5  6  2  0
  7  8  2  0
  9  5  1  0
 10 11  1  0
 11 12  2  0
 13 11  1  0
 13 14  1  0
 15 14  1  1
 16  7  1  0
 16 15  1  0
 17 15  1  0
 17 18  2  0
 19 17  1  0
 20 25  1  0
 20 19  1  0
 20 21  1  1
 22 21  1  0
 23 27  1  0
 23 22  1  0
 24 23  2  0
 25 28  1  0
 26 25  2  0
M  END
$$$$
