HPV.pdb
     RDKit          3D

 25 26  0  0  1  0  0  0  0  0999 V2000
    8.5723  -13.0828   18.7405 N   0  0  0  0  0  0  0  0  0  0  0  0
    9.0448  -14.0003   19.7122 C   0  0  1  0  0  0  0  0  0  0  0  0
   10.4538  -13.6566   20.2059 C   0  0  0  0  0  0  0  0  0  0  0  0
   11.4703  -14.4575   19.4690 C   0  0  0  0  0  0  0  0  0  0  0  0
   12.1832  -14.0131   18.3811 C   0  0  0  0  0  0  0  0  0  0  0  0
   12.9910  -14.9947   17.9913 N   0  0  0  0  0  0  0  0  0  0  0  0
   12.7900  -16.0199   18.8086 C   0  0  0  0  0  0  0  0  0  0  0  0
   11.8595  -15.7128   19.7252 N   0  0  0  0  0  0  0  0  0  0  0  0
    8.2023  -14.1639   20.9064 C   0  0  0  0  0  0  0  0  0  0  0  0
    7.5252  -13.1278   21.2224 O   0  0  0  0  0  0  0  0  0  0  0  0
    8.1164  -15.3570   21.6772 N   0  0  0  0  0  0  0  0  0  0  0  0
    8.8707  -16.5793   21.5581 C   0  0  0  0  0  0  0  0  0  0  0  0
    8.0801  -17.6569   22.2679 C   0  0  0  0  0  0  0  0  0  0  0  0
    6.7953  -17.0055   22.6901 C   0  0  0  0  0  0  0  0  0  0  0  0
    7.2002  -15.5504   22.7739 C   0  0  1  0  0  0  0  0  0  0  0  0
    7.7888  -15.3220   24.1015 C   0  0  0  0  0  0  0  0  0  0  0  0
    8.9973  -15.6322   24.2596 O   0  0  0  0  0  0  0  0  0  0  0  0
    6.8108  -11.9080   25.9725 C   0  0  0  0  0  0  0  0  0  0  0  0
    7.0385  -13.0180   26.9405 C   0  0  1  0  0  0  0  0  0  0  0  0
    5.6913  -13.5188   27.4184 C   0  0  0  0  0  0  0  0  0  0  0  0
    7.7773  -14.1931   26.3581 C   0  0  2  0  0  0  0  0  0  0  0  0
    7.1074  -14.7795   25.2253 N   0  0  0  0  0  0  0  0  0  0  0  0
    7.9209  -15.2230   27.4138 C   0  0  0  0  0  0  0  0  0  0  0  0
    7.2801  -16.3091   27.3551 O   0  0  0  0  0  0  0  0  0  0  0  0
    8.7785  -14.9676   28.4735 O   0  0  0  0  0  0  0  0  0  0  0  0
  2  9  1  0
  2  1  1  6
  3  2  1  0
  4  3  1  0
  5  4  2  0
  6  5  1  0
  7  6  1  0
  7  8  2  0
  8  4  1  0
  9 11  1  0
 10  9  2  0
 11 15  1  0
 12 11  1  0
 12 13  1  0
 13 14  1  0
 15 16  1  1
 15 14  1  0
 16 17  2  0
 19 18  1  6
 19 21  1  0
 19 20  1  0
 21 22  1  6
 22 16  1  0
 23 21  1  0
 24 23  2  0
 25 23  1  0
M  END
$$$$
