HPV.pdb
     RDKit          3D

 25 26  0  0  1  0  0  0  0  0999 V2000
    6.0746  -16.0355   20.0161 N   0  0  0  0  0  0  0  0  0  0  0  0
    7.1600  -15.4729   20.7335 C   0  0  1  0  0  0  0  0  0  0  0  0
    7.3083  -13.9682   20.4863 C   0  0  0  0  0  0  0  0  0  0  0  0
    7.7489  -13.7144   19.0866 C   0  0  0  0  0  0  0  0  0  0  0  0
    9.0316  -13.3914   18.7128 C   0  0  0  0  0  0  0  0  0  0  0  0
    9.0479  -13.2394   17.3920 N   0  0  0  0  0  0  0  0  0  0  0  0
    7.8156  -13.4602   16.9536 C   0  0  0  0  0  0  0  0  0  0  0  0
    6.9998  -13.7540   17.9775 N   0  0  0  0  0  0  0  0  0  0  0  0
    7.1372  -15.6657   22.1912 C   0  0  0  0  0  0  0  0  0  0  0  0
    6.1038  -15.1895   22.7719 O   0  0  0  0  0  0  0  0  0  0  0  0
    8.1576  -16.3212   22.9355 N   0  0  0  0  0  0  0  0  0  0  0  0
    9.4381  -16.8144   22.4945 C   0  0  0  0  0  0  0  0  0  0  0  0
    9.9028  -17.8198   23.5256 C   0  0  0  0  0  0  0  0  0  0  0  0
    8.7713  -17.9502   24.5034 C   0  0  0  0  0  0  0  0  0  0  0  0
    8.0707  -16.6191   24.3438 C   0  0  1  0  0  0  0  0  0  0  0  0
    8.7496  -15.6454   25.2111 C   0  0  0  0  0  0  0  0  0  0  0  0
    9.9176  -15.3039   24.8939 O   0  0  0  0  0  0  0  0  0  0  0  0
    7.3219  -12.2097   26.1363 C   0  0  0  0  0  0  0  0  0  0  0  0
    7.8920  -12.8237   27.3688 C   0  0  1  0  0  0  0  0  0  0  0  0
    6.7494  -13.3486   28.2131 C   0  0  0  0  0  0  0  0  0  0  0  0
    8.8233  -13.9756   27.1014 C   0  0  2  0  0  0  0  0  0  0  0  0
    8.1979  -15.0554   26.3813 N   0  0  0  0  0  0  0  0  0  0  0  0
    9.3138  -14.4898   28.4019 C   0  0  0  0  0  0  0  0  0  0  0  0
    8.9635  -15.6259   28.8266 O   0  0  0  0  0  0  0  0  0  0  0  0
   10.1704  -13.6928   29.1466 O   0  0  0  0  0  0  0  0  0  0  0  0
  2  9  1  0
  2  1  1  6
  3  2  1  0
  4  3  1  0
  5  4  2  0
  6  5  1  0
  7  6  1  0
  7  8  2  0
  8  4  1  0
  9 11  1  0
 10  9  2  0
 11 15  1  0
 12 11  1  0
 12 13  1  0
 13 14  1  0
 15 16  1  1
 15 14  1  0
 16 17  2  0
 19 18  1  6
 19 21  1  0
 19 20  1  0
 21 22  1  1
 22 16  1  0
 23 21  1  0
 24 23  2  0
 25 23  1  0
M  END
$$$$
