HPV.pdb
     RDKit          3D

 25 26  0  0  1  0  0  0  0  0999 V2000
   11.4761  -14.9240   19.4660 N   0  0  0  0  0  0  0  0  0  0  0  0
   10.1788  -14.6902   19.9869 C   0  0  1  0  0  0  0  0  0  0  0  0
    9.1481  -15.6963   19.4648 C   0  0  0  0  0  0  0  0  0  0  0  0
    8.7965  -15.3906   18.0504 C   0  0  0  0  0  0  0  0  0  0  0  0
    8.5164  -14.1360   17.5637 C   0  0  0  0  0  0  0  0  0  0  0  0
    8.2485  -14.2498   16.2663 N   0  0  0  0  0  0  0  0  0  0  0  0
    8.3573  -15.5337   15.9514 C   0  0  0  0  0  0  0  0  0  0  0  0
    8.6934  -16.2542   17.0323 N   0  0  0  0  0  0  0  0  0  0  0  0
   10.0650  -14.6847   21.4530 C   0  0  0  0  0  0  0  0  0  0  0  0
   11.1807  -14.7603   22.0707 O   0  0  0  0  0  0  0  0  0  0  0  0
    8.8373  -14.6035   22.1678 N   0  0  0  0  0  0  0  0  0  0  0  0
    7.5021  -14.9272   21.7322 C   0  0  0  0  0  0  0  0  0  0  0  0
    6.5480  -14.2236   22.6728 C   0  0  0  0  0  0  0  0  0  0  0  0
    7.4110  -13.3999   23.5841 C   0  0  0  0  0  0  0  0  0  0  0  0
    8.7213  -14.1541   23.5331 C   0  0  1  0  0  0  0  0  0  0  0  0
    8.6560  -15.2385   24.5236 C   0  0  0  0  0  0  0  0  0  0  0  0
    8.5160  -16.4105   24.0897 O   0  0  0  0  0  0  0  0  0  0  0  0
    9.0046  -14.1665   28.6326 C   0  0  0  0  0  0  0  0  0  0  0  0
   10.1784  -14.7112   27.8933 C   0  0  1  0  0  0  0  0  0  0  0  0
   11.0095  -15.5336   28.8560 C   0  0  0  0  0  0  0  0  0  0  0  0
    9.8107  -15.6026   26.7373 C   0  0  2  0  0  0  0  0  0  0  0  0
    8.7373  -15.0757   25.9337 N   0  0  0  0  0  0  0  0  0  0  0  0
    9.4008  -16.9204   27.2772 C   0  0  0  0  0  0  0  0  0  0  0  0
    8.2012  -17.3077   27.2077 O   0  0  0  0  0  0  0  0  0  0  0  0
   10.3675  -17.7237   27.8635 O   0  0  0  0  0  0  0  0  0  0  0  0
  2  9  1  0
  2  1  1  1
  3  2  1  0
  4  3  1  0
  5  4  2  0
  6  5  1  0
  7  6  1  0
  7  8  2  0
  8  4  1  0
  9 11  1  0
 10  9  2  0
 11 15  1  0
 12 11  1  0
 12 13  1  0
 13 14  1  0
 15 16  1  1
 15 14  1  0
 16 17  2  0
 19 18  1  1
 19 21  1  0
 19 20  1  0
 21 22  1  1
 22 16  1  0
 23 21  1  0
 24 23  2  0
 25 23  1  0
M  END
$$$$
