HPV.pdb
     RDKit          3D

 25 26  0  0  1  0  0  0  0  0999 V2000
   10.9440  -17.8483   19.7134 N   0  0  0  0  0  0  0  0  0  0  0  0
    9.7117  -17.5151   20.3294 C   0  0  1  0  0  0  0  0  0  0  0  0
    8.9978  -18.7395   20.9110 C   0  0  0  0  0  0  0  0  0  0  0  0
    8.3652  -19.5354   19.8228 C   0  0  0  0  0  0  0  0  0  0  0  0
    7.7359  -19.0023   18.7232 C   0  0  0  0  0  0  0  0  0  0  0  0
    7.2968  -20.0090   17.9738 N   0  0  0  0  0  0  0  0  0  0  0  0
    7.6401  -21.1353   18.5846 C   0  0  0  0  0  0  0  0  0  0  0  0
    8.2978  -20.8689   19.7233 N   0  0  0  0  0  0  0  0  0  0  0  0
    9.7786  -16.5109   21.4016 C   0  0  0  0  0  0  0  0  0  0  0  0
   10.9459  -16.3350   21.8898 O   0  0  0  0  0  0  0  0  0  0  0  0
    8.6636  -15.7725   21.8877 N   0  0  0  0  0  0  0  0  0  0  0  0
    7.2596  -15.9501   21.6148 C   0  0  0  0  0  0  0  0  0  0  0  0
    6.5721  -14.6508   21.9742 C   0  0  0  0  0  0  0  0  0  0  0  0
    7.6718  -13.7014   22.3522 C   0  0  0  0  0  0  0  0  0  0  0  0
    8.7633  -14.6525   22.7906 C   0  0  1  0  0  0  0  0  0  0  0  0
    8.5269  -14.9901   24.2018 C   0  0  0  0  0  0  0  0  0  0  0  0
    7.8696  -16.0344   24.4445 O   0  0  0  0  0  0  0  0  0  0  0  0
    9.0738  -12.8596   27.9469 C   0  0  0  0  0  0  0  0  0  0  0  0
   10.1226  -13.7952   27.4512 C   0  0  1  0  0  0  0  0  0  0  0  0
   10.6943  -14.5435   28.6375 C   0  0  0  0  0  0  0  0  0  0  0  0
    9.6130  -14.8195   26.4729 C   0  0  2  0  0  0  0  0  0  0  0  0
    8.9785  -14.2352   25.3189 N   0  0  0  0  0  0  0  0  0  0  0  0
    8.6320  -15.6832   27.1713 C   0  0  0  0  0  0  0  0  0  0  0  0
    7.3950  -15.5818   26.9404 O   0  0  0  0  0  0  0  0  0  0  0  0
    9.1036  -16.6102   28.0889 O   0  0  0  0  0  0  0  0  0  0  0  0
  2  9  1  0
  2  1  1  1
  3  2  1  0
  4  3  1  0
  5  4  2  0
  6  5  1  0
  7  6  1  0
  7  8  2  0
  8  4  1  0
  9 11  1  0
 10  9  2  0
 11 15  1  0
 12 11  1  0
 12 13  1  0
 13 14  1  0
 15 16  1  1
 15 14  1  0
 16 17  2  0
 19 18  1  1
 19 21  1  0
 19 20  1  0
 21 22  1  6
 22 16  1  0
 23 21  1  0
 24 23  2  0
 25 23  1  0
M  END
$$$$
