HPV.pdb
     RDKit          3D

 25 26  0  0  1  0  0  0  0  0999 V2000
    6.2278  -16.1441   19.8747 N   0  0  0  0  0  0  0  0  0  0  0  0
    7.3283  -15.6798   20.6379 C   0  0  1  0  0  0  0  0  0  0  0  0
    7.6543  -14.2087   20.3605 C   0  0  0  0  0  0  0  0  0  0  0  0
    8.0663  -14.0285   18.9408 C   0  0  0  0  0  0  0  0  0  0  0  0
    7.4281  -13.2158   18.0344 C   0  0  0  0  0  0  0  0  0  0  0  0
    8.0734  -13.3079   16.8755 N   0  0  0  0  0  0  0  0  0  0  0  0
    9.0825  -14.1508   17.0511 C   0  0  0  0  0  0  0  0  0  0  0  0
    9.0980  -14.6065   18.3130 N   0  0  0  0  0  0  0  0  0  0  0  0
    7.2060  -15.8221   22.0964 C   0  0  0  0  0  0  0  0  0  0  0  0
    6.1218  -15.3552   22.5846 O   0  0  0  0  0  0  0  0  0  0  0  0
    8.1868  -16.4222   22.9347 N   0  0  0  0  0  0  0  0  0  0  0  0
    9.4771  -16.9641   22.5898 C   0  0  0  0  0  0  0  0  0  0  0  0
    9.8865  -17.8828   23.7206 C   0  0  0  0  0  0  0  0  0  0  0  0
    8.7152  -17.9179   24.6588 C   0  0  0  0  0  0  0  0  0  0  0  0
    8.0397  -16.5981   24.3584 C   0  0  1  0  0  0  0  0  0  0  0  0
    8.6967  -15.5611   25.1672 C   0  0  0  0  0  0  0  0  0  0  0  0
    9.8891  -15.2771   24.8860 O   0  0  0  0  0  0  0  0  0  0  0  0
    7.1847  -12.0635   25.6517 C   0  0  0  0  0  0  0  0  0  0  0  0
    7.7236  -12.5277   26.9614 C   0  0  1  0  0  0  0  0  0  0  0  0
    6.5626  -12.9815   27.8217 C   0  0  0  0  0  0  0  0  0  0  0  0
    8.6834  -13.6820   26.8512 C   0  0  2  0  0  0  0  0  0  0  0  0
    8.0985  -14.8501   26.2434 N   0  0  0  0  0  0  0  0  0  0  0  0
    9.1471  -14.0343   28.2139 C   0  0  0  0  0  0  0  0  0  0  0  0
    8.7913  -15.1134   28.7640 O   0  0  0  0  0  0  0  0  0  0  0  0
    9.9845  -13.1489   28.8761 O   0  0  0  0  0  0  0  0  0  0  0  0
  2  9  1  0
  2  1  1  6
  3  2  1  0
  4  3  1  0
  5  4  2  0
  6  5  1  0
  7  6  1  0
  7  8  2  0
  8  4  1  0
  9 11  1  0
 10  9  2  0
 11 15  1  0
 12 11  1  0
 12 13  1  0
 13 14  1  0
 15 16  1  1
 15 14  1  0
 16 17  2  0
 19 18  1  6
 19 21  1  0
 19 20  1  0
 21 22  1  1
 22 16  1  0
 23 21  1  0
 24 23  2  0
 25 23  1  0
M  END
$$$$
