HPV.pdb
     RDKit          3D

 25 26  0  0  1  0  0  0  0  0999 V2000
   11.1553  -17.4862   19.5046 N   0  0  0  0  0  0  0  0  0  0  0  0
    9.9753  -17.3525   20.2784 C   0  0  1  0  0  0  0  0  0  0  0  0
    9.6003  -18.6490   21.0035 C   0  0  0  0  0  0  0  0  0  0  0  0
    8.9092  -19.5823   20.0712 C   0  0  0  0  0  0  0  0  0  0  0  0
    8.9346  -20.9531   20.1693 C   0  0  0  0  0  0  0  0  0  0  0  0
    8.2105  -21.4492   19.1705 N   0  0  0  0  0  0  0  0  0  0  0  0
    7.7471  -20.4223   18.4703 C   0  0  0  0  0  0  0  0  0  0  0  0
    8.1638  -19.2645   19.0053 N   0  0  0  0  0  0  0  0  0  0  0  0
    9.9865  -16.2856   21.2903 C   0  0  0  0  0  0  0  0  0  0  0  0
   11.1531  -15.9150   21.6558 O   0  0  0  0  0  0  0  0  0  0  0  0
    8.8213  -15.6860   21.8451 N   0  0  0  0  0  0  0  0  0  0  0  0
    7.4348  -15.9093   21.5208 C   0  0  0  0  0  0  0  0  0  0  0  0
    6.6633  -14.7124   22.0331 C   0  0  0  0  0  0  0  0  0  0  0  0
    7.6968  -13.7578   22.5566 C   0  0  0  0  0  0  0  0  0  0  0  0
    8.8391  -14.6918   22.8896 C   0  0  1  0  0  0  0  0  0  0  0  0
    8.6049  -15.2273   24.2386 C   0  0  0  0  0  0  0  0  0  0  0  0
    8.1594  -16.4001   24.3261 O   0  0  0  0  0  0  0  0  0  0  0  0
    8.9187  -13.1614   27.9939 C   0  0  0  0  0  0  0  0  0  0  0  0
   10.0808  -13.9523   27.4987 C   0  0  1  0  0  0  0  0  0  0  0  0
   10.7236  -14.6477   28.6807 C   0  0  0  0  0  0  0  0  0  0  0  0
    9.7135  -15.0124   26.4950 C   0  0  2  0  0  0  0  0  0  0  0  0
    8.8389  -14.5312   25.4561 N   0  0  0  0  0  0  0  0  0  0  0  0
    9.0387  -16.1196   27.2125 C   0  0  0  0  0  0  0  0  0  0  0  0
    7.7981  -16.3165   27.0865 O   0  0  0  0  0  0  0  0  0  0  0  0
    9.8026  -16.9396   28.0297 O   0  0  0  0  0  0  0  0  0  0  0  0
  2  9  1  0
  2  1  1  1
  3  2  1  0
  4  3  1  0
  5  4  2  0
  6  5  1  0
  7  6  1  0
  7  8  2  0
  8  4  1  0
  9 11  1  0
 10  9  2  0
 11 15  1  0
 12 11  1  0
 12 13  1  0
 13 14  1  0
 15 16  1  1
 15 14  1  0
 16 17  2  0
 19 18  1  1
 19 21  1  0
 19 20  1  0
 21 22  1  6
 22 16  1  0
 23 21  1  0
 24 23  2  0
 25 23  1  0
M  END
$$$$
