HPV.pdb
     RDKit          3D

 25 26  0  0  1  0  0  0  0  0999 V2000
   11.5157  -13.5422   18.5000 N   0  0  0  0  0  0  0  0  0  0  0  0
   10.3148  -13.9287   19.1462 C   0  0  1  0  0  0  0  0  0  0  0  0
    9.6723  -15.1604   18.5001 C   0  0  0  0  0  0  0  0  0  0  0  0
    9.1208  -14.8141   17.1608 C   0  0  0  0  0  0  0  0  0  0  0  0
    9.1324  -13.5560   16.6074 C   0  0  0  0  0  0  0  0  0  0  0  0
    8.5575  -13.6290   15.4107 N   0  0  0  0  0  0  0  0  0  0  0  0
    8.1980  -14.8917   15.2214 C   0  0  0  0  0  0  0  0  0  0  0  0
    8.5342  -15.6387   16.2840 N   0  0  0  0  0  0  0  0  0  0  0  0
   10.4196  -14.2080   20.5861 C   0  0  0  0  0  0  0  0  0  0  0  0
   11.6127  -14.1950   21.0423 O   0  0  0  0  0  0  0  0  0  0  0  0
    9.3130  -14.4758   21.4398 N   0  0  0  0  0  0  0  0  0  0  0  0
    7.9100  -14.5581   21.1202 C   0  0  0  0  0  0  0  0  0  0  0  0
    7.1507  -14.3831   22.4175 C   0  0  0  0  0  0  0  0  0  0  0  0
    8.1903  -14.0853   23.4586 C   0  0  0  0  0  0  0  0  0  0  0  0
    9.4221  -14.7239   22.8562 C   0  0  1  0  0  0  0  0  0  0  0  0
    9.4172  -16.1475   23.2232 C   0  0  0  0  0  0  0  0  0  0  0  0
    8.4952  -16.8626   22.7541 O   0  0  0  0  0  0  0  0  0  0  0  0
   12.0657  -18.4098   22.1642 C   0  0  0  0  0  0  0  0  0  0  0  0
   11.8589  -18.6897   23.6134 C   0  0  1  0  0  0  0  0  0  0  0  0
   12.9416  -17.9768   24.3966 C   0  0  0  0  0  0  0  0  0  0  0  0
   10.5316  -18.2162   24.1425 C   0  0  2  0  0  0  0  0  0  0  0  0
   10.3675  -16.7869   24.0657 N   0  0  0  0  0  0  0  0  0  0  0  0
   10.4189  -18.6344   25.5598 C   0  0  0  0  0  0  0  0  0  0  0  0
   10.4811  -17.7886   26.4949 O   0  0  0  0  0  0  0  0  0  0  0  0
   10.2429  -19.9815   25.8390 O   0  0  0  0  0  0  0  0  0  0  0  0
  2  9  1  0
  2  1  1  6
  3  2  1  0
  4  3  1  0
  5  4  2  0
  6  5  1  0
  7  6  1  0
  7  8  2  0
  8  4  1  0
  9 11  1  0
 10  9  2  0
 11 15  1  0
 12 11  1  0
 12 13  1  0
 13 14  1  0
 15 16  1  6
 15 14  1  0
 16 17  2  0
 19 18  1  6
 19 21  1  0
 19 20  1  0
 21 22  1  1
 22 16  1  0
 23 21  1  0
 24 23  2  0
 25 23  1  0
M  END
$$$$
