HPV.pdb
     RDKit          3D

 25 26  0  0  1  0  0  0  0  0999 V2000
    9.7211  -15.4647   20.5141 N   0  0  0  0  0  0  0  0  0  0  0  0
    8.6533  -15.3538   21.4396 C   0  0  1  0  0  0  0  0  0  0  0  0
    7.8809  -16.6668   21.6028 C   0  0  0  0  0  0  0  0  0  0  0  0
    7.5062  -17.2160   20.2702 C   0  0  0  0  0  0  0  0  0  0  0  0
    6.6814  -16.5904   19.3660 C   0  0  0  0  0  0  0  0  0  0  0  0
    6.5763  -17.3735   18.2966 N   0  0  0  0  0  0  0  0  0  0  0  0
    7.3114  -18.4539   18.5242 C   0  0  0  0  0  0  0  0  0  0  0  0
    7.8926  -18.3792   19.7313 N   0  0  0  0  0  0  0  0  0  0  0  0
    9.0169  -14.9019   22.7910 C   0  0  0  0  0  0  0  0  0  0  0  0
   10.2630  -14.9860   23.0597 O   0  0  0  0  0  0  0  0  0  0  0  0
    8.0931  -14.4052   23.7527 N   0  0  0  0  0  0  0  0  0  0  0  0
    6.6571  -14.3080   23.6766 C   0  0  0  0  0  0  0  0  0  0  0  0
    6.2272  -13.2983   24.7187 C   0  0  0  0  0  0  0  0  0  0  0  0
    7.4979  -12.7516   25.3018 C   0  0  0  0  0  0  0  0  0  0  0  0
    8.4677  -13.8834   25.0438 C   0  0  1  0  0  0  0  0  0  0  0  0
    8.3394  -14.8473   26.1464 C   0  0  0  0  0  0  0  0  0  0  0  0
    7.6512  -15.8786   25.9359 O   0  0  0  0  0  0  0  0  0  0  0  0
   10.0329  -13.9496   29.8894 C   0  0  0  0  0  0  0  0  0  0  0  0
   10.9014  -14.6481   28.9000 C   0  0  1  0  0  0  0  0  0  0  0  0
   11.7459  -15.6647   29.6397 C   0  0  0  0  0  0  0  0  0  0  0  0
   10.1383  -15.3851   27.8320 C   0  0  2  0  0  0  0  0  0  0  0  0
    8.9277  -14.7131   27.4339 N   0  0  0  0  0  0  0  0  0  0  0  0
    9.7902  -16.7287   28.3511 C   0  0  0  0  0  0  0  0  0  0  0  0
    8.5872  -17.0631   28.5372 O   0  0  0  0  0  0  0  0  0  0  0  0
   10.8191  -17.6161   28.6298 O   0  0  0  0  0  0  0  0  0  0  0  0
  2  9  1  0
  2  1  1  6
  3  2  1  0
  4  3  1  0
  5  4  2  0
  6  5  1  0
  7  6  1  0
  7  8  2  0
  8  4  1  0
  9 11  1  0
 10  9  2  0
 11 15  1  0
 12 11  1  0
 12 13  1  0
 13 14  1  0
 15 16  1  1
 15 14  1  0
 16 17  2  0
 19 18  1  1
 19 21  1  0
 19 20  1  0
 21 22  1  1
 22 16  1  0
 23 21  1  0
 24 23  2  0
 25 23  1  0
M  END
$$$$
