HPV.pdb
     RDKit          3D

 25 26  0  0  1  0  0  0  0  0999 V2000
   11.5668  -16.7784   19.9158 N   0  0  0  0  0  0  0  0  0  0  0  0
   10.3670  -16.8976   20.6611 C   0  0  1  0  0  0  0  0  0  0  0  0
   10.0647  -18.3465   21.0567 C   0  0  0  0  0  0  0  0  0  0  0  0
    9.6517  -19.1339   19.8620 C   0  0  0  0  0  0  0  0  0  0  0  0
    8.8157  -18.6779   18.8708 C   0  0  0  0  0  0  0  0  0  0  0  0
    8.6747  -19.6494   17.9741 N   0  0  0  0  0  0  0  0  0  0  0  0
    9.3990  -20.6798   18.3906 C   0  0  0  0  0  0  0  0  0  0  0  0
   10.0086  -20.3859   19.5492 N   0  0  0  0  0  0  0  0  0  0  0  0
   10.2906  -16.0947   21.8908 C   0  0  0  0  0  0  0  0  0  0  0  0
   11.4204  -15.6946   22.3327 O   0  0  0  0  0  0  0  0  0  0  0  0
    9.0825  -15.7657   22.5671 N   0  0  0  0  0  0  0  0  0  0  0  0
    7.7327  -16.1842   22.2842 C   0  0  0  0  0  0  0  0  0  0  0  0
    6.8119  -15.1988   22.9707 C   0  0  0  0  0  0  0  0  0  0  0  0
    7.7082  -14.1456   23.5546 C   0  0  0  0  0  0  0  0  0  0  0  0
    9.0071  -14.9030   23.7201 C   0  0  1  0  0  0  0  0  0  0  0  0
    8.9534  -15.6144   25.0055 C   0  0  0  0  0  0  0  0  0  0  0  0
    8.7213  -16.8500   24.9735 O   0  0  0  0  0  0  0  0  0  0  0  0
   11.1518  -13.1935   27.5538 C   0  0  0  0  0  0  0  0  0  0  0  0
   10.5489  -14.3930   28.2009 C   0  0  1  0  0  0  0  0  0  0  0  0
    9.3089  -13.9570   28.9535 C   0  0  0  0  0  0  0  0  0  0  0  0
   10.1349  -15.4663   27.2301 C   0  0  2  0  0  0  0  0  0  0  0  0
    9.1412  -15.0240   26.2853 N   0  0  0  0  0  0  0  0  0  0  0  0
    9.5862  -16.6062   28.0018 C   0  0  0  0  0  0  0  0  0  0  0  0
    8.3644  -16.9150   27.9271 O   0  0  0  0  0  0  0  0  0  0  0  0
   10.4474  -17.3308   28.8123 O   0  0  0  0  0  0  0  0  0  0  0  0
  2  9  1  0
  2  1  1  1
  3  2  1  0
  4  3  1  0
  5  4  2  0
  6  5  1  0
  7  6  1  0
  7  8  2  0
  8  4  1  0
  9 11  1  0
 10  9  2  0
 11 15  1  0
 12 11  1  0
 12 13  1  0
 13 14  1  0
 15 16  1  1
 15 14  1  0
 16 17  2  0
 19 18  1  6
 19 21  1  0
 19 20  1  0
 21 22  1  6
 22 16  1  0
 23 21  1  0
 24 23  2  0
 25 23  1  0
M  END
$$$$
