HPV.pdb
     RDKit          3D

 25 26  0  0  1  0  0  0  0  0999 V2000
   10.3066  -14.7641   20.5198 N   0  0  0  0  0  0  0  0  0  0  0  0
    9.2253  -14.2441   21.2744 C   0  0  1  0  0  0  0  0  0  0  0  0
    7.8693  -14.5042   20.6106 C   0  0  0  0  0  0  0  0  0  0  0  0
    7.9450  -14.2219   19.1503 C   0  0  0  0  0  0  0  0  0  0  0  0
    8.0884  -12.9714   18.5981 C   0  0  0  0  0  0  0  0  0  0  0  0
    8.1177  -13.1079   17.2758 N   0  0  0  0  0  0  0  0  0  0  0  0
    7.9965  -14.4017   17.0094 C   0  0  0  0  0  0  0  0  0  0  0  0
    7.8889  -15.1060   18.1464 N   0  0  0  0  0  0  0  0  0  0  0  0
    9.1200  -14.7213   22.6614 C   0  0  0  0  0  0  0  0  0  0  0  0
    9.9302  -15.6626   22.9602 O   0  0  0  0  0  0  0  0  0  0  0  0
    8.2075  -14.2081   23.6252 N   0  0  0  0  0  0  0  0  0  0  0  0
    6.8527  -13.7490   23.4487 C   0  0  0  0  0  0  0  0  0  0  0  0
    6.5199  -12.8850   24.6457 C   0  0  0  0  0  0  0  0  0  0  0  0
    7.7889  -12.7895   25.4420 C   0  0  0  0  0  0  0  0  0  0  0  0
    8.5096  -14.0529   25.0267 C   0  0  1  0  0  0  0  0  0  0  0  0
    8.0223  -15.1497   25.8758 C   0  0  0  0  0  0  0  0  0  0  0  0
    7.1127  -15.8821   25.4092 O   0  0  0  0  0  0  0  0  0  0  0  0
    9.4593  -13.6532   28.9123 C   0  0  0  0  0  0  0  0  0  0  0  0
   10.4532  -14.6553   28.4337 C   0  0  1  0  0  0  0  0  0  0  0  0
   11.0071  -15.3906   29.6365 C   0  0  0  0  0  0  0  0  0  0  0  0
    9.8784  -15.6856   27.4988 C   0  0  2  0  0  0  0  0  0  0  0  0
    8.4919  -15.4541   27.1828 N   0  0  0  0  0  0  0  0  0  0  0  0
   10.0070  -17.0170   28.1368 C   0  0  0  0  0  0  0  0  0  0  0  0
    8.9862  -17.6973   28.4349 O   0  0  0  0  0  0  0  0  0  0  0  0
   11.2789  -17.5028   28.4009 O   0  0  0  0  0  0  0  0  0  0  0  0
  2  9  1  0
  2  1  1  6
  3  2  1  0
  4  3  1  0
  5  4  2  0
  6  5  1  0
  7  6  1  0
  7  8  2  0
  8  4  1  0
  9 11  1  0
 10  9  2  0
 11 15  1  0
 12 11  1  0
 12 13  1  0
 13 14  1  0
 15 16  1  1
 15 14  1  0
 16 17  2  0
 19 18  1  1
 19 21  1  0
 19 20  1  0
 21 22  1  1
 22 16  1  0
 23 21  1  0
 24 23  2  0
 25 23  1  0
M  END
$$$$
