HPV.pdb
     RDKit          3D

 25 26  0  0  1  0  0  0  0  0999 V2000
   10.4282  -16.0865   20.2069 N   0  0  0  0  0  0  0  0  0  0  0  0
   10.0185  -17.0044   21.2063 C   0  0  1  0  0  0  0  0  0  0  0  0
   11.0552  -18.1057   21.4503 C   0  0  0  0  0  0  0  0  0  0  0  0
   11.3005  -18.8725   20.1975 C   0  0  0  0  0  0  0  0  0  0  0  0
   12.2867  -18.5890   19.2829 C   0  0  0  0  0  0  0  0  0  0  0  0
   12.2025  -19.4801   18.2995 N   0  0  0  0  0  0  0  0  0  0  0  0
   11.1964  -20.2945   18.5894 C   0  0  0  0  0  0  0  0  0  0  0  0
   10.6270  -19.9404   19.7516 N   0  0  0  0  0  0  0  0  0  0  0  0
    9.6945  -16.4251   22.5185 C   0  0  0  0  0  0  0  0  0  0  0  0
   10.2322  -15.2883   22.7426 O   0  0  0  0  0  0  0  0  0  0  0  0
    8.8572  -17.0424   23.4896 N   0  0  0  0  0  0  0  0  0  0  0  0
    8.2999  -18.3715   23.5048 C   0  0  0  0  0  0  0  0  0  0  0  0
    7.1358  -18.3511   24.4714 C   0  0  0  0  0  0  0  0  0  0  0  0
    6.9972  -16.9217   24.9089 C   0  0  0  0  0  0  0  0  0  0  0  0
    8.3993  -16.3962   24.6947 C   0  0  1  0  0  0  0  0  0  0  0  0
    9.1894  -16.7189   25.8918 C   0  0  0  0  0  0  0  0  0  0  0  0
    9.9249  -17.7377   25.8422 O   0  0  0  0  0  0  0  0  0  0  0  0
   10.3709  -13.3293   27.8378 C   0  0  0  0  0  0  0  0  0  0  0  0
   10.3765  -14.5376   28.7102 C   0  0  1  0  0  0  0  0  0  0  0  0
    9.1435  -14.4980   29.5888 C   0  0  0  0  0  0  0  0  0  0  0  0
   10.3500  -15.8375   27.9516 C   0  0  2  0  0  0  0  0  0  0  0  0
    9.1930  -15.9763   27.1044 N   0  0  0  0  0  0  0  0  0  0  0  0
   10.3605  -16.9491   28.9316 C   0  0  0  0  0  0  0  0  0  0  0  0
    9.3559  -17.7001   29.0748 O   0  0  0  0  0  0  0  0  0  0  0  0
   11.5030  -17.1484   29.6921 O   0  0  0  0  0  0  0  0  0  0  0  0
  2  9  1  0
  2  1  1  6
  3  2  1  0
  4  3  1  0
  5  4  2  0
  6  5  1  0
  7  6  1  0
  7  8  2  0
  8  4  1  0
  9 11  1  0
 10  9  2  0
 11 15  1  0
 12 11  1  0
 12 13  1  0
 13 14  1  0
 15 16  1  1
 15 14  1  0
 16 17  2  0
 19 18  1  6
 19 21  1  0
 19 20  1  0
 21 22  1  1
 22 16  1  0
 23 21  1  0
 24 23  2  0
 25 23  1  0
M  END
$$$$
