HPV.pdb
     RDKit          3D

 25 26  0  0  1  0  0  0  0  0999 V2000
    9.9700  -14.4469   21.0643 N   0  0  0  0  0  0  0  0  0  0  0  0
    8.8101  -14.0821   21.7928 C   0  0  1  0  0  0  0  0  0  0  0  0
    7.5183  -14.5149   21.0920 C   0  0  0  0  0  0  0  0  0  0  0  0
    7.5890  -14.2033   19.6374 C   0  0  0  0  0  0  0  0  0  0  0  0
    7.7874  -12.9491   19.1111 C   0  0  0  0  0  0  0  0  0  0  0  0
    7.7925  -13.0566   17.7858 N   0  0  0  0  0  0  0  0  0  0  0  0
    7.6034  -14.3364   17.4925 C   0  0  0  0  0  0  0  0  0  0  0  0
    7.4756  -15.0603   18.6149 N   0  0  0  0  0  0  0  0  0  0  0  0
    8.7340  -14.5810   23.1740 C   0  0  0  0  0  0  0  0  0  0  0  0
    9.5724  -15.5044   23.4502 O   0  0  0  0  0  0  0  0  0  0  0  0
    7.8197  -14.1057   24.1554 N   0  0  0  0  0  0  0  0  0  0  0  0
    6.4890  -13.5784   23.9867 C   0  0  0  0  0  0  0  0  0  0  0  0
    6.1622  -12.7956   25.2400 C   0  0  0  0  0  0  0  0  0  0  0  0
    7.4144  -12.8142   26.0676 C   0  0  0  0  0  0  0  0  0  0  0  0
    8.0940  -14.0710   25.5708 C   0  0  1  0  0  0  0  0  0  0  0  0
    7.5431  -15.2084   26.3218 C   0  0  0  0  0  0  0  0  0  0  0  0
    6.3077  -15.4225   26.2237 O   0  0  0  0  0  0  0  0  0  0  0  0
   10.0570  -14.9082   29.8276 C   0  0  0  0  0  0  0  0  0  0  0  0
    9.8334  -14.6227   28.3821 C   0  0  1  0  0  0  0  0  0  0  0  0
   11.0387  -13.8751   27.8509 C   0  0  0  0  0  0  0  0  0  0  0  0
    9.6574  -15.8560   27.5371 C   0  0  2  0  0  0  0  0  0  0  0  0
    8.2888  -16.0893   27.1522 N   0  0  0  0  0  0  0  0  0  0  0  0
   10.1417  -17.0236   28.3105 C   0  0  0  0  0  0  0  0  0  0  0  0
    9.3356  -17.8788   28.7716 O   0  0  0  0  0  0  0  0  0  0  0  0
   11.5064  -17.1582   28.5182 O   0  0  0  0  0  0  0  0  0  0  0  0
  2  9  1  0
  2  1  1  6
  3  2  1  0
  4  3  1  0
  5  4  2  0
  6  5  1  0
  7  6  1  0
  7  8  2  0
  8  4  1  0
  9 11  1  0
 10  9  2  0
 11 15  1  0
 12 11  1  0
 12 13  1  0
 13 14  1  0
 15 16  1  1
 15 14  1  0
 16 17  2  0
 19 18  1  1
 19 21  1  0
 19 20  1  0
 21 22  1  1
 22 16  1  0
 23 21  1  0
 24 23  2  0
 25 23  1  0
M  END
$$$$
