GAA.pdb
     RDKit          3D

 15 14  0  0  1  0  0  0  0  0999 V2000
   19.8977  -12.5037  -18.3112 N   0  0  0  0  0  0  0  0  0  0  0  0
   20.8680  -11.4504  -18.3003 C   0  0  0  0  0  0  0  0  0  0  0  0
   20.9242  -10.7550  -16.9998 C   0  0  0  0  0  0  0  0  0  0  0  0
   19.9076  -10.2357  -16.4416 O   0  0  0  0  0  0  0  0  0  0  0  0
   23.5884  -10.3065  -14.3427 C   0  0  0  0  0  0  0  0  0  0  0  0
   22.3102   -9.9328  -15.0827 C   0  0  2  0  0  0  0  0  0  0  0  0
   22.1524  -10.6389  -16.3068 N   0  0  0  0  0  0  0  0  0  0  0  0
   22.3048   -8.4608  -15.2287 C   0  0  0  0  0  0  0  0  0  0  0  0
   23.0376   -7.9310  -16.0991 O   0  0  0  0  0  0  0  0  0  0  0  0
   19.9984   -5.6614  -14.5889 C   0  0  0  0  0  0  0  0  0  0  0  0
   21.4267   -6.1487  -14.7017 C   0  0  2  0  0  0  0  0  0  0  0  0
   21.5213   -7.5758  -14.4477 N   0  0  0  0  0  0  0  0  0  0  0  0
   22.2077   -5.4691  -13.6433 C   0  0  0  0  0  0  0  0  0  0  0  0
   22.4434   -4.2468  -13.7728 O   0  0  0  0  0  0  0  0  0  0  0  0
   22.6898   -6.1133  -12.5208 O   0  0  0  0  0  0  0  0  0  0  0  0
  2  3  1  0
  2  1  1  0
  3  7  1  0
  4  3  2  0
  6  5  1  6
  7  6  1  0
  8  6  1  0
  8 12  1  0
  9  8  2  0
 11 10  1  1
 11 12  1  0
 11 13  1  0
 13 15  1  0
 14 13  2  0
M  END
$$$$
