GAA.pdb
     RDKit          3D

 15 14  0  0  1  0  0  0  0  0999 V2000
   17.0837  -11.4734  -11.7998 N   0  0  0  0  0  0  0  0  0  0  0  0
   17.3432  -10.5778  -10.7128 C   0  0  0  0  0  0  0  0  0  0  0  0
   16.4870   -9.3767  -10.7611 C   0  0  0  0  0  0  0  0  0  0  0  0
   15.7630   -9.0755  -11.7610 O   0  0  0  0  0  0  0  0  0  0  0  0
   15.3926   -6.8268   -8.1882 C   0  0  0  0  0  0  0  0  0  0  0  0
   15.6234   -7.3279   -9.6082 C   0  0  2  0  0  0  0  0  0  0  0  0
   16.4412   -8.4899   -9.6593 N   0  0  0  0  0  0  0  0  0  0  0  0
   16.1431   -6.1877  -10.3944 C   0  0  0  0  0  0  0  0  0  0  0  0
   17.3467   -5.8560  -10.2662 O   0  0  0  0  0  0  0  0  0  0  0  0
   15.0352   -4.1281  -13.3586 C   0  0  0  0  0  0  0  0  0  0  0  0
   15.9429   -4.4090  -12.1807 C   0  0  2  0  0  0  0  0  0  0  0  0
   15.3758   -5.4187  -11.3038 N   0  0  0  0  0  0  0  0  0  0  0  0
   16.0405   -3.1589  -11.3933 C   0  0  0  0  0  0  0  0  0  0  0  0
   15.3716   -3.0684  -10.3395 O   0  0  0  0  0  0  0  0  0  0  0  0
   16.8310   -2.0877  -11.7608 O   0  0  0  0  0  0  0  0  0  0  0  0
  2  3  1  0
  2  1  1  0
  3  7  1  0
  4  3  2  0
  6  5  1  1
  7  6  1  0
  8  6  1  0
  8 12  1  0
  9  8  2  0
 11 10  1  6
 11 12  1  0
 11 13  1  0
 13 15  1  0
 14 13  2  0
M  END
$$$$
