GAA.pdb
     RDKit          3D

 15 14  0  0  1  0  0  0  0  0999 V2000
   17.0283  -14.4942  -14.8305 N   0  0  0  0  0  0  0  0  0  0  0  0
   16.4982  -13.2142  -15.1935 C   0  0  0  0  0  0  0  0  0  0  0  0
   17.5273  -12.3246  -15.7659 C   0  0  0  0  0  0  0  0  0  0  0  0
   18.7474  -12.6575  -15.8889 O   0  0  0  0  0  0  0  0  0  0  0  0
   17.4365   -8.9986  -17.5711 C   0  0  0  0  0  0  0  0  0  0  0  0
   18.1074  -10.1007  -16.7610 C   0  0  2  0  0  0  0  0  0  0  0  0
   17.1793  -11.0277  -16.2122 N   0  0  0  0  0  0  0  0  0  0  0  0
   18.9690   -9.4408  -15.7558 C   0  0  0  0  0  0  0  0  0  0  0  0
   18.5019   -9.1979  -14.6165 O   0  0  0  0  0  0  0  0  0  0  0  0
   22.6256   -8.5298  -15.3585 C   0  0  0  0  0  0  0  0  0  0  0  0
   21.1709   -8.5002  -14.9424 C   0  0  2  0  0  0  0  0  0  0  0  0
   20.3125   -9.0497  -15.9775 N   0  0  0  0  0  0  0  0  0  0  0  0
   20.7904   -7.0790  -14.7756 C   0  0  0  0  0  0  0  0  0  0  0  0
   20.1089   -6.5383  -15.6753 O   0  0  0  0  0  0  0  0  0  0  0  0
   21.1481   -6.3190  -13.6793 O   0  0  0  0  0  0  0  0  0  0  0  0
  2  3  1  0
  2  1  1  0
  3  7  1  0
  4  3  2  0
  6  5  1  1
  7  6  1  0
  8  6  1  0
  8 12  1  0
  9  8  2  0
 11 10  1  6
 11 12  1  0
 11 13  1  0
 13 15  1  0
 14 13  2  0
M  END
$$$$
