GAA.pdb
     RDKit          3D

 15 14  0  0  1  0  0  0  0  0999 V2000
   18.0774  -12.3035  -16.7631 N   0  0  0  0  0  0  0  0  0  0  0  0
   19.2720  -11.5920  -17.1064 C   0  0  0  0  0  0  0  0  0  0  0  0
   19.7157  -10.6897  -16.0260 C   0  0  0  0  0  0  0  0  0  0  0  0
   18.9171   -9.9837  -15.3344 O   0  0  0  0  0  0  0  0  0  0  0  0
   23.0436  -10.0202  -14.3315 C   0  0  0  0  0  0  0  0  0  0  0  0
   21.6115   -9.6884  -14.7316 C   0  0  2  0  0  0  0  0  0  0  0  0
   21.0910  -10.5761  -15.7129 N   0  0  0  0  0  0  0  0  0  0  0  0
   21.5887   -8.2644  -15.1314 C   0  0  0  0  0  0  0  0  0  0  0  0
   21.9579   -7.9494  -16.2888 O   0  0  0  0  0  0  0  0  0  0  0  0
   19.7062   -5.2402  -14.4106 C   0  0  0  0  0  0  0  0  0  0  0  0
   21.0632   -5.8214  -14.7437 C   0  0  2  0  0  0  0  0  0  0  0  0
   21.1742   -7.1986  -14.2951 N   0  0  0  0  0  0  0  0  0  0  0  0
   22.0722   -5.0402  -13.9928 C   0  0  0  0  0  0  0  0  0  0  0  0
   22.5135   -5.5154  -12.9225 O   0  0  0  0  0  0  0  0  0  0  0  0
   22.5519   -3.8147  -14.4117 O   0  0  0  0  0  0  0  0  0  0  0  0
  2  3  1  0
  2  1  1  0
  3  7  1  0
  4  3  2  0
  6  5  1  6
  7  6  1  0
  8  6  1  0
  8 12  1  0
  9  8  2  0
 11 10  1  1
 11 12  1  0
 11 13  1  0
 13 15  1  0
 14 13  2  0
M  END
$$$$
