GAA.pdb
     RDKit          3D

 15 14  0  0  1  0  0  0  0  0999 V2000
   16.2328  -12.0758  -14.8685 N   0  0  0  0  0  0  0  0  0  0  0  0
   16.0655  -10.6629  -15.0326 C   0  0  0  0  0  0  0  0  0  0  0  0
   17.2949  -10.0068  -15.5187 C   0  0  0  0  0  0  0  0  0  0  0  0
   18.4023  -10.6145  -15.6568 O   0  0  0  0  0  0  0  0  0  0  0  0
   18.0618   -6.6244  -17.0365 C   0  0  0  0  0  0  0  0  0  0  0  0
   18.4226   -7.9180  -16.3172 C   0  0  2  0  0  0  0  0  0  0  0  0
   17.2824   -8.6333  -15.8589 N   0  0  0  0  0  0  0  0  0  0  0  0
   19.3870   -7.5701  -15.2508 C   0  0  0  0  0  0  0  0  0  0  0  0
   18.9537   -7.2340  -14.1219 O   0  0  0  0  0  0  0  0  0  0  0  0
   23.0985   -7.8160  -14.5968 C   0  0  0  0  0  0  0  0  0  0  0  0
   21.7215   -7.2458  -14.3345 C   0  0  2  0  0  0  0  0  0  0  0  0
   20.7956   -7.5851  -15.4011 N   0  0  0  0  0  0  0  0  0  0  0  0
   21.8505   -5.7708  -14.3277 C   0  0  0  0  0  0  0  0  0  0  0  0
   22.4553   -5.2331  -13.3730 O   0  0  0  0  0  0  0  0  0  0  0  0
   21.3387   -4.9575  -15.3196 O   0  0  0  0  0  0  0  0  0  0  0  0
  2  3  1  0
  2  1  1  0
  3  7  1  0
  4  3  2  0
  6  5  1  1
  7  6  1  0
  8  6  1  0
  8 12  1  0
  9  8  2  0
 11 10  1  6
 11 12  1  0
 11 13  1  0
 13 15  1  0
 14 13  2  0
M  END
$$$$
