SDH.pdb
     RDKit          3D

 25 25  0  0  1  0  0  0  0  0999 V2000
    8.2888  -14.4059   16.2562 O   0  0  0  0  0  0  0  0  0  0  0  0
    9.4734  -14.6145   15.5502 C   0  0  0  0  0  0  0  0  0  0  0  0
    9.5802  -16.1098   15.3028 C   0  0  2  0  0  0  0  0  0  0  0  0
    8.3414  -16.5988   14.7373 N   0  0  0  0  0  0  0  0  0  0  0  0
    9.7960  -16.7898   16.6041 C   0  0  0  0  0  0  0  0  0  0  0  0
    8.8207  -17.3045   17.2049 O   0  0  0  0  0  0  0  0  0  0  0  0
   11.0453  -16.9042   17.2317 N   0  0  0  0  0  0  0  0  0  0  0  0
   11.2579  -17.6163   18.5114 C   0  0  1  0  0  0  0  0  0  0  0  0
   12.6345  -18.1779   18.4110 C   0  0  0  0  0  0  0  0  0  0  0  0
   13.0294  -19.1522   19.4166 C   0  0  0  0  0  0  0  0  0  0  0  0
   14.1686  -19.4405   19.8145 O   0  0  0  0  0  0  0  0  0  0  0  0
   11.0530  -16.6671   19.6345 C   0  0  0  0  0  0  0  0  0  0  0  0
   11.7079  -15.6028   19.6485 O   0  0  0  0  0  0  0  0  0  0  0  0
   11.9791  -19.8713   20.0268 O   0  0  0  0  0  0  0  0  0  0  0  0
   10.1587  -16.8949   20.6930 N   0  0  0  0  0  0  0  0  0  0  0  0
   10.0572  -15.9641   21.8172 C   0  0  1  0  0  0  0  0  0  0  0  0
    8.6603  -15.4433   21.9583 C   0  0  0  0  0  0  0  0  0  0  0  0
    8.3651  -14.4961   20.8620 C   0  0  0  0  0  0  0  0  0  0  0  0
    9.1939  -14.0312   19.8564 C   0  0  0  0  0  0  0  0  0  0  0  0
    8.4808  -13.1730   19.1124 N   0  0  0  0  0  0  0  0  0  0  0  0
    7.2244  -13.0770   19.6129 C   0  0  0  0  0  0  0  0  0  0  0  0
    7.1568  -13.8829   20.6772 N   0  0  0  0  0  0  0  0  0  0  0  0
   10.6023  -16.5959   23.0162 C   0  0  0  0  0  0  0  0  0  0  0  0
   10.9087  -17.8304   22.9660 O   0  0  0  0  0  0  0  0  0  0  0  0
   10.7988  -15.9131   24.1924 O   0  0  0  0  0  0  0  0  0  0  0  0
  2  3  1  0
  2  1  1  0
  3  4  1  1
  5  3  1  0
  6  5  2  0
  7  5  1  0
  8 12  1  0
  8  7  1  0
  8  9  1  6
 10  9  1  0
 10 11  2  0
 12 15  1  0
 13 12  2  0
 14 10  1  0
 15 16  1  0
 16 17  1  1
 16 23  1  0
 18 17  1  0
 19 18  2  0
 20 19  1  0
 21 20  1  0
 21 22  2  0
 22 18  1  0
 23 24  2  0
 23 25  1  0
M  END
$$$$
