SDH.pdb
     RDKit          3D

 25 25  0  0  1  0  0  0  0  0999 V2000
   12.4288  -14.3985   17.1799 O   0  0  0  0  0  0  0  0  0  0  0  0
   12.7967  -15.6628   16.7200 C   0  0  0  0  0  0  0  0  0  0  0  0
   11.5146  -16.4619   16.5581 C   0  0  2  0  0  0  0  0  0  0  0  0
   10.5574  -15.6951   15.7904 N   0  0  0  0  0  0  0  0  0  0  0  0
   10.9387  -16.7088   17.9033 C   0  0  0  0  0  0  0  0  0  0  0  0
    9.7970  -16.2651   18.1808 O   0  0  0  0  0  0  0  0  0  0  0  0
   11.5935  -17.4222   18.9181 N   0  0  0  0  0  0  0  0  0  0  0  0
   10.9319  -17.8698   20.1637 C   0  0  1  0  0  0  0  0  0  0  0  0
   11.7824  -18.9850   20.6676 C   0  0  0  0  0  0  0  0  0  0  0  0
   11.2645  -19.7642   21.7816 C   0  0  0  0  0  0  0  0  0  0  0  0
   10.0842  -19.9821   22.0956 O   0  0  0  0  0  0  0  0  0  0  0  0
   10.8071  -16.7151   21.0886 C   0  0  0  0  0  0  0  0  0  0  0  0
   11.8246  -16.0348   21.3408 O   0  0  0  0  0  0  0  0  0  0  0  0
   12.2302  -20.3557   22.6242 O   0  0  0  0  0  0  0  0  0  0  0  0
    9.6026  -16.3369   21.7036 N   0  0  0  0  0  0  0  0  0  0  0  0
    9.5249  -15.1551   22.5625 C   0  0  1  0  0  0  0  0  0  0  0  0
    8.3169  -14.3326   22.2357 C   0  0  0  0  0  0  0  0  0  0  0  0
    8.3987  -13.8547   20.8388 C   0  0  0  0  0  0  0  0  0  0  0  0
    7.4052  -13.7727   19.8793 C   0  0  0  0  0  0  0  0  0  0  0  0
    7.9669  -13.2953   18.7590 N   0  0  0  0  0  0  0  0  0  0  0  0
    9.2864  -13.0709   18.9752 C   0  0  0  0  0  0  0  0  0  0  0  0
    9.5464  -13.4121   20.2412 N   0  0  0  0  0  0  0  0  0  0  0  0
    9.6284  -15.5677   23.9600 C   0  0  0  0  0  0  0  0  0  0  0  0
    9.6609  -16.8125   24.2245 O   0  0  0  0  0  0  0  0  0  0  0  0
    9.6938  -14.6692   24.9975 O   0  0  0  0  0  0  0  0  0  0  0  0
  2  3  1  0
  2  1  1  0
  3  4  1  6
  5  3  1  0
  6  5  2  0
  7  5  1  0
  8 12  1  0
  8  7  1  0
  8  9  1  1
 10  9  1  0
 10 11  2  0
 12 15  1  0
 13 12  2  0
 14 10  1  0
 15 16  1  0
 16 17  1  1
 16 23  1  0
 18 17  1  0
 19 18  2  0
 20 19  1  0
 21 20  1  0
 21 22  2  0
 22 18  1  0
 23 24  2  0
 23 25  1  0
M  END
$$$$
