SDH.pdb
     RDKit          3D

 25 25  0  0  1  0  0  0  0  0999 V2000
    8.5532  -12.0896   18.6567 O   0  0  0  0  0  0  0  0  0  0  0  0
    8.5061  -12.9759   19.7325 C   0  0  0  0  0  0  0  0  0  0  0  0
    8.3423  -14.3687   19.1478 C   0  0  2  0  0  0  0  0  0  0  0  0
    7.0185  -14.5050   18.5798 N   0  0  0  0  0  0  0  0  0  0  0  0
    8.4811  -15.3603   20.2431 C   0  0  0  0  0  0  0  0  0  0  0  0
    7.4603  -15.9414   20.6875 O   0  0  0  0  0  0  0  0  0  0  0  0
    9.7037  -15.7076   20.8366 N   0  0  0  0  0  0  0  0  0  0  0  0
    9.8416  -16.7432   21.8846 C   0  0  1  0  0  0  0  0  0  0  0  0
   10.7755  -17.7497   21.3054 C   0  0  0  0  0  0  0  0  0  0  0  0
   11.1444  -18.8762   22.1488 C   0  0  0  0  0  0  0  0  0  0  0  0
   12.2691  -19.3581   22.3541 O   0  0  0  0  0  0  0  0  0  0  0  0
   10.3143  -16.1043   23.1386 C   0  0  0  0  0  0  0  0  0  0  0  0
   11.5126  -16.2393   23.4668 O   0  0  0  0  0  0  0  0  0  0  0  0
   10.0839  -19.5126   22.8292 O   0  0  0  0  0  0  0  0  0  0  0  0
    9.4883  -15.3496   23.9872 N   0  0  0  0  0  0  0  0  0  0  0  0
    9.3709  -15.6634   25.4114 C   0  0  1  0  0  0  0  0  0  0  0  0
    7.9343  -15.7645   25.8221 C   0  0  0  0  0  0  0  0  0  0  0  0
    7.2725  -14.4524   25.6584 C   0  0  0  0  0  0  0  0  0  0  0  0
    7.8226  -13.2268   25.3275 C   0  0  0  0  0  0  0  0  0  0  0  0
    6.8269  -12.3284   25.3194 N   0  0  0  0  0  0  0  0  0  0  0  0
    5.6606  -12.9436   25.6349 C   0  0  0  0  0  0  0  0  0  0  0  0
    5.9346  -14.2357   25.8406 N   0  0  0  0  0  0  0  0  0  0  0  0
   10.1814  -16.8405   25.7136 C   0  0  0  0  0  0  0  0  0  0  0  0
   10.3383  -17.7189   24.8057 O   0  0  0  0  0  0  0  0  0  0  0  0
   10.7811  -17.0368   26.9342 O   0  0  0  0  0  0  0  0  0  0  0  0
  2  3  1  0
  2  1  1  0
  3  4  1  1
  5  3  1  0
  6  5  2  0
  7  5  1  0
  8 12  1  0
  8  7  1  0
  8  9  1  6
 10  9  1  0
 10 11  2  0
 12 15  1  0
 13 12  2  0
 14 10  1  0
 15 16  1  0
 16 17  1  6
 16 23  1  0
 18 17  1  0
 19 18  2  0
 20 19  1  0
 21 20  1  0
 21 22  2  0
 22 18  1  0
 23 24  2  0
 23 25  1  0
M  END
$$$$
