SDH.pdb
     RDKit          3D

 25 25  0  0  1  0  0  0  0  0999 V2000
    7.7156  -13.7254   20.2109 O   0  0  0  0  0  0  0  0  0  0  0  0
    8.1820  -12.5907   19.5476 C   0  0  0  0  0  0  0  0  0  0  0  0
    8.6732  -13.0489   18.1848 C   0  0  2  0  0  0  0  0  0  0  0  0
    7.5830  -13.6593   17.4550 N   0  0  0  0  0  0  0  0  0  0  0  0
    9.7291  -14.0727   18.3828 C   0  0  0  0  0  0  0  0  0  0  0  0
    9.4719  -15.2812   18.1583 O   0  0  0  0  0  0  0  0  0  0  0  0
   11.0318  -13.7826   18.8146 N   0  0  0  0  0  0  0  0  0  0  0  0
   12.1015  -14.7982   18.9335 C   0  0  1  0  0  0  0  0  0  0  0  0
   13.2653  -14.2126   18.2101 C   0  0  0  0  0  0  0  0  0  0  0  0
   14.4455  -15.0502   18.0625 C   0  0  0  0  0  0  0  0  0  0  0  0
   14.5843  -16.2528   18.3345 O   0  0  0  0  0  0  0  0  0  0  0  0
   12.3413  -15.0842   20.3705 C   0  0  0  0  0  0  0  0  0  0  0  0
   12.8433  -14.1903   21.0851 O   0  0  0  0  0  0  0  0  0  0  0  0
   15.5927  -14.4155   17.5393 O   0  0  0  0  0  0  0  0  0  0  0  0
   12.0351  -16.3108   20.9818 N   0  0  0  0  0  0  0  0  0  0  0  0
   12.3354  -16.5538   22.3929 C   0  0  1  0  0  0  0  0  0  0  0  0
   11.5523  -17.7184   22.9155 C   0  0  0  0  0  0  0  0  0  0  0  0
   11.7835  -17.8666   24.3684 C   0  0  0  0  0  0  0  0  0  0  0  0
   11.6130  -16.9420   25.3834 C   0  0  0  0  0  0  0  0  0  0  0  0
   11.9712  -17.5351   26.5317 N   0  0  0  0  0  0  0  0  0  0  0  0
   12.3644  -18.8078   26.2794 C   0  0  0  0  0  0  0  0  0  0  0  0
   12.2493  -19.0068   24.9626 N   0  0  0  0  0  0  0  0  0  0  0  0
   13.7821  -16.6577   22.5665 C   0  0  0  0  0  0  0  0  0  0  0  0
   14.3335  -15.9740   23.4879 O   0  0  0  0  0  0  0  0  0  0  0  0
   14.5695  -17.4625   21.7789 O   0  0  0  0  0  0  0  0  0  0  0  0
  2  3  1  0
  2  1  1  0
  3  4  1  6
  5  3  1  0
  6  5  2  0
  7  5  1  0
  8 12  1  0
  8  7  1  0
  8  9  1  1
 10  9  1  0
 10 11  2  0
 12 15  1  0
 13 12  2  0
 14 10  1  0
 15 16  1  0
 16 17  1  6
 16 23  1  0
 18 17  1  0
 19 18  2  0
 20 19  1  0
 21 20  1  0
 21 22  2  0
 22 18  1  0
 23 24  2  0
 23 25  1  0
M  END
$$$$
