SDH.pdb
     RDKit          3D

 25 25  0  0  1  0  0  0  0  0999 V2000
    8.8131  -17.3899   17.8141 O   0  0  0  0  0  0  0  0  0  0  0  0
    8.9959  -16.0505   17.4709 C   0  0  0  0  0  0  0  0  0  0  0  0
   10.2996  -15.9695   16.6947 C   0  0  2  0  0  0  0  0  0  0  0  0
   10.3537  -17.0396   15.7223 N   0  0  0  0  0  0  0  0  0  0  0  0
   11.4264  -16.1482   17.6437 C   0  0  0  0  0  0  0  0  0  0  0  0
   11.9551  -17.2799   17.7737 O   0  0  0  0  0  0  0  0  0  0  0  0
   11.9612  -15.1166   18.4296 N   0  0  0  0  0  0  0  0  0  0  0  0
   13.1067  -15.2959   19.3490 C   0  0  1  0  0  0  0  0  0  0  0  0
   13.9513  -14.0850   19.1465 C   0  0  0  0  0  0  0  0  0  0  0  0
   15.3413  -14.1667   19.5679 C   0  0  0  0  0  0  0  0  0  0  0  0
   15.8215  -14.0010   20.6998 O   0  0  0  0  0  0  0  0  0  0  0  0
   12.5956  -15.4745   20.7315 C   0  0  0  0  0  0  0  0  0  0  0  0
   11.8824  -14.5769   21.2288 O   0  0  0  0  0  0  0  0  0  0  0  0
   16.2767  -14.4760   18.5570 O   0  0  0  0  0  0  0  0  0  0  0  0
   12.8677  -16.6025   21.5224 N   0  0  0  0  0  0  0  0  0  0  0  0
   12.3211  -16.7348   22.8731 C   0  0  1  0  0  0  0  0  0  0  0  0
   11.4138  -17.9221   22.9710 C   0  0  0  0  0  0  0  0  0  0  0  0
   10.1575  -17.6549   22.2385 C   0  0  0  0  0  0  0  0  0  0  0  0
    9.4386  -16.4778   22.1285 C   0  0  0  0  0  0  0  0  0  0  0  0
    8.3583  -16.7354   21.3768 N   0  0  0  0  0  0  0  0  0  0  0  0
    8.3668  -18.0392   21.0051 C   0  0  0  0  0  0  0  0  0  0  0  0
    9.4625  -18.5962   21.5307 N   0  0  0  0  0  0  0  0  0  0  0  0
   13.4162  -16.7160   23.8397 C   0  0  0  0  0  0  0  0  0  0  0  0
   14.6091  -16.6290   23.4040 O   0  0  0  0  0  0  0  0  0  0  0  0
   13.2113  -16.7866   25.1966 O   0  0  0  0  0  0  0  0  0  0  0  0
  2  3  1  0
  2  1  1  0
  3  4  1  6
  5  3  1  0
  6  5  2  0
  7  5  1  0
  8 12  1  0
  8  7  1  0
  8  9  1  1
 10  9  1  0
 10 11  2  0
 12 15  1  0
 13 12  2  0
 14 10  1  0
 15 16  1  0
 16 17  1  6
 16 23  1  0
 18 17  1  0
 19 18  2  0
 20 19  1  0
 21 20  1  0
 21 22  2  0
 22 18  1  0
 23 24  2  0
 23 25  1  0
M  END
$$$$
