SDH.pdb
     RDKit          3D

 25 25  0  0  1  0  0  0  0  0999 V2000
    7.7364  -22.2863   21.5743 O   0  0  0  0  0  0  0  0  0  0  0  0
    6.5824  -23.0651   21.6581 C   0  0  0  0  0  0  0  0  0  0  0  0
    5.5041  -22.1883   22.2722 C   0  0  2  0  0  0  0  0  0  0  0  0
    5.2898  -21.0253   21.4385 N   0  0  0  0  0  0  0  0  0  0  0  0
    5.9721  -21.7254   23.6022 C   0  0  0  0  0  0  0  0  0  0  0  0
    6.2027  -20.5051   23.7890 O   0  0  0  0  0  0  0  0  0  0  0  0
    6.1824  -22.5742   24.6990 N   0  0  0  0  0  0  0  0  0  0  0  0
    6.6953  -22.1114   26.0076 C   0  0  1  0  0  0  0  0  0  0  0  0
    6.1160  -23.0592   27.0010 C   0  0  0  0  0  0  0  0  0  0  0  0
    6.2077  -22.6883   28.4047 C   0  0  0  0  0  0  0  0  0  0  0  0
    6.6363  -21.6368   28.9046 O   0  0  0  0  0  0  0  0  0  0  0  0
    8.1791  -22.0841   25.9648 C   0  0  0  0  0  0  0  0  0  0  0  0
    8.7847  -23.0713   25.4952 O   0  0  0  0  0  0  0  0  0  0  0  0
    5.7484  -23.6506   29.3297 O   0  0  0  0  0  0  0  0  0  0  0  0
    8.9515  -21.0053   26.4247 N   0  0  0  0  0  0  0  0  0  0  0  0
   10.4136  -21.0465   26.3898 C   0  0  1  0  0  0  0  0  0  0  0  0
   10.9666  -19.8613   25.6605 C   0  0  0  0  0  0  0  0  0  0  0  0
   10.6760  -19.9812   24.2157 C   0  0  0  0  0  0  0  0  0  0  0  0
   10.0402  -21.0007   23.5296 C   0  0  0  0  0  0  0  0  0  0  0  0
   10.0311  -20.6664   22.2309 N   0  0  0  0  0  0  0  0  0  0  0  0
   10.6410  -19.4664   22.0688 C   0  0  0  0  0  0  0  0  0  0  0  0
   11.0324  -19.0519   23.2778 N   0  0  0  0  0  0  0  0  0  0  0  0
   10.9228  -21.2262   27.7471 C   0  0  0  0  0  0  0  0  0  0  0  0
   10.1147  -21.0915   28.7214 O   0  0  0  0  0  0  0  0  0  0  0  0
   12.2347  -21.5356   28.0140 O   0  0  0  0  0  0  0  0  0  0  0  0
  2  3  1  0
  2  1  1  0
  3  4  1  6
  5  3  1  0
  6  5  2  0
  7  5  1  0
  8 12  1  0
  8  7  1  0
  8  9  1  1
 10  9  1  0
 10 11  2  0
 12 15  1  0
 13 12  2  0
 14 10  1  0
 15 16  1  0
 16 17  1  1
 16 23  1  0
 18 17  1  0
 19 18  2  0
 20 19  1  0
 21 20  1  0
 21 22  2  0
 22 18  1  0
 23 24  2  0
 23 25  1  0
M  END
$$$$
