SDH.pdb
     RDKit          3D

 25 25  0  0  1  0  0  0  0  0999 V2000
    7.8765  -13.9788   18.5928 O   0  0  0  0  0  0  0  0  0  0  0  0
    8.8402  -13.0318   18.2470 C   0  0  0  0  0  0  0  0  0  0  0  0
    9.7927  -13.7084   17.2757 C   0  0  2  0  0  0  0  0  0  0  0  0
    9.0462  -14.2520   16.1618 N   0  0  0  0  0  0  0  0  0  0  0  0
   10.4633  -14.8315   17.9765 C   0  0  0  0  0  0  0  0  0  0  0  0
   10.5676  -15.9455   17.4060 O   0  0  0  0  0  0  0  0  0  0  0  0
   11.0056  -14.7391   19.2668 N   0  0  0  0  0  0  0  0  0  0  0  0
   11.7947  -15.8168   19.9037 C   0  0  1  0  0  0  0  0  0  0  0  0
   12.9661  -16.0143   19.0040 C   0  0  0  0  0  0  0  0  0  0  0  0
   14.1025  -15.1248   19.1879 C   0  0  0  0  0  0  0  0  0  0  0  0
   14.9329  -15.1049   20.1095 O   0  0  0  0  0  0  0  0  0  0  0  0
   12.1363  -15.4127   21.2910 C   0  0  0  0  0  0  0  0  0  0  0  0
   13.3242  -15.5051   21.6682 O   0  0  0  0  0  0  0  0  0  0  0  0
   14.2925  -14.1490   18.1858 O   0  0  0  0  0  0  0  0  0  0  0  0
   11.1960  -14.9280   22.2145 N   0  0  0  0  0  0  0  0  0  0  0  0
   10.4441  -15.8349   23.0821 C   0  0  1  0  0  0  0  0  0  0  0  0
    9.2035  -16.3240   22.4008 C   0  0  0  0  0  0  0  0  0  0  0  0
    8.3960  -15.1730   21.9429 C   0  0  0  0  0  0  0  0  0  0  0  0
    8.5704  -13.8233   22.1925 C   0  0  0  0  0  0  0  0  0  0  0  0
    7.5729  -13.1691   21.5797 N   0  0  0  0  0  0  0  0  0  0  0  0
    6.7692  -14.0598   20.9482 C   0  0  0  0  0  0  0  0  0  0  0  0
    7.2722  -15.2781   21.1708 N   0  0  0  0  0  0  0  0  0  0  0  0
   11.3347  -16.8863   23.5672 C   0  0  0  0  0  0  0  0  0  0  0  0
   11.5782  -17.8755   22.8039 O   0  0  0  0  0  0  0  0  0  0  0  0
   11.9202  -16.8500   24.8098 O   0  0  0  0  0  0  0  0  0  0  0  0
  2  3  1  0
  2  1  1  0
  3  4  1  6
  5  3  1  0
  6  5  2  0
  7  5  1  0
  8 12  1  0
  8  7  1  0
  8  9  1  6
 10  9  1  0
 10 11  2  0
 12 15  1  0
 13 12  2  0
 14 10  1  0
 15 16  1  0
 16 17  1  6
 16 23  1  0
 18 17  1  0
 19 18  2  0
 20 19  1  0
 21 20  1  0
 21 22  2  0
 22 18  1  0
 23 24  2  0
 23 25  1  0
M  END
$$$$
