SDH.pdb
     RDKit          3D

 25 25  0  0  1  0  0  0  0  0999 V2000
    7.9678  -14.0231   17.4327 O   0  0  0  0  0  0  0  0  0  0  0  0
    7.4639  -13.1959   18.4363 C   0  0  0  0  0  0  0  0  0  0  0  0
    8.5561  -13.0605   19.4839 C   0  0  2  0  0  0  0  0  0  0  0  0
    9.7957  -12.6724   18.8465 N   0  0  0  0  0  0  0  0  0  0  0  0
    8.7598  -14.3820   20.1276 C   0  0  0  0  0  0  0  0  0  0  0  0
    7.7775  -14.9917   20.6180 O   0  0  0  0  0  0  0  0  0  0  0  0
   10.0046  -15.0201   20.2322 N   0  0  0  0  0  0  0  0  0  0  0  0
   10.2033  -16.3256   20.8999 C   0  0  1  0  0  0  0  0  0  0  0  0
   11.4236  -16.8973   20.2638 C   0  0  0  0  0  0  0  0  0  0  0  0
   11.3038  -17.3530   18.8874 C   0  0  0  0  0  0  0  0  0  0  0  0
   10.4486  -18.0999   18.3874 O   0  0  0  0  0  0  0  0  0  0  0  0
   10.3077  -16.1101   22.3651 C   0  0  0  0  0  0  0  0  0  0  0  0
   11.1848  -15.3315   22.7967 O   0  0  0  0  0  0  0  0  0  0  0  0
   12.2913  -16.8860   17.9933 O   0  0  0  0  0  0  0  0  0  0  0  0
    9.4721  -16.7345   23.3053 N   0  0  0  0  0  0  0  0  0  0  0  0
    9.6029  -16.4649   24.7374 C   0  0  1  0  0  0  0  0  0  0  0  0
    8.2599  -16.4055   25.3971 C   0  0  0  0  0  0  0  0  0  0  0  0
    7.6270  -15.0963   25.1291 C   0  0  0  0  0  0  0  0  0  0  0  0
    8.1281  -14.0022   24.4463 C   0  0  0  0  0  0  0  0  0  0  0  0
    7.1925  -13.0421   24.4838 N   0  0  0  0  0  0  0  0  0  0  0  0
    6.1120  -13.4906   25.1690 C   0  0  0  0  0  0  0  0  0  0  0  0
    6.3790  -14.7405   25.5604 N   0  0  0  0  0  0  0  0  0  0  0  0
   10.5350  -17.4240   25.3249 C   0  0  0  0  0  0  0  0  0  0  0  0
   10.8116  -17.3211   26.5631 O   0  0  0  0  0  0  0  0  0  0  0  0
   11.1223  -18.4310   24.5975 O   0  0  0  0  0  0  0  0  0  0  0  0
  2  3  1  0
  2  1  1  0
  3  4  1  6
  5  3  1  0
  6  5  2  0
  7  5  1  0
  8 12  1  0
  8  7  1  0
  8  9  1  6
 10  9  1  0
 10 11  2  0
 12 15  1  0
 13 12  2  0
 14 10  1  0
 15 16  1  0
 16 17  1  1
 16 23  1  0
 18 17  1  0
 19 18  2  0
 20 19  1  0
 21 20  1  0
 21 22  2  0
 22 18  1  0
 23 24  2  0
 23 25  1  0
M  END
$$$$
