SDH.pdb
     RDKit          3D

 25 25  0  0  1  0  0  0  0  0999 V2000
   13.8664  -20.7373   20.4439 O   0  0  0  0  0  0  0  0  0  0  0  0
   13.1252  -21.5931   19.6293 C   0  0  0  0  0  0  0  0  0  0  0  0
   11.8755  -20.8340   19.2163 C   0  0  2  0  0  0  0  0  0  0  0  0
   12.2500  -19.5816   18.5959 N   0  0  0  0  0  0  0  0  0  0  0  0
   11.0837  -20.5295   20.4339 C   0  0  0  0  0  0  0  0  0  0  0  0
   10.3434  -19.5153   20.4555 O   0  0  0  0  0  0  0  0  0  0  0  0
   11.1006  -21.3134   21.5971 N   0  0  0  0  0  0  0  0  0  0  0  0
   10.2320  -21.0616   22.7683 C   0  0  1  0  0  0  0  0  0  0  0  0
    8.8443  -21.2644   22.2644 C   0  0  0  0  0  0  0  0  0  0  0  0
    7.7719  -21.2498   23.2473 C   0  0  0  0  0  0  0  0  0  0  0  0
    7.1528  -20.2783   23.7079 O   0  0  0  0  0  0  0  0  0  0  0  0
   10.6322  -21.9693   23.8729 C   0  0  0  0  0  0  0  0  0  0  0  0
    9.8224  -22.1785   24.8016 O   0  0  0  0  0  0  0  0  0  0  0  0
    7.3768  -22.5082   23.7500 O   0  0  0  0  0  0  0  0  0  0  0  0
   11.8782  -22.6136   23.9385 N   0  0  0  0  0  0  0  0  0  0  0  0
   12.7987  -22.3791   25.0512 C   0  0  1  0  0  0  0  0  0  0  0  0
   13.9904  -21.5897   24.6047 C   0  0  0  0  0  0  0  0  0  0  0  0
   14.6447  -22.2700   23.4666 C   0  0  0  0  0  0  0  0  0  0  0  0
   14.3553  -23.4947   22.8916 C   0  0  0  0  0  0  0  0  0  0  0  0
   15.2365  -23.6914   21.8999 N   0  0  0  0  0  0  0  0  0  0  0  0
   16.0776  -22.6306   21.8258 C   0  0  0  0  0  0  0  0  0  0  0  0
   15.7153  -21.7674   22.7800 N   0  0  0  0  0  0  0  0  0  0  0  0
   12.0620  -21.8001   26.1719 C   0  0  0  0  0  0  0  0  0  0  0  0
   11.2871  -20.8158   25.9452 O   0  0  0  0  0  0  0  0  0  0  0  0
   12.1698  -22.2745   27.4569 O   0  0  0  0  0  0  0  0  0  0  0  0
  2  3  1  0
  2  1  1  0
  3  4  1  1
  5  3  1  0
  6  5  2  0
  7  5  1  0
  8 12  1  0
  8  7  1  0
  8  9  1  6
 10  9  1  0
 10 11  2  0
 12 15  1  0
 13 12  2  0
 14 10  1  0
 15 16  1  0
 16 17  1  6
 16 23  1  0
 18 17  1  0
 19 18  2  0
 20 19  1  0
 21 20  1  0
 21 22  2  0
 22 18  1  0
 23 24  2  0
 23 25  1  0
M  END
$$$$
