SDH.pdb
     RDKit          3D

 25 25  0  0  1  0  0  0  0  0999 V2000
    6.4851  -14.9905   21.7913 O   0  0  0  0  0  0  0  0  0  0  0  0
    7.2817  -14.5184   20.7484 C   0  0  0  0  0  0  0  0  0  0  0  0
    7.9343  -15.7327   20.1094 C   0  0  2  0  0  0  0  0  0  0  0  0
    6.9148  -16.6774   19.7073 N   0  0  0  0  0  0  0  0  0  0  0  0
    8.8019  -16.3888   21.1188 C   0  0  0  0  0  0  0  0  0  0  0  0
    8.4413  -17.4751   21.6355 O   0  0  0  0  0  0  0  0  0  0  0  0
   10.0316  -15.8709   21.5518 N   0  0  0  0  0  0  0  0  0  0  0  0
   10.8721  -16.5115   22.5875 C   0  0  1  0  0  0  0  0  0  0  0  0
   12.2571  -16.0442   22.2972 C   0  0  0  0  0  0  0  0  0  0  0  0
   13.3213  -16.5500   23.1505 C   0  0  0  0  0  0  0  0  0  0  0  0
   13.3041  -17.5223   23.9210 O   0  0  0  0  0  0  0  0  0  0  0  0
   10.3574  -16.1381   23.9291 C   0  0  0  0  0  0  0  0  0  0  0  0
    9.9187  -14.9809   24.1034 O   0  0  0  0  0  0  0  0  0  0  0  0
   14.5424  -15.8437   23.1004 O   0  0  0  0  0  0  0  0  0  0  0  0
   10.3333  -17.0152   25.0255 N   0  0  0  0  0  0  0  0  0  0  0  0
    9.3067  -16.9093   26.0625 C   0  0  1  0  0  0  0  0  0  0  0  0
    7.9394  -16.8245   25.4575 C   0  0  0  0  0  0  0  0  0  0  0  0
    7.5045  -15.4126   25.3972 C   0  0  0  0  0  0  0  0  0  0  0  0
    8.1399  -14.2772   25.8679 C   0  0  0  0  0  0  0  0  0  0  0  0
    7.3455  -13.2310   25.5979 N   0  0  0  0  0  0  0  0  0  0  0  0
    6.2247  -13.6646   24.9704 C   0  0  0  0  0  0  0  0  0  0  0  0
    6.3240  -14.9922   24.8496 N   0  0  0  0  0  0  0  0  0  0  0  0
    9.4855  -17.9895   27.0294 C   0  0  0  0  0  0  0  0  0  0  0  0
    8.6932  -18.0515   28.0238 O   0  0  0  0  0  0  0  0  0  0  0  0
   10.4706  -18.9399   26.9086 O   0  0  0  0  0  0  0  0  0  0  0  0
  2  3  1  0
  2  1  1  0
  3  4  1  1
  5  3  1  0
  6  5  2  0
  7  5  1  0
  8 12  1  0
  8  7  1  0
  8  9  1  1
 10  9  1  0
 10 11  2  0
 12 15  1  0
 13 12  2  0
 14 10  1  0
 15 16  1  0
 16 17  1  6
 16 23  1  0
 18 17  1  0
 19 18  2  0
 20 19  1  0
 21 20  1  0
 21 22  2  0
 22 18  1  0
 23 24  2  0
 23 25  1  0
M  END
$$$$
