SDH.pdb
     RDKit          3D

 25 25  0  0  1  0  0  0  0  0999 V2000
    7.0832  -13.3887   19.4960 O   0  0  0  0  0  0  0  0  0  0  0  0
    8.3050  -12.8472   19.0968 C   0  0  0  0  0  0  0  0  0  0  0  0
    8.9358  -13.8442   18.1393 C   0  0  2  0  0  0  0  0  0  0  0  0
    7.9488  -14.2867   17.1782 N   0  0  0  0  0  0  0  0  0  0  0  0
    9.3877  -15.0247   18.9166 C   0  0  0  0  0  0  0  0  0  0  0  0
    9.4597  -16.1464   18.3564 O   0  0  0  0  0  0  0  0  0  0  0  0
    9.7516  -14.9801   20.2706 N   0  0  0  0  0  0  0  0  0  0  0  0
   10.2655  -16.1476   21.0205 C   0  0  1  0  0  0  0  0  0  0  0  0
   11.4228  -16.6362   20.2189 C   0  0  0  0  0  0  0  0  0  0  0  0
   12.1253  -17.8101   20.7138 C   0  0  0  0  0  0  0  0  0  0  0  0
   11.6540  -18.8733   21.1460 O   0  0  0  0  0  0  0  0  0  0  0  0
   10.6000  -15.7263   22.4043 C   0  0  0  0  0  0  0  0  0  0  0  0
   11.8007  -15.6986   22.7500 O   0  0  0  0  0  0  0  0  0  0  0  0
   13.5350  -17.7369   20.7040 O   0  0  0  0  0  0  0  0  0  0  0  0
    9.6394  -15.3532   23.3582 N   0  0  0  0  0  0  0  0  0  0  0  0
    9.6549  -15.9087   24.7116 C   0  0  1  0  0  0  0  0  0  0  0  0
    8.2640  -16.0612   25.2452 C   0  0  0  0  0  0  0  0  0  0  0  0
    7.5548  -14.7657   25.1741 C   0  0  0  0  0  0  0  0  0  0  0  0
    8.0218  -13.5307   24.7605 C   0  0  0  0  0  0  0  0  0  0  0  0
    7.0148  -12.6551   24.8941 N   0  0  0  0  0  0  0  0  0  0  0  0
    5.9220  -13.2938   25.3798 C   0  0  0  0  0  0  0  0  0  0  0  0
    6.2533  -14.5777   25.5491 N   0  0  0  0  0  0  0  0  0  0  0  0
   10.4550  -17.1308   24.7214 C   0  0  0  0  0  0  0  0  0  0  0  0
   11.4758  -17.1820   25.4802 O   0  0  0  0  0  0  0  0  0  0  0  0
   10.1502  -18.2252   23.9482 O   0  0  0  0  0  0  0  0  0  0  0  0
  2  3  1  0
  2  1  1  0
  3  4  1  6
  5  3  1  0
  6  5  2  0
  7  5  1  0
  8 12  1  0
  8  7  1  0
  8  9  1  6
 10  9  1  0
 10 11  2  0
 12 15  1  0
 13 12  2  0
 14 10  1  0
 15 16  1  0
 16 17  1  6
 16 23  1  0
 18 17  1  0
 19 18  2  0
 20 19  1  0
 21 20  1  0
 21 22  2  0
 22 18  1  0
 23 24  2  0
 23 25  1  0
M  END
$$$$
