SDH.pdb
     RDKit          3D

 25 25  0  0  1  0  0  0  0  0999 V2000
    8.4545  -12.4262   20.9481 O   0  0  0  0  0  0  0  0  0  0  0  0
    9.0842  -12.9786   19.8329 C   0  0  0  0  0  0  0  0  0  0  0  0
    8.2234  -14.1436   19.3741 C   0  0  2  0  0  0  0  0  0  0  0  0
    6.8783  -13.6801   19.1107 N   0  0  0  0  0  0  0  0  0  0  0  0
    8.1628  -15.1454   20.4672 C   0  0  0  0  0  0  0  0  0  0  0  0
    7.1067  -15.2726   21.1348 O   0  0  0  0  0  0  0  0  0  0  0  0
    9.2285  -15.9862   20.8207 N   0  0  0  0  0  0  0  0  0  0  0  0
    9.1172  -17.0777   21.8137 C   0  0  1  0  0  0  0  0  0  0  0  0
   10.1309  -18.0841   21.3891 C   0  0  0  0  0  0  0  0  0  0  0  0
   11.5284  -17.6833   21.4441 C   0  0  0  0  0  0  0  0  0  0  0  0
   12.1869  -17.0433   20.6099 O   0  0  0  0  0  0  0  0  0  0  0  0
    9.3257  -16.5194   23.1735 C   0  0  0  0  0  0  0  0  0  0  0  0
   10.1305  -15.5743   23.3178 O   0  0  0  0  0  0  0  0  0  0  0  0
   12.2380  -18.0721   22.6008 O   0  0  0  0  0  0  0  0  0  0  0  0
    8.6667  -16.9937   24.3192 N   0  0  0  0  0  0  0  0  0  0  0  0
    8.8801  -16.3787   25.6294 C   0  0  1  0  0  0  0  0  0  0  0  0
    7.5875  -15.9004   26.2149 C   0  0  0  0  0  0  0  0  0  0  0  0
    7.2219  -14.5952   25.6240 C   0  0  0  0  0  0  0  0  0  0  0  0
    7.9340  -13.7993   24.7443 C   0  0  0  0  0  0  0  0  0  0  0  0
    7.1999  -12.7015   24.5111 N   0  0  0  0  0  0  0  0  0  0  0  0
    6.0432  -12.7736   25.2146 C   0  0  0  0  0  0  0  0  0  0  0  0
    6.0592  -13.9266   25.8908 N   0  0  0  0  0  0  0  0  0  0  0  0
    9.6357  -17.2987   26.4760 C   0  0  0  0  0  0  0  0  0  0  0  0
    9.8381  -16.9780   27.6912 O   0  0  0  0  0  0  0  0  0  0  0  0
   10.1340  -18.4936   26.0155 O   0  0  0  0  0  0  0  0  0  0  0  0
  2  3  1  0
  2  1  1  0
  3  4  1  1
  5  3  1  0
  6  5  2  0
  7  5  1  0
  8 12  1  0
  8  7  1  0
  8  9  1  6
 10  9  1  0
 10 11  2  0
 12 15  1  0
 13 12  2  0
 14 10  1  0
 15 16  1  0
 16 17  1  1
 16 23  1  0
 18 17  1  0
 19 18  2  0
 20 19  1  0
 21 20  1  0
 21 22  2  0
 22 18  1  0
 23 24  2  0
 23 25  1  0
M  END
$$$$
