SDH.pdb
     RDKit          3D

 25 25  0  0  1  0  0  0  0  0999 V2000
    8.5951  -13.7205   19.7191 O   0  0  0  0  0  0  0  0  0  0  0  0
    9.2086  -12.7616   18.9132 C   0  0  0  0  0  0  0  0  0  0  0  0
    9.7677  -13.4948   17.7056 C   0  0  2  0  0  0  0  0  0  0  0  0
    8.7277  -14.2984   17.1003 N   0  0  0  0  0  0  0  0  0  0  0  0
   10.8483  -14.4032   18.1629 C   0  0  0  0  0  0  0  0  0  0  0  0
   10.6252  -15.6356   18.2567 O   0  0  0  0  0  0  0  0  0  0  0  0
   12.1389  -13.9756   18.5082 N   0  0  0  0  0  0  0  0  0  0  0  0
   13.2075  -14.8871   18.9739 C   0  0  1  0  0  0  0  0  0  0  0  0
   14.4717  -14.1217   18.7825 C   0  0  0  0  0  0  0  0  0  0  0  0
   15.0354  -14.0948   17.4416 C   0  0  0  0  0  0  0  0  0  0  0  0
   15.3889  -13.1158   16.7664 O   0  0  0  0  0  0  0  0  0  0  0  0
   12.9275  -15.2862   20.3763 C   0  0  0  0  0  0  0  0  0  0  0  0
   12.6646  -14.3960   21.2131 O   0  0  0  0  0  0  0  0  0  0  0  0
   15.2061  -15.3493   16.8174 O   0  0  0  0  0  0  0  0  0  0  0  0
   12.9404  -16.6170   20.8243 N   0  0  0  0  0  0  0  0  0  0  0  0
   12.5715  -16.9614   22.1975 C   0  0  1  0  0  0  0  0  0  0  0  0
   11.4555  -17.9597   22.2192 C   0  0  0  0  0  0  0  0  0  0  0  0
   11.1724  -18.3651   23.6127 C   0  0  0  0  0  0  0  0  0  0  0  0
   11.6584  -17.8385   24.7963 C   0  0  0  0  0  0  0  0  0  0  0  0
   11.1295  -18.5524   25.8009 N   0  0  0  0  0  0  0  0  0  0  0  0
   10.3224  -19.5167   25.2940 C   0  0  0  0  0  0  0  0  0  0  0  0
   10.3504  -19.4004   23.9626 N   0  0  0  0  0  0  0  0  0  0  0  0
   13.7691  -17.3616   22.9320 C   0  0  0  0  0  0  0  0  0  0  0  0
   14.8468  -17.5478   22.2805 O   0  0  0  0  0  0  0  0  0  0  0  0
   13.7800  -17.5429   24.2940 O   0  0  0  0  0  0  0  0  0  0  0  0
  2  3  1  0
  2  1  1  0
  3  4  1  1
  5  3  1  0
  6  5  2  0
  7  5  1  0
  8 12  1  0
  8  7  1  0
  8  9  1  1
 10  9  1  0
 10 11  2  0
 12 15  1  0
 13 12  2  0
 14 10  1  0
 15 16  1  0
 16 17  1  6
 16 23  1  0
 18 17  1  0
 19 18  2  0
 20 19  1  0
 21 20  1  0
 21 22  2  0
 22 18  1  0
 23 24  2  0
 23 25  1  0
M  END
$$$$
