NCY.pdb
     RDKit          3D

 27 27  0  0  1  0  0  0  0  0999 V2000
    7.0637  -17.2787   19.4958 N   0  0  0  0  0  0  0  0  0  0  0  0
    7.3973  -17.7330   20.8109 C   0  0  0  0  0  0  0  0  0  0  0  0
    7.9621  -18.8455   20.9077 O   0  0  0  0  0  0  0  0  0  0  0  0
    7.0449  -16.8464   21.9416 C   0  0  0  0  0  0  0  0  0  0  0  0
    7.4564  -15.4302   21.8027 C   0  0  2  0  0  0  0  0  0  0  0  0
    8.0470  -15.2742   20.4749 N   0  0  0  0  0  0  0  0  0  0  0  0
    8.3651  -14.9162   22.8477 C   0  0  0  0  0  0  0  0  0  0  0  0
    9.2664  -15.6018   23.3692 O   0  0  0  0  0  0  0  0  0  0  0  0
    8.2447  -13.5676   23.3197 N   0  0  0  0  0  0  0  0  0  0  0  0
    8.0143  -13.2624   24.7248 C   0  0  1  0  0  0  0  0  0  0  0  0
    6.5535  -12.8231   24.9023 C   0  0  0  0  0  0  0  0  0  0  0  0
    6.1056  -12.4766   26.5927 S   0  0  0  0  0  0  0  0  0  0  0  0
    8.2733  -14.4502   25.5721 C   0  0  0  0  0  0  0  0  0  0  0  0
    7.5800  -15.5003   25.3322 O   0  0  0  0  0  0  0  0  0  0  0  0
   14.8503  -15.6892   24.1696 O   0  0  0  0  0  0  0  0  0  0  0  0
   13.6140  -15.9631   24.7077 C   0  0  0  0  0  0  0  0  0  0  0  0
   12.4526  -15.9922   23.9477 C   0  0  0  0  0  0  0  0  0  0  0  0
   11.2355  -16.2738   24.5434 C   0  0  0  0  0  0  0  0  0  0  0  0
   11.1287  -16.5326   25.8941 C   0  0  0  0  0  0  0  0  0  0  0  0
    9.8717  -16.8289   26.5698 C   0  0  0  0  0  0  0  0  0  0  0  0
    9.3386  -15.7336   27.4614 C   0  0  2  0  0  0  0  0  0  0  0  0
    9.1943  -14.5653   26.6114 N   0  0  0  0  0  0  0  0  0  0  0  0
   10.2726  -15.3896   28.5490 C   0  0  0  0  0  0  0  0  0  0  0  0
   10.7113  -16.3831   29.4033 O   0  0  0  0  0  0  0  0  0  0  0  0
   12.2973  -16.4958   26.6179 C   0  0  0  0  0  0  0  0  0  0  0  0
   13.5232  -16.2207   26.0646 C   0  0  0  0  0  0  0  0  0  0  0  0
   10.6895  -14.2005   28.7268 O   0  0  0  0  0  0  0  0  0  0  0  0
  2  1  1  0
  3  2  2  0
  4  2  1  0
  4  5  1  0
  5  7  1  0
  5  6  1  6
  7  9  1  0
  8  7  2  0
  9 10  1  0
 10 11  1  6
 11 12  1  0
 13 10  1  0
 13 14  2  0
 15 16  1  0
 16 17  2  0
 16 26  1  0
 17 18  1  0
 18 19  2  0
 19 20  1  0
 21 20  1  6
 21 22  1  0
 21 23  1  0
 22 13  1  0
 23 24  1  0
 25 19  1  0
 26 25  2  0
 27 23  2  0
M  END
$$$$
