NCY.pdb
     RDKit          3D

 27 27  0  0  1  0  0  0  0  0999 V2000
   12.0027  -19.3142   17.2968 N   0  0  0  0  0  0  0  0  0  0  0  0
   12.7212  -18.0898   17.4755 C   0  0  0  0  0  0  0  0  0  0  0  0
   13.7291  -17.9056   16.7570 O   0  0  0  0  0  0  0  0  0  0  0  0
   12.2087  -17.1484   18.4952 C   0  0  0  0  0  0  0  0  0  0  0  0
   11.0387  -17.6163   19.2741 C   0  0  2  0  0  0  0  0  0  0  0  0
   10.0244  -18.0567   18.3184 N   0  0  0  0  0  0  0  0  0  0  0  0
   10.4728  -16.6471   20.2346 C   0  0  0  0  0  0  0  0  0  0  0  0
   11.1705  -15.9655   21.0111 O   0  0  0  0  0  0  0  0  0  0  0  0
    9.0557  -16.4441   20.3161 N   0  0  0  0  0  0  0  0  0  0  0  0
    8.4634  -15.5389   21.2910 C   0  0  1  0  0  0  0  0  0  0  0  0
    6.9484  -15.4737   21.0485 C   0  0  0  0  0  0  0  0  0  0  0  0
    6.0456  -14.6506   22.3470 S   0  0  0  0  0  0  0  0  0  0  0  0
    8.7169  -16.0121   22.6723 C   0  0  0  0  0  0  0  0  0  0  0  0
    8.5341  -17.2585   22.9048 O   0  0  0  0  0  0  0  0  0  0  0  0
   10.5936  -15.5075   31.4537 O   0  0  0  0  0  0  0  0  0  0  0  0
   10.4485  -15.3578   30.0937 C   0  0  0  0  0  0  0  0  0  0  0  0
   10.6442  -16.3994   29.1972 C   0  0  0  0  0  0  0  0  0  0  0  0
   10.4841  -16.1904   27.8385 C   0  0  0  0  0  0  0  0  0  0  0  0
   10.1293  -14.9589   27.3283 C   0  0  0  0  0  0  0  0  0  0  0  0
    9.9532  -14.6858   25.9075 C   0  0  0  0  0  0  0  0  0  0  0  0
    9.2061  -15.7420   25.1297 C   0  0  2  0  0  0  0  0  0  0  0  0
    9.1380  -15.2548   23.7636 N   0  0  0  0  0  0  0  0  0  0  0  0
    7.8258  -15.9257   25.6142 C   0  0  0  0  0  0  0  0  0  0  0  0
    7.5593  -16.9197   26.5362 O   0  0  0  0  0  0  0  0  0  0  0  0
    9.9432  -13.9489   28.2428 C   0  0  0  0  0  0  0  0  0  0  0  0
   10.0922  -14.1159   29.5972 C   0  0  0  0  0  0  0  0  0  0  0  0
    6.8672  -15.1941   25.2077 O   0  0  0  0  0  0  0  0  0  0  0  0
  2  1  1  0
  3  2  2  0
  4  2  1  0
  4  5  1  0
  5  7  1  0
  5  6  1  6
  7  9  1  0
  8  7  2  0
  9 10  1  0
 10 11  1  6
 11 12  1  0
 13 10  1  0
 13 14  2  0
 15 16  1  0
 16 17  2  0
 16 26  1  0
 17 18  1  0
 18 19  2  0
 19 20  1  0
 21 20  1  1
 21 22  1  0
 21 23  1  0
 22 13  1  0
 23 24  1  0
 25 19  1  0
 26 25  2  0
 27 23  2  0
M  END
$$$$
