NCY.pdb
     RDKit          3D

 27 27  0  0  1  0  0  0  0  0999 V2000
   10.5796  -18.0338   15.3293 N   0  0  0  0  0  0  0  0  0  0  0  0
   11.2547  -17.2925   16.3501 C   0  0  0  0  0  0  0  0  0  0  0  0
   12.5005  -17.2061   16.2680 O   0  0  0  0  0  0  0  0  0  0  0  0
   10.4197  -16.6927   17.4139 C   0  0  0  0  0  0  0  0  0  0  0  0
   10.8378  -16.9869   18.8042 C   0  0  2  0  0  0  0  0  0  0  0  0
   10.7059  -18.4285   19.0052 N   0  0  0  0  0  0  0  0  0  0  0  0
   10.1293  -16.2397   19.8635 C   0  0  0  0  0  0  0  0  0  0  0  0
   10.2401  -15.0083   20.0240 O   0  0  0  0  0  0  0  0  0  0  0  0
    9.2593  -16.9198   20.7780 N   0  0  0  0  0  0  0  0  0  0  0  0
    8.6343  -16.2330   21.8997 C   0  0  1  0  0  0  0  0  0  0  0  0
    7.2144  -16.7863   22.0891 C   0  0  0  0  0  0  0  0  0  0  0  0
    7.1642  -18.5273   22.4697 S   0  0  0  0  0  0  0  0  0  0  0  0
    9.4100  -16.4421   23.1449 C   0  0  0  0  0  0  0  0  0  0  0  0
    9.8629  -17.6211   23.3590 O   0  0  0  0  0  0  0  0  0  0  0  0
    5.5031  -10.8236   26.7272 O   0  0  0  0  0  0  0  0  0  0  0  0
    6.1829  -12.0028   26.5259 C   0  0  0  0  0  0  0  0  0  0  0  0
    7.5502  -12.1271   26.7306 C   0  0  0  0  0  0  0  0  0  0  0  0
    8.1815  -13.3392   26.5118 C   0  0  0  0  0  0  0  0  0  0  0  0
    7.4890  -14.4546   26.0886 C   0  0  0  0  0  0  0  0  0  0  0  0
    8.1067  -15.7509   25.8392 C   0  0  0  0  0  0  0  0  0  0  0  0
    9.5886  -15.7211   25.5531 C   0  0  2  0  0  0  0  0  0  0  0  0
    9.7123  -15.4976   24.1238 N   0  0  0  0  0  0  0  0  0  0  0  0
   10.2481  -17.0011   25.8699 C   0  0  0  0  0  0  0  0  0  0  0  0
   10.8437  -17.1674   27.1056 O   0  0  0  0  0  0  0  0  0  0  0  0
    6.1366  -14.2976   25.8953 C   0  0  0  0  0  0  0  0  0  0  0  0
    5.4740  -13.1131   26.1011 C   0  0  0  0  0  0  0  0  0  0  0  0
   10.2866  -17.9623   25.0370 O   0  0  0  0  0  0  0  0  0  0  0  0
  2  1  1  0
  3  2  2  0
  4  2  1  0
  4  5  1  0
  5  7  1  0
  5  6  1  1
  7  9  1  0
  8  7  2  0
  9 10  1  0
 10 11  1  1
 11 12  1  0
 13 10  1  0
 13 14  2  0
 15 16  1  0
 16 17  2  0
 16 26  1  0
 17 18  1  0
 18 19  2  0
 19 20  1  0
 21 20  1  6
 21 22  1  0
 21 23  1  0
 22 13  1  0
 23 24  1  0
 25 19  1  0
 26 25  2  0
 27 23  2  0
M  END
$$$$
