NCY.pdb
     RDKit          3D

 27 27  0  0  1  0  0  0  0  0999 V2000
   14.3924  -18.2710   13.4402 N   0  0  0  0  0  0  0  0  0  0  0  0
   14.1621  -16.8711   13.6262 C   0  0  0  0  0  0  0  0  0  0  0  0
   14.5879  -16.0967   12.7402 O   0  0  0  0  0  0  0  0  0  0  0  0
   13.4401  -16.4621   14.8510 C   0  0  0  0  0  0  0  0  0  0  0  0
   12.1226  -17.1038   15.0670 C   0  0  2  0  0  0  0  0  0  0  0  0
   11.2548  -16.7052   13.9606 N   0  0  0  0  0  0  0  0  0  0  0  0
   11.4772  -16.8319   16.3677 C   0  0  0  0  0  0  0  0  0  0  0  0
   10.7395  -15.8481   16.5736 O   0  0  0  0  0  0  0  0  0  0  0  0
   11.6784  -17.7138   17.4800 N   0  0  0  0  0  0  0  0  0  0  0  0
   11.0513  -17.4767   18.7727 C   0  0  1  0  0  0  0  0  0  0  0  0
   10.1344  -18.6635   19.1026 C   0  0  0  0  0  0  0  0  0  0  0  0
   10.8311  -20.2504   18.6844 S   0  0  0  0  0  0  0  0  0  0  0  0
   12.0729  -17.3383   19.8372 C   0  0  0  0  0  0  0  0  0  0  0  0
   13.1517  -18.0156   19.7020 O   0  0  0  0  0  0  0  0  0  0  0  0
   16.5501  -13.3142   17.6119 O   0  0  0  0  0  0  0  0  0  0  0  0
   15.8438  -13.7424   18.7123 C   0  0  0  0  0  0  0  0  0  0  0  0
   16.4555  -14.2826   19.8352 C   0  0  0  0  0  0  0  0  0  0  0  0
   15.6937  -14.6970   20.9138 C   0  0  0  0  0  0  0  0  0  0  0  0
   14.3184  -14.5917   20.9169 C   0  0  0  0  0  0  0  0  0  0  0  0
   13.4711  -15.0176   22.0238 C   0  0  0  0  0  0  0  0  0  0  0  0
   13.0401  -16.4639   21.9939 C   0  0  2  0  0  0  0  0  0  0  0  0
   12.0017  -16.5476   20.9824 N   0  0  0  0  0  0  0  0  0  0  0  0
   12.4598  -16.9041   23.2758 C   0  0  0  0  0  0  0  0  0  0  0  0
   13.2824  -17.0478   24.3767 O   0  0  0  0  0  0  0  0  0  0  0  0
   13.7440  -14.0526   19.7897 C   0  0  0  0  0  0  0  0  0  0  0  0
   14.4643  -13.6302   18.7001 C   0  0  0  0  0  0  0  0  0  0  0  0
   11.2191  -17.1574   23.4009 O   0  0  0  0  0  0  0  0  0  0  0  0
  2  1  1  0
  3  2  2  0
  4  2  1  0
  4  5  1  0
  5  7  1  0
  5  6  1  6
  7  9  1  0
  8  7  2  0
  9 10  1  0
 10 11  1  1
 11 12  1  0
 13 10  1  0
 13 14  2  0
 15 16  1  0
 16 17  2  0
 16 26  1  0
 17 18  1  0
 18 19  2  0
 19 20  1  0
 21 20  1  1
 21 22  1  0
 21 23  1  0
 22 13  1  0
 23 24  1  0
 25 19  1  0
 26 25  2  0
 27 23  2  0
M  END
$$$$
