NCY.pdb
     RDKit          3D

 27 27  0  0  1  0  0  0  0  0999 V2000
   13.2860  -19.8510   10.9567 N   0  0  0  0  0  0  0  0  0  0  0  0
   13.4751  -20.1003   12.3529 C   0  0  0  0  0  0  0  0  0  0  0  0
   12.4656  -20.4175   13.0211 O   0  0  0  0  0  0  0  0  0  0  0  0
   14.8487  -19.9609   12.8842 C   0  0  0  0  0  0  0  0  0  0  0  0
   15.0237  -20.3004   14.3155 C   0  0  2  0  0  0  0  0  0  0  0  0
   14.4179  -19.2245   15.0977 N   0  0  0  0  0  0  0  0  0  0  0  0
   16.4112  -20.5543   14.7541 C   0  0  0  0  0  0  0  0  0  0  0  0
   17.1529  -21.4037   14.2223 O   0  0  0  0  0  0  0  0  0  0  0  0
   16.9793  -19.8128   15.8419 N   0  0  0  0  0  0  0  0  0  0  0  0
   18.3697  -19.9779   16.2419 C   0  0  1  0  0  0  0  0  0  0  0  0
   19.2576  -19.1594   15.2933 C   0  0  0  0  0  0  0  0  0  0  0  0
   20.9878  -19.5801   15.3832 S   0  0  0  0  0  0  0  0  0  0  0  0
   18.5780  -19.5088   17.6320 C   0  0  0  0  0  0  0  0  0  0  0  0
   17.9421  -18.4574   17.9944 O   0  0  0  0  0  0  0  0  0  0  0  0
   14.4347  -23.2184   21.5573 O   0  0  0  0  0  0  0  0  0  0  0  0
   15.6456  -22.5828   21.4061 C   0  0  0  0  0  0  0  0  0  0  0  0
   15.8385  -21.2460   21.7264 C   0  0  0  0  0  0  0  0  0  0  0  0
   17.0799  -20.6589   21.5534 C   0  0  0  0  0  0  0  0  0  0  0  0
   18.1579  -21.3665   21.0639 C   0  0  0  0  0  0  0  0  0  0  0  0
   19.4827  -20.7944   20.8586 C   0  0  0  0  0  0  0  0  0  0  0  0
   19.5353  -19.5810   19.9622 C   0  0  2  0  0  0  0  0  0  0  0  0
   19.3916  -20.0823   18.6071 N   0  0  0  0  0  0  0  0  0  0  0  0
   20.8261  -18.8738   20.0487 C   0  0  0  0  0  0  0  0  0  0  0  0
   21.6048  -18.7463   18.9144 O   0  0  0  0  0  0  0  0  0  0  0  0
   17.9331  -22.6879   20.7564 C   0  0  0  0  0  0  0  0  0  0  0  0
   16.7177  -23.3064   20.9136 C   0  0  0  0  0  0  0  0  0  0  0  0
   21.2480  -18.3749   21.1406 O   0  0  0  0  0  0  0  0  0  0  0  0
  2  1  1  0
  3  2  2  0
  4  2  1  0
  4  5  1  0
  5  7  1  0
  5  6  1  1
  7  9  1  0
  8  7  2  0
  9 10  1  0
 10 11  1  6
 11 12  1  0
 13 10  1  0
 13 14  2  0
 15 16  1  0
 16 17  2  0
 16 26  1  0
 17 18  1  0
 18 19  2  0
 19 20  1  0
 21 20  1  1
 21 22  1  0
 21 23  1  0
 22 13  1  0
 23 24  1  0
 25 19  1  0
 26 25  2  0
 27 23  2  0
M  END
$$$$
