NCY.pdb
     RDKit          3D

 27 27  0  0  1  0  0  0  0  0999 V2000
   11.1023  -14.8620   16.9721 N   0  0  0  0  0  0  0  0  0  0  0  0
   10.3515  -15.3409   15.8521 C   0  0  0  0  0  0  0  0  0  0  0  0
   10.9676  -16.0085   14.9914 O   0  0  0  0  0  0  0  0  0  0  0  0
    8.9115  -15.0043   15.8103 C   0  0  0  0  0  0  0  0  0  0  0  0
    8.4211  -14.1340   16.9041 C   0  0  2  0  0  0  0  0  0  0  0  0
    8.9913  -12.8046   16.6947 N   0  0  0  0  0  0  0  0  0  0  0  0
    8.6857  -14.6109   18.2769 C   0  0  0  0  0  0  0  0  0  0  0  0
    9.5335  -14.0930   19.0303 O   0  0  0  0  0  0  0  0  0  0  0  0
    7.9572  -15.7220   18.8159 N   0  0  0  0  0  0  0  0  0  0  0  0
    8.1347  -16.1632   20.1923 C   0  0  1  0  0  0  0  0  0  0  0  0
    7.1722  -17.3279   20.4662 C   0  0  0  0  0  0  0  0  0  0  0  0
    7.2755  -17.9732   22.1250 S   0  0  0  0  0  0  0  0  0  0  0  0
    9.5266  -16.6146   20.4262 C   0  0  0  0  0  0  0  0  0  0  0  0
   10.2281  -16.9018   19.3935 O   0  0  0  0  0  0  0  0  0  0  0  0
   15.9687  -13.8365   18.0039 O   0  0  0  0  0  0  0  0  0  0  0  0
   14.9234  -14.1309   18.8488 C   0  0  0  0  0  0  0  0  0  0  0  0
   13.5970  -14.1094   18.4400 C   0  0  0  0  0  0  0  0  0  0  0  0
   12.5859  -14.4148   19.3345 C   0  0  0  0  0  0  0  0  0  0  0  0
   12.8508  -14.7474   20.6467 C   0  0  0  0  0  0  0  0  0  0  0  0
   11.8233  -15.0717   21.6283 C   0  0  0  0  0  0  0  0  0  0  0  0
   11.5933  -16.5444   21.8668 C   0  0  2  0  0  0  0  0  0  0  0  0
   10.1744  -16.7645   21.6507 N   0  0  0  0  0  0  0  0  0  0  0  0
   11.9081  -16.9457   23.2501 C   0  0  0  0  0  0  0  0  0  0  0  0
   13.2186  -17.2177   23.5938 O   0  0  0  0  0  0  0  0  0  0  0  0
   14.1745  -14.7593   21.0191 C   0  0  0  0  0  0  0  0  0  0  0  0
   15.2055  -14.4627   20.1626 C   0  0  0  0  0  0  0  0  0  0  0  0
   11.0066  -17.0501   24.1420 O   0  0  0  0  0  0  0  0  0  0  0  0
  2  1  1  0
  3  2  2  0
  4  2  1  0
  4  5  1  0
  5  7  1  0
  5  6  1  1
  7  9  1  0
  8  7  2  0
  9 10  1  0
 10 11  1  6
 11 12  1  0
 13 10  1  0
 13 14  2  0
 15 16  1  0
 16 17  2  0
 16 26  1  0
 17 18  1  0
 18 19  2  0
 19 20  1  0
 21 20  1  1
 21 22  1  0
 21 23  1  0
 22 13  1  0
 23 24  1  0
 25 19  1  0
 26 25  2  0
 27 23  2  0
M  END
$$$$
