NCY.pdb
     RDKit          3D

 27 27  0  0  1  0  0  0  0  0999 V2000
    0.8295  -25.7661   19.6239 N   0  0  0  0  0  0  0  0  0  0  0  0
    2.2006  -25.4009   19.8090 C   0  0  0  0  0  0  0  0  0  0  0  0
    2.9977  -26.3093   20.1337 O   0  0  0  0  0  0  0  0  0  0  0  0
    2.5554  -23.9799   19.6000 C   0  0  0  0  0  0  0  0  0  0  0  0
    3.3677  -23.3545   20.6692 C   0  0  2  0  0  0  0  0  0  0  0  0
    2.5216  -23.2479   21.8562 N   0  0  0  0  0  0  0  0  0  0  0  0
    3.9778  -22.0506   20.3378 C   0  0  0  0  0  0  0  0  0  0  0  0
    4.9335  -21.9229   19.5473 O   0  0  0  0  0  0  0  0  0  0  0  0
    3.4819  -20.8422   20.9290 N   0  0  0  0  0  0  0  0  0  0  0  0
    4.0767  -19.5446   20.6409 C   0  0  1  0  0  0  0  0  0  0  0  0
    3.0823  -18.4450   21.0412 C   0  0  0  0  0  0  0  0  0  0  0  0
    2.6779  -18.4366   22.7775 S   0  0  0  0  0  0  0  0  0  0  0  0
    5.3373  -19.3623   21.3982 C   0  0  0  0  0  0  0  0  0  0  0  0
    5.9263  -18.2302   21.2867 O   0  0  0  0  0  0  0  0  0  0  0  0
    8.2811  -19.8677   29.3126 O   0  0  0  0  0  0  0  0  0  0  0  0
    7.9886  -19.6196   27.9913 C   0  0  0  0  0  0  0  0  0  0  0  0
    8.9116  -19.0821   27.1047 C   0  0  0  0  0  0  0  0  0  0  0  0
    8.5611  -18.8537   25.7853 C   0  0  0  0  0  0  0  0  0  0  0  0
    7.3013  -19.1461   25.3058 C   0  0  0  0  0  0  0  0  0  0  0  0
    6.8811  -18.9200   23.9286 C   0  0  0  0  0  0  0  0  0  0  0  0
    7.1966  -20.0348   22.9610 C   0  0  2  0  0  0  0  0  0  0  0  0
    5.9672  -20.2857   22.2302 N   0  0  0  0  0  0  0  0  0  0  0  0
    7.5784  -21.2830   23.6466 C   0  0  0  0  0  0  0  0  0  0  0  0
    8.8843  -21.4525   24.0651 O   0  0  0  0  0  0  0  0  0  0  0  0
    6.4112  -19.6770   26.2096 C   0  0  0  0  0  0  0  0  0  0  0  0
    6.7200  -19.9183   27.5252 C   0  0  0  0  0  0  0  0  0  0  0  0
    6.7390  -22.2138   23.8660 O   0  0  0  0  0  0  0  0  0  0  0  0
  2  1  1  0
  3  2  2  0
  4  2  1  0
  4  5  1  0
  5  7  1  0
  5  6  1  1
  7  9  1  0
  8  7  2  0
  9 10  1  0
 10 11  1  1
 11 12  1  0
 13 10  1  0
 13 14  2  0
 15 16  1  0
 16 17  2  0
 16 26  1  0
 17 18  1  0
 18 19  2  0
 19 20  1  0
 21 20  1  1
 21 22  1  0
 21 23  1  0
 22 13  1  0
 23 24  1  0
 25 19  1  0
 26 25  2  0
 27 23  2  0
M  END
$$$$
