NCY.pdb
     RDKit          3D

 27 27  0  0  1  0  0  0  0  0999 V2000
   13.3339  -20.1040   17.4835 N   0  0  0  0  0  0  0  0  0  0  0  0
   12.0055  -19.7656   17.8937 C   0  0  0  0  0  0  0  0  0  0  0  0
   11.0786  -20.5148   17.5122 O   0  0  0  0  0  0  0  0  0  0  0  0
   11.8446  -18.5585   18.7338 C   0  0  0  0  0  0  0  0  0  0  0  0
   10.5535  -17.8452   18.5965 C   0  0  2  0  0  0  0  0  0  0  0  0
   10.5357  -17.2230   17.2741 N   0  0  0  0  0  0  0  0  0  0  0  0
   10.2475  -16.8551   19.6492 C   0  0  0  0  0  0  0  0  0  0  0  0
   11.0999  -16.0847   20.1333 O   0  0  0  0  0  0  0  0  0  0  0  0
    8.9184  -16.7357   20.1736 N   0  0  0  0  0  0  0  0  0  0  0  0
    8.5812  -15.7582   21.1990 C   0  0  1  0  0  0  0  0  0  0  0  0
    7.0644  -15.5200   21.1753 C   0  0  0  0  0  0  0  0  0  0  0  0
    6.4678  -14.5377   22.5383 S   0  0  0  0  0  0  0  0  0  0  0  0
    8.9784  -16.2436   22.5416 C   0  0  0  0  0  0  0  0  0  0  0  0
    8.6360  -17.4375   22.8551 O   0  0  0  0  0  0  0  0  0  0  0  0
   10.7578  -15.4281   31.2773 O   0  0  0  0  0  0  0  0  0  0  0  0
   10.5948  -15.3082   29.9164 C   0  0  0  0  0  0  0  0  0  0  0  0
   11.2083  -16.1595   29.0075 C   0  0  0  0  0  0  0  0  0  0  0  0
   11.0078  -15.9914   27.6484 C   0  0  0  0  0  0  0  0  0  0  0  0
   10.2036  -14.9876   27.1500 C   0  0  0  0  0  0  0  0  0  0  0  0
    9.9644  -14.7650   25.7296 C   0  0  0  0  0  0  0  0  0  0  0  0
    9.8898  -16.0103   24.8796 C   0  0  2  0  0  0  0  0  0  0  0  0
    9.6911  -15.5493   23.5171 N   0  0  0  0  0  0  0  0  0  0  0  0
    8.7456  -16.8681   25.2386 C   0  0  0  0  0  0  0  0  0  0  0  0
    7.4653  -16.4546   24.9237 O   0  0  0  0  0  0  0  0  0  0  0  0
    9.6112  -14.1620   28.0766 C   0  0  0  0  0  0  0  0  0  0  0  0
    9.7848  -14.2959   29.4317 C   0  0  0  0  0  0  0  0  0  0  0  0
    8.9008  -17.9828   25.8324 O   0  0  0  0  0  0  0  0  0  0  0  0
  2  1  1  0
  3  2  2  0
  4  2  1  0
  4  5  1  0
  5  7  1  0
  5  6  1  6
  7  9  1  0
  8  7  2  0
  9 10  1  0
 10 11  1  1
 11 12  1  0
 13 10  1  0
 13 14  2  0
 15 16  1  0
 16 17  2  0
 16 26  1  0
 17 18  1  0
 18 19  2  0
 19 20  1  0
 21 20  1  1
 21 22  1  0
 21 23  1  0
 22 13  1  0
 23 24  1  0
 25 19  1  0
 26 25  2  0
 27 23  2  0
M  END
$$$$
