NCY.pdb
     RDKit          3D

 27 27  0  0  1  0  0  0  0  0999 V2000
   11.7893  -19.7059   17.3306 N   0  0  0  0  0  0  0  0  0  0  0  0
   12.7272  -18.8605   18.0035 C   0  0  0  0  0  0  0  0  0  0  0  0
   13.9355  -19.1801   17.9412 O   0  0  0  0  0  0  0  0  0  0  0  0
   12.1853  -17.6816   18.7143 C   0  0  0  0  0  0  0  0  0  0  0  0
   10.7186  -17.4936   18.6255 C   0  0  2  0  0  0  0  0  0  0  0  0
   10.4137  -17.0671   17.2613 N   0  0  0  0  0  0  0  0  0  0  0  0
   10.1252  -16.5683   19.6124 C   0  0  0  0  0  0  0  0  0  0  0  0
   10.7635  -15.6456   20.1561 O   0  0  0  0  0  0  0  0  0  0  0  0
    8.7500  -16.6967   19.9973 N   0  0  0  0  0  0  0  0  0  0  0  0
    8.1236  -15.7726   20.9323 C   0  0  1  0  0  0  0  0  0  0  0  0
    6.6033  -15.8083   20.7191 C   0  0  0  0  0  0  0  0  0  0  0  0
    5.6746  -15.0168   22.0190 S   0  0  0  0  0  0  0  0  0  0  0  0
    8.4294  -16.1505   22.3322 C   0  0  0  0  0  0  0  0  0  0  0  0
    8.4274  -17.4004   22.6128 O   0  0  0  0  0  0  0  0  0  0  0  0
   10.7253  -15.4984   30.9060 O   0  0  0  0  0  0  0  0  0  0  0  0
   10.3591  -15.2109   29.6113 C   0  0  0  0  0  0  0  0  0  0  0  0
    9.5390  -14.1405   29.2816 C   0  0  0  0  0  0  0  0  0  0  0  0
    9.2033  -13.8992   27.9607 C   0  0  0  0  0  0  0  0  0  0  0  0
    9.6625  -14.6993   26.9352 C   0  0  0  0  0  0  0  0  0  0  0  0
    9.3345  -14.4913   25.5304 C   0  0  0  0  0  0  0  0  0  0  0  0
    8.9403  -15.7307   24.7641 C   0  0  2  0  0  0  0  0  0  0  0  0
    8.7251  -15.2988   23.3946 N   0  0  0  0  0  0  0  0  0  0  0  0
    7.6814  -16.3193   25.2563 C   0  0  0  0  0  0  0  0  0  0  0  0
    7.7303  -17.4100   26.1033 O   0  0  0  0  0  0  0  0  0  0  0  0
   10.4723  -15.7506   27.2957 C   0  0  0  0  0  0  0  0  0  0  0  0
   10.8279  -16.0231   28.5933 C   0  0  0  0  0  0  0  0  0  0  0  0
    6.5453  -15.8523   24.9239 O   0  0  0  0  0  0  0  0  0  0  0  0
  2  1  1  0
  3  2  2  0
  4  2  1  0
  4  5  1  0
  5  7  1  0
  5  6  1  6
  7  9  1  0
  8  7  2  0
  9 10  1  0
 10 11  1  1
 11 12  1  0
 13 10  1  0
 13 14  2  0
 15 16  1  0
 16 17  2  0
 16 26  1  0
 17 18  1  0
 18 19  2  0
 19 20  1  0
 21 20  1  1
 21 22  1  0
 21 23  1  0
 22 13  1  0
 23 24  1  0
 25 19  1  0
 26 25  2  0
 27 23  2  0
M  END
$$$$
