NCY.pdb
     RDKit          3D

 27 27  0  0  1  0  0  0  0  0999 V2000
    9.2151  -19.4169   15.4768 N   0  0  0  0  0  0  0  0  0  0  0  0
    9.5029  -19.3962   16.8783 C   0  0  0  0  0  0  0  0  0  0  0  0
   10.4057  -20.1586   17.2901 O   0  0  0  0  0  0  0  0  0  0  0  0
    8.7068  -18.4742   17.7179 C   0  0  0  0  0  0  0  0  0  0  0  0
    7.6835  -19.1092   18.5805 C   0  0  2  0  0  0  0  0  0  0  0  0
    6.5647  -19.4933   17.7221 N   0  0  0  0  0  0  0  0  0  0  0  0
    7.2160  -18.3044   19.7276 C   0  0  0  0  0  0  0  0  0  0  0  0
    6.4591  -17.3206   19.6106 O   0  0  0  0  0  0  0  0  0  0  0  0
    7.6256  -18.6306   21.0623 N   0  0  0  0  0  0  0  0  0  0  0  0
    7.2054  -17.8397   22.2106 C   0  0  1  0  0  0  0  0  0  0  0  0
    6.3812  -18.7316   23.1505 C   0  0  0  0  0  0  0  0  0  0  0  0
    6.0657  -18.0001   24.7454 S   0  0  0  0  0  0  0  0  0  0  0  0
    8.3790  -17.3103   22.9443 C   0  0  0  0  0  0  0  0  0  0  0  0
    9.3718  -18.1033   23.1068 O   0  0  0  0  0  0  0  0  0  0  0  0
    5.6788  -11.9707   27.6034 O   0  0  0  0  0  0  0  0  0  0  0  0
    6.6094  -12.4739   26.7238 C   0  0  0  0  0  0  0  0  0  0  0  0
    6.3451  -12.6594   25.3737 C   0  0  0  0  0  0  0  0  0  0  0  0
    7.3207  -13.1697   24.5350 C   0  0  0  0  0  0  0  0  0  0  0  0
    8.5746  -13.5092   24.9990 C   0  0  0  0  0  0  0  0  0  0  0  0
    9.6339  -14.0544   24.1593 C   0  0  0  0  0  0  0  0  0  0  0  0
    9.7403  -15.5600   24.1422 C   0  0  2  0  0  0  0  0  0  0  0  0
    8.5362  -16.0355   23.4846 N   0  0  0  0  0  0  0  0  0  0  0  0
    9.7730  -16.1367   25.4987 C   0  0  0  0  0  0  0  0  0  0  0  0
    8.6842  -16.8551   25.9546 O   0  0  0  0  0  0  0  0  0  0  0  0
    8.8037  -13.3134   26.3407 C   0  0  0  0  0  0  0  0  0  0  0  0
    7.8631  -12.8099   27.2046 C   0  0  0  0  0  0  0  0  0  0  0  0
   10.7772  -15.9928   26.2669 O   0  0  0  0  0  0  0  0  0  0  0  0
  2  1  1  0
  3  2  2  0
  4  2  1  0
  4  5  1  0
  5  7  1  0
  5  6  1  6
  7  9  1  0
  8  7  2  0
  9 10  1  0
 10 11  1  1
 11 12  1  0
 13 10  1  0
 13 14  2  0
 15 16  1  0
 16 17  2  0
 16 26  1  0
 17 18  1  0
 18 19  2  0
 19 20  1  0
 21 20  1  1
 21 22  1  0
 21 23  1  0
 22 13  1  0
 23 24  1  0
 25 19  1  0
 26 25  2  0
 27 23  2  0
M  END
$$$$
