NCY.pdb
     RDKit          3D

 27 27  0  0  1  0  0  0  0  0999 V2000
   13.8960  -22.7615   15.0451 N   0  0  0  0  0  0  0  0  0  0  0  0
   12.7977  -22.2278   15.7910 C   0  0  0  0  0  0  0  0  0  0  0  0
   11.7429  -22.9005   15.8201 O   0  0  0  0  0  0  0  0  0  0  0  0
   13.0062  -20.9263   16.4629 C   0  0  0  0  0  0  0  0  0  0  0  0
   13.2835  -20.9888   17.9167 C   0  0  2  0  0  0  0  0  0  0  0  0
   12.1569  -21.6730   18.5482 N   0  0  0  0  0  0  0  0  0  0  0  0
   13.5535  -19.6961   18.5788 C   0  0  0  0  0  0  0  0  0  0  0  0
   14.3200  -18.8327   18.1082 O   0  0  0  0  0  0  0  0  0  0  0  0
   12.9270  -19.3713   19.8268 N   0  0  0  0  0  0  0  0  0  0  0  0
   13.2796  -18.1730   20.5754 C   0  0  1  0  0  0  0  0  0  0  0  0
   11.9892  -17.4882   21.0490 C   0  0  0  0  0  0  0  0  0  0  0  0
   10.8976  -18.5613   21.9629 S   0  0  0  0  0  0  0  0  0  0  0  0
   14.1126  -18.5126   21.7529 C   0  0  0  0  0  0  0  0  0  0  0  0
   13.5978  -19.2971   22.6250 O   0  0  0  0  0  0  0  0  0  0  0  0
   12.5175  -23.4496   25.0715 O   0  0  0  0  0  0  0  0  0  0  0  0
   13.4858  -22.5816   24.6220 C   0  0  0  0  0  0  0  0  0  0  0  0
   14.2179  -21.7652   25.4732 C   0  0  0  0  0  0  0  0  0  0  0  0
   15.1805  -20.9108   24.9643 C   0  0  0  0  0  0  0  0  0  0  0  0
   15.4470  -20.8370   23.6130 C   0  0  0  0  0  0  0  0  0  0  0  0
   16.4453  -19.9515   23.0267 C   0  0  0  0  0  0  0  0  0  0  0  0
   16.1815  -18.4743   23.1915 C   0  0  2  0  0  0  0  0  0  0  0  0
   15.4072  -18.0774   22.0291 N   0  0  0  0  0  0  0  0  0  0  0  0
   17.4231  -17.6793   23.2014 C   0  0  0  0  0  0  0  0  0  0  0  0
   18.3267  -17.8489   24.2330 O   0  0  0  0  0  0  0  0  0  0  0  0
   14.7044  -21.6584   22.7976 C   0  0  0  0  0  0  0  0  0  0  0  0
   13.7416  -22.5190   23.2632 C   0  0  0  0  0  0  0  0  0  0  0  0
   17.6901  -16.8374   22.2853 O   0  0  0  0  0  0  0  0  0  0  0  0
  2  1  1  0
  3  2  2  0
  4  2  1  0
  4  5  1  0
  5  7  1  0
  5  6  1  1
  7  9  1  0
  8  7  2  0
  9 10  1  0
 10 11  1  1
 11 12  1  0
 13 10  1  0
 13 14  2  0
 15 16  1  0
 16 17  2  0
 16 26  1  0
 17 18  1  0
 18 19  2  0
 19 20  1  0
 21 20  1  6
 21 22  1  0
 21 23  1  0
 22 13  1  0
 23 24  1  0
 25 19  1  0
 26 25  2  0
 27 23  2  0
M  END
$$$$
