NCY.pdb
     RDKit          3D

 27 27  0  0  1  0  0  0  0  0999 V2000
    9.6117  -13.3364   18.4039 N   0  0  0  0  0  0  0  0  0  0  0  0
    8.1814  -13.3003   18.4210 C   0  0  0  0  0  0  0  0  0  0  0  0
    7.6128  -12.6529   17.5134 O   0  0  0  0  0  0  0  0  0  0  0  0
    7.5001  -14.0322   19.5112 C   0  0  0  0  0  0  0  0  0  0  0  0
    8.3871  -14.7122   20.4835 C   0  0  2  0  0  0  0  0  0  0  0  0
    8.9904  -15.8550   19.8008 N   0  0  0  0  0  0  0  0  0  0  0  0
    7.7555  -15.1292   21.7521 C   0  0  0  0  0  0  0  0  0  0  0  0
    7.1224  -14.3493   22.4906 O   0  0  0  0  0  0  0  0  0  0  0  0
    7.8471  -16.4881   22.2001 N   0  0  0  0  0  0  0  0  0  0  0  0
    7.3174  -16.9102   23.4892 C   0  0  1  0  0  0  0  0  0  0  0  0
    7.0162  -18.4149   23.4312 C   0  0  0  0  0  0  0  0  0  0  0  0
    6.5041  -19.1079   24.9920 S   0  0  0  0  0  0  0  0  0  0  0  0
    8.2947  -16.6492   24.5721 C   0  0  0  0  0  0  0  0  0  0  0  0
    9.5367  -16.7128   24.2649 O   0  0  0  0  0  0  0  0  0  0  0  0
    5.8418  -10.6134   25.3682 O   0  0  0  0  0  0  0  0  0  0  0  0
    6.4077  -11.7100   25.9767 C   0  0  0  0  0  0  0  0  0  0  0  0
    5.6562  -12.7676   26.4703 C   0  0  0  0  0  0  0  0  0  0  0  0
    6.2802  -13.8458   27.0734 C   0  0  0  0  0  0  0  0  0  0  0  0
    7.6515  -13.9121   27.2063 C   0  0  0  0  0  0  0  0  0  0  0  0
    8.3561  -15.0212   27.8371 C   0  0  0  0  0  0  0  0  0  0  0  0
    9.0265  -15.9880   26.8913 C   0  0  2  0  0  0  0  0  0  0  0  0
    8.0221  -16.3365   25.9024 N   0  0  0  0  0  0  0  0  0  0  0  0
    9.4497  -17.2300   27.5638 C   0  0  0  0  0  0  0  0  0  0  0  0
   10.4940  -17.1877   28.4677 O   0  0  0  0  0  0  0  0  0  0  0  0
    8.3662  -12.8486   26.7072 C   0  0  0  0  0  0  0  0  0  0  0  0
    7.7851  -11.7618   26.1026 C   0  0  0  0  0  0  0  0  0  0  0  0
    8.8808  -18.3454   27.3367 O   0  0  0  0  0  0  0  0  0  0  0  0
  2  1  1  0
  3  2  2  0
  4  2  1  0
  4  5  1  0
  5  7  1  0
  5  6  1  6
  7  9  1  0
  8  7  2  0
  9 10  1  0
 10 11  1  6
 11 12  1  0
 13 10  1  0
 13 14  2  0
 15 16  1  0
 16 17  2  0
 16 26  1  0
 17 18  1  0
 18 19  2  0
 19 20  1  0
 21 20  1  1
 21 22  1  0
 21 23  1  0
 22 13  1  0
 23 24  1  0
 25 19  1  0
 26 25  2  0
 27 23  2  0
M  END
$$$$
