NCY.pdb
     RDKit          3D

 27 27  0  0  1  0  0  0  0  0999 V2000
    8.2608  -11.9486   17.7478 N   0  0  0  0  0  0  0  0  0  0  0  0
    7.8404  -13.3159   17.7144 C   0  0  0  0  0  0  0  0  0  0  0  0
    7.9309  -13.9176   16.6208 O   0  0  0  0  0  0  0  0  0  0  0  0
    7.3355  -13.8985   18.9770 C   0  0  0  0  0  0  0  0  0  0  0  0
    8.3469  -14.1118   20.0382 C   0  0  2  0  0  0  0  0  0  0  0  0
    9.5953  -14.4957   19.3822 N   0  0  0  0  0  0  0  0  0  0  0  0
    7.9839  -15.0828   21.0906 C   0  0  0  0  0  0  0  0  0  0  0  0
    6.9129  -15.0344   21.7271 O   0  0  0  0  0  0  0  0  0  0  0  0
    8.8745  -16.1527   21.4340 N   0  0  0  0  0  0  0  0  0  0  0  0
    8.5695  -17.0944   22.5021 C   0  0  1  0  0  0  0  0  0  0  0  0
    9.0812  -18.4843   22.0969 C   0  0  0  0  0  0  0  0  0  0  0  0
    8.8464  -19.7318   23.3487 S   0  0  0  0  0  0  0  0  0  0  0  0
    9.2204  -16.6844   23.7686 C   0  0  0  0  0  0  0  0  0  0  0  0
   10.4022  -16.1971   23.6860 O   0  0  0  0  0  0  0  0  0  0  0  0
    5.9011  -10.9165   25.5038 O   0  0  0  0  0  0  0  0  0  0  0  0
    6.5309  -12.0697   25.9120 C   0  0  0  0  0  0  0  0  0  0  0  0
    7.8814  -12.1169   26.2298 C   0  0  0  0  0  0  0  0  0  0  0  0
    8.4619  -13.3062   26.6351 C   0  0  0  0  0  0  0  0  0  0  0  0
    7.7342  -14.4735   26.7380 C   0  0  0  0  0  0  0  0  0  0  0  0
    8.2984  -15.7512   27.1545 C   0  0  0  0  0  0  0  0  0  0  0  0
    9.3748  -16.3107   26.2561 C   0  0  2  0  0  0  0  0  0  0  0  0
    8.6942  -16.7642   25.0564 N   0  0  0  0  0  0  0  0  0  0  0  0
   10.0591  -17.4714   26.8545 C   0  0  0  0  0  0  0  0  0  0  0  0
    9.8636  -18.7264   26.3101 O   0  0  0  0  0  0  0  0  0  0  0  0
    6.3998  -14.3923   26.4160 C   0  0  0  0  0  0  0  0  0  0  0  0
    5.7871  -13.2328   26.0102 C   0  0  0  0  0  0  0  0  0  0  0  0
   10.8279  -17.3536   27.8616 O   0  0  0  0  0  0  0  0  0  0  0  0
  2  1  1  0
  3  2  2  0
  4  2  1  0
  4  5  1  0
  5  7  1  0
  5  6  1  6
  7  9  1  0
  8  7  2  0
  9 10  1  0
 10 11  1  6
 11 12  1  0
 13 10  1  0
 13 14  2  0
 15 16  1  0
 16 17  2  0
 16 26  1  0
 17 18  1  0
 18 19  2  0
 19 20  1  0
 21 20  1  1
 21 22  1  0
 21 23  1  0
 22 13  1  0
 23 24  1  0
 25 19  1  0
 26 25  2  0
 27 23  2  0
M  END
$$$$
