NCY.pdb
     RDKit          3D

 27 27  0  0  1  0  0  0  0  0999 V2000
    5.6999  -17.7406   17.6006 N   0  0  0  0  0  0  0  0  0  0  0  0
    6.9678  -17.7937   18.2617 C   0  0  0  0  0  0  0  0  0  0  0  0
    7.6232  -18.8552   18.1617 O   0  0  0  0  0  0  0  0  0  0  0  0
    7.3929  -16.5879   19.0059 C   0  0  0  0  0  0  0  0  0  0  0  0
    7.7000  -16.7911   20.4408 C   0  0  2  0  0  0  0  0  0  0  0  0
    6.4879  -17.2989   21.0803 N   0  0  0  0  0  0  0  0  0  0  0  0
    8.2230  -15.6130   21.1625 C   0  0  0  0  0  0  0  0  0  0  0  0
    9.2796  -15.0307   20.8479 O   0  0  0  0  0  0  0  0  0  0  0  0
    7.5165  -15.0747   22.2880 N   0  0  0  0  0  0  0  0  0  0  0  0
    8.1289  -14.1097   23.1905 C   0  0  1  0  0  0  0  0  0  0  0  0
    7.0199  -13.3924   23.9739 C   0  0  0  0  0  0  0  0  0  0  0  0
    6.5318  -14.2354   25.4671 S   0  0  0  0  0  0  0  0  0  0  0  0
    9.0419  -14.7841   24.1431 C   0  0  0  0  0  0  0  0  0  0  0  0
    8.5110  -15.3280   25.1743 O   0  0  0  0  0  0  0  0  0  0  0  0
   11.2205  -14.7016   31.4414 O   0  0  0  0  0  0  0  0  0  0  0  0
   10.9891  -15.0032   30.1191 C   0  0  0  0  0  0  0  0  0  0  0  0
   10.5469  -14.0622   29.1992 C   0  0  0  0  0  0  0  0  0  0  0  0
   10.3308  -14.4229   27.8806 C   0  0  0  0  0  0  0  0  0  0  0  0
   10.5425  -15.7108   27.4342 C   0  0  0  0  0  0  0  0  0  0  0  0
   10.3252  -16.1424   26.0591 C   0  0  0  0  0  0  0  0  0  0  0  0
   11.2683  -15.5562   25.0366 C   0  0  2  0  0  0  0  0  0  0  0  0
   10.4273  -14.9016   24.0505 N   0  0  0  0  0  0  0  0  0  0  0  0
   12.0585  -16.5898   24.3431 C   0  0  0  0  0  0  0  0  0  0  0  0
   13.2657  -16.9928   24.8814 O   0  0  0  0  0  0  0  0  0  0  0  0
   10.9801  -16.6181   28.3704 C   0  0  0  0  0  0  0  0  0  0  0  0
   11.2061  -16.2999   29.6865 C   0  0  0  0  0  0  0  0  0  0  0  0
   11.6621  -17.1250   23.2589 O   0  0  0  0  0  0  0  0  0  0  0  0
  2  1  1  0
  3  2  2  0
  4  2  1  0
  4  5  1  0
  5  7  1  0
  5  6  1  1
  7  9  1  0
  8  7  2  0
  9 10  1  0
 10 11  1  1
 11 12  1  0
 13 10  1  0
 13 14  2  0
 15 16  1  0
 16 17  2  0
 16 26  1  0
 17 18  1  0
 18 19  2  0
 19 20  1  0
 21 20  1  1
 21 22  1  0
 21 23  1  0
 22 13  1  0
 23 24  1  0
 25 19  1  0
 26 25  2  0
 27 23  2  0
M  END
$$$$
