NCY.pdb
     RDKit          3D

 27 27  0  0  1  0  0  0  0  0999 V2000
    5.0987  -19.6461   18.0387 N   0  0  0  0  0  0  0  0  0  0  0  0
    6.3363  -19.2465   17.4421 C   0  0  0  0  0  0  0  0  0  0  0  0
    6.4483  -19.3872   16.2037 O   0  0  0  0  0  0  0  0  0  0  0  0
    7.3756  -18.7014   18.3429 C   0  0  0  0  0  0  0  0  0  0  0  0
    6.9646  -18.4959   19.7512 C   0  0  2  0  0  0  0  0  0  0  0  0
    5.5198  -18.2756   19.7578 N   0  0  0  0  0  0  0  0  0  0  0  0
    7.6657  -17.4177   20.4779 C   0  0  0  0  0  0  0  0  0  0  0  0
    8.9078  -17.3310   20.5430 O   0  0  0  0  0  0  0  0  0  0  0  0
    6.9251  -16.3960   21.1586 N   0  0  0  0  0  0  0  0  0  0  0  0
    7.5532  -15.5047   22.1239 C   0  0  1  0  0  0  0  0  0  0  0  0
    6.7803  -14.1780   22.1477 C   0  0  0  0  0  0  0  0  0  0  0  0
    7.2171  -13.1139   23.5098 S   0  0  0  0  0  0  0  0  0  0  0  0
    7.5398  -16.1020   23.4800 C   0  0  0  0  0  0  0  0  0  0  0  0
    6.4244  -16.5724   23.8992 O   0  0  0  0  0  0  0  0  0  0  0  0
    8.2188  -21.8591   29.7414 O   0  0  0  0  0  0  0  0  0  0  0  0
    8.1447  -20.9765   28.6885 C   0  0  0  0  0  0  0  0  0  0  0  0
    7.0284  -20.1880   28.4452 C   0  0  0  0  0  0  0  0  0  0  0  0
    7.0100  -19.3170   27.3697 C   0  0  0  0  0  0  0  0  0  0  0  0
    8.0823  -19.1989   26.5102 C   0  0  0  0  0  0  0  0  0  0  0  0
    8.1111  -18.3018   25.3619 C   0  0  0  0  0  0  0  0  0  0  0  0
    8.5467  -16.8861   25.6532 C   0  0  2  0  0  0  0  0  0  0  0  0
    8.6092  -16.2174   24.3658 N   0  0  0  0  0  0  0  0  0  0  0  0
    9.8886  -16.8247   26.2608 C   0  0  0  0  0  0  0  0  0  0  0  0
   10.9859  -16.5892   25.4546 O   0  0  0  0  0  0  0  0  0  0  0  0
    9.1718  -19.9938   26.7792 C   0  0  0  0  0  0  0  0  0  0  0  0
    9.2289  -20.8695   27.8349 C   0  0  0  0  0  0  0  0  0  0  0  0
   10.0692  -16.9827   27.5104 O   0  0  0  0  0  0  0  0  0  0  0  0
  2  1  1  0
  3  2  2  0
  4  2  1  0
  4  5  1  0
  5  7  1  0
  5  6  1  6
  7  9  1  0
  8  7  2  0
  9 10  1  0
 10 11  1  1
 11 12  1  0
 13 10  1  0
 13 14  2  0
 15 16  1  0
 16 17  2  0
 16 26  1  0
 17 18  1  0
 18 19  2  0
 19 20  1  0
 21 20  1  6
 21 22  1  0
 21 23  1  0
 22 13  1  0
 23 24  1  0
 25 19  1  0
 26 25  2  0
 27 23  2  0
M  END
$$$$
