SCH.pdb
     RDKit          3D

 23 23  0  0  1  0  0  0  0  0999 V2000
   15.1050   -9.5824  -13.1011 O   0  0  0  0  0  0  0  0  0  0  0  0
   16.2109   -8.7277  -13.1609 C   0  0  0  0  0  0  0  0  0  0  0  0
   17.3082   -9.3684  -12.3505 C   0  0  2  0  0  0  0  0  0  0  0  0
   16.9333   -9.3869  -10.9600 N   0  0  0  0  0  0  0  0  0  0  0  0
   18.5781   -8.6189  -12.4934 C   0  0  0  0  0  0  0  0  0  0  0  0
   18.8671   -7.6777  -11.7062 O   0  0  0  0  0  0  0  0  0  0  0  0
   19.4932   -8.9534  -13.5265 N   0  0  0  0  0  0  0  0  0  0  0  0
   20.6883   -8.1270  -13.7350 C   0  0  1  0  0  0  0  0  0  0  0  0
   21.6215   -8.8950  -14.6474 C   0  0  0  0  0  0  0  0  0  0  0  0
   22.5159  -10.1107  -13.6226 S   0  0  0  0  0  0  0  0  0  0  0  0
   20.3078   -6.8739  -14.4725 C   0  0  0  0  0  0  0  0  0  0  0  0
   19.3782   -6.9172  -15.3183 O   0  0  0  0  0  0  0  0  0  0  0  0
   20.9466   -5.6488  -14.2594 N   0  0  0  0  0  0  0  0  0  0  0  0
   20.5168   -4.4171  -14.9524 C   0  0  1  0  0  0  0  0  0  0  0  0
   19.3818   -3.7914  -14.2379 C   0  0  0  0  0  0  0  0  0  0  0  0
   18.9349   -2.5421  -14.8673 C   0  0  0  0  0  0  0  0  0  0  0  0
   19.4989   -1.3184  -14.4657 C   0  0  0  0  0  0  0  0  0  0  0  0
   18.9430   -0.3488  -15.1668 N   0  0  0  0  0  0  0  0  0  0  0  0
   18.0596   -0.9060  -15.9864 C   0  0  0  0  0  0  0  0  0  0  0  0
   18.0514   -2.2364  -15.8081 N   0  0  0  0  0  0  0  0  0  0  0  0
   21.7052   -3.5168  -15.0353 C   0  0  0  0  0  0  0  0  0  0  0  0
   21.8514   -2.5716  -16.0154 O   0  0  0  0  0  0  0  0  0  0  0  0
   22.6167   -3.6302  -14.1665 O   0  0  0  0  0  0  0  0  0  0  0  0
  2  3  1  0
  2  1  1  0
  3  4  1  1
  3  5  1  0
  5  7  1  0
  6  5  2  0
  7  8  1  0
  8 11  1  0
  8  9  1  6
  9 10  1  0
 11 12  2  0
 13 14  1  0
 13 11  1  0
 14 15  1  1
 15 16  1  0
 16 17  2  0
 16 20  1  0
 17 18  1  0
 18 19  1  0
 20 19  2  0
 21 22  1  0
 21 14  1  0
 23 21  2  0
M  END
$$$$
