SCH.pdb
     RDKit          3D

 23 23  0  0  1  0  0  0  0  0999 V2000
   24.5704   -6.2090  -18.0969 O   0  0  0  0  0  0  0  0  0  0  0  0
   23.5284   -6.4644  -17.1992 C   0  0  0  0  0  0  0  0  0  0  0  0
   22.6469   -5.2420  -17.1867 C   0  0  2  0  0  0  0  0  0  0  0  0
   23.3681   -4.1329  -16.6175 N   0  0  0  0  0  0  0  0  0  0  0  0
   21.4242   -5.4794  -16.3846 C   0  0  0  0  0  0  0  0  0  0  0  0
   21.4142   -5.2710  -15.1414 O   0  0  0  0  0  0  0  0  0  0  0  0
   20.2388   -5.9484  -17.0102 N   0  0  0  0  0  0  0  0  0  0  0  0
   19.0250   -6.1502  -16.2097 C   0  0  1  0  0  0  0  0  0  0  0  0
   17.9787   -5.1782  -16.7132 C   0  0  0  0  0  0  0  0  0  0  0  0
   16.4744   -5.4206  -15.7100 S   0  0  0  0  0  0  0  0  0  0  0  0
   18.4822   -7.5287  -16.4625 C   0  0  0  0  0  0  0  0  0  0  0  0
   18.9301   -8.1976  -17.4286 O   0  0  0  0  0  0  0  0  0  0  0  0
   17.4914   -8.1082  -15.6646 N   0  0  0  0  0  0  0  0  0  0  0  0
   17.1057   -9.5266  -15.8116 C   0  0  1  0  0  0  0  0  0  0  0  0
   18.2184  -10.4102  -15.3975 C   0  0  0  0  0  0  0  0  0  0  0  0
   17.8856  -11.8354  -15.5182 C   0  0  0  0  0  0  0  0  0  0  0  0
   16.6319  -12.2181  -16.0269 C   0  0  0  0  0  0  0  0  0  0  0  0
   16.5674  -13.5358  -16.0391 N   0  0  0  0  0  0  0  0  0  0  0  0
   17.7184  -13.9954  -15.5633 C   0  0  0  0  0  0  0  0  0  0  0  0
   18.5211  -12.9673  -15.2461 N   0  0  0  0  0  0  0  0  0  0  0  0
   15.8740   -9.7386  -14.9945 C   0  0  0  0  0  0  0  0  0  0  0  0
   14.7719  -10.3958  -15.4729 O   0  0  0  0  0  0  0  0  0  0  0  0
   15.8439   -9.2931  -13.8117 O   0  0  0  0  0  0  0  0  0  0  0  0
  2  3  1  0
  2  1  1  0
  3  4  1  1
  3  5  1  0
  5  7  1  0
  6  5  2  0
  7  8  1  0
  8 11  1  0
  8  9  1  6
  9 10  1  0
 11 12  2  0
 13 14  1  0
 13 11  1  0
 14 15  1  1
 15 16  1  0
 16 17  2  0
 16 20  1  0
 17 18  1  0
 18 19  1  0
 20 19  2  0
 21 22  1  0
 21 14  1  0
 23 21  2  0
M  END
$$$$
