SCH.pdb
     RDKit          3D

 23 23  0  0  1  0  0  0  0  0999 V2000
   26.4750  -36.1246   -9.4941 O   0  0  0  0  0  0  0  0  0  0  0  0
   25.9632  -35.1875  -10.3979 C   0  0  0  0  0  0  0  0  0  0  0  0
   24.9561  -34.3546   -9.6472 C   0  0  2  0  0  0  0  0  0  0  0  0
   24.2599  -33.4933  -10.5680 N   0  0  0  0  0  0  0  0  0  0  0  0
   25.6209  -33.5190   -8.6202 C   0  0  0  0  0  0  0  0  0  0  0  0
   26.1424  -32.4122   -8.9237 O   0  0  0  0  0  0  0  0  0  0  0  0
   25.6797  -33.9571   -7.2707 N   0  0  0  0  0  0  0  0  0  0  0  0
   26.3438  -33.1213   -6.2632 C   0  0  1  0  0  0  0  0  0  0  0  0
   25.3078  -32.1682   -5.7051 C   0  0  0  0  0  0  0  0  0  0  0  0
   23.8552  -33.1584   -5.2176 S   0  0  0  0  0  0  0  0  0  0  0  0
   26.7923  -33.9820   -5.1157 C   0  0  0  0  0  0  0  0  0  0  0  0
   26.1656  -35.0421   -4.8614 O   0  0  0  0  0  0  0  0  0  0  0  0
   27.8862  -33.6550   -4.3089 N   0  0  0  0  0  0  0  0  0  0  0  0
   28.3189  -34.5247   -3.1960 C   0  0  1  0  0  0  0  0  0  0  0  0
   29.7535  -34.3117   -2.9014 C   0  0  0  0  0  0  0  0  0  0  0  0
   30.6254  -34.7003   -4.0174 C   0  0  0  0  0  0  0  0  0  0  0  0
   30.2614  -35.7780   -4.8440 C   0  0  0  0  0  0  0  0  0  0  0  0
   31.1923  -35.9341   -5.7657 N   0  0  0  0  0  0  0  0  0  0  0  0
   32.1198  -35.0076   -5.5561 C   0  0  0  0  0  0  0  0  0  0  0  0
   31.7799  -34.2569   -4.4964 N   0  0  0  0  0  0  0  0  0  0  0  0
   27.4440  -34.2167   -2.0259 C   0  0  0  0  0  0  0  0  0  0  0  0
   27.5714  -34.8504   -0.8186 O   0  0  0  0  0  0  0  0  0  0  0  0
   26.5465  -33.3352   -2.1521 O   0  0  0  0  0  0  0  0  0  0  0  0
  2  3  1  0
  2  1  1  0
  3  4  1  6
  3  5  1  0
  5  7  1  0
  6  5  2  0
  7  8  1  0
  8 11  1  0
  8  9  1  1
  9 10  1  0
 11 12  2  0
 13 14  1  0
 13 11  1  0
 14 15  1  1
 15 16  1  0
 16 17  2  0
 16 20  1  0
 17 18  1  0
 18 19  1  0
 20 19  2  0
 21 22  1  0
 21 14  1  0
 23 21  2  0
M  END
$$$$
