SCH.pdb
     RDKit          3D

 23 23  0  0  1  0  0  0  0  0999 V2000
   36.6628   -8.4690  -12.9795 O   0  0  0  0  0  0  0  0  0  0  0  0
   36.1226   -8.3139  -14.2605 C   0  0  0  0  0  0  0  0  0  0  0  0
   35.9697   -9.6945  -14.8452 C   0  0  2  0  0  0  0  0  0  0  0  0
   37.2699  -10.2834  -15.0385 N   0  0  0  0  0  0  0  0  0  0  0  0
   35.2699   -9.6421  -16.1499 C   0  0  0  0  0  0  0  0  0  0  0  0
   35.9161   -9.6427  -17.2323 O   0  0  0  0  0  0  0  0  0  0  0  0
   33.8516   -9.5902  -16.1988 N   0  0  0  0  0  0  0  0  0  0  0  0
   33.1740   -9.4280  -17.4907 C   0  0  1  0  0  0  0  0  0  0  0  0
   32.5868  -10.7712  -17.8705 C   0  0  0  0  0  0  0  0  0  0  0  0
   31.9542  -11.5464  -16.3450 S   0  0  0  0  0  0  0  0  0  0  0  0
   32.0138   -8.4857  -17.3325 C   0  0  0  0  0  0  0  0  0  0  0  0
   31.3710   -8.4789  -16.2517 O   0  0  0  0  0  0  0  0  0  0  0  0
   31.6118   -7.6067  -18.3424 N   0  0  0  0  0  0  0  0  0  0  0  0
   30.5307   -6.6224  -18.1315 C   0  0  1  0  0  0  0  0  0  0  0  0
   31.0786   -5.2476  -18.1197 C   0  0  0  0  0  0  0  0  0  0  0  0
   31.8715   -4.9635  -16.9167 C   0  0  0  0  0  0  0  0  0  0  0  0
   33.2730   -4.8940  -17.0056 C   0  0  0  0  0  0  0  0  0  0  0  0
   33.7579   -4.6298  -15.8074 N   0  0  0  0  0  0  0  0  0  0  0  0
   32.7290   -4.5309  -14.9743 C   0  0  0  0  0  0  0  0  0  0  0  0
   31.5827   -4.7326  -15.6430 N   0  0  0  0  0  0  0  0  0  0  0  0
   29.5260   -6.8272  -19.2169 C   0  0  0  0  0  0  0  0  0  0  0  0
   28.2857   -6.2468  -19.1973 O   0  0  0  0  0  0  0  0  0  0  0  0
   29.8296   -7.5675  -20.1958 O   0  0  0  0  0  0  0  0  0  0  0  0
  2  3  1  0
  2  1  1  0
  3  4  1  6
  3  5  1  0
  5  7  1  0
  6  5  2  0
  7  8  1  0
  8 11  1  0
  8  9  1  1
  9 10  1  0
 11 12  2  0
 13 14  1  0
 13 11  1  0
 14 15  1  6
 15 16  1  0
 16 17  2  0
 16 20  1  0
 17 18  1  0
 18 19  1  0
 20 19  2  0
 21 22  1  0
 21 14  1  0
 23 21  2  0
M  END
$$$$
