SCH.pdb
     RDKit          3D

 23 23  0  0  1  0  0  0  0  0999 V2000
   36.2656  -28.3943    2.6327 O   0  0  0  0  0  0  0  0  0  0  0  0
   36.9534  -27.4059    1.9207 C   0  0  0  0  0  0  0  0  0  0  0  0
   38.2913  -27.2290    2.5915 C   0  0  2  0  0  0  0  0  0  0  0  0
   38.9978  -28.4841    2.5976 N   0  0  0  0  0  0  0  0  0  0  0  0
   38.1255  -26.7670    3.9892 C   0  0  0  0  0  0  0  0  0  0  0  0
   38.0125  -27.5922    4.9354 O   0  0  0  0  0  0  0  0  0  0  0  0
   38.0916  -25.3781    4.2837 N   0  0  0  0  0  0  0  0  0  0  0  0
   37.9136  -24.9331    5.6711 C   0  0  1  0  0  0  0  0  0  0  0  0
   39.1296  -24.1130    6.0476 C   0  0  0  0  0  0  0  0  0  0  0  0
   39.4249  -22.9171    4.7020 S   0  0  0  0  0  0  0  0  0  0  0  0
   36.7333  -24.0061    5.7518 C   0  0  0  0  0  0  0  0  0  0  0  0
   36.0322  -23.8135    4.7258 O   0  0  0  0  0  0  0  0  0  0  0  0
   36.3749  -23.3405    6.9278 N   0  0  0  0  0  0  0  0  0  0  0  0
   35.0957  -22.6119    7.0496 C   0  0  1  0  0  0  0  0  0  0  0  0
   33.9574  -23.5167    6.7744 C   0  0  0  0  0  0  0  0  0  0  0  0
   32.6556  -22.8710    6.9869 C   0  0  0  0  0  0  0  0  0  0  0  0
   32.3345  -21.6995    6.2790 C   0  0  0  0  0  0  0  0  0  0  0  0
   31.1250  -21.3110    6.6352 N   0  0  0  0  0  0  0  0  0  0  0  0
   30.6746  -22.1816    7.5305 C   0  0  0  0  0  0  0  0  0  0  0  0
   31.5998  -23.1297    7.7469 N   0  0  0  0  0  0  0  0  0  0  0  0
   35.0445  -22.0320    8.4247 C   0  0  0  0  0  0  0  0  0  0  0  0
   34.4821  -20.8127    8.6939 O   0  0  0  0  0  0  0  0  0  0  0  0
   35.5410  -22.6914    9.3824 O   0  0  0  0  0  0  0  0  0  0  0  0
  2  3  1  0
  2  1  1  0
  3  4  1  1
  3  5  1  0
  5  7  1  0
  6  5  2  0
  7  8  1  0
  8 11  1  0
  8  9  1  6
  9 10  1  0
 11 12  2  0
 13 14  1  0
 13 11  1  0
 14 15  1  1
 15 16  1  0
 16 17  2  0
 16 20  1  0
 17 18  1  0
 18 19  1  0
 20 19  2  0
 21 22  1  0
 21 14  1  0
 23 21  2  0
M  END
$$$$
