SCH.pdb
     RDKit          3D

 23 23  0  0  1  0  0  0  0  0999 V2000
   24.2364  -16.0921  -17.8306 O   0  0  0  0  0  0  0  0  0  0  0  0
   24.4372  -15.0469  -16.9228 C   0  0  0  0  0  0  0  0  0  0  0  0
   25.8840  -14.6391  -17.0322 C   0  0  2  0  0  0  0  0  0  0  0  0
   26.7112  -15.6119  -16.3662 N   0  0  0  0  0  0  0  0  0  0  0  0
   26.1087  -13.3138  -16.4094 C   0  0  0  0  0  0  0  0  0  0  0  0
   27.1616  -13.0736  -15.7591 O   0  0  0  0  0  0  0  0  0  0  0  0
   25.1340  -12.2891  -16.5378 N   0  0  0  0  0  0  0  0  0  0  0  0
   25.3984  -10.9593  -15.9753 C   0  0  1  0  0  0  0  0  0  0  0  0
   26.6311  -10.4096  -16.6618 C   0  0  0  0  0  0  0  0  0  0  0  0
   26.8777   -8.7029  -16.0663 S   0  0  0  0  0  0  0  0  0  0  0  0
   24.2674  -10.0336  -16.3260 C   0  0  0  0  0  0  0  0  0  0  0  0
   23.9570   -9.8733  -17.5339 O   0  0  0  0  0  0  0  0  0  0  0  0
   23.5365   -9.3349  -15.3607 N   0  0  0  0  0  0  0  0  0  0  0  0
   22.3493   -8.5308  -15.7158 C   0  0  1  0  0  0  0  0  0  0  0  0
   21.4305   -8.4277  -14.5602 C   0  0  0  0  0  0  0  0  0  0  0  0
   20.3671   -9.4401  -14.5891 C   0  0  0  0  0  0  0  0  0  0  0  0
   20.3157  -10.3674  -15.6447 C   0  0  0  0  0  0  0  0  0  0  0  0
   19.2837  -11.1666  -15.4527 N   0  0  0  0  0  0  0  0  0  0  0  0
   18.6878  -10.7846  -14.3295 C   0  0  0  0  0  0  0  0  0  0  0  0
   19.3417   -9.7376  -13.8023 N   0  0  0  0  0  0  0  0  0  0  0  0
   22.8381   -7.1975  -16.1773 C   0  0  0  0  0  0  0  0  0  0  0  0
   22.2548   -6.5113  -17.2090 O   0  0  0  0  0  0  0  0  0  0  0  0
   23.8323   -6.6782  -15.5938 O   0  0  0  0  0  0  0  0  0  0  0  0
  2  3  1  0
  2  1  1  0
  3  4  1  1
  3  5  1  0
  5  7  1  0
  6  5  2  0
  7  8  1  0
  8 11  1  0
  8  9  1  6
  9 10  1  0
 11 12  2  0
 13 14  1  0
 13 11  1  0
 14 15  1  1
 15 16  1  0
 16 17  2  0
 16 20  1  0
 17 18  1  0
 18 19  1  0
 20 19  2  0
 21 22  1  0
 21 14  1  0
 23 21  2  0
M  END
$$$$
