SCH.pdb
     RDKit          3D

 23 23  0  0  1  0  0  0  0  0999 V2000
   28.7550  -33.8698   -5.7832 O   0  0  0  0  0  0  0  0  0  0  0  0
   28.0226  -34.5581   -4.8102 C   0  0  0  0  0  0  0  0  0  0  0  0
   29.0018  -35.4026   -4.0360 C   0  0  2  0  0  0  0  0  0  0  0  0
   29.4057  -36.5296   -4.8367 N   0  0  0  0  0  0  0  0  0  0  0  0
   28.3936  -35.9014   -2.7806 C   0  0  0  0  0  0  0  0  0  0  0  0
   27.8725  -37.0478   -2.7240 O   0  0  0  0  0  0  0  0  0  0  0  0
   28.3896  -35.0887   -1.6161 N   0  0  0  0  0  0  0  0  0  0  0  0
   27.7809  -35.5933   -0.3793 C   0  0  1  0  0  0  0  0  0  0  0  0
   28.6298  -36.7481    0.1096 C   0  0  0  0  0  0  0  0  0  0  0  0
   30.3662  -36.1887    0.1205 S   0  0  0  0  0  0  0  0  0  0  0  0
   27.8529  -34.5325    0.6829 C   0  0  0  0  0  0  0  0  0  0  0  0
   28.8666  -33.7907    0.7425 O   0  0  0  0  0  0  0  0  0  0  0  0
   26.8338  -34.3299    1.6182 N   0  0  0  0  0  0  0  0  0  0  0  0
   26.9438  -33.3074    2.6786 C   0  0  1  0  0  0  0  0  0  0  0  0
   25.8677  -32.3009    2.5396 C   0  0  0  0  0  0  0  0  0  0  0  0
   25.8864  -31.2989    3.6130 C   0  0  0  0  0  0  0  0  0  0  0  0
   27.0729  -30.5980    3.8920 C   0  0  0  0  0  0  0  0  0  0  0  0
   26.8435  -29.7617    4.8863 N   0  0  0  0  0  0  0  0  0  0  0  0
   25.5727  -29.9054    5.2424 C   0  0  0  0  0  0  0  0  0  0  0  0
   24.9883  -30.8369    4.4726 N   0  0  0  0  0  0  0  0  0  0  0  0
   26.8928  -34.0203    3.9896 C   0  0  0  0  0  0  0  0  0  0  0  0
   27.4537  -33.5126    5.1311 O   0  0  0  0  0  0  0  0  0  0  0  0
   26.3089  -35.1401    4.0514 O   0  0  0  0  0  0  0  0  0  0  0  0
  2  3  1  0
  2  1  1  0
  3  4  1  6
  3  5  1  0
  5  7  1  0
  6  5  2  0
  7  8  1  0
  8 11  1  0
  8  9  1  1
  9 10  1  0
 11 12  2  0
 13 14  1  0
 13 11  1  0
 14 15  1  1
 15 16  1  0
 16 17  2  0
 16 20  1  0
 17 18  1  0
 18 19  1  0
 20 19  2  0
 21 22  1  0
 21 14  1  0
 23 21  2  0
M  END
$$$$
