SCH.pdb
     RDKit          3D

 23 23  0  0  1  0  0  0  0  0999 V2000
   31.0932  -30.6853  -17.6700 O   0  0  0  0  0  0  0  0  0  0  0  0
   29.8624  -31.3474  -17.6090 C   0  0  0  0  0  0  0  0  0  0  0  0
   29.8669  -32.1721  -16.3475 C   0  0  2  0  0  0  0  0  0  0  0  0
   30.8199  -33.2444  -16.4754 N   0  0  0  0  0  0  0  0  0  0  0  0
   28.5279  -32.7508  -16.0889 C   0  0  0  0  0  0  0  0  0  0  0  0
   28.3800  -33.9909  -15.9180 O   0  0  0  0  0  0  0  0  0  0  0  0
   27.3851  -31.9099  -16.0295 N   0  0  0  0  0  0  0  0  0  0  0  0
   26.0887  -32.4718  -15.6316 C   0  0  1  0  0  0  0  0  0  0  0  0
   26.1694  -32.8076  -14.1572 C   0  0  0  0  0  0  0  0  0  0  0  0
   24.5174  -33.3751  -13.6309 S   0  0  0  0  0  0  0  0  0  0  0  0
   25.0236  -31.4206  -15.7711 C   0  0  0  0  0  0  0  0  0  0  0  0
   25.2830  -30.2356  -15.4399 O   0  0  0  0  0  0  0  0  0  0  0  0
   23.7436  -31.7024  -16.2574 N   0  0  0  0  0  0  0  0  0  0  0  0
   22.7788  -30.6297  -16.5743 C   0  0  1  0  0  0  0  0  0  0  0  0
   22.3295  -30.7375  -17.9803 C   0  0  0  0  0  0  0  0  0  0  0  0
   23.4016  -30.4499  -18.9418 C   0  0  0  0  0  0  0  0  0  0  0  0
   23.8668  -29.1318  -19.0937 C   0  0  0  0  0  0  0  0  0  0  0  0
   24.8210  -29.1249  -20.0048 N   0  0  0  0  0  0  0  0  0  0  0  0
   24.9751  -30.3731  -20.4297 C   0  0  0  0  0  0  0  0  0  0  0  0
   24.1160  -31.1803  -19.7875 N   0  0  0  0  0  0  0  0  0  0  0  0
   21.6501  -30.7469  -15.6038 C   0  0  0  0  0  0  0  0  0  0  0  0
   21.5505  -31.7748  -14.7043 O   0  0  0  0  0  0  0  0  0  0  0  0
   20.7466  -29.8626  -15.6110 O   0  0  0  0  0  0  0  0  0  0  0  0
  2  3  1  0
  2  1  1  0
  3  4  1  6
  3  5  1  0
  5  7  1  0
  6  5  2  0
  7  8  1  0
  8 11  1  0
  8  9  1  1
  9 10  1  0
 11 12  2  0
 13 14  1  0
 13 11  1  0
 14 15  1  6
 15 16  1  0
 16 17  2  0
 16 20  1  0
 17 18  1  0
 18 19  1  0
 20 19  2  0
 21 22  1  0
 21 14  1  0
 23 21  2  0
M  END
$$$$
