SCH.pdb
     RDKit          3D

 23 23  0  0  1  0  0  0  0  0999 V2000
   17.5047  -11.6147  -17.9424 O   0  0  0  0  0  0  0  0  0  0  0  0
   18.6610  -11.8294  -18.6998 C   0  0  0  0  0  0  0  0  0  0  0  0
   19.7365  -12.2804  -17.7451 C   0  0  2  0  0  0  0  0  0  0  0  0
   19.3718  -13.5506  -17.1725 N   0  0  0  0  0  0  0  0  0  0  0  0
   19.9193  -11.2979  -16.6515 C   0  0  0  0  0  0  0  0  0  0  0  0
   19.4167  -11.4952  -15.5124 O   0  0  0  0  0  0  0  0  0  0  0  0
   20.6687  -10.1122  -16.8737 N   0  0  0  0  0  0  0  0  0  0  0  0
   20.7355   -9.0871  -15.8252 C   0  0  1  0  0  0  0  0  0  0  0  0
   22.1089   -8.4529  -15.8931 C   0  0  0  0  0  0  0  0  0  0  0  0
   22.1977   -7.1905  -14.5791 S   0  0  0  0  0  0  0  0  0  0  0  0
   19.7474   -7.9960  -16.1284 C   0  0  0  0  0  0  0  0  0  0  0  0
   19.6848   -7.5308  -17.2950 O   0  0  0  0  0  0  0  0  0  0  0  0
   18.8850   -7.4684  -15.1628 N   0  0  0  0  0  0  0  0  0  0  0  0
   17.8843   -6.4342  -15.4961 C   0  0  1  0  0  0  0  0  0  0  0  0
   16.6379   -6.6551  -14.7293 C   0  0  0  0  0  0  0  0  0  0  0  0
   15.6017   -5.6597  -15.0327 C   0  0  0  0  0  0  0  0  0  0  0  0
   15.7099   -4.8716  -16.1921 C   0  0  0  0  0  0  0  0  0  0  0  0
   14.6711   -4.0601  -16.2475 N   0  0  0  0  0  0  0  0  0  0  0  0
   13.9193   -4.3020  -15.1804 C   0  0  0  0  0  0  0  0  0  0  0  0
   14.4801   -5.2717  -14.4406 N   0  0  0  0  0  0  0  0  0  0  0  0
   18.5047   -5.1070  -15.2071 C   0  0  0  0  0  0  0  0  0  0  0  0
   18.1600   -3.9658  -15.8812 O   0  0  0  0  0  0  0  0  0  0  0  0
   19.3859   -5.0306  -14.3037 O   0  0  0  0  0  0  0  0  0  0  0  0
  2  3  1  0
  2  1  1  0
  3  4  1  1
  3  5  1  0
  5  7  1  0
  6  5  2  0
  7  8  1  0
  8 11  1  0
  8  9  1  6
  9 10  1  0
 11 12  2  0
 13 14  1  0
 13 11  1  0
 14 15  1  1
 15 16  1  0
 16 17  2  0
 16 20  1  0
 17 18  1  0
 18 19  1  0
 20 19  2  0
 21 22  1  0
 21 14  1  0
 23 21  2  0
M  END
$$$$
