SCH.pdb
     RDKit          3D

 23 23  0  0  1  0  0  0  0  0999 V2000
   19.2950  -14.5528  -14.8648 O   0  0  0  0  0  0  0  0  0  0  0  0
   17.9483  -14.4557  -14.4991 C   0  0  0  0  0  0  0  0  0  0  0  0
   17.1693  -14.1664  -15.7565 C   0  0  2  0  0  0  0  0  0  0  0  0
   17.5112  -15.1320  -16.7689 N   0  0  0  0  0  0  0  0  0  0  0  0
   17.4742  -12.8096  -16.2674 C   0  0  0  0  0  0  0  0  0  0  0  0
   18.3887  -12.6271  -17.1155 O   0  0  0  0  0  0  0  0  0  0  0  0
   16.7348  -11.6888  -15.8051 N   0  0  0  0  0  0  0  0  0  0  0  0
   17.0817  -10.3434  -16.2785 C   0  0  1  0  0  0  0  0  0  0  0  0
   15.8066   -9.5272  -16.3102 C   0  0  0  0  0  0  0  0  0  0  0  0
   14.8894   -9.9975  -17.8155 S   0  0  0  0  0  0  0  0  0  0  0  0
   17.9873   -9.6795  -15.2796 C   0  0  0  0  0  0  0  0  0  0  0  0
   17.9728  -10.0684  -14.0838 O   0  0  0  0  0  0  0  0  0  0  0  0
   18.8548   -8.6380  -15.6220 N   0  0  0  0  0  0  0  0  0  0  0  0
   19.7714   -8.0331  -14.6341 C   0  0  1  0  0  0  0  0  0  0  0  0
   21.0495   -8.7779  -14.5912 C   0  0  0  0  0  0  0  0  0  0  0  0
   21.7847   -8.7160  -15.8610 C   0  0  0  0  0  0  0  0  0  0  0  0
   21.2173   -9.2684  -17.0228 C   0  0  0  0  0  0  0  0  0  0  0  0
   22.0566   -9.0924  -18.0254 N   0  0  0  0  0  0  0  0  0  0  0  0
   23.1202   -8.4576  -17.5477 C   0  0  0  0  0  0  0  0  0  0  0  0
   22.9595   -8.2272  -16.2350 N   0  0  0  0  0  0  0  0  0  0  0  0
   19.9570   -6.6023  -15.0188 C   0  0  0  0  0  0  0  0  0  0  0  0
   20.6579   -5.7131  -14.2484 O   0  0  0  0  0  0  0  0  0  0  0  0
   19.4462   -6.1913  -16.0999 O   0  0  0  0  0  0  0  0  0  0  0  0
  2  3  1  0
  2  1  1  0
  3  4  1  6
  3  5  1  0
  5  7  1  0
  6  5  2  0
  7  8  1  0
  8 11  1  0
  8  9  1  1
  9 10  1  0
 11 12  2  0
 13 14  1  0
 13 11  1  0
 14 15  1  6
 15 16  1  0
 16 17  2  0
 16 20  1  0
 17 18  1  0
 18 19  1  0
 20 19  2  0
 21 22  1  0
 21 14  1  0
 23 21  2  0
M  END
$$$$
