SCH.pdb
     RDKit          3D

 23 23  0  0  1  0  0  0  0  0999 V2000
   23.2546  -14.6746  -18.6905 O   0  0  0  0  0  0  0  0  0  0  0  0
   22.9414  -14.9336  -17.3519 C   0  0  0  0  0  0  0  0  0  0  0  0
   21.4464  -14.8018  -17.2149 C   0  0  2  0  0  0  0  0  0  0  0  0
   20.7964  -15.6823  -18.1512 N   0  0  0  0  0  0  0  0  0  0  0  0
   21.0108  -13.4117  -17.4844 C   0  0  0  0  0  0  0  0  0  0  0  0
   20.8513  -13.0001  -18.6651 O   0  0  0  0  0  0  0  0  0  0  0  0
   20.7656  -12.5181  -16.4082 N   0  0  0  0  0  0  0  0  0  0  0  0
   20.3058  -11.1523  -16.6875 C   0  0  1  0  0  0  0  0  0  0  0  0
   18.8459  -11.0720  -16.2932 C   0  0  0  0  0  0  0  0  0  0  0  0
   18.2904   -9.3591  -16.5855 S   0  0  0  0  0  0  0  0  0  0  0  0
   21.0400  -10.1860  -15.8009 C   0  0  0  0  0  0  0  0  0  0  0  0
   21.2400  -10.4876  -14.5966 O   0  0  0  0  0  0  0  0  0  0  0  0
   21.5161   -8.9537  -16.2581 N   0  0  0  0  0  0  0  0  0  0  0  0
   22.3323   -8.0693  -15.4015 C   0  0  1  0  0  0  0  0  0  0  0  0
   23.5678   -7.6627  -16.1075 C   0  0  0  0  0  0  0  0  0  0  0  0
   24.4601   -8.7951  -16.3867 C   0  0  0  0  0  0  0  0  0  0  0  0
   25.2906   -9.2959  -15.3686 C   0  0  0  0  0  0  0  0  0  0  0  0
   25.9922  -10.3018  -15.8549 N   0  0  0  0  0  0  0  0  0  0  0  0
   25.6415  -10.4543  -17.1261 C   0  0  0  0  0  0  0  0  0  0  0  0
   24.7123   -9.5423  -17.4530 N   0  0  0  0  0  0  0  0  0  0  0  0
   21.4786   -6.9028  -15.0270 C   0  0  0  0  0  0  0  0  0  0  0  0
   21.8632   -5.9707  -14.1004 O   0  0  0  0  0  0  0  0  0  0  0  0
   20.3528   -6.7679  -15.5863 O   0  0  0  0  0  0  0  0  0  0  0  0
  2  3  1  0
  2  1  1  0
  3  4  1  6
  3  5  1  0
  5  7  1  0
  6  5  2  0
  7  8  1  0
  8 11  1  0
  8  9  1  1
  9 10  1  0
 11 12  2  0
 13 14  1  0
 13 11  1  0
 14 15  1  6
 15 16  1  0
 16 17  2  0
 16 20  1  0
 17 18  1  0
 18 19  1  0
 20 19  2  0
 21 22  1  0
 21 14  1  0
 23 21  2  0
M  END
$$$$
