SCH.pdb
     RDKit          3D

 23 23  0  0  1  0  0  0  0  0999 V2000
   20.3960  -13.3939  -18.6124 O   0  0  0  0  0  0  0  0  0  0  0  0
   20.6804  -12.6025  -19.7303 C   0  0  0  0  0  0  0  0  0  0  0  0
   22.1488  -12.2680  -19.6724 C   0  0  2  0  0  0  0  0  0  0  0  0
   22.9172  -13.4828  -19.5822 N   0  0  0  0  0  0  0  0  0  0  0  0
   22.4526  -11.4216  -18.4951 C   0  0  0  0  0  0  0  0  0  0  0  0
   22.8870  -11.9299  -17.4264 O   0  0  0  0  0  0  0  0  0  0  0  0
   22.2572  -10.0163  -18.5554 N   0  0  0  0  0  0  0  0  0  0  0  0
   22.5804   -9.1864  -17.3886 C   0  0  1  0  0  0  0  0  0  0  0  0
   23.0209   -7.8308  -17.8999 C   0  0  0  0  0  0  0  0  0  0  0  0
   23.4658   -6.8145  -16.4517 S   0  0  0  0  0  0  0  0  0  0  0  0
   21.3351   -8.9525  -16.5804 C   0  0  0  0  0  0  0  0  0  0  0  0
   20.2834   -8.5863  -17.1646 O   0  0  0  0  0  0  0  0  0  0  0  0
   21.2912   -9.1249  -15.1938 N   0  0  0  0  0  0  0  0  0  0  0  0
   20.0301   -9.0011  -14.4345 C   0  0  1  0  0  0  0  0  0  0  0  0
   20.1345   -9.7110  -13.1402 C   0  0  0  0  0  0  0  0  0  0  0  0
   18.8904   -9.6567  -12.3617 C   0  0  0  0  0  0  0  0  0  0  0  0
   17.6527   -9.6133  -13.0274 C   0  0  0  0  0  0  0  0  0  0  0  0
   16.6911   -9.5691  -12.1251 N   0  0  0  0  0  0  0  0  0  0  0  0
   17.2666   -9.5828  -10.9289 C   0  0  0  0  0  0  0  0  0  0  0  0
   18.6007   -9.6359  -11.0677 N   0  0  0  0  0  0  0  0  0  0  0  0
   19.7551   -7.5433  -14.2655 C   0  0  0  0  0  0  0  0  0  0  0  0
   18.5091   -7.0003  -14.4329 O   0  0  0  0  0  0  0  0  0  0  0  0
   20.7106   -6.7754  -13.9558 O   0  0  0  0  0  0  0  0  0  0  0  0
  2  3  1  0
  2  1  1  0
  3  4  1  1
  3  5  1  0
  5  7  1  0
  6  5  2  0
  7  8  1  0
  8 11  1  0
  8  9  1  6
  9 10  1  0
 11 12  2  0
 13 14  1  0
 13 11  1  0
 14 15  1  1
 15 16  1  0
 16 17  2  0
 16 20  1  0
 17 18  1  0
 18 19  1  0
 20 19  2  0
 21 22  1  0
 21 14  1  0
 23 21  2  0
M  END
$$$$
