SCH.pdb
     RDKit          3D

 23 23  0  0  1  0  0  0  0  0999 V2000
   15.9761  -12.6573  -15.2793 O   0  0  0  0  0  0  0  0  0  0  0  0
   17.0825  -11.8074  -15.1770 C   0  0  0  0  0  0  0  0  0  0  0  0
   17.7869  -11.8375  -16.5090 C   0  0  2  0  0  0  0  0  0  0  0  0
   18.3553  -13.1431  -16.7250 N   0  0  0  0  0  0  0  0  0  0  0  0
   18.8718  -10.8298  -16.5568 C   0  0  0  0  0  0  0  0  0  0  0  0
   20.0823  -11.1782  -16.5078 O   0  0  0  0  0  0  0  0  0  0  0  0
   18.5601   -9.4482  -16.6593 N   0  0  0  0  0  0  0  0  0  0  0  0
   19.6442   -8.4638  -16.7610 C   0  0  1  0  0  0  0  0  0  0  0  0
   19.3356   -7.5643  -17.9395 C   0  0  0  0  0  0  0  0  0  0  0  0
   19.8496   -8.4440  -19.4527 S   0  0  0  0  0  0  0  0  0  0  0  0
   19.6383   -7.5850  -15.5417 C   0  0  0  0  0  0  0  0  0  0  0  0
   18.5527   -7.3706  -14.9443 O   0  0  0  0  0  0  0  0  0  0  0  0
   20.7967   -6.9883  -15.0353 N   0  0  0  0  0  0  0  0  0  0  0  0
   20.8106   -6.3056  -13.7254 C   0  0  1  0  0  0  0  0  0  0  0  0
   20.9803   -7.2886  -12.6322 C   0  0  0  0  0  0  0  0  0  0  0  0
   21.0535   -6.6573  -11.3083 C   0  0  0  0  0  0  0  0  0  0  0  0
   19.8700   -6.3786  -10.6022 C   0  0  0  0  0  0  0  0  0  0  0  0
   20.1889   -5.8178   -9.4514 N   0  0  0  0  0  0  0  0  0  0  0  0
   21.5128   -5.7321   -9.4034 C   0  0  0  0  0  0  0  0  0  0  0  0
   22.0415   -6.2402  -10.5279 N   0  0  0  0  0  0  0  0  0  0  0  0
   21.9111   -5.2971  -13.7622 C   0  0  0  0  0  0  0  0  0  0  0  0
   22.0468   -4.3141  -12.8184 O   0  0  0  0  0  0  0  0  0  0  0  0
   22.7539   -5.3497  -14.7032 O   0  0  0  0  0  0  0  0  0  0  0  0
  2  3  1  0
  2  1  1  0
  3  4  1  1
  3  5  1  0
  5  7  1  0
  6  5  2  0
  7  8  1  0
  8 11  1  0
  8  9  1  6
  9 10  1  0
 11 12  2  0
 13 14  1  0
 13 11  1  0
 14 15  1  1
 15 16  1  0
 16 17  2  0
 16 20  1  0
 17 18  1  0
 18 19  1  0
 20 19  2  0
 21 22  1  0
 21 14  1  0
 23 21  2  0
M  END
$$$$
