SCH.pdb
     RDKit          3D

 23 23  0  0  1  0  0  0  0  0999 V2000
   13.5142  -19.5549    2.8530 O   0  0  0  0  0  0  0  0  0  0  0  0
   14.6052  -19.9903    3.6126 C   0  0  0  0  0  0  0  0  0  0  0  0
   15.7739  -20.1237    2.6704 C   0  0  2  0  0  0  0  0  0  0  0  0
   15.5968  -21.2898    1.8438 N   0  0  0  0  0  0  0  0  0  0  0  0
   17.0450  -20.2574    3.4196 C   0  0  0  0  0  0  0  0  0  0  0  0
   17.8445  -21.2010    3.1760 O   0  0  0  0  0  0  0  0  0  0  0  0
   17.3819  -19.3174    4.4293 N   0  0  0  0  0  0  0  0  0  0  0  0
   18.6727  -19.4235    5.1202 C   0  0  1  0  0  0  0  0  0  0  0  0
   19.7434  -18.9393    4.1650 C   0  0  0  0  0  0  0  0  0  0  0  0
   21.3231  -18.9125    5.0770 S   0  0  0  0  0  0  0  0  0  0  0  0
   18.6916  -18.4834    6.2927 C   0  0  0  0  0  0  0  0  0  0  0  0
   18.5798  -17.2473    6.0907 O   0  0  0  0  0  0  0  0  0  0  0  0
   18.8292  -18.9245    7.6121 N   0  0  0  0  0  0  0  0  0  0  0  0
   18.8158  -17.9845    8.7514 C   0  0  1  0  0  0  0  0  0  0  0  0
   18.3200  -18.6588    9.9719 C   0  0  0  0  0  0  0  0  0  0  0  0
   16.8603  -18.8196    9.9776 C   0  0  0  0  0  0  0  0  0  0  0  0
   16.0413  -17.7694    9.5266 C   0  0  0  0  0  0  0  0  0  0  0  0
   14.7809  -18.1464    9.6263 N   0  0  0  0  0  0  0  0  0  0  0  0
   14.7717  -19.3798   10.1172 C   0  0  0  0  0  0  0  0  0  0  0  0
   16.0310  -19.7922   10.3318 N   0  0  0  0  0  0  0  0  0  0  0  0
   20.2054  -17.4622    8.9123 C   0  0  0  0  0  0  0  0  0  0  0  0
   20.4732  -16.1838    9.3241 O   0  0  0  0  0  0  0  0  0  0  0  0
   21.1775  -18.2295    8.6576 O   0  0  0  0  0  0  0  0  0  0  0  0
  2  3  1  0
  2  1  1  0
  3  4  1  1
  3  5  1  0
  5  7  1  0
  6  5  2  0
  7  8  1  0
  8 11  1  0
  8  9  1  6
  9 10  1  0
 11 12  2  0
 13 14  1  0
 13 11  1  0
 14 15  1  1
 15 16  1  0
 16 17  2  0
 16 20  1  0
 17 18  1  0
 18 19  1  0
 20 19  2  0
 21 22  1  0
 21 14  1  0
 23 21  2  0
M  END
$$$$
