SCH.pdb
     RDKit          3D

 23 23  0  0  1  0  0  0  0  0999 V2000
   19.2761  -14.4993  -16.7760 O   0  0  0  0  0  0  0  0  0  0  0  0
   19.3909  -14.0544  -18.0973 C   0  0  0  0  0  0  0  0  0  0  0  0
   20.8633  -13.9602  -18.4048 C   0  0  2  0  0  0  0  0  0  0  0  0
   21.4930  -15.2288  -18.1432 N   0  0  0  0  0  0  0  0  0  0  0  0
   21.5130  -12.9228  -17.5703 C   0  0  0  0  0  0  0  0  0  0  0  0
   22.6544  -13.1142  -17.0707 O   0  0  0  0  0  0  0  0  0  0  0  0
   20.8537  -11.6901  -17.3205 N   0  0  0  0  0  0  0  0  0  0  0  0
   21.5497  -10.6299  -16.5815 C   0  0  1  0  0  0  0  0  0  0  0  0
   22.7490  -10.2103  -17.4054 C   0  0  0  0  0  0  0  0  0  0  0  0
   23.5859   -8.8588  -16.5104 S   0  0  0  0  0  0  0  0  0  0  0  0
   20.6596   -9.4231  -16.4804 C   0  0  0  0  0  0  0  0  0  0  0  0
   20.1306   -8.9609  -17.5234 O   0  0  0  0  0  0  0  0  0  0  0  0
   20.3894   -8.7836  -15.2670 N   0  0  0  0  0  0  0  0  0  0  0  0
   19.4334   -7.6612  -15.1757 C   0  0  1  0  0  0  0  0  0  0  0  0
   18.4181   -7.9307  -14.1333 C   0  0  0  0  0  0  0  0  0  0  0  0
   17.5793   -9.0948  -14.4462 C   0  0  0  0  0  0  0  0  0  0  0  0
   16.7472   -9.0703  -15.5793 C   0  0  0  0  0  0  0  0  0  0  0  0
   16.0985  -10.2170  -15.6496 N   0  0  0  0  0  0  0  0  0  0  0  0
   16.4839  -10.9566  -14.6168 C   0  0  0  0  0  0  0  0  0  0  0  0
   17.3823  -10.2798  -13.8841 N   0  0  0  0  0  0  0  0  0  0  0  0
   20.2245   -6.4260  -14.8963 C   0  0  0  0  0  0  0  0  0  0  0  0
   19.6426   -5.2009  -14.7065 O   0  0  0  0  0  0  0  0  0  0  0  0
   21.4844   -6.5112  -14.8326 O   0  0  0  0  0  0  0  0  0  0  0  0
  2  3  1  0
  2  1  1  0
  3  4  1  1
  3  5  1  0
  5  7  1  0
  6  5  2  0
  7  8  1  0
  8 11  1  0
  8  9  1  6
  9 10  1  0
 11 12  2  0
 13 14  1  0
 13 11  1  0
 14 15  1  1
 15 16  1  0
 16 17  2  0
 16 20  1  0
 17 18  1  0
 18 19  1  0
 20 19  2  0
 21 22  1  0
 21 14  1  0
 23 21  2  0
M  END
$$$$
