DGQ.pdb
     RDKit          3D

 22 21  0  0  1  0  0  0  0  0999 V2000
   18.5369   -9.1936  -14.8053 N   0  0  0  0  0  0  0  0  0  0  0  0
   17.4322   -9.8993  -14.1853 C   0  0  1  0  0  0  0  0  0  0  0  0
   17.7769  -11.3819  -14.2457 C   0  0  0  0  0  0  0  0  0  0  0  0
   17.0305  -11.9658  -15.3785 C   0  0  0  0  0  0  0  0  0  0  0  0
   15.7981  -11.8148  -15.5545 O   0  0  0  0  0  0  0  0  0  0  0  0
   17.3453   -9.4831  -12.7625 C   0  0  0  0  0  0  0  0  0  0  0  0
   16.4812   -9.9874  -12.0024 O   0  0  0  0  0  0  0  0  0  0  0  0
   17.7361  -12.7267  -16.3025 O   0  0  0  0  0  0  0  0  0  0  0  0
   18.2238   -8.5089  -12.2040 N   0  0  0  0  0  0  0  0  0  0  0  0
   18.1812   -8.0815  -10.8428 C   0  0  0  0  0  0  0  0  0  0  0  0
   16.9451   -7.2748  -10.5482 C   0  0  0  0  0  0  0  0  0  0  0  0
   16.2804   -6.7824  -11.4940 O   0  0  0  0  0  0  0  0  0  0  0  0
   11.1758   -6.0784   -6.3752 N   0  0  0  0  0  0  0  0  0  0  0  0
   12.4007   -6.6620   -6.7702 C   0  0  0  0  0  0  0  0  0  0  0  0
   12.3865   -7.9285   -6.9799 O   0  0  0  0  0  0  0  0  0  0  0  0
   13.6706   -5.9759   -6.9706 C   0  0  0  0  0  0  0  0  0  0  0  0
   14.7775   -6.7243   -7.5829 C   0  0  0  0  0  0  0  0  0  0  0  0
   15.3286   -6.2394   -8.8821 C   0  0  2  0  0  0  0  0  0  0  0  0
   16.5206   -7.0634   -9.2137 N   0  0  0  0  0  0  0  0  0  0  0  0
   15.6578   -4.8296   -8.9586 C   0  0  0  0  0  0  0  0  0  0  0  0
   16.8807   -4.2375   -8.7243 O   0  0  0  0  0  0  0  0  0  0  0  0
   14.7137   -4.0178   -9.2728 O   0  0  0  0  0  0  0  0  0  0  0  0
  2  1  1  6
  2  3  1  0
  3  4  1  0
  4  8  1  0
  5  4  2  0
  6  7  2  0
  6  2  1  0
  9  6  1  0
 10  9  1  0
 10 11  1  0
 11 12  2  0
 13 14  1  0
 14 16  1  0
 14 15  2  0
 16 17  1  0
 18 17  1  1
 18 20  1  0
 19 11  1  0
 19 18  1  0
 20 21  1  0
 22 20  2  0
M  END
$$$$
