DGQ.pdb
     RDKit          3D

 22 21  0  0  1  0  0  0  0  0999 V2000
   28.1170  -21.8120  -15.3780 N   0  0  0  0  0  0  0  0  0  0  0  0
   26.9659  -21.3282  -16.1153 C   0  0  1  0  0  0  0  0  0  0  0  0
   26.8199  -22.2325  -17.3325 C   0  0  0  0  0  0  0  0  0  0  0  0
   28.1673  -22.4285  -17.9046 C   0  0  0  0  0  0  0  0  0  0  0  0
   29.2284  -22.3170  -17.2457 O   0  0  0  0  0  0  0  0  0  0  0  0
   25.7612  -21.4752  -15.2595 C   0  0  0  0  0  0  0  0  0  0  0  0
   24.6121  -21.4544  -15.7672 O   0  0  0  0  0  0  0  0  0  0  0  0
   28.2636  -22.7554  -19.2516 O   0  0  0  0  0  0  0  0  0  0  0  0
   25.8528  -21.6438  -13.8467 N   0  0  0  0  0  0  0  0  0  0  0  0
   24.7237  -21.7505  -12.9800 C   0  0  0  0  0  0  0  0  0  0  0  0
   23.6559  -20.7479  -13.3262 C   0  0  0  0  0  0  0  0  0  0  0  0
   23.7228  -19.5803  -12.8666 O   0  0  0  0  0  0  0  0  0  0  0  0
   22.3788  -17.6633  -17.7926 N   0  0  0  0  0  0  0  0  0  0  0  0
   21.0363  -17.9256  -17.4379 C   0  0  0  0  0  0  0  0  0  0  0  0
   20.1534  -17.1290  -17.9218 O   0  0  0  0  0  0  0  0  0  0  0  0
   20.5524  -19.0070  -16.5894 C   0  0  0  0  0  0  0  0  0  0  0  0
   21.5390  -19.9185  -15.9924 C   0  0  0  0  0  0  0  0  0  0  0  0
   21.4930  -20.1467  -14.5184 C   0  0  2  0  0  0  0  0  0  0  0  0
   22.5732  -21.1053  -14.1663 N   0  0  0  0  0  0  0  0  0  0  0  0
   20.2273  -20.5967  -13.9733 C   0  0  0  0  0  0  0  0  0  0  0  0
   19.7915  -21.8958  -13.8209 O   0  0  0  0  0  0  0  0  0  0  0  0
   19.3961  -19.6972  -13.5872 O   0  0  0  0  0  0  0  0  0  0  0  0
  2  1  1  1
  2  3  1  0
  3  4  1  0
  4  8  1  0
  5  4  2  0
  6  7  2  0
  6  2  1  0
  9  6  1  0
 10  9  1  0
 10 11  1  0
 11 12  2  0
 13 14  1  0
 14 16  1  0
 14 15  2  0
 16 17  1  0
 18 17  1  6
 18 20  1  0
 19 11  1  0
 19 18  1  0
 20 21  1  0
 22 20  2  0
M  END
$$$$
