DGQ.pdb
     RDKit          3D

 22 21  0  0  1  0  0  0  0  0999 V2000
   16.4805  -15.5959  -17.6723 N   0  0  0  0  0  0  0  0  0  0  0  0
   16.5878  -14.6396  -16.5875 C   0  0  1  0  0  0  0  0  0  0  0  0
   16.8832  -15.4445  -15.3283 C   0  0  0  0  0  0  0  0  0  0  0  0
   15.5961  -15.9566  -14.8161 C   0  0  0  0  0  0  0  0  0  0  0  0
   14.4853  -15.4332  -15.0710 O   0  0  0  0  0  0  0  0  0  0  0  0
   17.7361  -13.7395  -16.8635 C   0  0  0  0  0  0  0  0  0  0  0  0
   18.6459  -14.0913  -17.6555 O   0  0  0  0  0  0  0  0  0  0  0  0
   15.6184  -17.0842  -14.0046 O   0  0  0  0  0  0  0  0  0  0  0  0
   17.8561  -12.4569  -16.2526 N   0  0  0  0  0  0  0  0  0  0  0  0
   18.9226  -11.5446  -16.5127 C   0  0  0  0  0  0  0  0  0  0  0  0
   18.7962  -10.2880  -15.6939 C   0  0  0  0  0  0  0  0  0  0  0  0
   17.7888  -10.1178  -14.9624 O   0  0  0  0  0  0  0  0  0  0  0  0
   23.7686   -6.1233  -14.6238 N   0  0  0  0  0  0  0  0  0  0  0  0
   22.5919   -5.6211  -14.0239 C   0  0  0  0  0  0  0  0  0  0  0  0
   22.7121   -4.5272  -13.3627 O   0  0  0  0  0  0  0  0  0  0  0  0
   21.2606   -6.2105  -14.0845 C   0  0  0  0  0  0  0  0  0  0  0  0
   21.0815   -7.4484  -14.8565 C   0  0  0  0  0  0  0  0  0  0  0  0
   19.7145   -8.0412  -14.9394 C   0  0  2  0  0  0  0  0  0  0  0  0
   19.8020   -9.2919  -15.7380 N   0  0  0  0  0  0  0  0  0  0  0  0
   18.6692   -7.1846  -15.4639 C   0  0  0  0  0  0  0  0  0  0  0  0
   17.8193   -6.3635  -14.7537 O   0  0  0  0  0  0  0  0  0  0  0  0
   18.4914   -7.1789  -16.7356 O   0  0  0  0  0  0  0  0  0  0  0  0
  2  1  1  6
  2  3  1  0
  3  4  1  0
  4  8  1  0
  5  4  2  0
  6  7  2  0
  6  2  1  0
  9  6  1  0
 10  9  1  0
 10 11  1  0
 11 12  2  0
 13 14  1  0
 14 16  1  0
 14 15  2  0
 16 17  1  0
 18 17  1  6
 18 20  1  0
 19 11  1  0
 19 18  1  0
 20 21  1  0
 22 20  2  0
M  END
$$$$
