DGQ.pdb
     RDKit          3D

 22 21  0  0  1  0  0  0  0  0999 V2000
   23.6290  -12.9587  -19.1492 N   0  0  0  0  0  0  0  0  0  0  0  0
   22.3189  -13.4697  -19.5035 C   0  0  1  0  0  0  0  0  0  0  0  0
   22.1964  -14.8392  -18.8478 C   0  0  0  0  0  0  0  0  0  0  0  0
   22.2570  -15.8525  -19.9205 C   0  0  0  0  0  0  0  0  0  0  0  0
   22.5623  -15.5936  -21.1089 O   0  0  0  0  0  0  0  0  0  0  0  0
   21.2890  -12.5673  -18.9289 C   0  0  0  0  0  0  0  0  0  0  0  0
   20.1515  -12.4812  -19.4554 O   0  0  0  0  0  0  0  0  0  0  0  0
   21.9580  -17.1692  -19.5927 O   0  0  0  0  0  0  0  0  0  0  0  0
   21.5404  -11.7711  -17.7732 N   0  0  0  0  0  0  0  0  0  0  0  0
   20.5569  -10.9580  -17.1338 C   0  0  0  0  0  0  0  0  0  0  0  0
   20.9344   -9.5012  -17.1567 C   0  0  0  0  0  0  0  0  0  0  0  0
   22.1213   -9.1673  -17.3991 O   0  0  0  0  0  0  0  0  0  0  0  0
   16.5513   -4.5794  -16.9867 N   0  0  0  0  0  0  0  0  0  0  0  0
   17.8523   -4.0609  -16.7982 C   0  0  0  0  0  0  0  0  0  0  0  0
   17.9396   -2.7922  -16.6221 O   0  0  0  0  0  0  0  0  0  0  0  0
   19.0986   -4.8157  -16.7756 C   0  0  0  0  0  0  0  0  0  0  0  0
   19.0308   -6.2765  -16.9239 C   0  0  0  0  0  0  0  0  0  0  0  0
   20.3056   -7.0520  -16.8993 C   0  0  2  0  0  0  0  0  0  0  0  0
   19.9653   -8.4989  -16.9077 N   0  0  0  0  0  0  0  0  0  0  0  0
   21.2193   -6.7590  -15.8126 C   0  0  0  0  0  0  0  0  0  0  0  0
   21.3552   -7.4397  -14.6214 O   0  0  0  0  0  0  0  0  0  0  0  0
   21.9981   -5.7474  -15.9508 O   0  0  0  0  0  0  0  0  0  0  0  0
  2  1  1  1
  2  3  1  0
  3  4  1  0
  4  8  1  0
  5  4  2  0
  6  7  2  0
  6  2  1  0
  9  6  1  0
 10  9  1  0
 10 11  1  0
 11 12  2  0
 13 14  1  0
 14 16  1  0
 14 15  2  0
 16 17  1  0
 18 17  1  1
 18 20  1  0
 19 11  1  0
 19 18  1  0
 20 21  1  0
 22 20  2  0
M  END
$$$$
