DGQ.pdb
     RDKit          3D

 22 21  0  0  1  0  0  0  0  0999 V2000
   20.0356  -21.7744  -15.9976 N   0  0  0  0  0  0  0  0  0  0  0  0
   19.4153  -20.5954  -15.4248 C   0  0  1  0  0  0  0  0  0  0  0  0
   18.3603  -21.0937  -14.4453 C   0  0  0  0  0  0  0  0  0  0  0  0
   17.0756  -21.1586  -15.1711 C   0  0  0  0  0  0  0  0  0  0  0  0
   16.5639  -20.1848  -15.7730 O   0  0  0  0  0  0  0  0  0  0  0  0
   20.4477  -19.8360  -14.6748 C   0  0  0  0  0  0  0  0  0  0  0  0
   20.1152  -18.9144  -13.8881 O   0  0  0  0  0  0  0  0  0  0  0  0
   16.3952  -22.3700  -15.1871 O   0  0  0  0  0  0  0  0  0  0  0  0
   21.8395  -20.1137  -14.8112 N   0  0  0  0  0  0  0  0  0  0  0  0
   22.8616  -19.4630  -14.0567 C   0  0  0  0  0  0  0  0  0  0  0  0
   23.6475  -20.4382  -13.2219 C   0  0  0  0  0  0  0  0  0  0  0  0
   23.2943  -21.6430  -13.1708 O   0  0  0  0  0  0  0  0  0  0  0  0
   26.2197  -20.1458  -14.5481 N   0  0  0  0  0  0  0  0  0  0  0  0
   27.4896  -20.5957  -14.1216 C   0  0  0  0  0  0  0  0  0  0  0  0
   28.3418  -20.8548  -15.0461 O   0  0  0  0  0  0  0  0  0  0  0  0
   27.9316  -20.7877  -12.7464 C   0  0  0  0  0  0  0  0  0  0  0  0
   27.0101  -20.4222  -11.6612 C   0  0  0  0  0  0  0  0  0  0  0  0
   25.6177  -20.9577  -11.7025 C   0  0  2  0  0  0  0  0  0  0  0  0
   24.7836  -20.0132  -12.4910 N   0  0  0  0  0  0  0  0  0  0  0  0
   24.9920  -21.2301  -10.4234 C   0  0  0  0  0  0  0  0  0  0  0  0
   25.1754  -22.3319   -9.6151 O   0  0  0  0  0  0  0  0  0  0  0  0
   24.1606  -20.3606   -9.9743 O   0  0  0  0  0  0  0  0  0  0  0  0
  2  1  1  1
  2  3  1  0
  3  4  1  0
  4  8  1  0
  5  4  2  0
  6  7  2  0
  6  2  1  0
  9  6  1  0
 10  9  1  0
 10 11  1  0
 11 12  2  0
 13 14  1  0
 14 16  1  0
 14 15  2  0
 16 17  1  0
 18 17  1  1
 18 20  1  0
 19 11  1  0
 19 18  1  0
 20 21  1  0
 22 20  2  0
M  END
$$$$
