DGQ.pdb
     RDKit          3D

 22 21  0  0  1  0  0  0  0  0999 V2000
   21.2541   -5.4348  -16.2735 N   0  0  0  0  0  0  0  0  0  0  0  0
   22.0740   -5.8226  -15.1420 C   0  0  1  0  0  0  0  0  0  0  0  0
   21.3910   -5.2633  -13.9005 C   0  0  0  0  0  0  0  0  0  0  0  0
   21.4169   -3.7903  -14.0046 C   0  0  0  0  0  0  0  0  0  0  0  0
   20.3883   -3.0783  -14.0917 O   0  0  0  0  0  0  0  0  0  0  0  0
   22.0893   -7.3050  -15.0561 C   0  0  0  0  0  0  0  0  0  0  0  0
   22.6242   -7.8813  -14.0761 O   0  0  0  0  0  0  0  0  0  0  0  0
   22.6539   -3.1575  -14.0059 O   0  0  0  0  0  0  0  0  0  0  0  0
   21.5074   -8.1275  -16.0649 N   0  0  0  0  0  0  0  0  0  0  0  0
   21.5348   -9.5545  -16.0465 C   0  0  0  0  0  0  0  0  0  0  0  0
   20.6734  -10.1446  -17.1304 C   0  0  0  0  0  0  0  0  0  0  0  0
   19.9733   -9.3907  -17.8519 O   0  0  0  0  0  0  0  0  0  0  0  0
   21.2378  -16.3622  -19.2116 N   0  0  0  0  0  0  0  0  0  0  0  0
   20.2696  -15.6808  -19.9831 C   0  0  0  0  0  0  0  0  0  0  0  0
   19.7273  -16.3492  -20.9357 O   0  0  0  0  0  0  0  0  0  0  0  0
   19.8199  -14.3063  -19.8045 C   0  0  0  0  0  0  0  0  0  0  0  0
   20.3716  -13.5332  -18.6827 C   0  0  0  0  0  0  0  0  0  0  0  0
   19.8443  -12.1582  -18.4415 C   0  0  2  0  0  0  0  0  0  0  0  0
   20.6420  -11.5437  -17.3480 N   0  0  0  0  0  0  0  0  0  0  0  0
   18.4284  -12.0511  -18.1491 C   0  0  0  0  0  0  0  0  0  0  0  0
   17.4058  -11.7756  -19.0319 O   0  0  0  0  0  0  0  0  0  0  0  0
   18.0612  -12.2223  -16.9305 O   0  0  0  0  0  0  0  0  0  0  0  0
  2  1  1  6
  2  3  1  0
  3  4  1  0
  4  8  1  0
  5  4  2  0
  6  7  2  0
  6  2  1  0
  9  6  1  0
 10  9  1  0
 10 11  1  0
 11 12  2  0
 13 14  1  0
 14 16  1  0
 14 15  2  0
 16 17  1  0
 18 17  1  1
 18 20  1  0
 19 11  1  0
 19 18  1  0
 20 21  1  0
 22 20  2  0
M  END
$$$$
