DGQ.pdb
     RDKit          3D

 22 21  0  0  1  0  0  0  0  0999 V2000
   18.7466  -10.1092  -13.7754 N   0  0  0  0  0  0  0  0  0  0  0  0
   19.4709   -8.8721  -13.9943 C   0  0  1  0  0  0  0  0  0  0  0  0
   19.0848   -8.3846  -15.3850 C   0  0  0  0  0  0  0  0  0  0  0  0
   19.6861   -9.3126  -16.3640 C   0  0  0  0  0  0  0  0  0  0  0  0
   20.5365  -10.1853  -16.0676 O   0  0  0  0  0  0  0  0  0  0  0  0
   19.0166   -7.8753  -12.9918 C   0  0  0  0  0  0  0  0  0  0  0  0
   19.5515   -6.7399  -12.9340 O   0  0  0  0  0  0  0  0  0  0  0  0
   19.2856   -9.2118  -17.6906 O   0  0  0  0  0  0  0  0  0  0  0  0
   17.9704   -8.1570  -12.0649 N   0  0  0  0  0  0  0  0  0  0  0  0
   17.5186   -7.2413  -11.0676 C   0  0  0  0  0  0  0  0  0  0  0  0
   16.3682   -7.8008  -10.2745 C   0  0  0  0  0  0  0  0  0  0  0  0
   15.8661   -8.9064  -10.5974 O   0  0  0  0  0  0  0  0  0  0  0  0
   13.5993   -4.6344   -5.1742 N   0  0  0  0  0  0  0  0  0  0  0  0
   12.8952   -5.8315   -5.4355 C   0  0  0  0  0  0  0  0  0  0  0  0
   11.8800   -6.0700   -4.6866 O   0  0  0  0  0  0  0  0  0  0  0  0
   13.1970   -6.8148   -6.4677 C   0  0  0  0  0  0  0  0  0  0  0  0
   14.3303   -6.5550   -7.3669 C   0  0  0  0  0  0  0  0  0  0  0  0
   14.6424   -7.5612   -8.4239 C   0  0  2  0  0  0  0  0  0  0  0  0
   15.8432   -7.0940   -9.1651 N   0  0  0  0  0  0  0  0  0  0  0  0
   13.5736   -7.8774   -9.3509 C   0  0  0  0  0  0  0  0  0  0  0  0
   12.7258   -8.9642   -9.3179 O   0  0  0  0  0  0  0  0  0  0  0  0
   13.3801   -7.0684  -10.3291 O   0  0  0  0  0  0  0  0  0  0  0  0
  2  1  1  1
  2  3  1  0
  3  4  1  0
  4  8  1  0
  5  4  2  0
  6  7  2  0
  6  2  1  0
  9  6  1  0
 10  9  1  0
 10 11  1  0
 11 12  2  0
 13 14  1  0
 14 16  1  0
 14 15  2  0
 16 17  1  0
 18 17  1  1
 18 20  1  0
 19 11  1  0
 19 18  1  0
 20 21  1  0
 22 20  2  0
M  END
$$$$
