DGQ.pdb
     RDKit          3D

 22 21  0  0  1  0  0  0  0  0999 V2000
   18.5596  -12.6547  -14.8093 N   0  0  0  0  0  0  0  0  0  0  0  0
   18.1569  -12.0302  -16.0546 C   0  0  1  0  0  0  0  0  0  0  0  0
   16.7085  -11.5947  -15.8720 C   0  0  0  0  0  0  0  0  0  0  0  0
   15.8784  -12.8157  -15.8377 C   0  0  0  0  0  0  0  0  0  0  0  0
   15.0879  -13.0965  -14.9056 O   0  0  0  0  0  0  0  0  0  0  0  0
   18.9977  -10.8256  -16.2721 C   0  0  0  0  0  0  0  0  0  0  0  0
   18.8871  -10.1532  -17.3277 O   0  0  0  0  0  0  0  0  0  0  0  0
   15.9800  -13.7044  -16.9009 O   0  0  0  0  0  0  0  0  0  0  0  0
   19.9523  -10.3852  -15.3091 N   0  0  0  0  0  0  0  0  0  0  0  0
   20.7927   -9.2443  -15.4811 C   0  0  0  0  0  0  0  0  0  0  0  0
   20.2350   -8.0294  -14.7895 C   0  0  0  0  0  0  0  0  0  0  0  0
   18.9910   -7.8681  -14.7164 O   0  0  0  0  0  0  0  0  0  0  0  0
   17.6536   -5.3671   -9.3058 N   0  0  0  0  0  0  0  0  0  0  0  0
   18.6347   -6.0063  -10.0969 C   0  0  0  0  0  0  0  0  0  0  0  0
   19.0085   -7.1716   -9.7088 O   0  0  0  0  0  0  0  0  0  0  0  0
   19.2574   -5.4844  -11.3066 C   0  0  0  0  0  0  0  0  0  0  0  0
   19.8313   -6.4416  -12.2630 C   0  0  0  0  0  0  0  0  0  0  0  0
   20.5862   -5.9078  -13.4344 C   0  0  2  0  0  0  0  0  0  0  0  0
   21.0980   -7.0625  -14.2183 N   0  0  0  0  0  0  0  0  0  0  0  0
   21.6647   -4.9842  -13.1418 C   0  0  0  0  0  0  0  0  0  0  0  0
   21.5616   -3.6545  -12.7922 O   0  0  0  0  0  0  0  0  0  0  0  0
   22.8653   -5.4333  -13.2177 O   0  0  0  0  0  0  0  0  0  0  0  0
  2  1  1  1
  2  3  1  0
  3  4  1  0
  4  8  1  0
  5  4  2  0
  6  7  2  0
  6  2  1  0
  9  6  1  0
 10  9  1  0
 10 11  1  0
 11 12  2  0
 13 14  1  0
 14 16  1  0
 14 15  2  0
 16 17  1  0
 18 17  1  1
 18 20  1  0
 19 11  1  0
 19 18  1  0
 20 21  1  0
 22 20  2  0
M  END
$$$$
