DGQ.pdb
     RDKit          3D

 22 21  0  0  1  0  0  0  0  0999 V2000
   27.6727  -22.1325  -11.8620 N   0  0  0  0  0  0  0  0  0  0  0  0
   27.5944  -21.4233  -10.5995 C   0  0  1  0  0  0  0  0  0  0  0  0
   28.6627  -20.3382  -10.6454 C   0  0  0  0  0  0  0  0  0  0  0  0
   29.9784  -21.0086  -10.6213 C   0  0  0  0  0  0  0  0  0  0  0  0
   30.1339  -22.2333  -10.4012 O   0  0  0  0  0  0  0  0  0  0  0  0
   26.2595  -20.7804  -10.5013 C   0  0  0  0  0  0  0  0  0  0  0  0
   25.9928  -20.0075   -9.5473 O   0  0  0  0  0  0  0  0  0  0  0  0
   31.1092  -20.2362  -10.8564 O   0  0  0  0  0  0  0  0  0  0  0  0
   25.2372  -21.0074  -11.4688 N   0  0  0  0  0  0  0  0  0  0  0  0
   23.9538  -20.3835  -11.4366 C   0  0  0  0  0  0  0  0  0  0  0  0
   23.1116  -20.7749  -12.6210 C   0  0  0  0  0  0  0  0  0  0  0  0
   23.6123  -21.4681  -13.5417 O   0  0  0  0  0  0  0  0  0  0  0  0
   21.9198  -24.6098  -14.6306 N   0  0  0  0  0  0  0  0  0  0  0  0
   20.5579  -24.3005  -14.8465 C   0  0  0  0  0  0  0  0  0  0  0  0
   19.9269  -25.0543  -15.6723 O   0  0  0  0  0  0  0  0  0  0  0  0
   19.7977  -23.2237  -14.2252 C   0  0  0  0  0  0  0  0  0  0  0  0
   20.4892  -22.3418  -13.2743 C   0  0  0  0  0  0  0  0  0  0  0  0
   20.8204  -20.9525  -13.7071 C   0  0  2  0  0  0  0  0  0  0  0  0
   21.7574  -20.3702  -12.7108 N   0  0  0  0  0  0  0  0  0  0  0  0
   19.6998  -20.0583  -13.9226 C   0  0  0  0  0  0  0  0  0  0  0  0
   18.9898  -19.8656  -15.0887 O   0  0  0  0  0  0  0  0  0  0  0  0
   19.3100  -19.3475  -12.9268 O   0  0  0  0  0  0  0  0  0  0  0  0
  2  1  1  6
  2  3  1  0
  3  4  1  0
  4  8  1  0
  5  4  2  0
  6  7  2  0
  6  2  1  0
  9  6  1  0
 10  9  1  0
 10 11  1  0
 11 12  2  0
 13 14  1  0
 14 16  1  0
 14 15  2  0
 16 17  1  0
 18 17  1  1
 18 20  1  0
 19 11  1  0
 19 18  1  0
 20 21  1  0
 22 20  2  0
M  END
$$$$
