DGQ.pdb
     RDKit          3D

 22 21  0  0  1  0  0  0  0  0999 V2000
   24.2096  -20.3323  -12.4324 N   0  0  0  0  0  0  0  0  0  0  0  0
   25.4776  -19.7073  -12.1091 C   0  0  1  0  0  0  0  0  0  0  0  0
   26.3853  -20.8140  -11.5875 C   0  0  0  0  0  0  0  0  0  0  0  0
   25.7990  -21.3124  -10.3269 C   0  0  0  0  0  0  0  0  0  0  0  0
   24.7574  -20.8446   -9.8085 O   0  0  0  0  0  0  0  0  0  0  0  0
   26.0625  -19.1533  -13.3566 C   0  0  0  0  0  0  0  0  0  0  0  0
   25.3477  -18.5087  -14.1643 O   0  0  0  0  0  0  0  0  0  0  0  0
   26.4398  -22.3609   -9.6785 O   0  0  0  0  0  0  0  0  0  0  0  0
   27.4384  -19.3249  -13.6884 N   0  0  0  0  0  0  0  0  0  0  0  0
   28.0497  -18.7909  -14.8626 C   0  0  0  0  0  0  0  0  0  0  0  0
   27.2660  -19.1261  -16.1031 C   0  0  0  0  0  0  0  0  0  0  0  0
   27.2661  -20.3031  -16.5429 O   0  0  0  0  0  0  0  0  0  0  0  0
   23.0634  -19.9607  -15.1768 N   0  0  0  0  0  0  0  0  0  0  0  0
   22.9085  -20.3502  -16.5264 C   0  0  0  0  0  0  0  0  0  0  0  0
   22.2021  -21.4011  -16.7382 O   0  0  0  0  0  0  0  0  0  0  0  0
   23.4594  -19.6804  -17.6974 C   0  0  0  0  0  0  0  0  0  0  0  0
   24.2458  -18.4556  -17.4935 C   0  0  0  0  0  0  0  0  0  0  0  0
   25.6652  -18.4390  -17.9540 C   0  0  2  0  0  0  0  0  0  0  0  0
   26.5263  -18.1279  -16.7830 N   0  0  0  0  0  0  0  0  0  0  0  0
   25.9771  -17.5490  -19.0551 C   0  0  0  0  0  0  0  0  0  0  0  0
   26.1037  -16.1766  -19.0172 O   0  0  0  0  0  0  0  0  0  0  0  0
   26.1531  -18.0779  -20.2118 O   0  0  0  0  0  0  0  0  0  0  0  0
  2  1  1  6
  2  3  1  0
  3  4  1  0
  4  8  1  0
  5  4  2  0
  6  7  2  0
  6  2  1  0
  9  6  1  0
 10  9  1  0
 10 11  1  0
 11 12  2  0
 13 14  1  0
 14 16  1  0
 14 15  2  0
 16 17  1  0
 18 17  1  1
 18 20  1  0
 19 11  1  0
 19 18  1  0
 20 21  1  0
 22 20  2  0
M  END
$$$$
