DGQ.pdb
     RDKit          3D

 22 21  0  0  1  0  0  0  0  0999 V2000
   12.5806  -21.4535  -10.0398 N   0  0  0  0  0  0  0  0  0  0  0  0
   13.4059  -22.1357   -9.0619 C   0  0  1  0  0  0  0  0  0  0  0  0
   14.8532  -21.8481   -9.4405 C   0  0  0  0  0  0  0  0  0  0  0  0
   15.1153  -22.5141  -10.7323 C   0  0  0  0  0  0  0  0  0  0  0  0
   14.9780  -23.7459  -10.9232 O   0  0  0  0  0  0  0  0  0  0  0  0
   13.1332  -21.5513   -7.7242 C   0  0  0  0  0  0  0  0  0  0  0  0
   12.4828  -20.4818   -7.6163 O   0  0  0  0  0  0  0  0  0  0  0  0
   15.5387  -21.7291  -11.7976 O   0  0  0  0  0  0  0  0  0  0  0  0
   13.5896  -22.1673   -6.5221 N   0  0  0  0  0  0  0  0  0  0  0  0
   13.3197  -21.6639   -5.2140 C   0  0  0  0  0  0  0  0  0  0  0  0
   13.8903  -22.5544   -4.1431 C   0  0  0  0  0  0  0  0  0  0  0  0
   14.4484  -23.6344   -4.4607 O   0  0  0  0  0  0  0  0  0  0  0  0
   14.8159  -20.6017    2.0751 N   0  0  0  0  0  0  0  0  0  0  0  0
   15.3789  -21.8821    1.8737 C   0  0  0  0  0  0  0  0  0  0  0  0
   15.9539  -22.4174    2.8891 O   0  0  0  0  0  0  0  0  0  0  0  0
   15.3672  -22.6571    0.6397 C   0  0  0  0  0  0  0  0  0  0  0  0
   14.6336  -22.1181   -0.5142 C   0  0  0  0  0  0  0  0  0  0  0  0
   14.4273  -23.0014   -1.6993 C   0  0  2  0  0  0  0  0  0  0  0  0
   13.8056  -22.1887   -2.7775 N   0  0  0  0  0  0  0  0  0  0  0  0
   13.6591  -24.2108   -1.4779 C   0  0  0  0  0  0  0  0  0  0  0  0
   14.1388  -25.4709   -1.1901 O   0  0  0  0  0  0  0  0  0  0  0  0
   12.3807  -24.1234   -1.5617 O   0  0  0  0  0  0  0  0  0  0  0  0
  2  1  1  6
  2  3  1  0
  3  4  1  0
  4  8  1  0
  5  4  2  0
  6  7  2  0
  6  2  1  0
  9  6  1  0
 10  9  1  0
 10 11  1  0
 11 12  2  0
 13 14  1  0
 14 16  1  0
 14 15  2  0
 16 17  1  0
 18 17  1  1
 18 20  1  0
 19 11  1  0
 19 18  1  0
 20 21  1  0
 22 20  2  0
M  END
$$$$
