DGQ.pdb
     RDKit          3D

 22 21  0  0  1  0  0  0  0  0999 V2000
   19.9380  -19.4655  -13.3111 N   0  0  0  0  0  0  0  0  0  0  0  0
   19.7555  -20.4405  -14.3689 C   0  0  1  0  0  0  0  0  0  0  0  0
   18.3964  -20.1523  -14.9938 C   0  0  0  0  0  0  0  0  0  0  0  0
   17.3725  -20.7986  -14.1482 C   0  0  0  0  0  0  0  0  0  0  0  0
   16.2223  -20.3333  -13.9660 O   0  0  0  0  0  0  0  0  0  0  0  0
   20.8103  -20.2294  -15.3927 C   0  0  0  0  0  0  0  0  0  0  0  0
   21.0237  -21.0967  -16.2763 O   0  0  0  0  0  0  0  0  0  0  0  0
   17.7040  -21.9918  -13.5183 O   0  0  0  0  0  0  0  0  0  0  0  0
   21.6148  -19.0526  -15.4186 N   0  0  0  0  0  0  0  0  0  0  0  0
   22.6216  -18.7945  -16.3970 C   0  0  0  0  0  0  0  0  0  0  0  0
   23.9806  -18.6304  -15.7714 C   0  0  0  0  0  0  0  0  0  0  0  0
   24.3298  -17.5105  -15.3210 O   0  0  0  0  0  0  0  0  0  0  0  0
   26.3894  -22.0403  -11.2340 N   0  0  0  0  0  0  0  0  0  0  0  0
   27.0711  -20.8159  -11.4162 C   0  0  0  0  0  0  0  0  0  0  0  0
   27.9391  -20.5090  -10.5214 O   0  0  0  0  0  0  0  0  0  0  0  0
   26.8966  -19.8740  -12.5142 C   0  0  0  0  0  0  0  0  0  0  0  0
   25.9356  -20.2105  -13.5743 C   0  0  0  0  0  0  0  0  0  0  0  0
   26.1567  -19.6455  -14.9377 C   0  0  2  0  0  0  0  0  0  0  0  0
   24.8736  -19.7262  -15.6839 N   0  0  0  0  0  0  0  0  0  0  0  0
   27.2268  -20.2370  -15.7166 C   0  0  0  0  0  0  0  0  0  0  0  0
   28.5381  -19.8191  -15.7977 O   0  0  0  0  0  0  0  0  0  0  0  0
   26.9412  -21.2675  -16.4276 O   0  0  0  0  0  0  0  0  0  0  0  0
  2  1  1  1
  2  3  1  0
  3  4  1  0
  4  8  1  0
  5  4  2  0
  6  7  2  0
  6  2  1  0
  9  6  1  0
 10  9  1  0
 10 11  1  0
 11 12  2  0
 13 14  1  0
 14 16  1  0
 14 15  2  0
 16 17  1  0
 18 17  1  1
 18 20  1  0
 19 11  1  0
 19 18  1  0
 20 21  1  0
 22 20  2  0
M  END
$$$$
