WVQ.pdb
     RDKit          3D

 31 32  0  0  1  0  0  0  0  0999 V2000
    5.9076  -18.0028   24.3892 N   0  0  0  0  0  0  0  0  0  0  0  0
    6.5255  -16.7234   24.2327 C   0  0  1  0  0  0  0  0  0  0  0  0
    7.5404  -16.4368   25.2925 C   0  0  0  0  0  0  0  0  0  0  0  0
    7.1118  -15.4958   26.3406 C   0  0  0  0  0  0  0  0  0  0  0  0
    6.3756  -15.8096   27.4982 C   0  0  0  0  0  0  0  0  0  0  0  0
    6.1923  -14.7033   28.2325 N   0  0  0  0  0  0  0  0  0  0  0  0
    6.7681  -13.6468   27.6313 C   0  0  0  0  0  0  0  0  0  0  0  0
    6.8379  -12.3163   27.9953 C   0  0  0  0  0  0  0  0  0  0  0  0
    7.4911  -11.4205   27.1813 C   0  0  0  0  0  0  0  0  0  0  0  0
    8.0593  -11.8800   26.0203 C   0  0  0  0  0  0  0  0  0  0  0  0
    7.9794  -13.2110   25.6744 C   0  0  0  0  0  0  0  0  0  0  0  0
    7.3368  -14.1426   26.4584 C   0  0  0  0  0  0  0  0  0  0  0  0
    7.1470  -16.6063   22.8699 C   0  0  0  0  0  0  0  0  0  0  0  0
    7.6003  -17.6593   22.3274 O   0  0  0  0  0  0  0  0  0  0  0  0
    8.4534  -13.6834   19.0889 C   0  0  0  0  0  0  0  0  0  0  0  0
    7.6629  -13.8553   20.3812 C   0  0  2  0  0  0  0  0  0  0  0  0
    8.2695  -12.9133   21.3757 C   0  0  0  0  0  0  0  0  0  0  0  0
    7.8060  -15.2783   20.9024 C   0  0  2  0  0  0  0  0  0  0  0  0
    7.1971  -15.3285   22.2587 N   0  0  0  0  0  0  0  0  0  0  0  0
    9.2618  -15.5193   21.1104 C   0  0  0  0  0  0  0  0  0  0  0  0
    9.8329  -14.8252   22.0354 O   0  0  0  0  0  0  0  0  0  0  0  0
   11.0088  -20.7440   21.2406 N   0  0  0  0  0  0  0  0  0  0  0  0
   10.6829  -19.9025   22.3820 C   0  0  0  0  0  0  0  0  0  0  0  0
   10.1105  -20.4607   23.3314 O   0  0  0  0  0  0  0  0  0  0  0  0
   11.0241  -18.4897   22.3606 C   0  0  0  0  0  0  0  0  0  0  0  0
   11.7144  -18.0109   21.1374 C   0  0  0  0  0  0  0  0  0  0  0  0
   11.4905  -16.5645   20.7596 C   0  0  2  0  0  0  0  0  0  0  0  0
   10.0490  -16.4304   20.3936 N   0  0  0  0  0  0  0  0  0  0  0  0
   12.2652  -16.0643   19.6268 C   0  0  0  0  0  0  0  0  0  0  0  0
   11.7084  -15.7935   18.5096 O   0  0  0  0  0  0  0  0  0  0  0  0
   13.6229  -15.8664   19.7234 O   0  0  0  0  0  0  0  0  0  0  0  0
  2  1  1  1
  2 13  1  0
  3  2  1  0
  4  5  2  0
  4  3  1  0
  6  5  1  0
  7 12  2  0
  7  6  1  0
  8  7  1  0
  9 10  1  0
  9  8  2  0
 10 11  2  0
 11 12  1  0
 12  4  1  0
 13 14  2  0
 16 18  1  0
 16 15  1  6
 16 17  1  0
 19 13  1  0
 18 19  1  1
 20 18  1  0
 20 21  2  0
 22 23  1  0
 23 25  1  0
 24 23  2  0
 25 26  1  0
 27 26  1  6
 27 29  1  0
 27 28  1  0
 28 20  1  0
 29 31  1  0
 30 29  2  0
M  END
$$$$
