WVQ.pdb
     RDKit          3D

 31 32  0  0  1  0  0  0  0  0999 V2000
    6.7373  -17.6602   23.6387 N   0  0  0  0  0  0  0  0  0  0  0  0
    7.1133  -16.3138   23.3404 C   0  0  1  0  0  0  0  0  0  0  0  0
    8.0257  -15.7259   24.3687 C   0  0  0  0  0  0  0  0  0  0  0  0
    7.3622  -14.9777   25.4492 C   0  0  0  0  0  0  0  0  0  0  0  0
    6.4599  -15.4969   26.3963 C   0  0  0  0  0  0  0  0  0  0  0  0
    6.0805  -14.5269   27.2401 N   0  0  0  0  0  0  0  0  0  0  0  0
    6.6805  -13.3680   26.9145 C   0  0  0  0  0  0  0  0  0  0  0  0
    6.5990  -12.1091   27.4766 C   0  0  0  0  0  0  0  0  0  0  0  0
    7.3221  -11.0724   26.9344 C   0  0  0  0  0  0  0  0  0  0  0  0
    8.1107  -11.3224   25.8401 C   0  0  0  0  0  0  0  0  0  0  0  0
    8.1792  -12.5851   25.2936 C   0  0  0  0  0  0  0  0  0  0  0  0
    7.4740  -13.6519   25.8033 C   0  0  0  0  0  0  0  0  0  0  0  0
    7.7434  -16.2366   21.9787 C   0  0  0  0  0  0  0  0  0  0  0  0
    7.8649  -17.3103   21.3148 O   0  0  0  0  0  0  0  0  0  0  0  0
    7.3114  -12.7812   19.7844 C   0  0  0  0  0  0  0  0  0  0  0  0
    8.6770  -13.4503   19.6756 C   0  0  2  0  0  0  0  0  0  0  0  0
    9.0741  -13.3675   18.2334 C   0  0  0  0  0  0  0  0  0  0  0  0
    8.5802  -14.9160   20.0748 C   0  0  2  0  0  0  0  0  0  0  0  0
    8.1708  -14.9714   21.5038 N   0  0  0  0  0  0  0  0  0  0  0  0
    9.9637  -15.4682   20.0354 C   0  0  0  0  0  0  0  0  0  0  0  0
   10.4810  -15.6401   18.8664 O   0  0  0  0  0  0  0  0  0  0  0  0
   15.1864  -13.2682   19.3623 N   0  0  0  0  0  0  0  0  0  0  0  0
   14.5636  -14.4320   18.7499 C   0  0  0  0  0  0  0  0  0  0  0  0
   15.2621  -15.0711   17.9472 O   0  0  0  0  0  0  0  0  0  0  0  0
   13.1938  -14.7817   19.0876 C   0  0  0  0  0  0  0  0  0  0  0  0
   12.9080  -14.9481   20.5342 C   0  0  0  0  0  0  0  0  0  0  0  0
   12.1631  -16.2010   20.9343 C   0  0  2  0  0  0  0  0  0  0  0  0
   10.7391  -15.8077   21.1521 N   0  0  0  0  0  0  0  0  0  0  0  0
   12.6144  -16.8592   22.1578 C   0  0  0  0  0  0  0  0  0  0  0  0
   13.7851  -17.3620   22.2480 O   0  0  0  0  0  0  0  0  0  0  0  0
   11.7940  -16.9604   23.2571 O   0  0  0  0  0  0  0  0  0  0  0  0
  2  1  1  1
  2 13  1  0
  3  2  1  0
  4  5  2  0
  4  3  1  0
  6  5  1  0
  7 12  2  0
  7  6  1  0
  8  7  1  0
  9 10  1  0
  9  8  2  0
 10 11  2  0
 11 12  1  0
 12  4  1  0
 13 14  2  0
 16 18  1  0
 16 15  1  6
 16 17  1  0
 19 13  1  0
 18 19  1  1
 20 18  1  0
 20 21  2  0
 22 23  1  0
 23 25  1  0
 24 23  2  0
 25 26  1  0
 27 26  1  1
 27 29  1  0
 27 28  1  0
 28 20  1  0
 29 31  1  0
 30 29  2  0
M  END
$$$$
