WVQ.pdb
     RDKit          3D

 31 32  0  0  1  0  0  0  0  0999 V2000
   10.5040  -15.3175   21.8971 N   0  0  0  0  0  0  0  0  0  0  0  0
    9.4675  -15.1004   22.8570 C   0  0  1  0  0  0  0  0  0  0  0  0
    8.2574  -15.9409   22.6028 C   0  0  0  0  0  0  0  0  0  0  0  0
    7.3855  -15.4799   21.5097 C   0  0  0  0  0  0  0  0  0  0  0  0
    6.2465  -16.1394   21.0115 C   0  0  0  0  0  0  0  0  0  0  0  0
    5.6919  -15.4099   20.0333 N   0  0  0  0  0  0  0  0  0  0  0  0
    6.3983  -14.2820   19.8383 C   0  0  0  0  0  0  0  0  0  0  0  0
    6.2246  -13.2389   18.9500 C   0  0  0  0  0  0  0  0  0  0  0  0
    7.1130  -12.1890   18.9495 C   0  0  0  0  0  0  0  0  0  0  0  0
    8.1559  -12.2096   19.8405 C   0  0  0  0  0  0  0  0  0  0  0  0
    8.3124  -13.2589   20.7192 C   0  0  0  0  0  0  0  0  0  0  0  0
    7.4477  -14.3296   20.7555 C   0  0  0  0  0  0  0  0  0  0  0  0
    9.9848  -15.3378   24.2475 C   0  0  0  0  0  0  0  0  0  0  0  0
   11.0748  -15.9728   24.3792 O   0  0  0  0  0  0  0  0  0  0  0  0
    8.8366  -12.7426   27.2417 C   0  0  0  0  0  0  0  0  0  0  0  0
    9.0057  -14.1949   27.6740 C   0  0  2  0  0  0  0  0  0  0  0  0
    9.7043  -14.1624   28.9989 C   0  0  0  0  0  0  0  0  0  0  0  0
    9.8783  -14.9444   26.6771 C   0  0  2  0  0  0  0  0  0  0  0  0
    9.2316  -14.8427   25.3413 N   0  0  0  0  0  0  0  0  0  0  0  0
    9.8121  -16.3876   27.0426 C   0  0  0  0  0  0  0  0  0  0  0  0
    8.6485  -16.9413   26.9890 O   0  0  0  0  0  0  0  0  0  0  0  0
   13.7057  -20.9253   25.7396 N   0  0  0  0  0  0  0  0  0  0  0  0
   12.8254  -21.6054   26.6776 C   0  0  0  0  0  0  0  0  0  0  0  0
   13.0461  -22.8127   26.8627 O   0  0  0  0  0  0  0  0  0  0  0  0
   11.7564  -20.8688   27.3314 C   0  0  0  0  0  0  0  0  0  0  0  0
   11.6605  -19.4286   26.9868 C   0  0  0  0  0  0  0  0  0  0  0  0
   10.6480  -18.6162   27.7613 C   0  0  2  0  0  0  0  0  0  0  0  0
   10.8993  -17.1818   27.4311 N   0  0  0  0  0  0  0  0  0  0  0  0
   10.7013  -18.7332   29.2164 C   0  0  0  0  0  0  0  0  0  0  0  0
   10.3308  -19.8015   29.8105 O   0  0  0  0  0  0  0  0  0  0  0  0
   11.1532  -17.6963   29.9989 O   0  0  0  0  0  0  0  0  0  0  0  0
  2  1  1  6
  2 13  1  0
  3  2  1  0
  4  5  2  0
  4  3  1  0
  6  5  1  0
  7 12  2  0
  7  6  1  0
  8  7  1  0
  9 10  1  0
  9  8  2  0
 10 11  2  0
 11 12  1  0
 12  4  1  0
 13 14  2  0
 16 18  1  0
 16 15  1  6
 16 17  1  0
 19 13  1  0
 18 19  1  6
 20 18  1  0
 20 21  2  0
 22 23  1  0
 23 25  1  0
 24 23  2  0
 25 26  1  0
 27 26  1  6
 27 29  1  0
 27 28  1  0
 28 20  1  0
 29 31  1  0
 30 29  2  0
M  END
$$$$
