WVQ.pdb
     RDKit          3D

 31 32  0  0  1  0  0  0  0  0999 V2000
    5.8544  -18.2332   24.2666 N   0  0  0  0  0  0  0  0  0  0  0  0
    6.3133  -16.8819   24.1870 C   0  0  1  0  0  0  0  0  0  0  0  0
    7.0131  -16.4337   25.4300 C   0  0  0  0  0  0  0  0  0  0  0  0
    6.5579  -15.1474   25.9830 C   0  0  0  0  0  0  0  0  0  0  0  0
    5.2355  -14.7993   26.3156 C   0  0  0  0  0  0  0  0  0  0  0  0
    5.2061  -13.5558   26.8152 N   0  0  0  0  0  0  0  0  0  0  0  0
    6.4465  -13.0362   26.8396 C   0  0  0  0  0  0  0  0  0  0  0  0
    6.9112  -11.8034   27.2539 C   0  0  0  0  0  0  0  0  0  0  0  0
    8.2527  -11.5146   27.1618 C   0  0  0  0  0  0  0  0  0  0  0  0
    9.0978  -12.4695   26.6558 C   0  0  0  0  0  0  0  0  0  0  0  0
    8.6154  -13.6937   26.2479 C   0  0  0  0  0  0  0  0  0  0  0  0
    7.2815  -14.0262   26.3224 C   0  0  0  0  0  0  0  0  0  0  0  0
    7.2064  -16.7027   22.9922 C   0  0  0  0  0  0  0  0  0  0  0  0
    7.8656  -17.7061   22.5831 O   0  0  0  0  0  0  0  0  0  0  0  0
    6.5044  -13.7965   20.0085 C   0  0  0  0  0  0  0  0  0  0  0  0
    7.9147  -13.9373   20.5705 C   0  0  2  0  0  0  0  0  0  0  0  0
    8.8497  -13.7670   19.4124 C   0  0  0  0  0  0  0  0  0  0  0  0
    8.1118  -15.3266   21.1604 C   0  0  2  0  0  0  0  0  0  0  0  0
    7.2692  -15.4248   22.3823 N   0  0  0  0  0  0  0  0  0  0  0  0
    9.5205  -15.3973   21.6415 C   0  0  0  0  0  0  0  0  0  0  0  0
    9.7884  -14.7612   22.7310 O   0  0  0  0  0  0  0  0  0  0  0  0
   12.5100  -20.6700   23.7871 N   0  0  0  0  0  0  0  0  0  0  0  0
   12.3310  -19.3060   24.2611 C   0  0  0  0  0  0  0  0  0  0  0  0
   11.8999  -19.1778   25.4180 O   0  0  0  0  0  0  0  0  0  0  0  0
   12.6477  -18.1885   23.3873 C   0  0  0  0  0  0  0  0  0  0  0  0
   11.5027  -17.6042   22.6459 C   0  0  0  0  0  0  0  0  0  0  0  0
   11.7971  -16.3837   21.8041 C   0  0  2  0  0  0  0  0  0  0  0  0
   10.5629  -16.0935   21.0151 N   0  0  0  0  0  0  0  0  0  0  0  0
   12.8942  -16.5067   20.8476 C   0  0  0  0  0  0  0  0  0  0  0  0
   12.6726  -16.6955   19.6039 O   0  0  0  0  0  0  0  0  0  0  0  0
   14.2059  -16.4230   21.2526 O   0  0  0  0  0  0  0  0  0  0  0  0
  2  1  1  1
  2 13  1  0
  3  2  1  0
  4  5  2  0
  4  3  1  0
  6  5  1  0
  7 12  2  0
  7  6  1  0
  8  7  1  0
  9 10  1  0
  9  8  2  0
 10 11  2  0
 11 12  1  0
 12  4  1  0
 13 14  2  0
 16 18  1  0
 16 15  1  6
 16 17  1  0
 19 13  1  0
 18 19  1  1
 20 18  1  0
 20 21  2  0
 22 23  1  0
 23 25  1  0
 24 23  2  0
 25 26  1  0
 27 26  1  6
 27 29  1  0
 27 28  1  0
 28 20  1  0
 29 31  1  0
 30 29  2  0
M  END
$$$$
