WVQ.pdb
     RDKit          3D

 31 32  0  0  1  0  0  0  0  0999 V2000
    6.0412  -16.7978   24.0621 N   0  0  0  0  0  0  0  0  0  0  0  0
    6.9549  -15.7590   23.7030 C   0  0  1  0  0  0  0  0  0  0  0  0
    8.0894  -15.6264   24.6678 C   0  0  0  0  0  0  0  0  0  0  0  0
    7.8522  -14.7182   25.8020 C   0  0  0  0  0  0  0  0  0  0  0  0
    6.6143  -14.1788   26.1988 C   0  0  0  0  0  0  0  0  0  0  0  0
    6.7808  -13.4152   27.2877 N   0  0  0  0  0  0  0  0  0  0  0  0
    8.0748  -13.4061   27.6545 C   0  0  0  0  0  0  0  0  0  0  0  0
    8.7244  -12.7671   28.6924 C   0  0  0  0  0  0  0  0  0  0  0  0
   10.0832  -12.9187   28.8423 C   0  0  0  0  0  0  0  0  0  0  0  0
   10.7595  -13.7080   27.9471 C   0  0  0  0  0  0  0  0  0  0  0  0
   10.0940  -14.3376   26.9183 C   0  0  0  0  0  0  0  0  0  0  0  0
    8.7356  -14.2151   26.7305 C   0  0  0  0  0  0  0  0  0  0  0  0
    7.4766  -15.9796   22.3114 C   0  0  0  0  0  0  0  0  0  0  0  0
    7.5245  -17.1687   21.8728 O   0  0  0  0  0  0  0  0  0  0  0  0
    9.2928  -12.8292   20.0609 C   0  0  0  0  0  0  0  0  0  0  0  0
    8.3032  -13.7898   19.4110 C   0  0  2  0  0  0  0  0  0  0  0  0
    6.9522  -13.1549   19.5394 C   0  0  0  0  0  0  0  0  0  0  0  0
    8.2933  -15.1192   20.1524 C   0  0  2  0  0  0  0  0  0  0  0  0
    7.8893  -14.8517   21.5589 N   0  0  0  0  0  0  0  0  0  0  0  0
    9.7070  -15.5849   20.2259 C   0  0  0  0  0  0  0  0  0  0  0  0
   10.4572  -15.0084   21.1025 O   0  0  0  0  0  0  0  0  0  0  0  0
   14.6506  -12.9262   19.7009 N   0  0  0  0  0  0  0  0  0  0  0  0
   14.4090  -14.0355   18.7906 C   0  0  0  0  0  0  0  0  0  0  0  0
   14.7222  -13.8513   17.6037 O   0  0  0  0  0  0  0  0  0  0  0  0
   13.8247  -15.2686   19.2912 C   0  0  0  0  0  0  0  0  0  0  0  0
   12.3588  -15.4091   19.1085 C   0  0  0  0  0  0  0  0  0  0  0  0
   11.7620  -16.7537   19.4558 C   0  0  2  0  0  0  0  0  0  0  0  0
   10.2781  -16.5884   19.4320 N   0  0  0  0  0  0  0  0  0  0  0  0
   12.1084  -17.2960   20.7672 C   0  0  0  0  0  0  0  0  0  0  0  0
   11.4075  -17.0309   21.8015 O   0  0  0  0  0  0  0  0  0  0  0  0
   13.2025  -18.1126   20.9346 O   0  0  0  0  0  0  0  0  0  0  0  0
  2  1  1  1
  2 13  1  0
  3  2  1  0
  4  5  2  0
  4  3  1  0
  6  5  1  0
  7 12  2  0
  7  6  1  0
  8  7  1  0
  9 10  1  0
  9  8  2  0
 10 11  2  0
 11 12  1  0
 12  4  1  0
 13 14  2  0
 16 18  1  0
 16 15  1  1
 16 17  1  0
 19 13  1  0
 18 19  1  1
 20 18  1  0
 20 21  2  0
 22 23  1  0
 23 25  1  0
 24 23  2  0
 25 26  1  0
 27 26  1  1
 27 29  1  0
 27 28  1  0
 28 20  1  0
 29 31  1  0
 30 29  2  0
M  END
$$$$
