WVQ.pdb
     RDKit          3D

 31 32  0  0  1  0  0  0  0  0999 V2000
    6.3459  -18.2483   24.6891 N   0  0  0  0  0  0  0  0  0  0  0  0
    6.6206  -16.8684   24.4369 C   0  0  1  0  0  0  0  0  0  0  0  0
    7.2682  -16.1851   25.5984 C   0  0  0  0  0  0  0  0  0  0  0  0
    6.5916  -14.9666   26.0728 C   0  0  0  0  0  0  0  0  0  0  0  0
    5.2381  -14.8487   26.4399 C   0  0  0  0  0  0  0  0  0  0  0  0
    4.9857  -13.5959   26.8443 N   0  0  0  0  0  0  0  0  0  0  0  0
    6.1029  -12.8506   26.7707 C   0  0  0  0  0  0  0  0  0  0  0  0
    6.3344  -11.5219   27.0679 C   0  0  0  0  0  0  0  0  0  0  0  0
    7.5916  -10.9930   26.8910 C   0  0  0  0  0  0  0  0  0  0  0  0
    8.5883  -11.8095   26.4199 C   0  0  0  0  0  0  0  0  0  0  0  0
    8.3380  -13.1326   26.1294 C   0  0  0  0  0  0  0  0  0  0  0  0
    7.0962  -13.7043   26.2916 C   0  0  0  0  0  0  0  0  0  0  0  0
    7.4687  -16.7208   23.2056 C   0  0  0  0  0  0  0  0  0  0  0  0
    8.1035  -17.7379   22.7919 O   0  0  0  0  0  0  0  0  0  0  0  0
    6.5725  -14.2051   19.9842 C   0  0  0  0  0  0  0  0  0  0  0  0
    7.9612  -14.0936   20.6035 C   0  0  2  0  0  0  0  0  0  0  0  0
    8.9150  -13.8863   19.4670 C   0  0  0  0  0  0  0  0  0  0  0  0
    8.3251  -15.3862   21.3203 C   0  0  2  0  0  0  0  0  0  0  0  0
    7.5188  -15.4557   22.5685 N   0  0  0  0  0  0  0  0  0  0  0  0
    9.7401  -15.2501   21.7675 C   0  0  0  0  0  0  0  0  0  0  0  0
    9.9583  -14.4384   22.7457 O   0  0  0  0  0  0  0  0  0  0  0  0
   10.7493  -19.5528   24.6378 N   0  0  0  0  0  0  0  0  0  0  0  0
   12.1351  -19.1121   24.6884 C   0  0  0  0  0  0  0  0  0  0  0  0
   12.9027  -19.7901   25.3897 O   0  0  0  0  0  0  0  0  0  0  0  0
   12.5472  -17.9324   23.9459 C   0  0  0  0  0  0  0  0  0  0  0  0
   11.5191  -17.3383   23.0558 C   0  0  0  0  0  0  0  0  0  0  0  0
   11.9887  -16.2532   22.1140 C   0  0  2  0  0  0  0  0  0  0  0  0
   10.8379  -15.9275   21.2200 N   0  0  0  0  0  0  0  0  0  0  0  0
   13.1167  -16.5904   21.2494 C   0  0  0  0  0  0  0  0  0  0  0  0
   14.3218  -16.3878   21.6211 O   0  0  0  0  0  0  0  0  0  0  0  0
   12.9209  -17.1390   20.0034 O   0  0  0  0  0  0  0  0  0  0  0  0
  2  1  1  1
  2 13  1  0
  3  2  1  0
  4  5  2  0
  4  3  1  0
  6  5  1  0
  7 12  2  0
  7  6  1  0
  8  7  1  0
  9 10  1  0
  9  8  2  0
 10 11  2  0
 11 12  1  0
 12  4  1  0
 13 14  2  0
 16 18  1  0
 16 15  1  6
 16 17  1  0
 19 13  1  0
 18 19  1  1
 20 18  1  0
 20 21  2  0
 22 23  1  0
 23 25  1  0
 24 23  2  0
 25 26  1  0
 27 26  1  1
 27 29  1  0
 27 28  1  0
 28 20  1  0
 29 31  1  0
 30 29  2  0
M  END
$$$$
