WVQ.pdb
     RDKit          3D

 31 32  0  0  1  0  0  0  0  0999 V2000
    5.9426  -17.6962   24.2117 N   0  0  0  0  0  0  0  0  0  0  0  0
    6.4536  -16.3922   23.9261 C   0  0  1  0  0  0  0  0  0  0  0  0
    7.3188  -15.8565   25.0215 C   0  0  0  0  0  0  0  0  0  0  0  0
    6.7065  -14.8097   25.8562 C   0  0  0  0  0  0  0  0  0  0  0  0
    5.5463  -14.9369   26.6426 C   0  0  0  0  0  0  0  0  0  0  0  0
    5.3045  -13.7848   27.2835 N   0  0  0  0  0  0  0  0  0  0  0  0
    6.2446  -12.8746   26.9722 C   0  0  0  0  0  0  0  0  0  0  0  0
    6.4125  -11.5632   27.3716 C   0  0  0  0  0  0  0  0  0  0  0  0
    7.4736  -10.8340   26.8880 C   0  0  0  0  0  0  0  0  0  0  0  0
    8.3424  -11.4372   26.0144 C   0  0  0  0  0  0  0  0  0  0  0  0
    8.1585  -12.7466   25.6279 C   0  0  0  0  0  0  0  0  0  0  0  0
    7.1117  -13.5141   26.0868 C   0  0  0  0  0  0  0  0  0  0  0  0
    7.2039  -16.3984   22.6245 C   0  0  0  0  0  0  0  0  0  0  0  0
    7.8754  -17.4324   22.3268 O   0  0  0  0  0  0  0  0  0  0  0  0
    8.5257  -13.9627   18.5245 C   0  0  0  0  0  0  0  0  0  0  0  0
    7.6378  -14.0194   19.7625 C   0  0  2  0  0  0  0  0  0  0  0  0
    8.0968  -12.9131   20.6625 C   0  0  0  0  0  0  0  0  0  0  0  0
    7.8216  -15.3472   20.4838 C   0  0  2  0  0  0  0  0  0  0  0  0
    7.1259  -15.2517   21.7952 N   0  0  0  0  0  0  0  0  0  0  0  0
    9.2708  -15.4663   20.8098 C   0  0  0  0  0  0  0  0  0  0  0  0
    9.7259  -14.6610   21.7086 O   0  0  0  0  0  0  0  0  0  0  0  0
   13.2074  -18.4764   23.9384 N   0  0  0  0  0  0  0  0  0  0  0  0
   12.7598  -19.2901   22.8182 C   0  0  0  0  0  0  0  0  0  0  0  0
   13.0817  -20.4885   22.8456 O   0  0  0  0  0  0  0  0  0  0  0  0
   11.9862  -18.6843   21.7471 C   0  0  0  0  0  0  0  0  0  0  0  0
   11.6034  -17.2651   21.9503 C   0  0  0  0  0  0  0  0  0  0  0  0
   11.5771  -16.3909   20.7175 C   0  0  2  0  0  0  0  0  0  0  0  0
   10.1663  -16.3738   20.2283 N   0  0  0  0  0  0  0  0  0  0  0  0
   12.4099  -16.8250   19.5986 C   0  0  0  0  0  0  0  0  0  0  0  0
   11.9034  -17.4073   18.5809 O   0  0  0  0  0  0  0  0  0  0  0  0
   13.7701  -16.6213   19.6013 O   0  0  0  0  0  0  0  0  0  0  0  0
  2  1  1  1
  2 13  1  0
  3  2  1  0
  4  5  2  0
  4  3  1  0
  6  5  1  0
  7 12  2  0
  7  6  1  0
  8  7  1  0
  9 10  1  0
  9  8  2  0
 10 11  2  0
 11 12  1  0
 12  4  1  0
 13 14  2  0
 16 18  1  0
 16 15  1  6
 16 17  1  0
 19 13  1  0
 18 19  1  1
 20 18  1  0
 20 21  2  0
 22 23  1  0
 23 25  1  0
 24 23  2  0
 25 26  1  0
 27 26  1  1
 27 29  1  0
 27 28  1  0
 28 20  1  0
 29 31  1  0
 30 29  2  0
M  END
$$$$
