WVQ.pdb
     RDKit          3D

 31 32  0  0  1  0  0  0  0  0999 V2000
    5.9556  -18.4300   24.4160 N   0  0  0  0  0  0  0  0  0  0  0  0
    6.3427  -17.0589   24.3016 C   0  0  1  0  0  0  0  0  0  0  0  0
    7.0897  -16.5660   25.4993 C   0  0  0  0  0  0  0  0  0  0  0  0
    6.6363  -15.2739   26.0398 C   0  0  0  0  0  0  0  0  0  0  0  0
    5.3511  -14.9750   26.5294 C   0  0  0  0  0  0  0  0  0  0  0  0
    5.3144  -13.7068   26.9617 N   0  0  0  0  0  0  0  0  0  0  0  0
    6.5142  -13.1234   26.7905 C   0  0  0  0  0  0  0  0  0  0  0  0
    6.9557  -11.8454   27.0723 C   0  0  0  0  0  0  0  0  0  0  0  0
    8.2538  -11.4939   26.7844 C   0  0  0  0  0  0  0  0  0  0  0  0
    9.0797  -12.4328   26.2200 C   0  0  0  0  0  0  0  0  0  0  0  0
    8.6210  -13.7026   25.9466 C   0  0  0  0  0  0  0  0  0  0  0  0
    7.3307  -14.0984   26.2183 C   0  0  0  0  0  0  0  0  0  0  0  0
    7.1559  -16.8475   23.0561 C   0  0  0  0  0  0  0  0  0  0  0  0
    7.8522  -17.8162   22.6256 O   0  0  0  0  0  0  0  0  0  0  0  0
    8.5969  -13.7613   19.4571 C   0  0  0  0  0  0  0  0  0  0  0  0
    7.6098  -14.0872   20.5724 C   0  0  2  0  0  0  0  0  0  0  0  0
    7.7463  -12.9957   21.5894 C   0  0  0  0  0  0  0  0  0  0  0  0
    7.9701  -15.4143   21.2252 C   0  0  2  0  0  0  0  0  0  0  0  0
    7.1063  -15.5793   22.4251 N   0  0  0  0  0  0  0  0  0  0  0  0
    9.3581  -15.2765   21.7498 C   0  0  0  0  0  0  0  0  0  0  0  0
    9.4786  -14.7745   22.9318 O   0  0  0  0  0  0  0  0  0  0  0  0
   12.9934  -19.6843   25.1425 N   0  0  0  0  0  0  0  0  0  0  0  0
   12.0376  -19.0668   24.2356 C   0  0  0  0  0  0  0  0  0  0  0  0
   10.9148  -19.5929   24.1782 O   0  0  0  0  0  0  0  0  0  0  0  0
   12.4267  -17.9032   23.4563 C   0  0  0  0  0  0  0  0  0  0  0  0
   11.3451  -17.2645   22.6662 C   0  0  0  0  0  0  0  0  0  0  0  0
   11.7238  -16.0308   21.8792 C   0  0  2  0  0  0  0  0  0  0  0  0
   10.5273  -15.6473   21.0723 N   0  0  0  0  0  0  0  0  0  0  0  0
   12.8378  -16.1756   20.9455 C   0  0  0  0  0  0  0  0  0  0  0  0
   12.6405  -16.2809   19.6879 O   0  0  0  0  0  0  0  0  0  0  0  0
   14.1398  -16.2033   21.3878 O   0  0  0  0  0  0  0  0  0  0  0  0
  2  1  1  1
  2 13  1  0
  3  2  1  0
  4  5  2  0
  4  3  1  0
  6  5  1  0
  7 12  2  0
  7  6  1  0
  8  7  1  0
  9 10  1  0
  9  8  2  0
 10 11  2  0
 11 12  1  0
 12  4  1  0
 13 14  2  0
 16 18  1  0
 16 15  1  6
 16 17  1  0
 19 13  1  0
 18 19  1  1
 20 18  1  0
 20 21  2  0
 22 23  1  0
 23 25  1  0
 24 23  2  0
 25 26  1  0
 27 26  1  6
 27 29  1  0
 27 28  1  0
 28 20  1  0
 29 31  1  0
 30 29  2  0
M  END
$$$$
