WVQ.pdb
     RDKit          3D

 31 32  0  0  1  0  0  0  0  0999 V2000
    6.2822  -17.3126   25.2108 N   0  0  0  0  0  0  0  0  0  0  0  0
    6.9641  -16.1469   24.7424 C   0  0  1  0  0  0  0  0  0  0  0  0
    8.1750  -15.8183   25.5555 C   0  0  0  0  0  0  0  0  0  0  0  0
    7.9501  -14.8954   26.6803 C   0  0  0  0  0  0  0  0  0  0  0  0
    8.0837  -15.1943   28.0490 C   0  0  0  0  0  0  0  0  0  0  0  0
    7.8228  -14.1010   28.7793 N   0  0  0  0  0  0  0  0  0  0  0  0
    7.5162  -13.0679   27.9745 C   0  0  0  0  0  0  0  0  0  0  0  0
    7.1727  -11.7607   28.2588 C   0  0  0  0  0  0  0  0  0  0  0  0
    6.8914  -10.8911   27.2311 C   0  0  0  0  0  0  0  0  0  0  0  0
    6.9610  -11.3529   25.9411 C   0  0  0  0  0  0  0  0  0  0  0  0
    7.3057  -12.6603   25.6775 C   0  0  0  0  0  0  0  0  0  0  0  0
    7.5960  -13.5649   26.6739 C   0  0  0  0  0  0  0  0  0  0  0  0
    7.3347  -16.3044   23.2949 C   0  0  0  0  0  0  0  0  0  0  0  0
    7.5123  -17.4779   22.8478 O   0  0  0  0  0  0  0  0  0  0  0  0
    6.5834  -13.5017   20.2151 C   0  0  0  0  0  0  0  0  0  0  0  0
    8.0122  -13.9888   20.4289 C   0  0  2  0  0  0  0  0  0  0  0  0
    8.6104  -14.1544   19.0653 C   0  0  0  0  0  0  0  0  0  0  0  0
    8.0102  -15.3392   21.1313 C   0  0  2  0  0  0  0  0  0  0  0  0
    7.4682  -15.1373   22.5018 N   0  0  0  0  0  0  0  0  0  0  0  0
    9.4353  -15.7314   21.3206 C   0  0  0  0  0  0  0  0  0  0  0  0
   10.1155  -15.0352   22.1669 O   0  0  0  0  0  0  0  0  0  0  0  0
   11.2561  -20.2441   24.0729 N   0  0  0  0  0  0  0  0  0  0  0  0
   12.5584  -19.9008   23.5221 C   0  0  0  0  0  0  0  0  0  0  0  0
   13.5289  -20.5316   23.9706 O   0  0  0  0  0  0  0  0  0  0  0  0
   12.6655  -18.8643   22.5088 C   0  0  0  0  0  0  0  0  0  0  0  0
   11.3833  -18.2734   22.0519 C   0  0  0  0  0  0  0  0  0  0  0  0
   11.4810  -17.1233   21.0759 C   0  0  2  0  0  0  0  0  0  0  0  0
   10.0862  -16.7846   20.6642 N   0  0  0  0  0  0  0  0  0  0  0  0
   12.2362  -17.3763   19.8514 C   0  0  0  0  0  0  0  0  0  0  0  0
   11.6592  -17.7868   18.7884 O   0  0  0  0  0  0  0  0  0  0  0  0
   13.5967  -17.1807   19.7995 O   0  0  0  0  0  0  0  0  0  0  0  0
  2  1  1  1
  2 13  1  0
  3  2  1  0
  4  5  2  0
  4  3  1  0
  6  5  1  0
  7 12  2  0
  7  6  1  0
  8  7  1  0
  9 10  1  0
  9  8  2  0
 10 11  2  0
 11 12  1  0
 12  4  1  0
 13 14  2  0
 16 18  1  0
 16 15  1  6
 16 17  1  0
 19 13  1  0
 18 19  1  1
 20 18  1  0
 20 21  2  0
 22 23  1  0
 23 25  1  0
 24 23  2  0
 25 26  1  0
 27 26  1  1
 27 29  1  0
 27 28  1  0
 28 20  1  0
 29 31  1  0
 30 29  2  0
M  END
$$$$
