WVQ.pdb
     RDKit          3D

 31 32  0  0  1  0  0  0  0  0999 V2000
    6.2536  -17.0753   25.1819 N   0  0  0  0  0  0  0  0  0  0  0  0
    6.8916  -15.9189   24.6354 C   0  0  1  0  0  0  0  0  0  0  0  0
    8.1095  -15.5127   25.4018 C   0  0  0  0  0  0  0  0  0  0  0  0
    7.8670  -14.6215   26.5483 C   0  0  0  0  0  0  0  0  0  0  0  0
    8.3216  -14.8098   27.8668 C   0  0  0  0  0  0  0  0  0  0  0  0
    7.9291  -13.7822   28.6327 N   0  0  0  0  0  0  0  0  0  0  0  0
    7.2267  -12.8995   27.9002 C   0  0  0  0  0  0  0  0  0  0  0  0
    6.6193  -11.7076   28.2438 C   0  0  0  0  0  0  0  0  0  0  0  0
    5.9416  -10.9876   27.2878 C   0  0  0  0  0  0  0  0  0  0  0  0
    5.8886  -11.4800   26.0084 C   0  0  0  0  0  0  0  0  0  0  0  0
    6.5010  -12.6708   25.6849 C   0  0  0  0  0  0  0  0  0  0  0  0
    7.1903  -13.4239   26.6085 C   0  0  0  0  0  0  0  0  0  0  0  0
    7.2360  -16.1456   23.1906 C   0  0  0  0  0  0  0  0  0  0  0  0
    7.3221  -17.3416   22.7775 O   0  0  0  0  0  0  0  0  0  0  0  0
    8.2582  -14.1679   18.7642 C   0  0  0  0  0  0  0  0  0  0  0  0
    7.7125  -13.9844   20.1760 C   0  0  2  0  0  0  0  0  0  0  0  0
    8.6169  -13.0009   20.8538 C   0  0  0  0  0  0  0  0  0  0  0  0
    7.7620  -15.3019   20.9367 C   0  0  2  0  0  0  0  0  0  0  0  0
    7.4481  -15.0153   22.3622 N   0  0  0  0  0  0  0  0  0  0  0  0
    9.1814  -15.7559   20.9251 C   0  0  0  0  0  0  0  0  0  0  0  0
    9.9840  -15.1539   21.7357 O   0  0  0  0  0  0  0  0  0  0  0  0
   10.5655  -19.6344   24.1810 N   0  0  0  0  0  0  0  0  0  0  0  0
   11.0944  -19.7085   22.8275 C   0  0  0  0  0  0  0  0  0  0  0  0
   12.2085  -20.2406   22.7006 O   0  0  0  0  0  0  0  0  0  0  0  0
   10.3246  -19.1687   21.7190 C   0  0  0  0  0  0  0  0  0  0  0  0
   11.1146  -18.6827   20.5607 C   0  0  0  0  0  0  0  0  0  0  0  0
   11.1247  -17.1887   20.3310 C   0  0  2  0  0  0  0  0  0  0  0  0
    9.7063  -16.7736   20.1174 N   0  0  0  0  0  0  0  0  0  0  0  0
   11.8844  -16.7167   19.1761 C   0  0  0  0  0  0  0  0  0  0  0  0
   13.1064  -16.3613   19.2856 O   0  0  0  0  0  0  0  0  0  0  0  0
   11.3104  -16.6387   17.9286 O   0  0  0  0  0  0  0  0  0  0  0  0
  2  1  1  1
  2 13  1  0
  3  2  1  0
  4  5  2  0
  4  3  1  0
  6  5  1  0
  7 12  2  0
  7  6  1  0
  8  7  1  0
  9 10  1  0
  9  8  2  0
 10 11  2  0
 11 12  1  0
 12  4  1  0
 13 14  2  0
 16 18  1  0
 16 15  1  6
 16 17  1  0
 19 13  1  0
 18 19  1  1
 20 18  1  0
 20 21  2  0
 22 23  1  0
 23 25  1  0
 24 23  2  0
 25 26  1  0
 27 26  1  6
 27 29  1  0
 27 28  1  0
 28 20  1  0
 29 31  1  0
 30 29  2  0
M  END
$$$$
