WVQ.pdb
     RDKit          3D

 31 32  0  0  1  0  0  0  0  0999 V2000
    7.0166  -18.1286   26.0251 N   0  0  0  0  0  0  0  0  0  0  0  0
    6.4812  -17.2212   25.0591 C   0  0  1  0  0  0  0  0  0  0  0  0
    6.1032  -15.9014   25.6513 C   0  0  0  0  0  0  0  0  0  0  0  0
    7.2028  -15.1535   26.2828 C   0  0  0  0  0  0  0  0  0  0  0  0
    8.4845  -15.6474   26.5894 C   0  0  0  0  0  0  0  0  0  0  0  0
    9.2269  -14.6737   27.1348 N   0  0  0  0  0  0  0  0  0  0  0  0
    8.5133  -13.5366   27.2164 C   0  0  0  0  0  0  0  0  0  0  0  0
    8.8408  -12.2870   27.7050 C   0  0  0  0  0  0  0  0  0  0  0  0
    7.9053  -11.2791   27.6808 C   0  0  0  0  0  0  0  0  0  0  0  0
    6.6621  -11.5478   27.1668 C   0  0  0  0  0  0  0  0  0  0  0  0
    6.3542  -12.8006   26.6838 C   0  0  0  0  0  0  0  0  0  0  0  0
    7.2587  -13.8386   26.6874 C   0  0  0  0  0  0  0  0  0  0  0  0
    7.4527  -17.0272   23.9296 C   0  0  0  0  0  0  0  0  0  0  0  0
    8.2790  -17.9579   23.6856 O   0  0  0  0  0  0  0  0  0  0  0  0
    6.7242  -14.3567   20.6968 C   0  0  0  0  0  0  0  0  0  0  0  0
    8.0932  -14.3694   21.3678 C   0  0  2  0  0  0  0  0  0  0  0  0
    9.1011  -14.1894   20.2741 C   0  0  0  0  0  0  0  0  0  0  0  0
    8.3372  -15.7109   22.0444 C   0  0  2  0  0  0  0  0  0  0  0  0
    7.3992  -15.8168   23.1941 N   0  0  0  0  0  0  0  0  0  0  0  0
    9.6992  -15.6513   22.6461 C   0  0  0  0  0  0  0  0  0  0  0  0
    9.8819  -14.7691   23.5690 O   0  0  0  0  0  0  0  0  0  0  0  0
   13.2197  -20.1228   24.7394 N   0  0  0  0  0  0  0  0  0  0  0  0
   13.8720  -18.9061   25.1990 C   0  0  0  0  0  0  0  0  0  0  0  0
   14.6240  -19.0219   26.1797 O   0  0  0  0  0  0  0  0  0  0  0  0
   13.6192  -17.6474   24.5175 C   0  0  0  0  0  0  0  0  0  0  0  0
   12.3073  -17.5363   23.8329 C   0  0  0  0  0  0  0  0  0  0  0  0
   12.0748  -16.2826   23.0210 C   0  0  2  0  0  0  0  0  0  0  0  0
   10.7824  -16.4689   22.2966 N   0  0  0  0  0  0  0  0  0  0  0  0
   13.0849  -15.9672   22.0141 C   0  0  0  0  0  0  0  0  0  0  0  0
   12.8914  -16.2210   20.7773 O   0  0  0  0  0  0  0  0  0  0  0  0
   14.2813  -15.3848   22.3624 O   0  0  0  0  0  0  0  0  0  0  0  0
  2  1  1  1
  2 13  1  0
  3  2  1  0
  4  5  2  0
  4  3  1  0
  6  5  1  0
  7 12  2  0
  7  6  1  0
  8  7  1  0
  9 10  1  0
  9  8  2  0
 10 11  2  0
 11 12  1  0
 12  4  1  0
 13 14  2  0
 16 18  1  0
 16 15  1  6
 16 17  1  0
 19 13  1  0
 18 19  1  1
 20 18  1  0
 20 21  2  0
 22 23  1  0
 23 25  1  0
 24 23  2  0
 25 26  1  0
 27 26  1  6
 27 29  1  0
 27 28  1  0
 28 20  1  0
 29 31  1  0
 30 29  2  0
M  END
$$$$
