WVQ.pdb
     RDKit          3D

 31 32  0  0  1  0  0  0  0  0999 V2000
    6.2281  -17.6229   25.0110 N   0  0  0  0  0  0  0  0  0  0  0  0
    6.8580  -16.4288   24.5416 C   0  0  1  0  0  0  0  0  0  0  0  0
    7.8295  -15.8609   25.5260 C   0  0  0  0  0  0  0  0  0  0  0  0
    7.2665  -14.8972   26.4861 C   0  0  0  0  0  0  0  0  0  0  0  0
    6.6328  -15.2019   27.7052 C   0  0  0  0  0  0  0  0  0  0  0  0
    6.2718  -14.0690   28.3240 N   0  0  0  0  0  0  0  0  0  0  0  0
    6.6282  -13.0030   27.5852 C   0  0  0  0  0  0  0  0  0  0  0  0
    6.4648  -11.6485   27.7997 C   0  0  0  0  0  0  0  0  0  0  0  0
    6.9205  -10.7503   26.8632 C   0  0  0  0  0  0  0  0  0  0  0  0
    7.5299  -11.2316   25.7323 C   0  0  0  0  0  0  0  0  0  0  0  0
    7.6840  -12.5864   25.5362 C   0  0  0  0  0  0  0  0  0  0  0  0
    7.2443  -13.5211   26.4464 C   0  0  0  0  0  0  0  0  0  0  0  0
    7.5360  -16.6785   23.2243 C   0  0  0  0  0  0  0  0  0  0  0  0
    7.9596  -17.8493   22.9828 O   0  0  0  0  0  0  0  0  0  0  0  0
    6.7887  -14.5609   19.7163 C   0  0  0  0  0  0  0  0  0  0  0  0
    8.2483  -14.6918   20.1370 C   0  0  2  0  0  0  0  0  0  0  0  0
    9.0287  -14.9405   18.8825 C   0  0  0  0  0  0  0  0  0  0  0  0
    8.4245  -15.8825   21.0689 C   0  0  2  0  0  0  0  0  0  0  0  0
    7.6695  -15.5967   22.3184 N   0  0  0  0  0  0  0  0  0  0  0  0
    9.8597  -15.9112   21.4687 C   0  0  0  0  0  0  0  0  0  0  0  0
   10.2572  -14.9669   22.2522 O   0  0  0  0  0  0  0  0  0  0  0  0
   11.5090  -20.1418   24.7750 N   0  0  0  0  0  0  0  0  0  0  0  0
   12.8536  -19.6397   24.5363 C   0  0  0  0  0  0  0  0  0  0  0  0
   13.7669  -20.1888   25.1727 O   0  0  0  0  0  0  0  0  0  0  0  0
   13.0632  -18.5486   23.5991 C   0  0  0  0  0  0  0  0  0  0  0  0
   11.8585  -18.0878   22.8652 C   0  0  0  0  0  0  0  0  0  0  0  0
   12.0679  -16.9892   21.8483 C   0  0  2  0  0  0  0  0  0  0  0  0
   10.7991  -16.8716   21.0699 N   0  0  0  0  0  0  0  0  0  0  0  0
   13.1423  -17.1990   20.8811 C   0  0  0  0  0  0  0  0  0  0  0  0
   12.9193  -17.7493   19.7503 O   0  0  0  0  0  0  0  0  0  0  0  0
   14.4332  -16.8105   21.1540 O   0  0  0  0  0  0  0  0  0  0  0  0
  2  1  1  1
  2 13  1  0
  3  2  1  0
  4  5  2  0
  4  3  1  0
  6  5  1  0
  7 12  2  0
  7  6  1  0
  8  7  1  0
  9 10  1  0
  9  8  2  0
 10 11  2  0
 11 12  1  0
 12  4  1  0
 13 14  2  0
 16 18  1  0
 16 15  1  6
 16 17  1  0
 19 13  1  0
 18 19  1  1
 20 18  1  0
 20 21  2  0
 22 23  1  0
 23 25  1  0
 24 23  2  0
 25 26  1  0
 27 26  1  1
 27 29  1  0
 27 28  1  0
 28 20  1  0
 29 31  1  0
 30 29  2  0
M  END
$$$$
