WVQ.pdb
     RDKit          3D

 31 32  0  0  1  0  0  0  0  0999 V2000
    6.5671  -16.8475   25.2909 N   0  0  0  0  0  0  0  0  0  0  0  0
    7.1392  -15.7546   24.5689 C   0  0  1  0  0  0  0  0  0  0  0  0
    8.3067  -15.1423   25.2741 C   0  0  0  0  0  0  0  0  0  0  0  0
    7.9758  -14.3262   26.4539 C   0  0  0  0  0  0  0  0  0  0  0  0
    8.2872  -14.6249   27.7935 C   0  0  0  0  0  0  0  0  0  0  0  0
    7.8502  -13.6401   28.5909 N   0  0  0  0  0  0  0  0  0  0  0  0
    7.2537  -12.6815   27.8599 C   0  0  0  0  0  0  0  0  0  0  0  0
    6.6512  -11.4948   28.2291 C   0  0  0  0  0  0  0  0  0  0  0  0
    6.0972  -10.6835   27.2666 C   0  0  0  0  0  0  0  0  0  0  0  0
    6.1601  -11.0813   25.9552 C   0  0  0  0  0  0  0  0  0  0  0  0
    6.7656  -12.2685   25.6065 C   0  0  0  0  0  0  0  0  0  0  0  0
    7.3335  -13.1110   26.5355 C   0  0  0  0  0  0  0  0  0  0  0  0
    7.5349  -16.1911   23.1868 C   0  0  0  0  0  0  0  0  0  0  0  0
    7.7811  -17.4206   22.9961 O   0  0  0  0  0  0  0  0  0  0  0  0
    8.7129  -13.2914   20.3083 C   0  0  0  0  0  0  0  0  0  0  0  0
    7.9747  -14.5462   19.8554 C   0  0  2  0  0  0  0  0  0  0  0  0
    6.5209  -14.1873   19.8091 C   0  0  0  0  0  0  0  0  0  0  0  0
    8.1716  -15.6681   20.8651 C   0  0  2  0  0  0  0  0  0  0  0  0
    7.6144  -15.2107   22.1664 N   0  0  0  0  0  0  0  0  0  0  0  0
    9.6395  -15.8005   21.0851 C   0  0  0  0  0  0  0  0  0  0  0  0
   10.1106  -15.2633   22.1589 O   0  0  0  0  0  0  0  0  0  0  0  0
   10.2854  -20.1435   23.5832 N   0  0  0  0  0  0  0  0  0  0  0  0
   11.7218  -19.9864   23.4121 C   0  0  0  0  0  0  0  0  0  0  0  0
   12.4414  -20.7524   24.0725 O   0  0  0  0  0  0  0  0  0  0  0  0
   12.2365  -18.9691   22.5105 C   0  0  0  0  0  0  0  0  0  0  0  0
   11.2157  -18.1450   21.8171 C   0  0  0  0  0  0  0  0  0  0  0  0
   11.7318  -17.1201   20.8332 C   0  0  2  0  0  0  0  0  0  0  0  0
   10.5368  -16.4566   20.2318 N   0  0  0  0  0  0  0  0  0  0  0  0
   12.5354  -17.6329   19.7264 C   0  0  0  0  0  0  0  0  0  0  0  0
   12.0236  -17.8400   18.5746 O   0  0  0  0  0  0  0  0  0  0  0  0
   13.8730  -17.9108   19.8854 O   0  0  0  0  0  0  0  0  0  0  0  0
  2  1  1  1
  2 13  1  0
  3  2  1  0
  4  5  2  0
  4  3  1  0
  6  5  1  0
  7 12  2  0
  7  6  1  0
  8  7  1  0
  9 10  1  0
  9  8  2  0
 10 11  2  0
 11 12  1  0
 12  4  1  0
 13 14  2  0
 16 18  1  0
 16 15  1  1
 16 17  1  0
 19 13  1  0
 18 19  1  1
 20 18  1  0
 20 21  2  0
 22 23  1  0
 23 25  1  0
 24 23  2  0
 25 26  1  0
 27 26  1  1
 27 29  1  0
 27 28  1  0
 28 20  1  0
 29 31  1  0
 30 29  2  0
M  END
$$$$
