VCD.pdb
     RDKit          3D

 22 21  0  0  1  0  0  0  0  0999 V2000
   23.9065  -13.4775  -15.6036 C   0  0  0  0  0  0  0  0  0  0  0  0
   24.1949  -12.0196  -15.4355 C   0  0  2  0  0  0  0  0  0  0  0  0
   25.0467  -11.7932  -14.2059 C   0  0  0  0  0  0  0  0  0  0  0  0
   22.9573  -11.1725  -15.2876 C   0  0  2  0  0  0  0  0  0  0  0  0
   22.0879  -11.3585  -16.4424 N   0  0  0  0  0  0  0  0  0  0  0  0
   23.2227   -9.7470  -15.1176 C   0  0  0  0  0  0  0  0  0  0  0  0
   23.7875   -9.3170  -14.0884 O   0  0  0  0  0  0  0  0  0  0  0  0
   22.8638   -8.7756  -16.0979 N   0  0  0  0  0  0  0  0  0  0  0  0
   23.0838   -7.3544  -15.9211 C   0  0  1  0  0  0  0  0  0  0  0  0
   23.8197   -6.8628  -17.1775 C   0  0  0  0  0  0  0  0  0  0  0  0
   22.9574   -7.2853  -18.6894 S   0  0  0  0  0  0  0  0  0  0  0  0
   21.8180   -6.5700  -15.8266 C   0  0  0  0  0  0  0  0  0  0  0  0
   20.8298   -7.0630  -16.4521 O   0  0  0  0  0  0  0  0  0  0  0  0
   21.6615   -5.3711  -15.1134 N   0  0  0  0  0  0  0  0  0  0  0  0
   20.5036   -4.5282  -15.0207 C   0  0  1  0  0  0  0  0  0  0  0  0
   19.4603   -5.0195  -14.0794 C   0  0  0  0  0  0  0  0  0  0  0  0
   18.2354   -4.2031  -14.0302 C   0  0  0  0  0  0  0  0  0  0  0  0
   18.1054   -3.2574  -13.2532 O   0  0  0  0  0  0  0  0  0  0  0  0
   20.7650   -3.0831  -14.9545 C   0  0  0  0  0  0  0  0  0  0  0  0
   21.8687   -2.6614  -14.5576 O   0  0  0  0  0  0  0  0  0  0  0  0
   17.2093   -4.5460  -14.8968 O   0  0  0  0  0  0  0  0  0  0  0  0
   19.8317   -2.0990  -15.3189 O   0  0  0  0  0  0  0  0  0  0  0  0
  2  3  1  1
  2  4  1  0
  2  1  1  0
  4  5  1  6
  6  4  1  0
  7  6  2  0
  8  6  1  0
  9 12  1  0
  9  8  1  0
  9 10  1  6
 11 10  1  0
 12 14  1  0
 13 12  2  0
 14 15  1  0
 15 19  1  0
 15 16  1  1
 16 17  1  0
 17 21  1  0
 18 17  2  0
 19 20  2  0
 19 22  1  0
M  END
$$$$
