VCD.pdb
     RDKit          3D

 22 21  0  0  1  0  0  0  0  0999 V2000
   20.8020  -12.2481  -20.3437 C   0  0  0  0  0  0  0  0  0  0  0  0
   21.1712  -10.8690  -20.7895 C   0  0  2  0  0  0  0  0  0  0  0  0
   22.2505  -10.9327  -21.8477 C   0  0  0  0  0  0  0  0  0  0  0  0
   21.6838   -9.9917  -19.6764 C   0  0  2  0  0  0  0  0  0  0  0  0
   22.9774  -10.4799  -19.2157 N   0  0  0  0  0  0  0  0  0  0  0  0
   20.7820   -9.8845  -18.5333 C   0  0  0  0  0  0  0  0  0  0  0  0
   19.6204   -9.4430  -18.6705 O   0  0  0  0  0  0  0  0  0  0  0  0
   21.1622  -10.2726  -17.2148 N   0  0  0  0  0  0  0  0  0  0  0  0
   20.3317  -10.0388  -16.0508 C   0  0  1  0  0  0  0  0  0  0  0  0
   20.4021  -11.3139  -15.1959 C   0  0  0  0  0  0  0  0  0  0  0  0
   19.2177  -12.5544  -15.7118 S   0  0  0  0  0  0  0  0  0  0  0  0
   20.8188   -8.9173  -15.1956 C   0  0  0  0  0  0  0  0  0  0  0  0
   21.9764   -9.0796  -14.7008 O   0  0  0  0  0  0  0  0  0  0  0  0
   20.1038   -7.7410  -14.9206 N   0  0  0  0  0  0  0  0  0  0  0  0
   20.5691   -6.5341  -14.2985 C   0  0  1  0  0  0  0  0  0  0  0  0
   21.9495   -6.1356  -14.6880 C   0  0  0  0  0  0  0  0  0  0  0  0
   22.4643   -4.9361  -14.0057 C   0  0  0  0  0  0  0  0  0  0  0  0
   22.3150   -4.7506  -12.7981 O   0  0  0  0  0  0  0  0  0  0  0  0
   19.6012   -5.4296  -14.2359 C   0  0  0  0  0  0  0  0  0  0  0  0
   18.9293   -5.1247  -15.2405 O   0  0  0  0  0  0  0  0  0  0  0  0
   23.1269   -3.9992  -14.7833 O   0  0  0  0  0  0  0  0  0  0  0  0
   19.3624   -4.6593  -13.0862 O   0  0  0  0  0  0  0  0  0  0  0  0
  2  3  1  6
  2  4  1  0
  2  1  1  0
  4  5  1  1
  6  4  1  0
  7  6  2  0
  8  6  1  0
  9 12  1  0
  9  8  1  0
  9 10  1  1
 11 10  1  0
 12 14  1  0
 13 12  2  0
 14 15  1  0
 15 19  1  0
 15 16  1  6
 16 17  1  0
 17 21  1  0
 18 17  2  0
 19 20  2  0
 19 22  1  0
M  END
$$$$
