VCD.pdb
     RDKit          3D

 22 21  0  0  1  0  0  0  0  0999 V2000
   28.0944  -15.4186  -16.9821 C   0  0  0  0  0  0  0  0  0  0  0  0
   27.7324  -16.7642  -16.4387 C   0  0  2  0  0  0  0  0  0  0  0  0
   27.9326  -17.8268  -17.4968 C   0  0  0  0  0  0  0  0  0  0  0  0
   26.3038  -16.8610  -15.9686 C   0  0  2  0  0  0  0  0  0  0  0  0
   26.0651  -15.8944  -14.9044 N   0  0  0  0  0  0  0  0  0  0  0  0
   25.9147  -18.1881  -15.5009 C   0  0  0  0  0  0  0  0  0  0  0  0
   25.6041  -19.0891  -16.3103 O   0  0  0  0  0  0  0  0  0  0  0  0
   25.8688  -18.5334  -14.1181 N   0  0  0  0  0  0  0  0  0  0  0  0
   25.4023  -19.8185  -13.6385 C   0  0  1  0  0  0  0  0  0  0  0  0
   26.2423  -20.1569  -12.3969 C   0  0  0  0  0  0  0  0  0  0  0  0
   27.9612  -20.4675  -12.7928 S   0  0  0  0  0  0  0  0  0  0  0  0
   23.9750  -19.8020  -13.2037 C   0  0  0  0  0  0  0  0  0  0  0  0
   23.6160  -18.7624  -12.5703 O   0  0  0  0  0  0  0  0  0  0  0  0
   23.0441  -20.8242  -13.4470 N   0  0  0  0  0  0  0  0  0  0  0  0
   21.6355  -20.8374  -13.1720 C   0  0  1  0  0  0  0  0  0  0  0  0
   20.9458  -19.5454  -13.4383 C   0  0  0  0  0  0  0  0  0  0  0  0
   19.9834  -19.5745  -14.5528 C   0  0  0  0  0  0  0  0  0  0  0  0
   19.4765  -20.6205  -14.9577 O   0  0  0  0  0  0  0  0  0  0  0  0
   20.9051  -22.0319  -13.6198 C   0  0  0  0  0  0  0  0  0  0  0  0
   20.6644  -22.2046  -14.8305 O   0  0  0  0  0  0  0  0  0  0  0  0
   19.6675  -18.3640  -15.1499 O   0  0  0  0  0  0  0  0  0  0  0  0
   20.4385  -23.0364  -12.7564 O   0  0  0  0  0  0  0  0  0  0  0  0
  2  3  1  6
  2  4  1  0
  2  1  1  0
  4  5  1  1
  6  4  1  0
  7  6  2  0
  8  6  1  0
  9 12  1  0
  9  8  1  0
  9 10  1  1
 11 10  1  0
 12 14  1  0
 13 12  2  0
 14 15  1  0
 15 19  1  0
 15 16  1  6
 16 17  1  0
 17 21  1  0
 18 17  2  0
 19 20  2  0
 19 22  1  0
M  END
$$$$
