VCD.pdb
     RDKit          3D

 22 21  0  0  1  0  0  0  0  0999 V2000
   18.1876  -15.7720  -18.6589 C   0  0  0  0  0  0  0  0  0  0  0  0
   18.7390  -14.7852  -17.6796 C   0  0  2  0  0  0  0  0  0  0  0  0
   18.8421  -13.4172  -18.3172 C   0  0  0  0  0  0  0  0  0  0  0  0
   20.1089  -15.1462  -17.1652 C   0  0  2  0  0  0  0  0  0  0  0  0
   20.0528  -16.4170  -16.4541 N   0  0  0  0  0  0  0  0  0  0  0  0
   20.7066  -14.1397  -16.2928 C   0  0  0  0  0  0  0  0  0  0  0  0
   20.1891  -13.8559  -15.1905 O   0  0  0  0  0  0  0  0  0  0  0  0
   21.8970  -13.4335  -16.6360 N   0  0  0  0  0  0  0  0  0  0  0  0
   22.4426  -12.3624  -15.8271 C   0  0  1  0  0  0  0  0  0  0  0  0
   23.9606  -12.3586  -16.0669 C   0  0  0  0  0  0  0  0  0  0  0  0
   24.8220  -13.5487  -15.0424 S   0  0  0  0  0  0  0  0  0  0  0  0
   21.9394  -11.0135  -16.2191 C   0  0  0  0  0  0  0  0  0  0  0  0
   21.5331  -10.9166  -17.4176 O   0  0  0  0  0  0  0  0  0  0  0  0
   21.8878   -9.8933  -15.3746 N   0  0  0  0  0  0  0  0  0  0  0  0
   21.3342   -8.5960  -15.6400 C   0  0  1  0  0  0  0  0  0  0  0  0
   20.0434   -8.6191  -16.3809 C   0  0  0  0  0  0  0  0  0  0  0  0
   19.4650   -7.2936  -16.6602 C   0  0  0  0  0  0  0  0  0  0  0  0
   19.9649   -6.5150  -17.4718 O   0  0  0  0  0  0  0  0  0  0  0  0
   21.3930   -7.6337  -14.5302 C   0  0  0  0  0  0  0  0  0  0  0  0
   21.7847   -7.9961  -13.4038 O   0  0  0  0  0  0  0  0  0  0  0  0
   18.3227   -6.9395  -15.9593 O   0  0  0  0  0  0  0  0  0  0  0  0
   21.0287   -6.2821  -14.6431 O   0  0  0  0  0  0  0  0  0  0  0  0
  2  3  1  6
  2  4  1  0
  2  1  1  0
  4  5  1  1
  6  4  1  0
  7  6  2  0
  8  6  1  0
  9 12  1  0
  9  8  1  0
  9 10  1  6
 11 10  1  0
 12 14  1  0
 13 12  2  0
 14 15  1  0
 15 19  1  0
 15 16  1  1
 16 17  1  0
 17 21  1  0
 18 17  2  0
 19 20  2  0
 19 22  1  0
M  END
$$$$
