VCD.pdb
     RDKit          3D

 22 21  0  0  1  0  0  0  0  0999 V2000
   21.6413  -14.4102  -19.0744 C   0  0  0  0  0  0  0  0  0  0  0  0
   21.3226  -13.1162  -18.3957 C   0  0  2  0  0  0  0  0  0  0  0  0
   20.0018  -12.5743  -18.8963 C   0  0  0  0  0  0  0  0  0  0  0  0
   22.3607  -12.0464  -18.6176 C   0  0  2  0  0  0  0  0  0  0  0  0
   23.6260  -12.6561  -19.0062 N   0  0  0  0  0  0  0  0  0  0  0  0
   22.5854  -11.1800  -17.4642 C   0  0  0  0  0  0  0  0  0  0  0  0
   21.6723  -10.9587  -16.6394 O   0  0  0  0  0  0  0  0  0  0  0  0
   23.8377  -10.5470  -17.2102 N   0  0  0  0  0  0  0  0  0  0  0  0
   24.0361   -9.5843  -16.1457 C   0  0  1  0  0  0  0  0  0  0  0  0
   25.5475   -9.3163  -16.0700 C   0  0  0  0  0  0  0  0  0  0  0  0
   26.4714  -10.7419  -15.5025 S   0  0  0  0  0  0  0  0  0  0  0  0
   23.3768   -8.2718  -16.4084 C   0  0  0  0  0  0  0  0  0  0  0  0
   22.9777   -8.0975  -17.6006 O   0  0  0  0  0  0  0  0  0  0  0  0
   23.1769   -7.2622  -15.4536 N   0  0  0  0  0  0  0  0  0  0  0  0
   22.4004   -6.0607  -15.5691 C   0  0  1  0  0  0  0  0  0  0  0  0
   21.0645   -6.2511  -16.1976 C   0  0  0  0  0  0  0  0  0  0  0  0
   20.3237   -5.0073  -16.4683 C   0  0  0  0  0  0  0  0  0  0  0  0
   20.2037   -4.1163  -15.6276 O   0  0  0  0  0  0  0  0  0  0  0  0
   22.4114   -5.1740  -14.3967 C   0  0  0  0  0  0  0  0  0  0  0  0
   22.1870   -5.6324  -13.2596 O   0  0  0  0  0  0  0  0  0  0  0  0
   19.7458   -4.8729  -17.7211 O   0  0  0  0  0  0  0  0  0  0  0  0
   22.6662   -3.7943  -14.4583 O   0  0  0  0  0  0  0  0  0  0  0  0
  2  3  1  6
  2  4  1  0
  2  1  1  0
  4  5  1  1
  6  4  1  0
  7  6  2  0
  8  6  1  0
  9 12  1  0
  9  8  1  0
  9 10  1  6
 11 10  1  0
 12 14  1  0
 13 12  2  0
 14 15  1  0
 15 19  1  0
 15 16  1  1
 16 17  1  0
 17 21  1  0
 18 17  2  0
 19 20  2  0
 19 22  1  0
M  END
$$$$
