VCD.pdb
     RDKit          3D

 22 21  0  0  1  0  0  0  0  0999 V2000
   21.7290  -12.3000  -18.5377 C   0  0  0  0  0  0  0  0  0  0  0  0
   22.0280  -11.3057  -19.6142 C   0  0  2  0  0  0  0  0  0  0  0  0
   22.9074  -11.9311  -20.6744 C   0  0  0  0  0  0  0  0  0  0  0  0
   22.7332  -10.0704  -19.1161 C   0  0  2  0  0  0  0  0  0  0  0  0
   24.0674  -10.4174  -18.6436 N   0  0  0  0  0  0  0  0  0  0  0  0
   22.0234   -9.3607  -18.0559 C   0  0  0  0  0  0  0  0  0  0  0  0
   20.8566   -8.9466  -18.2296 O   0  0  0  0  0  0  0  0  0  0  0  0
   22.6050   -9.1037  -16.7795 N   0  0  0  0  0  0  0  0  0  0  0  0
   21.9215   -8.3738  -15.7310 C   0  0  1  0  0  0  0  0  0  0  0  0
   22.6070   -8.7554  -14.4096 C   0  0  0  0  0  0  0  0  0  0  0  0
   22.0244  -10.3189  -13.7586 S   0  0  0  0  0  0  0  0  0  0  0  0
   22.0425   -6.8931  -15.8693 C   0  0  0  0  0  0  0  0  0  0  0  0
   23.1197   -6.4874  -16.4042 O   0  0  0  0  0  0  0  0  0  0  0  0
   21.0742   -5.9615  -15.4629 N   0  0  0  0  0  0  0  0  0  0  0  0
   20.8150   -4.6513  -15.9884 C   0  0  1  0  0  0  0  0  0  0  0  0
   20.9556   -4.5439  -17.4665 C   0  0  0  0  0  0  0  0  0  0  0  0
   20.8074   -3.1814  -18.0060 C   0  0  0  0  0  0  0  0  0  0  0  0
   19.7081   -2.6476  -18.1529 O   0  0  0  0  0  0  0  0  0  0  0  0
   19.6505   -3.9527  -15.4257 C   0  0  0  0  0  0  0  0  0  0  0  0
   18.5353   -4.5090  -15.4004 O   0  0  0  0  0  0  0  0  0  0  0  0
   21.9671   -2.5094  -18.3594 O   0  0  0  0  0  0  0  0  0  0  0  0
   19.6964   -2.6548  -14.8913 O   0  0  0  0  0  0  0  0  0  0  0  0
  2  3  1  6
  2  4  1  0
  2  1  1  0
  4  5  1  1
  6  4  1  0
  7  6  2  0
  8  6  1  0
  9 12  1  0
  9  8  1  0
  9 10  1  1
 11 10  1  0
 12 14  1  0
 13 12  2  0
 14 15  1  0
 15 19  1  0
 15 16  1  6
 16 17  1  0
 17 21  1  0
 18 17  2  0
 19 20  2  0
 19 22  1  0
M  END
$$$$
