VCD.pdb
     RDKit          3D

 22 21  0  0  1  0  0  0  0  0999 V2000
   17.2271  -13.4180  -15.1408 C   0  0  0  0  0  0  0  0  0  0  0  0
   18.1923  -13.0043  -16.2057 C   0  0  2  0  0  0  0  0  0  0  0  0
   19.5984  -12.9610  -15.6491 C   0  0  0  0  0  0  0  0  0  0  0  0
   17.8989  -11.6476  -16.7925 C   0  0  2  0  0  0  0  0  0  0  0  0
   18.5547  -11.5146  -18.0871 N   0  0  0  0  0  0  0  0  0  0  0  0
   18.2939  -10.5281  -15.9427 C   0  0  0  0  0  0  0  0  0  0  0  0
   17.7579  -10.3475  -14.8277 O   0  0  0  0  0  0  0  0  0  0  0  0
   19.2990   -9.5909  -16.3233 N   0  0  0  0  0  0  0  0  0  0  0  0
   19.7235   -8.4970  -15.4733 C   0  0  1  0  0  0  0  0  0  0  0  0
   21.2484   -8.3853  -15.6275 C   0  0  0  0  0  0  0  0  0  0  0  0
   22.1356   -9.3783  -14.4296 S   0  0  0  0  0  0  0  0  0  0  0  0
   19.1502   -7.1802  -15.8781 C   0  0  0  0  0  0  0  0  0  0  0  0
   19.2198   -6.9198  -17.1184 O   0  0  0  0  0  0  0  0  0  0  0  0
   18.5600   -6.2529  -15.0050 N   0  0  0  0  0  0  0  0  0  0  0  0
   17.9931   -4.9701  -15.3100 C   0  0  1  0  0  0  0  0  0  0  0  0
   16.8154   -4.6052  -14.4757 C   0  0  0  0  0  0  0  0  0  0  0  0
   16.1967   -3.3108  -14.8088 C   0  0  0  0  0  0  0  0  0  0  0  0
   16.5412   -2.2587  -14.2709 O   0  0  0  0  0  0  0  0  0  0  0  0
   18.9540   -3.8802  -15.5333 C   0  0  0  0  0  0  0  0  0  0  0  0
   19.9150   -3.7202  -14.7559 O   0  0  0  0  0  0  0  0  0  0  0  0
   15.1873   -3.3160  -15.7588 O   0  0  0  0  0  0  0  0  0  0  0  0
   18.8725   -2.9677  -16.5977 O   0  0  0  0  0  0  0  0  0  0  0  0
  2  3  1  1
  2  4  1  0
  2  1  1  0
  4  5  1  6
  6  4  1  0
  7  6  2  0
  8  6  1  0
  9 12  1  0
  9  8  1  0
  9 10  1  6
 11 10  1  0
 12 14  1  0
 13 12  2  0
 14 15  1  0
 15 19  1  0
 15 16  1  1
 16 17  1  0
 17 21  1  0
 18 17  2  0
 19 20  2  0
 19 22  1  0
M  END
$$$$
