VCD.pdb
     RDKit          3D

 22 21  0  0  1  0  0  0  0  0999 V2000
   19.9327  -11.4456  -21.4887 C   0  0  0  0  0  0  0  0  0  0  0  0
   20.7848  -12.0835  -20.4381 C   0  0  2  0  0  0  0  0  0  0  0  0
   19.9233  -12.8568  -19.4642 C   0  0  0  0  0  0  0  0  0  0  0  0
   21.5949  -11.0971  -19.6368 C   0  0  2  0  0  0  0  0  0  0  0  0
   22.6247  -11.7987  -18.8812 N   0  0  0  0  0  0  0  0  0  0  0  0
   20.8073  -10.2786  -18.7196 C   0  0  0  0  0  0  0  0  0  0  0  0
   19.8866   -9.5455  -19.1417 O   0  0  0  0  0  0  0  0  0  0  0  0
   21.0330  -10.2674  -17.3116 N   0  0  0  0  0  0  0  0  0  0  0  0
   20.3110   -9.4017  -16.4014 C   0  0  1  0  0  0  0  0  0  0  0  0
   19.8827  -10.2735  -15.2105 C   0  0  0  0  0  0  0  0  0  0  0  0
   18.1654  -10.7731  -15.3060 S   0  0  0  0  0  0  0  0  0  0  0  0
   21.1490   -8.2973  -15.8497 C   0  0  0  0  0  0  0  0  0  0  0  0
   22.3310   -8.6273  -15.5254 O   0  0  0  0  0  0  0  0  0  0  0  0
   20.7261   -6.9697  -15.6788 N   0  0  0  0  0  0  0  0  0  0  0  0
   21.4867   -5.8374  -15.2324 C   0  0  1  0  0  0  0  0  0  0  0  0
   21.1375   -4.5580  -15.9086 C   0  0  0  0  0  0  0  0  0  0  0  0
   21.9995   -3.4163  -15.5586 C   0  0  0  0  0  0  0  0  0  0  0  0
   23.1551   -3.5616  -15.1606 O   0  0  0  0  0  0  0  0  0  0  0  0
   21.6913   -5.7334  -13.7804 C   0  0  0  0  0  0  0  0  0  0  0  0
   22.4178   -4.8362  -13.3105 O   0  0  0  0  0  0  0  0  0  0  0  0
   21.4546   -2.1479  -15.6846 O   0  0  0  0  0  0  0  0  0  0  0  0
   21.1083   -6.5999  -12.8415 O   0  0  0  0  0  0  0  0  0  0  0  0
  2  3  1  1
  2  4  1  0
  2  1  1  0
  4  5  1  1
  6  4  1  0
  7  6  2  0
  8  6  1  0
  9 12  1  0
  9  8  1  0
  9 10  1  1
 11 10  1  0
 12 14  1  0
 13 12  2  0
 14 15  1  0
 15 19  1  0
 15 16  1  1
 16 17  1  0
 17 21  1  0
 18 17  2  0
 19 20  2  0
 19 22  1  0
M  END
$$$$
