VCD.pdb
     RDKit          3D

 22 21  0  0  1  0  0  0  0  0999 V2000
   21.8509  -16.4141  -16.1937 C   0  0  0  0  0  0  0  0  0  0  0  0
   20.5774  -15.9034  -16.7888 C   0  0  2  0  0  0  0  0  0  0  0  0
   20.1230  -16.8114  -17.9102 C   0  0  0  0  0  0  0  0  0  0  0  0
   20.6914  -14.5115  -17.3553 C   0  0  2  0  0  0  0  0  0  0  0  0
   21.6322  -14.5043  -18.4681 N   0  0  0  0  0  0  0  0  0  0  0  0
   21.0969  -13.4998  -16.3839 C   0  0  0  0  0  0  0  0  0  0  0  0
   20.3900  -13.2501  -15.3832 O   0  0  0  0  0  0  0  0  0  0  0  0
   22.3031  -12.7501  -16.5123 N   0  0  0  0  0  0  0  0  0  0  0  0
   22.6768  -11.6898  -15.5983 C   0  0  1  0  0  0  0  0  0  0  0  0
   24.2106  -11.6003  -15.6307 C   0  0  0  0  0  0  0  0  0  0  0  0
   24.8474  -10.3126  -14.5610 S   0  0  0  0  0  0  0  0  0  0  0  0
   22.1568  -10.3516  -16.0047 C   0  0  0  0  0  0  0  0  0  0  0  0
   22.0403  -10.1755  -17.2563 O   0  0  0  0  0  0  0  0  0  0  0  0
   21.8004   -9.3206  -15.1213 N   0  0  0  0  0  0  0  0  0  0  0  0
   21.2078   -8.0483  -15.4214 C   0  0  1  0  0  0  0  0  0  0  0  0
   20.0518   -8.1148  -16.3569 C   0  0  0  0  0  0  0  0  0  0  0  0
   19.4334   -6.8156  -16.6718 C   0  0  0  0  0  0  0  0  0  0  0  0
   20.0451   -5.9188  -17.2518 O   0  0  0  0  0  0  0  0  0  0  0  0
   21.0286   -7.1384  -14.2808 C   0  0  0  0  0  0  0  0  0  0  0  0
   21.3770   -7.4886  -13.1364 O   0  0  0  0  0  0  0  0  0  0  0  0
   18.1178   -6.6271  -16.2779 O   0  0  0  0  0  0  0  0  0  0  0  0
   20.4739   -5.8522  -14.3822 O   0  0  0  0  0  0  0  0  0  0  0  0
  2  3  1  6
  2  4  1  0
  2  1  1  0
  4  5  1  6
  6  4  1  0
  7  6  2  0
  8  6  1  0
  9 12  1  0
  9  8  1  0
  9 10  1  6
 11 10  1  0
 12 14  1  0
 13 12  2  0
 14 15  1  0
 15 19  1  0
 15 16  1  1
 16 17  1  0
 17 21  1  0
 18 17  2  0
 19 20  2  0
 19 22  1  0
M  END
$$$$
