VCD.pdb
     RDKit          3D

 22 21  0  0  1  0  0  0  0  0999 V2000
   15.0397   -9.7974  -18.0132 C   0  0  0  0  0  0  0  0  0  0  0  0
   15.8741   -9.3937  -16.8396 C   0  0  2  0  0  0  0  0  0  0  0  0
   16.5269   -8.0536  -17.0981 C   0  0  0  0  0  0  0  0  0  0  0  0
   16.9720  -10.3734  -16.5138 C   0  0  2  0  0  0  0  0  0  0  0  0
   16.3946  -11.6375  -16.0749 N   0  0  0  0  0  0  0  0  0  0  0  0
   17.9136   -9.9044  -15.5014 C   0  0  0  0  0  0  0  0  0  0  0  0
   17.5739   -9.8117  -14.3018 O   0  0  0  0  0  0  0  0  0  0  0  0
   19.2550   -9.5332  -15.8120 N   0  0  0  0  0  0  0  0  0  0  0  0
   20.1433   -8.9039  -14.8559 C   0  0  1  0  0  0  0  0  0  0  0  0
   21.4754   -9.6672  -14.9233 C   0  0  0  0  0  0  0  0  0  0  0  0
   22.7441   -8.9290  -13.8970 S   0  0  0  0  0  0  0  0  0  0  0  0
   20.4444   -7.4791  -15.1811 C   0  0  0  0  0  0  0  0  0  0  0  0
   20.6934   -7.2458  -16.4036 O   0  0  0  0  0  0  0  0  0  0  0  0
   20.4639   -6.4252  -14.2540 N   0  0  0  0  0  0  0  0  0  0  0  0
   20.8550   -5.0594  -14.4581 C   0  0  1  0  0  0  0  0  0  0  0  0
   19.7448   -4.0766  -14.3255 C   0  0  0  0  0  0  0  0  0  0  0  0
   20.1108   -2.6829  -14.6305 C   0  0  0  0  0  0  0  0  0  0  0  0
   20.8316   -2.0144  -13.8898 O   0  0  0  0  0  0  0  0  0  0  0  0
   22.1194   -4.6526  -13.8283 C   0  0  0  0  0  0  0  0  0  0  0  0
   22.3458   -4.9320  -12.6349 O   0  0  0  0  0  0  0  0  0  0  0  0
   19.5998   -2.1334  -15.7960 O   0  0  0  0  0  0  0  0  0  0  0  0
   23.1352   -3.9457  -14.4921 O   0  0  0  0  0  0  0  0  0  0  0  0
  2  3  1  6
  2  4  1  0
  2  1  1  0
  4  5  1  1
  6  4  1  0
  7  6  2  0
  8  6  1  0
  9 12  1  0
  9  8  1  0
  9 10  1  6
 11 10  1  0
 12 14  1  0
 13 12  2  0
 14 15  1  0
 15 19  1  0
 15 16  1  1
 16 17  1  0
 17 21  1  0
 18 17  2  0
 19 20  2  0
 19 22  1  0
M  END
$$$$
