VCD.pdb
     RDKit          3D

 22 21  0  0  1  0  0  0  0  0999 V2000
   21.0715  -12.5435  -19.9745 C   0  0  0  0  0  0  0  0  0  0  0  0
   21.8473  -11.5705  -20.8040 C   0  0  2  0  0  0  0  0  0  0  0  0
   23.0110  -12.2664  -21.4750 C   0  0  0  0  0  0  0  0  0  0  0  0
   22.4084  -10.4163  -20.0138 C   0  0  2  0  0  0  0  0  0  0  0  0
   23.5059  -10.8776  -19.1732 N   0  0  0  0  0  0  0  0  0  0  0  0
   21.4281   -9.7276  -19.1795 C   0  0  0  0  0  0  0  0  0  0  0  0
   20.4319   -9.1684  -19.6875 O   0  0  0  0  0  0  0  0  0  0  0  0
   21.5424   -9.6542  -17.7600 N   0  0  0  0  0  0  0  0  0  0  0  0
   20.6270   -8.8969  -16.9306 C   0  0  1  0  0  0  0  0  0  0  0  0
   20.0718   -9.8735  -15.8819 C   0  0  0  0  0  0  0  0  0  0  0  0
   19.0292   -9.0636  -14.6715 S   0  0  0  0  0  0  0  0  0  0  0  0
   21.2897   -7.7892  -16.1820 C   0  0  0  0  0  0  0  0  0  0  0  0
   22.3882   -8.0960  -15.6251 O   0  0  0  0  0  0  0  0  0  0  0  0
   20.7924   -6.4817  -16.0655 N   0  0  0  0  0  0  0  0  0  0  0  0
   21.3663   -5.3631  -15.3733 C   0  0  1  0  0  0  0  0  0  0  0  0
   20.8008   -4.0429  -15.7648 C   0  0  0  0  0  0  0  0  0  0  0  0
   21.4499   -2.8794  -15.1370 C   0  0  0  0  0  0  0  0  0  0  0  0
   22.5167   -2.9691  -14.5295 O   0  0  0  0  0  0  0  0  0  0  0  0
   21.5781   -5.5413  -13.9296 C   0  0  0  0  0  0  0  0  0  0  0  0
   22.7258   -5.4693  -13.4488 O   0  0  0  0  0  0  0  0  0  0  0  0
   20.8041   -1.6576  -15.2452 O   0  0  0  0  0  0  0  0  0  0  0  0
   20.5472   -5.7959  -13.0105 O   0  0  0  0  0  0  0  0  0  0  0  0
  2  3  1  1
  2  4  1  0
  2  1  1  0
  4  5  1  1
  6  4  1  0
  7  6  2  0
  8  6  1  0
  9 12  1  0
  9  8  1  0
  9 10  1  1
 11 10  1  0
 12 14  1  0
 13 12  2  0
 14 15  1  0
 15 19  1  0
 15 16  1  1
 16 17  1  0
 17 21  1  0
 18 17  2  0
 19 20  2  0
 19 22  1  0
M  END
$$$$
