VCD.pdb
     RDKit          3D

 22 21  0  0  1  0  0  0  0  0999 V2000
   18.8355  -12.5893  -15.2221 C   0  0  0  0  0  0  0  0  0  0  0  0
   18.3137  -12.4271  -16.6143 C   0  0  2  0  0  0  0  0  0  0  0  0
   18.8996  -13.4882  -17.5195 C   0  0  0  0  0  0  0  0  0  0  0  0
   18.6330  -11.0874  -17.2263 C   0  0  2  0  0  0  0  0  0  0  0  0
   20.0691  -10.9719  -17.4459 N   0  0  0  0  0  0  0  0  0  0  0  0
   18.1795   -9.9446  -16.4388 C   0  0  0  0  0  0  0  0  0  0  0  0
   16.9635   -9.7622  -16.2128 O   0  0  0  0  0  0  0  0  0  0  0  0
   19.0790   -8.9858  -15.8865 N   0  0  0  0  0  0  0  0  0  0  0  0
   18.6411   -7.8561  -15.0919 C   0  0  1  0  0  0  0  0  0  0  0  0
   19.4071   -7.9297  -13.7616 C   0  0  0  0  0  0  0  0  0  0  0  0
   18.4886   -8.7874  -12.4854 S   0  0  0  0  0  0  0  0  0  0  0  0
   18.9720   -6.5385  -15.7091 C   0  0  0  0  0  0  0  0  0  0  0  0
   20.1668   -6.4205  -16.1209 O   0  0  0  0  0  0  0  0  0  0  0  0
   18.0761   -5.4681  -15.8582 N   0  0  0  0  0  0  0  0  0  0  0  0
   18.2716   -4.2257  -16.5497 C   0  0  1  0  0  0  0  0  0  0  0  0
   17.3866   -4.0349  -17.7314 C   0  0  0  0  0  0  0  0  0  0  0  0
   17.4295   -5.1253  -18.7206 C   0  0  0  0  0  0  0  0  0  0  0  0
   16.4303   -5.7750  -19.0278 O   0  0  0  0  0  0  0  0  0  0  0  0
   18.4339   -3.0368  -15.7005 C   0  0  0  0  0  0  0  0  0  0  0  0
   17.8034   -2.9381  -14.6299 O   0  0  0  0  0  0  0  0  0  0  0  0
   18.6568   -5.4090  -19.2992 O   0  0  0  0  0  0  0  0  0  0  0  0
   19.2788   -1.9592  -16.0118 O   0  0  0  0  0  0  0  0  0  0  0  0
  2  3  1  6
  2  4  1  0
  2  1  1  0
  4  5  1  1
  6  4  1  0
  7  6  2  0
  8  6  1  0
  9 12  1  0
  9  8  1  0
  9 10  1  1
 11 10  1  0
 12 14  1  0
 13 12  2  0
 14 15  1  0
 15 19  1  0
 15 16  1  6
 16 17  1  0
 17 21  1  0
 18 17  2  0
 19 20  2  0
 19 22  1  0
M  END
$$$$
