PML.pdb
     RDKit          3D

 24 24  0  0  1  0  0  0  0  0999 V2000
   27.6793  -19.6682  -15.7542 N   0  0  0  0  0  0  0  0  0  0  0  0
   28.7606  -19.6618  -16.7537 C   0  0  0  0  0  0  0  0  0  0  0  0
   29.6642  -20.8154  -16.3530 C   0  0  0  0  0  0  0  0  0  0  0  0
   28.8669  -21.5681  -15.2973 C   0  0  0  0  0  0  0  0  0  0  0  0
   27.4508  -21.0992  -15.6374 C   0  0  1  0  0  0  0  0  0  0  0  0
   26.4762  -21.4387  -14.6029 C   0  0  0  0  0  0  0  0  0  0  0  0
   25.7008  -22.4083  -14.7940 O   0  0  0  0  0  0  0  0  0  0  0  0
   26.4965  -19.5723   -7.9016 C   0  0  0  0  0  0  0  0  0  0  0  0
   25.6994  -21.1462   -8.2491 S   0  0  0  0  0  0  0  0  0  0  0  0
   25.0181  -21.2358   -9.8972 C   0  0  0  0  0  0  0  0  0  0  0  0
   25.9261  -20.8563  -11.0128 C   0  0  0  0  0  0  0  0  0  0  0  0
   25.3505  -21.1014  -12.3774 C   0  0  2  0  0  0  0  0  0  0  0  0
   26.3440  -20.7325  -13.3726 N   0  0  0  0  0  0  0  0  0  0  0  0
   24.0479  -20.4686  -12.5565 C   0  0  0  0  0  0  0  0  0  0  0  0
   23.9142  -19.1947  -12.5605 O   0  0  0  0  0  0  0  0  0  0  0  0
   21.2292  -21.4411  -16.7953 C   0  0  0  0  0  0  0  0  0  0  0  0
   21.6698  -20.7036  -15.5525 C   0  0  1  0  0  0  0  0  0  0  0  0
   21.7441  -19.2079  -15.7856 C   0  0  0  0  0  0  0  0  0  0  0  0
   20.9955  -21.0868  -14.3023 C   0  0  0  0  0  0  0  0  0  0  0  0
   21.5573  -20.5836  -13.0037 C   0  0  2  0  0  0  0  0  0  0  0  0
   22.8445  -21.1966  -12.7454 N   0  0  0  0  0  0  0  0  0  0  0  0
   20.6970  -20.7592  -11.8543 C   0  0  0  0  0  0  0  0  0  0  0  0
   19.6621  -19.8817  -11.5557 O   0  0  0  0  0  0  0  0  0  0  0  0
   20.8378  -21.7169  -11.0599 O   0  0  0  0  0  0  0  0  0  0  0  0
  1  2  1  0
  3  2  1  0
  4  5  1  0
  4  3  1  0
  5  1  1  0
  5  6  1  1
  7  6  2  0
  8  9  1  0
  9 10  1  0
 10 11  1  0
 12 11  1  1
 12 13  1  0
 13  6  1  0
 14 15  2  0
 14 12  1  0
 17 16  1  6
 17 18  1  0
 20 19  1  6
 19 17  1  0
 20 21  1  0
 21 14  1  0
 22 23  1  0
 22 20  1  0
 24 22  2  0
M  END
$$$$
