PML.pdb
     RDKit          3D

 24 24  0  0  1  0  0  0  0  0999 V2000
   27.3796  -19.0166  -15.4297 N   0  0  0  0  0  0  0  0  0  0  0  0
   28.5152  -18.7445  -16.3267 C   0  0  0  0  0  0  0  0  0  0  0  0
   29.6613  -19.5643  -15.7588 C   0  0  0  0  0  0  0  0  0  0  0  0
   29.0025  -20.4641  -14.7229 C   0  0  0  0  0  0  0  0  0  0  0  0
   27.5567  -20.4447  -15.2228 C   0  0  1  0  0  0  0  0  0  0  0  0
   26.6137  -21.0023  -14.2558 C   0  0  0  0  0  0  0  0  0  0  0  0
   26.0225  -22.0752  -14.5336 O   0  0  0  0  0  0  0  0  0  0  0  0
   26.7459  -19.9943   -7.7699 C   0  0  0  0  0  0  0  0  0  0  0  0
   25.2221  -20.9296   -7.9616 S   0  0  0  0  0  0  0  0  0  0  0  0
   24.7863  -21.2133   -9.6697 C   0  0  0  0  0  0  0  0  0  0  0  0
   25.6895  -20.6213  -10.6928 C   0  0  0  0  0  0  0  0  0  0  0  0
   25.3048  -20.9465  -12.1070 C   0  0  2  0  0  0  0  0  0  0  0  0
   26.3149  -20.4012  -12.9991 N   0  0  0  0  0  0  0  0  0  0  0  0
   23.9374  -20.5452  -12.4205 C   0  0  0  0  0  0  0  0  0  0  0  0
   23.6225  -19.3172  -12.6041 O   0  0  0  0  0  0  0  0  0  0  0  0
   21.4406  -22.3377  -16.5916 C   0  0  0  0  0  0  0  0  0  0  0  0
   21.6861  -21.4061  -15.4278 C   0  0  1  0  0  0  0  0  0  0  0  0
   21.4526  -19.9583  -15.8106 C   0  0  0  0  0  0  0  0  0  0  0  0
   21.0751  -21.7981  -14.1482 C   0  0  0  0  0  0  0  0  0  0  0  0
   21.5094  -21.0845  -12.9002 C   0  0  2  0  0  0  0  0  0  0  0  0
   22.8642  -21.4640  -12.5537 N   0  0  0  0  0  0  0  0  0  0  0  0
   20.6456  -21.2706  -11.7551 C   0  0  0  0  0  0  0  0  0  0  0  0
   19.3572  -20.7536  -11.7004 O   0  0  0  0  0  0  0  0  0  0  0  0
   21.0127  -21.9116  -10.7440 O   0  0  0  0  0  0  0  0  0  0  0  0
  1  2  1  0
  3  2  1  0
  4  5  1  0
  4  3  1  0
  5  1  1  0
  5  6  1  1
  7  6  2  0
  8  9  1  0
  9 10  1  0
 10 11  1  0
 12 11  1  1
 12 13  1  0
 13  6  1  0
 14 15  2  0
 14 12  1  0
 17 16  1  6
 17 18  1  0
 20 19  1  6
 19 17  1  0
 20 21  1  0
 21 14  1  0
 22 23  1  0
 22 20  1  0
 24 22  2  0
M  END
$$$$
