PML.pdb
     RDKit          3D

 24 24  0  0  1  0  0  0  0  0999 V2000
   27.8745  -19.2549  -15.3738 N   0  0  0  0  0  0  0  0  0  0  0  0
   28.9655  -19.1515  -16.3572 C   0  0  0  0  0  0  0  0  0  0  0  0
   29.8707  -20.3339  -16.0561 C   0  0  0  0  0  0  0  0  0  0  0  0
   29.0665  -21.1845  -15.0831 C   0  0  0  0  0  0  0  0  0  0  0  0
   27.6517  -20.6914  -15.3926 C   0  0  1  0  0  0  0  0  0  0  0  0
   26.6686  -21.1293  -14.4042 C   0  0  0  0  0  0  0  0  0  0  0  0
   25.9199  -22.0992  -14.6809 O   0  0  0  0  0  0  0  0  0  0  0  0
   26.5733  -19.3771   -7.8337 C   0  0  0  0  0  0  0  0  0  0  0  0
   25.6992  -20.9370   -8.0238 S   0  0  0  0  0  0  0  0  0  0  0  0
   25.1530  -21.2326   -9.6979 C   0  0  0  0  0  0  0  0  0  0  0  0
   26.0177  -20.6964  -10.7831 C   0  0  0  0  0  0  0  0  0  0  0  0
   25.5239  -21.0082  -12.1661 C   0  0  2  0  0  0  0  0  0  0  0  0
   26.4992  -20.5201  -13.1274 N   0  0  0  0  0  0  0  0  0  0  0  0
   24.1610  -20.5385  -12.3921 C   0  0  0  0  0  0  0  0  0  0  0  0
   23.8862  -19.2906  -12.4816 O   0  0  0  0  0  0  0  0  0  0  0  0
   22.4257  -20.2581  -15.7176 C   0  0  0  0  0  0  0  0  0  0  0  0
   21.1721  -21.0197  -15.3555 C   0  0  1  0  0  0  0  0  0  0  0  0
   20.6861  -21.8778  -16.5065 C   0  0  0  0  0  0  0  0  0  0  0  0
   21.1885  -21.7074  -14.0550 C   0  0  0  0  0  0  0  0  0  0  0  0
   21.7078  -20.9625  -12.8589 C   0  0  2  0  0  0  0  0  0  0  0  0
   23.0486  -21.4075  -12.5369 N   0  0  0  0  0  0  0  0  0  0  0  0
   20.8747  -21.0397  -11.6791 C   0  0  0  0  0  0  0  0  0  0  0  0
   21.1516  -21.9013  -10.6250 O   0  0  0  0  0  0  0  0  0  0  0  0
   19.8519  -20.3305  -11.5412 O   0  0  0  0  0  0  0  0  0  0  0  0
  1  2  1  0
  3  2  1  0
  4  5  1  0
  4  3  1  0
  5  1  1  0
  5  6  1  1
  7  6  2  0
  8  9  1  0
  9 10  1  0
 10 11  1  0
 12 11  1  1
 12 13  1  0
 13  6  1  0
 14 15  2  0
 14 12  1  0
 17 16  1  6
 17 18  1  0
 20 19  1  6
 19 17  1  0
 20 21  1  0
 21 14  1  0
 22 23  1  0
 22 20  1  0
 24 22  2  0
M  END
$$$$
