PML.pdb
     RDKit          3D

 24 24  0  0  1  0  0  0  0  0999 V2000
   27.6620  -18.9709  -15.3906 N   0  0  0  0  0  0  0  0  0  0  0  0
   28.7320  -18.7653  -16.3810 C   0  0  0  0  0  0  0  0  0  0  0  0
   29.6932  -19.9202  -16.1569 C   0  0  0  0  0  0  0  0  0  0  0  0
   28.9427  -20.8576  -15.2215 C   0  0  0  0  0  0  0  0  0  0  0  0
   27.5028  -20.4129  -15.4852 C   0  0  1  0  0  0  0  0  0  0  0  0
   26.5555  -20.9475  -14.5095 C   0  0  0  0  0  0  0  0  0  0  0  0
   26.0422  -22.0751  -14.7164 O   0  0  0  0  0  0  0  0  0  0  0  0
   26.5397  -19.5242   -8.0332 C   0  0  0  0  0  0  0  0  0  0  0  0
   25.5336  -21.0011   -8.2327 S   0  0  0  0  0  0  0  0  0  0  0  0
   24.9533  -21.2307   -9.9056 C   0  0  0  0  0  0  0  0  0  0  0  0
   25.7380  -20.5627  -10.9784 C   0  0  0  0  0  0  0  0  0  0  0  0
   25.2408  -20.8491  -12.3657 C   0  0  2  0  0  0  0  0  0  0  0  0
   26.1685  -20.2647  -13.3204 N   0  0  0  0  0  0  0  0  0  0  0  0
   23.8484  -20.4548  -12.5528 C   0  0  0  0  0  0  0  0  0  0  0  0
   23.4916  -19.2246  -12.5482 O   0  0  0  0  0  0  0  0  0  0  0  0
   21.3324  -21.4841  -16.9122 C   0  0  0  0  0  0  0  0  0  0  0  0
   21.6092  -20.8279  -15.5798 C   0  0  1  0  0  0  0  0  0  0  0  0
   21.3796  -19.3307  -15.6345 C   0  0  0  0  0  0  0  0  0  0  0  0
   21.0212  -21.4860  -14.4026 C   0  0  0  0  0  0  0  0  0  0  0  0
   21.4239  -21.0039  -13.0385 C   0  0  2  0  0  0  0  0  0  0  0  0
   22.7944  -21.3822  -12.7595 N   0  0  0  0  0  0  0  0  0  0  0  0
   20.5698  -21.4420  -11.9565 C   0  0  0  0  0  0  0  0  0  0  0  0
   19.3712  -20.8103  -11.6491 O   0  0  0  0  0  0  0  0  0  0  0  0
   20.8647  -22.4204  -11.2326 O   0  0  0  0  0  0  0  0  0  0  0  0
  1  2  1  0
  3  2  1  0
  4  5  1  0
  4  3  1  0
  5  1  1  0
  5  6  1  1
  7  6  2  0
  8  9  1  0
  9 10  1  0
 10 11  1  0
 12 11  1  1
 12 13  1  0
 13  6  1  0
 14 15  2  0
 14 12  1  0
 17 16  1  6
 17 18  1  0
 20 19  1  6
 19 17  1  0
 20 21  1  0
 21 14  1  0
 22 23  1  0
 22 20  1  0
 24 22  2  0
M  END
$$$$
