PML.pdb
     RDKit          3D

 24 24  0  0  1  0  0  0  0  0999 V2000
   26.1521  -24.0491  -15.1062 N   0  0  0  0  0  0  0  0  0  0  0  0
   25.6982  -24.4923  -16.4350 C   0  0  0  0  0  0  0  0  0  0  0  0
   25.5434  -23.2118  -17.2376 C   0  0  0  0  0  0  0  0  0  0  0  0
   26.1921  -22.1433  -16.3691 C   0  0  0  0  0  0  0  0  0  0  0  0
   27.0959  -23.0133  -15.4934 C   0  0  1  0  0  0  0  0  0  0  0  0
   27.6482  -22.2887  -14.3509 C   0  0  0  0  0  0  0  0  0  0  0  0
   28.8111  -21.8212  -14.4331 O   0  0  0  0  0  0  0  0  0  0  0  0
   26.9083  -17.0322  -15.3964 C   0  0  0  0  0  0  0  0  0  0  0  0
   26.1871  -16.9829  -13.7499 S   0  0  0  0  0  0  0  0  0  0  0  0
   26.6970  -18.3512  -12.7223 C   0  0  0  0  0  0  0  0  0  0  0  0
   26.5831  -19.7089  -13.3194 C   0  0  0  0  0  0  0  0  0  0  0  0
   27.0278  -20.8152  -12.4073 C   0  0  2  0  0  0  0  0  0  0  0  0
   26.9451  -22.0736  -13.1306 N   0  0  0  0  0  0  0  0  0  0  0  0
   26.3243  -20.8023  -11.1289 C   0  0  0  0  0  0  0  0  0  0  0  0
   25.1038  -21.1781  -11.0294 O   0  0  0  0  0  0  0  0  0  0  0  0
   28.2704  -20.2608   -5.2281 C   0  0  0  0  0  0  0  0  0  0  0  0
   27.4810  -19.9023   -6.4654 C   0  0  1  0  0  0  0  0  0  0  0  0
   27.4803  -18.4075   -6.7156 C   0  0  0  0  0  0  0  0  0  0  0  0
   27.7533  -20.7143   -7.6617 C   0  0  0  0  0  0  0  0  0  0  0  0
   26.6270  -20.9754   -8.6201 C   0  0  2  0  0  0  0  0  0  0  0  0
   26.9236  -20.3882   -9.9111 N   0  0  0  0  0  0  0  0  0  0  0  0
   25.3254  -20.5308   -8.1725 C   0  0  0  0  0  0  0  0  0  0  0  0
   24.6424  -21.1493   -7.1327 O   0  0  0  0  0  0  0  0  0  0  0  0
   24.7384  -19.5586   -8.7000 O   0  0  0  0  0  0  0  0  0  0  0  0
  1  2  1  0
  3  2  1  0
  4  5  1  0
  4  3  1  0
  5  1  1  0
  5  6  1  1
  7  6  2  0
  8  9  1  0
  9 10  1  0
 10 11  1  0
 12 11  1  6
 12 13  1  0
 13  6  1  0
 14 15  2  0
 14 12  1  0
 17 16  1  1
 17 18  1  0
 20 19  1  1
 19 17  1  0
 20 21  1  0
 21 14  1  0
 22 23  1  0
 22 20  1  0
 24 22  2  0
M  END
$$$$
