PML.pdb
     RDKit          3D

 24 24  0  0  1  0  0  0  0  0999 V2000
   19.6391  -21.5568  -14.1932 N   0  0  0  0  0  0  0  0  0  0  0  0
   18.8169  -22.4941  -14.9765 C   0  0  0  0  0  0  0  0  0  0  0  0
   19.6352  -22.7755  -16.2252 C   0  0  0  0  0  0  0  0  0  0  0  0
   21.0011  -22.1761  -15.9222 C   0  0  0  0  0  0  0  0  0  0  0  0
   20.9536  -22.1445  -14.3934 C   0  0  1  0  0  0  0  0  0  0  0  0
   22.0298  -21.3481  -13.8079 C   0  0  0  0  0  0  0  0  0  0  0  0
   21.8619  -20.1113  -13.6664 O   0  0  0  0  0  0  0  0  0  0  0  0
   25.5017  -20.6336   -8.5742 C   0  0  0  0  0  0  0  0  0  0  0  0
   26.7285  -21.3266   -9.6913 S   0  0  0  0  0  0  0  0  0  0  0  0
   26.3543  -21.0294  -11.4118 C   0  0  0  0  0  0  0  0  0  0  0  0
   25.2337  -21.8162  -11.9933 C   0  0  0  0  0  0  0  0  0  0  0  0
   24.3752  -21.0396  -12.9491 C   0  0  2  0  0  0  0  0  0  0  0  0
   23.2767  -21.8887  -13.3801 N   0  0  0  0  0  0  0  0  0  0  0  0
   25.1460  -20.4454  -14.0363 C   0  0  0  0  0  0  0  0  0  0  0  0
   25.3850  -21.0861  -15.1194 O   0  0  0  0  0  0  0  0  0  0  0  0
   25.8797  -15.8908  -17.0672 C   0  0  0  0  0  0  0  0  0  0  0  0
   26.8177  -16.0637  -15.8954 C   0  0  1  0  0  0  0  0  0  0  0  0
   27.3463  -14.7323  -15.4003 C   0  0  0  0  0  0  0  0  0  0  0  0
   26.3563  -16.9646  -14.8278 C   0  0  0  0  0  0  0  0  0  0  0  0
   26.1984  -18.4244  -15.1427 C   0  0  2  0  0  0  0  0  0  0  0  0
   25.6784  -19.1308  -13.9895 N   0  0  0  0  0  0  0  0  0  0  0  0
   27.3964  -19.0829  -15.6153 C   0  0  0  0  0  0  0  0  0  0  0  0
   27.7003  -19.2001  -16.9659 O   0  0  0  0  0  0  0  0  0  0  0  0
   28.2309  -19.5867  -14.8293 O   0  0  0  0  0  0  0  0  0  0  0  0
  1  2  1  0
  3  2  1  0
  4  5  1  0
  4  3  1  0
  5  1  1  0
  5  6  1  6
  7  6  2  0
  8  9  1  0
  9 10  1  0
 10 11  1  0
 12 11  1  1
 12 13  1  0
 13  6  1  0
 14 15  2  0
 14 12  1  0
 17 16  1  6
 17 18  1  0
 20 19  1  1
 19 17  1  0
 20 21  1  0
 21 14  1  0
 22 23  1  0
 22 20  1  0
 24 22  2  0
M  END
$$$$
