PML.pdb
     RDKit          3D

 24 24  0  0  1  0  0  0  0  0999 V2000
   26.7498  -16.6587  -14.6115 N   0  0  0  0  0  0  0  0  0  0  0  0
   26.6224  -15.4223  -15.4010 C   0  0  0  0  0  0  0  0  0  0  0  0
   27.6357  -15.5739  -16.5228 C   0  0  0  0  0  0  0  0  0  0  0  0
   28.0768  -17.0281  -16.4367 C   0  0  0  0  0  0  0  0  0  0  0  0
   26.8891  -17.6306  -15.6836 C   0  0  1  0  0  0  0  0  0  0  0  0
   27.1521  -18.9831  -15.1969 C   0  0  0  0  0  0  0  0  0  0  0  0
   26.9060  -19.9580  -15.9498 O   0  0  0  0  0  0  0  0  0  0  0  0
   31.3555  -21.0610  -10.1331 C   0  0  0  0  0  0  0  0  0  0  0  0
   31.0815  -22.2905  -11.4163 S   0  0  0  0  0  0  0  0  0  0  0  0
   29.5115  -22.0981  -12.2448 C   0  0  0  0  0  0  0  0  0  0  0  0
   29.2100  -20.7479  -12.7915 C   0  0  0  0  0  0  0  0  0  0  0  0
   27.8605  -20.6404  -13.4403 C   0  0  2  0  0  0  0  0  0  0  0  0
   27.6771  -19.2751  -13.9049 N   0  0  0  0  0  0  0  0  0  0  0  0
   26.7882  -21.1401  -12.5859 C   0  0  0  0  0  0  0  0  0  0  0  0
   26.7395  -22.3654  -12.2155 O   0  0  0  0  0  0  0  0  0  0  0  0
   26.1546  -18.7898   -8.1250 C   0  0  0  0  0  0  0  0  0  0  0  0
   25.9981  -19.9358   -9.0970 C   0  0  1  0  0  0  0  0  0  0  0  0
   26.3005  -21.2695   -8.4436 C   0  0  0  0  0  0  0  0  0  0  0  0
   24.7734  -19.9271   -9.9122 C   0  0  0  0  0  0  0  0  0  0  0  0
   24.7331  -20.7749  -11.1510 C   0  0  2  0  0  0  0  0  0  0  0  0
   25.7345  -20.3252  -12.0968 N   0  0  0  0  0  0  0  0  0  0  0  0
   23.4449  -20.8445  -11.8050 C   0  0  0  0  0  0  0  0  0  0  0  0
   23.2666  -20.5058  -13.1405 O   0  0  0  0  0  0  0  0  0  0  0  0
   22.4129  -21.2158  -11.2006 O   0  0  0  0  0  0  0  0  0  0  0  0
  1  2  1  0
  3  2  1  0
  4  5  1  0
  4  3  1  0
  5  1  1  0
  5  6  1  1
  7  6  2  0
  8  9  1  0
  9 10  1  0
 10 11  1  0
 12 11  1  1
 12 13  1  0
 13  6  1  0
 14 15  2  0
 14 12  1  0
 17 16  1  1
 17 18  1  0
 20 19  1  1
 19 17  1  0
 20 21  1  0
 21 14  1  0
 22 23  1  0
 22 20  1  0
 24 22  2  0
M  END
$$$$
