PML.pdb
     RDKit          3D

 24 24  0  0  1  0  0  0  0  0999 V2000
   28.2004  -21.5064  -14.1883 N   0  0  0  0  0  0  0  0  0  0  0  0
   28.5275  -21.8076  -15.5920 C   0  0  0  0  0  0  0  0  0  0  0  0
   27.3821  -21.2111  -16.3923 C   0  0  0  0  0  0  0  0  0  0  0  0
   26.6172  -20.3678  -15.3822 C   0  0  0  0  0  0  0  0  0  0  0  0
   27.7053  -20.1469  -14.3296 C   0  0  1  0  0  0  0  0  0  0  0  0
   27.1839  -19.5969  -13.0803 C   0  0  0  0  0  0  0  0  0  0  0  0
   26.7630  -18.4135  -13.0668 O   0  0  0  0  0  0  0  0  0  0  0  0
   21.9443  -20.3150  -13.3516 C   0  0  0  0  0  0  0  0  0  0  0  0
   21.9513  -20.6223  -11.5799 S   0  0  0  0  0  0  0  0  0  0  0  0
   23.5167  -20.2404  -10.8105 C   0  0  0  0  0  0  0  0  0  0  0  0
   24.7332  -20.4479  -11.6412 C   0  0  0  0  0  0  0  0  0  0  0  0
   26.0190  -20.1603  -10.9217 C   0  0  2  0  0  0  0  0  0  0  0  0
   27.1200  -20.3242  -11.8568 N   0  0  0  0  0  0  0  0  0  0  0  0
   26.1519  -20.9266   -9.6870 C   0  0  0  0  0  0  0  0  0  0  0  0
   26.0651  -22.2046   -9.6762 O   0  0  0  0  0  0  0  0  0  0  0  0
   28.7153  -18.5454   -5.3618 C   0  0  0  0  0  0  0  0  0  0  0  0
   28.3045  -19.6566   -6.2993 C   0  0  1  0  0  0  0  0  0  0  0  0
   29.4040  -20.6869   -6.4624 C   0  0  0  0  0  0  0  0  0  0  0  0
   26.9687  -20.2302   -6.0730 C   0  0  0  0  0  0  0  0  0  0  0  0
   26.3504  -21.0550   -7.1651 C   0  0  2  0  0  0  0  0  0  0  0  0
   26.3917  -20.3329   -8.4206 N   0  0  0  0  0  0  0  0  0  0  0  0
   24.9991  -21.5012   -6.9064 C   0  0  0  0  0  0  0  0  0  0  0  0
   24.6987  -22.4466   -5.9336 O   0  0  0  0  0  0  0  0  0  0  0  0
   24.0194  -21.0579   -7.5480 O   0  0  0  0  0  0  0  0  0  0  0  0
  1  2  1  0
  3  2  1  0
  4  5  1  0
  4  3  1  0
  5  1  1  0
  5  6  1  1
  7  6  2  0
  8  9  1  0
  9 10  1  0
 10 11  1  0
 12 11  1  6
 12 13  1  0
 13  6  1  0
 14 15  2  0
 14 12  1  0
 17 16  1  1
 17 18  1  0
 20 19  1  1
 19 17  1  0
 20 21  1  0
 21 14  1  0
 22 23  1  0
 22 20  1  0
 24 22  2  0
M  END
$$$$
