PML.pdb
     RDKit          3D

 24 24  0  0  1  0  0  0  0  0999 V2000
   27.0851  -19.2519  -15.7364 N   0  0  0  0  0  0  0  0  0  0  0  0
   28.3202  -18.6920  -16.3103 C   0  0  0  0  0  0  0  0  0  0  0  0
   29.2775  -18.5834  -15.1356 C   0  0  0  0  0  0  0  0  0  0  0  0
   28.5904  -19.3556  -14.0183 C   0  0  0  0  0  0  0  0  0  0  0  0
   27.6509  -20.2436  -14.8364 C   0  0  1  0  0  0  0  0  0  0  0  0
   26.6422  -20.9108  -14.0162 C   0  0  0  0  0  0  0  0  0  0  0  0
   26.2960  -22.0814  -14.3126 O   0  0  0  0  0  0  0  0  0  0  0  0
   25.6746  -19.9227   -7.6675 C   0  0  0  0  0  0  0  0  0  0  0  0
   26.9406  -20.8777   -8.5152 S   0  0  0  0  0  0  0  0  0  0  0  0
   26.5097  -21.2659  -10.2039 C   0  0  0  0  0  0  0  0  0  0  0  0
   25.1876  -20.7784  -10.6809 C   0  0  0  0  0  0  0  0  0  0  0  0
   24.9557  -20.9847  -12.1497 C   0  0  2  0  0  0  0  0  0  0  0  0
   26.0151  -20.3134  -12.8850 N   0  0  0  0  0  0  0  0  0  0  0  0
   23.6045  -20.6159  -12.5593 C   0  0  0  0  0  0  0  0  0  0  0  0
   23.2163  -19.3954  -12.5746 O   0  0  0  0  0  0  0  0  0  0  0  0
   21.6159  -22.3468  -17.1480 C   0  0  0  0  0  0  0  0  0  0  0  0
   21.8268  -21.5111  -15.9072 C   0  0  1  0  0  0  0  0  0  0  0  0
   21.8411  -20.0294  -16.2257 C   0  0  0  0  0  0  0  0  0  0  0  0
   21.0047  -21.8698  -14.7410 C   0  0  0  0  0  0  0  0  0  0  0  0
   21.2988  -21.2046  -13.4271 C   0  0  2  0  0  0  0  0  0  0  0  0
   22.6288  -21.5590  -12.9745 N   0  0  0  0  0  0  0  0  0  0  0  0
   20.3415  -21.4721  -12.3764 C   0  0  0  0  0  0  0  0  0  0  0  0
   20.6588  -22.2226  -11.2511 O   0  0  0  0  0  0  0  0  0  0  0  0
   19.1671  -21.0399  -12.4226 O   0  0  0  0  0  0  0  0  0  0  0  0
  1  2  1  0
  3  2  1  0
  4  5  1  0
  4  3  1  0
  5  1  1  0
  5  6  1  1
  7  6  2  0
  8  9  1  0
  9 10  1  0
 10 11  1  0
 12 11  1  1
 12 13  1  0
 13  6  1  0
 14 15  2  0
 14 12  1  0
 17 16  1  6
 17 18  1  0
 20 19  1  6
 19 17  1  0
 20 21  1  0
 21 14  1  0
 22 23  1  0
 22 20  1  0
 24 22  2  0
M  END
$$$$
