PML.pdb
     RDKit          3D

 24 24  0  0  1  0  0  0  0  0999 V2000
   27.0641  -17.0770  -15.3687 N   0  0  0  0  0  0  0  0  0  0  0  0
   26.9698  -16.0160  -16.3854 C   0  0  0  0  0  0  0  0  0  0  0  0
   27.9361  -16.4407  -17.4780 C   0  0  0  0  0  0  0  0  0  0  0  0
   28.3093  -17.8709  -17.1145 C   0  0  0  0  0  0  0  0  0  0  0  0
   27.1201  -18.2477  -16.2288 C   0  0  1  0  0  0  0  0  0  0  0  0
   27.3339  -19.4895  -15.4889 C   0  0  0  0  0  0  0  0  0  0  0  0
   27.2064  -20.5846  -16.0909 O   0  0  0  0  0  0  0  0  0  0  0  0
   30.7781  -20.9727   -9.3755 C   0  0  0  0  0  0  0  0  0  0  0  0
   30.9532  -21.9421  -10.8797 S   0  0  0  0  0  0  0  0  0  0  0  0
   29.4677  -21.9703  -11.8700 C   0  0  0  0  0  0  0  0  0  0  0  0
   29.1511  -20.7301  -12.6280 C   0  0  0  0  0  0  0  0  0  0  0  0
   27.8728  -20.8042  -13.4116 C   0  0  2  0  0  0  0  0  0  0  0  0
   27.6825  -19.5426  -14.1085 N   0  0  0  0  0  0  0  0  0  0  0  0
   26.7393  -21.2228  -12.5935 C   0  0  0  0  0  0  0  0  0  0  0  0
   26.6941  -22.3819  -12.0500 O   0  0  0  0  0  0  0  0  0  0  0  0
   26.0844  -19.1583   -8.1075 C   0  0  0  0  0  0  0  0  0  0  0  0
   25.8235  -20.1790   -9.1905 C   0  0  1  0  0  0  0  0  0  0  0  0
   25.7523  -21.5851   -8.6293 C   0  0  0  0  0  0  0  0  0  0  0  0
   24.7468  -19.8523  -10.1384 C   0  0  0  0  0  0  0  0  0  0  0  0
   24.5867  -20.7090  -11.3614 C   0  0  2  0  0  0  0  0  0  0  0  0
   25.6175  -20.3947  -12.3299 N   0  0  0  0  0  0  0  0  0  0  0  0
   23.2882  -20.6375  -11.9944 C   0  0  0  0  0  0  0  0  0  0  0  0
   22.1188  -21.0099  -11.3431 O   0  0  0  0  0  0  0  0  0  0  0  0
   23.1447  -20.2339  -13.1711 O   0  0  0  0  0  0  0  0  0  0  0  0
  1  2  1  0
  3  2  1  0
  4  5  1  0
  4  3  1  0
  5  1  1  0
  5  6  1  1
  7  6  2  0
  8  9  1  0
  9 10  1  0
 10 11  1  0
 12 11  1  1
 12 13  1  0
 13  6  1  0
 14 15  2  0
 14 12  1  0
 17 16  1  1
 17 18  1  0
 20 19  1  1
 19 17  1  0
 20 21  1  0
 21 14  1  0
 22 23  1  0
 22 20  1  0
 24 22  2  0
M  END
$$$$
