PML.pdb
     RDKit          3D

 24 24  0  0  1  0  0  0  0  0999 V2000
   27.5086  -20.7196  -15.1623 N   0  0  0  0  0  0  0  0  0  0  0  0
   28.1376  -20.4613  -16.4684 C   0  0  0  0  0  0  0  0  0  0  0  0
   27.8650  -18.9925  -16.7448 C   0  0  0  0  0  0  0  0  0  0  0  0
   27.3263  -18.4556  -15.4263 C   0  0  0  0  0  0  0  0  0  0  0  0
   27.8789  -19.5031  -14.4577 C   0  0  1  0  0  0  0  0  0  0  0  0
   27.2865  -19.4129  -13.1250 C   0  0  0  0  0  0  0  0  0  0  0  0
   27.4855  -18.3784  -12.4408 O   0  0  0  0  0  0  0  0  0  0  0  0
   21.1783  -21.0017  -12.6837 C   0  0  0  0  0  0  0  0  0  0  0  0
   21.5844  -20.9584  -10.9325 S   0  0  0  0  0  0  0  0  0  0  0  0
   23.2620  -20.4346  -10.6169 C   0  0  0  0  0  0  0  0  0  0  0  0
   24.2420  -20.6467  -11.7157 C   0  0  0  0  0  0  0  0  0  0  0  0
   25.6318  -20.1811  -11.3913 C   0  0  2  0  0  0  0  0  0  0  0  0
   26.4858  -20.4359  -12.5399 N   0  0  0  0  0  0  0  0  0  0  0  0
   26.1261  -20.7311  -10.1334 C   0  0  0  0  0  0  0  0  0  0  0  0
   26.4325  -21.9692  -10.0153 O   0  0  0  0  0  0  0  0  0  0  0  0
   29.5674  -20.7171   -5.7733 C   0  0  0  0  0  0  0  0  0  0  0  0
   28.3159  -19.8712   -5.7478 C   0  0  1  0  0  0  0  0  0  0  0  0
   28.4526  -18.6974   -4.7987 C   0  0  0  0  0  0  0  0  0  0  0  0
   27.7457  -19.5239   -7.0589 C   0  0  0  0  0  0  0  0  0  0  0  0
   26.7906  -20.4886   -7.7012 C   0  0  2  0  0  0  0  0  0  0  0  0
   26.3127  -19.9545   -8.9604 N   0  0  0  0  0  0  0  0  0  0  0  0
   25.6646  -20.8754   -6.8798 C   0  0  0  0  0  0  0  0  0  0  0  0
   25.7637  -21.8384   -5.8833 O   0  0  0  0  0  0  0  0  0  0  0  0
   24.5317  -20.3611   -7.0218 O   0  0  0  0  0  0  0  0  0  0  0  0
  1  2  1  0
  3  2  1  0
  4  5  1  0
  4  3  1  0
  5  1  1  0
  5  6  1  1
  7  6  2  0
  8  9  1  0
  9 10  1  0
 10 11  1  0
 12 11  1  6
 12 13  1  0
 13  6  1  0
 14 15  2  0
 14 12  1  0
 17 16  1  6
 17 18  1  0
 20 19  1  1
 19 17  1  0
 20 21  1  0
 21 14  1  0
 22 23  1  0
 22 20  1  0
 24 22  2  0
M  END
$$$$
