PML.pdb
     RDKit          3D

 24 24  0  0  1  0  0  0  0  0999 V2000
   27.8081  -19.5653  -18.0710 N   0  0  0  0  0  0  0  0  0  0  0  0
   29.1372  -19.4981  -18.7011 C   0  0  0  0  0  0  0  0  0  0  0  0
   29.4921  -18.0209  -18.6983 C   0  0  0  0  0  0  0  0  0  0  0  0
   28.4361  -17.3826  -17.8070 C   0  0  0  0  0  0  0  0  0  0  0  0
   27.9874  -18.6010  -16.9980 C   0  0  1  0  0  0  0  0  0  0  0  0
   26.7629  -18.3588  -16.2382 C   0  0  0  0  0  0  0  0  0  0  0  0
   26.7822  -17.5143  -15.3085 O   0  0  0  0  0  0  0  0  0  0  0  0
   21.0241  -17.7978  -18.8324 C   0  0  0  0  0  0  0  0  0  0  0  0
   22.1761  -16.5033  -18.3521 S   0  0  0  0  0  0  0  0  0  0  0  0
   23.4816  -17.0903  -17.2847 C   0  0  0  0  0  0  0  0  0  0  0  0
   23.2242  -18.3628  -16.5585 C   0  0  0  0  0  0  0  0  0  0  0  0
   24.3511  -18.7934  -15.6651 C   0  0  2  0  0  0  0  0  0  0  0  0
   25.5289  -19.0270  -16.4847 N   0  0  0  0  0  0  0  0  0  0  0  0
   23.9830  -19.9089  -14.7993 C   0  0  0  0  0  0  0  0  0  0  0  0
   23.8582  -21.0999  -15.2538 O   0  0  0  0  0  0  0  0  0  0  0  0
   26.1068  -20.4656   -9.8038 C   0  0  0  0  0  0  0  0  0  0  0  0
   25.4862  -20.7768  -11.1456 C   0  0  1  0  0  0  0  0  0  0  0  0
   26.0944  -22.0167  -11.7699 C   0  0  0  0  0  0  0  0  0  0  0  0
   24.0168  -20.7313  -11.2024 C   0  0  0  0  0  0  0  0  0  0  0  0
   23.3486  -20.8639  -12.5407 C   0  0  2  0  0  0  0  0  0  0  0  0
   23.7447  -19.7722  -13.4071 N   0  0  0  0  0  0  0  0  0  0  0  0
   21.9054  -20.9514  -12.4996 C   0  0  0  0  0  0  0  0  0  0  0  0
   21.2384  -22.1130  -12.1309 O   0  0  0  0  0  0  0  0  0  0  0  0
   21.1728  -19.9800  -12.7956 O   0  0  0  0  0  0  0  0  0  0  0  0
  1  2  1  0
  3  2  1  0
  4  5  1  0
  4  3  1  0
  5  1  1  0
  5  6  1  6
  7  6  2  0
  8  9  1  0
  9 10  1  0
 10 11  1  0
 12 11  1  6
 12 13  1  0
 13  6  1  0
 14 15  2  0
 14 12  1  0
 17 16  1  1
 17 18  1  0
 20 19  1  1
 19 17  1  0
 20 21  1  0
 21 14  1  0
 22 23  1  0
 22 20  1  0
 24 22  2  0
M  END
$$$$
