PML.pdb
     RDKit          3D

 24 24  0  0  1  0  0  0  0  0999 V2000
   26.6449  -17.7562  -15.3562 N   0  0  0  0  0  0  0  0  0  0  0  0
   27.3574  -16.9611  -16.3702 C   0  0  0  0  0  0  0  0  0  0  0  0
   28.7783  -17.4987  -16.3546 C   0  0  0  0  0  0  0  0  0  0  0  0
   28.6929  -18.7616  -15.5093 C   0  0  0  0  0  0  0  0  0  0  0  0
   27.1997  -19.0718  -15.6300 C   0  0  1  0  0  0  0  0  0  0  0  0
   26.7521  -20.0886  -14.6807 C   0  0  0  0  0  0  0  0  0  0  0  0
   27.0162  -21.2944  -14.9131 O   0  0  0  0  0  0  0  0  0  0  0  0
   26.4374  -19.2068   -8.1518 C   0  0  0  0  0  0  0  0  0  0  0  0
   26.4812  -20.9774   -8.4622 S   0  0  0  0  0  0  0  0  0  0  0  0
   25.9274  -21.4132  -10.1029 C   0  0  0  0  0  0  0  0  0  0  0  0
   26.1704  -20.4102  -11.1742 C   0  0  0  0  0  0  0  0  0  0  0  0
   25.6814  -20.8345  -12.5287 C   0  0  2  0  0  0  0  0  0  0  0  0
   26.0245  -19.7995  -13.4904 N   0  0  0  0  0  0  0  0  0  0  0  0
   24.2722  -21.2129  -12.5208 C   0  0  0  0  0  0  0  0  0  0  0  0
   23.8432  -22.1930  -11.8165 O   0  0  0  0  0  0  0  0  0  0  0  0
   20.3495  -18.4340  -10.7928 C   0  0  0  0  0  0  0  0  0  0  0  0
   21.0994  -19.6433  -11.3007 C   0  0  1  0  0  0  0  0  0  0  0  0
   20.8525  -20.8607  -10.4324 C   0  0  0  0  0  0  0  0  0  0  0  0
   21.0014  -19.9027  -12.7456 C   0  0  0  0  0  0  0  0  0  0  0  0
   21.8913  -20.9532  -13.3453 C   0  0  2  0  0  0  0  0  0  0  0  0
   23.2767  -20.5354  -13.2718 N   0  0  0  0  0  0  0  0  0  0  0  0
   21.5688  -21.3268  -14.7049 C   0  0  0  0  0  0  0  0  0  0  0  0
   20.3456  -21.8844  -15.0555 O   0  0  0  0  0  0  0  0  0  0  0  0
   22.3785  -21.1676  -15.6469 O   0  0  0  0  0  0  0  0  0  0  0  0
  1  2  1  0
  3  2  1  0
  4  5  1  0
  4  3  1  0
  5  1  1  0
  5  6  1  1
  7  6  2  0
  8  9  1  0
  9 10  1  0
 10 11  1  0
 12 11  1  1
 12 13  1  0
 13  6  1  0
 14 15  2  0
 14 12  1  0
 17 16  1  1
 17 18  1  0
 20 19  1  6
 19 17  1  0
 20 21  1  0
 21 14  1  0
 22 23  1  0
 22 20  1  0
 24 22  2  0
M  END
$$$$
