PML.pdb
     RDKit          3D

 24 24  0  0  1  0  0  0  0  0999 V2000
   28.2283  -21.0314  -16.1751 N   0  0  0  0  0  0  0  0  0  0  0  0
   28.9773  -20.0574  -16.9865 C   0  0  0  0  0  0  0  0  0  0  0  0
   28.2412  -18.7431  -16.7897 C   0  0  0  0  0  0  0  0  0  0  0  0
   27.2739  -19.0215  -15.6479 C   0  0  0  0  0  0  0  0  0  0  0  0
   27.9583  -20.2246  -14.9962 C   0  0  1  0  0  0  0  0  0  0  0  0
   27.1064  -20.9043  -14.0227 C   0  0  0  0  0  0  0  0  0  0  0  0
   26.4449  -21.9069  -14.3902 O   0  0  0  0  0  0  0  0  0  0  0  0
   27.0536  -20.4752   -7.2837 C   0  0  0  0  0  0  0  0  0  0  0  0
   25.3181  -20.5255   -7.7513 S   0  0  0  0  0  0  0  0  0  0  0  0
   25.0682  -20.9637   -9.4641 C   0  0  0  0  0  0  0  0  0  0  0  0
   26.1064  -20.5045  -10.4255 C   0  0  0  0  0  0  0  0  0  0  0  0
   25.8408  -20.9064  -11.8474 C   0  0  2  0  0  0  0  0  0  0  0  0
   26.9733  -20.4996  -12.6632 N   0  0  0  0  0  0  0  0  0  0  0  0
   24.5459  -20.4360  -12.3285 C   0  0  0  0  0  0  0  0  0  0  0  0
   24.3477  -19.2078  -12.6332 O   0  0  0  0  0  0  0  0  0  0  0  0
   21.8863  -22.9280  -16.2905 C   0  0  0  0  0  0  0  0  0  0  0  0
   22.3586  -21.8645  -15.3269 C   0  0  1  0  0  0  0  0  0  0  0  0
   22.5573  -20.5306  -16.0185 C   0  0  0  0  0  0  0  0  0  0  0  0
   21.6298  -21.7804  -14.0516 C   0  0  0  0  0  0  0  0  0  0  0  0
   22.1365  -20.8362  -12.9995 C   0  0  2  0  0  0  0  0  0  0  0  0
   23.4219  -21.2844  -12.5035 N   0  0  0  0  0  0  0  0  0  0  0  0
   21.2373  -20.6169  -11.8880 C   0  0  0  0  0  0  0  0  0  0  0  0
   20.1079  -19.8140  -11.9889 O   0  0  0  0  0  0  0  0  0  0  0  0
   21.4276  -21.1412  -10.7669 O   0  0  0  0  0  0  0  0  0  0  0  0
  1  2  1  0
  3  2  1  0
  4  5  1  0
  4  3  1  0
  5  1  1  0
  5  6  1  1
  7  6  2  0
  8  9  1  0
  9 10  1  0
 10 11  1  0
 12 11  1  1
 12 13  1  0
 13  6  1  0
 14 15  2  0
 14 12  1  0
 17 16  1  6
 17 18  1  0
 20 19  1  6
 19 17  1  0
 20 21  1  0
 21 14  1  0
 22 23  1  0
 22 20  1  0
 24 22  2  0
M  END
$$$$
