PML.pdb
     RDKit          3D

 24 24  0  0  1  0  0  0  0  0999 V2000
   26.6803  -19.8007  -14.8952 N   0  0  0  0  0  0  0  0  0  0  0  0
   27.5055  -20.4842  -15.9052 C   0  0  0  0  0  0  0  0  0  0  0  0
   28.8421  -20.7146  -15.2209 C   0  0  0  0  0  0  0  0  0  0  0  0
   28.5787  -20.3797  -13.7596 C   0  0  0  0  0  0  0  0  0  0  0  0
   27.0592  -20.5507  -13.7088 C   0  0  1  0  0  0  0  0  0  0  0  0
   26.4681  -20.0171  -12.4836 C   0  0  0  0  0  0  0  0  0  0  0  0
   26.4362  -18.7725  -12.3170 O   0  0  0  0  0  0  0  0  0  0  0  0
   20.7245  -20.2097   -9.3514 C   0  0  0  0  0  0  0  0  0  0  0  0
   21.3674  -20.3127  -11.0276 S   0  0  0  0  0  0  0  0  0  0  0  0
   23.1182  -19.9764  -11.1265 C   0  0  0  0  0  0  0  0  0  0  0  0
   23.9711  -20.5780  -10.0665 C   0  0  0  0  0  0  0  0  0  0  0  0
   25.4310  -20.2560  -10.2030 C   0  0  2  0  0  0  0  0  0  0  0  0
   25.9169  -20.8266  -11.4488 N   0  0  0  0  0  0  0  0  0  0  0  0
   26.1996  -20.6341   -9.0216 C   0  0  0  0  0  0  0  0  0  0  0  0
   26.4643  -21.8588   -8.7554 O   0  0  0  0  0  0  0  0  0  0  0  0
   28.4411  -18.5827   -3.9427 C   0  0  0  0  0  0  0  0  0  0  0  0
   29.0999  -19.0356   -5.2246 C   0  0  1  0  0  0  0  0  0  0  0  0
   29.7513  -20.3953   -5.0694 C   0  0  0  0  0  0  0  0  0  0  0  0
   28.2980  -18.8868   -6.4491 C   0  0  0  0  0  0  0  0  0  0  0  0
   27.4759  -20.0553   -6.9117 C   0  0  2  0  0  0  0  0  0  0  0  0
   26.7149  -19.6950   -8.0908 N   0  0  0  0  0  0  0  0  0  0  0  0
   26.5898  -20.6147   -5.9147 C   0  0  0  0  0  0  0  0  0  0  0  0
   26.9781  -21.6410   -5.0626 O   0  0  0  0  0  0  0  0  0  0  0  0
   25.4169  -20.2029   -5.7631 O   0  0  0  0  0  0  0  0  0  0  0  0
  1  2  1  0
  3  2  1  0
  4  5  1  0
  4  3  1  0
  5  1  1  0
  5  6  1  1
  7  6  2  0
  8  9  1  0
  9 10  1  0
 10 11  1  0
 12 11  1  1
 12 13  1  0
 13  6  1  0
 14 15  2  0
 14 12  1  0
 17 16  1  1
 17 18  1  0
 20 19  1  1
 19 17  1  0
 20 21  1  0
 21 14  1  0
 22 23  1  0
 22 20  1  0
 24 22  2  0
M  END
$$$$
