FLR.pdb
     RDKit          3D

 31 31  0  0  1  0  0  0  0  0999 V2000
    5.8612  -20.3559   25.0306 N   0  0  0  0  0  0  0  0  0  0  0  0
    6.4522  -19.3508   25.8534 C   0  0  1  0  0  0  0  0  0  0  0  0
    7.8479  -19.7899   26.2342 C   0  0  0  0  0  0  0  0  0  0  0  0
    7.7822  -20.6226   27.4619 C   0  0  0  0  0  0  0  0  0  0  0  0
    6.5789  -20.8260   28.0985 C   0  0  0  0  0  0  0  0  0  0  0  0
    6.5328  -21.6001   29.2366 C   0  0  0  0  0  0  0  0  0  0  0  0
    7.6956  -22.1682   29.7327 C   0  0  0  0  0  0  0  0  0  0  0  0
    8.8909  -21.9479   29.0738 C   0  0  0  0  0  0  0  0  0  0  0  0
    8.9629  -21.1734   27.9279 C   0  0  0  0  0  0  0  0  0  0  0  0
    6.5278  -18.0215   25.1885 C   0  0  0  0  0  0  0  0  0  0  0  0
    6.6654  -17.9966   23.9404 O   0  0  0  0  0  0  0  0  0  0  0  0
    8.0052  -12.8317   24.9043 C   0  0  0  0  0  0  0  0  0  0  0  0
    6.6256  -13.0311   25.5591 C   0  0  2  0  0  0  0  0  0  0  0  0
    6.5661  -11.9270   26.6205 C   0  0  0  0  0  0  0  0  0  0  0  0
    6.6128  -14.3603   26.2441 C   0  0  0  0  0  0  0  0  0  0  0  0
    6.9028  -15.5445   25.4100 C   0  0  2  0  0  0  0  0  0  0  0  0
    6.4495  -16.8108   25.9239 N   0  0  0  0  0  0  0  0  0  0  0  0
    8.3556  -15.5763   25.0808 C   0  0  0  0  0  0  0  0  0  0  0  0
    9.2088  -15.9938   25.8992 O   0  0  0  0  0  0  0  0  0  0  0  0
    8.2442  -14.0574   16.7003 N   0  0  0  0  0  0  0  0  0  0  0  0
    8.8271  -13.1853   17.6590 C   0  0  0  0  0  0  0  0  0  0  0  0
    8.4998  -11.9401   17.6911 N   0  0  0  0  0  0  0  0  0  0  0  0
    9.7725  -13.6125   18.6147 N   0  0  0  0  0  0  0  0  0  0  0  0
    9.6034  -14.8778   19.3208 C   0  0  0  0  0  0  0  0  0  0  0  0
    9.1956  -14.6937   20.7256 C   0  0  0  0  0  0  0  0  0  0  0  0
    8.9161  -15.8074   21.6105 C   0  0  0  0  0  0  0  0  0  0  0  0
    9.5724  -16.0552   22.9001 C   0  0  2  0  0  0  0  0  0  0  0  0
    8.7943  -15.1326   23.8303 N   0  0  0  0  0  0  0  0  0  0  0  0
   10.9439  -15.6296   23.1155 C   0  0  0  0  0  0  0  0  0  0  0  0
   11.2428  -14.5503   23.6466 O   0  0  0  0  0  0  0  0  0  0  0  0
   12.0548  -16.4155   22.7359 O   0  0  0  0  0  0  0  0  0  0  0  0
  2  1  1  6
  3  2  1  0
  4  3  1  0
  4  5  2  0
  6  5  1  0
  7  6  2  0
  8  9  2  0
  8  7  1  0
  9  4  1  0
 10  2  1  0
 11 10  2  0
 13 12  1  1
 13 14  1  0
 15 13  1  0
 16 15  1  1
 16 17  1  0
 17 10  1  0
 18 16  1  0
 19 18  2  0
 20 21  1  0
 21 23  1  0
 21 22  2  0
 23 24  1  0
 25 24  1  0
 26 25  1  0
 27 26  1  6
 27 28  1  0
 28 18  1  0
 29 31  1  0
 29 27  1  0
 30 29  2  0
M  END
$$$$
