FLR.pdb
     RDKit          3D

 31 31  0  0  1  0  0  0  0  0999 V2000
    9.3795  -16.0689   21.7462 N   0  0  0  0  0  0  0  0  0  0  0  0
    9.0749  -15.4430   22.9919 C   0  0  1  0  0  0  0  0  0  0  0  0
    7.5728  -15.3726   23.1488 C   0  0  0  0  0  0  0  0  0  0  0  0
    7.2298  -14.2894   24.1048 C   0  0  0  0  0  0  0  0  0  0  0  0
    7.7056  -13.0131   23.9067 C   0  0  0  0  0  0  0  0  0  0  0  0
    7.3800  -12.0183   24.8017 C   0  0  0  0  0  0  0  0  0  0  0  0
    6.5772  -12.3077   25.8938 C   0  0  0  0  0  0  0  0  0  0  0  0
    6.1127  -13.5981   26.0690 C   0  0  0  0  0  0  0  0  0  0  0  0
    6.4263  -14.6154   25.1830 C   0  0  0  0  0  0  0  0  0  0  0  0
    9.6502  -16.1603   24.1622 C   0  0  0  0  0  0  0  0  0  0  0  0
   10.1263  -17.3067   23.9718 O   0  0  0  0  0  0  0  0  0  0  0  0
   11.5551  -13.3350   27.2253 C   0  0  0  0  0  0  0  0  0  0  0  0
   10.2180  -13.9101   27.7284 C   0  0  2  0  0  0  0  0  0  0  0  0
   10.0808  -13.3257   29.1387 C   0  0  0  0  0  0  0  0  0  0  0  0
   10.3493  -15.3961   27.8325 C   0  0  0  0  0  0  0  0  0  0  0  0
   10.3936  -16.1532   26.5648 C   0  0  2  0  0  0  0  0  0  0  0  0
    9.6689  -15.5841   25.4586 N   0  0  0  0  0  0  0  0  0  0  0  0
    9.9889  -17.5652   26.8153 C   0  0  0  0  0  0  0  0  0  0  0  0
    8.8218  -17.8659   27.1609 O   0  0  0  0  0  0  0  0  0  0  0  0
   13.1861  -18.6171   22.4357 N   0  0  0  0  0  0  0  0  0  0  0  0
   12.1028  -19.1309   21.6730 C   0  0  0  0  0  0  0  0  0  0  0  0
   11.6661  -18.4878   20.6461 N   0  0  0  0  0  0  0  0  0  0  0  0
   11.4542  -20.3459   21.9773 N   0  0  0  0  0  0  0  0  0  0  0  0
   11.6702  -21.0089   23.2587 C   0  0  0  0  0  0  0  0  0  0  0  0
   10.9445  -20.3571   24.3644 C   0  0  0  0  0  0  0  0  0  0  0  0
   11.1490  -20.7180   25.7534 C   0  0  0  0  0  0  0  0  0  0  0  0
   10.5366  -20.0466   26.9063 C   0  0  2  0  0  0  0  0  0  0  0  0
   10.9240  -18.5928   26.6648 N   0  0  0  0  0  0  0  0  0  0  0  0
   11.0444  -20.2856   28.2455 C   0  0  0  0  0  0  0  0  0  0  0  0
   10.6917  -21.2483   28.9420 O   0  0  0  0  0  0  0  0  0  0  0  0
   11.9872  -19.4362   28.8665 O   0  0  0  0  0  0  0  0  0  0  0  0
  2  1  1  6
  3  2  1  0
  4  3  1  0
  4  5  2  0
  6  5  1  0
  7  6  2  0
  8  9  2  0
  8  7  1  0
  9  4  1  0
 10  2  1  0
 11 10  2  0
 13 12  1  1
 13 14  1  0
 15 13  1  0
 16 15  1  1
 16 17  1  0
 17 10  1  0
 18 16  1  0
 19 18  2  0
 20 21  1  0
 21 23  1  0
 21 22  2  0
 23 24  1  0
 25 24  1  0
 26 25  1  0
 27 26  1  6
 27 28  1  0
 28 18  1  0
 29 31  1  0
 29 27  1  0
 30 29  2  0
M  END
$$$$
