FLR.pdb
     RDKit          3D

 31 31  0  0  1  0  0  0  0  0999 V2000
   10.0697  -15.8904   20.4017 N   0  0  0  0  0  0  0  0  0  0  0  0
    8.8090  -16.0593   21.0487 C   0  0  1  0  0  0  0  0  0  0  0  0
    8.3983  -17.5108   20.9470 C   0  0  0  0  0  0  0  0  0  0  0  0
    7.0227  -17.6699   21.4830 C   0  0  0  0  0  0  0  0  0  0  0  0
    6.8268  -18.1261   22.7667 C   0  0  0  0  0  0  0  0  0  0  0  0
    5.5455  -18.2695   23.2506 C   0  0  0  0  0  0  0  0  0  0  0  0
    4.4635  -17.9542   22.4438 C   0  0  0  0  0  0  0  0  0  0  0  0
    4.6884  -17.4978   21.1582 C   0  0  0  0  0  0  0  0  0  0  0  0
    5.9673  -17.3455   20.6490 C   0  0  0  0  0  0  0  0  0  0  0  0
    8.8307  -15.6622   22.4829 C   0  0  0  0  0  0  0  0  0  0  0  0
    9.8603  -15.9296   23.1504 O   0  0  0  0  0  0  0  0  0  0  0  0
    5.3420  -12.2059   26.3627 C   0  0  0  0  0  0  0  0  0  0  0  0
    6.7021  -12.8829   26.1108 C   0  0  2  0  0  0  0  0  0  0  0  0
    7.6990  -11.7195   26.1563 C   0  0  0  0  0  0  0  0  0  0  0  0
    6.6969  -13.4602   24.7313 C   0  0  0  0  0  0  0  0  0  0  0  0
    7.8156  -14.3582   24.3788 C   0  0  2  0  0  0  0  0  0  0  0  0
    7.7332  -15.0028   23.0941 N   0  0  0  0  0  0  0  0  0  0  0  0
    8.0233  -15.3465   25.4744 C   0  0  0  0  0  0  0  0  0  0  0  0
    8.3898  -14.9941   26.6204 O   0  0  0  0  0  0  0  0  0  0  0  0
    6.9095  -22.9939   28.0499 N   0  0  0  0  0  0  0  0  0  0  0  0
    7.5257  -23.3246   26.8128 C   0  0  0  0  0  0  0  0  0  0  0  0
    8.3035  -24.3474   26.7252 N   0  0  0  0  0  0  0  0  0  0  0  0
    7.3297  -22.5798   25.6311 N   0  0  0  0  0  0  0  0  0  0  0  0
    6.5310  -21.3592   25.6397 C   0  0  0  0  0  0  0  0  0  0  0  0
    7.2212  -20.2338   26.2964 C   0  0  0  0  0  0  0  0  0  0  0  0
    7.2042  -18.8869   25.7605 C   0  0  0  0  0  0  0  0  0  0  0  0
    7.8551  -17.7205   26.3694 C   0  0  2  0  0  0  0  0  0  0  0  0
    7.8072  -16.7061   25.2335 N   0  0  0  0  0  0  0  0  0  0  0  0
    9.2703  -17.7594   26.6924 C   0  0  0  0  0  0  0  0  0  0  0  0
   10.1592  -17.4710   25.8780 O   0  0  0  0  0  0  0  0  0  0  0  0
    9.7516  -18.1306   27.9677 O   0  0  0  0  0  0  0  0  0  0  0  0
  2  1  1  1
  3  2  1  0
  4  3  1  0
  4  5  2  0
  6  5  1  0
  7  6  2  0
  8  9  2  0
  8  7  1  0
  9  4  1  0
 10  2  1  0
 11 10  2  0
 13 12  1  6
 13 14  1  0
 15 13  1  0
 16 15  1  1
 16 17  1  0
 17 10  1  0
 18 16  1  0
 19 18  2  0
 20 21  1  0
 21 23  1  0
 21 22  2  0
 23 24  1  0
 25 24  1  0
 26 25  1  0
 27 26  1  6
 27 28  1  0
 28 18  1  0
 29 31  1  0
 29 27  1  0
 30 29  2  0
M  END
$$$$
