FLR.pdb
     RDKit          3D

 31 31  0  0  1  0  0  0  0  0999 V2000
   11.3222  -16.2714   21.6133 N   0  0  0  0  0  0  0  0  0  0  0  0
   10.1733  -15.5294   22.0207 C   0  0  1  0  0  0  0  0  0  0  0  0
    8.9673  -16.0445   21.2683 C   0  0  0  0  0  0  0  0  0  0  0  0
    8.1111  -14.8983   20.8707 C   0  0  0  0  0  0  0  0  0  0  0  0
    6.7612  -14.9147   21.1395 C   0  0  0  0  0  0  0  0  0  0  0  0
    5.9790  -13.8450   20.7645 C   0  0  0  0  0  0  0  0  0  0  0  0
    6.5545  -12.7612   20.1203 C   0  0  0  0  0  0  0  0  0  0  0  0
    7.9128  -12.7702   19.8626 C   0  0  0  0  0  0  0  0  0  0  0  0
    8.7202  -13.8340   20.2297 C   0  0  0  0  0  0  0  0  0  0  0  0
    9.9069  -15.6208   23.4821 C   0  0  0  0  0  0  0  0  0  0  0  0
   10.7159  -16.2739   24.1864 O   0  0  0  0  0  0  0  0  0  0  0  0
    8.1720  -11.6893   25.8159 C   0  0  0  0  0  0  0  0  0  0  0  0
    7.1890  -12.7388   25.2646 C   0  0  2  0  0  0  0  0  0  0  0  0
    5.8180  -12.2214   25.7138 C   0  0  0  0  0  0  0  0  0  0  0  0
    7.4582  -14.0441   25.9429 C   0  0  0  0  0  0  0  0  0  0  0  0
    8.6499  -14.7950   25.4978 C   0  0  2  0  0  0  0  0  0  0  0  0
    8.7805  -14.9974   24.0784 N   0  0  0  0  0  0  0  0  0  0  0  0
    8.7330  -16.0822   26.2438 C   0  0  0  0  0  0  0  0  0  0  0  0
    8.5765  -16.1360   27.4866 O   0  0  0  0  0  0  0  0  0  0  0  0
   12.2112  -20.8615   20.9199 N   0  0  0  0  0  0  0  0  0  0  0  0
   11.5428  -21.8878   21.6405 C   0  0  0  0  0  0  0  0  0  0  0  0
   11.7953  -23.1267   21.3952 N   0  0  0  0  0  0  0  0  0  0  0  0
   10.5889  -21.6270   22.6462 N   0  0  0  0  0  0  0  0  0  0  0  0
   10.2072  -20.2589   22.9789 C   0  0  0  0  0  0  0  0  0  0  0  0
   10.2746  -19.9869   24.4265 C   0  0  0  0  0  0  0  0  0  0  0  0
    9.1221  -19.5614   25.1961 C   0  0  0  0  0  0  0  0  0  0  0  0
    9.1452  -18.5906   26.2971 C   0  0  2  0  0  0  0  0  0  0  0  0
    8.9911  -17.2696   25.5536 N   0  0  0  0  0  0  0  0  0  0  0  0
   10.3631  -18.3788   27.0588 C   0  0  0  0  0  0  0  0  0  0  0  0
   11.1239  -17.4192   26.8670 O   0  0  0  0  0  0  0  0  0  0  0  0
   10.7818  -19.2534   28.0863 O   0  0  0  0  0  0  0  0  0  0  0  0
  2  1  1  1
  3  2  1  0
  4  3  1  0
  4  5  2  0
  6  5  1  0
  7  6  2  0
  8  9  2  0
  8  7  1  0
  9  4  1  0
 10  2  1  0
 11 10  2  0
 13 12  1  1
 13 14  1  0
 15 13  1  0
 16 15  1  6
 16 17  1  0
 17 10  1  0
 18 16  1  0
 19 18  2  0
 20 21  1  0
 21 23  1  0
 21 22  2  0
 23 24  1  0
 25 24  1  0
 26 25  1  0
 27 26  1  6
 27 28  1  0
 28 18  1  0
 29 31  1  0
 29 27  1  0
 30 29  2  0
M  END
$$$$
