FLR.pdb
     RDKit          3D

 31 31  0  0  1  0  0  0  0  0999 V2000
    5.9839  -17.7068   25.2455 N   0  0  0  0  0  0  0  0  0  0  0  0
    6.4606  -16.3662   25.1347 C   0  0  1  0  0  0  0  0  0  0  0  0
    6.8215  -15.8607   26.5131 C   0  0  0  0  0  0  0  0  0  0  0  0
    6.7481  -14.3777   26.5263 C   0  0  0  0  0  0  0  0  0  0  0  0
    5.5454  -13.7408   26.3202 C   0  0  0  0  0  0  0  0  0  0  0  0
    5.4920  -12.3648   26.3344 C   0  0  0  0  0  0  0  0  0  0  0  0
    6.6471  -11.6314   26.5558 C   0  0  0  0  0  0  0  0  0  0  0  0
    7.8419  -12.2961   26.7601 C   0  0  0  0  0  0  0  0  0  0  0  0
    7.9211  -13.6788   26.7502 C   0  0  0  0  0  0  0  0  0  0  0  0
    7.6486  -16.2402   24.2471 C   0  0  0  0  0  0  0  0  0  0  0  0
    8.5056  -17.1577   24.2797 O   0  0  0  0  0  0  0  0  0  0  0  0
    7.1916  -14.3970   19.8214 C   0  0  0  0  0  0  0  0  0  0  0  0
    7.5493  -13.4400   20.9738 C   0  0  2  0  0  0  0  0  0  0  0  0
    7.7078  -12.0823   20.2805 C   0  0  0  0  0  0  0  0  0  0  0  0
    8.8715  -13.8506   21.5390 C   0  0  0  0  0  0  0  0  0  0  0  0
    8.8836  -15.0410   22.4135 C   0  0  2  0  0  0  0  0  0  0  0  0
    7.8249  -15.1269   23.3855 N   0  0  0  0  0  0  0  0  0  0  0  0
   10.2236  -15.1753   23.0510 C   0  0  0  0  0  0  0  0  0  0  0  0
   10.7067  -14.2682   23.7692 O   0  0  0  0  0  0  0  0  0  0  0  0
   12.9564  -20.2386   28.1724 N   0  0  0  0  0  0  0  0  0  0  0  0
   11.5867  -20.5116   27.9101 C   0  0  0  0  0  0  0  0  0  0  0  0
   10.8982  -21.2323   28.7257 N   0  0  0  0  0  0  0  0  0  0  0  0
   10.9075  -20.0229   26.7746 N   0  0  0  0  0  0  0  0  0  0  0  0
   11.6161  -19.7924   25.5205 C   0  0  0  0  0  0  0  0  0  0  0  0
   11.6626  -18.3664   25.1486 C   0  0  0  0  0  0  0  0  0  0  0  0
   12.3115  -17.8944   23.9412 C   0  0  0  0  0  0  0  0  0  0  0  0
   12.3504  -16.4995   23.4856 C   0  0  2  0  0  0  0  0  0  0  0  0
   10.9738  -16.3377   22.8528 N   0  0  0  0  0  0  0  0  0  0  0  0
   13.2376  -16.1085   22.4046 C   0  0  0  0  0  0  0  0  0  0  0  0
   14.3152  -15.5246   22.5902 O   0  0  0  0  0  0  0  0  0  0  0  0
   12.9437  -16.3638   21.0466 O   0  0  0  0  0  0  0  0  0  0  0  0
  2  1  1  1
  3  2  1  0
  4  3  1  0
  4  5  2  0
  6  5  1  0
  7  6  2  0
  8  9  2  0
  8  7  1  0
  9  4  1  0
 10  2  1  0
 11 10  2  0
 13 12  1  6
 13 14  1  0
 15 13  1  0
 16 15  1  1
 16 17  1  0
 17 10  1  0
 18 16  1  0
 19 18  2  0
 20 21  1  0
 21 23  1  0
 21 22  2  0
 23 24  1  0
 25 24  1  0
 26 25  1  0
 27 26  1  6
 27 28  1  0
 28 18  1  0
 29 31  1  0
 29 27  1  0
 30 29  2  0
M  END
$$$$
