FLR.pdb
     RDKit          3D

 31 31  0  0  1  0  0  0  0  0999 V2000
    7.2521  -18.9451   27.3938 N   0  0  0  0  0  0  0  0  0  0  0  0
    7.9183  -17.6833   27.4184 C   0  0  1  0  0  0  0  0  0  0  0  0
    9.3121  -17.8777   27.9712 C   0  0  0  0  0  0  0  0  0  0  0  0
    9.8115  -16.5861   28.5074 C   0  0  0  0  0  0  0  0  0  0  0  0
   10.3113  -15.6279   27.6549 C   0  0  0  0  0  0  0  0  0  0  0  0
   10.7716  -14.4348   28.1660 C   0  0  0  0  0  0  0  0  0  0  0  0
   10.7288  -14.2068   29.5324 C   0  0  0  0  0  0  0  0  0  0  0  0
   10.2217  -15.1860   30.3663 C   0  0  0  0  0  0  0  0  0  0  0  0
    9.7530  -16.3937   29.8763 C   0  0  0  0  0  0  0  0  0  0  0  0
    8.0147  -17.0473   26.0764 C   0  0  0  0  0  0  0  0  0  0  0  0
    8.0961  -17.8003   25.0745 O   0  0  0  0  0  0  0  0  0  0  0  0
    5.6694  -13.1276   25.5172 C   0  0  0  0  0  0  0  0  0  0  0  0
    7.1722  -12.8955   25.7610 C   0  0  2  0  0  0  0  0  0  0  0  0
    7.3211  -11.3723   25.6776 C   0  0  0  0  0  0  0  0  0  0  0  0
    7.9373  -13.5175   24.6367 C   0  0  0  0  0  0  0  0  0  0  0  0
    8.0311  -14.9916   24.6275 C   0  0  2  0  0  0  0  0  0  0  0  0
    8.0168  -15.6379   25.9140 N   0  0  0  0  0  0  0  0  0  0  0  0
    9.2108  -15.4092   23.8187 C   0  0  0  0  0  0  0  0  0  0  0  0
   10.3823  -15.2858   24.2481 O   0  0  0  0  0  0  0  0  0  0  0  0
    8.6189  -20.4397   22.4048 N   0  0  0  0  0  0  0  0  0  0  0  0
    7.6887  -20.9177   21.4426 C   0  0  0  0  0  0  0  0  0  0  0  0
    7.4412  -22.1778   21.3456 N   0  0  0  0  0  0  0  0  0  0  0  0
    6.9911  -20.0692   20.5577 N   0  0  0  0  0  0  0  0  0  0  0  0
    7.5084  -18.7462   20.2259 C   0  0  0  0  0  0  0  0  0  0  0  0
    8.8265  -18.4836   20.8321 C   0  0  0  0  0  0  0  0  0  0  0  0
    9.5259  -17.2246   20.6667 C   0  0  0  0  0  0  0  0  0  0  0  0
   10.2015  -16.4794   21.7359 C   0  0  2  0  0  0  0  0  0  0  0  0
    9.0225  -15.9550   22.5461 N   0  0  0  0  0  0  0  0  0  0  0  0
   10.9336  -15.2635   21.4289 C   0  0  0  0  0  0  0  0  0  0  0  0
   12.1710  -15.2125   21.3771 O   0  0  0  0  0  0  0  0  0  0  0  0
   10.2916  -14.0336   21.1621 O   0  0  0  0  0  0  0  0  0  0  0  0
  2  1  1  6
  3  2  1  0
  4  3  1  0
  4  5  2  0
  6  5  1  0
  7  6  2  0
  8  9  2  0
  8  7  1  0
  9  4  1  0
 10  2  1  0
 11 10  2  0
 13 12  1  6
 13 14  1  0
 15 13  1  0
 16 15  1  1
 16 17  1  0
 17 10  1  0
 18 16  1  0
 19 18  2  0
 20 21  1  0
 21 23  1  0
 21 22  2  0
 23 24  1  0
 25 24  1  0
 26 25  1  0
 27 26  1  6
 27 28  1  0
 28 18  1  0
 29 31  1  0
 29 27  1  0
 30 29  2  0
M  END
$$$$
