FLR.pdb
     RDKit          3D

 31 31  0  0  1  0  0  0  0  0999 V2000
    7.1690  -17.7193   26.1806 N   0  0  0  0  0  0  0  0  0  0  0  0
    7.6779  -16.5069   25.6260 C   0  0  1  0  0  0  0  0  0  0  0  0
    9.0952  -16.3048   26.1118 C   0  0  0  0  0  0  0  0  0  0  0  0
    9.1613  -15.0675   26.9302 C   0  0  0  0  0  0  0  0  0  0  0  0
    8.4757  -13.9398   26.5393 C   0  0  0  0  0  0  0  0  0  0  0  0
    8.5464  -12.7991   27.3076 C   0  0  0  0  0  0  0  0  0  0  0  0
    9.3058  -12.7936   28.4670 C   0  0  0  0  0  0  0  0  0  0  0  0
    9.9844  -13.9399   28.8368 C   0  0  0  0  0  0  0  0  0  0  0  0
    9.9291  -15.0991   28.0809 C   0  0  0  0  0  0  0  0  0  0  0  0
    7.6707  -16.4971   24.1378 C   0  0  0  0  0  0  0  0  0  0  0  0
    7.3636  -17.5610   23.5453 O   0  0  0  0  0  0  0  0  0  0  0  0
    9.2158  -13.9851   19.3809 C   0  0  0  0  0  0  0  0  0  0  0  0
    7.7564  -13.8768   19.8606 C   0  0  2  0  0  0  0  0  0  0  0  0
    7.3394  -12.4649   19.4342 C   0  0  0  0  0  0  0  0  0  0  0  0
    7.7403  -13.9545   21.3539 C   0  0  0  0  0  0  0  0  0  0  0  0
    7.9741  -15.2828   21.9563 C   0  0  2  0  0  0  0  0  0  0  0  0
    7.9980  -15.3334   23.3949 N   0  0  0  0  0  0  0  0  0  0  0  0
    9.2028  -15.8858   21.3673 C   0  0  0  0  0  0  0  0  0  0  0  0
    9.3335  -16.0421   20.1302 O   0  0  0  0  0  0  0  0  0  0  0  0
   16.1137  -15.4359   19.7226 N   0  0  0  0  0  0  0  0  0  0  0  0
   15.4927  -14.8001   18.6137 C   0  0  0  0  0  0  0  0  0  0  0  0
   16.2072  -14.2771   17.6785 N   0  0  0  0  0  0  0  0  0  0  0  0
   14.0933  -14.7052   18.4645 N   0  0  0  0  0  0  0  0  0  0  0  0
   13.2589  -14.1900   19.5444 C   0  0  0  0  0  0  0  0  0  0  0  0
   12.2350  -15.1568   19.9813 C   0  0  0  0  0  0  0  0  0  0  0  0
   12.3183  -15.8668   21.2425 C   0  0  0  0  0  0  0  0  0  0  0  0
   11.4725  -16.9993   21.6391 C   0  0  2  0  0  0  0  0  0  0  0  0
   10.2463  -16.2925   22.2033 N   0  0  0  0  0  0  0  0  0  0  0  0
   11.8708  -17.8581   22.7401 C   0  0  0  0  0  0  0  0  0  0  0  0
   11.5051  -17.6734   23.9100 O   0  0  0  0  0  0  0  0  0  0  0  0
   12.7114  -18.9802   22.5665 O   0  0  0  0  0  0  0  0  0  0  0  0
  2  1  1  6
  3  2  1  0
  4  3  1  0
  4  5  2  0
  6  5  1  0
  7  6  2  0
  8  9  2  0
  8  7  1  0
  9  4  1  0
 10  2  1  0
 11 10  2  0
 13 12  1  1
 13 14  1  0
 15 13  1  0
 16 15  1  1
 16 17  1  0
 17 10  1  0
 18 16  1  0
 19 18  2  0
 20 21  1  0
 21 23  1  0
 21 22  2  0
 23 24  1  0
 25 24  1  0
 26 25  1  0
 27 26  1  1
 27 28  1  0
 28 18  1  0
 29 31  1  0
 29 27  1  0
 30 29  2  0
M  END
$$$$
