FLR.pdb
     RDKit          3D

 31 31  0  0  1  0  0  0  0  0999 V2000
    5.5868  -17.8613   25.1282 N   0  0  0  0  0  0  0  0  0  0  0  0
    6.1934  -16.5710   25.0673 C   0  0  1  0  0  0  0  0  0  0  0  0
    6.6762  -16.1925   26.4492 C   0  0  0  0  0  0  0  0  0  0  0  0
    6.8688  -14.7216   26.5155 C   0  0  0  0  0  0  0  0  0  0  0  0
    8.1270  -14.1944   26.6982 C   0  0  0  0  0  0  0  0  0  0  0  0
    8.2909  -12.8283   26.7584 C   0  0  0  0  0  0  0  0  0  0  0  0
    7.1905  -11.9949   26.6350 C   0  0  0  0  0  0  0  0  0  0  0  0
    5.9378  -12.5506   26.4522 C   0  0  0  0  0  0  0  0  0  0  0  0
    5.7475  -13.9210   26.3884 C   0  0  0  0  0  0  0  0  0  0  0  0
    7.3401  -16.5087   24.1206 C   0  0  0  0  0  0  0  0  0  0  0  0
    8.0776  -17.5206   24.0246 O   0  0  0  0  0  0  0  0  0  0  0  0
    7.2338  -14.5345   19.6874 C   0  0  0  0  0  0  0  0  0  0  0  0
    7.4810  -13.6104   20.8943 C   0  0  2  0  0  0  0  0  0  0  0  0
    7.7092  -12.2356   20.2564 C   0  0  0  0  0  0  0  0  0  0  0  0
    8.7413  -14.0427   21.5732 C   0  0  0  0  0  0  0  0  0  0  0  0
    8.6753  -15.2780   22.3805 C   0  0  2  0  0  0  0  0  0  0  0  0
    7.6077  -15.3521   23.3435 N   0  0  0  0  0  0  0  0  0  0  0  0
   10.0009  -15.5292   23.0131 C   0  0  0  0  0  0  0  0  0  0  0  0
   10.4211  -14.8296   23.9649 O   0  0  0  0  0  0  0  0  0  0  0  0
   14.3501  -21.3023   22.3191 N   0  0  0  0  0  0  0  0  0  0  0  0
   13.3418  -22.1578   22.8396 C   0  0  0  0  0  0  0  0  0  0  0  0
   13.6485  -23.3197   23.3030 N   0  0  0  0  0  0  0  0  0  0  0  0
   11.9778  -21.8015   22.8864 N   0  0  0  0  0  0  0  0  0  0  0  0
   11.4995  -20.5853   22.2382 C   0  0  0  0  0  0  0  0  0  0  0  0
   11.6136  -19.3978   23.1047 C   0  0  0  0  0  0  0  0  0  0  0  0
   12.4091  -18.2408   22.7440 C   0  0  0  0  0  0  0  0  0  0  0  0
   12.1581  -16.8639   23.1868 C   0  0  2  0  0  0  0  0  0  0  0  0
   10.8084  -16.5690   22.5442 N   0  0  0  0  0  0  0  0  0  0  0  0
   12.9827  -15.7757   22.6922 C   0  0  0  0  0  0  0  0  0  0  0  0
   14.0234  -15.4049   23.2541 O   0  0  0  0  0  0  0  0  0  0  0  0
   12.6644  -15.0479   21.5239 O   0  0  0  0  0  0  0  0  0  0  0  0
  2  1  1  1
  3  2  1  0
  4  3  1  0
  4  5  2  0
  6  5  1  0
  7  6  2  0
  8  9  2  0
  8  7  1  0
  9  4  1  0
 10  2  1  0
 11 10  2  0
 13 12  1  6
 13 14  1  0
 15 13  1  0
 16 15  1  1
 16 17  1  0
 17 10  1  0
 18 16  1  0
 19 18  2  0
 20 21  1  0
 21 23  1  0
 21 22  2  0
 23 24  1  0
 25 24  1  0
 26 25  1  0
 27 26  1  6
 27 28  1  0
 28 18  1  0
 29 31  1  0
 29 27  1  0
 30 29  2  0
M  END
$$$$
