FLR.pdb
     RDKit          3D

 31 31  0  0  1  0  0  0  0  0999 V2000
    8.4420  -16.4360   25.9145 N   0  0  0  0  0  0  0  0  0  0  0  0
    7.1635  -16.6130   25.3058 C   0  0  1  0  0  0  0  0  0  0  0  0
    6.1205  -15.9144   26.1484 C   0  0  0  0  0  0  0  0  0  0  0  0
    6.4848  -14.4819   26.2915 C   0  0  0  0  0  0  0  0  0  0  0  0
    5.5514  -13.5009   26.0446 C   0  0  0  0  0  0  0  0  0  0  0  0
    5.9032  -12.1763   26.1806 C   0  0  0  0  0  0  0  0  0  0  0  0
    7.1919  -11.8402   26.5644 C   0  0  0  0  0  0  0  0  0  0  0  0
    8.1098  -12.8454   26.8063 C   0  0  0  0  0  0  0  0  0  0  0  0
    7.7801  -14.1843   26.6762 C   0  0  0  0  0  0  0  0  0  0  0  0
    7.0989  -16.0812   23.9173 C   0  0  0  0  0  0  0  0  0  0  0  0
    6.0530  -16.2937   23.2555 O   0  0  0  0  0  0  0  0  0  0  0  0
    7.9209  -11.7993   19.9291 C   0  0  0  0  0  0  0  0  0  0  0  0
    7.9581  -13.3291   20.1017 C   0  0  2  0  0  0  0  0  0  0  0  0
    6.6079  -13.7893   19.5409 C   0  0  0  0  0  0  0  0  0  0  0  0
    8.0052  -13.6411   21.5635 C   0  0  0  0  0  0  0  0  0  0  0  0
    8.2571  -15.0475   21.9386 C   0  0  2  0  0  0  0  0  0  0  0  0
    8.1743  -15.3559   23.3424 N   0  0  0  0  0  0  0  0  0  0  0  0
    9.5547  -15.4919   21.3565 C   0  0  0  0  0  0  0  0  0  0  0  0
   10.4352  -14.6718   21.0039 O   0  0  0  0  0  0  0  0  0  0  0  0
   12.3253  -20.4180   28.0587 N   0  0  0  0  0  0  0  0  0  0  0  0
   11.7160  -19.4083   27.2657 C   0  0  0  0  0  0  0  0  0  0  0  0
   10.4529  -19.1767   27.3635 N   0  0  0  0  0  0  0  0  0  0  0  0
   12.4327  -18.6123   26.3480 N   0  0  0  0  0  0  0  0  0  0  0  0
   11.7475  -17.6308   25.5141 C   0  0  0  0  0  0  0  0  0  0  0  0
   11.8178  -17.9580   24.0782 C   0  0  0  0  0  0  0  0  0  0  0  0
   11.1586  -17.1615   23.0620 C   0  0  0  0  0  0  0  0  0  0  0  0
   11.1433  -17.4591   21.6246 C   0  0  2  0  0  0  0  0  0  0  0  0
    9.8121  -16.8558   21.1936 N   0  0  0  0  0  0  0  0  0  0  0  0
   11.0268  -18.8312   21.1639 C   0  0  0  0  0  0  0  0  0  0  0  0
    9.9414  -19.4205   21.0581 O   0  0  0  0  0  0  0  0  0  0  0  0
   12.1468  -19.6099   20.7962 O   0  0  0  0  0  0  0  0  0  0  0  0
  2  1  1  1
  3  2  1  0
  4  3  1  0
  4  5  2  0
  6  5  1  0
  7  6  2  0
  8  9  2  0
  8  7  1  0
  9  4  1  0
 10  2  1  0
 11 10  2  0
 13 12  1  1
 13 14  1  0
 15 13  1  0
 16 15  1  1
 16 17  1  0
 17 10  1  0
 18 16  1  0
 19 18  2  0
 20 21  1  0
 21 23  1  0
 21 22  2  0
 23 24  1  0
 25 24  1  0
 26 25  1  0
 27 26  1  1
 27 28  1  0
 28 18  1  0
 29 31  1  0
 29 27  1  0
 30 29  2  0
M  END
$$$$
