FLR.pdb
     RDKit          3D

 31 31  0  0  1  0  0  0  0  0999 V2000
   10.5127  -16.5719   21.7539 N   0  0  0  0  0  0  0  0  0  0  0  0
    9.6028  -15.5719   22.2108 C   0  0  1  0  0  0  0  0  0  0  0  0
    8.3649  -15.6050   21.3435 C   0  0  0  0  0  0  0  0  0  0  0  0
    8.2842  -14.3486   20.5561 C   0  0  0  0  0  0  0  0  0  0  0  0
    9.3718  -13.9108   19.8350 C   0  0  0  0  0  0  0  0  0  0  0  0
    9.2830  -12.7434   19.1097 C   0  0  0  0  0  0  0  0  0  0  0  0
    8.1018  -12.0183   19.1104 C   0  0  0  0  0  0  0  0  0  0  0  0
    7.0245  -12.4806   19.8433 C   0  0  0  0  0  0  0  0  0  0  0  0
    7.0893  -13.6514   20.5805 C   0  0  0  0  0  0  0  0  0  0  0  0
    9.2020  -15.7527   23.6327 C   0  0  0  0  0  0  0  0  0  0  0  0
    9.9423  -16.4529   24.3667 O   0  0  0  0  0  0  0  0  0  0  0  0
    8.0150  -12.1674   26.5525 C   0  0  0  0  0  0  0  0  0  0  0  0
    6.9253  -12.7381   25.6259 C   0  0  2  0  0  0  0  0  0  0  0  0
    5.6792  -11.9224   25.9879 C   0  0  0  0  0  0  0  0  0  0  0  0
    6.6898  -14.1682   25.9942 C   0  0  0  0  0  0  0  0  0  0  0  0
    7.7110  -15.1454   25.5649 C   0  0  2  0  0  0  0  0  0  0  0  0
    8.0250  -15.1614   24.1599 N   0  0  0  0  0  0  0  0  0  0  0  0
    7.3387  -16.5015   26.0576 C   0  0  0  0  0  0  0  0  0  0  0  0
    6.9526  -16.6928   27.2350 O   0  0  0  0  0  0  0  0  0  0  0  0
    3.9214  -20.6362   19.9766 N   0  0  0  0  0  0  0  0  0  0  0  0
    3.7386  -19.5660   20.8936 C   0  0  0  0  0  0  0  0  0  0  0  0
    2.5732  -19.3196   21.3833 N   0  0  0  0  0  0  0  0  0  0  0  0
    4.7905  -18.7288   21.3200 N   0  0  0  0  0  0  0  0  0  0  0  0
    5.9249  -19.2705   22.0602 C   0  0  0  0  0  0  0  0  0  0  0  0
    5.7330  -19.2054   23.5206 C   0  0  0  0  0  0  0  0  0  0  0  0
    6.7233  -19.6912   24.4613 C   0  0  0  0  0  0  0  0  0  0  0  0
    7.1306  -19.0097   25.6961 C   0  0  2  0  0  0  0  0  0  0  0  0
    7.4165  -17.5990   25.1960 N   0  0  0  0  0  0  0  0  0  0  0  0
    8.3768  -19.3665   26.3504 C   0  0  0  0  0  0  0  0  0  0  0  0
    8.4724  -20.2958   27.1650 O   0  0  0  0  0  0  0  0  0  0  0  0
    9.5881  -18.6802   26.1100 O   0  0  0  0  0  0  0  0  0  0  0  0
  2  1  1  6
  3  2  1  0
  4  3  1  0
  4  5  2  0
  6  5  1  0
  7  6  2  0
  8  9  2  0
  8  7  1  0
  9  4  1  0
 10  2  1  0
 11 10  2  0
 13 12  1  1
 13 14  1  0
 15 13  1  0
 16 15  1  6
 16 17  1  0
 17 10  1  0
 18 16  1  0
 19 18  2  0
 20 21  1  0
 21 23  1  0
 21 22  2  0
 23 24  1  0
 25 24  1  0
 26 25  1  0
 27 26  1  6
 27 28  1  0
 28 18  1  0
 29 31  1  0
 29 27  1  0
 30 29  2  0
M  END
$$$$
