FLR.pdb
     RDKit          3D

 31 31  0  0  1  0  0  0  0  0999 V2000
   10.7695  -16.7938   21.4446 N   0  0  0  0  0  0  0  0  0  0  0  0
    9.9169  -15.7817   21.9787 C   0  0  1  0  0  0  0  0  0  0  0  0
    8.5362  -15.9425   21.3842 C   0  0  0  0  0  0  0  0  0  0  0  0
    8.0367  -14.6169   20.9387 C   0  0  0  0  0  0  0  0  0  0  0  0
    7.1496  -13.9116   21.7198 C   0  0  0  0  0  0  0  0  0  0  0  0
    6.6941  -12.6836   21.2940 C   0  0  0  0  0  0  0  0  0  0  0  0
    7.1309  -12.1668   20.0845 C   0  0  0  0  0  0  0  0  0  0  0  0
    8.0223  -12.8959   19.3195 C   0  0  0  0  0  0  0  0  0  0  0  0
    8.4945  -14.1328   19.7260 C   0  0  0  0  0  0  0  0  0  0  0  0
    9.8129  -15.8287   23.4626 C   0  0  0  0  0  0  0  0  0  0  0  0
   10.7668  -16.3373   24.1020 O   0  0  0  0  0  0  0  0  0  0  0  0
    8.1605  -12.0014   26.0256 C   0  0  0  0  0  0  0  0  0  0  0  0
    7.1200  -13.0217   25.5276 C   0  0  2  0  0  0  0  0  0  0  0  0
    5.8108  -12.5439   26.1656 C   0  0  0  0  0  0  0  0  0  0  0  0
    7.4669  -14.3649   26.0860 C   0  0  0  0  0  0  0  0  0  0  0  0
    8.6838  -15.0142   25.5571 C   0  0  2  0  0  0  0  0  0  0  0  0
    8.6806  -15.3211   24.1505 N   0  0  0  0  0  0  0  0  0  0  0  0
    9.0024  -16.2159   26.3784 C   0  0  0  0  0  0  0  0  0  0  0  0
    8.9366  -16.1960   27.6303 O   0  0  0  0  0  0  0  0  0  0  0  0
    8.6288  -23.5702   24.2321 N   0  0  0  0  0  0  0  0  0  0  0  0
    7.7283  -22.9157   23.3488 C   0  0  0  0  0  0  0  0  0  0  0  0
    6.7480  -23.5627   22.8206 N   0  0  0  0  0  0  0  0  0  0  0  0
    7.8414  -21.5526   23.0040 N   0  0  0  0  0  0  0  0  0  0  0  0
    8.9922  -20.7654   23.4330 C   0  0  0  0  0  0  0  0  0  0  0  0
    8.9183  -20.3800   24.8542 C   0  0  0  0  0  0  0  0  0  0  0  0
    9.9729  -19.6402   25.5191 C   0  0  0  0  0  0  0  0  0  0  0  0
    9.7745  -18.6312   26.5667 C   0  0  2  0  0  0  0  0  0  0  0  0
    9.3858  -17.4043   25.7510 N   0  0  0  0  0  0  0  0  0  0  0  0
   10.9055  -18.1466   27.3379 C   0  0  0  0  0  0  0  0  0  0  0  0
   11.2128  -18.6019   28.4490 O   0  0  0  0  0  0  0  0  0  0  0  0
   11.7523  -17.1119   26.8817 O   0  0  0  0  0  0  0  0  0  0  0  0
  2  1  1  6
  3  2  1  0
  4  3  1  0
  4  5  2  0
  6  5  1  0
  7  6  2  0
  8  9  2  0
  8  7  1  0
  9  4  1  0
 10  2  1  0
 11 10  2  0
 13 12  1  1
 13 14  1  0
 15 13  1  0
 16 15  1  1
 16 17  1  0
 17 10  1  0
 18 16  1  0
 19 18  2  0
 20 21  1  0
 21 23  1  0
 21 22  2  0
 23 24  1  0
 25 24  1  0
 26 25  1  0
 27 26  1  6
 27 28  1  0
 28 18  1  0
 29 31  1  0
 29 27  1  0
 30 29  2  0
M  END
$$$$
