EDK.pdb
     RDKit          3D

 27 26  0  0  1  0  0  0  0  0999 V2000
   25.9566  -23.7162  -15.4020 N   0  0  0  0  0  0  0  0  0  0  0  0
   24.8341  -23.7188  -16.2727 C   0  0  1  0  0  0  0  0  0  0  0  0
   24.6473  -25.0484  -16.9358 C   0  0  0  0  0  0  0  0  0  0  0  0
   24.4000  -26.1511  -15.9941 C   0  0  0  0  0  0  0  0  0  0  0  0
   24.3495  -27.5069  -16.5544 C   0  0  0  0  0  0  0  0  0  0  0  0
   24.0990  -28.5200  -15.8899 O   0  0  0  0  0  0  0  0  0  0  0  0
   23.5733  -23.3775  -15.5175 C   0  0  0  0  0  0  0  0  0  0  0  0
   23.6595  -23.3304  -14.2821 O   0  0  0  0  0  0  0  0  0  0  0  0
   24.5982  -27.6931  -17.9321 O   0  0  0  0  0  0  0  0  0  0  0  0
   22.4015  -23.1369  -16.2170 N   0  0  0  0  0  0  0  0  0  0  0  0
   21.1541  -22.6482  -15.7311 C   0  0  1  0  0  0  0  0  0  0  0  0
   20.3929  -21.8404  -16.7413 C   0  0  0  0  0  0  0  0  0  0  0  0
   19.1860  -21.2837  -16.0760 C   0  0  0  0  0  0  0  0  0  0  0  0
   19.2189  -20.6580  -14.9671 O   0  0  0  0  0  0  0  0  0  0  0  0
   20.4349  -23.6343  -14.9745 C   0  0  0  0  0  0  0  0  0  0  0  0
   20.4056  -24.8301  -15.4311 O   0  0  0  0  0  0  0  0  0  0  0  0
   17.9231  -21.4227  -16.6486 O   0  0  0  0  0  0  0  0  0  0  0  0
   19.7432  -23.4133  -13.7536 N   0  0  0  0  0  0  0  0  0  0  0  0
   19.0956  -24.5206  -13.0732 C   0  0  1  0  0  0  0  0  0  0  0  0
   18.7528  -24.1779  -11.6544 C   0  0  0  0  0  0  0  0  0  0  0  0
   18.0805  -25.2564  -10.8777 C   0  0  0  0  0  0  0  0  0  0  0  0
   19.1061  -26.1317  -10.2275 C   0  0  0  0  0  0  0  0  0  0  0  0
   18.3773  -27.2175   -9.4566 C   0  0  0  0  0  0  0  0  0  0  0  0
   19.3898  -28.0790   -8.8785 N   0  0  0  0  0  0  0  0  0  0  0  0
   17.9220  -24.9587  -13.8587 C   0  0  0  0  0  0  0  0  0  0  0  0
   17.2760  -24.1112  -14.5207 O   0  0  0  0  0  0  0  0  0  0  0  0
   17.4741  -26.2704  -13.9170 O   0  0  0  0  0  0  0  0  0  0  0  0
  2  7  1  0
  2  1  1  1
  3  2  1  0
  4  5  1  0
  4  3  1  0
  5  6  2  0
  7 10  1  0
  8  7  2  0
  9  5  1  0
 10 11  1  0
 11 12  1  6
 13 14  2  0
 13 12  1  0
 15 16  2  0
 15 11  1  0
 17 13  1  0
 18 15  1  0
 19 18  1  0
 20 21  1  0
 19 20  1  1
 21 22  1  0
 23 24  1  0
 23 22  1  0
 25 19  1  0
 25 27  1  0
 26 25  2  0
M  END
$$$$
