EDK.pdb
     RDKit          3D

 27 26  0  0  1  0  0  0  0  0999 V2000
   17.9835  -11.8776  -14.9777 N   0  0  0  0  0  0  0  0  0  0  0  0
   17.5050  -10.5400  -14.9879 C   0  0  1  0  0  0  0  0  0  0  0  0
   16.0279  -10.4793  -15.2268 C   0  0  0  0  0  0  0  0  0  0  0  0
   15.5959  -11.1752  -16.4487 C   0  0  0  0  0  0  0  0  0  0  0  0
   14.9417  -12.4781  -16.2771 C   0  0  0  0  0  0  0  0  0  0  0  0
   14.6180  -12.9492  -15.1799 O   0  0  0  0  0  0  0  0  0  0  0  0
   17.8081   -9.8558  -13.6778 C   0  0  0  0  0  0  0  0  0  0  0  0
   17.5486  -10.4898  -12.6451 O   0  0  0  0  0  0  0  0  0  0  0  0
   14.6536  -13.2602  -17.4172 O   0  0  0  0  0  0  0  0  0  0  0  0
   18.3497   -8.5802  -13.6821 N   0  0  0  0  0  0  0  0  0  0  0  0
   18.7157   -7.7603  -12.5755 C   0  0  1  0  0  0  0  0  0  0  0  0
   19.8512   -6.8250  -12.8728 C   0  0  0  0  0  0  0  0  0  0  0  0
   21.0555   -7.6402  -13.1793 C   0  0  0  0  0  0  0  0  0  0  0  0
   21.3983   -8.6687  -12.5109 O   0  0  0  0  0  0  0  0  0  0  0  0
   17.5745   -7.2368  -11.8786 C   0  0  0  0  0  0  0  0  0  0  0  0
   16.7022   -6.5955  -12.5621 O   0  0  0  0  0  0  0  0  0  0  0  0
   21.8930   -7.3103  -14.2433 O   0  0  0  0  0  0  0  0  0  0  0  0
   17.3126   -7.3605  -10.4880 N   0  0  0  0  0  0  0  0  0  0  0  0
   16.0890   -6.8164   -9.9264 C   0  0  1  0  0  0  0  0  0  0  0  0
   15.2566   -7.8782   -9.2727 C   0  0  0  0  0  0  0  0  0  0  0  0
   13.9743   -7.4118   -8.6754 C   0  0  0  0  0  0  0  0  0  0  0  0
   13.2315   -8.5729   -8.0917 C   0  0  0  0  0  0  0  0  0  0  0  0
   11.9158   -8.0584   -7.5363 C   0  0  0  0  0  0  0  0  0  0  0  0
   11.1688   -9.2133   -7.0780 N   0  0  0  0  0  0  0  0  0  0  0  0
   16.4228   -5.7032   -9.0123 C   0  0  0  0  0  0  0  0  0  0  0  0
   17.5507   -5.6772   -8.4637 O   0  0  0  0  0  0  0  0  0  0  0  0
   15.5576   -4.6613   -8.7113 O   0  0  0  0  0  0  0  0  0  0  0  0
  2  7  1  0
  2  1  1  1
  3  2  1  0
  4  5  1  0
  4  3  1  0
  5  6  2  0
  7 10  1  0
  8  7  2  0
  9  5  1  0
 10 11  1  0
 11 12  1  6
 13 14  2  0
 13 12  1  0
 15 16  2  0
 15 11  1  0
 17 13  1  0
 18 15  1  0
 19 18  1  0
 20 21  1  0
 19 20  1  1
 21 22  1  0
 23 24  1  0
 23 22  1  0
 25 19  1  0
 25 27  1  0
 26 25  2  0
M  END
$$$$
