EDK.pdb
     RDKit          3D

 27 26  0  0  1  0  0  0  0  0999 V2000
   22.5843  -13.2142  -17.7920 N   0  0  0  0  0  0  0  0  0  0  0  0
   21.2947  -12.6552  -17.5857 C   0  0  1  0  0  0  0  0  0  0  0  0
   20.3058  -13.6872  -17.1388 C   0  0  0  0  0  0  0  0  0  0  0  0
   20.2946  -14.8984  -17.9737 C   0  0  0  0  0  0  0  0  0  0  0  0
   18.9864  -15.5031  -18.2525 C   0  0  0  0  0  0  0  0  0  0  0  0
   18.1246  -15.7128  -17.3900 O   0  0  0  0  0  0  0  0  0  0  0  0
   21.3481  -11.5606  -16.5487 C   0  0  0  0  0  0  0  0  0  0  0  0
   22.1034  -11.7442  -15.5835 O   0  0  0  0  0  0  0  0  0  0  0  0
   18.6680  -15.8769  -19.5767 O   0  0  0  0  0  0  0  0  0  0  0  0
   20.5714  -10.4248  -16.7130 N   0  0  0  0  0  0  0  0  0  0  0  0
   20.5155   -9.2545  -15.9018 C   0  0  1  0  0  0  0  0  0  0  0  0
   21.8562   -8.8168  -15.3888 C   0  0  0  0  0  0  0  0  0  0  0  0
   21.6524   -7.6426  -14.5007 C   0  0  0  0  0  0  0  0  0  0  0  0
   22.0106   -6.4589  -14.8053 O   0  0  0  0  0  0  0  0  0  0  0  0
   19.6394   -8.2531  -16.4421 C   0  0  0  0  0  0  0  0  0  0  0  0
   19.9329   -7.7602  -17.5867 O   0  0  0  0  0  0  0  0  0  0  0  0
   21.0421   -7.7824  -13.2557 O   0  0  0  0  0  0  0  0  0  0  0  0
   18.4638   -7.7475  -15.8255 N   0  0  0  0  0  0  0  0  0  0  0  0
   17.5940   -6.8394  -16.5517 C   0  0  1  0  0  0  0  0  0  0  0  0
   16.1478   -7.0911  -16.2467 C   0  0  0  0  0  0  0  0  0  0  0  0
   15.1766   -6.2541  -17.0048 C   0  0  0  0  0  0  0  0  0  0  0  0
   13.7906   -6.4891  -16.4906 C   0  0  0  0  0  0  0  0  0  0  0  0
   12.8315   -5.6633  -17.3289 C   0  0  0  0  0  0  0  0  0  0  0  0
   11.4895   -6.0213  -16.9135 N   0  0  0  0  0  0  0  0  0  0  0  0
   18.0050   -5.4454  -16.2796 C   0  0  0  0  0  0  0  0  0  0  0  0
   18.5304   -5.1653  -15.1754 O   0  0  0  0  0  0  0  0  0  0  0  0
   17.8475   -4.4011  -17.1793 O   0  0  0  0  0  0  0  0  0  0  0  0
  2  7  1  0
  2  1  1  1
  3  2  1  0
  4  5  1  0
  4  3  1  0
  5  6  2  0
  7 10  1  0
  8  7  2  0
  9  5  1  0
 10 11  1  0
 11 12  1  6
 13 14  2  0
 13 12  1  0
 15 16  2  0
 15 11  1  0
 17 13  1  0
 18 15  1  0
 19 18  1  0
 20 21  1  0
 19 20  1  1
 21 22  1  0
 23 24  1  0
 23 22  1  0
 25 19  1  0
 25 27  1  0
 26 25  2  0
M  END
$$$$
