EDK.pdb
     RDKit          3D

 27 26  0  0  1  0  0  0  0  0999 V2000
   20.3333  -11.5081  -16.7622 N   0  0  0  0  0  0  0  0  0  0  0  0
   21.2433  -10.4906  -17.1554 C   0  0  1  0  0  0  0  0  0  0  0  0
   21.3362  -10.3725  -18.6454 C   0  0  0  0  0  0  0  0  0  0  0  0
   20.0410  -10.4954  -19.3317 C   0  0  0  0  0  0  0  0  0  0  0  0
   20.0610  -10.4816  -20.7995 C   0  0  0  0  0  0  0  0  0  0  0  0
   19.8374   -9.4754  -21.4838 O   0  0  0  0  0  0  0  0  0  0  0  0
   20.8243   -9.1547  -16.5930 C   0  0  0  0  0  0  0  0  0  0  0  0
   19.6065   -8.9325  -16.5340 O   0  0  0  0  0  0  0  0  0  0  0  0
   20.3501  -11.6756  -21.4961 O   0  0  0  0  0  0  0  0  0  0  0  0
   21.7919   -8.2545  -16.1764 N   0  0  0  0  0  0  0  0  0  0  0  0
   21.6232   -6.9945  -15.5323 C   0  0  1  0  0  0  0  0  0  0  0  0
   22.7402   -6.6486  -14.5915 C   0  0  0  0  0  0  0  0  0  0  0  0
   22.3542   -5.4238  -13.8433 C   0  0  0  0  0  0  0  0  0  0  0  0
   21.5381   -5.4240  -12.8654 O   0  0  0  0  0  0  0  0  0  0  0  0
   21.1577   -5.9760  -16.4312 C   0  0  0  0  0  0  0  0  0  0  0  0
   21.7656   -5.8467  -17.5505 O   0  0  0  0  0  0  0  0  0  0  0  0
   22.8806   -4.1793  -14.1843 O   0  0  0  0  0  0  0  0  0  0  0  0
   20.0755   -5.0853  -16.2001 N   0  0  0  0  0  0  0  0  0  0  0  0
   19.7231   -4.0931  -17.2000 C   0  0  1  0  0  0  0  0  0  0  0  0
   18.3117   -4.2611  -17.6773 C   0  0  0  0  0  0  0  0  0  0  0  0
   17.8754   -3.3114  -18.7384 C   0  0  0  0  0  0  0  0  0  0  0  0
   16.5048   -3.6760  -19.2170 C   0  0  0  0  0  0  0  0  0  0  0  0
   16.1565   -2.7680  -20.3825 C   0  0  0  0  0  0  0  0  0  0  0  0
   14.8918   -3.2323  -20.9182 N   0  0  0  0  0  0  0  0  0  0  0  0
   19.9921   -2.7415  -16.6643 C   0  0  0  0  0  0  0  0  0  0  0  0
   20.2055   -1.7969  -17.4618 O   0  0  0  0  0  0  0  0  0  0  0  0
   20.0260   -2.4365  -15.3114 O   0  0  0  0  0  0  0  0  0  0  0  0
  2  7  1  0
  2  1  1  6
  3  2  1  0
  4  5  1  0
  4  3  1  0
  5  6  2  0
  7 10  1  0
  8  7  2  0
  9  5  1  0
 10 11  1  0
 11 12  1  6
 13 14  2  0
 13 12  1  0
 15 16  2  0
 15 11  1  0
 17 13  1  0
 18 15  1  0
 19 18  1  0
 20 21  1  0
 19 20  1  1
 21 22  1  0
 23 24  1  0
 23 22  1  0
 25 19  1  0
 25 27  1  0
 26 25  2  0
M  END
$$$$
