EDK.pdb
     RDKit          3D

 27 26  0  0  1  0  0  0  0  0999 V2000
   18.8888  -11.1095  -15.1160 N   0  0  0  0  0  0  0  0  0  0  0  0
   19.1387   -9.9228  -15.8560 C   0  0  1  0  0  0  0  0  0  0  0  0
   17.9836   -9.5638  -16.7389 C   0  0  0  0  0  0  0  0  0  0  0  0
   17.5644  -10.6502  -17.6378 C   0  0  0  0  0  0  0  0  0  0  0  0
   16.4597  -10.3623  -18.5606 C   0  0  0  0  0  0  0  0  0  0  0  0
   15.8425   -9.2903  -18.5858 O   0  0  0  0  0  0  0  0  0  0  0  0
   19.4126   -8.7645  -14.9288 C   0  0  0  0  0  0  0  0  0  0  0  0
   18.7396   -8.7118  -13.8895 O   0  0  0  0  0  0  0  0  0  0  0  0
   16.0580  -11.3516  -19.4849 O   0  0  0  0  0  0  0  0  0  0  0  0
   20.3795   -7.8314  -15.2677 N   0  0  0  0  0  0  0  0  0  0  0  0
   20.7438   -6.6335  -14.5872 C   0  0  1  0  0  0  0  0  0  0  0  0
   22.2264   -6.4106  -14.5190 C   0  0  0  0  0  0  0  0  0  0  0  0
   22.4743   -5.1784  -13.7258 C   0  0  0  0  0  0  0  0  0  0  0  0
   22.8341   -4.0703  -14.2405 O   0  0  0  0  0  0  0  0  0  0  0  0
   19.9097   -5.5216  -14.9479 C   0  0  0  0  0  0  0  0  0  0  0  0
   20.3715   -4.3433  -14.7537 O   0  0  0  0  0  0  0  0  0  0  0  0
   22.3212   -5.1742  -12.3406 O   0  0  0  0  0  0  0  0  0  0  0  0
   18.6058   -5.5988  -15.5062 N   0  0  0  0  0  0  0  0  0  0  0  0
   17.8931   -4.3846  -15.8618 C   0  0  1  0  0  0  0  0  0  0  0  0
   16.9141   -4.6192  -16.9729 C   0  0  0  0  0  0  0  0  0  0  0  0
   16.1301   -3.4271  -17.4002 C   0  0  0  0  0  0  0  0  0  0  0  0
   15.1300   -3.8211  -18.4419 C   0  0  0  0  0  0  0  0  0  0  0  0
   14.3981   -2.5686  -18.8889 C   0  0  0  0  0  0  0  0  0  0  0  0
   13.3884   -2.9853  -19.8422 N   0  0  0  0  0  0  0  0  0  0  0  0
   17.2638   -3.8142  -14.6515 C   0  0  0  0  0  0  0  0  0  0  0  0
   16.7561   -4.5858  -13.8025 O   0  0  0  0  0  0  0  0  0  0  0  0
   17.1931   -2.4552  -14.3817 O   0  0  0  0  0  0  0  0  0  0  0  0
  2  7  1  0
  2  1  1  1
  3  2  1  0
  4  5  1  0
  4  3  1  0
  5  6  2  0
  7 10  1  0
  8  7  2  0
  9  5  1  0
 10 11  1  0
 11 12  1  6
 13 14  2  0
 13 12  1  0
 15 16  2  0
 15 11  1  0
 17 13  1  0
 18 15  1  0
 19 18  1  0
 20 21  1  0
 19 20  1  6
 21 22  1  0
 23 24  1  0
 23 22  1  0
 25 19  1  0
 25 27  1  0
 26 25  2  0
M  END
$$$$
