EDK.pdb
     RDKit          3D

 27 26  0  0  1  0  0  0  0  0999 V2000
   24.7452  -10.1588  -16.7479 N   0  0  0  0  0  0  0  0  0  0  0  0
   24.9701   -9.1343  -17.7060 C   0  0  1  0  0  0  0  0  0  0  0  0
   25.1670   -9.6925  -19.0817 C   0  0  0  0  0  0  0  0  0  0  0  0
   26.2835  -10.6452  -19.1806 C   0  0  0  0  0  0  0  0  0  0  0  0
   25.9704  -12.0629  -18.9642 C   0  0  0  0  0  0  0  0  0  0  0  0
   24.8701  -12.4760  -18.5776 O   0  0  0  0  0  0  0  0  0  0  0  0
   23.8083   -8.1723  -17.7400 C   0  0  0  0  0  0  0  0  0  0  0  0
   23.8684   -7.2554  -18.5716 O   0  0  0  0  0  0  0  0  0  0  0  0
   26.9677  -13.0336  -19.2046 O   0  0  0  0  0  0  0  0  0  0  0  0
   22.7493   -8.3481  -16.8636 N   0  0  0  0  0  0  0  0  0  0  0  0
   21.5511   -7.5859  -16.7443 C   0  0  1  0  0  0  0  0  0  0  0  0
   20.5527   -8.1841  -15.7967 C   0  0  0  0  0  0  0  0  0  0  0  0
   20.2025   -9.5422  -16.2882 C   0  0  0  0  0  0  0  0  0  0  0  0
   19.6431   -9.7620  -17.4111 O   0  0  0  0  0  0  0  0  0  0  0  0
   21.8039   -6.1751  -16.6569 C   0  0  0  0  0  0  0  0  0  0  0  0
   22.6355   -5.7731  -15.7703 O   0  0  0  0  0  0  0  0  0  0  0  0
   20.4763  -10.6745  -15.5232 O   0  0  0  0  0  0  0  0  0  0  0  0
   21.2158   -5.1668  -17.4664 N   0  0  0  0  0  0  0  0  0  0  0  0
   21.6090   -3.7788  -17.3005 C   0  0  1  0  0  0  0  0  0  0  0  0
   22.4648   -3.3035  -18.4361 C   0  0  0  0  0  0  0  0  0  0  0  0
   22.8726   -1.8721  -18.3774 C   0  0  0  0  0  0  0  0  0  0  0  0
   23.7841   -1.5542  -19.5214 C   0  0  0  0  0  0  0  0  0  0  0  0
   24.2165   -0.1051  -19.3896 C   0  0  0  0  0  0  0  0  0  0  0  0
   23.0206    0.7062  -19.5054 N   0  0  0  0  0  0  0  0  0  0  0  0
   20.4017   -2.9483  -17.1034 C   0  0  0  0  0  0  0  0  0  0  0  0
   19.2801   -3.4113  -17.4219 O   0  0  0  0  0  0  0  0  0  0  0  0
   20.4214   -1.6640  -16.5793 O   0  0  0  0  0  0  0  0  0  0  0  0
  2  7  1  0
  2  1  1  1
  3  2  1  0
  4  5  1  0
  4  3  1  0
  5  6  2  0
  7 10  1  0
  8  7  2  0
  9  5  1  0
 10 11  1  0
 11 12  1  1
 13 14  2  0
 13 12  1  0
 15 16  2  0
 15 11  1  0
 17 13  1  0
 18 15  1  0
 19 18  1  0
 20 21  1  0
 19 20  1  6
 21 22  1  0
 23 24  1  0
 23 22  1  0
 25 19  1  0
 25 27  1  0
 26 25  2  0
M  END
$$$$
