EDK.pdb
     RDKit          3D

 27 26  0  0  1  0  0  0  0  0999 V2000
   20.0215  -14.0282  -16.5455 N   0  0  0  0  0  0  0  0  0  0  0  0
   19.2705  -12.9106  -16.9983 C   0  0  1  0  0  0  0  0  0  0  0  0
   17.8203  -13.2452  -17.1649 C   0  0  0  0  0  0  0  0  0  0  0  0
   17.5583  -14.2384  -18.2180 C   0  0  0  0  0  0  0  0  0  0  0  0
   16.1553  -14.5927  -18.4651 C   0  0  0  0  0  0  0  0  0  0  0  0
   15.4161  -13.9820  -19.2469 O   0  0  0  0  0  0  0  0  0  0  0  0
   19.3895  -11.7606  -16.0288 C   0  0  0  0  0  0  0  0  0  0  0  0
   19.0818  -11.9912  -14.8507 O   0  0  0  0  0  0  0  0  0  0  0  0
   15.5916  -15.6927  -17.7818 O   0  0  0  0  0  0  0  0  0  0  0  0
   19.8264  -10.5263  -16.4827 N   0  0  0  0  0  0  0  0  0  0  0  0
   20.0758   -9.3368  -15.7386 C   0  0  1  0  0  0  0  0  0  0  0  0
   21.5327   -8.9937  -15.6283 C   0  0  0  0  0  0  0  0  0  0  0  0
   21.6602   -7.7764  -14.7852 C   0  0  0  0  0  0  0  0  0  0  0  0
   22.0220   -6.6418  -15.2370 O   0  0  0  0  0  0  0  0  0  0  0  0
   19.1566   -8.2827  -16.0639 C   0  0  0  0  0  0  0  0  0  0  0  0
   19.1063   -7.8913  -17.2819 O   0  0  0  0  0  0  0  0  0  0  0  0
   21.3824   -7.8171  -13.4202 O   0  0  0  0  0  0  0  0  0  0  0  0
   18.2855   -7.6212  -15.1575 N   0  0  0  0  0  0  0  0  0  0  0  0
   17.4722   -6.5071  -15.6112 C   0  0  1  0  0  0  0  0  0  0  0  0
   16.1718   -6.4289  -14.8691 C   0  0  0  0  0  0  0  0  0  0  0  0
   15.2475   -5.3457  -15.3058 C   0  0  0  0  0  0  0  0  0  0  0  0
   13.9455   -5.4615  -14.5764 C   0  0  0  0  0  0  0  0  0  0  0  0
   13.0189   -4.3756  -15.0927 C   0  0  0  0  0  0  0  0  0  0  0  0
   11.7260   -4.5921  -14.4735 N   0  0  0  0  0  0  0  0  0  0  0  0
   18.2600   -5.2589  -15.5244 C   0  0  0  0  0  0  0  0  0  0  0  0
   19.1165   -5.1361  -14.6160 O   0  0  0  0  0  0  0  0  0  0  0  0
   18.1161   -4.1892  -16.3961 O   0  0  0  0  0  0  0  0  0  0  0  0
  2  7  1  0
  2  1  1  1
  3  2  1  0
  4  5  1  0
  4  3  1  0
  5  6  2  0
  7 10  1  0
  8  7  2  0
  9  5  1  0
 10 11  1  0
 11 12  1  6
 13 14  2  0
 13 12  1  0
 15 16  2  0
 15 11  1  0
 17 13  1  0
 18 15  1  0
 19 18  1  0
 20 21  1  0
 19 20  1  1
 21 22  1  0
 23 24  1  0
 23 22  1  0
 25 19  1  0
 25 27  1  0
 26 25  2  0
M  END
$$$$
