EDK.pdb
     RDKit          3D

 27 26  0  0  1  0  0  0  0  0999 V2000
   18.7105  -11.0816  -15.6392 N   0  0  0  0  0  0  0  0  0  0  0  0
   19.3610  -10.0868  -16.4171 C   0  0  1  0  0  0  0  0  0  0  0  0
   18.7062   -9.9078  -17.7520 C   0  0  0  0  0  0  0  0  0  0  0  0
   18.9751  -11.0036  -18.6959 C   0  0  0  0  0  0  0  0  0  0  0  0
   20.2009  -10.9061  -19.4978 C   0  0  0  0  0  0  0  0  0  0  0  0
   20.2261  -10.5390  -20.6790 O   0  0  0  0  0  0  0  0  0  0  0  0
   19.3559   -8.7604  -15.6981 C   0  0  0  0  0  0  0  0  0  0  0  0
   18.2799   -8.4016  -15.1990 O   0  0  0  0  0  0  0  0  0  0  0  0
   21.4386  -11.2462  -18.9089 O   0  0  0  0  0  0  0  0  0  0  0  0
   20.5232   -8.0170  -15.6268 N   0  0  0  0  0  0  0  0  0  0  0  0
   20.7477   -6.7637  -14.9867 C   0  0  1  0  0  0  0  0  0  0  0  0
   22.0306   -6.7095  -14.2096 C   0  0  0  0  0  0  0  0  0  0  0  0
   22.0520   -5.4397  -13.4375 C   0  0  0  0  0  0  0  0  0  0  0  0
   21.3530   -5.2397  -12.3917 O   0  0  0  0  0  0  0  0  0  0  0  0
   20.4226   -5.6492  -15.8319 C   0  0  0  0  0  0  0  0  0  0  0  0
   20.9809   -5.5919  -16.9826 O   0  0  0  0  0  0  0  0  0  0  0  0
   22.8606   -4.3749  -13.8306 O   0  0  0  0  0  0  0  0  0  0  0  0
   19.5315   -4.5893  -15.5150 N   0  0  0  0  0  0  0  0  0  0  0  0
   19.3062   -3.5179  -16.4689 C   0  0  1  0  0  0  0  0  0  0  0  0
   17.8593   -3.4024  -16.8443 C   0  0  0  0  0  0  0  0  0  0  0  0
   17.5309   -2.3152  -17.8081 C   0  0  0  0  0  0  0  0  0  0  0  0
   16.0506   -2.2528  -18.0213 C   0  0  0  0  0  0  0  0  0  0  0  0
   15.7652   -1.1431  -19.0170 C   0  0  0  0  0  0  0  0  0  0  0  0
   14.3242   -1.0051  -19.0961 N   0  0  0  0  0  0  0  0  0  0  0  0
   19.8632   -2.2584  -15.9308 C   0  0  0  0  0  0  0  0  0  0  0  0
   20.0841   -2.1621  -14.6996 O   0  0  0  0  0  0  0  0  0  0  0  0
   20.1659   -1.1501  -16.7084 O   0  0  0  0  0  0  0  0  0  0  0  0
  2  7  1  0
  2  1  1  1
  3  2  1  0
  4  5  1  0
  4  3  1  0
  5  6  2  0
  7 10  1  0
  8  7  2  0
  9  5  1  0
 10 11  1  0
 11 12  1  6
 13 14  2  0
 13 12  1  0
 15 16  2  0
 15 11  1  0
 17 13  1  0
 18 15  1  0
 19 18  1  0
 20 21  1  0
 19 20  1  1
 21 22  1  0
 23 24  1  0
 23 22  1  0
 25 19  1  0
 25 27  1  0
 26 25  2  0
M  END
$$$$
