EDK.pdb
     RDKit          3D

 27 26  0  0  1  0  0  0  0  0999 V2000
   17.7189  -12.0863  -15.5119 N   0  0  0  0  0  0  0  0  0  0  0  0
   18.3673  -11.1878  -16.4010 C   0  0  1  0  0  0  0  0  0  0  0  0
   17.6422  -11.0765  -17.7066 C   0  0  0  0  0  0  0  0  0  0  0  0
   16.1809  -11.1931  -17.5849 C   0  0  0  0  0  0  0  0  0  0  0  0
   15.3939  -11.0111  -18.8107 C   0  0  0  0  0  0  0  0  0  0  0  0
   15.6306  -11.5935  -19.8762 O   0  0  0  0  0  0  0  0  0  0  0  0
   18.4680   -9.8125  -15.7889 C   0  0  0  0  0  0  0  0  0  0  0  0
   17.4655   -9.3932  -15.1931 O   0  0  0  0  0  0  0  0  0  0  0  0
   14.2956  -10.1234  -18.7991 O   0  0  0  0  0  0  0  0  0  0  0  0
   19.6457   -9.0930  -15.9142 N   0  0  0  0  0  0  0  0  0  0  0  0
   19.9613   -7.7987  -15.4082 C   0  0  1  0  0  0  0  0  0  0  0  0
   21.4026   -7.6424  -15.0203 C   0  0  0  0  0  0  0  0  0  0  0  0
   21.6516   -8.4751  -13.8147 C   0  0  0  0  0  0  0  0  0  0  0  0
   22.3791   -9.5206  -13.8192 O   0  0  0  0  0  0  0  0  0  0  0  0
   19.3492   -6.7468  -16.1704 C   0  0  0  0  0  0  0  0  0  0  0  0
   19.4604   -6.7929  -17.4450 O   0  0  0  0  0  0  0  0  0  0  0  0
   21.0855   -8.1441  -12.5851 O   0  0  0  0  0  0  0  0  0  0  0  0
   18.6227   -5.6450  -15.6449 N   0  0  0  0  0  0  0  0  0  0  0  0
   17.9857   -4.6981  -16.5429 C   0  0  1  0  0  0  0  0  0  0  0  0
   16.7478   -4.1054  -15.9395 C   0  0  0  0  0  0  0  0  0  0  0  0
   16.0111   -3.1410  -16.8029 C   0  0  0  0  0  0  0  0  0  0  0  0
   14.8789   -2.5319  -16.0363 C   0  0  0  0  0  0  0  0  0  0  0  0
   13.7111   -2.3480  -16.9886 C   0  0  0  0  0  0  0  0  0  0  0  0
   12.6047   -1.8310  -16.2073 N   0  0  0  0  0  0  0  0  0  0  0  0
   18.9710   -3.6757  -16.9551 C   0  0  0  0  0  0  0  0  0  0  0  0
   18.6556   -2.8399  -17.8359 O   0  0  0  0  0  0  0  0  0  0  0  0
   20.2489   -3.5725  -16.4251 O   0  0  0  0  0  0  0  0  0  0  0  0
  2  7  1  0
  2  1  1  1
  3  2  1  0
  4  5  1  0
  4  3  1  0
  5  6  2  0
  7 10  1  0
  8  7  2  0
  9  5  1  0
 10 11  1  0
 11 12  1  6
 13 14  2  0
 13 12  1  0
 15 16  2  0
 15 11  1  0
 17 13  1  0
 18 15  1  0
 19 18  1  0
 20 21  1  0
 19 20  1  1
 21 22  1  0
 23 24  1  0
 23 22  1  0
 25 19  1  0
 25 27  1  0
 26 25  2  0
M  END
$$$$
