EDK.pdb
     RDKit          3D

 27 26  0  0  1  0  0  0  0  0999 V2000
   13.3043   -9.2610   -9.9928 N   0  0  0  0  0  0  0  0  0  0  0  0
   14.7226   -9.3307   -9.9532 C   0  0  1  0  0  0  0  0  0  0  0  0
   15.2555  -10.3646  -10.8965 C   0  0  0  0  0  0  0  0  0  0  0  0
   14.8506  -11.7383  -10.5607 C   0  0  0  0  0  0  0  0  0  0  0  0
   15.2662  -12.8000  -11.4854 C   0  0  0  0  0  0  0  0  0  0  0  0
   14.9675  -13.9926  -11.3468 O   0  0  0  0  0  0  0  0  0  0  0  0
   15.3317   -7.9968  -10.3088 C   0  0  0  0  0  0  0  0  0  0  0  0
   14.9036   -7.4441  -11.3320 O   0  0  0  0  0  0  0  0  0  0  0  0
   16.0550  -12.4663  -12.6084 O   0  0  0  0  0  0  0  0  0  0  0  0
   16.3186   -7.4583   -9.4986 N   0  0  0  0  0  0  0  0  0  0  0  0
   17.1141   -6.2951   -9.7111 C   0  0  1  0  0  0  0  0  0  0  0  0
   17.1319   -5.3593   -8.5379 C   0  0  0  0  0  0  0  0  0  0  0  0
   15.7566   -4.8293   -8.3464 C   0  0  0  0  0  0  0  0  0  0  0  0
   15.0345   -5.0956   -7.3316 O   0  0  0  0  0  0  0  0  0  0  0  0
   18.3621   -6.5935  -10.3558 C   0  0  0  0  0  0  0  0  0  0  0  0
   18.9612   -7.6746  -10.0218 O   0  0  0  0  0  0  0  0  0  0  0  0
   15.1726   -3.9910   -9.2942 O   0  0  0  0  0  0  0  0  0  0  0  0
   19.0075   -5.7987  -11.3404 N   0  0  0  0  0  0  0  0  0  0  0  0
   20.1986   -6.2924  -12.0084 C   0  0  1  0  0  0  0  0  0  0  0  0
   19.9227   -7.5462  -12.7829 C   0  0  0  0  0  0  0  0  0  0  0  0
   21.0586   -8.0607  -13.5975 C   0  0  0  0  0  0  0  0  0  0  0  0
   20.6367   -9.2883  -14.3428 C   0  0  0  0  0  0  0  0  0  0  0  0
   21.8000   -9.7354  -15.2096 C   0  0  0  0  0  0  0  0  0  0  0  0
   21.4057  -10.9807  -15.8386 N   0  0  0  0  0  0  0  0  0  0  0  0
   20.7736   -5.2157  -12.8428 C   0  0  0  0  0  0  0  0  0  0  0  0
   20.0136   -4.3434  -13.3278 O   0  0  0  0  0  0  0  0  0  0  0  0
   22.1250   -5.0987  -13.1341 O   0  0  0  0  0  0  0  0  0  0  0  0
  2  7  1  0
  2  1  1  6
  3  2  1  0
  4  5  1  0
  4  3  1  0
  5  6  2  0
  7 10  1  0
  8  7  2  0
  9  5  1  0
 10 11  1  0
 11 12  1  1
 13 14  2  0
 13 12  1  0
 15 16  2  0
 15 11  1  0
 17 13  1  0
 18 15  1  0
 19 18  1  0
 20 21  1  0
 19 20  1  6
 21 22  1  0
 23 24  1  0
 23 22  1  0
 25 19  1  0
 25 27  1  0
 26 25  2  0
M  END
$$$$
