EDK.pdb
     RDKit          3D

 27 26  0  0  1  0  0  0  0  0999 V2000
   13.9747  -12.4019  -10.9494 N   0  0  0  0  0  0  0  0  0  0  0  0
   15.0835  -11.5461  -11.1870 C   0  0  1  0  0  0  0  0  0  0  0  0
   15.5506  -11.6221  -12.6079 C   0  0  0  0  0  0  0  0  0  0  0  0
   16.0442  -12.9514  -12.9994 C   0  0  0  0  0  0  0  0  0  0  0  0
   16.6929  -13.0610  -14.3117 C   0  0  0  0  0  0  0  0  0  0  0  0
   16.8172  -12.1170  -15.1017 O   0  0  0  0  0  0  0  0  0  0  0  0
   14.7274  -10.1137  -10.8746 C   0  0  0  0  0  0  0  0  0  0  0  0
   13.5465   -9.7819  -11.0514 O   0  0  0  0  0  0  0  0  0  0  0  0
   17.2147  -14.3080  -14.7206 O   0  0  0  0  0  0  0  0  0  0  0  0
   15.7088   -9.2500  -10.4149 N   0  0  0  0  0  0  0  0  0  0  0  0
   15.5885   -7.8832  -10.0298 C   0  0  1  0  0  0  0  0  0  0  0  0
   16.1817   -7.5858   -8.6836 C   0  0  0  0  0  0  0  0  0  0  0  0
   15.9817   -6.1411   -8.3975 C   0  0  0  0  0  0  0  0  0  0  0  0
   14.8482   -5.5628   -8.4526 O   0  0  0  0  0  0  0  0  0  0  0  0
   15.8773   -6.9811  -11.1092 C   0  0  0  0  0  0  0  0  0  0  0  0
   17.0239   -7.0732  -11.6714 O   0  0  0  0  0  0  0  0  0  0  0  0
   17.0546   -5.3247   -8.0447 O   0  0  0  0  0  0  0  0  0  0  0  0
   15.0067   -5.9831  -11.6227 N   0  0  0  0  0  0  0  0  0  0  0  0
   15.4079   -5.1868  -12.7688 C   0  0  1  0  0  0  0  0  0  0  0  0
   14.2258   -4.7294  -13.5697 C   0  0  0  0  0  0  0  0  0  0  0  0
   14.5446   -3.9367  -14.7897 C   0  0  0  0  0  0  0  0  0  0  0  0
   13.2793   -3.4835  -15.4485 C   0  0  0  0  0  0  0  0  0  0  0  0
   13.6487   -2.7744  -16.7389 C   0  0  0  0  0  0  0  0  0  0  0  0
   12.4071   -2.4286  -17.4028 N   0  0  0  0  0  0  0  0  0  0  0  0
   16.2614   -4.0687  -12.3133 C   0  0  0  0  0  0  0  0  0  0  0  0
   16.0673   -3.5720  -11.1778 O   0  0  0  0  0  0  0  0  0  0  0  0
   17.2853   -3.5171  -13.0697 O   0  0  0  0  0  0  0  0  0  0  0  0
  2  7  1  0
  2  1  1  6
  3  2  1  0
  4  5  1  0
  4  3  1  0
  5  6  2  0
  7 10  1  0
  8  7  2  0
  9  5  1  0
 10 11  1  0
 11 12  1  1
 13 14  2  0
 13 12  1  0
 15 16  2  0
 15 11  1  0
 17 13  1  0
 18 15  1  0
 19 18  1  0
 20 21  1  0
 19 20  1  1
 21 22  1  0
 23 24  1  0
 23 22  1  0
 25 19  1  0
 25 27  1  0
 26 25  2  0
M  END
$$$$
