EDK.pdb
     RDKit          3D

 27 26  0  0  1  0  0  0  0  0999 V2000
   21.5844  -11.2101  -16.4021 N   0  0  0  0  0  0  0  0  0  0  0  0
   21.0850  -10.0164  -16.9886 C   0  0  1  0  0  0  0  0  0  0  0  0
   19.7988  -10.2510  -17.7188 C   0  0  0  0  0  0  0  0  0  0  0  0
   19.9001  -11.2527  -18.7913 C   0  0  0  0  0  0  0  0  0  0  0  0
   18.6706  -11.5638  -19.5305 C   0  0  0  0  0  0  0  0  0  0  0  0
   17.5678  -11.0629  -19.2784 O   0  0  0  0  0  0  0  0  0  0  0  0
   20.8535   -8.9615  -15.9350 C   0  0  0  0  0  0  0  0  0  0  0  0
   20.4357   -9.3540  -14.8363 O   0  0  0  0  0  0  0  0  0  0  0  0
   18.7230  -12.4870  -20.5979 O   0  0  0  0  0  0  0  0  0  0  0  0
   21.1106   -7.6323  -16.2305 N   0  0  0  0  0  0  0  0  0  0  0  0
   21.0569   -6.4980  -15.3694 C   0  0  1  0  0  0  0  0  0  0  0  0
   22.3614   -6.1997  -14.6899 C   0  0  0  0  0  0  0  0  0  0  0  0
   22.1485   -5.0642  -13.7549 C   0  0  0  0  0  0  0  0  0  0  0  0
   21.5115   -5.1665  -12.6567 O   0  0  0  0  0  0  0  0  0  0  0  0
   20.3311   -5.4026  -15.9485 C   0  0  0  0  0  0  0  0  0  0  0  0
   20.8133   -4.8605  -17.0034 O   0  0  0  0  0  0  0  0  0  0  0  0
   22.6492   -3.7957  -14.0413 O   0  0  0  0  0  0  0  0  0  0  0  0
   19.1152   -4.8525  -15.4618 N   0  0  0  0  0  0  0  0  0  0  0  0
   18.5263   -3.6969  -16.1147 C   0  0  1  0  0  0  0  0  0  0  0  0
   17.0390   -3.6517  -15.9305 C   0  0  0  0  0  0  0  0  0  0  0  0
   16.2487   -4.4825  -16.8811 C   0  0  0  0  0  0  0  0  0  0  0  0
   14.8024   -4.4618  -16.4959 C   0  0  0  0  0  0  0  0  0  0  0  0
   14.0320   -5.2797  -17.5167 C   0  0  0  0  0  0  0  0  0  0  0  0
   12.6733   -5.3992  -17.0255 N   0  0  0  0  0  0  0  0  0  0  0  0
   19.2021   -2.4700  -15.6412 C   0  0  0  0  0  0  0  0  0  0  0  0
   19.3882   -2.3082  -14.4111 O   0  0  0  0  0  0  0  0  0  0  0  0
   19.6554   -1.4620  -16.4796 O   0  0  0  0  0  0  0  0  0  0  0  0
  2  7  1  0
  2  1  1  1
  3  2  1  0
  4  5  1  0
  4  3  1  0
  5  6  2  0
  7 10  1  0
  8  7  2  0
  9  5  1  0
 10 11  1  0
 11 12  1  6
 13 14  2  0
 13 12  1  0
 15 16  2  0
 15 11  1  0
 17 13  1  0
 18 15  1  0
 19 18  1  0
 20 21  1  0
 19 20  1  1
 21 22  1  0
 23 24  1  0
 23 22  1  0
 25 19  1  0
 25 27  1  0
 26 25  2  0
M  END
$$$$
