EDK.pdb
     RDKit          3D

 27 26  0  0  1  0  0  0  0  0999 V2000
   12.8864   -9.5883   -9.6458 N   0  0  0  0  0  0  0  0  0  0  0  0
   14.3024   -9.6186   -9.5350 C   0  0  1  0  0  0  0  0  0  0  0  0
   14.8904  -10.8032  -10.2376 C   0  0  0  0  0  0  0  0  0  0  0  0
   14.5034  -10.9050  -11.6532 C   0  0  0  0  0  0  0  0  0  0  0  0
   15.1620  -11.9471  -12.4503 C   0  0  0  0  0  0  0  0  0  0  0  0
   14.5568  -12.7570  -13.1633 O   0  0  0  0  0  0  0  0  0  0  0  0
   14.9092   -8.3655  -10.1164 C   0  0  0  0  0  0  0  0  0  0  0  0
   14.2859   -7.8211  -11.0389 O   0  0  0  0  0  0  0  0  0  0  0  0
   16.5699  -12.0525  -12.4187 O   0  0  0  0  0  0  0  0  0  0  0  0
   16.1066   -7.8869   -9.6091 N   0  0  0  0  0  0  0  0  0  0  0  0
   16.8228   -6.7083   -9.9684 C   0  0  1  0  0  0  0  0  0  0  0  0
   16.8226   -5.6574   -8.8969 C   0  0  0  0  0  0  0  0  0  0  0  0
   17.3879   -4.4088   -9.4716 C   0  0  0  0  0  0  0  0  0  0  0  0
   17.1167   -3.9868  -10.6423 O   0  0  0  0  0  0  0  0  0  0  0  0
   18.0645   -6.9998  -10.6280 C   0  0  0  0  0  0  0  0  0  0  0  0
   18.9150   -7.7245  -10.0028 O   0  0  0  0  0  0  0  0  0  0  0  0
   18.2675   -3.6155   -8.7373 O   0  0  0  0  0  0  0  0  0  0  0  0
   18.4494   -6.5588  -11.9223 N   0  0  0  0  0  0  0  0  0  0  0  0
   19.7432   -6.9341  -12.4644 C   0  0  1  0  0  0  0  0  0  0  0  0
   19.6358   -7.4086  -13.8826 C   0  0  0  0  0  0  0  0  0  0  0  0
   19.0348   -8.7593  -14.0640 C   0  0  0  0  0  0  0  0  0  0  0  0
   18.7993   -9.0215  -15.5188 C   0  0  0  0  0  0  0  0  0  0  0  0
   18.0908  -10.3579  -15.6472 C   0  0  0  0  0  0  0  0  0  0  0  0
   17.9664  -10.6371  -17.0643 N   0  0  0  0  0  0  0  0  0  0  0  0
   20.6864   -5.8067  -12.3050 C   0  0  0  0  0  0  0  0  0  0  0  0
   20.2348   -4.6483  -12.1375 O   0  0  0  0  0  0  0  0  0  0  0  0
   22.0669   -5.9418  -12.3279 O   0  0  0  0  0  0  0  0  0  0  0  0
  2  7  1  0
  2  1  1  6
  3  2  1  0
  4  5  1  0
  4  3  1  0
  5  6  2  0
  7 10  1  0
  8  7  2  0
  9  5  1  0
 10 11  1  0
 11 12  1  1
 13 14  2  0
 13 12  1  0
 15 16  2  0
 15 11  1  0
 17 13  1  0
 18 15  1  0
 19 18  1  0
 20 21  1  0
 19 20  1  6
 21 22  1  0
 23 24  1  0
 23 22  1  0
 25 19  1  0
 25 27  1  0
 26 25  2  0
M  END
$$$$
