KSE.pdb
     RDKit          3D

 25 24  0  0  1  0  0  0  0  0999 V2000
    8.9763  -15.9028   16.2092 N   0  0  0  0  0  0  0  0  0  0  0  0
    8.5001  -16.6960   17.3770 C   0  0  1  0  0  0  0  0  0  0  0  0
    9.2103  -18.0321   17.2078 C   0  0  0  0  0  0  0  0  0  0  0  0
    8.8166  -18.7977   16.0010 C   0  0  0  0  0  0  0  0  0  0  0  0
    9.8025  -18.8189   14.8753 C   0  0  0  0  0  0  0  0  0  0  0  0
    9.5458  -19.7854   13.7715 C   0  0  0  0  0  0  0  0  0  0  0  0
    9.0978  -21.0936   14.1886 N   0  0  0  0  0  0  0  0  0  0  0  0
    9.0586  -16.0464   18.6144 C   0  0  0  0  0  0  0  0  0  0  0  0
   10.2746  -15.7744   18.6268 O   0  0  0  0  0  0  0  0  0  0  0  0
    6.7581  -15.7805   21.9491 O   0  0  0  0  0  0  0  0  0  0  0  0
    7.5817  -14.6492   21.7731 C   0  0  0  0  0  0  0  0  0  0  0  0
    8.7358  -15.1379   20.9126 C   0  0  2  0  0  0  0  0  0  0  0  0
    8.2162  -15.7620   19.7202 N   0  0  0  0  0  0  0  0  0  0  0  0
    9.5709  -16.1210   21.6870 C   0  0  0  0  0  0  0  0  0  0  0  0
    9.2582  -17.3414   21.6406 O   0  0  0  0  0  0  0  0  0  0  0  0
   10.6882  -15.7519   22.4639 N   0  0  0  0  0  0  0  0  0  0  0  0
   11.4355  -16.6429   23.3077 C   0  0  1  0  0  0  0  0  0  0  0  0
   12.8788  -16.2135   23.4794 C   0  0  0  0  0  0  0  0  0  0  0  0
   13.5639  -16.0553   22.1374 C   0  0  0  0  0  0  0  0  0  0  0  0
   14.9620  -15.6202   22.3312 C   0  0  0  0  0  0  0  0  0  0  0  0
   15.7618  -15.3443   21.4088 O   0  0  0  0  0  0  0  0  0  0  0  0
   10.7718  -16.8642   24.6254 C   0  0  0  0  0  0  0  0  0  0  0  0
   11.2151  -17.7295   25.4053 O   0  0  0  0  0  0  0  0  0  0  0  0
   15.4034  -15.5165   23.6570 O   0  0  0  0  0  0  0  0  0  0  0  0
    9.6543  -16.1301   25.0295 O   0  0  0  0  0  0  0  0  0  0  0  0
  2  1  1  6
  3  2  1  0
  4  3  1  0
  5  6  1  0
  5  4  1  0
  6  7  1  0
  8  2  1  0
  8  9  2  0
 10 11  1  0
 12 11  1  1
 12 13  1  0
 13  8  1  0
 14 12  1  0
 15 14  2  0
 16 14  1  0
 17 22  1  0
 17 16  1  0
 17 18  1  1
 19 18  1  0
 20 21  2  0
 20 19  1  0
 22 25  1  0
 23 22  2  0
 24 20  1  0
M  END
$$$$
