KSE.pdb
     RDKit          3D

 25 24  0  0  1  0  0  0  0  0999 V2000
    9.8974  -17.9809   18.1677 N   0  0  0  0  0  0  0  0  0  0  0  0
   10.4234  -18.7092   19.3561 C   0  0  1  0  0  0  0  0  0  0  0  0
   11.3497  -19.7530   18.7474 C   0  0  0  0  0  0  0  0  0  0  0  0
   11.3553  -19.7917   17.2655 C   0  0  0  0  0  0  0  0  0  0  0  0
   12.2299  -20.8265   16.6300 C   0  0  0  0  0  0  0  0  0  0  0  0
   12.3577  -20.7836   15.1467 C   0  0  0  0  0  0  0  0  0  0  0  0
   13.2375  -21.7758   14.5743 N   0  0  0  0  0  0  0  0  0  0  0  0
   11.2831  -17.7432   20.1261 C   0  0  0  0  0  0  0  0  0  0  0  0
   12.3303  -17.3408   19.5835 O   0  0  0  0  0  0  0  0  0  0  0  0
   10.2295  -16.7100   23.9177 O   0  0  0  0  0  0  0  0  0  0  0  0
   10.7292  -15.6342   23.1547 C   0  0  0  0  0  0  0  0  0  0  0  0
   11.6295  -16.2802   22.1138 C   0  0  2  0  0  0  0  0  0  0  0  0
   10.9008  -17.3171   21.4244 N   0  0  0  0  0  0  0  0  0  0  0  0
   12.8468  -16.8615   22.7802 C   0  0  0  0  0  0  0  0  0  0  0  0
   12.8363  -18.0842   23.0874 O   0  0  0  0  0  0  0  0  0  0  0  0
   14.0028  -16.1122   23.0805 N   0  0  0  0  0  0  0  0  0  0  0  0
   15.1840  -16.6362   23.7088 C   0  0  1  0  0  0  0  0  0  0  0  0
   16.4270  -15.8342   23.3789 C   0  0  0  0  0  0  0  0  0  0  0  0
   17.6562  -16.4450   24.0201 C   0  0  0  0  0  0  0  0  0  0  0  0
   18.8472  -15.6282   23.7108 C   0  0  0  0  0  0  0  0  0  0  0  0
   18.8784  -14.6901   22.8827 O   0  0  0  0  0  0  0  0  0  0  0  0
   15.0158  -16.8006   25.1820 C   0  0  0  0  0  0  0  0  0  0  0  0
   14.2854  -16.0130   25.8142 O   0  0  0  0  0  0  0  0  0  0  0  0
   20.0191  -15.9469   24.4097 O   0  0  0  0  0  0  0  0  0  0  0  0
   15.6537  -17.8175   25.8960 O   0  0  0  0  0  0  0  0  0  0  0  0
  2  1  1  6
  3  2  1  0
  4  3  1  0
  5  6  1  0
  5  4  1  0
  6  7  1  0
  8  2  1  0
  8  9  2  0
 10 11  1  0
 12 11  1  1
 12 13  1  0
 13  8  1  0
 14 12  1  0
 15 14  2  0
 16 14  1  0
 17 22  1  0
 17 16  1  0
 17 18  1  1
 19 18  1  0
 20 21  2  0
 20 19  1  0
 22 25  1  0
 23 22  2  0
 24 20  1  0
M  END
$$$$
