KSE.pdb
     RDKit          3D

 25 24  0  0  1  0  0  0  0  0999 V2000
    7.8291  -13.4018   16.7082 N   0  0  0  0  0  0  0  0  0  0  0  0
    7.6221  -14.5841   17.5906 C   0  0  1  0  0  0  0  0  0  0  0  0
    8.3414  -15.7045   16.8519 C   0  0  0  0  0  0  0  0  0  0  0  0
    8.3126  -15.5943   15.3739 C   0  0  0  0  0  0  0  0  0  0  0  0
    7.2245  -16.3442   14.6715 C   0  0  0  0  0  0  0  0  0  0  0  0
    7.2558  -16.3418   13.1824 C   0  0  0  0  0  0  0  0  0  0  0  0
    6.2222  -17.1215   12.5424 N   0  0  0  0  0  0  0  0  0  0  0  0
    8.3823  -14.3283   18.8640 C   0  0  0  0  0  0  0  0  0  0  0  0
    9.5557  -13.9205   18.7657 O   0  0  0  0  0  0  0  0  0  0  0  0
    6.7005  -15.3331   22.4317 O   0  0  0  0  0  0  0  0  0  0  0  0
    7.4885  -14.1651   22.4968 C   0  0  0  0  0  0  0  0  0  0  0  0
    8.4819  -14.3016   21.3541 C   0  0  2  0  0  0  0  0  0  0  0  0
    7.7697  -14.5505   20.1245 N   0  0  0  0  0  0  0  0  0  0  0  0
    9.4341  -15.4319   21.6363 C   0  0  0  0  0  0  0  0  0  0  0  0
    9.1839  -16.5645   21.1425 O   0  0  0  0  0  0  0  0  0  0  0  0
   10.5951  -15.2939   22.4244 N   0  0  0  0  0  0  0  0  0  0  0  0
   11.4901  -16.3644   22.7673 C   0  0  1  0  0  0  0  0  0  0  0  0
   12.9478  -15.9584   22.6818 C   0  0  0  0  0  0  0  0  0  0  0  0
   13.8591  -17.1481   22.9039 C   0  0  0  0  0  0  0  0  0  0  0  0
   15.2720  -16.7248   22.8264 C   0  0  0  0  0  0  0  0  0  0  0  0
   15.9688  -16.7375   21.7867 O   0  0  0  0  0  0  0  0  0  0  0  0
   11.1687  -16.9678   24.0933 C   0  0  0  0  0  0  0  0  0  0  0  0
   10.5366  -16.3054   24.9390 O   0  0  0  0  0  0  0  0  0  0  0  0
   15.8545  -16.2795   24.0205 O   0  0  0  0  0  0  0  0  0  0  0  0
   11.5530  -18.2667   24.4338 O   0  0  0  0  0  0  0  0  0  0  0  0
  2  1  1  6
  3  2  1  0
  4  3  1  0
  5  6  1  0
  5  4  1  0
  6  7  1  0
  8  2  1  0
  8  9  2  0
 10 11  1  0
 12 11  1  1
 12 13  1  0
 13  8  1  0
 14 12  1  0
 15 14  2  0
 16 14  1  0
 17 22  1  0
 17 16  1  0
 17 18  1  1
 19 18  1  0
 20 21  2  0
 20 19  1  0
 22 25  1  0
 23 22  2  0
 24 20  1  0
M  END
$$$$
