KSE.pdb
     RDKit          3D

 25 24  0  0  1  0  0  0  0  0999 V2000
    8.1779  -12.8303   18.2804 N   0  0  0  0  0  0  0  0  0  0  0  0
    7.5428  -13.9302   19.0590 C   0  0  1  0  0  0  0  0  0  0  0  0
    7.7952  -15.1610   18.1992 C   0  0  0  0  0  0  0  0  0  0  0  0
    8.8468  -14.9946   17.1676 C   0  0  0  0  0  0  0  0  0  0  0  0
    8.6233  -15.7039   15.8689 C   0  0  0  0  0  0  0  0  0  0  0  0
    9.6679  -15.5370   14.8203 C   0  0  0  0  0  0  0  0  0  0  0  0
    9.4041  -16.2160   13.5731 N   0  0  0  0  0  0  0  0  0  0  0  0
    8.3397  -14.0980   20.3246 C   0  0  0  0  0  0  0  0  0  0  0  0
    9.5818  -14.1216   20.2277 O   0  0  0  0  0  0  0  0  0  0  0  0
    6.5736  -15.3154   23.8209 O   0  0  0  0  0  0  0  0  0  0  0  0
    7.4910  -14.2573   23.9882 C   0  0  0  0  0  0  0  0  0  0  0  0
    8.4335  -14.3676   22.8005 C   0  0  2  0  0  0  0  0  0  0  0  0
    7.6836  -14.2254   21.5763 N   0  0  0  0  0  0  0  0  0  0  0  0
    9.1332  -15.6995   22.8246 C   0  0  0  0  0  0  0  0  0  0  0  0
    9.1402  -16.3926   21.7715 O   0  0  0  0  0  0  0  0  0  0  0  0
    9.7842  -16.2167   23.9633 N   0  0  0  0  0  0  0  0  0  0  0  0
   10.9826  -17.0091   23.9383 C   0  0  1  0  0  0  0  0  0  0  0  0
   12.0926  -16.3658   23.1314 C   0  0  0  0  0  0  0  0  0  0  0  0
   13.3567  -17.1993   23.1818 C   0  0  0  0  0  0  0  0  0  0  0  0
   14.4278  -16.5415   22.4062 C   0  0  0  0  0  0  0  0  0  0  0  0
   14.9513  -15.4420   22.6955 O   0  0  0  0  0  0  0  0  0  0  0  0
   11.4462  -17.3771   25.3076 C   0  0  0  0  0  0  0  0  0  0  0  0
   11.3267  -16.5616   26.2427 O   0  0  0  0  0  0  0  0  0  0  0  0
   14.8748  -17.2189   21.2639 O   0  0  0  0  0  0  0  0  0  0  0  0
   12.0193  -18.6188   25.5918 O   0  0  0  0  0  0  0  0  0  0  0  0
  2  1  1  6
  3  2  1  0
  4  3  1  0
  5  6  1  0
  5  4  1  0
  6  7  1  0
  8  2  1  0
  8  9  2  0
 10 11  1  0
 12 11  1  1
 12 13  1  0
 13  8  1  0
 14 12  1  0
 15 14  2  0
 16 14  1  0
 17 22  1  0
 17 16  1  0
 17 18  1  1
 19 18  1  0
 20 21  2  0
 20 19  1  0
 22 25  1  0
 23 22  2  0
 24 20  1  0
M  END
$$$$
