KSE.pdb
     RDKit          3D

 25 24  0  0  1  0  0  0  0  0999 V2000
    9.2711  -20.7910   15.1194 N   0  0  0  0  0  0  0  0  0  0  0  0
    9.2708  -21.8543   16.1628 C   0  0  1  0  0  0  0  0  0  0  0  0
   10.5877  -22.5805   15.9253 C   0  0  0  0  0  0  0  0  0  0  0  0
   10.6387  -23.3863   14.6819 C   0  0  0  0  0  0  0  0  0  0  0  0
   11.8688  -24.2130   14.4745 C   0  0  0  0  0  0  0  0  0  0  0  0
   11.9321  -25.0283   13.2297 C   0  0  0  0  0  0  0  0  0  0  0  0
   13.1701  -25.7428   13.0224 N   0  0  0  0  0  0  0  0  0  0  0  0
    9.3733  -21.1681   17.4983 C   0  0  0  0  0  0  0  0  0  0  0  0
   10.1066  -20.1637   17.5783 O   0  0  0  0  0  0  0  0  0  0  0  0
    6.7750  -22.0815   20.4729 O   0  0  0  0  0  0  0  0  0  0  0  0
    7.3923  -20.8136   20.4999 C   0  0  0  0  0  0  0  0  0  0  0  0
    8.7768  -21.0422   19.9148 C   0  0  2  0  0  0  0  0  0  0  0  0
    8.6546  -21.6618   18.6177 N   0  0  0  0  0  0  0  0  0  0  0  0
    9.5813  -21.9220   20.8327 C   0  0  0  0  0  0  0  0  0  0  0  0
    9.5016  -23.1718   20.6879 O   0  0  0  0  0  0  0  0  0  0  0  0
   10.4228  -21.4244   21.8487 N   0  0  0  0  0  0  0  0  0  0  0  0
   11.2157  -22.2343   22.7319 C   0  0  1  0  0  0  0  0  0  0  0  0
   12.5887  -21.6467   22.9900 C   0  0  0  0  0  0  0  0  0  0  0  0
   13.4519  -22.6060   23.7836 C   0  0  0  0  0  0  0  0  0  0  0  0
   14.7644  -21.9903   24.0663 C   0  0  0  0  0  0  0  0  0  0  0  0
   15.1017  -20.8332   23.7284 O   0  0  0  0  0  0  0  0  0  0  0  0
   10.5056  -22.5426   24.0072 C   0  0  0  0  0  0  0  0  0  0  0  0
   10.8683  -23.5136   24.6996 O   0  0  0  0  0  0  0  0  0  0  0  0
   15.6848  -22.7812   24.7667 O   0  0  0  0  0  0  0  0  0  0  0  0
    9.4322  -21.7762   24.4666 O   0  0  0  0  0  0  0  0  0  0  0  0
  2  1  1  6
  3  2  1  0
  4  3  1  0
  5  6  1  0
  5  4  1  0
  6  7  1  0
  8  2  1  0
  8  9  2  0
 10 11  1  0
 12 11  1  1
 12 13  1  0
 13  8  1  0
 14 12  1  0
 15 14  2  0
 16 14  1  0
 17 22  1  0
 17 16  1  0
 17 18  1  1
 19 18  1  0
 20 21  2  0
 20 19  1  0
 22 25  1  0
 23 22  2  0
 24 20  1  0
M  END
$$$$
