KSE.pdb
     RDKit          3D

 25 24  0  0  1  0  0  0  0  0999 V2000
    6.2045  -14.0115   20.8369 N   0  0  0  0  0  0  0  0  0  0  0  0
    7.6191  -14.3946   20.5700 C   0  0  1  0  0  0  0  0  0  0  0  0
    8.1653  -13.2043   19.7935 C   0  0  0  0  0  0  0  0  0  0  0  0
    7.8714  -13.2212   18.3406 C   0  0  0  0  0  0  0  0  0  0  0  0
    8.6070  -14.2372   17.5244 C   0  0  0  0  0  0  0  0  0  0  0  0
    8.3131  -14.2714   16.0647 C   0  0  0  0  0  0  0  0  0  0  0  0
    8.9863  -15.3128   15.3241 N   0  0  0  0  0  0  0  0  0  0  0  0
    8.3298  -14.4273   21.8962 C   0  0  0  0  0  0  0  0  0  0  0  0
    8.3546  -13.3766   22.5657 O   0  0  0  0  0  0  0  0  0  0  0  0
    8.4361  -17.3837   24.1702 O   0  0  0  0  0  0  0  0  0  0  0  0
    9.0561  -16.2294   24.6922 C   0  0  0  0  0  0  0  0  0  0  0  0
    9.8014  -15.6215   23.5147 C   0  0  2  0  0  0  0  0  0  0  0  0
    8.9464  -15.6209   22.3527 N   0  0  0  0  0  0  0  0  0  0  0  0
   11.0500  -16.4133   23.2357 C   0  0  0  0  0  0  0  0  0  0  0  0
   10.9710  -17.4047   22.4609 O   0  0  0  0  0  0  0  0  0  0  0  0
   12.3078  -16.1065   23.7939 N   0  0  0  0  0  0  0  0  0  0  0  0
   13.5153  -16.8501   23.5626 C   0  0  1  0  0  0  0  0  0  0  0  0
   14.7047  -15.9579   23.2688 C   0  0  0  0  0  0  0  0  0  0  0  0
   15.9473  -16.7792   22.9917 C   0  0  0  0  0  0  0  0  0  0  0  0
   17.1195  -15.8917   22.8509 C   0  0  0  0  0  0  0  0  0  0  0  0
   17.8077  -15.4560   23.8012 O   0  0  0  0  0  0  0  0  0  0  0  0
   13.8111  -17.8071   24.6682 C   0  0  0  0  0  0  0  0  0  0  0  0
   13.4229  -17.5562   25.8258 O   0  0  0  0  0  0  0  0  0  0  0  0
   17.4675  -15.5232   21.5446 O   0  0  0  0  0  0  0  0  0  0  0  0
   14.5175  -18.9935   24.4578 O   0  0  0  0  0  0  0  0  0  0  0  0
  2  1  1  1
  3  2  1  0
  4  3  1  0
  5  6  1  0
  5  4  1  0
  6  7  1  0
  8  2  1  0
  8  9  2  0
 10 11  1  0
 12 11  1  1
 12 13  1  0
 13  8  1  0
 14 12  1  0
 15 14  2  0
 16 14  1  0
 17 22  1  0
 17 16  1  0
 17 18  1  1
 19 18  1  0
 20 21  2  0
 20 19  1  0
 22 25  1  0
 23 22  2  0
 24 20  1  0
M  END
$$$$
