KSE.pdb
     RDKit          3D

 25 24  0  0  1  0  0  0  0  0999 V2000
    7.5626  -15.5929   19.0897 N   0  0  0  0  0  0  0  0  0  0  0  0
    8.6963  -14.6266   19.1016 C   0  0  1  0  0  0  0  0  0  0  0  0
    8.0374  -13.3066   18.7253 C   0  0  0  0  0  0  0  0  0  0  0  0
    8.0845  -12.9771   17.2806 C   0  0  0  0  0  0  0  0  0  0  0  0
    7.7501  -14.0865   16.3336 C   0  0  0  0  0  0  0  0  0  0  0  0
    7.6712  -13.7388   14.8876 C   0  0  0  0  0  0  0  0  0  0  0  0
    7.1774  -14.7881   14.0267 N   0  0  0  0  0  0  0  0  0  0  0  0
    9.1618  -14.5032   20.5275 C   0  0  0  0  0  0  0  0  0  0  0  0
   10.1785  -13.8169   20.7472 O   0  0  0  0  0  0  0  0  0  0  0  0
    7.1121  -16.4306   23.5144 O   0  0  0  0  0  0  0  0  0  0  0  0
    7.7684  -15.2404   23.8912 C   0  0  0  0  0  0  0  0  0  0  0  0
    8.9415  -15.1221   22.9316 C   0  0  2  0  0  0  0  0  0  0  0  0
    8.4570  -15.1538   21.5731 N   0  0  0  0  0  0  0  0  0  0  0  0
    9.9064  -16.2536   23.1612 C   0  0  0  0  0  0  0  0  0  0  0  0
    9.7642  -17.3095   22.4872 O   0  0  0  0  0  0  0  0  0  0  0  0
   10.9649  -16.1979   24.0910 N   0  0  0  0  0  0  0  0  0  0  0  0
   11.8848  -17.2691   24.3572 C   0  0  1  0  0  0  0  0  0  0  0  0
   13.3325  -16.8237   24.3050 C   0  0  0  0  0  0  0  0  0  0  0  0
   13.7916  -16.6279   22.8746 C   0  0  0  0  0  0  0  0  0  0  0  0
   15.2259  -16.2766   22.8471 C   0  0  0  0  0  0  0  0  0  0  0  0
   15.7153  -15.2221   23.3110 O   0  0  0  0  0  0  0  0  0  0  0  0
   11.5769  -17.9750   25.6349 C   0  0  0  0  0  0  0  0  0  0  0  0
   10.6809  -17.5389   26.3838 O   0  0  0  0  0  0  0  0  0  0  0  0
   16.0839  -17.2102   22.2507 O   0  0  0  0  0  0  0  0  0  0  0  0
   12.2622  -19.1242   26.0353 O   0  0  0  0  0  0  0  0  0  0  0  0
  2  1  1  1
  3  2  1  0
  4  3  1  0
  5  6  1  0
  5  4  1  0
  6  7  1  0
  8  2  1  0
  8  9  2  0
 10 11  1  0
 12 11  1  1
 12 13  1  0
 13  8  1  0
 14 12  1  0
 15 14  2  0
 16 14  1  0
 17 22  1  0
 17 16  1  0
 17 18  1  1
 19 18  1  0
 20 21  2  0
 20 19  1  0
 22 25  1  0
 23 22  2  0
 24 20  1  0
M  END
$$$$
