KSE.pdb
     RDKit          3D

 25 24  0  0  1  0  0  0  0  0999 V2000
    7.3283  -16.1666   20.0085 N   0  0  0  0  0  0  0  0  0  0  0  0
    8.6481  -15.5107   19.7914 C   0  0  1  0  0  0  0  0  0  0  0  0
    8.2861  -14.2263   19.0583 C   0  0  0  0  0  0  0  0  0  0  0  0
    7.5422  -14.4215   17.7910 C   0  0  0  0  0  0  0  0  0  0  0  0
    8.1070  -13.7518   16.5777 C   0  0  0  0  0  0  0  0  0  0  0  0
    7.2945  -13.8168   15.3311 C   0  0  0  0  0  0  0  0  0  0  0  0
    7.8045  -13.0460   14.2213 N   0  0  0  0  0  0  0  0  0  0  0  0
    9.1788  -15.1188   21.1441 C   0  0  0  0  0  0  0  0  0  0  0  0
   10.2853  -14.5474   21.1885 O   0  0  0  0  0  0  0  0  0  0  0  0
    6.9673  -15.9241   24.4833 O   0  0  0  0  0  0  0  0  0  0  0  0
    7.9364  -14.9107   24.6356 C   0  0  0  0  0  0  0  0  0  0  0  0
    9.0213  -15.2549   23.6277 C   0  0  2  0  0  0  0  0  0  0  0  0
    8.4332  -15.3994   22.3183 N   0  0  0  0  0  0  0  0  0  0  0  0
    9.7058  -16.5332   24.0293 C   0  0  0  0  0  0  0  0  0  0  0  0
    9.2639  -17.6205   23.5692 O   0  0  0  0  0  0  0  0  0  0  0  0
   10.8185  -16.5824   24.8939 N   0  0  0  0  0  0  0  0  0  0  0  0
   11.4954  -17.7837   25.2978 C   0  0  1  0  0  0  0  0  0  0  0  0
   12.9959  -17.7046   25.0997 C   0  0  0  0  0  0  0  0  0  0  0  0
   13.6611  -19.0226   25.4399 C   0  0  0  0  0  0  0  0  0  0  0  0
   15.1053  -18.9532   25.1384 C   0  0  0  0  0  0  0  0  0  0  0  0
   15.9006  -18.1185   25.6256 O   0  0  0  0  0  0  0  0  0  0  0  0
   11.1497  -18.1865   26.6920 C   0  0  0  0  0  0  0  0  0  0  0  0
   11.5432  -19.2826   27.1363 O   0  0  0  0  0  0  0  0  0  0  0  0
   15.5989  -19.9042   24.2354 O   0  0  0  0  0  0  0  0  0  0  0  0
   10.3897  -17.3734   27.5359 O   0  0  0  0  0  0  0  0  0  0  0  0
  2  1  1  1
  3  2  1  0
  4  3  1  0
  5  6  1  0
  5  4  1  0
  6  7  1  0
  8  2  1  0
  8  9  2  0
 10 11  1  0
 12 11  1  1
 12 13  1  0
 13  8  1  0
 14 12  1  0
 15 14  2  0
 16 14  1  0
 17 22  1  0
 17 16  1  0
 17 18  1  1
 19 18  1  0
 20 21  2  0
 20 19  1  0
 22 25  1  0
 23 22  2  0
 24 20  1  0
M  END
$$$$
