KSE.pdb
     RDKit          3D

 25 24  0  0  1  0  0  0  0  0999 V2000
   14.9130  -14.1415   16.3655 N   0  0  0  0  0  0  0  0  0  0  0  0
   13.5595  -14.7349   16.5536 C   0  0  1  0  0  0  0  0  0  0  0  0
   13.8076  -16.2300   16.4081 C   0  0  0  0  0  0  0  0  0  0  0  0
   13.8532  -16.7202   15.0098 C   0  0  0  0  0  0  0  0  0  0  0  0
   14.1262  -18.1800   14.8248 C   0  0  0  0  0  0  0  0  0  0  0  0
   14.2177  -18.6772   13.4238 C   0  0  0  0  0  0  0  0  0  0  0  0
   14.6072  -20.0611   13.2845 N   0  0  0  0  0  0  0  0  0  0  0  0
   13.1582  -14.4854   17.9825 C   0  0  0  0  0  0  0  0  0  0  0  0
   14.0504  -14.1459   18.7834 O   0  0  0  0  0  0  0  0  0  0  0  0
    9.4028  -13.3566   19.1812 O   0  0  0  0  0  0  0  0  0  0  0  0
    9.8911  -14.4933   19.8586 C   0  0  0  0  0  0  0  0  0  0  0  0
   11.4041  -14.3909   19.7503 C   0  0  2  0  0  0  0  0  0  0  0  0
   11.8067  -14.6377   18.3872 N   0  0  0  0  0  0  0  0  0  0  0  0
   12.0515  -15.3919   20.6683 C   0  0  0  0  0  0  0  0  0  0  0  0
   11.8536  -16.6184   20.4539 O   0  0  0  0  0  0  0  0  0  0  0  0
   12.8707  -15.0331   21.7584 N   0  0  0  0  0  0  0  0  0  0  0  0
   13.6551  -15.9514   22.5368 C   0  0  1  0  0  0  0  0  0  0  0  0
   15.0908  -15.4965   22.7068 C   0  0  0  0  0  0  0  0  0  0  0  0
   15.8687  -16.4607   23.5788 C   0  0  0  0  0  0  0  0  0  0  0  0
   17.2347  -15.9475   23.8069 C   0  0  0  0  0  0  0  0  0  0  0  0
   17.7022  -15.6227   24.9217 O   0  0  0  0  0  0  0  0  0  0  0  0
   13.0222  -16.2629   23.8514 C   0  0  0  0  0  0  0  0  0  0  0  0
   12.1308  -15.5176   24.3024 O   0  0  0  0  0  0  0  0  0  0  0  0
   18.0500  -15.8231   22.6741 O   0  0  0  0  0  0  0  0  0  0  0  0
   13.3929  -17.3740   24.6123 O   0  0  0  0  0  0  0  0  0  0  0  0
  2  1  1  1
  3  2  1  0
  4  3  1  0
  5  6  1  0
  5  4  1  0
  6  7  1  0
  8  2  1  0
  8  9  2  0
 10 11  1  0
 12 11  1  6
 12 13  1  0
 13  8  1  0
 14 12  1  0
 15 14  2  0
 16 14  1  0
 17 22  1  0
 17 16  1  0
 17 18  1  1
 19 18  1  0
 20 21  2  0
 20 19  1  0
 22 25  1  0
 23 22  2  0
 24 20  1  0
M  END
$$$$
