KSE.pdb
     RDKit          3D

 25 24  0  0  1  0  0  0  0  0999 V2000
   10.6223  -22.1402   25.4343 N   0  0  0  0  0  0  0  0  0  0  0  0
   10.4246  -20.6833   25.6745 C   0  0  1  0  0  0  0  0  0  0  0  0
   11.1914  -20.4324   26.9657 C   0  0  0  0  0  0  0  0  0  0  0  0
   11.0307  -21.4831   27.9992 C   0  0  0  0  0  0  0  0  0  0  0  0
   11.8275  -21.3098   29.2540 C   0  0  0  0  0  0  0  0  0  0  0  0
   11.6166  -22.3159   30.3318 C   0  0  0  0  0  0  0  0  0  0  0  0
   12.3417  -22.0695   31.5564 N   0  0  0  0  0  0  0  0  0  0  0  0
   11.1456  -19.9488   24.5766 C   0  0  0  0  0  0  0  0  0  0  0  0
   11.8491  -20.6193   23.7965 O   0  0  0  0  0  0  0  0  0  0  0  0
   11.4873  -16.0077   21.9329 O   0  0  0  0  0  0  0  0  0  0  0  0
   10.9023  -16.5335   23.1036 C   0  0  0  0  0  0  0  0  0  0  0  0
   11.6509  -17.8308   23.3640 C   0  0  2  0  0  0  0  0  0  0  0  0
   11.0194  -18.5412   24.4493 N   0  0  0  0  0  0  0  0  0  0  0  0
   13.0852  -17.5338   23.7078 C   0  0  0  0  0  0  0  0  0  0  0  0
   13.3596  -17.1858   24.8880 O   0  0  0  0  0  0  0  0  0  0  0  0
   14.1432  -17.6240   22.7801 N   0  0  0  0  0  0  0  0  0  0  0  0
   15.5092  -17.2704   23.0514 C   0  0  1  0  0  0  0  0  0  0  0  0
   16.4697  -17.8015   22.0062 C   0  0  0  0  0  0  0  0  0  0  0  0
   17.5890  -18.5958   22.6477 C   0  0  0  0  0  0  0  0  0  0  0  0
   18.4734  -19.1561   21.6059 C   0  0  0  0  0  0  0  0  0  0  0  0
   18.4846  -20.3538   21.2425 O   0  0  0  0  0  0  0  0  0  0  0  0
   15.6837  -15.8032   23.2574 C   0  0  0  0  0  0  0  0  0  0  0  0
   14.7601  -15.0211   22.9590 O   0  0  0  0  0  0  0  0  0  0  0  0
   19.3585  -18.2593   20.9928 O   0  0  0  0  0  0  0  0  0  0  0  0
   16.8591  -15.2585   23.7794 O   0  0  0  0  0  0  0  0  0  0  0  0
  2  1  1  6
  3  2  1  0
  4  3  1  0
  5  6  1  0
  5  4  1  0
  6  7  1  0
  8  2  1  0
  8  9  2  0
 10 11  1  0
 12 11  1  1
 12 13  1  0
 13  8  1  0
 14 12  1  0
 15 14  2  0
 16 14  1  0
 17 22  1  0
 17 16  1  0
 17 18  1  6
 19 18  1  0
 20 21  2  0
 20 19  1  0
 22 25  1  0
 23 22  2  0
 24 20  1  0
M  END
$$$$
