KSE.pdb
     RDKit          3D

 25 24  0  0  1  0  0  0  0  0999 V2000
    9.1049  -17.2841   17.0851 N   0  0  0  0  0  0  0  0  0  0  0  0
    8.3183  -17.4159   18.3434 C   0  0  1  0  0  0  0  0  0  0  0  0
    8.4524  -18.8926   18.6890 C   0  0  0  0  0  0  0  0  0  0  0  0
    8.1504  -19.8225   17.5746 C   0  0  0  0  0  0  0  0  0  0  0  0
    8.2164  -21.2838   17.8906 C   0  0  0  0  0  0  0  0  0  0  0  0
    7.7760  -22.2255   16.8241 C   0  0  0  0  0  0  0  0  0  0  0  0
    7.8620  -23.6266   17.1641 N   0  0  0  0  0  0  0  0  0  0  0  0
    9.0467  -16.6399   19.4076 C   0  0  0  0  0  0  0  0  0  0  0  0
   10.2834  -16.5306   19.3001 O   0  0  0  0  0  0  0  0  0  0  0  0
    7.1255  -15.4643   22.8085 O   0  0  0  0  0  0  0  0  0  0  0  0
    7.9642  -14.4657   22.2713 C   0  0  0  0  0  0  0  0  0  0  0  0
    9.0009  -15.2241   21.4581 C   0  0  2  0  0  0  0  0  0  0  0  0
    8.3349  -16.0609   20.4899 N   0  0  0  0  0  0  0  0  0  0  0  0
    9.8502  -16.0669   22.3703 C   0  0  0  0  0  0  0  0  0  0  0  0
    9.4873  -17.2515   22.6033 O   0  0  0  0  0  0  0  0  0  0  0  0
   11.0340  -15.6039   22.9805 N   0  0  0  0  0  0  0  0  0  0  0  0
   11.8085  -16.3407   23.9406 C   0  0  1  0  0  0  0  0  0  0  0  0
   13.2172  -15.8027   24.0928 C   0  0  0  0  0  0  0  0  0  0  0  0
   14.2041  -16.6230   23.2876 C   0  0  0  0  0  0  0  0  0  0  0  0
   15.4675  -15.8759   23.1229 C   0  0  0  0  0  0  0  0  0  0  0  0
   16.1898  -15.4719   24.0620 O   0  0  0  0  0  0  0  0  0  0  0  0
   11.1203  -16.4485   25.2598 C   0  0  0  0  0  0  0  0  0  0  0  0
   10.2285  -15.6319   25.5624 O   0  0  0  0  0  0  0  0  0  0  0  0
   15.8667  -15.6110   21.8061 O   0  0  0  0  0  0  0  0  0  0  0  0
   11.4385  -17.4432   26.1873 O   0  0  0  0  0  0  0  0  0  0  0  0
  2  1  1  6
  3  2  1  0
  4  3  1  0
  5  6  1  0
  5  4  1  0
  6  7  1  0
  8  2  1  0
  8  9  2  0
 10 11  1  0
 12 11  1  1
 12 13  1  0
 13  8  1  0
 14 12  1  0
 15 14  2  0
 16 14  1  0
 17 22  1  0
 17 16  1  0
 17 18  1  1
 19 18  1  0
 20 21  2  0
 20 19  1  0
 22 25  1  0
 23 22  2  0
 24 20  1  0
M  END
$$$$
