KSE.pdb
     RDKit          3D

 25 24  0  0  1  0  0  0  0  0999 V2000
   11.0691  -17.1409   17.9523 N   0  0  0  0  0  0  0  0  0  0  0  0
   10.3902  -17.6400   19.1809 C   0  0  1  0  0  0  0  0  0  0  0  0
   10.8058  -19.1034   19.2426 C   0  0  0  0  0  0  0  0  0  0  0  0
   10.8978  -19.7803   17.9269 C   0  0  0  0  0  0  0  0  0  0  0  0
   11.2402  -21.2370   17.9503 C   0  0  0  0  0  0  0  0  0  0  0  0
   11.2195  -21.9562   16.6463 C   0  0  0  0  0  0  0  0  0  0  0  0
   11.6001  -23.3483   16.7033 N   0  0  0  0  0  0  0  0  0  0  0  0
   11.0257  -16.9449   20.3547 C   0  0  0  0  0  0  0  0  0  0  0  0
   12.2343  -16.6536   20.2701 O   0  0  0  0  0  0  0  0  0  0  0  0
    8.9108  -16.4252   23.8154 O   0  0  0  0  0  0  0  0  0  0  0  0
    9.7336  -15.3311   23.4759 C   0  0  0  0  0  0  0  0  0  0  0  0
   10.8414  -15.9272   22.6222 C   0  0  2  0  0  0  0  0  0  0  0  0
   10.2612  -16.6408   21.5108 N   0  0  0  0  0  0  0  0  0  0  0  0
   11.6810  -16.8601   23.4520 C   0  0  0  0  0  0  0  0  0  0  0  0
   11.3386  -18.0712   23.5247 O   0  0  0  0  0  0  0  0  0  0  0  0
   12.8339  -16.4536   24.1547 N   0  0  0  0  0  0  0  0  0  0  0  0
   13.6784  -17.3237   24.9255 C   0  0  1  0  0  0  0  0  0  0  0  0
   15.1127  -16.8385   24.9925 C   0  0  0  0  0  0  0  0  0  0  0  0
   15.6356  -16.4906   23.6139 C   0  0  0  0  0  0  0  0  0  0  0  0
   17.0306  -16.0142   23.7072 C   0  0  0  0  0  0  0  0  0  0  0  0
   17.3959  -14.9768   24.3047 O   0  0  0  0  0  0  0  0  0  0  0  0
   13.1274  -17.5872   26.2866 C   0  0  0  0  0  0  0  0  0  0  0  0
   13.7132  -18.3797   27.0498 O   0  0  0  0  0  0  0  0  0  0  0  0
   18.0003  -16.7998   23.0701 O   0  0  0  0  0  0  0  0  0  0  0  0
   11.9619  -16.9730   26.7505 O   0  0  0  0  0  0  0  0  0  0  0  0
  2  1  1  6
  3  2  1  0
  4  3  1  0
  5  6  1  0
  5  4  1  0
  6  7  1  0
  8  2  1  0
  8  9  2  0
 10 11  1  0
 12 11  1  1
 12 13  1  0
 13  8  1  0
 14 12  1  0
 15 14  2  0
 16 14  1  0
 17 22  1  0
 17 16  1  0
 17 18  1  1
 19 18  1  0
 20 21  2  0
 20 19  1  0
 22 25  1  0
 23 22  2  0
 24 20  1  0
M  END
$$$$
