KSE.pdb
     RDKit          3D

 25 24  0  0  1  0  0  0  0  0999 V2000
    7.5705  -16.2371   18.8063 N   0  0  0  0  0  0  0  0  0  0  0  0
    8.8154  -15.4456   18.5983 C   0  0  1  0  0  0  0  0  0  0  0  0
    8.3475  -14.2704   17.7508 C   0  0  0  0  0  0  0  0  0  0  0  0
    7.6115  -14.6450   16.5197 C   0  0  0  0  0  0  0  0  0  0  0  0
    7.8633  -13.7998   15.3106 C   0  0  0  0  0  0  0  0  0  0  0  0
    7.0551  -14.1011   14.0964 C   0  0  0  0  0  0  0  0  0  0  0  0
    7.2190  -13.1746   13.0006 N   0  0  0  0  0  0  0  0  0  0  0  0
    9.2230  -14.8958   19.9387 C   0  0  0  0  0  0  0  0  0  0  0  0
   10.2660  -14.2160   19.9927 O   0  0  0  0  0  0  0  0  0  0  0  0
    7.1104  -15.8790   23.4118 O   0  0  0  0  0  0  0  0  0  0  0  0
    7.7107  -14.6050   23.3335 C   0  0  0  0  0  0  0  0  0  0  0  0
    8.9021  -14.7923   22.4080 C   0  0  2  0  0  0  0  0  0  0  0  0
    8.4365  -15.1535   21.0913 N   0  0  0  0  0  0  0  0  0  0  0  0
    9.8056  -15.8674   22.9482 C   0  0  0  0  0  0  0  0  0  0  0  0
    9.6735  -17.0404   22.5056 O   0  0  0  0  0  0  0  0  0  0  0  0
   10.7956  -15.6347   23.9249 N   0  0  0  0  0  0  0  0  0  0  0  0
   11.8149  -16.5735   24.3047 C   0  0  1  0  0  0  0  0  0  0  0  0
   13.2097  -16.0982   23.9501 C   0  0  0  0  0  0  0  0  0  0  0  0
   14.2468  -17.1487   24.2907 C   0  0  0  0  0  0  0  0  0  0  0  0
   15.5715  -16.7342   23.7860 C   0  0  0  0  0  0  0  0  0  0  0  0
   16.6421  -17.3494   23.9914 O   0  0  0  0  0  0  0  0  0  0  0  0
   11.7196  -16.9614   25.7420 C   0  0  0  0  0  0  0  0  0  0  0  0
   11.0564  -16.2602   26.5308 O   0  0  0  0  0  0  0  0  0  0  0  0
   15.6070  -15.5599   23.0224 O   0  0  0  0  0  0  0  0  0  0  0  0
   12.3536  -18.0971   26.2510 O   0  0  0  0  0  0  0  0  0  0  0  0
  2  1  1  1
  3  2  1  0
  4  3  1  0
  5  6  1  0
  5  4  1  0
  6  7  1  0
  8  2  1  0
  8  9  2  0
 10 11  1  0
 12 11  1  1
 12 13  1  0
 13  8  1  0
 14 12  1  0
 15 14  2  0
 16 14  1  0
 17 22  1  0
 17 16  1  0
 17 18  1  1
 19 18  1  0
 20 21  2  0
 20 19  1  0
 22 25  1  0
 23 22  2  0
 24 20  1  0
M  END
$$$$
