WHI.pdb
     RDKit          3D

 33 35  0  0  1  0  0  0  0  0999 V2000
    6.5647  -17.2777   24.0959 N   0  0  0  0  0  0  0  0  0  0  0  0
    7.6934  -16.4128   24.2322 C   0  0  1  0  0  0  0  0  0  0  0  0
    7.7709  -15.8473   25.6105 C   0  0  0  0  0  0  0  0  0  0  0  0
    6.7699  -14.7873   25.7848 C   0  0  0  0  0  0  0  0  0  0  0  0
    5.5376  -14.9408   26.4383 C   0  0  0  0  0  0  0  0  0  0  0  0
    4.8945  -13.7797   26.4482 N   0  0  0  0  0  0  0  0  0  0  0  0
    5.6470  -12.8549   25.8263 C   0  0  0  0  0  0  0  0  0  0  0  0
    5.4051  -11.5049   25.5783 C   0  0  0  0  0  0  0  0  0  0  0  0
    6.3583  -10.7819   24.9012 C   0  0  0  0  0  0  0  0  0  0  0  0
    7.5261  -11.3750   24.4759 C   0  0  0  0  0  0  0  0  0  0  0  0
    7.7703  -12.7278   24.7241 C   0  0  0  0  0  0  0  0  0  0  0  0
    6.8068  -13.4504   25.4079 C   0  0  0  0  0  0  0  0  0  0  0  0
    8.9207  -17.1744   23.8612 C   0  0  0  0  0  0  0  0  0  0  0  0
    8.9560  -18.4474   23.9860 O   0  0  0  0  0  0  0  0  0  0  0  0
   10.0911  -16.5774   23.3631 N   0  0  0  0  0  0  0  0  0  0  0  0
   11.4171  -17.2402   23.4269 C   0  0  1  0  0  0  0  0  0  0  0  0
   12.2177  -16.5633   22.3620 C   0  0  0  0  0  0  0  0  0  0  0  0
   11.7299  -16.7064   20.9843 C   0  0  0  0  0  0  0  0  0  0  0  0
   11.4627  -17.8801   20.3172 C   0  0  0  0  0  0  0  0  0  0  0  0
   11.0583  -17.6150   19.0492 N   0  0  0  0  0  0  0  0  0  0  0  0
   11.0739  -16.2795   18.9254 C   0  0  0  0  0  0  0  0  0  0  0  0
   11.4751  -15.7259   20.0796 N   0  0  0  0  0  0  0  0  0  0  0  0
   11.8800  -17.0618   24.8066 C   0  0  0  0  0  0  0  0  0  0  0  0
   13.0784  -16.6867   25.0456 O   0  0  0  0  0  0  0  0  0  0  0  0
    9.8220  -13.6875   27.9926 C   0  0  0  0  0  0  0  0  0  0  0  0
   10.8734  -14.6303   27.3958 C   0  0  0  0  0  0  0  0  0  0  0  0
   10.8042  -15.9843   28.0406 C   0  0  2  0  0  0  0  0  0  0  0  0
   11.3069  -15.8662   29.4535 C   0  0  0  0  0  0  0  0  0  0  0  0
   11.6037  -17.0457   27.3197 C   0  0  2  0  0  0  0  0  0  0  0  0
   11.0699  -17.2748   25.9812 N   0  0  0  0  0  0  0  0  0  0  0  0
   11.8168  -18.2716   28.0933 C   0  0  0  0  0  0  0  0  0  0  0  0
   12.7734  -18.4472   29.0625 O   0  0  0  0  0  0  0  0  0  0  0  0
   11.0707  -19.2684   27.8673 O   0  0  0  0  0  0  0  0  0  0  0  0
  2  1  1  1
  3  2  1  0
  4  3  1  0
  5  4  2  0
  6  7  1  0
  6  5  1  0
  7 12  2  0
  8  9  2  0
  8  7  1  0
  9 10  1  0
 10 11  2  0
 12 11  1  0
 12  4  1  0
 13  2  1  0
 13 14  2  0
 15 13  1  0
 16 15  1  0
 16 17  1  6
 18 17  1  0
 19 18  2  0
 20 21  1  0
 20 19  1  0
 21 22  2  0
 22 18  1  0
 23 16  1  0
 24 23  2  0
 26 25  1  0
 27 26  1  0
 27 28  1  1
 29 27  1  0
 29 30  1  6
 30 23  1  0
 31 29  1  0
 32 31  1  0
 33 31  2  0
M  END
$$$$
