WHI.pdb
     RDKit          3D

 33 35  0  0  1  0  0  0  0  0999 V2000
    6.4016  -18.2876   24.2796 N   0  0  0  0  0  0  0  0  0  0  0  0
    7.3201  -17.1944   24.2354 C   0  0  1  0  0  0  0  0  0  0  0  0
    7.2629  -16.3962   25.4943 C   0  0  0  0  0  0  0  0  0  0  0  0
    6.7200  -15.0584   25.2267 C   0  0  0  0  0  0  0  0  0  0  0  0
    5.6476  -14.4702   25.9147 C   0  0  0  0  0  0  0  0  0  0  0  0
    5.4396  -13.2459   25.4463 N   0  0  0  0  0  0  0  0  0  0  0  0
    6.3297  -12.9911   24.4710 C   0  0  0  0  0  0  0  0  0  0  0  0
    6.5087  -11.8586   23.6785 C   0  0  0  0  0  0  0  0  0  0  0  0
    7.5075  -11.8709   22.7341 C   0  0  0  0  0  0  0  0  0  0  0  0
    8.3140  -12.9753   22.5717 C   0  0  0  0  0  0  0  0  0  0  0  0
    8.1362  -14.1108   23.3655 C   0  0  0  0  0  0  0  0  0  0  0  0
    7.1292  -14.0919   24.3161 C   0  0  0  0  0  0  0  0  0  0  0  0
    8.6844  -17.7331   23.9663 C   0  0  0  0  0  0  0  0  0  0  0  0
    9.0020  -18.9128   24.3468 O   0  0  0  0  0  0  0  0  0  0  0  0
    9.6909  -17.0158   23.2981 N   0  0  0  0  0  0  0  0  0  0  0  0
   11.1297  -17.3594   23.4136 C   0  0  1  0  0  0  0  0  0  0  0  0
   11.7651  -16.6778   22.2454 C   0  0  0  0  0  0  0  0  0  0  0  0
   11.2765  -17.0643   20.9155 C   0  0  0  0  0  0  0  0  0  0  0  0
   11.0892  -18.3423   20.4403 C   0  0  0  0  0  0  0  0  0  0  0  0
   10.6551  -18.3037   19.1552 N   0  0  0  0  0  0  0  0  0  0  0  0
   10.5726  -17.0053   18.8292 C   0  0  0  0  0  0  0  0  0  0  0  0
   10.9430  -16.2545   19.8774 N   0  0  0  0  0  0  0  0  0  0  0  0
   11.5390  -16.8965   24.7433 C   0  0  0  0  0  0  0  0  0  0  0  0
   12.1942  -15.8073   24.8779 O   0  0  0  0  0  0  0  0  0  0  0  0
   10.6410  -13.4209   28.4961 C   0  0  0  0  0  0  0  0  0  0  0  0
   10.8326  -14.9324   28.6666 C   0  0  0  0  0  0  0  0  0  0  0  0
   10.6930  -15.6404   27.3502 C   0  0  2  0  0  0  0  0  0  0  0  0
    9.2344  -15.9200   27.1111 C   0  0  0  0  0  0  0  0  0  0  0  0
   11.4636  -16.9385   27.2701 C   0  0  2  0  0  0  0  0  0  0  0  0
   11.2544  -17.5849   25.9787 N   0  0  0  0  0  0  0  0  0  0  0  0
   11.2713  -17.8276   28.4187 C   0  0  0  0  0  0  0  0  0  0  0  0
   10.7487  -19.0962   28.3670 O   0  0  0  0  0  0  0  0  0  0  0  0
   11.6053  -17.4147   29.5674 O   0  0  0  0  0  0  0  0  0  0  0  0
  2  1  1  1
  3  2  1  0
  4  3  1  0
  5  4  2  0
  6  7  1  0
  6  5  1  0
  7 12  2  0
  8  9  2  0
  8  7  1  0
  9 10  1  0
 10 11  2  0
 12 11  1  0
 12  4  1  0
 13  2  1  0
 13 14  2  0
 15 13  1  0
 16 15  1  0
 16 17  1  6
 18 17  1  0
 19 18  2  0
 20 21  1  0
 20 19  1  0
 21 22  2  0
 22 18  1  0
 23 16  1  0
 24 23  2  0
 26 25  1  0
 27 26  1  0
 27 28  1  1
 29 27  1  0
 29 30  1  6
 30 23  1  0
 31 29  1  0
 32 31  1  0
 33 31  2  0
M  END
$$$$
