WHI.pdb
     RDKit          3D

 33 35  0  0  1  0  0  0  0  0999 V2000
    6.2434  -17.7303   23.4435 N   0  0  0  0  0  0  0  0  0  0  0  0
    7.2060  -16.9729   22.7084 C   0  0  1  0  0  0  0  0  0  0  0  0
    6.8725  -15.5190   22.7298 C   0  0  0  0  0  0  0  0  0  0  0  0
    6.5923  -15.0794   24.1024 C   0  0  0  0  0  0  0  0  0  0  0  0
    6.0687  -15.8926   25.1192 C   0  0  0  0  0  0  0  0  0  0  0  0
    5.9741  -15.1912   26.2420 N   0  0  0  0  0  0  0  0  0  0  0  0
    6.4125  -13.9400   26.0172 C   0  0  0  0  0  0  0  0  0  0  0  0
    6.5031  -12.8426   26.8716 C   0  0  0  0  0  0  0  0  0  0  0  0
    6.9885  -11.6589   26.3688 C   0  0  0  0  0  0  0  0  0  0  0  0
    7.3766  -11.5561   25.0514 C   0  0  0  0  0  0  0  0  0  0  0  0
    7.2868  -12.6552   24.1940 C   0  0  0  0  0  0  0  0  0  0  0  0
    6.7984  -13.8453   24.7069 C   0  0  0  0  0  0  0  0  0  0  0  0
    8.5585  -17.2534   23.2708 C   0  0  0  0  0  0  0  0  0  0  0  0
    8.6932  -18.0327   24.2767 O   0  0  0  0  0  0  0  0  0  0  0  0
    9.7471  -16.7057   22.7596 N   0  0  0  0  0  0  0  0  0  0  0  0
   11.0824  -17.0256   23.3221 C   0  0  1  0  0  0  0  0  0  0  0  0
   12.0411  -16.5969   22.2590 C   0  0  0  0  0  0  0  0  0  0  0  0
   13.4217  -17.0805   22.3875 C   0  0  0  0  0  0  0  0  0  0  0  0
   14.5018  -16.3837   22.8792 C   0  0  0  0  0  0  0  0  0  0  0  0
   15.6206  -17.1488   22.8134 N   0  0  0  0  0  0  0  0  0  0  0  0
   15.2396  -18.3197   22.2813 C   0  0  0  0  0  0  0  0  0  0  0  0
   13.9237  -18.2887   22.0225 N   0  0  0  0  0  0  0  0  0  0  0  0
   11.1546  -16.3055   24.5973 C   0  0  0  0  0  0  0  0  0  0  0  0
   11.5782  -15.1002   24.6388 O   0  0  0  0  0  0  0  0  0  0  0  0
    8.9401  -13.1191   27.2727 C   0  0  0  0  0  0  0  0  0  0  0  0
   10.0329  -14.0507   26.7357 C   0  0  0  0  0  0  0  0  0  0  0  0
   10.2019  -15.2460   27.6283 C   0  0  2  0  0  0  0  0  0  0  0  0
   10.6192  -14.7679   28.9921 C   0  0  0  0  0  0  0  0  0  0  0  0
   11.2174  -16.2460   27.1241 C   0  0  2  0  0  0  0  0  0  0  0  0
   10.7690  -16.8529   25.8752 N   0  0  0  0  0  0  0  0  0  0  0  0
   11.6634  -17.2139   28.1296 C   0  0  0  0  0  0  0  0  0  0  0  0
   12.6562  -17.0034   29.0544 O   0  0  0  0  0  0  0  0  0  0  0  0
   11.1037  -18.3481   28.1693 O   0  0  0  0  0  0  0  0  0  0  0  0
  2  1  1  1
  3  2  1  0
  4  3  1  0
  5  4  2  0
  6  7  1  0
  6  5  1  0
  7 12  2  0
  8  9  2  0
  8  7  1  0
  9 10  1  0
 10 11  2  0
 12 11  1  0
 12  4  1  0
 13  2  1  0
 13 14  2  0
 15 13  1  0
 16 15  1  0
 16 17  1  6
 18 17  1  0
 19 18  2  0
 20 21  1  0
 20 19  1  0
 21 22  2  0
 22 18  1  0
 23 16  1  0
 24 23  2  0
 26 25  1  0
 27 26  1  0
 27 28  1  1
 29 27  1  0
 29 30  1  6
 30 23  1  0
 31 29  1  0
 32 31  1  0
 33 31  2  0
M  END
$$$$
