WHI.pdb
     RDKit          3D

 33 35  0  0  1  0  0  0  0  0999 V2000
-31964.980523783.9180-74565.1016 N   0  0  0  0  0  0  0  0  0  0  0  0
-31963.763723784.6719-74565.0156 C   0  0  1  0  0  0  0  0  0  0  0  0
-31963.808623785.5605-74563.7734 C   0  0  0  0  0  0  0  0  0  0  0  0
-31964.224623786.9414-74564.1719 C   0  0  0  0  0  0  0  0  0  0  0  0
-31964.414123787.3926-74565.4844 C   0  0  0  0  0  0  0  0  0  0  0  0
-31964.808623788.6445-74565.4609 N   0  0  0  0  0  0  0  0  0  0  0  0
-31964.941423789.0508-74564.1562 C   0  0  0  0  0  0  0  0  0  0  0  0
-31965.335923790.2715-74563.6094 C   0  0  0  0  0  0  0  0  0  0  0  0
-31965.345723790.4004-74562.2422 C   0  0  0  0  0  0  0  0  0  0  0  0
-31965.000023789.3418-74561.4219 C   0  0  0  0  0  0  0  0  0  0  0  0
-31964.560523788.1426-74561.9688 C   0  0  0  0  0  0  0  0  0  0  0  0
-31964.562523787.9961-74563.3594 C   0  0  0  0  0  0  0  0  0  0  0  0
-31962.584023783.7363-74564.9766 C   0  0  0  0  0  0  0  0  0  0  0  0
-31962.140623783.2734-74566.1094 O   0  0  0  0  0  0  0  0  0  0  0  0
-31961.933623783.3105-74563.8281 N   0  0  0  0  0  0  0  0  0  0  0  0
-31961.935523781.9062-74563.3594 C   0  0  1  0  0  0  0  0  0  0  0  0
-31961.763723781.1211-74564.6484 C   0  0  0  0  0  0  0  0  0  0  0  0
-31960.406223781.1211-74565.2266 C   0  0  0  0  0  0  0  0  0  0  0  0
-31959.414123780.1875-74565.1016 C   0  0  0  0  0  0  0  0  0  0  0  0
-31958.316423780.5547-74565.7969 N   0  0  0  0  0  0  0  0  0  0  0  0
-31958.605523781.7305-74566.3672 C   0  0  0  0  0  0  0  0  0  0  0  0
-31959.875023782.1094-74566.0312 N   0  0  0  0  0  0  0  0  0  0  0  0
-31960.851623781.7871-74562.3984 C   0  0  0  0  0  0  0  0  0  0  0  0
-31960.072323782.7715-74562.1484 O   0  0  0  0  0  0  0  0  0  0  0  0
-31957.156223781.5098-74559.5312 C   0  0  0  0  0  0  0  0  0  0  0  0
-31958.369123782.4238-74559.2422 C   0  0  0  0  0  0  0  0  0  0  0  0
-31959.654323781.7344-74559.6719 C   0  0  2  0  0  0  0  0  0  0  0  0
-31960.293023781.1836-74558.4062 C   0  0  0  0  0  0  0  0  0  0  0  0
-31959.476623780.5898-74560.6250 C   0  0  2  0  0  0  0  0  0  0  0  0
-31960.568423780.6113-74561.6250 N   0  0  0  0  0  0  0  0  0  0  0  0
-31959.242223779.2832-74560.0391 C   0  0  0  0  0  0  0  0  0  0  0  0
-31959.263723779.0195-74558.6797 O   0  0  0  0  0  0  0  0  0  0  0  0
-31959.000023778.3320-74560.7969 O   0  0  0  0  0  0  0  0  0  0  0  0
  2  1  1  1
  3  2  1  0
  4  3  1  0
  5  4  2  0
  6  7  1  0
  6  5  1  0
  7 12  2  0
  8  9  2  0
  8  7  1  0
  9 10  1  0
 10 11  2  0
 12 11  1  0
 12  4  1  0
 13  2  1  0
 13 14  2  0
 15 13  1  0
 16 15  1  0
 16 17  1  6
 18 17  1  0
 19 18  2  0
 20 21  1  0
 20 19  1  0
 21 22  2  0
 22 18  1  0
 23 16  1  0
 24 23  2  0
 26 25  1  0
 27 26  1  0
 27 28  1  1
 29 27  1  0
 29 30  1  1
 30 23  1  0
 31 29  1  0
 32 31  1  0
 33 31  2  0
M  END
$$$$
