WHI.pdb
     RDKit          3D

 33 35  0  0  1  0  0  0  0  0999 V2000
    8.1046  -16.3131   20.1191 N   0  0  0  0  0  0  0  0  0  0  0  0
    9.1601  -15.8045   20.9364 C   0  0  1  0  0  0  0  0  0  0  0  0
    8.9817  -14.3461   21.1947 C   0  0  0  0  0  0  0  0  0  0  0  0
    7.7937  -14.1162   22.0264 C   0  0  0  0  0  0  0  0  0  0  0  0
    6.4899  -14.5199   21.7002 C   0  0  0  0  0  0  0  0  0  0  0  0
    5.6644  -14.1870   22.6847 N   0  0  0  0  0  0  0  0  0  0  0  0
    6.3635  -13.5754   23.6570 C   0  0  0  0  0  0  0  0  0  0  0  0
    5.9480  -13.0424   24.8760 C   0  0  0  0  0  0  0  0  0  0  0  0
    6.8883  -12.4556   25.6891 C   0  0  0  0  0  0  0  0  0  0  0  0
    8.2110  -12.3936   25.3108 C   0  0  0  0  0  0  0  0  0  0  0  0
    8.6290  -12.9277   24.0897 C   0  0  0  0  0  0  0  0  0  0  0  0
    7.6773  -13.5188   23.2755 C   0  0  0  0  0  0  0  0  0  0  0  0
    9.2100  -16.6021   22.1956 C   0  0  0  0  0  0  0  0  0  0  0  0
    8.1443  -17.1235   22.6751 O   0  0  0  0  0  0  0  0  0  0  0  0
   10.3865  -16.8363   22.9271 N   0  0  0  0  0  0  0  0  0  0  0  0
   10.4254  -17.7191   24.1190 C   0  0  1  0  0  0  0  0  0  0  0  0
   11.3662  -18.8145   23.7343 C   0  0  0  0  0  0  0  0  0  0  0  0
   10.7856  -19.9539   23.0121 C   0  0  0  0  0  0  0  0  0  0  0  0
    9.4578  -20.1557   22.7121 C   0  0  0  0  0  0  0  0  0  0  0  0
    9.3000  -21.3365   22.0624 N   0  0  0  0  0  0  0  0  0  0  0  0
   10.5260  -21.8703   21.9579 C   0  0  0  0  0  0  0  0  0  0  0  0
   11.4233  -21.0494   22.5241 N   0  0  0  0  0  0  0  0  0  0  0  0
   10.8418  -16.8596   25.2316 C   0  0  0  0  0  0  0  0  0  0  0  0
   11.8381  -16.0692   25.1031 O   0  0  0  0  0  0  0  0  0  0  0  0
    9.4040  -12.7246   27.7853 C   0  0  0  0  0  0  0  0  0  0  0  0
   10.1986  -13.9133   27.2321 C   0  0  0  0  0  0  0  0  0  0  0  0
   10.2140  -15.0489   28.2139 C   0  0  2  0  0  0  0  0  0  0  0  0
   10.9154  -14.5902   29.4631 C   0  0  0  0  0  0  0  0  0  0  0  0
   10.8945  -16.2953   27.6955 C   0  0  2  0  0  0  0  0  0  0  0  0
   10.1990  -16.8139   26.5223 N   0  0  0  0  0  0  0  0  0  0  0  0
   11.1674  -17.3059   28.7207 C   0  0  0  0  0  0  0  0  0  0  0  0
   12.2587  -17.3227   29.5538 O   0  0  0  0  0  0  0  0  0  0  0  0
   10.3443  -18.2553   28.8701 O   0  0  0  0  0  0  0  0  0  0  0  0
  2  1  1  6
  3  2  1  0
  4  3  1  0
  5  4  2  0
  6  7  1  0
  6  5  1  0
  7 12  2  0
  8  9  2  0
  8  7  1  0
  9 10  1  0
 10 11  2  0
 12 11  1  0
 12  4  1  0
 13  2  1  0
 13 14  2  0
 15 13  1  0
 16 15  1  0
 16 17  1  6
 18 17  1  0
 19 18  2  0
 20 21  1  0
 20 19  1  0
 21 22  2  0
 22 18  1  0
 23 16  1  0
 24 23  2  0
 26 25  1  0
 27 26  1  0
 27 28  1  1
 29 27  1  0
 29 30  1  6
 30 23  1  0
 31 29  1  0
 32 31  1  0
 33 31  2  0
M  END
$$$$
