WHI.pdb
     RDKit          3D

 33 35  0  0  1  0  0  0  0  0999 V2000
    8.6123  -18.8602   19.1575 N   0  0  0  0  0  0  0  0  0  0  0  0
    8.7483  -17.6003   19.8171 C   0  0  1  0  0  0  0  0  0  0  0  0
    7.7442  -16.6201   19.3109 C   0  0  0  0  0  0  0  0  0  0  0  0
    8.1549  -15.2502   19.6435 C   0  0  0  0  0  0  0  0  0  0  0  0
    9.0722  -14.4822   18.9099 C   0  0  0  0  0  0  0  0  0  0  0  0
    9.1869  -13.2816   19.4640 N   0  0  0  0  0  0  0  0  0  0  0  0
    8.3835  -13.2154   20.5403 C   0  0  0  0  0  0  0  0  0  0  0  0
    8.1615  -12.1786   21.4450 C   0  0  0  0  0  0  0  0  0  0  0  0
    7.2782  -12.3876   22.4773 C   0  0  0  0  0  0  0  0  0  0  0  0
    6.6264  -13.5927   22.6176 C   0  0  0  0  0  0  0  0  0  0  0  0
    6.8475  -14.6325   21.7115 C   0  0  0  0  0  0  0  0  0  0  0  0
    7.7374  -14.4153   20.6728 C   0  0  0  0  0  0  0  0  0  0  0  0
    8.6347  -17.8213   21.2876 C   0  0  0  0  0  0  0  0  0  0  0  0
    7.6346  -18.4554   21.7723 O   0  0  0  0  0  0  0  0  0  0  0  0
    9.5815  -17.3689   22.2220 N   0  0  0  0  0  0  0  0  0  0  0  0
    9.4972  -17.6927   23.6676 C   0  0  1  0  0  0  0  0  0  0  0  0
   10.5229  -18.7612   23.8651 C   0  0  0  0  0  0  0  0  0  0  0  0
   10.7390  -19.2157   25.2447 C   0  0  0  0  0  0  0  0  0  0  0  0
   11.8093  -18.9188   26.0573 C   0  0  0  0  0  0  0  0  0  0  0  0
   11.6749  -19.5446   27.2539 N   0  0  0  0  0  0  0  0  0  0  0  0
   10.5242  -20.2306   27.1877 C   0  0  0  0  0  0  0  0  0  0  0  0
    9.9559  -20.0401   25.9876 N   0  0  0  0  0  0  0  0  0  0  0  0
    9.7287  -16.4258   24.3685 C   0  0  0  0  0  0  0  0  0  0  0  0
   10.6559  -15.6330   23.9867 O   0  0  0  0  0  0  0  0  0  0  0  0
    6.5148  -12.4250   25.8087 C   0  0  0  0  0  0  0  0  0  0  0  0
    7.7517  -13.2516   25.4384 C   0  0  0  0  0  0  0  0  0  0  0  0
    8.3471  -13.8969   26.6562 C   0  0  2  0  0  0  0  0  0  0  0  0
    8.8822  -12.8163   27.5554 C   0  0  0  0  0  0  0  0  0  0  0  0
    9.4566  -14.8763   26.3477 C   0  0  2  0  0  0  0  0  0  0  0  0
    8.9682  -15.9612   25.5030 N   0  0  0  0  0  0  0  0  0  0  0  0
   10.2079  -15.3281   27.5217 C   0  0  0  0  0  0  0  0  0  0  0  0
   11.2743  -14.6735   28.0868 O   0  0  0  0  0  0  0  0  0  0  0  0
    9.8664  -16.4112   28.0799 O   0  0  0  0  0  0  0  0  0  0  0  0
  2  1  1  6
  3  2  1  0
  4  3  1  0
  5  4  2  0
  6  7  1  0
  6  5  1  0
  7 12  2  0
  8  9  2  0
  8  7  1  0
  9 10  1  0
 10 11  2  0
 12 11  1  0
 12  4  1  0
 13  2  1  0
 13 14  2  0
 15 13  1  0
 16 15  1  0
 16 17  1  1
 18 17  1  0
 19 18  2  0
 20 21  1  0
 20 19  1  0
 21 22  2  0
 22 18  1  0
 23 16  1  0
 24 23  2  0
 26 25  1  0
 27 26  1  0
 27 28  1  1
 29 27  1  0
 29 30  1  1
 30 23  1  0
 31 29  1  0
 32 31  1  0
 33 31  2  0
M  END
$$$$
