WHI.pdb
     RDKit          3D

 33 35  0  0  1  0  0  0  0  0999 V2000
    8.3003  -18.6947   20.0566 N   0  0  0  0  0  0  0  0  0  0  0  0
    8.2798  -17.4187   20.6985 C   0  0  1  0  0  0  0  0  0  0  0  0
    7.0777  -16.6344   20.2919 C   0  0  0  0  0  0  0  0  0  0  0  0
    7.4659  -15.2771   19.8881 C   0  0  0  0  0  0  0  0  0  0  0  0
    7.7313  -14.8719   18.5711 C   0  0  0  0  0  0  0  0  0  0  0  0
    8.0174  -13.5760   18.5561 N   0  0  0  0  0  0  0  0  0  0  0  0
    7.9551  -13.0973   19.8112 C   0  0  0  0  0  0  0  0  0  0  0  0
    8.1777  -11.8131   20.3051 C   0  0  0  0  0  0  0  0  0  0  0  0
    8.0524  -11.6003   21.6574 C   0  0  0  0  0  0  0  0  0  0  0  0
    7.7153  -12.6301   22.5073 C   0  0  0  0  0  0  0  0  0  0  0  0
    7.4914  -13.9176   22.0138 C   0  0  0  0  0  0  0  0  0  0  0  0
    7.6179  -14.1253   20.6504 C   0  0  0  0  0  0  0  0  0  0  0  0
    8.3480  -17.6296   22.1732 C   0  0  0  0  0  0  0  0  0  0  0  0
    7.2803  -17.6263   22.8784 O   0  0  0  0  0  0  0  0  0  0  0  0
    9.5445  -17.8416   22.8786 N   0  0  0  0  0  0  0  0  0  0  0  0
    9.5784  -18.0868   24.3416 C   0  0  1  0  0  0  0  0  0  0  0  0
   10.6812  -19.0788   24.5223 C   0  0  0  0  0  0  0  0  0  0  0  0
   10.9749  -19.4888   25.9015 C   0  0  0  0  0  0  0  0  0  0  0  0
   10.3276  -19.0775   27.0443 C   0  0  0  0  0  0  0  0  0  0  0  0
   10.8993  -19.6467   28.1354 N   0  0  0  0  0  0  0  0  0  0  0  0
   11.9010  -20.4104   27.6747 C   0  0  0  0  0  0  0  0  0  0  0  0
   11.9546  -20.3225   26.3372 N   0  0  0  0  0  0  0  0  0  0  0  0
    9.7751  -16.7704   24.9565 C   0  0  0  0  0  0  0  0  0  0  0  0
   10.6178  -15.9443   24.4654 O   0  0  0  0  0  0  0  0  0  0  0  0
    6.4535  -12.8632   25.7023 C   0  0  0  0  0  0  0  0  0  0  0  0
    7.7095  -13.7259   25.5322 C   0  0  0  0  0  0  0  0  0  0  0  0
    8.2863  -14.0987   26.8672 C   0  0  2  0  0  0  0  0  0  0  0  0
    8.7254  -12.8407   27.5654 C   0  0  0  0  0  0  0  0  0  0  0  0
    9.4579  -15.0502   26.7821 C   0  0  2  0  0  0  0  0  0  0  0  0
    9.0690  -16.2908   26.1195 N   0  0  0  0  0  0  0  0  0  0  0  0
   10.1685  -15.2489   28.0479 C   0  0  0  0  0  0  0  0  0  0  0  0
   11.1901  -14.4631   28.5212 O   0  0  0  0  0  0  0  0  0  0  0  0
    9.8328  -16.2210   28.7853 O   0  0  0  0  0  0  0  0  0  0  0  0
  2  1  1  6
  3  2  1  0
  4  3  1  0
  5  4  2  0
  6  7  1  0
  6  5  1  0
  7 12  2  0
  8  9  2  0
  8  7  1  0
  9 10  1  0
 10 11  2  0
 12 11  1  0
 12  4  1  0
 13  2  1  0
 13 14  2  0
 15 13  1  0
 16 15  1  0
 16 17  1  6
 18 17  1  0
 19 18  2  0
 20 21  1  0
 20 19  1  0
 21 22  2  0
 22 18  1  0
 23 16  1  0
 24 23  2  0
 26 25  1  0
 27 26  1  0
 27 28  1  6
 29 27  1  0
 29 30  1  1
 30 23  1  0
 31 29  1  0
 32 31  1  0
 33 31  2  0
M  END
$$$$
