WHI.pdb
     RDKit          3D

 33 35  0  0  1  0  0  0  0  0999 V2000
    5.9702  -17.8560   25.0962 N   0  0  0  0  0  0  0  0  0  0  0  0
    6.7990  -16.7637   24.6955 C   0  0  1  0  0  0  0  0  0  0  0  0
    7.1106  -15.8758   25.8531 C   0  0  0  0  0  0  0  0  0  0  0  0
    6.3053  -14.6497   25.7876 C   0  0  0  0  0  0  0  0  0  0  0  0
    4.9162  -14.5857   25.9759 C   0  0  0  0  0  0  0  0  0  0  0  0
    4.5152  -13.3237   25.8853 N   0  0  0  0  0  0  0  0  0  0  0  0
    5.5807  -12.5400   25.6427 C   0  0  0  0  0  0  0  0  0  0  0  0
    5.6709  -11.1610   25.4619 C   0  0  0  0  0  0  0  0  0  0  0  0
    6.9066  -10.6120   25.2146 C   0  0  0  0  0  0  0  0  0  0  0  0
    8.0315  -11.4035   25.1457 C   0  0  0  0  0  0  0  0  0  0  0  0
    7.9427  -12.7857   25.3272 C   0  0  0  0  0  0  0  0  0  0  0  0
    6.6952  -13.3327   25.5774 C   0  0  0  0  0  0  0  0  0  0  0  0
    8.0284  -17.3129   24.0543 C   0  0  0  0  0  0  0  0  0  0  0  0
    8.4846  -18.4569   24.4014 O   0  0  0  0  0  0  0  0  0  0  0  0
    8.7552  -16.6436   23.0553 N   0  0  0  0  0  0  0  0  0  0  0  0
   10.1965  -16.8959   22.8093 C   0  0  1  0  0  0  0  0  0  0  0  0
   10.4738  -16.2074   21.5124 C   0  0  0  0  0  0  0  0  0  0  0  0
   11.7908  -16.4502   20.9096 C   0  0  0  0  0  0  0  0  0  0  0  0
   12.7902  -17.2597   21.3994 C   0  0  0  0  0  0  0  0  0  0  0  0
   13.8741  -17.2085   20.5846 N   0  0  0  0  0  0  0  0  0  0  0  0
   13.5521  -16.3688   19.5895 C   0  0  0  0  0  0  0  0  0  0  0  0
   12.3057  -15.9089   19.7752 N   0  0  0  0  0  0  0  0  0  0  0  0
   10.8939  -16.3746   23.9891 C   0  0  0  0  0  0  0  0  0  0  0  0
   11.1746  -15.1309   24.0800 O   0  0  0  0  0  0  0  0  0  0  0  0
    9.4464  -14.2974   27.9787 C   0  0  0  0  0  0  0  0  0  0  0  0
   10.3885  -14.7803   26.8697 C   0  0  0  0  0  0  0  0  0  0  0  0
   11.0888  -16.0443   27.2765 C   0  0  2  0  0  0  0  0  0  0  0  0
   11.8495  -15.7807   28.5472 C   0  0  0  0  0  0  0  0  0  0  0  0
   12.0429  -16.5773   26.2320 C   0  0  2  0  0  0  0  0  0  0  0  0
   11.3108  -17.1704   25.1179 N   0  0  0  0  0  0  0  0  0  0  0  0
   13.1083  -17.4301   26.7654 C   0  0  0  0  0  0  0  0  0  0  0  0
   14.2035  -16.9928   27.4685 O   0  0  0  0  0  0  0  0  0  0  0  0
   13.0378  -18.6791   26.5742 O   0  0  0  0  0  0  0  0  0  0  0  0
  2  1  1  1
  3  2  1  0
  4  3  1  0
  5  4  2  0
  6  7  1  0
  6  5  1  0
  7 12  2  0
  8  9  2  0
  8  7  1  0
  9 10  1  0
 10 11  2  0
 12 11  1  0
 12  4  1  0
 13  2  1  0
 13 14  2  0
 15 13  1  0
 16 15  1  0
 16 17  1  6
 18 17  1  0
 19 18  2  0
 20 21  1  0
 20 19  1  0
 21 22  2  0
 22 18  1  0
 23 16  1  0
 24 23  2  0
 26 25  1  0
 27 26  1  0
 27 28  1  1
 29 27  1  0
 29 30  1  6
 30 23  1  0
 31 29  1  0
 32 31  1  0
 33 31  2  0
M  END
$$$$
