WHI.pdb
     RDKit          3D

 33 35  0  0  1  0  0  0  0  0999 V2000
    6.0296  -17.7129   25.1191 N   0  0  0  0  0  0  0  0  0  0  0  0
    6.9252  -16.6967   24.6652 C   0  0  1  0  0  0  0  0  0  0  0  0
    7.4060  -15.8601   25.8029 C   0  0  0  0  0  0  0  0  0  0  0  0
    6.4827  -14.7436   26.0417 C   0  0  0  0  0  0  0  0  0  0  0  0
    5.1849  -14.8666   26.5612 C   0  0  0  0  0  0  0  0  0  0  0  0
    4.6409  -13.6621   26.6823 N   0  0  0  0  0  0  0  0  0  0  0  0
    5.5226  -12.7371   26.2636 C   0  0  0  0  0  0  0  0  0  0  0  0
    5.4166  -11.3493   26.1908 C   0  0  0  0  0  0  0  0  0  0  0  0
    6.4863  -10.6350   25.7058 C   0  0  0  0  0  0  0  0  0  0  0  0
    7.6373  -11.2729   25.2997 C   0  0  0  0  0  0  0  0  0  0  0  0
    7.7452  -12.6637   25.3725 C   0  0  0  0  0  0  0  0  0  0  0  0
    6.6647  -13.3776   25.8633 C   0  0  0  0  0  0  0  0  0  0  0  0
    8.0451  -17.3482   23.9267 C   0  0  0  0  0  0  0  0  0  0  0  0
    8.4851  -18.4922   24.2943 O   0  0  0  0  0  0  0  0  0  0  0  0
    8.6813  -16.7797   22.8104 N   0  0  0  0  0  0  0  0  0  0  0  0
   10.1292  -16.9564   22.5383 C   0  0  1  0  0  0  0  0  0  0  0  0
   10.3322  -16.3194   21.2019 C   0  0  0  0  0  0  0  0  0  0  0  0
   11.6792  -16.4197   20.6255 C   0  0  0  0  0  0  0  0  0  0  0  0
   12.7905  -16.9843   21.2087 C   0  0  0  0  0  0  0  0  0  0  0  0
   13.8625  -16.8628   20.3857 N   0  0  0  0  0  0  0  0  0  0  0  0
   13.4214  -16.2234   19.2922 C   0  0  0  0  0  0  0  0  0  0  0  0
   12.1142  -15.9535   19.4263 N   0  0  0  0  0  0  0  0  0  0  0  0
   10.8210  -16.3343   23.6716 C   0  0  0  0  0  0  0  0  0  0  0  0
   10.4860  -15.1689   24.0758 O   0  0  0  0  0  0  0  0  0  0  0  0
   10.9395  -13.9532   28.0454 C   0  0  0  0  0  0  0  0  0  0  0  0
   11.8077  -15.1894   27.7840 C   0  0  0  0  0  0  0  0  0  0  0  0
   11.3318  -15.9289   26.5673 C   0  0  2  0  0  0  0  0  0  0  0  0
   10.6166  -17.1743   27.0152 C   0  0  0  0  0  0  0  0  0  0  0  0
   12.4400  -16.3126   25.6133 C   0  0  2  0  0  0  0  0  0  0  0  0
   11.8955  -16.9445   24.4161 N   0  0  0  0  0  0  0  0  0  0  0  0
   13.5393  -17.0578   26.2322 C   0  0  0  0  0  0  0  0  0  0  0  0
   14.4969  -16.5262   27.0601 O   0  0  0  0  0  0  0  0  0  0  0  0
   13.6383  -18.2976   25.9984 O   0  0  0  0  0  0  0  0  0  0  0  0
  2  1  1  1
  3  2  1  0
  4  3  1  0
  5  4  2  0
  6  7  1  0
  6  5  1  0
  7 12  2  0
  8  9  2  0
  8  7  1  0
  9 10  1  0
 10 11  2  0
 12 11  1  0
 12  4  1  0
 13  2  1  0
 13 14  2  0
 15 13  1  0
 16 15  1  0
 16 17  1  6
 18 17  1  0
 19 18  2  0
 20 21  1  0
 20 19  1  0
 21 22  2  0
 22 18  1  0
 23 16  1  0
 24 23  2  0
 26 25  1  0
 27 26  1  0
 27 28  1  1
 29 27  1  0
 29 30  1  6
 30 23  1  0
 31 29  1  0
 32 31  1  0
 33 31  2  0
M  END
$$$$
