WHI.pdb
     RDKit          3D

 33 35  0  0  1  0  0  0  0  0999 V2000
    6.5157  -17.9946   23.6237 N   0  0  0  0  0  0  0  0  0  0  0  0
    7.3961  -16.9206   23.9585 C   0  0  1  0  0  0  0  0  0  0  0  0
    7.1771  -16.4670   25.3626 C   0  0  0  0  0  0  0  0  0  0  0  0
    6.3944  -15.2248   25.3819 C   0  0  0  0  0  0  0  0  0  0  0  0
    5.1716  -15.0519   26.0483 C   0  0  0  0  0  0  0  0  0  0  0  0
    4.7551  -13.8015   25.8912 N   0  0  0  0  0  0  0  0  0  0  0  0
    5.6503  -13.1303   25.1451 C   0  0  0  0  0  0  0  0  0  0  0  0
    5.6565  -11.8073   24.7065 C   0  0  0  0  0  0  0  0  0  0  0  0
    6.7100  -11.3777   23.9352 C   0  0  0  0  0  0  0  0  0  0  0  0
    7.7370  -12.2323   23.6010 C   0  0  0  0  0  0  0  0  0  0  0  0
    7.7324  -13.5583   24.0402 C   0  0  0  0  0  0  0  0  0  0  0  0
    6.6690  -13.9848   24.8182 C   0  0  0  0  0  0  0  0  0  0  0  0
    8.7989  -17.3662   23.7181 C   0  0  0  0  0  0  0  0  0  0  0  0
    9.1265  -18.5923   23.8817 O   0  0  0  0  0  0  0  0  0  0  0  0
    9.8328  -16.5079   23.3076 N   0  0  0  0  0  0  0  0  0  0  0  0
   11.2638  -16.8967   23.3595 C   0  0  1  0  0  0  0  0  0  0  0  0
   11.9067  -16.0754   22.2895 C   0  0  0  0  0  0  0  0  0  0  0  0
   11.5259  -16.3871   20.9058 C   0  0  0  0  0  0  0  0  0  0  0  0
   11.6583  -17.5962   20.2619 C   0  0  0  0  0  0  0  0  0  0  0  0
   11.2257  -17.4925   18.9799 N   0  0  0  0  0  0  0  0  0  0  0  0
   10.8252  -16.2219   18.8242 C   0  0  0  0  0  0  0  0  0  0  0  0
   11.0011  -15.5513   19.9726 N   0  0  0  0  0  0  0  0  0  0  0  0
   11.6938  -16.6308   24.7358 C   0  0  0  0  0  0  0  0  0  0  0  0
   12.7838  -16.0038   24.9653 O   0  0  0  0  0  0  0  0  0  0  0  0
   11.2329  -13.1063   27.9944 C   0  0  0  0  0  0  0  0  0  0  0  0
   11.6656  -14.3693   27.2407 C   0  0  0  0  0  0  0  0  0  0  0  0
   11.1120  -15.6000   27.8986 C   0  0  2  0  0  0  0  0  0  0  0  0
   11.5438  -15.6061   29.3396 C   0  0  0  0  0  0  0  0  0  0  0  0
   11.5512  -16.8913   27.2466 C   0  0  2  0  0  0  0  0  0  0  0  0
   10.9650  -17.0243   25.9170 N   0  0  0  0  0  0  0  0  0  0  0  0
   11.3909  -18.0791   28.0893 C   0  0  0  0  0  0  0  0  0  0  0  0
   12.1893  -18.4151   29.1546 O   0  0  0  0  0  0  0  0  0  0  0  0
   10.4454  -18.8803   27.8339 O   0  0  0  0  0  0  0  0  0  0  0  0
  2  1  1  1
  3  2  1  0
  4  3  1  0
  5  4  2  0
  6  7  1  0
  6  5  1  0
  7 12  2  0
  8  9  2  0
  8  7  1  0
  9 10  1  0
 10 11  2  0
 12 11  1  0
 12  4  1  0
 13  2  1  0
 13 14  2  0
 15 13  1  0
 16 15  1  0
 16 17  1  6
 18 17  1  0
 19 18  2  0
 20 21  1  0
 20 19  1  0
 21 22  2  0
 22 18  1  0
 23 16  1  0
 24 23  2  0
 26 25  1  0
 27 26  1  0
 27 28  1  1
 29 27  1  0
 29 30  1  6
 30 23  1  0
 31 29  1  0
 32 31  1  0
 33 31  2  0
M  END
$$$$
