EPI.pdb
     RDKit          3D

 25 25  0  0  1  0  0  0  0  0999 V2000
   18.6192  -10.7220  -15.2923 N   0  0  0  0  0  0  0  0  0  0  0  0
   18.9549   -9.3779  -15.0288 C   0  0  1  0  0  0  0  0  0  0  0  0
   18.4146   -8.3541  -15.9911 C   0  0  0  0  0  0  0  0  0  0  0  0
   18.5996   -8.6201  -17.4312 C   0  0  0  0  0  0  0  0  0  0  0  0
   18.1007   -7.5851  -18.3393 C   0  0  0  0  0  0  0  0  0  0  0  0
   18.0350   -7.8741  -19.5818 O   0  0  0  0  0  0  0  0  0  0  0  0
   18.9362   -8.9181  -13.6349 C   0  0  0  0  0  0  0  0  0  0  0  0
   18.2894   -9.7105  -12.8360 O   0  0  0  0  0  0  0  0  0  0  0  0
   17.6842   -6.3146  -18.0023 O   0  0  0  0  0  0  0  0  0  0  0  0
   19.4882   -7.7862  -13.0438 N   0  0  0  0  0  0  0  0  0  0  0  0
   20.1816   -6.6967  -13.6520 C   0  0  0  0  0  0  0  0  0  0  0  0
   21.0890   -6.1778  -12.5567 C   0  0  0  0  0  0  0  0  0  0  0  0
   20.7944   -6.9836  -11.3320 C   0  0  0  0  0  0  0  0  0  0  0  0
   19.4055   -7.4838  -11.6239 C   0  0  1  0  0  0  0  0  0  0  0  0
   18.4153   -6.4264  -11.3428 C   0  0  0  0  0  0  0  0  0  0  0  0
   18.2048   -5.4089  -12.0296 O   0  0  0  0  0  0  0  0  0  0  0  0
   14.0102   -8.4389   -8.7891 C   0  0  0  0  0  0  0  0  0  0  0  0
   15.3238   -7.6782   -8.8234 C   0  0  0  0  0  0  0  0  0  0  0  0
   15.1862   -6.6098   -9.9031 C   0  0  2  0  0  0  0  0  0  0  0  0
   14.9499   -7.3115  -11.2283 C   0  0  0  0  0  0  0  0  0  0  0  0
   16.4472   -5.7590   -9.9561 C   0  0  2  0  0  0  0  0  0  0  0  0
   17.6217   -6.5893  -10.1670 N   0  0  0  0  0  0  0  0  0  0  0  0
   16.5935   -5.1539   -8.5818 C   0  0  0  0  0  0  0  0  0  0  0  0
   17.5434   -5.6221   -7.6856 O   0  0  0  0  0  0  0  0  0  0  0  0
   15.8608   -4.2061   -8.2021 O   0  0  0  0  0  0  0  0  0  0  0  0
  2  7  1  0
  2  1  1  1
  3  2  1  0
  4  3  1  0
  5  9  1  0
  5  4  1  0
  6  5  2  0
  7  8  2  0
 10 14  1  0
 10  7  1  0
 11 10  1  0
 12 11  1  0
 12 13  1  0
 13 14  1  0
 15 22  1  0
 14 15  1  6
 16 15  2  0
 17 18  1  0
 19 18  1  0
 19 20  1  6
 21 22  1  1
 21 19  1  0
 23 21  1  0
 24 23  1  0
 25 23  2  0
M  END
$$$$
