EPI.pdb
     RDKit          3D

 25 25  0  0  1  0  0  0  0  0999 V2000
   23.8145  -22.8667  -13.7670 N   0  0  0  0  0  0  0  0  0  0  0  0
   24.6144  -21.7554  -13.4297 C   0  0  1  0  0  0  0  0  0  0  0  0
   23.9321  -20.4136  -13.4422 C   0  0  0  0  0  0  0  0  0  0  0  0
   22.4661  -20.4054  -13.6142 C   0  0  0  0  0  0  0  0  0  0  0  0
   21.6816  -20.2522  -12.3870 C   0  0  0  0  0  0  0  0  0  0  0  0
   21.9831  -19.2818  -11.6131 O   0  0  0  0  0  0  0  0  0  0  0  0
   25.5731  -21.8991  -12.3273 C   0  0  0  0  0  0  0  0  0  0  0  0
   25.2940  -22.8773  -11.5215 O   0  0  0  0  0  0  0  0  0  0  0  0
   20.6362  -21.0459  -11.9648 O   0  0  0  0  0  0  0  0  0  0  0  0
   26.7114  -21.1644  -12.0114 N   0  0  0  0  0  0  0  0  0  0  0  0
   27.2328  -19.9925  -12.6379 C   0  0  0  0  0  0  0  0  0  0  0  0
   28.7196  -20.0539  -12.3587 C   0  0  0  0  0  0  0  0  0  0  0  0
   28.9502  -21.2574  -11.5017 C   0  0  0  0  0  0  0  0  0  0  0  0
   27.5899  -21.4612  -10.8914 C   0  0  1  0  0  0  0  0  0  0  0  0
   27.3901  -20.5220   -9.7708 C   0  0  0  0  0  0  0  0  0  0  0  0
   26.6331  -19.5330   -9.7609 O   0  0  0  0  0  0  0  0  0  0  0  0
   28.8372  -21.2847   -3.7709 C   0  0  0  0  0  0  0  0  0  0  0  0
   27.8145  -20.8641   -4.8114 C   0  0  0  0  0  0  0  0  0  0  0  0
   28.4406  -21.1283   -6.1767 C   0  0  2  0  0  0  0  0  0  0  0  0
   29.7750  -20.4063   -6.2272 C   0  0  0  0  0  0  0  0  0  0  0  0
   27.5134  -20.6342   -7.2781 C   0  0  2  0  0  0  0  0  0  0  0  0
   28.1398  -20.7754   -8.5822 N   0  0  0  0  0  0  0  0  0  0  0  0
   27.3471  -19.1532   -7.0425 C   0  0  0  0  0  0  0  0  0  0  0  0
   28.1921  -18.2292   -7.6397 O   0  0  0  0  0  0  0  0  0  0  0  0
   26.4386  -18.7065   -6.2979 O   0  0  0  0  0  0  0  0  0  0  0  0
  2  7  1  0
  2  1  1  1
  3  2  1  0
  4  3  1  0
  5  9  1  0
  5  4  1  0
  6  5  2  0
  7  8  2  0
 10 14  1  0
 10  7  1  0
 11 10  1  0
 12 11  1  0
 12 13  1  0
 13 14  1  0
 15 22  1  0
 14 15  1  1
 16 15  2  0
 17 18  1  0
 19 18  1  0
 19 20  1  1
 21 22  1  6
 21 19  1  0
 23 21  1  0
 24 23  1  0
 25 23  2  0
M  END
$$$$
