EPI.pdb
     RDKit          3D

 25 25  0  0  1  0  0  0  0  0999 V2000
   24.0858  -22.6329  -13.1480 N   0  0  0  0  0  0  0  0  0  0  0  0
   25.0536  -21.6413  -12.8863 C   0  0  1  0  0  0  0  0  0  0  0  0
   24.6128  -20.2136  -13.0694 C   0  0  0  0  0  0  0  0  0  0  0  0
   23.1995  -19.9863  -13.4294 C   0  0  0  0  0  0  0  0  0  0  0  0
   22.2405  -20.0633  -12.3252 C   0  0  0  0  0  0  0  0  0  0  0  0
   21.2436  -20.8494  -12.4652 O   0  0  0  0  0  0  0  0  0  0  0  0
   25.9378  -21.8225  -11.7286 C   0  0  0  0  0  0  0  0  0  0  0  0
   25.4889  -22.6781  -10.8621 O   0  0  0  0  0  0  0  0  0  0  0  0
   22.2918  -19.3760  -11.1310 O   0  0  0  0  0  0  0  0  0  0  0  0
   27.1574  -21.2311  -11.4150 N   0  0  0  0  0  0  0  0  0  0  0  0
   27.8686  -20.2058  -12.1082 C   0  0  0  0  0  0  0  0  0  0  0  0
   29.3182  -20.4517  -11.7468 C   0  0  0  0  0  0  0  0  0  0  0  0
   29.3364  -21.5940  -10.7820 C   0  0  0  0  0  0  0  0  0  0  0  0
   27.9375  -21.5477  -10.2295 C   0  0  1  0  0  0  0  0  0  0  0  0
   27.8316  -20.4930   -9.2028 C   0  0  0  0  0  0  0  0  0  0  0  0
   27.3959  -19.3383   -9.3709 O   0  0  0  0  0  0  0  0  0  0  0  0
   27.9410  -22.4623   -3.7412 C   0  0  0  0  0  0  0  0  0  0  0  0
   27.3068  -21.8237   -4.9641 C   0  0  0  0  0  0  0  0  0  0  0  0
   28.2646  -20.7365   -5.4401 C   0  0  2  0  0  0  0  0  0  0  0  0
   28.3663  -19.6902   -4.3450 C   0  0  0  0  0  0  0  0  0  0  0  0
   27.7503  -20.1208   -6.7337 C   0  0  2  0  0  0  0  0  0  0  0  0
   28.2724  -20.8335   -7.8880 N   0  0  0  0  0  0  0  0  0  0  0  0
   28.3354  -18.7312   -6.7893 C   0  0  0  0  0  0  0  0  0  0  0  0
   29.5713  -18.4926   -7.3727 O   0  0  0  0  0  0  0  0  0  0  0  0
   27.7242  -17.7435   -6.3096 O   0  0  0  0  0  0  0  0  0  0  0  0
  2  7  1  0
  2  1  1  1
  3  2  1  0
  4  3  1  0
  5  9  1  0
  5  4  1  0
  6  5  2  0
  7  8  2  0
 10 14  1  0
 10  7  1  0
 11 10  1  0
 12 11  1  0
 12 13  1  0
 13 14  1  0
 15 22  1  0
 14 15  1  1
 16 15  2  0
 17 18  1  0
 19 18  1  0
 19 20  1  1
 21 22  1  6
 21 19  1  0
 23 21  1  0
 24 23  1  0
 25 23  2  0
M  END
$$$$
