EPI.pdb
     RDKit          3D

 25 25  0  0  1  0  0  0  0  0999 V2000
   28.9529  -22.9071  -18.1199 N   0  0  0  0  0  0  0  0  0  0  0  0
   27.9666  -21.9751  -17.7363 C   0  0  1  0  0  0  0  0  0  0  0  0
   26.5870  -22.1944  -18.2976 C   0  0  0  0  0  0  0  0  0  0  0  0
   26.2534  -21.4978  -19.5554 C   0  0  0  0  0  0  0  0  0  0  0  0
   25.8101  -22.3529  -20.6588 C   0  0  0  0  0  0  0  0  0  0  0  0
   24.7567  -23.0515  -20.4754 O   0  0  0  0  0  0  0  0  0  0  0  0
   27.9502  -21.5156  -16.3423 C   0  0  0  0  0  0  0  0  0  0  0  0
   28.4140  -22.3898  -15.5026 O   0  0  0  0  0  0  0  0  0  0  0  0
   26.4069  -22.4911  -21.8940 O   0  0  0  0  0  0  0  0  0  0  0  0
   27.5209  -20.3149  -15.7861 N   0  0  0  0  0  0  0  0  0  0  0  0
   26.8414  -19.2238  -16.4070 C   0  0  0  0  0  0  0  0  0  0  0  0
   27.2376  -18.0208  -15.5776 C   0  0  0  0  0  0  0  0  0  0  0  0
   28.0876  -18.5282  -14.4569 C   0  0  0  0  0  0  0  0  0  0  0  0
   27.6618  -19.9695  -14.3807 C   0  0  1  0  0  0  0  0  0  0  0  0
   26.3822  -20.0833  -13.6546 C   0  0  0  0  0  0  0  0  0  0  0  0
   25.2512  -20.1995  -14.1632 O   0  0  0  0  0  0  0  0  0  0  0  0
   24.8803  -20.8706   -7.6706 C   0  0  0  0  0  0  0  0  0  0  0  0
   24.5403  -21.1003   -9.1325 C   0  0  0  0  0  0  0  0  0  0  0  0
   25.7076  -20.5533   -9.9475 C   0  0  2  0  0  0  0  0  0  0  0  0
   25.8947  -19.0936   -9.5755 C   0  0  0  0  0  0  0  0  0  0  0  0
   25.4182  -20.7023  -11.4345 C   0  0  2  0  0  0  0  0  0  0  0  0
   26.4513  -20.0581  -12.2286 N   0  0  0  0  0  0  0  0  0  0  0  0
   24.1450  -19.9326  -11.6851 C   0  0  0  0  0  0  0  0  0  0  0  0
   24.1712  -18.6420  -12.1933 O   0  0  0  0  0  0  0  0  0  0  0  0
   23.0182  -20.4336  -11.4424 O   0  0  0  0  0  0  0  0  0  0  0  0
  2  7  1  0
  2  1  1  1
  3  2  1  0
  4  3  1  0
  5  9  1  0
  5  4  1  0
  6  5  2  0
  7  8  2  0
 10 14  1  0
 10  7  1  0
 11 10  1  0
 12 11  1  0
 12 13  1  0
 13 14  1  0
 15 22  1  0
 14 15  1  1
 16 15  2  0
 17 18  1  0
 19 18  1  0
 19 20  1  6
 21 22  1  6
 21 19  1  0
 23 21  1  0
 24 23  1  0
 25 23  2  0
M  END
$$$$
