EPI.pdb
     RDKit          3D

 25 25  0  0  1  0  0  0  0  0999 V2000
   23.2504  -22.2780  -13.0129 N   0  0  0  0  0  0  0  0  0  0  0  0
   24.0975  -21.2150  -12.6374 C   0  0  1  0  0  0  0  0  0  0  0  0
   23.4585  -19.8556  -12.5383 C   0  0  0  0  0  0  0  0  0  0  0  0
   22.3611  -19.6969  -11.5641 C   0  0  0  0  0  0  0  0  0  0  0  0
   21.0311  -19.4706  -12.1341 C   0  0  0  0  0  0  0  0  0  0  0  0
   20.9312  -19.4559  -13.4074 O   0  0  0  0  0  0  0  0  0  0  0  0
   25.0912  -21.4577  -11.5845 C   0  0  0  0  0  0  0  0  0  0  0  0
   24.7106  -22.3316  -10.7038 O   0  0  0  0  0  0  0  0  0  0  0  0
   19.8544  -19.2709  -11.4437 O   0  0  0  0  0  0  0  0  0  0  0  0
   26.3526  -20.9074  -11.3811 N   0  0  0  0  0  0  0  0  0  0  0  0
   27.0115  -19.8674  -12.1036 C   0  0  0  0  0  0  0  0  0  0  0  0
   28.4846  -20.1604  -11.9133 C   0  0  0  0  0  0  0  0  0  0  0  0
   28.5769  -21.3452  -11.0055 C   0  0  0  0  0  0  0  0  0  0  0  0
   27.2476  -21.2937  -10.3022 C   0  0  1  0  0  0  0  0  0  0  0  0
   27.2810  -20.2843   -9.2263 C   0  0  0  0  0  0  0  0  0  0  0  0
   26.7606  -19.1531   -9.2571 O   0  0  0  0  0  0  0  0  0  0  0  0
   28.7075  -20.9532   -3.2460 C   0  0  0  0  0  0  0  0  0  0  0  0
   27.7055  -20.4382   -4.2639 C   0  0  0  0  0  0  0  0  0  0  0  0
   28.1155  -21.0134   -5.6157 C   0  0  2  0  0  0  0  0  0  0  0  0
   29.6310  -20.9826   -5.6971 C   0  0  0  0  0  0  0  0  0  0  0  0
   27.4942  -20.1949   -6.7387 C   0  0  2  0  0  0  0  0  0  0  0  0
   27.9792  -20.6434   -8.0336 N   0  0  0  0  0  0  0  0  0  0  0  0
   28.0069  -18.7879   -6.5548 C   0  0  0  0  0  0  0  0  0  0  0  0
   27.4209  -17.9206   -5.6444 O   0  0  0  0  0  0  0  0  0  0  0  0
   28.9813  -18.3539   -7.2193 O   0  0  0  0  0  0  0  0  0  0  0  0
  2  7  1  0
  2  1  1  1
  3  2  1  0
  4  3  1  0
  5  9  1  0
  5  4  1  0
  6  5  2  0
  7  8  2  0
 10 14  1  0
 10  7  1  0
 11 10  1  0
 12 11  1  0
 12 13  1  0
 13 14  1  0
 15 22  1  0
 14 15  1  1
 16 15  2  0
 17 18  1  0
 19 18  1  0
 19 20  1  6
 21 22  1  6
 21 19  1  0
 23 21  1  0
 24 23  1  0
 25 23  2  0
M  END
$$$$
