EPI.pdb
     RDKit          3D

 25 25  0  0  1  0  0  0  0  0999 V2000
   14.5049  -23.1103   -2.9215 N   0  0  0  0  0  0  0  0  0  0  0  0
   13.8966  -22.9766   -1.6563 C   0  0  1  0  0  0  0  0  0  0  0  0
   12.8651  -24.0132   -1.2989 C   0  0  0  0  0  0  0  0  0  0  0  0
   12.7116  -25.1559   -2.2205 C   0  0  0  0  0  0  0  0  0  0  0  0
   12.8581  -26.4833   -1.6192 C   0  0  0  0  0  0  0  0  0  0  0  0
   11.9202  -26.8891   -0.8529 O   0  0  0  0  0  0  0  0  0  0  0  0
   14.7397  -22.5928   -0.5176 C   0  0  0  0  0  0  0  0  0  0  0  0
   16.0064  -22.5601   -0.7980 O   0  0  0  0  0  0  0  0  0  0  0  0
   13.9076  -27.3612   -1.7895 O   0  0  0  0  0  0  0  0  0  0  0  0
   14.4043  -22.2677    0.7928 N   0  0  0  0  0  0  0  0  0  0  0  0
   13.1331  -22.3228    1.4399 C   0  0  0  0  0  0  0  0  0  0  0  0
   13.2259  -21.2742    2.5280 C   0  0  0  0  0  0  0  0  0  0  0  0
   14.6136  -20.7195    2.4779 C   0  0  0  0  0  0  0  0  0  0  0  0
   15.3620  -21.8334    1.7970 C   0  0  1  0  0  0  0  0  0  0  0  0
   15.6692  -22.9044    2.7646 C   0  0  0  0  0  0  0  0  0  0  0  0
   14.9133  -23.8348    3.1026 O   0  0  0  0  0  0  0  0  0  0  0  0
   20.8040  -25.4998    1.8702 C   0  0  0  0  0  0  0  0  0  0  0  0
   19.7216  -25.4225    2.9323 C   0  0  0  0  0  0  0  0  0  0  0  0
   18.8932  -24.1788    2.6273 C   0  0  2  0  0  0  0  0  0  0  0  0
   19.7944  -22.9669    2.7806 C   0  0  0  0  0  0  0  0  0  0  0  0
   17.7075  -24.0980    3.5785 C   0  0  2  0  0  0  0  0  0  0  0  0
   16.9617  -22.8678    3.3705 N   0  0  0  0  0  0  0  0  0  0  0  0
   18.2970  -24.0107    4.9645 C   0  0  0  0  0  0  0  0  0  0  0  0
   18.4698  -25.1433    5.7468 O   0  0  0  0  0  0  0  0  0  0  0  0
   18.6513  -22.9103    5.4575 O   0  0  0  0  0  0  0  0  0  0  0  0
  2  7  1  0
  2  1  1  6
  3  2  1  0
  4  3  1  0
  5  9  1  0
  5  4  1  0
  6  5  2  0
  7  8  2  0
 10 14  1  0
 10  7  1  0
 11 10  1  0
 12 11  1  0
 12 13  1  0
 13 14  1  0
 15 22  1  0
 14 15  1  1
 16 15  2  0
 17 18  1  0
 19 18  1  0
 19 20  1  1
 21 22  1  6
 21 19  1  0
 23 21  1  0
 24 23  1  0
 25 23  2  0
M  END
$$$$
