EPI.pdb
     RDKit          3D

 25 25  0  0  1  0  0  0  0  0999 V2000
   23.6808  -22.2849  -14.1315 N   0  0  0  0  0  0  0  0  0  0  0  0
   24.4757  -21.2510  -13.5952 C   0  0  1  0  0  0  0  0  0  0  0  0
   23.8480  -19.8836  -13.5462 C   0  0  0  0  0  0  0  0  0  0  0  0
   22.4076  -19.7925  -13.8558 C   0  0  0  0  0  0  0  0  0  0  0  0
   21.5050  -19.8263  -12.7029 C   0  0  0  0  0  0  0  0  0  0  0  0
   20.2495  -19.8133  -12.9379 O   0  0  0  0  0  0  0  0  0  0  0  0
   25.2946  -21.5467  -12.4133 C   0  0  0  0  0  0  0  0  0  0  0  0
   24.8070  -22.4902  -11.6675 O   0  0  0  0  0  0  0  0  0  0  0  0
   21.8596  -19.8740  -11.3714 O   0  0  0  0  0  0  0  0  0  0  0  0
   26.4874  -20.9844  -11.9703 N   0  0  0  0  0  0  0  0  0  0  0  0
   27.2282  -19.8923  -12.5148 C   0  0  0  0  0  0  0  0  0  0  0  0
   28.6562  -20.1670  -12.0934 C   0  0  0  0  0  0  0  0  0  0  0  0
   28.6287  -21.3994  -11.2470 C   0  0  0  0  0  0  0  0  0  0  0  0
   27.1992  -21.4140  -10.7774 C   0  0  1  0  0  0  0  0  0  0  0  0
   27.0222  -20.4670   -9.6595 C   0  0  0  0  0  0  0  0  0  0  0  0
   26.5339  -19.3233   -9.7295 O   0  0  0  0  0  0  0  0  0  0  0  0
   28.0367  -20.6202   -3.5602 C   0  0  0  0  0  0  0  0  0  0  0  0
   27.1712  -20.0852   -4.6872 C   0  0  0  0  0  0  0  0  0  0  0  0
   27.4906  -20.9205   -5.9226 C   0  0  2  0  0  0  0  0  0  0  0  0
   28.9830  -21.1981   -5.9268 C   0  0  0  0  0  0  0  0  0  0  0  0
   27.0741  -20.1697   -7.1795 C   0  0  2  0  0  0  0  0  0  0  0  0
   27.4537  -20.9090   -8.3722 N   0  0  0  0  0  0  0  0  0  0  0  0
   27.8872  -18.8988   -7.1882 C   0  0  0  0  0  0  0  0  0  0  0  0
   27.3767  -17.7132   -6.6798 O   0  0  0  0  0  0  0  0  0  0  0  0
   29.0533  -18.8705   -7.6559 O   0  0  0  0  0  0  0  0  0  0  0  0
  2  7  1  0
  2  1  1  1
  3  2  1  0
  4  3  1  0
  5  9  1  0
  5  4  1  0
  6  5  2  0
  7  8  2  0
 10 14  1  0
 10  7  1  0
 11 10  1  0
 12 11  1  0
 12 13  1  0
 13 14  1  0
 15 22  1  0
 14 15  1  1
 16 15  2  0
 17 18  1  0
 19 18  1  0
 19 20  1  6
 21 22  1  6
 21 19  1  0
 23 21  1  0
 24 23  1  0
 25 23  2  0
M  END
$$$$
