EPI.pdb
     RDKit          3D

 25 25  0  0  1  0  0  0  0  0999 V2000
   13.8528  -14.3543  -13.3579 N   0  0  0  0  0  0  0  0  0  0  0  0
   15.0003  -13.5519  -13.1903 C   0  0  1  0  0  0  0  0  0  0  0  0
   16.1966  -13.9150  -14.0288 C   0  0  0  0  0  0  0  0  0  0  0  0
   16.0956  -13.6815  -15.4828 C   0  0  0  0  0  0  0  0  0  0  0  0
   17.2671  -14.0670  -16.2727 C   0  0  0  0  0  0  0  0  0  0  0  0
   18.4033  -13.6210  -15.8965 O   0  0  0  0  0  0  0  0  0  0  0  0
   14.8193  -12.1020  -13.0502 C   0  0  0  0  0  0  0  0  0  0  0  0
   13.7462  -11.6551  -13.6275 O   0  0  0  0  0  0  0  0  0  0  0  0
   17.2859  -14.8712  -17.3926 O   0  0  0  0  0  0  0  0  0  0  0  0
   15.6025  -11.1458  -12.4117 N   0  0  0  0  0  0  0  0  0  0  0  0
   16.9198  -11.2687  -11.8758 C   0  0  0  0  0  0  0  0  0  0  0  0
   16.9705  -10.2293  -10.7761 C   0  0  0  0  0  0  0  0  0  0  0  0
   15.6617   -9.5065  -10.8024 C   0  0  0  0  0  0  0  0  0  0  0  0
   15.2013   -9.7626  -12.2120 C   0  0  1  0  0  0  0  0  0  0  0  0
   15.8895   -8.8494  -13.1448 C   0  0  0  0  0  0  0  0  0  0  0  0
   16.9957   -9.0394  -13.6846 O   0  0  0  0  0  0  0  0  0  0  0  0
   14.7412   -6.0252  -17.5997 C   0  0  0  0  0  0  0  0  0  0  0  0
   14.8970   -5.1931  -16.3393 C   0  0  0  0  0  0  0  0  0  0  0  0
   14.4385   -6.0658  -15.1756 C   0  0  2  0  0  0  0  0  0  0  0  0
   13.8419   -5.1572  -14.1160 C   0  0  0  0  0  0  0  0  0  0  0  0
   15.6180   -6.8497  -14.6177 C   0  0  2  0  0  0  0  0  0  0  0  0
   15.2177   -7.6288  -13.4576 N   0  0  0  0  0  0  0  0  0  0  0  0
   16.6000   -5.8178  -14.1208 C   0  0  0  0  0  0  0  0  0  0  0  0
   17.5690   -5.2834  -14.9575 O   0  0  0  0  0  0  0  0  0  0  0  0
   16.5741   -5.4075  -12.9333 O   0  0  0  0  0  0  0  0  0  0  0  0
  2  7  1  0
  2  1  1  6
  3  2  1  0
  4  3  1  0
  5  9  1  0
  5  4  1  0
  6  5  2  0
  7  8  2  0
 10 14  1  0
 10  7  1  0
 11 10  1  0
 12 11  1  0
 12 13  1  0
 13 14  1  0
 15 22  1  0
 14 15  1  6
 16 15  2  0
 17 18  1  0
 19 18  1  0
 19 20  1  1
 21 22  1  1
 21 19  1  0
 23 21  1  0
 24 23  1  0
 25 23  2  0
M  END
$$$$
