EPI.pdb
     RDKit          3D

 25 25  0  0  1  0  0  0  0  0999 V2000
   24.6099  -21.9716  -11.7872 N   0  0  0  0  0  0  0  0  0  0  0  0
   25.7489  -21.1720  -11.5595 C   0  0  1  0  0  0  0  0  0  0  0  0
   25.5952  -19.6991  -11.8296 C   0  0  0  0  0  0  0  0  0  0  0  0
   24.9740  -19.3109  -13.1112 C   0  0  0  0  0  0  0  0  0  0  0  0
   23.5305  -19.5364  -13.2134 C   0  0  0  0  0  0  0  0  0  0  0  0
   23.0985  -20.1156  -14.2667 O   0  0  0  0  0  0  0  0  0  0  0  0
   26.5692  -21.4534  -10.3751 C   0  0  0  0  0  0  0  0  0  0  0  0
   25.9161  -22.0404   -9.4195 O   0  0  0  0  0  0  0  0  0  0  0  0
   22.5684  -19.1925  -12.2877 O   0  0  0  0  0  0  0  0  0  0  0  0
   27.9109  -21.1925  -10.1160 N   0  0  0  0  0  0  0  0  0  0  0  0
   28.8837  -20.5565  -10.9447 C   0  0  0  0  0  0  0  0  0  0  0  0
   30.2020  -21.1411  -10.4835 C   0  0  0  0  0  0  0  0  0  0  0  0
   29.8953  -22.0490   -9.3355 C   0  0  0  0  0  0  0  0  0  0  0  0
   28.5756  -21.5037   -8.8608 C   0  0  1  0  0  0  0  0  0  0  0  0
   28.7908  -20.2978   -8.0379 C   0  0  0  0  0  0  0  0  0  0  0  0
   28.7680  -19.1176   -8.4352 O   0  0  0  0  0  0  0  0  0  0  0  0
   26.0374  -19.1902   -3.0460 C   0  0  0  0  0  0  0  0  0  0  0  0
   27.1647  -18.6757   -3.9236 C   0  0  0  0  0  0  0  0  0  0  0  0
   27.4352  -19.7524   -4.9694 C   0  0  2  0  0  0  0  0  0  0  0  0
   27.4856  -21.0929   -4.2588 C   0  0  0  0  0  0  0  0  0  0  0  0
   28.7490  -19.4657   -5.6825 C   0  0  2  0  0  0  0  0  0  0  0  0
   29.0499  -20.5085   -6.6495 N   0  0  0  0  0  0  0  0  0  0  0  0
   29.8190  -19.5455   -4.6219 C   0  0  0  0  0  0  0  0  0  0  0  0
   30.5151  -20.7224   -4.3876 O   0  0  0  0  0  0  0  0  0  0  0  0
   30.1161  -18.5498   -3.9150 O   0  0  0  0  0  0  0  0  0  0  0  0
  2  7  1  0
  2  1  1  1
  3  2  1  0
  4  3  1  0
  5  9  1  0
  5  4  1  0
  6  5  2  0
  7  8  2  0
 10 14  1  0
 10  7  1  0
 11 10  1  0
 12 11  1  0
 12 13  1  0
 13 14  1  0
 15 22  1  0
 14 15  1  1
 16 15  2  0
 17 18  1  0
 19 18  1  0
 19 20  1  1
 21 22  1  6
 21 19  1  0
 23 21  1  0
 24 23  1  0
 25 23  2  0
M  END
$$$$
