EPI.pdb
     RDKit          3D

 25 25  0  0  1  0  0  0  0  0999 V2000
   28.7694  -23.9279  -17.2338 N   0  0  0  0  0  0  0  0  0  0  0  0
   27.9076  -22.8120  -17.2063 C   0  0  1  0  0  0  0  0  0  0  0  0
   26.5484  -23.0031  -17.8246 C   0  0  0  0  0  0  0  0  0  0  0  0
   26.2735  -24.3088  -18.4559 C   0  0  0  0  0  0  0  0  0  0  0  0
   25.5372  -25.2714  -17.6336 C   0  0  0  0  0  0  0  0  0  0  0  0
   24.3229  -24.9953  -17.3495 O   0  0  0  0  0  0  0  0  0  0  0  0
   27.8717  -21.9922  -15.9892 C   0  0  0  0  0  0  0  0  0  0  0  0
   28.4447  -22.5533  -14.9689 O   0  0  0  0  0  0  0  0  0  0  0  0
   26.0102  -26.4623  -17.1246 O   0  0  0  0  0  0  0  0  0  0  0  0
   27.3278  -20.7329  -15.7574 N   0  0  0  0  0  0  0  0  0  0  0  0
   26.5348  -19.9187  -16.6210 C   0  0  0  0  0  0  0  0  0  0  0  0
   26.8145  -18.5050  -16.1568 C   0  0  0  0  0  0  0  0  0  0  0  0
   27.7224  -18.6093  -14.9732 C   0  0  0  0  0  0  0  0  0  0  0  0
   27.4463  -20.0111  -14.5007 C   0  0  1  0  0  0  0  0  0  0  0  0
   26.1919  -20.0474  -13.7243 C   0  0  0  0  0  0  0  0  0  0  0  0
   25.0590  -20.3233  -14.1620 O   0  0  0  0  0  0  0  0  0  0  0  0
   25.5996  -20.3889   -7.5507 C   0  0  0  0  0  0  0  0  0  0  0  0
   25.2071  -20.9298   -8.9141 C   0  0  0  0  0  0  0  0  0  0  0  0
   26.0760  -20.2103   -9.9404 C   0  0  2  0  0  0  0  0  0  0  0  0
   25.9516  -18.7175   -9.6946 C   0  0  0  0  0  0  0  0  0  0  0  0
   25.6219  -20.5688  -11.3484 C   0  0  2  0  0  0  0  0  0  0  0  0
   26.2907  -19.7358  -12.3343 N   0  0  0  0  0  0  0  0  0  0  0  0
   24.1572  -20.2126  -11.4117 C   0  0  0  0  0  0  0  0  0  0  0  0
   23.1789  -21.1120  -11.0133 O   0  0  0  0  0  0  0  0  0  0  0  0
   23.7734  -19.0903  -11.8270 O   0  0  0  0  0  0  0  0  0  0  0  0
  2  7  1  0
  2  1  1  1
  3  2  1  0
  4  3  1  0
  5  9  1  0
  5  4  1  0
  6  5  2  0
  7  8  2  0
 10 14  1  0
 10  7  1  0
 11 10  1  0
 12 11  1  0
 12 13  1  0
 13 14  1  0
 15 22  1  0
 14 15  1  6
 16 15  2  0
 17 18  1  0
 19 18  1  0
 19 20  1  1
 21 22  1  6
 21 19  1  0
 23 21  1  0
 24 23  1  0
 25 23  2  0
M  END
$$$$
