EPI.pdb
     RDKit          3D

 25 25  0  0  1  0  0  0  0  0999 V2000
   24.1559  -23.7721  -13.7158 N   0  0  0  0  0  0  0  0  0  0  0  0
   24.4612  -22.4769  -13.2491 C   0  0  1  0  0  0  0  0  0  0  0  0
   23.2887  -21.5783  -12.9593 C   0  0  0  0  0  0  0  0  0  0  0  0
   22.6279  -20.9401  -14.1147 C   0  0  0  0  0  0  0  0  0  0  0  0
   23.0074  -19.5502  -14.3776 C   0  0  0  0  0  0  0  0  0  0  0  0
   22.3581  -18.6368  -13.7647 O   0  0  0  0  0  0  0  0  0  0  0  0
   25.5496  -22.3284  -12.2753 C   0  0  0  0  0  0  0  0  0  0  0  0
   25.7091  -23.3668  -11.5135 O   0  0  0  0  0  0  0  0  0  0  0  0
   24.0027  -19.1064  -15.2223 O   0  0  0  0  0  0  0  0  0  0  0  0
   26.4202  -21.2691  -12.0399 N   0  0  0  0  0  0  0  0  0  0  0  0
   26.4579  -19.9786  -12.6489 C   0  0  0  0  0  0  0  0  0  0  0  0
   27.9075  -19.5571  -12.5334 C   0  0  0  0  0  0  0  0  0  0  0  0
   28.6137  -20.6368  -11.7775 C   0  0  0  0  0  0  0  0  0  0  0  0
   27.4746  -21.2859  -11.0389 C   0  0  1  0  0  0  0  0  0  0  0  0
   27.1187  -20.4866   -9.8506 C   0  0  0  0  0  0  0  0  0  0  0  0
   26.1479  -19.7138   -9.7429 O   0  0  0  0  0  0  0  0  0  0  0  0
   29.0465  -20.9592   -3.9533 C   0  0  0  0  0  0  0  0  0  0  0  0
   27.9099  -20.7107   -4.9290 C   0  0  0  0  0  0  0  0  0  0  0  0
   28.4979  -20.8334   -6.3309 C   0  0  2  0  0  0  0  0  0  0  0  0
   29.6171  -19.8160   -6.4597 C   0  0  0  0  0  0  0  0  0  0  0  0
   27.4155  -20.5852   -7.3719 C   0  0  2  0  0  0  0  0  0  0  0  0
   27.9734  -20.6148   -8.7139 N   0  0  0  0  0  0  0  0  0  0  0  0
   26.9369  -19.1734   -7.1396 C   0  0  0  0  0  0  0  0  0  0  0  0
   27.5541  -18.0931   -7.7533 O   0  0  0  0  0  0  0  0  0  0  0  0
   25.9640  -18.9277   -6.3830 O   0  0  0  0  0  0  0  0  0  0  0  0
  2  7  1  0
  2  1  1  1
  3  2  1  0
  4  3  1  0
  5  9  1  0
  5  4  1  0
  6  5  2  0
  7  8  2  0
 10 14  1  0
 10  7  1  0
 11 10  1  0
 12 11  1  0
 12 13  1  0
 13 14  1  0
 15 22  1  0
 14 15  1  1
 16 15  2  0
 17 18  1  0
 19 18  1  0
 19 20  1  1
 21 22  1  6
 21 19  1  0
 23 21  1  0
 24 23  1  0
 25 23  2  0
M  END
$$$$
