EPI.pdb
     RDKit          3D

 25 25  0  0  1  0  0  0  0  0999 V2000
   18.1505  -13.2423  -20.4998 N   0  0  0  0  0  0  0  0  0  0  0  0
   17.5798  -12.2684  -19.6545 C   0  0  1  0  0  0  0  0  0  0  0  0
   16.7293  -12.7820  -18.5236 C   0  0  0  0  0  0  0  0  0  0  0  0
   15.7404  -13.8292  -18.8467 C   0  0  0  0  0  0  0  0  0  0  0  0
   14.8528  -14.2267  -17.7516 C   0  0  0  0  0  0  0  0  0  0  0  0
   13.6217  -13.8993  -17.8435 O   0  0  0  0  0  0  0  0  0  0  0  0
   18.4008  -11.1129  -19.2731 C   0  0  0  0  0  0  0  0  0  0  0  0
   19.6768  -11.3283  -19.3715 O   0  0  0  0  0  0  0  0  0  0  0  0
   15.1978  -14.9275  -16.6154 O   0  0  0  0  0  0  0  0  0  0  0  0
   18.0363   -9.8466  -18.8271 N   0  0  0  0  0  0  0  0  0  0  0  0
   16.7353   -9.3217  -18.5635 C   0  0  0  0  0  0  0  0  0  0  0  0
   16.8866   -7.8310  -18.7807 C   0  0  0  0  0  0  0  0  0  0  0  0
   18.3275   -7.5829  -19.0941 C   0  0  0  0  0  0  0  0  0  0  0  0
   18.9831   -8.7955  -18.4907 C   0  0  1  0  0  0  0  0  0  0  0  0
   19.1212   -8.6250  -17.0315 C   0  0  0  0  0  0  0  0  0  0  0  0
   18.2451   -8.8481  -16.1747 O   0  0  0  0  0  0  0  0  0  0  0  0
   23.6408  -10.9050  -14.1513 C   0  0  0  0  0  0  0  0  0  0  0  0
   22.5468   -9.8690  -13.9631 C   0  0  0  0  0  0  0  0  0  0  0  0
   21.9874   -9.5623  -15.3484 C   0  0  2  0  0  0  0  0  0  0  0  0
   23.1218   -9.0264  -16.2030 C   0  0  0  0  0  0  0  0  0  0  0  0
   20.8609   -8.5444  -15.2402 C   0  0  2  0  0  0  0  0  0  0  0  0
   20.3852   -8.1587  -16.5586 N   0  0  0  0  0  0  0  0  0  0  0  0
   21.4786   -7.3099  -14.6313 C   0  0  0  0  0  0  0  0  0  0  0  0
   21.4627   -7.0974  -13.2605 O   0  0  0  0  0  0  0  0  0  0  0  0
   22.0280   -6.4328  -15.3441 O   0  0  0  0  0  0  0  0  0  0  0  0
  2  7  1  0
  2  1  1  1
  3  2  1  0
  4  3  1  0
  5  9  1  0
  5  4  1  0
  6  5  2  0
  7  8  2  0
 10 14  1  0
 10  7  1  0
 11 10  1  0
 12 11  1  0
 12 13  1  0
 13 14  1  0
 15 22  1  0
 14 15  1  1
 16 15  2  0
 17 18  1  0
 19 18  1  0
 19 20  1  6
 21 22  1  6
 21 19  1  0
 23 21  1  0
 24 23  1  0
 25 23  2  0
M  END
$$$$
