EPI.pdb
     RDKit          3D

 25 25  0  0  1  0  0  0  0  0999 V2000
   22.0326  -21.1311  -12.4825 N   0  0  0  0  0  0  0  0  0  0  0  0
   23.3690  -20.6891  -12.5678 C   0  0  1  0  0  0  0  0  0  0  0  0
   23.5761  -19.2807  -13.0574 C   0  0  0  0  0  0  0  0  0  0  0  0
   23.0678  -18.9545  -14.4042 C   0  0  0  0  0  0  0  0  0  0  0  0
   21.6241  -19.1106  -14.5952 C   0  0  0  0  0  0  0  0  0  0  0  0
   21.2332  -19.9934  -15.4314 O   0  0  0  0  0  0  0  0  0  0  0  0
   24.2936  -21.0616  -11.4903 C   0  0  0  0  0  0  0  0  0  0  0  0
   23.6984  -21.5137  -10.4294 O   0  0  0  0  0  0  0  0  0  0  0  0
   20.6216  -18.4049  -13.9643 O   0  0  0  0  0  0  0  0  0  0  0  0
   25.6820  -21.0048  -11.4240 N   0  0  0  0  0  0  0  0  0  0  0  0
   26.6057  -20.4031  -12.3310 C   0  0  0  0  0  0  0  0  0  0  0  0
   27.8795  -21.2001  -12.1451 C   0  0  0  0  0  0  0  0  0  0  0  0
   27.6154  -22.1915  -11.0572 C   0  0  0  0  0  0  0  0  0  0  0  0
   26.4698  -21.5439  -10.3272 C   0  0  1  0  0  0  0  0  0  0  0  0
   26.9720  -20.4809   -9.4353 C   0  0  0  0  0  0  0  0  0  0  0  0
   27.0478  -19.2666   -9.7017 O   0  0  0  0  0  0  0  0  0  0  0  0
   26.8233  -22.0130   -3.8871 C   0  0  0  0  0  0  0  0  0  0  0  0
   26.4295  -21.2879   -5.1617 C   0  0  0  0  0  0  0  0  0  0  0  0
   27.6999  -20.6534   -5.7180 C   0  0  2  0  0  0  0  0  0  0  0  0
   28.2246  -19.6730   -4.6846 C   0  0  0  0  0  0  0  0  0  0  0  0
   27.3958  -19.9472   -7.0317 C   0  0  2  0  0  0  0  0  0  0  0  0
   27.4128  -20.8881   -8.1396 N   0  0  0  0  0  0  0  0  0  0  0  0
   28.5433  -18.9952   -7.2625 C   0  0  0  0  0  0  0  0  0  0  0  0
   29.6427  -19.3630   -8.0244 O   0  0  0  0  0  0  0  0  0  0  0  0
   28.5426  -17.8378   -6.7730 O   0  0  0  0  0  0  0  0  0  0  0  0
  2  7  1  0
  2  1  1  1
  3  2  1  0
  4  3  1  0
  5  9  1  0
  5  4  1  0
  6  5  2  0
  7  8  2  0
 10 14  1  0
 10  7  1  0
 11 10  1  0
 12 11  1  0
 12 13  1  0
 13 14  1  0
 15 22  1  0
 14 15  1  1
 16 15  2  0
 17 18  1  0
 19 18  1  0
 19 20  1  1
 21 22  1  6
 21 19  1  0
 23 21  1  0
 24 23  1  0
 25 23  2  0
M  END
$$$$
