DRF.pdb
     RDKit          3D

 31 31  0  0  1  0  0  0  0  0999 V2000
   25.8383  -19.1572  -16.0892 N   0  0  0  0  0  0  0  0  0  0  0  0
   26.8210  -19.3777  -15.0592 C   0  0  1  0  0  0  0  0  0  0  0  0
   27.9177  -18.3362  -15.0793 C   0  0  0  0  0  0  0  0  0  0  0  0
   28.7603  -18.5165  -16.2802 C   0  0  0  0  0  0  0  0  0  0  0  0
   28.5023  -19.3905  -17.1348 O   0  0  0  0  0  0  0  0  0  0  0  0
   26.1108  -19.3461  -13.7537 C   0  0  0  0  0  0  0  0  0  0  0  0
   25.7806  -18.2761  -13.1882 O   0  0  0  0  0  0  0  0  0  0  0  0
   29.8587  -17.7020  -16.4652 O   0  0  0  0  0  0  0  0  0  0  0  0
   19.7076  -22.3064  -11.2342 N   0  0  0  0  0  0  0  0  0  0  0  0
   19.6143  -20.8936  -11.1741 C   0  0  0  0  0  0  0  0  0  0  0  0
   18.6875  -20.3290  -10.4953 N   0  0  0  0  0  0  0  0  0  0  0  0
   20.5813  -20.1369  -11.8906 N   0  0  0  0  0  0  0  0  0  0  0  0
   21.7688  -20.7557  -12.4162 C   0  0  0  0  0  0  0  0  0  0  0  0
   22.7005  -21.1237  -11.2778 C   0  0  0  0  0  0  0  0  0  0  0  0
   23.9614  -21.6789  -11.9148 C   0  0  0  0  0  0  0  0  0  0  0  0
   25.0750  -20.6230  -11.8474 C   0  0  2  0  0  0  0  0  0  0  0  0
   25.7820  -20.5567  -13.1015 N   0  0  0  0  0  0  0  0  0  0  0  0
   25.9252  -20.9693  -10.7100 C   0  0  0  0  0  0  0  0  0  0  0  0
   26.6048  -22.0201  -10.6900 O   0  0  0  0  0  0  0  0  0  0  0  0
   18.6006  -19.2970  -10.4769 N   0  0  0  0  0  0  0  0  0  0  0  0
   25.9942  -20.1052   -9.5916 C   0  0  2  0  0  0  0  0  0  0  0  0
   26.6011  -20.5211   -8.3501 C   0  0  0  0  0  0  0  0  0  0  0  0
   27.6611  -19.5169   -8.0150 C   0  0  0  0  0  0  0  0  0  0  0  0
   28.2457  -19.6742   -6.6788 C   0  0  0  0  0  0  0  0  0  0  0  0
   27.9114  -18.7557   -5.6986 C   0  0  0  0  0  0  0  0  0  0  0  0
   28.4449  -18.8861   -4.4422 C   0  0  0  0  0  0  0  0  0  0  0  0
   29.2961  -19.9111   -4.1631 C   0  0  0  0  0  0  0  0  0  0  0  0
   29.6258  -20.8275   -5.1526 C   0  0  0  0  0  0  0  0  0  0  0  0
   29.1052  -20.7210   -6.4220 C   0  0  0  0  0  0  0  0  0  0  0  0
   25.5737  -20.7013   -7.3134 O   0  0  0  0  0  0  0  0  0  0  0  0
   24.4246  -20.2333   -7.4974 O   0  0  0  0  0  0  0  0  0  0  0  0
  2  1  1  6
  3  2  1  0
  3  4  1  0
  4  5  2  0
  6  7  2  0
  6  2  1  0
  8  4  1  0
 10  9  1  0
 11 10  2  0
 12 13  1  0
 12 10  1  0
 13 14  1  0
 14 15  1  0
 16 15  1  6
 16 18  1  0
 16 17  1  0
 17  6  1  0
 18 20  1  0
 19 18  2  0
 20 21  1  0
 21 29  1  0
 22 23  1  0
 21 22  1  1
 23 24  2  0
 24 25  1  0
 26 25  2  0
 27 26  1  0
 28 27  2  0
 28 23  1  0
 29 30  2  0
 29 31  1  0
M  END
$$$$
