DRF.pdb
     RDKit          3D

 31 31  0  0  1  0  0  0  0  0999 V2000
   26.6820  -17.6923  -19.0217 N   0  0  0  0  0  0  0  0  0  0  0  0
   25.4718  -18.2972  -19.5160 C   0  0  1  0  0  0  0  0  0  0  0  0
   25.6251  -18.8178  -20.9279 C   0  0  0  0  0  0  0  0  0  0  0  0
   25.8758  -17.6933  -21.8539 C   0  0  0  0  0  0  0  0  0  0  0  0
   25.6235  -17.7825  -23.0742 O   0  0  0  0  0  0  0  0  0  0  0  0
   25.1243  -19.4118  -18.5959 C   0  0  0  0  0  0  0  0  0  0  0  0
   24.0116  -19.9905  -18.6232 O   0  0  0  0  0  0  0  0  0  0  0  0
   26.4010  -16.5157  -21.3625 O   0  0  0  0  0  0  0  0  0  0  0  0
   30.1753  -24.3143  -14.7378 N   0  0  0  0  0  0  0  0  0  0  0  0
   30.0313  -24.5901  -16.1204 C   0  0  0  0  0  0  0  0  0  0  0  0
   30.1394  -25.7866  -16.5621 N   0  0  0  0  0  0  0  0  0  0  0  0
   29.7648  -23.4956  -16.9877 N   0  0  0  0  0  0  0  0  0  0  0  0
   29.3706  -22.2138  -16.4674 C   0  0  0  0  0  0  0  0  0  0  0  0
   28.1026  -21.7496  -17.1573 C   0  0  0  0  0  0  0  0  0  0  0  0
   27.1176  -21.3970  -16.0577 C   0  0  0  0  0  0  0  0  0  0  0  0
   25.8056  -20.9039  -16.6862 C   0  0  2  0  0  0  0  0  0  0  0  0
   26.0678  -19.8574  -17.6419 N   0  0  0  0  0  0  0  0  0  0  0  0
   24.9325  -20.4932  -15.5883 C   0  0  0  0  0  0  0  0  0  0  0  0
   25.2019  -19.5088  -14.8639 O   0  0  0  0  0  0  0  0  0  0  0  0
   30.1500  -25.9744  -17.5807 N   0  0  0  0  0  0  0  0  0  0  0  0
   23.7461  -21.2167  -15.3217 C   0  0  2  0  0  0  0  0  0  0  0  0
   22.7505  -20.7247  -14.4000 C   0  0  0  0  0  0  0  0  0  0  0  0
   22.3979  -19.3329  -14.8275 C   0  0  0  0  0  0  0  0  0  0  0  0
   21.2650  -18.7446  -14.1049 C   0  0  0  0  0  0  0  0  0  0  0  0
   21.5256  -17.9428  -13.0070 C   0  0  0  0  0  0  0  0  0  0  0  0
   20.4809  -17.3812  -12.3190 C   0  0  0  0  0  0  0  0  0  0  0  0
   19.1987  -17.6115  -12.7140 C   0  0  0  0  0  0  0  0  0  0  0  0
   18.9469  -18.4171  -13.8163 C   0  0  0  0  0  0  0  0  0  0  0  0
   19.9759  -18.9935  -14.5254 C   0  0  0  0  0  0  0  0  0  0  0  0
   21.6132  -21.6545  -14.3311 O   0  0  0  0  0  0  0  0  0  0  0  0
   21.2654  -22.2795  -15.3616 O   0  0  0  0  0  0  0  0  0  0  0  0
  2  1  1  1
  3  2  1  0
  3  4  1  0
  4  5  2  0
  6  7  2  0
  6  2  1  0
  8  4  1  0
 10  9  1  0
 11 10  2  0
 12 13  1  0
 12 10  1  0
 13 14  1  0
 14 15  1  0
 16 15  1  1
 16 18  1  0
 16 17  1  0
 17  6  1  0
 18 20  1  0
 19 18  2  0
 20 21  1  0
 21 29  1  0
 22 23  1  0
 21 22  1  6
 23 24  2  0
 24 25  1  0
 26 25  2  0
 27 26  1  0
 28 27  2  0
 28 23  1  0
 29 30  2  0
 29 31  1  0
M  END
$$$$
