DRF.pdb
     RDKit          3D

 31 31  0  0  1  0  0  0  0  0999 V2000
   19.7080  -21.2809  -13.4584 N   0  0  0  0  0  0  0  0  0  0  0  0
   20.7629  -20.3121  -13.3041 C   0  0  1  0  0  0  0  0  0  0  0  0
   20.4817  -19.3295  -12.1890 C   0  0  0  0  0  0  0  0  0  0  0  0
   19.4553  -18.3580  -12.6220 C   0  0  0  0  0  0  0  0  0  0  0  0
   19.3451  -18.0125  -13.8175 O   0  0  0  0  0  0  0  0  0  0  0  0
   22.0156  -21.0607  -13.0209 C   0  0  0  0  0  0  0  0  0  0  0  0
   22.0881  -21.9506  -12.1397 O   0  0  0  0  0  0  0  0  0  0  0  0
   18.5969  -17.8177  -11.6864 O   0  0  0  0  0  0  0  0  0  0  0  0
   27.9690  -25.3283  -16.3709 N   0  0  0  0  0  0  0  0  0  0  0  0
   26.6794  -25.0180  -16.8697 C   0  0  0  0  0  0  0  0  0  0  0  0
   25.9286  -25.9349  -17.3536 N   0  0  0  0  0  0  0  0  0  0  0  0
   26.2578  -23.6615  -16.8116 N   0  0  0  0  0  0  0  0  0  0  0  0
   27.0227  -22.6754  -16.0963 C   0  0  0  0  0  0  0  0  0  0  0  0
   26.4205  -22.4594  -14.7215 C   0  0  0  0  0  0  0  0  0  0  0  0
   25.0771  -21.7877  -14.9397 C   0  0  0  0  0  0  0  0  0  0  0  0
   24.4348  -21.4766  -13.5795 C   0  0  2  0  0  0  0  0  0  0  0  0
   23.1871  -20.7782  -13.7603 N   0  0  0  0  0  0  0  0  0  0  0  0
   25.4205  -20.7289  -12.8014 C   0  0  0  0  0  0  0  0  0  0  0  0
   25.6285  -19.5101  -12.9965 O   0  0  0  0  0  0  0  0  0  0  0  0
   24.9678  -25.7166  -17.6729 N   0  0  0  0  0  0  0  0  0  0  0  0
   26.1701  -21.3840  -11.7959 C   0  0  2  0  0  0  0  0  0  0  0  0
   27.3079  -20.7551  -11.1692 C   0  0  0  0  0  0  0  0  0  0  0  0
   27.7251  -21.6288  -10.0260 C   0  0  0  0  0  0  0  0  0  0  0  0
   27.7487  -20.9541   -8.7236 C   0  0  0  0  0  0  0  0  0  0  0  0
   26.5587  -20.8129   -8.0306 C   0  0  0  0  0  0  0  0  0  0  0  0
   26.5591  -20.1875   -6.8103 C   0  0  0  0  0  0  0  0  0  0  0  0
   27.7213  -19.7100   -6.2864 C   0  0  0  0  0  0  0  0  0  0  0  0
   28.9100  -19.8560   -6.9888 C   0  0  0  0  0  0  0  0  0  0  0  0
   28.9389  -20.4794   -8.2153 C   0  0  0  0  0  0  0  0  0  0  0  0
   28.3609  -20.4962  -12.1626 O   0  0  0  0  0  0  0  0  0  0  0  0
   28.5352  -21.3097  -13.1015 O   0  0  0  0  0  0  0  0  0  0  0  0
  2  1  1  1
  3  2  1  0
  3  4  1  0
  4  5  2  0
  6  7  2  0
  6  2  1  0
  8  4  1  0
 10  9  1  0
 11 10  2  0
 12 13  1  0
 12 10  1  0
 13 14  1  0
 14 15  1  0
 16 15  1  6
 16 18  1  0
 16 17  1  0
 17  6  1  0
 18 20  1  0
 19 18  2  0
 20 21  1  0
 21 29  1  0
 22 23  1  0
 21 22  1  1
 23 24  2  0
 24 25  1  0
 26 25  2  0
 27 26  1  0
 28 27  2  0
 28 23  1  0
 29 30  2  0
 29 31  1  0
M  END
$$$$
