DRF.pdb
     RDKit          3D

 31 31  0  0  1  0  0  0  0  0999 V2000
   23.1567  -14.6640  -18.2813 N   0  0  0  0  0  0  0  0  0  0  0  0
   23.4735  -15.1041  -16.9467 C   0  0  1  0  0  0  0  0  0  0  0  0
   22.4751  -14.6058  -15.9255 C   0  0  0  0  0  0  0  0  0  0  0  0
   22.6087  -13.1426  -15.7642 C   0  0  0  0  0  0  0  0  0  0  0  0
   21.6896  -12.4521  -15.2751 O   0  0  0  0  0  0  0  0  0  0  0  0
   23.4902  -16.5904  -16.9613 C   0  0  0  0  0  0  0  0  0  0  0  0
   22.5801  -17.2726  -17.4904 O   0  0  0  0  0  0  0  0  0  0  0  0
   23.7747  -12.5211  -16.1622 O   0  0  0  0  0  0  0  0  0  0  0  0
   26.4280  -23.8087  -15.8745 N   0  0  0  0  0  0  0  0  0  0  0  0
   27.2031  -23.2284  -16.9093 C   0  0  0  0  0  0  0  0  0  0  0  0
   27.4248  -23.8678  -17.9958 N   0  0  0  0  0  0  0  0  0  0  0  0
   27.7190  -21.9212  -16.6941 N   0  0  0  0  0  0  0  0  0  0  0  0
   27.3763  -21.1717  -15.5151 C   0  0  0  0  0  0  0  0  0  0  0  0
   25.9325  -20.7163  -15.6002 C   0  0  0  0  0  0  0  0  0  0  0  0
   25.9657  -19.2120  -15.7994 C   0  0  0  0  0  0  0  0  0  0  0  0
   24.5460  -18.7042  -16.0925 C   0  0  2  0  0  0  0  0  0  0  0  0
   24.5637  -17.2884  -16.3618 N   0  0  0  0  0  0  0  0  0  0  0  0
   23.7138  -19.0757  -14.9498 C   0  0  0  0  0  0  0  0  0  0  0  0
   24.0541  -18.8162  -13.7736 O   0  0  0  0  0  0  0  0  0  0  0  0
   28.0036  -23.4494  -18.7459 N   0  0  0  0  0  0  0  0  0  0  0  0
   22.4866  -19.7481  -15.1594 C   0  0  2  0  0  0  0  0  0  0  0  0
   21.6557  -20.1682  -14.0568 C   0  0  0  0  0  0  0  0  0  0  0  0
   21.3295  -18.9456  -13.2548 C   0  0  0  0  0  0  0  0  0  0  0  0
   20.3647  -19.1691  -12.1726 C   0  0  0  0  0  0  0  0  0  0  0  0
   20.8252  -19.6813  -10.9718 C   0  0  0  0  0  0  0  0  0  0  0  0
   19.9402  -19.8955   -9.9465 C   0  0  0  0  0  0  0  0  0  0  0  0
   18.6201  -19.6061  -10.1102 C   0  0  0  0  0  0  0  0  0  0  0  0
   18.1674  -19.0928  -11.3181 C   0  0  0  0  0  0  0  0  0  0  0  0
   19.0331  -18.8679  -12.3640 C   0  0  0  0  0  0  0  0  0  0  0  0
   20.4864  -20.9106  -14.5510 O   0  0  0  0  0  0  0  0  0  0  0  0
   20.0283  -20.6509  -15.6895 O   0  0  0  0  0  0  0  0  0  0  0  0
  2  1  1  6
  3  2  1  0
  3  4  1  0
  4  5  2  0
  6  7  2  0
  6  2  1  0
  8  4  1  0
 10  9  1  0
 11 10  2  0
 12 13  1  0
 12 10  1  0
 13 14  1  0
 14 15  1  0
 16 15  1  1
 16 18  1  0
 16 17  1  0
 17  6  1  0
 18 20  1  0
 19 18  2  0
 20 21  1  0
 21 29  1  0
 22 23  1  0
 21 22  1  6
 23 24  2  0
 24 25  1  0
 26 25  2  0
 27 26  1  0
 28 27  2  0
 28 23  1  0
 29 30  2  0
 29 31  1  0
M  END
$$$$
