DRF.pdb
     RDKit          3D

 31 31  0  0  1  0  0  0  0  0999 V2000
   22.1753  -12.1451  -20.4700 N   0  0  0  0  0  0  0  0  0  0  0  0
   22.0682  -12.1372  -19.0335 C   0  0  1  0  0  0  0  0  0  0  0  0
   20.7029  -11.6885  -18.5619 C   0  0  0  0  0  0  0  0  0  0  0  0
   20.5250  -10.2470  -18.8357 C   0  0  0  0  0  0  0  0  0  0  0  0
   19.4647   -9.7998  -19.3221 O   0  0  0  0  0  0  0  0  0  0  0  0
   22.3432  -13.5192  -18.5600 C   0  0  0  0  0  0  0  0  0  0  0  0
   21.9582  -14.5376  -19.1831 O   0  0  0  0  0  0  0  0  0  0  0  0
   21.5522   -9.3714  -18.5487 O   0  0  0  0  0  0  0  0  0  0  0  0
   26.8078  -19.0379  -14.7727 N   0  0  0  0  0  0  0  0  0  0  0  0
   27.5829  -18.2935  -15.6966 C   0  0  0  0  0  0  0  0  0  0  0  0
   28.3488  -18.8867  -16.5332 N   0  0  0  0  0  0  0  0  0  0  0  0
   27.4763  -16.8764  -15.6570 N   0  0  0  0  0  0  0  0  0  0  0  0
   26.4412  -16.2299  -14.8958 C   0  0  0  0  0  0  0  0  0  0  0  0
   25.1156  -16.3610  -15.6203 C   0  0  0  0  0  0  0  0  0  0  0  0
   24.7230  -14.9618  -16.0581 C   0  0  0  0  0  0  0  0  0  0  0  0
   23.4038  -15.0235  -16.8426 C   0  0  2  0  0  0  0  0  0  0  0  0
   23.0661  -13.7222  -17.3621 N   0  0  0  0  0  0  0  0  0  0  0  0
   22.3952  -15.5774  -15.9414 C   0  0  0  0  0  0  0  0  0  0  0  0
   22.0348  -14.9757  -14.9047 O   0  0  0  0  0  0  0  0  0  0  0  0
   28.9085  -18.3428  -17.2142 N   0  0  0  0  0  0  0  0  0  0  0  0
   21.7990  -16.8273  -16.2323 C   0  0  2  0  0  0  0  0  0  0  0  0
   20.7801  -17.3958  -15.3830 C   0  0  0  0  0  0  0  0  0  0  0  0
   19.5968  -16.4783  -15.4329 C   0  0  0  0  0  0  0  0  0  0  0  0
   18.8940  -16.4635  -16.7204 C   0  0  0  0  0  0  0  0  0  0  0  0
   18.3724  -17.6516  -17.2025 C   0  0  0  0  0  0  0  0  0  0  0  0
   17.7097  -17.6592  -18.4030 C   0  0  0  0  0  0  0  0  0  0  0  0
   17.5670  -16.5066  -19.1132 C   0  0  0  0  0  0  0  0  0  0  0  0
   18.0936  -15.3197  -18.6218 C   0  0  0  0  0  0  0  0  0  0  0  0
   18.7632  -15.2829  -17.4201 C   0  0  0  0  0  0  0  0  0  0  0  0
   20.4999  -18.7841  -15.7791 O   0  0  0  0  0  0  0  0  0  0  0  0
   19.6882  -19.4644  -15.1069 O   0  0  0  0  0  0  0  0  0  0  0  0
  2  1  1  6
  3  2  1  0
  3  4  1  0
  4  5  2  0
  6  7  2  0
  6  2  1  0
  8  4  1  0
 10  9  1  0
 11 10  2  0
 12 13  1  0
 12 10  1  0
 13 14  1  0
 14 15  1  0
 16 15  1  1
 16 18  1  0
 16 17  1  0
 17  6  1  0
 18 20  1  0
 19 18  2  0
 20 21  1  0
 21 29  1  0
 22 23  1  0
 21 22  1  1
 23 24  2  0
 24 25  1  0
 26 25  2  0
 27 26  1  0
 28 27  2  0
 28 23  1  0
 29 30  2  0
 29 31  1  0
M  END
$$$$
