DRF.pdb
     RDKit          3D

 31 31  0  0  1  0  0  0  0  0999 V2000
   23.8581  -16.6909  -18.9220 N   0  0  0  0  0  0  0  0  0  0  0  0
   23.9105  -17.0077  -17.5177 C   0  0  1  0  0  0  0  0  0  0  0  0
   22.5545  -16.9064  -16.8551 C   0  0  0  0  0  0  0  0  0  0  0  0
   22.2572  -15.4952  -16.5316 C   0  0  0  0  0  0  0  0  0  0  0  0
   23.1512  -14.6226  -16.5291 O   0  0  0  0  0  0  0  0  0  0  0  0
   24.4370  -18.3923  -17.3941 C   0  0  0  0  0  0  0  0  0  0  0  0
   23.8400  -19.3886  -17.8680 O   0  0  0  0  0  0  0  0  0  0  0  0
   20.9626  -15.1292  -16.2245 O   0  0  0  0  0  0  0  0  0  0  0  0
   30.5529  -23.8393  -15.3596 N   0  0  0  0  0  0  0  0  0  0  0  0
   30.3604  -23.7817  -16.7624 C   0  0  0  0  0  0  0  0  0  0  0  0
   30.5152  -24.8261  -17.4860 N   0  0  0  0  0  0  0  0  0  0  0  0
   29.9925  -22.5301  -17.3275 N   0  0  0  0  0  0  0  0  0  0  0  0
   29.6204  -21.4187  -16.4936 C   0  0  0  0  0  0  0  0  0  0  0  0
   28.1207  -21.4266  -16.2699 C   0  0  0  0  0  0  0  0  0  0  0  0
   27.6613  -19.9838  -16.3742 C   0  0  0  0  0  0  0  0  0  0  0  0
   26.1265  -19.9328  -16.3405 C   0  0  2  0  0  0  0  0  0  0  0  0
   25.6581  -18.6237  -16.7201 N   0  0  0  0  0  0  0  0  0  0  0  0
   25.7139  -20.3393  -14.9985 C   0  0  0  0  0  0  0  0  0  0  0  0
   26.5470  -20.5671  -14.0926 O   0  0  0  0  0  0  0  0  0  0  0  0
   30.4860  -24.7616  -18.5193 N   0  0  0  0  0  0  0  0  0  0  0  0
   24.3391  -20.4850  -14.6967 C   0  0  1  0  0  0  0  0  0  0  0  0
   23.8887  -20.8436  -13.3734 C   0  0  0  0  0  0  0  0  0  0  0  0
   24.4507  -19.8314  -12.4227 C   0  0  0  0  0  0  0  0  0  0  0  0
   25.5824  -20.3125  -11.6229 C   0  0  0  0  0  0  0  0  0  0  0  0
   26.8603  -19.9201  -11.9825 C   0  0  0  0  0  0  0  0  0  0  0  0
   27.9318  -20.3568  -11.2466 C   0  0  0  0  0  0  0  0  0  0  0  0
   27.7384  -21.1694  -10.1718 C   0  0  0  0  0  0  0  0  0  0  0  0
   26.4531  -21.5579   -9.8187 C   0  0  0  0  0  0  0  0  0  0  0  0
   25.3595  -21.1348  -10.5391 C   0  0  0  0  0  0  0  0  0  0  0  0
   22.4233  -20.9658  -13.3473 O   0  0  0  0  0  0  0  0  0  0  0  0
   21.7552  -20.5752  -14.3345 O   0  0  0  0  0  0  0  0  0  0  0  0
  2  1  1  6
  3  2  1  0
  3  4  1  0
  4  5  2  0
  6  7  2  0
  6  2  1  0
  8  4  1  0
 10  9  1  0
 11 10  2  0
 12 13  1  0
 12 10  1  0
 13 14  1  0
 14 15  1  0
 16 15  1  1
 16 18  1  0
 16 17  1  0
 17  6  1  0
 18 20  1  0
 19 18  2  0
 20 21  1  0
 21 29  1  0
 22 23  1  0
 21 22  1  1
 23 24  2  0
 24 25  1  0
 26 25  2  0
 27 26  1  0
 28 27  2  0
 28 23  1  0
 29 30  2  0
 29 31  1  0
M  END
$$$$
