DRF.pdb
     RDKit          3D

 31 31  0  0  1  0  0  0  0  0999 V2000
   23.3687  -16.8251  -18.5726 N   0  0  0  0  0  0  0  0  0  0  0  0
   23.8615  -16.5962  -17.2385 C   0  0  1  0  0  0  0  0  0  0  0  0
   22.9173  -15.7488  -16.4150 C   0  0  0  0  0  0  0  0  0  0  0  0
   23.2858  -14.3226  -16.5365 C   0  0  0  0  0  0  0  0  0  0  0  0
   24.2291  -13.9510  -17.2664 O   0  0  0  0  0  0  0  0  0  0  0  0
   24.0446  -17.9254  -16.5986 C   0  0  0  0  0  0  0  0  0  0  0  0
   23.1187  -18.5206  -15.9969 O   0  0  0  0  0  0  0  0  0  0  0  0
   22.5734  -13.3764  -15.8284 O   0  0  0  0  0  0  0  0  0  0  0  0
   24.7262  -25.8652  -14.8512 N   0  0  0  0  0  0  0  0  0  0  0  0
   25.7185  -25.0163  -15.4016 C   0  0  0  0  0  0  0  0  0  0  0  0
   26.8947  -25.4588  -15.6442 N   0  0  0  0  0  0  0  0  0  0  0  0
   25.3583  -23.6675  -15.6705 N   0  0  0  0  0  0  0  0  0  0  0  0
   26.0292  -22.9084  -16.6916 C   0  0  0  0  0  0  0  0  0  0  0  0
   26.9600  -21.8980  -16.0495 C   0  0  0  0  0  0  0  0  0  0  0  0
   26.7009  -20.5723  -16.7416 C   0  0  0  0  0  0  0  0  0  0  0  0
   25.5973  -19.8116  -15.9913 C   0  0  2  0  0  0  0  0  0  0  0  0
   25.3032  -18.5670  -16.6558 N   0  0  0  0  0  0  0  0  0  0  0  0
   26.0511  -19.6494  -14.6115 C   0  0  0  0  0  0  0  0  0  0  0  0
   27.0297  -18.9257  -14.3194 O   0  0  0  0  0  0  0  0  0  0  0  0
   27.5850  -24.8744  -16.1491 N   0  0  0  0  0  0  0  0  0  0  0  0
   25.3784  -20.3216  -13.5636 C   0  0  1  0  0  0  0  0  0  0  0  0
   25.9688  -20.4651  -12.2546 C   0  0  0  0  0  0  0  0  0  0  0  0
   25.1561  -19.6369  -11.3070 C   0  0  0  0  0  0  0  0  0  0  0  0
   25.5199  -19.7976   -9.8950 C   0  0  0  0  0  0  0  0  0  0  0  0
   25.0295  -20.8939   -9.2066 C   0  0  0  0  0  0  0  0  0  0  0  0
   25.3595  -21.0640   -7.8866 C   0  0  0  0  0  0  0  0  0  0  0  0
   26.1628  -20.1611   -7.2601 C   0  0  0  0  0  0  0  0  0  0  0  0
   26.6499  -19.0645   -7.9586 C   0  0  0  0  0  0  0  0  0  0  0  0
   26.3350  -18.8688   -9.2839 C   0  0  0  0  0  0  0  0  0  0  0  0
   26.0750  -21.8870  -11.8944 O   0  0  0  0  0  0  0  0  0  0  0  0
   25.2012  -22.6914  -12.2981 O   0  0  0  0  0  0  0  0  0  0  0  0
  2  1  1  6
  3  2  1  0
  3  4  1  0
  4  5  2  0
  6  7  2  0
  6  2  1  0
  8  4  1  0
 10  9  1  0
 11 10  2  0
 12 13  1  0
 12 10  1  0
 13 14  1  0
 14 15  1  0
 16 15  1  6
 16 18  1  0
 16 17  1  0
 17  6  1  0
 18 20  1  0
 19 18  2  0
 20 21  1  0
 21 29  1  0
 22 23  1  0
 21 22  1  1
 23 24  2  0
 24 25  1  0
 26 25  2  0
 27 26  1  0
 28 27  2  0
 28 23  1  0
 29 30  2  0
 29 31  1  0
M  END
$$$$
