DRF.pdb
     RDKit          3D

 31 31  0  0  1  0  0  0  0  0999 V2000
   31.0451  -18.3360  -21.4625 N   0  0  0  0  0  0  0  0  0  0  0  0
   31.1050  -18.4859  -20.0311 C   0  0  1  0  0  0  0  0  0  0  0  0
   30.8289  -17.1877  -19.3056 C   0  0  0  0  0  0  0  0  0  0  0  0
   31.9369  -16.2371  -19.5367 C   0  0  0  0  0  0  0  0  0  0  0  0
   31.7307  -15.0119  -19.6676 O   0  0  0  0  0  0  0  0  0  0  0  0
   30.0963  -19.5088  -19.6490 C   0  0  0  0  0  0  0  0  0  0  0  0
   28.9319  -19.5188  -20.1155 O   0  0  0  0  0  0  0  0  0  0  0  0
   33.2310  -16.7105  -19.6103 O   0  0  0  0  0  0  0  0  0  0  0  0
   29.6592  -26.6259  -15.7827 N   0  0  0  0  0  0  0  0  0  0  0  0
   28.4112  -26.5993  -16.4538 C   0  0  0  0  0  0  0  0  0  0  0  0
   27.4834  -27.4231  -16.1395 N   0  0  0  0  0  0  0  0  0  0  0  0
   28.2336  -25.6309  -17.4793 N   0  0  0  0  0  0  0  0  0  0  0  0
   29.2644  -24.6756  -17.7862 C   0  0  0  0  0  0  0  0  0  0  0  0
   29.2004  -23.5212  -16.8051 C   0  0  0  0  0  0  0  0  0  0  0  0
   30.2023  -22.4885  -17.2882 C   0  0  0  0  0  0  0  0  0  0  0  0
   29.4910  -21.4713  -18.1931 C   0  0  2  0  0  0  0  0  0  0  0  0
   30.4371  -20.5228  -18.7246 N   0  0  0  0  0  0  0  0  0  0  0  0
   28.4284  -20.8598  -17.3973 C   0  0  0  0  0  0  0  0  0  0  0  0
   28.6686  -19.9784  -16.5417 O   0  0  0  0  0  0  0  0  0  0  0  0
   26.5858  -27.4295  -16.6562 N   0  0  0  0  0  0  0  0  0  0  0  0
   27.0851  -21.2629  -17.5851 C   0  0  2  0  0  0  0  0  0  0  0  0
   25.9981  -20.6253  -16.8818 C   0  0  0  0  0  0  0  0  0  0  0  0
   26.0153  -19.1751  -17.2575 C   0  0  0  0  0  0  0  0  0  0  0  0
   25.5188  -18.8923  -18.6086 C   0  0  0  0  0  0  0  0  0  0  0  0
   24.1608  -19.0068  -18.8513 C   0  0  0  0  0  0  0  0  0  0  0  0
   23.6757  -18.7445  -20.1068 C   0  0  0  0  0  0  0  0  0  0  0  0
   24.5244  -18.3747  -21.1048 C   0  0  0  0  0  0  0  0  0  0  0  0
   25.8849  -18.2625  -20.8521 C   0  0  0  0  0  0  0  0  0  0  0  0
   26.3992  -18.5196  -19.6018 C   0  0  0  0  0  0  0  0  0  0  0  0
   24.7316  -21.3187  -17.1606 O   0  0  0  0  0  0  0  0  0  0  0  0
   24.7221  -22.2862  -17.9589 O   0  0  0  0  0  0  0  0  0  0  0  0
  2  1  1  6
  3  2  1  0
  3  4  1  0
  4  5  2  0
  6  7  2  0
  6  2  1  0
  8  4  1  0
 10  9  1  0
 11 10  2  0
 12 13  1  0
 12 10  1  0
 13 14  1  0
 14 15  1  0
 16 15  1  1
 16 18  1  0
 16 17  1  0
 17  6  1  0
 18 20  1  0
 19 18  2  0
 20 21  1  0
 21 29  1  0
 22 23  1  0
 21 22  1  6
 23 24  2  0
 24 25  1  0
 26 25  2  0
 27 26  1  0
 28 27  2  0
 28 23  1  0
 29 30  2  0
 29 31  1  0
M  END
$$$$
