DRF.pdb
     RDKit          3D

 31 31  0  0  1  0  0  0  0  0999 V2000
   21.0576  -18.3172  -17.0564 N   0  0  0  0  0  0  0  0  0  0  0  0
   20.6414  -18.4559  -15.6843 C   0  0  1  0  0  0  0  0  0  0  0  0
   19.2032  -18.9083  -15.5633 C   0  0  0  0  0  0  0  0  0  0  0  0
   18.2979  -17.8348  -16.0246 C   0  0  0  0  0  0  0  0  0  0  0  0
   18.0396  -17.6728  -17.2361 O   0  0  0  0  0  0  0  0  0  0  0  0
   21.5444  -19.4483  -15.0444 C   0  0  0  0  0  0  0  0  0  0  0  0
   21.3659  -19.8723  -13.8773 O   0  0  0  0  0  0  0  0  0  0  0  0
   17.7227  -16.9894  -15.0979 O   0  0  0  0  0  0  0  0  0  0  0  0
   27.2916  -24.3887  -16.7490 N   0  0  0  0  0  0  0  0  0  0  0  0
   25.9218  -24.6036  -17.0423 C   0  0  0  0  0  0  0  0  0  0  0  0
   25.3464  -25.6968  -16.7074 N   0  0  0  0  0  0  0  0  0  0  0  0
   25.2204  -23.5670  -17.7164 N   0  0  0  0  0  0  0  0  0  0  0  0
   25.8333  -22.2876  -17.9543 C   0  0  0  0  0  0  0  0  0  0  0  0
   25.3994  -21.3054  -16.8835 C   0  0  0  0  0  0  0  0  0  0  0  0
   24.1053  -21.8451  -16.3022 C   0  0  0  0  0  0  0  0  0  0  0  0
   23.6002  -20.8918  -15.2087 C   0  0  2  0  0  0  0  0  0  0  0  0
   22.6565  -19.9511  -15.7579 N   0  0  0  0  0  0  0  0  0  0  0  0
   24.7770  -20.2640  -14.6108 C   0  0  0  0  0  0  0  0  0  0  0  0
   25.1059  -19.0869  -14.8809 O   0  0  0  0  0  0  0  0  0  0  0  0
   24.3392  -25.8435  -16.8992 N   0  0  0  0  0  0  0  0  0  0  0  0
   25.5788  -20.9915  -13.6997 C   0  0  2  0  0  0  0  0  0  0  0  0
   26.7245  -20.3949  -13.0561 C   0  0  0  0  0  0  0  0  0  0  0  0
   26.2163  -19.2982  -12.1710 C   0  0  0  0  0  0  0  0  0  0  0  0
   25.4851  -19.7631  -10.9874 C   0  0  0  0  0  0  0  0  0  0  0  0
   26.1706  -19.8797   -9.7904 C   0  0  0  0  0  0  0  0  0  0  0  0
   25.5051  -20.3102   -8.6714 C   0  0  0  0  0  0  0  0  0  0  0  0
   24.1813  -20.6200   -8.7392 C   0  0  0  0  0  0  0  0  0  0  0  0
   23.5020  -20.5001   -9.9442 C   0  0  0  0  0  0  0  0  0  0  0  0
   24.1446  -20.0705  -11.0827 C   0  0  0  0  0  0  0  0  0  0  0  0
   27.5181  -21.4240  -12.3677 O   0  0  0  0  0  0  0  0  0  0  0  0
   27.0718  -22.5935  -12.2860 O   0  0  0  0  0  0  0  0  0  0  0  0
  2  1  1  6
  3  2  1  0
  3  4  1  0
  4  5  2  0
  6  7  2  0
  6  2  1  0
  8  4  1  0
 10  9  1  0
 11 10  2  0
 12 13  1  0
 12 10  1  0
 13 14  1  0
 14 15  1  0
 16 15  1  6
 16 18  1  0
 16 17  1  0
 17  6  1  0
 18 20  1  0
 19 18  2  0
 20 21  1  0
 21 29  1  0
 22 23  1  0
 21 22  1  6
 23 24  2  0
 24 25  1  0
 26 25  2  0
 27 26  1  0
 28 27  2  0
 28 23  1  0
 29 30  2  0
 29 31  1  0
M  END
$$$$
