DRF.pdb
     RDKit          3D

 31 31  0  0  1  0  0  0  0  0999 V2000
   14.3951  -11.7833  -16.0458 N   0  0  0  0  0  0  0  0  0  0  0  0
   15.5474  -12.0430  -15.2213 C   0  0  1  0  0  0  0  0  0  0  0  0
   16.5047  -13.0220  -15.8640 C   0  0  0  0  0  0  0  0  0  0  0  0
   17.6705  -13.2383  -14.9815 C   0  0  0  0  0  0  0  0  0  0  0  0
   17.6048  -13.0366  -13.7503 O   0  0  0  0  0  0  0  0  0  0  0  0
   16.2281  -10.7424  -14.9870 C   0  0  0  0  0  0  0  0  0  0  0  0
   16.8654  -10.1404  -15.8843 O   0  0  0  0  0  0  0  0  0  0  0  0
   18.8611  -13.6732  -15.5268 O   0  0  0  0  0  0  0  0  0  0  0  0
   15.6499   -6.0383   -7.8789 N   0  0  0  0  0  0  0  0  0  0  0  0
   14.5724   -6.4604   -8.6969 C   0  0  0  0  0  0  0  0  0  0  0  0
   13.3898   -6.0110   -8.5018 N   0  0  0  0  0  0  0  0  0  0  0  0
   14.8551   -7.3931   -9.7319 N   0  0  0  0  0  0  0  0  0  0  0  0
   16.1461   -8.0187   -9.8364 C   0  0  0  0  0  0  0  0  0  0  0  0
   16.1467   -9.0005  -10.9920 C   0  0  0  0  0  0  0  0  0  0  0  0
   16.0043   -8.1762  -12.2585 C   0  0  0  0  0  0  0  0  0  0  0  0
   16.7665   -8.8618  -13.4024 C   0  0  2  0  0  0  0  0  0  0  0  0
   16.1704  -10.1374  -13.7105 N   0  0  0  0  0  0  0  0  0  0  0  0
   18.1664   -8.9502  -12.9918 C   0  0  0  0  0  0  0  0  0  0  0  0
   18.5793   -9.8684  -12.2481 O   0  0  0  0  0  0  0  0  0  0  0  0
   12.6147   -6.2710   -9.1377 N   0  0  0  0  0  0  0  0  0  0  0  0
   19.0950   -7.9797  -13.4368 C   0  0  2  0  0  0  0  0  0  0  0  0
   20.5092   -8.1120  -13.1812 C   0  0  0  0  0  0  0  0  0  0  0  0
   21.2278   -7.6811  -14.4231 C   0  0  0  0  0  0  0  0  0  0  0  0
   21.1383   -6.2450  -14.7088 C   0  0  0  0  0  0  0  0  0  0  0  0
   22.1173   -5.4079  -14.2019 C   0  0  0  0  0  0  0  0  0  0  0  0
   22.0537   -4.0626  -14.4594 C   0  0  0  0  0  0  0  0  0  0  0  0
   21.0352   -3.5564  -15.2076 C   0  0  0  0  0  0  0  0  0  0  0  0
   20.0577   -4.4037  -15.7117 C   0  0  0  0  0  0  0  0  0  0  0  0
   20.0967   -5.7577  -15.4691 C   0  0  0  0  0  0  0  0  0  0  0  0
   20.8809   -7.3713  -11.9663 O   0  0  0  0  0  0  0  0  0  0  0  0
   22.0375   -7.4982  -11.4974 O   0  0  0  0  0  0  0  0  0  0  0  0
  2  1  1  6
  3  2  1  0
  3  4  1  0
  4  5  2  0
  6  7  2  0
  6  2  1  0
  8  4  1  0
 10  9  1  0
 11 10  2  0
 12 13  1  0
 12 10  1  0
 13 14  1  0
 14 15  1  0
 16 15  1  1
 16 18  1  0
 16 17  1  0
 17  6  1  0
 18 20  1  0
 19 18  2  0
 20 21  1  0
 21 29  1  0
 22 23  1  0
 21 22  1  6
 23 24  2  0
 24 25  1  0
 26 25  2  0
 27 26  1  0
 28 27  2  0
 28 23  1  0
 29 30  2  0
 29 31  1  0
M  END
$$$$
