DRF.pdb
     RDKit          3D

 31 31  0  0  1  0  0  0  0  0999 V2000
   29.2434  -19.9366  -17.2845 N   0  0  0  0  0  0  0  0  0  0  0  0
   28.2727  -20.9041  -16.8410 C   0  0  1  0  0  0  0  0  0  0  0  0
   28.9122  -22.2100  -16.4247 C   0  0  0  0  0  0  0  0  0  0  0  0
   29.5186  -22.8701  -17.6001 C   0  0  0  0  0  0  0  0  0  0  0  0
   30.4406  -23.7042  -17.4782 O   0  0  0  0  0  0  0  0  0  0  0  0
   27.5410  -20.3054  -15.6939 C   0  0  0  0  0  0  0  0  0  0  0  0
   28.1235  -19.8733  -14.6704 O   0  0  0  0  0  0  0  0  0  0  0  0
   29.0581  -22.5600  -18.8633 O   0  0  0  0  0  0  0  0  0  0  0  0
   20.1436  -21.3028  -12.0275 N   0  0  0  0  0  0  0  0  0  0  0  0
   19.8432  -20.6500  -13.2489 C   0  0  0  0  0  0  0  0  0  0  0  0
   18.6293  -20.4285  -13.5893 N   0  0  0  0  0  0  0  0  0  0  0  0
   20.9331  -20.2554  -14.0721 N   0  0  0  0  0  0  0  0  0  0  0  0
   22.2917  -20.3770  -13.6154 C   0  0  0  0  0  0  0  0  0  0  0  0
   23.0422  -19.0892  -13.8939 C   0  0  0  0  0  0  0  0  0  0  0  0
   23.9271  -19.3574  -15.0976 C   0  0  0  0  0  0  0  0  0  0  0  0
   25.3300  -19.7614  -14.6200 C   0  0  2  0  0  0  0  0  0  0  0  0
   26.1311  -20.2068  -15.7323 N   0  0  0  0  0  0  0  0  0  0  0  0
   25.1536  -20.7725  -13.5795 C   0  0  0  0  0  0  0  0  0  0  0  0
   24.7631  -21.9316  -13.8451 O   0  0  0  0  0  0  0  0  0  0  0  0
   18.4093  -19.9708  -14.4920 N   0  0  0  0  0  0  0  0  0  0  0  0
   25.4263  -20.4503  -12.2289 C   0  0  2  0  0  0  0  0  0  0  0  0
   25.1309  -21.3702  -11.1568 C   0  0  0  0  0  0  0  0  0  0  0  0
   26.4318  -21.7237  -10.5032 C   0  0  0  0  0  0  0  0  0  0  0  0
   26.8667  -20.7806   -9.4673 C   0  0  0  0  0  0  0  0  0  0  0  0
   28.1575  -20.2839   -9.5254 C   0  0  0  0  0  0  0  0  0  0  0  0
   28.5832  -19.3992   -8.5681 C   0  0  0  0  0  0  0  0  0  0  0  0
   27.7419  -19.0138   -7.5697 C   0  0  0  0  0  0  0  0  0  0  0  0
   26.4490  -19.5174   -7.5195 C   0  0  0  0  0  0  0  0  0  0  0  0
   25.9952  -20.4064   -8.4668 C   0  0  0  0  0  0  0  0  0  0  0  0
   24.1236  -20.7955  -10.2525 O   0  0  0  0  0  0  0  0  0  0  0  0
   23.5438  -21.5385   -9.4247 O   0  0  0  0  0  0  0  0  0  0  0  0
  2  1  1  1
  3  2  1  0
  3  4  1  0
  4  5  2  0
  6  7  2  0
  6  2  1  0
  8  4  1  0
 10  9  1  0
 11 10  2  0
 12 13  1  0
 12 10  1  0
 13 14  1  0
 14 15  1  0
 16 15  1  6
 16 18  1  0
 16 17  1  0
 17  6  1  0
 18 20  1  0
 19 18  2  0
 20 21  1  0
 21 29  1  0
 22 23  1  0
 21 22  1  6
 23 24  2  0
 24 25  1  0
 26 25  2  0
 27 26  1  0
 28 27  2  0
 28 23  1  0
 29 30  2  0
 29 31  1  0
M  END
$$$$
