DRF.pdb
     RDKit          3D

 31 31  0  0  1  0  0  0  0  0999 V2000
   25.1970  -19.3860  -19.3693 N   0  0  0  0  0  0  0  0  0  0  0  0
   26.1762  -19.4279  -18.3136 C   0  0  1  0  0  0  0  0  0  0  0  0
   26.7074  -18.0544  -17.9681 C   0  0  0  0  0  0  0  0  0  0  0  0
   27.7419  -17.6550  -18.9453 C   0  0  0  0  0  0  0  0  0  0  0  0
   28.2140  -18.4689  -19.7671 O   0  0  0  0  0  0  0  0  0  0  0  0
   25.5225  -20.0362  -17.1252 C   0  0  0  0  0  0  0  0  0  0  0  0
   24.3860  -19.6872  -16.7247 O   0  0  0  0  0  0  0  0  0  0  0  0
   28.1996  -16.3532  -18.9528 O   0  0  0  0  0  0  0  0  0  0  0  0
   23.0860  -24.9826  -17.7695 N   0  0  0  0  0  0  0  0  0  0  0  0
   23.1340  -25.9271  -16.7140 C   0  0  0  0  0  0  0  0  0  0  0  0
   22.0928  -26.5973  -16.3899 N   0  0  0  0  0  0  0  0  0  0  0  0
   24.3724  -26.0982  -16.0371 N   0  0  0  0  0  0  0  0  0  0  0  0
   25.5164  -25.2901  -16.3645 C   0  0  0  0  0  0  0  0  0  0  0  0
   25.1284  -23.8243  -16.3498 C   0  0  0  0  0  0  0  0  0  0  0  0
   25.9181  -23.1803  -15.2249 C   0  0  0  0  0  0  0  0  0  0  0  0
   25.6486  -21.6681  -15.2125 C   0  0  2  0  0  0  0  0  0  0  0  0
   26.1864  -21.0515  -16.3990 N   0  0  0  0  0  0  0  0  0  0  0  0
   26.2109  -21.1431  -13.9697 C   0  0  0  0  0  0  0  0  0  0  0  0
   27.4355  -20.9175  -13.8431 O   0  0  0  0  0  0  0  0  0  0  0  0
   22.1069  -27.2317  -15.5713 N   0  0  0  0  0  0  0  0  0  0  0  0
   25.3631  -20.8769  -12.8686 C   0  0  2  0  0  0  0  0  0  0  0  0
   25.8695  -20.3040  -11.6446 C   0  0  0  0  0  0  0  0  0  0  0  0
   24.8955  -19.2521  -11.2097 C   0  0  0  0  0  0  0  0  0  0  0  0
   23.5670  -19.7638  -10.8562 C   0  0  0  0  0  0  0  0  0  0  0  0
   23.2666  -19.9552   -9.5185 C   0  0  0  0  0  0  0  0  0  0  0  0
   22.0295  -20.4304   -9.1665 C   0  0  0  0  0  0  0  0  0  0  0  0
   21.1058  -20.7113  -10.1262 C   0  0  0  0  0  0  0  0  0  0  0  0
   21.4160  -20.5164  -11.4654 C   0  0  0  0  0  0  0  0  0  0  0  0
   22.6495  -20.0405  -11.8473 C   0  0  0  0  0  0  0  0  0  0  0  0
   26.1206  -21.3591  -10.6514 O   0  0  0  0  0  0  0  0  0  0  0  0
   25.7384  -22.5304  -10.8872 O   0  0  0  0  0  0  0  0  0  0  0  0
  2  1  1  6
  3  2  1  0
  3  4  1  0
  4  5  2  0
  6  7  2  0
  6  2  1  0
  8  4  1  0
 10  9  1  0
 11 10  2  0
 12 13  1  0
 12 10  1  0
 13 14  1  0
 14 15  1  0
 16 15  1  6
 16 18  1  0
 16 17  1  0
 17  6  1  0
 18 20  1  0
 19 18  2  0
 20 21  1  0
 21 29  1  0
 22 23  1  0
 21 22  1  6
 23 24  2  0
 24 25  1  0
 26 25  2  0
 27 26  1  0
 28 27  2  0
 28 23  1  0
 29 30  2  0
 29 31  1  0
M  END
$$$$
