TMF.pdb
     RDKit          3D

 27 27  0  0  1  0  0  0  0  0999 V2000
   25.4669  -11.7256  -15.4333 C   0  0  0  0  0  0  0  0  0  0  0  0
   25.8935  -12.3238  -16.7579 C   0  0  1  0  0  0  0  0  0  0  0  0
   26.6656  -13.4563  -16.5907 O   0  0  0  0  0  0  0  0  0  0  0  0
   24.6592  -12.5935  -17.6226 C   0  0  2  0  0  0  0  0  0  0  0  0
   25.1184  -13.1733  -18.8394 N   0  0  0  0  0  0  0  0  0  0  0  0
   23.8717  -11.3384  -17.8006 C   0  0  0  0  0  0  0  0  0  0  0  0
   24.2714  -10.4966  -18.6201 O   0  0  0  0  0  0  0  0  0  0  0  0
   16.6797   -8.1534  -17.5303 C   0  0  0  0  0  0  0  0  0  0  0  0
   17.7580   -9.5772  -17.3820 S   0  0  0  0  0  0  0  0  0  0  0  0
   19.5074   -9.0772  -17.1806 C   0  0  0  0  0  0  0  0  0  0  0  0
   20.3629  -10.3006  -17.1869 C   0  0  0  0  0  0  0  0  0  0  0  0
   21.8552   -9.9662  -17.0525 C   0  0  2  0  0  0  0  0  0  0  0  0
   22.6964  -11.0978  -17.0617 N   0  0  0  0  0  0  0  0  0  0  0  0
   22.0334   -8.9863  -15.9927 C   0  0  0  0  0  0  0  0  0  0  0  0
   21.8407   -9.3512  -14.8043 O   0  0  0  0  0  0  0  0  0  0  0  0
   22.4122   -7.6319  -16.1847 N   0  0  0  0  0  0  0  0  0  0  0  0
   22.6010   -6.6916  -15.0659 C   0  0  1  0  0  0  0  0  0  0  0  0
   24.0457   -6.4565  -14.8090 C   0  0  0  0  0  0  0  0  0  0  0  0
   24.7202   -6.0038  -16.0422 C   0  0  0  0  0  0  0  0  0  0  0  0
   25.2884   -6.8866  -16.9509 C   0  0  0  0  0  0  0  0  0  0  0  0
   25.9053   -6.4316  -18.0928 C   0  0  0  0  0  0  0  0  0  0  0  0
   25.9950   -5.0940  -18.3982 C   0  0  0  0  0  0  0  0  0  0  0  0
   25.4383   -4.2101  -17.5097 C   0  0  0  0  0  0  0  0  0  0  0  0
   24.8167   -4.6454  -16.3619 C   0  0  0  0  0  0  0  0  0  0  0  0
   21.8925   -5.4616  -15.4031 C   0  0  0  0  0  0  0  0  0  0  0  0
   21.7604   -4.4288  -14.5016 O   0  0  0  0  0  0  0  0  0  0  0  0
   21.3761   -5.3105  -16.5352 O   0  0  0  0  0  0  0  0  0  0  0  0
  2  1  1  1
  2  4  1  0
  3  2  1  0
  4  6  1  0
  4  5  1  6
  6  7  2  0
  9  8  1  0
 10  9  1  0
 11 10  1  0
 12 11  1  1
 13  6  1  0
 13 12  1  0
 14 12  1  0
 14 15  2  0
 16 14  1  0
 17 16  1  0
 17 25  1  0
 17 18  1  6
 19 24  2  0
 19 18  1  0
 20 19  1  0
 21 22  1  0
 21 20  2  0
 22 23  2  0
 23 24  1  0
 25 27  2  0
 25 26  1  0
M  END
$$$$
