TMF.pdb
     RDKit          3D

 27 27  0  0  1  0  0  0  0  0999 V2000
   23.9194   -9.3393  -18.4147 C   0  0  0  0  0  0  0  0  0  0  0  0
   23.3436  -10.6020  -19.0215 C   0  0  1  0  0  0  0  0  0  0  0  0
   24.3270  -11.5115  -19.3564 O   0  0  0  0  0  0  0  0  0  0  0  0
   22.3057  -11.2036  -18.0702 C   0  0  2  0  0  0  0  0  0  0  0  0
   21.9406  -12.4749  -18.5978 N   0  0  0  0  0  0  0  0  0  0  0  0
   21.1617  -10.2615  -17.8946 C   0  0  0  0  0  0  0  0  0  0  0  0
   20.6024   -9.8099  -18.9061 O   0  0  0  0  0  0  0  0  0  0  0  0
   15.4828  -12.4615  -15.7161 C   0  0  0  0  0  0  0  0  0  0  0  0
   16.4498  -11.1559  -14.9597 S   0  0  0  0  0  0  0  0  0  0  0  0
   17.7530  -10.5439  -16.0902 C   0  0  0  0  0  0  0  0  0  0  0  0
   18.6126   -9.5704  -15.3540 C   0  0  0  0  0  0  0  0  0  0  0  0
   19.7041   -8.9668  -16.2491 C   0  0  2  0  0  0  0  0  0  0  0  0
   20.7129   -9.8818  -16.6141 N   0  0  0  0  0  0  0  0  0  0  0  0
   20.1081   -7.6779  -15.7097 C   0  0  0  0  0  0  0  0  0  0  0  0
   20.8079   -7.6615  -14.6645 O   0  0  0  0  0  0  0  0  0  0  0  0
   19.7766   -6.4160  -16.2686 N   0  0  0  0  0  0  0  0  0  0  0  0
   20.1649   -5.1405  -15.6411 C   0  0  1  0  0  0  0  0  0  0  0  0
   20.8617   -4.2608  -16.6153 C   0  0  0  0  0  0  0  0  0  0  0  0
   22.2459   -4.7277  -16.8311 C   0  0  0  0  0  0  0  0  0  0  0  0
   23.2328   -4.6157  -15.8608 C   0  0  0  0  0  0  0  0  0  0  0  0
   24.5117   -5.0654  -16.0927 C   0  0  0  0  0  0  0  0  0  0  0  0
   24.8839   -5.6445  -17.2829 C   0  0  0  0  0  0  0  0  0  0  0  0
   23.9197   -5.7617  -18.2509 C   0  0  0  0  0  0  0  0  0  0  0  0
   22.6346   -5.3181  -18.0382 C   0  0  0  0  0  0  0  0  0  0  0  0
   18.9524   -4.5261  -15.1109 C   0  0  0  0  0  0  0  0  0  0  0  0
   17.7122   -5.0997  -15.2834 O   0  0  0  0  0  0  0  0  0  0  0  0
   19.0067   -3.4452  -14.4786 O   0  0  0  0  0  0  0  0  0  0  0  0
  2  1  1  1
  2  4  1  0
  3  2  1  0
  4  6  1  0
  4  5  1  6
  6  7  2  0
  9  8  1  0
 10  9  1  0
 11 10  1  0
 12 11  1  1
 13  6  1  0
 13 12  1  0
 14 12  1  0
 14 15  2  0
 16 14  1  0
 17 16  1  0
 17 25  1  0
 17 18  1  6
 19 24  2  0
 19 18  1  0
 20 19  1  0
 21 22  1  0
 21 20  2  0
 22 23  2  0
 23 24  1  0
 25 27  2  0
 25 26  1  0
M  END
$$$$
