TMF.pdb
     RDKit          3D

 27 27  0  0  1  0  0  0  0  0999 V2000
   28.8204  -18.6956  -15.9823 C   0  0  0  0  0  0  0  0  0  0  0  0
   27.6720  -19.3109  -15.2096 C   0  0  1  0  0  0  0  0  0  0  0  0
   26.4722  -19.1931  -15.8827 O   0  0  0  0  0  0  0  0  0  0  0  0
   28.0002  -20.7679  -14.8726 C   0  0  2  0  0  0  0  0  0  0  0  0
   28.1298  -21.4648  -16.1076 N   0  0  0  0  0  0  0  0  0  0  0  0
   26.9640  -21.3301  -13.9575 C   0  0  0  0  0  0  0  0  0  0  0  0
   26.0940  -22.0771  -14.4315 O   0  0  0  0  0  0  0  0  0  0  0  0
   27.6766  -20.9437   -7.4632 C   0  0  0  0  0  0  0  0  0  0  0  0
   25.8889  -20.8295   -7.5213 S   0  0  0  0  0  0  0  0  0  0  0  0
   25.2521  -21.1149   -9.2136 C   0  0  0  0  0  0  0  0  0  0  0  0
   26.3582  -20.8878  -10.1903 C   0  0  0  0  0  0  0  0  0  0  0  0
   25.9184  -21.1520  -11.6372 C   0  0  2  0  0  0  0  0  0  0  0  0
   26.9588  -21.0291  -12.5810 N   0  0  0  0  0  0  0  0  0  0  0  0
   24.6708  -20.4503  -11.8948 C   0  0  0  0  0  0  0  0  0  0  0  0
   24.6854  -19.1924  -11.9068 O   0  0  0  0  0  0  0  0  0  0  0  0
   23.4174  -21.0705  -12.1380 N   0  0  0  0  0  0  0  0  0  0  0  0
   22.2105  -20.3094  -12.5061 C   0  0  1  0  0  0  0  0  0  0  0  0
   22.3993  -19.6112  -13.8042 C   0  0  0  0  0  0  0  0  0  0  0  0
   22.4498  -20.5878  -14.9107 C   0  0  0  0  0  0  0  0  0  0  0  0
   21.3078  -21.1562  -15.4591 C   0  0  0  0  0  0  0  0  0  0  0  0
   21.3900  -22.0596  -16.4929 C   0  0  0  0  0  0  0  0  0  0  0  0
   22.5914  -22.4485  -17.0371 C   0  0  0  0  0  0  0  0  0  0  0  0
   23.7280  -21.8954  -16.5053 C   0  0  0  0  0  0  0  0  0  0  0  0
   23.6668  -20.9898  -15.4711 C   0  0  0  0  0  0  0  0  0  0  0  0
   21.0943  -21.2482  -12.5409 C   0  0  0  0  0  0  0  0  0  0  0  0
   19.8089  -20.8387  -12.8186 O   0  0  0  0  0  0  0  0  0  0  0  0
   21.2763  -22.4674  -12.3138 O   0  0  0  0  0  0  0  0  0  0  0  0
  2  1  1  6
  2  4  1  0
  3  2  1  0
  4  6  1  0
  4  5  1  6
  6  7  2  0
  9  8  1  0
 10  9  1  0
 11 10  1  0
 12 11  1  1
 13  6  1  0
 13 12  1  0
 14 12  1  0
 14 15  2  0
 16 14  1  0
 17 16  1  0
 17 25  1  0
 17 18  1  6
 19 24  2  0
 19 18  1  0
 20 19  1  0
 21 22  1  0
 21 20  2  0
 22 23  2  0
 23 24  1  0
 25 27  2  0
 25 26  1  0
M  END
$$$$
