TMF.pdb
     RDKit          3D

 27 27  0  0  1  0  0  0  0  0999 V2000
   23.1662  -17.1299  -18.6103 C   0  0  0  0  0  0  0  0  0  0  0  0
   24.0251  -16.4795  -17.5455 C   0  0  1  0  0  0  0  0  0  0  0  0
   23.2855  -16.1007  -16.4428 O   0  0  0  0  0  0  0  0  0  0  0  0
   25.1767  -17.4158  -17.1699 C   0  0  2  0  0  0  0  0  0  0  0  0
   25.9873  -17.5698  -18.3305 N   0  0  0  0  0  0  0  0  0  0  0  0
   24.6406  -18.6966  -16.6225 C   0  0  0  0  0  0  0  0  0  0  0  0
   24.0966  -19.4949  -17.4013 O   0  0  0  0  0  0  0  0  0  0  0  0
   27.0463  -21.1437  -11.1402 C   0  0  0  0  0  0  0  0  0  0  0  0
   25.4078  -21.8542  -10.9903 S   0  0  0  0  0  0  0  0  0  0  0  0
   24.4131  -21.5738  -12.5013 C   0  0  0  0  0  0  0  0  0  0  0  0
   24.8941  -20.3297  -13.1718 C   0  0  0  0  0  0  0  0  0  0  0  0
   24.2364  -20.1177  -14.5427 C   0  0  2  0  0  0  0  0  0  0  0  0
   24.7415  -19.0089  -15.2523 N   0  0  0  0  0  0  0  0  0  0  0  0
   22.7941  -20.2478  -14.4078 C   0  0  0  0  0  0  0  0  0  0  0  0
   22.1504  -19.2806  -13.9253 O   0  0  0  0  0  0  0  0  0  0  0  0
   22.0365  -21.3893  -14.7790 N   0  0  0  0  0  0  0  0  0  0  0  0
   20.5633  -21.4108  -14.7510 C   0  0  1  0  0  0  0  0  0  0  0  0
   19.9999  -20.5152  -15.7944 C   0  0  0  0  0  0  0  0  0  0  0  0
   18.5266  -20.6133  -15.8154 C   0  0  0  0  0  0  0  0  0  0  0  0
   17.7158  -19.8748  -14.9639 C   0  0  0  0  0  0  0  0  0  0  0  0
   16.3458  -19.9865  -15.0128 C   0  0  0  0  0  0  0  0  0  0  0  0
   15.7066  -20.8246  -15.8957 C   0  0  0  0  0  0  0  0  0  0  0  0
   16.4947  -21.5605  -16.7430 C   0  0  0  0  0  0  0  0  0  0  0  0
   17.8668  -21.4628  -16.7097 C   0  0  0  0  0  0  0  0  0  0  0  0
   20.1420  -22.7966  -14.9262 C   0  0  0  0  0  0  0  0  0  0  0  0
   19.0523  -23.3142  -14.2616 O   0  0  0  0  0  0  0  0  0  0  0  0
   20.7694  -23.5639  -15.6934 O   0  0  0  0  0  0  0  0  0  0  0  0
  2  1  1  6
  2  4  1  0
  3  2  1  0
  4  6  1  0
  4  5  1  6
  6  7  2  0
  9  8  1  0
 10  9  1  0
 11 10  1  0
 12 11  1  1
 13  6  1  0
 13 12  1  0
 14 12  1  0
 14 15  2  0
 16 14  1  0
 17 16  1  0
 17 25  1  0
 17 18  1  6
 19 24  2  0
 19 18  1  0
 20 19  1  0
 21 22  1  0
 21 20  2  0
 22 23  2  0
 23 24  1  0
 25 27  2  0
 25 26  1  0
M  END
$$$$
