TMF.pdb
     RDKit          3D

 27 27  0  0  1  0  0  0  0  0999 V2000
   30.2696  -33.5595  -18.3904 C   0  0  0  0  0  0  0  0  0  0  0  0
   29.7396  -33.4849  -16.9734 C   0  0  1  0  0  0  0  0  0  0  0  0
   30.4009  -34.3518  -16.1262 O   0  0  0  0  0  0  0  0  0  0  0  0
   29.8012  -32.0382  -16.4761 C   0  0  2  0  0  0  0  0  0  0  0  0
   29.1600  -32.0042  -15.2051 N   0  0  0  0  0  0  0  0  0  0  0  0
   29.2026  -31.1201  -17.4891 C   0  0  0  0  0  0  0  0  0  0  0  0
   27.9898  -30.8671  -17.4195 O   0  0  0  0  0  0  0  0  0  0  0  0
   33.1538  -28.4985  -22.2466 C   0  0  0  0  0  0  0  0  0  0  0  0
   31.8179  -27.3118  -22.1093 S   0  0  0  0  0  0  0  0  0  0  0  0
   30.3396  -28.0522  -21.3236 C   0  0  0  0  0  0  0  0  0  0  0  0
   30.7826  -29.0577  -20.3130 C   0  0  0  0  0  0  0  0  0  0  0  0
   29.6004  -29.6828  -19.5590 C   0  0  2  0  0  0  0  0  0  0  0  0
   29.9838  -30.5439  -18.5103 N   0  0  0  0  0  0  0  0  0  0  0  0
   28.6197  -30.1639  -20.5192 C   0  0  0  0  0  0  0  0  0  0  0  0
   28.9434  -31.1146  -21.2769 O   0  0  0  0  0  0  0  0  0  0  0  0
   27.3077  -29.6465  -20.6790 N   0  0  0  0  0  0  0  0  0  0  0  0
   26.3211  -30.2466  -21.5945 C   0  0  1  0  0  0  0  0  0  0  0  0
   24.9878  -30.3462  -20.9459 C   0  0  0  0  0  0  0  0  0  0  0  0
   24.2172  -29.1051  -21.1617 C   0  0  0  0  0  0  0  0  0  0  0  0
   24.2370  -28.0468  -20.2631 C   0  0  0  0  0  0  0  0  0  0  0  0
   23.5108  -26.9024  -20.4969 C   0  0  0  0  0  0  0  0  0  0  0  0
   22.7326  -26.7407  -21.6189 C   0  0  0  0  0  0  0  0  0  0  0  0
   22.7031  -27.7779  -22.5154 C   0  0  0  0  0  0  0  0  0  0  0  0
   23.4226  -28.9308  -22.2997 C   0  0  0  0  0  0  0  0  0  0  0  0
   26.2886  -29.4276  -22.8014 C   0  0  0  0  0  0  0  0  0  0  0  0
   27.0098  -28.2588  -22.9059 O   0  0  0  0  0  0  0  0  0  0  0  0
   25.5930  -29.7678  -23.7870 O   0  0  0  0  0  0  0  0  0  0  0  0
  2  1  1  6
  2  4  1  0
  3  2  1  0
  4  6  1  0
  4  5  1  1
  6  7  2  0
  9  8  1  0
 10  9  1  0
 11 10  1  0
 12 11  1  6
 13  6  1  0
 13 12  1  0
 14 12  1  0
 14 15  2  0
 16 14  1  0
 17 16  1  0
 17 25  1  0
 17 18  1  1
 19 24  2  0
 19 18  1  0
 20 19  1  0
 21 22  1  0
 21 20  2  0
 22 23  2  0
 23 24  1  0
 25 27  2  0
 25 26  1  0
M  END
$$$$
