TMF.pdb
     RDKit          3D

 27 27  0  0  1  0  0  0  0  0999 V2000
   20.5868  -22.9664  -12.4083 C   0  0  0  0  0  0  0  0  0  0  0  0
   21.7839  -22.0429  -12.3163 C   0  0  1  0  0  0  0  0  0  0  0  0
   22.0791  -21.4541  -13.5298 O   0  0  0  0  0  0  0  0  0  0  0  0
   21.5495  -21.0039  -11.2164 C   0  0  2  0  0  0  0  0  0  0  0  0
   20.4527  -20.1956  -11.6304 N   0  0  0  0  0  0  0  0  0  0  0  0
   22.8057  -20.2431  -10.9513 C   0  0  0  0  0  0  0  0  0  0  0  0
   22.9446  -19.1247  -11.4706 O   0  0  0  0  0  0  0  0  0  0  0  0
   26.3645  -20.1153   -5.7269 C   0  0  0  0  0  0  0  0  0  0  0  0
   27.6734  -19.6523   -6.8603 S   0  0  0  0  0  0  0  0  0  0  0  0
   27.1391  -19.8096   -8.6041 C   0  0  0  0  0  0  0  0  0  0  0  0
   25.7340  -20.3130   -8.6348 C   0  0  0  0  0  0  0  0  0  0  0  0
   25.1909  -20.4315  -10.0659 C   0  0  2  0  0  0  0  0  0  0  0  0
   23.8234  -20.7689  -10.1309 N   0  0  0  0  0  0  0  0  0  0  0  0
   26.1270  -21.1992  -10.8719 C   0  0  0  0  0  0  0  0  0  0  0  0
   26.1725  -22.4456  -10.7082 O   0  0  0  0  0  0  0  0  0  0  0  0
   27.0082  -20.6564  -11.8433 N   0  0  0  0  0  0  0  0  0  0  0  0
   26.8287  -20.8718  -13.2900 C   0  0  1  0  0  0  0  0  0  0  0  0
   25.4047  -20.7006  -13.6790 C   0  0  0  0  0  0  0  0  0  0  0  0
   25.2501  -20.8444  -15.1405 C   0  0  0  0  0  0  0  0  0  0  0  0
   25.0782  -19.7558  -15.9849 C   0  0  0  0  0  0  0  0  0  0  0  0
   24.9419  -19.9245  -17.3431 C   0  0  0  0  0  0  0  0  0  0  0  0
   24.9673  -21.1643  -17.9372 C   0  0  0  0  0  0  0  0  0  0  0  0
   25.1362  -22.2491  -17.1154 C   0  0  0  0  0  0  0  0  0  0  0  0
   25.2745  -22.1011  -15.7544 C   0  0  0  0  0  0  0  0  0  0  0  0
   27.7074  -19.9368  -13.9844 C   0  0  0  0  0  0  0  0  0  0  0  0
   27.8131  -18.6181  -13.6013 O   0  0  0  0  0  0  0  0  0  0  0  0
   28.3963  -20.3119  -14.9621 O   0  0  0  0  0  0  0  0  0  0  0  0
  2  1  1  6
  2  4  1  0
  3  2  1  0
  4  6  1  0
  4  5  1  6
  6  7  2  0
  9  8  1  0
 10  9  1  0
 11 10  1  0
 12 11  1  1
 13  6  1  0
 13 12  1  0
 14 12  1  0
 14 15  2  0
 16 14  1  0
 17 16  1  0
 17 25  1  0
 17 18  1  6
 19 24  2  0
 19 18  1  0
 20 19  1  0
 21 22  1  0
 21 20  2  0
 22 23  2  0
 23 24  1  0
 25 27  2  0
 25 26  1  0
M  END
$$$$
