TMF.pdb
     RDKit          3D

 27 27  0  0  1  0  0  0  0  0999 V2000
   19.4120  -24.9013  -16.3788 C   0  0  0  0  0  0  0  0  0  0  0  0
   20.7998  -25.5002  -16.2795 C   0  0  1  0  0  0  0  0  0  0  0  0
   21.3625  -25.7136  -17.5222 O   0  0  0  0  0  0  0  0  0  0  0  0
   21.6810  -24.6139  -15.3952 C   0  0  2  0  0  0  0  0  0  0  0  0
   22.9915  -25.1708  -15.4174 N   0  0  0  0  0  0  0  0  0  0  0  0
   21.0879  -24.4970  -14.0307 C   0  0  0  0  0  0  0  0  0  0  0  0
   21.2305  -25.4403  -13.2373 O   0  0  0  0  0  0  0  0  0  0  0  0
   19.4900  -18.6155  -11.5800 C   0  0  0  0  0  0  0  0  0  0  0  0
   21.0850  -19.3344  -11.1912 S   0  0  0  0  0  0  0  0  0  0  0  0
   21.1628  -21.0982  -11.6747 C   0  0  0  0  0  0  0  0  0  0  0  0
   19.7896  -21.5614  -12.0336 C   0  0  0  0  0  0  0  0  0  0  0  0
   19.7575  -23.0510  -12.4035 C   0  0  2  0  0  0  0  0  0  0  0  0
   20.3774  -23.3463  -13.6350 N   0  0  0  0  0  0  0  0  0  0  0  0
   18.4227  -23.5761  -12.1629 C   0  0  0  0  0  0  0  0  0  0  0  0
   17.5895  -23.5418  -13.1047 O   0  0  0  0  0  0  0  0  0  0  0  0
   17.9702  -24.1332  -10.9383 N   0  0  0  0  0  0  0  0  0  0  0  0
   16.6807  -24.8351  -10.8111 C   0  0  1  0  0  0  0  0  0  0  0  0
   16.7774  -25.9485   -9.8317 C   0  0  0  0  0  0  0  0  0  0  0  0
   17.1801  -25.4346   -8.5072 C   0  0  0  0  0  0  0  0  0  0  0  0
   16.2584  -25.0497   -7.5426 C   0  0  0  0  0  0  0  0  0  0  0  0
   16.6674  -24.5795   -6.3165 C   0  0  0  0  0  0  0  0  0  0  0  0
   17.9951  -24.4640   -5.9778 C   0  0  0  0  0  0  0  0  0  0  0  0
   18.9169  -24.8402   -6.9208 C   0  0  0  0  0  0  0  0  0  0  0  0
   18.5279  -25.3132   -8.1530 C   0  0  0  0  0  0  0  0  0  0  0  0
   15.6797  -23.8459  -10.4262 C   0  0  0  0  0  0  0  0  0  0  0  0
   14.3331  -24.1349  -10.4321 O   0  0  0  0  0  0  0  0  0  0  0  0
   16.0219  -22.6915  -10.0779 O   0  0  0  0  0  0  0  0  0  0  0  0
  2  1  1  6
  2  4  1  0
  3  2  1  0
  4  6  1  0
  4  5  1  1
  6  7  2  0
  9  8  1  0
 10  9  1  0
 11 10  1  0
 12 11  1  6
 13  6  1  0
 13 12  1  0
 14 12  1  0
 14 15  2  0
 16 14  1  0
 17 16  1  0
 17 25  1  0
 17 18  1  1
 19 24  2  0
 19 18  1  0
 20 19  1  0
 21 22  1  0
 21 20  2  0
 22 23  2  0
 23 24  1  0
 25 27  2  0
 25 26  1  0
M  END
$$$$
