TMF.pdb
     RDKit          3D

 27 27  0  0  1  0  0  0  0  0999 V2000
   27.0632  -18.2898  -14.8440 C   0  0  0  0  0  0  0  0  0  0  0  0
   27.5885  -19.4009  -15.7294 C   0  0  1  0  0  0  0  0  0  0  0  0
   28.5794  -18.9588  -16.5834 O   0  0  0  0  0  0  0  0  0  0  0  0
   28.0588  -20.5716  -14.8621 C   0  0  2  0  0  0  0  0  0  0  0  0
   28.7056  -21.5003  -15.7265 N   0  0  0  0  0  0  0  0  0  0  0  0
   26.9091  -21.1418  -14.1002 C   0  0  0  0  0  0  0  0  0  0  0  0
   26.2062  -22.0079  -14.6439 O   0  0  0  0  0  0  0  0  0  0  0  0
   25.5637  -20.3967   -7.2741 C   0  0  0  0  0  0  0  0  0  0  0  0
   27.0918  -20.5951   -8.1893 S   0  0  0  0  0  0  0  0  0  0  0  0
   26.7973  -21.3401   -9.8352 C   0  0  0  0  0  0  0  0  0  0  0  0
   25.6836  -20.6057  -10.5052 C   0  0  0  0  0  0  0  0  0  0  0  0
   25.5086  -21.0279  -11.9708 C   0  0  2  0  0  0  0  0  0  0  0  0
   26.6135  -20.7168  -12.7898 N   0  0  0  0  0  0  0  0  0  0  0  0
   24.1838  -20.6380  -12.4272 C   0  0  0  0  0  0  0  0  0  0  0  0
   23.9342  -19.4118  -12.5560 O   0  0  0  0  0  0  0  0  0  0  0  0
   23.1305  -21.5346  -12.7455 N   0  0  0  0  0  0  0  0  0  0  0  0
   21.8287  -21.0810  -13.2662 C   0  0  1  0  0  0  0  0  0  0  0  0
   21.3000  -22.0347  -14.2758 C   0  0  0  0  0  0  0  0  0  0  0  0
   19.9927  -21.5730  -14.7840 C   0  0  0  0  0  0  0  0  0  0  0  0
   19.8745  -20.6254  -15.7920 C   0  0  0  0  0  0  0  0  0  0  0  0
   18.6408  -20.2207  -16.2457 C   0  0  0  0  0  0  0  0  0  0  0  0
   17.4673  -20.7235  -15.7351 C   0  0  0  0  0  0  0  0  0  0  0  0
   17.5684  -21.6603  -14.7387 C   0  0  0  0  0  0  0  0  0  0  0  0
   18.7933  -22.0783  -14.2713 C   0  0  0  0  0  0  0  0  0  0  0  0
   20.9303  -20.9283  -12.1268 C   0  0  0  0  0  0  0  0  0  0  0  0
   20.0524  -19.8715  -12.0305 O   0  0  0  0  0  0  0  0  0  0  0  0
   20.9349  -21.7633  -11.1920 O   0  0  0  0  0  0  0  0  0  0  0  0
  2  1  1  1
  2  4  1  0
  3  2  1  0
  4  6  1  0
  4  5  1  6
  6  7  2  0
  9  8  1  0
 10  9  1  0
 11 10  1  0
 12 11  1  1
 13  6  1  0
 13 12  1  0
 14 12  1  0
 14 15  2  0
 16 14  1  0
 17 16  1  0
 17 25  1  0
 17 18  1  6
 19 24  2  0
 19 18  1  0
 20 19  1  0
 21 22  1  0
 21 20  2  0
 22 23  2  0
 23 24  1  0
 25 27  2  0
 25 26  1  0
M  END
$$$$
