TMF.pdb
     RDKit          3D

 27 27  0  0  1  0  0  0  0  0999 V2000
   29.8752  -27.2532  -16.2089 C   0  0  0  0  0  0  0  0  0  0  0  0
   30.7556  -27.0519  -17.4250 C   0  0  1  0  0  0  0  0  0  0  0  0
   31.7540  -26.1263  -17.1948 O   0  0  0  0  0  0  0  0  0  0  0  0
   31.3179  -28.4005  -17.8825 C   0  0  2  0  0  0  0  0  0  0  0  0
   32.1242  -28.1510  -19.0294 N   0  0  0  0  0  0  0  0  0  0  0  0
   30.2066  -29.3694  -18.1136 C   0  0  0  0  0  0  0  0  0  0  0  0
   29.5183  -29.2514  -19.1393 O   0  0  0  0  0  0  0  0  0  0  0  0
   31.1785  -35.2331  -15.3869 C   0  0  0  0  0  0  0  0  0  0  0  0
   30.9204  -34.4961  -17.0000 S   0  0  0  0  0  0  0  0  0  0  0  0
   29.2329  -33.8050  -17.1607 C   0  0  0  0  0  0  0  0  0  0  0  0
   29.1348  -32.5717  -16.3253 C   0  0  0  0  0  0  0  0  0  0  0  0
   28.8594  -31.3192  -17.1692 C   0  0  2  0  0  0  0  0  0  0  0  0
   29.9307  -30.4029  -17.1965 N   0  0  0  0  0  0  0  0  0  0  0  0
   27.5313  -30.8142  -16.8584 C   0  0  0  0  0  0  0  0  0  0  0  0
   27.3510  -30.2547  -15.7463 O   0  0  0  0  0  0  0  0  0  0  0  0
   26.4021  -30.8987  -17.7143 N   0  0  0  0  0  0  0  0  0  0  0  0
   25.1050  -30.2819  -17.3843 C   0  0  1  0  0  0  0  0  0  0  0  0
   24.8779  -29.0582  -18.1962 C   0  0  0  0  0  0  0  0  0  0  0  0
   25.6077  -27.9132  -17.6155 C   0  0  0  0  0  0  0  0  0  0  0  0
   26.8903  -27.5633  -18.0158 C   0  0  0  0  0  0  0  0  0  0  0  0
   27.5403  -26.4874  -17.4575 C   0  0  0  0  0  0  0  0  0  0  0  0
   26.9664  -25.7053  -16.4830 C   0  0  0  0  0  0  0  0  0  0  0  0
   25.6997  -26.0391  -16.0774 C   0  0  0  0  0  0  0  0  0  0  0  0
   25.0328  -27.1115  -16.6237 C   0  0  0  0  0  0  0  0  0  0  0  0
   24.0727  -31.2894  -17.6030 C   0  0  0  0  0  0  0  0  0  0  0  0
   22.7847  -31.1212  -17.1449 O   0  0  0  0  0  0  0  0  0  0  0  0
   24.3335  -32.3495  -18.2188 O   0  0  0  0  0  0  0  0  0  0  0  0
  2  1  1  1
  2  4  1  0
  3  2  1  0
  4  6  1  0
  4  5  1  6
  6  7  2  0
  9  8  1  0
 10  9  1  0
 11 10  1  0
 12 11  1  1
 13  6  1  0
 13 12  1  0
 14 12  1  0
 14 15  2  0
 16 14  1  0
 17 16  1  0
 17 25  1  0
 17 18  1  6
 19 24  2  0
 19 18  1  0
 20 19  1  0
 21 22  1  0
 21 20  2  0
 22 23  2  0
 23 24  1  0
 25 27  2  0
 25 26  1  0
M  END
$$$$
