TMF.pdb
     RDKit          3D

 27 27  0  0  1  0  0  0  0  0999 V2000
   26.4259  -19.3685  -15.4169 C   0  0  0  0  0  0  0  0  0  0  0  0
   27.6037  -19.1977  -14.4799 C   0  0  1  0  0  0  0  0  0  0  0  0
   27.3401  -18.2868  -13.4763 O   0  0  0  0  0  0  0  0  0  0  0  0
   28.0200  -20.5614  -13.9221 C   0  0  2  0  0  0  0  0  0  0  0  0
   28.4611  -21.3481  -15.0241 N   0  0  0  0  0  0  0  0  0  0  0  0
   26.8958  -21.1658  -13.1487 C   0  0  0  0  0  0  0  0  0  0  0  0
   25.9943  -21.7511  -13.7688 O   0  0  0  0  0  0  0  0  0  0  0  0
   26.1367  -20.5518   -6.0215 C   0  0  0  0  0  0  0  0  0  0  0  0
   27.1133  -19.7711   -7.3055 S   0  0  0  0  0  0  0  0  0  0  0  0
   26.2463  -19.7955   -8.9175 C   0  0  0  0  0  0  0  0  0  0  0  0
   26.1313  -21.2095   -9.3824 C   0  0  0  0  0  0  0  0  0  0  0  0
   25.7593  -21.3036  -10.8688 C   0  0  2  0  0  0  0  0  0  0  0  0
   26.8432  -21.0827  -11.7432 N   0  0  0  0  0  0  0  0  0  0  0  0
   24.5272  -20.5669  -11.1023 C   0  0  0  0  0  0  0  0  0  0  0  0
   24.5812  -19.3106  -11.1393 O   0  0  0  0  0  0  0  0  0  0  0  0
   23.2479  -21.1507  -11.2953 N   0  0  0  0  0  0  0  0  0  0  0  0
   22.1404  -20.4404  -11.9591 C   0  0  1  0  0  0  0  0  0  0  0  0
   22.4279  -20.2419  -13.4035 C   0  0  0  0  0  0  0  0  0  0  0  0
   22.3151  -21.5221  -14.1308 C   0  0  0  0  0  0  0  0  0  0  0  0
   23.4209  -22.2932  -14.4633 C   0  0  0  0  0  0  0  0  0  0  0  0
   23.2803  -23.4838  -15.1374 C   0  0  0  0  0  0  0  0  0  0  0  0
   22.0532  -23.9744  -15.5170 C   0  0  0  0  0  0  0  0  0  0  0  0
   20.9517  -23.2234  -15.1954 C   0  0  0  0  0  0  0  0  0  0  0  0
   21.0715  -22.0298  -14.5214 C   0  0  0  0  0  0  0  0  0  0  0  0
   20.9264  -21.2191  -11.7393 C   0  0  0  0  0  0  0  0  0  0  0  0
   20.9623  -22.4800  -11.1863 O   0  0  0  0  0  0  0  0  0  0  0  0
   19.8044  -20.7574  -12.0540 O   0  0  0  0  0  0  0  0  0  0  0  0
  2  1  1  1
  2  4  1  0
  3  2  1  0
  4  6  1  0
  4  5  1  6
  6  7  2  0
  9  8  1  0
 10  9  1  0
 11 10  1  0
 12 11  1  1
 13  6  1  0
 13 12  1  0
 14 12  1  0
 14 15  2  0
 16 14  1  0
 17 16  1  0
 17 25  1  0
 17 18  1  6
 19 24  2  0
 19 18  1  0
 20 19  1  0
 21 22  1  0
 21 20  2  0
 22 23  2  0
 23 24  1  0
 25 27  2  0
 25 26  1  0
M  END
$$$$
