TMF.pdb
     RDKit          3D

 27 27  0  0  1  0  0  0  0  0999 V2000
   26.1155  -20.0066  -17.1320 C   0  0  0  0  0  0  0  0  0  0  0  0
   25.3114  -18.8850  -17.7562 C   0  0  1  0  0  0  0  0  0  0  0  0
   25.5300  -18.7848  -19.1159 O   0  0  0  0  0  0  0  0  0  0  0  0
   23.8279  -19.0691  -17.4256 C   0  0  2  0  0  0  0  0  0  0  0  0
   23.1174  -18.0328  -18.0957 N   0  0  0  0  0  0  0  0  0  0  0  0
   23.6294  -19.0909  -15.9466 C   0  0  0  0  0  0  0  0  0  0  0  0
   24.1176  -18.1744  -15.2673 O   0  0  0  0  0  0  0  0  0  0  0  0
   19.1805  -23.1538  -13.4858 C   0  0  0  0  0  0  0  0  0  0  0  0
   19.9861  -22.7428  -11.9385 S   0  0  0  0  0  0  0  0  0  0  0  0
   21.3350  -21.5301  -12.1847 C   0  0  0  0  0  0  0  0  0  0  0  0
   21.5492  -21.3372  -13.6495 C   0  0  0  0  0  0  0  0  0  0  0  0
   22.7126  -20.3801  -13.9451 C   0  0  2  0  0  0  0  0  0  0  0  0
   22.9053  -20.1233  -15.3181 N   0  0  0  0  0  0  0  0  0  0  0  0
   23.8670  -20.7689  -13.1503 C   0  0  0  0  0  0  0  0  0  0  0  0
   24.4518  -21.8457  -13.4349 O   0  0  0  0  0  0  0  0  0  0  0  0
   24.4006  -20.0275  -12.0639 N   0  0  0  0  0  0  0  0  0  0  0  0
   25.5775  -20.4735  -11.2974 C   0  0  1  0  0  0  0  0  0  0  0  0
   26.2977  -19.3142  -10.7093 C   0  0  0  0  0  0  0  0  0  0  0  0
   27.3670  -19.7791   -9.8031 C   0  0  0  0  0  0  0  0  0  0  0  0
   28.5194  -20.4016  -10.2638 C   0  0  0  0  0  0  0  0  0  0  0  0
   29.4987  -20.8184   -9.3925 C   0  0  0  0  0  0  0  0  0  0  0  0
   29.3959  -20.6459   -8.0322 C   0  0  0  0  0  0  0  0  0  0  0  0
   28.2628  -20.0326   -7.5626 C   0  0  0  0  0  0  0  0  0  0  0  0
   27.2719  -19.6083   -8.4180 C   0  0  0  0  0  0  0  0  0  0  0  0
   25.1089  -21.4072  -10.2790 C   0  0  0  0  0  0  0  0  0  0  0  0
   25.7656  -22.5899  -10.0203 O   0  0  0  0  0  0  0  0  0  0  0  0
   24.0819  -21.1567   -9.6054 O   0  0  0  0  0  0  0  0  0  0  0  0
  2  1  1  6
  2  4  1  0
  3  2  1  0
  4  6  1  0
  4  5  1  6
  6  7  2  0
  9  8  1  0
 10  9  1  0
 11 10  1  0
 12 11  1  6
 13  6  1  0
 13 12  1  0
 14 12  1  0
 14 15  2  0
 16 14  1  0
 17 16  1  0
 17 25  1  0
 17 18  1  1
 19 24  2  0
 19 18  1  0
 20 19  1  0
 21 22  1  0
 21 20  2  0
 22 23  2  0
 23 24  1  0
 25 27  2  0
 25 26  1  0
M  END
$$$$
