TMF.pdb
     RDKit          3D

 27 27  0  0  1  0  0  0  0  0999 V2000
   26.7781  -18.5229  -15.4500 C   0  0  0  0  0  0  0  0  0  0  0  0
   27.5021  -19.5448  -16.3019 C   0  0  1  0  0  0  0  0  0  0  0  0
   28.1414  -18.9628  -17.3785 O   0  0  0  0  0  0  0  0  0  0  0  0
   28.4672  -20.3518  -15.4292 C   0  0  2  0  0  0  0  0  0  0  0  0
   29.3329  -21.0625  -16.3086 N   0  0  0  0  0  0  0  0  0  0  0  0
   27.7038  -21.2207  -14.4861 C   0  0  0  0  0  0  0  0  0  0  0  0
   28.2251  -22.2771  -14.0962 O   0  0  0  0  0  0  0  0  0  0  0  0
   25.4951  -20.2867   -7.5038 C   0  0  0  0  0  0  0  0  0  0  0  0
   26.1724  -19.8602   -9.1073 S   0  0  0  0  0  0  0  0  0  0  0  0
   25.9795  -21.2316  -10.3045 C   0  0  0  0  0  0  0  0  0  0  0  0
   26.6584  -20.8576  -11.5804 C   0  0  0  0  0  0  0  0  0  0  0  0
   25.7829  -21.1420  -12.8089 C   0  0  2  0  0  0  0  0  0  0  0  0
   26.4165  -20.8641  -14.0375 N   0  0  0  0  0  0  0  0  0  0  0  0
   24.4517  -20.6009  -12.5846 C   0  0  0  0  0  0  0  0  0  0  0  0
   24.3499  -19.4857  -12.0116 O   0  0  0  0  0  0  0  0  0  0  0  0
   23.2371  -21.2312  -12.9620 N   0  0  0  0  0  0  0  0  0  0  0  0
   21.9492  -20.5164  -13.0058 C   0  0  1  0  0  0  0  0  0  0  0  0
   21.4177  -20.4660  -14.3926 C   0  0  0  0  0  0  0  0  0  0  0  0
   22.3355  -19.7097  -15.2679 C   0  0  0  0  0  0  0  0  0  0  0  0
   23.2502  -20.3313  -16.1074 C   0  0  0  0  0  0  0  0  0  0  0  0
   24.0879  -19.5967  -16.9139 C   0  0  0  0  0  0  0  0  0  0  0  0
   24.0697  -18.2220  -16.9362 C   0  0  0  0  0  0  0  0  0  0  0  0
   23.1713  -17.5941  -16.1119 C   0  0  0  0  0  0  0  0  0  0  0  0
   22.3248  -18.3112  -15.2979 C   0  0  0  0  0  0  0  0  0  0  0  0
   21.0396  -21.1962  -12.0898 C   0  0  0  0  0  0  0  0  0  0  0  0
   21.3587  -22.4057  -11.5134 O   0  0  0  0  0  0  0  0  0  0  0  0
   19.9284  -20.6934  -11.8011 O   0  0  0  0  0  0  0  0  0  0  0  0
  2  1  1  1
  2  4  1  0
  3  2  1  0
  4  6  1  0
  4  5  1  6
  6  7  2  0
  9  8  1  0
 10  9  1  0
 11 10  1  0
 12 11  1  1
 13  6  1  0
 13 12  1  0
 14 12  1  0
 14 15  2  0
 16 14  1  0
 17 16  1  0
 17 25  1  0
 17 18  1  6
 19 24  2  0
 19 18  1  0
 20 19  1  0
 21 22  1  0
 21 20  2  0
 22 23  2  0
 23 24  1  0
 25 27  2  0
 25 26  1  0
M  END
$$$$
