NIL.pdb
     RDKit          3D

 25 24  0  0  1  0  0  0  0  0999 V2000
   30.6570  -36.3907  -16.2535 N   0  0  0  0  0  0  0  0  0  0  0  0
   31.7055  -36.1481  -17.1715 C   0  0  0  0  0  0  0  0  0  0  0  0
   31.4181  -35.9315  -18.3615 O   0  0  0  0  0  0  0  0  0  0  0  0
   33.1333  -36.1436  -16.7615 C   0  0  0  0  0  0  0  0  0  0  0  0
   33.9059  -35.0878  -17.5245 C   0  0  2  0  0  0  0  0  0  0  0  0
   35.2947  -35.1977  -17.1441 N   0  0  0  0  0  0  0  0  0  0  0  0
   33.4003  -33.7164  -17.2118 C   0  0  0  0  0  0  0  0  0  0  0  0
   33.7196  -33.1251  -16.1514 O   0  0  0  0  0  0  0  0  0  0  0  0
   34.8345  -29.5408  -19.7380 C   0  0  0  0  0  0  0  0  0  0  0  0
   34.2393  -30.5319  -18.7837 C   0  0  0  0  0  0  0  0  0  0  0  0
   32.7648  -30.6319  -18.7257 C   0  0  2  0  0  0  0  0  0  0  0  0
   32.1043  -29.2487  -18.6150 C   0  0  0  0  0  0  0  0  0  0  0  0
   32.1299  -31.6371  -17.8733 C   0  0  2  0  0  0  0  0  0  0  0  0
   32.5415  -33.0019  -18.0745 N   0  0  0  0  0  0  0  0  0  0  0  0
   30.6609  -31.6018  -17.9953 C   0  0  0  0  0  0  0  0  0  0  0  0
   30.1392  -32.0933  -19.0413 O   0  0  0  0  0  0  0  0  0  0  0  0
   27.2636  -33.6301  -16.4298 C   0  0  0  0  0  0  0  0  0  0  0  0
   27.8115  -32.5770  -15.4456 C   0  0  2  0  0  0  0  0  0  0  0  0
   27.1773  -32.7826  -14.1111 C   0  0  0  0  0  0  0  0  0  0  0  0
   27.6088  -31.2106  -15.9978 C   0  0  0  0  0  0  0  0  0  0  0  0
   28.3464  -31.0910  -17.3346 C   0  0  2  0  0  0  0  0  0  0  0  0
   29.7951  -31.0588  -17.0151 N   0  0  0  0  0  0  0  0  0  0  0  0
   28.0205  -29.8328  -18.0004 C   0  0  0  0  0  0  0  0  0  0  0  0
   26.8610  -29.6955  -18.7310 O   0  0  0  0  0  0  0  0  0  0  0  0
   28.7837  -28.8472  -17.9292 O   0  0  0  0  0  0  0  0  0  0  0  0
  1  2  1  0
  2  4  1  0
  3  2  2  0
  4  5  1  0
  5  6  1  1
  7  5  1  0
  8  7  2  0
  9 10  1  0
 11 10  1  0
 11 13  1  0
 11 12  1  1
 13 15  1  0
 13 14  1  6
 14  7  1  0
 15 16  2  0
 18 17  1  6
 18 20  1  0
 19 18  1  0
 21 20  1  1
 22 21  1  0
 22 15  1  0
 23 24  1  0
 23 21  1  0
 25 23  2  0
M  END
$$$$
