NIL.pdb
     RDKit          3D

 25 24  0  0  1  0  0  0  0  0999 V2000
   18.7698  -23.1184  -13.7366 N   0  0  0  0  0  0  0  0  0  0  0  0
   19.5087  -22.5081  -14.7772 C   0  0  0  0  0  0  0  0  0  0  0  0
   19.2660  -22.8349  -15.9519 O   0  0  0  0  0  0  0  0  0  0  0  0
   20.5610  -21.4936  -14.5129 C   0  0  0  0  0  0  0  0  0  0  0  0
   20.8092  -21.3549  -13.0253 C   0  0  2  0  0  0  0  0  0  0  0  0
   19.6735  -20.6721  -12.4512 N   0  0  0  0  0  0  0  0  0  0  0  0
   22.0581  -20.5789  -12.7558 C   0  0  0  0  0  0  0  0  0  0  0  0
   22.0587  -19.3238  -12.7321 O   0  0  0  0  0  0  0  0  0  0  0  0
   25.0593  -21.1061   -8.3785 C   0  0  0  0  0  0  0  0  0  0  0  0
   24.3955  -20.6617   -9.6470 C   0  0  0  0  0  0  0  0  0  0  0  0
   25.1457  -20.8271  -10.9109 C   0  0  2  0  0  0  0  0  0  0  0  0
   26.5838  -20.2983  -10.7929 C   0  0  0  0  0  0  0  0  0  0  0  0
   24.5166  -20.4892  -12.1877 C   0  0  2  0  0  0  0  0  0  0  0  0
   23.3046  -21.1949  -12.5129 N   0  0  0  0  0  0  0  0  0  0  0  0
   25.4466  -20.6759  -13.3166 C   0  0  0  0  0  0  0  0  0  0  0  0
   25.7401  -21.8621  -13.6552 O   0  0  0  0  0  0  0  0  0  0  0  0
   28.9041  -17.7407  -17.5294 C   0  0  0  0  0  0  0  0  0  0  0  0
   28.2418  -19.0306  -17.0045 C   0  0  2  0  0  0  0  0  0  0  0  0
   27.5726  -19.7301  -18.1395 C   0  0  0  0  0  0  0  0  0  0  0  0
   27.3245  -18.7094  -15.8782 C   0  0  0  0  0  0  0  0  0  0  0  0
   26.9146  -20.0062  -15.1743 C   0  0  2  0  0  0  0  0  0  0  0  0
   26.0285  -19.6138  -14.0505 N   0  0  0  0  0  0  0  0  0  0  0  0
   28.0762  -20.6774  -14.5974 C   0  0  0  0  0  0  0  0  0  0  0  0
   28.6612  -20.2149  -13.4395 O   0  0  0  0  0  0  0  0  0  0  0  0
   28.5738  -21.6870  -15.1379 O   0  0  0  0  0  0  0  0  0  0  0  0
  1  2  1  0
  2  4  1  0
  3  2  2  0
  4  5  1  0
  5  6  1  1
  7  5  1  0
  8  7  2  0
  9 10  1  0
 11 10  1  0
 11 13  1  0
 11 12  1  1
 13 15  1  0
 13 14  1  6
 14  7  1  0
 15 16  2  0
 18 17  1  6
 18 20  1  0
 19 18  1  0
 21 20  1  1
 22 21  1  0
 22 15  1  0
 23 24  1  0
 23 21  1  0
 25 23  2  0
M  END
$$$$
