NIL.pdb
     RDKit          3D

 25 24  0  0  1  0  0  0  0  0999 V2000
   14.6132  -12.8666  -12.0795 N   0  0  0  0  0  0  0  0  0  0  0  0
   15.6281  -12.2085  -12.8129 C   0  0  0  0  0  0  0  0  0  0  0  0
   16.4090  -12.8928  -13.4965 O   0  0  0  0  0  0  0  0  0  0  0  0
   15.7905  -10.7321  -12.7929 C   0  0  0  0  0  0  0  0  0  0  0  0
   14.7256  -10.0882  -11.9296 C   0  0  2  0  0  0  0  0  0  0  0  0
   13.4635  -10.2136  -12.6203 N   0  0  0  0  0  0  0  0  0  0  0  0
   15.0289   -8.6453  -11.6835 C   0  0  0  0  0  0  0  0  0  0  0  0
   14.8187   -7.7716  -12.5600 O   0  0  0  0  0  0  0  0  0  0  0  0
   13.6007   -6.0949   -7.0325 C   0  0  0  0  0  0  0  0  0  0  0  0
   13.9596   -6.4496   -8.4441 C   0  0  0  0  0  0  0  0  0  0  0  0
   15.3764   -6.3190   -8.8478 C   0  0  2  0  0  0  0  0  0  0  0  0
   15.9474   -4.9394   -8.4834 C   0  0  0  0  0  0  0  0  0  0  0  0
   15.8110   -6.7866  -10.1640 C   0  0  2  0  0  0  0  0  0  0  0  0
   15.5648   -8.1725  -10.4663 N   0  0  0  0  0  0  0  0  0  0  0  0
   17.2491   -6.5419  -10.3788 C   0  0  0  0  0  0  0  0  0  0  0  0
   18.0750   -7.1829   -9.6612 O   0  0  0  0  0  0  0  0  0  0  0  0
   21.1645   -6.5203  -13.9215 C   0  0  0  0  0  0  0  0  0  0  0  0
   20.9798   -7.1317  -12.5180 C   0  0  2  0  0  0  0  0  0  0  0  0
   21.5472   -8.5113  -12.5103 C   0  0  0  0  0  0  0  0  0  0  0  0
   19.5468   -7.0742  -12.1227 C   0  0  0  0  0  0  0  0  0  0  0  0
   19.2342   -5.6868  -11.5547 C   0  0  2  0  0  0  0  0  0  0  0  0
   17.7666   -5.6402  -11.3402 N   0  0  0  0  0  0  0  0  0  0  0  0
   19.5656   -4.6408  -12.5184 C   0  0  0  0  0  0  0  0  0  0  0  0
   20.8326   -4.1039  -12.5760 O   0  0  0  0  0  0  0  0  0  0  0  0
   18.7105   -4.2014  -13.3151 O   0  0  0  0  0  0  0  0  0  0  0  0
  1  2  1  0
  2  4  1  0
  3  2  2  0
  4  5  1  0
  5  6  1  6
  7  5  1  0
  8  7  2  0
  9 10  1  0
 11 10  1  0
 11 13  1  0
 11 12  1  6
 13 15  1  0
 13 14  1  1
 14  7  1  0
 15 16  2  0
 18 17  1  6
 18 20  1  0
 19 18  1  0
 21 20  1  6
 22 21  1  0
 22 15  1  0
 23 24  1  0
 23 21  1  0
 25 23  2  0
M  END
$$$$
