NIL.pdb
     RDKit          3D

 25 24  0  0  1  0  0  0  0  0999 V2000
   18.7663  -26.2690   -8.7740 N   0  0  0  0  0  0  0  0  0  0  0  0
   17.8846  -25.2048   -9.0762 C   0  0  0  0  0  0  0  0  0  0  0  0
   16.6684  -25.3618   -8.8722 O   0  0  0  0  0  0  0  0  0  0  0  0
   18.3629  -23.9108   -9.6271 C   0  0  0  0  0  0  0  0  0  0  0  0
   19.4483  -23.3237   -8.7490 C   0  0  2  0  0  0  0  0  0  0  0  0
   18.8402  -22.9345   -7.4982 N   0  0  0  0  0  0  0  0  0  0  0  0
   20.0837  -22.1357   -9.3964 C   0  0  0  0  0  0  0  0  0  0  0  0
   19.4276  -21.0949   -9.6460 O   0  0  0  0  0  0  0  0  0  0  0  0
   25.6120  -20.7005   -9.0712 C   0  0  0  0  0  0  0  0  0  0  0  0
   24.1158  -20.7627   -9.1395 C   0  0  0  0  0  0  0  0  0  0  0  0
   23.4935  -20.9200  -10.4720 C   0  0  2  0  0  0  0  0  0  0  0  0
   24.0680  -19.9223  -11.4901 C   0  0  0  0  0  0  0  0  0  0  0  0
   22.0449  -21.0858  -10.5909 C   0  0  2  0  0  0  0  0  0  0  0  0
   21.4454  -22.1026   -9.7666 N   0  0  0  0  0  0  0  0  0  0  0  0
   21.6428  -21.3593  -11.9829 C   0  0  0  0  0  0  0  0  0  0  0  0
   21.9218  -22.4964  -12.4699 O   0  0  0  0  0  0  0  0  0  0  0  0
   17.7862  -20.5088  -12.4915 C   0  0  0  0  0  0  0  0  0  0  0  0
   18.3592  -20.2578  -13.9009 C   0  0  2  0  0  0  0  0  0  0  0  0
   17.2306  -20.0675  -14.8577 C   0  0  0  0  0  0  0  0  0  0  0  0
   19.2815  -21.3621  -14.2791 C   0  0  0  0  0  0  0  0  0  0  0  0
   20.7266  -20.8596  -14.2112 C   0  0  2  0  0  0  0  0  0  0  0  0
   20.9593  -20.4341  -12.8088 N   0  0  0  0  0  0  0  0  0  0  0  0
   20.9115  -19.6843  -15.0579 C   0  0  0  0  0  0  0  0  0  0  0  0
   21.2034  -18.4541  -14.5115 O   0  0  0  0  0  0  0  0  0  0  0  0
   20.8076  -19.7596  -16.2999 O   0  0  0  0  0  0  0  0  0  0  0  0
  1  2  1  0
  2  4  1  0
  3  2  2  0
  4  5  1  0
  5  6  1  1
  7  5  1  0
  8  7  2  0
  9 10  1  0
 11 10  1  0
 11 13  1  0
 11 12  1  6
 13 15  1  0
 13 14  1  1
 14  7  1  0
 15 16  2  0
 18 17  1  1
 18 20  1  0
 19 18  1  0
 21 20  1  1
 22 21  1  0
 22 15  1  0
 23 24  1  0
 23 21  1  0
 25 23  2  0
M  END
$$$$
