NIL.pdb
     RDKit          3D

 25 24  0  0  1  0  0  0  0  0999 V2000
   20.4590  -13.6082  -20.6409 N   0  0  0  0  0  0  0  0  0  0  0  0
   19.9235  -12.3691  -20.2179 C   0  0  0  0  0  0  0  0  0  0  0  0
   19.0298  -11.8410  -20.9021 O   0  0  0  0  0  0  0  0  0  0  0  0
   20.3923  -11.6810  -18.9878 C   0  0  0  0  0  0  0  0  0  0  0  0
   21.5112  -12.4623  -18.3310 C   0  0  2  0  0  0  0  0  0  0  0  0
   20.9313  -13.6394  -17.7279 N   0  0  0  0  0  0  0  0  0  0  0  0
   22.2014  -11.6443  -17.2875 C   0  0  0  0  0  0  0  0  0  0  0  0
   21.6481  -11.3734  -16.1937 O   0  0  0  0  0  0  0  0  0  0  0  0
   27.7612  -12.1279  -16.5729 C   0  0  0  0  0  0  0  0  0  0  0  0
   26.2768  -11.9910  -16.4139 C   0  0  0  0  0  0  0  0  0  0  0  0
   25.7029  -10.6285  -16.4543 C   0  0  2  0  0  0  0  0  0  0  0  0
   26.4420   -9.6709  -15.5064 C   0  0  0  0  0  0  0  0  0  0  0  0
   24.2520  -10.4420  -16.4362 C   0  0  2  0  0  0  0  0  0  0  0  0
   23.5039  -11.1276  -17.4574 N   0  0  0  0  0  0  0  0  0  0  0  0
   23.8877   -9.0153  -16.5119 C   0  0  0  0  0  0  0  0  0  0  0  0
   23.9213   -8.4525  -17.6477 O   0  0  0  0  0  0  0  0  0  0  0  0
   22.0605   -4.1480  -13.1837 C   0  0  0  0  0  0  0  0  0  0  0  0
   22.2947   -4.8005  -14.5611 C   0  0  2  0  0  0  0  0  0  0  0  0
   21.1488   -4.4692  -15.4570 C   0  0  0  0  0  0  0  0  0  0  0  0
   22.5219   -6.2618  -14.3996 C   0  0  0  0  0  0  0  0  0  0  0  0
   23.1485   -6.8206  -15.6804 C   0  0  2  0  0  0  0  0  0  0  0  0
   23.4969   -8.2349  -15.3968 N   0  0  0  0  0  0  0  0  0  0  0  0
   24.3908   -6.1234  -16.0017 C   0  0  0  0  0  0  0  0  0  0  0  0
   24.4544   -5.2323  -17.0500 O   0  0  0  0  0  0  0  0  0  0  0  0
   25.4306   -6.3166  -15.3382 O   0  0  0  0  0  0  0  0  0  0  0  0
  1  2  1  0
  2  4  1  0
  3  2  2  0
  4  5  1  0
  5  6  1  1
  7  5  1  0
  8  7  2  0
  9 10  1  0
 11 10  1  0
 11 13  1  0
 11 12  1  1
 13 15  1  0
 13 14  1  6
 14  7  1  0
 15 16  2  0
 18 17  1  1
 18 20  1  0
 19 18  1  0
 21 20  1  1
 22 21  1  0
 22 15  1  0
 23 24  1  0
 23 21  1  0
 25 23  2  0
M  END
$$$$
