NIL.pdb
     RDKit          3D

 25 24  0  0  1  0  0  0  0  0999 V2000
   20.5397  -10.6229  -21.5289 N   0  0  0  0  0  0  0  0  0  0  0  0
   19.9106  -11.1590  -20.3809 C   0  0  0  0  0  0  0  0  0  0  0  0
   19.0391  -12.0327  -20.5316 O   0  0  0  0  0  0  0  0  0  0  0  0
   20.2561  -10.7137  -19.0065 C   0  0  0  0  0  0  0  0  0  0  0  0
   21.1609  -11.7216  -18.3290 C   0  0  2  0  0  0  0  0  0  0  0  0
   20.3417  -12.8317  -17.9021 N   0  0  0  0  0  0  0  0  0  0  0  0
   21.8542  -11.1188  -17.1498 C   0  0  0  0  0  0  0  0  0  0  0  0
   21.2654  -10.9607  -16.0524 O   0  0  0  0  0  0  0  0  0  0  0  0
   27.2626  -12.0205  -15.9146 C   0  0  0  0  0  0  0  0  0  0  0  0
   25.7842  -11.7756  -15.9529 C   0  0  0  0  0  0  0  0  0  0  0  0
   25.3190  -10.3716  -15.9661 C   0  0  2  0  0  0  0  0  0  0  0  0
   26.0169   -9.5305  -14.8857 C   0  0  0  0  0  0  0  0  0  0  0  0
   23.8925  -10.0718  -16.0895 C   0  0  2  0  0  0  0  0  0  0  0  0
   23.1990  -10.6919  -17.1883 N   0  0  0  0  0  0  0  0  0  0  0  0
   23.6496   -8.6205  -16.1833 C   0  0  0  0  0  0  0  0  0  0  0  0
   24.1722   -7.9917  -17.1525 O   0  0  0  0  0  0  0  0  0  0  0  0
   19.7701   -4.5577  -17.0537 C   0  0  0  0  0  0  0  0  0  0  0  0
   21.2172   -4.8005  -16.5794 C   0  0  2  0  0  0  0  0  0  0  0  0
   22.1604   -4.2397  -17.5900 C   0  0  0  0  0  0  0  0  0  0  0  0
   21.4271   -6.2477  -16.3068 C   0  0  0  0  0  0  0  0  0  0  0  0
   22.7345   -6.4317  -15.5308 C   0  0  2  0  0  0  0  0  0  0  0  0
   22.8644   -7.8853  -15.2624 N   0  0  0  0  0  0  0  0  0  0  0  0
   22.6745   -5.7551  -14.2380 C   0  0  0  0  0  0  0  0  0  0  0  0
   23.0435   -4.4344  -14.1098 O   0  0  0  0  0  0  0  0  0  0  0  0
   22.2901   -6.3543  -13.2122 O   0  0  0  0  0  0  0  0  0  0  0  0
  1  2  1  0
  2  4  1  0
  3  2  2  0
  4  5  1  0
  5  6  1  1
  7  5  1  0
  8  7  2  0
  9 10  1  0
 11 10  1  0
 11 13  1  0
 11 12  1  1
 13 15  1  0
 13 14  1  6
 14  7  1  0
 15 16  2  0
 18 17  1  6
 18 20  1  0
 19 18  1  0
 21 20  1  1
 22 21  1  0
 22 15  1  0
 23 24  1  0
 23 21  1  0
 25 23  2  0
M  END
$$$$
