NIL.pdb
     RDKit          3D

 25 24  0  0  1  0  0  0  0  0999 V2000
   29.4609  -18.5567  -17.2339 N   0  0  0  0  0  0  0  0  0  0  0  0
   28.0599  -18.4733  -17.4113 C   0  0  0  0  0  0  0  0  0  0  0  0
   27.6119  -17.6767  -18.2540 O   0  0  0  0  0  0  0  0  0  0  0  0
   27.1104  -19.3034  -16.6265 C   0  0  0  0  0  0  0  0  0  0  0  0
   27.8558  -20.1994  -15.6593 C   0  0  2  0  0  0  0  0  0  0  0  0
   28.5893  -21.1715  -16.4357 N   0  0  0  0  0  0  0  0  0  0  0  0
   26.9131  -20.8964  -14.7321 C   0  0  0  0  0  0  0  0  0  0  0  0
   26.4740  -22.0452  -14.9839 O   0  0  0  0  0  0  0  0  0  0  0  0
   25.3636  -21.1643   -8.7060 C   0  0  0  0  0  0  0  0  0  0  0  0
   25.0189  -21.4085  -10.1444 C   0  0  0  0  0  0  0  0  0  0  0  0
   25.8525  -20.7500  -11.1734 C   0  0  2  0  0  0  0  0  0  0  0  0
   26.1187  -19.2753  -10.8324 C   0  0  0  0  0  0  0  0  0  0  0  0
   25.5732  -20.9657  -12.5931 C   0  0  2  0  0  0  0  0  0  0  0  0
   26.4582  -20.3195  -13.5269 N   0  0  0  0  0  0  0  0  0  0  0  0
   24.1990  -20.5615  -12.9429 C   0  0  0  0  0  0  0  0  0  0  0  0
   23.9582  -19.3233  -13.0724 O   0  0  0  0  0  0  0  0  0  0  0  0
   21.6991  -20.1070  -16.2069 C   0  0  0  0  0  0  0  0  0  0  0  0
   21.7905  -21.5756  -15.7457 C   0  0  2  0  0  0  0  0  0  0  0  0
   21.2479  -22.4571  -16.8198 C   0  0  0  0  0  0  0  0  0  0  0  0
   21.1050  -21.7409  -14.4358 C   0  0  0  0  0  0  0  0  0  0  0  0
   21.7982  -20.8648  -13.3882 C   0  0  2  0  0  0  0  0  0  0  0  0
   23.1321  -21.4694  -13.1491 N   0  0  0  0  0  0  0  0  0  0  0  0
   21.0743  -20.8947  -12.1203 C   0  0  0  0  0  0  0  0  0  0  0  0
   20.1383  -19.9318  -11.8141 O   0  0  0  0  0  0  0  0  0  0  0  0
   21.2845  -21.7910  -11.2769 O   0  0  0  0  0  0  0  0  0  0  0  0
  1  2  1  0
  2  4  1  0
  3  2  2  0
  4  5  1  0
  5  6  1  6
  7  5  1  0
  8  7  2  0
  9 10  1  0
 11 10  1  0
 11 13  1  0
 11 12  1  1
 13 15  1  0
 13 14  1  6
 14  7  1  0
 15 16  2  0
 18 17  1  6
 18 20  1  0
 19 18  1  0
 21 20  1  6
 22 21  1  0
 22 15  1  0
 23 24  1  0
 23 21  1  0
 25 23  2  0
M  END
$$$$
