NIL.pdb
     RDKit          3D

 25 24  0  0  1  0  0  0  0  0999 V2000
   21.6495  -18.9868  -13.0105 N   0  0  0  0  0  0  0  0  0  0  0  0
   21.3436  -19.2709  -11.6589 C   0  0  0  0  0  0  0  0  0  0  0  0
   20.2959  -18.8088  -11.1747 O   0  0  0  0  0  0  0  0  0  0  0  0
   22.2300  -20.1002  -10.8027 C   0  0  0  0  0  0  0  0  0  0  0  0
   23.4266  -20.5926  -11.5898 C   0  0  2  0  0  0  0  0  0  0  0  0
   22.9858  -21.6872  -12.4224 N   0  0  0  0  0  0  0  0  0  0  0  0
   24.5191  -21.0541  -10.6801 C   0  0  0  0  0  0  0  0  0  0  0  0
   24.4114  -22.1082  -10.0069 O   0  0  0  0  0  0  0  0  0  0  0  0
   29.3270  -21.6192  -12.8384 C   0  0  0  0  0  0  0  0  0  0  0  0
   28.0635  -21.5888  -12.0322 C   0  0  0  0  0  0  0  0  0  0  0  0
   28.1146  -20.9569  -10.6959 C   0  0  2  0  0  0  0  0  0  0  0  0
   29.3492  -21.4082   -9.8996 C   0  0  0  0  0  0  0  0  0  0  0  0
   26.9059  -20.8744   -9.8760 C   0  0  2  0  0  0  0  0  0  0  0  0
   25.7299  -20.3470  -10.5175 N   0  0  0  0  0  0  0  0  0  0  0  0
   27.1317  -20.0779   -8.6558 C   0  0  0  0  0  0  0  0  0  0  0  0
   26.9410  -18.8260   -8.7193 O   0  0  0  0  0  0  0  0  0  0  0  0
   25.8137  -19.9083   -4.3370 C   0  0  0  0  0  0  0  0  0  0  0  0
   26.8293  -21.0356   -4.6122 C   0  0  2  0  0  0  0  0  0  0  0  0
   26.9584  -21.8823   -3.3908 C   0  0  0  0  0  0  0  0  0  0  0  0
   28.1190  -20.4565   -5.0751 C   0  0  0  0  0  0  0  0  0  0  0  0
   27.8798  -19.6456   -6.3519 C   0  0  2  0  0  0  0  0  0  0  0  0
   27.5425  -20.6239   -7.4155 N   0  0  0  0  0  0  0  0  0  0  0  0
   29.0972  -18.9545   -6.7679 C   0  0  0  0  0  0  0  0  0  0  0  0
   29.4557  -17.7482   -6.2080 O   0  0  0  0  0  0  0  0  0  0  0  0
   29.8461  -19.4350   -7.6439 O   0  0  0  0  0  0  0  0  0  0  0  0
  1  2  1  0
  2  4  1  0
  3  2  2  0
  4  5  1  0
  5  6  1  6
  7  5  1  0
  8  7  2  0
  9 10  1  0
 11 10  1  0
 11 13  1  0
 11 12  1  1
 13 15  1  0
 13 14  1  6
 14  7  1  0
 15 16  2  0
 18 17  1  1
 18 20  1  0
 19 18  1  0
 21 20  1  1
 22 21  1  0
 22 15  1  0
 23 24  1  0
 23 21  1  0
 25 23  2  0
M  END
$$$$
