NIL.pdb
     RDKit          3D

 25 24  0  0  1  0  0  0  0  0999 V2000
   29.5002  -18.4565  -16.2866 N   0  0  0  0  0  0  0  0  0  0  0  0
   28.1330  -18.3078  -16.6178 C   0  0  0  0  0  0  0  0  0  0  0  0
   27.8163  -17.4736  -17.4835 O   0  0  0  0  0  0  0  0  0  0  0  0
   27.0674  -19.1129  -15.9674 C   0  0  0  0  0  0  0  0  0  0  0  0
   27.6603  -20.0569  -14.9422 C   0  0  2  0  0  0  0  0  0  0  0  0
   28.4226  -21.0565  -15.6530 N   0  0  0  0  0  0  0  0  0  0  0  0
   26.5909  -20.7151  -14.1313 C   0  0  0  0  0  0  0  0  0  0  0  0
   26.0939  -21.8167  -14.4708 O   0  0  0  0  0  0  0  0  0  0  0  0
   26.6332  -20.2925   -8.5688 C   0  0  0  0  0  0  0  0  0  0  0  0
   26.4835  -20.7991   -9.9718 C   0  0  0  0  0  0  0  0  0  0  0  0
   25.2052  -20.5338  -10.6667 C   0  0  2  0  0  0  0  0  0  0  0  0
   24.0028  -21.0618   -9.8683 C   0  0  0  0  0  0  0  0  0  0  0  0
   25.0866  -20.7774  -12.1043 C   0  0  2  0  0  0  0  0  0  0  0  0
   26.0736  -20.1515  -12.9450 N   0  0  0  0  0  0  0  0  0  0  0  0
   23.7622  -20.3780  -12.6146 C   0  0  0  0  0  0  0  0  0  0  0  0
   23.4393  -19.1542  -12.5366 O   0  0  0  0  0  0  0  0  0  0  0  0
   21.7990  -19.2495  -16.1811 C   0  0  0  0  0  0  0  0  0  0  0  0
   22.0715  -20.7448  -15.9208 C   0  0  2  0  0  0  0  0  0  0  0  0
   22.0189  -21.4813  -17.2170 C   0  0  0  0  0  0  0  0  0  0  0  0
   21.1218  -21.2649  -14.9007 C   0  0  0  0  0  0  0  0  0  0  0  0
   21.5003  -20.7060  -13.5260 C   0  0  2  0  0  0  0  0  0  0  0  0
   22.8299  -21.2740  -13.1918 N   0  0  0  0  0  0  0  0  0  0  0  0
   20.5641  -21.1603  -12.5014 C   0  0  0  0  0  0  0  0  0  0  0  0
   19.4276  -20.4395  -12.2081 O   0  0  0  0  0  0  0  0  0  0  0  0
   20.7677  -22.2122  -11.8605 O   0  0  0  0  0  0  0  0  0  0  0  0
  1  2  1  0
  2  4  1  0
  3  2  2  0
  4  5  1  0
  5  6  1  6
  7  5  1  0
  8  7  2  0
  9 10  1  0
 11 10  1  0
 11 13  1  0
 11 12  1  1
 13 15  1  0
 13 14  1  6
 14  7  1  0
 15 16  2  0
 18 17  1  6
 18 20  1  0
 19 18  1  0
 21 20  1  6
 22 21  1  0
 22 15  1  0
 23 24  1  0
 23 21  1  0
 25 23  2  0
M  END
$$$$
