NIL.pdb
     RDKit          3D

 25 24  0  0  1  0  0  0  0  0999 V2000
   20.7340  -16.2148  -18.8244 N   0  0  0  0  0  0  0  0  0  0  0  0
   20.3552  -14.8532  -18.8853 C   0  0  0  0  0  0  0  0  0  0  0  0
   19.5711  -14.4918  -19.7797 O   0  0  0  0  0  0  0  0  0  0  0  0
   20.8620  -13.8451  -17.9191 C   0  0  0  0  0  0  0  0  0  0  0  0
   21.9029  -14.4564  -17.0045 C   0  0  2  0  0  0  0  0  0  0  0  0
   21.2401  -15.4360  -16.1758 N   0  0  0  0  0  0  0  0  0  0  0  0
   22.5457  -13.4156  -16.1454 C   0  0  0  0  0  0  0  0  0  0  0  0
   22.0184  -13.0330  -15.0723 O   0  0  0  0  0  0  0  0  0  0  0  0
   28.1360  -12.8588  -15.8408 C   0  0  0  0  0  0  0  0  0  0  0  0
   26.6678  -12.9275  -15.5460 C   0  0  0  0  0  0  0  0  0  0  0  0
   25.8644  -11.7045  -15.7612 C   0  0  2  0  0  0  0  0  0  0  0  0
   26.4461  -10.5006  -15.0034 C   0  0  0  0  0  0  0  0  0  0  0  0
   24.4040  -11.7652  -15.7007 C   0  0  2  0  0  0  0  0  0  0  0  0
   23.7719  -12.8000  -16.4767 N   0  0  0  0  0  0  0  0  0  0  0  0
   23.7912  -10.4847  -16.0994 C   0  0  0  0  0  0  0  0  0  0  0  0
   23.8536  -10.1505  -17.3210 O   0  0  0  0  0  0  0  0  0  0  0  0
   19.0014   -8.4522  -17.4787 C   0  0  0  0  0  0  0  0  0  0  0  0
   20.4441   -7.9722  -17.2214 C   0  0  2  0  0  0  0  0  0  0  0  0
   21.0167   -7.4486  -18.4955 C   0  0  0  0  0  0  0  0  0  0  0  0
   21.2447   -9.0696  -16.6148 C   0  0  0  0  0  0  0  0  0  0  0  0
   22.4092   -8.4677  -15.8230 C   0  0  2  0  0  0  0  0  0  0  0  0
   23.1320   -9.6069  -15.2049 N   0  0  0  0  0  0  0  0  0  0  0  0
   21.9210   -7.6225  -14.7367 C   0  0  0  0  0  0  0  0  0  0  0  0
   21.6735   -6.2824  -14.9360 O   0  0  0  0  0  0  0  0  0  0  0  0
   21.7168   -8.0889  -13.5966 O   0  0  0  0  0  0  0  0  0  0  0  0
  1  2  1  0
  2  4  1  0
  3  2  2  0
  4  5  1  0
  5  6  1  1
  7  5  1  0
  8  7  2  0
  9 10  1  0
 11 10  1  0
 11 13  1  0
 11 12  1  1
 13 15  1  0
 13 14  1  6
 14  7  1  0
 15 16  2  0
 18 17  1  6
 18 20  1  0
 19 18  1  0
 21 20  1  1
 22 21  1  0
 22 15  1  0
 23 24  1  0
 23 21  1  0
 25 23  2  0
M  END
$$$$
