NIL.pdb
     RDKit          3D

 25 24  0  0  1  0  0  0  0  0999 V2000
   27.8836  -38.2493   -7.7529 N   0  0  0  0  0  0  0  0  0  0  0  0
   28.9140  -38.2792   -6.7842 C   0  0  0  0  0  0  0  0  0  0  0  0
   29.6526  -39.2777   -6.7297 O   0  0  0  0  0  0  0  0  0  0  0  0
   29.1414  -37.1606   -5.8336 C   0  0  0  0  0  0  0  0  0  0  0  0
   28.1307  -36.0549   -6.0565 C   0  0  2  0  0  0  0  0  0  0  0  0
   28.5003  -35.3578   -7.2660 N   0  0  0  0  0  0  0  0  0  0  0  0
   28.1107  -35.1009   -4.9060 C   0  0  0  0  0  0  0  0  0  0  0  0
   28.9244  -34.1480   -4.8293 O   0  0  0  0  0  0  0  0  0  0  0  0
   24.2675  -31.8194   -4.2229 C   0  0  0  0  0  0  0  0  0  0  0  0
   25.4698  -32.7145   -4.1975 C   0  0  0  0  0  0  0  0  0  0  0  0
   25.8061  -33.3796   -2.9200 C   0  0  2  0  0  0  0  0  0  0  0  0
   25.6266  -32.4344   -1.7215 C   0  0  0  0  0  0  0  0  0  0  0  0
   27.0069  -34.2087   -2.8177 C   0  0  2  0  0  0  0  0  0  0  0  0
   27.1890  -35.2039   -3.8419 N   0  0  0  0  0  0  0  0  0  0  0  0
   27.0782  -34.9018   -1.5182 C   0  0  0  0  0  0  0  0  0  0  0  0
   26.3407  -35.9187   -1.3455 O   0  0  0  0  0  0  0  0  0  0  0  0
   29.8059  -37.4763    0.4022 C   0  0  0  0  0  0  0  0  0  0  0  0
   30.2270  -36.0002    0.5494 C   0  0  2  0  0  0  0  0  0  0  0  0
   31.6298  -35.9429    1.0536 C   0  0  0  0  0  0  0  0  0  0  0  0
   29.2537  -35.2772    1.4113 C   0  0  0  0  0  0  0  0  0  0  0  0
   27.8641  -35.3443    0.7712 C   0  0  2  0  0  0  0  0  0  0  0  0
   27.9229  -34.5068   -0.4525 N   0  0  0  0  0  0  0  0  0  0  0  0
   26.8552  -34.7591    1.6498 C   0  0  0  0  0  0  0  0  0  0  0  0
   26.3265  -35.4759    2.7004 O   0  0  0  0  0  0  0  0  0  0  0  0
   26.4408  -33.5947    1.4728 O   0  0  0  0  0  0  0  0  0  0  0  0
  1  2  1  0
  2  4  1  0
  3  2  2  0
  4  5  1  0
  5  6  1  6
  7  5  1  0
  8  7  2  0
  9 10  1  0
 11 10  1  0
 11 13  1  0
 11 12  1  1
 13 15  1  0
 13 14  1  6
 14  7  1  0
 15 16  2  0
 18 17  1  1
 18 20  1  0
 19 18  1  0
 21 20  1  1
 22 21  1  0
 22 15  1  0
 23 24  1  0
 23 21  1  0
 25 23  2  0
M  END
$$$$
