NIL.pdb
     RDKit          3D

 25 24  0  0  1  0  0  0  0  0999 V2000
   27.8561  -19.4790  -19.2311 N   0  0  0  0  0  0  0  0  0  0  0  0
   27.7459  -19.2461  -17.8402 C   0  0  0  0  0  0  0  0  0  0  0  0
   28.4423  -18.3526  -17.3281 O   0  0  0  0  0  0  0  0  0  0  0  0
   26.8287  -20.0314  -16.9749 C   0  0  0  0  0  0  0  0  0  0  0  0
   27.5827  -20.6443  -15.8132 C   0  0  2  0  0  0  0  0  0  0  0  0
   28.4807  -21.6410  -16.3479 N   0  0  0  0  0  0  0  0  0  0  0  0
   26.6464  -21.2767  -14.8345 C   0  0  0  0  0  0  0  0  0  0  0  0
   26.2002  -22.4371  -15.0087 O   0  0  0  0  0  0  0  0  0  0  0  0
   25.1824  -21.1602   -8.7836 C   0  0  0  0  0  0  0  0  0  0  0  0
   24.8054  -21.4787  -10.1991 C   0  0  0  0  0  0  0  0  0  0  0  0
   25.6500  -20.9224  -11.2783 C   0  0  2  0  0  0  0  0  0  0  0  0
   25.9916  -19.4448  -11.0296 C   0  0  0  0  0  0  0  0  0  0  0  0
   25.3348  -21.2072  -12.6781 C   0  0  2  0  0  0  0  0  0  0  0  0
   26.2058  -20.6224  -13.6640 N   0  0  0  0  0  0  0  0  0  0  0  0
   23.9580  -20.8025  -13.0170 C   0  0  0  0  0  0  0  0  0  0  0  0
   23.7107  -19.5631  -13.1191 O   0  0  0  0  0  0  0  0  0  0  0  0
   21.7472  -20.4295  -16.4499 C   0  0  0  0  0  0  0  0  0  0  0  0
   21.7969  -21.8731  -15.9103 C   0  0  2  0  0  0  0  0  0  0  0  0
   21.3827  -22.8115  -16.9934 C   0  0  0  0  0  0  0  0  0  0  0  0
   20.9714  -21.9840  -14.6776 C   0  0  0  0  0  0  0  0  0  0  0  0
   21.5822  -21.1084  -13.5796 C   0  0  2  0  0  0  0  0  0  0  0  0
   22.8954  -21.7112  -13.2417 N   0  0  0  0  0  0  0  0  0  0  0  0
   20.7650  -21.1415  -12.3698 C   0  0  0  0  0  0  0  0  0  0  0  0
   19.7717  -20.2112  -12.1581 O   0  0  0  0  0  0  0  0  0  0  0  0
   20.9447  -22.0111  -11.4920 O   0  0  0  0  0  0  0  0  0  0  0  0
  1  2  1  0
  2  4  1  0
  3  2  2  0
  4  5  1  0
  5  6  1  6
  7  5  1  0
  8  7  2  0
  9 10  1  0
 11 10  1  0
 11 13  1  0
 11 12  1  6
 13 15  1  0
 13 14  1  6
 14  7  1  0
 15 16  2  0
 18 17  1  6
 18 20  1  0
 19 18  1  0
 21 20  1  6
 22 21  1  0
 22 15  1  0
 23 24  1  0
 23 21  1  0
 25 23  2  0
M  END
$$$$
