NIL.pdb
     RDKit          3D

 25 24  0  0  1  0  0  0  0  0999 V2000
   27.5084  -22.6948  -16.1407 N   0  0  0  0  0  0  0  0  0  0  0  0
   28.5164  -22.0487  -15.3873 C   0  0  0  0  0  0  0  0  0  0  0  0
   29.7052  -22.2301  -15.7026 O   0  0  0  0  0  0  0  0  0  0  0  0
   28.2019  -21.1641  -14.2362 C   0  0  0  0  0  0  0  0  0  0  0  0
   26.7088  -21.1225  -13.9855 C   0  0  2  0  0  0  0  0  0  0  0  0
   26.0982  -20.4064  -15.0809 N   0  0  0  0  0  0  0  0  0  0  0  0
   26.3965  -20.4379  -12.6940 C   0  0  0  0  0  0  0  0  0  0  0  0
   26.5848  -19.2061  -12.5417 O   0  0  0  0  0  0  0  0  0  0  0  0
   21.4415  -20.6821  -11.0675 C   0  0  0  0  0  0  0  0  0  0  0  0
   22.8819  -20.3264  -11.2821 C   0  0  0  0  0  0  0  0  0  0  0  0
   23.8485  -20.7034  -10.2281 C   0  0  2  0  0  0  0  0  0  0  0  0
   23.3653  -20.2761   -8.8332 C   0  0  0  0  0  0  0  0  0  0  0  0
   25.2798  -20.4781  -10.4297 C   0  0  2  0  0  0  0  0  0  0  0  0
   25.8758  -21.1192  -11.5727 N   0  0  0  0  0  0  0  0  0  0  0  0
   26.0637  -20.8785   -9.2468 C   0  0  0  0  0  0  0  0  0  0  0  0
   26.2511  -22.1169   -9.0490 O   0  0  0  0  0  0  0  0  0  0  0  0
   27.9499  -20.2080   -4.3947 C   0  0  0  0  0  0  0  0  0  0  0  0
   29.0280  -19.9518   -5.4670 C   0  0  2  0  0  0  0  0  0  0  0  0
   30.0283  -18.9846   -4.9292 C   0  0  0  0  0  0  0  0  0  0  0  0
   28.3891  -19.5057   -6.7342 C   0  0  0  0  0  0  0  0  0  0  0  0
   27.3838  -20.5656   -7.1940 C   0  0  2  0  0  0  0  0  0  0  0  0
   26.6257  -19.9668   -8.3204 N   0  0  0  0  0  0  0  0  0  0  0  0
   26.4233  -20.8684   -6.1365 C   0  0  0  0  0  0  0  0  0  0  0  0
   25.4305  -19.9744   -5.8016 O   0  0  0  0  0  0  0  0  0  0  0  0
   26.4758  -21.9437   -5.5042 O   0  0  0  0  0  0  0  0  0  0  0  0
  1  2  1  0
  2  4  1  0
  3  2  2  0
  4  5  1  0
  5  6  1  6
  7  5  1  0
  8  7  2  0
  9 10  1  0
 11 10  1  0
 11 13  1  0
 11 12  1  1
 13 15  1  0
 13 14  1  6
 14  7  1  0
 15 16  2  0
 18 17  1  1
 18 20  1  0
 19 18  1  0
 21 20  1  1
 22 21  1  0
 22 15  1  0
 23 24  1  0
 23 21  1  0
 25 23  2  0
M  END
$$$$
