NIL.pdb
     RDKit          3D

 25 24  0  0  1  0  0  0  0  0999 V2000
   37.9869  -28.5608    4.5489 N   0  0  0  0  0  0  0  0  0  0  0  0
   37.9155  -27.1563    4.3959 C   0  0  0  0  0  0  0  0  0  0  0  0
   38.2764  -26.6548    3.3171 O   0  0  0  0  0  0  0  0  0  0  0  0
   37.4250  -26.2646    5.4780 C   0  0  0  0  0  0  0  0  0  0  0  0
   37.3786  -24.8262    5.0063 C   0  0  2  0  0  0  0  0  0  0  0  0
   38.7316  -24.3212    4.9995 N   0  0  0  0  0  0  0  0  0  0  0  0
   36.5284  -23.9892    5.9069 C   0  0  0  0  0  0  0  0  0  0  0  0
   37.0104  -23.4041    6.9075 O   0  0  0  0  0  0  0  0  0  0  0  0
   31.9369  -21.4217    3.7851 C   0  0  0  0  0  0  0  0  0  0  0  0
   33.2117  -21.7452    4.5045 C   0  0  0  0  0  0  0  0  0  0  0  0
   33.1094  -22.4122    5.8206 C   0  0  2  0  0  0  0  0  0  0  0  0
   32.1843  -21.6440    6.7778 C   0  0  0  0  0  0  0  0  0  0  0  0
   34.3104  -22.9267    6.4785 C   0  0  2  0  0  0  0  0  0  0  0  0
   35.1452  -23.8017    5.6974 N   0  0  0  0  0  0  0  0  0  0  0  0
   33.9821  -23.6372    7.7280 C   0  0  0  0  0  0  0  0  0  0  0  0
   33.4672  -24.7924    7.6374 O   0  0  0  0  0  0  0  0  0  0  0  0
   36.1479  -25.6099   10.6555 C   0  0  0  0  0  0  0  0  0  0  0  0
   36.1225  -24.0934   10.9337 C   0  0  2  0  0  0  0  0  0  0  0  0
   37.1531  -23.7706   11.9628 C   0  0  0  0  0  0  0  0  0  0  0  0
   34.7481  -23.6687   11.3128 C   0  0  0  0  0  0  0  0  0  0  0  0
   33.7887  -23.9714   10.1581 C   0  0  2  0  0  0  0  0  0  0  0  0
   34.2108  -23.1132    9.0235 N   0  0  0  0  0  0  0  0  0  0  0  0
   32.4208  -23.5939   10.5027 C   0  0  0  0  0  0  0  0  0  0  0  0
   31.5816  -24.4757   11.1471 O   0  0  0  0  0  0  0  0  0  0  0  0
   31.9718  -22.4634   10.2209 O   0  0  0  0  0  0  0  0  0  0  0  0
  1  2  1  0
  2  4  1  0
  3  2  2  0
  4  5  1  0
  5  6  1  1
  7  5  1  0
  8  7  2  0
  9 10  1  0
 11 10  1  0
 11 13  1  0
 11 12  1  1
 13 15  1  0
 13 14  1  6
 14  7  1  0
 15 16  2  0
 18 17  1  1
 18 20  1  0
 19 18  1  0
 21 20  1  1
 22 21  1  0
 22 15  1  0
 23 24  1  0
 23 21  1  0
 25 23  2  0
M  END
$$$$
