HKQ.pdb
     RDKit          3D

 29 29  0  0  1  0  0  0  0  0999 V2000
   22.3366  -14.7698  -18.3154 N   0  0  0  0  0  0  0  0  0  0  0  0
   22.6993  -13.6779  -19.1961 C   0  0  1  0  0  0  0  0  0  0  0  0
   21.4170  -13.0700  -19.7072 C   0  0  0  0  0  0  0  0  0  0  0  0
   20.6881  -14.1213  -20.4754 C   0  0  0  0  0  0  0  0  0  0  0  0
   19.4322  -14.6252  -20.2513 C   0  0  0  0  0  0  0  0  0  0  0  0
   19.1759  -15.5540  -21.1832 N   0  0  0  0  0  0  0  0  0  0  0  0
   20.2513  -15.6484  -21.9972 C   0  0  0  0  0  0  0  0  0  0  0  0
   21.1615  -14.7753  -21.5584 N   0  0  0  0  0  0  0  0  0  0  0  0
   23.4997  -12.6453  -18.4708 C   0  0  0  0  0  0  0  0  0  0  0  0
   23.0481  -12.1431  -17.4360 O   0  0  0  0  0  0  0  0  0  0  0  0
   24.7489  -12.2358  -18.9389 N   0  0  0  0  0  0  0  0  0  0  0  0
   25.6308  -11.2495  -18.4757 C   0  0  1  0  0  0  0  0  0  0  0  0
   27.0801  -11.3059  -18.8618 C   0  0  0  0  0  0  0  0  0  0  0  0
   27.9144  -10.2511  -18.1707 C   0  0  0  0  0  0  0  0  0  0  0  0
   29.3442  -10.2126  -18.5823 C   0  0  0  0  0  0  0  0  0  0  0  0
   30.2523   -9.3392  -17.8114 C   0  0  0  0  0  0  0  0  0  0  0  0
   31.5279   -9.2269  -18.4383 N   0  0  0  0  0  0  0  0  0  0  0  0
   25.1150   -9.8985  -18.6360 C   0  0  0  0  0  0  0  0  0  0  0  0
   24.8590   -9.5139  -19.8332 O   0  0  0  0  0  0  0  0  0  0  0  0
   21.3842   -6.6975  -14.6767 N   0  0  0  0  0  0  0  0  0  0  0  0
   21.6869   -5.6950  -15.6707 C   0  0  0  0  0  0  0  0  0  0  0  0
   21.1735   -4.5661  -15.5313 O   0  0  0  0  0  0  0  0  0  0  0  0
   22.5624   -6.0384  -16.7824 C   0  0  0  0  0  0  0  0  0  0  0  0
   23.2341   -7.3676  -16.7932 C   0  0  0  0  0  0  0  0  0  0  0  0
   24.1926   -7.6519  -17.8932 C   0  0  2  0  0  0  0  0  0  0  0  0
   24.8587   -8.9531  -17.6369 N   0  0  0  0  0  0  0  0  0  0  0  0
   25.2901   -6.6778  -18.0089 C   0  0  0  0  0  0  0  0  0  0  0  0
   26.4509   -6.8478  -17.5203 O   0  0  0  0  0  0  0  0  0  0  0  0
   25.1059   -5.4595  -18.7026 O   0  0  0  0  0  0  0  0  0  0  0  0
  2  1  1  1
  3  4  1  0
  3  2  1  0
  4  5  2  0
  5  6  1  0
  7  6  1  0
  8  4  1  0
  8  7  2  0
  9  2  1  0
  9 10  2  0
 11  9  1  0
 12 11  1  0
 13 14  1  0
 12 13  1  6
 14 15  1  0
 15 16  1  0
 16 17  1  0
 18 19  2  0
 18 12  1  0
 20 21  1  0
 21 22  2  0
 23 21  1  0
 23 24  1  0
 25 24  1  1
 25 27  1  0
 25 26  1  0
 26 18  1  0
 27 29  1  0
 28 27  2  0
M  END
$$$$
