HKQ.pdb
     RDKit          3D

 29 29  0  0  1  0  0  0  0  0999 V2000
   27.4945  -25.1362  -16.0447 N   0  0  0  0  0  0  0  0  0  0  0  0
   26.3249  -24.8441  -16.8485 C   0  0  1  0  0  0  0  0  0  0  0  0
   25.5987  -26.1470  -17.0725 C   0  0  0  0  0  0  0  0  0  0  0  0
   26.4338  -26.9841  -17.9827 C   0  0  0  0  0  0  0  0  0  0  0  0
   26.7636  -28.3098  -17.8596 C   0  0  0  0  0  0  0  0  0  0  0  0
   27.5315  -28.6540  -18.9030 N   0  0  0  0  0  0  0  0  0  0  0  0
   27.6951  -27.5658  -19.6884 C   0  0  0  0  0  0  0  0  0  0  0  0
   27.0253  -26.5597  -19.1206 N   0  0  0  0  0  0  0  0  0  0  0  0
   25.4260  -23.8716  -16.1563 C   0  0  0  0  0  0  0  0  0  0  0  0
   25.2033  -24.0041  -14.9481 O   0  0  0  0  0  0  0  0  0  0  0  0
   24.8319  -22.8149  -16.8475 N   0  0  0  0  0  0  0  0  0  0  0  0
   24.0309  -21.7542  -16.4020 C   0  0  1  0  0  0  0  0  0  0  0  0
   24.0938  -20.4285  -17.1029 C   0  0  0  0  0  0  0  0  0  0  0  0
   25.2462  -19.5692  -16.6337 C   0  0  0  0  0  0  0  0  0  0  0  0
   26.5603  -19.8878  -17.2556 C   0  0  0  0  0  0  0  0  0  0  0  0
   27.7386  -19.1321  -16.7844 C   0  0  0  0  0  0  0  0  0  0  0  0
   28.9446  -19.6321  -17.3574 N   0  0  0  0  0  0  0  0  0  0  0  0
   22.6476  -22.1397  -16.1680 C   0  0  0  0  0  0  0  0  0  0  0  0
   22.0796  -22.8426  -17.0790 O   0  0  0  0  0  0  0  0  0  0  0  0
   19.3578  -22.3632  -10.6539 N   0  0  0  0  0  0  0  0  0  0  0  0
   18.3835  -22.7735  -11.6373 C   0  0  0  0  0  0  0  0  0  0  0  0
   17.2625  -23.1373  -11.2269 O   0  0  0  0  0  0  0  0  0  0  0  0
   18.7449  -22.7513  -13.0477 C   0  0  0  0  0  0  0  0  0  0  0  0
   20.1244  -22.3471  -13.4370 C   0  0  0  0  0  0  0  0  0  0  0  0
   20.4672  -22.3528  -14.8834 C   0  0  2  0  0  0  0  0  0  0  0  0
   21.8477  -21.8376  -15.0605 N   0  0  0  0  0  0  0  0  0  0  0  0
   19.6234  -21.4751  -15.7106 C   0  0  0  0  0  0  0  0  0  0  0  0
   18.5958  -21.8656  -16.3484 O   0  0  0  0  0  0  0  0  0  0  0  0
   19.9183  -20.0980  -15.8376 O   0  0  0  0  0  0  0  0  0  0  0  0
  2  1  1  1
  3  4  1  0
  3  2  1  0
  4  5  2  0
  5  6  1  0
  7  6  1  0
  8  4  1  0
  8  7  2  0
  9  2  1  0
  9 10  2  0
 11  9  1  0
 12 11  1  0
 13 14  1  0
 12 13  1  6
 14 15  1  0
 15 16  1  0
 16 17  1  0
 18 19  2  0
 18 12  1  0
 20 21  1  0
 21 22  2  0
 23 21  1  0
 23 24  1  0
 25 24  1  1
 25 27  1  0
 25 26  1  0
 26 18  1  0
 27 29  1  0
 28 27  2  0
M  END
$$$$
