HKQ.pdb
     RDKit          3D

 29 29  0  0  1  0  0  0  0  0999 V2000
   17.6051  -14.3152  -16.1094 N   0  0  0  0  0  0  0  0  0  0  0  0
   16.6304  -13.2447  -16.1668 C   0  0  1  0  0  0  0  0  0  0  0  0
   15.9398  -13.1954  -14.8268 C   0  0  0  0  0  0  0  0  0  0  0  0
   14.8364  -14.1998  -14.8450 C   0  0  0  0  0  0  0  0  0  0  0  0
   14.4381  -15.0111  -15.8768 C   0  0  0  0  0  0  0  0  0  0  0  0
   13.4074  -15.7573  -15.4554 N   0  0  0  0  0  0  0  0  0  0  0  0
   13.1441  -15.4322  -14.1697 C   0  0  0  0  0  0  0  0  0  0  0  0
   14.0166  -14.4872  -13.8106 N   0  0  0  0  0  0  0  0  0  0  0  0
   17.2883  -11.9332  -16.4501 C   0  0  0  0  0  0  0  0  0  0  0  0
   18.3543  -11.6550  -15.8905 O   0  0  0  0  0  0  0  0  0  0  0  0
   16.7225  -11.0147  -17.3352 N   0  0  0  0  0  0  0  0  0  0  0  0
   17.1641   -9.7565  -17.7679 C   0  0  1  0  0  0  0  0  0  0  0  0
   16.3481   -8.9823  -18.7616 C   0  0  0  0  0  0  0  0  0  0  0  0
   17.0474   -7.7344  -19.2519 C   0  0  0  0  0  0  0  0  0  0  0  0
   18.2255   -7.9784  -20.1280 C   0  0  0  0  0  0  0  0  0  0  0  0
   18.9673   -6.7986  -20.6172 C   0  0  0  0  0  0  0  0  0  0  0  0
   20.0822   -7.1775  -21.4211 N   0  0  0  0  0  0  0  0  0  0  0  0
   17.5898   -8.8925  -16.6775 C   0  0  0  0  0  0  0  0  0  0  0  0
   16.8194   -8.8292  -15.6532 O   0  0  0  0  0  0  0  0  0  0  0  0
   22.6416   -9.1643  -13.4952 N   0  0  0  0  0  0  0  0  0  0  0  0
   22.1723   -7.8824  -13.0246 C   0  0  0  0  0  0  0  0  0  0  0  0
   22.7768   -7.3594  -12.0663 O   0  0  0  0  0  0  0  0  0  0  0  0
   21.0261   -7.2631  -13.6748 C   0  0  0  0  0  0  0  0  0  0  0  0
   20.3468   -7.9828  -14.7878 C   0  0  0  0  0  0  0  0  0  0  0  0
   19.1453   -7.3501  -15.3924 C   0  0  2  0  0  0  0  0  0  0  0  0
   18.7485   -8.1118  -16.6027 N   0  0  0  0  0  0  0  0  0  0  0  0
   19.3568   -5.9711  -15.8619 C   0  0  0  0  0  0  0  0  0  0  0  0
   19.1104   -4.9346  -15.1691 O   0  0  0  0  0  0  0  0  0  0  0  0
   19.8721   -5.7179  -17.1541 O   0  0  0  0  0  0  0  0  0  0  0  0
  2  1  1  1
  3  4  1  0
  3  2  1  0
  4  5  2  0
  5  6  1  0
  7  6  1  0
  8  4  1  0
  8  7  2  0
  9  2  1  0
  9 10  2  0
 11  9  1  0
 12 11  1  0
 13 14  1  0
 12 13  1  1
 14 15  1  0
 15 16  1  0
 16 17  1  0
 18 19  2  0
 18 12  1  0
 20 21  1  0
 21 22  2  0
 23 21  1  0
 23 24  1  0
 25 24  1  6
 25 27  1  0
 25 26  1  0
 26 18  1  0
 27 29  1  0
 28 27  2  0
M  END
$$$$
