HKQ.pdb
     RDKit          3D

 29 29  0  0  1  0  0  0  0  0999 V2000
   23.7266  -16.3614  -19.5347 N   0  0  0  0  0  0  0  0  0  0  0  0
   23.3446  -16.2540  -18.1412 C   0  0  1  0  0  0  0  0  0  0  0  0
   22.2598  -15.2098  -18.0533 C   0  0  0  0  0  0  0  0  0  0  0  0
   22.8972  -13.8732  -18.2375 C   0  0  0  0  0  0  0  0  0  0  0  0
   24.2309  -13.5716  -18.3461 C   0  0  0  0  0  0  0  0  0  0  0  0
   24.3543  -12.2458  -18.5001 N   0  0  0  0  0  0  0  0  0  0  0  0
   23.1176  -11.6993  -18.4911 C   0  0  0  0  0  0  0  0  0  0  0  0
   22.2426  -12.6953  -18.3313 N   0  0  0  0  0  0  0  0  0  0  0  0
   22.8388  -17.5600  -17.6202 C   0  0  0  0  0  0  0  0  0  0  0  0
   21.8136  -18.0512  -18.1046 O   0  0  0  0  0  0  0  0  0  0  0  0
   23.5016  -18.2376  -16.5959 N   0  0  0  0  0  0  0  0  0  0  0  0
   23.2691  -19.4934  -16.0179 C   0  0  1  0  0  0  0  0  0  0  0  0
   24.4280  -20.3197  -15.5415 C   0  0  0  0  0  0  0  0  0  0  0  0
   25.2933  -20.8269  -16.6732 C   0  0  0  0  0  0  0  0  0  0  0  0
   26.5728  -21.4587  -16.2502 C   0  0  0  0  0  0  0  0  0  0  0  0
   27.4693  -21.9596  -17.3118 C   0  0  0  0  0  0  0  0  0  0  0  0
   28.7038  -22.4299  -16.7757 N   0  0  0  0  0  0  0  0  0  0  0  0
   22.2122  -19.4773  -15.0183 C   0  0  0  0  0  0  0  0  0  0  0  0
   22.4559  -18.8481  -13.9268 O   0  0  0  0  0  0  0  0  0  0  0  0
   16.0567  -18.3921  -14.2635 N   0  0  0  0  0  0  0  0  0  0  0  0
   16.1517  -19.7965  -13.9420 C   0  0  0  0  0  0  0  0  0  0  0  0
   15.1123  -20.3779  -13.5691 O   0  0  0  0  0  0  0  0  0  0  0  0
   17.4391  -20.4666  -14.0593 C   0  0  0  0  0  0  0  0  0  0  0  0
   18.6087  -19.7054  -14.5793 C   0  0  0  0  0  0  0  0  0  0  0  0
   19.9453  -20.0077  -14.0035 C   0  0  2  0  0  0  0  0  0  0  0  0
   20.9464  -20.0683  -15.0974 N   0  0  0  0  0  0  0  0  0  0  0  0
   20.0352  -21.3142  -13.3313 C   0  0  0  0  0  0  0  0  0  0  0  0
   20.4246  -22.3836  -13.8969 O   0  0  0  0  0  0  0  0  0  0  0  0
   19.6873  -21.4517  -11.9677 O   0  0  0  0  0  0  0  0  0  0  0  0
  2  1  1  6
  3  4  1  0
  3  2  1  0
  4  5  2  0
  5  6  1  0
  7  6  1  0
  8  4  1  0
  8  7  2  0
  9  2  1  0
  9 10  2  0
 11  9  1  0
 12 11  1  0
 13 14  1  0
 12 13  1  1
 14 15  1  0
 15 16  1  0
 16 17  1  0
 18 19  2  0
 18 12  1  0
 20 21  1  0
 21 22  2  0
 23 21  1  0
 23 24  1  0
 25 24  1  6
 25 27  1  0
 25 26  1  0
 26 18  1  0
 27 29  1  0
 28 27  2  0
M  END
$$$$
