HKQ.pdb
     RDKit          3D

 29 29  0  0  1  0  0  0  0  0999 V2000
   28.2078  -19.0896  -13.2420 N   0  0  0  0  0  0  0  0  0  0  0  0
   27.2735  -20.1970  -13.2366 C   0  0  1  0  0  0  0  0  0  0  0  0
   27.1739  -20.6920  -11.8152 C   0  0  0  0  0  0  0  0  0  0  0  0
   28.5306  -21.1501  -11.3956 C   0  0  0  0  0  0  0  0  0  0  0  0
   29.7023  -21.1113  -12.1076 C   0  0  0  0  0  0  0  0  0  0  0  0
   30.6780  -21.6266  -11.3463 N   0  0  0  0  0  0  0  0  0  0  0  0
   30.1434  -21.9927  -10.1596 C   0  0  0  0  0  0  0  0  0  0  0  0
   28.8413  -21.6991  -10.2011 N   0  0  0  0  0  0  0  0  0  0  0  0
   25.9273  -19.7673  -13.7225 C   0  0  0  0  0  0  0  0  0  0  0  0
   25.3068  -18.8974  -13.1018 O   0  0  0  0  0  0  0  0  0  0  0  0
   25.3556  -20.3290  -14.8648 N   0  0  0  0  0  0  0  0  0  0  0  0
   24.1186  -20.1038  -15.4846 C   0  0  1  0  0  0  0  0  0  0  0  0
   24.0063  -20.1978  -16.9784 C   0  0  0  0  0  0  0  0  0  0  0  0
   22.6213  -19.8654  -17.4861 C   0  0  0  0  0  0  0  0  0  0  0  0
   22.4673  -19.9124  -18.9657 C   0  0  0  0  0  0  0  0  0  0  0  0
   21.1417  -19.5766  -19.5241 C   0  0  0  0  0  0  0  0  0  0  0  0
   21.1170  -19.7290  -20.9415 N   0  0  0  0  0  0  0  0  0  0  0  0
   23.0205  -20.8143  -14.8473 C   0  0  0  0  0  0  0  0  0  0  0  0
   23.1441  -22.0860  -14.7283 O   0  0  0  0  0  0  0  0  0  0  0  0
   20.6902  -19.4876   -9.5500 N   0  0  0  0  0  0  0  0  0  0  0  0
   20.4815  -18.5932  -10.6642 C   0  0  0  0  0  0  0  0  0  0  0  0
   20.3361  -17.3792  -10.4143 O   0  0  0  0  0  0  0  0  0  0  0  0
   20.4445  -19.1369  -12.0144 C   0  0  0  0  0  0  0  0  0  0  0  0
   20.7040  -20.5891  -12.2192 C   0  0  0  0  0  0  0  0  0  0  0  0
   20.8154  -21.0839  -13.6164 C   0  0  2  0  0  0  0  0  0  0  0  0
   21.8311  -20.2795  -14.3403 N   0  0  0  0  0  0  0  0  0  0  0  0
   19.5831  -20.9453  -14.4095 C   0  0  0  0  0  0  0  0  0  0  0  0
   18.6240  -21.7789  -14.3913 O   0  0  0  0  0  0  0  0  0  0  0  0
   19.3912  -19.8315  -15.2594 O   0  0  0  0  0  0  0  0  0  0  0  0
  2  1  1  1
  3  4  1  0
  3  2  1  0
  4  5  2  0
  5  6  1  0
  7  6  1  0
  8  4  1  0
  8  7  2  0
  9  2  1  0
  9 10  2  0
 11  9  1  0
 12 11  1  0
 13 14  1  0
 12 13  1  6
 14 15  1  0
 15 16  1  0
 16 17  1  0
 18 19  2  0
 18 12  1  0
 20 21  1  0
 21 22  2  0
 23 21  1  0
 23 24  1  0
 25 24  1  1
 25 27  1  0
 25 26  1  0
 26 18  1  0
 27 29  1  0
 28 27  2  0
M  END
$$$$
