HKQ.pdb
     RDKit          3D

 29 29  0  0  1  0  0  0  0  0999 V2000
   26.6971  -21.9870  -10.8576 N   0  0  0  0  0  0  0  0  0  0  0  0
   26.0406  -20.8123  -10.3205 C   0  0  1  0  0  0  0  0  0  0  0  0
   27.1008  -19.9727   -9.6527 C   0  0  0  0  0  0  0  0  0  0  0  0
   28.4320  -20.4987  -10.0743 C   0  0  0  0  0  0  0  0  0  0  0  0
   29.2602  -20.0309  -11.0626 C   0  0  0  0  0  0  0  0  0  0  0  0
   30.3550  -20.8036  -11.0989 N   0  0  0  0  0  0  0  0  0  0  0  0
   30.2351  -21.7567  -10.1475 C   0  0  0  0  0  0  0  0  0  0  0  0
   29.0656  -21.5619   -9.5330 N   0  0  0  0  0  0  0  0  0  0  0  0
   25.3744  -20.0265  -11.4029 C   0  0  0  0  0  0  0  0  0  0  0  0
   24.7382  -19.0082  -11.1106 O   0  0  0  0  0  0  0  0  0  0  0  0
   25.4561  -20.4195  -12.7394 N   0  0  0  0  0  0  0  0  0  0  0  0
   24.9324  -19.8435  -13.9051 C   0  0  1  0  0  0  0  0  0  0  0  0
   25.8255  -19.6175  -15.0900 C   0  0  0  0  0  0  0  0  0  0  0  0
   25.1494  -18.8393  -16.1962 C   0  0  0  0  0  0  0  0  0  0  0  0
   25.9935  -18.5937  -17.3972 C   0  0  0  0  0  0  0  0  0  0  0  0
   25.3900  -17.8338  -18.5108 C   0  0  0  0  0  0  0  0  0  0  0  0
   26.2328  -17.8322  -19.6607 N   0  0  0  0  0  0  0  0  0  0  0  0
   23.6742  -20.4418  -14.3245 C   0  0  0  0  0  0  0  0  0  0  0  0
   23.7138  -21.6655  -14.7089 O   0  0  0  0  0  0  0  0  0  0  0  0
   19.8982  -22.6225  -11.3820 N   0  0  0  0  0  0  0  0  0  0  0  0
   18.7935  -22.0708  -12.1303 C   0  0  0  0  0  0  0  0  0  0  0  0
   17.6775  -22.6149  -12.0034 O   0  0  0  0  0  0  0  0  0  0  0  0
   19.0240  -20.9217  -12.9943 C   0  0  0  0  0  0  0  0  0  0  0  0
   20.4016  -20.3684  -13.1137 C   0  0  0  0  0  0  0  0  0  0  0  0
   21.1410  -20.6144  -14.3794 C   0  0  2  0  0  0  0  0  0  0  0  0
   22.4096  -19.8443  -14.3619 N   0  0  0  0  0  0  0  0  0  0  0  0
   20.4375  -20.1629  -15.5910 C   0  0  0  0  0  0  0  0  0  0  0  0
   19.6463  -20.8892  -16.2704 O   0  0  0  0  0  0  0  0  0  0  0  0
   20.6052  -18.8454  -16.0763 O   0  0  0  0  0  0  0  0  0  0  0  0
  2  1  1  6
  3  4  1  0
  3  2  1  0
  4  5  2  0
  5  6  1  0
  7  6  1  0
  8  4  1  0
  8  7  2  0
  9  2  1  0
  9 10  2  0
 11  9  1  0
 12 11  1  0
 13 14  1  0
 12 13  1  6
 14 15  1  0
 15 16  1  0
 16 17  1  0
 18 19  2  0
 18 12  1  0
 20 21  1  0
 21 22  2  0
 23 21  1  0
 23 24  1  0
 25 24  1  1
 25 27  1  0
 25 26  1  0
 26 18  1  0
 27 29  1  0
 28 27  2  0
M  END
$$$$
