HKQ.pdb
     RDKit          3D

 29 29  0  0  1  0  0  0  0  0999 V2000
   27.4108  -17.7379  -16.3904 N   0  0  0  0  0  0  0  0  0  0  0  0
   26.1695  -17.7706  -17.1371 C   0  0  1  0  0  0  0  0  0  0  0  0
   26.0903  -19.1154  -17.8156 C   0  0  0  0  0  0  0  0  0  0  0  0
   27.2449  -19.2212  -18.7549 C   0  0  0  0  0  0  0  0  0  0  0  0
   28.2917  -20.1071  -18.7238 C   0  0  0  0  0  0  0  0  0  0  0  0
   29.1007  -19.8435  -19.7595 N   0  0  0  0  0  0  0  0  0  0  0  0
   28.5835  -18.8021  -20.4494 C   0  0  0  0  0  0  0  0  0  0  0  0
   27.4587  -18.4334  -19.8311 N   0  0  0  0  0  0  0  0  0  0  0  0
   24.9937  -17.5850  -16.2339 C   0  0  0  0  0  0  0  0  0  0  0  0
   24.9125  -18.2529  -15.1974 O   0  0  0  0  0  0  0  0  0  0  0  0
   23.9835  -16.6713  -16.5374 N   0  0  0  0  0  0  0  0  0  0  0  0
   22.7921  -16.3560  -15.8694 C   0  0  1  0  0  0  0  0  0  0  0  0
   22.0728  -15.0790  -16.1927 C   0  0  0  0  0  0  0  0  0  0  0  0
   21.6508  -14.9924  -17.6421 C   0  0  0  0  0  0  0  0  0  0  0  0
   20.9636  -13.7278  -18.0212 C   0  0  0  0  0  0  0  0  0  0  0  0
   20.5829  -13.5571  -19.4380 C   0  0  0  0  0  0  0  0  0  0  0  0
   19.8778  -14.6940  -19.9312 N   0  0  0  0  0  0  0  0  0  0  0  0
   21.8544  -17.4671  -15.8149 C   0  0  0  0  0  0  0  0  0  0  0  0
   21.7683  -18.2050  -16.8612 O   0  0  0  0  0  0  0  0  0  0  0  0
   20.8838  -21.3816  -11.1792 N   0  0  0  0  0  0  0  0  0  0  0  0
   20.4680  -20.0053  -11.0468 C   0  0  0  0  0  0  0  0  0  0  0  0
   20.3021  -19.5577   -9.8938 O   0  0  0  0  0  0  0  0  0  0  0  0
   20.2571  -19.2083  -12.2470 C   0  0  0  0  0  0  0  0  0  0  0  0
   20.3813  -19.8586  -13.5811 C   0  0  0  0  0  0  0  0  0  0  0  0
   20.1322  -19.0243  -14.7858 C   0  0  2  0  0  0  0  0  0  0  0  0
   21.0238  -17.8383  -14.7519 N   0  0  0  0  0  0  0  0  0  0  0  0
   18.7694  -18.4746  -14.8722 C   0  0  0  0  0  0  0  0  0  0  0  0
   18.4872  -17.2415  -14.7503 O   0  0  0  0  0  0  0  0  0  0  0  0
   17.6620  -19.3205  -15.1122 O   0  0  0  0  0  0  0  0  0  0  0  0
  2  1  1  1
  3  4  1  0
  3  2  1  0
  4  5  2  0
  5  6  1  0
  7  6  1  0
  8  4  1  0
  8  7  2  0
  9  2  1  0
  9 10  2  0
 11  9  1  0
 12 11  1  0
 13 14  1  0
 12 13  1  6
 14 15  1  0
 15 16  1  0
 16 17  1  0
 18 19  2  0
 18 12  1  0
 20 21  1  0
 21 22  2  0
 23 21  1  0
 23 24  1  0
 25 24  1  1
 25 27  1  0
 25 26  1  0
 26 18  1  0
 27 29  1  0
 28 27  2  0
M  END
$$$$
