HKQ.pdb
     RDKit          3D

 29 29  0  0  1  0  0  0  0  0999 V2000
   14.3547  -13.7524  -11.8625 N   0  0  0  0  0  0  0  0  0  0  0  0
   13.9069  -12.3819  -11.7200 C   0  0  1  0  0  0  0  0  0  0  0  0
   12.9845  -12.3337  -10.5276 C   0  0  0  0  0  0  0  0  0  0  0  0
   11.7891  -13.1698  -10.8415 C   0  0  0  0  0  0  0  0  0  0  0  0
   11.3919  -14.3447  -10.2556 C   0  0  0  0  0  0  0  0  0  0  0  0
   10.2606  -14.7522  -10.8478 N   0  0  0  0  0  0  0  0  0  0  0  0
    9.9321  -13.8530  -11.8026 C   0  0  0  0  0  0  0  0  0  0  0  0
   10.8658  -12.8984  -11.7895 N   0  0  0  0  0  0  0  0  0  0  0  0
   15.0622  -11.4580  -11.5088 C   0  0  0  0  0  0  0  0  0  0  0  0
   15.8972  -11.7191  -10.6361 O   0  0  0  0  0  0  0  0  0  0  0  0
   15.2179  -10.3042  -12.2782 N   0  0  0  0  0  0  0  0  0  0  0  0
   16.2238   -9.3279  -12.2857 C   0  0  1  0  0  0  0  0  0  0  0  0
   17.1557   -9.2280  -13.4580 C   0  0  0  0  0  0  0  0  0  0  0  0
   18.2729   -8.2330  -13.2382 C   0  0  0  0  0  0  0  0  0  0  0  0
   19.2346   -8.1097  -14.3673 C   0  0  0  0  0  0  0  0  0  0  0  0
   20.4142   -7.2437  -14.1666 C   0  0  0  0  0  0  0  0  0  0  0  0
   21.1897   -7.1312  -15.3577 N   0  0  0  0  0  0  0  0  0  0  0  0
   15.7443   -8.0082  -11.9044 C   0  0  0  0  0  0  0  0  0  0  0  0
   14.8278   -7.4901  -12.6381 O   0  0  0  0  0  0  0  0  0  0  0  0
   14.9650   -5.6083   -6.1517 N   0  0  0  0  0  0  0  0  0  0  0  0
   14.6932   -4.4583   -6.9815 C   0  0  0  0  0  0  0  0  0  0  0  0
   14.3018   -3.4158   -6.4182 O   0  0  0  0  0  0  0  0  0  0  0  0
   14.8793   -4.5617   -8.4219 C   0  0  0  0  0  0  0  0  0  0  0  0
   15.3404   -5.8531   -9.0032 C   0  0  0  0  0  0  0  0  0  0  0  0
   15.5427   -5.9192  -10.4743 C   0  0  2  0  0  0  0  0  0  0  0  0
   16.1610   -7.2221  -10.8246 N   0  0  0  0  0  0  0  0  0  0  0  0
   16.4659   -4.9035  -11.0063 C   0  0  0  0  0  0  0  0  0  0  0  0
   16.1038   -3.7636  -11.4359 O   0  0  0  0  0  0  0  0  0  0  0  0
   17.8573   -5.1491  -11.0621 O   0  0  0  0  0  0  0  0  0  0  0  0
  2  1  1  1
  3  4  1  0
  3  2  1  0
  4  5  2  0
  5  6  1  0
  7  6  1  0
  8  4  1  0
  8  7  2  0
  9  2  1  0
  9 10  2  0
 11  9  1  0
 12 11  1  0
 13 14  1  0
 12 13  1  6
 14 15  1  0
 15 16  1  0
 16 17  1  0
 18 19  2  0
 18 12  1  0
 20 21  1  0
 21 22  2  0
 23 21  1  0
 23 24  1  0
 25 24  1  1
 25 27  1  0
 25 26  1  0
 26 18  1  0
 27 29  1  0
 28 27  2  0
M  END
$$$$
