HKQ.pdb
     RDKit          3D

 29 29  0  0  1  0  0  0  0  0999 V2000
   13.6818  -10.5934  -10.4359 N   0  0  0  0  0  0  0  0  0  0  0  0
   15.0536  -10.1282  -10.4020 C   0  0  1  0  0  0  0  0  0  0  0  0
   15.7752  -10.7770  -11.5568 C   0  0  0  0  0  0  0  0  0  0  0  0
   15.7646  -12.2519  -11.3305 C   0  0  0  0  0  0  0  0  0  0  0  0
   15.9216  -12.9354  -10.1517 C   0  0  0  0  0  0  0  0  0  0  0  0
   15.8430  -14.2485  -10.4096 N   0  0  0  0  0  0  0  0  0  0  0  0
   15.6381  -14.4102  -11.7362 C   0  0  0  0  0  0  0  0  0  0  0  0
   15.5924  -13.1932  -12.2840 N   0  0  0  0  0  0  0  0  0  0  0  0
   15.1203   -8.6409  -10.5299 C   0  0  0  0  0  0  0  0  0  0  0  0
   14.7917   -8.1074  -11.5950 O   0  0  0  0  0  0  0  0  0  0  0  0
   15.5467   -7.8405   -9.4693 N   0  0  0  0  0  0  0  0  0  0  0  0
   15.7232   -6.4532   -9.3720 C   0  0  1  0  0  0  0  0  0  0  0  0
   15.2848   -5.7322   -8.1308 C   0  0  0  0  0  0  0  0  0  0  0  0
   13.7879   -5.5282   -8.0669 C   0  0  0  0  0  0  0  0  0  0  0  0
   13.3112   -4.7405   -6.8974 C   0  0  0  0  0  0  0  0  0  0  0  0
   11.8657   -4.4482   -6.8159 C   0  0  0  0  0  0  0  0  0  0  0  0
   11.5552   -3.6584   -5.6703 N   0  0  0  0  0  0  0  0  0  0  0  0
   17.0520   -6.0152   -9.7709 C   0  0  0  0  0  0  0  0  0  0  0  0
   17.9886   -6.1397   -8.9025 O   0  0  0  0  0  0  0  0  0  0  0  0
   20.4898   -8.6814  -13.4987 N   0  0  0  0  0  0  0  0  0  0  0  0
   21.3312   -7.5280  -13.2831 C   0  0  0  0  0  0  0  0  0  0  0  0
   22.5033   -7.5772  -13.7085 O   0  0  0  0  0  0  0  0  0  0  0  0
   20.7872   -6.3726  -12.5835 C   0  0  0  0  0  0  0  0  0  0  0  0
   19.4043   -6.4413  -12.0350 C   0  0  0  0  0  0  0  0  0  0  0  0
   18.8596   -5.2277  -11.3717 C   0  0  2  0  0  0  0  0  0  0  0  0
   17.4437   -5.4688  -10.9980 N   0  0  0  0  0  0  0  0  0  0  0  0
   18.8297   -4.0301  -12.2271 C   0  0  0  0  0  0  0  0  0  0  0  0
   17.7839   -3.5826  -12.7938 O   0  0  0  0  0  0  0  0  0  0  0  0
   20.0057   -3.2821  -12.4657 O   0  0  0  0  0  0  0  0  0  0  0  0
  2  1  1  6
  3  4  1  0
  3  2  1  0
  4  5  2  0
  5  6  1  0
  7  6  1  0
  8  4  1  0
  8  7  2  0
  9  2  1  0
  9 10  2  0
 11  9  1  0
 12 11  1  0
 13 14  1  0
 12 13  1  1
 14 15  1  0
 15 16  1  0
 16 17  1  0
 18 19  2  0
 18 12  1  0
 20 21  1  0
 21 22  2  0
 23 21  1  0
 23 24  1  0
 25 24  1  6
 25 27  1  0
 25 26  1  0
 26 18  1  0
 27 29  1  0
 28 27  2  0
M  END
$$$$
