HKQ.pdb
     RDKit          3D

 29 29  0  0  1  0  0  0  0  0999 V2000
   25.2837  -12.9277  -16.6455 N   0  0  0  0  0  0  0  0  0  0  0  0
   25.8382  -11.5930  -16.7488 C   0  0  1  0  0  0  0  0  0  0  0  0
   27.0647  -11.6839  -17.6220 C   0  0  0  0  0  0  0  0  0  0  0  0
   28.0075  -12.6495  -16.9852 C   0  0  0  0  0  0  0  0  0  0  0  0
   27.8211  -13.4051  -15.8557 C   0  0  0  0  0  0  0  0  0  0  0  0
   28.9270  -14.1329  -15.6456 N   0  0  0  0  0  0  0  0  0  0  0  0
   29.8147  -13.8510  -16.6257 C   0  0  0  0  0  0  0  0  0  0  0  0
   29.2463  -12.9506  -17.4317 N   0  0  0  0  0  0  0  0  0  0  0  0
   24.8519  -10.6462  -17.3519 C   0  0  0  0  0  0  0  0  0  0  0  0
   25.1985   -9.4872  -17.6042 O   0  0  0  0  0  0  0  0  0  0  0  0
   23.5451  -11.0446  -17.6364 N   0  0  0  0  0  0  0  0  0  0  0  0
   22.4634  -10.3406  -18.1837 C   0  0  1  0  0  0  0  0  0  0  0  0
   21.4122  -11.0778  -18.9611 C   0  0  0  0  0  0  0  0  0  0  0  0
   20.4032  -10.1552  -19.6071 C   0  0  0  0  0  0  0  0  0  0  0  0
   19.3525  -10.8381  -20.4101 C   0  0  0  0  0  0  0  0  0  0  0  0
   18.3708   -9.9871  -21.1127 C   0  0  0  0  0  0  0  0  0  0  0  0
   17.3687  -10.7684  -21.7593 N   0  0  0  0  0  0  0  0  0  0  0  0
   21.8459   -9.4176  -17.2438 C   0  0  0  0  0  0  0  0  0  0  0  0
   21.5927   -9.8688  -16.0695 O   0  0  0  0  0  0  0  0  0  0  0  0
   23.5202   -3.7270  -15.7894 N   0  0  0  0  0  0  0  0  0  0  0  0
   22.2922   -3.8309  -15.0371 C   0  0  0  0  0  0  0  0  0  0  0  0
   22.0283   -2.9182  -14.2280 O   0  0  0  0  0  0  0  0  0  0  0  0
   21.4262   -4.9827  -15.2463 C   0  0  0  0  0  0  0  0  0  0  0  0
   21.8416   -6.0367  -16.2131 C   0  0  0  0  0  0  0  0  0  0  0  0
   20.9366   -7.2007  -16.4022 C   0  0  2  0  0  0  0  0  0  0  0  0
   21.4888   -8.0822  -17.4607 N   0  0  0  0  0  0  0  0  0  0  0  0
   19.5844   -6.8492  -16.8656 C   0  0  0  0  0  0  0  0  0  0  0  0
   19.2488   -6.7590  -18.0880 O   0  0  0  0  0  0  0  0  0  0  0  0
   18.5467   -6.5914  -15.9402 O   0  0  0  0  0  0  0  0  0  0  0  0
  2  1  1  6
  3  4  1  0
  3  2  1  0
  4  5  2  0
  5  6  1  0
  7  6  1  0
  8  4  1  0
  8  7  2  0
  9  2  1  0
  9 10  2  0
 11  9  1  0
 12 11  1  0
 13 14  1  0
 12 13  1  1
 14 15  1  0
 15 16  1  0
 16 17  1  0
 18 19  2  0
 18 12  1  0
 20 21  1  0
 21 22  2  0
 23 21  1  0
 23 24  1  0
 25 24  1  6
 25 27  1  0
 25 26  1  0
 26 18  1  0
 27 29  1  0
 28 27  2  0
M  END
$$$$
