HKQ.pdb
     RDKit          3D

 29 29  0  0  1  0  0  0  0  0999 V2000
   18.6816  -14.9146  -16.4421 N   0  0  0  0  0  0  0  0  0  0  0  0
   18.4740  -14.1004  -15.2617 C   0  0  1  0  0  0  0  0  0  0  0  0
   19.4974  -14.5258  -14.2385 C   0  0  0  0  0  0  0  0  0  0  0  0
   19.2025  -15.9384  -13.8584 C   0  0  0  0  0  0  0  0  0  0  0  0
   19.9683  -17.0565  -14.0700 C   0  0  0  0  0  0  0  0  0  0  0  0
   19.3199  -18.1158  -13.5657 N   0  0  0  0  0  0  0  0  0  0  0  0
   18.1520  -17.6874  -13.0361 C   0  0  0  0  0  0  0  0  0  0  0  0
   18.0918  -16.3660  -13.2194 N   0  0  0  0  0  0  0  0  0  0  0  0
   18.6383  -12.6485  -15.5743 C   0  0  0  0  0  0  0  0  0  0  0  0
   19.5875  -12.2817  -16.2754 O   0  0  0  0  0  0  0  0  0  0  0  0
   17.7404  -11.6965  -15.0898 N   0  0  0  0  0  0  0  0  0  0  0  0
   17.6677  -10.3105  -15.2876 C   0  0  1  0  0  0  0  0  0  0  0  0
   16.3544   -9.6029  -15.1230 C   0  0  0  0  0  0  0  0  0  0  0  0
   16.4237   -8.1396  -15.4979 C   0  0  0  0  0  0  0  0  0  0  0  0
   15.1317   -7.4065  -15.4064 C   0  0  0  0  0  0  0  0  0  0  0  0
   15.1045   -6.0105  -15.8883 C   0  0  0  0  0  0  0  0  0  0  0  0
   15.7197   -5.1232  -14.9571 N   0  0  0  0  0  0  0  0  0  0  0  0
   18.7271   -9.5787  -14.6103 C   0  0  0  0  0  0  0  0  0  0  0  0
   18.7813   -9.6868  -13.3327 O   0  0  0  0  0  0  0  0  0  0  0  0
   24.5130  -10.2760  -14.3473 N   0  0  0  0  0  0  0  0  0  0  0  0
   23.9386   -9.8932  -15.6154 C   0  0  0  0  0  0  0  0  0  0  0  0
   24.5433  -10.2335  -16.6527 O   0  0  0  0  0  0  0  0  0  0  0  0
   22.6973   -9.1321  -15.6323 C   0  0  0  0  0  0  0  0  0  0  0  0
   21.9788   -8.8872  -14.3510 C   0  0  0  0  0  0  0  0  0  0  0  0
   20.7477   -8.0554  -14.3936 C   0  0  2  0  0  0  0  0  0  0  0  0
   19.7079   -8.7614  -15.1829 N   0  0  0  0  0  0  0  0  0  0  0  0
   20.9166   -6.7550  -15.0623 C   0  0  0  0  0  0  0  0  0  0  0  0
   20.3550   -6.4359  -16.1567 O   0  0  0  0  0  0  0  0  0  0  0  0
   21.7373   -5.7519  -14.4967 O   0  0  0  0  0  0  0  0  0  0  0  0
  2  1  1  6
  3  4  1  0
  3  2  1  0
  4  5  2  0
  5  6  1  0
  7  6  1  0
  8  4  1  0
  8  7  2  0
  9  2  1  0
  9 10  2  0
 11  9  1  0
 12 11  1  0
 13 14  1  0
 12 13  1  1
 14 15  1  0
 15 16  1  0
 16 17  1  0
 18 19  2  0
 18 12  1  0
 20 21  1  0
 21 22  2  0
 23 21  1  0
 23 24  1  0
 25 24  1  6
 25 27  1  0
 25 26  1  0
 26 18  1  0
 27 29  1  0
 28 27  2  0
M  END
$$$$
