HKQ.pdb
     RDKit          3D

 29 29  0  0  1  0  0  0  0  0999 V2000
   17.0571  -13.3139  -14.9413 N   0  0  0  0  0  0  0  0  0  0  0  0
   16.7200  -12.1083  -15.6707 C   0  0  1  0  0  0  0  0  0  0  0  0
   15.3290  -11.7044  -15.2500 C   0  0  0  0  0  0  0  0  0  0  0  0
   14.3962  -12.7991  -15.6476 C   0  0  0  0  0  0  0  0  0  0  0  0
   13.6392  -13.6101  -14.8410 C   0  0  0  0  0  0  0  0  0  0  0  0
   12.9476  -14.4548  -15.6188 N   0  0  0  0  0  0  0  0  0  0  0  0
   13.2539  -14.1927  -16.9093 C   0  0  0  0  0  0  0  0  0  0  0  0
   14.1328  -13.1873  -16.9144 N   0  0  0  0  0  0  0  0  0  0  0  0
   17.6845  -11.0083  -15.3663 C   0  0  0  0  0  0  0  0  0  0  0  0
   17.6668  -10.4762  -14.2511 O   0  0  0  0  0  0  0  0  0  0  0  0
   18.6064  -10.5687  -16.3172 N   0  0  0  0  0  0  0  0  0  0  0  0
   19.6011   -9.5830  -16.2526 C   0  0  1  0  0  0  0  0  0  0  0  0
   20.8475   -9.7280  -17.0759 C   0  0  0  0  0  0  0  0  0  0  0  0
   21.6137  -10.9940  -16.7651 C   0  0  0  0  0  0  0  0  0  0  0  0
   22.7340  -11.2946  -17.6978 C   0  0  0  0  0  0  0  0  0  0  0  0
   23.3333  -12.6429  -17.6311 C   0  0  0  0  0  0  0  0  0  0  0  0
   24.2639  -12.8550  -18.6903 N   0  0  0  0  0  0  0  0  0  0  0  0
   19.0755   -8.2306  -16.3610 C   0  0  0  0  0  0  0  0  0  0  0  0
   18.2369   -8.0086  -17.3066 O   0  0  0  0  0  0  0  0  0  0  0  0
   15.0044   -5.0241  -15.8659 N   0  0  0  0  0  0  0  0  0  0  0  0
   15.7108   -3.9896  -15.1479 C   0  0  0  0  0  0  0  0  0  0  0  0
   15.1369   -2.8915  -14.9985 O   0  0  0  0  0  0  0  0  0  0  0  0
   17.0472   -4.2638  -14.6390 C   0  0  0  0  0  0  0  0  0  0  0  0
   17.6227   -5.6269  -14.8087 C   0  0  0  0  0  0  0  0  0  0  0  0
   18.7653   -5.7861  -15.7460 C   0  0  2  0  0  0  0  0  0  0  0  0
   19.3720   -7.1269  -15.5538 N   0  0  0  0  0  0  0  0  0  0  0  0
   19.8667   -4.8343  -15.5276 C   0  0  0  0  0  0  0  0  0  0  0  0
   20.8900   -5.0769  -14.8142 O   0  0  0  0  0  0  0  0  0  0  0  0
   19.8470   -3.5547  -16.1291 O   0  0  0  0  0  0  0  0  0  0  0  0
  2  1  1  1
  3  4  1  0
  3  2  1  0
  4  5  2  0
  5  6  1  0
  7  6  1  0
  8  4  1  0
  8  7  2  0
  9  2  1  0
  9 10  2  0
 11  9  1  0
 12 11  1  0
 13 14  1  0
 12 13  1  6
 14 15  1  0
 15 16  1  0
 16 17  1  0
 18 19  2  0
 18 12  1  0
 20 21  1  0
 21 22  2  0
 23 21  1  0
 23 24  1  0
 25 24  1  1
 25 27  1  0
 25 26  1  0
 26 18  1  0
 27 29  1  0
 28 27  2  0
M  END
$$$$
