HKQ.pdb
     RDKit          3D

 29 29  0  0  1  0  0  0  0  0999 V2000
   22.2189  -16.4850  -19.7411 N   0  0  0  0  0  0  0  0  0  0  0  0
   22.6168  -16.3037  -18.3597 C   0  0  1  0  0  0  0  0  0  0  0  0
   21.5932  -15.4042  -17.7131 C   0  0  0  0  0  0  0  0  0  0  0  0
   21.7879  -14.0277  -18.2553 C   0  0  0  0  0  0  0  0  0  0  0  0
   21.0557  -13.3777  -19.2160 C   0  0  0  0  0  0  0  0  0  0  0  0
   21.5808  -12.1574  -19.3954 N   0  0  0  0  0  0  0  0  0  0  0  0
   22.6370  -12.0218  -18.5623 C   0  0  0  0  0  0  0  0  0  0  0  0
   22.7528  -13.1617  -17.8763 N   0  0  0  0  0  0  0  0  0  0  0  0
   22.6731  -17.6121  -17.6402 C   0  0  0  0  0  0  0  0  0  0  0  0
   21.6958  -18.3675  -17.6759 O   0  0  0  0  0  0  0  0  0  0  0  0
   23.8087  -17.9993  -16.9275 N   0  0  0  0  0  0  0  0  0  0  0  0
   24.0580  -19.1223  -16.1264 C   0  0  1  0  0  0  0  0  0  0  0  0
   25.4027  -19.2936  -15.4822 C   0  0  0  0  0  0  0  0  0  0  0  0
   25.5861  -20.6584  -14.8575 C   0  0  0  0  0  0  0  0  0  0  0  0
   25.7523  -21.7752  -15.8272 C   0  0  0  0  0  0  0  0  0  0  0  0
   25.9967  -23.1243  -15.2778 C   0  0  0  0  0  0  0  0  0  0  0  0
   26.1984  -24.0827  -16.3139 N   0  0  0  0  0  0  0  0  0  0  0  0
   22.9976  -19.3881  -15.1663 C   0  0  0  0  0  0  0  0  0  0  0  0
   22.8641  -18.5505  -14.2033 O   0  0  0  0  0  0  0  0  0  0  0  0
   17.1405  -19.3414  -15.5158 N   0  0  0  0  0  0  0  0  0  0  0  0
   17.2400  -20.0231  -14.2469 C   0  0  0  0  0  0  0  0  0  0  0  0
   16.1867  -20.2089  -13.6039 O   0  0  0  0  0  0  0  0  0  0  0  0
   18.5473  -20.4554  -13.7733 C   0  0  0  0  0  0  0  0  0  0  0  0
   19.7475  -20.1920  -14.6148 C   0  0  0  0  0  0  0  0  0  0  0  0
   21.0664  -20.6514  -14.1059 C   0  0  2  0  0  0  0  0  0  0  0  0
   22.0924  -20.4550  -15.1601 N   0  0  0  0  0  0  0  0  0  0  0  0
   21.1249  -22.0856  -13.7794 C   0  0  0  0  0  0  0  0  0  0  0  0
   21.6039  -22.9751  -14.5503 O   0  0  0  0  0  0  0  0  0  0  0  0
   20.6401  -22.5658  -12.5409 O   0  0  0  0  0  0  0  0  0  0  0  0
  2  1  1  6
  3  4  1  0
  3  2  1  0
  4  5  2  0
  5  6  1  0
  7  6  1  0
  8  4  1  0
  8  7  2  0
  9  2  1  0
  9 10  2  0
 11  9  1  0
 12 11  1  0
 13 14  1  0
 12 13  1  1
 14 15  1  0
 15 16  1  0
 16 17  1  0
 18 19  2  0
 18 12  1  0
 20 21  1  0
 21 22  2  0
 23 21  1  0
 23 24  1  0
 25 24  1  6
 25 27  1  0
 25 26  1  0
 26 18  1  0
 27 29  1  0
 28 27  2  0
M  END
$$$$
