HKQ.pdb
     RDKit          3D

 29 29  0  0  1  0  0  0  0  0999 V2000
   16.0296  -13.5311  -16.3862 N   0  0  0  0  0  0  0  0  0  0  0  0
   16.9034  -12.6407  -15.6492 C   0  0  1  0  0  0  0  0  0  0  0  0
   18.2768  -12.7518  -16.2629 C   0  0  0  0  0  0  0  0  0  0  0  0
   18.7406  -14.1597  -16.0915 C   0  0  0  0  0  0  0  0  0  0  0  0
   18.9797  -15.1029  -17.0583 C   0  0  0  0  0  0  0  0  0  0  0  0
   19.3823  -16.2319  -16.4583 N   0  0  0  0  0  0  0  0  0  0  0  0
   19.4027  -16.0204  -15.1230 C   0  0  0  0  0  0  0  0  0  0  0  0
   19.0118  -14.7609  -14.9127 N   0  0  0  0  0  0  0  0  0  0  0  0
   16.4222  -11.2282  -15.7281 C   0  0  0  0  0  0  0  0  0  0  0  0
   16.3086  -10.6860  -16.8326 O   0  0  0  0  0  0  0  0  0  0  0  0
   16.0980  -10.5076  -14.5779 N   0  0  0  0  0  0  0  0  0  0  0  0
   15.5355   -9.2341  -14.4139 C   0  0  1  0  0  0  0  0  0  0  0  0
   14.3069   -9.0662  -13.5681 C   0  0  0  0  0  0  0  0  0  0  0  0
   13.1146   -9.8251  -14.1057 C   0  0  0  0  0  0  0  0  0  0  0  0
   11.9001   -9.7757  -13.2468 C   0  0  0  0  0  0  0  0  0  0  0  0
   10.7565  -10.6267  -13.6338 C   0  0  0  0  0  0  0  0  0  0  0  0
    9.6785  -10.5073  -12.7083 N   0  0  0  0  0  0  0  0  0  0  0  0
   16.5180   -8.2109  -14.0907 C   0  0  0  0  0  0  0  0  0  0  0  0
   17.1899   -8.3733  -13.0095 O   0  0  0  0  0  0  0  0  0  0  0  0
   21.6169   -7.5962  -14.6099 N   0  0  0  0  0  0  0  0  0  0  0  0
   21.5614   -6.1571  -14.7129 C   0  0  0  0  0  0  0  0  0  0  0  0
   22.6067   -5.5177  -14.4765 O   0  0  0  0  0  0  0  0  0  0  0  0
   20.3046   -5.5190  -15.0783 C   0  0  0  0  0  0  0  0  0  0  0  0
   19.0985   -6.3646  -15.2981 C   0  0  0  0  0  0  0  0  0  0  0  0
   17.9107   -6.1160  -14.4397 C   0  0  2  0  0  0  0  0  0  0  0  0
   16.8278   -7.0573  -14.8192 N   0  0  0  0  0  0  0  0  0  0  0  0
   17.3217   -4.7756  -14.5919 C   0  0  0  0  0  0  0  0  0  0  0  0
   16.3214   -4.5142  -15.3309 O   0  0  0  0  0  0  0  0  0  0  0  0
   17.8530   -3.6682  -13.8912 O   0  0  0  0  0  0  0  0  0  0  0  0
  2  1  1  6
  3  4  1  0
  3  2  1  0
  4  5  2  0
  5  6  1  0
  7  6  1  0
  8  4  1  0
  8  7  2  0
  9  2  1  0
  9 10  2  0
 11  9  1  0
 12 11  1  0
 13 14  1  0
 12 13  1  1
 14 15  1  0
 15 16  1  0
 16 17  1  0
 18 19  2  0
 18 12  1  0
 20 21  1  0
 21 22  2  0
 23 21  1  0
 23 24  1  0
 25 24  1  6
 25 27  1  0
 25 26  1  0
 26 18  1  0
 27 29  1  0
 28 27  2  0
M  END
$$$$
