DQV.pdb
     RDKit          3D

 25 24  0  0  1  0  0  0  0  0999 V2000
    6.8273  -16.0252   19.1758 N   0  0  0  0  0  0  0  0  0  0  0  0
    7.7818  -15.2128   19.9015 C   0  0  1  0  0  0  0  0  0  0  0  0
    7.5391  -13.7413   19.6033 C   0  0  0  0  0  0  0  0  0  0  0  0
    7.9839  -13.4934   18.2081 C   0  0  0  0  0  0  0  0  0  0  0  0
    8.5070  -14.4321   17.5454 O   0  0  0  0  0  0  0  0  0  0  0  0
    7.7395  -15.4851   21.3614 C   0  0  0  0  0  0  0  0  0  0  0  0
    6.5832  -15.5250   21.8826 O   0  0  0  0  0  0  0  0  0  0  0  0
    7.8564  -12.2662   17.5756 O   0  0  0  0  0  0  0  0  0  0  0  0
   11.0510  -19.5081   24.5799 N   0  0  0  0  0  0  0  0  0  0  0  0
   10.3754  -18.8304   25.6161 C   0  0  0  0  0  0  0  0  0  0  0  0
   10.4608  -19.2543   26.7836 O   0  0  0  0  0  0  0  0  0  0  0  0
    9.5709  -17.6285   25.3334 C   0  0  0  0  0  0  0  0  0  0  0  0
    9.6357  -17.2874   23.8652 C   0  0  0  0  0  0  0  0  0  0  0  0
    8.7750  -16.1141   23.4968 C   0  0  2  0  0  0  0  0  0  0  0  0
    8.8949  -15.6911   22.1491 N   0  0  0  0  0  0  0  0  0  0  0  0
    9.1181  -14.9906   24.4065 C   0  0  0  0  0  0  0  0  0  0  0  0
   10.2572  -14.4604   24.3532 O   0  0  0  0  0  0  0  0  0  0  0  0
    6.1113  -13.2509   26.8160 C   0  0  0  0  0  0  0  0  0  0  0  0
    7.3728  -12.4857   26.4354 C   0  0  2  0  0  0  0  0  0  0  0  0
    7.1057  -11.8662   25.0704 C   0  0  0  0  0  0  0  0  0  0  0  0
    8.4968  -13.4760   26.3116 C   0  0  2  0  0  0  0  0  0  0  0  0
    8.1763  -14.5020   25.3409 N   0  0  0  0  0  0  0  0  0  0  0  0
    8.7224  -14.0955   27.6305 C   0  0  0  0  0  0  0  0  0  0  0  0
    8.4336  -15.3053   27.8103 O   0  0  0  0  0  0  0  0  0  0  0  0
    9.2489  -13.3782   28.6905 O   0  0  0  0  0  0  0  0  0  0  0  0
  2  3  1  0
  2  1  1  6
  3  4  1  0
  4  5  2  0
  6  2  1  0
  7  6  2  0
  8  4  1  0
  9 10  1  0
 10 12  1  0
 11 10  2  0
 13 12  1  0
 14 13  1  6
 14 15  1  0
 15  6  1  0
 16 14  1  0
 16 17  2  0
 19 18  1  6
 20 19  1  0
 21 22  1  6
 21 19  1  0
 22 16  1  0
 23 21  1  0
 24 23  2  0
 25 23  1  0
M  END
$$$$
