DQV.pdb
     RDKit          3D

 25 24  0  0  1  0  0  0  0  0999 V2000
    9.5862  -15.7960   18.9271 N   0  0  0  0  0  0  0  0  0  0  0  0
   10.2952  -15.6179   20.1775 C   0  0  1  0  0  0  0  0  0  0  0  0
   11.1363  -14.3523   20.1180 C   0  0  0  0  0  0  0  0  0  0  0  0
   12.3723  -14.6774   19.3613 C   0  0  0  0  0  0  0  0  0  0  0  0
   12.5839  -15.8674   18.9965 O   0  0  0  0  0  0  0  0  0  0  0  0
    9.3685  -15.5999   21.3385 C   0  0  0  0  0  0  0  0  0  0  0  0
    8.3327  -14.8787   21.2074 O   0  0  0  0  0  0  0  0  0  0  0  0
   13.3287  -13.7321   19.0238 O   0  0  0  0  0  0  0  0  0  0  0  0
    8.1145  -19.9316   25.6850 N   0  0  0  0  0  0  0  0  0  0  0  0
    7.1861  -18.9008   25.9396 C   0  0  0  0  0  0  0  0  0  0  0  0
    6.2528  -19.0998   26.7393 O   0  0  0  0  0  0  0  0  0  0  0  0
    7.3076  -17.5931   25.2712 C   0  0  0  0  0  0  0  0  0  0  0  0
    8.3757  -17.6452   24.2070 C   0  0  0  0  0  0  0  0  0  0  0  0
    8.6370  -16.3104   23.5720 C   0  0  2  0  0  0  0  0  0  0  0  0
    9.5963  -16.3283   22.5283 N   0  0  0  0  0  0  0  0  0  0  0  0
    9.0753  -15.3736   24.6387 C   0  0  0  0  0  0  0  0  0  0  0  0
   10.2831  -15.3331   24.9863 O   0  0  0  0  0  0  0  0  0  0  0  0
    6.1579  -13.0614   26.6472 C   0  0  0  0  0  0  0  0  0  0  0  0
    7.5483  -12.4719   26.4443 C   0  0  2  0  0  0  0  0  0  0  0  0
    7.5115  -11.7282   25.1162 C   0  0  0  0  0  0  0  0  0  0  0  0
    8.5244  -13.6102   26.3405 C   0  0  2  0  0  0  0  0  0  0  0  0
    8.1482  -14.5176   25.2763 N   0  0  0  0  0  0  0  0  0  0  0  0
    8.5389  -14.3333   27.6256 C   0  0  0  0  0  0  0  0  0  0  0  0
    8.1121  -15.5138   27.6832 O   0  0  0  0  0  0  0  0  0  0  0  0
    9.0137  -13.7459   28.7852 O   0  0  0  0  0  0  0  0  0  0  0  0
  2  3  1  0
  2  1  1  6
  3  4  1  0
  4  5  2  0
  6  2  1  0
  7  6  2  0
  8  4  1  0
  9 10  1  0
 10 12  1  0
 11 10  2  0
 13 12  1  0
 14 13  1  1
 14 15  1  0
 15  6  1  0
 16 14  1  0
 16 17  2  0
 19 18  1  6
 20 19  1  0
 21 22  1  6
 21 19  1  0
 22 16  1  0
 23 21  1  0
 24 23  2  0
 25 23  1  0
M  END
$$$$
