DQV.pdb
     RDKit          3D

 25 24  0  0  1  0  0  0  0  0999 V2000
    6.3171  -15.8768   19.4123 N   0  0  0  0  0  0  0  0  0  0  0  0
    7.3963  -15.3606   20.2288 C   0  0  1  0  0  0  0  0  0  0  0  0
    7.6842  -13.9161   19.8503 C   0  0  0  0  0  0  0  0  0  0  0  0
    8.3252  -13.9289   18.5106 C   0  0  0  0  0  0  0  0  0  0  0  0
    8.8439  -14.9960   18.0790 O   0  0  0  0  0  0  0  0  0  0  0  0
    7.1020  -15.4937   21.6789 C   0  0  0  0  0  0  0  0  0  0  0  0
    6.0494  -14.9125   22.0846 O   0  0  0  0  0  0  0  0  0  0  0  0
    8.3896  -12.8153   17.6872 O   0  0  0  0  0  0  0  0  0  0  0  0
    7.8015  -20.2260   25.5691 N   0  0  0  0  0  0  0  0  0  0  0  0
    7.4957  -19.1756   26.4594 C   0  0  0  0  0  0  0  0  0  0  0  0
    7.2166  -19.4376   27.6441 O   0  0  0  0  0  0  0  0  0  0  0  0
    7.5028  -17.7740   26.0044 C   0  0  0  0  0  0  0  0  0  0  0  0
    7.8193  -17.7024   24.5310 C   0  0  0  0  0  0  0  0  0  0  0  0
    7.5435  -16.3520   23.9365 C   0  0  2  0  0  0  0  0  0  0  0  0
    7.9215  -16.2146   22.5771 N   0  0  0  0  0  0  0  0  0  0  0  0
    8.2516  -15.3365   24.7580 C   0  0  0  0  0  0  0  0  0  0  0  0
    9.4979  -15.2015   24.6588 O   0  0  0  0  0  0  0  0  0  0  0  0
    6.0679  -12.8638   27.5205 C   0  0  0  0  0  0  0  0  0  0  0  0
    7.2897  -12.3592   26.7625 C   0  0  2  0  0  0  0  0  0  0  0  0
    6.7803  -11.8244   25.4311 C   0  0  0  0  0  0  0  0  0  0  0  0
    8.1932  -13.5325   26.5049 C   0  0  2  0  0  0  0  0  0  0  0  0
    7.5410  -14.5105   25.6589 N   0  0  0  0  0  0  0  0  0  0  0  0
    8.5398  -14.1496   27.7985 C   0  0  0  0  0  0  0  0  0  0  0  0
    8.0987  -15.2910   28.0845 O   0  0  0  0  0  0  0  0  0  0  0  0
    9.3458  -13.5038   28.7196 O   0  0  0  0  0  0  0  0  0  0  0  0
  2  3  1  0
  2  1  1  6
  3  4  1  0
  4  5  2  0
  6  2  1  0
  7  6  2  0
  8  4  1  0
  9 10  1  0
 10 12  1  0
 11 10  2  0
 13 12  1  0
 14 13  1  1
 14 15  1  0
 15  6  1  0
 16 14  1  0
 16 17  2  0
 19 18  1  1
 20 19  1  0
 21 22  1  6
 21 19  1  0
 22 16  1  0
 23 21  1  0
 24 23  2  0
 25 23  1  0
M  END
$$$$
