DQV.pdb
     RDKit          3D

 25 24  0  0  1  0  0  0  0  0999 V2000
    9.8196  -13.0666   19.1369 N   0  0  0  0  0  0  0  0  0  0  0  0
    8.4322  -12.9816   19.5439 C   0  0  1  0  0  0  0  0  0  0  0  0
    7.5285  -13.3375   18.3737 C   0  0  0  0  0  0  0  0  0  0  0  0
    8.1053  -14.5391   17.7185 C   0  0  0  0  0  0  0  0  0  0  0  0
    8.2136  -15.6134   18.3730 O   0  0  0  0  0  0  0  0  0  0  0  0
    8.1517  -13.8366   20.7261 C   0  0  0  0  0  0  0  0  0  0  0  0
    6.9906  -13.7247   21.2257 O   0  0  0  0  0  0  0  0  0  0  0  0
    8.5418  -14.5526   16.4026 O   0  0  0  0  0  0  0  0  0  0  0  0
   10.9256  -19.1277   22.8089 N   0  0  0  0  0  0  0  0  0  0  0  0
   10.0983  -18.7524   23.8878 C   0  0  0  0  0  0  0  0  0  0  0  0
   10.0439  -19.4760   24.8995 O   0  0  0  0  0  0  0  0  0  0  0  0
    9.2989  -17.5157   23.8317 C   0  0  0  0  0  0  0  0  0  0  0  0
    9.4955  -16.8237   22.5055 C   0  0  0  0  0  0  0  0  0  0  0  0
    8.7515  -15.5239   22.4058 C   0  0  2  0  0  0  0  0  0  0  0  0
    9.0957  -14.7286   21.2839 N   0  0  0  0  0  0  0  0  0  0  0  0
    8.9962  -14.7589   23.6558 C   0  0  0  0  0  0  0  0  0  0  0  0
   10.0975  -14.1791   23.8357 O   0  0  0  0  0  0  0  0  0  0  0  0
    6.6820  -12.0699   25.1262 C   0  0  0  0  0  0  0  0  0  0  0  0
    6.8996  -13.1392   26.1897 C   0  0  2  0  0  0  0  0  0  0  0  0
    7.0871  -12.4028   27.5091 C   0  0  0  0  0  0  0  0  0  0  0  0
    8.1671  -13.8748   25.8558 C   0  0  2  0  0  0  0  0  0  0  0  0
    8.0019  -14.6703   24.6569 N   0  0  0  0  0  0  0  0  0  0  0  0
    8.5113  -14.7532   26.9892 C   0  0  0  0  0  0  0  0  0  0  0  0
    8.2735  -15.9852   26.9196 O   0  0  0  0  0  0  0  0  0  0  0  0
    9.0952  -14.2579   28.1420 O   0  0  0  0  0  0  0  0  0  0  0  0
  2  3  1  0
  2  1  1  6
  3  4  1  0
  4  5  2  0
  6  2  1  0
  7  6  2  0
  8  4  1  0
  9 10  1  0
 10 12  1  0
 11 10  2  0
 13 12  1  0
 14 13  1  1
 14 15  1  0
 15  6  1  0
 16 14  1  0
 16 17  2  0
 19 18  1  6
 20 19  1  0
 21 22  1  6
 21 19  1  0
 22 16  1  0
 23 21  1  0
 24 23  2  0
 25 23  1  0
M  END
$$$$
