DQV.pdb
     RDKit          3D

 25 24  0  0  1  0  0  0  0  0999 V2000
    7.1719  -16.3025   19.1535 N   0  0  0  0  0  0  0  0  0  0  0  0
    8.0168  -15.3827   19.8869 C   0  0  1  0  0  0  0  0  0  0  0  0
    7.6894  -13.9519   19.4887 C   0  0  0  0  0  0  0  0  0  0  0  0
    8.1589  -13.7627   18.0924 C   0  0  0  0  0  0  0  0  0  0  0  0
    8.7412  -14.7120   17.4975 O   0  0  0  0  0  0  0  0  0  0  0  0
    7.8994  -15.5781   21.3549 C   0  0  0  0  0  0  0  0  0  0  0  0
    6.7180  -15.6871   21.8050 O   0  0  0  0  0  0  0  0  0  0  0  0
    7.9926  -12.5806   17.3873 O   0  0  0  0  0  0  0  0  0  0  0  0
   11.3779  -19.3274   24.4431 N   0  0  0  0  0  0  0  0  0  0  0  0
   10.1945  -19.6057   23.7279 C   0  0  0  0  0  0  0  0  0  0  0  0
    9.9719  -20.7674   23.3390 O   0  0  0  0  0  0  0  0  0  0  0  0
    9.2202  -18.5394   23.4359 C   0  0  0  0  0  0  0  0  0  0  0  0
    9.7103  -17.2188   23.9763 C   0  0  0  0  0  0  0  0  0  0  0  0
    8.8468  -16.0609   23.5680 C   0  0  2  0  0  0  0  0  0  0  0  0
    9.0127  -15.6430   22.2235 N   0  0  0  0  0  0  0  0  0  0  0  0
    9.1371  -14.9275   24.4839 C   0  0  0  0  0  0  0  0  0  0  0  0
   10.2716  -14.3850   24.4771 O   0  0  0  0  0  0  0  0  0  0  0  0
    6.0167  -13.3321   26.8168 C   0  0  0  0  0  0  0  0  0  0  0  0
    7.2500  -12.4919   26.5089 C   0  0  2  0  0  0  0  0  0  0  0  0
    6.9867  -11.8140   25.1712 C   0  0  0  0  0  0  0  0  0  0  0  0
    8.4212  -13.4227   26.3633 C   0  0  2  0  0  0  0  0  0  0  0  0
    8.1496  -14.4432   25.3721 N   0  0  0  0  0  0  0  0  0  0  0  0
    8.6803  -14.0572   27.6690 C   0  0  0  0  0  0  0  0  0  0  0  0
    8.4588  -15.2847   27.8222 O   0  0  0  0  0  0  0  0  0  0  0  0
    9.1658  -13.3349   28.7450 O   0  0  0  0  0  0  0  0  0  0  0  0
  2  3  1  0
  2  1  1  6
  3  4  1  0
  4  5  2  0
  6  2  1  0
  7  6  2  0
  8  4  1  0
  9 10  1  0
 10 12  1  0
 11 10  2  0
 13 12  1  0
 14 13  1  1
 14 15  1  0
 15  6  1  0
 16 14  1  0
 16 17  2  0
 19 18  1  6
 20 19  1  0
 21 22  1  6
 21 19  1  0
 22 16  1  0
 23 21  1  0
 24 23  2  0
 25 23  1  0
M  END
$$$$
