DQV.pdb
     RDKit          3D

 25 24  0  0  1  0  0  0  0  0999 V2000
    9.3833  -12.7552   19.1680 N   0  0  0  0  0  0  0  0  0  0  0  0
    8.0128  -13.1677   19.3901 C   0  0  1  0  0  0  0  0  0  0  0  0
    7.4746  -13.8604   18.1478 C   0  0  0  0  0  0  0  0  0  0  0  0
    8.4712  -14.8857   17.7460 C   0  0  0  0  0  0  0  0  0  0  0  0
    9.1850  -15.4391   18.6281 O   0  0  0  0  0  0  0  0  0  0  0  0
    7.8856  -14.0320   20.5918 C   0  0  0  0  0  0  0  0  0  0  0  0
    6.7063  -14.3931   20.8903 O   0  0  0  0  0  0  0  0  0  0  0  0
    8.6694  -15.2803   16.4318 O   0  0  0  0  0  0  0  0  0  0  0  0
   10.7037  -19.3473   20.7383 N   0  0  0  0  0  0  0  0  0  0  0  0
   10.1858  -18.6951   21.8767 C   0  0  0  0  0  0  0  0  0  0  0  0
   10.5164  -19.0869   23.0113 O   0  0  0  0  0  0  0  0  0  0  0  0
    9.2595  -17.5573   21.7390 C   0  0  0  0  0  0  0  0  0  0  0  0
    9.6748  -16.4295   22.6511 C   0  0  0  0  0  0  0  0  0  0  0  0
    8.7842  -15.2264   22.5396 C   0  0  2  0  0  0  0  0  0  0  0  0
    8.9878  -14.4443   21.3749 N   0  0  0  0  0  0  0  0  0  0  0  0
    8.9934  -14.3880   23.7484 C   0  0  0  0  0  0  0  0  0  0  0  0
   10.0411  -13.7028   23.8678 O   0  0  0  0  0  0  0  0  0  0  0  0
    7.3460  -11.7637   27.4079 C   0  0  0  0  0  0  0  0  0  0  0  0
    7.0820  -12.5695   26.1418 C   0  0  2  0  0  0  0  0  0  0  0  0
    5.7777  -13.3202   26.3729 C   0  0  0  0  0  0  0  0  0  0  0  0
    8.1976  -13.5645   25.9839 C   0  0  2  0  0  0  0  0  0  0  0  0
    8.0248  -14.3467   24.7773 N   0  0  0  0  0  0  0  0  0  0  0  0
    8.1980  -14.4577   27.1571 C   0  0  0  0  0  0  0  0  0  0  0  0
    7.7694  -15.6340   27.0472 O   0  0  0  0  0  0  0  0  0  0  0  0
    8.6611  -14.0369   28.3915 O   0  0  0  0  0  0  0  0  0  0  0  0
  2  3  1  0
  2  1  1  6
  3  4  1  0
  4  5  2  0
  6  2  1  0
  7  6  2  0
  8  4  1  0
  9 10  1  0
 10 12  1  0
 11 10  2  0
 13 12  1  0
 14 13  1  1
 14 15  1  0
 15  6  1  0
 16 14  1  0
 16 17  2  0
 19 18  1  1
 20 19  1  0
 21 22  1  6
 21 19  1  0
 22 16  1  0
 23 21  1  0
 24 23  2  0
 25 23  1  0
M  END
$$$$
