DQV.pdb
     RDKit          3D

 25 24  0  0  1  0  0  0  0  0999 V2000
    9.1605  -17.9117   20.5148 N   0  0  0  0  0  0  0  0  0  0  0  0
    8.3542  -16.7251   20.3157 C   0  0  1  0  0  0  0  0  0  0  0  0
    7.3604  -16.9597   19.1887 C   0  0  0  0  0  0  0  0  0  0  0  0
    8.1444  -17.2073   17.9517 C   0  0  0  0  0  0  0  0  0  0  0  0
    9.3164  -17.6684   18.0395 O   0  0  0  0  0  0  0  0  0  0  0  0
    7.6687  -16.3088   21.5662 C   0  0  0  0  0  0  0  0  0  0  0  0
    6.8299  -15.3640   21.4481 O   0  0  0  0  0  0  0  0  0  0  0  0
    7.6560  -16.9570   16.6785 O   0  0  0  0  0  0  0  0  0  0  0  0
    6.2009  -20.4392   22.7154 N   0  0  0  0  0  0  0  0  0  0  0  0
    6.5185  -19.7927   23.9281 C   0  0  0  0  0  0  0  0  0  0  0  0
    7.3912  -20.2783   24.6715 O   0  0  0  0  0  0  0  0  0  0  0  0
    5.8307  -18.5512   24.3247 C   0  0  0  0  0  0  0  0  0  0  0  0
    6.8140  -17.5737   24.9193 C   0  0  0  0  0  0  0  0  0  0  0  0
    7.1971  -16.4759   23.9700 C   0  0  2  0  0  0  0  0  0  0  0  0
    7.9121  -16.9062   22.8239 N   0  0  0  0  0  0  0  0  0  0  0  0
    8.0069  -15.4823   24.7214 C   0  0  0  0  0  0  0  0  0  0  0  0
    9.2621  -15.5592   24.7187 O   0  0  0  0  0  0  0  0  0  0  0  0
    6.0460  -12.6097   27.1349 C   0  0  0  0  0  0  0  0  0  0  0  0
    7.2874  -12.1891   26.3577 C   0  0  2  0  0  0  0  0  0  0  0  0
    6.7988  -11.6759   25.0101 C   0  0  0  0  0  0  0  0  0  0  0  0
    8.1335  -13.4118   26.1378 C   0  0  2  0  0  0  0  0  0  0  0  0
    7.3843  -14.4408   25.4468 N   0  0  0  0  0  0  0  0  0  0  0  0
    8.5751  -13.9181   27.4505 C   0  0  0  0  0  0  0  0  0  0  0  0
    8.1539  -15.0265   27.8667 O   0  0  0  0  0  0  0  0  0  0  0  0
    9.4499  -13.2025   28.2491 O   0  0  0  0  0  0  0  0  0  0  0  0
  2  3  1  0
  2  1  1  1
  3  4  1  0
  4  5  2  0
  6  2  1  0
  7  6  2  0
  8  4  1  0
  9 10  1  0
 10 12  1  0
 11 10  2  0
 13 12  1  0
 14 13  1  1
 14 15  1  0
 15  6  1  0
 16 14  1  0
 16 17  2  0
 19 18  1  1
 20 19  1  0
 21 22  1  1
 21 19  1  0
 22 16  1  0
 23 21  1  0
 24 23  2  0
 25 23  1  0
M  END
$$$$
