DQV.pdb
     RDKit          3D

 25 24  0  0  1  0  0  0  0  0999 V2000
    9.6650  -16.6068   19.8832 N   0  0  0  0  0  0  0  0  0  0  0  0
    8.2398  -16.3545   19.9371 C   0  0  1  0  0  0  0  0  0  0  0  0
    7.4993  -17.4007   19.1186 C   0  0  0  0  0  0  0  0  0  0  0  0
    8.0851  -17.3909   17.7538 C   0  0  0  0  0  0  0  0  0  0  0  0
    7.4144  -16.9230   16.7919 O   0  0  0  0  0  0  0  0  0  0  0  0
    7.7414  -16.3067   21.3358 C   0  0  0  0  0  0  0  0  0  0  0  0
    6.5094  -16.0361   21.4743 O   0  0  0  0  0  0  0  0  0  0  0  0
    9.3520  -17.8752   17.4660 O   0  0  0  0  0  0  0  0  0  0  0  0
   10.3657  -19.4059   26.6195 N   0  0  0  0  0  0  0  0  0  0  0  0
    9.7679  -19.4594   25.3431 C   0  0  0  0  0  0  0  0  0  0  0  0
    9.3499  -20.5480   24.9069 O   0  0  0  0  0  0  0  0  0  0  0  0
    9.6327  -18.2438   24.5210 C   0  0  0  0  0  0  0  0  0  0  0  0
    8.2229  -17.7123   24.5986 C   0  0  0  0  0  0  0  0  0  0  0  0
    8.0145  -16.4783   23.7698 C   0  0  2  0  0  0  0  0  0  0  0  0
    8.5608  -16.5428   22.4632 N   0  0  0  0  0  0  0  0  0  0  0  0
    8.6051  -15.3289   24.5030 C   0  0  0  0  0  0  0  0  0  0  0  0
    9.8412  -15.1070   24.4390 O   0  0  0  0  0  0  0  0  0  0  0  0
    6.0566  -12.7081   26.6570 C   0  0  0  0  0  0  0  0  0  0  0  0
    7.3984  -12.2247   26.1208 C   0  0  2  0  0  0  0  0  0  0  0  0
    7.1478  -11.7517   24.6954 C   0  0  0  0  0  0  0  0  0  0  0  0
    8.3357  -13.3994   26.0885 C   0  0  2  0  0  0  0  0  0  0  0  0
    7.7928  -14.4711   25.2796 N   0  0  0  0  0  0  0  0  0  0  0  0
    8.5380  -13.8751   27.4695 C   0  0  0  0  0  0  0  0  0  0  0  0
    8.0900  -14.9971   27.8159 O   0  0  0  0  0  0  0  0  0  0  0  0
    9.2140  -13.1160   28.4086 O   0  0  0  0  0  0  0  0  0  0  0  0
  2  3  1  0
  2  1  1  1
  3  4  1  0
  4  5  2  0
  6  2  1  0
  7  6  2  0
  8  4  1  0
  9 10  1  0
 10 12  1  0
 11 10  2  0
 13 12  1  0
 14 13  1  1
 14 15  1  0
 15  6  1  0
 16 14  1  0
 16 17  2  0
 19 18  1  6
 20 19  1  0
 21 22  1  6
 21 19  1  0
 22 16  1  0
 23 21  1  0
 24 23  2  0
 25 23  1  0
M  END
$$$$
