DQV.pdb
     RDKit          3D

 25 24  0  0  1  0  0  0  0  0999 V2000
    9.0566  -18.0501   20.4205 N   0  0  0  0  0  0  0  0  0  0  0  0
    8.0548  -17.0187   20.2465 C   0  0  1  0  0  0  0  0  0  0  0  0
    7.0435  -17.4534   19.1970 C   0  0  0  0  0  0  0  0  0  0  0  0
    7.7728  -17.5924   17.9106 C   0  0  0  0  0  0  0  0  0  0  0  0
    9.0350  -17.5629   17.9043 O   0  0  0  0  0  0  0  0  0  0  0  0
    7.3909  -16.6735   21.5300 C   0  0  0  0  0  0  0  0  0  0  0  0
    6.4819  -15.7908   21.4618 O   0  0  0  0  0  0  0  0  0  0  0  0
    7.1371  -17.7562   16.6894 O   0  0  0  0  0  0  0  0  0  0  0  0
    6.5455  -20.1755   26.5942 N   0  0  0  0  0  0  0  0  0  0  0  0
    7.8625  -19.7343   26.3488 C   0  0  0  0  0  0  0  0  0  0  0  0
    8.8121  -20.2783   26.9425 O   0  0  0  0  0  0  0  0  0  0  0  0
    8.1273  -18.6388   25.3993 C   0  0  0  0  0  0  0  0  0  0  0  0
    6.8306  -18.0306   24.9253 C   0  0  0  0  0  0  0  0  0  0  0  0
    7.0311  -16.9098   23.9472 C   0  0  2  0  0  0  0  0  0  0  0  0
    7.7266  -17.2715   22.7660 N   0  0  0  0  0  0  0  0  0  0  0  0
    7.7608  -15.8190   24.6437 C   0  0  0  0  0  0  0  0  0  0  0  0
    9.0089  -15.7192   24.5266 O   0  0  0  0  0  0  0  0  0  0  0  0
    6.0808  -12.1492   25.5088 C   0  0  0  0  0  0  0  0  0  0  0  0
    6.7529  -12.8232   26.6987 C   0  0  2  0  0  0  0  0  0  0  0  0
    7.5051  -11.7299   27.4450 C   0  0  0  0  0  0  0  0  0  0  0  0
    7.7422  -13.8228   26.1682 C   0  0  2  0  0  0  0  0  0  0  0  0
    7.0690  -14.8812   25.4441 N   0  0  0  0  0  0  0  0  0  0  0  0
    8.4847  -14.3960   27.3059 C   0  0  0  0  0  0  0  0  0  0  0  0
    8.1778  -15.5336   27.7430 O   0  0  0  0  0  0  0  0  0  0  0  0
    9.5221  -13.7126   27.9158 O   0  0  0  0  0  0  0  0  0  0  0  0
  2  3  1  0
  2  1  1  1
  3  4  1  0
  4  5  2  0
  6  2  1  0
  7  6  2  0
  8  4  1  0
  9 10  1  0
 10 12  1  0
 11 10  2  0
 13 12  1  0
 14 13  1  1
 14 15  1  0
 15  6  1  0
 16 14  1  0
 16 17  2  0
 19 18  1  6
 20 19  1  0
 21 22  1  1
 21 19  1  0
 22 16  1  0
 23 21  1  0
 24 23  2  0
 25 23  1  0
M  END
$$$$
