DQV.pdb
     RDKit          3D

 25 24  0  0  1  0  0  0  0  0999 V2000
    9.6298  -17.9698   20.1075 N   0  0  0  0  0  0  0  0  0  0  0  0
    8.6369  -16.9438   19.8643 C   0  0  1  0  0  0  0  0  0  0  0  0
    7.6785  -17.4010   18.7756 C   0  0  0  0  0  0  0  0  0  0  0  0
    8.4585  -17.5090   17.5162 C   0  0  0  0  0  0  0  0  0  0  0  0
    9.5125  -18.2036   17.4945 O   0  0  0  0  0  0  0  0  0  0  0  0
    7.9108  -16.5745   21.1068 C   0  0  0  0  0  0  0  0  0  0  0  0
    7.0004  -15.7003   20.9754 O   0  0  0  0  0  0  0  0  0  0  0  0
    8.0908  -16.8791   16.3371 O   0  0  0  0  0  0  0  0  0  0  0  0
    6.8135  -20.1852   25.9796 N   0  0  0  0  0  0  0  0  0  0  0  0
    6.1929  -20.2067   24.7132 C   0  0  0  0  0  0  0  0  0  0  0  0
    5.4970  -21.1865   24.3880 O   0  0  0  0  0  0  0  0  0  0  0  0
    6.3584  -19.0849   23.7721 C   0  0  0  0  0  0  0  0  0  0  0  0
    7.1204  -17.9592   24.4265 C   0  0  0  0  0  0  0  0  0  0  0  0
    7.3915  -16.8143   23.4944 C   0  0  2  0  0  0  0  0  0  0  0  0
    8.1914  -17.1416   22.3707 N   0  0  0  0  0  0  0  0  0  0  0  0
    8.0445  -15.7322   24.2757 C   0  0  0  0  0  0  0  0  0  0  0  0
    9.2946  -15.7182   24.4121 O   0  0  0  0  0  0  0  0  0  0  0  0
    7.5930  -11.4714   26.7409 C   0  0  0  0  0  0  0  0  0  0  0  0
    6.9180  -12.5126   25.8566 C   0  0  2  0  0  0  0  0  0  0  0  0
    5.6805  -12.9810   26.6100 C   0  0  0  0  0  0  0  0  0  0  0  0
    7.8627  -13.6712   25.6998 C   0  0  2  0  0  0  0  0  0  0  0  0
    7.2769  -14.7072   24.8746 N   0  0  0  0  0  0  0  0  0  0  0  0
    8.1634  -14.2145   27.0373 C   0  0  0  0  0  0  0  0  0  0  0  0
    7.5174  -15.2016   27.4705 O   0  0  0  0  0  0  0  0  0  0  0  0
    9.1468  -13.6653   27.8412 O   0  0  0  0  0  0  0  0  0  0  0  0
  2  3  1  0
  2  1  1  1
  3  4  1  0
  4  5  2  0
  6  2  1  0
  7  6  2  0
  8  4  1  0
  9 10  1  0
 10 12  1  0
 11 10  2  0
 13 12  1  0
 14 13  1  1
 14 15  1  0
 15  6  1  0
 16 14  1  0
 16 17  2  0
 19 18  1  1
 20 19  1  0
 21 22  1  6
 21 19  1  0
 22 16  1  0
 23 21  1  0
 24 23  2  0
 25 23  1  0
M  END
$$$$
