DQV.pdb
     RDKit          3D

 25 24  0  0  1  0  0  0  0  0999 V2000
    9.0461  -17.5651   20.4684 N   0  0  0  0  0  0  0  0  0  0  0  0
    7.9083  -16.6871   20.2888 C   0  0  1  0  0  0  0  0  0  0  0  0
    6.9352  -17.3004   19.2939 C   0  0  0  0  0  0  0  0  0  0  0  0
    7.7364  -17.8341   18.1628 C   0  0  0  0  0  0  0  0  0  0  0  0
    8.9747  -18.0282   18.3142 O   0  0  0  0  0  0  0  0  0  0  0  0
    7.2418  -16.3779   21.5801 C   0  0  0  0  0  0  0  0  0  0  0  0
    6.2193  -15.6299   21.5088 O   0  0  0  0  0  0  0  0  0  0  0  0
    7.1946  -18.1387   16.9235 O   0  0  0  0  0  0  0  0  0  0  0  0
    6.4005  -19.8195   26.5167 N   0  0  0  0  0  0  0  0  0  0  0  0
    7.7389  -19.4249   26.3106 C   0  0  0  0  0  0  0  0  0  0  0  0
    8.6580  -20.0688   26.8499 O   0  0  0  0  0  0  0  0  0  0  0  0
    8.0615  -18.2614   25.4658 C   0  0  0  0  0  0  0  0  0  0  0  0
    6.7963  -17.5836   25.0011 C   0  0  0  0  0  0  0  0  0  0  0  0
    7.0506  -16.4711   24.0261 C   0  0  2  0  0  0  0  0  0  0  0  0
    7.6922  -16.8696   22.8264 N   0  0  0  0  0  0  0  0  0  0  0  0
    7.8693  -15.4386   24.7125 C   0  0  0  0  0  0  0  0  0  0  0  0
    9.1171  -15.4166   24.5577 O   0  0  0  0  0  0  0  0  0  0  0  0
    5.9483  -12.6103   27.2323 C   0  0  0  0  0  0  0  0  0  0  0  0
    7.1670  -12.2017   26.4140 C   0  0  2  0  0  0  0  0  0  0  0  0
    6.6416  -11.7274   25.0659 C   0  0  0  0  0  0  0  0  0  0  0  0
    8.0169  -13.4237   26.2051 C   0  0  2  0  0  0  0  0  0  0  0  0
    7.2635  -14.4700   25.5452 N   0  0  0  0  0  0  0  0  0  0  0  0
    8.4805  -13.9021   27.5207 C   0  0  0  0  0  0  0  0  0  0  0  0
    8.0465  -14.9887   27.9790 O   0  0  0  0  0  0  0  0  0  0  0  0
    9.3901  -13.1835   28.2766 O   0  0  0  0  0  0  0  0  0  0  0  0
  2  3  1  0
  2  1  1  1
  3  4  1  0
  4  5  2  0
  6  2  1  0
  7  6  2  0
  8  4  1  0
  9 10  1  0
 10 12  1  0
 11 10  2  0
 13 12  1  0
 14 13  1  1
 14 15  1  0
 15  6  1  0
 16 14  1  0
 16 17  2  0
 19 18  1  1
 20 19  1  0
 21 22  1  1
 21 19  1  0
 22 16  1  0
 23 21  1  0
 24 23  2  0
 25 23  1  0
M  END
$$$$
