DQV.pdb
     RDKit          3D

 25 24  0  0  1  0  0  0  0  0999 V2000
    9.1718  -17.1175   19.9550 N   0  0  0  0  0  0  0  0  0  0  0  0
    8.1518  -16.1003   20.1052 C   0  0  1  0  0  0  0  0  0  0  0  0
    7.0326  -16.3400   19.1037 C   0  0  0  0  0  0  0  0  0  0  0  0
    7.6610  -16.8050   17.8408 C   0  0  0  0  0  0  0  0  0  0  0  0
    8.9149  -16.9412   17.7828 O   0  0  0  0  0  0  0  0  0  0  0  0
    7.6325  -16.0421   21.4959 C   0  0  0  0  0  0  0  0  0  0  0  0
    6.7059  -15.2007   21.7049 O   0  0  0  0  0  0  0  0  0  0  0  0
    6.9379  -17.1051   16.6966 O   0  0  0  0  0  0  0  0  0  0  0  0
    7.9285  -20.1845   26.2863 N   0  0  0  0  0  0  0  0  0  0  0  0
    7.1807  -19.1055   26.8021 C   0  0  0  0  0  0  0  0  0  0  0  0
    6.6610  -19.2031   27.9293 O   0  0  0  0  0  0  0  0  0  0  0  0
    7.0076  -17.8662   26.0238 C   0  0  0  0  0  0  0  0  0  0  0  0
    7.6392  -18.0100   24.6613 C   0  0  0  0  0  0  0  0  0  0  0  0
    7.5671  -16.7522   23.8454 C   0  0  2  0  0  0  0  0  0  0  0  0
    8.1177  -16.8580   22.5433 N   0  0  0  0  0  0  0  0  0  0  0  0
    8.2645  -15.6774   24.5978 C   0  0  0  0  0  0  0  0  0  0  0  0
    9.5209  -15.6245   24.6045 O   0  0  0  0  0  0  0  0  0  0  0  0
    6.1101  -13.1708   27.2683 C   0  0  0  0  0  0  0  0  0  0  0  0
    7.1630  -12.5418   26.3640 C   0  0  2  0  0  0  0  0  0  0  0  0
    6.4385  -12.1056   25.0979 C   0  0  0  0  0  0  0  0  0  0  0  0
    8.1667  -13.6038   26.0119 C   0  0  2  0  0  0  0  0  0  0  0  0
    7.5323  -14.7028   25.3140 N   0  0  0  0  0  0  0  0  0  0  0  0
    8.7822  -14.0978   27.2575 C   0  0  0  0  0  0  0  0  0  0  0  0
    8.5380  -15.2646   27.6553 O   0  0  0  0  0  0  0  0  0  0  0  0
    9.6313  -13.3075   28.0124 O   0  0  0  0  0  0  0  0  0  0  0  0
  2  3  1  0
  2  1  1  1
  3  4  1  0
  4  5  2  0
  6  2  1  0
  7  6  2  0
  8  4  1  0
  9 10  1  0
 10 12  1  0
 11 10  2  0
 13 12  1  0
 14 13  1  1
 14 15  1  0
 15  6  1  0
 16 14  1  0
 16 17  2  0
 19 18  1  1
 20 19  1  0
 21 22  1  1
 21 19  1  0
 22 16  1  0
 23 21  1  0
 24 23  2  0
 25 23  1  0
M  END
$$$$
