WWV.pdb
     RDKit          3D

 36 39  0  0  1  0  0  0  0  0999 V2000
    6.8304  -17.9449   21.2488 N   0  0  0  0  0  0  0  0  0  0  0  0
    8.1412  -18.0525   20.6075 C   0  0  1  0  0  0  0  0  0  0  0  0
    8.0097  -17.2521   19.3112 C   0  0  0  0  0  0  0  0  0  0  0  0
    7.4464  -15.9017   19.5902 C   0  0  0  0  0  0  0  0  0  0  0  0
    6.1100  -15.6154   19.8926 C   0  0  0  0  0  0  0  0  0  0  0  0
    5.9892  -14.2893   20.0786 N   0  0  0  0  0  0  0  0  0  0  0  0
    7.1963  -13.6927   19.9113 C   0  0  0  0  0  0  0  0  0  0  0  0
    7.6016  -12.3600   19.9960 C   0  0  0  0  0  0  0  0  0  0  0  0
    8.9194  -11.9992   19.7793 C   0  0  0  0  0  0  0  0  0  0  0  0
    9.8103  -13.0075   19.4770 C   0  0  0  0  0  0  0  0  0  0  0  0
    9.4118  -14.3184   19.3942 C   0  0  0  0  0  0  0  0  0  0  0  0
    8.0884  -14.6881   19.6107 C   0  0  0  0  0  0  0  0  0  0  0  0
    9.1419  -17.3447   21.4551 C   0  0  0  0  0  0  0  0  0  0  0  0
   10.3527  -17.2132   21.1183 O   0  0  0  0  0  0  0  0  0  0  0  0
    8.7292  -16.7896   22.6839 N   0  0  0  0  0  0  0  0  0  0  0  0
    9.6696  -16.2194   23.6483 C   0  0  1  0  0  0  0  0  0  0  0  0
    9.1412  -14.8637   23.9837 C   0  0  0  0  0  0  0  0  0  0  0  0
    7.9361  -14.8448   24.8250 C   0  0  0  0  0  0  0  0  0  0  0  0
    6.9453  -15.7821   25.0383 C   0  0  0  0  0  0  0  0  0  0  0  0
    6.0466  -15.2914   25.9093 N   0  0  0  0  0  0  0  0  0  0  0  0
    6.3917  -14.0457   26.3003 C   0  0  0  0  0  0  0  0  0  0  0  0
    5.8143  -13.1408   27.1631 C   0  0  0  0  0  0  0  0  0  0  0  0
    6.3952  -11.9210   27.3827 C   0  0  0  0  0  0  0  0  0  0  0  0
    7.5715  -11.6017   26.7285 C   0  0  0  0  0  0  0  0  0  0  0  0
    8.1350  -12.5153   25.8699 C   0  0  0  0  0  0  0  0  0  0  0  0
    7.5764  -13.7552   25.6249 C   0  0  0  0  0  0  0  0  0  0  0  0
    9.8679  -17.1203   24.8000 C   0  0  0  0  0  0  0  0  0  0  0  0
    8.9988  -17.8891   25.2521 O   0  0  0  0  0  0  0  0  0  0  0  0
   13.6733  -19.4692   26.9483 C   0  0  0  0  0  0  0  0  0  0  0  0
   13.0775  -18.3687   26.0972 C   0  0  1  0  0  0  0  0  0  0  0  0
   13.3694  -18.8082   24.6470 C   0  0  0  0  0  0  0  0  0  0  0  0
   11.6341  -18.1626   26.2998 C   0  0  2  0  0  0  0  0  0  0  0  0
   11.1290  -17.1223   25.4522 N   0  0  0  0  0  0  0  0  0  0  0  0
   11.2411  -17.9414   27.7280 C   0  0  0  0  0  0  0  0  0  0  0  0
   11.0456  -18.8965   28.5062 O   0  0  0  0  0  0  0  0  0  0  0  0
   11.0783  -16.6582   28.2360 O   0  0  0  0  0  0  0  0  0  0  0  0
  2  1  1  1
  2  3  1  0
  3  4  1  0
  4  5  2  0
  5  6  1  0
  7  8  2  0
  7  6  1  0
  9  8  1  0
 10  9  2  0
 11 10  1  0
 11 12  2  0
 12  4  1  0
 12  7  1  0
 13  2  1  0
 14 13  2  0
 15 13  1  0
 16 17  1  1
 16 15  1  0
 18 17  1  0
 19 18  2  0
 20 21  1  0
 20 19  1  0
 21 26  2  0
 22 21  1  0
 22 23  2  0
 23 24  1  0
 24 25  2  0
 26 18  1  0
 26 25  1  0
 27 16  1  0
 28 27  2  0
 30 29  1  1
 31 30  1  0
 32 30  1  0
 32 33  1  6
 33 27  1  0
 34 32  1  0
 34 36  1  0
 35 34  2  0
M  END
$$$$
