WWV.pdb
     RDKit          3D

 36 39  0  0  1  0  0  0  0  0999 V2000
   12.3536  -16.5314   20.3422 N   0  0  0  0  0  0  0  0  0  0  0  0
   11.0374  -15.9889   20.6806 C   0  0  1  0  0  0  0  0  0  0  0  0
   10.0403  -17.0100   20.1316 C   0  0  0  0  0  0  0  0  0  0  0  0
    8.8550  -16.3183   19.5524 C   0  0  0  0  0  0  0  0  0  0  0  0
    7.8719  -16.9069   18.7486 C   0  0  0  0  0  0  0  0  0  0  0  0
    6.9690  -15.9661   18.4208 N   0  0  0  0  0  0  0  0  0  0  0  0
    7.3207  -14.7809   18.9801 C   0  0  0  0  0  0  0  0  0  0  0  0
    6.7280  -13.5180   18.9475 C   0  0  0  0  0  0  0  0  0  0  0  0
    7.2927  -12.4466   19.6161 C   0  0  0  0  0  0  0  0  0  0  0  0
    8.4605  -12.6789   20.3118 C   0  0  0  0  0  0  0  0  0  0  0  0
    9.0433  -13.9213   20.3442 C   0  0  0  0  0  0  0  0  0  0  0  0
    8.4809  -15.0028   19.6742 C   0  0  0  0  0  0  0  0  0  0  0  0
   10.8911  -15.9934   22.1637 C   0  0  0  0  0  0  0  0  0  0  0  0
   11.8494  -15.7363   22.9462 O   0  0  0  0  0  0  0  0  0  0  0  0
    9.6331  -16.2899   22.7275 N   0  0  0  0  0  0  0  0  0  0  0  0
    9.1813  -15.7172   23.9953 C   0  0  1  0  0  0  0  0  0  0  0  0
    7.7598  -15.3142   23.7796 C   0  0  0  0  0  0  0  0  0  0  0  0
    7.0300  -14.8987   24.9858 C   0  0  0  0  0  0  0  0  0  0  0  0
    6.0859  -15.5425   25.7603 C   0  0  0  0  0  0  0  0  0  0  0  0
    5.7154  -14.7389   26.7724 N   0  0  0  0  0  0  0  0  0  0  0  0
    6.3778  -13.5633   26.7155 C   0  0  0  0  0  0  0  0  0  0  0  0
    6.3556  -12.4363   27.5066 C   0  0  0  0  0  0  0  0  0  0  0  0
    7.1545  -11.3643   27.2125 C   0  0  0  0  0  0  0  0  0  0  0  0
    7.9877  -11.4210   26.1097 C   0  0  0  0  0  0  0  0  0  0  0  0
    7.9978  -12.5528   25.3297 C   0  0  0  0  0  0  0  0  0  0  0  0
    7.2054  -13.6527   25.5970 C   0  0  0  0  0  0  0  0  0  0  0  0
    9.4078  -16.6505   25.1156 C   0  0  0  0  0  0  0  0  0  0  0  0
    8.9982  -16.4703   26.2778 O   0  0  0  0  0  0  0  0  0  0  0  0
   10.4360  -20.5752   24.0234 C   0  0  0  0  0  0  0  0  0  0  0  0
   11.1473  -19.9924   25.2253 C   0  0  1  0  0  0  0  0  0  0  0  0
   12.5281  -19.5683   24.6825 C   0  0  0  0  0  0  0  0  0  0  0  0
   10.4547  -18.8489   25.8413 C   0  0  2  0  0  0  0  0  0  0  0  0
   10.1438  -17.8398   24.8713 N   0  0  0  0  0  0  0  0  0  0  0  0
   11.1648  -18.2673   27.0249 C   0  0  0  0  0  0  0  0  0  0  0  0
   11.6196  -17.1060   27.0068 O   0  0  0  0  0  0  0  0  0  0  0  0
   11.3433  -19.0067   28.1879 O   0  0  0  0  0  0  0  0  0  0  0  0
  2  1  1  1
  2  3  1  0
  3  4  1  0
  4  5  2  0
  5  6  1  0
  7  8  2  0
  7  6  1  0
  9  8  1  0
 10  9  2  0
 11 10  1  0
 11 12  2  0
 12  4  1  0
 12  7  1  0
 13  2  1  0
 14 13  2  0
 15 13  1  0
 16 17  1  6
 16 15  1  0
 18 17  1  0
 19 18  2  0
 20 21  1  0
 20 19  1  0
 21 26  2  0
 22 21  1  0
 22 23  2  0
 23 24  1  0
 24 25  2  0
 26 18  1  0
 26 25  1  0
 27 16  1  0
 28 27  2  0
 30 29  1  6
 31 30  1  0
 32 30  1  0
 32 33  1  6
 33 27  1  0
 34 32  1  0
 34 36  1  0
 35 34  2  0
M  END
$$$$
