WWV.pdb
     RDKit          3D

 36 39  0  0  1  0  0  0  0  0999 V2000
    9.3743  -16.4702   20.2961 N   0  0  0  0  0  0  0  0  0  0  0  0
    9.8300  -15.1083   20.5774 C   0  0  1  0  0  0  0  0  0  0  0  0
    8.8631  -14.2058   19.8100 C   0  0  0  0  0  0  0  0  0  0  0  0
    8.8939  -14.5297   18.3564 C   0  0  0  0  0  0  0  0  0  0  0  0
    8.1253  -13.9147   17.3612 C   0  0  0  0  0  0  0  0  0  0  0  0
    8.4300  -14.4766   16.1784 N   0  0  0  0  0  0  0  0  0  0  0  0
    9.3712  -15.4374   16.3580 C   0  0  0  0  0  0  0  0  0  0  0  0
   10.0146  -16.2960   15.4656 C   0  0  0  0  0  0  0  0  0  0  0  0
   10.9593  -17.2058   15.9054 C   0  0  0  0  0  0  0  0  0  0  0  0
   11.2359  -17.2282   17.2562 C   0  0  0  0  0  0  0  0  0  0  0  0
   10.6034  -16.3834   18.1340 C   0  0  0  0  0  0  0  0  0  0  0  0
    9.6524  -15.4663   17.6985 C   0  0  0  0  0  0  0  0  0  0  0  0
    9.6247  -14.8310   22.0272 C   0  0  0  0  0  0  0  0  0  0  0  0
    9.7103  -13.6708   22.5204 O   0  0  0  0  0  0  0  0  0  0  0  0
    9.3157  -15.9007   22.8926 N   0  0  0  0  0  0  0  0  0  0  0  0
    9.0606  -15.7125   24.3205 C   0  0  1  0  0  0  0  0  0  0  0  0
    7.7826  -16.4299   24.6065 C   0  0  0  0  0  0  0  0  0  0  0  0
    6.7100  -15.6064   25.1823 C   0  0  0  0  0  0  0  0  0  0  0  0
    5.3998  -15.8944   25.5082 C   0  0  0  0  0  0  0  0  0  0  0  0
    4.8141  -14.7959   26.0154 N   0  0  0  0  0  0  0  0  0  0  0  0
    5.6836  -13.7630   26.0478 C   0  0  0  0  0  0  0  0  0  0  0  0
    5.5722  -12.4574   26.4716 C   0  0  0  0  0  0  0  0  0  0  0  0
    6.6416  -11.6066   26.3918 C   0  0  0  0  0  0  0  0  0  0  0  0
    7.8404  -12.0694   25.8796 C   0  0  0  0  0  0  0  0  0  0  0  0
    7.9354  -13.3749   25.4601 C   0  0  0  0  0  0  0  0  0  0  0  0
    6.8770  -14.2608   25.5263 C   0  0  0  0  0  0  0  0  0  0  0  0
   10.2169  -16.1389   25.1320 C   0  0  0  0  0  0  0  0  0  0  0  0
   11.1308  -16.8797   24.7234 O   0  0  0  0  0  0  0  0  0  0  0  0
   12.3126  -15.5799   29.6638 C   0  0  0  0  0  0  0  0  0  0  0  0
   11.2088  -15.2996   28.6671 C   0  0  1  0  0  0  0  0  0  0  0  0
   11.3521  -13.7956   28.3527 C   0  0  0  0  0  0  0  0  0  0  0  0
   11.2898  -16.1007   27.4348 C   0  0  2  0  0  0  0  0  0  0  0  0
   10.3094  -15.6858   26.4744 N   0  0  0  0  0  0  0  0  0  0  0  0
   11.2394  -17.5803   27.6612 C   0  0  0  0  0  0  0  0  0  0  0  0
   10.1661  -18.1663   27.9074 O   0  0  0  0  0  0  0  0  0  0  0  0
   12.3928  -18.3534   27.6064 O   0  0  0  0  0  0  0  0  0  0  0  0
  2  1  1  1
  2  3  1  0
  3  4  1  0
  4  5  2  0
  5  6  1  0
  7  8  2  0
  7  6  1  0
  9  8  1  0
 10  9  2  0
 11 10  1  0
 11 12  2  0
 12  4  1  0
 12  7  1  0
 13  2  1  0
 14 13  2  0
 15 13  1  0
 16 17  1  1
 16 15  1  0
 18 17  1  0
 19 18  2  0
 20 21  1  0
 20 19  1  0
 21 26  2  0
 22 21  1  0
 22 23  2  0
 23 24  1  0
 24 25  2  0
 26 18  1  0
 26 25  1  0
 27 16  1  0
 28 27  2  0
 30 29  1  1
 31 30  1  0
 32 30  1  0
 32 33  1  6
 33 27  1  0
 34 32  1  0
 34 36  1  0
 35 34  2  0
M  END
$$$$
