WWV.pdb
     RDKit          3D

 36 39  0  0  1  0  0  0  0  0999 V2000
    7.8754  -16.2596   19.7733 N   0  0  0  0  0  0  0  0  0  0  0  0
    7.8693  -15.8025   21.1634 C   0  0  1  0  0  0  0  0  0  0  0  0
    6.7233  -16.5705   21.8229 C   0  0  0  0  0  0  0  0  0  0  0  0
    6.4644  -16.0422   23.1914 C   0  0  0  0  0  0  0  0  0  0  0  0
    5.8893  -16.7529   24.2513 C   0  0  0  0  0  0  0  0  0  0  0  0
    5.8188  -15.9413   25.3209 N   0  0  0  0  0  0  0  0  0  0  0  0
    6.3273  -14.7237   25.0048 C   0  0  0  0  0  0  0  0  0  0  0  0
    6.4840  -13.5530   25.7480 C   0  0  0  0  0  0  0  0  0  0  0  0
    7.0444  -12.4200   25.1860 C   0  0  0  0  0  0  0  0  0  0  0  0
    7.4387  -12.4964   23.8668 C   0  0  0  0  0  0  0  0  0  0  0  0
    7.2850  -13.6481   23.1358 C   0  0  0  0  0  0  0  0  0  0  0  0
    6.7223  -14.7908   23.6946 C   0  0  0  0  0  0  0  0  0  0  0  0
    9.1293  -16.2575   21.8164 C   0  0  0  0  0  0  0  0  0  0  0  0
    9.8657  -17.1603   21.3271 O   0  0  0  0  0  0  0  0  0  0  0  0
    9.5284  -15.6578   23.0286 N   0  0  0  0  0  0  0  0  0  0  0  0
   10.8610  -15.8463   23.6015 C   0  0  1  0  0  0  0  0  0  0  0  0
   10.9181  -14.9642   24.8050 C   0  0  0  0  0  0  0  0  0  0  0  0
   10.1880  -15.4533   25.9831 C   0  0  0  0  0  0  0  0  0  0  0  0
    9.3208  -16.5134   26.1563 C   0  0  0  0  0  0  0  0  0  0  0  0
    8.9116  -16.5509   27.4363 N   0  0  0  0  0  0  0  0  0  0  0  0
    9.4727  -15.5484   28.1464 C   0  0  0  0  0  0  0  0  0  0  0  0
    9.3778  -15.1684   29.4666 C   0  0  0  0  0  0  0  0  0  0  0  0
   10.0774  -14.0874   29.9312 C   0  0  0  0  0  0  0  0  0  0  0  0
   10.8835  -13.3756   29.0610 C   0  0  0  0  0  0  0  0  0  0  0  0
   10.9670  -13.7672   27.7461 C   0  0  0  0  0  0  0  0  0  0  0  0
   10.2755  -14.8527   27.2433 C   0  0  0  0  0  0  0  0  0  0  0  0
   11.1387  -17.2735   23.8535 C   0  0  0  0  0  0  0  0  0  0  0  0
   10.2919  -18.0987   24.2444 O   0  0  0  0  0  0  0  0  0  0  0  0
   14.3961  -20.9186   22.9768 C   0  0  0  0  0  0  0  0  0  0  0  0
   13.9734  -19.4670   22.9079 C   0  0  1  0  0  0  0  0  0  0  0  0
   13.5122  -19.2733   21.4481 C   0  0  0  0  0  0  0  0  0  0  0  0
   12.8992  -19.1054   23.8472 C   0  0  2  0  0  0  0  0  0  0  0  0
   12.4572  -17.7567   23.6441 N   0  0  0  0  0  0  0  0  0  0  0  0
   13.2311  -19.3599   25.2853 C   0  0  0  0  0  0  0  0  0  0  0  0
   12.8737  -20.4066   25.8619 O   0  0  0  0  0  0  0  0  0  0  0  0
   13.9503  -18.4326   26.0297 O   0  0  0  0  0  0  0  0  0  0  0  0
  2  1  1  6
  2  3  1  0
  3  4  1  0
  4  5  2  0
  5  6  1  0
  7  8  2  0
  7  6  1  0
  9  8  1  0
 10  9  2  0
 11 10  1  0
 11 12  2  0
 12  4  1  0
 12  7  1  0
 13  2  1  0
 14 13  2  0
 15 13  1  0
 16 17  1  1
 16 15  1  0
 18 17  1  0
 19 18  2  0
 20 21  1  0
 20 19  1  0
 21 26  2  0
 22 21  1  0
 22 23  2  0
 23 24  1  0
 24 25  2  0
 26 18  1  0
 26 25  1  0
 27 16  1  0
 28 27  2  0
 30 29  1  6
 31 30  1  0
 32 30  1  0
 32 33  1  1
 33 27  1  0
 34 32  1  0
 34 36  1  0
 35 34  2  0
M  END
$$$$
