WWV.pdb
     RDKit          3D

 36 39  0  0  1  0  0  0  0  0999 V2000
    6.5841  -19.1611   24.7058 N   0  0  0  0  0  0  0  0  0  0  0  0
    6.7491  -17.7071   24.6969 C   0  0  1  0  0  0  0  0  0  0  0  0
    6.5872  -17.2859   26.1579 C   0  0  0  0  0  0  0  0  0  0  0  0
    6.1310  -15.8704   26.2423 C   0  0  0  0  0  0  0  0  0  0  0  0
    4.8504  -15.3999   25.9294 C   0  0  0  0  0  0  0  0  0  0  0  0
    4.8238  -14.0704   26.1286 N   0  0  0  0  0  0  0  0  0  0  0  0
    6.0385  -13.6491   26.5621 C   0  0  0  0  0  0  0  0  0  0  0  0
    6.5228  -12.3868   26.9082 C   0  0  0  0  0  0  0  0  0  0  0  0
    7.8283  -12.2143   27.3320 C   0  0  0  0  0  0  0  0  0  0  0  0
    8.6264  -13.3371   27.3968 C   0  0  0  0  0  0  0  0  0  0  0  0
    8.1500  -14.5788   27.0569 C   0  0  0  0  0  0  0  0  0  0  0  0
    6.8385  -14.7592   26.6299 C   0  0  0  0  0  0  0  0  0  0  0  0
    8.1529  -17.3929   24.3076 C   0  0  0  0  0  0  0  0  0  0  0  0
    9.0476  -18.2788   24.2006 O   0  0  0  0  0  0  0  0  0  0  0  0
    8.5066  -16.0545   24.0395 N   0  0  0  0  0  0  0  0  0  0  0  0
    9.7986  -15.6790   23.4656 C   0  0  1  0  0  0  0  0  0  0  0  0
    9.6308  -14.2861   22.9546 C   0  0  0  0  0  0  0  0  0  0  0  0
    8.6649  -14.1265   21.8583 C   0  0  0  0  0  0  0  0  0  0  0  0
    7.2847  -14.1382   21.8360 C   0  0  0  0  0  0  0  0  0  0  0  0
    6.8568  -13.9442   20.5764 N   0  0  0  0  0  0  0  0  0  0  0  0
    7.9025  -13.7991   19.7341 C   0  0  0  0  0  0  0  0  0  0  0  0
    7.9891  -13.5801   18.3773 C   0  0  0  0  0  0  0  0  0  0  0  0
    9.2095  -13.4660   17.7677 C   0  0  0  0  0  0  0  0  0  0  0  0
   10.3605  -13.5733   18.5276 C   0  0  0  0  0  0  0  0  0  0  0  0
   10.2572  -13.7927   19.8806 C   0  0  0  0  0  0  0  0  0  0  0  0
    9.0427  -13.9126   20.5285 C   0  0  0  0  0  0  0  0  0  0  0  0
   10.8916  -15.8648   24.4394 C   0  0  0  0  0  0  0  0  0  0  0  0
   12.0138  -15.3322   24.3505 O   0  0  0  0  0  0  0  0  0  0  0  0
   11.6592  -14.2902   26.4180 C   0  0  0  0  0  0  0  0  0  0  0  0
   11.5952  -15.4526   27.3850 C   0  0  1  0  0  0  0  0  0  0  0  0
   10.3531  -15.1589   28.2523 C   0  0  0  0  0  0  0  0  0  0  0  0
   11.4812  -16.7703   26.7389 C   0  0  2  0  0  0  0  0  0  0  0  0
   10.6678  -16.7075   25.5599 N   0  0  0  0  0  0  0  0  0  0  0  0
   11.0295  -17.8653   27.6555 C   0  0  0  0  0  0  0  0  0  0  0  0
    9.9562  -18.4723   27.4672 O   0  0  0  0  0  0  0  0  0  0  0  0
   11.7940  -18.2422   28.7530 O   0  0  0  0  0  0  0  0  0  0  0  0
  2  1  1  1
  2  3  1  0
  3  4  1  0
  4  5  2  0
  5  6  1  0
  7  8  2  0
  7  6  1  0
  9  8  1  0
 10  9  2  0
 11 10  1  0
 11 12  2  0
 12  4  1  0
 12  7  1  0
 13  2  1  0
 14 13  2  0
 15 13  1  0
 16 17  1  1
 16 15  1  0
 18 17  1  0
 19 18  2  0
 20 21  1  0
 20 19  1  0
 21 26  2  0
 22 21  1  0
 22 23  2  0
 23 24  1  0
 24 25  2  0
 26 18  1  0
 26 25  1  0
 27 16  1  0
 28 27  2  0
 30 29  1  6
 31 30  1  0
 32 30  1  0
 32 33  1  6
 33 27  1  0
 34 32  1  0
 34 36  1  0
 35 34  2  0
M  END
$$$$
