WWV.pdb
     RDKit          3D

 36 39  0  0  1  0  0  0  0  0999 V2000
    9.2403  -16.5898   22.1129 N   0  0  0  0  0  0  0  0  0  0  0  0
   10.3818  -15.6936   22.3011 C   0  0  1  0  0  0  0  0  0  0  0  0
    9.8289  -14.2937   22.0313 C   0  0  0  0  0  0  0  0  0  0  0  0
    8.5354  -14.3792   21.2975 C   0  0  0  0  0  0  0  0  0  0  0  0
    7.3916  -15.0630   21.7256 C   0  0  0  0  0  0  0  0  0  0  0  0
    6.4312  -14.9115   20.7970 N   0  0  0  0  0  0  0  0  0  0  0  0
    6.8999  -14.1523   19.7746 C   0  0  0  0  0  0  0  0  0  0  0  0
    6.3095  -13.7097   18.5902 C   0  0  0  0  0  0  0  0  0  0  0  0
    7.0120  -12.9276   17.6909 C   0  0  0  0  0  0  0  0  0  0  0  0
    8.3138  -12.6066   18.0133 C   0  0  0  0  0  0  0  0  0  0  0  0
    8.8944  -13.0415   19.1786 C   0  0  0  0  0  0  0  0  0  0  0  0
    8.1939  -13.8282   20.0870 C   0  0  0  0  0  0  0  0  0  0  0  0
   10.7824  -15.7331   23.7360 C   0  0  0  0  0  0  0  0  0  0  0  0
   11.5574  -14.8796   24.2533 O   0  0  0  0  0  0  0  0  0  0  0  0
   10.2763  -16.7585   24.5610 N   0  0  0  0  0  0  0  0  0  0  0  0
   10.6120  -16.8679   25.9805 C   0  0  1  0  0  0  0  0  0  0  0  0
   10.0765  -15.6318   26.6246 C   0  0  0  0  0  0  0  0  0  0  0  0
    8.7045  -15.2648   26.2461 C   0  0  0  0  0  0  0  0  0  0  0  0
    7.6738  -15.9964   25.6910 C   0  0  0  0  0  0  0  0  0  0  0  0
    6.5988  -15.2047   25.5333 N   0  0  0  0  0  0  0  0  0  0  0  0
    6.8612  -13.9519   25.9643 C   0  0  0  0  0  0  0  0  0  0  0  0
    6.1052  -12.8022   26.0184 C   0  0  0  0  0  0  0  0  0  0  0  0
    6.6352  -11.6442   26.5205 C   0  0  0  0  0  0  0  0  0  0  0  0
    7.9418  -11.6369   26.9748 C   0  0  0  0  0  0  0  0  0  0  0  0
    8.6836  -12.7924   26.9134 C   0  0  0  0  0  0  0  0  0  0  0  0
    8.1810  -13.9784   26.4133 C   0  0  0  0  0  0  0  0  0  0  0  0
   10.1219  -18.1376   26.5506 C   0  0  0  0  0  0  0  0  0  0  0  0
    8.9198  -18.4405   26.6685 O   0  0  0  0  0  0  0  0  0  0  0  0
   12.2435  -21.5266   26.0013 C   0  0  0  0  0  0  0  0  0  0  0  0
   11.8492  -21.3188   27.4476 C   0  0  1  0  0  0  0  0  0  0  0  0
   13.1490  -20.8478   28.1331 C   0  0  0  0  0  0  0  0  0  0  0  0
   10.7699  -20.3373   27.6445 C   0  0  2  0  0  0  0  0  0  0  0  0
   11.0717  -19.0906   27.0040 N   0  0  0  0  0  0  0  0  0  0  0  0
   10.3795  -20.1345   29.0761 C   0  0  0  0  0  0  0  0  0  0  0  0
   10.7160  -19.1114   29.7053 O   0  0  0  0  0  0  0  0  0  0  0  0
    9.6273  -21.0852   29.7554 O   0  0  0  0  0  0  0  0  0  0  0  0
  2  1  1  1
  2  3  1  0
  3  4  1  0
  4  5  2  0
  5  6  1  0
  7  8  2  0
  7  6  1  0
  9  8  1  0
 10  9  2  0
 11 10  1  0
 11 12  2  0
 12  4  1  0
 12  7  1  0
 13  2  1  0
 14 13  2  0
 15 13  1  0
 16 17  1  1
 16 15  1  0
 18 17  1  0
 19 18  2  0
 20 21  1  0
 20 19  1  0
 21 26  2  0
 22 21  1  0
 22 23  2  0
 23 24  1  0
 24 25  2  0
 26 18  1  0
 26 25  1  0
 27 16  1  0
 28 27  2  0
 30 29  1  6
 31 30  1  0
 32 30  1  0
 32 33  1  1
 33 27  1  0
 34 32  1  0
 34 36  1  0
 35 34  2  0
M  END
$$$$
