WWV.pdb
     RDKit          3D

 36 39  0  0  1  0  0  0  0  0999 V2000
    8.4660  -17.8906   21.3086 N   0  0  0  0  0  0  0  0  0  0  0  0
    9.3256  -16.7068   21.3416 C   0  0  1  0  0  0  0  0  0  0  0  0
    8.4745  -15.5882   20.7393 C   0  0  0  0  0  0  0  0  0  0  0  0
    7.9852  -15.9789   19.3877 C   0  0  0  0  0  0  0  0  0  0  0  0
    6.6609  -15.9055   18.9405 C   0  0  0  0  0  0  0  0  0  0  0  0
    6.6141  -16.3458   17.6710 N   0  0  0  0  0  0  0  0  0  0  0  0
    7.8584  -16.7049   17.2659 C   0  0  0  0  0  0  0  0  0  0  0  0
    8.3396  -17.2123   16.0583 C   0  0  0  0  0  0  0  0  0  0  0  0
    9.6816  -17.5031   15.8900 C   0  0  0  0  0  0  0  0  0  0  0  0
   10.5186  -17.2718   16.9613 C   0  0  0  0  0  0  0  0  0  0  0  0
   10.0453  -16.7722   18.1490 C   0  0  0  0  0  0  0  0  0  0  0  0
    8.6973  -16.4778   18.3250 C   0  0  0  0  0  0  0  0  0  0  0  0
    9.5757  -16.3435   22.7651 C   0  0  0  0  0  0  0  0  0  0  0  0
   10.1029  -15.2478   23.1088 O   0  0  0  0  0  0  0  0  0  0  0  0
    9.2067  -17.2512   23.7792 N   0  0  0  0  0  0  0  0  0  0  0  0
    9.6400  -17.1021   25.1683 C   0  0  1  0  0  0  0  0  0  0  0  0
    8.3900  -17.0190   25.9808 C   0  0  0  0  0  0  0  0  0  0  0  0
    7.4655  -15.9381   25.6105 C   0  0  0  0  0  0  0  0  0  0  0  0
    6.2670  -15.9436   24.9254 C   0  0  0  0  0  0  0  0  0  0  0  0
    5.7944  -14.6879   24.8423 N   0  0  0  0  0  0  0  0  0  0  0  0
    6.6327  -13.8211   25.4506 C   0  0  0  0  0  0  0  0  0  0  0  0
    6.5964  -12.4572   25.6374 C   0  0  0  0  0  0  0  0  0  0  0  0
    7.6030  -11.8205   26.3120 C   0  0  0  0  0  0  0  0  0  0  0  0
    8.6623  -12.5600   26.8067 C   0  0  0  0  0  0  0  0  0  0  0  0
    8.6843  -13.9205   26.6114 C   0  0  0  0  0  0  0  0  0  0  0  0
    7.6857  -14.5956   25.9358 C   0  0  0  0  0  0  0  0  0  0  0  0
   10.5729  -18.1773   25.5568 C   0  0  0  0  0  0  0  0  0  0  0  0
   10.3128  -19.3936   25.4947 O   0  0  0  0  0  0  0  0  0  0  0  0
   15.3091  -19.1505   26.7673 C   0  0  0  0  0  0  0  0  0  0  0  0
   14.2079  -18.1883   26.3774 C   0  0  1  0  0  0  0  0  0  0  0  0
   14.4899  -17.8669   24.8947 C   0  0  0  0  0  0  0  0  0  0  0  0
   12.8481  -18.7263   26.5456 C   0  0  2  0  0  0  0  0  0  0  0  0
   11.8593  -17.8196   26.0398 N   0  0  0  0  0  0  0  0  0  0  0  0
   12.5281  -19.1576   27.9438 C   0  0  0  0  0  0  0  0  0  0  0  0
   11.9309  -18.4039   28.7383 O   0  0  0  0  0  0  0  0  0  0  0  0
   12.8896  -20.4174   28.4055 O   0  0  0  0  0  0  0  0  0  0  0  0
  2  1  1  1
  2  3  1  0
  3  4  1  0
  4  5  2  0
  5  6  1  0
  7  8  2  0
  7  6  1  0
  9  8  1  0
 10  9  2  0
 11 10  1  0
 11 12  2  0
 12  4  1  0
 12  7  1  0
 13  2  1  0
 14 13  2  0
 15 13  1  0
 16 17  1  1
 16 15  1  0
 18 17  1  0
 19 18  2  0
 20 21  1  0
 20 19  1  0
 21 26  2  0
 22 21  1  0
 22 23  2  0
 23 24  1  0
 24 25  2  0
 26 18  1  0
 26 25  1  0
 27 16  1  0
 28 27  2  0
 30 29  1  6
 31 30  1  0
 32 30  1  0
 32 33  1  1
 33 27  1  0
 34 32  1  0
 34 36  1  0
 35 34  2  0
M  END
$$$$
