WWV.pdb
     RDKit          3D

 36 39  0  0  1  0  0  0  0  0999 V2000
    7.6967  -17.9400   21.7648 N   0  0  0  0  0  0  0  0  0  0  0  0
    8.1858  -16.5609   21.7727 C   0  0  1  0  0  0  0  0  0  0  0  0
    6.9355  -15.7012   21.5836 C   0  0  0  0  0  0  0  0  0  0  0  0
    6.9985  -14.9720   20.2863 C   0  0  0  0  0  0  0  0  0  0  0  0
    6.3790  -15.3625   19.0934 C   0  0  0  0  0  0  0  0  0  0  0  0
    6.6670  -14.4534   18.1455 N   0  0  0  0  0  0  0  0  0  0  0  0
    7.4516  -13.4788   18.6706 C   0  0  0  0  0  0  0  0  0  0  0  0
    8.0123  -12.3278   18.1153 C   0  0  0  0  0  0  0  0  0  0  0  0
    8.7907  -11.4741   18.8762 C   0  0  0  0  0  0  0  0  0  0  0  0
    8.9882  -11.8079   20.1996 C   0  0  0  0  0  0  0  0  0  0  0  0
    8.4363  -12.9399   20.7459 C   0  0  0  0  0  0  0  0  0  0  0  0
    7.6528  -13.8025   19.9865 C   0  0  0  0  0  0  0  0  0  0  0  0
    8.7206  -16.2566   23.1301 C   0  0  0  0  0  0  0  0  0  0  0  0
    9.3168  -15.1767   23.4040 O   0  0  0  0  0  0  0  0  0  0  0  0
    8.5545  -17.2047   24.1606 N   0  0  0  0  0  0  0  0  0  0  0  0
    9.2728  -17.1227   25.4322 C   0  0  1  0  0  0  0  0  0  0  0  0
    8.2269  -16.9460   26.4831 C   0  0  0  0  0  0  0  0  0  0  0  0
    7.3340  -15.7931   26.2993 C   0  0  0  0  0  0  0  0  0  0  0  0
    6.0302  -15.6976   25.8556 C   0  0  0  0  0  0  0  0  0  0  0  0
    5.6476  -14.4090   25.8681 N   0  0  0  0  0  0  0  0  0  0  0  0
    6.6498  -13.6177   26.3078 C   0  0  0  0  0  0  0  0  0  0  0  0
    6.7537  -12.2583   26.5022 C   0  0  0  0  0  0  0  0  0  0  0  0
    7.9158  -11.7101   26.9742 C   0  0  0  0  0  0  0  0  0  0  0  0
    8.9903  -12.5347   27.2554 C   0  0  0  0  0  0  0  0  0  0  0  0
    8.8710  -13.8894   27.0554 C   0  0  0  0  0  0  0  0  0  0  0  0
    7.7137  -14.4766   26.5807 C   0  0  0  0  0  0  0  0  0  0  0  0
   10.1637  -18.2839   25.6199 C   0  0  0  0  0  0  0  0  0  0  0  0
   10.0758  -19.3508   24.9835 O   0  0  0  0  0  0  0  0  0  0  0  0
   14.5078  -19.9994   26.5003 C   0  0  0  0  0  0  0  0  0  0  0  0
   13.4618  -18.9292   26.2742 C   0  0  1  0  0  0  0  0  0  0  0  0
   13.3370  -18.8366   24.7389 C   0  0  0  0  0  0  0  0  0  0  0  0
   12.1560  -19.2215   26.8876 C   0  0  2  0  0  0  0  0  0  0  0  0
   11.1964  -18.1985   26.5905 N   0  0  0  0  0  0  0  0  0  0  0  0
   12.2182  -19.5006   28.3578 C   0  0  0  0  0  0  0  0  0  0  0  0
   11.8792  -18.6444   29.1992 O   0  0  0  0  0  0  0  0  0  0  0  0
   12.6598  -20.7284   28.8361 O   0  0  0  0  0  0  0  0  0  0  0  0
  2  1  1  1
  2  3  1  0
  3  4  1  0
  4  5  2  0
  5  6  1  0
  7  8  2  0
  7  6  1  0
  9  8  1  0
 10  9  2  0
 11 10  1  0
 11 12  2  0
 12  4  1  0
 12  7  1  0
 13  2  1  0
 14 13  2  0
 15 13  1  0
 16 17  1  1
 16 15  1  0
 18 17  1  0
 19 18  2  0
 20 21  1  0
 20 19  1  0
 21 26  2  0
 22 21  1  0
 22 23  2  0
 23 24  1  0
 24 25  2  0
 26 18  1  0
 26 25  1  0
 27 16  1  0
 28 27  2  0
 30 29  1  6
 31 30  1  0
 32 30  1  0
 32 33  1  1
 33 27  1  0
 34 32  1  0
 34 36  1  0
 35 34  2  0
M  END
$$$$
