WWV.pdb
     RDKit          3D

 36 39  0  0  1  0  0  0  0  0999 V2000
    8.8772  -20.6140   22.2022 N   0  0  0  0  0  0  0  0  0  0  0  0
    8.4733  -19.6266   23.2038 C   0  0  1  0  0  0  0  0  0  0  0  0
    9.0735  -20.1323   24.5161 C   0  0  0  0  0  0  0  0  0  0  0  0
    8.5026  -21.4620   24.8694 C   0  0  0  0  0  0  0  0  0  0  0  0
    9.2340  -22.6050   25.2130 C   0  0  0  0  0  0  0  0  0  0  0  0
    8.3705  -23.6049   25.4630 N   0  0  0  0  0  0  0  0  0  0  0  0
    7.0986  -23.1620   25.2981 C   0  0  0  0  0  0  0  0  0  0  0  0
    5.8621  -23.7940   25.4361 C   0  0  0  0  0  0  0  0  0  0  0  0
    4.6812  -23.1103   25.2086 C   0  0  0  0  0  0  0  0  0  0  0  0
    4.7781  -21.7846   24.8410 C   0  0  0  0  0  0  0  0  0  0  0  0
    5.9943  -21.1628   24.7057 C   0  0  0  0  0  0  0  0  0  0  0  0
    7.1854  -21.8445   24.9328 C   0  0  0  0  0  0  0  0  0  0  0  0
    9.1437  -18.3331   22.8898 C   0  0  0  0  0  0  0  0  0  0  0  0
   10.2278  -18.2637   22.2443 O   0  0  0  0  0  0  0  0  0  0  0  0
    8.5484  -17.1300   23.3217 N   0  0  0  0  0  0  0  0  0  0  0  0
    9.1498  -15.8193   23.0772 C   0  0  1  0  0  0  0  0  0  0  0  0
    8.0096  -14.8667   22.9279 C   0  0  0  0  0  0  0  0  0  0  0  0
    7.0941  -14.7912   24.0752 C   0  0  0  0  0  0  0  0  0  0  0  0
    6.2636  -15.7287   24.6559 C   0  0  0  0  0  0  0  0  0  0  0  0
    5.6208  -15.1719   25.6970 N   0  0  0  0  0  0  0  0  0  0  0  0
    5.9860  -13.8804   25.8481 C   0  0  0  0  0  0  0  0  0  0  0  0
    5.6230  -12.9034   26.7482 C   0  0  0  0  0  0  0  0  0  0  0  0
    6.1668  -11.6495   26.6705 C   0  0  0  0  0  0  0  0  0  0  0  0
    7.0873  -11.3692   25.6767 C   0  0  0  0  0  0  0  0  0  0  0  0
    7.4387  -12.3550   24.7855 C   0  0  0  0  0  0  0  0  0  0  0  0
    6.9103  -13.6309   24.8345 C   0  0  0  0  0  0  0  0  0  0  0  0
   10.1256  -15.4731   24.1285 C   0  0  0  0  0  0  0  0  0  0  0  0
   11.1620  -14.8094   23.9383 O   0  0  0  0  0  0  0  0  0  0  0  0
    9.3975  -13.7988   27.3480 C   0  0  0  0  0  0  0  0  0  0  0  0
   10.0830  -15.1008   27.7019 C   0  0  1  0  0  0  0  0  0  0  0  0
    8.9472  -15.9950   28.2419 C   0  0  0  0  0  0  0  0  0  0  0  0
   10.7664  -15.7504   26.5715 C   0  0  2  0  0  0  0  0  0  0  0  0
    9.8846  -15.9215   25.4540 N   0  0  0  0  0  0  0  0  0  0  0  0
   11.4530  -17.0335   26.9258 C   0  0  0  0  0  0  0  0  0  0  0  0
   11.1065  -18.1199   26.4202 O   0  0  0  0  0  0  0  0  0  0  0  0
   12.5030  -17.0569   27.8357 O   0  0  0  0  0  0  0  0  0  0  0  0
  2  1  1  6
  2  3  1  0
  3  4  1  0
  4  5  2  0
  5  6  1  0
  7  8  2  0
  7  6  1  0
  9  8  1  0
 10  9  2  0
 11 10  1  0
 11 12  2  0
 12  4  1  0
 12  7  1  0
 13  2  1  0
 14 13  2  0
 15 13  1  0
 16 17  1  1
 16 15  1  0
 18 17  1  0
 19 18  2  0
 20 21  1  0
 20 19  1  0
 21 26  2  0
 22 21  1  0
 22 23  2  0
 23 24  1  0
 24 25  2  0
 26 18  1  0
 26 25  1  0
 27 16  1  0
 28 27  2  0
 30 29  1  6
 31 30  1  0
 32 30  1  0
 32 33  1  6
 33 27  1  0
 34 32  1  0
 34 36  1  0
 35 34  2  0
M  END
$$$$
