WWV.pdb
     RDKit          3D

 36 39  0  0  1  0  0  0  0  0999 V2000
    9.4187  -17.5630   21.2863 N   0  0  0  0  0  0  0  0  0  0  0  0
   10.6419  -16.8606   21.6755 C   0  0  1  0  0  0  0  0  0  0  0  0
   10.6714  -15.6096   20.7967 C   0  0  0  0  0  0  0  0  0  0  0  0
    9.3027  -15.0370   20.6630 C   0  0  0  0  0  0  0  0  0  0  0  0
    8.2143  -15.3058   21.5011 C   0  0  0  0  0  0  0  0  0  0  0  0
    7.1539  -14.6061   21.0611 N   0  0  0  0  0  0  0  0  0  0  0  0
    7.5044  -13.8859   19.9657 C   0  0  0  0  0  0  0  0  0  0  0  0
    6.7844  -13.0115   19.1506 C   0  0  0  0  0  0  0  0  0  0  0  0
    7.3820  -12.3861   18.0711 C   0  0  0  0  0  0  0  0  0  0  0  0
    8.7124  -12.6628   17.8360 C   0  0  0  0  0  0  0  0  0  0  0  0
    9.4208  -13.5225   18.6381 C   0  0  0  0  0  0  0  0  0  0  0  0
    8.8261  -14.1548   19.7250 C   0  0  0  0  0  0  0  0  0  0  0  0
   10.4937  -16.3980   23.0844 C   0  0  0  0  0  0  0  0  0  0  0  0
   11.3225  -15.6231   23.6406 O   0  0  0  0  0  0  0  0  0  0  0  0
    9.3821  -16.8329   23.8352 N   0  0  0  0  0  0  0  0  0  0  0  0
    9.1260  -16.3788   25.2019 C   0  0  1  0  0  0  0  0  0  0  0  0
    7.7683  -16.8897   25.5558 C   0  0  0  0  0  0  0  0  0  0  0  0
    6.6907  -15.8905   25.5334 C   0  0  0  0  0  0  0  0  0  0  0  0
    5.3203  -16.0140   25.4210 C   0  0  0  0  0  0  0  0  0  0  0  0
    4.7577  -14.7935   25.4546 N   0  0  0  0  0  0  0  0  0  0  0  0
    5.7013  -13.8364   25.5874 C   0  0  0  0  0  0  0  0  0  0  0  0
    5.6376  -12.4634   25.6727 C   0  0  0  0  0  0  0  0  0  0  0  0
    6.7796  -11.7215   25.8110 C   0  0  0  0  0  0  0  0  0  0  0  0
    8.0039  -12.3634   25.8642 C   0  0  0  0  0  0  0  0  0  0  0  0
    8.0508  -13.7343   25.7770 C   0  0  0  0  0  0  0  0  0  0  0  0
    6.9187  -14.5143   25.6372 C   0  0  0  0  0  0  0  0  0  0  0  0
   10.2104  -16.7889   26.1147 C   0  0  0  0  0  0  0  0  0  0  0  0
   11.1105  -17.5983   25.8222 O   0  0  0  0  0  0  0  0  0  0  0  0
   12.2834  -15.5794   30.5227 C   0  0  0  0  0  0  0  0  0  0  0  0
   11.1497  -15.5055   29.5227 C   0  0  1  0  0  0  0  0  0  0  0  0
   11.1735  -14.0444   29.0269 C   0  0  0  0  0  0  0  0  0  0  0  0
   11.2776  -16.4420   28.3942 C   0  0  2  0  0  0  0  0  0  0  0  0
   10.2447  -16.2351   27.4216 N   0  0  0  0  0  0  0  0  0  0  0  0
   11.3653  -17.8813   28.7990 C   0  0  0  0  0  0  0  0  0  0  0  0
   10.3420  -18.5691   28.9883 O   0  0  0  0  0  0  0  0  0  0  0  0
   12.5957  -18.5012   28.9801 O   0  0  0  0  0  0  0  0  0  0  0  0
  2  1  1  6
  2  3  1  0
  3  4  1  0
  4  5  2  0
  5  6  1  0
  7  8  2  0
  7  6  1  0
  9  8  1  0
 10  9  2  0
 11 10  1  0
 11 12  2  0
 12  4  1  0
 12  7  1  0
 13  2  1  0
 14 13  2  0
 15 13  1  0
 16 17  1  1
 16 15  1  0
 18 17  1  0
 19 18  2  0
 20 21  1  0
 20 19  1  0
 21 26  2  0
 22 21  1  0
 22 23  2  0
 23 24  1  0
 24 25  2  0
 26 18  1  0
 26 25  1  0
 27 16  1  0
 28 27  2  0
 30 29  1  1
 31 30  1  0
 32 30  1  0
 32 33  1  6
 33 27  1  0
 34 32  1  0
 34 36  1  0
 35 34  2  0
M  END
$$$$
