WWV.pdb
     RDKit          3D

 36 39  0  0  1  0  0  0  0  0999 V2000
   10.2284  -14.6095   21.3395 N   0  0  0  0  0  0  0  0  0  0  0  0
    9.2279  -15.5583   21.8298 C   0  0  1  0  0  0  0  0  0  0  0  0
    9.2301  -16.6935   20.8054 C   0  0  0  0  0  0  0  0  0  0  0  0
    8.6214  -16.2378   19.5245 C   0  0  0  0  0  0  0  0  0  0  0  0
    8.3368  -17.0452   18.4171 C   0  0  0  0  0  0  0  0  0  0  0  0
    7.7956  -16.2762   17.4561 N   0  0  0  0  0  0  0  0  0  0  0  0
    7.7124  -14.9934   17.8903 C   0  0  0  0  0  0  0  0  0  0  0  0
    7.2331  -13.8300   17.2868 C   0  0  0  0  0  0  0  0  0  0  0  0
    7.2559  -12.6181   17.9534 C   0  0  0  0  0  0  0  0  0  0  0  0
    7.7706  -12.6090   19.2328 C   0  0  0  0  0  0  0  0  0  0  0  0
    8.2417  -13.7534   19.8267 C   0  0  0  0  0  0  0  0  0  0  0  0
    8.2217  -14.9751   19.1620 C   0  0  0  0  0  0  0  0  0  0  0  0
    9.7123  -16.1336   23.1164 C   0  0  0  0  0  0  0  0  0  0  0  0
   10.9383  -16.2101   23.4128 O   0  0  0  0  0  0  0  0  0  0  0  0
    8.7708  -16.6101   24.0517 N   0  0  0  0  0  0  0  0  0  0  0  0
    9.1258  -16.9383   25.4322 C   0  0  1  0  0  0  0  0  0  0  0  0
    7.8789  -16.7499   26.2319 C   0  0  0  0  0  0  0  0  0  0  0  0
    7.2936  -15.4026   26.1830 C   0  0  0  0  0  0  0  0  0  0  0  0
    6.0949  -14.9353   25.6824 C   0  0  0  0  0  0  0  0  0  0  0  0
    6.0159  -13.6079   25.8796 N   0  0  0  0  0  0  0  0  0  0  0  0
    7.1244  -13.1508   26.5012 C   0  0  0  0  0  0  0  0  0  0  0  0
    7.5153  -11.8980   26.9184 C   0  0  0  0  0  0  0  0  0  0  0  0
    8.7203  -11.7172   27.5422 C   0  0  0  0  0  0  0  0  0  0  0  0
    9.5468  -12.8067   27.7510 C   0  0  0  0  0  0  0  0  0  0  0  0
    9.1426  -14.0505   27.3281 C   0  0  0  0  0  0  0  0  0  0  0  0
    7.9336  -14.2694   26.6957 C   0  0  0  0  0  0  0  0  0  0  0  0
    9.7360  -18.2787   25.5242 C   0  0  0  0  0  0  0  0  0  0  0  0
    9.3112  -19.2893   24.9334 O   0  0  0  0  0  0  0  0  0  0  0  0
   13.7977  -20.8228   26.6470 C   0  0  0  0  0  0  0  0  0  0  0  0
   13.0225  -19.5364   26.4605 C   0  0  1  0  0  0  0  0  0  0  0  0
   13.4015  -19.0654   25.0408 C   0  0  0  0  0  0  0  0  0  0  0  0
   11.5638  -19.6862   26.5890 C   0  0  2  0  0  0  0  0  0  0  0  0
   10.8857  -18.4476   26.3400 N   0  0  0  0  0  0  0  0  0  0  0  0
   11.1221  -20.2995   27.8820 C   0  0  0  0  0  0  0  0  0  0  0  0
   10.6612  -19.6046   28.8097 O   0  0  0  0  0  0  0  0  0  0  0  0
   11.2133  -21.6699   28.0932 O   0  0  0  0  0  0  0  0  0  0  0  0
  2  1  1  6
  2  3  1  0
  3  4  1  0
  4  5  2  0
  5  6  1  0
  7  8  2  0
  7  6  1  0
  9  8  1  0
 10  9  2  0
 11 10  1  0
 11 12  2  0
 12  4  1  0
 12  7  1  0
 13  2  1  0
 14 13  2  0
 15 13  1  0
 16 17  1  1
 16 15  1  0
 18 17  1  0
 19 18  2  0
 20 21  1  0
 20 19  1  0
 21 26  2  0
 22 21  1  0
 22 23  2  0
 23 24  1  0
 24 25  2  0
 26 18  1  0
 26 25  1  0
 27 16  1  0
 28 27  2  0
 30 29  1  6
 31 30  1  0
 32 30  1  0
 32 33  1  1
 33 27  1  0
 34 32  1  0
 34 36  1  0
 35 34  2  0
M  END
$$$$
