WWV.pdb
     RDKit          3D

 36 39  0  0  1  0  0  0  0  0999 V2000
    7.9214  -18.1953   20.4960 N   0  0  0  0  0  0  0  0  0  0  0  0
    8.2734  -17.0476   21.3327 C   0  0  1  0  0  0  0  0  0  0  0  0
    7.0416  -16.1424   21.2936 C   0  0  0  0  0  0  0  0  0  0  0  0
    7.1539  -15.1612   20.1785 C   0  0  0  0  0  0  0  0  0  0  0  0
    6.3566  -15.1298   19.0284 C   0  0  0  0  0  0  0  0  0  0  0  0
    6.7596  -14.1045   18.2576 N   0  0  0  0  0  0  0  0  0  0  0  0
    7.7913  -13.4594   18.8583 C   0  0  0  0  0  0  0  0  0  0  0  0
    8.5495  -12.3506   18.4799 C   0  0  0  0  0  0  0  0  0  0  0  0
    9.5685  -11.8739   19.2849 C   0  0  0  0  0  0  0  0  0  0  0  0
    9.8020  -12.5382   20.4706 C   0  0  0  0  0  0  0  0  0  0  0  0
    9.0559  -13.6286   20.8430 C   0  0  0  0  0  0  0  0  0  0  0  0
    8.0300  -14.1131   20.0383 C   0  0  0  0  0  0  0  0  0  0  0  0
    8.4233  -17.5161   22.7395 C   0  0  0  0  0  0  0  0  0  0  0  0
    7.8337  -18.5410   23.1854 O   0  0  0  0  0  0  0  0  0  0  0  0
    9.2605  -16.7959   23.6163 N   0  0  0  0  0  0  0  0  0  0  0  0
    9.3117  -17.0600   25.0540 C   0  0  1  0  0  0  0  0  0  0  0  0
   10.7246  -16.8087   25.4667 C   0  0  0  0  0  0  0  0  0  0  0  0
   10.9866  -16.8937   26.9105 C   0  0  0  0  0  0  0  0  0  0  0  0
   11.3771  -17.9440   27.7168 C   0  0  0  0  0  0  0  0  0  0  0  0
   11.4881  -17.5151   28.9860 N   0  0  0  0  0  0  0  0  0  0  0  0
   11.1859  -16.2017   29.0743 C   0  0  0  0  0  0  0  0  0  0  0  0
   11.1543  -15.3164   30.1287 C   0  0  0  0  0  0  0  0  0  0  0  0
   10.8082  -14.0074   29.9276 C   0  0  0  0  0  0  0  0  0  0  0  0
   10.4884  -13.5781   28.6520 C   0  0  0  0  0  0  0  0  0  0  0  0
   10.5240  -14.4741   27.6102 C   0  0  0  0  0  0  0  0  0  0  0  0
   10.8689  -15.8018   27.7768 C   0  0  0  0  0  0  0  0  0  0  0  0
    8.2949  -16.2745   25.7796 C   0  0  0  0  0  0  0  0  0  0  0  0
    7.7095  -16.6583   26.8095 O   0  0  0  0  0  0  0  0  0  0  0  0
    8.4098  -12.1913   24.9812 C   0  0  0  0  0  0  0  0  0  0  0  0
    7.0311  -12.7721   25.2096 C   0  0  1  0  0  0  0  0  0  0  0  0
    6.4322  -12.9002   23.7932 C   0  0  0  0  0  0  0  0  0  0  0  0
    7.0302  -14.0740   25.8966 C   0  0  2  0  0  0  0  0  0  0  0  0
    7.9448  -14.9916   25.2823 N   0  0  0  0  0  0  0  0  0  0  0  0
    5.6709  -14.6826   26.0549 C   0  0  0  0  0  0  0  0  0  0  0  0
    5.3358  -15.7038   25.4220 O   0  0  0  0  0  0  0  0  0  0  0  0
    4.7322  -14.1257   26.9150 O   0  0  0  0  0  0  0  0  0  0  0  0
  2  1  1  6
  2  3  1  0
  3  4  1  0
  4  5  2  0
  5  6  1  0
  7  8  2  0
  7  6  1  0
  9  8  1  0
 10  9  2  0
 11 10  1  0
 11 12  2  0
 12  4  1  0
 12  7  1  0
 13  2  1  0
 14 13  2  0
 15 13  1  0
 16 17  1  1
 16 15  1  0
 18 17  1  0
 19 18  2  0
 20 21  1  0
 20 19  1  0
 21 26  2  0
 22 21  1  0
 22 23  2  0
 23 24  1  0
 24 25  2  0
 26 18  1  0
 26 25  1  0
 27 16  1  0
 28 27  2  0
 30 29  1  6
 31 30  1  0
 32 30  1  0
 32 33  1  6
 33 27  1  0
 34 32  1  0
 34 36  1  0
 35 34  2  0
M  END
$$$$
