KQR.pdb
     RDKit          3D

 30 29  0  0  1  0  0  0  0  0999 V2000
    8.2914  -18.2764   19.8900 N   0  0  0  0  0  0  0  0  0  0  0  0
    9.6230  -17.7420   19.8440 C   0  0  1  0  0  0  0  0  0  0  0  0
   10.1143  -17.5001   18.4696 C   0  0  0  0  0  0  0  0  0  0  0  0
    9.6939  -18.5370   17.4957 C   0  0  0  0  0  0  0  0  0  0  0  0
    9.4117  -18.0000   16.1359 C   0  0  0  0  0  0  0  0  0  0  0  0
   10.1602  -18.9369   15.1581 C   0  0  0  0  0  0  0  0  0  0  0  0
    9.9284  -18.5066   13.8033 N   0  0  0  0  0  0  0  0  0  0  0  0
    9.6481  -16.4471   20.5963 C   0  0  0  0  0  0  0  0  0  0  0  0
   10.7202  -15.8561   20.8590 O   0  0  0  0  0  0  0  0  0  0  0  0
    8.4462  -12.3140   19.6496 N   0  0  0  0  0  0  0  0  0  0  0  0
    7.6876  -13.4122   19.1588 C   0  0  0  0  0  0  0  0  0  0  0  0
    7.9253  -13.8073   17.9955 O   0  0  0  0  0  0  0  0  0  0  0  0
    6.6775  -13.9908   20.0771 C   0  0  0  0  0  0  0  0  0  0  0  0
    7.0603  -13.9671   21.5211 C   0  0  0  0  0  0  0  0  0  0  0  0
    8.3750  -14.6138   21.7798 C   0  0  2  0  0  0  0  0  0  0  0  0
    8.4423  -15.8843   21.0160 N   0  0  0  0  0  0  0  0  0  0  0  0
    8.4777  -15.0280   23.1923 C   0  0  0  0  0  0  0  0  0  0  0  0
    7.4468  -14.9195   23.9452 O   0  0  0  0  0  0  0  0  0  0  0  0
    6.7790  -21.0710   23.8770 N   0  0  0  0  0  0  0  0  0  0  0  0
    5.7981  -20.0683   23.6614 C   0  0  0  0  0  0  0  0  0  0  0  0
    4.9932  -20.1711   22.6786 N   0  0  0  0  0  0  0  0  0  0  0  0
    5.7360  -18.9712   24.5475 N   0  0  0  0  0  0  0  0  0  0  0  0
    6.7824  -18.7712   25.5258 C   0  0  0  0  0  0  0  0  0  0  0  0
    7.3986  -17.4145   25.2736 C   0  0  0  0  0  0  0  0  0  0  0  0
    8.8870  -17.4660   25.1441 C   0  0  0  0  0  0  0  0  0  0  0  0
    9.5546  -16.1040   25.1648 C   0  0  2  0  0  0  0  0  0  0  0  0
    9.6292  -15.5535   23.8172 N   0  0  0  0  0  0  0  0  0  0  0  0
   10.9289  -16.1828   25.7118 C   0  0  0  0  0  0  0  0  0  0  0  0
   11.1745  -16.5348   26.8932 O   0  0  0  0  0  0  0  0  0  0  0  0
   12.0134  -15.8620   24.9133 O   0  0  0  0  0  0  0  0  0  0  0  0
  2  1  1  6
  2  3  1  0
  4  3  1  0
  5  4  1  0
  6  5  1  0
  7  6  1  0
  8  9  2  0
  8  2  1  0
 10 11  1  0
 11 12  2  0
 11 13  1  0
 13 14  1  0
 15 14  1  1
 15 16  1  0
 16  8  1  0
 17 15  1  0
 17 27  1  0
 18 17  2  0
 19 20  1  0
 20 22  1  0
 21 20  2  0
 22 23  1  0
 23 24  1  0
 24 25  1  0
 26 25  1  6
 26 27  1  0
 26 28  1  0
 28 29  2  0
 28 30  1  0
M  END
$$$$
