KQR.pdb
     RDKit          3D

 30 29  0  0  1  0  0  0  0  0999 V2000
    7.1715  -13.9214   19.2326 N   0  0  0  0  0  0  0  0  0  0  0  0
    7.8863  -14.8488   20.0634 C   0  0  1  0  0  0  0  0  0  0  0  0
    9.0313  -15.4907   19.3809 C   0  0  0  0  0  0  0  0  0  0  0  0
    8.8495  -16.9451   19.1528 C   0  0  0  0  0  0  0  0  0  0  0  0
    9.9698  -17.5767   18.4026 C   0  0  0  0  0  0  0  0  0  0  0  0
    9.5317  -19.0409   18.1607 C   0  0  0  0  0  0  0  0  0  0  0  0
   10.5666  -19.7436   17.4470 N   0  0  0  0  0  0  0  0  0  0  0  0
    8.3945  -14.1211   21.2697 C   0  0  0  0  0  0  0  0  0  0  0  0
    8.8360  -12.9515   21.1988 O   0  0  0  0  0  0  0  0  0  0  0  0
    5.1797  -12.8152   25.7907 N   0  0  0  0  0  0  0  0  0  0  0  0
    6.4178  -12.4163   26.3653 C   0  0  0  0  0  0  0  0  0  0  0  0
    6.3774  -11.6688   27.3681 O   0  0  0  0  0  0  0  0  0  0  0  0
    7.6505  -12.9256   25.7179 C   0  0  0  0  0  0  0  0  0  0  0  0
    7.4298  -13.6174   24.4121 C   0  0  0  0  0  0  0  0  0  0  0  0
    8.6974  -14.0688   23.7773 C   0  0  2  0  0  0  0  0  0  0  0  0
    8.3754  -14.7653   22.5072 N   0  0  0  0  0  0  0  0  0  0  0  0
    9.3517  -15.0994   24.6063 C   0  0  0  0  0  0  0  0  0  0  0  0
    9.5294  -16.2686   24.1136 O   0  0  0  0  0  0  0  0  0  0  0  0
   10.2673  -19.4166   30.6026 N   0  0  0  0  0  0  0  0  0  0  0  0
   11.6114  -19.0380   30.8559 C   0  0  0  0  0  0  0  0  0  0  0  0
   12.4914  -19.9342   31.0725 N   0  0  0  0  0  0  0  0  0  0  0  0
   11.9454  -17.6665   30.8622 N   0  0  0  0  0  0  0  0  0  0  0  0
   11.1375  -16.7216   30.1231 C   0  0  0  0  0  0  0  0  0  0  0  0
   11.7469  -16.5669   28.7489 C   0  0  0  0  0  0  0  0  0  0  0  0
   11.0847  -15.5021   27.9349 C   0  0  0  0  0  0  0  0  0  0  0  0
   10.5467  -15.9900   26.6031 C   0  0  2  0  0  0  0  0  0  0  0  0
    9.8219  -14.9222   25.9254 N   0  0  0  0  0  0  0  0  0  0  0  0
    9.6273  -17.1380   26.7781 C   0  0  0  0  0  0  0  0  0  0  0  0
    8.3980  -17.0005   27.0013 O   0  0  0  0  0  0  0  0  0  0  0  0
   10.1104  -18.4329   26.6978 O   0  0  0  0  0  0  0  0  0  0  0  0
  2  1  1  6
  2  3  1  0
  4  3  1  0
  5  4  1  0
  6  5  1  0
  7  6  1  0
  8  9  2  0
  8  2  1  0
 10 11  1  0
 11 12  2  0
 11 13  1  0
 13 14  1  0
 15 14  1  1
 15 16  1  0
 16  8  1  0
 17 15  1  0
 17 27  1  0
 18 17  2  0
 19 20  1  0
 20 22  1  0
 21 20  2  0
 22 23  1  0
 23 24  1  0
 24 25  1  0
 26 25  1  1
 26 27  1  0
 26 28  1  0
 28 29  2  0
 28 30  1  0
M  END
$$$$
