KQR.pdb
     RDKit          3D

 30 29  0  0  1  0  0  0  0  0999 V2000
   12.0089  -21.0871   18.0821 N   0  0  0  0  0  0  0  0  0  0  0  0
   11.8046  -19.7768   18.6320 C   0  0  1  0  0  0  0  0  0  0  0  0
   10.4905  -19.6121   19.2914 C   0  0  0  0  0  0  0  0  0  0  0  0
    9.3400  -19.7157   18.3608 C   0  0  0  0  0  0  0  0  0  0  0  0
    8.0241  -19.4539   19.0063 C   0  0  0  0  0  0  0  0  0  0  0  0
    6.9717  -19.6306   17.8858 C   0  0  0  0  0  0  0  0  0  0  0  0
    5.6513  -19.4395   18.4283 N   0  0  0  0  0  0  0  0  0  0  0  0
   12.8818  -19.5030   19.6359 C   0  0  0  0  0  0  0  0  0  0  0  0
   13.3961  -20.4175   20.3194 O   0  0  0  0  0  0  0  0  0  0  0  0
   15.8412  -13.6656   20.6866 N   0  0  0  0  0  0  0  0  0  0  0  0
   16.7139  -14.7767   20.8489 C   0  0  0  0  0  0  0  0  0  0  0  0
   17.9352  -14.5884   20.6517 O   0  0  0  0  0  0  0  0  0  0  0  0
   16.0913  -16.0647   21.2385 C   0  0  0  0  0  0  0  0  0  0  0  0
   15.0289  -16.5514   20.3077 C   0  0  0  0  0  0  0  0  0  0  0  0
   14.4227  -17.8374   20.7465 C   0  0  2  0  0  0  0  0  0  0  0  0
   13.3240  -18.1918   19.8142 N   0  0  0  0  0  0  0  0  0  0  0  0
   13.7578  -17.6752   22.0538 C   0  0  0  0  0  0  0  0  0  0  0  0
   12.6330  -17.0638   22.1041 O   0  0  0  0  0  0  0  0  0  0  0  0
   13.1229  -22.0677   29.7546 N   0  0  0  0  0  0  0  0  0  0  0  0
   12.2010  -20.9904   29.8160 C   0  0  0  0  0  0  0  0  0  0  0  0
   11.4111  -20.8892   30.8111 N   0  0  0  0  0  0  0  0  0  0  0  0
   12.1798  -20.0483   28.7651 N   0  0  0  0  0  0  0  0  0  0  0  0
   13.0331  -20.2316   27.6117 C   0  0  0  0  0  0  0  0  0  0  0  0
   12.8534  -19.0339   26.7079 C   0  0  0  0  0  0  0  0  0  0  0  0
   13.6102  -19.1544   25.4243 C   0  0  0  0  0  0  0  0  0  0  0  0
   13.4757  -17.9480   24.5144 C   0  0  2  0  0  0  0  0  0  0  0  0
   14.2458  -18.1443   23.2925 N   0  0  0  0  0  0  0  0  0  0  0  0
   13.9593  -16.7141   25.1759 C   0  0  0  0  0  0  0  0  0  0  0  0
   15.0617  -16.1778   24.8986 O   0  0  0  0  0  0  0  0  0  0  0  0
   13.1874  -16.0985   26.1463 O   0  0  0  0  0  0  0  0  0  0  0  0
  2  1  1  1
  2  3  1  0
  4  3  1  0
  5  4  1  0
  6  5  1  0
  7  6  1  0
  8  9  2  0
  8  2  1  0
 10 11  1  0
 11 12  2  0
 11 13  1  0
 13 14  1  0
 15 14  1  6
 15 16  1  0
 16  8  1  0
 17 15  1  0
 17 27  1  0
 18 17  2  0
 19 20  1  0
 20 22  1  0
 21 20  2  0
 22 23  1  0
 23 24  1  0
 24 25  1  0
 26 25  1  1
 26 27  1  0
 26 28  1  0
 28 29  2  0
 28 30  1  0
M  END
$$$$
