KQR.pdb
     RDKit          3D

 30 29  0  0  1  0  0  0  0  0999 V2000
    6.3491  -18.4960   18.1657 N   0  0  0  0  0  0  0  0  0  0  0  0
    7.3844  -18.9725   19.0387 C   0  0  1  0  0  0  0  0  0  0  0  0
    8.4164  -19.7755   18.3464 C   0  0  0  0  0  0  0  0  0  0  0  0
    7.9014  -20.5237   17.1737 C   0  0  0  0  0  0  0  0  0  0  0  0
    8.4433  -21.9060   17.0621 C   0  0  0  0  0  0  0  0  0  0  0  0
    7.7949  -22.5027   15.7902 C   0  0  0  0  0  0  0  0  0  0  0  0
    8.2598  -23.8522   15.5981 N   0  0  0  0  0  0  0  0  0  0  0  0
    8.0476  -17.7959   19.6859 C   0  0  0  0  0  0  0  0  0  0  0  0
    9.1287  -17.9060   20.3079 O   0  0  0  0  0  0  0  0  0  0  0  0
    9.0507  -11.8357   18.5583 N   0  0  0  0  0  0  0  0  0  0  0  0
    9.0606  -12.4031   19.8622 C   0  0  0  0  0  0  0  0  0  0  0  0
   10.1588  -12.4660   20.4589 O   0  0  0  0  0  0  0  0  0  0  0  0
    7.7598  -12.8720   20.3974 C   0  0  0  0  0  0  0  0  0  0  0  0
    7.2555  -14.1405   19.7901 C   0  0  0  0  0  0  0  0  0  0  0  0
    7.9720  -15.3443   20.2912 C   0  0  2  0  0  0  0  0  0  0  0  0
    7.4430  -16.5419   19.5927 N   0  0  0  0  0  0  0  0  0  0  0  0
    7.6560  -15.5785   21.7134 C   0  0  0  0  0  0  0  0  0  0  0  0
    6.4351  -15.7673   22.0528 O   0  0  0  0  0  0  0  0  0  0  0  0
    8.1496  -22.3154   27.4207 N   0  0  0  0  0  0  0  0  0  0  0  0
    7.0585  -21.5627   26.9137 C   0  0  0  0  0  0  0  0  0  0  0  0
    5.9432  -22.1372   26.6887 N   0  0  0  0  0  0  0  0  0  0  0  0
    7.2349  -20.1838   26.6683 N   0  0  0  0  0  0  0  0  0  0  0  0
    7.7186  -19.7340   25.3815 C   0  0  0  0  0  0  0  0  0  0  0  0
    7.7681  -18.2238   25.4078 C   0  0  0  0  0  0  0  0  0  0  0  0
    8.1986  -17.6327   24.1039 C   0  0  0  0  0  0  0  0  0  0  0  0
    8.1984  -16.1158   24.0852 C   0  0  2  0  0  0  0  0  0  0  0  0
    8.5904  -15.6233   22.7706 N   0  0  0  0  0  0  0  0  0  0  0  0
    9.1369  -15.5618   25.0884 C   0  0  0  0  0  0  0  0  0  0  0  0
   10.2682  -15.1050   24.7860 O   0  0  0  0  0  0  0  0  0  0  0  0
    8.7836  -15.5302   26.4266 O   0  0  0  0  0  0  0  0  0  0  0  0
  2  1  1  6
  2  3  1  0
  4  3  1  0
  5  4  1  0
  6  5  1  0
  7  6  1  0
  8  9  2  0
  8  2  1  0
 10 11  1  0
 11 12  2  0
 11 13  1  0
 13 14  1  0
 15 14  1  6
 15 16  1  0
 16  8  1  0
 17 15  1  0
 17 27  1  0
 18 17  2  0
 19 20  1  0
 20 22  1  0
 21 20  2  0
 22 23  1  0
 23 24  1  0
 24 25  1  0
 26 25  1  6
 26 27  1  0
 26 28  1  0
 28 29  2  0
 28 30  1  0
M  END
$$$$
