KQR.pdb
     RDKit          3D

 30 29  0  0  1  0  0  0  0  0999 V2000
    4.5349  -25.4837   21.2673 N   0  0  0  0  0  0  0  0  0  0  0  0
    5.9327  -25.8085   21.2251 C   0  0  1  0  0  0  0  0  0  0  0  0
    6.5944  -25.4044   19.9651 C   0  0  0  0  0  0  0  0  0  0  0  0
    6.0220  -26.0495   18.7582 C   0  0  0  0  0  0  0  0  0  0  0  0
    6.6910  -25.6457   17.4908 C   0  0  0  0  0  0  0  0  0  0  0  0
    5.9716  -26.4379   16.3732 C   0  0  0  0  0  0  0  0  0  0  0  0
    6.5485  -26.1046   15.0963 N   0  0  0  0  0  0  0  0  0  0  0  0
    6.6200  -25.1257   22.3673 C   0  0  0  0  0  0  0  0  0  0  0  0
    6.2750  -23.9885   22.7616 O   0  0  0  0  0  0  0  0  0  0  0  0
    7.7549  -27.4783   27.6741 N   0  0  0  0  0  0  0  0  0  0  0  0
    8.4987  -26.2769   27.8348 C   0  0  0  0  0  0  0  0  0  0  0  0
    8.8938  -25.9892   28.9868 O   0  0  0  0  0  0  0  0  0  0  0  0
    8.7381  -25.4703   26.6140 C   0  0  0  0  0  0  0  0  0  0  0  0
    8.0342  -25.9634   25.3919 C   0  0  0  0  0  0  0  0  0  0  0  0
    8.3874  -25.1894   24.1713 C   0  0  2  0  0  0  0  0  0  0  0  0
    7.6744  -25.7757   23.0094 N   0  0  0  0  0  0  0  0  0  0  0  0
    9.8174  -25.3582   23.8486 C   0  0  0  0  0  0  0  0  0  0  0  0
   10.2259  -26.4963   23.4253 O   0  0  0  0  0  0  0  0  0  0  0  0
   10.3502  -19.8515   18.6613 N   0  0  0  0  0  0  0  0  0  0  0  0
   11.4445  -20.5539   19.2299 C   0  0  0  0  0  0  0  0  0  0  0  0
   12.5691  -20.5664   18.6303 N   0  0  0  0  0  0  0  0  0  0  0  0
   11.2607  -21.2281   20.4565 N   0  0  0  0  0  0  0  0  0  0  0  0
   12.3467  -21.9893   21.0336 C   0  0  0  0  0  0  0  0  0  0  0  0
   11.9137  -22.4446   22.4080 C   0  0  0  0  0  0  0  0  0  0  0  0
   12.8643  -23.4198   23.0245 C   0  0  0  0  0  0  0  0  0  0  0  0
   12.1943  -24.6535   23.5995 C   0  0  2  0  0  0  0  0  0  0  0  0
   10.8115  -24.3617   23.9561 N   0  0  0  0  0  0  0  0  0  0  0  0
   12.8956  -25.1352   24.8119 C   0  0  0  0  0  0  0  0  0  0  0  0
   12.4224  -25.0102   25.9696 O   0  0  0  0  0  0  0  0  0  0  0  0
   14.1283  -25.7556   24.7006 O   0  0  0  0  0  0  0  0  0  0  0  0
  2  1  1  6
  2  3  1  0
  4  3  1  0
  5  4  1  0
  6  5  1  0
  7  6  1  0
  8  9  2  0
  8  2  1  0
 10 11  1  0
 11 12  2  0
 11 13  1  0
 13 14  1  0
 15 14  1  1
 15 16  1  0
 16  8  1  0
 17 15  1  0
 17 27  1  0
 18 17  2  0
 19 20  1  0
 20 22  1  0
 21 20  2  0
 22 23  1  0
 23 24  1  0
 24 25  1  0
 26 25  1  1
 26 27  1  0
 26 28  1  0
 28 29  2  0
 28 30  1  0
M  END
$$$$
