KQR.pdb
     RDKit          3D

 30 29  0  0  1  0  0  0  0  0999 V2000
    9.1378  -18.8988   16.3498 N   0  0  0  0  0  0  0  0  0  0  0  0
    8.3042  -18.4107   17.4118 C   0  0  1  0  0  0  0  0  0  0  0  0
    7.7377  -19.4841   18.2578 C   0  0  0  0  0  0  0  0  0  0  0  0
    8.3149  -20.8234   17.9866 C   0  0  0  0  0  0  0  0  0  0  0  0
    7.6264  -21.9281   18.7094 C   0  0  0  0  0  0  0  0  0  0  0  0
    8.3161  -23.2280   18.2309 C   0  0  0  0  0  0  0  0  0  0  0  0
    7.7228  -24.3616   18.8921 N   0  0  0  0  0  0  0  0  0  0  0  0
    9.1143  -17.4958   18.2776 C   0  0  0  0  0  0  0  0  0  0  0  0
   10.3647  -17.5526   18.3110 O   0  0  0  0  0  0  0  0  0  0  0  0
    6.4585  -12.3444   20.3244 N   0  0  0  0  0  0  0  0  0  0  0  0
    7.0307  -12.5170   19.0340 C   0  0  0  0  0  0  0  0  0  0  0  0
    6.6367  -11.7597   18.1191 O   0  0  0  0  0  0  0  0  0  0  0  0
    8.0475  -13.5865   18.8909 C   0  0  0  0  0  0  0  0  0  0  0  0
    8.2890  -14.3879   20.1285 C   0  0  0  0  0  0  0  0  0  0  0  0
    9.1810  -15.5556   19.8943 C   0  0  2  0  0  0  0  0  0  0  0  0
    8.4565  -16.5538   19.0693 N   0  0  0  0  0  0  0  0  0  0  0  0
    9.4567  -16.2573   21.1627 C   0  0  0  0  0  0  0  0  0  0  0  0
    8.6051  -17.1113   21.5950 O   0  0  0  0  0  0  0  0  0  0  0  0
   16.1549  -20.2878   20.4486 N   0  0  0  0  0  0  0  0  0  0  0  0
   15.3594  -21.3807   20.8808 C   0  0  0  0  0  0  0  0  0  0  0  0
   15.8573  -22.5536   20.9097 N   0  0  0  0  0  0  0  0  0  0  0  0
   14.0243  -21.1417   21.2718 N   0  0  0  0  0  0  0  0  0  0  0  0
   13.2915  -20.0318   20.7034 C   0  0  0  0  0  0  0  0  0  0  0  0
   12.7453  -19.2049   21.8443 C   0  0  0  0  0  0  0  0  0  0  0  0
   11.8472  -18.1014   21.3857 C   0  0  0  0  0  0  0  0  0  0  0  0
   11.3091  -17.2373   22.5105 C   0  0  2  0  0  0  0  0  0  0  0  0
   10.6008  -16.0833   21.9711 N   0  0  0  0  0  0  0  0  0  0  0  0
   12.3989  -16.7470   23.3856 C   0  0  0  0  0  0  0  0  0  0  0  0
   12.8674  -17.4224   24.3364 O   0  0  0  0  0  0  0  0  0  0  0  0
   12.9486  -15.4941   23.1740 O   0  0  0  0  0  0  0  0  0  0  0  0
  2  1  1  6
  2  3  1  0
  4  3  1  0
  5  4  1  0
  6  5  1  0
  7  6  1  0
  8  9  2  0
  8  2  1  0
 10 11  1  0
 11 12  2  0
 11 13  1  0
 13 14  1  0
 15 14  1  1
 15 16  1  0
 16  8  1  0
 17 15  1  0
 17 27  1  0
 18 17  2  0
 19 20  1  0
 20 22  1  0
 21 20  2  0
 22 23  1  0
 23 24  1  0
 24 25  1  0
 26 25  1  6
 26 27  1  0
 26 28  1  0
 28 29  2  0
 28 30  1  0
M  END
$$$$
