KQR.pdb
     RDKit          3D

 30 29  0  0  1  0  0  0  0  0999 V2000
    8.8665  -20.9528   20.0215 N   0  0  0  0  0  0  0  0  0  0  0  0
    8.6710  -19.7991   19.1897 C   0  0  1  0  0  0  0  0  0  0  0  0
    7.2479  -19.5112   18.9055 C   0  0  0  0  0  0  0  0  0  0  0  0
    6.4688  -20.7054   18.4964 C   0  0  0  0  0  0  0  0  0  0  0  0
    5.0602  -20.4004   18.1227 C   0  0  0  0  0  0  0  0  0  0  0  0
    4.4222  -21.7647   17.7678 C   0  0  0  0  0  0  0  0  0  0  0  0
    3.0475  -21.5705   17.3848 N   0  0  0  0  0  0  0  0  0  0  0  0
    9.2740  -18.6083   19.8691 C   0  0  0  0  0  0  0  0  0  0  0  0
    9.2368  -17.4662   19.3573 O   0  0  0  0  0  0  0  0  0  0  0  0
   11.9248  -19.2451   25.5124 N   0  0  0  0  0  0  0  0  0  0  0  0
   11.4618  -20.1891   24.5549 C   0  0  0  0  0  0  0  0  0  0  0  0
   11.4755  -21.3978   24.8788 O   0  0  0  0  0  0  0  0  0  0  0  0
   11.0034  -19.6502   23.2520 C   0  0  0  0  0  0  0  0  0  0  0  0
   11.0349  -18.1602   23.1468 C   0  0  0  0  0  0  0  0  0  0  0  0
   10.5674  -17.6655   21.8238 C   0  0  2  0  0  0  0  0  0  0  0  0
    9.8946  -18.7773   21.1073 N   0  0  0  0  0  0  0  0  0  0  0  0
   11.7171  -17.3181   20.9667 C   0  0  0  0  0  0  0  0  0  0  0  0
   11.7385  -17.7429   19.7582 O   0  0  0  0  0  0  0  0  0  0  0  0
    7.7565  -14.3953   18.4753 N   0  0  0  0  0  0  0  0  0  0  0  0
    8.5282  -13.4603   17.7376 C   0  0  0  0  0  0  0  0  0  0  0  0
    8.2619  -13.2487   16.5093 N   0  0  0  0  0  0  0  0  0  0  0  0
    9.5816  -12.7805   18.3864 N   0  0  0  0  0  0  0  0  0  0  0  0
   10.0203  -13.2083   19.6965 C   0  0  0  0  0  0  0  0  0  0  0  0
   11.4023  -13.8023   19.5509 C   0  0  0  0  0  0  0  0  0  0  0  0
   11.9563  -14.3113   20.8427 C   0  0  0  0  0  0  0  0  0  0  0  0
   13.1155  -15.2760   20.6782 C   0  0  2  0  0  0  0  0  0  0  0  0
   12.8277  -16.5363   21.3516 N   0  0  0  0  0  0  0  0  0  0  0  0
   14.3665  -14.7210   21.2446 C   0  0  0  0  0  0  0  0  0  0  0  0
   14.6102  -14.7062   22.4776 O   0  0  0  0  0  0  0  0  0  0  0  0
   15.3312  -14.1878   20.4069 O   0  0  0  0  0  0  0  0  0  0  0  0
  2  1  1  1
  2  3  1  0
  4  3  1  0
  5  4  1  0
  6  5  1  0
  7  6  1  0
  8  9  2  0
  8  2  1  0
 10 11  1  0
 11 12  2  0
 11 13  1  0
 13 14  1  0
 15 14  1  1
 15 16  1  0
 16  8  1  0
 17 15  1  0
 17 27  1  0
 18 17  2  0
 19 20  1  0
 20 22  1  0
 21 20  2  0
 22 23  1  0
 23 24  1  0
 24 25  1  0
 26 25  1  1
 26 27  1  0
 26 28  1  0
 28 29  2  0
 28 30  1  0
M  END
$$$$
