KQR.pdb
     RDKit          3D

 30 29  0  0  1  0  0  0  0  0999 V2000
    9.1861  -17.9064   14.5098 N   0  0  0  0  0  0  0  0  0  0  0  0
    8.8445  -17.9655   15.9030 C   0  0  1  0  0  0  0  0  0  0  0  0
    9.4648  -19.1047   16.6146 C   0  0  0  0  0  0  0  0  0  0  0  0
    9.3536  -20.3929   15.8876 C   0  0  0  0  0  0  0  0  0  0  0  0
    9.9430  -21.5461   16.6222 C   0  0  0  0  0  0  0  0  0  0  0  0
    9.7891  -22.7609   15.6762 C   0  0  0  0  0  0  0  0  0  0  0  0
   10.4064  -23.9182   16.2710 N   0  0  0  0  0  0  0  0  0  0  0  0
    9.2839  -16.6936   16.5605 C   0  0  0  0  0  0  0  0  0  0  0  0
   10.1268  -15.9333   16.0319 O   0  0  0  0  0  0  0  0  0  0  0  0
    6.0094  -14.0283   21.2309 N   0  0  0  0  0  0  0  0  0  0  0  0
    7.0696  -13.0916   21.0855 C   0  0  0  0  0  0  0  0  0  0  0  0
    7.0332  -12.0604   21.7934 O   0  0  0  0  0  0  0  0  0  0  0  0
    8.1267  -13.4256   20.1011 C   0  0  0  0  0  0  0  0  0  0  0  0
    7.8915  -14.6873   19.3363 C   0  0  0  0  0  0  0  0  0  0  0  0
    9.0455  -15.0635   18.4758 C   0  0  2  0  0  0  0  0  0  0  0  0
    8.7383  -16.3468   17.7970 N   0  0  0  0  0  0  0  0  0  0  0  0
   10.2313  -15.3595   19.3025 C   0  0  0  0  0  0  0  0  0  0  0  0
   10.6752  -14.4548   20.0937 O   0  0  0  0  0  0  0  0  0  0  0  0
   10.5325  -18.4477   26.5678 N   0  0  0  0  0  0  0  0  0  0  0  0
   11.3919  -19.3616   25.9042 C   0  0  0  0  0  0  0  0  0  0  0  0
   11.9161  -20.3240   26.5548 N   0  0  0  0  0  0  0  0  0  0  0  0
   11.6484  -19.1821   24.5278 N   0  0  0  0  0  0  0  0  0  0  0  0
   11.4015  -17.8992   23.9070 C   0  0  0  0  0  0  0  0  0  0  0  0
   11.7842  -18.0091   22.4492 C   0  0  0  0  0  0  0  0  0  0  0  0
   11.5256  -16.7518   21.6830 C   0  0  0  0  0  0  0  0  0  0  0  0
   12.0404  -16.7829   20.2563 C   0  0  2  0  0  0  0  0  0  0  0  0
   10.9457  -16.5769   19.3162 N   0  0  0  0  0  0  0  0  0  0  0  0
   12.6862  -18.0782   19.9417 C   0  0  0  0  0  0  0  0  0  0  0  0
   12.1237  -18.9749   19.2640 O   0  0  0  0  0  0  0  0  0  0  0  0
   13.9656  -18.3451   20.3985 O   0  0  0  0  0  0  0  0  0  0  0  0
  2  1  1  6
  2  3  1  0
  4  3  1  0
  5  4  1  0
  6  5  1  0
  7  6  1  0
  8  9  2  0
  8  2  1  0
 10 11  1  0
 11 12  2  0
 11 13  1  0
 13 14  1  0
 15 14  1  1
 15 16  1  0
 16  8  1  0
 17 15  1  0
 17 27  1  0
 18 17  2  0
 19 20  1  0
 20 22  1  0
 21 20  2  0
 22 23  1  0
 23 24  1  0
 24 25  1  0
 26 25  1  1
 26 27  1  0
 26 28  1  0
 28 29  2  0
 28 30  1  0
M  END
$$$$
