KQR.pdb
     RDKit          3D

 30 29  0  0  1  0  0  0  0  0999 V2000
    9.9483  -19.1245   16.6116 N   0  0  0  0  0  0  0  0  0  0  0  0
    8.8960  -18.5284   17.3850 C   0  0  1  0  0  0  0  0  0  0  0  0
    8.0457  -19.5165   18.0846 C   0  0  0  0  0  0  0  0  0  0  0  0
    8.8149  -20.5344   18.8413 C   0  0  0  0  0  0  0  0  0  0  0  0
    7.9625  -21.5770   19.4763 C   0  0  0  0  0  0  0  0  0  0  0  0
    8.9471  -22.5577   20.1569 C   0  0  0  0  0  0  0  0  0  0  0  0
    8.3517  -23.0850   21.3576 N   0  0  0  0  0  0  0  0  0  0  0  0
    9.5056  -17.6150   18.4035 C   0  0  0  0  0  0  0  0  0  0  0  0
   10.6858  -17.7573   18.7966 O   0  0  0  0  0  0  0  0  0  0  0  0
    6.4307  -12.4822   20.2667 N   0  0  0  0  0  0  0  0  0  0  0  0
    7.0566  -12.6273   18.9980 C   0  0  0  0  0  0  0  0  0  0  0  0
    6.7069  -11.8450   18.0861 O   0  0  0  0  0  0  0  0  0  0  0  0
    8.0721  -13.7002   18.8722 C   0  0  0  0  0  0  0  0  0  0  0  0
    8.2731  -14.5175   20.1066 C   0  0  0  0  0  0  0  0  0  0  0  0
    9.2673  -15.6086   19.9201 C   0  0  2  0  0  0  0  0  0  0  0  0
    8.7358  -16.5765   18.9288 N   0  0  0  0  0  0  0  0  0  0  0  0
    9.4106  -16.3943   21.1609 C   0  0  0  0  0  0  0  0  0  0  0  0
    8.3703  -16.9425   21.6696 O   0  0  0  0  0  0  0  0  0  0  0  0
   14.0258  -23.2843   23.0250 N   0  0  0  0  0  0  0  0  0  0  0  0
   13.3657  -23.0150   24.2521 C   0  0  0  0  0  0  0  0  0  0  0  0
   13.4995  -23.8184   25.2325 N   0  0  0  0  0  0  0  0  0  0  0  0
   12.5696  -21.8543   24.3595 N   0  0  0  0  0  0  0  0  0  0  0  0
   12.2019  -21.1165   23.1710 C   0  0  0  0  0  0  0  0  0  0  0  0
   11.4516  -19.8795   23.6076 C   0  0  0  0  0  0  0  0  0  0  0  0
   11.3914  -18.8298   22.5450 C   0  0  0  0  0  0  0  0  0  0  0  0
   10.6639  -17.5672   22.9670 C   0  0  2  0  0  0  0  0  0  0  0  0
   10.6146  -16.6159   21.8638 N   0  0  0  0  0  0  0  0  0  0  0  0
   11.3341  -16.9139   24.1150 C   0  0  0  0  0  0  0  0  0  0  0  0
   11.3477  -17.4093   25.2701 O   0  0  0  0  0  0  0  0  0  0  0  0
   11.9843  -15.7039   23.9425 O   0  0  0  0  0  0  0  0  0  0  0  0
  2  1  1  1
  2  3  1  0
  4  3  1  0
  5  4  1  0
  6  5  1  0
  7  6  1  0
  8  9  2  0
  8  2  1  0
 10 11  1  0
 11 12  2  0
 11 13  1  0
 13 14  1  0
 15 14  1  1
 15 16  1  0
 16  8  1  0
 17 15  1  0
 17 27  1  0
 18 17  2  0
 19 20  1  0
 20 22  1  0
 21 20  2  0
 22 23  1  0
 23 24  1  0
 24 25  1  0
 26 25  1  6
 26 27  1  0
 26 28  1  0
 28 29  2  0
 28 30  1  0
M  END
$$$$
