KQR.pdb
     RDKit          3D

 30 29  0  0  1  0  0  0  0  0999 V2000
    8.0803  -19.7333   17.8893 N   0  0  0  0  0  0  0  0  0  0  0  0
    7.6352  -19.1943   19.1432 C   0  0  1  0  0  0  0  0  0  0  0  0
    7.9262  -20.0711   20.2987 C   0  0  0  0  0  0  0  0  0  0  0  0
    8.2746  -21.4619   19.9182 C   0  0  0  0  0  0  0  0  0  0  0  0
    8.5928  -22.3371   21.0799 C   0  0  0  0  0  0  0  0  0  0  0  0
    8.9038  -23.7277   20.4767 C   0  0  0  0  0  0  0  0  0  0  0  0
    9.3232  -24.6253   21.5220 N   0  0  0  0  0  0  0  0  0  0  0  0
    8.3051  -17.8730   19.3639 C   0  0  0  0  0  0  0  0  0  0  0  0
    9.4258  -17.6098   18.8715 O   0  0  0  0  0  0  0  0  0  0  0  0
    7.8472  -11.1619   19.4822 N   0  0  0  0  0  0  0  0  0  0  0  0
    8.0148  -12.5710   19.5756 C   0  0  0  0  0  0  0  0  0  0  0  0
    8.4853  -13.1662   18.5804 O   0  0  0  0  0  0  0  0  0  0  0  0
    7.6128  -13.2091   20.8521 C   0  0  0  0  0  0  0  0  0  0  0  0
    7.1428  -14.6215   20.7233 C   0  0  0  0  0  0  0  0  0  0  0  0
    8.2432  -15.5677   20.3953 C   0  0  2  0  0  0  0  0  0  0  0  0
    7.6616  -16.9088   20.1405 N   0  0  0  0  0  0  0  0  0  0  0  0
    9.1213  -15.7638   21.5649 C   0  0  0  0  0  0  0  0  0  0  0  0
    9.6634  -14.7391   22.1102 O   0  0  0  0  0  0  0  0  0  0  0  0
   11.9097  -21.9324   28.1389 N   0  0  0  0  0  0  0  0  0  0  0  0
   11.1248  -21.7220   26.9754 C   0  0  0  0  0  0  0  0  0  0  0  0
   10.4981  -22.6991   26.4493 N   0  0  0  0  0  0  0  0  0  0  0  0
   11.0558  -20.4248   26.4231 N   0  0  0  0  0  0  0  0  0  0  0  0
   11.7723  -20.1180   25.2047 C   0  0  0  0  0  0  0  0  0  0  0  0
   11.5089  -18.6693   24.8649 C   0  0  0  0  0  0  0  0  0  0  0  0
   10.5071  -18.5013   23.7681 C   0  0  0  0  0  0  0  0  0  0  0  0
   10.3162  -17.0637   23.3230 C   0  0  2  0  0  0  0  0  0  0  0  0
    9.4303  -17.0026   22.1671 N   0  0  0  0  0  0  0  0  0  0  0  0
   11.6057  -16.4350   22.9545 C   0  0  0  0  0  0  0  0  0  0  0  0
   12.2006  -15.6122   23.6953 O   0  0  0  0  0  0  0  0  0  0  0  0
   12.2100  -16.7458   21.7483 O   0  0  0  0  0  0  0  0  0  0  0  0
  2  1  1  6
  2  3  1  0
  4  3  1  0
  5  4  1  0
  6  5  1  0
  7  6  1  0
  8  9  2  0
  8  2  1  0
 10 11  1  0
 11 12  2  0
 11 13  1  0
 13 14  1  0
 15 14  1  1
 15 16  1  0
 16  8  1  0
 17 15  1  0
 17 27  1  0
 18 17  2  0
 19 20  1  0
 20 22  1  0
 21 20  2  0
 22 23  1  0
 23 24  1  0
 24 25  1  0
 26 25  1  6
 26 27  1  0
 26 28  1  0
 28 29  2  0
 28 30  1  0
M  END
$$$$
