KQR.pdb
     RDKit          3D

 30 29  0  0  1  0  0  0  0  0999 V2000
    8.1314  -17.8849   18.0626 N   0  0  0  0  0  0  0  0  0  0  0  0
    9.2082  -16.9982   18.4023 C   0  0  1  0  0  0  0  0  0  0  0  0
    8.7582  -15.7400   19.0373 C   0  0  0  0  0  0  0  0  0  0  0  0
    7.9351  -14.8849   18.1475 C   0  0  0  0  0  0  0  0  0  0  0  0
    7.5766  -13.5700   18.7469 C   0  0  0  0  0  0  0  0  0  0  0  0
    6.7358  -12.8411   17.6716 C   0  0  0  0  0  0  0  0  0  0  0  0
    6.3431  -11.5450   18.1615 N   0  0  0  0  0  0  0  0  0  0  0  0
   10.1347  -17.7048   19.3432 C   0  0  0  0  0  0  0  0  0  0  0  0
    9.7080  -18.4174   20.2803 O   0  0  0  0  0  0  0  0  0  0  0  0
   16.0905  -19.1184   18.0176 N   0  0  0  0  0  0  0  0  0  0  0  0
   16.1024  -19.3182   19.4255 C   0  0  0  0  0  0  0  0  0  0  0  0
   17.1625  -19.7358   19.9429 O   0  0  0  0  0  0  0  0  0  0  0  0
   14.8484  -19.0122   20.1550 C   0  0  0  0  0  0  0  0  0  0  0  0
   13.7368  -18.5001   19.2983 C   0  0  0  0  0  0  0  0  0  0  0  0
   12.5013  -18.2041   20.0727 C   0  0  2  0  0  0  0  0  0  0  0  0
   11.5121  -17.5646   19.1703 N   0  0  0  0  0  0  0  0  0  0  0  0
   12.7707  -17.1845   21.1047 C   0  0  0  0  0  0  0  0  0  0  0  0
   12.1024  -16.0916   21.0839 O   0  0  0  0  0  0  0  0  0  0  0  0
    8.8854  -15.5171   27.8520 N   0  0  0  0  0  0  0  0  0  0  0  0
    9.7655  -14.4128   27.7105 C   0  0  0  0  0  0  0  0  0  0  0  0
    9.5259  -13.3282   28.3355 N   0  0  0  0  0  0  0  0  0  0  0  0
   10.8952  -14.5421   26.8740 N   0  0  0  0  0  0  0  0  0  0  0  0
   10.8769  -15.4803   25.7734 C   0  0  0  0  0  0  0  0  0  0  0  0
   12.2374  -15.4494   25.1162 C   0  0  0  0  0  0  0  0  0  0  0  0
   12.3339  -16.3597   23.9343 C   0  0  0  0  0  0  0  0  0  0  0  0
   13.6959  -16.3596   23.2662 C   0  0  2  0  0  0  0  0  0  0  0  0
   13.7143  -17.2953   22.1488 N   0  0  0  0  0  0  0  0  0  0  0  0
   14.7647  -16.7475   24.2155 C   0  0  0  0  0  0  0  0  0  0  0  0
   15.1595  -17.9330   24.3520 O   0  0  0  0  0  0  0  0  0  0  0  0
   15.3774  -15.7867   25.0017 O   0  0  0  0  0  0  0  0  0  0  0  0
  2  1  1  1
  2  3  1  0
  4  3  1  0
  5  4  1  0
  6  5  1  0
  7  6  1  0
  8  9  2  0
  8  2  1  0
 10 11  1  0
 11 12  2  0
 11 13  1  0
 13 14  1  0
 15 14  1  6
 15 16  1  0
 16  8  1  0
 17 15  1  0
 17 27  1  0
 18 17  2  0
 19 20  1  0
 20 22  1  0
 21 20  2  0
 22 23  1  0
 23 24  1  0
 24 25  1  0
 26 25  1  1
 26 27  1  0
 26 28  1  0
 28 29  2  0
 28 30  1  0
M  END
$$$$
