YWE.pdb
     RDKit          3D

 36 38  0  0  1  0  0  0  0  0999 V2000
    7.0838  -13.5134   15.4282 O   0  0  0  0  0  0  0  0  0  0  0  0
    7.4724  -13.6880   16.7531 C   0  0  0  0  0  0  0  0  0  0  0  0
    6.6899  -13.0993   17.7617 C   0  0  0  0  0  0  0  0  0  0  0  0
    7.0734  -13.2710   19.0746 C   0  0  0  0  0  0  0  0  0  0  0  0
    8.2054  -14.0053   19.4337 C   0  0  0  0  0  0  0  0  0  0  0  0
    8.5566  -14.1309   20.8469 C   0  0  0  0  0  0  0  0  0  0  0  0
    8.8279  -15.5947   21.1787 C   0  0  2  0  0  0  0  0  0  0  0  0
    7.5623  -16.2668   21.0260 N   0  0  0  0  0  0  0  0  0  0  0  0
    9.3038  -15.7446   22.5612 C   0  0  0  0  0  0  0  0  0  0  0  0
   10.1517  -14.9296   23.0178 O   0  0  0  0  0  0  0  0  0  0  0  0
    8.9514  -14.5695   18.4250 C   0  0  0  0  0  0  0  0  0  0  0  0
    8.5918  -14.4153   17.0816 C   0  0  0  0  0  0  0  0  0  0  0  0
    8.8779  -16.7636   23.4710 N   0  0  0  0  0  0  0  0  0  0  0  0
    9.3816  -16.8466   24.8184 C   0  0  1  0  0  0  0  0  0  0  0  0
    8.3128  -16.7054   25.8518 C   0  0  0  0  0  0  0  0  0  0  0  0
    7.3627  -15.6110   25.6712 C   0  0  0  0  0  0  0  0  0  0  0  0
    6.1354  -15.5694   25.0509 C   0  0  0  0  0  0  0  0  0  0  0  0
    5.6690  -14.3132   25.1541 N   0  0  0  0  0  0  0  0  0  0  0  0
    6.5577  -13.5466   25.8211 C   0  0  0  0  0  0  0  0  0  0  0  0
    6.5674  -12.2029   26.1922 C   0  0  0  0  0  0  0  0  0  0  0  0
    7.6255  -11.6502   26.8867 C   0  0  0  0  0  0  0  0  0  0  0  0
    8.6909  -12.4889   27.2057 C   0  0  0  0  0  0  0  0  0  0  0  0
    8.7049  -13.8067   26.8545 C   0  0  0  0  0  0  0  0  0  0  0  0
    7.6356  -14.3272   26.1635 C   0  0  0  0  0  0  0  0  0  0  0  0
   10.2823  -17.9992   25.0166 C   0  0  0  0  0  0  0  0  0  0  0  0
    9.8130  -19.1784   24.8612 O   0  0  0  0  0  0  0  0  0  0  0  0
   11.6409  -17.8746   25.3678 N   0  0  0  0  0  0  0  0  0  0  0  0
   12.4605  -19.0745   25.5832 C   0  0  1  0  0  0  0  0  0  0  0  0
   13.9039  -18.7668   25.3838 C   0  0  0  0  0  0  0  0  0  0  0  0
   14.7647  -19.9619   25.6602 C   0  0  0  0  0  0  0  0  0  0  0  0
   16.2200  -19.5706   25.4667 C   0  0  0  0  0  0  0  0  0  0  0  0
   16.8390  -19.1751   26.4788 O   0  0  0  0  0  0  0  0  0  0  0  0
   12.1569  -19.6769   26.8789 C   0  0  0  0  0  0  0  0  0  0  0  0
   12.1263  -20.9041   27.0835 O   0  0  0  0  0  0  0  0  0  0  0  0
   16.7837  -19.6655   24.2098 O   0  0  0  0  0  0  0  0  0  0  0  0
   11.8694  -18.8846   28.0158 O   0  0  0  0  0  0  0  0  0  0  0  0
  2 12  2  0
  2  1  1  0
  3  2  1  0
  4  5  1  0
  4  3  2  0
  5 11  2  0
  6  7  1  0
  6  5  1  0
  7  8  1  1
  9  7  1  0
  9 13  1  0
 10  9  2  0
 11 12  1  0
 14 13  1  0
 14 15  1  1
 15 16  1  0
 16 17  2  0
 18 17  1  0
 19 18  1  0
 20 19  2  0
 21 20  1  0
 22 21  2  0
 22 23  1  0
 23 24  2  0
 24 19  1  0
 24 16  1  0
 25 14  1  0
 25 26  2  0
 27 25  1  0
 28 27  1  0
 28 33  1  0
 28 29  1  1
 30 29  1  0
 30 31  1  0
 31 32  2  0
 31 35  1  0
 33 34  2  0
 33 36  1  0
M  END
$$$$
