YWE.pdb
     RDKit          3D

 36 38  0  0  1  0  0  0  0  0999 V2000
    7.0015  -13.6002   15.0573 O   0  0  0  0  0  0  0  0  0  0  0  0
    7.3288  -13.6499   16.4090 C   0  0  0  0  0  0  0  0  0  0  0  0
    7.7043  -14.8874   16.9601 C   0  0  0  0  0  0  0  0  0  0  0  0
    8.0287  -14.9387   18.2990 C   0  0  0  0  0  0  0  0  0  0  0  0
    7.9970  -13.8101   19.1204 C   0  0  0  0  0  0  0  0  0  0  0  0
    8.3403  -13.9461   20.5346 C   0  0  0  0  0  0  0  0  0  0  0  0
    8.8901  -15.3447   20.7955 C   0  0  2  0  0  0  0  0  0  0  0  0
    7.7629  -16.2334   20.6674 N   0  0  0  0  0  0  0  0  0  0  0  0
    9.4505  -15.4488   22.1503 C   0  0  0  0  0  0  0  0  0  0  0  0
   10.5469  -14.8832   22.4138 O   0  0  0  0  0  0  0  0  0  0  0  0
    7.6256  -12.6131   18.5531 C   0  0  0  0  0  0  0  0  0  0  0  0
    7.2897  -12.5245   17.1977 C   0  0  0  0  0  0  0  0  0  0  0  0
    8.8454  -16.1551   23.2378 N   0  0  0  0  0  0  0  0  0  0  0  0
    9.4568  -16.2242   24.5407 C   0  0  1  0  0  0  0  0  0  0  0  0
    8.4651  -16.3993   25.6433 C   0  0  0  0  0  0  0  0  0  0  0  0
    7.3456  -15.4618   25.6770 C   0  0  0  0  0  0  0  0  0  0  0  0
    6.0140  -15.6292   25.3744 C   0  0  0  0  0  0  0  0  0  0  0  0
    5.4018  -14.4475   25.5617 N   0  0  0  0  0  0  0  0  0  0  0  0
    6.2980  -13.5264   25.9750 C   0  0  0  0  0  0  0  0  0  0  0  0
    6.1933  -12.1758   26.3038 C   0  0  0  0  0  0  0  0  0  0  0  0
    7.2907  -11.4406   26.7070 C   0  0  0  0  0  0  0  0  0  0  0  0
    8.5152  -12.1011   26.7740 C   0  0  0  0  0  0  0  0  0  0  0  0
    8.6435  -13.4217   26.4581 C   0  0  0  0  0  0  0  0  0  0  0  0
    7.5314  -14.1264   26.0603 C   0  0  0  0  0  0  0  0  0  0  0  0
   10.5969  -17.1610   24.5826 C   0  0  0  0  0  0  0  0  0  0  0  0
   10.4269  -18.3538   24.1547 O   0  0  0  0  0  0  0  0  0  0  0  0
   11.8728  -16.8139   25.0687 N   0  0  0  0  0  0  0  0  0  0  0  0
   12.9855  -17.7676   24.9682 C   0  0  1  0  0  0  0  0  0  0  0  0
   14.1569  -17.1387   24.2973 C   0  0  0  0  0  0  0  0  0  0  0  0
   15.3297  -18.0703   24.2499 C   0  0  0  0  0  0  0  0  0  0  0  0
   16.5050  -17.3438   23.6181 C   0  0  0  0  0  0  0  0  0  0  0  0
   17.6091  -17.4431   24.1968 O   0  0  0  0  0  0  0  0  0  0  0  0
   13.2897  -18.3401   26.2772 C   0  0  0  0  0  0  0  0  0  0  0  0
   12.8863  -17.8633   27.3538 O   0  0  0  0  0  0  0  0  0  0  0  0
   16.3078  -16.6206   22.4584 O   0  0  0  0  0  0  0  0  0  0  0  0
   14.0841  -19.5037   26.4112 O   0  0  0  0  0  0  0  0  0  0  0  0
  2 12  2  0
  2  1  1  0
  3  2  1  0
  4  5  1  0
  4  3  2  0
  5 11  2  0
  6  7  1  0
  6  5  1  0
  7  8  1  1
  9  7  1  0
  9 13  1  0
 10  9  2  0
 11 12  1  0
 14 13  1  0
 14 15  1  1
 15 16  1  0
 16 17  2  0
 18 17  1  0
 19 18  1  0
 20 19  2  0
 21 20  1  0
 22 21  2  0
 22 23  1  0
 23 24  2  0
 24 19  1  0
 24 16  1  0
 25 14  1  0
 25 26  2  0
 27 25  1  0
 28 27  1  0
 28 33  1  0
 28 29  1  1
 30 29  1  0
 30 31  1  0
 31 32  2  0
 31 35  1  0
 33 34  2  0
 33 36  1  0
M  END
$$$$
