YWE.pdb
     RDKit          3D

 36 38  0  0  1  0  0  0  0  0999 V2000
    9.6448  -20.6771   13.9977 O   0  0  0  0  0  0  0  0  0  0  0  0
    9.6998  -20.1486   15.2840 C   0  0  0  0  0  0  0  0  0  0  0  0
   10.7692  -19.2966   15.6107 C   0  0  0  0  0  0  0  0  0  0  0  0
   10.8254  -18.7723   16.8844 C   0  0  0  0  0  0  0  0  0  0  0  0
    9.8622  -19.0573   17.8542 C   0  0  0  0  0  0  0  0  0  0  0  0
    9.9977  -18.4752   19.1880 C   0  0  0  0  0  0  0  0  0  0  0  0
    9.5920  -17.0054   19.1486 C   0  0  2  0  0  0  0  0  0  0  0  0
   10.6208  -16.3405   18.3896 N   0  0  0  0  0  0  0  0  0  0  0  0
    9.5308  -16.4368   20.5026 C   0  0  0  0  0  0  0  0  0  0  0  0
   10.6002  -16.1184   21.0913 O   0  0  0  0  0  0  0  0  0  0  0  0
    8.8277  -19.8942   17.5054 C   0  0  0  0  0  0  0  0  0  0  0  0
    8.7392  -20.4445   16.2219 C   0  0  0  0  0  0  0  0  0  0  0  0
    8.3280  -16.1998   21.2407 N   0  0  0  0  0  0  0  0  0  0  0  0
    8.3454  -15.7312   22.6031 C   0  0  1  0  0  0  0  0  0  0  0  0
    7.0062  -15.2756   23.0818 C   0  0  0  0  0  0  0  0  0  0  0  0
    6.8511  -15.0858   24.5216 C   0  0  0  0  0  0  0  0  0  0  0  0
    6.4549  -15.9539   25.5127 C   0  0  0  0  0  0  0  0  0  0  0  0
    6.4708  -15.2799   26.6752 N   0  0  0  0  0  0  0  0  0  0  0  0
    6.8648  -14.0063   26.4624 C   0  0  0  0  0  0  0  0  0  0  0  0
    7.0473  -12.9118   27.3062 C   0  0  0  0  0  0  0  0  0  0  0  0
    7.4669  -11.6872   26.8248 C   0  0  0  0  0  0  0  0  0  0  0  0
    7.7030  -11.5833   25.4560 C   0  0  0  0  0  0  0  0  0  0  0  0
    7.5323  -12.6394   24.6099 C   0  0  0  0  0  0  0  0  0  0  0  0
    7.1138  -13.8460   25.1204 C   0  0  0  0  0  0  0  0  0  0  0  0
    9.0416  -16.6616   23.5135 C   0  0  0  0  0  0  0  0  0  0  0  0
    8.7712  -17.9091   23.4400 O   0  0  0  0  0  0  0  0  0  0  0  0
    9.9963  -16.2520   24.4649 N   0  0  0  0  0  0  0  0  0  0  0  0
   10.7006  -17.2502   25.2808 C   0  0  1  0  0  0  0  0  0  0  0  0
   12.0644  -17.5031   24.7390 C   0  0  0  0  0  0  0  0  0  0  0  0
   12.8635  -16.2386   24.6475 C   0  0  0  0  0  0  0  0  0  0  0  0
   14.2144  -16.5584   24.0300 C   0  0  0  0  0  0  0  0  0  0  0  0
   14.4363  -17.7551   23.7427 O   0  0  0  0  0  0  0  0  0  0  0  0
   10.6852  -16.8639   26.6895 C   0  0  0  0  0  0  0  0  0  0  0  0
   10.2001  -15.7983   27.1116 O   0  0  0  0  0  0  0  0  0  0  0  0
   15.1190  -15.5370   23.8181 O   0  0  0  0  0  0  0  0  0  0  0  0
   11.2356  -17.6967   27.6928 O   0  0  0  0  0  0  0  0  0  0  0  0
  2 12  2  0
  2  1  1  0
  3  2  1  0
  4  5  1  0
  4  3  2  0
  5 11  2  0
  6  7  1  0
  6  5  1  0
  7  8  1  6
  9  7  1  0
  9 13  1  0
 10  9  2  0
 11 12  1  0
 14 13  1  0
 14 15  1  1
 15 16  1  0
 16 17  2  0
 18 17  1  0
 19 18  1  0
 20 19  2  0
 21 20  1  0
 22 21  2  0
 22 23  1  0
 23 24  2  0
 24 19  1  0
 24 16  1  0
 25 14  1  0
 25 26  2  0
 27 25  1  0
 28 27  1  0
 28 33  1  0
 28 29  1  6
 30 29  1  0
 30 31  1  0
 31 32  2  0
 31 35  1  0
 33 34  2  0
 33 36  1  0
M  END
$$$$
