YWE.pdb
     RDKit          3D

 36 38  0  0  1  0  0  0  0  0999 V2000
    7.5891  -21.5625   16.0563 O   0  0  0  0  0  0  0  0  0  0  0  0
    8.1774  -20.8856   17.1206 C   0  0  0  0  0  0  0  0  0  0  0  0
    7.9769  -21.3820   18.4204 C   0  0  0  0  0  0  0  0  0  0  0  0
    8.5586  -20.7127   19.4758 C   0  0  0  0  0  0  0  0  0  0  0  0
    9.3351  -19.5660   19.2982 C   0  0  0  0  0  0  0  0  0  0  0  0
    9.9072  -18.9025   20.4681 C   0  0  0  0  0  0  0  0  0  0  0  0
    8.8690  -17.9728   21.0880 C   0  0  2  0  0  0  0  0  0  0  0  0
    8.6541  -16.9304   20.1164 N   0  0  0  0  0  0  0  0  0  0  0  0
    9.3649  -17.3863   22.3411 C   0  0  0  0  0  0  0  0  0  0  0  0
   10.3283  -16.5726   22.3072 O   0  0  0  0  0  0  0  0  0  0  0  0
    9.5135  -19.1038   18.0148 C   0  0  0  0  0  0  0  0  0  0  0  0
    8.9377  -19.7579   16.9201 C   0  0  0  0  0  0  0  0  0  0  0  0
    8.8362  -17.6602   23.6423 N   0  0  0  0  0  0  0  0  0  0  0  0
    9.4239  -17.1126   24.8385 C   0  0  1  0  0  0  0  0  0  0  0  0
    8.4108  -16.7448   25.8721 C   0  0  0  0  0  0  0  0  0  0  0  0
    7.4147  -15.7466   25.4919 C   0  0  0  0  0  0  0  0  0  0  0  0
    6.2634  -15.8535   24.7463 C   0  0  0  0  0  0  0  0  0  0  0  0
    5.7047  -14.6329   24.6822 N   0  0  0  0  0  0  0  0  0  0  0  0
    6.4606  -13.7453   25.3628 C   0  0  0  0  0  0  0  0  0  0  0  0
    6.3385  -12.3780   25.6051 C   0  0  0  0  0  0  0  0  0  0  0  0
    7.2737  -11.6875   26.3507 C   0  0  0  0  0  0  0  0  0  0  0  0
    8.3515  -12.4108   26.8560 C   0  0  0  0  0  0  0  0  0  0  0  0
    8.4931  -13.7490   26.6335 C   0  0  0  0  0  0  0  0  0  0  0  0
    7.5443  -14.4081   25.8871 C   0  0  0  0  0  0  0  0  0  0  0  0
   10.5492  -17.9257   25.3403 C   0  0  0  0  0  0  0  0  0  0  0  0
   10.3655  -19.1767   25.5300 O   0  0  0  0  0  0  0  0  0  0  0  0
   11.8252  -17.3996   25.6225 N   0  0  0  0  0  0  0  0  0  0  0  0
   12.9016  -18.2840   26.0885 C   0  0  1  0  0  0  0  0  0  0  0  0
   14.1356  -18.0797   25.2802 C   0  0  0  0  0  0  0  0  0  0  0  0
   14.6697  -16.6880   25.4332 C   0  0  0  0  0  0  0  0  0  0  0  0
   15.5213  -16.3557   24.2196 C   0  0  0  0  0  0  0  0  0  0  0  0
   15.5784  -17.2174   23.3152 O   0  0  0  0  0  0  0  0  0  0  0  0
   13.1039  -18.1311   27.5271 C   0  0  0  0  0  0  0  0  0  0  0  0
   12.4702  -17.3276   28.2354 O   0  0  0  0  0  0  0  0  0  0  0  0
   16.1814  -15.1440   24.1691 O   0  0  0  0  0  0  0  0  0  0  0  0
   14.0587  -18.9057   28.2280 O   0  0  0  0  0  0  0  0  0  0  0  0
  2 12  2  0
  2  1  1  0
  3  2  1  0
  4  5  1  0
  4  3  2  0
  5 11  2  0
  6  7  1  0
  6  5  1  0
  7  8  1  6
  9  7  1  0
  9 13  1  0
 10  9  2  0
 11 12  1  0
 14 13  1  0
 14 15  1  1
 15 16  1  0
 16 17  2  0
 18 17  1  0
 19 18  1  0
 20 19  2  0
 21 20  1  0
 22 21  2  0
 22 23  1  0
 23 24  2  0
 24 19  1  0
 24 16  1  0
 25 14  1  0
 25 26  2  0
 27 25  1  0
 28 27  1  0
 28 33  1  0
 28 29  1  6
 30 29  1  0
 30 31  1  0
 31 32  2  0
 31 35  1  0
 33 34  2  0
 33 36  1  0
M  END
$$$$
