YWE.pdb
     RDKit          3D

 36 38  0  0  1  0  0  0  0  0999 V2000
    6.1725  -20.9463   15.3466 O   0  0  0  0  0  0  0  0  0  0  0  0
    6.7467  -20.4827   16.5266 C   0  0  0  0  0  0  0  0  0  0  0  0
    5.9804  -19.6493   17.3599 C   0  0  0  0  0  0  0  0  0  0  0  0
    6.5476  -19.1890   18.5289 C   0  0  0  0  0  0  0  0  0  0  0  0
    7.8491  -19.5207   18.9105 C   0  0  0  0  0  0  0  0  0  0  0  0
    8.3869  -18.9818   20.1581 C   0  0  0  0  0  0  0  0  0  0  0  0
    8.7502  -17.5128   19.9665 C   0  0  2  0  0  0  0  0  0  0  0  0
    9.8613  -17.5058   19.0488 N   0  0  0  0  0  0  0  0  0  0  0  0
    9.1555  -16.8977   21.2384 C   0  0  0  0  0  0  0  0  0  0  0  0
   10.3079  -17.1248   21.6985 O   0  0  0  0  0  0  0  0  0  0  0  0
    8.5748  -20.3378   18.0749 C   0  0  0  0  0  0  0  0  0  0  0  0
    8.0308  -20.8231   16.8805 C   0  0  0  0  0  0  0  0  0  0  0  0
    8.3362  -16.0322   22.0304 N   0  0  0  0  0  0  0  0  0  0  0  0
    8.7644  -15.5345   23.3130 C   0  0  1  0  0  0  0  0  0  0  0  0
    7.8479  -14.4970   23.8732 C   0  0  0  0  0  0  0  0  0  0  0  0
    8.0134  -14.1659   25.2860 C   0  0  0  0  0  0  0  0  0  0  0  0
    8.8384  -14.6966   26.2506 C   0  0  0  0  0  0  0  0  0  0  0  0
    8.5967  -14.0417   27.3990 N   0  0  0  0  0  0  0  0  0  0  0  0
    7.6426  -13.1070   27.2027 C   0  0  0  0  0  0  0  0  0  0  0  0
    7.0342  -12.1755   28.0425 C   0  0  0  0  0  0  0  0  0  0  0  0
    6.0591  -11.3125   27.5824 C   0  0  0  0  0  0  0  0  0  0  0  0
    5.7022  -11.4062   26.2392 C   0  0  0  0  0  0  0  0  0  0  0  0
    6.2830  -12.3084   25.3972 C   0  0  0  0  0  0  0  0  0  0  0  0
    7.2514  -13.1539   25.8861 C   0  0  0  0  0  0  0  0  0  0  0  0
    9.1166  -16.6176   24.2522 C   0  0  0  0  0  0  0  0  0  0  0  0
    8.2560  -17.5351   24.4812 O   0  0  0  0  0  0  0  0  0  0  0  0
   10.3570  -16.7012   24.9148 N   0  0  0  0  0  0  0  0  0  0  0  0
   10.6560  -17.8507   25.7792 C   0  0  1  0  0  0  0  0  0  0  0  0
   11.7876  -18.6442   25.2245 C   0  0  0  0  0  0  0  0  0  0  0  0
   11.6175  -18.8937   23.7567 C   0  0  0  0  0  0  0  0  0  0  0  0
   12.7982  -19.7110   23.2604 C   0  0  0  0  0  0  0  0  0  0  0  0
   13.6578  -20.0362   24.1083 O   0  0  0  0  0  0  0  0  0  0  0  0
   10.8581  -17.4156   27.1590 C   0  0  0  0  0  0  0  0  0  0  0  0
   11.0991  -18.1905   28.1026 O   0  0  0  0  0  0  0  0  0  0  0  0
   12.8700  -20.0514   21.9241 O   0  0  0  0  0  0  0  0  0  0  0  0
   10.7907  -16.0497   27.5231 O   0  0  0  0  0  0  0  0  0  0  0  0
  2 12  2  0
  2  1  1  0
  3  2  1  0
  4  5  1  0
  4  3  2  0
  5 11  2  0
  6  7  1  0
  6  5  1  0
  7  8  1  6
  9  7  1  0
  9 13  1  0
 10  9  2  0
 11 12  1  0
 14 13  1  0
 14 15  1  1
 15 16  1  0
 16 17  2  0
 18 17  1  0
 19 18  1  0
 20 19  2  0
 21 20  1  0
 22 21  2  0
 22 23  1  0
 23 24  2  0
 24 19  1  0
 24 16  1  0
 25 14  1  0
 25 26  2  0
 27 25  1  0
 28 27  1  0
 28 33  1  0
 28 29  1  6
 30 29  1  0
 30 31  1  0
 31 32  2  0
 31 35  1  0
 33 34  2  0
 33 36  1  0
M  END
$$$$
