YWE.pdb
     RDKit          3D

 36 38  0  0  1  0  0  0  0  0999 V2000
   11.7191  -19.5543   15.2663 O   0  0  0  0  0  0  0  0  0  0  0  0
   11.6663  -19.0908   16.5775 C   0  0  0  0  0  0  0  0  0  0  0  0
   12.4176  -17.9513   16.9138 C   0  0  0  0  0  0  0  0  0  0  0  0
   12.3667  -17.4909   18.2122 C   0  0  0  0  0  0  0  0  0  0  0  0
   11.5990  -18.1145   19.1978 C   0  0  0  0  0  0  0  0  0  0  0  0
   11.6073  -17.5762   20.5566 C   0  0  0  0  0  0  0  0  0  0  0  0
   10.1747  -17.3278   21.0175 C   0  0  2  0  0  0  0  0  0  0  0  0
    9.6790  -16.2629   20.1825 N   0  0  0  0  0  0  0  0  0  0  0  0
   10.1368  -16.9101   22.4262 C   0  0  0  0  0  0  0  0  0  0  0  0
   10.9435  -16.0305   22.8349 O   0  0  0  0  0  0  0  0  0  0  0  0
   10.8746  -19.2275   18.8390 C   0  0  0  0  0  0  0  0  0  0  0  0
   10.9029  -19.7225   17.5306 C   0  0  0  0  0  0  0  0  0  0  0  0
    9.2364  -17.4248   23.4120 N   0  0  0  0  0  0  0  0  0  0  0  0
    9.2664  -16.9814   24.7826 C   0  0  1  0  0  0  0  0  0  0  0  0
    7.9538  -16.4468   25.2530 C   0  0  0  0  0  0  0  0  0  0  0  0
    7.5175  -15.1757   24.6813 C   0  0  0  0  0  0  0  0  0  0  0  0
    7.0824  -14.8525   23.4168 C   0  0  0  0  0  0  0  0  0  0  0  0
    6.8085  -13.5369   23.4038 N   0  0  0  0  0  0  0  0  0  0  0  0
    7.0539  -13.0045   24.6199 C   0  0  0  0  0  0  0  0  0  0  0  0
    6.9406  -11.7145   25.1358 C   0  0  0  0  0  0  0  0  0  0  0  0
    7.2651  -11.4269   26.4470 C   0  0  0  0  0  0  0  0  0  0  0  0
    7.7132  -12.4793   27.2420 C   0  0  0  0  0  0  0  0  0  0  0  0
    7.8321  -13.7500   26.7611 C   0  0  0  0  0  0  0  0  0  0  0  0
    7.5005  -14.0040   25.4506 C   0  0  0  0  0  0  0  0  0  0  0  0
    9.8880  -17.9708   25.6847 C   0  0  0  0  0  0  0  0  0  0  0  0
    9.4367  -19.1671   25.6875 O   0  0  0  0  0  0  0  0  0  0  0  0
   10.9600  -17.6719   26.5484 N   0  0  0  0  0  0  0  0  0  0  0  0
   11.5413  -18.7227   27.3945 C   0  0  1  0  0  0  0  0  0  0  0  0
   13.0162  -18.7954   27.2022 C   0  0  0  0  0  0  0  0  0  0  0  0
   13.6372  -19.8283   28.0927 C   0  0  0  0  0  0  0  0  0  0  0  0
   15.1377  -19.8405   27.8539 C   0  0  0  0  0  0  0  0  0  0  0  0
   15.7105  -20.9506   27.9094 O   0  0  0  0  0  0  0  0  0  0  0  0
   11.1336  -18.5445   28.7859 C   0  0  0  0  0  0  0  0  0  0  0  0
   10.5703  -17.5224   29.2183 O   0  0  0  0  0  0  0  0  0  0  0  0
   15.7896  -18.6516   27.5926 O   0  0  0  0  0  0  0  0  0  0  0  0
   11.3586  -19.5474   29.7588 O   0  0  0  0  0  0  0  0  0  0  0  0
  2 12  2  0
  2  1  1  0
  3  2  1  0
  4  5  1  0
  4  3  2  0
  5 11  2  0
  6  7  1  0
  6  5  1  0
  7  8  1  6
  9  7  1  0
  9 13  1  0
 10  9  2  0
 11 12  1  0
 14 13  1  0
 14 15  1  1
 15 16  1  0
 16 17  2  0
 18 17  1  0
 19 18  1  0
 20 19  2  0
 21 20  1  0
 22 21  2  0
 22 23  1  0
 23 24  2  0
 24 19  1  0
 24 16  1  0
 25 14  1  0
 25 26  2  0
 27 25  1  0
 28 27  1  0
 28 33  1  0
 28 29  1  1
 30 29  1  0
 30 31  1  0
 31 32  2  0
 31 35  1  0
 33 34  2  0
 33 36  1  0
M  END
$$$$
