YWE.pdb
     RDKit          3D

 36 38  0  0  1  0  0  0  0  0999 V2000
    7.0153  -13.7148   15.3491 O   0  0  0  0  0  0  0  0  0  0  0  0
    7.1858  -13.8551   16.7232 C   0  0  0  0  0  0  0  0  0  0  0  0
    8.1943  -13.1037   17.3513 C   0  0  0  0  0  0  0  0  0  0  0  0
    8.3648  -13.2416   18.7122 C   0  0  0  0  0  0  0  0  0  0  0  0
    7.5745  -14.0969   19.4826 C   0  0  0  0  0  0  0  0  0  0  0  0
    7.8249  -14.2006   20.9188 C   0  0  0  0  0  0  0  0  0  0  0  0
    8.9240  -15.2271   21.1739 C   0  0  2  0  0  0  0  0  0  0  0  0
    8.3620  -16.4981   20.7927 N   0  0  0  0  0  0  0  0  0  0  0  0
    9.2995  -15.2584   22.5945 C   0  0  0  0  0  0  0  0  0  0  0  0
   10.0190  -14.3362   23.0671 O   0  0  0  0  0  0  0  0  0  0  0  0
    6.5957  -14.8193   18.8403 C   0  0  0  0  0  0  0  0  0  0  0  0
    6.3949  -14.7044   17.4604 C   0  0  0  0  0  0  0  0  0  0  0  0
    8.9089  -16.2725   23.5255 N   0  0  0  0  0  0  0  0  0  0  0  0
    9.4624  -16.3469   24.8537 C   0  0  1  0  0  0  0  0  0  0  0  0
    8.4226  -16.5188   25.9117 C   0  0  0  0  0  0  0  0  0  0  0  0
    7.2961  -15.5896   25.8848 C   0  0  0  0  0  0  0  0  0  0  0  0
    6.0014  -15.7473   25.4470 C   0  0  0  0  0  0  0  0  0  0  0  0
    5.3627  -14.5798   25.6342 N   0  0  0  0  0  0  0  0  0  0  0  0
    6.2060  -13.6770   26.1784 C   0  0  0  0  0  0  0  0  0  0  0  0
    6.0572  -12.3457   26.5640 C   0  0  0  0  0  0  0  0  0  0  0  0
    7.1036  -11.6271   27.1081 C   0  0  0  0  0  0  0  0  0  0  0  0
    8.3223  -12.2845   27.2593 C   0  0  0  0  0  0  0  0  0  0  0  0
    8.4931  -13.5864   26.8905 C   0  0  0  0  0  0  0  0  0  0  0  0
    7.4312  -14.2748   26.3518 C   0  0  0  0  0  0  0  0  0  0  0  0
   10.5949  -17.2896   24.9437 C   0  0  0  0  0  0  0  0  0  0  0  0
   10.4119  -18.5040   24.5881 O   0  0  0  0  0  0  0  0  0  0  0  0
   11.8769  -16.9255   25.4001 N   0  0  0  0  0  0  0  0  0  0  0  0
   12.9588  -17.9188   25.4315 C   0  0  1  0  0  0  0  0  0  0  0  0
   14.2635  -17.2846   25.0949 C   0  0  0  0  0  0  0  0  0  0  0  0
   15.3780  -18.2863   25.0920 C   0  0  0  0  0  0  0  0  0  0  0  0
   16.6790  -17.5683   24.7753 C   0  0  0  0  0  0  0  0  0  0  0  0
   16.6334  -16.6726   23.9038 O   0  0  0  0  0  0  0  0  0  0  0  0
   12.9597  -18.6357   26.7042 C   0  0  0  0  0  0  0  0  0  0  0  0
   12.3057  -18.2797   27.7015 O   0  0  0  0  0  0  0  0  0  0  0  0
   17.8301  -17.9282   25.4477 O   0  0  0  0  0  0  0  0  0  0  0  0
   13.7242  -19.8117   26.8924 O   0  0  0  0  0  0  0  0  0  0  0  0
  2 12  2  0
  2  1  1  0
  3  2  1  0
  4  5  1  0
  4  3  2  0
  5 11  2  0
  6  7  1  0
  6  5  1  0
  7  8  1  1
  9  7  1  0
  9 13  1  0
 10  9  2  0
 11 12  1  0
 14 13  1  0
 14 15  1  1
 15 16  1  0
 16 17  2  0
 18 17  1  0
 19 18  1  0
 20 19  2  0
 21 20  1  0
 22 21  2  0
 22 23  1  0
 23 24  2  0
 24 19  1  0
 24 16  1  0
 25 14  1  0
 25 26  2  0
 27 25  1  0
 28 27  1  0
 28 33  1  0
 28 29  1  1
 30 29  1  0
 30 31  1  0
 31 32  2  0
 31 35  1  0
 33 34  2  0
 33 36  1  0
M  END
$$$$
