YWE.pdb
     RDKit          3D

 36 38  0  0  1  0  0  0  0  0999 V2000
    5.9705  -12.7117   17.5367 O   0  0  0  0  0  0  0  0  0  0  0  0
    7.2400  -13.1435   17.9092 C   0  0  0  0  0  0  0  0  0  0  0  0
    8.0477  -12.2726   18.6612 C   0  0  0  0  0  0  0  0  0  0  0  0
    9.3056  -12.6985   19.0308 C   0  0  0  0  0  0  0  0  0  0  0  0
    9.8009  -13.9575   18.6857 C   0  0  0  0  0  0  0  0  0  0  0  0
   11.1509  -14.3325   19.1017 C   0  0  0  0  0  0  0  0  0  0  0  0
   11.0943  -15.6114   19.9310 C   0  0  2  0  0  0  0  0  0  0  0  0
   10.1709  -16.4778   19.2430 N   0  0  0  0  0  0  0  0  0  0  0  0
   10.6003  -15.3404   21.2885 C   0  0  0  0  0  0  0  0  0  0  0  0
   11.2740  -14.6024   22.0586 O   0  0  0  0  0  0  0  0  0  0  0  0
    8.9878  -14.7877   17.9495 C   0  0  0  0  0  0  0  0  0  0  0  0
    7.7056  -14.3881   17.5569 C   0  0  0  0  0  0  0  0  0  0  0  0
    9.3816  -15.8519   21.8369 N   0  0  0  0  0  0  0  0  0  0  0  0
    9.0114  -15.6372   23.2127 C   0  0  1  0  0  0  0  0  0  0  0  0
    7.5407  -15.4600   23.4016 C   0  0  0  0  0  0  0  0  0  0  0  0
    7.0783  -15.1988   24.7621 C   0  0  0  0  0  0  0  0  0  0  0  0
    6.5011  -16.0260   25.6977 C   0  0  0  0  0  0  0  0  0  0  0  0
    6.2532  -15.2903   26.7947 N   0  0  0  0  0  0  0  0  0  0  0  0
    6.6528  -14.0166   26.5935 C   0  0  0  0  0  0  0  0  0  0  0  0
    6.6254  -12.8724   27.3893 C   0  0  0  0  0  0  0  0  0  0  0  0
    7.1084  -11.6611   26.9344 C   0  0  0  0  0  0  0  0  0  0  0  0
    7.6278  -11.6226   25.6426 C   0  0  0  0  0  0  0  0  0  0  0  0
    7.6664  -12.7281   24.8447 C   0  0  0  0  0  0  0  0  0  0  0  0
    7.1778  -13.9198   25.3272 C   0  0  0  0  0  0  0  0  0  0  0  0
    9.6370  -16.6131   24.1267 C   0  0  0  0  0  0  0  0  0  0  0  0
    9.4910  -17.8603   23.8859 O   0  0  0  0  0  0  0  0  0  0  0  0
   10.3940  -16.2472   25.2571 N   0  0  0  0  0  0  0  0  0  0  0  0
   11.0965  -17.2737   26.0387 C   0  0  1  0  0  0  0  0  0  0  0  0
   12.5158  -16.8825   26.2631 C   0  0  0  0  0  0  0  0  0  0  0  0
   13.3529  -17.1252   25.0441 C   0  0  0  0  0  0  0  0  0  0  0  0
   14.5264  -18.0114   25.4262 C   0  0  0  0  0  0  0  0  0  0  0  0
   15.5160  -17.4483   25.9432 O   0  0  0  0  0  0  0  0  0  0  0  0
   10.3638  -17.5740   27.2663 C   0  0  0  0  0  0  0  0  0  0  0  0
    9.3138  -16.9985   27.6060 O   0  0  0  0  0  0  0  0  0  0  0  0
   14.4516  -19.3699   25.1907 O   0  0  0  0  0  0  0  0  0  0  0  0
   10.8112  -18.5636   28.1736 O   0  0  0  0  0  0  0  0  0  0  0  0
  2 12  2  0
  2  1  1  0
  3  2  1  0
  4  5  1  0
  4  3  2  0
  5 11  2  0
  6  7  1  0
  6  5  1  0
  7  8  1  6
  9  7  1  0
  9 13  1  0
 10  9  2  0
 11 12  1  0
 14 13  1  0
 14 15  1  6
 15 16  1  0
 16 17  2  0
 18 17  1  0
 19 18  1  0
 20 19  2  0
 21 20  1  0
 22 21  2  0
 22 23  1  0
 23 24  2  0
 24 19  1  0
 24 16  1  0
 25 14  1  0
 25 26  2  0
 27 25  1  0
 28 27  1  0
 28 33  1  0
 28 29  1  1
 30 29  1  0
 30 31  1  0
 31 32  2  0
 31 35  1  0
 33 34  2  0
 33 36  1  0
M  END
$$$$
