YWE.pdb
     RDKit          3D

 36 38  0  0  1  0  0  0  0  0999 V2000
    6.1154  -16.4225   14.3485 O   0  0  0  0  0  0  0  0  0  0  0  0
    6.8454  -16.1484   15.5013 C   0  0  0  0  0  0  0  0  0  0  0  0
    6.6372  -16.9574   16.6319 C   0  0  0  0  0  0  0  0  0  0  0  0
    7.3593  -16.6871   17.7746 C   0  0  0  0  0  0  0  0  0  0  0  0
    8.2844  -15.6437   17.8461 C   0  0  0  0  0  0  0  0  0  0  0  0
    9.0016  -15.4096   19.0979 C   0  0  0  0  0  0  0  0  0  0  0  0
    8.0064  -15.0658   20.2014 C   0  0  2  0  0  0  0  0  0  0  0  0
    7.5616  -13.7249   19.9170 N   0  0  0  0  0  0  0  0  0  0  0  0
    8.6478  -15.1041   21.5233 C   0  0  0  0  0  0  0  0  0  0  0  0
    9.3934  -14.1509   21.8795 O   0  0  0  0  0  0  0  0  0  0  0  0
    8.4666  -14.8691   16.7240 C   0  0  0  0  0  0  0  0  0  0  0  0
    7.7507  -15.1147   15.5472 C   0  0  0  0  0  0  0  0  0  0  0  0
    8.4979  -16.1584   22.4792 N   0  0  0  0  0  0  0  0  0  0  0  0
    9.1826  -16.1458   23.7469 C   0  0  1  0  0  0  0  0  0  0  0  0
    8.2777  -16.4201   24.9028 C   0  0  0  0  0  0  0  0  0  0  0  0
    7.1809  -15.4799   25.1179 C   0  0  0  0  0  0  0  0  0  0  0  0
    5.8360  -15.5787   24.8456 C   0  0  0  0  0  0  0  0  0  0  0  0
    5.2569  -14.4282   25.2291 N   0  0  0  0  0  0  0  0  0  0  0  0
    6.1872  -13.5934   25.7392 C   0  0  0  0  0  0  0  0  0  0  0  0
    6.1239  -12.3052   26.2681 C   0  0  0  0  0  0  0  0  0  0  0  0
    7.2509  -11.6561   26.7329 C   0  0  0  0  0  0  0  0  0  0  0  0
    8.4622  -12.3391   26.6541 C   0  0  0  0  0  0  0  0  0  0  0  0
    8.5502  -13.6000   26.1416 C   0  0  0  0  0  0  0  0  0  0  0  0
    7.4094  -14.2195   25.6872 C   0  0  0  0  0  0  0  0  0  0  0  0
   10.4213  -16.9484   23.7299 C   0  0  0  0  0  0  0  0  0  0  0  0
   10.3262  -18.2235   23.7300 O   0  0  0  0  0  0  0  0  0  0  0  0
   11.7131  -16.3867   23.7110 N   0  0  0  0  0  0  0  0  0  0  0  0
   12.8962  -17.2573   23.6892 C   0  0  1  0  0  0  0  0  0  0  0  0
   14.1199  -16.4718   23.3679 C   0  0  0  0  0  0  0  0  0  0  0  0
   15.3514  -17.3239   23.4239 C   0  0  0  0  0  0  0  0  0  0  0  0
   16.5608  -16.4544   23.1241 C   0  0  0  0  0  0  0  0  0  0  0  0
   16.4964  -15.2554   23.4736 O   0  0  0  0  0  0  0  0  0  0  0  0
   12.9924  -18.0225   24.9299 C   0  0  0  0  0  0  0  0  0  0  0  0
   13.3691  -19.2073   24.9869 O   0  0  0  0  0  0  0  0  0  0  0  0
   17.6541  -17.0128   22.4920 O   0  0  0  0  0  0  0  0  0  0  0  0
   12.6543  -17.4528   26.1805 O   0  0  0  0  0  0  0  0  0  0  0  0
  2 12  2  0
  2  1  1  0
  3  2  1  0
  4  5  1  0
  4  3  2  0
  5 11  2  0
  6  7  1  0
  6  5  1  0
  7  8  1  6
  9  7  1  0
  9 13  1  0
 10  9  2  0
 11 12  1  0
 14 13  1  0
 14 15  1  1
 15 16  1  0
 16 17  2  0
 18 17  1  0
 19 18  1  0
 20 19  2  0
 21 20  1  0
 22 21  2  0
 22 23  1  0
 23 24  2  0
 24 19  1  0
 24 16  1  0
 25 14  1  0
 25 26  2  0
 27 25  1  0
 28 27  1  0
 28 33  1  0
 28 29  1  1
 30 29  1  0
 30 31  1  0
 31 32  2  0
 31 35  1  0
 33 34  2  0
 33 36  1  0
M  END
$$$$
