HHR.pdb
     RDKit          3D

 32 33  0  0  1  0  0  0  0  0999 V2000
   17.7341  -24.5482  -19.6258 N   0  0  0  0  0  0  0  0  0  0  0  0
   17.9886  -24.1070  -18.2758 C   0  0  1  0  0  0  0  0  0  0  0  0
   18.6995  -25.1804  -17.4795 C   0  0  0  0  0  0  0  0  0  0  0  0
   17.8490  -26.3987  -17.3546 C   0  0  0  0  0  0  0  0  0  0  0  0
   18.2111  -27.7090  -17.5718 C   0  0  0  0  0  0  0  0  0  0  0  0
   17.1553  -28.5070  -17.3526 N   0  0  0  0  0  0  0  0  0  0  0  0
   16.1385  -27.6924  -16.9997 C   0  0  0  0  0  0  0  0  0  0  0  0
   16.5580  -26.4121  -17.0004 N   0  0  0  0  0  0  0  0  0  0  0  0
   18.8620  -22.9123  -18.2739 C   0  0  0  0  0  0  0  0  0  0  0  0
   19.3869  -22.5400  -17.2015 O   0  0  0  0  0  0  0  0  0  0  0  0
   19.0897  -22.2113  -19.4819 N   0  0  0  0  0  0  0  0  0  0  0  0
   19.8908  -21.0124  -19.5450 C   0  0  1  0  0  0  0  0  0  0  0  0
   21.0237  -21.1209  -20.5181 C   0  0  0  0  0  0  0  0  0  0  0  0
   22.1451  -21.9533  -19.9916 C   0  0  0  0  0  0  0  0  0  0  0  0
   23.1389  -21.4740  -19.1760 C   0  0  0  0  0  0  0  0  0  0  0  0
   23.9613  -22.4858  -18.9087 N   0  0  0  0  0  0  0  0  0  0  0  0
   23.5065  -23.5790  -19.5353 C   0  0  0  0  0  0  0  0  0  0  0  0
   22.3910  -23.2511  -20.2001 N   0  0  0  0  0  0  0  0  0  0  0  0
   19.0269  -19.8508  -19.8544 C   0  0  0  0  0  0  0  0  0  0  0  0
   18.0958  -19.9721  -20.7230 O   0  0  0  0  0  0  0  0  0  0  0  0
   18.8490  -11.4408  -18.0535 N   0  0  0  0  0  0  0  0  0  0  0  0
   17.5043  -11.7338  -18.4097 C   0  0  0  0  0  0  0  0  0  0  0  0
   16.7454  -10.8468  -18.9678 N   0  0  0  0  0  0  0  0  0  0  0  0
   16.9178  -13.0192  -18.1721 N   0  0  0  0  0  0  0  0  0  0  0  0
   17.7168  -14.1853  -17.8512 C   0  0  0  0  0  0  0  0  0  0  0  0
   17.9188  -15.0681  -19.0684 C   0  0  0  0  0  0  0  0  0  0  0  0
   18.6681  -16.2954  -18.6804 C   0  0  0  0  0  0  0  0  0  0  0  0
   18.3469  -17.4537  -19.5739 C   0  0  2  0  0  0  0  0  0  0  0  0
   19.1939  -18.6065  -19.2217 N   0  0  0  0  0  0  0  0  0  0  0  0
   18.4650  -17.1826  -21.0181 C   0  0  0  0  0  0  0  0  0  0  0  0
   19.5521  -17.1658  -21.6307 O   0  0  0  0  0  0  0  0  0  0  0  0
   17.3283  -16.9211  -21.8071 O   0  0  0  0  0  0  0  0  0  0  0  0
  2  1  1  6
  2  3  1  0
  3  4  1  0
  4  5  2  0
  6  5  1  0
  7  6  1  0
  8  7  2  0
  8  4  1  0
  9  2  1  0
  9 10  2  0
 11  9  1  0
 12 11  1  0
 12 13  1  6
 13 14  1  0
 14 18  1  0
 15 14  2  0
 15 16  1  0
 16 17  1  0
 18 17  2  0
 19 12  1  0
 20 19  2  0
 22 24  1  0
 22 21  1  0
 23 22  2  0
 25 24  1  0
 26 25  1  0
 27 26  1  0
 28 27  1  1
 28 29  1  0
 29 19  1  0
 30 28  1  0
 30 32  1  0
 31 30  2  0
M  END
$$$$
