HHR.pdb
     RDKit          3D

 32 33  0  0  1  0  0  0  0  0999 V2000
   14.3249  -18.5200    2.6117 N   0  0  0  0  0  0  0  0  0  0  0  0
   14.1741  -17.5905    3.7051 C   0  0  1  0  0  0  0  0  0  0  0  0
   13.1536  -18.0907    4.7051 C   0  0  0  0  0  0  0  0  0  0  0  0
   11.8036  -18.1906    4.0800 C   0  0  0  0  0  0  0  0  0  0  0  0
   11.0478  -19.3230    3.8757 C   0  0  0  0  0  0  0  0  0  0  0  0
    9.8916  -18.9881    3.2835 N   0  0  0  0  0  0  0  0  0  0  0  0
    9.9299  -17.6488    3.1203 C   0  0  0  0  0  0  0  0  0  0  0  0
   11.0900  -17.1630    3.6033 N   0  0  0  0  0  0  0  0  0  0  0  0
   15.4533  -17.4286    4.4315 C   0  0  0  0  0  0  0  0  0  0  0  0
   16.2636  -18.3808    4.4631 O   0  0  0  0  0  0  0  0  0  0  0  0
   15.7397  -16.2026    5.0775 N   0  0  0  0  0  0  0  0  0  0  0  0
   16.9739  -15.9690    5.7883 C   0  0  1  0  0  0  0  0  0  0  0  0
   17.6406  -14.6887    5.3902 C   0  0  0  0  0  0  0  0  0  0  0  0
   18.1276  -14.7183    3.9797 C   0  0  0  0  0  0  0  0  0  0  0  0
   17.7886  -13.7863    3.0315 C   0  0  0  0  0  0  0  0  0  0  0  0
   18.3980  -14.1271    1.8982 N   0  0  0  0  0  0  0  0  0  0  0  0
   19.1050  -15.2438    2.1161 C   0  0  0  0  0  0  0  0  0  0  0  0
   18.9385  -15.6061    3.3946 N   0  0  0  0  0  0  0  0  0  0  0  0
   16.7256  -16.0137    7.2470 C   0  0  0  0  0  0  0  0  0  0  0  0
   15.5518  -15.7718    7.6937 O   0  0  0  0  0  0  0  0  0  0  0  0
   14.0668  -22.1569   10.8062 N   0  0  0  0  0  0  0  0  0  0  0  0
   15.4838  -22.2695   10.8311 C   0  0  0  0  0  0  0  0  0  0  0  0
   16.0672  -23.4144   10.9830 N   0  0  0  0  0  0  0  0  0  0  0  0
   16.3395  -21.1292   10.6905 N   0  0  0  0  0  0  0  0  0  0  0  0
   15.8231  -19.8081   10.3917 C   0  0  0  0  0  0  0  0  0  0  0  0
   16.9463  -18.8046   10.2096 C   0  0  0  0  0  0  0  0  0  0  0  0
   16.3820  -17.4859    9.8085 C   0  0  0  0  0  0  0  0  0  0  0  0
   17.4514  -16.4572    9.6058 C   0  0  2  0  0  0  0  0  0  0  0  0
   17.7433  -16.3160    8.1687 N   0  0  0  0  0  0  0  0  0  0  0  0
   18.7066  -16.7055   10.3381 C   0  0  0  0  0  0  0  0  0  0  0  0
   19.7673  -17.0652    9.7878 O   0  0  0  0  0  0  0  0  0  0  0  0
   18.7802  -16.5462   11.7353 O   0  0  0  0  0  0  0  0  0  0  0  0
  2  1  1  6
  2  3  1  0
  3  4  1  0
  4  5  2  0
  6  5  1  0
  7  6  1  0
  8  7  2  0
  8  4  1  0
  9  2  1  0
  9 10  2  0
 11  9  1  0
 12 11  1  0
 12 13  1  6
 13 14  1  0
 14 18  1  0
 15 14  2  0
 15 16  1  0
 16 17  1  0
 18 17  2  0
 19 12  1  0
 20 19  2  0
 22 24  1  0
 22 21  1  0
 23 22  2  0
 25 24  1  0
 26 25  1  0
 27 26  1  0
 28 27  1  6
 28 29  1  0
 29 19  1  0
 30 28  1  0
 30 32  1  0
 31 30  2  0
M  END
$$$$
