HHR.pdb
     RDKit          3D

 32 33  0  0  1  0  0  0  0  0999 V2000
   13.8474  -20.0185    3.2233 N   0  0  0  0  0  0  0  0  0  0  0  0
   15.0693  -20.4013    3.8885 C   0  0  1  0  0  0  0  0  0  0  0  0
   16.2154  -20.4973    2.9042 C   0  0  0  0  0  0  0  0  0  0  0  0
   15.9579  -21.5622    1.8929 C   0  0  0  0  0  0  0  0  0  0  0  0
   15.9417  -22.9253    2.0853 C   0  0  0  0  0  0  0  0  0  0  0  0
   15.6710  -23.5378    0.9229 N   0  0  0  0  0  0  0  0  0  0  0  0
   15.5193  -22.5555    0.0096 C   0  0  0  0  0  0  0  0  0  0  0  0
   15.6931  -21.3554    0.5969 N   0  0  0  0  0  0  0  0  0  0  0  0
   15.4487  -19.3922    4.9024 C   0  0  0  0  0  0  0  0  0  0  0  0
   15.2210  -18.1832    4.6773 O   0  0  0  0  0  0  0  0  0  0  0  0
   16.0617  -19.8090    6.1078 N   0  0  0  0  0  0  0  0  0  0  0  0
   16.1798  -18.9454    7.2581 C   0  0  1  0  0  0  0  0  0  0  0  0
   15.9771  -19.6703    8.5526 C   0  0  0  0  0  0  0  0  0  0  0  0
   16.0728  -18.7609    9.7322 C   0  0  0  0  0  0  0  0  0  0  0  0
   17.2258  -18.5474   10.4446 C   0  0  0  0  0  0  0  0  0  0  0  0
   16.9412  -17.6878   11.4202 N   0  0  0  0  0  0  0  0  0  0  0  0
   15.6447  -17.3621   11.3336 C   0  0  0  0  0  0  0  0  0  0  0  0
   15.1121  -18.0215   10.2967 N   0  0  0  0  0  0  0  0  0  0  0  0
   17.4880  -18.2531    7.2299 C   0  0  0  0  0  0  0  0  0  0  0  0
   18.5016  -18.8426    6.7191 O   0  0  0  0  0  0  0  0  0  0  0  0
   20.0119   -9.6529    7.5627 N   0  0  0  0  0  0  0  0  0  0  0  0
   21.1874  -10.4497    7.6289 C   0  0  0  0  0  0  0  0  0  0  0  0
   22.3661   -9.9204    7.5608 N   0  0  0  0  0  0  0  0  0  0  0  0
   21.1332  -11.8740    7.7736 N   0  0  0  0  0  0  0  0  0  0  0  0
   19.8803  -12.6028    7.7776 C   0  0  0  0  0  0  0  0  0  0  0  0
   20.1135  -14.1018    7.7554 C   0  0  0  0  0  0  0  0  0  0  0  0
   18.8058  -14.8143    7.7733 C   0  0  0  0  0  0  0  0  0  0  0  0
   18.9777  -16.3017    7.7403 C   0  0  2  0  0  0  0  0  0  0  0  0
   17.6587  -16.9577    7.7492 N   0  0  0  0  0  0  0  0  0  0  0  0
   19.8097  -16.8604    8.8215 C   0  0  0  0  0  0  0  0  0  0  0  0
   21.0546  -16.7772    8.8477 O   0  0  0  0  0  0  0  0  0  0  0  0
   19.2309  -17.5360    9.9130 O   0  0  0  0  0  0  0  0  0  0  0  0
  2  1  1  6
  2  3  1  0
  3  4  1  0
  4  5  2  0
  6  5  1  0
  7  6  1  0
  8  7  2  0
  8  4  1  0
  9  2  1  0
  9 10  2  0
 11  9  1  0
 12 11  1  0
 12 13  1  1
 13 14  1  0
 14 18  1  0
 15 14  2  0
 15 16  1  0
 16 17  1  0
 18 17  2  0
 19 12  1  0
 20 19  2  0
 22 24  1  0
 22 21  1  0
 23 22  2  0
 25 24  1  0
 26 25  1  0
 27 26  1  0
 28 27  1  1
 28 29  1  0
 29 19  1  0
 30 28  1  0
 30 32  1  0
 31 30  2  0
M  END
$$$$
