HHR.pdb
     RDKit          3D

 32 33  0  0  1  0  0  0  0  0999 V2000
   25.8777  -20.1686  -20.0075 N   0  0  0  0  0  0  0  0  0  0  0  0
   24.5495  -20.4389  -19.5127 C   0  0  1  0  0  0  0  0  0  0  0  0
   24.2240  -21.9141  -19.6114 C   0  0  0  0  0  0  0  0  0  0  0  0
   24.0812  -22.3313  -21.0357 C   0  0  0  0  0  0  0  0  0  0  0  0
   23.0713  -22.0094  -21.9143 C   0  0  0  0  0  0  0  0  0  0  0  0
   23.3123  -22.5836  -23.1025 N   0  0  0  0  0  0  0  0  0  0  0  0
   24.4711  -23.2614  -22.9615 C   0  0  0  0  0  0  0  0  0  0  0  0
   24.9392  -23.1091  -21.7073 N   0  0  0  0  0  0  0  0  0  0  0  0
   24.4384  -20.0625  -18.0858 C   0  0  0  0  0  0  0  0  0  0  0  0
   25.2065  -20.5911  -17.2521 O   0  0  0  0  0  0  0  0  0  0  0  0
   23.4678  -19.1131  -17.6870 N   0  0  0  0  0  0  0  0  0  0  0  0
   23.4379  -18.5428  -16.3616 C   0  0  1  0  0  0  0  0  0  0  0  0
   23.7663  -17.0819  -16.3497 C   0  0  0  0  0  0  0  0  0  0  0  0
   25.2163  -16.8252  -16.5932 C   0  0  0  0  0  0  0  0  0  0  0  0
   26.1755  -16.8535  -15.6126 C   0  0  0  0  0  0  0  0  0  0  0  0
   27.3444  -16.5780  -16.1867 N   0  0  0  0  0  0  0  0  0  0  0  0
   27.1378  -16.3794  -17.4953 C   0  0  0  0  0  0  0  0  0  0  0  0
   25.8306  -16.5315  -17.7441 N   0  0  0  0  0  0  0  0  0  0  0  0
   22.1211  -18.8018  -15.7367 C   0  0  0  0  0  0  0  0  0  0  0  0
   21.0585  -18.6980  -16.4410 O   0  0  0  0  0  0  0  0  0  0  0  0
   17.1244  -22.0886  -10.9257 N   0  0  0  0  0  0  0  0  0  0  0  0
   18.2632  -22.9048  -10.6851 C   0  0  0  0  0  0  0  0  0  0  0  0
   18.1855  -24.1961  -10.7109 N   0  0  0  0  0  0  0  0  0  0  0  0
   19.5522  -22.3471  -10.4024 N   0  0  0  0  0  0  0  0  0  0  0  0
   19.7899  -20.9173  -10.3931 C   0  0  0  0  0  0  0  0  0  0  0  0
   19.5471  -20.3084  -11.7613 C   0  0  0  0  0  0  0  0  0  0  0  0
   20.8482  -19.9418  -12.3865 C   0  0  0  0  0  0  0  0  0  0  0  0
   20.6784  -19.4696  -13.7976 C   0  0  2  0  0  0  0  0  0  0  0  0
   21.9946  -19.1618  -14.3836 N   0  0  0  0  0  0  0  0  0  0  0  0
   19.7839  -18.3100  -13.9669 C   0  0  0  0  0  0  0  0  0  0  0  0
   20.1337  -17.1314  -13.7529 O   0  0  0  0  0  0  0  0  0  0  0  0
   18.4509  -18.4722  -14.3908 O   0  0  0  0  0  0  0  0  0  0  0  0
  2  1  1  1
  2  3  1  0
  3  4  1  0
  4  5  2  0
  6  5  1  0
  7  6  1  0
  8  7  2  0
  8  4  1  0
  9  2  1  0
  9 10  2  0
 11  9  1  0
 12 11  1  0
 12 13  1  6
 13 14  1  0
 14 18  1  0
 15 14  2  0
 15 16  1  0
 16 17  1  0
 18 17  2  0
 19 12  1  0
 20 19  2  0
 22 24  1  0
 22 21  1  0
 23 22  2  0
 25 24  1  0
 26 25  1  0
 27 26  1  0
 28 27  1  1
 28 29  1  0
 29 19  1  0
 30 28  1  0
 30 32  1  0
 31 30  2  0
M  END
$$$$
