HHR.pdb
     RDKit          3D

 32 33  0  0  1  0  0  0  0  0999 V2000
   37.4766   -8.9617   -9.6156 N   0  0  0  0  0  0  0  0  0  0  0  0
   38.4281   -9.3376   -8.5981 C   0  0  1  0  0  0  0  0  0  0  0  0
   38.4120  -10.8336   -8.3669 C   0  0  0  0  0  0  0  0  0  0  0  0
   37.1619  -11.2486   -7.6683 C   0  0  0  0  0  0  0  0  0  0  0  0
   35.9804  -11.6760   -8.2310 C   0  0  0  0  0  0  0  0  0  0  0  0
   35.0979  -11.9554   -7.2600 N   0  0  0  0  0  0  0  0  0  0  0  0
   35.7313  -11.7015   -6.0954 C   0  0  0  0  0  0  0  0  0  0  0  0
   36.9845  -11.2723   -6.3415 N   0  0  0  0  0  0  0  0  0  0  0  0
   39.8024   -8.9750   -9.0104 C   0  0  0  0  0  0  0  0  0  0  0  0
   40.1593   -9.1746  -10.1924 O   0  0  0  0  0  0  0  0  0  0  0  0
   40.6896   -8.4094   -8.0640 N   0  0  0  0  0  0  0  0  0  0  0  0
   42.0253   -7.9850   -8.4085 C   0  0  1  0  0  0  0  0  0  0  0  0
   42.2345   -6.5142   -8.2210 C   0  0  0  0  0  0  0  0  0  0  0  0
   41.2922   -5.6987   -9.0424 C   0  0  0  0  0  0  0  0  0  0  0  0
   40.3711   -4.8287   -8.5158 C   0  0  0  0  0  0  0  0  0  0  0  0
   39.7079   -4.2828   -9.5326 N   0  0  0  0  0  0  0  0  0  0  0  0
   40.1910   -4.7893  -10.6748 C   0  0  0  0  0  0  0  0  0  0  0  0
   41.1640   -5.6587  -10.3728 N   0  0  0  0  0  0  0  0  0  0  0  0
   43.0133   -8.7704   -7.6349 C   0  0  0  0  0  0  0  0  0  0  0  0
   42.8175   -8.9753   -6.3877 O   0  0  0  0  0  0  0  0  0  0  0  0
   46.0783  -16.7361   -8.5169 N   0  0  0  0  0  0  0  0  0  0  0  0
   46.8563  -16.1643   -7.4734 C   0  0  0  0  0  0  0  0  0  0  0  0
   47.6622  -16.8833   -6.7608 N   0  0  0  0  0  0  0  0  0  0  0  0
   46.7920  -14.7691   -7.1543 N   0  0  0  0  0  0  0  0  0  0  0  0
   45.8398  -13.8758   -7.7840 C   0  0  0  0  0  0  0  0  0  0  0  0
   45.9959  -12.4551   -7.2753 C   0  0  0  0  0  0  0  0  0  0  0  0
   44.9748  -11.5780   -7.9126 C   0  0  0  0  0  0  0  0  0  0  0  0
   45.0958  -10.1559   -7.4586 C   0  0  2  0  0  0  0  0  0  0  0  0
   44.1707   -9.3052   -8.2274 N   0  0  0  0  0  0  0  0  0  0  0  0
   46.4550   -9.5893   -7.5289 C   0  0  0  0  0  0  0  0  0  0  0  0
   46.9266   -9.0516   -8.5515 O   0  0  0  0  0  0  0  0  0  0  0  0
   47.3187   -9.6239   -6.4173 O   0  0  0  0  0  0  0  0  0  0  0  0
  2  1  1  6
  2  3  1  0
  3  4  1  0
  4  5  2  0
  6  5  1  0
  7  6  1  0
  8  7  2  0
  8  4  1  0
  9  2  1  0
  9 10  2  0
 11  9  1  0
 12 11  1  0
 12 13  1  1
 13 14  1  0
 14 18  1  0
 15 14  2  0
 15 16  1  0
 16 17  1  0
 18 17  2  0
 19 12  1  0
 20 19  2  0
 22 24  1  0
 22 21  1  0
 23 22  2  0
 25 24  1  0
 26 25  1  0
 27 26  1  0
 28 27  1  6
 28 29  1  0
 29 19  1  0
 30 28  1  0
 30 32  1  0
 31 30  2  0
M  END
$$$$
