HHR.pdb
     RDKit          3D

 32 33  0  0  1  0  0  0  0  0999 V2000
   23.6941  -17.3637  -18.7429 N   0  0  0  0  0  0  0  0  0  0  0  0
   23.9503  -16.9549  -17.3831 C   0  0  1  0  0  0  0  0  0  0  0  0
   22.6745  -16.9525  -16.5681 C   0  0  0  0  0  0  0  0  0  0  0  0
   21.7663  -15.8550  -17.0083 C   0  0  0  0  0  0  0  0  0  0  0  0
   20.8347  -15.8832  -18.0215 C   0  0  0  0  0  0  0  0  0  0  0  0
   20.2220  -14.6922  -18.0989 N   0  0  0  0  0  0  0  0  0  0  0  0
   20.7732  -13.9254  -17.1344 C   0  0  0  0  0  0  0  0  0  0  0  0
   21.7109  -14.6299  -16.4714 N   0  0  0  0  0  0  0  0  0  0  0  0
   24.8865  -17.8929  -16.7246 C   0  0  0  0  0  0  0  0  0  0  0  0
   24.6570  -19.1214  -16.7734 O   0  0  0  0  0  0  0  0  0  0  0  0
   26.0241  -17.3875  -16.0515 N   0  0  0  0  0  0  0  0  0  0  0  0
   27.0029  -18.2457  -15.4284 C   0  0  1  0  0  0  0  0  0  0  0  0
   28.4010  -17.7269  -15.5634 C   0  0  0  0  0  0  0  0  0  0  0  0
   29.0014  -18.0551  -16.8898 C   0  0  0  0  0  0  0  0  0  0  0  0
   28.3656  -18.7892  -17.8591 C   0  0  0  0  0  0  0  0  0  0  0  0
   29.1933  -18.8851  -18.8971 N   0  0  0  0  0  0  0  0  0  0  0  0
   30.3243  -18.2319  -18.5996 C   0  0  0  0  0  0  0  0  0  0  0  0
   30.2056  -17.7224  -17.3667 N   0  0  0  0  0  0  0  0  0  0  0  0
   26.6453  -18.4611  -14.0081 C   0  0  0  0  0  0  0  0  0  0  0  0
   26.5336  -17.4543  -13.2271 O   0  0  0  0  0  0  0  0  0  0  0  0
   19.8482  -22.0575  -10.2875 N   0  0  0  0  0  0  0  0  0  0  0  0
   20.7498  -21.8365   -9.2108 C   0  0  0  0  0  0  0  0  0  0  0  0
   20.3827  -21.9939   -7.9800 N   0  0  0  0  0  0  0  0  0  0  0  0
   22.1064  -21.4298   -9.4265 N   0  0  0  0  0  0  0  0  0  0  0  0
   22.6703  -21.2947  -10.7550 C   0  0  0  0  0  0  0  0  0  0  0  0
   24.0783  -20.7321  -10.7025 C   0  0  0  0  0  0  0  0  0  0  0  0
   24.5864  -20.5192  -12.0863 C   0  0  0  0  0  0  0  0  0  0  0  0
   25.9628  -19.9287  -12.0929 C   0  0  2  0  0  0  0  0  0  0  0  0
   26.4212  -19.7450  -13.4809 N   0  0  0  0  0  0  0  0  0  0  0  0
   26.9752  -20.6910  -11.3398 C   0  0  0  0  0  0  0  0  0  0  0  0
   27.1211  -20.6104  -10.1031 O   0  0  0  0  0  0  0  0  0  0  0  0
   27.8564  -21.5757  -11.9909 O   0  0  0  0  0  0  0  0  0  0  0  0
  2  1  1  6
  2  3  1  0
  3  4  1  0
  4  5  2  0
  6  5  1  0
  7  6  1  0
  8  7  2  0
  8  4  1  0
  9  2  1  0
  9 10  2  0
 11  9  1  0
 12 11  1  0
 12 13  1  1
 13 14  1  0
 14 18  1  0
 15 14  2  0
 15 16  1  0
 16 17  1  0
 18 17  2  0
 19 12  1  0
 20 19  2  0
 22 24  1  0
 22 21  1  0
 23 22  2  0
 25 24  1  0
 26 25  1  0
 27 26  1  0
 28 27  1  6
 28 29  1  0
 29 19  1  0
 30 28  1  0
 30 32  1  0
 31 30  2  0
M  END
$$$$
