HHR.pdb
     RDKit          3D

 32 33  0  0  1  0  0  0  0  0999 V2000
   27.5737  -10.1150  -18.8084 N   0  0  0  0  0  0  0  0  0  0  0  0
   26.8493   -9.0508  -19.4601 C   0  0  1  0  0  0  0  0  0  0  0  0
   25.6092   -9.5810  -20.1477 C   0  0  0  0  0  0  0  0  0  0  0  0
   25.9741  -10.4797  -21.2800 C   0  0  0  0  0  0  0  0  0  0  0  0
   27.2285  -10.7362  -21.7860 C   0  0  0  0  0  0  0  0  0  0  0  0
   27.1309  -11.6025  -22.8057 N   0  0  0  0  0  0  0  0  0  0  0  0
   25.8168  -11.8833  -22.9325 C   0  0  0  0  0  0  0  0  0  0  0  0
   25.1131  -11.2026  -22.0069 N   0  0  0  0  0  0  0  0  0  0  0  0
   26.4030   -8.0433  -18.4723 C   0  0  0  0  0  0  0  0  0  0  0  0
   26.1130   -8.4104  -17.3124 O   0  0  0  0  0  0  0  0  0  0  0  0
   26.3113   -6.6836  -18.8536 N   0  0  0  0  0  0  0  0  0  0  0  0
   25.9571   -5.6383  -17.9236 C   0  0  1  0  0  0  0  0  0  0  0  0
   26.4102   -4.2833  -18.3718 C   0  0  0  0  0  0  0  0  0  0  0  0
   27.8975   -4.1616  -18.3932 C   0  0  0  0  0  0  0  0  0  0  0  0
   28.7366   -4.8634  -17.5648 C   0  0  0  0  0  0  0  0  0  0  0  0
   29.9839   -4.5039  -17.8591 N   0  0  0  0  0  0  0  0  0  0  0  0
   29.9428   -3.5991  -18.8461 C   0  0  0  0  0  0  0  0  0  0  0  0
   28.6611   -3.3895  -19.1735 N   0  0  0  0  0  0  0  0  0  0  0  0
   24.4974   -5.6622  -17.6786 C   0  0  0  0  0  0  0  0  0  0  0  0
   23.7096   -6.0576  -18.6054 O   0  0  0  0  0  0  0  0  0  0  0  0
   19.1529  -11.2322  -15.8945 N   0  0  0  0  0  0  0  0  0  0  0  0
   18.3520  -10.0671  -15.7452 C   0  0  0  0  0  0  0  0  0  0  0  0
   17.0726  -10.1458  -15.5689 N   0  0  0  0  0  0  0  0  0  0  0  0
   18.9128   -8.7493  -15.7815 N   0  0  0  0  0  0  0  0  0  0  0  0
   20.3178   -8.5149  -16.0500 C   0  0  0  0  0  0  0  0  0  0  0  0
   20.6583   -7.0392  -15.9600 C   0  0  0  0  0  0  0  0  0  0  0  0
   22.0831   -6.8281  -16.3391 C   0  0  0  0  0  0  0  0  0  0  0  0
   22.4955   -5.3959  -16.1923 C   0  0  2  0  0  0  0  0  0  0  0  0
   23.9396   -5.2624  -16.4516 N   0  0  0  0  0  0  0  0  0  0  0  0
   22.1727   -4.7810  -14.8919 C   0  0  0  0  0  0  0  0  0  0  0  0
   23.0142   -4.5915  -13.9901 O   0  0  0  0  0  0  0  0  0  0  0  0
   20.8631   -4.3622  -14.5875 O   0  0  0  0  0  0  0  0  0  0  0  0
  2  1  1  1
  2  3  1  0
  3  4  1  0
  4  5  2  0
  6  5  1  0
  7  6  1  0
  8  7  2  0
  8  4  1  0
  9  2  1  0
  9 10  2  0
 11  9  1  0
 12 11  1  0
 12 13  1  6
 13 14  1  0
 14 18  1  0
 15 14  2  0
 15 16  1  0
 16 17  1  0
 18 17  2  0
 19 12  1  0
 20 19  2  0
 22 24  1  0
 22 21  1  0
 23 22  2  0
 25 24  1  0
 26 25  1  0
 27 26  1  0
 28 27  1  1
 28 29  1  0
 29 19  1  0
 30 28  1  0
 30 32  1  0
 31 30  2  0
M  END
$$$$
