HHR.pdb
     RDKit          3D

 32 33  0  0  1  0  0  0  0  0999 V2000
   23.4676  -20.4151  -19.7635 N   0  0  0  0  0  0  0  0  0  0  0  0
   22.8659  -19.3406  -19.0116 C   0  0  1  0  0  0  0  0  0  0  0  0
   22.9984  -18.0239  -19.7468 C   0  0  0  0  0  0  0  0  0  0  0  0
   24.4328  -17.6572  -19.9232 C   0  0  0  0  0  0  0  0  0  0  0  0
   25.2298  -16.9257  -19.0717 C   0  0  0  0  0  0  0  0  0  0  0  0
   26.4607  -16.8173  -19.5940 N   0  0  0  0  0  0  0  0  0  0  0  0
   26.4276  -17.4810  -20.7688 C   0  0  0  0  0  0  0  0  0  0  0  0
   25.1972  -17.9916  -20.9702 N   0  0  0  0  0  0  0  0  0  0  0  0
   21.4199  -19.5873  -18.8162 C   0  0  0  0  0  0  0  0  0  0  0  0
   20.7537  -20.0896  -19.7479 O   0  0  0  0  0  0  0  0  0  0  0  0
   20.8143  -19.2522  -17.5819 N   0  0  0  0  0  0  0  0  0  0  0  0
   19.4148  -19.4830  -17.3154 C   0  0  1  0  0  0  0  0  0  0  0  0
   19.1868  -20.3562  -16.1206 C   0  0  0  0  0  0  0  0  0  0  0  0
   19.2793  -21.8080  -16.4539 C   0  0  0  0  0  0  0  0  0  0  0  0
   19.4919  -22.2923  -17.7200 C   0  0  0  0  0  0  0  0  0  0  0  0
   19.5134  -23.6210  -17.6429 N   0  0  0  0  0  0  0  0  0  0  0  0
   19.3201  -23.9748  -16.3654 C   0  0  0  0  0  0  0  0  0  0  0  0
   19.1764  -22.8609  -15.6360 N   0  0  0  0  0  0  0  0  0  0  0  0
   18.7135  -18.1869  -17.1746 C   0  0  0  0  0  0  0  0  0  0  0  0
   19.2175  -17.2755  -16.4322 O   0  0  0  0  0  0  0  0  0  0  0  0
   14.2528  -13.3629  -23.0868 N   0  0  0  0  0  0  0  0  0  0  0  0
   14.4073  -12.5703  -21.9168 C   0  0  0  0  0  0  0  0  0  0  0  0
   14.0351  -11.3314  -21.8870 N   0  0  0  0  0  0  0  0  0  0  0  0
   14.9801  -13.0951  -20.7131 N   0  0  0  0  0  0  0  0  0  0  0  0
   15.5254  -14.4361  -20.6381 C   0  0  0  0  0  0  0  0  0  0  0  0
   15.9180  -14.7936  -19.2169 C   0  0  0  0  0  0  0  0  0  0  0  0
   16.5583  -16.1381  -19.1954 C   0  0  0  0  0  0  0  0  0  0  0  0
   16.8997  -16.5739  -17.8038 C   0  0  2  0  0  0  0  0  0  0  0  0
   17.5013  -17.9183  -17.8343 N   0  0  0  0  0  0  0  0  0  0  0  0
   15.7756  -16.5621  -16.8500 C   0  0  0  0  0  0  0  0  0  0  0  0
   15.1357  -17.5828  -16.5247 O   0  0  0  0  0  0  0  0  0  0  0  0
   15.3509  -15.3676  -16.2370 O   0  0  0  0  0  0  0  0  0  0  0  0
  2  1  1  6
  2  3  1  0
  3  4  1  0
  4  5  2  0
  6  5  1  0
  7  6  1  0
  8  7  2  0
  8  4  1  0
  9  2  1  0
  9 10  2  0
 11  9  1  0
 12 11  1  0
 12 13  1  1
 13 14  1  0
 14 18  1  0
 15 14  2  0
 15 16  1  0
 16 17  1  0
 18 17  2  0
 19 12  1  0
 20 19  2  0
 22 24  1  0
 22 21  1  0
 23 22  2  0
 25 24  1  0
 26 25  1  0
 27 26  1  0
 28 27  1  6
 28 29  1  0
 29 19  1  0
 30 28  1  0
 30 32  1  0
 31 30  2  0
M  END
$$$$
