HHR.pdb
     RDKit          3D

 32 33  0  0  1  0  0  0  0  0999 V2000
   28.6950  -17.5163  -18.6613 N   0  0  0  0  0  0  0  0  0  0  0  0
   27.4026  -18.1500  -18.7608 C   0  0  1  0  0  0  0  0  0  0  0  0
   27.5035  -19.6343  -18.4809 C   0  0  0  0  0  0  0  0  0  0  0  0
   28.3277  -20.3150  -19.5203 C   0  0  0  0  0  0  0  0  0  0  0  0
   29.4790  -21.0483  -19.3406 C   0  0  0  0  0  0  0  0  0  0  0  0
   29.9154  -21.4937  -20.5283 N   0  0  0  0  0  0  0  0  0  0  0  0
   29.0357  -21.0372  -21.4445 C   0  0  0  0  0  0  0  0  0  0  0  0
   28.0711  -20.3214  -20.8342 N   0  0  0  0  0  0  0  0  0  0  0  0
   26.4656  -17.5815  -17.7664 C   0  0  0  0  0  0  0  0  0  0  0  0
   26.7554  -17.6372  -16.5510 O   0  0  0  0  0  0  0  0  0  0  0  0
   25.2592  -16.9851  -18.2041 N   0  0  0  0  0  0  0  0  0  0  0  0
   24.3222  -16.3703  -17.2947 C   0  0  1  0  0  0  0  0  0  0  0  0
   24.1692  -14.8986  -17.5247 C   0  0  0  0  0  0  0  0  0  0  0  0
   25.4133  -14.1418  -17.1976 C   0  0  0  0  0  0  0  0  0  0  0  0
   26.2537  -13.6035  -18.1393 C   0  0  0  0  0  0  0  0  0  0  0  0
   27.2527  -13.0082  -17.4919 N   0  0  0  0  0  0  0  0  0  0  0  0
   27.0564  -13.1618  -16.1757 C   0  0  0  0  0  0  0  0  0  0  0  0
   25.9265  -13.8580  -15.9959 N   0  0  0  0  0  0  0  0  0  0  0  0
   23.0175  -17.0649  -17.3778 C   0  0  0  0  0  0  0  0  0  0  0  0
   22.9078  -18.1146  -18.1002 O   0  0  0  0  0  0  0  0  0  0  0  0
   19.5403  -21.4364  -12.3317 N   0  0  0  0  0  0  0  0  0  0  0  0
   19.0926  -22.1928  -13.4490 C   0  0  0  0  0  0  0  0  0  0  0  0
   18.1673  -23.0894  -13.3299 N   0  0  0  0  0  0  0  0  0  0  0  0
   19.6372  -22.0060  -14.7608 N   0  0  0  0  0  0  0  0  0  0  0  0
   20.6939  -21.0509  -15.0297 C   0  0  0  0  0  0  0  0  0  0  0  0
   20.1302  -19.7164  -15.4803 C   0  0  0  0  0  0  0  0  0  0  0  0
   21.2450  -18.7857  -15.8109 C   0  0  0  0  0  0  0  0  0  0  0  0
   20.7476  -17.5054  -16.4078 C   0  0  2  0  0  0  0  0  0  0  0  0
   21.8831  -16.6083  -16.6842 N   0  0  0  0  0  0  0  0  0  0  0  0
   19.7416  -16.7883  -15.6034 C   0  0  0  0  0  0  0  0  0  0  0  0
   18.6429  -17.2799  -15.2740 O   0  0  0  0  0  0  0  0  0  0  0  0
   19.9707  -15.4749  -15.1500 O   0  0  0  0  0  0  0  0  0  0  0  0
  2  1  1  1
  2  3  1  0
  3  4  1  0
  4  5  2  0
  6  5  1  0
  7  6  1  0
  8  7  2  0
  8  4  1  0
  9  2  1  0
  9 10  2  0
 11  9  1  0
 12 11  1  0
 12 13  1  6
 13 14  1  0
 14 18  1  0
 15 14  2  0
 15 16  1  0
 16 17  1  0
 18 17  2  0
 19 12  1  0
 20 19  2  0
 22 24  1  0
 22 21  1  0
 23 22  2  0
 25 24  1  0
 26 25  1  0
 27 26  1  0
 28 27  1  1
 28 29  1  0
 29 19  1  0
 30 28  1  0
 30 32  1  0
 31 30  2  0
M  END
$$$$
