HHR.pdb
     RDKit          3D

 32 33  0  0  1  0  0  0  0  0999 V2000
   27.9041  -16.8691  -21.2061 N   0  0  0  0  0  0  0  0  0  0  0  0
   27.4694  -16.7467  -19.8357 C   0  0  1  0  0  0  0  0  0  0  0  0
   27.4684  -15.2986  -19.3944 C   0  0  0  0  0  0  0  0  0  0  0  0
   28.8609  -14.7774  -19.2833 C   0  0  0  0  0  0  0  0  0  0  0  0
   30.0391  -15.4687  -19.4542 C   0  0  0  0  0  0  0  0  0  0  0  0
   31.0760  -14.6382  -19.2681 N   0  0  0  0  0  0  0  0  0  0  0  0
   30.5417  -13.4322  -18.9817 C   0  0  0  0  0  0  0  0  0  0  0  0
   29.1969  -13.5149  -18.9906 N   0  0  0  0  0  0  0  0  0  0  0  0
   26.0866  -17.2507  -19.6807 C   0  0  0  0  0  0  0  0  0  0  0  0
   25.2401  -16.9964  -20.5656 O   0  0  0  0  0  0  0  0  0  0  0  0
   25.7438  -18.0104  -18.5371 N   0  0  0  0  0  0  0  0  0  0  0  0
   24.4540  -18.6387  -18.3801 C   0  0  1  0  0  0  0  0  0  0  0  0
   24.5530  -20.1020  -18.0783 C   0  0  0  0  0  0  0  0  0  0  0  0
   23.2130  -20.7510  -17.9743 C   0  0  0  0  0  0  0  0  0  0  0  0
   22.0235  -20.0715  -18.0519 C   0  0  0  0  0  0  0  0  0  0  0  0
   21.0434  -20.9618  -17.9165 N   0  0  0  0  0  0  0  0  0  0  0  0
   21.5906  -22.1741  -17.7569 C   0  0  0  0  0  0  0  0  0  0  0  0
   22.9231  -22.0437  -17.7926 N   0  0  0  0  0  0  0  0  0  0  0  0
   23.6761  -17.9278  -17.3404 C   0  0  0  0  0  0  0  0  0  0  0  0
   24.2208  -17.6704  -16.2122 O   0  0  0  0  0  0  0  0  0  0  0  0
   18.4817  -11.9906  -19.7650 N   0  0  0  0  0  0  0  0  0  0  0  0
   19.2792  -13.0962  -20.1683 C   0  0  0  0  0  0  0  0  0  0  0  0
   19.2937  -13.5058  -21.3956 N   0  0  0  0  0  0  0  0  0  0  0  0
   20.1060  -13.8143  -19.2446 N   0  0  0  0  0  0  0  0  0  0  0  0
   20.1793  -13.4640  -17.8399 C   0  0  0  0  0  0  0  0  0  0  0  0
   21.1365  -14.3740  -17.0933 C   0  0  0  0  0  0  0  0  0  0  0  0
   20.6780  -15.7866  -17.2058 C   0  0  0  0  0  0  0  0  0  0  0  0
   21.6216  -16.7369  -16.5352 C   0  0  2  0  0  0  0  0  0  0  0  0
   22.3468  -17.5207  -17.5501 N   0  0  0  0  0  0  0  0  0  0  0  0
   21.0013  -17.6526  -15.5606 C   0  0  0  0  0  0  0  0  0  0  0  0
   20.7267  -18.8440  -15.8106 O   0  0  0  0  0  0  0  0  0  0  0  0
   20.6761  -17.2228  -14.2596 O   0  0  0  0  0  0  0  0  0  0  0  0
  2  1  1  6
  2  3  1  0
  3  4  1  0
  4  5  2  0
  6  5  1  0
  7  6  1  0
  8  7  2  0
  8  4  1  0
  9  2  1  0
  9 10  2  0
 11  9  1  0
 12 11  1  0
 12 13  1  1
 13 14  1  0
 14 18  1  0
 15 14  2  0
 15 16  1  0
 16 17  1  0
 18 17  2  0
 19 12  1  0
 20 19  2  0
 22 24  1  0
 22 21  1  0
 23 22  2  0
 25 24  1  0
 26 25  1  0
 27 26  1  0
 28 27  1  6
 28 29  1  0
 29 19  1  0
 30 28  1  0
 30 32  1  0
 31 30  2  0
M  END
$$$$
