HHR.pdb
     RDKit          3D

 32 33  0  0  1  0  0  0  0  0999 V2000
   24.8080  -13.2917  -20.3226 N   0  0  0  0  0  0  0  0  0  0  0  0
   24.5887  -11.8744  -20.1640 C   0  0  1  0  0  0  0  0  0  0  0  0
   23.4001  -11.4149  -20.9812 C   0  0  0  0  0  0  0  0  0  0  0  0
   23.6631  -11.5811  -22.4393 C   0  0  0  0  0  0  0  0  0  0  0  0
   23.1291  -12.5192  -23.2937 C   0  0  0  0  0  0  0  0  0  0  0  0
   23.6205  -12.3313  -24.5278 N   0  0  0  0  0  0  0  0  0  0  0  0
   24.4590  -11.2773  -24.4393 C   0  0  0  0  0  0  0  0  0  0  0  0
   24.4860  -10.8206  -23.1720 N   0  0  0  0  0  0  0  0  0  0  0  0
   24.2985  -11.5471  -18.7502 C   0  0  0  0  0  0  0  0  0  0  0  0
   23.5503  -12.3002  -18.0890 O   0  0  0  0  0  0  0  0  0  0  0  0
   24.8703  -10.3903  -18.1693 N   0  0  0  0  0  0  0  0  0  0  0  0
   24.6374  -10.0152  -16.7952 C   0  0  1  0  0  0  0  0  0  0  0  0
   25.8798   -9.5492  -16.1013 C   0  0  0  0  0  0  0  0  0  0  0  0
   26.8915  -10.6373  -15.9594 C   0  0  0  0  0  0  0  0  0  0  0  0
   26.6156  -11.9694  -16.1385 C   0  0  0  0  0  0  0  0  0  0  0  0
   27.7439  -12.6442  -15.9307 N   0  0  0  0  0  0  0  0  0  0  0  0
   28.7118  -11.7691  -15.6277 C   0  0  0  0  0  0  0  0  0  0  0  0
   28.1875  -10.5368  -15.6456 N   0  0  0  0  0  0  0  0  0  0  0  0
   23.5709   -8.9906  -16.7317 C   0  0  0  0  0  0  0  0  0  0  0  0
   23.5113   -8.0867  -17.6347 O   0  0  0  0  0  0  0  0  0  0  0  0
   15.0693   -9.3094  -17.1095 N   0  0  0  0  0  0  0  0  0  0  0  0
   15.3585   -7.9507  -16.8071 C   0  0  0  0  0  0  0  0  0  0  0  0
   14.4316   -7.0478  -16.8052 N   0  0  0  0  0  0  0  0  0  0  0  0
   16.6834   -7.5078  -16.4897 N   0  0  0  0  0  0  0  0  0  0  0  0
   17.8065   -8.4214  -16.4174 C   0  0  0  0  0  0  0  0  0  0  0  0
   19.0841   -7.6966  -16.0375 C   0  0  0  0  0  0  0  0  0  0  0  0
   20.2196   -8.6600  -16.0107 C   0  0  0  0  0  0  0  0  0  0  0  0
   21.5195   -7.9851  -15.6980 C   0  0  2  0  0  0  0  0  0  0  0  0
   22.6108   -8.9747  -15.7047 N   0  0  0  0  0  0  0  0  0  0  0  0
   21.5467   -7.2349  -14.4292 C   0  0  0  0  0  0  0  0  0  0  0  0
   21.9186   -7.7269  -13.3442 O   0  0  0  0  0  0  0  0  0  0  0  0
   21.1447   -5.8867  -14.3695 O   0  0  0  0  0  0  0  0  0  0  0  0
  2  1  1  1
  2  3  1  0
  3  4  1  0
  4  5  2  0
  6  5  1  0
  7  6  1  0
  8  7  2  0
  8  4  1  0
  9  2  1  0
  9 10  2  0
 11  9  1  0
 12 11  1  0
 12 13  1  6
 13 14  1  0
 14 18  1  0
 15 14  2  0
 15 16  1  0
 16 17  1  0
 18 17  2  0
 19 12  1  0
 20 19  2  0
 22 24  1  0
 22 21  1  0
 23 22  2  0
 25 24  1  0
 26 25  1  0
 27 26  1  0
 28 27  1  1
 28 29  1  0
 29 19  1  0
 30 28  1  0
 30 32  1  0
 31 30  2  0
M  END
$$$$
