HHR.pdb
     RDKit          3D

 32 33  0  0  1  0  0  0  0  0999 V2000
   27.9578  -22.9736  -17.4404 N   0  0  0  0  0  0  0  0  0  0  0  0
   27.5623  -21.6696  -16.9658 C   0  0  1  0  0  0  0  0  0  0  0  0
   26.7406  -20.9399  -18.0071 C   0  0  0  0  0  0  0  0  0  0  0  0
   27.5900  -20.5333  -19.1631 C   0  0  0  0  0  0  0  0  0  0  0  0
   28.4795  -19.4847  -19.2317 C   0  0  0  0  0  0  0  0  0  0  0  0
   29.0453  -19.4571  -20.4477 N   0  0  0  0  0  0  0  0  0  0  0  0
   28.5074  -20.4879  -21.1333 C   0  0  0  0  0  0  0  0  0  0  0  0
   27.6237  -21.1423  -20.3548 N   0  0  0  0  0  0  0  0  0  0  0  0
   26.7226  -21.7890  -15.7531 C   0  0  0  0  0  0  0  0  0  0  0  0
   25.8102  -22.6439  -15.7225 O   0  0  0  0  0  0  0  0  0  0  0  0
   26.9637  -20.9368  -14.6495 N   0  0  0  0  0  0  0  0  0  0  0  0
   26.2229  -21.0363  -13.4149 C   0  0  1  0  0  0  0  0  0  0  0  0
   26.8829  -20.3145  -12.2811 C   0  0  0  0  0  0  0  0  0  0  0  0
   26.1238  -20.4522  -11.0034 C   0  0  0  0  0  0  0  0  0  0  0  0
   24.9530  -21.1567  -10.8788 C   0  0  0  0  0  0  0  0  0  0  0  0
   24.5609  -21.0620   -9.6103 N   0  0  0  0  0  0  0  0  0  0  0  0
   25.4547  -20.3189   -8.9445 C   0  0  0  0  0  0  0  0  0  0  0  0
   26.4142  -19.9448   -9.8007 N   0  0  0  0  0  0  0  0  0  0  0  0
   24.8384  -20.5555  -13.6238 C   0  0  0  0  0  0  0  0  0  0  0  0
   24.6423  -19.4364  -14.2110 O   0  0  0  0  0  0  0  0  0  0  0  0
   19.4028  -21.3736  -17.4405 N   0  0  0  0  0  0  0  0  0  0  0  0
   19.7937  -22.6860  -17.8223 C   0  0  0  0  0  0  0  0  0  0  0  0
   19.7560  -23.0688  -19.0577 N   0  0  0  0  0  0  0  0  0  0  0  0
   20.2482  -23.6520  -16.8669 N   0  0  0  0  0  0  0  0  0  0  0  0
   20.3512  -23.3506  -15.4528 C   0  0  0  0  0  0  0  0  0  0  0  0
   21.2553  -22.1573  -15.2072 C   0  0  0  0  0  0  0  0  0  0  0  0
   21.4488  -21.9663  -13.7428 C   0  0  0  0  0  0  0  0  0  0  0  0
   22.3502  -20.8084  -13.4432 C   0  0  2  0  0  0  0  0  0  0  0  0
   23.7198  -21.2920  -13.1961 N   0  0  0  0  0  0  0  0  0  0  0  0
   21.9221  -19.9554  -12.3197 C   0  0  0  0  0  0  0  0  0  0  0  0
   22.3670  -20.0677  -11.1591 O   0  0  0  0  0  0  0  0  0  0  0  0
   20.9630  -18.9400  -12.4983 O   0  0  0  0  0  0  0  0  0  0  0  0
  2  1  1  6
  2  3  1  0
  3  4  1  0
  4  5  2  0
  6  5  1  0
  7  6  1  0
  8  7  2  0
  8  4  1  0
  9  2  1  0
  9 10  2  0
 11  9  1  0
 12 11  1  0
 12 13  1  1
 13 14  1  0
 14 18  1  0
 15 14  2  0
 15 16  1  0
 16 17  1  0
 18 17  2  0
 19 12  1  0
 20 19  2  0
 22 24  1  0
 22 21  1  0
 23 22  2  0
 25 24  1  0
 26 25  1  0
 27 26  1  0
 28 27  1  1
 28 29  1  0
 29 19  1  0
 30 28  1  0
 30 32  1  0
 31 30  2  0
M  END
$$$$
