HHR.pdb
     RDKit          3D

 32 33  0  0  1  0  0  0  0  0999 V2000
   29.4493  -16.3891  -19.3957 N   0  0  0  0  0  0  0  0  0  0  0  0
   29.0341  -17.5299  -18.6159 C   0  0  1  0  0  0  0  0  0  0  0  0
   30.0913  -17.9056  -17.5995 C   0  0  0  0  0  0  0  0  0  0  0  0
   31.3076  -18.4434  -18.2737 C   0  0  0  0  0  0  0  0  0  0  0  0
   32.5255  -17.8238  -18.4416 C   0  0  0  0  0  0  0  0  0  0  0  0
   33.3574  -18.6441  -19.1008 N   0  0  0  0  0  0  0  0  0  0  0  0
   32.6563  -19.7720  -19.3420 C   0  0  0  0  0  0  0  0  0  0  0  0
   31.4116  -19.6519  -18.8404 N   0  0  0  0  0  0  0  0  0  0  0  0
   27.7960  -17.2250  -17.8648 C   0  0  0  0  0  0  0  0  0  0  0  0
   27.8388  -16.4038  -16.9224 O   0  0  0  0  0  0  0  0  0  0  0  0
   26.5859  -17.8652  -18.2228 N   0  0  0  0  0  0  0  0  0  0  0  0
   25.3310  -17.5738  -17.5722 C   0  0  1  0  0  0  0  0  0  0  0  0
   24.2868  -17.0724  -18.5211 C   0  0  0  0  0  0  0  0  0  0  0  0
   22.9958  -16.7713  -17.8354 C   0  0  0  0  0  0  0  0  0  0  0  0
   22.8272  -16.7927  -16.4739 C   0  0  0  0  0  0  0  0  0  0  0  0
   21.5583  -16.4797  -16.2218 N   0  0  0  0  0  0  0  0  0  0  0  0
   20.9348  -16.2649  -17.3878 C   0  0  0  0  0  0  0  0  0  0  0  0
   21.8184  -16.4441  -18.3783 N   0  0  0  0  0  0  0  0  0  0  0  0
   24.8597  -18.7703  -16.8389 C   0  0  0  0  0  0  0  0  0  0  0  0
   24.9575  -19.9227  -17.3851 O   0  0  0  0  0  0  0  0  0  0  0  0
   20.6315  -19.9688  -10.2925 N   0  0  0  0  0  0  0  0  0  0  0  0
   21.3507  -21.1850  -10.1356 C   0  0  0  0  0  0  0  0  0  0  0  0
   20.7418  -22.3056   -9.9170 N   0  0  0  0  0  0  0  0  0  0  0  0
   22.7804  -21.2378  -10.2100 N   0  0  0  0  0  0  0  0  0  0  0  0
   23.5440  -20.3354  -11.0488 C   0  0  0  0  0  0  0  0  0  0  0  0
   23.2924  -20.6039  -12.5207 C   0  0  0  0  0  0  0  0  0  0  0  0
   24.1412  -19.7023  -13.3483 C   0  0  0  0  0  0  0  0  0  0  0  0
   23.9010  -19.8961  -14.8138 C   0  0  2  0  0  0  0  0  0  0  0  0
   24.3031  -18.6854  -15.5507 N   0  0  0  0  0  0  0  0  0  0  0  0
   22.5190  -20.2557  -15.1800 C   0  0  0  0  0  0  0  0  0  0  0  0
   22.1359  -21.4296  -15.3605 O   0  0  0  0  0  0  0  0  0  0  0  0
   21.5288  -19.2691  -15.3506 O   0  0  0  0  0  0  0  0  0  0  0  0
  2  1  1  1
  2  3  1  0
  3  4  1  0
  4  5  2  0
  6  5  1  0
  7  6  1  0
  8  7  2  0
  8  4  1  0
  9  2  1  0
  9 10  2  0
 11  9  1  0
 12 11  1  0
 12 13  1  6
 13 14  1  0
 14 18  1  0
 15 14  2  0
 15 16  1  0
 16 17  1  0
 18 17  2  0
 19 12  1  0
 20 19  2  0
 22 24  1  0
 22 21  1  0
 23 22  2  0
 25 24  1  0
 26 25  1  0
 27 26  1  0
 28 27  1  1
 28 29  1  0
 29 19  1  0
 30 28  1  0
 30 32  1  0
 31 30  2  0
M  END
$$$$
