HHR.pdb
     RDKit          3D

 32 33  0  0  1  0  0  0  0  0999 V2000
   17.5092  -11.7379  -15.5169 N   0  0  0  0  0  0  0  0  0  0  0  0
   17.0519  -10.3947  -15.2550 C   0  0  1  0  0  0  0  0  0  0  0  0
   15.5486  -10.3583  -15.0798 C   0  0  0  0  0  0  0  0  0  0  0  0
   14.8577  -10.6959  -16.3572 C   0  0  0  0  0  0  0  0  0  0  0  0
   13.9776  -11.7273  -16.5960 C   0  0  0  0  0  0  0  0  0  0  0  0
   13.5785  -11.6873  -17.8761 N   0  0  0  0  0  0  0  0  0  0  0  0
   14.2105  -10.6318  -18.4315 C   0  0  0  0  0  0  0  0  0  0  0  0
   14.9875  -10.0288  -17.5107 N   0  0  0  0  0  0  0  0  0  0  0  0
   17.6492   -9.8754  -14.0046 C   0  0  0  0  0  0  0  0  0  0  0  0
   17.5238  -10.5324  -12.9478 O   0  0  0  0  0  0  0  0  0  0  0  0
   18.3512   -8.6469  -14.0232 N   0  0  0  0  0  0  0  0  0  0  0  0
   18.9801   -8.0938  -12.8477 C   0  0  1  0  0  0  0  0  0  0  0  0
   20.1910   -7.2732  -13.1679 C   0  0  0  0  0  0  0  0  0  0  0  0
   21.2658   -8.0791  -13.8181 C   0  0  0  0  0  0  0  0  0  0  0  0
   21.1337   -9.4020  -14.1575 C   0  0  0  0  0  0  0  0  0  0  0  0
   22.2809   -9.7911  -14.7092 N   0  0  0  0  0  0  0  0  0  0  0  0
   23.1209   -8.7477  -14.7217 C   0  0  0  0  0  0  0  0  0  0  0  0
   22.4967   -7.6967  -14.1743 N   0  0  0  0  0  0  0  0  0  0  0  0
   17.9903   -7.3106  -12.0742 C   0  0  0  0  0  0  0  0  0  0  0  0
   17.2119   -6.5004  -12.6853 O   0  0  0  0  0  0  0  0  0  0  0  0
   11.2096   -8.9378   -7.1727 N   0  0  0  0  0  0  0  0  0  0  0  0
   11.3570   -7.5239   -7.1568 C   0  0  0  0  0  0  0  0  0  0  0  0
   10.4731   -6.7595   -6.6013 N   0  0  0  0  0  0  0  0  0  0  0  0
   12.4850   -6.8705   -7.7510 N   0  0  0  0  0  0  0  0  0  0  0  0
   13.5645   -7.6090   -8.3760 C   0  0  0  0  0  0  0  0  0  0  0  0
   14.6551   -6.6783   -8.8722 C   0  0  0  0  0  0  0  0  0  0  0  0
   15.7132   -7.4670   -9.5627 C   0  0  0  0  0  0  0  0  0  0  0  0
   16.8944   -6.6213   -9.9268 C   0  0  2  0  0  0  0  0  0  0  0  0
   17.8731   -7.4265  -10.6780 N   0  0  0  0  0  0  0  0  0  0  0  0
   17.5686   -5.9648   -8.7920 C   0  0  0  0  0  0  0  0  0  0  0  0
   18.6573   -6.3500   -8.3191 O   0  0  0  0  0  0  0  0  0  0  0  0
   17.0072   -4.8371   -8.1626 O   0  0  0  0  0  0  0  0  0  0  0  0
  2  1  1  1
  2  3  1  0
  3  4  1  0
  4  5  2  0
  6  5  1  0
  7  6  1  0
  8  7  2  0
  8  4  1  0
  9  2  1  0
  9 10  2  0
 11  9  1  0
 12 11  1  0
 12 13  1  6
 13 14  1  0
 14 18  1  0
 15 14  2  0
 15 16  1  0
 16 17  1  0
 18 17  2  0
 19 12  1  0
 20 19  2  0
 22 24  1  0
 22 21  1  0
 23 22  2  0
 25 24  1  0
 26 25  1  0
 27 26  1  0
 28 27  1  1
 28 29  1  0
 29 19  1  0
 30 28  1  0
 30 32  1  0
 31 30  2  0
M  END
$$$$
