HHR.pdb
     RDKit          3D

 32 33  0  0  1  0  0  0  0  0999 V2000
   20.3454  -12.5181  -16.9032 N   0  0  0  0  0  0  0  0  0  0  0  0
   19.5418  -11.3575  -16.6045 C   0  0  1  0  0  0  0  0  0  0  0  0
   18.6716  -11.5988  -15.3894 C   0  0  0  0  0  0  0  0  0  0  0  0
   17.6510  -12.6494  -15.6685 C   0  0  0  0  0  0  0  0  0  0  0  0
   17.5937  -13.9286  -15.1628 C   0  0  0  0  0  0  0  0  0  0  0  0
   16.5187  -14.5584  -15.6603 N   0  0  0  0  0  0  0  0  0  0  0  0
   15.9094  -13.6707  -16.4743 C   0  0  0  0  0  0  0  0  0  0  0  0
   16.5955  -12.5111  -16.4804 N   0  0  0  0  0  0  0  0  0  0  0  0
   20.4020  -10.1924  -16.3002 C   0  0  0  0  0  0  0  0  0  0  0  0
   21.3708  -10.3339  -15.5220 O   0  0  0  0  0  0  0  0  0  0  0  0
   20.1164   -8.9393  -16.8924 N   0  0  0  0  0  0  0  0  0  0  0  0
   20.9470   -7.7767  -16.6888 C   0  0  1  0  0  0  0  0  0  0  0  0
   21.2121   -7.0226  -17.9549 C   0  0  0  0  0  0  0  0  0  0  0  0
   22.0108   -7.8192  -18.9321 C   0  0  0  0  0  0  0  0  0  0  0  0
   22.6608   -8.9868  -18.6207 C   0  0  0  0  0  0  0  0  0  0  0  0
   23.2670   -9.4154  -19.7254 N   0  0  0  0  0  0  0  0  0  0  0  0
   23.0120   -8.5472  -20.7132 C   0  0  0  0  0  0  0  0  0  0  0  0
   22.2404   -7.5673  -20.2252 N   0  0  0  0  0  0  0  0  0  0  0  0
   20.3380   -6.9024  -15.6610 C   0  0  0  0  0  0  0  0  0  0  0  0
   19.0771   -6.6888  -15.6827 O   0  0  0  0  0  0  0  0  0  0  0  0
   15.6558   -7.7731   -9.4451 N   0  0  0  0  0  0  0  0  0  0  0  0
   16.1818   -6.4930   -9.1198 C   0  0  0  0  0  0  0  0  0  0  0  0
   15.7775   -5.8425   -8.0770 N   0  0  0  0  0  0  0  0  0  0  0  0
   17.1823   -5.8557   -9.9231 N   0  0  0  0  0  0  0  0  0  0  0  0
   17.8881   -6.5565  -10.9775 C   0  0  0  0  0  0  0  0  0  0  0  0
   18.8203   -5.6262  -11.7307 C   0  0  0  0  0  0  0  0  0  0  0  0
   19.4949   -6.3719  -12.8294 C   0  0  0  0  0  0  0  0  0  0  0  0
   20.4630   -5.5099  -13.5795 C   0  0  2  0  0  0  0  0  0  0  0  0
   21.1028   -6.2924  -14.6512 N   0  0  0  0  0  0  0  0  0  0  0  0
   21.5027   -4.8699  -12.7532 C   0  0  0  0  0  0  0  0  0  0  0  0
   22.7056   -5.2009  -12.7788 O   0  0  0  0  0  0  0  0  0  0  0  0
   21.1881   -3.8220  -11.8666 O   0  0  0  0  0  0  0  0  0  0  0  0
  2  1  1  1
  2  3  1  0
  3  4  1  0
  4  5  2  0
  6  5  1  0
  7  6  1  0
  8  7  2  0
  8  4  1  0
  9  2  1  0
  9 10  2  0
 11  9  1  0
 12 11  1  0
 12 13  1  6
 13 14  1  0
 14 18  1  0
 15 14  2  0
 15 16  1  0
 16 17  1  0
 18 17  2  0
 19 12  1  0
 20 19  2  0
 22 24  1  0
 22 21  1  0
 23 22  2  0
 25 24  1  0
 26 25  1  0
 27 26  1  0
 28 27  1  1
 28 29  1  0
 29 19  1  0
 30 28  1  0
 30 32  1  0
 31 30  2  0
M  END
$$$$
