HHR.pdb
     RDKit          3D

 32 33  0  0  1  0  0  0  0  0999 V2000
   28.1913  -23.4714  -17.8564 N   0  0  0  0  0  0  0  0  0  0  0  0
   28.7409  -22.7254  -16.7503 C   0  0  1  0  0  0  0  0  0  0  0  0
   30.1373  -22.2346  -17.0679 C   0  0  0  0  0  0  0  0  0  0  0  0
   31.0789  -23.3800  -17.2248 C   0  0  0  0  0  0  0  0  0  0  0  0
   31.4323  -24.3196  -16.2827 C   0  0  0  0  0  0  0  0  0  0  0  0
   32.3065  -25.1842  -16.8194 N   0  0  0  0  0  0  0  0  0  0  0  0
   32.4955  -24.7813  -18.0938 C   0  0  0  0  0  0  0  0  0  0  0  0
   31.7508  -23.6861  -18.3415 N   0  0  0  0  0  0  0  0  0  0  0  0
   27.9138  -21.5319  -16.4646 C   0  0  0  0  0  0  0  0  0  0  0  0
   28.2752  -20.7374  -15.5688 O   0  0  0  0  0  0  0  0  0  0  0  0
   26.7301  -21.3080  -17.2069 N   0  0  0  0  0  0  0  0  0  0  0  0
   25.8910  -20.1519  -17.0008 C   0  0  1  0  0  0  0  0  0  0  0  0
   25.7113  -19.3351  -18.2428 C   0  0  0  0  0  0  0  0  0  0  0  0
   26.8421  -18.3869  -18.4658 C   0  0  0  0  0  0  0  0  0  0  0  0
   27.8408  -18.1560  -17.5536 C   0  0  0  0  0  0  0  0  0  0  0  0
   28.6680  -17.2578  -18.0833 N   0  0  0  0  0  0  0  0  0  0  0  0
   28.2112  -16.9247  -19.2978 C   0  0  0  0  0  0  0  0  0  0  0  0
   27.0899  -17.6186  -19.5319 N   0  0  0  0  0  0  0  0  0  0  0  0
   24.5865  -20.5754  -16.4436 C   0  0  0  0  0  0  0  0  0  0  0  0
   23.9401  -21.5253  -17.0056 O   0  0  0  0  0  0  0  0  0  0  0  0
   24.5061  -21.3687   -8.3058 N   0  0  0  0  0  0  0  0  0  0  0  0
   25.5762  -21.3526   -9.2415 C   0  0  0  0  0  0  0  0  0  0  0  0
   26.8069  -21.4753   -8.8615 N   0  0  0  0  0  0  0  0  0  0  0  0
   25.3534  -21.2004  -10.6485 N   0  0  0  0  0  0  0  0  0  0  0  0
   24.0436  -20.9073  -11.1959 C   0  0  0  0  0  0  0  0  0  0  0  0
   24.0493  -20.9819  -12.7112 C   0  0  0  0  0  0  0  0  0  0  0  0
   22.7996  -20.3758  -13.2490 C   0  0  0  0  0  0  0  0  0  0  0  0
   22.7478  -20.4331  -14.7446 C   0  0  2  0  0  0  0  0  0  0  0  0
   24.0265  -19.9655  -15.3074 N   0  0  0  0  0  0  0  0  0  0  0  0
   21.6381  -19.6845  -15.3623 C   0  0  0  0  0  0  0  0  0  0  0  0
   20.4757  -20.1281  -15.4590 O   0  0  0  0  0  0  0  0  0  0  0  0
   21.8331  -18.3939  -15.8907 O   0  0  0  0  0  0  0  0  0  0  0  0
  2  1  1  6
  2  3  1  0
  3  4  1  0
  4  5  2  0
  6  5  1  0
  7  6  1  0
  8  7  2  0
  8  4  1  0
  9  2  1  0
  9 10  2  0
 11  9  1  0
 12 11  1  0
 12 13  1  6
 13 14  1  0
 14 18  1  0
 15 14  2  0
 15 16  1  0
 16 17  1  0
 18 17  2  0
 19 12  1  0
 20 19  2  0
 22 24  1  0
 22 21  1  0
 23 22  2  0
 25 24  1  0
 26 25  1  0
 27 26  1  0
 28 27  1  1
 28 29  1  0
 29 19  1  0
 30 28  1  0
 30 32  1  0
 31 30  2  0
M  END
$$$$
