EAP.pdb
     RDKit          3D

 22 22  0  0  1  0  0  0  0  0999 V2000
   22.8576  -18.6285  -18.3831 N   0  0  0  0  0  0  0  0  0  0  0  0
   23.3936  -17.7825  -17.3489 C   0  0  1  0  0  0  0  0  0  0  0  0
   22.2475  -17.1696  -16.6161 C   0  0  0  0  0  0  0  0  0  0  0  0
   21.0094  -18.0003  -16.8324 C   0  0  0  0  0  0  0  0  0  0  0  0
   20.6950  -18.7175  -15.5838 C   0  0  0  0  0  0  0  0  0  0  0  0
   20.6470  -18.0896  -14.4938 O   0  0  0  0  0  0  0  0  0  0  0  0
   24.2596  -18.5793  -16.4540 C   0  0  0  0  0  0  0  0  0  0  0  0
   24.0625  -19.7943  -16.2066 O   0  0  0  0  0  0  0  0  0  0  0  0
   20.4436  -20.0910  -15.5621 O   0  0  0  0  0  0  0  0  0  0  0  0
   27.3700  -17.8303  -14.4986 C   0  0  0  0  0  0  0  0  0  0  0  0
   26.2105  -18.6828  -14.9112 C   0  0  2  0  0  0  0  0  0  0  0  0
   25.3707  -17.9617  -15.8355 N   0  0  0  0  0  0  0  0  0  0  0  0
   25.4334  -19.2064  -13.7587 C   0  0  0  0  0  0  0  0  0  0  0  0
   24.3206  -18.6773  -13.5269 O   0  0  0  0  0  0  0  0  0  0  0  0
   25.8878  -20.2535  -12.9318 N   0  0  0  0  0  0  0  0  0  0  0  0
   27.1131  -20.9836  -13.0807 C   0  0  0  0  0  0  0  0  0  0  0  0
   26.9960  -22.2228  -12.2203 C   0  0  0  0  0  0  0  0  0  0  0  0
   25.5150  -22.2711  -11.8856 C   0  0  0  0  0  0  0  0  0  0  0  0
   25.2009  -20.7803  -11.7846 C   0  0  1  0  0  0  0  0  0  0  0  0
   25.6969  -20.2030  -10.5101 C   0  0  0  0  0  0  0  0  0  0  0  0
   26.7732  -19.5654  -10.4079 O   0  0  0  0  0  0  0  0  0  0  0  0
   24.9516  -20.3599   -9.3495 O   0  0  0  0  0  0  0  0  0  0  0  0
  2  1  1  6
  2  7  1  0
  3  2  1  0
  4  3  1  0
  5  4  1  0
  6  5  2  0
  7 12  1  0
  8  7  2  0
  9  5  1  0
 11 10  1  1
 11 13  1  0
 12 11  1  0
 13 14  2  0
 13 15  1  0
 15 16  1  0
 16 17  1  0
 18 17  1  0
 19 15  1  0
 19 18  1  0
 19 20  1  1
 21 20  2  0
 22 20  1  0
M  END
$$$$
