EAP.pdb
     RDKit          3D

 22 22  0  0  1  0  0  0  0  0999 V2000
   23.3416  -19.1718  -15.5480 N   0  0  0  0  0  0  0  0  0  0  0  0
   22.4854  -19.4238  -14.4184 C   0  0  1  0  0  0  0  0  0  0  0  0
   21.3105  -20.2088  -14.8978 C   0  0  0  0  0  0  0  0  0  0  0  0
   21.3987  -20.3855  -16.3914 C   0  0  0  0  0  0  0  0  0  0  0  0
   22.2496  -21.5533  -16.6818 C   0  0  0  0  0  0  0  0  0  0  0  0
   23.5007  -21.4603  -16.5775 O   0  0  0  0  0  0  0  0  0  0  0  0
   23.2419  -20.1440  -13.3721 C   0  0  0  0  0  0  0  0  0  0  0  0
   22.7257  -20.5420  -12.2991 O   0  0  0  0  0  0  0  0  0  0  0  0
   21.7128  -22.7810  -17.0751 O   0  0  0  0  0  0  0  0  0  0  0  0
   26.7276  -21.4716  -13.1064 C   0  0  0  0  0  0  0  0  0  0  0  0
   25.4175  -21.0210  -12.5388 C   0  0  2  0  0  0  0  0  0  0  0  0
   24.6166  -20.4082  -13.5695 N   0  0  0  0  0  0  0  0  0  0  0  0
   25.5692  -20.1298  -11.3602 C   0  0  0  0  0  0  0  0  0  0  0  0
   25.4963  -18.8942  -11.5599 O   0  0  0  0  0  0  0  0  0  0  0  0
   25.7873  -20.6081  -10.0524 N   0  0  0  0  0  0  0  0  0  0  0  0
   25.8169  -21.9824   -9.6438 C   0  0  0  0  0  0  0  0  0  0  0  0
   25.7046  -21.9970   -8.1349 C   0  0  0  0  0  0  0  0  0  0  0  0
   25.2715  -20.5781   -7.8080 C   0  0  0  0  0  0  0  0  0  0  0  0
   26.0205  -19.7998   -8.8872 C   0  0  1  0  0  0  0  0  0  0  0  0
   27.4636  -19.6702   -8.5645 C   0  0  0  0  0  0  0  0  0  0  0  0
   27.9184  -18.8532   -7.7272 O   0  0  0  0  0  0  0  0  0  0  0  0
   28.3865  -20.4837   -9.2077 O   0  0  0  0  0  0  0  0  0  0  0  0
  2  1  1  6
  2  7  1  0
  3  2  1  0
  4  3  1  0
  5  4  1  0
  6  5  2  0
  7 12  1  0
  8  7  2  0
  9  5  1  0
 11 10  1  6
 11 13  1  0
 12 11  1  0
 13 14  2  0
 13 15  1  0
 15 16  1  0
 16 17  1  0
 18 17  1  0
 19 15  1  0
 19 18  1  0
 19 20  1  1
 21 20  2  0
 22 20  1  0
M  END
$$$$
