EAP.pdb
     RDKit          3D

 22 22  0  0  1  0  0  0  0  0999 V2000
   28.0439  -21.1239  -18.0882 N   0  0  0  0  0  0  0  0  0  0  0  0
   28.3458  -22.1395  -17.1136 C   0  0  1  0  0  0  0  0  0  0  0  0
   29.7973  -22.4667  -17.2247 C   0  0  0  0  0  0  0  0  0  0  0  0
   30.1579  -22.6710  -18.6732 C   0  0  0  0  0  0  0  0  0  0  0  0
   31.5851  -23.0284  -18.7611 C   0  0  0  0  0  0  0  0  0  0  0  0
   32.2502  -22.7116  -19.7820 O   0  0  0  0  0  0  0  0  0  0  0  0
   27.9902  -21.6541  -15.7632 C   0  0  0  0  0  0  0  0  0  0  0  0
   28.0645  -22.3675  -14.7328 O   0  0  0  0  0  0  0  0  0  0  0  0
   32.2402  -23.7170  -17.7381 O   0  0  0  0  0  0  0  0  0  0  0  0
   26.8770  -18.3534  -14.3852 C   0  0  0  0  0  0  0  0  0  0  0  0
   27.0942  -19.8334  -14.3214 C   0  0  2  0  0  0  0  0  0  0  0  0
   27.5416  -20.3232  -15.6017 N   0  0  0  0  0  0  0  0  0  0  0  0
   25.9030  -20.5763  -13.8362 C   0  0  0  0  0  0  0  0  0  0  0  0
   25.2122  -21.1782  -14.6921 O   0  0  0  0  0  0  0  0  0  0  0  0
   25.5257  -20.6309  -12.4793 N   0  0  0  0  0  0  0  0  0  0  0  0
   26.1808  -19.9707  -11.3877 C   0  0  0  0  0  0  0  0  0  0  0  0
   25.6679  -20.6076  -10.1145 C   0  0  0  0  0  0  0  0  0  0  0  0
   24.9707  -21.8618  -10.6134 C   0  0  0  0  0  0  0  0  0  0  0  0
   24.4106  -21.3620  -11.9431 C   0  0  1  0  0  0  0  0  0  0  0  0
   23.2131  -20.5076  -11.7444 C   0  0  0  0  0  0  0  0  0  0  0  0
   22.0853  -20.9549  -11.4229 O   0  0  0  0  0  0  0  0  0  0  0  0
   23.3139  -19.1338  -11.9164 O   0  0  0  0  0  0  0  0  0  0  0  0
  2  1  1  6
  2  7  1  0
  3  2  1  0
  4  3  1  0
  5  4  1  0
  6  5  2  0
  7 12  1  0
  8  7  2  0
  9  5  1  0
 11 10  1  6
 11 13  1  0
 12 11  1  0
 13 14  2  0
 13 15  1  0
 15 16  1  0
 16 17  1  0
 18 17  1  0
 19 15  1  0
 19 18  1  0
 19 20  1  1
 21 20  2  0
 22 20  1  0
M  END
$$$$
