EAP.pdb
     RDKit          3D

 22 22  0  0  1  0  0  0  0  0999 V2000
   20.9977  -12.9231  -16.3886 N   0  0  0  0  0  0  0  0  0  0  0  0
   21.1155  -12.1443  -17.5937 C   0  0  1  0  0  0  0  0  0  0  0  0
   20.3007  -12.8089  -18.6524 C   0  0  0  0  0  0  0  0  0  0  0  0
   20.0840  -14.2545  -18.2877 C   0  0  0  0  0  0  0  0  0  0  0  0
   19.1842  -14.8652  -19.2824 C   0  0  0  0  0  0  0  0  0  0  0  0
   19.6596  -15.5746  -20.2075 O   0  0  0  0  0  0  0  0  0  0  0  0
   20.6651  -10.7598  -17.3369 C   0  0  0  0  0  0  0  0  0  0  0  0
   20.7593   -9.8365  -18.1823 O   0  0  0  0  0  0  0  0  0  0  0  0
   17.8002  -14.6847  -19.2383 O   0  0  0  0  0  0  0  0  0  0  0  0
   18.6223   -9.1043  -14.7233 C   0  0  0  0  0  0  0  0  0  0  0  0
   19.6969   -9.0893  -15.7656 C   0  0  2  0  0  0  0  0  0  0  0  0
   20.0968  -10.4378  -16.0831 N   0  0  0  0  0  0  0  0  0  0  0  0
   20.8609   -8.2465  -15.3899 C   0  0  0  0  0  0  0  0  0  0  0  0
   21.8925   -8.8358  -14.9891 O   0  0  0  0  0  0  0  0  0  0  0  0
   20.8525   -6.8391  -15.4646 N   0  0  0  0  0  0  0  0  0  0  0  0
   19.8065   -6.0230  -16.0091 C   0  0  0  0  0  0  0  0  0  0  0  0
   20.3869   -4.6408  -16.2153 C   0  0  0  0  0  0  0  0  0  0  0  0
   21.8816   -4.8697  -16.0703 C   0  0  0  0  0  0  0  0  0  0  0  0
   21.8965   -5.9643  -15.0059 C   0  0  1  0  0  0  0  0  0  0  0  0
   21.6248   -5.4148  -13.6539 C   0  0  0  0  0  0  0  0  0  0  0  0
   20.5068   -5.4827  -13.0874 O   0  0  0  0  0  0  0  0  0  0  0  0
   22.6433   -4.7851  -12.9516 O   0  0  0  0  0  0  0  0  0  0  0  0
  2  1  1  1
  2  7  1  0
  3  2  1  0
  4  3  1  0
  5  4  1  0
  6  5  2  0
  7 12  1  0
  8  7  2  0
  9  5  1  0
 11 10  1  1
 11 13  1  0
 12 11  1  0
 13 14  2  0
 13 15  1  0
 15 16  1  0
 16 17  1  0
 18 17  1  0
 19 15  1  0
 19 18  1  0
 19 20  1  1
 21 20  2  0
 22 20  1  0
M  END
$$$$
