EAP.pdb
     RDKit          3D

 22 22  0  0  1  0  0  0  0  0999 V2000
   18.2103  -11.9869  -17.4405 N   0  0  0  0  0  0  0  0  0  0  0  0
   19.3246  -11.2185  -17.9308 C   0  0  1  0  0  0  0  0  0  0  0  0
   18.8210  -10.3098  -19.0018 C   0  0  0  0  0  0  0  0  0  0  0  0
   18.5320  -11.1092  -20.2456 C   0  0  0  0  0  0  0  0  0  0  0  0
   19.7664  -11.2063  -21.0450 C   0  0  0  0  0  0  0  0  0  0  0  0
   20.1731  -10.2086  -21.6962 O   0  0  0  0  0  0  0  0  0  0  0  0
   19.9414  -10.4698  -16.8151 C   0  0  0  0  0  0  0  0  0  0  0  0
   19.2783   -9.8072  -15.9801 O   0  0  0  0  0  0  0  0  0  0  0  0
   20.5160  -12.3827  -21.1095 O   0  0  0  0  0  0  0  0  0  0  0  0
   23.4384  -10.0952  -15.5344 C   0  0  0  0  0  0  0  0  0  0  0  0
   22.0010   -9.6936  -15.6522 C   0  0  2  0  0  0  0  0  0  0  0  0
   21.3468  -10.4876  -16.6626 N   0  0  0  0  0  0  0  0  0  0  0  0
   21.8207   -8.2395  -15.8961 C   0  0  0  0  0  0  0  0  0  0  0  0
   21.5796   -7.8788  -17.0724 O   0  0  0  0  0  0  0  0  0  0  0  0
   21.9081   -7.2683  -14.8784 N   0  0  0  0  0  0  0  0  0  0  0  0
   22.1527   -7.5147  -13.4869 C   0  0  0  0  0  0  0  0  0  0  0  0
   21.7913   -6.2471  -12.7438 C   0  0  0  0  0  0  0  0  0  0  0  0
   21.0237   -5.4463  -13.7817 C   0  0  0  0  0  0  0  0  0  0  0  0
   21.7669   -5.8488  -15.0534 C   0  0  1  0  0  0  0  0  0  0  0  0
   23.0753   -5.1565  -15.1634 C   0  0  0  0  0  0  0  0  0  0  0  0
   23.1991   -3.9519  -15.4939 O   0  0  0  0  0  0  0  0  0  0  0  0
   24.2453   -5.8527  -14.8920 O   0  0  0  0  0  0  0  0  0  0  0  0
  2  1  1  1
  2  7  1  0
  3  2  1  0
  4  3  1  0
  5  4  1  0
  6  5  2  0
  7 12  1  0
  8  7  2  0
  9  5  1  0
 11 10  1  6
 11 13  1  0
 12 11  1  0
 13 14  2  0
 13 15  1  0
 15 16  1  0
 16 17  1  0
 18 17  1  0
 19 15  1  0
 19 18  1  0
 19 20  1  1
 21 20  2  0
 22 20  1  0
M  END
$$$$
