EAP.pdb
     RDKit          3D

 22 22  0  0  1  0  0  0  0  0999 V2000
   16.5342  -11.9639  -16.5245 N   0  0  0  0  0  0  0  0  0  0  0  0
   17.1244  -10.8322  -17.1905 C   0  0  1  0  0  0  0  0  0  0  0  0
   16.0771   -9.7775  -17.3206 C   0  0  0  0  0  0  0  0  0  0  0  0
   15.0899  -10.1769  -18.3862 C   0  0  0  0  0  0  0  0  0  0  0  0
   14.1119   -9.0880  -18.5594 C   0  0  0  0  0  0  0  0  0  0  0  0
   12.8859   -9.3551  -18.6611 O   0  0  0  0  0  0  0  0  0  0  0  0
   18.2946  -10.3577  -16.4216 C   0  0  0  0  0  0  0  0  0  0  0  0
   18.3348  -10.3427  -15.1669 O   0  0  0  0  0  0  0  0  0  0  0  0
   14.4988   -7.7475  -18.6161 O   0  0  0  0  0  0  0  0  0  0  0  0
   21.7997   -9.4650  -17.2932 C   0  0  0  0  0  0  0  0  0  0  0  0
   20.5941   -9.4043  -16.4076 C   0  0  2  0  0  0  0  0  0  0  0  0
   19.4361   -9.8932  -17.1143 N   0  0  0  0  0  0  0  0  0  0  0  0
   20.3580   -8.0533  -15.8372 C   0  0  0  0  0  0  0  0  0  0  0  0
   19.4617   -7.3540  -16.3660 O   0  0  0  0  0  0  0  0  0  0  0  0
   21.0865   -7.5363  -14.7469 N   0  0  0  0  0  0  0  0  0  0  0  0
   22.1173   -8.2139  -14.0155 C   0  0  0  0  0  0  0  0  0  0  0  0
   22.3353   -7.4358  -12.7362 C   0  0  0  0  0  0  0  0  0  0  0  0
   21.1281   -6.5152  -12.6829 C   0  0  0  0  0  0  0  0  0  0  0  0
   20.9262   -6.2301  -14.1694 C   0  0  1  0  0  0  0  0  0  0  0  0
   21.9242   -5.2566  -14.6790 C   0  0  0  0  0  0  0  0  0  0  0  0
   22.9888   -5.5892  -15.2549 O   0  0  0  0  0  0  0  0  0  0  0  0
   21.6964   -3.8959  -14.5255 O   0  0  0  0  0  0  0  0  0  0  0  0
  2  1  1  1
  2  7  1  0
  3  2  1  0
  4  3  1  0
  5  4  1  0
  6  5  2  0
  7 12  1  0
  8  7  2  0
  9  5  1  0
 11 10  1  6
 11 13  1  0
 12 11  1  0
 13 14  2  0
 13 15  1  0
 15 16  1  0
 16 17  1  0
 18 17  1  0
 19 15  1  0
 19 18  1  0
 19 20  1  6
 21 20  2  0
 22 20  1  0
M  END
$$$$
