EAP.pdb
     RDKit          3D

 22 22  0  0  1  0  0  0  0  0999 V2000
   15.7315  -11.1241  -16.3048 N   0  0  0  0  0  0  0  0  0  0  0  0
   16.4646  -11.6988  -15.2072 C   0  0  1  0  0  0  0  0  0  0  0  0
   16.3068  -13.1810  -15.2745 C   0  0  0  0  0  0  0  0  0  0  0  0
   14.9234  -13.5614  -14.8149 C   0  0  0  0  0  0  0  0  0  0  0  0
   14.0016  -13.4744  -15.9616 C   0  0  0  0  0  0  0  0  0  0  0  0
   14.3922  -13.8156  -17.1087 O   0  0  0  0  0  0  0  0  0  0  0  0
   17.8829  -11.2895  -15.2883 C   0  0  0  0  0  0  0  0  0  0  0  0
   18.7660  -11.7036  -14.4978 O   0  0  0  0  0  0  0  0  0  0  0  0
   12.6884  -13.0201  -15.8230 O   0  0  0  0  0  0  0  0  0  0  0  0
   19.8690   -9.2508  -17.7153 C   0  0  0  0  0  0  0  0  0  0  0  0
   19.6550   -9.9457  -16.4066 C   0  0  2  0  0  0  0  0  0  0  0  0
   18.2866  -10.3874  -16.2991 N   0  0  0  0  0  0  0  0  0  0  0  0
   20.0588   -9.1231  -15.2376 C   0  0  0  0  0  0  0  0  0  0  0  0
   19.1509   -8.5227  -14.6153 O   0  0  0  0  0  0  0  0  0  0  0  0
   21.3950   -8.9932  -14.8083 N   0  0  0  0  0  0  0  0  0  0  0  0
   22.5443   -9.6052  -15.4094 C   0  0  0  0  0  0  0  0  0  0  0  0
   23.6766   -9.4930  -14.4120 C   0  0  0  0  0  0  0  0  0  0  0  0
   22.9672   -9.0968  -13.1284 C   0  0  0  0  0  0  0  0  0  0  0  0
   21.8481   -8.2197  -13.6850 C   0  0  1  0  0  0  0  0  0  0  0  0
   22.3505   -6.8805  -14.0822 C   0  0  0  0  0  0  0  0  0  0  0  0
   22.6352   -5.9734  -13.2627 O   0  0  0  0  0  0  0  0  0  0  0  0
   22.5257   -6.5843  -15.4271 O   0  0  0  0  0  0  0  0  0  0  0  0
  2  1  1  6
  2  7  1  0
  3  2  1  0
  4  3  1  0
  5  4  1  0
  6  5  2  0
  7 12  1  0
  8  7  2  0
  9  5  1  0
 11 10  1  6
 11 13  1  0
 12 11  1  0
 13 14  2  0
 13 15  1  0
 15 16  1  0
 16 17  1  0
 18 17  1  0
 19 15  1  0
 19 18  1  0
 19 20  1  6
 21 20  2  0
 22 20  1  0
M  END
$$$$
