EAP.pdb
     RDKit          3D

 22 22  0  0  1  0  0  0  0  0999 V2000
   25.6064  -18.4622  -19.9786 N   0  0  0  0  0  0  0  0  0  0  0  0
   24.7302  -19.3563  -19.2678 C   0  0  1  0  0  0  0  0  0  0  0  0
   25.0049  -20.7438  -19.7429 C   0  0  0  0  0  0  0  0  0  0  0  0
   26.4930  -20.9559  -19.8442 C   0  0  0  0  0  0  0  0  0  0  0  0
   26.7446  -22.3046  -20.3827 C   0  0  0  0  0  0  0  0  0  0  0  0
   27.3163  -23.1695  -19.6685 O   0  0  0  0  0  0  0  0  0  0  0  0
   24.9509  -19.2163  -17.8127 C   0  0  0  0  0  0  0  0  0  0  0  0
   26.0652  -18.9323  -17.3089 O   0  0  0  0  0  0  0  0  0  0  0  0
   26.3669  -22.6674  -21.6772 O   0  0  0  0  0  0  0  0  0  0  0  0
   22.6698  -18.9729  -14.8815 C   0  0  0  0  0  0  0  0  0  0  0  0
   24.0116  -19.1946  -15.5075 C   0  0  2  0  0  0  0  0  0  0  0  0
   23.8664  -19.4075  -16.9263 N   0  0  0  0  0  0  0  0  0  0  0  0
   24.7800  -20.2912  -14.8647 C   0  0  0  0  0  0  0  0  0  0  0  0
   24.6873  -21.4336  -15.3729 O   0  0  0  0  0  0  0  0  0  0  0  0
   25.5931  -20.1028  -13.7288 N   0  0  0  0  0  0  0  0  0  0  0  0
   25.7950  -18.8709  -13.0230 C   0  0  0  0  0  0  0  0  0  0  0  0
   27.0051  -19.0639  -12.1351 C   0  0  0  0  0  0  0  0  0  0  0  0
   27.6244  -20.3436  -12.6704 C   0  0  0  0  0  0  0  0  0  0  0  0
   26.3702  -21.1169  -13.0707 C   0  0  1  0  0  0  0  0  0  0  0  0
   25.6779  -21.6848  -11.8868 C   0  0  0  0  0  0  0  0  0  0  0  0
   24.6457  -21.1836  -11.3780 O   0  0  0  0  0  0  0  0  0  0  0  0
   26.1751  -22.8334  -11.2863 O   0  0  0  0  0  0  0  0  0  0  0  0
  2  1  1  6
  2  7  1  0
  3  2  1  0
  4  3  1  0
  5  4  1  0
  6  5  2  0
  7 12  1  0
  8  7  2  0
  9  5  1  0
 11 10  1  1
 11 13  1  0
 12 11  1  0
 13 14  2  0
 13 15  1  0
 15 16  1  0
 16 17  1  0
 18 17  1  0
 19 15  1  0
 19 18  1  0
 19 20  1  1
 21 20  2  0
 22 20  1  0
M  END
$$$$
