EAP.pdb
     RDKit          3D

 22 22  0  0  1  0  0  0  0  0999 V2000
   21.3510  -12.1656  -19.0192 N   0  0  0  0  0  0  0  0  0  0  0  0
   22.2333  -11.3741  -18.2022 C   0  0  1  0  0  0  0  0  0  0  0  0
   23.3472  -10.8866  -19.0670 C   0  0  0  0  0  0  0  0  0  0  0  0
   24.1941  -12.0538  -19.5028 C   0  0  0  0  0  0  0  0  0  0  0  0
   23.6702  -12.5697  -20.7801 C   0  0  0  0  0  0  0  0  0  0  0  0
   23.0591  -13.6700  -20.8097 O   0  0  0  0  0  0  0  0  0  0  0  0
   21.4786  -10.2591  -17.5916 C   0  0  0  0  0  0  0  0  0  0  0  0
   20.7940   -9.4441  -18.2574 O   0  0  0  0  0  0  0  0  0  0  0  0
   23.8278  -11.8735  -21.9802 O   0  0  0  0  0  0  0  0  0  0  0  0
   20.6597   -9.2701  -14.0901 C   0  0  0  0  0  0  0  0  0  0  0  0
   20.8230   -8.9914  -15.5520 C   0  0  2  0  0  0  0  0  0  0  0  0
   21.5161  -10.0835  -16.1893 N   0  0  0  0  0  0  0  0  0  0  0  0
   21.4826   -7.6891  -15.8264 C   0  0  0  0  0  0  0  0  0  0  0  0
   22.6908   -7.7151  -16.1603 O   0  0  0  0  0  0  0  0  0  0  0  0
   20.8179   -6.4501  -15.7285 N   0  0  0  0  0  0  0  0  0  0  0  0
   19.4496   -6.2470  -15.3500 C   0  0  0  0  0  0  0  0  0  0  0  0
   19.0880   -4.8314  -15.7436 C   0  0  0  0  0  0  0  0  0  0  0  0
   20.2334   -4.4239  -16.6545 C   0  0  0  0  0  0  0  0  0  0  0  0
   21.3952   -5.1606  -15.9920 C   0  0  1  0  0  0  0  0  0  0  0  0
   21.8422   -4.4741  -14.7541 C   0  0  0  0  0  0  0  0  0  0  0  0
   21.5161   -4.8411  -13.5989 O   0  0  0  0  0  0  0  0  0  0  0  0
   22.6672   -3.3614  -14.8459 O   0  0  0  0  0  0  0  0  0  0  0  0
  2  1  1  6
  2  7  1  0
  3  2  1  0
  4  3  1  0
  5  4  1  0
  6  5  2  0
  7 12  1  0
  8  7  2  0
  9  5  1  0
 11 10  1  1
 11 13  1  0
 12 11  1  0
 13 14  2  0
 13 15  1  0
 15 16  1  0
 16 17  1  0
 18 17  1  0
 19 15  1  0
 19 18  1  0
 19 20  1  1
 21 20  2  0
 22 20  1  0
M  END
$$$$
