EAP.pdb
     RDKit          3D

 22 22  0  0  1  0  0  0  0  0999 V2000
   25.8509  -21.1494  -16.0636 N   0  0  0  0  0  0  0  0  0  0  0  0
   27.2416  -20.7828  -16.1284 C   0  0  1  0  0  0  0  0  0  0  0  0
   27.6116  -20.1502  -14.8287 C   0  0  0  0  0  0  0  0  0  0  0  0
   27.1431  -18.7184  -14.8142 C   0  0  0  0  0  0  0  0  0  0  0  0
   25.6718  -18.6996  -14.8999 C   0  0  0  0  0  0  0  0  0  0  0  0
   25.1097  -18.4046  -15.9870 O   0  0  0  0  0  0  0  0  0  0  0  0
   28.0589  -21.9815  -16.4124 C   0  0  0  0  0  0  0  0  0  0  0  0
   28.2819  -22.8803  -15.5646 O   0  0  0  0  0  0  0  0  0  0  0  0
   24.8624  -19.0015  -13.8028 O   0  0  0  0  0  0  0  0  0  0  0  0
   29.4226  -23.5232  -19.5039 C   0  0  0  0  0  0  0  0  0  0  0  0
   29.4229  -23.3011  -18.0233 C   0  0  2  0  0  0  0  0  0  0  0  0
   28.6272  -22.1438  -17.6966 N   0  0  0  0  0  0  0  0  0  0  0  0
   30.7894  -23.2065  -17.4489 C   0  0  0  0  0  0  0  0  0  0  0  0
   31.2808  -22.0604  -17.3184 O   0  0  0  0  0  0  0  0  0  0  0  0
   31.5410  -24.3312  -17.0526 N   0  0  0  0  0  0  0  0  0  0  0  0
   31.0891  -25.6921  -17.0344 C   0  0  0  0  0  0  0  0  0  0  0  0
   32.0802  -26.4753  -16.2014 C   0  0  0  0  0  0  0  0  0  0  0  0
   32.8810  -25.3878  -15.5059 C   0  0  0  0  0  0  0  0  0  0  0  0
   32.9026  -24.3158  -16.5930 C   0  0  1  0  0  0  0  0  0  0  0  0
   33.8697  -24.6486  -17.6688 C   0  0  0  0  0  0  0  0  0  0  0  0
   35.1021  -24.4240  -17.5900 O   0  0  0  0  0  0  0  0  0  0  0  0
   33.4169  -25.2420  -18.8393 O   0  0  0  0  0  0  0  0  0  0  0  0
  2  1  1  1
  2  7  1  0
  3  2  1  0
  4  3  1  0
  5  4  1  0
  6  5  2  0
  7 12  1  0
  8  7  2  0
  9  5  1  0
 11 10  1  6
 11 13  1  0
 12 11  1  0
 13 14  2  0
 13 15  1  0
 15 16  1  0
 16 17  1  0
 18 17  1  0
 19 15  1  0
 19 18  1  0
 19 20  1  6
 21 20  2  0
 22 20  1  0
M  END
$$$$
