EAP.pdb
     RDKit          3D

 22 22  0  0  1  0  0  0  0  0999 V2000
   23.9750  -15.0074  -17.7303 N   0  0  0  0  0  0  0  0  0  0  0  0
   23.6421  -14.2407  -16.5582 C   0  0  1  0  0  0  0  0  0  0  0  0
   24.9026  -13.9875  -15.8009 C   0  0  0  0  0  0  0  0  0  0  0  0
   25.4319  -15.2881  -15.2551 C   0  0  0  0  0  0  0  0  0  0  0  0
   26.7474  -15.5574  -15.8626 C   0  0  0  0  0  0  0  0  0  0  0  0
   27.4123  -16.5633  -15.5008 O   0  0  0  0  0  0  0  0  0  0  0  0
   22.9760  -12.9833  -16.9593 C   0  0  0  0  0  0  0  0  0  0  0  0
   23.5560  -12.0680  -17.5934 O   0  0  0  0  0  0  0  0  0  0  0  0
   27.2951  -14.7256  -16.8415 O   0  0  0  0  0  0  0  0  0  0  0  0
   19.4521  -11.7504  -16.8415 C   0  0  0  0  0  0  0  0  0  0  0  0
   20.9314  -11.5633  -16.9761 C   0  0  2  0  0  0  0  0  0  0  0  0
   21.6181  -12.7809  -16.6221 N   0  0  0  0  0  0  0  0  0  0  0  0
   21.4439  -10.4013  -16.2058 C   0  0  0  0  0  0  0  0  0  0  0  0
   22.0924  -10.6446  -15.1607 O   0  0  0  0  0  0  0  0  0  0  0  0
   21.2347   -9.0629  -16.5950 N   0  0  0  0  0  0  0  0  0  0  0  0
   20.5567   -8.6176  -17.7776 C   0  0  0  0  0  0  0  0  0  0  0  0
   20.9012   -7.1555  -17.9600 C   0  0  0  0  0  0  0  0  0  0  0  0
   22.0649   -6.9539  -17.0046 C   0  0  0  0  0  0  0  0  0  0  0  0
   21.6658   -7.8977  -15.8725 C   0  0  1  0  0  0  0  0  0  0  0  0
   20.5876   -7.3180  -15.0330 C   0  0  0  0  0  0  0  0  0  0  0  0
   19.3780   -7.6367  -15.1369 O   0  0  0  0  0  0  0  0  0  0  0  0
   20.9024   -6.3683  -14.0706 O   0  0  0  0  0  0  0  0  0  0  0  0
  2  1  1  6
  2  7  1  0
  3  2  1  0
  4  3  1  0
  5  4  1  0
  6  5  2  0
  7 12  1  0
  8  7  2  0
  9  5  1  0
 11 10  1  1
 11 13  1  0
 12 11  1  0
 13 14  2  0
 13 15  1  0
 15 16  1  0
 16 17  1  0
 18 17  1  0
 19 15  1  0
 19 18  1  0
 19 20  1  6
 21 20  2  0
 22 20  1  0
M  END
$$$$
