EAP.pdb
     RDKit          3D

 22 22  0  0  1  0  0  0  0  0999 V2000
   20.5135  -20.9311  -11.8889 N   0  0  0  0  0  0  0  0  0  0  0  0
   21.2465  -21.2366  -13.0897 C   0  0  1  0  0  0  0  0  0  0  0  0
   20.4192  -20.8080  -14.2551 C   0  0  0  0  0  0  0  0  0  0  0  0
   19.5624  -21.9588  -14.7147 C   0  0  0  0  0  0  0  0  0  0  0  0
   18.2609  -21.4321  -15.1629 C   0  0  0  0  0  0  0  0  0  0  0  0
   18.2175  -20.4385  -15.9347 O   0  0  0  0  0  0  0  0  0  0  0  0
   22.5566  -20.5523  -13.0601 C   0  0  0  0  0  0  0  0  0  0  0  0
   22.6828  -19.3036  -13.0922 O   0  0  0  0  0  0  0  0  0  0  0  0
   17.0522  -22.0023  -14.7578 O   0  0  0  0  0  0  0  0  0  0  0  0
   26.1093  -21.6828  -12.7553 C   0  0  0  0  0  0  0  0  0  0  0  0
   25.0379  -20.7216  -13.1672 C   0  0  2  0  0  0  0  0  0  0  0  0
   23.7394  -21.3237  -12.9923 N   0  0  0  0  0  0  0  0  0  0  0  0
   25.2201  -20.2028  -14.5470 C   0  0  0  0  0  0  0  0  0  0  0  0
   24.4179  -20.6039  -15.4232 O   0  0  0  0  0  0  0  0  0  0  0  0
   26.2382  -19.2956  -14.9037 N   0  0  0  0  0  0  0  0  0  0  0  0
   27.2222  -18.7337  -14.0248 C   0  0  0  0  0  0  0  0  0  0  0  0
   27.8434  -17.5600  -14.7502 C   0  0  0  0  0  0  0  0  0  0  0  0
   26.8933  -17.3321  -15.9135 C   0  0  0  0  0  0  0  0  0  0  0  0
   26.4741  -18.7680  -16.2195 C   0  0  1  0  0  0  0  0  0  0  0  0
   27.5391  -19.5048  -16.9451 C   0  0  0  0  0  0  0  0  0  0  0  0
   28.2209  -20.4255  -16.4321 O   0  0  0  0  0  0  0  0  0  0  0  0
   27.8205  -19.1809  -18.2653 O   0  0  0  0  0  0  0  0  0  0  0  0
  2  1  1  1
  2  7  1  0
  3  2  1  0
  4  3  1  0
  5  4  1  0
  6  5  2  0
  7 12  1  0
  8  7  2  0
  9  5  1  0
 11 10  1  6
 11 13  1  0
 12 11  1  0
 13 14  2  0
 13 15  1  0
 15 16  1  0
 16 17  1  0
 18 17  1  0
 19 15  1  0
 19 18  1  0
 19 20  1  1
 21 20  2  0
 22 20  1  0
M  END
$$$$
