EAP.pdb
     RDKit          3D

 22 22  0  0  1  0  0  0  0  0999 V2000
   19.9460  -16.9385  -16.5246 N   0  0  0  0  0  0  0  0  0  0  0  0
   19.3818  -15.6489  -16.8263 C   0  0  1  0  0  0  0  0  0  0  0  0
   18.1128  -15.5099  -16.0539 C   0  0  0  0  0  0  0  0  0  0  0  0
   17.0928  -16.4849  -16.5816 C   0  0  0  0  0  0  0  0  0  0  0  0
   15.8200  -16.2721  -15.8697 C   0  0  0  0  0  0  0  0  0  0  0  0
   15.7430  -15.3962  -14.9688 O   0  0  0  0  0  0  0  0  0  0  0  0
   20.3548  -14.5888  -16.4867 C   0  0  0  0  0  0  0  0  0  0  0  0
   20.8987  -14.4880  -15.3597 O   0  0  0  0  0  0  0  0  0  0  0  0
   14.6755  -17.0175  -16.1605 O   0  0  0  0  0  0  0  0  0  0  0  0
   22.0306  -11.8832  -18.4605 C   0  0  0  0  0  0  0  0  0  0  0  0
   21.6867  -12.6094  -17.1972 C   0  0  2  0  0  0  0  0  0  0  0  0
   20.7044  -13.6304  -17.4654 N   0  0  0  0  0  0  0  0  0  0  0  0
   21.2503  -11.7026  -16.1046 C   0  0  0  0  0  0  0  0  0  0  0  0
   20.0255  -11.6700  -15.8385 O   0  0  0  0  0  0  0  0  0  0  0  0
   22.1402  -10.8936  -15.3697 N   0  0  0  0  0  0  0  0  0  0  0  0
   23.5559  -10.7862  -15.5718 C   0  0  0  0  0  0  0  0  0  0  0  0
   24.1279  -10.1148  -14.3423 C   0  0  0  0  0  0  0  0  0  0  0  0
   22.9837  -10.1887  -13.3458 C   0  0  0  0  0  0  0  0  0  0  0  0
   21.7866  -10.0263  -14.2796 C   0  0  1  0  0  0  0  0  0  0  0  0
   21.6158   -8.6153  -14.7079 C   0  0  0  0  0  0  0  0  0  0  0  0
   21.9496   -8.1869  -15.8395 O   0  0  0  0  0  0  0  0  0  0  0  0
   21.0591   -7.6944  -13.8310 O   0  0  0  0  0  0  0  0  0  0  0  0
  2  1  1  1
  2  7  1  0
  3  2  1  0
  4  3  1  0
  5  4  1  0
  6  5  2  0
  7 12  1  0
  8  7  2  0
  9  5  1  0
 11 10  1  6
 11 13  1  0
 12 11  1  0
 13 14  2  0
 13 15  1  0
 15 16  1  0
 16 17  1  0
 18 17  1  0
 19 15  1  0
 19 18  1  0
 19 20  1  6
 21 20  2  0
 22 20  1  0
M  END
$$$$
