RMC.pdb
     RDKit          3D

 26 25  0  0  1  0  0  0  0  0999 V2000
   19.6489  -24.2297   -6.9886 N   0  0  0  0  0  0  0  0  0  0  0  0
   18.4252  -24.4579   -7.6902 C   0  0  0  0  0  0  0  0  0  0  0  0
   17.3446  -24.7283   -7.0255 N   0  0  0  0  0  0  0  0  0  0  0  0
   18.3461  -24.3999   -9.1054 N   0  0  0  0  0  0  0  0  0  0  0  0
   19.4429  -23.9318   -9.9039 C   0  0  0  0  0  0  0  0  0  0  0  0
   19.9962  -22.6026   -9.5332 C   0  0  0  0  0  0  0  0  0  0  0  0
   21.0756  -22.1696  -10.4689 C   0  0  0  0  0  0  0  0  0  0  0  0
   21.5480  -20.7968   -9.9540 C   0  0  2  0  0  0  0  0  0  0  0  0
   20.5531  -19.8359  -10.3703 N   0  0  0  0  0  0  0  0  0  0  0  0
   22.8694  -20.5362  -10.5374 C   0  0  0  0  0  0  0  0  0  0  0  0
   22.8992  -19.9337  -11.6648 O   0  0  0  0  0  0  0  0  0  0  0  0
   16.4412  -24.9182   -7.4649 C   0  0  0  0  0  0  0  0  0  0  0  0
   28.5884  -21.1701   -7.8574 S   0  0  0  0  0  0  0  0  0  0  0  0
   27.6020  -19.8073   -7.2016 C   0  0  0  0  0  0  0  0  0  0  0  0
   26.2016  -19.5578   -8.3792 C   0  0  0  0  0  0  0  0  0  0  0  0
   26.4037  -20.5302   -9.4734 C   0  0  2  0  0  0  0  0  0  0  0  0
   25.3820  -20.4538  -10.5685 N   0  0  0  0  0  0  0  0  0  0  0  0
   24.1017  -20.8953   -9.9569 C   0  0  0  0  0  0  0  0  0  0  0  0
   25.7109  -21.3428  -11.6798 O   0  0  0  0  0  0  0  0  0  0  0  0
   25.9148  -22.6023  -11.5044 N   0  0  0  0  0  0  0  0  0  0  0  0
   25.8281  -20.9111  -13.0278 C   0  0  1  0  0  0  0  0  0  0  0  0
   26.3198  -21.8324  -14.0706 C   0  0  0  0  0  0  0  0  0  0  0  0
   25.4405  -21.5733  -15.3025 S   0  0  0  0  0  0  0  0  0  0  0  0
   23.6931  -21.8079  -14.8848 C   0  0  0  0  0  0  0  0  0  0  0  0
   27.6992  -21.5051  -14.4937 O   0  0  0  0  0  0  0  0  0  0  0  0
   28.3070  -20.3391  -14.0957 O   0  0  0  0  0  0  0  0  0  0  0  0
  2  1  1  0
  3  2  2  0
  4  2  1  0
  5  4  1  0
  6  5  1  0
  6  7  1  0
  7  8  1  0
  8  9  1  6
 10 17  1  0
 10  8  1  0
 11 10  2  0
 12 13  1  0
 13 14  1  0
 16 15  1  1
 15 14  1  0
 16 17  1  0
 18 20  1  0
 18 16  1  0
 19 18  2  0
 21 20  1  0
 21 22  1  6
 22 23  1  0
 24 21  1  0
 25 24  1  0
 26 24  2  0
M  END
$$$$
