RMC.pdb
     RDKit          3D

 26 25  0  0  1  0  0  0  0  0999 V2000
   18.0768  -16.7256  -16.3300 N   0  0  0  0  0  0  0  0  0  0  0  0
   18.8487  -15.6590  -16.8852 C   0  0  0  0  0  0  0  0  0  0  0  0
   20.0183  -15.9070  -17.3885 N   0  0  0  0  0  0  0  0  0  0  0  0
   18.3787  -14.3207  -16.9066 N   0  0  0  0  0  0  0  0  0  0  0  0
   17.5125  -13.8418  -17.9459 C   0  0  0  0  0  0  0  0  0  0  0  0
   18.1444  -12.9640  -18.9660 C   0  0  0  0  0  0  0  0  0  0  0  0
   18.3844  -11.5871  -18.4421 C   0  0  0  0  0  0  0  0  0  0  0  0
   19.8497  -11.2594  -18.7864 C   0  0  2  0  0  0  0  0  0  0  0  0
   20.4491  -12.4893  -19.2496 N   0  0  0  0  0  0  0  0  0  0  0  0
   20.4848  -10.7405  -17.5691 C   0  0  0  0  0  0  0  0  0  0  0  0
   19.8322  -10.8596  -16.4761 O   0  0  0  0  0  0  0  0  0  0  0  0
   20.6052  -15.1988  -17.8349 C   0  0  0  0  0  0  0  0  0  0  0  0
   26.8965   -9.8216  -16.4716 S   0  0  0  0  0  0  0  0  0  0  0  0
   26.0876  -10.5345  -15.0232 C   0  0  0  0  0  0  0  0  0  0  0  0
   24.4209   -9.7473  -14.9111 C   0  0  0  0  0  0  0  0  0  0  0  0
   23.6912  -10.1495  -16.1316 C   0  0  1  0  0  0  0  0  0  0  0  0
   22.2881   -9.6269  -16.2166 N   0  0  0  0  0  0  0  0  0  0  0  0
   21.7504  -10.1245  -17.5095 C   0  0  0  0  0  0  0  0  0  0  0  0
   22.2524   -8.1668  -16.2159 O   0  0  0  0  0  0  0  0  0  0  0  0
   22.7805   -7.4742  -17.1646 N   0  0  0  0  0  0  0  0  0  0  0  0
   21.6405   -7.3927  -15.1943 C   0  0  1  0  0  0  0  0  0  0  0  0
   21.7048   -5.9188  -15.2295 C   0  0  0  0  0  0  0  0  0  0  0  0
   20.2609   -5.4447  -15.4495 S   0  0  0  0  0  0  0  0  0  0  0  0
   19.6050   -6.1312  -16.9926 C   0  0  0  0  0  0  0  0  0  0  0  0
   22.1131   -5.3505  -13.9259 O   0  0  0  0  0  0  0  0  0  0  0  0
   22.2722   -3.9961  -13.7595 O   0  0  0  0  0  0  0  0  0  0  0  0
  2  1  1  0
  3  2  2  0
  4  2  1  0
  5  4  1  0
  6  5  1  0
  6  7  1  0
  7  8  1  0
  8  9  1  1
 10 17  1  0
 10  8  1  0
 11 10  2  0
 12 13  1  0
 13 14  1  0
 16 15  1  1
 15 14  1  0
 16 17  1  0
 18 20  1  0
 18 16  1  0
 19 18  2  0
 21 20  1  0
 21 22  1  1
 22 23  1  0
 24 21  1  0
 25 24  1  0
 26 24  2  0
M  END
$$$$
