RMC.pdb
     RDKit          3D

 26 25  0  0  1  0  0  0  0  0999 V2000
   27.2477  -18.2670  -19.4319 N   0  0  0  0  0  0  0  0  0  0  0  0
   28.1720  -17.2028  -19.1973 C   0  0  0  0  0  0  0  0  0  0  0  0
   28.1866  -16.1778  -19.9922 N   0  0  0  0  0  0  0  0  0  0  0  0
   29.0875  -17.2252  -18.1139 N   0  0  0  0  0  0  0  0  0  0  0  0
   29.0377  -18.2448  -17.1050 C   0  0  0  0  0  0  0  0  0  0  0  0
   27.9463  -18.1158  -16.1036 C   0  0  0  0  0  0  0  0  0  0  0  0
   27.1431  -19.3689  -15.9928 C   0  0  0  0  0  0  0  0  0  0  0  0
   27.9417  -20.2946  -15.0556 C   0  0  2  0  0  0  0  0  0  0  0  0
   28.5643  -21.2923  -15.8943 N   0  0  0  0  0  0  0  0  0  0  0  0
   26.9962  -20.8712  -14.0922 C   0  0  0  0  0  0  0  0  0  0  0  0
   26.3406  -21.9031  -14.4666 O   0  0  0  0  0  0  0  0  0  0  0  0
   28.8606  -15.4126  -19.9184 C   0  0  0  0  0  0  0  0  0  0  0  0
   27.3658  -21.0646   -7.6650 S   0  0  0  0  0  0  0  0  0  0  0  0
   25.7043  -20.3943   -7.8903 C   0  0  0  0  0  0  0  0  0  0  0  0
   25.0897  -21.0445   -9.5057 C   0  0  0  0  0  0  0  0  0  0  0  0
   26.0064  -20.5186  -10.5385 C   0  0  2  0  0  0  0  0  0  0  0  0
   25.7269  -21.0126  -11.9265 N   0  0  0  0  0  0  0  0  0  0  0  0
   26.7548  -20.3805  -12.7939 C   0  0  0  0  0  0  0  0  0  0  0  0
   24.4009  -20.6104  -12.3883 O   0  0  0  0  0  0  0  0  0  0  0  0
   24.0824  -19.3721  -12.5432 N   0  0  0  0  0  0  0  0  0  0  0  0
   23.3646  -21.5276  -12.7078 C   0  0  1  0  0  0  0  0  0  0  0  0
   22.0166  -21.0429  -13.0623 C   0  0  0  0  0  0  0  0  0  0  0  0
   21.4495  -22.0750  -14.0478 S   0  0  0  0  0  0  0  0  0  0  0  0
   22.4994  -22.1765  -15.5210 C   0  0  0  0  0  0  0  0  0  0  0  0
   21.0989  -21.0586  -11.9020 O   0  0  0  0  0  0  0  0  0  0  0  0
   19.8152  -20.5800  -12.0045 O   0  0  0  0  0  0  0  0  0  0  0  0
  2  1  1  0
  3  2  2  0
  4  2  1  0
  5  4  1  0
  6  5  1  0
  6  7  1  0
  7  8  1  0
  8  9  1  6
 10 17  1  0
 10  8  1  0
 11 10  2  0
 12 13  1  0
 13 14  1  0
 16 15  1  1
 15 14  1  0
 16 17  1  0
 18 20  1  0
 18 16  1  0
 19 18  2  0
 21 20  1  0
 21 22  1  1
 22 23  1  0
 24 21  1  0
 25 24  1  0
 26 24  2  0
M  END
$$$$
