RMC.pdb
     RDKit          3D

 26 25  0  0  1  0  0  0  0  0999 V2000
   25.9527  -21.6967   -9.6138 N   0  0  0  0  0  0  0  0  0  0  0  0
   24.7337  -20.9767   -9.4205 C   0  0  0  0  0  0  0  0  0  0  0  0
   24.0065  -21.2145   -8.3731 N   0  0  0  0  0  0  0  0  0  0  0  0
   24.2819  -19.9988  -10.3435 N   0  0  0  0  0  0  0  0  0  0  0  0
   24.7770  -19.9460  -11.6896 C   0  0  0  0  0  0  0  0  0  0  0  0
   26.2396  -19.7229  -11.8361 C   0  0  0  0  0  0  0  0  0  0  0  0
   26.6287  -19.5069  -13.2608 C   0  0  0  0  0  0  0  0  0  0  0  0
   25.8747  -20.5817  -14.0665 C   0  0  2  0  0  0  0  0  0  0  0  0
   26.6834  -21.7775  -14.0160 N   0  0  0  0  0  0  0  0  0  0  0  0
   25.7004  -20.0704  -15.4313 C   0  0  0  0  0  0  0  0  0  0  0  0
   26.6848  -20.2099  -16.2352 O   0  0  0  0  0  0  0  0  0  0  0  0
   23.1084  -20.7610   -8.1914 C   0  0  0  0  0  0  0  0  0  0  0  0
   20.2586  -18.4568  -17.5970 S   0  0  0  0  0  0  0  0  0  0  0  0
   21.0219  -17.5305  -18.9459 C   0  0  0  0  0  0  0  0  0  0  0  0
   22.8313  -17.8930  -18.8747 C   0  0  0  0  0  0  0  0  0  0  0  0
   23.0806  -18.4921  -17.5470 C   0  0  1  0  0  0  0  0  0  0  0  0
   24.5035  -18.9003  -17.3074 N   0  0  0  0  0  0  0  0  0  0  0  0
   24.5401  -19.4411  -15.9237 C   0  0  0  0  0  0  0  0  0  0  0  0
   25.4164  -17.7638  -17.3991 O   0  0  0  0  0  0  0  0  0  0  0  0
   25.4175  -16.8212  -16.5215 N   0  0  0  0  0  0  0  0  0  0  0  0
   26.3701  -17.5994  -18.4386 C   0  0  1  0  0  0  0  0  0  0  0  0
   27.2065  -16.3853  -18.5045 C   0  0  0  0  0  0  0  0  0  0  0  0
   28.6298  -16.8412  -18.1519 S   0  0  0  0  0  0  0  0  0  0  0  0
   29.8074  -15.4943  -18.4378 C   0  0  0  0  0  0  0  0  0  0  0  0
   27.2934  -15.8459  -19.8794 O   0  0  0  0  0  0  0  0  0  0  0  0
   27.6509  -14.5395  -20.1090 O   0  0  0  0  0  0  0  0  0  0  0  0
  2  1  1  0
  3  2  2  0
  4  2  1  0
  5  4  1  0
  6  5  1  0
  6  7  1  0
  7  8  1  0
  8  9  1  6
 10 17  1  0
 10  8  1  0
 11 10  2  0
 12 13  1  0
 13 14  1  0
 16 15  1  6
 15 14  1  0
 16 17  1  0
 18 20  1  0
 18 16  1  0
 19 18  2  0
 21 20  1  0
 21 22  1  6
 22 23  1  0
 24 21  1  0
 25 24  1  0
 26 24  2  0
M  END
$$$$
