RMC.pdb
     RDKit          3D

 26 25  0  0  1  0  0  0  0  0999 V2000
   19.1697  -17.9854  -14.9108 N   0  0  0  0  0  0  0  0  0  0  0  0
   19.3189  -17.1685  -16.0736 C   0  0  0  0  0  0  0  0  0  0  0  0
   19.6499  -17.7134  -17.2033 N   0  0  0  0  0  0  0  0  0  0  0  0
   19.1169  -15.7648  -16.0391 N   0  0  0  0  0  0  0  0  0  0  0  0
   18.3043  -15.1439  -15.0320 C   0  0  0  0  0  0  0  0  0  0  0  0
   18.3218  -13.6575  -15.0077 C   0  0  0  0  0  0  0  0  0  0  0  0
   17.6959  -13.0745  -16.2309 C   0  0  0  0  0  0  0  0  0  0  0  0
   16.1955  -12.9409  -15.9085 C   0  0  2  0  0  0  0  0  0  0  0  0
   15.5020  -13.8502  -16.7909 N   0  0  0  0  0  0  0  0  0  0  0  0
   15.8192  -11.5390  -16.1265 C   0  0  0  0  0  0  0  0  0  0  0  0
   15.7556  -11.1352  -17.3380 O   0  0  0  0  0  0  0  0  0  0  0  0
   19.7939  -17.1854  -18.0669 C   0  0  0  0  0  0  0  0  0  0  0  0
   11.4737   -9.7938  -12.7835 S   0  0  0  0  0  0  0  0  0  0  0  0
   11.1372   -9.3262  -14.4948 C   0  0  0  0  0  0  0  0  0  0  0  0
   12.6560   -9.7386  -15.4608 C   0  0  0  0  0  0  0  0  0  0  0  0
   13.7709   -9.0272  -14.8014 C   0  0  2  0  0  0  0  0  0  0  0  0
   15.1060   -9.2233  -15.4556 N   0  0  0  0  0  0  0  0  0  0  0  0
   15.5237  -10.6074  -15.1119 C   0  0  0  0  0  0  0  0  0  0  0  0
   16.1023   -8.2845  -14.9465 O   0  0  0  0  0  0  0  0  0  0  0  0
   16.5752   -8.3775  -13.7521 N   0  0  0  0  0  0  0  0  0  0  0  0
   16.6344   -7.2091  -15.7065 C   0  0  1  0  0  0  0  0  0  0  0  0
   17.6258   -6.2902  -15.1145 C   0  0  0  0  0  0  0  0  0  0  0  0
   18.4589   -5.7628  -16.2917 S   0  0  0  0  0  0  0  0  0  0  0  0
   19.3844   -7.1177  -17.0603 C   0  0  0  0  0  0  0  0  0  0  0  0
   16.9877   -5.0972  -14.5160 O   0  0  0  0  0  0  0  0  0  0  0  0
   17.7138   -4.2033  -13.7669 O   0  0  0  0  0  0  0  0  0  0  0  0
  2  1  1  0
  3  2  2  0
  4  2  1  0
  5  4  1  0
  6  5  1  0
  6  7  1  0
  7  8  1  0
  8  9  1  6
 10 17  1  0
 10  8  1  0
 11 10  2  0
 12 13  1  0
 13 14  1  0
 16 15  1  6
 15 14  1  0
 16 17  1  0
 18 20  1  0
 18 16  1  0
 19 18  2  0
 21 20  1  0
 21 22  1  1
 22 23  1  0
 24 21  1  0
 25 24  1  0
 26 24  2  0
M  END
$$$$
