RMC.pdb
     RDKit          3D

 26 25  0  0  1  0  0  0  0  0999 V2000
   23.9019  -20.6153  -20.5139 N   0  0  0  0  0  0  0  0  0  0  0  0
   24.9232  -19.8574  -19.8627 C   0  0  0  0  0  0  0  0  0  0  0  0
   25.3084  -18.7281  -20.3717 N   0  0  0  0  0  0  0  0  0  0  0  0
   25.5412  -20.2992  -18.6646 N   0  0  0  0  0  0  0  0  0  0  0  0
   25.1991  -21.5539  -18.0575 C   0  0  0  0  0  0  0  0  0  0  0  0
   25.8302  -21.8324  -16.7404 C   0  0  0  0  0  0  0  0  0  0  0  0
   26.2993  -20.5821  -16.0738 C   0  0  0  0  0  0  0  0  0  0  0  0
   26.9867  -21.0361  -14.7722 C   0  0  2  0  0  0  0  0  0  0  0  0
   27.8168  -22.1667  -15.1173 N   0  0  0  0  0  0  0  0  0  0  0  0
   25.9318  -21.3777  -13.8105 C   0  0  0  0  0  0  0  0  0  0  0  0
   25.2820  -22.4589  -14.0193 O   0  0  0  0  0  0  0  0  0  0  0  0
   26.0448  -18.1457  -19.9672 C   0  0  0  0  0  0  0  0  0  0  0  0
   25.4994  -20.3991   -7.0139 S   0  0  0  0  0  0  0  0  0  0  0  0
   26.4837  -19.7064   -8.3600 C   0  0  0  0  0  0  0  0  0  0  0  0
   26.2349  -20.8135   -9.8168 C   0  0  0  0  0  0  0  0  0  0  0  0
   24.9275  -20.4440  -10.3981 C   0  0  2  0  0  0  0  0  0  0  0  0
   24.6044  -21.1351  -11.6891 N   0  0  0  0  0  0  0  0  0  0  0  0
   25.5799  -20.6128  -12.6810 C   0  0  0  0  0  0  0  0  0  0  0  0
   23.2510  -20.8280  -12.1445 O   0  0  0  0  0  0  0  0  0  0  0  0
   22.9396  -19.6711  -12.6170 N   0  0  0  0  0  0  0  0  0  0  0  0
   22.1780  -21.7581  -12.1143 C   0  0  1  0  0  0  0  0  0  0  0  0
   20.8443  -21.3817  -12.6215 C   0  0  0  0  0  0  0  0  0  0  0  0
   20.2129  -22.6831  -13.1370 S   0  0  0  0  0  0  0  0  0  0  0  0
   21.2755  -23.4390  -14.3949 C   0  0  0  0  0  0  0  0  0  0  0  0
   19.9521  -20.9112  -11.5392 O   0  0  0  0  0  0  0  0  0  0  0  0
   18.6973  -20.4239  -11.8138 O   0  0  0  0  0  0  0  0  0  0  0  0
  2  1  1  0
  3  2  2  0
  4  2  1  0
  5  4  1  0
  6  5  1  0
  6  7  1  0
  7  8  1  0
  8  9  1  6
 10 17  1  0
 10  8  1  0
 11 10  2  0
 12 13  1  0
 13 14  1  0
 16 15  1  1
 15 14  1  0
 16 17  1  0
 18 20  1  0
 18 16  1  0
 19 18  2  0
 21 20  1  0
 21 22  1  1
 22 23  1  0
 24 21  1  0
 25 24  1  0
 26 24  2  0
M  END
$$$$
