RMC.pdb
     RDKit          3D

 26 25  0  0  1  0  0  0  0  0999 V2000
   29.1238  -17.2717  -18.9892 N   0  0  0  0  0  0  0  0  0  0  0  0
   28.0431  -16.4844  -18.4854 C   0  0  0  0  0  0  0  0  0  0  0  0
   27.4108  -15.6777  -19.2805 N   0  0  0  0  0  0  0  0  0  0  0  0
   27.6301  -16.5515  -17.1299 N   0  0  0  0  0  0  0  0  0  0  0  0
   28.0590  -17.6111  -16.2620 C   0  0  0  0  0  0  0  0  0  0  0  0
   27.8384  -18.9928  -16.7647 C   0  0  0  0  0  0  0  0  0  0  0  0
   26.8449  -19.7343  -15.9334 C   0  0  0  0  0  0  0  0  0  0  0  0
   27.6726  -20.6516  -15.0135 C   0  0  2  0  0  0  0  0  0  0  0  0
   28.2179  -21.6931  -15.8528 N   0  0  0  0  0  0  0  0  0  0  0  0
   26.7708  -21.1698  -13.9778 C   0  0  0  0  0  0  0  0  0  0  0  0
   26.0442  -22.1749  -14.2886 O   0  0  0  0  0  0  0  0  0  0  0  0
   26.6605  -15.0537  -18.9758 C   0  0  0  0  0  0  0  0  0  0  0  0
   27.2750  -21.0765   -7.5190 S   0  0  0  0  0  0  0  0  0  0  0  0
   25.6676  -20.2923   -7.7672 C   0  0  0  0  0  0  0  0  0  0  0  0
   24.9811  -20.9852   -9.3352 C   0  0  0  0  0  0  0  0  0  0  0  0
   25.9359  -20.6184  -10.4018 C   0  0  1  0  0  0  0  0  0  0  0  0
   25.5944  -21.1652  -11.7558 N   0  0  0  0  0  0  0  0  0  0  0  0
   26.6428  -20.6503  -12.6746 C   0  0  0  0  0  0  0  0  0  0  0  0
   24.2882  -20.6999  -12.2147 O   0  0  0  0  0  0  0  0  0  0  0  0
   24.0180  -19.4466  -12.3363 N   0  0  0  0  0  0  0  0  0  0  0  0
   23.2204  -21.5677  -12.5670 C   0  0  2  0  0  0  0  0  0  0  0  0
   21.9201  -21.0200  -12.9996 C   0  0  0  0  0  0  0  0  0  0  0  0
   21.0759  -22.2332  -13.4163 S   0  0  0  0  0  0  0  0  0  0  0  0
   19.3856  -21.7137  -13.8111 C   0  0  0  0  0  0  0  0  0  0  0  0
   21.1836  -20.3913  -11.8811 O   0  0  0  0  0  0  0  0  0  0  0  0
   21.1773  -20.9551  -10.6283 O   0  0  0  0  0  0  0  0  0  0  0  0
  2  1  1  0
  3  2  2  0
  4  2  1  0
  5  4  1  0
  6  5  1  0
  6  7  1  0
  7  8  1  0
  8  9  1  6
 10 17  1  0
 10  8  1  0
 11 10  2  0
 12 13  1  0
 13 14  1  0
 16 15  1  1
 15 14  1  0
 16 17  1  0
 18 20  1  0
 18 16  1  0
 19 18  2  0
 21 20  1  0
 21 22  1  1
 22 23  1  0
 24 21  1  0
 25 24  1  0
 26 24  2  0
M  END
$$$$
