RMC.pdb
     RDKit          3D

 26 25  0  0  1  0  0  0  0  0999 V2000
   25.5392  -23.3680  -15.8983 N   0  0  0  0  0  0  0  0  0  0  0  0
   26.1087  -22.3461  -16.7186 C   0  0  0  0  0  0  0  0  0  0  0  0
   26.5832  -22.6502  -17.8869 N   0  0  0  0  0  0  0  0  0  0  0  0
   26.1766  -20.9930  -16.2980 N   0  0  0  0  0  0  0  0  0  0  0  0
   25.2593  -20.4556  -15.3337 C   0  0  0  0  0  0  0  0  0  0  0  0
   24.9558  -21.3278  -14.1686 C   0  0  0  0  0  0  0  0  0  0  0  0
   24.8410  -20.5445  -12.9033 C   0  0  0  0  0  0  0  0  0  0  0  0
   26.2159  -20.6559  -12.2177 C   0  0  2  0  0  0  0  0  0  0  0  0
   26.9682  -21.6403  -12.9603 N   0  0  0  0  0  0  0  0  0  0  0  0
   25.9842  -21.0507  -10.8230 C   0  0  0  0  0  0  0  0  0  0  0  0
   25.7549  -22.2885  -10.5991 O   0  0  0  0  0  0  0  0  0  0  0  0
   27.0328  -21.9754  -18.5096 C   0  0  0  0  0  0  0  0  0  0  0  0
   28.2235  -19.8157   -4.4099 S   0  0  0  0  0  0  0  0  0  0  0  0
   27.9575  -18.6270   -5.7429 C   0  0  0  0  0  0  0  0  0  0  0  0
   27.6008  -19.6129   -7.2630 C   0  0  0  0  0  0  0  0  0  0  0  0
   26.1298  -19.6398   -7.4022 C   0  0  2  0  0  0  0  0  0  0  0  0
   25.6160  -20.6677   -8.3656 N   0  0  0  0  0  0  0  0  0  0  0  0
   25.9944  -20.1785   -9.7168 C   0  0  0  0  0  0  0  0  0  0  0  0
   24.1629  -20.7979   -8.2956 O   0  0  0  0  0  0  0  0  0  0  0  0
   23.3860  -20.1903   -9.1238 N   0  0  0  0  0  0  0  0  0  0  0  0
   23.4873  -21.5937   -7.3325 C   0  0  2  0  0  0  0  0  0  0  0  0
   22.0465  -21.8800   -7.4733 C   0  0  0  0  0  0  0  0  0  0  0  0
   21.6399  -22.6109   -6.1854 S   0  0  0  0  0  0  0  0  0  0  0  0
   22.0488  -21.6016   -4.7373 C   0  0  0  0  0  0  0  0  0  0  0  0
   21.2353  -20.6430   -7.4986 O   0  0  0  0  0  0  0  0  0  0  0  0
   19.9430  -20.6499   -7.9648 O   0  0  0  0  0  0  0  0  0  0  0  0
  2  1  1  0
  3  2  2  0
  4  2  1  0
  5  4  1  0
  6  5  1  0
  6  7  1  0
  7  8  1  0
  8  9  1  6
 10 17  1  0
 10  8  1  0
 11 10  2  0
 12 13  1  0
 13 14  1  0
 16 15  1  1
 15 14  1  0
 16 17  1  0
 18 20  1  0
 18 16  1  0
 19 18  2  0
 21 20  1  0
 21 22  1  1
 22 23  1  0
 24 21  1  0
 25 24  1  0
 26 24  2  0
M  END
$$$$
