AYS.pdb
     RDKit          3D

 24 24  0  0  1  0  0  0  0  0999 V2000
   22.1858  -22.5257   32.8195 C   0  0  0  0  0  0  0  0  0  0  0  0
   21.3530  -21.4425   33.5057 C   0  0  2  0  0  0  0  0  0  0  0  0
   21.1745  -20.3004   32.6558 N   0  0  0  0  0  0  0  0  0  0  0  0
   22.0193  -21.0406   34.7694 C   0  0  0  0  0  0  0  0  0  0  0  0
   23.0290  -20.2882   34.7296 O   0  0  0  0  0  0  0  0  0  0  0  0
   19.0270  -15.3880   37.1870 O   0  0  0  0  0  0  0  0  0  0  0  0
   19.5727  -16.6380   37.4648 C   0  0  0  0  0  0  0  0  0  0  0  0
   18.8461  -17.7658   37.1281 C   0  0  0  0  0  0  0  0  0  0  0  0
   19.3518  -19.0398   37.3868 C   0  0  0  0  0  0  0  0  0  0  0  0
   20.5852  -19.1882   37.9829 C   0  0  0  0  0  0  0  0  0  0  0  0
   21.1253  -20.5529   38.2593 C   0  0  0  0  0  0  0  0  0  0  0  0
   22.1468  -20.9537   37.2190 C   0  0  2  0  0  0  0  0  0  0  0  0
   21.5425  -21.4869   36.0317 N   0  0  0  0  0  0  0  0  0  0  0  0
   23.0788  -21.9218   37.8378 C   0  0  0  0  0  0  0  0  0  0  0  0
   22.7366  -23.1362   37.9713 O   0  0  0  0  0  0  0  0  0  0  0  0
   21.2930  -18.0557   38.3105 C   0  0  0  0  0  0  0  0  0  0  0  0
   20.8009  -16.7789   38.0582 C   0  0  0  0  0  0  0  0  0  0  0  0
   27.1434  -22.9345   37.3760 O   0  0  0  0  0  0  0  0  0  0  0  0
   26.7108  -22.0013   38.3163 C   0  0  0  0  0  0  0  0  0  0  0  0
   25.3343  -22.4133   38.8357 C   0  0  2  0  0  0  0  0  0  0  0  0
   24.3519  -21.4810   38.2775 N   0  0  0  0  0  0  0  0  0  0  0  0
   25.3016  -22.2975   40.3070 C   0  0  0  0  0  0  0  0  0  0  0  0
   24.5994  -21.4270   40.8468 O   0  0  0  0  0  0  0  0  0  0  0  0
   26.0674  -23.1776   41.0472 O   0  0  0  0  0  0  0  0  0  0  0  0
  2  1  1  6
  2  4  1  0
  2  3  1  0
  4  5  2  0
  6  7  1  0
  7  8  2  0
  7 17  1  0
  8  9  1  0
  9 10  2  0
 10 11  1  0
 12 11  1  1
 12 14  1  0
 13 12  1  0
 13  4  1  0
 14 15  2  0
 16 10  1  0
 17 16  2  0
 18 19  1  0
 20 19  1  6
 20 22  1  0
 21 20  1  0
 21 14  1  0
 22 23  2  0
 22 24  1  0
M  END
$$$$
