AYS.pdb
     RDKit          3D

 24 24  0  0  1  0  0  0  0  0999 V2000
    7.4626  -14.8354   19.0557 C   0  0  0  0  0  0  0  0  0  0  0  0
    7.5096  -13.6806   20.0567 C   0  0  2  0  0  0  0  0  0  0  0  0
    8.0985  -12.5074   19.4773 N   0  0  0  0  0  0  0  0  0  0  0  0
    8.2798  -14.1017   21.2533 C   0  0  0  0  0  0  0  0  0  0  0  0
    9.5207  -13.8896   21.3022 O   0  0  0  0  0  0  0  0  0  0  0  0
    6.4272  -10.3232   27.2827 O   0  0  0  0  0  0  0  0  0  0  0  0
    6.6751  -11.5452   26.6643 C   0  0  0  0  0  0  0  0  0  0  0  0
    7.9656  -11.8289   26.2550 C   0  0  0  0  0  0  0  0  0  0  0  0
    8.2625  -13.0405   25.6308 C   0  0  0  0  0  0  0  0  0  0  0  0
    7.2692  -13.9707   25.4148 C   0  0  0  0  0  0  0  0  0  0  0  0
    7.5886  -15.2675   24.7464 C   0  0  0  0  0  0  0  0  0  0  0  0
    8.4347  -15.0486   23.5125 C   0  0  2  0  0  0  0  0  0  0  0  0
    7.6470  -14.7427   22.3527 N   0  0  0  0  0  0  0  0  0  0  0  0
    9.2658  -16.2547   23.3040 C   0  0  0  0  0  0  0  0  0  0  0  0
    8.7558  -17.2957   22.7883 O   0  0  0  0  0  0  0  0  0  0  0  0
    5.9925  -13.6712   25.8284 C   0  0  0  0  0  0  0  0  0  0  0  0
    5.6821  -12.4668   26.4521 C   0  0  0  0  0  0  0  0  0  0  0  0
   13.0122  -16.3014   22.1773 O   0  0  0  0  0  0  0  0  0  0  0  0
   12.9116  -16.9768   23.3922 C   0  0  0  0  0  0  0  0  0  0  0  0
   11.4679  -17.4341   23.5941 C   0  0  2  0  0  0  0  0  0  0  0  0
   10.6309  -16.2353   23.6840 N   0  0  0  0  0  0  0  0  0  0  0  0
   11.3536  -18.1774   24.8645 C   0  0  0  0  0  0  0  0  0  0  0  0
   10.6500  -17.7307   25.7852 O   0  0  0  0  0  0  0  0  0  0  0  0
   12.0459  -19.3667   24.9883 O   0  0  0  0  0  0  0  0  0  0  0  0
  2  1  1  6
  2  4  1  0
  2  3  1  0
  4  5  2  0
  6  7  1  0
  7  8  2  0
  7 17  1  0
  8  9  1  0
  9 10  2  0
 10 11  1  0
 12 11  1  1
 12 14  1  0
 13 12  1  0
 13  4  1  0
 14 15  2  0
 16 10  1  0
 17 16  2  0
 18 19  1  0
 20 19  1  1
 20 22  1  0
 21 20  1  0
 21 14  1  0
 22 23  2  0
 22 24  1  0
M  END
$$$$
