AYS.pdb
     RDKit          3D

 24 24  0  0  1  0  0  0  0  0999 V2000
    6.8125  -19.3104   28.1538 C   0  0  0  0  0  0  0  0  0  0  0  0
    7.4481  -19.4355   26.7689 C   0  0  2  0  0  0  0  0  0  0  0  0
    8.8167  -19.8577   26.8555 N   0  0  0  0  0  0  0  0  0  0  0  0
    7.3593  -18.1291   26.0703 C   0  0  0  0  0  0  0  0  0  0  0  0
    6.2539  -17.5275   26.0118 O   0  0  0  0  0  0  0  0  0  0  0  0
   10.0207  -14.3961   30.6456 O   0  0  0  0  0  0  0  0  0  0  0  0
    9.9113  -14.6524   29.2819 C   0  0  0  0  0  0  0  0  0  0  0  0
    9.0817  -13.8470   28.5227 C   0  0  0  0  0  0  0  0  0  0  0  0
    8.9399  -14.0653   27.1522 C   0  0  0  0  0  0  0  0  0  0  0  0
    9.6276  -15.0896   26.5386 C   0  0  0  0  0  0  0  0  0  0  0  0
    9.4747  -15.3220   25.0713 C   0  0  0  0  0  0  0  0  0  0  0  0
    8.3389  -16.2793   24.7885 C   0  0  2  0  0  0  0  0  0  0  0  0
    8.4987  -17.5365   25.4616 N   0  0  0  0  0  0  0  0  0  0  0  0
    8.2387  -16.4549   23.3229 C   0  0  0  0  0  0  0  0  0  0  0  0
    8.7544  -17.4731   22.7688 O   0  0  0  0  0  0  0  0  0  0  0  0
   10.4475  -15.8797   27.3094 C   0  0  0  0  0  0  0  0  0  0  0  0
   10.5984  -15.6734   28.6771 C   0  0  0  0  0  0  0  0  0  0  0  0
    7.1063  -13.2918   20.8776 O   0  0  0  0  0  0  0  0  0  0  0  0
    6.4723  -14.5067   20.6244 C   0  0  0  0  0  0  0  0  0  0  0  0
    7.3652  -15.6488   21.1066 C   0  0  2  0  0  0  0  0  0  0  0  0
    7.5638  -15.4790   22.5480 N   0  0  0  0  0  0  0  0  0  0  0  0
    8.6814  -15.5668   20.4431 C   0  0  0  0  0  0  0  0  0  0  0  0
    9.6785  -15.1949   21.0833 O   0  0  0  0  0  0  0  0  0  0  0  0
    8.7608  -15.9128   19.1077 O   0  0  0  0  0  0  0  0  0  0  0  0
  2  1  1  1
  2  4  1  0
  2  3  1  0
  4  5  2  0
  6  7  1  0
  7  8  2  0
  7 17  1  0
  8  9  1  0
  9 10  2  0
 10 11  1  0
 12 11  1  6
 12 14  1  0
 13 12  1  0
 13  4  1  0
 14 15  2  0
 16 10  1  0
 17 16  2  0
 18 19  1  0
 20 19  1  6
 20 22  1  0
 21 20  1  0
 21 14  1  0
 22 23  2  0
 22 24  1  0
M  END
$$$$
