AYS.pdb
     RDKit          3D

 24 24  0  0  1  0  0  0  0  0999 V2000
    9.3689  -18.8504   19.5692 C   0  0  0  0  0  0  0  0  0  0  0  0
    9.2183  -17.3494   19.3200 C   0  0  2  0  0  0  0  0  0  0  0  0
   10.2519  -16.8543   18.4568 N   0  0  0  0  0  0  0  0  0  0  0  0
    9.2499  -16.6325   20.6191 C   0  0  0  0  0  0  0  0  0  0  0  0
   10.3428  -16.5008   21.2318 O   0  0  0  0  0  0  0  0  0  0  0  0
    7.4978  -12.0382   27.8205 O   0  0  0  0  0  0  0  0  0  0  0  0
    7.3358  -12.7057   26.6099 C   0  0  0  0  0  0  0  0  0  0  0  0
    7.9185  -12.1688   25.4762 C   0  0  0  0  0  0  0  0  0  0  0  0
    7.7836  -12.8019   24.2405 C   0  0  0  0  0  0  0  0  0  0  0  0
    7.0656  -13.9733   24.1366 C   0  0  0  0  0  0  0  0  0  0  0  0
    6.9220  -14.6500   22.8130 C   0  0  0  0  0  0  0  0  0  0  0  0
    8.1640  -15.4414   22.4701 C   0  0  2  0  0  0  0  0  0  0  0  0
    8.0691  -16.0874   21.1923 N   0  0  0  0  0  0  0  0  0  0  0  0
    8.4035  -16.4163   23.5569 C   0  0  0  0  0  0  0  0  0  0  0  0
    7.6911  -17.4629   23.6394 O   0  0  0  0  0  0  0  0  0  0  0  0
    6.4935  -14.4921   25.2743 C   0  0  0  0  0  0  0  0  0  0  0  0
    6.6199  -13.8712   26.5131 C   0  0  0  0  0  0  0  0  0  0  0  0
   11.1551  -18.2667   23.9973 O   0  0  0  0  0  0  0  0  0  0  0  0
   11.1444  -17.6925   25.2671 C   0  0  0  0  0  0  0  0  0  0  0  0
    9.7509  -17.1361   25.5547 C   0  0  2  0  0  0  0  0  0  0  0  0
    9.4321  -16.1705   24.5003 N   0  0  0  0  0  0  0  0  0  0  0  0
    9.7549  -16.4266   26.8492 C   0  0  0  0  0  0  0  0  0  0  0  0
    9.5457  -15.2031   26.8885 O   0  0  0  0  0  0  0  0  0  0  0  0
    9.9957  -17.1613   27.9943 O   0  0  0  0  0  0  0  0  0  0  0  0
  2  1  1  1
  2  4  1  0
  2  3  1  0
  4  5  2  0
  6  7  1  0
  7  8  2  0
  7 17  1  0
  8  9  1  0
  9 10  2  0
 10 11  1  0
 12 11  1  1
 12 14  1  0
 13 12  1  0
 13  4  1  0
 14 15  2  0
 16 10  1  0
 17 16  2  0
 18 19  1  0
 20 19  1  6
 20 22  1  0
 21 20  1  0
 21 14  1  0
 22 23  2  0
 22 24  1  0
M  END
$$$$
