AYS.pdb
     RDKit          3D

 24 24  0  0  1  0  0  0  0  0999 V2000
    7.0543  -14.7161   19.8599 C   0  0  0  0  0  0  0  0  0  0  0  0
    7.4389  -13.4407   20.6104 C   0  0  2  0  0  0  0  0  0  0  0  0
    8.2452  -12.5760   19.7974 N   0  0  0  0  0  0  0  0  0  0  0  0
    8.1688  -13.8042   21.8504 C   0  0  0  0  0  0  0  0  0  0  0  0
    9.3973  -14.0777   21.7929 O   0  0  0  0  0  0  0  0  0  0  0  0
   10.9549  -14.7611   30.0263 O   0  0  0  0  0  0  0  0  0  0  0  0
   10.1089  -14.5939   28.9338 C   0  0  0  0  0  0  0  0  0  0  0  0
   10.0656  -13.3577   28.3148 C   0  0  0  0  0  0  0  0  0  0  0  0
    9.2331  -13.1422   27.2164 C   0  0  0  0  0  0  0  0  0  0  0  0
    8.4425  -14.1629   26.7351 C   0  0  0  0  0  0  0  0  0  0  0  0
    7.5517  -13.9306   25.5590 C   0  0  0  0  0  0  0  0  0  0  0  0
    8.2708  -14.2360   24.2644 C   0  0  2  0  0  0  0  0  0  0  0  0
    7.5111  -13.8515   23.1094 N   0  0  0  0  0  0  0  0  0  0  0  0
    8.5954  -15.6793   24.2472 C   0  0  0  0  0  0  0  0  0  0  0  0
    7.6738  -16.5354   24.0819 O   0  0  0  0  0  0  0  0  0  0  0  0
    8.4989  -15.3848   27.3631 C   0  0  0  0  0  0  0  0  0  0  0  0
    9.3245  -15.6137   28.4595 C   0  0  0  0  0  0  0  0  0  0  0  0
   12.0979  -16.7144   22.9838 O   0  0  0  0  0  0  0  0  0  0  0  0
   11.1320  -17.7146   23.0788 C   0  0  0  0  0  0  0  0  0  0  0  0
   10.3189  -17.5075   24.3555 C   0  0  2  0  0  0  0  0  0  0  0  0
    9.9400  -16.0939   24.4163 N   0  0  0  0  0  0  0  0  0  0  0  0
   11.1534  -17.8164   25.5335 C   0  0  0  0  0  0  0  0  0  0  0  0
   11.4274  -16.9241   26.3526 O   0  0  0  0  0  0  0  0  0  0  0  0
   11.6097  -19.1114   25.6875 O   0  0  0  0  0  0  0  0  0  0  0  0
  2  1  1  6
  2  4  1  0
  2  3  1  0
  4  5  2  0
  6  7  1  0
  7  8  2  0
  7 17  1  0
  8  9  1  0
  9 10  2  0
 10 11  1  0
 12 11  1  1
 12 14  1  0
 13 12  1  0
 13  4  1  0
 14 15  2  0
 16 10  1  0
 17 16  2  0
 18 19  1  0
 20 19  1  6
 20 22  1  0
 21 20  1  0
 21 14  1  0
 22 23  2  0
 22 24  1  0
M  END
$$$$
