AYS.pdb
     RDKit          3D

 24 24  0  0  1  0  0  0  0  0999 V2000
    8.8492  -18.1324   17.9979 C   0  0  0  0  0  0  0  0  0  0  0  0
    8.6853  -18.8218   19.3528 C   0  0  2  0  0  0  0  0  0  0  0  0
    7.3024  -19.0396   19.6672 N   0  0  0  0  0  0  0  0  0  0  0  0
    9.3244  -17.9920   20.4042 C   0  0  0  0  0  0  0  0  0  0  0  0
   10.5462  -17.6995   20.3104 O   0  0  0  0  0  0  0  0  0  0  0  0
    7.6618  -12.0158   18.4826 O   0  0  0  0  0  0  0  0  0  0  0  0
    7.8196  -12.8790   19.5631 C   0  0  0  0  0  0  0  0  0  0  0  0
    9.0612  -12.9618   20.1669 C   0  0  0  0  0  0  0  0  0  0  0  0
    9.2676  -13.8127   21.2528 C   0  0  0  0  0  0  0  0  0  0  0  0
    8.2323  -14.5825   21.7368 C   0  0  0  0  0  0  0  0  0  0  0  0
    8.4547  -15.4931   22.8994 C   0  0  0  0  0  0  0  0  0  0  0  0
    9.2625  -16.7051   22.4933 C   0  0  2  0  0  0  0  0  0  0  0  0
    8.5863  -17.5163   21.5218 N   0  0  0  0  0  0  0  0  0  0  0  0
    9.5853  -17.4740   23.7153 C   0  0  0  0  0  0  0  0  0  0  0  0
    8.6518  -17.9299   24.4437 O   0  0  0  0  0  0  0  0  0  0  0  0
    7.0051  -14.4869   21.1238 C   0  0  0  0  0  0  0  0  0  0  0  0
    6.7852  -13.6425   20.0400 C   0  0  0  0  0  0  0  0  0  0  0  0
   12.4672  -19.9836   23.6446 O   0  0  0  0  0  0  0  0  0  0  0  0
   12.6358  -19.2447   24.8141 C   0  0  0  0  0  0  0  0  0  0  0  0
   11.3138  -18.5702   25.1766 C   0  0  2  0  0  0  0  0  0  0  0  0
   10.9414  -17.6954   24.0622 N   0  0  0  0  0  0  0  0  0  0  0  0
   11.4934  -17.7369   26.3819 C   0  0  0  0  0  0  0  0  0  0  0  0
   11.4135  -16.5003   26.3005 O   0  0  0  0  0  0  0  0  0  0  0  0
   11.7490  -18.3728   27.5817 O   0  0  0  0  0  0  0  0  0  0  0  0
  2  1  1  6
  2  4  1  0
  2  3  1  0
  4  5  2  0
  6  7  1  0
  7  8  2  0
  7 17  1  0
  8  9  1  0
  9 10  2  0
 10 11  1  0
 12 11  1  1
 12 14  1  0
 13 12  1  0
 13  4  1  0
 14 15  2  0
 16 10  1  0
 17 16  2  0
 18 19  1  0
 20 19  1  6
 20 22  1  0
 21 20  1  0
 21 14  1  0
 22 23  2  0
 22 24  1  0
M  END
$$$$
