AYS.pdb
     RDKit          3D

 24 24  0  0  1  0  0  0  0  0999 V2000
   10.0161  -16.1053   18.2436 C   0  0  0  0  0  0  0  0  0  0  0  0
    9.6285  -17.0818   19.3546 C   0  0  2  0  0  0  0  0  0  0  0  0
    8.3679  -17.7113   19.0840 N   0  0  0  0  0  0  0  0  0  0  0  0
    9.5699  -16.3541   20.6467 C   0  0  0  0  0  0  0  0  0  0  0  0
   10.6361  -15.9542   21.1857 O   0  0  0  0  0  0  0  0  0  0  0  0
    7.2207  -12.2273   27.9621 O   0  0  0  0  0  0  0  0  0  0  0  0
    7.1564  -12.8683   26.7283 C   0  0  0  0  0  0  0  0  0  0  0  0
    7.7882  -12.2832   25.6459 C   0  0  0  0  0  0  0  0  0  0  0  0
    7.7512  -12.8884   24.3896 C   0  0  0  0  0  0  0  0  0  0  0  0
    7.0822  -14.0801   24.2137 C   0  0  0  0  0  0  0  0  0  0  0  0
    7.0434  -14.7268   22.8681 C   0  0  0  0  0  0  0  0  0  0  0  0
    8.3501  -15.4237   22.5626 C   0  0  2  0  0  0  0  0  0  0  0  0
    8.3317  -16.0958   21.2950 N   0  0  0  0  0  0  0  0  0  0  0  0
    8.6434  -16.3589   23.6709 C   0  0  0  0  0  0  0  0  0  0  0  0
    7.8847  -17.3542   23.8793 O   0  0  0  0  0  0  0  0  0  0  0  0
    6.4601  -14.6468   25.3012 C   0  0  0  0  0  0  0  0  0  0  0  0
    6.4889  -14.0543   26.5598 C   0  0  0  0  0  0  0  0  0  0  0  0
   12.4805  -16.4609   24.8804 O   0  0  0  0  0  0  0  0  0  0  0  0
   11.6550  -17.5820   24.9434 C   0  0  0  0  0  0  0  0  0  0  0  0
   10.2665  -17.1570   25.4182 C   0  0  2  0  0  0  0  0  0  0  0  0
    9.7752  -16.1328   24.4933 N   0  0  0  0  0  0  0  0  0  0  0  0
   10.3614  -16.5601   26.7651 C   0  0  0  0  0  0  0  0  0  0  0  0
   10.7524  -17.2464   27.7233 O   0  0  0  0  0  0  0  0  0  0  0  0
   10.0054  -15.2336   26.9167 O   0  0  0  0  0  0  0  0  0  0  0  0
  2  1  1  6
  2  4  1  0
  2  3  1  0
  4  5  2  0
  6  7  1  0
  7  8  2  0
  7 17  1  0
  8  9  1  0
  9 10  2  0
 10 11  1  0
 12 11  1  1
 12 14  1  0
 13 12  1  0
 13  4  1  0
 14 15  2  0
 16 10  1  0
 17 16  2  0
 18 19  1  0
 20 19  1  6
 20 22  1  0
 21 20  1  0
 21 14  1  0
 22 23  2  0
 22 24  1  0
M  END
$$$$
