AYS.pdb
     RDKit          3D

 24 24  0  0  1  0  0  0  0  0999 V2000
    8.1295  -14.9013   18.4364 C   0  0  0  0  0  0  0  0  0  0  0  0
    7.7287  -13.8195   19.4398 C   0  0  2  0  0  0  0  0  0  0  0  0
    8.1541  -12.5191   19.0078 N   0  0  0  0  0  0  0  0  0  0  0  0
    8.3195  -14.1373   20.7636 C   0  0  0  0  0  0  0  0  0  0  0  0
    9.4954  -13.7689   21.0259 O   0  0  0  0  0  0  0  0  0  0  0  0
    7.0493  -10.9737   27.7691 O   0  0  0  0  0  0  0  0  0  0  0  0
    7.0529  -12.0238   26.8556 C   0  0  0  0  0  0  0  0  0  0  0  0
    7.9814  -13.0363   27.0164 C   0  0  0  0  0  0  0  0  0  0  0  0
    8.0235  -14.1094   26.1261 C   0  0  0  0  0  0  0  0  0  0  0  0
    7.1368  -14.1718   25.0733 C   0  0  0  0  0  0  0  0  0  0  0  0
    7.1830  -15.3213   24.1209 C   0  0  0  0  0  0  0  0  0  0  0  0
    8.1982  -15.0795   23.0268 C   0  0  2  0  0  0  0  0  0  0  0  0
    7.5860  -14.8520   21.7491 N   0  0  0  0  0  0  0  0  0  0  0  0
    9.1206  -16.2357   22.9907 C   0  0  0  0  0  0  0  0  0  0  0  0
    8.7167  -17.3567   22.5551 O   0  0  0  0  0  0  0  0  0  0  0  0
    6.2209  -13.1562   24.9294 C   0  0  0  0  0  0  0  0  0  0  0  0
    6.1677  -12.0801   25.8098 C   0  0  0  0  0  0  0  0  0  0  0  0
   13.1722  -15.6448   23.9055 O   0  0  0  0  0  0  0  0  0  0  0  0
   12.7658  -16.5630   22.9391 C   0  0  0  0  0  0  0  0  0  0  0  0
   11.4269  -17.1700   23.3551 C   0  0  2  0  0  0  0  0  0  0  0  0
   10.4537  -16.0789   23.4453 N   0  0  0  0  0  0  0  0  0  0  0  0
   11.5539  -17.7912   24.6882 C   0  0  0  0  0  0  0  0  0  0  0  0
   10.9715  -17.2921   25.6649 O   0  0  0  0  0  0  0  0  0  0  0  0
   12.3307  -18.9278   24.8063 O   0  0  0  0  0  0  0  0  0  0  0  0
  2  1  1  6
  2  4  1  0
  2  3  1  0
  4  5  2  0
  6  7  1  0
  7  8  2  0
  7 17  1  0
  8  9  1  0
  9 10  2  0
 10 11  1  0
 12 11  1  1
 12 14  1  0
 13 12  1  0
 13  4  1  0
 14 15  2  0
 16 10  1  0
 17 16  2  0
 18 19  1  0
 20 19  1  1
 20 22  1  0
 21 20  1  0
 21 14  1  0
 22 23  2  0
 22 24  1  0
M  END
$$$$
