AYS.pdb
     RDKit          3D

 24 24  0  0  1  0  0  0  0  0999 V2000
    8.3156  -17.4800   20.1207 C   0  0  0  0  0  0  0  0  0  0  0  0
    8.5699  -15.9809   20.2814 C   0  0  2  0  0  0  0  0  0  0  0  0
    9.4175  -15.4775   19.2389 N   0  0  0  0  0  0  0  0  0  0  0  0
    9.1859  -15.7289   21.6079 C   0  0  0  0  0  0  0  0  0  0  0  0
   10.4404  -15.6786   21.7130 O   0  0  0  0  0  0  0  0  0  0  0  0
   10.8842  -14.5813   30.0868 O   0  0  0  0  0  0  0  0  0  0  0  0
   10.2157  -14.6467   28.8678 C   0  0  0  0  0  0  0  0  0  0  0  0
    9.6083  -15.8368   28.5102 C   0  0  0  0  0  0  0  0  0  0  0  0
    8.9267  -15.9503   27.2984 C   0  0  0  0  0  0  0  0  0  0  0  0
    8.8515  -14.8736   26.4419 C   0  0  0  0  0  0  0  0  0  0  0  0
    8.1215  -14.9967   25.1448 C   0  0  0  0  0  0  0  0  0  0  0  0
    9.0451  -15.4678   24.0443 C   0  0  2  0  0  0  0  0  0  0  0  0
    8.3895  -15.5417   22.7701 N   0  0  0  0  0  0  0  0  0  0  0  0
    9.6078  -16.7764   24.4441 C   0  0  0  0  0  0  0  0  0  0  0  0
    8.8925  -17.8221   24.3776 O   0  0  0  0  0  0  0  0  0  0  0  0
    9.4614  -13.6988   26.8142 C   0  0  0  0  0  0  0  0  0  0  0  0
   10.1444  -13.5715   28.0197 C   0  0  0  0  0  0  0  0  0  0  0  0
   13.5041  -17.2769   24.0918 O   0  0  0  0  0  0  0  0  0  0  0  0
   12.6593  -18.3835   24.1549 C   0  0  0  0  0  0  0  0  0  0  0  0
   11.5823  -18.1332   25.2092 C   0  0  2  0  0  0  0  0  0  0  0  0
   10.9478  -16.8497   24.8997 N   0  0  0  0  0  0  0  0  0  0  0  0
   12.2050  -18.0342   26.5440 C   0  0  0  0  0  0  0  0  0  0  0  0
   12.7596  -19.0251   27.0466 O   0  0  0  0  0  0  0  0  0  0  0  0
   12.1485  -16.8200   27.2011 O   0  0  0  0  0  0  0  0  0  0  0  0
  2  1  1  6
  2  4  1  0
  2  3  1  0
  4  5  2  0
  6  7  1  0
  7  8  2  0
  7 17  1  0
  8  9  1  0
  9 10  2  0
 10 11  1  0
 12 11  1  1
 12 14  1  0
 13 12  1  0
 13  4  1  0
 14 15  2  0
 16 10  1  0
 17 16  2  0
 18 19  1  0
 20 19  1  6
 20 22  1  0
 21 20  1  0
 21 14  1  0
 22 23  2  0
 22 24  1  0
M  END
$$$$
