AYS.pdb
     RDKit          3D

 24 24  0  0  1  0  0  0  0  0999 V2000
   10.4438  -17.4219   19.0877 C   0  0  0  0  0  0  0  0  0  0  0  0
    9.9062  -18.2447   20.2589 C   0  0  2  0  0  0  0  0  0  0  0  0
    8.5574  -18.6738   20.0237 N   0  0  0  0  0  0  0  0  0  0  0  0
    9.9757  -17.4330   21.4994 C   0  0  0  0  0  0  0  0  0  0  0  0
   11.0882  -16.9941   21.8954 O   0  0  0  0  0  0  0  0  0  0  0  0
    7.4964  -12.3035   18.6029 O   0  0  0  0  0  0  0  0  0  0  0  0
    7.5467  -13.0438   19.7804 C   0  0  0  0  0  0  0  0  0  0  0  0
    8.5226  -12.7384   20.7118 C   0  0  0  0  0  0  0  0  0  0  0  0
    8.6124  -13.4527   21.9066 C   0  0  0  0  0  0  0  0  0  0  0  0
    7.7262  -14.4739   22.1721 C   0  0  0  0  0  0  0  0  0  0  0  0
    7.8236  -15.2378   23.4517 C   0  0  0  0  0  0  0  0  0  0  0  0
    8.9323  -16.2640   23.3886 C   0  0  2  0  0  0  0  0  0  0  0  0
    8.8098  -17.1370   22.2563 N   0  0  0  0  0  0  0  0  0  0  0  0
    8.9340  -17.0190   24.6609 C   0  0  0  0  0  0  0  0  0  0  0  0
    7.8777  -17.6006   25.0554 O   0  0  0  0  0  0  0  0  0  0  0  0
    6.7629  -14.7632   21.2344 C   0  0  0  0  0  0  0  0  0  0  0  0
    6.6618  -14.0590   20.0386 C   0  0  0  0  0  0  0  0  0  0  0  0
   12.4206  -18.4172   25.8233 O   0  0  0  0  0  0  0  0  0  0  0  0
   11.2649  -19.0232   26.3125 C   0  0  0  0  0  0  0  0  0  0  0  0
   10.2220  -17.9474   26.6112 C   0  0  2  0  0  0  0  0  0  0  0  0
   10.1220  -17.0859   25.4306 N   0  0  0  0  0  0  0  0  0  0  0  0
   10.6687  -17.1232   27.7516 C   0  0  0  0  0  0  0  0  0  0  0  0
   10.9436  -15.9241   27.5824 O   0  0  0  0  0  0  0  0  0  0  0  0
   10.7676  -17.7251   28.9915 O   0  0  0  0  0  0  0  0  0  0  0  0
  2  1  1  6
  2  4  1  0
  2  3  1  0
  4  5  2  0
  6  7  1  0
  7  8  2  0
  7 17  1  0
  8  9  1  0
  9 10  2  0
 10 11  1  0
 12 11  1  1
 12 14  1  0
 13 12  1  0
 13  4  1  0
 14 15  2  0
 16 10  1  0
 17 16  2  0
 18 19  1  0
 20 19  1  6
 20 22  1  0
 21 20  1  0
 21 14  1  0
 22 23  2  0
 22 24  1  0
M  END
$$$$
