AYS.pdb
     RDKit          3D

 24 24  0  0  1  0  0  0  0  0999 V2000
    6.6905  -13.7342   20.7155 C   0  0  0  0  0  0  0  0  0  0  0  0
    7.2642  -15.1267   20.9795 C   0  0  2  0  0  0  0  0  0  0  0  0
    6.2284  -16.0729   21.2801 N   0  0  0  0  0  0  0  0  0  0  0  0
    8.2308  -15.0523   22.1032 C   0  0  0  0  0  0  0  0  0  0  0  0
    9.3020  -14.4044   21.9620 O   0  0  0  0  0  0  0  0  0  0  0  0
    5.8692  -10.6568   26.8164 O   0  0  0  0  0  0  0  0  0  0  0  0
    6.5240  -11.8592   26.5662 C   0  0  0  0  0  0  0  0  0  0  0  0
    5.7786  -12.9389   26.1283 C   0  0  0  0  0  0  0  0  0  0  0  0
    6.3907  -14.1643   25.8645 C   0  0  0  0  0  0  0  0  0  0  0  0
    7.7496  -14.3120   26.0381 C   0  0  0  0  0  0  0  0  0  0  0  0
    8.4036  -15.6246   25.7553 C   0  0  0  0  0  0  0  0  0  0  0  0
    8.9863  -15.6516   24.3603 C   0  0  2  0  0  0  0  0  0  0  0  0
    7.9754  -15.6988   23.3429 N   0  0  0  0  0  0  0  0  0  0  0  0
    9.9065  -16.8064   24.2679 C   0  0  0  0  0  0  0  0  0  0  0  0
    9.4448  -17.9724   24.0762 O   0  0  0  0  0  0  0  0  0  0  0  0
    8.4742  -13.2277   26.4740 C   0  0  0  0  0  0  0  0  0  0  0  0
    7.8768  -11.9998   26.7410 C   0  0  0  0  0  0  0  0  0  0  0  0
   13.4017  -16.8760   22.4578 O   0  0  0  0  0  0  0  0  0  0  0  0
   13.5696  -17.1890   23.8054 C   0  0  0  0  0  0  0  0  0  0  0  0
   12.2495  -17.7149   24.3667 C   0  0  2  0  0  0  0  0  0  0  0  0
   11.3025  -16.5976   24.3947 N   0  0  0  0  0  0  0  0  0  0  0  0
   12.4499  -18.1893   25.7502 C   0  0  0  0  0  0  0  0  0  0  0  0
   11.8939  -17.6053   26.6946 O   0  0  0  0  0  0  0  0  0  0  0  0
   13.2643  -19.2873   25.9511 O   0  0  0  0  0  0  0  0  0  0  0  0
  2  1  1  1
  2  4  1  0
  2  3  1  0
  4  5  2  0
  6  7  1  0
  7  8  2  0
  7 17  1  0
  8  9  1  0
  9 10  2  0
 10 11  1  0
 12 11  1  1
 12 14  1  0
 13 12  1  0
 13  4  1  0
 14 15  2  0
 16 10  1  0
 17 16  2  0
 18 19  1  0
 20 19  1  1
 20 22  1  0
 21 20  1  0
 21 14  1  0
 22 23  2  0
 22 24  1  0
M  END
$$$$
