AYS.pdb
     RDKit          3D

 24 24  0  0  1  0  0  0  0  0999 V2000
    7.9496  -12.6403   19.6474 C   0  0  0  0  0  0  0  0  0  0  0  0
    8.0341  -14.1457   19.9015 C   0  0  2  0  0  0  0  0  0  0  0  0
    6.7523  -14.7747   19.7601 N   0  0  0  0  0  0  0  0  0  0  0  0
    8.5722  -14.3821   21.2642 C   0  0  0  0  0  0  0  0  0  0  0  0
    9.7269  -13.9727   21.5580 O   0  0  0  0  0  0  0  0  0  0  0  0
    6.1284  -10.4534   27.0093 O   0  0  0  0  0  0  0  0  0  0  0  0
    6.4693  -11.6792   26.4449 C   0  0  0  0  0  0  0  0  0  0  0  0
    5.5636  -12.2909   25.5971 C   0  0  0  0  0  0  0  0  0  0  0  0
    5.8607  -13.5199   25.0077 C   0  0  0  0  0  0  0  0  0  0  0  0
    7.0644  -14.1393   25.2653 C   0  0  0  0  0  0  0  0  0  0  0  0
    7.3811  -15.4550   24.6336 C   0  0  0  0  0  0  0  0  0  0  0  0
    8.4089  -15.2970   23.5359 C   0  0  2  0  0  0  0  0  0  0  0  0
    7.8113  -15.0637   22.2524 N   0  0  0  0  0  0  0  0  0  0  0  0
    9.2632  -16.5049   23.5276 C   0  0  0  0  0  0  0  0  0  0  0  0
    8.7713  -17.6282   23.2023 O   0  0  0  0  0  0  0  0  0  0  0  0
    7.9521  -13.5161   26.1106 C   0  0  0  0  0  0  0  0  0  0  0  0
    7.6688  -12.2905   26.7052 C   0  0  0  0  0  0  0  0  0  0  0  0
   12.7845  -16.6633   22.0818 O   0  0  0  0  0  0  0  0  0  0  0  0
   12.8898  -17.0998   23.4011 C   0  0  0  0  0  0  0  0  0  0  0  0
   11.5170  -17.5607   23.8882 C   0  0  2  0  0  0  0  0  0  0  0  0
   10.6302  -16.3949   23.8849 N   0  0  0  0  0  0  0  0  0  0  0  0
   11.6218  -18.0613   25.2731 C   0  0  0  0  0  0  0  0  0  0  0  0
   12.2818  -19.0848   25.5162 O   0  0  0  0  0  0  0  0  0  0  0  0
   10.9701  -17.3611   26.2702 O   0  0  0  0  0  0  0  0  0  0  0  0
  2  1  1  1
  2  4  1  0
  2  3  1  0
  4  5  2  0
  6  7  1  0
  7  8  2  0
  7 17  1  0
  8  9  1  0
  9 10  2  0
 10 11  1  0
 12 11  1  1
 12 14  1  0
 13 12  1  0
 13  4  1  0
 14 15  2  0
 16 10  1  0
 17 16  2  0
 18 19  1  0
 20 19  1  1
 20 22  1  0
 21 20  1  0
 21 14  1  0
 22 23  2  0
 22 24  1  0
M  END
$$$$
