AYS.pdb
     RDKit          3D

 24 24  0  0  1  0  0  0  0  0999 V2000
    7.0818  -15.0869   19.9607 C   0  0  0  0  0  0  0  0  0  0  0  0
    7.3658  -13.7357   20.6175 C   0  0  2  0  0  0  0  0  0  0  0  0
    8.0460  -12.8477   19.7189 N   0  0  0  0  0  0  0  0  0  0  0  0
    8.1794  -13.9478   21.8404 C   0  0  0  0  0  0  0  0  0  0  0  0
    9.4366  -13.9521   21.7595 O   0  0  0  0  0  0  0  0  0  0  0  0
   11.1479  -15.4917   29.8977 O   0  0  0  0  0  0  0  0  0  0  0  0
   10.3171  -15.1525   28.8337 C   0  0  0  0  0  0  0  0  0  0  0  0
    9.5136  -16.1348   28.2836 C   0  0  0  0  0  0  0  0  0  0  0  0
    8.6646  -15.8425   27.2161 C   0  0  0  0  0  0  0  0  0  0  0  0
    8.6176  -14.5670   26.6969 C   0  0  0  0  0  0  0  0  0  0  0  0
    7.7081  -14.2556   25.5540 C   0  0  0  0  0  0  0  0  0  0  0  0
    8.4106  -14.4572   24.2303 C   0  0  2  0  0  0  0  0  0  0  0  0
    7.5704  -14.1475   23.1090 N   0  0  0  0  0  0  0  0  0  0  0  0
    8.8990  -15.8527   24.1760 C   0  0  0  0  0  0  0  0  0  0  0  0
    8.0987  -16.7948   23.8903 O   0  0  0  0  0  0  0  0  0  0  0  0
    9.4234  -13.6037   27.2567 C   0  0  0  0  0  0  0  0  0  0  0  0
   10.2750  -13.8812   28.3215 C   0  0  0  0  0  0  0  0  0  0  0  0
   12.3870  -18.6689   22.9352 O   0  0  0  0  0  0  0  0  0  0  0  0
   11.8341  -17.4042   23.1282 C   0  0  0  0  0  0  0  0  0  0  0  0
   10.8247  -17.4672   24.2733 C   0  0  2  0  0  0  0  0  0  0  0  0
   10.2635  -16.1251   24.4448 N   0  0  0  0  0  0  0  0  0  0  0  0
   11.5120  -17.8471   25.5233 C   0  0  0  0  0  0  0  0  0  0  0  0
   11.5864  -17.0382   26.4627 O   0  0  0  0  0  0  0  0  0  0  0  0
   12.0593  -19.1130   25.6074 O   0  0  0  0  0  0  0  0  0  0  0  0
  2  1  1  6
  2  4  1  0
  2  3  1  0
  4  5  2  0
  6  7  1  0
  7  8  2  0
  7 17  1  0
  8  9  1  0
  9 10  2  0
 10 11  1  0
 12 11  1  1
 12 14  1  0
 13 12  1  0
 13  4  1  0
 14 15  2  0
 16 10  1  0
 17 16  2  0
 18 19  1  0
 20 19  1  6
 20 22  1  0
 21 20  1  0
 21 14  1  0
 22 23  2  0
 22 24  1  0
M  END
$$$$
