NYM.pdb
     RDKit          3D

 29 29  0  0  1  0  0  0  0  0999 V2000
   13.7202  -18.6643   18.8932 N   0  0  0  0  0  0  0  0  0  0  0  0
   13.3323  -17.3650   18.5041 C   0  0  0  0  0  0  0  0  0  0  0  0
   14.0160  -16.8061   17.6070 O   0  0  0  0  0  0  0  0  0  0  0  0
   12.1697  -16.6977   19.1299 C   0  0  0  0  0  0  0  0  0  0  0  0
   11.6205  -17.5933   20.2289 C   0  0  2  0  0  0  0  0  0  0  0  0
   10.6380  -18.5114   19.7347 N   0  0  0  0  0  0  0  0  0  0  0  0
   11.1480  -16.8024   21.3828 C   0  0  0  0  0  0  0  0  0  0  0  0
   11.9798  -16.0667   21.9720 O   0  0  0  0  0  0  0  0  0  0  0  0
    6.1257  -11.9703   26.8902 O   0  0  0  0  0  0  0  0  0  0  0  0
    6.5832  -12.8972   25.9534 C   0  0  0  0  0  0  0  0  0  0  0  0
    7.2775  -12.4987   24.8337 C   0  0  0  0  0  0  0  0  0  0  0  0
    7.7439  -13.3851   23.8886 C   0  0  0  0  0  0  0  0  0  0  0  0
    7.5237  -14.7562   24.0358 C   0  0  0  0  0  0  0  0  0  0  0  0
    8.0019  -15.7149   23.0359 C   0  0  0  0  0  0  0  0  0  0  0  0
    9.4630  -16.0375   23.0918 C   0  0  2  0  0  0  0  0  0  0  0  0
    9.8242  -16.8042   21.8852 N   0  0  0  0  0  0  0  0  0  0  0  0
    9.7626  -16.8361   24.3095 C   0  0  0  0  0  0  0  0  0  0  0  0
    9.8504  -18.0853   24.2062 O   0  0  0  0  0  0  0  0  0  0  0  0
    6.8283  -15.1432   25.1587 C   0  0  0  0  0  0  0  0  0  0  0  0
    6.3588  -14.2480   26.1109 C   0  0  0  0  0  0  0  0  0  0  0  0
    8.5046  -12.6472   27.9079 C   0  0  0  0  0  0  0  0  0  0  0  0
    9.6107  -13.6255   28.8783 S   0  0  0  0  0  0  0  0  0  0  0  0
   10.6259  -14.8142   28.1271 C   0  0  0  0  0  0  0  0  0  0  0  0
   10.3407  -16.1909   27.8737 C   0  0  0  0  0  0  0  0  0  0  0  0
   10.5542  -17.0210   26.7053 C   0  0  2  0  0  0  0  0  0  0  0  0
    9.9496  -16.2407   25.5630 N   0  0  0  0  0  0  0  0  0  0  0  0
    9.9375  -18.3270   26.5661 C   0  0  0  0  0  0  0  0  0  0  0  0
    8.9340  -18.7085   25.7044 O   0  0  0  0  0  0  0  0  0  0  0  0
   10.3436  -19.2877   27.3277 O   0  0  0  0  0  0  0  0  0  0  0  0
  1  2  1  0
  2  3  2  0
  4  2  1  0
  4  5  1  0
  5  7  1  0
  5  6  1  6
  7  8  2  0
 10  9  1  0
 10 11  2  0
 12 11  1  0
 13 12  2  0
 14 13  1  0
 15 14  1  6
 16 15  1  0
 16  7  1  0
 17 18  2  0
 17 15  1  0
 19 20  2  0
 19 13  1  0
 20 10  1  0
 22 21  1  0
 22 23  1  0
 23 24  1  0
 25 24  1  1
 25 26  1  0
 25 27  1  0
 26 17  1  0
 27 28  1  0
 29 27  2  0
M  END
$$$$
