NYM.pdb
     RDKit          3D

 29 29  0  0  1  0  0  0  0  0999 V2000
    9.6572  -18.8525   18.0955 N   0  0  0  0  0  0  0  0  0  0  0  0
    9.5879  -19.4939   19.3500 C   0  0  0  0  0  0  0  0  0  0  0  0
    9.3264  -20.7252   19.3517 O   0  0  0  0  0  0  0  0  0  0  0  0
    9.8152  -18.7419   20.6036 C   0  0  0  0  0  0  0  0  0  0  0  0
    9.9851  -17.2684   20.2700 C   0  0  2  0  0  0  0  0  0  0  0  0
   11.1804  -17.0202   19.5203 N   0  0  0  0  0  0  0  0  0  0  0  0
    9.8714  -16.4260   21.4775 C   0  0  0  0  0  0  0  0  0  0  0  0
   10.9157  -16.2051   22.1412 O   0  0  0  0  0  0  0  0  0  0  0  0
    6.4949  -11.3219   28.0357 O   0  0  0  0  0  0  0  0  0  0  0  0
    6.7196  -12.0280   26.8539 C   0  0  0  0  0  0  0  0  0  0  0  0
    6.1563  -13.2661   26.6426 C   0  0  0  0  0  0  0  0  0  0  0  0
    6.3560  -13.9912   25.4891 C   0  0  0  0  0  0  0  0  0  0  0  0
    7.1580  -13.4834   24.4649 C   0  0  0  0  0  0  0  0  0  0  0  0
    7.3922  -14.2441   23.2344 C   0  0  0  0  0  0  0  0  0  0  0  0
    8.6470  -15.0607   23.2043 C   0  0  2  0  0  0  0  0  0  0  0  0
    8.6729  -15.8415   21.9537 N   0  0  0  0  0  0  0  0  0  0  0  0
    8.6880  -15.9758   24.3752 C   0  0  0  0  0  0  0  0  0  0  0  0
    8.0187  -17.0385   24.3352 O   0  0  0  0  0  0  0  0  0  0  0  0
    7.7162  -12.2451   24.6869 C   0  0  0  0  0  0  0  0  0  0  0  0
    7.5138  -11.5152   25.8507 C   0  0  0  0  0  0  0  0  0  0  0  0
   12.5108  -20.5230   23.9118 C   0  0  0  0  0  0  0  0  0  0  0  0
   12.7502  -19.5967   25.3974 S   0  0  0  0  0  0  0  0  0  0  0  0
   11.4122  -18.8078   26.1691 C   0  0  0  0  0  0  0  0  0  0  0  0
   10.8703  -17.5140   25.8987 C   0  0  0  0  0  0  0  0  0  0  0  0
    9.7834  -16.7763   26.5107 C   0  0  2  0  0  0  0  0  0  0  0  0
    9.4473  -15.6907   25.5168 N   0  0  0  0  0  0  0  0  0  0  0  0
    9.9549  -16.0387   27.7484 C   0  0  0  0  0  0  0  0  0  0  0  0
   10.0528  -16.5337   29.0292 O   0  0  0  0  0  0  0  0  0  0  0  0
   10.0264  -14.7504   27.6964 O   0  0  0  0  0  0  0  0  0  0  0  0
  1  2  1  0
  2  3  2  0
  4  2  1  0
  4  5  1  0
  5  7  1  0
  5  6  1  1
  7  8  2  0
 10  9  1  0
 10 11  2  0
 12 11  1  0
 13 12  2  0
 14 13  1  0
 15 14  1  1
 16 15  1  0
 16  7  1  0
 17 18  2  0
 17 15  1  0
 19 20  2  0
 19 13  1  0
 20 10  1  0
 22 21  1  0
 22 23  1  0
 23 24  1  0
 25 24  1  6
 25 26  1  0
 25 27  1  0
 26 17  1  0
 27 28  1  0
 29 27  2  0
M  END
$$$$
