NYM.pdb
     RDKit          3D

 29 29  0  0  1  0  0  0  0  0999 V2000
    8.1217  -18.4424   17.1023 N   0  0  0  0  0  0  0  0  0  0  0  0
    7.0056  -17.6470   17.4367 C   0  0  0  0  0  0  0  0  0  0  0  0
    6.4575  -17.0051   16.5029 O   0  0  0  0  0  0  0  0  0  0  0  0
    6.5090  -17.5782   18.8286 C   0  0  0  0  0  0  0  0  0  0  0  0
    7.2911  -18.5656   19.6799 C   0  0  2  0  0  0  0  0  0  0  0  0
    6.9660  -19.9246   19.3641 N   0  0  0  0  0  0  0  0  0  0  0  0
    7.1628  -18.2568   21.1182 C   0  0  0  0  0  0  0  0  0  0  0  0
    6.4513  -17.2743   21.4478 O   0  0  0  0  0  0  0  0  0  0  0  0
    8.5641  -18.5446   29.9834 O   0  0  0  0  0  0  0  0  0  0  0  0
    8.4044  -18.8396   28.6294 C   0  0  0  0  0  0  0  0  0  0  0  0
    9.4902  -19.0664   27.8142 C   0  0  0  0  0  0  0  0  0  0  0  0
    9.3704  -19.3600   26.4742 C   0  0  0  0  0  0  0  0  0  0  0  0
    8.1102  -19.4406   25.8780 C   0  0  0  0  0  0  0  0  0  0  0  0
    7.9616  -19.7407   24.4513 C   0  0  0  0  0  0  0  0  0  0  0  0
    7.6214  -18.5756   23.5744 C   0  0  2  0  0  0  0  0  0  0  0  0
    7.7803  -18.9819   22.1659 N   0  0  0  0  0  0  0  0  0  0  0  0
    8.5197  -17.4303   23.8769 C   0  0  0  0  0  0  0  0  0  0  0  0
    9.7200  -17.4906   23.5100 O   0  0  0  0  0  0  0  0  0  0  0  0
    7.0319  -19.2119   26.7022 C   0  0  0  0  0  0  0  0  0  0  0  0
    7.1545  -18.9160   28.0535 C   0  0  0  0  0  0  0  0  0  0  0  0
    5.4263  -11.6556   27.4113 C   0  0  0  0  0  0  0  0  0  0  0  0
    6.6344  -11.9304   26.1515 S   0  0  0  0  0  0  0  0  0  0  0  0
    7.0862  -13.5431   25.7008 C   0  0  0  0  0  0  0  0  0  0  0  0
    8.0760  -13.9552   24.7567 C   0  0  0  0  0  0  0  0  0  0  0  0
    8.9727  -15.0933   24.7339 C   0  0  2  0  0  0  0  0  0  0  0  0
    8.0706  -16.2907   24.5554 N   0  0  0  0  0  0  0  0  0  0  0  0
    9.7760  -15.4632   25.8842 C   0  0  0  0  0  0  0  0  0  0  0  0
   11.0366  -15.0240   26.2205 O   0  0  0  0  0  0  0  0  0  0  0  0
    9.2936  -16.3130   26.7286 O   0  0  0  0  0  0  0  0  0  0  0  0
  1  2  1  0
  2  3  2  0
  4  2  1  0
  4  5  1  0
  5  7  1  0
  5  6  1  1
  7  8  2  0
 10  9  1  0
 10 11  2  0
 12 11  1  0
 13 12  2  0
 14 13  1  0
 15 14  1  1
 16 15  1  0
 16  7  1  0
 17 18  2  0
 17 15  1  0
 19 20  2  0
 19 13  1  0
 20 10  1  0
 22 21  1  0
 22 23  1  0
 23 24  1  0
 25 24  1  1
 25 26  1  0
 25 27  1  0
 26 17  1  0
 27 28  1  0
 29 27  2  0
M  END
$$$$
