NYM.pdb
     RDKit          3D

 29 29  0  0  1  0  0  0  0  0999 V2000
    8.8312  -20.3505   17.0328 N   0  0  0  0  0  0  0  0  0  0  0  0
    9.8598  -19.6299   17.6751 C   0  0  0  0  0  0  0  0  0  0  0  0
   11.0173  -20.1231   17.6358 O   0  0  0  0  0  0  0  0  0  0  0  0
    9.5790  -18.3500   18.3620 C   0  0  0  0  0  0  0  0  0  0  0  0
    9.8628  -18.5152   19.8464 C   0  0  2  0  0  0  0  0  0  0  0  0
    9.0091  -19.4931   20.4524 N   0  0  0  0  0  0  0  0  0  0  0  0
    9.8453  -17.2151   20.5463 C   0  0  0  0  0  0  0  0  0  0  0  0
   10.6900  -16.3502   20.2021 O   0  0  0  0  0  0  0  0  0  0  0  0
    6.3786  -12.7504   27.4565 O   0  0  0  0  0  0  0  0  0  0  0  0
    6.6696  -13.3238   26.2186 C   0  0  0  0  0  0  0  0  0  0  0  0
    7.2021  -12.5770   25.1922 C   0  0  0  0  0  0  0  0  0  0  0  0
    7.5018  -13.1093   23.9580 C   0  0  0  0  0  0  0  0  0  0  0  0
    7.2706  -14.4613   23.6962 C   0  0  0  0  0  0  0  0  0  0  0  0
    7.5720  -15.0446   22.3860 C   0  0  0  0  0  0  0  0  0  0  0  0
    8.9796  -15.5178   22.1939 C   0  0  2  0  0  0  0  0  0  0  0  0
    8.9481  -16.8590   21.5822 N   0  0  0  0  0  0  0  0  0  0  0  0
    9.6821  -15.5732   23.5030 C   0  0  0  0  0  0  0  0  0  0  0  0
   10.0588  -14.4976   24.0324 O   0  0  0  0  0  0  0  0  0  0  0  0
    6.7378  -15.1983   24.7293 C   0  0  0  0  0  0  0  0  0  0  0  0
    6.4362  -14.6600   25.9733 C   0  0  0  0  0  0  0  0  0  0  0  0
   11.0532  -13.7357   30.0676 C   0  0  0  0  0  0  0  0  0  0  0  0
   10.7104  -13.8929   28.3413 S   0  0  0  0  0  0  0  0  0  0  0  0
   10.4524  -15.4549   27.6329 C   0  0  0  0  0  0  0  0  0  0  0  0
   10.2296  -15.7794   26.2596 C   0  0  0  0  0  0  0  0  0  0  0  0
   10.7802  -16.8181   25.4123 C   0  0  2  0  0  0  0  0  0  0  0  0
    9.9354  -16.7827   24.1615 N   0  0  0  0  0  0  0  0  0  0  0  0
   10.7416  -18.2189   25.7882 C   0  0  0  0  0  0  0  0  0  0  0  0
    9.7945  -19.1633   25.4625 O   0  0  0  0  0  0  0  0  0  0  0  0
   11.6922  -18.6883   26.5257 O   0  0  0  0  0  0  0  0  0  0  0  0
  1  2  1  0
  2  3  2  0
  4  2  1  0
  4  5  1  0
  5  7  1  0
  5  6  1  1
  7  8  2  0
 10  9  1  0
 10 11  2  0
 12 11  1  0
 13 12  2  0
 14 13  1  0
 15 14  1  1
 16 15  1  0
 16  7  1  0
 17 18  2  0
 17 15  1  0
 19 20  2  0
 19 13  1  0
 20 10  1  0
 22 21  1  0
 22 23  1  0
 23 24  1  0
 25 24  1  1
 25 26  1  0
 25 27  1  0
 26 17  1  0
 27 28  1  0
 29 27  2  0
M  END
$$$$
