NYM.pdb
     RDKit          3D

 29 29  0  0  1  0  0  0  0  0999 V2000
    7.9789  -19.4782   16.9637 N   0  0  0  0  0  0  0  0  0  0  0  0
    8.9363  -19.3908   17.9960 C   0  0  0  0  0  0  0  0  0  0  0  0
    9.6035  -20.4277   18.2496 O   0  0  0  0  0  0  0  0  0  0  0  0
    9.1394  -18.1293   18.7417 C   0  0  0  0  0  0  0  0  0  0  0  0
    9.6348  -18.4586   20.1408 C   0  0  2  0  0  0  0  0  0  0  0  0
    8.6694  -19.2039   20.8924 N   0  0  0  0  0  0  0  0  0  0  0  0
   10.1098  -17.2495   20.8428 C   0  0  0  0  0  0  0  0  0  0  0  0
   11.2252  -16.7755   20.5091 O   0  0  0  0  0  0  0  0  0  0  0  0
    6.5224  -12.9824   17.3504 O   0  0  0  0  0  0  0  0  0  0  0  0
    7.0512  -13.3187   18.5966 C   0  0  0  0  0  0  0  0  0  0  0  0
    8.1264  -12.6400   19.1238 C   0  0  0  0  0  0  0  0  0  0  0  0
    8.6742  -12.9443   20.3501 C   0  0  0  0  0  0  0  0  0  0  0  0
    8.1449  -13.9795   21.1235 C   0  0  0  0  0  0  0  0  0  0  0  0
    8.7202  -14.3266   22.4259 C   0  0  0  0  0  0  0  0  0  0  0  0
    9.8762  -15.2777   22.3927 C   0  0  2  0  0  0  0  0  0  0  0  0
    9.4069  -16.5740   21.8696 N   0  0  0  0  0  0  0  0  0  0  0  0
   10.4315  -15.4531   23.7606 C   0  0  0  0  0  0  0  0  0  0  0  0
   11.0119  -14.4813   24.3063 O   0  0  0  0  0  0  0  0  0  0  0  0
    7.0703  -14.6514   20.5866 C   0  0  0  0  0  0  0  0  0  0  0  0
    6.5191  -14.3431   19.3499 C   0  0  0  0  0  0  0  0  0  0  0  0
   10.5910  -13.7555   29.6772 C   0  0  0  0  0  0  0  0  0  0  0  0
    9.1635  -14.4521   28.9031 S   0  0  0  0  0  0  0  0  0  0  0  0
    9.3315  -15.6498   27.6600 C   0  0  0  0  0  0  0  0  0  0  0  0
   10.2747  -15.6881   26.5877 C   0  0  0  0  0  0  0  0  0  0  0  0
   10.8653  -16.7944   25.8616 C   0  0  2  0  0  0  0  0  0  0  0  0
   10.3276  -16.6636   24.4569 N   0  0  0  0  0  0  0  0  0  0  0  0
   10.5715  -18.1763   26.1922 C   0  0  0  0  0  0  0  0  0  0  0  0
   11.0783  -18.9321   27.2251 O   0  0  0  0  0  0  0  0  0  0  0  0
    9.7371  -18.8261   25.4510 O   0  0  0  0  0  0  0  0  0  0  0  0
  1  2  1  0
  2  3  2  0
  4  2  1  0
  4  5  1  0
  5  7  1  0
  5  6  1  1
  7  8  2  0
 10  9  1  0
 10 11  2  0
 12 11  1  0
 13 12  2  0
 14 13  1  0
 15 14  1  1
 16 15  1  0
 16  7  1  0
 17 18  2  0
 17 15  1  0
 19 20  2  0
 19 13  1  0
 20 10  1  0
 22 21  1  0
 22 23  1  0
 23 24  1  0
 25 24  1  1
 25 26  1  0
 25 27  1  0
 26 17  1  0
 27 28  1  0
 29 27  2  0
M  END
$$$$
