NYM.pdb
     RDKit          3D

 29 29  0  0  1  0  0  0  0  0999 V2000
   13.1730  -19.0445   17.5783 N   0  0  0  0  0  0  0  0  0  0  0  0
   12.4732  -19.2829   18.7797 C   0  0  0  0  0  0  0  0  0  0  0  0
   11.9838  -20.4314   18.9410 O   0  0  0  0  0  0  0  0  0  0  0  0
   12.3274  -18.2214   19.7999 C   0  0  0  0  0  0  0  0  0  0  0  0
   10.8495  -18.0216   20.0950 C   0  0  2  0  0  0  0  0  0  0  0  0
   10.1062  -17.6829   18.9180 N   0  0  0  0  0  0  0  0  0  0  0  0
   10.6455  -17.0693   21.2048 C   0  0  0  0  0  0  0  0  0  0  0  0
   11.4910  -16.1514   21.3554 O   0  0  0  0  0  0  0  0  0  0  0  0
    7.4290  -12.7390   18.0284 O   0  0  0  0  0  0  0  0  0  0  0  0
    7.5930  -13.3954   19.2483 C   0  0  0  0  0  0  0  0  0  0  0  0
    8.2625  -12.8025   20.2947 C   0  0  0  0  0  0  0  0  0  0  0  0
    8.4432  -13.4201   21.5122 C   0  0  0  0  0  0  0  0  0  0  0  0
    7.9405  -14.7037   21.7353 C   0  0  0  0  0  0  0  0  0  0  0  0
    8.1318  -15.3828   23.0198 C   0  0  0  0  0  0  0  0  0  0  0  0
    9.4374  -16.0961   23.1894 C   0  0  2  0  0  0  0  0  0  0  0  0
    9.5671  -17.1048   22.1217 N   0  0  0  0  0  0  0  0  0  0  0  0
    9.4885  -16.7564   24.5205 C   0  0  0  0  0  0  0  0  0  0  0  0
    8.4445  -17.2926   24.9694 O   0  0  0  0  0  0  0  0  0  0  0  0
    7.2732  -15.2869   20.6822 C   0  0  0  0  0  0  0  0  0  0  0  0
    7.0919  -14.6626   19.4551 C   0  0  0  0  0  0  0  0  0  0  0  0
    9.3923  -12.1025   29.4956 C   0  0  0  0  0  0  0  0  0  0  0  0
   10.3352  -13.3595   28.6874 S   0  0  0  0  0  0  0  0  0  0  0  0
    9.7495  -14.1029   27.2340 C   0  0  0  0  0  0  0  0  0  0  0  0
    9.6273  -15.4951   26.9377 C   0  0  0  0  0  0  0  0  0  0  0  0
   10.6208  -16.5370   26.7724 C   0  0  2  0  0  0  0  0  0  0  0  0
   10.6602  -16.7990   25.2860 N   0  0  0  0  0  0  0  0  0  0  0  0
   10.4433  -17.8649   27.3295 C   0  0  0  0  0  0  0  0  0  0  0  0
   10.8895  -18.3489   28.5385 O   0  0  0  0  0  0  0  0  0  0  0  0
    9.7943  -18.7435   26.6406 O   0  0  0  0  0  0  0  0  0  0  0  0
  1  2  1  0
  2  3  2  0
  4  2  1  0
  4  5  1  0
  5  7  1  0
  5  6  1  6
  7  8  2  0
 10  9  1  0
 10 11  2  0
 12 11  1  0
 13 12  2  0
 14 13  1  0
 15 14  1  6
 16 15  1  0
 16  7  1  0
 17 18  2  0
 17 15  1  0
 19 20  2  0
 19 13  1  0
 20 10  1  0
 22 21  1  0
 22 23  1  0
 23 24  1  0
 25 24  1  6
 25 26  1  0
 25 27  1  0
 26 17  1  0
 27 28  1  0
 29 27  2  0
M  END
$$$$
