NYM.pdb
     RDKit          3D

 29 29  0  0  1  0  0  0  0  0999 V2000
   13.3417  -17.1100   18.1029 N   0  0  0  0  0  0  0  0  0  0  0  0
   12.1074  -17.6785   18.4816 C   0  0  0  0  0  0  0  0  0  0  0  0
   11.8822  -18.8605   18.1120 O   0  0  0  0  0  0  0  0  0  0  0  0
   11.1274  -16.9093   19.2794 C   0  0  0  0  0  0  0  0  0  0  0  0
   10.9654  -17.5759   20.6362 C   0  0  2  0  0  0  0  0  0  0  0  0
   10.0320  -18.6620   20.5947 N   0  0  0  0  0  0  0  0  0  0  0  0
   10.6595  -16.5871   21.6893 C   0  0  0  0  0  0  0  0  0  0  0  0
   11.5524  -15.7562   21.9935 O   0  0  0  0  0  0  0  0  0  0  0  0
    7.3798  -13.3493   17.4490 O   0  0  0  0  0  0  0  0  0  0  0  0
    7.4943  -13.6984   18.7947 C   0  0  0  0  0  0  0  0  0  0  0  0
    8.0580  -12.8394   19.7107 C   0  0  0  0  0  0  0  0  0  0  0  0
    8.1872  -13.1504   21.0460 C   0  0  0  0  0  0  0  0  0  0  0  0
    7.7392  -14.3804   21.5320 C   0  0  0  0  0  0  0  0  0  0  0  0
    7.8776  -14.7351   22.9471 C   0  0  0  0  0  0  0  0  0  0  0  0
    9.1686  -15.3903   23.3294 C   0  0  2  0  0  0  0  0  0  0  0  0
    9.4331  -16.4966   22.3912 N   0  0  0  0  0  0  0  0  0  0  0  0
    9.0837  -15.9121   24.7189 C   0  0  0  0  0  0  0  0  0  0  0  0
    8.1820  -15.4722   25.4754 O   0  0  0  0  0  0  0  0  0  0  0  0
    7.1776  -15.2314   20.6075 C   0  0  0  0  0  0  0  0  0  0  0  0
    7.0480  -14.9163   19.2612 C   0  0  0  0  0  0  0  0  0  0  0  0
    9.7922  -11.9978   27.8775 C   0  0  0  0  0  0  0  0  0  0  0  0
   10.3689  -13.3231   28.8939 S   0  0  0  0  0  0  0  0  0  0  0  0
   10.0770  -14.9718   28.4415 C   0  0  0  0  0  0  0  0  0  0  0  0
   10.0116  -15.5325   27.1292 C   0  0  0  0  0  0  0  0  0  0  0  0
   10.6604  -16.6865   26.5398 C   0  0  2  0  0  0  0  0  0  0  0  0
    9.9744  -16.8755   25.2082 N   0  0  0  0  0  0  0  0  0  0  0  0
   10.5748  -18.0060   27.1370 C   0  0  0  0  0  0  0  0  0  0  0  0
   10.3079  -19.2063   26.5181 O   0  0  0  0  0  0  0  0  0  0  0  0
   10.7610  -18.1227   28.4096 O   0  0  0  0  0  0  0  0  0  0  0  0
  1  2  1  0
  2  3  2  0
  4  2  1  0
  4  5  1  0
  5  7  1  0
  5  6  1  6
  7  8  2  0
 10  9  1  0
 10 11  2  0
 12 11  1  0
 13 12  2  0
 14 13  1  0
 15 14  1  6
 16 15  1  0
 16  7  1  0
 17 18  2  0
 17 15  1  0
 19 20  2  0
 19 13  1  0
 20 10  1  0
 22 21  1  0
 22 23  1  0
 23 24  1  0
 25 24  1  1
 25 26  1  0
 25 27  1  0
 26 17  1  0
 27 28  1  0
 29 27  2  0
M  END
$$$$
