NYM.pdb
     RDKit          3D

 29 29  0  0  1  0  0  0  0  0999 V2000
    5.7626  -20.3211   27.5011 N   0  0  0  0  0  0  0  0  0  0  0  0
    7.1681  -20.3953   27.5961 C   0  0  0  0  0  0  0  0  0  0  0  0
    7.6642  -20.4349   28.7523 O   0  0  0  0  0  0  0  0  0  0  0  0
    8.0130  -20.4251   26.3821 C   0  0  0  0  0  0  0  0  0  0  0  0
    7.1180  -20.3315   25.1567 C   0  0  2  0  0  0  0  0  0  0  0  0
    6.8889  -21.6126   24.5580 N   0  0  0  0  0  0  0  0  0  0  0  0
    7.6180  -19.3242   24.1998 C   0  0  0  0  0  0  0  0  0  0  0  0
    8.6414  -19.6084   23.5275 O   0  0  0  0  0  0  0  0  0  0  0  0
    8.4462  -12.0000   19.1188 O   0  0  0  0  0  0  0  0  0  0  0  0
    8.0027  -12.9940   19.9911 C   0  0  0  0  0  0  0  0  0  0  0  0
    7.8722  -12.7550   21.3404 C   0  0  0  0  0  0  0  0  0  0  0  0
    7.4376  -13.7117   22.2304 C   0  0  0  0  0  0  0  0  0  0  0  0
    7.1046  -14.9925   21.7848 C   0  0  0  0  0  0  0  0  0  0  0  0
    6.6510  -16.0281   22.7172 C   0  0  0  0  0  0  0  0  0  0  0  0
    7.6636  -17.0731   23.0703 C   0  0  2  0  0  0  0  0  0  0  0  0
    7.0354  -18.0534   23.9751 N   0  0  0  0  0  0  0  0  0  0  0  0
    8.8342  -16.4442   23.7370 C   0  0  0  0  0  0  0  0  0  0  0  0
    9.6898  -15.8572   23.0281 O   0  0  0  0  0  0  0  0  0  0  0  0
    7.2390  -15.2205   20.4341 C   0  0  0  0  0  0  0  0  0  0  0  0
    7.6774  -14.2545   19.5379 C   0  0  0  0  0  0  0  0  0  0  0  0
    7.6839  -11.4331   27.1284 C   0  0  0  0  0  0  0  0  0  0  0  0
    8.8896  -12.3022   28.0840 S   0  0  0  0  0  0  0  0  0  0  0  0
    9.8133  -13.5889   27.3775 C   0  0  0  0  0  0  0  0  0  0  0  0
    9.3764  -14.5943   26.4615 C   0  0  0  0  0  0  0  0  0  0  0  0
   10.0887  -15.6632   25.7905 C   0  0  2  0  0  0  0  0  0  0  0  0
    9.0114  -16.4855   25.1254 N   0  0  0  0  0  0  0  0  0  0  0  0
   10.8493  -16.6589   26.5222 C   0  0  0  0  0  0  0  0  0  0  0  0
   12.1523  -16.5844   26.9598 O   0  0  0  0  0  0  0  0  0  0  0  0
   10.2773  -17.7772   26.8222 O   0  0  0  0  0  0  0  0  0  0  0  0
  1  2  1  0
  2  3  2  0
  4  2  1  0
  4  5  1  0
  5  7  1  0
  5  6  1  6
  7  8  2  0
 10  9  1  0
 10 11  2  0
 12 11  1  0
 13 12  2  0
 14 13  1  0
 15 14  1  1
 16 15  1  0
 16  7  1  0
 17 18  2  0
 17 15  1  0
 19 20  2  0
 19 13  1  0
 20 10  1  0
 22 21  1  0
 22 23  1  0
 23 24  1  0
 25 24  1  1
 25 26  1  0
 25 27  1  0
 26 17  1  0
 27 28  1  0
 29 27  2  0
M  END
$$$$
