NYM.pdb
     RDKit          3D

 29 29  0  0  1  0  0  0  0  0999 V2000
    7.1004  -20.7501   20.5324 N   0  0  0  0  0  0  0  0  0  0  0  0
    8.0377  -20.7842   21.5860 C   0  0  0  0  0  0  0  0  0  0  0  0
    8.0871  -21.8354   22.2768 O   0  0  0  0  0  0  0  0  0  0  0  0
    8.9202  -19.6284   21.8582 C   0  0  0  0  0  0  0  0  0  0  0  0
    8.6084  -18.5250   20.8600 C   0  0  2  0  0  0  0  0  0  0  0  0
    8.9058  -18.9162   19.5143 N   0  0  0  0  0  0  0  0  0  0  0  0
    9.2455  -17.2508   21.2487 C   0  0  0  0  0  0  0  0  0  0  0  0
   10.4845  -17.1343   21.0712 O   0  0  0  0  0  0  0  0  0  0  0  0
    7.1827  -13.0984   16.4603 O   0  0  0  0  0  0  0  0  0  0  0  0
    7.4979  -13.2538   17.8103 C   0  0  0  0  0  0  0  0  0  0  0  0
    8.7717  -13.0227   18.2782 C   0  0  0  0  0  0  0  0  0  0  0  0
    9.1187  -13.1660   19.6031 C   0  0  0  0  0  0  0  0  0  0  0  0
    8.1660  -13.5609   20.5447 C   0  0  0  0  0  0  0  0  0  0  0  0
    8.5176  -13.7300   21.9573 C   0  0  0  0  0  0  0  0  0  0  0  0
    9.3102  -14.9568   22.2872 C   0  0  2  0  0  0  0  0  0  0  0  0
    8.5706  -16.1398   21.8100 N   0  0  0  0  0  0  0  0  0  0  0  0
    9.5209  -15.0481   23.7560 C   0  0  0  0  0  0  0  0  0  0  0  0
    8.9443  -14.2172   24.5018 O   0  0  0  0  0  0  0  0  0  0  0  0
    6.8961  -13.7894   20.0658 C   0  0  0  0  0  0  0  0  0  0  0  0
    6.5478  -13.6444   18.7293 C   0  0  0  0  0  0  0  0  0  0  0  0
   10.2186  -14.3095   29.9079 C   0  0  0  0  0  0  0  0  0  0  0  0
    9.1070  -14.2735   28.5349 S   0  0  0  0  0  0  0  0  0  0  0  0
    8.7363  -15.7262   27.6629 C   0  0  0  0  0  0  0  0  0  0  0  0
    9.2592  -16.1645   26.4078 C   0  0  0  0  0  0  0  0  0  0  0  0
   10.5799  -16.0544   25.8216 C   0  0  2  0  0  0  0  0  0  0  0  0
   10.3388  -16.0282   24.3315 N   0  0  0  0  0  0  0  0  0  0  0  0
   11.5767  -17.0985   25.9689 C   0  0  0  0  0  0  0  0  0  0  0  0
   12.5104  -17.2509   26.9689 O   0  0  0  0  0  0  0  0  0  0  0  0
   11.6399  -18.0250   25.0714 O   0  0  0  0  0  0  0  0  0  0  0  0
  1  2  1  0
  2  3  2  0
  4  2  1  0
  4  5  1  0
  5  7  1  0
  5  6  1  6
  7  8  2  0
 10  9  1  0
 10 11  2  0
 12 11  1  0
 13 12  2  0
 14 13  1  0
 15 14  1  1
 16 15  1  0
 16  7  1  0
 17 18  2  0
 17 15  1  0
 19 20  2  0
 19 13  1  0
 20 10  1  0
 22 21  1  0
 22 23  1  0
 23 24  1  0
 25 24  1  1
 25 26  1  0
 25 27  1  0
 26 17  1  0
 27 28  1  0
 29 27  2  0
M  END
$$$$
