NYM.pdb
     RDKit          3D

 29 29  0  0  1  0  0  0  0  0999 V2000
    4.9917  -20.5391   18.7319 N   0  0  0  0  0  0  0  0  0  0  0  0
    3.9225  -20.6546   19.6448 C   0  0  0  0  0  0  0  0  0  0  0  0
    2.9213  -21.3220   19.2751 O   0  0  0  0  0  0  0  0  0  0  0  0
    3.9862  -20.0151   20.9774 C   0  0  0  0  0  0  0  0  0  0  0  0
    5.3325  -19.3253   21.1286 C   0  0  2  0  0  0  0  0  0  0  0  0
    6.3985  -20.0937   20.5581 N   0  0  0  0  0  0  0  0  0  0  0  0
    5.5835  -18.9349   22.5305 C   0  0  0  0  0  0  0  0  0  0  0  0
    4.7258  -18.2168   23.1038 O   0  0  0  0  0  0  0  0  0  0  0  0
    9.1083  -18.3236   30.7428 O   0  0  0  0  0  0  0  0  0  0  0  0
    8.7965  -18.6734   29.4289 C   0  0  0  0  0  0  0  0  0  0  0  0
    9.7182  -18.5390   28.4154 C   0  0  0  0  0  0  0  0  0  0  0  0
    9.4455  -18.8742   27.1079 C   0  0  0  0  0  0  0  0  0  0  0  0
    8.1915  -19.3758   26.7534 C   0  0  0  0  0  0  0  0  0  0  0  0
    7.8776  -19.7278   25.3659 C   0  0  0  0  0  0  0  0  0  0  0  0
    6.9098  -18.8224   24.6690 C   0  0  2  0  0  0  0  0  0  0  0  0
    6.7203  -19.3056   23.2888 N   0  0  0  0  0  0  0  0  0  0  0  0
    7.4342  -17.4313   24.6524 C   0  0  0  0  0  0  0  0  0  0  0  0
    7.5485  -16.8158   25.7420 O   0  0  0  0  0  0  0  0  0  0  0  0
    7.2778  -19.5058   27.7745 C   0  0  0  0  0  0  0  0  0  0  0  0
    7.5544  -19.1674   29.0926 C   0  0  0  0  0  0  0  0  0  0  0  0
    7.2401  -12.1884   28.0030 C   0  0  0  0  0  0  0  0  0  0  0  0
    6.8342  -12.7193   26.3673 S   0  0  0  0  0  0  0  0  0  0  0  0
    7.6315  -14.0887   25.6622 C   0  0  0  0  0  0  0  0  0  0  0  0
    7.4387  -14.6557   24.3652 C   0  0  0  0  0  0  0  0  0  0  0  0
    8.3358  -15.3762   23.4843 C   0  0  2  0  0  0  0  0  0  0  0  0
    7.8035  -16.7888   23.4643 N   0  0  0  0  0  0  0  0  0  0  0  0
    9.7390  -15.5647   23.8017 C   0  0  0  0  0  0  0  0  0  0  0  0
   10.7884  -14.7039   23.5713 O   0  0  0  0  0  0  0  0  0  0  0  0
   10.1026  -16.6658   24.3701 O   0  0  0  0  0  0  0  0  0  0  0  0
  1  2  1  0
  2  3  2  0
  4  2  1  0
  4  5  1  0
  5  7  1  0
  5  6  1  1
  7  8  2  0
 10  9  1  0
 10 11  2  0
 12 11  1  0
 13 12  2  0
 14 13  1  0
 15 14  1  6
 16 15  1  0
 16  7  1  0
 17 18  2  0
 17 15  1  0
 19 20  2  0
 19 13  1  0
 20 10  1  0
 22 21  1  0
 22 23  1  0
 23 24  1  0
 25 24  1  1
 25 26  1  0
 25 27  1  0
 26 17  1  0
 27 28  1  0
 29 27  2  0
M  END
$$$$
