PNQ.pdb
     RDKit          3D

 25 25  0  0  1  0  0  0  0  0999 V2000
   23.9223  -14.9119  -19.9294 N   0  0  0  0  0  0  0  0  0  0  0  0
   22.7397  -15.7061  -20.2145 C   0  0  0  0  0  0  0  0  0  0  0  0
   21.7024  -14.9035  -19.4179 C   0  0  0  0  0  0  0  0  0  0  0  0
   22.0135  -13.5055  -19.9657 C   0  0  0  0  0  0  0  0  0  0  0  0
   23.5280  -13.5232  -19.9753 C   0  0  1  0  0  0  0  0  0  0  0  0
   23.9834  -12.7781  -18.7733 C   0  0  0  0  0  0  0  0  0  0  0  0
   24.0803  -13.3658  -17.6478 O   0  0  0  0  0  0  0  0  0  0  0  0
   27.4117  -10.2532  -15.5755 N   0  0  0  0  0  0  0  0  0  0  0  0
   26.7461   -9.5565  -16.6190 C   0  0  0  0  0  0  0  0  0  0  0  0
   26.5890   -8.3184  -16.4878 O   0  0  0  0  0  0  0  0  0  0  0  0
   26.2767  -10.3244  -17.7976 C   0  0  0  0  0  0  0  0  0  0  0  0
   24.7988  -10.6771  -17.6493 C   0  0  2  0  0  0  0  0  0  0  0  0
   24.3284  -11.4079  -18.8073 N   0  0  0  0  0  0  0  0  0  0  0  0
   23.9784   -9.4638  -17.4477 C   0  0  0  0  0  0  0  0  0  0  0  0
   23.6150   -8.8255  -18.4636 O   0  0  0  0  0  0  0  0  0  0  0  0
   18.9600   -9.8220  -18.0087 N   0  0  0  0  0  0  0  0  0  0  0  0
   18.8537   -8.5243  -17.4371 C   0  0  0  0  0  0  0  0  0  0  0  0
   17.7615   -7.9319  -17.5556 O   0  0  0  0  0  0  0  0  0  0  0  0
   20.0228   -7.9744  -16.7547 C   0  0  0  0  0  0  0  0  0  0  0  0
   21.2519   -8.8026  -16.7906 C   0  0  0  0  0  0  0  0  0  0  0  0
   22.3856   -8.1750  -16.0819 C   0  0  2  0  0  0  0  0  0  0  0  0
   23.5997   -9.0139  -16.1586 N   0  0  0  0  0  0  0  0  0  0  0  0
   22.1349   -7.7503  -14.7062 C   0  0  0  0  0  0  0  0  0  0  0  0
   21.1748   -6.9475  -14.4297 O   0  0  0  0  0  0  0  0  0  0  0  0
   22.8671   -8.1487  -13.6036 O   0  0  0  0  0  0  0  0  0  0  0  0
  2  1  1  0
  3  2  1  0
  4  3  1  0
  4  5  1  0
  5  6  1  1
  5  1  1  0
  6  7  2  0
  9  8  1  0
 10  9  2  0
 11  9  1  0
 12 11  1  6
 13 12  1  0
 13  6  1  0
 14 12  1  0
 14 15  2  0
 16 17  1  0
 17 19  1  0
 18 17  2  0
 19 20  1  0
 21 20  1  1
 21 22  1  0
 21 23  1  0
 22 14  1  0
 23 24  2  0
 23 25  1  0
M  END
$$$$
