PNQ.pdb
     RDKit          3D

 25 25  0  0  1  0  0  0  0  0999 V2000
   19.7353  -12.3667  -16.1642 N   0  0  0  0  0  0  0  0  0  0  0  0
   18.5365  -13.0037  -16.6816 C   0  0  0  0  0  0  0  0  0  0  0  0
   18.6358  -12.5671  -18.1493 C   0  0  0  0  0  0  0  0  0  0  0  0
   20.0832  -12.9918  -18.4250 C   0  0  0  0  0  0  0  0  0  0  0  0
   20.7717  -12.5324  -17.1564 C   0  0  1  0  0  0  0  0  0  0  0  0
   21.4519  -11.2484  -17.4665 C   0  0  0  0  0  0  0  0  0  0  0  0
   22.4328  -11.2171  -18.2780 O   0  0  0  0  0  0  0  0  0  0  0  0
   22.7749   -6.8553  -20.2755 N   0  0  0  0  0  0  0  0  0  0  0  0
   22.6455   -7.3006  -18.9331 C   0  0  0  0  0  0  0  0  0  0  0  0
   23.2175   -6.6324  -18.0379 O   0  0  0  0  0  0  0  0  0  0  0  0
   21.8476   -8.5213  -18.6646 C   0  0  0  0  0  0  0  0  0  0  0  0
   21.7360   -8.7647  -17.1616 C   0  0  2  0  0  0  0  0  0  0  0  0
   21.0597  -10.0168  -16.8948 N   0  0  0  0  0  0  0  0  0  0  0  0
   21.0276   -7.6530  -16.4923 C   0  0  0  0  0  0  0  0  0  0  0  0
   19.8348   -7.4391  -16.8136 O   0  0  0  0  0  0  0  0  0  0  0  0
   17.8145   -8.1193  -12.6710 N   0  0  0  0  0  0  0  0  0  0  0  0
   19.1425   -8.1109  -12.1627 C   0  0  0  0  0  0  0  0  0  0  0  0
   19.3535   -8.7241  -11.0962 O   0  0  0  0  0  0  0  0  0  0  0  0
   20.1643   -7.3889  -12.9173 C   0  0  0  0  0  0  0  0  0  0  0  0
   19.6878   -6.6093  -14.0848 C   0  0  0  0  0  0  0  0  0  0  0  0
   20.7788   -5.8988  -14.7822 C   0  0  2  0  0  0  0  0  0  0  0  0
   21.6520   -6.8392  -15.5150 N   0  0  0  0  0  0  0  0  0  0  0  0
   21.5732   -4.9770  -13.9728 C   0  0  0  0  0  0  0  0  0  0  0  0
   21.0106   -4.0588  -13.2779 O   0  0  0  0  0  0  0  0  0  0  0  0
   22.9515   -4.9926  -13.8696 O   0  0  0  0  0  0  0  0  0  0  0  0
  2  1  1  0
  3  2  1  0
  4  3  1  0
  4  5  1  0
  5  6  1  6
  5  1  1  0
  6  7  2  0
  9  8  1  0
 10  9  2  0
 11  9  1  0
 12 11  1  6
 13 12  1  0
 13  6  1  0
 14 12  1  0
 14 15  2  0
 16 17  1  0
 17 19  1  0
 18 17  2  0
 19 20  1  0
 21 20  1  1
 21 22  1  0
 21 23  1  0
 22 14  1  0
 23 24  2  0
 23 25  1  0
M  END
$$$$
