PNQ.pdb
     RDKit          3D

 25 25  0  0  1  0  0  0  0  0999 V2000
   20.5480  -12.5764  -15.9966 N   0  0  0  0  0  0  0  0  0  0  0  0
   20.4698  -13.9824  -16.3540 C   0  0  0  0  0  0  0  0  0  0  0  0
   19.3926  -13.9030  -17.4439 C   0  0  0  0  0  0  0  0  0  0  0  0
   19.9988  -12.7802  -18.2944 C   0  0  0  0  0  0  0  0  0  0  0  0
   20.4635  -11.8167  -17.2220 C   0  0  1  0  0  0  0  0  0  0  0  0
   19.4489  -10.7350  -17.1343 C   0  0  0  0  0  0  0  0  0  0  0  0
   19.2769   -9.9308  -18.1066 O   0  0  0  0  0  0  0  0  0  0  0  0
   14.2639  -11.1934  -16.0334 N   0  0  0  0  0  0  0  0  0  0  0  0
   15.4442  -10.4883  -16.3896 C   0  0  0  0  0  0  0  0  0  0  0  0
   15.6652  -10.2973  -17.6100 O   0  0  0  0  0  0  0  0  0  0  0  0
   16.3440  -10.0196  -15.3080 C   0  0  0  0  0  0  0  0  0  0  0  0
   17.6482   -9.4849  -15.8945 C   0  0  2  0  0  0  0  0  0  0  0  0
   18.6343  -10.5402  -15.9959 N   0  0  0  0  0  0  0  0  0  0  0  0
   18.1804   -8.3696  -15.0828 C   0  0  0  0  0  0  0  0  0  0  0  0
   18.4660   -8.6003  -13.8842 O   0  0  0  0  0  0  0  0  0  0  0  0
   23.1380   -5.4213  -15.2801 N   0  0  0  0  0  0  0  0  0  0  0  0
   22.4592   -4.6289  -14.3139 C   0  0  0  0  0  0  0  0  0  0  0  0
   23.1251   -3.7621  -13.7113 O   0  0  0  0  0  0  0  0  0  0  0  0
   21.0374   -4.8816  -14.0918 C   0  0  0  0  0  0  0  0  0  0  0  0
   20.4221   -5.9405  -14.9273 C   0  0  0  0  0  0  0  0  0  0  0  0
   18.9663   -6.0658  -14.7116 C   0  0  2  0  0  0  0  0  0  0  0  0
   18.3722   -7.0714  -15.6169 N   0  0  0  0  0  0  0  0  0  0  0  0
   18.1975   -4.8232  -14.7412 C   0  0  0  0  0  0  0  0  0  0  0  0
   17.6643   -4.4048  -15.8290 O   0  0  0  0  0  0  0  0  0  0  0  0
   17.9688   -4.0020  -13.6532 O   0  0  0  0  0  0  0  0  0  0  0  0
  2  1  1  0
  3  2  1  0
  4  3  1  0
  4  5  1  0
  5  6  1  1
  5  1  1  0
  6  7  2  0
  9  8  1  0
 10  9  2  0
 11  9  1  0
 12 11  1  1
 13 12  1  0
 13  6  1  0
 14 12  1  0
 14 15  2  0
 16 17  1  0
 17 19  1  0
 18 17  2  0
 19 20  1  0
 21 20  1  6
 21 22  1  0
 21 23  1  0
 22 14  1  0
 23 24  2  0
 23 25  1  0
M  END
$$$$
