PNQ.pdb
     RDKit          3D

 25 25  0  0  1  0  0  0  0  0999 V2000
   17.2281  -14.2596  -16.4700 N   0  0  0  0  0  0  0  0  0  0  0  0
   16.7849  -15.4530  -17.1699 C   0  0  0  0  0  0  0  0  0  0  0  0
   17.9662  -15.6303  -18.1331 C   0  0  0  0  0  0  0  0  0  0  0  0
   19.1133  -15.5433  -17.1192 C   0  0  0  0  0  0  0  0  0  0  0  0
   18.6485  -14.3957  -16.2466 C   0  0  1  0  0  0  0  0  0  0  0  0
   19.3955  -13.1860  -16.6778 C   0  0  0  0  0  0  0  0  0  0  0  0
   20.6627  -13.1347  -16.5633 O   0  0  0  0  0  0  0  0  0  0  0  0
   20.4745   -9.9894  -21.1131 N   0  0  0  0  0  0  0  0  0  0  0  0
   20.2479  -10.8165  -19.9810 C   0  0  0  0  0  0  0  0  0  0  0  0
   21.0159  -11.7938  -19.8080 O   0  0  0  0  0  0  0  0  0  0  0  0
   19.1249  -10.4825  -19.0720 C   0  0  0  0  0  0  0  0  0  0  0  0
   19.4741  -10.8574  -17.6339 C   0  0  2  0  0  0  0  0  0  0  0  0
   18.7600  -12.0497  -17.2281 N   0  0  0  0  0  0  0  0  0  0  0  0
   19.1751   -9.7464  -16.7054 C   0  0  0  0  0  0  0  0  0  0  0  0
   17.9764   -9.5435  -16.3997 O   0  0  0  0  0  0  0  0  0  0  0  0
   17.6393   -9.7789  -11.8803 N   0  0  0  0  0  0  0  0  0  0  0  0
   17.9779   -8.4015  -11.7778 C   0  0  0  0  0  0  0  0  0  0  0  0
   17.6044   -7.7926  -10.7543 O   0  0  0  0  0  0  0  0  0  0  0  0
   18.7345   -7.7950  -12.8708 C   0  0  0  0  0  0  0  0  0  0  0  0
   19.1120   -8.6968  -13.9853 C   0  0  0  0  0  0  0  0  0  0  0  0
   19.7827   -7.9870  -15.0934 C   0  0  2  0  0  0  0  0  0  0  0  0
   20.1912   -8.9216  -16.1628 N   0  0  0  0  0  0  0  0  0  0  0  0
   20.8892   -7.1067  -14.7236 C   0  0  0  0  0  0  0  0  0  0  0  0
   22.0876   -7.3626  -15.0990 O   0  0  0  0  0  0  0  0  0  0  0  0
   20.7727   -5.9557  -13.9672 O   0  0  0  0  0  0  0  0  0  0  0  0
  2  1  1  0
  3  2  1  0
  4  3  1  0
  4  5  1  0
  5  6  1  6
  5  1  1  0
  6  7  2  0
  9  8  1  0
 10  9  2  0
 11  9  1  0
 12 11  1  6
 13 12  1  0
 13  6  1  0
 14 12  1  0
 14 15  2  0
 16 17  1  0
 17 19  1  0
 18 17  2  0
 19 20  1  0
 21 20  1  1
 21 22  1  0
 21 23  1  0
 22 14  1  0
 23 24  2  0
 23 25  1  0
M  END
$$$$
