PNQ.pdb
     RDKit          3D

 25 25  0  0  1  0  0  0  0  0999 V2000
   26.2891  -19.6897  -15.8825 N   0  0  0  0  0  0  0  0  0  0  0  0
   27.5045  -18.9122  -15.7132 C   0  0  0  0  0  0  0  0  0  0  0  0
   27.7371  -19.1368  -14.2132 C   0  0  0  0  0  0  0  0  0  0  0  0
   27.6232  -20.6656  -14.1823 C   0  0  0  0  0  0  0  0  0  0  0  0
   26.4344  -20.8907  -15.0936 C   0  0  1  0  0  0  0  0  0  0  0  0
   25.2535  -21.1284  -14.2239 C   0  0  0  0  0  0  0  0  0  0  0  0
   25.2702  -22.0565  -13.3521 O   0  0  0  0  0  0  0  0  0  0  0  0
   21.0902  -20.9387  -11.4979 N   0  0  0  0  0  0  0  0  0  0  0  0
   21.7520  -19.6831  -11.4460 C   0  0  0  0  0  0  0  0  0  0  0  0
   21.3918  -18.8686  -10.5618 O   0  0  0  0  0  0  0  0  0  0  0  0
   22.8244  -19.4053  -12.4318 C   0  0  0  0  0  0  0  0  0  0  0  0
   22.9323  -20.5486  -13.4377 C   0  0  2  0  0  0  0  0  0  0  0  0
   24.0722  -20.3572  -14.3096 N   0  0  0  0  0  0  0  0  0  0  0  0
   21.6960  -20.6727  -14.2390 C   0  0  0  0  0  0  0  0  0  0  0  0
   21.4530  -19.7801  -15.0852 O   0  0  0  0  0  0  0  0  0  0  0  0
   18.3406  -25.8442  -15.4243 N   0  0  0  0  0  0  0  0  0  0  0  0
   19.4300  -25.4005  -16.2235 C   0  0  0  0  0  0  0  0  0  0  0  0
   19.9099  -26.2114  -17.0420 O   0  0  0  0  0  0  0  0  0  0  0  0
   19.9122  -24.0345  -16.0334 C   0  0  0  0  0  0  0  0  0  0  0  0
   19.1129  -23.1783  -15.1245 C   0  0  0  0  0  0  0  0  0  0  0  0
   19.6510  -21.8077  -15.0092 C   0  0  2  0  0  0  0  0  0  0  0  0
   20.7966  -21.7553  -14.0771 N   0  0  0  0  0  0  0  0  0  0  0  0
   18.6842  -20.7556  -14.7020 C   0  0  0  0  0  0  0  0  0  0  0  0
   18.5847  -20.2789  -13.5164 O   0  0  0  0  0  0  0  0  0  0  0  0
   17.8137  -20.1838  -15.6106 O   0  0  0  0  0  0  0  0  0  0  0  0
  2  1  1  0
  3  2  1  0
  4  3  1  0
  4  5  1  0
  5  6  1  1
  5  1  1  0
  6  7  2  0
  9  8  1  0
 10  9  2  0
 11  9  1  0
 12 11  1  1
 13 12  1  0
 13  6  1  0
 14 12  1  0
 14 15  2  0
 16 17  1  0
 17 19  1  0
 18 17  2  0
 19 20  1  0
 21 20  1  1
 21 22  1  0
 21 23  1  0
 22 14  1  0
 23 24  2  0
 23 25  1  0
M  END
$$$$
