PNQ.pdb
     RDKit          3D

 25 25  0  0  1  0  0  0  0  0999 V2000
   27.6566  -19.6937  -17.5550 N   0  0  0  0  0  0  0  0  0  0  0  0
   28.4136  -19.7198  -18.7947 C   0  0  0  0  0  0  0  0  0  0  0  0
   27.8911  -18.4259  -19.4331 C   0  0  0  0  0  0  0  0  0  0  0  0
   28.1119  -17.4734  -18.2519 C   0  0  0  0  0  0  0  0  0  0  0  0
   27.6357  -18.3253  -17.0936 C   0  0  1  0  0  0  0  0  0  0  0  0
   26.2607  -17.8761  -16.7545 C   0  0  0  0  0  0  0  0  0  0  0  0
   26.0549  -16.6952  -16.3249 O   0  0  0  0  0  0  0  0  0  0  0  0
   21.0954  -16.5248  -17.4990 N   0  0  0  0  0  0  0  0  0  0  0  0
   21.5002  -17.8762  -17.3351 C   0  0  0  0  0  0  0  0  0  0  0  0
   20.6651  -18.6829  -16.8589 O   0  0  0  0  0  0  0  0  0  0  0  0
   22.8770  -18.2574  -17.7327 C   0  0  0  0  0  0  0  0  0  0  0  0
   23.7908  -18.3035  -16.5106 C   0  0  2  0  0  0  0  0  0  0  0  0
   25.1282  -18.7113  -16.8868 N   0  0  0  0  0  0  0  0  0  0  0  0
   23.2544  -19.2149  -15.4775 C   0  0  0  0  0  0  0  0  0  0  0  0
   23.4365  -20.4460  -15.6291 O   0  0  0  0  0  0  0  0  0  0  0  0
   19.6958  -19.1125  -10.8859 N   0  0  0  0  0  0  0  0  0  0  0  0
   20.5583  -20.1155  -10.3642 C   0  0  0  0  0  0  0  0  0  0  0  0
   20.1216  -20.8206   -9.4315 O   0  0  0  0  0  0  0  0  0  0  0  0
   21.8898  -20.2519  -10.9502 C   0  0  0  0  0  0  0  0  0  0  0  0
   22.2622  -19.2440  -11.9716 C   0  0  0  0  0  0  0  0  0  0  0  0
   22.1344  -19.7539  -13.3519 C   0  0  2  0  0  0  0  0  0  0  0  0
   22.5532  -18.7398  -14.3418 N   0  0  0  0  0  0  0  0  0  0  0  0
   20.8399  -20.3278  -13.7135 C   0  0  0  0  0  0  0  0  0  0  0  0
   19.9013  -19.5915  -14.1820 O   0  0  0  0  0  0  0  0  0  0  0  0
   20.5003  -21.6627  -13.5985 O   0  0  0  0  0  0  0  0  0  0  0  0
  2  1  1  0
  3  2  1  0
  4  3  1  0
  4  5  1  0
  5  6  1  6
  5  1  1  0
  6  7  2  0
  9  8  1  0
 10  9  2  0
 11  9  1  0
 12 11  1  6
 13 12  1  0
 13  6  1  0
 14 12  1  0
 14 15  2  0
 16 17  1  0
 17 19  1  0
 18 17  2  0
 19 20  1  0
 21 20  1  1
 21 22  1  0
 21 23  1  0
 22 14  1  0
 23 24  2  0
 23 25  1  0
M  END
$$$$
