PNQ.pdb
     RDKit          3D

 25 25  0  0  1  0  0  0  0  0999 V2000
   16.5860  -13.5223  -15.8891 N   0  0  0  0  0  0  0  0  0  0  0  0
   15.8822  -14.6557  -16.4640 C   0  0  0  0  0  0  0  0  0  0  0  0
   16.2546  -14.4582  -17.9394 C   0  0  0  0  0  0  0  0  0  0  0  0
   17.7732  -14.3142  -17.7829 C   0  0  0  0  0  0  0  0  0  0  0  0
   17.8601  -13.4221  -16.5618 C   0  0  1  0  0  0  0  0  0  0  0  0
   18.1247  -12.0421  -17.0445 C   0  0  0  0  0  0  0  0  0  0  0  0
   19.2509  -11.7425  -17.5578 O   0  0  0  0  0  0  0  0  0  0  0  0
   15.4341   -7.2248  -19.5633 N   0  0  0  0  0  0  0  0  0  0  0  0
   16.3857   -7.7513  -18.6498 C   0  0  0  0  0  0  0  0  0  0  0  0
   17.4156   -7.0714  -18.4220 O   0  0  0  0  0  0  0  0  0  0  0  0
   16.1123   -9.0656  -18.0198 C   0  0  0  0  0  0  0  0  0  0  0  0
   17.3997   -9.6666  -17.4614 C   0  0  2  0  0  0  0  0  0  0  0  0
   17.1659  -11.0067  -16.9657 N   0  0  0  0  0  0  0  0  0  0  0  0
   17.9620   -8.8197  -16.3879 C   0  0  0  0  0  0  0  0  0  0  0  0
   17.8688   -9.2301  -15.2070 O   0  0  0  0  0  0  0  0  0  0  0  0
   22.6168   -9.3803  -14.2060 N   0  0  0  0  0  0  0  0  0  0  0  0
   22.3468   -8.1665  -13.5162 C   0  0  0  0  0  0  0  0  0  0  0  0
   23.0590   -7.8969  -12.5274 O   0  0  0  0  0  0  0  0  0  0  0  0
   21.2600   -7.3223  -14.0072 C   0  0  0  0  0  0  0  0  0  0  0  0
   20.3500   -7.9387  -15.0020 C   0  0  0  0  0  0  0  0  0  0  0  0
   19.3696   -6.9805  -15.5516 C   0  0  2  0  0  0  0  0  0  0  0  0
   18.5920   -7.5794  -16.6564 N   0  0  0  0  0  0  0  0  0  0  0  0
   19.8894   -5.6694  -15.9347 C   0  0  0  0  0  0  0  0  0  0  0  0
   19.8431   -5.2733  -17.1528 O   0  0  0  0  0  0  0  0  0  0  0  0
   20.4589   -4.7544  -15.0693 O   0  0  0  0  0  0  0  0  0  0  0  0
  2  1  1  0
  3  2  1  0
  4  3  1  0
  4  5  1  0
  5  6  1  6
  5  1  1  0
  6  7  2  0
  9  8  1  0
 10  9  2  0
 11  9  1  0
 12 11  1  1
 13 12  1  0
 13  6  1  0
 14 12  1  0
 14 15  2  0
 16 17  1  0
 17 19  1  0
 18 17  2  0
 19 20  1  0
 21 20  1  6
 21 22  1  0
 21 23  1  0
 22 14  1  0
 23 24  2  0
 23 25  1  0
M  END
$$$$
