PNQ.pdb
     RDKit          3D

 25 25  0  0  1  0  0  0  0  0999 V2000
   19.0956  -10.6378  -15.0776 N   0  0  0  0  0  0  0  0  0  0  0  0
   18.7708  -12.0445  -14.9154 C   0  0  0  0  0  0  0  0  0  0  0  0
   17.2689  -11.9218  -14.6259 C   0  0  0  0  0  0  0  0  0  0  0  0
   16.8728  -11.0267  -15.8062 C   0  0  0  0  0  0  0  0  0  0  0  0
   18.0131  -10.0297  -15.8154 C   0  0  1  0  0  0  0  0  0  0  0  0
   17.5199   -8.7928  -15.1565 C   0  0  0  0  0  0  0  0  0  0  0  0
   16.6399   -8.0669  -15.7224 O   0  0  0  0  0  0  0  0  0  0  0  0
   17.8629   -5.5789   -9.9292 N   0  0  0  0  0  0  0  0  0  0  0  0
   17.1810   -5.9844  -11.1072 C   0  0  0  0  0  0  0  0  0  0  0  0
   16.2800   -5.2311  -11.5497 O   0  0  0  0  0  0  0  0  0  0  0  0
   17.5680   -7.2658  -11.7452 C   0  0  0  0  0  0  0  0  0  0  0  0
   17.5532   -7.1296  -13.2657 C   0  0  2  0  0  0  0  0  0  0  0  0
   17.9854   -8.3603  -13.8940 N   0  0  0  0  0  0  0  0  0  0  0  0
   18.4069   -6.0068  -13.7090 C   0  0  0  0  0  0  0  0  0  0  0  0
   19.6412   -6.2075  -13.7978 O   0  0  0  0  0  0  0  0  0  0  0  0
   19.9302   -5.7823  -18.5238 N   0  0  0  0  0  0  0  0  0  0  0  0
   20.2631   -4.4127  -18.3349 C   0  0  0  0  0  0  0  0  0  0  0  0
   20.8571   -3.8320  -19.2664 O   0  0  0  0  0  0  0  0  0  0  0  0
   19.8908   -3.7814  -17.0709 C   0  0  0  0  0  0  0  0  0  0  0  0
   19.1519   -4.6314  -16.1069 C   0  0  0  0  0  0  0  0  0  0  0  0
   18.6889   -3.8822  -14.9213 C   0  0  2  0  0  0  0  0  0  0  0  0
   17.8739   -4.7340  -14.0302 N   0  0  0  0  0  0  0  0  0  0  0  0
   18.0168   -2.6104  -15.1801 C   0  0  0  0  0  0  0  0  0  0  0  0
   16.7391   -2.5448  -15.2561 O   0  0  0  0  0  0  0  0  0  0  0  0
   18.6519   -1.3962  -15.3608 O   0  0  0  0  0  0  0  0  0  0  0  0
  2  1  1  0
  3  2  1  0
  4  3  1  0
  4  5  1  0
  5  6  1  1
  5  1  1  0
  6  7  2  0
  9  8  1  0
 10  9  2  0
 11  9  1  0
 12 11  1  1
 13 12  1  0
 13  6  1  0
 14 12  1  0
 14 15  2  0
 16 17  1  0
 17 19  1  0
 18 17  2  0
 19 20  1  0
 21 20  1  6
 21 22  1  0
 21 23  1  0
 22 14  1  0
 23 24  2  0
 23 25  1  0
M  END
$$$$
