PNQ.pdb
     RDKit          3D

 25 25  0  0  1  0  0  0  0  0999 V2000
   24.4688  -10.6871  -15.9855 N   0  0  0  0  0  0  0  0  0  0  0  0
   24.8628  -11.9886  -15.4744 C   0  0  0  0  0  0  0  0  0  0  0  0
   23.4736  -12.5800  -15.2008 C   0  0  0  0  0  0  0  0  0  0  0  0
   22.8232  -12.2949  -16.5599 C   0  0  0  0  0  0  0  0  0  0  0  0
   23.3177  -10.8897  -16.8339 C   0  0  1  0  0  0  0  0  0  0  0  0
   22.2091   -9.9604  -16.4947 C   0  0  0  0  0  0  0  0  0  0  0  0
   21.1605   -9.9160  -17.2157 O   0  0  0  0  0  0  0  0  0  0  0  0
   19.3294   -9.8999  -13.9386 N   0  0  0  0  0  0  0  0  0  0  0  0
   20.0260   -9.1012  -12.9931 C   0  0  0  0  0  0  0  0  0  0  0  0
   19.7519   -9.2602  -11.7788 O   0  0  0  0  0  0  0  0  0  0  0  0
   21.0316   -8.1305  -13.4886 C   0  0  0  0  0  0  0  0  0  0  0  0
   21.1567   -8.2218  -15.0074 C   0  0  2  0  0  0  0  0  0  0  0  0
   22.2513   -9.0936  -15.3791 N   0  0  0  0  0  0  0  0  0  0  0  0
   21.3469   -6.8845  -15.6084 C   0  0  0  0  0  0  0  0  0  0  0  0
   22.4139   -6.2754  -15.3591 O   0  0  0  0  0  0  0  0  0  0  0  0
   20.1480   -5.9375  -21.1206 N   0  0  0  0  0  0  0  0  0  0  0  0
   19.0166   -5.5108  -20.3723 C   0  0  0  0  0  0  0  0  0  0  0  0
   17.9010   -5.5806  -20.9274 O   0  0  0  0  0  0  0  0  0  0  0  0
   19.2346   -5.0215  -19.0129 C   0  0  0  0  0  0  0  0  0  0  0  0
   20.6348   -5.0415  -18.5263 C   0  0  0  0  0  0  0  0  0  0  0  0
   20.7294   -4.9886  -17.0532 C   0  0  2  0  0  0  0  0  0  0  0  0
   20.3712   -6.2862  -16.4435 N   0  0  0  0  0  0  0  0  0  0  0  0
   20.0180   -3.8935  -16.3971 C   0  0  0  0  0  0  0  0  0  0  0  0
   20.3272   -2.6724  -16.6340 O   0  0  0  0  0  0  0  0  0  0  0  0
   18.9824   -4.0441  -15.4943 O   0  0  0  0  0  0  0  0  0  0  0  0
  2  1  1  0
  3  2  1  0
  4  3  1  0
  4  5  1  0
  5  6  1  1
  5  1  1  0
  6  7  2  0
  9  8  1  0
 10  9  2  0
 11  9  1  0
 12 11  1  1
 13 12  1  0
 13  6  1  0
 14 12  1  0
 14 15  2  0
 16 17  1  0
 17 19  1  0
 18 17  2  0
 19 20  1  0
 21 20  1  6
 21 22  1  0
 21 23  1  0
 22 14  1  0
 23 24  2  0
 23 25  1  0
M  END
$$$$
