PNQ.pdb
     RDKit          3D

 25 25  0  0  1  0  0  0  0  0999 V2000
   17.0390  -11.6395  -13.3633 N   0  0  0  0  0  0  0  0  0  0  0  0
   16.5676  -13.0067  -13.2257 C   0  0  0  0  0  0  0  0  0  0  0  0
   15.1421  -12.7301  -12.7295 C   0  0  0  0  0  0  0  0  0  0  0  0
   14.7100  -11.7221  -13.8012 C   0  0  0  0  0  0  0  0  0  0  0  0
   15.9533  -10.8649  -13.9175 C   0  0  1  0  0  0  0  0  0  0  0  0
   15.7049   -9.6236  -13.1397 C   0  0  0  0  0  0  0  0  0  0  0  0
   14.7811   -8.8186  -13.4861 O   0  0  0  0  0  0  0  0  0  0  0  0
   15.0273   -6.7921   -8.6340 N   0  0  0  0  0  0  0  0  0  0  0  0
   16.3759   -7.1372   -8.9159 C   0  0  0  0  0  0  0  0  0  0  0  0
   17.2779   -6.4012   -8.4474 O   0  0  0  0  0  0  0  0  0  0  0  0
   16.6423   -8.3395   -9.7421 C   0  0  0  0  0  0  0  0  0  0  0  0
   16.1677   -8.1164  -11.1758 C   0  0  2  0  0  0  0  0  0  0  0  0
   16.4593   -9.2725  -11.9972 N   0  0  0  0  0  0  0  0  0  0  0  0
   16.7879   -6.9088  -11.7613 C   0  0  0  0  0  0  0  0  0  0  0  0
   18.0396   -6.8551  -11.8066 O   0  0  0  0  0  0  0  0  0  0  0  0
   16.1879   -4.8427  -16.9768 N   0  0  0  0  0  0  0  0  0  0  0  0
   17.1547   -5.7099  -16.3975 C   0  0  0  0  0  0  0  0  0  0  0  0
   17.7225   -6.5243  -17.1539 O   0  0  0  0  0  0  0  0  0  0  0  0
   17.4161   -5.5910  -14.9649 C   0  0  0  0  0  0  0  0  0  0  0  0
   16.6459   -4.5502  -14.2428 C   0  0  0  0  0  0  0  0  0  0  0  0
   16.7655   -4.6649  -12.7752 C   0  0  2  0  0  0  0  0  0  0  0  0
   16.0166   -5.8315  -12.2633 N   0  0  0  0  0  0  0  0  0  0  0  0
   16.4476   -3.4653  -12.0033 C   0  0  0  0  0  0  0  0  0  0  0  0
   17.0420   -2.3545  -12.2386 O   0  0  0  0  0  0  0  0  0  0  0  0
   15.5153   -3.3971  -10.9852 O   0  0  0  0  0  0  0  0  0  0  0  0
  2  1  1  0
  3  2  1  0
  4  3  1  0
  4  5  1  0
  5  6  1  1
  5  1  1  0
  6  7  2  0
  9  8  1  0
 10  9  2  0
 11  9  1  0
 12 11  1  1
 13 12  1  0
 13  6  1  0
 14 12  1  0
 14 15  2  0
 16 17  1  0
 17 19  1  0
 18 17  2  0
 19 20  1  0
 21 20  1  6
 21 22  1  0
 21 23  1  0
 22 14  1  0
 23 24  2  0
 23 25  1  0
M  END
$$$$
