NGD.pdb
     RDKit          3D

 21 20  0  0  1  0  0  0  0  0999 V2000
   15.9396  -13.7694  -15.6405 N   0  0  0  0  0  0  0  0  0  0  0  0
   15.0978  -12.6982  -16.0254 C   0  0  0  0  0  0  0  0  0  0  0  0
   13.9641  -12.8844  -16.4961 O   0  0  0  0  0  0  0  0  0  0  0  0
   15.5858  -11.3164  -15.8607 C   0  0  0  0  0  0  0  0  0  0  0  0
   16.9868  -11.3928  -15.2547 C   0  0  2  0  0  0  0  0  0  0  0  0
   16.9472  -11.0401  -13.8500 N   0  0  0  0  0  0  0  0  0  0  0  0
   17.7858  -10.3546  -15.9643 C   0  0  0  0  0  0  0  0  0  0  0  0
   18.1799  -10.5508  -17.1602 O   0  0  0  0  0  0  0  0  0  0  0  0
   18.1349   -9.1212  -15.3388 N   0  0  0  0  0  0  0  0  0  0  0  0
   18.7922   -8.1192  -16.1245 C   0  0  0  0  0  0  0  0  0  0  0  0
   19.0134   -6.8595  -15.3455 C   0  0  0  0  0  0  0  0  0  0  0  0
   18.2187   -6.6004  -14.4179 O   0  0  0  0  0  0  0  0  0  0  0  0
   20.0648   -5.9706  -15.6144 N   0  0  0  0  0  0  0  0  0  0  0  0
   20.4606   -4.8166  -14.8678 C   0  0  1  0  0  0  0  0  0  0  0  0
   21.9210   -4.8060  -14.5322 C   0  0  0  0  0  0  0  0  0  0  0  0
   22.3673   -6.0819  -13.9306 C   0  0  0  0  0  0  0  0  0  0  0  0
   22.2601   -6.3126  -12.7009 O   0  0  0  0  0  0  0  0  0  0  0  0
   19.9698   -3.5210  -15.3592 C   0  0  0  0  0  0  0  0  0  0  0  0
   19.5433   -2.5349  -14.5154 O   0  0  0  0  0  0  0  0  0  0  0  0
   22.9216   -7.0580  -14.7399 O   0  0  0  0  0  0  0  0  0  0  0  0
   19.9465   -3.3178  -16.5957 O   0  0  0  0  0  0  0  0  0  0  0  0
  2  1  1  0
  3  2  2  0
  4  2  1  0
  5  6  1  1
  5  4  1  0
  7  5  1  0
  8  7  2  0
  9  7  1  0
 10 11  1  0
 10  9  1  0
 11 13  1  0
 12 11  2  0
 13 14  1  0
 14 18  1  0
 14 15  1  6
 15 16  1  0
 16 17  2  0
 18 21  2  0
 18 19  1  0
 20 16  1  0
M  END
$$$$
