NGD.pdb
     RDKit          3D

 21 20  0  0  1  0  0  0  0  0999 V2000
   24.0907  -15.1976  -19.5160 N   0  0  0  0  0  0  0  0  0  0  0  0
   22.8288  -14.5779  -19.6836 C   0  0  0  0  0  0  0  0  0  0  0  0
   21.7702  -15.1318  -19.3460 O   0  0  0  0  0  0  0  0  0  0  0  0
   22.7725  -13.2300  -20.2789 C   0  0  0  0  0  0  0  0  0  0  0  0
   22.5730  -12.2318  -19.1388 C   0  0  2  0  0  0  0  0  0  0  0  0
   21.2815  -12.4335  -18.5139 N   0  0  0  0  0  0  0  0  0  0  0  0
   22.5647  -10.8878  -19.7819 C   0  0  0  0  0  0  0  0  0  0  0  0
   22.8921  -10.7577  -21.0065 O   0  0  0  0  0  0  0  0  0  0  0  0
   22.1965   -9.7144  -19.0594 N   0  0  0  0  0  0  0  0  0  0  0  0
   22.2687   -8.4496  -19.7291 C   0  0  0  0  0  0  0  0  0  0  0  0
   21.6382   -7.3572  -18.9217 C   0  0  0  0  0  0  0  0  0  0  0  0
   20.9945   -7.6827  -17.9025 O   0  0  0  0  0  0  0  0  0  0  0  0
   21.7408   -6.0002  -19.2621 N   0  0  0  0  0  0  0  0  0  0  0  0
   21.1597   -4.8748  -18.5974 C   0  0  1  0  0  0  0  0  0  0  0  0
   21.7982   -3.5735  -18.9773 C   0  0  0  0  0  0  0  0  0  0  0  0
   21.2966   -2.4442  -18.1635 C   0  0  0  0  0  0  0  0  0  0  0  0
   21.0008   -2.5764  -16.9503 O   0  0  0  0  0  0  0  0  0  0  0  0
   19.6911   -4.8153  -18.5772 C   0  0  0  0  0  0  0  0  0  0  0  0
   18.9819   -4.6918  -17.4161 O   0  0  0  0  0  0  0  0  0  0  0  0
   21.1453   -1.1992  -18.7484 O   0  0  0  0  0  0  0  0  0  0  0  0
   19.0727   -4.8774  -19.6656 O   0  0  0  0  0  0  0  0  0  0  0  0
  2  1  1  0
  3  2  2  0
  4  2  1  0
  5  6  1  6
  5  4  1  0
  7  5  1  0
  8  7  2  0
  9  7  1  0
 10 11  1  0
 10  9  1  0
 11 13  1  0
 12 11  2  0
 13 14  1  0
 14 18  1  0
 14 15  1  6
 15 16  1  0
 16 17  2  0
 18 21  2  0
 18 19  1  0
 20 16  1  0
M  END
$$$$
