NGD.pdb
     RDKit          3D

 21 20  0  0  1  0  0  0  0  0999 V2000
   17.9849  -15.2942  -17.3703 N   0  0  0  0  0  0  0  0  0  0  0  0
   18.8977  -15.0581  -18.4265 C   0  0  0  0  0  0  0  0  0  0  0  0
   18.9600  -15.7950  -19.4237 O   0  0  0  0  0  0  0  0  0  0  0  0
   19.8033  -13.8977  -18.3369 C   0  0  0  0  0  0  0  0  0  0  0  0
   19.4837  -13.1646  -17.0345 C   0  0  2  0  0  0  0  0  0  0  0  0
   18.1717  -12.5543  -17.1096 N   0  0  0  0  0  0  0  0  0  0  0  0
   20.4911  -12.0714  -16.9341 C   0  0  0  0  0  0  0  0  0  0  0  0
   21.7275  -12.3157  -17.1230 O   0  0  0  0  0  0  0  0  0  0  0  0
   20.1134  -10.7311  -16.6258 N   0  0  0  0  0  0  0  0  0  0  0  0
   21.1461   -9.7777  -16.3465 C   0  0  0  0  0  0  0  0  0  0  0  0
   20.6053   -8.3843  -16.2547 C   0  0  0  0  0  0  0  0  0  0  0  0
   19.3914   -8.2132  -16.4919 O   0  0  0  0  0  0  0  0  0  0  0  0
   21.3995   -7.2781  -15.9176 N   0  0  0  0  0  0  0  0  0  0  0  0
   21.0243   -5.8984  -15.8795 C   0  0  1  0  0  0  0  0  0  0  0  0
   21.9241   -5.0682  -15.0154 C   0  0  0  0  0  0  0  0  0  0  0  0
   21.8413   -5.4513  -13.5887 C   0  0  0  0  0  0  0  0  0  0  0  0
   22.4970   -4.8551  -12.6992 O   0  0  0  0  0  0  0  0  0  0  0  0
   20.7202   -5.2685  -17.1724 C   0  0  0  0  0  0  0  0  0  0  0  0
   19.6090   -4.4974  -17.3648 O   0  0  0  0  0  0  0  0  0  0  0  0
   21.0182   -6.4983  -13.2127 O   0  0  0  0  0  0  0  0  0  0  0  0
   21.5122   -5.4456  -18.1275 O   0  0  0  0  0  0  0  0  0  0  0  0
  2  1  1  0
  3  2  2  0
  4  2  1  0
  5  6  1  6
  5  4  1  0
  7  5  1  0
  8  7  2  0
  9  7  1  0
 10 11  1  0
 10  9  1  0
 11 13  1  0
 12 11  2  0
 13 14  1  0
 14 18  1  0
 14 15  1  6
 15 16  1  0
 16 17  2  0
 18 21  2  0
 18 19  1  0
 20 16  1  0
M  END
$$$$
