NGD.pdb
     RDKit          3D

 21 20  0  0  1  0  0  0  0  0999 V2000
   29.9222  -20.6422  -12.0241 N   0  0  0  0  0  0  0  0  0  0  0  0
   28.8371  -20.0332  -12.6994 C   0  0  0  0  0  0  0  0  0  0  0  0
   28.8706  -19.7846  -13.9153 O   0  0  0  0  0  0  0  0  0  0  0  0
   27.6280  -19.6836  -11.9309 C   0  0  0  0  0  0  0  0  0  0  0  0
   26.9516  -20.9905  -11.5184 C   0  0  2  0  0  0  0  0  0  0  0  0
   26.5457  -21.7388  -12.6907 N   0  0  0  0  0  0  0  0  0  0  0  0
   25.7193  -20.5878  -10.7840 C   0  0  0  0  0  0  0  0  0  0  0  0
   25.7962  -20.1419   -9.5927 O   0  0  0  0  0  0  0  0  0  0  0  0
   24.4269  -20.6867  -11.3793 N   0  0  0  0  0  0  0  0  0  0  0  0
   23.3288  -20.0231  -10.7413 C   0  0  0  0  0  0  0  0  0  0  0  0
   22.0513  -20.2087  -11.5003 C   0  0  0  0  0  0  0  0  0  0  0  0
   21.0335  -19.6186  -11.0820 O   0  0  0  0  0  0  0  0  0  0  0  0
   21.9549  -21.0100  -12.6477 N   0  0  0  0  0  0  0  0  0  0  0  0
   20.8235  -21.1994  -13.5021 C   0  0  1  0  0  0  0  0  0  0  0  0
   21.1930  -21.3164  -14.9496 C   0  0  0  0  0  0  0  0  0  0  0  0
   21.7133  -20.0454  -15.5000 C   0  0  0  0  0  0  0  0  0  0  0  0
   21.7458  -18.9890  -14.8219 O   0  0  0  0  0  0  0  0  0  0  0  0
   19.8415  -22.2051  -13.0719 C   0  0  0  0  0  0  0  0  0  0  0  0
   20.0980  -23.0905  -12.0637 O   0  0  0  0  0  0  0  0  0  0  0  0
   22.1811  -20.0092  -16.8019 O   0  0  0  0  0  0  0  0  0  0  0  0
   18.7307  -22.2457  -13.6511 O   0  0  0  0  0  0  0  0  0  0  0  0
  2  1  1  0
  3  2  2  0
  4  2  1  0
  5  6  1  6
  5  4  1  0
  7  5  1  0
  8  7  2  0
  9  7  1  0
 10 11  1  0
 10  9  1  0
 11 13  1  0
 12 11  2  0
 13 14  1  0
 14 18  1  0
 14 15  1  6
 15 16  1  0
 16 17  2  0
 18 21  2  0
 18 19  1  0
 20 16  1  0
M  END
$$$$
