NGD.pdb
     RDKit          3D

 21 20  0  0  1  0  0  0  0  0999 V2000
   13.1422   -7.0056   -6.2824 N   0  0  0  0  0  0  0  0  0  0  0  0
   14.0823   -6.3608   -7.1220 C   0  0  0  0  0  0  0  0  0  0  0  0
   14.1902   -5.1248   -7.1669 O   0  0  0  0  0  0  0  0  0  0  0  0
   14.9613   -7.1869   -7.9702 C   0  0  0  0  0  0  0  0  0  0  0  0
   14.4931   -7.0217   -9.4156 C   0  0  2  0  0  0  0  0  0  0  0  0
   13.3663   -7.8926   -9.6821 N   0  0  0  0  0  0  0  0  0  0  0  0
   15.6332   -7.4783  -10.2592 C   0  0  0  0  0  0  0  0  0  0  0  0
   15.8607   -8.7223  -10.4160 O   0  0  0  0  0  0  0  0  0  0  0  0
   16.5000   -6.5521  -10.9115 N   0  0  0  0  0  0  0  0  0  0  0  0
   17.5842   -7.0668  -11.6944 C   0  0  0  0  0  0  0  0  0  0  0  0
   18.3316   -5.9738  -12.3939 C   0  0  0  0  0  0  0  0  0  0  0  0
   17.9422   -4.7997  -12.2237 O   0  0  0  0  0  0  0  0  0  0  0  0
   19.4374   -6.2149  -13.2229 N   0  0  0  0  0  0  0  0  0  0  0  0
   20.2311   -5.2638  -13.9380 C   0  0  1  0  0  0  0  0  0  0  0  0
   21.5836   -5.7897  -14.3120 C   0  0  0  0  0  0  0  0  0  0  0  0
   22.2693   -6.4355  -13.1710 C   0  0  0  0  0  0  0  0  0  0  0  0
   22.6196   -5.7906  -12.1521 O   0  0  0  0  0  0  0  0  0  0  0  0
   19.5633   -4.5499  -15.0357 C   0  0  0  0  0  0  0  0  0  0  0  0
   19.8262   -3.2399  -15.3206 O   0  0  0  0  0  0  0  0  0  0  0  0
   22.5375   -7.7923  -13.2186 O   0  0  0  0  0  0  0  0  0  0  0  0
   18.7267   -5.1695  -15.7335 O   0  0  0  0  0  0  0  0  0  0  0  0
  2  1  1  0
  3  2  2  0
  4  2  1  0
  5  6  1  1
  5  4  1  0
  7  5  1  0
  8  7  2  0
  9  7  1  0
 10 11  1  0
 10  9  1  0
 11 13  1  0
 12 11  2  0
 13 14  1  0
 14 18  1  0
 14 15  1  6
 15 16  1  0
 16 17  2  0
 18 21  2  0
 18 19  1  0
 20 16  1  0
M  END
$$$$
