NGD.pdb
     RDKit          3D

 21 20  0  0  1  0  0  0  0  0999 V2000
   27.7938  -20.9435  -10.3543 N   0  0  0  0  0  0  0  0  0  0  0  0
   26.4949  -20.7771   -9.8164 C   0  0  0  0  0  0  0  0  0  0  0  0
   26.3057  -20.4611   -8.6308 O   0  0  0  0  0  0  0  0  0  0  0  0
   25.3295  -20.9864  -10.6955 C   0  0  0  0  0  0  0  0  0  0  0  0
   25.8595  -21.3188  -12.0899 C   0  0  2  0  0  0  0  0  0  0  0  0
   26.6404  -20.2138  -12.6080 N   0  0  0  0  0  0  0  0  0  0  0  0
   24.6524  -21.4684  -12.9505 C   0  0  0  0  0  0  0  0  0  0  0  0
   23.9345  -22.5186  -12.8762 O   0  0  0  0  0  0  0  0  0  0  0  0
   24.2631  -20.4560  -13.8768 N   0  0  0  0  0  0  0  0  0  0  0  0
   23.2126  -20.7486  -14.8064 C   0  0  0  0  0  0  0  0  0  0  0  0
   21.8597  -20.5625  -14.1918 C   0  0  0  0  0  0  0  0  0  0  0  0
   21.7918  -20.4702  -12.9485 O   0  0  0  0  0  0  0  0  0  0  0  0
   20.6810  -20.4896  -14.9491 N   0  0  0  0  0  0  0  0  0  0  0  0
   19.3346  -20.3707  -14.4810 C   0  0  1  0  0  0  0  0  0  0  0  0
   18.4073  -19.7837  -15.5013 C   0  0  0  0  0  0  0  0  0  0  0  0
   18.7324  -18.3735  -15.8089 C   0  0  0  0  0  0  0  0  0  0  0  0
   19.1485  -17.5784  -14.9306 O   0  0  0  0  0  0  0  0  0  0  0  0
   18.7749  -21.5455  -13.7974 C   0  0  0  0  0  0  0  0  0  0  0  0
   17.8154  -21.4386  -12.8307 O   0  0  0  0  0  0  0  0  0  0  0  0
   18.5764  -17.9063  -17.1022 O   0  0  0  0  0  0  0  0  0  0  0  0
   19.1933  -22.6826  -14.1180 O   0  0  0  0  0  0  0  0  0  0  0  0
  2  1  1  0
  3  2  2  0
  4  2  1  0
  5  6  1  6
  5  4  1  0
  7  5  1  0
  8  7  2  0
  9  7  1  0
 10 11  1  0
 10  9  1  0
 11 13  1  0
 12 11  2  0
 13 14  1  0
 14 18  1  0
 14 15  1  6
 15 16  1  0
 16 17  2  0
 18 21  2  0
 18 19  1  0
 20 16  1  0
M  END
$$$$
