NGD.pdb
     RDKit          3D

 21 20  0  0  1  0  0  0  0  0999 V2000
   20.9565  -19.3334  -17.2486 N   0  0  0  0  0  0  0  0  0  0  0  0
   20.4758  -18.0156  -17.4400 C   0  0  0  0  0  0  0  0  0  0  0  0
   19.5440  -17.7583  -18.2190 O   0  0  0  0  0  0  0  0  0  0  0  0
   21.1042  -16.9138  -16.6878 C   0  0  0  0  0  0  0  0  0  0  0  0
   20.7298  -15.6075  -17.3872 C   0  0  2  0  0  0  0  0  0  0  0  0
   21.6439  -15.3417  -18.4795 N   0  0  0  0  0  0  0  0  0  0  0  0
   20.9165  -14.5396  -16.3650 C   0  0  0  0  0  0  0  0  0  0  0  0
   20.2939  -14.5952  -15.2544 O   0  0  0  0  0  0  0  0  0  0  0  0
   21.7856  -13.4313  -16.5900 N   0  0  0  0  0  0  0  0  0  0  0  0
   21.8913  -12.4289  -15.5716 C   0  0  0  0  0  0  0  0  0  0  0  0
   21.2602  -11.1386  -15.9951 C   0  0  0  0  0  0  0  0  0  0  0  0
   20.8590  -11.0450  -17.1738 O   0  0  0  0  0  0  0  0  0  0  0  0
   21.1049  -10.0449  -15.1302 N   0  0  0  0  0  0  0  0  0  0  0  0
   20.5439   -8.7613  -15.4190 C   0  0  1  0  0  0  0  0  0  0  0  0
   19.1555   -8.5920  -14.8811 C   0  0  0  0  0  0  0  0  0  0  0  0
   18.5771   -7.2747  -15.2265 C   0  0  0  0  0  0  0  0  0  0  0  0
   18.2883   -6.9626  -16.4080 O   0  0  0  0  0  0  0  0  0  0  0  0
   21.4083   -7.5993  -15.1673 C   0  0  0  0  0  0  0  0  0  0  0  0
   21.1416   -6.3651  -15.6887 O   0  0  0  0  0  0  0  0  0  0  0  0
   18.3433   -6.3507  -14.2232 O   0  0  0  0  0  0  0  0  0  0  0  0
   22.4222   -7.7505  -14.4462 O   0  0  0  0  0  0  0  0  0  0  0  0
  2  1  1  0
  3  2  2  0
  4  2  1  0
  5  6  1  6
  5  4  1  0
  7  5  1  0
  8  7  2  0
  9  7  1  0
 10 11  1  0
 10  9  1  0
 11 13  1  0
 12 11  2  0
 13 14  1  0
 14 18  1  0
 14 15  1  1
 15 16  1  0
 16 17  2  0
 18 21  2  0
 18 19  1  0
 20 16  1  0
M  END
$$$$
