NGD.pdb
     RDKit          3D

 21 20  0  0  1  0  0  0  0  0999 V2000
   28.3555  -20.9594  -13.9937 N   0  0  0  0  0  0  0  0  0  0  0  0
   28.2536  -21.5068  -15.2954 C   0  0  0  0  0  0  0  0  0  0  0  0
   28.7976  -22.5785  -15.6064 O   0  0  0  0  0  0  0  0  0  0  0  0
   27.4747  -20.7780  -16.3138 C   0  0  0  0  0  0  0  0  0  0  0  0
   26.9514  -19.4979  -15.6632 C   0  0  2  0  0  0  0  0  0  0  0  0
   26.8207  -19.6783  -14.2315 N   0  0  0  0  0  0  0  0  0  0  0  0
   25.5865  -19.2940  -16.2247 C   0  0  0  0  0  0  0  0  0  0  0  0
   25.4268  -19.0939  -17.4730 O   0  0  0  0  0  0  0  0  0  0  0  0
   24.4255  -19.3137  -15.3964 N   0  0  0  0  0  0  0  0  0  0  0  0
   23.1532  -19.0431  -15.9976 C   0  0  0  0  0  0  0  0  0  0  0  0
   22.0321  -19.1941  -15.0163 C   0  0  0  0  0  0  0  0  0  0  0  0
   22.3241  -19.4859  -13.8379 O   0  0  0  0  0  0  0  0  0  0  0  0
   20.6841  -19.0235  -15.3654 N   0  0  0  0  0  0  0  0  0  0  0  0
   19.5320  -19.1311  -14.5246 C   0  0  1  0  0  0  0  0  0  0  0  0
   18.3574  -18.3528  -15.0346 C   0  0  0  0  0  0  0  0  0  0  0  0
   18.6842  -16.9274  -15.2596 C   0  0  0  0  0  0  0  0  0  0  0  0
   19.7155  -16.3960  -14.7792 O   0  0  0  0  0  0  0  0  0  0  0  0
   19.1780  -20.4841  -14.0722 C   0  0  0  0  0  0  0  0  0  0  0  0
   18.3477  -20.7042  -13.0099 O   0  0  0  0  0  0  0  0  0  0  0  0
   17.8330  -16.1469  -16.0221 O   0  0  0  0  0  0  0  0  0  0  0  0
   19.6545  -21.4666  -14.6873 O   0  0  0  0  0  0  0  0  0  0  0  0
  2  1  1  0
  3  2  2  0
  4  2  1  0
  5  6  1  1
  5  4  1  0
  7  5  1  0
  8  7  2  0
  9  7  1  0
 10 11  1  0
 10  9  1  0
 11 13  1  0
 12 11  2  0
 13 14  1  0
 14 18  1  0
 14 15  1  6
 15 16  1  0
 16 17  2  0
 18 21  2  0
 18 19  1  0
 20 16  1  0
M  END
$$$$
