NGD.pdb
     RDKit          3D

 21 20  0  0  1  0  0  0  0  0999 V2000
   18.1471  -13.0396  -18.1220 N   0  0  0  0  0  0  0  0  0  0  0  0
   16.8552  -12.5937  -17.7523 C   0  0  0  0  0  0  0  0  0  0  0  0
   15.8311  -12.9706  -18.3443 O   0  0  0  0  0  0  0  0  0  0  0  0
   16.7242  -11.6505  -16.6263 C   0  0  0  0  0  0  0  0  0  0  0  0
   18.1241  -11.4118  -16.0613 C   0  0  2  0  0  0  0  0  0  0  0  0
   18.4972  -12.4906  -15.1690 N   0  0  0  0  0  0  0  0  0  0  0  0
   18.0209  -10.1647  -15.2526 C   0  0  0  0  0  0  0  0  0  0  0  0
   17.1019  -10.0378  -14.3789 O   0  0  0  0  0  0  0  0  0  0  0  0
   18.9336   -9.0824  -15.4256 N   0  0  0  0  0  0  0  0  0  0  0  0
   18.8503   -7.9688  -14.5276 C   0  0  0  0  0  0  0  0  0  0  0  0
   19.9468   -6.9779  -14.7689 C   0  0  0  0  0  0  0  0  0  0  0  0
   20.8121   -7.2621  -15.6231 O   0  0  0  0  0  0  0  0  0  0  0  0
   20.0388   -5.7588  -14.0808 N   0  0  0  0  0  0  0  0  0  0  0  0
   21.0213   -4.7302  -14.2306 C   0  0  1  0  0  0  0  0  0  0  0  0
   20.5359   -3.3842  -13.7852 C   0  0  0  0  0  0  0  0  0  0  0  0
   19.3010   -2.9726  -14.4886 C   0  0  0  0  0  0  0  0  0  0  0  0
   19.0897   -3.2653  -15.6913 O   0  0  0  0  0  0  0  0  0  0  0  0
   22.3748   -5.0454  -13.7518 C   0  0  0  0  0  0  0  0  0  0  0  0
   22.6236   -6.0827  -12.8982 O   0  0  0  0  0  0  0  0  0  0  0  0
   18.3427   -2.2417  -13.8085 O   0  0  0  0  0  0  0  0  0  0  0  0
   23.3310   -4.3370  -14.1453 O   0  0  0  0  0  0  0  0  0  0  0  0
  2  1  1  0
  3  2  2  0
  4  2  1  0
  5  6  1  1
  5  4  1  0
  7  5  1  0
  8  7  2  0
  9  7  1  0
 10 11  1  0
 10  9  1  0
 11 13  1  0
 12 11  2  0
 13 14  1  0
 14 18  1  0
 14 15  1  1
 15 16  1  0
 16 17  2  0
 18 21  2  0
 18 19  1  0
 20 16  1  0
M  END
$$$$
