NGD.pdb
     RDKit          3D

 21 20  0  0  1  0  0  0  0  0999 V2000
   15.1110  -12.9886  -15.7887 N   0  0  0  0  0  0  0  0  0  0  0  0
   15.9912  -13.8106  -15.0445 C   0  0  0  0  0  0  0  0  0  0  0  0
   15.5899  -14.5600  -14.1397 O   0  0  0  0  0  0  0  0  0  0  0  0
   17.4321  -13.7736  -15.3562 C   0  0  0  0  0  0  0  0  0  0  0  0
   17.6421  -12.7108  -16.4342 C   0  0  2  0  0  0  0  0  0  0  0  0
   17.7150  -13.3289  -17.7426 N   0  0  0  0  0  0  0  0  0  0  0  0
   18.9704  -12.1025  -16.1416 C   0  0  0  0  0  0  0  0  0  0  0  0
   20.0262  -12.5712  -16.6798 O   0  0  0  0  0  0  0  0  0  0  0  0
   19.1064  -10.9898  -15.2596 N   0  0  0  0  0  0  0  0  0  0  0  0
   20.3779  -10.3340  -15.1789 C   0  0  0  0  0  0  0  0  0  0  0  0
   20.2309   -8.8457  -15.1009 C   0  0  0  0  0  0  0  0  0  0  0  0
   19.0893   -8.3637  -15.2538 O   0  0  0  0  0  0  0  0  0  0  0  0
   21.3123   -7.9833  -14.8664 N   0  0  0  0  0  0  0  0  0  0  0  0
   21.2913   -6.5627  -14.7011 C   0  0  1  0  0  0  0  0  0  0  0  0
   22.5343   -6.0273  -14.0579 C   0  0  0  0  0  0  0  0  0  0  0  0
   22.4229   -4.5878  -13.7346 C   0  0  0  0  0  0  0  0  0  0  0  0
   23.0445   -3.7092  -14.3814 O   0  0  0  0  0  0  0  0  0  0  0  0
   20.8563   -5.7764  -15.8644 C   0  0  0  0  0  0  0  0  0  0  0  0
   19.9945   -4.7224  -15.7516 O   0  0  0  0  0  0  0  0  0  0  0  0
   21.6107   -4.1869  -12.6883 O   0  0  0  0  0  0  0  0  0  0  0  0
   21.2964   -6.0856  -16.9965 O   0  0  0  0  0  0  0  0  0  0  0  0
  2  1  1  0
  3  2  2  0
  4  2  1  0
  5  6  1  6
  5  4  1  0
  7  5  1  0
  8  7  2  0
  9  7  1  0
 10 11  1  0
 10  9  1  0
 11 13  1  0
 12 11  2  0
 13 14  1  0
 14 18  1  0
 14 15  1  6
 15 16  1  0
 16 17  2  0
 18 21  2  0
 18 19  1  0
 20 16  1  0
M  END
$$$$
