NGD.pdb
     RDKit          3D

 21 20  0  0  1  0  0  0  0  0999 V2000
   15.5962  -14.6444  -14.7339 N   0  0  0  0  0  0  0  0  0  0  0  0
   16.9220  -15.1314  -14.8314 C   0  0  0  0  0  0  0  0  0  0  0  0
   17.3161  -16.1114  -14.1790 O   0  0  0  0  0  0  0  0  0  0  0  0
   17.8641  -14.4504  -15.7387 C   0  0  0  0  0  0  0  0  0  0  0  0
   17.1527  -13.2203  -16.3014 C   0  0  2  0  0  0  0  0  0  0  0  0
   16.4593  -13.5574  -17.5281 N   0  0  0  0  0  0  0  0  0  0  0  0
   18.2346  -12.2530  -16.6390 C   0  0  0  0  0  0  0  0  0  0  0  0
   18.9250  -12.4032  -17.6996 O   0  0  0  0  0  0  0  0  0  0  0  0
   18.5333  -11.1403  -15.7981 N   0  0  0  0  0  0  0  0  0  0  0  0
   19.5870  -10.2518  -16.1902 C   0  0  0  0  0  0  0  0  0  0  0  0
   19.6256   -9.0242  -15.3334 C   0  0  0  0  0  0  0  0  0  0  0  0
   18.7348   -8.8882  -14.4690 O   0  0  0  0  0  0  0  0  0  0  0  0
   20.6105   -8.0337  -15.4631 N   0  0  0  0  0  0  0  0  0  0  0  0
   20.7127   -6.7906  -14.7629 C   0  0  1  0  0  0  0  0  0  0  0  0
   22.1151   -6.2666  -14.6970 C   0  0  0  0  0  0  0  0  0  0  0  0
   22.2274   -5.0731  -13.8299 C   0  0  0  0  0  0  0  0  0  0  0  0
   21.3610   -4.7933  -12.9652 O   0  0  0  0  0  0  0  0  0  0  0  0
   19.7252   -5.7600  -15.1146 C   0  0  0  0  0  0  0  0  0  0  0  0
   18.8833   -5.2106  -14.1897 O   0  0  0  0  0  0  0  0  0  0  0  0
   23.3179   -4.2324  -13.9684 O   0  0  0  0  0  0  0  0  0  0  0  0
   19.6593   -5.3732  -16.3049 O   0  0  0  0  0  0  0  0  0  0  0  0
  2  1  1  0
  3  2  2  0
  4  2  1  0
  5  6  1  6
  5  4  1  0
  7  5  1  0
  8  7  2  0
  9  7  1  0
 10 11  1  0
 10  9  1  0
 11 13  1  0
 12 11  2  0
 13 14  1  0
 14 18  1  0
 14 15  1  6
 15 16  1  0
 16 17  2  0
 18 21  2  0
 18 19  1  0
 20 16  1  0
M  END
$$$$
