NGD.pdb
     RDKit          3D

 21 20  0  0  1  0  0  0  0  0999 V2000
   24.2177  -14.2999  -14.8714 N   0  0  0  0  0  0  0  0  0  0  0  0
   23.5504  -14.3466  -16.1192 C   0  0  0  0  0  0  0  0  0  0  0  0
   23.0287  -15.3869  -16.5515 O   0  0  0  0  0  0  0  0  0  0  0  0
   23.4739  -13.1174  -16.9304 C   0  0  0  0  0  0  0  0  0  0  0  0
   24.1621  -12.0032  -16.1426 C   0  0  2  0  0  0  0  0  0  0  0  0
   23.4120  -11.6993  -14.9409 N   0  0  0  0  0  0  0  0  0  0  0  0
   24.1167  -10.8036  -17.0253 C   0  0  0  0  0  0  0  0  0  0  0  0
   24.9275  -10.6915  -18.0019 O   0  0  0  0  0  0  0  0  0  0  0  0
   23.1778   -9.7514  -16.8110 N   0  0  0  0  0  0  0  0  0  0  0  0
   23.1491   -8.6621  -17.7415 C   0  0  0  0  0  0  0  0  0  0  0  0
   22.9004   -7.3537  -17.0568 C   0  0  0  0  0  0  0  0  0  0  0  0
   22.5408   -7.3802  -15.8614 O   0  0  0  0  0  0  0  0  0  0  0  0
   23.0530   -6.1155  -17.6984 N   0  0  0  0  0  0  0  0  0  0  0  0
   22.8264   -4.8082  -17.1640 C   0  0  1  0  0  0  0  0  0  0  0  0
   23.4562   -4.6054  -15.8195 C   0  0  0  0  0  0  0  0  0  0  0  0
   23.1098   -3.2932  -15.2302 C   0  0  0  0  0  0  0  0  0  0  0  0
   22.0036   -3.0831  -14.6744 O   0  0  0  0  0  0  0  0  0  0  0  0
   23.0446   -3.6808  -18.0818 C   0  0  0  0  0  0  0  0  0  0  0  0
   22.5672   -2.4271  -17.8237 O   0  0  0  0  0  0  0  0  0  0  0  0
   24.0268   -2.2585  -15.2883 O   0  0  0  0  0  0  0  0  0  0  0  0
   23.6943   -3.8810  -19.1347 O   0  0  0  0  0  0  0  0  0  0  0  0
  2  1  1  0
  3  2  2  0
  4  2  1  0
  5  6  1  1
  5  4  1  0
  7  5  1  0
  8  7  2  0
  9  7  1  0
 10 11  1  0
 10  9  1  0
 11 13  1  0
 12 11  2  0
 13 14  1  0
 14 18  1  0
 14 15  1  1
 15 16  1  0
 16 17  2  0
 18 21  2  0
 18 19  1  0
 20 16  1  0
M  END
$$$$
