NGD.pdb
     RDKit          3D

 21 20  0  0  1  0  0  0  0  0999 V2000
   22.4811  -17.4239  -21.0601 N   0  0  0  0  0  0  0  0  0  0  0  0
   22.2668  -17.9383  -19.7586 C   0  0  0  0  0  0  0  0  0  0  0  0
   21.9722  -19.1276  -19.5579 O   0  0  0  0  0  0  0  0  0  0  0  0
   22.3986  -17.0296  -18.6047 C   0  0  0  0  0  0  0  0  0  0  0  0
   22.6943  -15.6331  -19.1508 C   0  0  2  0  0  0  0  0  0  0  0  0
   24.1188  -15.4637  -19.3542 N   0  0  0  0  0  0  0  0  0  0  0  0
   22.2700  -14.6877  -18.0802 C   0  0  0  0  0  0  0  0  0  0  0  0
   22.3160  -15.0383  -16.8560 O   0  0  0  0  0  0  0  0  0  0  0  0
   21.8020  -13.3748  -18.3830 N   0  0  0  0  0  0  0  0  0  0  0  0
   21.5564  -12.4706  -17.2989 C   0  0  0  0  0  0  0  0  0  0  0  0
   21.0692  -11.1405  -17.7848 C   0  0  0  0  0  0  0  0  0  0  0  0
   20.9863  -10.9650  -19.0183 O   0  0  0  0  0  0  0  0  0  0  0  0
   20.7077  -10.0974  -16.9192 N   0  0  0  0  0  0  0  0  0  0  0  0
   20.1241   -8.8344  -17.2510 C   0  0  1  0  0  0  0  0  0  0  0  0
   18.9527   -8.4825  -16.3853 C   0  0  0  0  0  0  0  0  0  0  0  0
   19.3633   -8.0878  -15.0197 C   0  0  0  0  0  0  0  0  0  0  0  0
   20.1525   -8.7831  -14.3337 O   0  0  0  0  0  0  0  0  0  0  0  0
   21.0569   -7.7153  -17.4463 C   0  0  0  0  0  0  0  0  0  0  0  0
   20.7321   -6.6160  -18.1896 O   0  0  0  0  0  0  0  0  0  0  0  0
   18.8676   -6.9174  -14.4723 O   0  0  0  0  0  0  0  0  0  0  0  0
   22.1871   -7.7749  -16.9079 O   0  0  0  0  0  0  0  0  0  0  0  0
  2  1  1  0
  3  2  2  0
  4  2  1  0
  5  6  1  1
  5  4  1  0
  7  5  1  0
  8  7  2  0
  9  7  1  0
 10 11  1  0
 10  9  1  0
 11 13  1  0
 12 11  2  0
 13 14  1  0
 14 18  1  0
 14 15  1  1
 15 16  1  0
 16 17  2  0
 18 21  2  0
 18 19  1  0
 20 16  1  0
M  END
$$$$
