NGD.pdb
     RDKit          3D

 21 20  0  0  1  0  0  0  0  0999 V2000
   16.4276  -14.2552  -16.3700 N   0  0  0  0  0  0  0  0  0  0  0  0
   17.0753  -13.6714  -17.4853 C   0  0  0  0  0  0  0  0  0  0  0  0
   17.4097  -14.3367  -18.4787 O   0  0  0  0  0  0  0  0  0  0  0  0
   17.3612  -12.2248  -17.4640 C   0  0  0  0  0  0  0  0  0  0  0  0
   16.7934  -11.6631  -16.1610 C   0  0  2  0  0  0  0  0  0  0  0  0
   15.9706  -10.5014  -16.4302 N   0  0  0  0  0  0  0  0  0  0  0  0
   17.9747  -11.2136  -15.3719 C   0  0  0  0  0  0  0  0  0  0  0  0
   18.4995  -11.9836  -14.5026 O   0  0  0  0  0  0  0  0  0  0  0  0
   18.5517   -9.9225  -15.5575 N   0  0  0  0  0  0  0  0  0  0  0  0
   19.7060   -9.5729  -14.7836 C   0  0  0  0  0  0  0  0  0  0  0  0
   20.2343   -8.2216  -15.1541 C   0  0  0  0  0  0  0  0  0  0  0  0
   20.0144   -7.8066  -16.3111 O   0  0  0  0  0  0  0  0  0  0  0  0
   20.9579   -7.4146  -14.2635 N   0  0  0  0  0  0  0  0  0  0  0  0
   21.2569   -6.0204  -14.3761 C   0  0  1  0  0  0  0  0  0  0  0  0
   20.0445   -5.1781  -14.6334 C   0  0  0  0  0  0  0  0  0  0  0  0
   20.3847   -3.7523  -14.8345 C   0  0  0  0  0  0  0  0  0  0  0  0
   21.4956   -3.3905  -15.2947 O   0  0  0  0  0  0  0  0  0  0  0  0
   22.1454   -5.4581  -13.3488 C   0  0  0  0  0  0  0  0  0  0  0  0
   23.0130   -4.4368  -13.6143 O   0  0  0  0  0  0  0  0  0  0  0  0
   19.4563   -2.7793  -14.5084 O   0  0  0  0  0  0  0  0  0  0  0  0
   22.0996   -5.9335  -12.1900 O   0  0  0  0  0  0  0  0  0  0  0  0
  2  1  1  0
  3  2  2  0
  4  2  1  0
  5  6  1  6
  5  4  1  0
  7  5  1  0
  8  7  2  0
  9  7  1  0
 10 11  1  0
 10  9  1  0
 11 13  1  0
 12 11  2  0
 13 14  1  0
 14 18  1  0
 14 15  1  1
 15 16  1  0
 16 17  2  0
 18 21  2  0
 18 19  1  0
 20 16  1  0
M  END
$$$$
