FDH.pdb
     RDKit          3D

 30 31  0  0  1  0  0  0  0  0999 V2000
   13.3702  -18.4054    2.9843 N   0  0  0  0  0  0  0  0  0  0  0  0
   14.7887  -18.1272    2.8927 C   0  0  1  0  0  0  0  0  0  0  0  0
   15.0747  -16.7998    2.2535 C   0  0  0  0  0  0  0  0  0  0  0  0
   16.5149  -16.5538    2.0409 C   0  0  0  0  0  0  0  0  0  0  0  0
   17.0934  -15.4429    2.6211 C   0  0  0  0  0  0  0  0  0  0  0  0
   18.4352  -15.1870    2.4405 C   0  0  0  0  0  0  0  0  0  0  0  0
   19.2133  -16.0380    1.6785 C   0  0  0  0  0  0  0  0  0  0  0  0
   18.6215  -17.1314    1.1134 C   0  0  0  0  0  0  0  0  0  0  0  0
   17.2829  -17.4106    1.2779 C   0  0  0  0  0  0  0  0  0  0  0  0
   15.3766  -18.0925    4.2666 C   0  0  0  0  0  0  0  0  0  0  0  0
   14.7243  -17.4049    5.1165 O   0  0  0  0  0  0  0  0  0  0  0  0
   16.5611  -18.7764    4.5695 N   0  0  0  0  0  0  0  0  0  0  0  0
   17.1315  -18.6999    5.8850 C   0  0  1  0  0  0  0  0  0  0  0  0
   17.9017  -19.9104    6.3015 C   0  0  0  0  0  0  0  0  0  0  0  0
   17.0165  -21.0912    6.3253 C   0  0  0  0  0  0  0  0  0  0  0  0
   15.7743  -21.0516    6.4845 O   0  0  0  0  0  0  0  0  0  0  0  0
   17.9734  -17.4669    6.0386 C   0  0  0  0  0  0  0  0  0  0  0  0
   18.3155  -16.8354    5.0088 O   0  0  0  0  0  0  0  0  0  0  0  0
   17.6043  -22.3639    6.1570 O   0  0  0  0  0  0  0  0  0  0  0  0
   18.3942  -16.9934    7.3102 N   0  0  0  0  0  0  0  0  0  0  0  0
   19.1138  -15.7184    7.4446 C   0  0  1  0  0  0  0  0  0  0  0  0
   18.2241  -14.6218    6.8446 C   0  0  0  0  0  0  0  0  0  0  0  0
   18.8687  -13.3012    7.0295 C   0  0  0  0  0  0  0  0  0  0  0  0
   20.2228  -13.0446    7.0458 C   0  0  0  0  0  0  0  0  0  0  0  0
   20.3815  -11.7264    7.2382 N   0  0  0  0  0  0  0  0  0  0  0  0
   19.1778  -11.1605    7.3411 C   0  0  0  0  0  0  0  0  0  0  0  0
   18.2623  -12.1350    7.2116 N   0  0  0  0  0  0  0  0  0  0  0  0
   19.3046  -15.4549    8.8903 C   0  0  0  0  0  0  0  0  0  0  0  0
   18.5943  -16.0439    9.7722 O   0  0  0  0  0  0  0  0  0  0  0  0
   20.2543  -14.5648    9.3506 O   0  0  0  0  0  0  0  0  0  0  0  0
  2  1  1  1
  2 10  1  0
  3  2  1  0
  3  4  1  0
  4  5  2  0
  4  9  1  0
  5  6  1  0
  6  7  2  0
  8  7  1  0
  9  8  2  0
 10 11  2  0
 12 10  1  0
 12 13  1  0
 13 17  1  0
 13 14  1  6
 14 15  1  0
 15 16  2  0
 17 18  2  0
 19 15  1  0
 20 21  1  0
 20 17  1  0
 21 28  1  0
 21 22  1  1
 23 22  1  0
 24 23  2  0
 25 24  1  0
 26 25  1  0
 26 27  2  0
 27 23  1  0
 28 29  2  0
 28 30  1  0
M  END
$$$$
