FDH.pdb
     RDKit          3D

 30 31  0  0  1  0  0  0  0  0999 V2000
   23.8826  -17.5912  -19.4182 N   0  0  0  0  0  0  0  0  0  0  0  0
   23.5786  -18.1688  -18.1251 C   0  0  1  0  0  0  0  0  0  0  0  0
   23.4606  -17.1329  -17.0456 C   0  0  0  0  0  0  0  0  0  0  0  0
   22.5908  -15.9996  -17.4184 C   0  0  0  0  0  0  0  0  0  0  0  0
   21.3081  -15.9496  -16.9109 C   0  0  0  0  0  0  0  0  0  0  0  0
   20.4732  -14.9044  -17.2411 C   0  0  0  0  0  0  0  0  0  0  0  0
   20.9106  -13.8981  -18.0814 C   0  0  0  0  0  0  0  0  0  0  0  0
   22.1831  -13.9665  -18.5726 C   0  0  0  0  0  0  0  0  0  0  0  0
   23.0380  -14.9996  -18.2588 C   0  0  0  0  0  0  0  0  0  0  0  0
   22.2679  -18.8836  -18.1976 C   0  0  0  0  0  0  0  0  0  0  0  0
   21.5468  -18.5898  -19.2046 O   0  0  0  0  0  0  0  0  0  0  0  0
   21.8858  -19.8055  -17.2144 N   0  0  0  0  0  0  0  0  0  0  0  0
   20.5777  -20.3972  -17.2383 C   0  0  1  0  0  0  0  0  0  0  0  0
   20.5690  -21.8838  -17.3873 C   0  0  0  0  0  0  0  0  0  0  0  0
   21.1585  -22.2668  -18.6851 C   0  0  0  0  0  0  0  0  0  0  0  0
   22.3380  -22.6565  -18.8485 O   0  0  0  0  0  0  0  0  0  0  0  0
   19.7769  -19.9882  -16.0366 C   0  0  0  0  0  0  0  0  0  0  0  0
   20.3511  -19.3654  -15.1099 O   0  0  0  0  0  0  0  0  0  0  0  0
   20.3399  -22.1915  -19.8330 O   0  0  0  0  0  0  0  0  0  0  0  0
   18.3925  -20.2831  -15.9156 N   0  0  0  0  0  0  0  0  0  0  0  0
   17.6142  -19.8094  -14.7618 C   0  0  1  0  0  0  0  0  0  0  0  0
   17.6248  -18.2756  -14.7972 C   0  0  0  0  0  0  0  0  0  0  0  0
   18.7089  -17.7651  -13.9268 C   0  0  0  0  0  0  0  0  0  0  0  0
   20.0398  -17.6396  -14.2625 C   0  0  0  0  0  0  0  0  0  0  0  0
   20.6801  -17.1404  -13.1945 N   0  0  0  0  0  0  0  0  0  0  0  0
   19.7957  -16.9533  -12.2136 C   0  0  0  0  0  0  0  0  0  0  0  0
   18.5947  -17.3394  -12.6752 N   0  0  0  0  0  0  0  0  0  0  0  0
   16.2222  -20.2913  -14.9244 C   0  0  0  0  0  0  0  0  0  0  0  0
   15.8673  -20.9623  -15.9504 O   0  0  0  0  0  0  0  0  0  0  0  0
   15.2478  -20.0392  -13.9794 O   0  0  0  0  0  0  0  0  0  0  0  0
  2  1  1  6
  2 10  1  0
  3  2  1  0
  3  4  1  0
  4  5  2  0
  4  9  1  0
  5  6  1  0
  6  7  2  0
  8  7  1  0
  9  8  2  0
 10 11  2  0
 12 10  1  0
 12 13  1  0
 13 17  1  0
 13 14  1  1
 14 15  1  0
 15 16  2  0
 17 18  2  0
 19 15  1  0
 20 21  1  0
 20 17  1  0
 21 28  1  0
 21 22  1  6
 23 22  1  0
 24 23  2  0
 25 24  1  0
 26 25  1  0
 26 27  2  0
 27 23  1  0
 28 29  2  0
 28 30  1  0
M  END
$$$$
