FDH.pdb
     RDKit          3D

 30 31  0  0  1  0  0  0  0  0999 V2000
   28.0670  -21.4769   -8.7350 N   0  0  0  0  0  0  0  0  0  0  0  0
   26.7998  -20.8417   -8.4368 C   0  0  1  0  0  0  0  0  0  0  0  0
   26.9671  -19.5236   -7.7391 C   0  0  0  0  0  0  0  0  0  0  0  0
   27.7137  -19.6271   -6.4695 C   0  0  0  0  0  0  0  0  0  0  0  0
   28.2117  -20.8567   -6.0883 C   0  0  0  0  0  0  0  0  0  0  0  0
   28.9124  -20.9844   -4.9088 C   0  0  0  0  0  0  0  0  0  0  0  0
   29.1231  -19.8854   -4.0977 C   0  0  0  0  0  0  0  0  0  0  0  0
   28.6221  -18.6780   -4.4932 C   0  0  0  0  0  0  0  0  0  0  0  0
   27.9183  -18.5226   -5.6668 C   0  0  0  0  0  0  0  0  0  0  0  0
   26.0660  -20.5773   -9.7119 C   0  0  0  0  0  0  0  0  0  0  0  0
   25.2128  -19.6341   -9.6590 O   0  0  0  0  0  0  0  0  0  0  0  0
   26.3187  -21.3288  -10.8669 N   0  0  0  0  0  0  0  0  0  0  0  0
   25.6041  -21.0597  -12.0830 C   0  0  1  0  0  0  0  0  0  0  0  0
   26.0945  -21.8165  -13.2742 C   0  0  0  0  0  0  0  0  0  0  0  0
   26.8846  -20.9284  -14.1491 C   0  0  0  0  0  0  0  0  0  0  0  0
   26.9773  -19.6864  -14.0123 O   0  0  0  0  0  0  0  0  0  0  0  0
   24.1292  -21.2701  -11.9015 C   0  0  0  0  0  0  0  0  0  0  0  0
   23.5861  -20.8683  -10.8432 O   0  0  0  0  0  0  0  0  0  0  0  0
   27.5917  -21.5130  -15.2222 O   0  0  0  0  0  0  0  0  0  0  0  0
   23.3304  -21.9083  -12.8880 N   0  0  0  0  0  0  0  0  0  0  0  0
   21.9865  -21.4095  -13.2146 C   0  0  1  0  0  0  0  0  0  0  0  0
   22.1549  -20.0488  -13.9032 C   0  0  0  0  0  0  0  0  0  0  0  0
   21.3511  -19.0282  -13.1919 C   0  0  0  0  0  0  0  0  0  0  0  0
   20.6422  -19.2103  -12.0241 C   0  0  0  0  0  0  0  0  0  0  0  0
   20.0579  -18.0414  -11.7202 N   0  0  0  0  0  0  0  0  0  0  0  0
   20.3791  -17.1460  -12.6554 C   0  0  0  0  0  0  0  0  0  0  0  0
   21.1702  -17.7630  -13.5488 N   0  0  0  0  0  0  0  0  0  0  0  0
   21.3668  -22.3634  -14.1645 C   0  0  0  0  0  0  0  0  0  0  0  0
   22.0564  -22.9427  -15.0688 O   0  0  0  0  0  0  0  0  0  0  0  0
   20.0214  -22.6696  -14.1173 O   0  0  0  0  0  0  0  0  0  0  0  0
  2  1  1  6
  2 10  1  0
  3  2  1  0
  3  4  1  0
  4  5  2  0
  4  9  1  0
  5  6  1  0
  6  7  2  0
  8  7  1  0
  9  8  2  0
 10 11  2  0
 12 10  1  0
 12 13  1  0
 13 17  1  0
 13 14  1  6
 14 15  1  0
 15 16  2  0
 17 18  2  0
 19 15  1  0
 20 21  1  0
 20 17  1  0
 21 28  1  0
 21 22  1  6
 23 22  1  0
 24 23  2  0
 25 24  1  0
 26 25  1  0
 26 27  2  0
 27 23  1  0
 28 29  2  0
 28 30  1  0
M  END
$$$$
