FDH.pdb
     RDKit          3D

 30 31  0  0  1  0  0  0  0  0999 V2000
   28.1804  -18.8683  -12.5263 N   0  0  0  0  0  0  0  0  0  0  0  0
   27.4478  -20.0015  -13.0529 C   0  0  1  0  0  0  0  0  0  0  0  0
   27.3230  -21.1185  -12.0584 C   0  0  0  0  0  0  0  0  0  0  0  0
   28.6104  -21.4961  -11.4419 C   0  0  0  0  0  0  0  0  0  0  0  0
   29.6004  -22.0303  -12.2419 C   0  0  0  0  0  0  0  0  0  0  0  0
   30.8122  -22.3922  -11.6950 C   0  0  0  0  0  0  0  0  0  0  0  0
   31.0479  -22.2244  -10.3435 C   0  0  0  0  0  0  0  0  0  0  0  0
   30.0552  -21.6943   -9.5699 C   0  0  0  0  0  0  0  0  0  0  0  0
   28.8351  -21.3241  -10.0906 C   0  0  0  0  0  0  0  0  0  0  0  0
   26.0619  -19.5719  -13.4120 C   0  0  0  0  0  0  0  0  0  0  0  0
   25.4829  -18.8370  -12.5487 O   0  0  0  0  0  0  0  0  0  0  0  0
   25.4673  -19.9644  -14.6182 N   0  0  0  0  0  0  0  0  0  0  0  0
   24.1357  -19.5396  -14.9471 C   0  0  1  0  0  0  0  0  0  0  0  0
   24.0048  -18.8748  -16.2787 C   0  0  0  0  0  0  0  0  0  0  0  0
   22.6165  -18.4170  -16.4825 C   0  0  0  0  0  0  0  0  0  0  0  0
   21.7411  -19.0475  -17.1197 O   0  0  0  0  0  0  0  0  0  0  0  0
   23.1617  -20.6759  -14.8328 C   0  0  0  0  0  0  0  0  0  0  0  0
   23.4658  -21.7864  -15.3335 O   0  0  0  0  0  0  0  0  0  0  0  0
   22.2380  -17.1779  -15.9216 O   0  0  0  0  0  0  0  0  0  0  0  0
   21.9095  -20.5340  -14.1771 N   0  0  0  0  0  0  0  0  0  0  0  0
   21.0203  -21.6886  -13.9823 C   0  0  1  0  0  0  0  0  0  0  0  0
   21.7063  -22.6361  -12.9895 C   0  0  0  0  0  0  0  0  0  0  0  0
   22.4212  -23.7008  -13.7303 C   0  0  0  0  0  0  0  0  0  0  0  0
   22.3893  -23.9161  -15.0913 C   0  0  0  0  0  0  0  0  0  0  0  0
   23.1703  -24.9756  -15.3508 N   0  0  0  0  0  0  0  0  0  0  0  0
   23.6824  -25.4217  -14.2026 C   0  0  0  0  0  0  0  0  0  0  0  0
   23.2159  -24.6330  -13.2203 N   0  0  0  0  0  0  0  0  0  0  0  0
   19.7559  -21.1929  -13.3893 C   0  0  0  0  0  0  0  0  0  0  0  0
   19.5737  -19.9514  -13.1559 O   0  0  0  0  0  0  0  0  0  0  0  0
   18.7200  -22.0451  -13.0625 O   0  0  0  0  0  0  0  0  0  0  0  0
  2  1  1  1
  2 10  1  0
  3  2  1  0
  3  4  1  0
  4  5  2  0
  4  9  1  0
  5  6  1  0
  6  7  2  0
  8  7  1  0
  9  8  2  0
 10 11  2  0
 12 10  1  0
 12 13  1  0
 13 17  1  0
 13 14  1  6
 14 15  1  0
 15 16  2  0
 17 18  2  0
 19 15  1  0
 20 21  1  0
 20 17  1  0
 21 28  1  0
 21 22  1  1
 23 22  1  0
 24 23  2  0
 25 24  1  0
 26 25  1  0
 26 27  2  0
 27 23  1  0
 28 29  2  0
 28 30  1  0
M  END
$$$$
