FDH.pdb
     RDKit          3D

 30 31  0  0  1  0  0  0  0  0999 V2000
   24.5845  -20.3781   -8.1031 N   0  0  0  0  0  0  0  0  0  0  0  0
   25.7465  -20.0336   -8.8962 C   0  0  1  0  0  0  0  0  0  0  0  0
   26.9927  -20.7209   -8.4197 C   0  0  0  0  0  0  0  0  0  0  0  0
   27.4925  -20.1952   -7.1338 C   0  0  0  0  0  0  0  0  0  0  0  0
   27.7114  -21.0764   -6.0941 C   0  0  0  0  0  0  0  0  0  0  0  0
   28.1775  -20.6153   -4.8822 C   0  0  0  0  0  0  0  0  0  0  0  0
   28.4298  -19.2692   -4.6960 C   0  0  0  0  0  0  0  0  0  0  0  0
   28.2066  -18.4143   -5.7373 C   0  0  0  0  0  0  0  0  0  0  0  0
   27.7412  -18.8485   -6.9587 C   0  0  0  0  0  0  0  0  0  0  0  0
   25.5225  -20.4557  -10.3126 C   0  0  0  0  0  0  0  0  0  0  0  0
   24.4129  -21.0390  -10.5338 O   0  0  0  0  0  0  0  0  0  0  0  0
   26.4815  -20.2141  -11.3048 N   0  0  0  0  0  0  0  0  0  0  0  0
   26.1143  -20.2285  -12.6929 C   0  0  1  0  0  0  0  0  0  0  0  0
   27.0753  -19.5299  -13.5988 C   0  0  0  0  0  0  0  0  0  0  0  0
   26.8319  -18.0745  -13.5710 C   0  0  0  0  0  0  0  0  0  0  0  0
   25.7159  -17.5388  -13.3776 O   0  0  0  0  0  0  0  0  0  0  0  0
   25.8682  -21.6291  -13.1728 C   0  0  0  0  0  0  0  0  0  0  0  0
   26.4940  -22.5732  -12.6313 O   0  0  0  0  0  0  0  0  0  0  0  0
   27.9325  -17.2143  -13.7764 O   0  0  0  0  0  0  0  0  0  0  0  0
   24.9510  -21.9189  -14.2184 N   0  0  0  0  0  0  0  0  0  0  0  0
   24.3692  -23.2609  -14.3665 C   0  0  1  0  0  0  0  0  0  0  0  0
   23.5255  -23.5380  -13.1154 C   0  0  0  0  0  0  0  0  0  0  0  0
   22.7847  -24.8091  -13.2859 C   0  0  0  0  0  0  0  0  0  0  0  0
   22.8689  -25.6696  -14.3593 C   0  0  0  0  0  0  0  0  0  0  0  0
   22.0395  -26.6965  -14.1193 N   0  0  0  0  0  0  0  0  0  0  0  0
   21.4475  -26.5023  -12.9397 C   0  0  0  0  0  0  0  0  0  0  0  0
   21.9125  -25.3447  -12.4415 N   0  0  0  0  0  0  0  0  0  0  0  0
   23.4861  -23.2440  -15.5564 C   0  0  0  0  0  0  0  0  0  0  0  0
   23.4488  -24.2269  -16.3698 O   0  0  0  0  0  0  0  0  0  0  0  0
   22.6658  -22.1706  -15.8410 O   0  0  0  0  0  0  0  0  0  0  0  0
  2  1  1  1
  2 10  1  0
  3  2  1  0
  3  4  1  0
  4  5  2  0
  4  9  1  0
  5  6  1  0
  6  7  2  0
  8  7  1  0
  9  8  2  0
 10 11  2  0
 12 10  1  0
 12 13  1  0
 13 17  1  0
 13 14  1  6
 14 15  1  0
 15 16  2  0
 17 18  2  0
 19 15  1  0
 20 21  1  0
 20 17  1  0
 21 28  1  0
 21 22  1  1
 23 22  1  0
 24 23  2  0
 25 24  1  0
 26 25  1  0
 26 27  2  0
 27 23  1  0
 28 29  2  0
 28 30  1  0
M  END
$$$$
