FDH.pdb
     RDKit          3D

 30 31  0  0  1  0  0  0  0  0999 V2000
   19.3639   -8.9994  -14.7161 N   0  0  0  0  0  0  0  0  0  0  0  0
   19.7776   -8.2790  -13.5296 C   0  0  1  0  0  0  0  0  0  0  0  0
   21.1111   -7.6113  -13.6975 C   0  0  0  0  0  0  0  0  0  0  0  0
   22.2009   -8.5570  -14.0102 C   0  0  0  0  0  0  0  0  0  0  0  0
   22.5050   -9.5476  -13.0982 C   0  0  0  0  0  0  0  0  0  0  0  0
   23.5169  -10.4447  -13.3622 C   0  0  0  0  0  0  0  0  0  0  0  0
   24.2357  -10.3620  -14.5398 C   0  0  0  0  0  0  0  0  0  0  0  0
   23.9189   -9.3746  -15.4286 C   0  0  0  0  0  0  0  0  0  0  0  0
   22.9125   -8.4652  -15.1897 C   0  0  0  0  0  0  0  0  0  0  0  0
   18.7807   -7.2068  -13.2283 C   0  0  0  0  0  0  0  0  0  0  0  0
   17.9573   -6.9551  -14.1659 O   0  0  0  0  0  0  0  0  0  0  0  0
   18.7756   -6.5429  -11.9946 N   0  0  0  0  0  0  0  0  0  0  0  0
   17.7774   -5.5527  -11.7033 C   0  0  1  0  0  0  0  0  0  0  0  0
   17.6599   -5.1928  -10.2580 C   0  0  0  0  0  0  0  0  0  0  0  0
   16.7947   -6.1652   -9.5621 C   0  0  0  0  0  0  0  0  0  0  0  0
   16.3764   -7.2361  -10.0602 O   0  0  0  0  0  0  0  0  0  0  0  0
   17.9808   -4.3191  -12.5337 C   0  0  0  0  0  0  0  0  0  0  0  0
   19.1322   -3.8245  -12.6111 O   0  0  0  0  0  0  0  0  0  0  0  0
   16.4044   -5.8755   -8.2365 O   0  0  0  0  0  0  0  0  0  0  0  0
   16.9133   -3.6953  -13.2334 N   0  0  0  0  0  0  0  0  0  0  0  0
   17.1382   -2.4853  -14.0377 C   0  0  1  0  0  0  0  0  0  0  0  0
   16.3052   -2.6223  -15.3188 C   0  0  0  0  0  0  0  0  0  0  0  0
   16.9514   -3.5936  -16.2313 C   0  0  0  0  0  0  0  0  0  0  0  0
   18.2845   -3.6300  -16.5796 C   0  0  0  0  0  0  0  0  0  0  0  0
   18.4533   -4.6596  -17.4230 N   0  0  0  0  0  0  0  0  0  0  0  0
   17.2762   -5.2592  -17.6080 C   0  0  0  0  0  0  0  0  0  0  0  0
   16.3671   -4.5970  -16.8734 N   0  0  0  0  0  0  0  0  0  0  0  0
   16.6470   -1.3244  -13.2585 C   0  0  0  0  0  0  0  0  0  0  0  0
   16.7458   -0.1336  -13.7073 O   0  0  0  0  0  0  0  0  0  0  0  0
   16.0623   -1.4739  -12.0168 O   0  0  0  0  0  0  0  0  0  0  0  0
  2  1  1  6
  2 10  1  0
  3  2  1  0
  3  4  1  0
  4  5  2  0
  4  9  1  0
  5  6  1  0
  6  7  2  0
  8  7  1  0
  9  8  2  0
 10 11  2  0
 12 10  1  0
 12 13  1  0
 13 17  1  0
 13 14  1  1
 14 15  1  0
 15 16  2  0
 17 18  2  0
 19 15  1  0
 20 21  1  0
 20 17  1  0
 21 28  1  0
 21 22  1  6
 23 22  1  0
 24 23  2  0
 25 24  1  0
 26 25  1  0
 26 27  2  0
 27 23  1  0
 28 29  2  0
 28 30  1  0
M  END
$$$$
