FDH.pdb
     RDKit          3D

 30 31  0  0  1  0  0  0  0  0999 V2000
   24.9525  -10.0086  -19.0874 N   0  0  0  0  0  0  0  0  0  0  0  0
   24.1886   -9.8136  -17.8723 C   0  0  1  0  0  0  0  0  0  0  0  0
   25.0026   -9.1944  -16.7740 C   0  0  0  0  0  0  0  0  0  0  0  0
   26.1974   -9.9852  -16.4177 C   0  0  0  0  0  0  0  0  0  0  0  0
   26.0330  -11.1549  -15.7034 C   0  0  0  0  0  0  0  0  0  0  0  0
   27.1292  -11.9141  -15.3563 C   0  0  0  0  0  0  0  0  0  0  0  0
   28.4011  -11.5130  -15.7189 C   0  0  0  0  0  0  0  0  0  0  0  0
   28.5419  -10.3527  -16.4253 C   0  0  0  0  0  0  0  0  0  0  0  0
   27.4635   -9.5752  -16.7851 C   0  0  0  0  0  0  0  0  0  0  0  0
   23.0448   -8.8920  -18.1487 C   0  0  0  0  0  0  0  0  0  0  0  0
   23.2964   -7.9475  -18.9643 O   0  0  0  0  0  0  0  0  0  0  0  0
   21.7965   -9.0775  -17.5403 N   0  0  0  0  0  0  0  0  0  0  0  0
   20.6873   -8.2308  -17.8785 C   0  0  1  0  0  0  0  0  0  0  0  0
   19.6966   -8.8454  -18.8128 C   0  0  0  0  0  0  0  0  0  0  0  0
   20.3424   -9.1582  -20.1026 C   0  0  0  0  0  0  0  0  0  0  0  0
   20.7533  -10.2925  -20.4410 O   0  0  0  0  0  0  0  0  0  0  0  0
   19.9977   -7.7244  -16.6454 C   0  0  0  0  0  0  0  0  0  0  0  0
   19.6784   -8.5449  -15.7503 O   0  0  0  0  0  0  0  0  0  0  0  0
   20.5139   -8.1076  -21.0301 O   0  0  0  0  0  0  0  0  0  0  0  0
   19.6958   -6.3486  -16.4601 N   0  0  0  0  0  0  0  0  0  0  0  0
   19.1081   -5.8638  -15.2027 C   0  0  1  0  0  0  0  0  0  0  0  0
   20.1851   -5.9791  -14.1161 C   0  0  0  0  0  0  0  0  0  0  0  0
   20.0017   -7.2425  -13.3653 C   0  0  0  0  0  0  0  0  0  0  0  0
   19.0626   -8.2188  -13.6199 C   0  0  0  0  0  0  0  0  0  0  0  0
   19.2357   -9.1917  -12.7126 N   0  0  0  0  0  0  0  0  0  0  0  0
   20.2449   -8.8531  -11.9086 C   0  0  0  0  0  0  0  0  0  0  0  0
   20.7037   -7.6592  -12.3193 N   0  0  0  0  0  0  0  0  0  0  0  0
   18.7530   -4.4370  -15.3879 C   0  0  0  0  0  0  0  0  0  0  0  0
   18.9688   -3.8371  -16.4936 O   0  0  0  0  0  0  0  0  0  0  0  0
   18.1751   -3.6921  -14.3793 O   0  0  0  0  0  0  0  0  0  0  0  0
  2  1  1  6
  2 10  1  0
  3  2  1  0
  3  4  1  0
  4  5  2  0
  4  9  1  0
  5  6  1  0
  6  7  2  0
  8  7  1  0
  9  8  2  0
 10 11  2  0
 12 10  1  0
 12 13  1  0
 13 17  1  0
 13 14  1  6
 14 15  1  0
 15 16  2  0
 17 18  2  0
 19 15  1  0
 20 21  1  0
 20 17  1  0
 21 28  1  0
 21 22  1  1
 23 22  1  0
 24 23  2  0
 25 24  1  0
 26 25  1  0
 26 27  2  0
 27 23  1  0
 28 29  2  0
 28 30  1  0
M  END
$$$$
