FDH.pdb
     RDKit          3D

 30 31  0  0  1  0  0  0  0  0999 V2000
   25.0279  -12.9067  -18.6333 N   0  0  0  0  0  0  0  0  0  0  0  0
   25.5931  -11.6076  -18.3317 C   0  0  1  0  0  0  0  0  0  0  0  0
   27.0148  -11.6943  -17.8589 C   0  0  0  0  0  0  0  0  0  0  0  0
   27.2521  -12.8164  -16.9291 C   0  0  0  0  0  0  0  0  0  0  0  0
   27.1137  -12.5982  -15.5731 C   0  0  0  0  0  0  0  0  0  0  0  0
   27.3287  -13.6261  -14.6811 C   0  0  0  0  0  0  0  0  0  0  0  0
   27.6842  -14.8826  -15.1339 C   0  0  0  0  0  0  0  0  0  0  0  0
   27.8158  -15.0773  -16.4792 C   0  0  0  0  0  0  0  0  0  0  0  0
   27.6068  -14.0677  -17.3924 C   0  0  0  0  0  0  0  0  0  0  0  0
   25.5882  -10.7662  -19.5672 C   0  0  0  0  0  0  0  0  0  0  0  0
   25.9647  -11.3611  -20.6278 O   0  0  0  0  0  0  0  0  0  0  0  0
   25.1931   -9.4226  -19.5318 N   0  0  0  0  0  0  0  0  0  0  0  0
   25.1397   -8.6461  -20.7384 C   0  0  1  0  0  0  0  0  0  0  0  0
   24.3279   -9.2543  -21.8353 C   0  0  0  0  0  0  0  0  0  0  0  0
   24.4362   -8.4368  -23.0594 C   0  0  0  0  0  0  0  0  0  0  0  0
   23.7072   -7.4547  -23.3312 O   0  0  0  0  0  0  0  0  0  0  0  0
   24.6761   -7.2459  -20.4605 C   0  0  0  0  0  0  0  0  0  0  0  0
   23.5398   -7.0736  -19.9550 O   0  0  0  0  0  0  0  0  0  0  0  0
   25.4324   -8.7796  -23.9994 O   0  0  0  0  0  0  0  0  0  0  0  0
   25.4815   -6.1122  -20.7508 N   0  0  0  0  0  0  0  0  0  0  0  0
   25.0064   -4.7508  -20.4636 C   0  0  1  0  0  0  0  0  0  0  0  0
   26.2419   -3.8529  -20.3174 C   0  0  0  0  0  0  0  0  0  0  0  0
   25.8158   -2.4560  -20.0714 C   0  0  0  0  0  0  0  0  0  0  0  0
   26.0754   -1.7058  -18.9447 C   0  0  0  0  0  0  0  0  0  0  0  0
   25.5150   -0.5002  -19.1246 N   0  0  0  0  0  0  0  0  0  0  0  0
   24.9202   -0.4781  -20.3185 C   0  0  0  0  0  0  0  0  0  0  0  0
   25.1121   -1.6803  -20.8862 N   0  0  0  0  0  0  0  0  0  0  0  0
   24.2066   -4.2946  -21.6248 C   0  0  0  0  0  0  0  0  0  0  0  0
   23.3401   -3.3645  -21.5102 O   0  0  0  0  0  0  0  0  0  0  0  0
   24.3592   -4.8504  -22.8793 O   0  0  0  0  0  0  0  0  0  0  0  0
  2  1  1  6
  2 10  1  0
  3  2  1  0
  3  4  1  0
  4  5  2  0
  4  9  1  0
  5  6  1  0
  6  7  2  0
  8  7  1  0
  9  8  2  0
 10 11  2  0
 12 10  1  0
 12 13  1  0
 13 17  1  0
 13 14  1  6
 14 15  1  0
 15 16  2  0
 17 18  2  0
 19 15  1  0
 20 21  1  0
 20 17  1  0
 21 28  1  0
 21 22  1  6
 23 22  1  0
 24 23  2  0
 25 24  1  0
 26 25  1  0
 26 27  2  0
 27 23  1  0
 28 29  2  0
 28 30  1  0
M  END
$$$$
