FDH.pdb
     RDKit          3D

 30 31  0  0  1  0  0  0  0  0999 V2000
   22.3518  -20.6628  -11.8138 N   0  0  0  0  0  0  0  0  0  0  0  0
   23.6352  -20.2735  -12.3609 C   0  0  1  0  0  0  0  0  0  0  0  0
   24.7825  -20.6814  -11.4836 C   0  0  0  0  0  0  0  0  0  0  0  0
   26.1005  -20.4853  -12.1193 C   0  0  0  0  0  0  0  0  0  0  0  0
   26.4686  -19.2136  -12.5101 C   0  0  0  0  0  0  0  0  0  0  0  0
   27.6924  -18.9995  -13.1060 C   0  0  0  0  0  0  0  0  0  0  0  0
   28.5613  -20.0532  -13.3179 C   0  0  0  0  0  0  0  0  0  0  0  0
   28.1778  -21.3033  -12.9239 C   0  0  0  0  0  0  0  0  0  0  0  0
   26.9608  -21.5451  -12.3262 C   0  0  0  0  0  0  0  0  0  0  0  0
   23.8321  -20.9393  -13.6846 C   0  0  0  0  0  0  0  0  0  0  0  0
   23.5598  -22.1825  -13.7103 O   0  0  0  0  0  0  0  0  0  0  0  0
   24.2846  -20.2227  -14.8002 N   0  0  0  0  0  0  0  0  0  0  0  0
   24.4838  -20.8831  -16.0595 C   0  0  1  0  0  0  0  0  0  0  0  0
   23.4306  -20.6052  -17.0821 C   0  0  0  0  0  0  0  0  0  0  0  0
   23.6120  -21.4892  -18.2500 C   0  0  0  0  0  0  0  0  0  0  0  0
   23.7597  -21.0951  -19.4301 O   0  0  0  0  0  0  0  0  0  0  0  0
   25.8448  -20.5848  -16.6174 C   0  0  0  0  0  0  0  0  0  0  0  0
   26.5403  -19.6930  -16.0722 O   0  0  0  0  0  0  0  0  0  0  0  0
   23.6211  -22.8839  -18.0306 O   0  0  0  0  0  0  0  0  0  0  0  0
   26.3693  -21.2790  -17.7405 N   0  0  0  0  0  0  0  0  0  0  0  0
   27.7127  -21.8752  -17.7040 C   0  0  1  0  0  0  0  0  0  0  0  0
   27.7219  -22.9217  -16.5821 C   0  0  0  0  0  0  0  0  0  0  0  0
   29.0367  -23.6027  -16.5473 C   0  0  0  0  0  0  0  0  0  0  0  0
   30.1178  -23.3405  -17.3610 C   0  0  0  0  0  0  0  0  0  0  0  0
   31.1046  -24.1758  -17.0027 N   0  0  0  0  0  0  0  0  0  0  0  0
   30.6737  -24.9427  -15.9998 C   0  0  0  0  0  0  0  0  0  0  0  0
   29.4079  -24.5814  -15.7318 N   0  0  0  0  0  0  0  0  0  0  0  0
   27.9453  -22.5503  -19.0026 C   0  0  0  0  0  0  0  0  0  0  0  0
   29.0749  -22.4833  -19.5930 O   0  0  0  0  0  0  0  0  0  0  0  0
   26.9571  -23.2799  -19.6329 O   0  0  0  0  0  0  0  0  0  0  0  0
  2  1  1  1
  2 10  1  0
  3  2  1  0
  3  4  1  0
  4  5  2  0
  4  9  1  0
  5  6  1  0
  6  7  2  0
  8  7  1  0
  9  8  2  0
 10 11  2  0
 12 10  1  0
 12 13  1  0
 13 17  1  0
 13 14  1  6
 14 15  1  0
 15 16  2  0
 17 18  2  0
 19 15  1  0
 20 21  1  0
 20 17  1  0
 21 28  1  0
 21 22  1  1
 23 22  1  0
 24 23  2  0
 25 24  1  0
 26 25  1  0
 26 27  2  0
 27 23  1  0
 28 29  2  0
 28 30  1  0
M  END
$$$$
