FDH.pdb
     RDKit          3D

 30 31  0  0  1  0  0  0  0  0999 V2000
   28.0583  -21.5512  -11.7394 N   0  0  0  0  0  0  0  0  0  0  0  0
   26.7072  -21.3804  -11.2460 C   0  0  1  0  0  0  0  0  0  0  0  0
   26.5633  -20.1705  -10.3698 C   0  0  0  0  0  0  0  0  0  0  0  0
   27.3173  -20.2743   -9.1047 C   0  0  0  0  0  0  0  0  0  0  0  0
   26.6213  -20.2721   -7.9126 C   0  0  0  0  0  0  0  0  0  0  0  0
   27.2975  -20.3676   -6.7159 C   0  0  0  0  0  0  0  0  0  0  0  0
   28.6760  -20.4664   -6.6972 C   0  0  0  0  0  0  0  0  0  0  0  0
   29.3454  -20.4669   -7.8876 C   0  0  0  0  0  0  0  0  0  0  0  0
   28.6944  -20.3726   -9.0976 C   0  0  0  0  0  0  0  0  0  0  0  0
   25.7763  -21.2029  -12.4019 C   0  0  0  0  0  0  0  0  0  0  0  0
   26.1238  -20.3140  -13.2443 O   0  0  0  0  0  0  0  0  0  0  0  0
   24.6123  -21.9727  -12.5245 N   0  0  0  0  0  0  0  0  0  0  0  0
   23.7342  -21.7935  -13.6464 C   0  0  1  0  0  0  0  0  0  0  0  0
   23.3214  -23.0600  -14.3230 C   0  0  0  0  0  0  0  0  0  0  0  0
   24.4647  -23.6400  -15.0543 C   0  0  0  0  0  0  0  0  0  0  0  0
   25.1501  -23.0326  -15.9094 O   0  0  0  0  0  0  0  0  0  0  0  0
   22.5267  -20.9878  -13.2650 C   0  0  0  0  0  0  0  0  0  0  0  0
   22.6926  -19.8459  -12.7701 O   0  0  0  0  0  0  0  0  0  0  0  0
   24.8196  -24.9780  -14.7763 O   0  0  0  0  0  0  0  0  0  0  0  0
   21.2050  -21.4761  -13.4462 N   0  0  0  0  0  0  0  0  0  0  0  0
   20.1048  -20.5703  -13.8077 C   0  0  1  0  0  0  0  0  0  0  0  0
   20.4185  -19.9952  -15.1951 C   0  0  0  0  0  0  0  0  0  0  0  0
   20.8578  -18.5870  -15.0626 C   0  0  0  0  0  0  0  0  0  0  0  0
   20.9473  -17.8624  -13.8935 C   0  0  0  0  0  0  0  0  0  0  0  0
   21.3841  -16.6346  -14.2122 N   0  0  0  0  0  0  0  0  0  0  0  0
   21.5674  -16.5742  -15.5321 C   0  0  0  0  0  0  0  0  0  0  0  0
   21.2417  -17.7748  -16.0392 N   0  0  0  0  0  0  0  0  0  0  0  0
   18.8615  -21.3733  -13.8824 C   0  0  0  0  0  0  0  0  0  0  0  0
   17.7982  -21.0088  -13.2777 O   0  0  0  0  0  0  0  0  0  0  0  0
   18.7937  -22.5475  -14.6053 O   0  0  0  0  0  0  0  0  0  0  0  0
  2  1  1  6
  2 10  1  0
  3  2  1  0
  3  4  1  0
  4  5  2  0
  4  9  1  0
  5  6  1  0
  6  7  2  0
  8  7  1  0
  9  8  2  0
 10 11  2  0
 12 10  1  0
 12 13  1  0
 13 17  1  0
 13 14  1  1
 14 15  1  0
 15 16  2  0
 17 18  2  0
 19 15  1  0
 20 21  1  0
 20 17  1  0
 21 28  1  0
 21 22  1  6
 23 22  1  0
 24 23  2  0
 25 24  1  0
 26 25  1  0
 26 27  2  0
 27 23  1  0
 28 29  2  0
 28 30  1  0
M  END
$$$$
