FDH.pdb
     RDKit          3D

 30 31  0  0  1  0  0  0  0  0999 V2000
   29.0594  -20.7628   -9.0893 N   0  0  0  0  0  0  0  0  0  0  0  0
   27.6228  -20.7755   -8.9046 C   0  0  1  0  0  0  0  0  0  0  0  0
   27.1476  -19.6664   -8.0123 C   0  0  0  0  0  0  0  0  0  0  0  0
   27.7049  -19.7378   -6.6469 C   0  0  0  0  0  0  0  0  0  0  0  0
   28.7111  -18.8620   -6.2918 C   0  0  0  0  0  0  0  0  0  0  0  0
   29.2510  -18.9048   -5.0248 C   0  0  0  0  0  0  0  0  0  0  0  0
   28.7916  -19.8226   -4.0992 C   0  0  0  0  0  0  0  0  0  0  0  0
   27.7956  -20.6799   -4.4707 C   0  0  0  0  0  0  0  0  0  0  0  0
   27.2385  -20.6587   -5.7301 C   0  0  0  0  0  0  0  0  0  0  0  0
   26.9515  -20.5970  -10.2281 C   0  0  0  0  0  0  0  0  0  0  0  0
   27.5466  -19.8124  -11.0347 O   0  0  0  0  0  0  0  0  0  0  0  0
   25.7543  -21.2578  -10.5325 N   0  0  0  0  0  0  0  0  0  0  0  0
   25.1322  -21.0862  -11.8152 C   0  0  1  0  0  0  0  0  0  0  0  0
   25.0504  -22.3298  -12.6393 C   0  0  0  0  0  0  0  0  0  0  0  0
   24.5917  -22.0044  -14.0039 C   0  0  0  0  0  0  0  0  0  0  0  0
   23.3921  -21.8987  -14.3497 O   0  0  0  0  0  0  0  0  0  0  0  0
   23.7751  -20.4600  -11.6787 C   0  0  0  0  0  0  0  0  0  0  0  0
   23.5997  -19.5809  -10.7997 O   0  0  0  0  0  0  0  0  0  0  0  0
   25.5702  -21.7952  -14.9999 O   0  0  0  0  0  0  0  0  0  0  0  0
   22.6854  -20.8302  -12.5117 N   0  0  0  0  0  0  0  0  0  0  0  0
   21.5357  -19.9334  -12.6997 C   0  0  1  0  0  0  0  0  0  0  0  0
   22.0516  -18.6597  -13.3817 C   0  0  0  0  0  0  0  0  0  0  0  0
   20.9158  -17.7533  -13.6682 C   0  0  0  0  0  0  0  0  0  0  0  0
   19.5995  -17.9497  -13.3101 C   0  0  0  0  0  0  0  0  0  0  0  0
   18.8978  -16.8981  -13.7592 N   0  0  0  0  0  0  0  0  0  0  0  0
   19.7306  -16.0612  -14.3803 C   0  0  0  0  0  0  0  0  0  0  0  0
   20.9610  -16.5967  -14.3170 N   0  0  0  0  0  0  0  0  0  0  0  0
   20.5727  -20.6121  -13.5986 C   0  0  0  0  0  0  0  0  0  0  0  0
   19.4246  -20.1106  -13.8422 O   0  0  0  0  0  0  0  0  0  0  0  0
   20.8692  -21.8127  -14.2125 O   0  0  0  0  0  0  0  0  0  0  0  0
  2  1  1  6
  2 10  1  0
  3  2  1  0
  3  4  1  0
  4  5  2  0
  4  9  1  0
  5  6  1  0
  6  7  2  0
  8  7  1  0
  9  8  2  0
 10 11  2  0
 12 10  1  0
 12 13  1  0
 13 17  1  0
 13 14  1  1
 14 15  1  0
 15 16  2  0
 17 18  2  0
 19 15  1  0
 20 21  1  0
 20 17  1  0
 21 28  1  0
 21 22  1  6
 23 22  1  0
 24 23  2  0
 25 24  1  0
 26 25  1  0
 26 27  2  0
 27 23  1  0
 28 29  2  0
 28 30  1  0
M  END
$$$$
