FDH.pdb
     RDKit          3D

 30 31  0  0  1  0  0  0  0  0999 V2000
   26.3799  -20.5178  -16.3018 N   0  0  0  0  0  0  0  0  0  0  0  0
   26.3947  -19.8611  -15.0108 C   0  0  1  0  0  0  0  0  0  0  0  0
   26.0847  -18.3959  -15.1070 C   0  0  0  0  0  0  0  0  0  0  0  0
   27.0308  -17.6553  -15.9652 C   0  0  0  0  0  0  0  0  0  0  0  0
   26.5292  -16.8043  -16.9293 C   0  0  0  0  0  0  0  0  0  0  0  0
   27.3875  -16.0998  -17.7452 C   0  0  0  0  0  0  0  0  0  0  0  0
   28.7557  -16.2379  -17.6066 C   0  0  0  0  0  0  0  0  0  0  0  0
   29.2312  -17.0849  -16.6467 C   0  0  0  0  0  0  0  0  0  0  0  0
   28.3958  -17.8008  -15.8181 C   0  0  0  0  0  0  0  0  0  0  0  0
   25.3556  -20.4763  -14.1300 C   0  0  0  0  0  0  0  0  0  0  0  0
   24.4747  -21.1681  -14.7350 O   0  0  0  0  0  0  0  0  0  0  0  0
   25.3736  -20.2888  -12.7418 N   0  0  0  0  0  0  0  0  0  0  0  0
   24.3648  -20.8851  -11.9121 C   0  0  1  0  0  0  0  0  0  0  0  0
   24.7305  -20.9940  -10.4676 C   0  0  0  0  0  0  0  0  0  0  0  0
   26.1842  -21.2077  -10.3273 C   0  0  0  0  0  0  0  0  0  0  0  0
   26.8925  -20.7317   -9.4099 O   0  0  0  0  0  0  0  0  0  0  0  0
   23.0501  -20.1777  -12.0660 C   0  0  0  0  0  0  0  0  0  0  0  0
   23.0069  -18.9354  -11.8891 O   0  0  0  0  0  0  0  0  0  0  0  0
   26.8332  -22.0063  -11.2940 O   0  0  0  0  0  0  0  0  0  0  0  0
   21.8559  -20.8685  -12.4049 N   0  0  0  0  0  0  0  0  0  0  0  0
   20.7916  -20.2099  -13.1762 C   0  0  1  0  0  0  0  0  0  0  0  0
   21.3790  -19.8321  -14.5423 C   0  0  0  0  0  0  0  0  0  0  0  0
   20.3213  -19.2381  -15.3920 C   0  0  0  0  0  0  0  0  0  0  0  0
   19.0161  -18.9912  -15.0241 C   0  0  0  0  0  0  0  0  0  0  0  0
   18.3940  -18.4501  -16.0824 N   0  0  0  0  0  0  0  0  0  0  0  0
   19.2650  -18.3538  -17.0883 C   0  0  0  0  0  0  0  0  0  0  0  0
   20.4391  -18.8393  -16.6520 N   0  0  0  0  0  0  0  0  0  0  0  0
   19.6979  -21.1909  -13.3701 C   0  0  0  0  0  0  0  0  0  0  0  0
   19.9376  -22.4396  -13.4807 O   0  0  0  0  0  0  0  0  0  0  0  0
   18.3745  -20.8038  -13.4401 O   0  0  0  0  0  0  0  0  0  0  0  0
  2  1  1  6
  2 10  1  0
  3  2  1  0
  3  4  1  0
  4  5  2  0
  4  9  1  0
  5  6  1  0
  6  7  2  0
  8  7  1  0
  9  8  2  0
 10 11  2  0
 12 10  1  0
 12 13  1  0
 13 17  1  0
 13 14  1  1
 14 15  1  0
 15 16  2  0
 17 18  2  0
 19 15  1  0
 20 21  1  0
 20 17  1  0
 21 28  1  0
 21 22  1  6
 23 22  1  0
 24 23  2  0
 25 24  1  0
 26 25  1  0
 26 27  2  0
 27 23  1  0
 28 29  2  0
 28 30  1  0
M  END
$$$$
