SCT.pdb
     RDKit          3D

 20 19  0  0  1  0  0  0  0  0999 V2000
    6.0380  -17.5843   18.7476 O   0  0  0  0  0  0  0  0  0  0  0  0
    6.8683  -17.2888   19.8081 C   0  0  0  0  0  0  0  0  0  0  0  0
    7.3769  -15.8662   19.7302 C   0  0  2  0  0  0  0  0  0  0  0  0
    8.3283  -15.8085   18.6468 N   0  0  0  0  0  0  0  0  0  0  0  0
    8.0059  -15.4166   20.9719 C   0  0  0  0  0  0  0  0  0  0  0  0
    9.2582  -15.4204   21.0793 O   0  0  0  0  0  0  0  0  0  0  0  0
    7.2747  -14.9596   22.1058 N   0  0  0  0  0  0  0  0  0  0  0  0
    7.9117  -14.6930   23.3705 C   0  0  1  0  0  0  0  0  0  0  0  0
    7.0834  -13.7713   24.2412 C   0  0  0  0  0  0  0  0  0  0  0  0
    7.8224  -13.5501   25.8761 S   0  0  0  0  0  0  0  0  0  0  0  0
    8.2304  -15.9292   24.1134 C   0  0  0  0  0  0  0  0  0  0  0  0
    7.2893  -16.6854   24.4550 O   0  0  0  0  0  0  0  0  0  0  0  0
   10.5120  -18.6539   22.9050 C   0  0  0  0  0  0  0  0  0  0  0  0
   11.0129  -18.1998   24.2431 C   0  0  1  0  0  0  0  0  0  0  0  0
   12.0528  -17.2858   24.0429 O   0  0  0  0  0  0  0  0  0  0  0  0
    9.9378  -17.5139   25.0697 C   0  0  2  0  0  0  0  0  0  0  0  0
    9.5694  -16.2660   24.4402 N   0  0  0  0  0  0  0  0  0  0  0  0
   10.4861  -17.2229   26.4113 C   0  0  0  0  0  0  0  0  0  0  0  0
   10.8367  -18.2202   27.3132 O   0  0  0  0  0  0  0  0  0  0  0  0
   10.6482  -16.0326   26.7673 O   0  0  0  0  0  0  0  0  0  0  0  0
  1  2  1  0
  3  5  1  0
  3  2  1  0
  3  4  1  6
  5  6  2  0
  7  8  1  0
  7  5  1  0
  8  9  1  1
  9 10  1  0
 11  8  1  0
 12 11  2  0
 14 13  1  6
 14 16  1  0
 15 14  1  0
 16 18  1  0
 16 17  1  6
 17 11  1  0
 18 19  1  0
 20 18  2  0
M  END
$$$$
