SCT.pdb
     RDKit          3D

 20 19  0  0  1  0  0  0  0  0999 V2000
    5.7991  -16.0234   19.8603 O   0  0  0  0  0  0  0  0  0  0  0  0
    6.6630  -16.0017   20.9349 C   0  0  0  0  0  0  0  0  0  0  0  0
    7.2118  -14.6122   21.1728 C   0  0  2  0  0  0  0  0  0  0  0  0
    8.1051  -14.3099   20.0806 N   0  0  0  0  0  0  0  0  0  0  0  0
    7.9206  -14.4894   22.4464 C   0  0  0  0  0  0  0  0  0  0  0  0
    9.1536  -14.7262   22.5051 O   0  0  0  0  0  0  0  0  0  0  0  0
    7.2908  -14.1076   23.6658 N   0  0  0  0  0  0  0  0  0  0  0  0
    7.9600  -14.2106   24.9377 C   0  0  1  0  0  0  0  0  0  0  0  0
    7.3254  -13.3226   25.9877 C   0  0  0  0  0  0  0  0  0  0  0  0
    5.5293  -13.5221   26.0379 S   0  0  0  0  0  0  0  0  0  0  0  0
    8.0228  -15.6013   25.4313 C   0  0  0  0  0  0  0  0  0  0  0  0
    6.9593  -16.2636   25.5008 O   0  0  0  0  0  0  0  0  0  0  0  0
   11.5132  -17.7230   24.9523 C   0  0  0  0  0  0  0  0  0  0  0  0
   10.1804  -18.3472   25.2375 C   0  0  1  0  0  0  0  0  0  0  0  0
   10.3905  -19.6316   25.7505 O   0  0  0  0  0  0  0  0  0  0  0  0
    9.3710  -17.5616   26.2559 C   0  0  2  0  0  0  0  0  0  0  0  0
    9.2542  -16.1879   25.8219 N   0  0  0  0  0  0  0  0  0  0  0  0
   10.0843  -17.5896   27.5504 C   0  0  0  0  0  0  0  0  0  0  0  0
   10.6551  -16.4576   28.1194 O   0  0  0  0  0  0  0  0  0  0  0  0
   10.1884  -18.6708   28.1749 O   0  0  0  0  0  0  0  0  0  0  0  0
  1  2  1  0
  3  5  1  0
  3  2  1  0
  3  4  1  6
  5  6  2  0
  7  8  1  0
  7  5  1  0
  8  9  1  1
  9 10  1  0
 11  8  1  0
 12 11  2  0
 14 13  1  1
 14 16  1  0
 15 14  1  0
 16 18  1  0
 16 17  1  6
 17 11  1  0
 18 19  1  0
 20 18  2  0
M  END
$$$$
