SCT.pdb
     RDKit          3D

 20 19  0  0  1  0  0  0  0  0999 V2000
   -4.6092  -29.4535   30.2631 O   0  0  0  0  0  0  0  0  0  0  0  0
   -4.4941  -28.6477   29.1501 C   0  0  0  0  0  0  0  0  0  0  0  0
   -3.2881  -27.7399   29.2492 C   0  0  2  0  0  0  0  0  0  0  0  0
   -2.4520  -28.2499   30.3089 N   0  0  0  0  0  0  0  0  0  0  0  0
   -3.6434  -26.3470   29.5196 C   0  0  0  0  0  0  0  0  0  0  0  0
   -3.2461  -25.7903   30.5742 O   0  0  0  0  0  0  0  0  0  0  0  0
   -4.4345  -25.5505   28.6428 N   0  0  0  0  0  0  0  0  0  0  0  0
   -4.7317  -24.1686   28.9230 C   0  0  1  0  0  0  0  0  0  0  0  0
   -4.0634  -23.2322   27.9380 C   0  0  0  0  0  0  0  0  0  0  0  0
   -4.5462  -21.5122   28.2147 S   0  0  0  0  0  0  0  0  0  0  0  0
   -6.1836  -23.9002   28.9611 C   0  0  0  0  0  0  0  0  0  0  0  0
   -6.8652  -24.1301   27.9330 O   0  0  0  0  0  0  0  0  0  0  0  0
   -8.6117  -25.3259   31.5479 C   0  0  0  0  0  0  0  0  0  0  0  0
   -8.7226  -23.8308   31.5448 C   0  0  1  0  0  0  0  0  0  0  0  0
   -7.9387  -23.3236   32.5866 O   0  0  0  0  0  0  0  0  0  0  0  0
   -8.2361  -23.2095   30.2461 C   0  0  2  0  0  0  0  0  0  0  0  0
   -6.8070  -23.3928   30.1303 N   0  0  0  0  0  0  0  0  0  0  0  0
   -8.5260  -21.7603   30.2771 C   0  0  0  0  0  0  0  0  0  0  0  0
   -7.5296  -20.7954   30.3624 O   0  0  0  0  0  0  0  0  0  0  0  0
   -9.7145  -21.3670   30.2253 O   0  0  0  0  0  0  0  0  0  0  0  0
  1  2  1  0
  3  5  1  0
  3  2  1  0
  3  4  1  1
  5  6  2  0
  7  8  1  0
  7  5  1  0
  8  9  1  6
  9 10  1  0
 11  8  1  0
 12 11  2  0
 14 13  1  6
 14 16  1  0
 15 14  1  0
 16 18  1  0
 16 17  1  1
 17 11  1  0
 18 19  1  0
 20 18  2  0
M  END
$$$$
