SCT.pdb
     RDKit          3D

 20 19  0  0  1  0  0  0  0  0999 V2000
    8.0980  -14.6349   16.1051 O   0  0  0  0  0  0  0  0  0  0  0  0
    7.9214  -14.9540   17.4349 C   0  0  0  0  0  0  0  0  0  0  0  0
    7.8125  -13.7110   18.2903 C   0  0  2  0  0  0  0  0  0  0  0  0
    8.2860  -12.6015   17.4985 N   0  0  0  0  0  0  0  0  0  0  0  0
    8.5815  -13.8034   19.5311 C   0  0  0  0  0  0  0  0  0  0  0  0
    9.7401  -13.3197   19.5901 O   0  0  0  0  0  0  0  0  0  0  0  0
    8.0934  -14.4237   20.7170 N   0  0  0  0  0  0  0  0  0  0  0  0
    8.9236  -14.6114   21.8797 C   0  0  1  0  0  0  0  0  0  0  0  0
    8.1046  -14.8635   23.1284 C   0  0  0  0  0  0  0  0  0  0  0  0
    6.9758  -13.4952   23.4775 S   0  0  0  0  0  0  0  0  0  0  0  0
    9.9085  -15.6974   21.7005 C   0  0  0  0  0  0  0  0  0  0  0  0
    9.5005  -16.8243   21.3288 O   0  0  0  0  0  0  0  0  0  0  0  0
   12.8389  -15.6330   19.4503 C   0  0  0  0  0  0  0  0  0  0  0  0
   13.3708  -15.9839   20.8074 C   0  0  1  0  0  0  0  0  0  0  0  0
   13.9205  -14.8329   21.3818 O   0  0  0  0  0  0  0  0  0  0  0  0
   12.2928  -16.5061   21.7426 C   0  0  2  0  0  0  0  0  0  0  0  0
   11.2904  -15.4837   21.9405 N   0  0  0  0  0  0  0  0  0  0  0  0
   12.9109  -16.8213   23.0479 C   0  0  0  0  0  0  0  0  0  0  0  0
   13.8492  -17.8332   23.2113 O   0  0  0  0  0  0  0  0  0  0  0  0
   12.5870  -16.1584   24.0606 O   0  0  0  0  0  0  0  0  0  0  0  0
  1  2  1  0
  3  5  1  0
  3  2  1  0
  3  4  1  6
  5  6  2  0
  7  8  1  0
  7  5  1  0
  8  9  1  1
  9 10  1  0
 11  8  1  0
 12 11  2  0
 14 13  1  6
 14 16  1  0
 15 14  1  0
 16 18  1  0
 16 17  1  1
 17 11  1  0
 18 19  1  0
 20 18  2  0
M  END
$$$$
