SCT.pdb
     RDKit          3D

 20 19  0  0  1  0  0  0  0  0999 V2000
    3.9432  -18.5350   22.7151 O   0  0  0  0  0  0  0  0  0  0  0  0
    3.5750  -17.7774   21.6233 C   0  0  0  0  0  0  0  0  0  0  0  0
    4.7086  -17.6562   20.6290 C   0  0  2  0  0  0  0  0  0  0  0  0
    4.9190  -18.9635   20.0554 N   0  0  0  0  0  0  0  0  0  0  0  0
    5.9486  -17.1709   21.2343 C   0  0  0  0  0  0  0  0  0  0  0  0
    6.8833  -17.9739   21.4826 O   0  0  0  0  0  0  0  0  0  0  0  0
    6.1793  -15.8068   21.5737 N   0  0  0  0  0  0  0  0  0  0  0  0
    7.4426  -15.3512   22.0961 C   0  0  1  0  0  0  0  0  0  0  0  0
    7.5950  -13.8485   21.9856 C   0  0  0  0  0  0  0  0  0  0  0  0
    7.5429  -13.2940   20.2657 S   0  0  0  0  0  0  0  0  0  0  0  0
    7.6604  -15.7739   23.4945 C   0  0  0  0  0  0  0  0  0  0  0  0
    6.8802  -15.3481   24.3801 O   0  0  0  0  0  0  0  0  0  0  0  0
    7.3845  -19.0533   25.0780 C   0  0  0  0  0  0  0  0  0  0  0  0
    8.8068  -18.6116   25.2500 C   0  0  1  0  0  0  0  0  0  0  0  0
    9.5729  -19.1642   24.2182 O   0  0  0  0  0  0  0  0  0  0  0  0
    8.9625  -17.1010   25.1928 C   0  0  2  0  0  0  0  0  0  0  0  0
    8.7263  -16.6434   23.8422 N   0  0  0  0  0  0  0  0  0  0  0  0
   10.3476  -16.7533   25.5745 C   0  0  0  0  0  0  0  0  0  0  0  0
   10.8616  -16.9945   26.8428 O   0  0  0  0  0  0  0  0  0  0  0  0
   11.1045  -16.2178   24.7316 O   0  0  0  0  0  0  0  0  0  0  0  0
  1  2  1  0
  3  5  1  0
  3  2  1  0
  3  4  1  1
  5  6  2  0
  7  8  1  0
  7  5  1  0
  8  9  1  1
  9 10  1  0
 11  8  1  0
 12 11  2  0
 14 13  1  6
 14 16  1  0
 15 14  1  0
 16 18  1  0
 16 17  1  6
 17 11  1  0
 18 19  1  0
 20 18  2  0
M  END
$$$$
