SCT.pdb
     RDKit          3D

 20 19  0  0  1  0  0  0  0  0999 V2000
    9.2332  -18.1851   22.4776 O   0  0  0  0  0  0  0  0  0  0  0  0
    8.6935  -17.0210   21.9726 C   0  0  0  0  0  0  0  0  0  0  0  0
    9.6312  -15.8497   22.1657 C   0  0  2  0  0  0  0  0  0  0  0  0
   10.7935  -16.0896   21.3450 N   0  0  0  0  0  0  0  0  0  0  0  0
   10.0335  -15.6651   23.5598 C   0  0  0  0  0  0  0  0  0  0  0  0
   11.1809  -16.0156   23.9347 O   0  0  0  0  0  0  0  0  0  0  0  0
    9.1882  -15.0970   24.5559 N   0  0  0  0  0  0  0  0  0  0  0  0
    9.6248  -14.9150   25.9170 C   0  0  1  0  0  0  0  0  0  0  0  0
    8.8559  -13.8149   26.6185 C   0  0  0  0  0  0  0  0  0  0  0  0
    9.4727  -13.5290   28.2936 S   0  0  0  0  0  0  0  0  0  0  0  0
    9.5459  -16.1610   26.7062 C   0  0  0  0  0  0  0  0  0  0  0  0
    8.4266  -16.7074   26.8577 O   0  0  0  0  0  0  0  0  0  0  0  0
   11.3684  -19.4513   26.2431 C   0  0  0  0  0  0  0  0  0  0  0  0
   11.6941  -18.9247   27.6085 C   0  0  1  0  0  0  0  0  0  0  0  0
   12.9340  -18.2794   27.5531 O   0  0  0  0  0  0  0  0  0  0  0  0
   10.6665  -17.9245   28.1116 C   0  0  2  0  0  0  0  0  0  0  0  0
   10.7048  -16.7385   27.2863 N   0  0  0  0  0  0  0  0  0  0  0  0
   11.0130  -17.5471   29.4982 C   0  0  0  0  0  0  0  0  0  0  0  0
   11.3636  -16.2522   29.8603 O   0  0  0  0  0  0  0  0  0  0  0  0
   10.9950  -18.4187   30.3982 O   0  0  0  0  0  0  0  0  0  0  0  0
  1  2  1  0
  3  5  1  0
  3  2  1  0
  3  4  1  6
  5  6  2  0
  7  8  1  0
  7  5  1  0
  8  9  1  1
  9 10  1  0
 11  8  1  0
 12 11  2  0
 14 13  1  6
 14 16  1  0
 15 14  1  0
 16 18  1  0
 16 17  1  6
 17 11  1  0
 18 19  1  0
 20 18  2  0
M  END
$$$$
