SCT.pdb
     RDKit          3D

 20 19  0  0  1  0  0  0  0  0999 V2000
    7.0439  -18.2297   20.3338 O   0  0  0  0  0  0  0  0  0  0  0  0
    7.8462  -17.7672   19.3120 C   0  0  0  0  0  0  0  0  0  0  0  0
    8.0577  -16.2726   19.4107 C   0  0  2  0  0  0  0  0  0  0  0  0
    9.0390  -15.9107   18.4166 N   0  0  0  0  0  0  0  0  0  0  0  0
    8.5082  -15.8467   20.7356 C   0  0  0  0  0  0  0  0  0  0  0  0
    9.7102  -15.9992   21.0700 O   0  0  0  0  0  0  0  0  0  0  0  0
    7.6519  -15.2513   21.7060 N   0  0  0  0  0  0  0  0  0  0  0  0
    8.1114  -14.9184   23.0305 C   0  0  1  0  0  0  0  0  0  0  0  0
    7.1826  -13.9457   23.7268 C   0  0  0  0  0  0  0  0  0  0  0  0
    7.6866  -13.6444   25.4366 S   0  0  0  0  0  0  0  0  0  0  0  0
    8.3087  -16.1131   23.8762 C   0  0  0  0  0  0  0  0  0  0  0  0
    7.3284  -16.8661   24.0920 O   0  0  0  0  0  0  0  0  0  0  0  0
   10.6124  -19.0366   23.4460 C   0  0  0  0  0  0  0  0  0  0  0  0
   10.9497  -18.3832   24.7525 C   0  0  1  0  0  0  0  0  0  0  0  0
   12.0459  -17.5363   24.5572 O   0  0  0  0  0  0  0  0  0  0  0  0
    9.8050  -17.5496   25.3040 C   0  0  2  0  0  0  0  0  0  0  0  0
    9.5758  -16.4144   24.4390 N   0  0  0  0  0  0  0  0  0  0  0  0
   10.1834  -17.0541   26.6443 C   0  0  0  0  0  0  0  0  0  0  0  0
   10.3669  -17.8968   27.7338 O   0  0  0  0  0  0  0  0  0  0  0  0
   10.3499  -15.8253   26.8240 O   0  0  0  0  0  0  0  0  0  0  0  0
  1  2  1  0
  3  5  1  0
  3  2  1  0
  3  4  1  6
  5  6  2  0
  7  8  1  0
  7  5  1  0
  8  9  1  1
  9 10  1  0
 11  8  1  0
 12 11  2  0
 14 13  1  6
 14 16  1  0
 15 14  1  0
 16 18  1  0
 16 17  1  6
 17 11  1  0
 18 19  1  0
 20 18  2  0
M  END
$$$$
