SCT.pdb
     RDKit          3D

 20 19  0  0  1  0  0  0  0  0999 V2000
    9.3704  -12.5645   18.4459 O   0  0  0  0  0  0  0  0  0  0  0  0
    8.4968  -12.8176   19.4824 C   0  0  0  0  0  0  0  0  0  0  0  0
    8.0720  -14.2694   19.5030 C   0  0  2  0  0  0  0  0  0  0  0  0
    7.1647  -14.4675   18.3986 N   0  0  0  0  0  0  0  0  0  0  0  0
    7.4252  -14.6565   20.7565 C   0  0  0  0  0  0  0  0  0  0  0  0
    6.1781  -14.5562   20.8775 O   0  0  0  0  0  0  0  0  0  0  0  0
    8.1327  -15.1559   21.8875 N   0  0  0  0  0  0  0  0  0  0  0  0
    7.4660  -15.4927   23.1198 C   0  0  1  0  0  0  0  0  0  0  0  0
    7.3295  -16.9900   23.3017 C   0  0  0  0  0  0  0  0  0  0  0  0
    6.5756  -17.4063   24.8911 S   0  0  0  0  0  0  0  0  0  0  0  0
    8.1310  -14.9046   24.3002 C   0  0  0  0  0  0  0  0  0  0  0  0
    9.3722  -15.0426   24.4224 O   0  0  0  0  0  0  0  0  0  0  0  0
    6.6974  -11.4398   26.2613 C   0  0  0  0  0  0  0  0  0  0  0  0
    7.0088  -12.6427   27.1002 C   0  0  1  0  0  0  0  0  0  0  0  0
    5.8242  -13.3555   27.3140 O   0  0  0  0  0  0  0  0  0  0  0  0
    8.0061  -13.5779   26.4368 C   0  0  2  0  0  0  0  0  0  0  0  0
    7.3929  -14.1958   25.2829 N   0  0  0  0  0  0  0  0  0  0  0  0
    8.3749  -14.6368   27.4001 C   0  0  0  0  0  0  0  0  0  0  0  0
    9.0354  -14.3714   28.5936 O   0  0  0  0  0  0  0  0  0  0  0  0
    8.0877  -15.8297   27.1463 O   0  0  0  0  0  0  0  0  0  0  0  0
  1  2  1  0
  3  5  1  0
  3  2  1  0
  3  4  1  6
  5  6  2  0
  7  8  1  0
  7  5  1  0
  8  9  1  1
  9 10  1  0
 11  8  1  0
 12 11  2  0
 14 13  1  6
 14 16  1  0
 15 14  1  0
 16 18  1  0
 16 17  1  6
 17 11  1  0
 18 19  1  0
 20 18  2  0
M  END
$$$$
