SCT.pdb
     RDKit          3D

 20 19  0  0  1  0  0  0  0  0999 V2000
    4.4885  -17.8961   19.6890 O   0  0  0  0  0  0  0  0  0  0  0  0
    5.7252  -17.7480   20.2807 C   0  0  0  0  0  0  0  0  0  0  0  0
    6.4377  -16.5162   19.7675 C   0  0  2  0  0  0  0  0  0  0  0  0
    6.9656  -16.8368   18.4634 N   0  0  0  0  0  0  0  0  0  0  0  0
    7.5180  -16.0736   20.6488 C   0  0  0  0  0  0  0  0  0  0  0  0
    8.7066  -16.0835   20.2401 O   0  0  0  0  0  0  0  0  0  0  0  0
    7.3109  -15.6169   21.9821 N   0  0  0  0  0  0  0  0  0  0  0  0
    8.4058  -15.2502   22.8441 C   0  0  1  0  0  0  0  0  0  0  0  0
    8.0629  -14.0688   23.7276 C   0  0  0  0  0  0  0  0  0  0  0  0
    6.5761  -14.3750   24.7092 S   0  0  0  0  0  0  0  0  0  0  0  0
    8.8708  -16.3781   23.6766 C   0  0  0  0  0  0  0  0  0  0  0  0
    8.0178  -17.0685   24.2850 O   0  0  0  0  0  0  0  0  0  0  0  0
   11.7278  -18.8549   22.4233 C   0  0  0  0  0  0  0  0  0  0  0  0
   11.9946  -18.3649   23.8149 C   0  0  1  0  0  0  0  0  0  0  0  0
   12.9191  -17.3171   23.7487 O   0  0  0  0  0  0  0  0  0  0  0  0
   10.7437  -17.8444   24.5031 C   0  0  2  0  0  0  0  0  0  0  0  0
   10.2510  -16.6852   23.7941 N   0  0  0  0  0  0  0  0  0  0  0  0
   11.0949  -17.4417   25.8815 C   0  0  0  0  0  0  0  0  0  0  0  0
   11.0939  -16.1171   26.3016 O   0  0  0  0  0  0  0  0  0  0  0  0
   11.4092  -18.3183   26.7197 O   0  0  0  0  0  0  0  0  0  0  0  0
  1  2  1  0
  3  5  1  0
  3  2  1  0
  3  4  1  6
  5  6  2  0
  7  8  1  0
  7  5  1  0
  8  9  1  1
  9 10  1  0
 11  8  1  0
 12 11  2  0
 14 13  1  6
 14 16  1  0
 15 14  1  0
 16 18  1  0
 16 17  1  6
 17 11  1  0
 18 19  1  0
 20 18  2  0
M  END
$$$$
