SCT.pdb
     RDKit          3D

 20 19  0  0  1  0  0  0  0  0999 V2000
    7.1267  -15.2519   19.6343 O   0  0  0  0  0  0  0  0  0  0  0  0
    6.3900  -14.1005   19.8164 C   0  0  0  0  0  0  0  0  0  0  0  0
    7.2147  -13.0171   20.4756 C   0  0  2  0  0  0  0  0  0  0  0  0
    8.2774  -12.6705   19.5631 N   0  0  0  0  0  0  0  0  0  0  0  0
    7.7755  -13.4303   21.7618 C   0  0  0  0  0  0  0  0  0  0  0  0
    8.9811  -13.7777   21.8394 O   0  0  0  0  0  0  0  0  0  0  0  0
    7.0267  -13.4680   22.9730 N   0  0  0  0  0  0  0  0  0  0  0  0
    7.6242  -13.8384   24.2309 C   0  0  1  0  0  0  0  0  0  0  0  0
    6.7563  -13.4489   25.4092 C   0  0  0  0  0  0  0  0  0  0  0  0
    6.4822  -11.6634   25.4789 S   0  0  0  0  0  0  0  0  0  0  0  0
    7.9448  -15.2785   24.3009 C   0  0  0  0  0  0  0  0  0  0  0  0
    7.0144  -16.1092   24.1647 O   0  0  0  0  0  0  0  0  0  0  0  0
    9.9740  -17.1135   21.9742 C   0  0  0  0  0  0  0  0  0  0  0  0
   10.6154  -17.3400   23.3102 C   0  0  1  0  0  0  0  0  0  0  0  0
   11.6771  -16.4403   23.4531 O   0  0  0  0  0  0  0  0  0  0  0  0
    9.6546  -17.1197   24.4668 C   0  0  2  0  0  0  0  0  0  0  0  0
    9.2736  -15.7263   24.5174 N   0  0  0  0  0  0  0  0  0  0  0  0
   10.3438  -17.4675   25.7274 C   0  0  0  0  0  0  0  0  0  0  0  0
   10.7911  -18.7523   26.0105 O   0  0  0  0  0  0  0  0  0  0  0  0
   10.5417  -16.5790   26.5884 O   0  0  0  0  0  0  0  0  0  0  0  0
  1  2  1  0
  3  5  1  0
  3  2  1  0
  3  4  1  6
  5  6  2  0
  7  8  1  0
  7  5  1  0
  8  9  1  1
  9 10  1  0
 11  8  1  0
 12 11  2  0
 14 13  1  6
 14 16  1  0
 15 14  1  0
 16 18  1  0
 16 17  1  1
 17 11  1  0
 18 19  1  0
 20 18  2  0
M  END
$$$$
