SCT.pdb
     RDKit          3D

 20 19  0  0  1  0  0  0  0  0999 V2000
    6.2859  -20.5348   23.0229 O   0  0  0  0  0  0  0  0  0  0  0  0
    5.1222  -19.9195   23.4336 C   0  0  0  0  0  0  0  0  0  0  0  0
    4.9049  -18.6105   22.7071 C   0  0  2  0  0  0  0  0  0  0  0  0
    4.5187  -18.9288   21.3538 N   0  0  0  0  0  0  0  0  0  0  0  0
    6.0936  -17.7581   22.7001 C   0  0  0  0  0  0  0  0  0  0  0  0
    6.7695  -17.6306   21.6480 O   0  0  0  0  0  0  0  0  0  0  0  0
    6.5546  -17.0382   23.8396 N   0  0  0  0  0  0  0  0  0  0  0  0
    7.7012  -16.1674   23.7822 C   0  0  1  0  0  0  0  0  0  0  0  0
    7.5536  -14.9717   24.7000 C   0  0  0  0  0  0  0  0  0  0  0  0
    6.8294  -15.4330   26.2908 S   0  0  0  0  0  0  0  0  0  0  0  0
    8.9625  -16.8748   24.0823 C   0  0  0  0  0  0  0  0  0  0  0  0
    8.9991  -17.6462   25.0713 O   0  0  0  0  0  0  0  0  0  0  0  0
   11.3520  -18.3223   21.1319 C   0  0  0  0  0  0  0  0  0  0  0  0
   12.0975  -17.5322   22.1652 C   0  0  1  0  0  0  0  0  0  0  0  0
   12.2949  -16.2358   21.6780 O   0  0  0  0  0  0  0  0  0  0  0  0
   11.3440  -17.4295   23.4809 C   0  0  2  0  0  0  0  0  0  0  0  0
   10.1164  -16.6944   23.2766 N   0  0  0  0  0  0  0  0  0  0  0  0
   12.1817  -16.6910   24.4495 C   0  0  0  0  0  0  0  0  0  0  0  0
   13.3799  -17.1923   24.9436 O   0  0  0  0  0  0  0  0  0  0  0  0
   11.8115  -15.5640   24.8529 O   0  0  0  0  0  0  0  0  0  0  0  0
  1  2  1  0
  3  5  1  0
  3  2  1  0
  3  4  1  6
  5  6  2  0
  7  8  1  0
  7  5  1  0
  8  9  1  1
  9 10  1  0
 11  8  1  0
 12 11  2  0
 14 13  1  6
 14 16  1  0
 15 14  1  0
 16 18  1  0
 16 17  1  6
 17 11  1  0
 18 19  1  0
 20 18  2  0
M  END
$$$$
