KFF.pdb
     RDKit          3D

 32 33  0  0  1  0  0  0  0  0999 V2000
   28.1472  -21.9776  -15.3902 N   0  0  0  0  0  0  0  0  0  0  0  0
   28.2359  -20.8113  -14.4939 C   0  0  1  0  0  0  0  0  0  0  0  0
   27.3684  -19.7626  -15.1180 C   0  0  0  0  0  0  0  0  0  0  0  0
   27.8162  -19.2659  -16.4482 C   0  0  0  0  0  0  0  0  0  0  0  0
   28.5951  -17.9856  -16.2574 C   0  0  0  0  0  0  0  0  0  0  0  0
   28.9919  -17.3489  -17.5621 C   0  0  0  0  0  0  0  0  0  0  0  0
   30.0924  -18.1656  -18.1002 N   0  0  0  0  0  0  0  0  0  0  0  0
   27.7697  -21.1887  -13.1444 C   0  0  0  0  0  0  0  0  0  0  0  0
   26.8300  -22.0117  -13.0416 O   0  0  0  0  0  0  0  0  0  0  0  0
   28.3511  -20.6509  -11.9932 N   0  0  0  0  0  0  0  0  0  0  0  0
   27.7625  -20.8001  -10.6546 C   0  0  1  0  0  0  0  0  0  0  0  0
   28.7962  -20.2299   -9.7038 C   0  0  0  0  0  0  0  0  0  0  0  0
   28.3428  -20.1180   -8.3183 C   0  0  0  0  0  0  0  0  0  0  0  0
   28.6650  -21.0499   -7.3561 C   0  0  0  0  0  0  0  0  0  0  0  0
   28.2150  -20.9013   -6.0476 C   0  0  0  0  0  0  0  0  0  0  0  0
   27.4480  -19.8374   -5.6822 C   0  0  0  0  0  0  0  0  0  0  0  0
   27.1140  -18.8898   -6.6379 C   0  0  0  0  0  0  0  0  0  0  0  0
   27.5662  -19.0463   -7.9361 C   0  0  0  0  0  0  0  0  0  0  0  0
   26.5101  -20.0253  -10.6195 C   0  0  0  0  0  0  0  0  0  0  0  0
   26.4461  -18.8969  -11.1811 O   0  0  0  0  0  0  0  0  0  0  0  0
   25.3731  -20.5340   -9.9600 N   0  0  0  0  0  0  0  0  0  0  0  0
   23.9975  -20.2345  -10.3915 C   0  0  1  0  0  0  0  0  0  0  0  0
   23.8697  -20.7614  -11.7827 C   0  0  0  0  0  0  0  0  0  0  0  0
   22.4860  -20.5848  -12.2550 C   0  0  0  0  0  0  0  0  0  0  0  0
   21.7150  -21.7251  -12.4753 C   0  0  0  0  0  0  0  0  0  0  0  0
   20.4130  -21.5941  -12.9069 C   0  0  0  0  0  0  0  0  0  0  0  0
   19.8683  -20.3501  -13.1220 C   0  0  0  0  0  0  0  0  0  0  0  0
   20.6272  -19.2240  -12.9052 C   0  0  0  0  0  0  0  0  0  0  0  0
   21.9398  -19.3528  -12.4699 C   0  0  0  0  0  0  0  0  0  0  0  0
   23.0820  -20.8684   -9.4230 C   0  0  0  0  0  0  0  0  0  0  0  0
   23.3974  -21.9311   -8.8515 O   0  0  0  0  0  0  0  0  0  0  0  0
   21.8493  -20.3248   -9.1044 O   0  0  0  0  0  0  0  0  0  0  0  0
  2  3  1  0
  2  1  1  6
  3  4  1  0
  5  4  1  0
  6  5  1  0
  7  6  1  0
  8  9  2  0
  8  2  1  0
 10  8  1  0
 11 19  1  0
 11 10  1  0
 11 12  1  1
 13 12  1  0
 14 13  2  0
 15 14  1  0
 16 15  2  0
 16 17  1  0
 17 18  2  0
 18 13  1  0
 19 21  1  0
 20 19  2  0
 21 22  1  0
 22 30  1  0
 23 24  1  0
 22 23  1  6
 24 29  2  0
 25 26  2  0
 25 24  1  0
 26 27  1  0
 27 28  2  0
 29 28  1  0
 30 31  2  0
 30 32  1  0
M  END
$$$$
