KFF.pdb
     RDKit          3D

 32 33  0  0  1  0  0  0  0  0999 V2000
   26.3042  -41.7580   -7.6260 N   0  0  0  0  0  0  0  0  0  0  0  0
   25.1976  -40.8547   -7.2641 C   0  0  1  0  0  0  0  0  0  0  0  0
   24.2413  -41.6931   -6.4739 C   0  0  0  0  0  0  0  0  0  0  0  0
   23.3000  -42.5227   -7.2753 C   0  0  0  0  0  0  0  0  0  0  0  0
   22.1759  -41.6456   -7.7749 C   0  0  0  0  0  0  0  0  0  0  0  0
   21.1334  -42.4180   -8.5375 C   0  0  0  0  0  0  0  0  0  0  0  0
   20.1780  -41.4225   -9.0511 N   0  0  0  0  0  0  0  0  0  0  0  0
   25.7231  -39.7197   -6.4788 C   0  0  0  0  0  0  0  0  0  0  0  0
   26.7706  -39.8851   -5.8108 O   0  0  0  0  0  0  0  0  0  0  0  0
   25.0807  -38.4789   -6.4675 N   0  0  0  0  0  0  0  0  0  0  0  0
   25.5558  -37.3388   -5.6707 C   0  0  1  0  0  0  0  0  0  0  0  0
   25.5807  -36.1683   -6.6335 C   0  0  0  0  0  0  0  0  0  0  0  0
   25.8002  -34.8701   -5.9974 C   0  0  0  0  0  0  0  0  0  0  0  0
   26.9769  -34.5489   -5.3567 C   0  0  0  0  0  0  0  0  0  0  0  0
   27.1443  -33.2990   -4.7682 C   0  0  0  0  0  0  0  0  0  0  0  0
   26.1565  -32.3628   -4.8080 C   0  0  0  0  0  0  0  0  0  0  0  0
   24.9655  -32.6692   -5.4486 C   0  0  0  0  0  0  0  0  0  0  0  0
   24.8085  -33.9145   -6.0308 C   0  0  0  0  0  0  0  0  0  0  0  0
   24.5957  -37.1177   -4.5756 C   0  0  0  0  0  0  0  0  0  0  0  0
   23.3612  -37.0286   -4.8225 O   0  0  0  0  0  0  0  0  0  0  0  0
   25.0438  -37.0032   -3.2442 N   0  0  0  0  0  0  0  0  0  0  0  0
   24.1375  -36.7321   -2.1159 C   0  0  1  0  0  0  0  0  0  0  0  0
   24.3607  -37.8270   -1.1254 C   0  0  0  0  0  0  0  0  0  0  0  0
   23.4489  -37.6551    0.0182 C   0  0  0  0  0  0  0  0  0  0  0  0
   23.9543  -37.0781    1.1822 C   0  0  0  0  0  0  0  0  0  0  0  0
   23.1245  -36.8933    2.2666 C   0  0  0  0  0  0  0  0  0  0  0  0
   21.8040  -37.2725    2.2107 C   0  0  0  0  0  0  0  0  0  0  0  0
   21.3035  -37.8418    1.0633 C   0  0  0  0  0  0  0  0  0  0  0  0
   22.1374  -38.0292   -0.0315 C   0  0  0  0  0  0  0  0  0  0  0  0
   24.4581  -35.3854   -1.6045 C   0  0  0  0  0  0  0  0  0  0  0  0
   25.6361  -34.9764   -1.5851 O   0  0  0  0  0  0  0  0  0  0  0  0
   23.4849  -34.5227   -1.1299 O   0  0  0  0  0  0  0  0  0  0  0  0
  2  3  1  0
  2  1  1  1
  3  4  1  0
  5  4  1  0
  6  5  1  0
  7  6  1  0
  8  9  2  0
  8  2  1  0
 10  8  1  0
 11 19  1  0
 11 10  1  0
 11 12  1  6
 13 12  1  0
 14 13  2  0
 15 14  1  0
 16 15  2  0
 16 17  1  0
 17 18  2  0
 18 13  1  0
 19 21  1  0
 20 19  2  0
 21 22  1  0
 22 30  1  0
 23 24  1  0
 22 23  1  1
 24 29  2  0
 25 26  2  0
 25 24  1  0
 26 27  1  0
 27 28  2  0
 29 28  1  0
 30 31  2  0
 30 32  1  0
M  END
$$$$
