KFF.pdb
     RDKit          3D

 32 33  0  0  1  0  0  0  0  0999 V2000
   29.0197  -22.0664  -18.0513 N   0  0  0  0  0  0  0  0  0  0  0  0
   28.2674  -20.8882  -17.5851 C   0  0  1  0  0  0  0  0  0  0  0  0
   27.4615  -20.4381  -18.7639 C   0  0  0  0  0  0  0  0  0  0  0  0
   28.2468  -20.0167  -19.9564 C   0  0  0  0  0  0  0  0  0  0  0  0
   29.0957  -18.8225  -19.5882 C   0  0  0  0  0  0  0  0  0  0  0  0
   29.8116  -18.2329  -20.7736 C   0  0  0  0  0  0  0  0  0  0  0  0
   28.8111  -17.4375  -21.5042 N   0  0  0  0  0  0  0  0  0  0  0  0
   27.4152  -21.2677  -16.4401 C   0  0  0  0  0  0  0  0  0  0  0  0
   26.5381  -22.1469  -16.6093 O   0  0  0  0  0  0  0  0  0  0  0  0
   27.5676  -20.6708  -15.1860 N   0  0  0  0  0  0  0  0  0  0  0  0
   26.7178  -21.0019  -14.0333 C   0  0  1  0  0  0  0  0  0  0  0  0
   27.4657  -20.4703  -12.8267 C   0  0  0  0  0  0  0  0  0  0  0  0
   26.7264  -20.5682  -11.5690 C   0  0  0  0  0  0  0  0  0  0  0  0
   26.5786  -21.7564  -10.8875 C   0  0  0  0  0  0  0  0  0  0  0  0
   25.8699  -21.8029   -9.6907 C   0  0  0  0  0  0  0  0  0  0  0  0
   25.3052  -20.6826   -9.1616 C   0  0  0  0  0  0  0  0  0  0  0  0
   25.4440  -19.4780   -9.8344 C   0  0  0  0  0  0  0  0  0  0  0  0
   26.1505  -19.4420  -11.0235 C   0  0  0  0  0  0  0  0  0  0  0  0
   25.4242  -20.3200  -14.2111 C   0  0  0  0  0  0  0  0  0  0  0  0
   25.3887  -19.0917  -14.4988 O   0  0  0  0  0  0  0  0  0  0  0  0
   24.2156  -21.0297  -14.0620 N   0  0  0  0  0  0  0  0  0  0  0  0
   22.8950  -20.3806  -14.1174 C   0  0  1  0  0  0  0  0  0  0  0  0
   22.2867  -20.7770  -15.4222 C   0  0  0  0  0  0  0  0  0  0  0  0
   20.9263  -20.2224  -15.5242 C   0  0  0  0  0  0  0  0  0  0  0  0
   20.7723  -18.9551  -16.0842 C   0  0  0  0  0  0  0  0  0  0  0  0
   19.5116  -18.4120  -16.2040 C   0  0  0  0  0  0  0  0  0  0  0  0
   18.4056  -19.1082  -15.7767 C   0  0  0  0  0  0  0  0  0  0  0  0
   18.5553  -20.3585  -15.2242 C   0  0  0  0  0  0  0  0  0  0  0  0
   19.8248  -20.9087  -15.1022 C   0  0  0  0  0  0  0  0  0  0  0  0
   22.1310  -20.8303  -12.9376 C   0  0  0  0  0  0  0  0  0  0  0  0
   22.2089  -22.0102  -12.5416 O   0  0  0  0  0  0  0  0  0  0  0  0
   21.3050  -19.9801  -12.2225 O   0  0  0  0  0  0  0  0  0  0  0  0
  2  3  1  0
  2  1  1  6
  3  4  1  0
  5  4  1  0
  6  5  1  0
  7  6  1  0
  8  9  2  0
  8  2  1  0
 10  8  1  0
 11 19  1  0
 11 10  1  0
 11 12  1  1
 13 12  1  0
 14 13  2  0
 15 14  1  0
 16 15  2  0
 16 17  1  0
 17 18  2  0
 18 13  1  0
 19 21  1  0
 20 19  2  0
 21 22  1  0
 22 30  1  0
 23 24  1  0
 22 23  1  6
 24 29  2  0
 25 26  2  0
 25 24  1  0
 26 27  1  0
 27 28  2  0
 29 28  1  0
 30 31  2  0
 30 32  1  0
M  END
$$$$
