KFF.pdb
     RDKit          3D

 32 33  0  0  1  0  0  0  0  0999 V2000
   32.6016  -28.8099  -19.9470 N   0  0  0  0  0  0  0  0  0  0  0  0
   31.9641  -28.8284  -18.6187 C   0  0  1  0  0  0  0  0  0  0  0  0
   31.1410  -27.5793  -18.5544 C   0  0  0  0  0  0  0  0  0  0  0  0
   31.8303  -26.3834  -17.9966 C   0  0  0  0  0  0  0  0  0  0  0  0
   30.8269  -25.2639  -17.8469 C   0  0  0  0  0  0  0  0  0  0  0  0
   31.4314  -24.0194  -17.2544 C   0  0  0  0  0  0  0  0  0  0  0  0
   30.3116  -23.0961  -17.0070 N   0  0  0  0  0  0  0  0  0  0  0  0
   31.1394  -30.0461  -18.4835 C   0  0  0  0  0  0  0  0  0  0  0  0
   30.5879  -30.5150  -19.5066 O   0  0  0  0  0  0  0  0  0  0  0  0
   30.9652  -30.6777  -17.2493 N   0  0  0  0  0  0  0  0  0  0  0  0
   30.0882  -31.8424  -17.0628 C   0  0  1  0  0  0  0  0  0  0  0  0
   30.9209  -32.8422  -16.2852 C   0  0  0  0  0  0  0  0  0  0  0  0
   30.2409  -34.1071  -16.0101 C   0  0  0  0  0  0  0  0  0  0  0  0
   29.5968  -34.3577  -14.8183 C   0  0  0  0  0  0  0  0  0  0  0  0
   28.9584  -35.5750  -14.6007 C   0  0  0  0  0  0  0  0  0  0  0  0
   28.9519  -36.5480  -15.5531 C   0  0  0  0  0  0  0  0  0  0  0  0
   29.5956  -36.3129  -16.7586 C   0  0  0  0  0  0  0  0  0  0  0  0
   30.2273  -35.0994  -16.9655 C   0  0  0  0  0  0  0  0  0  0  0  0
   28.9099  -31.4060  -16.2939 C   0  0  0  0  0  0  0  0  0  0  0  0
   29.0549  -30.8679  -15.1616 O   0  0  0  0  0  0  0  0  0  0  0  0
   27.6116  -31.5844  -16.8127 N   0  0  0  0  0  0  0  0  0  0  0  0
   26.3946  -31.2467  -16.0557 C   0  0  1  0  0  0  0  0  0  0  0  0
   25.5058  -30.5049  -16.9988 C   0  0  0  0  0  0  0  0  0  0  0  0
   26.0615  -29.1652  -17.2544 C   0  0  0  0  0  0  0  0  0  0  0  0
   26.7557  -28.9566  -18.4450 C   0  0  0  0  0  0  0  0  0  0  0  0
   27.2788  -27.7117  -18.7194 C   0  0  0  0  0  0  0  0  0  0  0  0
   27.1222  -26.6747  -17.8302 C   0  0  0  0  0  0  0  0  0  0  0  0
   26.4376  -26.8785  -16.6551 C   0  0  0  0  0  0  0  0  0  0  0  0
   25.9091  -28.1322  -16.3757 C   0  0  0  0  0  0  0  0  0  0  0  0
   25.8188  -32.5105  -15.5568 C   0  0  0  0  0  0  0  0  0  0  0  0
   26.0678  -33.5915  -16.1267 O   0  0  0  0  0  0  0  0  0  0  0  0
   24.9889  -32.5598  -14.4498 O   0  0  0  0  0  0  0  0  0  0  0  0
  2  3  1  0
  2  1  1  6
  3  4  1  0
  5  4  1  0
  6  5  1  0
  7  6  1  0
  8  9  2  0
  8  2  1  0
 10  8  1  0
 11 19  1  0
 11 10  1  0
 11 12  1  1
 13 12  1  0
 14 13  2  0
 15 14  1  0
 16 15  2  0
 16 17  1  0
 17 18  2  0
 18 13  1  0
 19 21  1  0
 20 19  2  0
 21 22  1  0
 22 30  1  0
 23 24  1  0
 22 23  1  6
 24 29  2  0
 25 26  2  0
 25 24  1  0
 26 27  1  0
 27 28  2  0
 29 28  1  0
 30 31  2  0
 30 32  1  0
M  END
$$$$
