KFF.pdb
     RDKit          3D

 32 33  0  0  1  0  0  0  0  0999 V2000
   15.5387  -21.5678    2.4498 N   0  0  0  0  0  0  0  0  0  0  0  0
   15.2547  -20.3946    3.2949 C   0  0  1  0  0  0  0  0  0  0  0  0
   14.9746  -20.9447    4.6589 C   0  0  0  0  0  0  0  0  0  0  0  0
   13.7494  -21.7826    4.7750 C   0  0  0  0  0  0  0  0  0  0  0  0
   12.5338  -20.8906    4.6805 C   0  0  0  0  0  0  0  0  0  0  0  0
   11.2487  -21.6345    4.9260 C   0  0  0  0  0  0  0  0  0  0  0  0
   10.1726  -20.6326    4.8494 N   0  0  0  0  0  0  0  0  0  0  0  0
   16.4203  -19.4877    3.2889 C   0  0  0  0  0  0  0  0  0  0  0  0
   17.5386  -19.9486    2.9606 O   0  0  0  0  0  0  0  0  0  0  0  0
   16.2999  -18.1403    3.6387 N   0  0  0  0  0  0  0  0  0  0  0  0
   17.4505  -17.2296    3.7245 C   0  0  1  0  0  0  0  0  0  0  0  0
   16.8949  -15.8599    3.3883 C   0  0  0  0  0  0  0  0  0  0  0  0
   17.8891  -14.7878    3.3985 C   0  0  0  0  0  0  0  0  0  0  0  0
   18.9048  -14.7109    2.4709 C   0  0  0  0  0  0  0  0  0  0  0  0
   19.8274  -13.6699    2.5157 C   0  0  0  0  0  0  0  0  0  0  0  0
   19.7539  -12.7031    3.4716 C   0  0  0  0  0  0  0  0  0  0  0  0
   18.7380  -12.7651    4.4134 C   0  0  0  0  0  0  0  0  0  0  0  0
   17.8256  -13.8038    4.3605 C   0  0  0  0  0  0  0  0  0  0  0  0
   17.9685  -17.2796    5.1025 C   0  0  0  0  0  0  0  0  0  0  0  0
   17.1715  -17.3676    6.0771 O   0  0  0  0  0  0  0  0  0  0  0  0
   19.3557  -17.2295    5.3471 N   0  0  0  0  0  0  0  0  0  0  0  0
   19.9280  -17.1988    6.7034 C   0  0  1  0  0  0  0  0  0  0  0  0
   21.3673  -17.5694    6.5604 C   0  0  0  0  0  0  0  0  0  0  0  0
   22.0493  -17.4203    7.8571 C   0  0  0  0  0  0  0  0  0  0  0  0
   22.0321  -18.5006    8.7380 C   0  0  0  0  0  0  0  0  0  0  0  0
   22.6701  -18.3973    9.9549 C   0  0  0  0  0  0  0  0  0  0  0  0
   23.3227  -17.2396   10.3076 C   0  0  0  0  0  0  0  0  0  0  0  0
   23.3409  -16.1729    9.4400 C   0  0  0  0  0  0  0  0  0  0  0  0
   22.6989  -16.2739    8.2125 C   0  0  0  0  0  0  0  0  0  0  0  0
   19.7080  -15.8441    7.2459 C   0  0  0  0  0  0  0  0  0  0  0  0
   19.3419  -15.6839    8.4273 O   0  0  0  0  0  0  0  0  0  0  0  0
   19.8947  -14.7027    6.4851 O   0  0  0  0  0  0  0  0  0  0  0  0
  2  3  1  0
  2  1  1  6
  3  4  1  0
  5  4  1  0
  6  5  1  0
  7  6  1  0
  8  9  2  0
  8  2  1  0
 10  8  1  0
 11 19  1  0
 11 10  1  0
 11 12  1  1
 13 12  1  0
 14 13  2  0
 15 14  1  0
 16 15  2  0
 16 17  1  0
 17 18  2  0
 18 13  1  0
 19 21  1  0
 20 19  2  0
 21 22  1  0
 22 30  1  0
 23 24  1  0
 22 23  1  6
 24 29  2  0
 25 26  2  0
 25 24  1  0
 26 27  1  0
 27 28  2  0
 29 28  1  0
 30 31  2  0
 30 32  1  0
M  END
$$$$
