KFF.pdb
     RDKit          3D

 32 33  0  0  1  0  0  0  0  0999 V2000
   28.6358  -22.6524  -16.2283 N   0  0  0  0  0  0  0  0  0  0  0  0
   27.5282  -21.6895  -16.3598 C   0  0  1  0  0  0  0  0  0  0  0  0
   26.7230  -22.1658  -17.5288 C   0  0  0  0  0  0  0  0  0  0  0  0
   26.2939  -21.1100  -18.4867 C   0  0  0  0  0  0  0  0  0  0  0  0
   27.1041  -21.2394  -19.7553 C   0  0  0  0  0  0  0  0  0  0  0  0
   26.9391  -22.5827  -20.4137 C   0  0  0  0  0  0  0  0  0  0  0  0
   27.6627  -22.5049  -21.6935 N   0  0  0  0  0  0  0  0  0  0  0  0
   26.7395  -21.6704  -15.1113 C   0  0  0  0  0  0  0  0  0  0  0  0
   26.2265  -22.7405  -14.7081 O   0  0  0  0  0  0  0  0  0  0  0  0
   26.5572  -20.4939  -14.3799 N   0  0  0  0  0  0  0  0  0  0  0  0
   25.7992  -20.4429  -13.1216 C   0  0  1  0  0  0  0  0  0  0  0  0
   26.5910  -19.5149  -12.2218 C   0  0  0  0  0  0  0  0  0  0  0  0
   27.3956  -20.1987  -11.2104 C   0  0  0  0  0  0  0  0  0  0  0  0
   26.9422  -20.4196   -9.9284 C   0  0  0  0  0  0  0  0  0  0  0  0
   27.7407  -21.0790   -8.9986 C   0  0  0  0  0  0  0  0  0  0  0  0
   28.9856  -21.5222   -9.3266 C   0  0  0  0  0  0  0  0  0  0  0  0
   29.4581  -21.3082  -10.6126 C   0  0  0  0  0  0  0  0  0  0  0  0
   28.6568  -20.6518  -11.5299 C   0  0  0  0  0  0  0  0  0  0  0  0
   24.4627  -19.8988  -13.4174 C   0  0  0  0  0  0  0  0  0  0  0  0
   24.3453  -18.7750  -13.9797 O   0  0  0  0  0  0  0  0  0  0  0  0
   23.3037  -20.6248  -13.0764 N   0  0  0  0  0  0  0  0  0  0  0  0
   21.9434  -20.1443  -13.3711 C   0  0  1  0  0  0  0  0  0  0  0  0
   21.8891  -19.9158  -14.8457 C   0  0  0  0  0  0  0  0  0  0  0  0
   21.9077  -21.2094  -15.5493 C   0  0  0  0  0  0  0  0  0  0  0  0
   20.7119  -21.9178  -15.6563 C   0  0  0  0  0  0  0  0  0  0  0  0
   20.6931  -23.1264  -16.3179 C   0  0  0  0  0  0  0  0  0  0  0  0
   21.8419  -23.6390  -16.8728 C   0  0  0  0  0  0  0  0  0  0  0  0
   23.0225  -22.9416  -16.7685 C   0  0  0  0  0  0  0  0  0  0  0  0
   23.0447  -21.7231  -16.1023 C   0  0  0  0  0  0  0  0  0  0  0  0
   20.9977  -21.1687  -12.8872 C   0  0  0  0  0  0  0  0  0  0  0  0
   19.7666  -20.9887  -12.9728 O   0  0  0  0  0  0  0  0  0  0  0  0
   21.4214  -22.3608  -12.3251 O   0  0  0  0  0  0  0  0  0  0  0  0
  2  3  1  0
  2  1  1  1
  3  4  1  0
  5  4  1  0
  6  5  1  0
  7  6  1  0
  8  9  2  0
  8  2  1  0
 10  8  1  0
 11 19  1  0
 11 10  1  0
 11 12  1  1
 13 12  1  0
 14 13  2  0
 15 14  1  0
 16 15  2  0
 16 17  1  0
 17 18  2  0
 18 13  1  0
 19 21  1  0
 20 19  2  0
 21 22  1  0
 22 30  1  0
 23 24  1  0
 22 23  1  6
 24 29  2  0
 25 26  2  0
 25 24  1  0
 26 27  1  0
 27 28  2  0
 29 28  1  0
 30 31  2  0
 30 32  1  0
M  END
$$$$
