KFF.pdb
     RDKit          3D

 32 33  0  0  1  0  0  0  0  0999 V2000
   27.9175  -20.6763  -16.4053 N   0  0  0  0  0  0  0  0  0  0  0  0
   27.9901  -19.9084  -15.1498 C   0  0  1  0  0  0  0  0  0  0  0  0
   27.3288  -18.5981  -15.4454 C   0  0  0  0  0  0  0  0  0  0  0  0
   28.0953  -17.6759  -16.3279 C   0  0  0  0  0  0  0  0  0  0  0  0
   27.8414  -18.0514  -17.7691 C   0  0  0  0  0  0  0  0  0  0  0  0
   28.4301  -17.0617  -18.7381 C   0  0  0  0  0  0  0  0  0  0  0  0
   29.8734  -17.0143  -18.4513 N   0  0  0  0  0  0  0  0  0  0  0  0
   27.2994  -20.6509  -14.0761 C   0  0  0  0  0  0  0  0  0  0  0  0
   26.2824  -21.3226  -14.3682 O   0  0  0  0  0  0  0  0  0  0  0  0
   27.7544  -20.6182  -12.7553 N   0  0  0  0  0  0  0  0  0  0  0  0
   27.0299  -21.2498  -11.6432 C   0  0  1  0  0  0  0  0  0  0  0  0
   27.9948  -21.2160  -10.4746 C   0  0  0  0  0  0  0  0  0  0  0  0
   27.4159  -20.7114   -9.2304 C   0  0  0  0  0  0  0  0  0  0  0  0
   28.0498  -19.7731   -8.4456 C   0  0  0  0  0  0  0  0  0  0  0  0
   27.4598  -19.3176   -7.2705 C   0  0  0  0  0  0  0  0  0  0  0  0
   26.2464  -19.7829   -6.8642 C   0  0  0  0  0  0  0  0  0  0  0  0
   25.5942  -20.7277   -7.6419 C   0  0  0  0  0  0  0  0  0  0  0  0
   26.1889  -21.1744   -8.8086 C   0  0  0  0  0  0  0  0  0  0  0  0
   25.8242  -20.4482  -11.3722 C   0  0  0  0  0  0  0  0  0  0  0  0
   25.9304  -19.2807  -10.9047 O   0  0  0  0  0  0  0  0  0  0  0  0
   24.5426  -20.9748  -11.6308 N   0  0  0  0  0  0  0  0  0  0  0  0
   23.3052  -20.2027  -11.4288 C   0  0  1  0  0  0  0  0  0  0  0  0
   23.4254  -18.9852  -12.2848 C   0  0  0  0  0  0  0  0  0  0  0  0
   23.0636  -19.3170  -13.6732 C   0  0  0  0  0  0  0  0  0  0  0  0
   24.0749  -19.7417  -14.5335 C   0  0  0  0  0  0  0  0  0  0  0  0
   23.7679  -20.0703  -15.8360 C   0  0  0  0  0  0  0  0  0  0  0  0
   22.4744  -19.9830  -16.2940 C   0  0  0  0  0  0  0  0  0  0  0  0
   21.4753  -19.5644  -15.4469 C   0  0  0  0  0  0  0  0  0  0  0  0
   21.7816  -19.2326  -14.1334 C   0  0  0  0  0  0  0  0  0  0  0  0
   22.1733  -21.0792  -11.7874 C   0  0  0  0  0  0  0  0  0  0  0  0
   22.3691  -22.1646  -12.3694 O   0  0  0  0  0  0  0  0  0  0  0  0
   20.8603  -20.7476  -11.4999 O   0  0  0  0  0  0  0  0  0  0  0  0
  2  3  1  0
  2  1  1  6
  3  4  1  0
  5  4  1  0
  6  5  1  0
  7  6  1  0
  8  9  2  0
  8  2  1  0
 10  8  1  0
 11 19  1  0
 11 10  1  0
 11 12  1  1
 13 12  1  0
 14 13  2  0
 15 14  1  0
 16 15  2  0
 16 17  1  0
 17 18  2  0
 18 13  1  0
 19 21  1  0
 20 19  2  0
 21 22  1  0
 22 30  1  0
 23 24  1  0
 22 23  1  6
 24 29  2  0
 25 26  2  0
 25 24  1  0
 26 27  1  0
 27 28  2  0
 29 28  1  0
 30 31  2  0
 30 32  1  0
M  END
$$$$
