KFF.pdb
     RDKit          3D

 32 33  0  0  1  0  0  0  0  0999 V2000
   26.7029  -24.0325  -17.6104 N   0  0  0  0  0  0  0  0  0  0  0  0
   26.1277  -22.7188  -17.2716 C   0  0  1  0  0  0  0  0  0  0  0  0
   25.1504  -22.4179  -18.3652 C   0  0  0  0  0  0  0  0  0  0  0  0
   25.7468  -21.9919  -19.6611 C   0  0  0  0  0  0  0  0  0  0  0  0
   26.7562  -23.0265  -20.1006 C   0  0  0  0  0  0  0  0  0  0  0  0
   26.9495  -23.0500  -21.5930 C   0  0  0  0  0  0  0  0  0  0  0  0
   28.3071  -22.5364  -21.8397 N   0  0  0  0  0  0  0  0  0  0  0  0
   25.4770  -22.7910  -15.9478 C   0  0  0  0  0  0  0  0  0  0  0  0
   24.8119  -23.8136  -15.6601 O   0  0  0  0  0  0  0  0  0  0  0  0
   25.5886  -21.7515  -15.0207 N   0  0  0  0  0  0  0  0  0  0  0  0
   24.9519  -21.7882  -13.6964 C   0  0  1  0  0  0  0  0  0  0  0  0
   25.8464  -20.9490  -12.8057 C   0  0  0  0  0  0  0  0  0  0  0  0
   25.4063  -20.8699  -11.4136 C   0  0  0  0  0  0  0  0  0  0  0  0
   25.8244  -21.7644  -10.4528 C   0  0  0  0  0  0  0  0  0  0  0  0
   25.3832  -21.6489   -9.1380 C   0  0  0  0  0  0  0  0  0  0  0  0
   24.5307  -20.6549   -8.7649 C   0  0  0  0  0  0  0  0  0  0  0  0
   24.0996  -19.7458   -9.7192 C   0  0  0  0  0  0  0  0  0  0  0  0
   24.5439  -19.8689  -11.0237 C   0  0  0  0  0  0  0  0  0  0  0  0
   23.6076  -21.1990  -13.8215 C   0  0  0  0  0  0  0  0  0  0  0  0
   23.4580  -20.0693  -14.3639 O   0  0  0  0  0  0  0  0  0  0  0  0
   22.4772  -21.8882  -13.3381 N   0  0  0  0  0  0  0  0  0  0  0  0
   21.1500  -21.2620  -13.2172 C   0  0  1  0  0  0  0  0  0  0  0  0
   20.2361  -22.0402  -14.1052 C   0  0  0  0  0  0  0  0  0  0  0  0
   20.4813  -21.6763  -15.5109 C   0  0  0  0  0  0  0  0  0  0  0  0
   19.8720  -20.5257  -16.0090 C   0  0  0  0  0  0  0  0  0  0  0  0
   20.0897  -20.1515  -17.3172 C   0  0  0  0  0  0  0  0  0  0  0  0
   20.9016  -20.9020  -18.1345 C   0  0  0  0  0  0  0  0  0  0  0  0
   21.5036  -22.0373  -17.6450 C   0  0  0  0  0  0  0  0  0  0  0  0
   21.2863  -22.4171  -16.3268 C   0  0  0  0  0  0  0  0  0  0  0  0
   20.7732  -21.2953  -11.7907 C   0  0  0  0  0  0  0  0  0  0  0  0
   21.4572  -21.9350  -10.9672 O   0  0  0  0  0  0  0  0  0  0  0  0
   19.6621  -20.6291  -11.3028 O   0  0  0  0  0  0  0  0  0  0  0  0
  2  3  1  0
  2  1  1  6
  3  4  1  0
  5  4  1  0
  6  5  1  0
  7  6  1  0
  8  9  2  0
  8  2  1  0
 10  8  1  0
 11 19  1  0
 11 10  1  0
 11 12  1  1
 13 12  1  0
 14 13  2  0
 15 14  1  0
 16 15  2  0
 16 17  1  0
 17 18  2  0
 18 13  1  0
 19 21  1  0
 20 19  2  0
 21 22  1  0
 22 30  1  0
 23 24  1  0
 22 23  1  6
 24 29  2  0
 25 26  2  0
 25 24  1  0
 26 27  1  0
 27 28  2  0
 29 28  1  0
 30 31  2  0
 30 32  1  0
M  END
$$$$
