KFF.pdb
     RDKit          3D

 32 33  0  0  1  0  0  0  0  0999 V2000
   28.6891  -20.8157  -16.0968 N   0  0  0  0  0  0  0  0  0  0  0  0
   28.4349  -19.9002  -14.9705 C   0  0  1  0  0  0  0  0  0  0  0  0
   27.8092  -18.6838  -15.5794 C   0  0  0  0  0  0  0  0  0  0  0  0
   28.6905  -17.8893  -16.4785 C   0  0  0  0  0  0  0  0  0  0  0  0
   27.8433  -17.2388  -17.5470 C   0  0  0  0  0  0  0  0  0  0  0  0
   28.6530  -16.3962  -18.4954 C   0  0  0  0  0  0  0  0  0  0  0  0
   27.7361  -15.9971  -19.5760 N   0  0  0  0  0  0  0  0  0  0  0  0
   27.5424  -20.5554  -13.9932 C   0  0  0  0  0  0  0  0  0  0  0  0
   26.7994  -21.4848  -14.3868 O   0  0  0  0  0  0  0  0  0  0  0  0
   27.5120  -20.1621  -12.6527 N   0  0  0  0  0  0  0  0  0  0  0  0
   26.6043  -20.7603  -11.6634 C   0  0  1  0  0  0  0  0  0  0  0  0
   27.2801  -20.5397  -10.3245 C   0  0  0  0  0  0  0  0  0  0  0  0
   28.6412  -21.0676  -10.2430 C   0  0  0  0  0  0  0  0  0  0  0  0
   29.7470  -20.2521  -10.1420 C   0  0  0  0  0  0  0  0  0  0  0  0
   31.0246  -20.7981  -10.0625 C   0  0  0  0  0  0  0  0  0  0  0  0
   31.2181  -22.1457  -10.0823 C   0  0  0  0  0  0  0  0  0  0  0  0
   30.1162  -22.9815  -10.1837 C   0  0  0  0  0  0  0  0  0  0  0  0
   28.8500  -22.4291  -10.2621 C   0  0  0  0  0  0  0  0  0  0  0  0
   25.3154  -20.0515  -11.7417 C   0  0  0  0  0  0  0  0  0  0  0  0
   25.2534  -18.9029  -12.2611 O   0  0  0  0  0  0  0  0  0  0  0  0
   24.1408  -20.6462  -11.2386 N   0  0  0  0  0  0  0  0  0  0  0  0
   22.8293  -20.5048  -11.8930 C   0  0  1  0  0  0  0  0  0  0  0  0
   22.9993  -21.0100  -13.2878 C   0  0  0  0  0  0  0  0  0  0  0  0
   21.7183  -20.9179  -14.0084 C   0  0  0  0  0  0  0  0  0  0  0  0
   21.7313  -21.0598  -15.3951 C   0  0  0  0  0  0  0  0  0  0  0  0
   20.5484  -20.9897  -16.0982 C   0  0  0  0  0  0  0  0  0  0  0  0
   19.3566  -20.7811  -15.4448 C   0  0  0  0  0  0  0  0  0  0  0  0
   19.3416  -20.6410  -14.0769 C   0  0  0  0  0  0  0  0  0  0  0  0
   20.5324  -20.7114  -13.3654 C   0  0  0  0  0  0  0  0  0  0  0  0
   21.8512  -21.2676  -11.0933 C   0  0  0  0  0  0  0  0  0  0  0  0
   20.6951  -20.8334  -10.9196 O   0  0  0  0  0  0  0  0  0  0  0  0
   22.1613  -22.4828  -10.5071 O   0  0  0  0  0  0  0  0  0  0  0  0
  2  3  1  0
  2  1  1  6
  3  4  1  0
  5  4  1  0
  6  5  1  0
  7  6  1  0
  8  9  2  0
  8  2  1  0
 10  8  1  0
 11 19  1  0
 11 10  1  0
 11 12  1  1
 13 12  1  0
 14 13  2  0
 15 14  1  0
 16 15  2  0
 16 17  1  0
 17 18  2  0
 18 13  1  0
 19 21  1  0
 20 19  2  0
 21 22  1  0
 22 30  1  0
 23 24  1  0
 22 23  1  6
 24 29  2  0
 25 26  2  0
 25 24  1  0
 26 27  1  0
 27 28  2  0
 29 28  1  0
 30 31  2  0
 30 32  1  0
M  END
$$$$
