KFF.pdb
     RDKit          3D

 32 33  0  0  1  0  0  0  0  0999 V2000
   26.5127  -19.3090  -15.8310 N   0  0  0  0  0  0  0  0  0  0  0  0
   27.1660  -20.0690  -14.7509 C   0  0  1  0  0  0  0  0  0  0  0  0
   28.5944  -19.6201  -14.7556 C   0  0  0  0  0  0  0  0  0  0  0  0
   29.3299  -19.8298  -16.0329 C   0  0  0  0  0  0  0  0  0  0  0  0
   30.0422  -21.1609  -15.9765 C   0  0  0  0  0  0  0  0  0  0  0  0
   29.5517  -22.1253  -17.0226 C   0  0  0  0  0  0  0  0  0  0  0  0
   30.1983  -23.4148  -16.7284 N   0  0  0  0  0  0  0  0  0  0  0  0
   26.4955  -19.7791  -13.4674 C   0  0  0  0  0  0  0  0  0  0  0  0
   26.1437  -18.6006  -13.2260 O   0  0  0  0  0  0  0  0  0  0  0  0
   26.2490  -20.7838  -12.5281 N   0  0  0  0  0  0  0  0  0  0  0  0
   25.5080  -20.5490  -11.2806 C   0  0  1  0  0  0  0  0  0  0  0  0
   24.2442  -21.3756  -11.4114 C   0  0  0  0  0  0  0  0  0  0  0  0
   23.2658  -20.8345  -12.3537 C   0  0  0  0  0  0  0  0  0  0  0  0
   23.1132  -21.3312  -13.6296 C   0  0  0  0  0  0  0  0  0  0  0  0
   22.1656  -20.7881  -14.4923 C   0  0  0  0  0  0  0  0  0  0  0  0
   21.3668  -19.7565  -14.1031 C   0  0  0  0  0  0  0  0  0  0  0  0
   21.5070  -19.2441  -12.8222 C   0  0  0  0  0  0  0  0  0  0  0  0
   22.4517  -19.7907  -11.9719 C   0  0  0  0  0  0  0  0  0  0  0  0
   26.3443  -21.0135  -10.1605 C   0  0  0  0  0  0  0  0  0  0  0  0
   27.4812  -21.5144  -10.3827 O   0  0  0  0  0  0  0  0  0  0  0  0
   25.8853  -20.9043   -8.8323 N   0  0  0  0  0  0  0  0  0  0  0  0
   26.7607  -21.1013   -7.6649 C   0  0  1  0  0  0  0  0  0  0  0  0
   27.8343  -20.0685   -7.7660 C   0  0  0  0  0  0  0  0  0  0  0  0
   28.5218  -19.9389   -6.4701 C   0  0  0  0  0  0  0  0  0  0  0  0
   29.5038  -20.8749   -6.1492 C   0  0  0  0  0  0  0  0  0  0  0  0
   30.1734  -20.7755   -4.9491 C   0  0  0  0  0  0  0  0  0  0  0  0
   29.8819  -19.7624   -4.0663 C   0  0  0  0  0  0  0  0  0  0  0  0
   28.9137  -18.8380   -4.3810 C   0  0  0  0  0  0  0  0  0  0  0  0
   28.2371  -18.9355   -5.5900 C   0  0  0  0  0  0  0  0  0  0  0  0
   25.9218  -20.9788   -6.4570 C   0  0  0  0  0  0  0  0  0  0  0  0
   26.1593  -21.6682   -5.4452 O   0  0  0  0  0  0  0  0  0  0  0  0
   24.8486  -20.1071   -6.3863 O   0  0  0  0  0  0  0  0  0  0  0  0
  2  3  1  0
  2  1  1  6
  3  4  1  0
  5  4  1  0
  6  5  1  0
  7  6  1  0
  8  9  2  0
  8  2  1  0
 10  8  1  0
 11 19  1  0
 11 10  1  0
 11 12  1  6
 13 12  1  0
 14 13  2  0
 15 14  1  0
 16 15  2  0
 16 17  1  0
 17 18  2  0
 18 13  1  0
 19 21  1  0
 20 19  2  0
 21 22  1  0
 22 30  1  0
 23 24  1  0
 22 23  1  1
 24 29  2  0
 25 26  2  0
 25 24  1  0
 26 27  1  0
 27 28  2  0
 29 28  1  0
 30 31  2  0
 30 32  1  0
M  END
$$$$
