KFF.pdb
     RDKit          3D

 32 33  0  0  1  0  0  0  0  0999 V2000
   28.0105  -22.6622  -16.8273 N   0  0  0  0  0  0  0  0  0  0  0  0
   27.8372  -21.4143  -16.0632 C   0  0  1  0  0  0  0  0  0  0  0  0
   27.0180  -20.5200  -16.9412 C   0  0  0  0  0  0  0  0  0  0  0  0
   27.6860  -20.0562  -18.1883 C   0  0  0  0  0  0  0  0  0  0  0  0
   28.7481  -19.0437  -17.8289 C   0  0  0  0  0  0  0  0  0  0  0  0
   29.4077  -18.4411  -19.0400 C   0  0  0  0  0  0  0  0  0  0  0  0
   28.4097  -17.5463  -19.6492 N   0  0  0  0  0  0  0  0  0  0  0  0
   27.1617  -21.7085  -14.7832 C   0  0  0  0  0  0  0  0  0  0  0  0
   26.1640  -22.4670  -14.7908 O   0  0  0  0  0  0  0  0  0  0  0  0
   27.6102  -21.1627  -13.5777 N   0  0  0  0  0  0  0  0  0  0  0  0
   26.8695  -21.2942  -12.3148 C   0  0  1  0  0  0  0  0  0  0  0  0
   27.8435  -20.8558  -11.2393 C   0  0  0  0  0  0  0  0  0  0  0  0
   27.2405  -20.6708   -9.9202 C   0  0  0  0  0  0  0  0  0  0  0  0
   25.9126  -20.9387   -9.6688 C   0  0  0  0  0  0  0  0  0  0  0  0
   25.3813  -20.7522   -8.3961 C   0  0  0  0  0  0  0  0  0  0  0  0
   26.1531  -20.3022   -7.3686 C   0  0  0  0  0  0  0  0  0  0  0  0
   27.4917  -20.0274   -7.6039 C   0  0  0  0  0  0  0  0  0  0  0  0
   28.0108  -20.2160   -8.8725 C   0  0  0  0  0  0  0  0  0  0  0  0
   25.6984  -20.4031  -12.3794 C   0  0  0  0  0  0  0  0  0  0  0  0
   25.8557  -19.1542  -12.4700 O   0  0  0  0  0  0  0  0  0  0  0  0
   24.3933  -20.9338  -12.3406 N   0  0  0  0  0  0  0  0  0  0  0  0
   23.1876  -20.0896  -12.2983 C   0  0  1  0  0  0  0  0  0  0  0  0
   23.2151  -19.2560  -13.5368 C   0  0  0  0  0  0  0  0  0  0  0  0
   22.8829  -20.0903  -14.7040 C   0  0  0  0  0  0  0  0  0  0  0  0
   21.5502  -20.1581  -15.1069 C   0  0  0  0  0  0  0  0  0  0  0  0
   21.2076  -20.9213  -16.2018 C   0  0  0  0  0  0  0  0  0  0  0  0
   22.1675  -21.6157  -16.8996 C   0  0  0  0  0  0  0  0  0  0  0  0
   23.4828  -21.5501  -16.5037 C   0  0  0  0  0  0  0  0  0  0  0  0
   23.8313  -20.7815  -15.4005 C   0  0  0  0  0  0  0  0  0  0  0  0
   22.0209  -20.9886  -12.2056 C   0  0  0  0  0  0  0  0  0  0  0  0
   22.1645  -22.2256  -12.2719 O   0  0  0  0  0  0  0  0  0  0  0  0
   20.7311  -20.5130  -12.0419 O   0  0  0  0  0  0  0  0  0  0  0  0
  2  3  1  0
  2  1  1  6
  3  4  1  0
  5  4  1  0
  6  5  1  0
  7  6  1  0
  8  9  2  0
  8  2  1  0
 10  8  1  0
 11 19  1  0
 11 10  1  0
 11 12  1  1
 13 12  1  0
 14 13  2  0
 15 14  1  0
 16 15  2  0
 16 17  1  0
 17 18  2  0
 18 13  1  0
 19 21  1  0
 20 19  2  0
 21 22  1  0
 22 30  1  0
 23 24  1  0
 22 23  1  6
 24 29  2  0
 25 26  2  0
 25 24  1  0
 26 27  1  0
 27 28  2  0
 29 28  1  0
 30 31  2  0
 30 32  1  0
M  END
$$$$
