KFF.pdb
     RDKit          3D

 32 33  0  0  1  0  0  0  0  0999 V2000
   28.9557  -21.8690  -17.1459 N   0  0  0  0  0  0  0  0  0  0  0  0
   28.2773  -20.6089  -16.7946 C   0  0  1  0  0  0  0  0  0  0  0  0
   27.5855  -20.1666  -18.0466 C   0  0  0  0  0  0  0  0  0  0  0  0
   28.4767  -19.8544  -19.1975 C   0  0  0  0  0  0  0  0  0  0  0  0
   27.6726  -19.1477  -20.2635 C   0  0  0  0  0  0  0  0  0  0  0  0
   27.4964  -17.6803  -19.9790 C   0  0  0  0  0  0  0  0  0  0  0  0
   26.9010  -17.0951  -21.1917 N   0  0  0  0  0  0  0  0  0  0  0  0
   27.3279  -20.8505  -15.6895 C   0  0  0  0  0  0  0  0  0  0  0  0
   26.7862  -21.9771  -15.5981 O   0  0  0  0  0  0  0  0  0  0  0  0
   27.0263  -19.8569  -14.7545 N   0  0  0  0  0  0  0  0  0  0  0  0
   26.1178  -20.0747  -13.6197 C   0  0  1  0  0  0  0  0  0  0  0  0
   26.7912  -19.4007  -12.4408 C   0  0  0  0  0  0  0  0  0  0  0  0
   27.9604  -20.1130  -11.9274 C   0  0  0  0  0  0  0  0  0  0  0  0
   29.2087  -19.9956  -12.4985 C   0  0  0  0  0  0  0  0  0  0  0  0
   30.2954  -20.6891  -11.9741 C   0  0  0  0  0  0  0  0  0  0  0  0
   30.1577  -21.4988  -10.8881 C   0  0  0  0  0  0  0  0  0  0  0  0
   28.9083  -21.6288  -10.3008 C   0  0  0  0  0  0  0  0  0  0  0  0
   27.8341  -20.9352  -10.8294 C   0  0  0  0  0  0  0  0  0  0  0  0
   24.8281  -19.4397  -13.9412 C   0  0  0  0  0  0  0  0  0  0  0  0
   24.7992  -18.3389  -14.5577 O   0  0  0  0  0  0  0  0  0  0  0  0
   23.6160  -20.0526  -13.5648 N   0  0  0  0  0  0  0  0  0  0  0  0
   22.3055  -19.6096  -14.0692 C   0  0  1  0  0  0  0  0  0  0  0  0
   22.3923  -19.6537  -15.5592 C   0  0  0  0  0  0  0  0  0  0  0  0
   21.0874  -19.2997  -16.1429 C   0  0  0  0  0  0  0  0  0  0  0  0
   20.7188  -17.9555  -16.1649 C   0  0  0  0  0  0  0  0  0  0  0  0
   19.5091  -17.5898  -16.7139 C   0  0  0  0  0  0  0  0  0  0  0  0
   18.6633  -18.5379  -17.2396 C   0  0  0  0  0  0  0  0  0  0  0  0
   19.0250  -19.8644  -17.2189 C   0  0  0  0  0  0  0  0  0  0  0  0
   20.2439  -20.2362  -16.6663 C   0  0  0  0  0  0  0  0  0  0  0  0
   21.2847  -20.5110  -13.5005 C   0  0  0  0  0  0  0  0  0  0  0  0
   20.2553  -20.0505  -12.9682 O   0  0  0  0  0  0  0  0  0  0  0  0
   21.4150  -21.8890  -13.5297 O   0  0  0  0  0  0  0  0  0  0  0  0
  2  3  1  0
  2  1  1  6
  3  4  1  0
  5  4  1  0
  6  5  1  0
  7  6  1  0
  8  9  2  0
  8  2  1  0
 10  8  1  0
 11 19  1  0
 11 10  1  0
 11 12  1  1
 13 12  1  0
 14 13  2  0
 15 14  1  0
 16 15  2  0
 16 17  1  0
 17 18  2  0
 18 13  1  0
 19 21  1  0
 20 19  2  0
 21 22  1  0
 22 30  1  0
 23 24  1  0
 22 23  1  6
 24 29  2  0
 25 26  2  0
 25 24  1  0
 26 27  1  0
 27 28  2  0
 29 28  1  0
 30 31  2  0
 30 32  1  0
M  END
$$$$
