WDP.pdb
     RDKit          3D

 30 32  0  0  1  0  0  0  0  0999 V2000
    6.6727  -16.7867   22.2438 N   0  0  0  0  0  0  0  0  0  0  0  0
    7.8703  -16.0251   22.3118 C   0  0  1  0  0  0  0  0  0  0  0  0
    7.7474  -14.6081   22.7545 C   0  0  0  0  0  0  0  0  0  0  0  0
    7.0724  -14.4256   24.0624 C   0  0  0  0  0  0  0  0  0  0  0  0
    6.3827  -15.3549   24.7953 C   0  0  0  0  0  0  0  0  0  0  0  0
    5.9149  -14.7809   25.8900 N   0  0  0  0  0  0  0  0  0  0  0  0
    6.2905  -13.4964   25.8779 C   0  0  0  0  0  0  0  0  0  0  0  0
    6.0686  -12.4588   26.7910 C   0  0  0  0  0  0  0  0  0  0  0  0
    6.5911  -11.2137   26.5204 C   0  0  0  0  0  0  0  0  0  0  0  0
    7.3200  -10.9576   25.3882 C   0  0  0  0  0  0  0  0  0  0  0  0
    7.5389  -11.9703   24.4927 C   0  0  0  0  0  0  0  0  0  0  0  0
    7.0222  -13.2211   24.7487 C   0  0  0  0  0  0  0  0  0  0  0  0
    8.8829  -16.8072   23.1020 C   0  0  0  0  0  0  0  0  0  0  0  0
    8.4419  -17.6652   23.9129 O   0  0  0  0  0  0  0  0  0  0  0  0
   10.2499  -16.5954   22.9490 N   0  0  0  0  0  0  0  0  0  0  0  0
   11.3097  -17.4219   23.5853 C   0  0  1  0  0  0  0  0  0  0  0  0
   12.6432  -16.9034   23.0998 C   0  0  0  0  0  0  0  0  0  0  0  0
   12.9120  -16.9170   21.6884 C   0  0  0  0  0  0  0  0  0  0  0  0
   12.7075  -17.9573   20.9705 O   0  0  0  0  0  0  0  0  0  0  0  0
   11.0958  -17.3767   25.0308 C   0  0  0  0  0  0  0  0  0  0  0  0
   10.6852  -16.2555   25.5093 O   0  0  0  0  0  0  0  0  0  0  0  0
   13.4135  -15.8229   20.9610 O   0  0  0  0  0  0  0  0  0  0  0  0
   11.2791  -18.4127   25.9709 N   0  0  0  0  0  0  0  0  0  0  0  0
   11.4547  -19.8275   25.5674 C   0  0  0  0  0  0  0  0  0  0  0  0
   10.3653  -20.4537   26.4186 C   0  0  0  0  0  0  0  0  0  0  0  0
   10.5166  -19.6962   27.7419 C   0  0  0  0  0  0  0  0  0  0  0  0
   11.3361  -18.4764   27.4008 C   0  0  1  0  0  0  0  0  0  0  0  0
   12.7635  -18.6528   27.8775 C   0  0  0  0  0  0  0  0  0  0  0  0
   13.0889  -18.3149   29.1727 O   0  0  0  0  0  0  0  0  0  0  0  0
   13.6204  -19.0978   27.1000 O   0  0  0  0  0  0  0  0  0  0  0  0
  2  1  1  1
  2 13  1  0
  2  3  1  0
  3  4  1  0
  4 12  1  0
  4  5  2  0
  5  6  1  0
  7  8  2  0
  7  6  1  0
  9  8  1  0
 10  9  2  0
 11 10  1  0
 11 12  2  0
 12  7  1  0
 13 14  2  0
 15 13  1  0
 15 16  1  0
 16 17  1  1
 17 18  1  0
 18 22  1  0
 19 18  2  0
 20 16  1  0
 21 20  2  0
 23 20  1  0
 23 27  1  0
 24 23  1  0
 25 24  1  0
 25 26  1  0
 26 27  1  0
 27 28  1  6
 28 29  1  0
 30 28  2  0
M  END
$$$$
