WDP.pdb
     RDKit          3D

 30 32  0  0  1  0  0  0  0  0999 V2000
    7.1616  -16.4241   22.9841 N   0  0  0  0  0  0  0  0  0  0  0  0
    8.2868  -15.7985   23.5853 C   0  0  1  0  0  0  0  0  0  0  0  0
    8.2158  -15.5414   25.0508 C   0  0  0  0  0  0  0  0  0  0  0  0
    7.0591  -14.7174   25.4783 C   0  0  0  0  0  0  0  0  0  0  0  0
    5.7493  -15.0984   25.6032 C   0  0  0  0  0  0  0  0  0  0  0  0
    5.0314  -14.0571   25.9867 N   0  0  0  0  0  0  0  0  0  0  0  0
    5.8545  -13.0093   26.1124 C   0  0  0  0  0  0  0  0  0  0  0  0
    5.6139  -11.6841   26.4942 C   0  0  0  0  0  0  0  0  0  0  0  0
    6.6731  -10.8055   26.5452 C   0  0  0  0  0  0  0  0  0  0  0  0
    7.9530  -11.1855   26.2350 C   0  0  0  0  0  0  0  0  0  0  0  0
    8.1920  -12.4810   25.8610 C   0  0  0  0  0  0  0  0  0  0  0  0
    7.1429  -13.3716   25.8043 C   0  0  0  0  0  0  0  0  0  0  0  0
    9.5215  -16.5526   23.1750 C   0  0  0  0  0  0  0  0  0  0  0  0
    9.3662  -17.7389   22.7791 O   0  0  0  0  0  0  0  0  0  0  0  0
   10.7843  -15.9702   23.2295 N   0  0  0  0  0  0  0  0  0  0  0  0
   12.0317  -16.6898   23.5999 C   0  0  1  0  0  0  0  0  0  0  0  0
   13.1687  -15.6979   23.5226 C   0  0  0  0  0  0  0  0  0  0  0  0
   14.5119  -16.1791   23.6926 C   0  0  0  0  0  0  0  0  0  0  0  0
   14.8433  -16.9269   24.6777 O   0  0  0  0  0  0  0  0  0  0  0  0
   11.8126  -17.3083   24.9064 C   0  0  0  0  0  0  0  0  0  0  0  0
   11.2779  -16.5605   25.8061 O   0  0  0  0  0  0  0  0  0  0  0  0
   15.5785  -15.8919   22.8223 O   0  0  0  0  0  0  0  0  0  0  0  0
   12.1105  -18.6283   25.3058 N   0  0  0  0  0  0  0  0  0  0  0  0
   12.7400  -19.6101   24.3920 C   0  0  0  0  0  0  0  0  0  0  0  0
   11.7371  -20.7407   24.5316 C   0  0  0  0  0  0  0  0  0  0  0  0
   11.4393  -20.7220   26.0346 C   0  0  0  0  0  0  0  0  0  0  0  0
   11.9335  -19.3793   26.5127 C   0  0  1  0  0  0  0  0  0  0  0  0
   13.2482  -19.5358   27.2496 C   0  0  0  0  0  0  0  0  0  0  0  0
   14.4291  -19.3010   26.5802 O   0  0  0  0  0  0  0  0  0  0  0  0
   13.2475  -19.8720   28.4429 O   0  0  0  0  0  0  0  0  0  0  0  0
  2  1  1  1
  2 13  1  0
  2  3  1  0
  3  4  1  0
  4 12  1  0
  4  5  2  0
  5  6  1  0
  7  8  2  0
  7  6  1  0
  9  8  1  0
 10  9  2  0
 11 10  1  0
 11 12  2  0
 12  7  1  0
 13 14  2  0
 15 13  1  0
 15 16  1  0
 16 17  1  1
 17 18  1  0
 18 22  1  0
 19 18  2  0
 20 16  1  0
 21 20  2  0
 23 20  1  0
 23 27  1  0
 24 23  1  0
 25 24  1  0
 25 26  1  0
 26 27  1  0
 27 28  1  6
 28 29  1  0
 30 28  2  0
M  END
$$$$
