WDP.pdb
     RDKit          3D

 30 32  0  0  1  0  0  0  0  0999 V2000
    6.4865  -17.8292   22.5160 N   0  0  0  0  0  0  0  0  0  0  0  0
    7.2264  -16.8962   23.2912 C   0  0  1  0  0  0  0  0  0  0  0  0
    6.4466  -15.9395   24.1252 C   0  0  0  0  0  0  0  0  0  0  0  0
    6.8856  -14.5268   24.0189 C   0  0  0  0  0  0  0  0  0  0  0  0
    7.5029  -13.9100   22.9630 C   0  0  0  0  0  0  0  0  0  0  0  0
    7.7483  -12.6512   23.2818 N   0  0  0  0  0  0  0  0  0  0  0  0
    7.2999  -12.4429   24.5254 C   0  0  0  0  0  0  0  0  0  0  0  0
    7.3039  -11.2981   25.3310 C   0  0  0  0  0  0  0  0  0  0  0  0
    6.7557  -11.3723   26.5922 C   0  0  0  0  0  0  0  0  0  0  0  0
    6.2073  -12.5283   27.0836 C   0  0  0  0  0  0  0  0  0  0  0  0
    6.2019  -13.6503   26.2983 C   0  0  0  0  0  0  0  0  0  0  0  0
    6.7471  -13.5924   25.0348 C   0  0  0  0  0  0  0  0  0  0  0  0
    8.2671  -17.6508   24.0716 C   0  0  0  0  0  0  0  0  0  0  0  0
    7.8642  -18.5885   24.8109 O   0  0  0  0  0  0  0  0  0  0  0  0
    9.6187  -17.3306   23.9854 N   0  0  0  0  0  0  0  0  0  0  0  0
   10.6908  -17.9631   24.7988 C   0  0  1  0  0  0  0  0  0  0  0  0
   11.9921  -17.7869   24.0517 C   0  0  0  0  0  0  0  0  0  0  0  0
   13.1873  -18.3545   24.6120 C   0  0  0  0  0  0  0  0  0  0  0  0
   13.1478  -19.2260   25.5491 O   0  0  0  0  0  0  0  0  0  0  0  0
   10.6375  -17.3721   26.1349 C   0  0  0  0  0  0  0  0  0  0  0  0
   10.5959  -16.0875   26.1862 O   0  0  0  0  0  0  0  0  0  0  0  0
   14.4930  -18.0265   24.2053 O   0  0  0  0  0  0  0  0  0  0  0  0
   10.6212  -18.0350   27.3803 N   0  0  0  0  0  0  0  0  0  0  0  0
   10.4716  -19.5046   27.4942 C   0  0  0  0  0  0  0  0  0  0  0  0
    9.3002  -19.5497   28.4580 C   0  0  0  0  0  0  0  0  0  0  0  0
    9.6552  -18.4347   29.4472 C   0  0  0  0  0  0  0  0  0  0  0  0
   10.7090  -17.6136   28.7465 C   0  0  1  0  0  0  0  0  0  0  0  0
   12.0784  -17.9180   29.3191 C   0  0  0  0  0  0  0  0  0  0  0  0
   12.9176  -18.7752   28.6418 O   0  0  0  0  0  0  0  0  0  0  0  0
   12.4283  -17.3943   30.3869 O   0  0  0  0  0  0  0  0  0  0  0  0
  2  1  1  1
  2 13  1  0
  2  3  1  0
  3  4  1  0
  4 12  1  0
  4  5  2  0
  5  6  1  0
  7  8  2  0
  7  6  1  0
  9  8  1  0
 10  9  2  0
 11 10  1  0
 11 12  2  0
 12  7  1  0
 13 14  2  0
 15 13  1  0
 15 16  1  0
 16 17  1  6
 17 18  1  0
 18 22  1  0
 19 18  2  0
 20 16  1  0
 21 20  2  0
 23 20  1  0
 23 27  1  0
 24 23  1  0
 25 24  1  0
 25 26  1  0
 26 27  1  0
 27 28  1  1
 28 29  1  0
 30 28  2  0
M  END
$$$$
