WDP.pdb
     RDKit          3D

 30 32  0  0  1  0  0  0  0  0999 V2000
    8.8498  -17.8065   24.2968 N   0  0  0  0  0  0  0  0  0  0  0  0
    8.4690  -16.4405   24.3846 C   0  0  1  0  0  0  0  0  0  0  0  0
    8.6159  -15.7806   25.7120 C   0  0  0  0  0  0  0  0  0  0  0  0
    7.4243  -15.0191   26.1589 C   0  0  0  0  0  0  0  0  0  0  0  0
    6.1360  -15.4654   26.2911 C   0  0  0  0  0  0  0  0  0  0  0  0
    5.3715  -14.4648   26.6924 N   0  0  0  0  0  0  0  0  0  0  0  0
    6.1432  -13.3792   26.8225 C   0  0  0  0  0  0  0  0  0  0  0  0
    5.8414  -12.0716   27.2210 C   0  0  0  0  0  0  0  0  0  0  0  0
    6.8567  -11.1425   27.2723 C   0  0  0  0  0  0  0  0  0  0  0  0
    8.1507  -11.4557   26.9467 C   0  0  0  0  0  0  0  0  0  0  0  0
    8.4495  -12.7339   26.5562 C   0  0  0  0  0  0  0  0  0  0  0  0
    7.4450  -13.6744   26.4990 C   0  0  0  0  0  0  0  0  0  0  0  0
    9.1454  -15.6892   23.2712 C   0  0  0  0  0  0  0  0  0  0  0  0
    8.8941  -14.4583   23.1720 O   0  0  0  0  0  0  0  0  0  0  0  0
   10.0118  -16.3219   22.3848 N   0  0  0  0  0  0  0  0  0  0  0  0
   10.4574  -15.7512   21.0859 C   0  0  1  0  0  0  0  0  0  0  0  0
   11.7250  -16.4689   20.6851 C   0  0  0  0  0  0  0  0  0  0  0  0
   12.9326  -16.1853   21.4102 C   0  0  0  0  0  0  0  0  0  0  0  0
   13.5987  -17.1050   22.0017 O   0  0  0  0  0  0  0  0  0  0  0  0
    9.3397  -15.8599   20.1499 C   0  0  0  0  0  0  0  0  0  0  0  0
    8.5534  -16.8639   20.3185 O   0  0  0  0  0  0  0  0  0  0  0  0
   13.5001  -14.9057   21.5459 O   0  0  0  0  0  0  0  0  0  0  0  0
    9.0101  -14.9971   19.0833 N   0  0  0  0  0  0  0  0  0  0  0  0
    9.7334  -13.7275   18.8381 C   0  0  0  0  0  0  0  0  0  0  0  0
    8.5465  -12.7824   18.7980 C   0  0  0  0  0  0  0  0  0  0  0  0
    7.5172  -13.5932   18.0037 C   0  0  0  0  0  0  0  0  0  0  0  0
    8.0258  -15.0129   18.0427 C   0  0  1  0  0  0  0  0  0  0  0  0
    8.6508  -15.3833   16.7131 C   0  0  0  0  0  0  0  0  0  0  0  0
    7.8417  -15.8066   15.6816 O   0  0  0  0  0  0  0  0  0  0  0  0
    9.8793  -15.3018   16.5676 O   0  0  0  0  0  0  0  0  0  0  0  0
  2  1  1  1
  2 13  1  0
  2  3  1  0
  3  4  1  0
  4 12  1  0
  4  5  2  0
  5  6  1  0
  7  8  2  0
  7  6  1  0
  9  8  1  0
 10  9  2  0
 11 10  1  0
 11 12  2  0
 12  7  1  0
 13 14  2  0
 15 13  1  0
 15 16  1  0
 16 17  1  6
 17 18  1  0
 18 22  1  0
 19 18  2  0
 20 16  1  0
 21 20  2  0
 23 20  1  0
 23 27  1  0
 24 23  1  0
 25 24  1  0
 25 26  1  0
 26 27  1  0
 27 28  1  6
 28 29  1  0
 30 28  2  0
M  END
$$$$
