WDP.pdb
     RDKit          3D

 30 32  0  0  1  0  0  0  0  0999 V2000
    6.5468  -17.4615   24.0462 N   0  0  0  0  0  0  0  0  0  0  0  0
    7.7062  -16.6415   23.9996 C   0  0  1  0  0  0  0  0  0  0  0  0
    8.0781  -15.9231   25.2505 C   0  0  0  0  0  0  0  0  0  0  0  0
    7.0765  -14.9331   25.7156 C   0  0  0  0  0  0  0  0  0  0  0  0
    5.8075  -15.1660   26.1756 C   0  0  0  0  0  0  0  0  0  0  0  0
    5.2346  -14.0108   26.4656 N   0  0  0  0  0  0  0  0  0  0  0  0
    6.1114  -13.0349   26.2014 C   0  0  0  0  0  0  0  0  0  0  0  0
    6.0166  -11.6446   26.3350 C   0  0  0  0  0  0  0  0  0  0  0  0
    7.1006  -10.8692   25.9880 C   0  0  0  0  0  0  0  0  0  0  0  0
    8.2672  -11.4132   25.5170 C   0  0  0  0  0  0  0  0  0  0  0  0
    8.3633  -12.7730   25.3849 C   0  0  0  0  0  0  0  0  0  0  0  0
    7.2875  -13.5620   25.7270 C   0  0  0  0  0  0  0  0  0  0  0  0
    8.8347  -17.4516   23.4236 C   0  0  0  0  0  0  0  0  0  0  0  0
    8.8453  -18.6859   23.6780 O   0  0  0  0  0  0  0  0  0  0  0  0
    9.8281  -16.8678   22.6432 N   0  0  0  0  0  0  0  0  0  0  0  0
   11.1886  -17.4340   22.4441 C   0  0  1  0  0  0  0  0  0  0  0  0
   11.9560  -16.4746   21.5648 C   0  0  0  0  0  0  0  0  0  0  0  0
   13.1423  -16.9469   20.9058 C   0  0  0  0  0  0  0  0  0  0  0  0
   13.9043  -17.8297   21.4345 O   0  0  0  0  0  0  0  0  0  0  0  0
   11.7602  -17.6836   23.7663 C   0  0  0  0  0  0  0  0  0  0  0  0
   11.5664  -16.7697   24.6505 O   0  0  0  0  0  0  0  0  0  0  0  0
   13.5840  -16.5064   19.6454 O   0  0  0  0  0  0  0  0  0  0  0  0
   12.4966  -18.8068   24.1987 N   0  0  0  0  0  0  0  0  0  0  0  0
   12.7639  -19.9670   23.3168 C   0  0  0  0  0  0  0  0  0  0  0  0
   12.2447  -21.0734   24.2167 C   0  0  0  0  0  0  0  0  0  0  0  0
   12.7623  -20.6383   25.5917 C   0  0  0  0  0  0  0  0  0  0  0  0
   13.1289  -19.1841   25.4274 C   0  0  1  0  0  0  0  0  0  0  0  0
   14.6331  -19.0297   25.3309 C   0  0  0  0  0  0  0  0  0  0  0  0
   15.3819  -18.9809   26.4862 O   0  0  0  0  0  0  0  0  0  0  0  0
   15.1724  -18.9493   24.2176 O   0  0  0  0  0  0  0  0  0  0  0  0
  2  1  1  1
  2 13  1  0
  2  3  1  0
  3  4  1  0
  4 12  1  0
  4  5  2  0
  5  6  1  0
  7  8  2  0
  7  6  1  0
  9  8  1  0
 10  9  2  0
 11 10  1  0
 11 12  2  0
 12  7  1  0
 13 14  2  0
 15 13  1  0
 15 16  1  0
 16 17  1  1
 17 18  1  0
 18 22  1  0
 19 18  2  0
 20 16  1  0
 21 20  2  0
 23 20  1  0
 23 27  1  0
 24 23  1  0
 25 24  1  0
 25 26  1  0
 26 27  1  0
 27 28  1  6
 28 29  1  0
 30 28  2  0
M  END
$$$$
