WDP.pdb
     RDKit          3D

 30 32  0  0  1  0  0  0  0  0999 V2000
    6.5123  -17.7608   24.0761 N   0  0  0  0  0  0  0  0  0  0  0  0
    7.5701  -16.8818   23.7191 C   0  0  1  0  0  0  0  0  0  0  0  0
    8.1779  -16.0743   24.8134 C   0  0  0  0  0  0  0  0  0  0  0  0
    7.2295  -15.1812   25.5223 C   0  0  0  0  0  0  0  0  0  0  0  0
    6.1543  -15.5318   26.2953 C   0  0  0  0  0  0  0  0  0  0  0  0
    5.5548  -14.4348   26.7240 N   0  0  0  0  0  0  0  0  0  0  0  0
    6.2239  -13.3808   26.2420 C   0  0  0  0  0  0  0  0  0  0  0  0
    6.0179  -12.0047   26.3959 C   0  0  0  0  0  0  0  0  0  0  0  0
    6.8861  -11.1308   25.7803 C   0  0  0  0  0  0  0  0  0  0  0  0
    7.9436  -11.5636   25.0231 C   0  0  0  0  0  0  0  0  0  0  0  0
    8.1479  -12.9091   24.8702 C   0  0  0  0  0  0  0  0  0  0  0  0
    7.2878  -13.7958   25.4791 C   0  0  0  0  0  0  0  0  0  0  0  0
    8.5823  -17.6595   22.9241 C   0  0  0  0  0  0  0  0  0  0  0  0
    8.8396  -18.8314   23.3096 O   0  0  0  0  0  0  0  0  0  0  0  0
    9.2119  -17.1126   21.8099 N   0  0  0  0  0  0  0  0  0  0  0  0
   10.4639  -17.6379   21.2037 C   0  0  1  0  0  0  0  0  0  0  0  0
   10.6542  -16.9400   19.8773 C   0  0  0  0  0  0  0  0  0  0  0  0
   11.7758  -17.3132   19.0603 C   0  0  0  0  0  0  0  0  0  0  0  0
   12.0632  -18.5384   18.8242 O   0  0  0  0  0  0  0  0  0  0  0  0
   11.5368  -17.4558   22.1799 C   0  0  0  0  0  0  0  0  0  0  0  0
   11.4856  -16.3819   22.8861 O   0  0  0  0  0  0  0  0  0  0  0  0
   12.6549  -16.4024   18.4476 O   0  0  0  0  0  0  0  0  0  0  0  0
   12.6233  -18.3144   22.4499 N   0  0  0  0  0  0  0  0  0  0  0  0
   12.7945  -19.6163   21.7637 C   0  0  0  0  0  0  0  0  0  0  0  0
   12.9354  -20.5099   22.9824 C   0  0  0  0  0  0  0  0  0  0  0  0
   13.8241  -19.6637   23.8999 C   0  0  0  0  0  0  0  0  0  0  0  0
   13.7483  -18.2668   23.3353 C   0  0  1  0  0  0  0  0  0  0  0  0
   15.0186  -17.9371   22.5780 C   0  0  0  0  0  0  0  0  0  0  0  0
   16.1030  -17.4367   23.2646 O   0  0  0  0  0  0  0  0  0  0  0  0
   15.0688  -18.1205   21.3529 O   0  0  0  0  0  0  0  0  0  0  0  0
  2  1  1  1
  2 13  1  0
  2  3  1  0
  3  4  1  0
  4 12  1  0
  4  5  2  0
  5  6  1  0
  7  8  2  0
  7  6  1  0
  9  8  1  0
 10  9  2  0
 11 10  1  0
 11 12  2  0
 12  7  1  0
 13 14  2  0
 15 13  1  0
 15 16  1  0
 16 17  1  6
 17 18  1  0
 18 22  1  0
 19 18  2  0
 20 16  1  0
 21 20  2  0
 23 20  1  0
 23 27  1  0
 24 23  1  0
 25 24  1  0
 25 26  1  0
 26 27  1  0
 27 28  1  6
 28 29  1  0
 30 28  2  0
M  END
$$$$
