WDP.pdb
     RDKit          3D

 30 32  0  0  1  0  0  0  0  0999 V2000
    6.0288  -17.9223   23.7423 N   0  0  0  0  0  0  0  0  0  0  0  0
    6.9543  -17.0765   23.0737 C   0  0  1  0  0  0  0  0  0  0  0  0
    6.6836  -15.6122   23.1124 C   0  0  0  0  0  0  0  0  0  0  0  0
    6.4880  -15.0557   24.4732 C   0  0  0  0  0  0  0  0  0  0  0  0
    5.9831  -15.6853   25.5800 C   0  0  0  0  0  0  0  0  0  0  0  0
    5.9527  -14.8300   26.5870 N   0  0  0  0  0  0  0  0  0  0  0  0
    6.4296  -13.6581   26.1507 C   0  0  0  0  0  0  0  0  0  0  0  0
    6.6180  -12.4346   26.8043 C   0  0  0  0  0  0  0  0  0  0  0  0
    7.1459  -11.3782   26.0958 C   0  0  0  0  0  0  0  0  0  0  0  0
    7.4924  -11.4854   24.7740 C   0  0  0  0  0  0  0  0  0  0  0  0
    7.3092  -12.6808   24.1314 C   0  0  0  0  0  0  0  0  0  0  0  0
    6.7815  -13.7466   24.8261 C   0  0  0  0  0  0  0  0  0  0  0  0
    8.3401  -17.4354   23.5343 C   0  0  0  0  0  0  0  0  0  0  0  0
    8.4359  -18.1487   24.5688 O   0  0  0  0  0  0  0  0  0  0  0  0
    9.4719  -16.9999   22.8515 N   0  0  0  0  0  0  0  0  0  0  0  0
   10.8708  -17.2355   23.2973 C   0  0  1  0  0  0  0  0  0  0  0  0
   11.7812  -16.8773   22.1459 C   0  0  0  0  0  0  0  0  0  0  0  0
   13.1756  -17.2096   22.2447 C   0  0  0  0  0  0  0  0  0  0  0  0
   14.0912  -16.4186   21.8258 O   0  0  0  0  0  0  0  0  0  0  0  0
   11.0742  -16.4776   24.5308 C   0  0  0  0  0  0  0  0  0  0  0  0
   10.6780  -15.2540   24.5172 O   0  0  0  0  0  0  0  0  0  0  0  0
   13.6743  -18.4034   22.7959 O   0  0  0  0  0  0  0  0  0  0  0  0
   11.6482  -16.9215   25.7408 N   0  0  0  0  0  0  0  0  0  0  0  0
   11.9783  -18.3448   25.9866 C   0  0  0  0  0  0  0  0  0  0  0  0
   11.2403  -18.5361   27.2990 C   0  0  0  0  0  0  0  0  0  0  0  0
   11.5493  -17.2280   28.0346 C   0  0  0  0  0  0  0  0  0  0  0  0
   12.0382  -16.2849   26.9634 C   0  0  1  0  0  0  0  0  0  0  0  0
   13.5444  -16.1387   27.0401 C   0  0  0  0  0  0  0  0  0  0  0  0
   14.3425  -16.9751   26.2912 O   0  0  0  0  0  0  0  0  0  0  0  0
   14.0409  -15.2710   27.7733 O   0  0  0  0  0  0  0  0  0  0  0  0
  2  1  1  1
  2 13  1  0
  2  3  1  0
  3  4  1  0
  4 12  1  0
  4  5  2  0
  5  6  1  0
  7  8  2  0
  7  6  1  0
  9  8  1  0
 10  9  2  0
 11 10  1  0
 11 12  2  0
 12  7  1  0
 13 14  2  0
 15 13  1  0
 15 16  1  0
 16 17  1  6
 17 18  1  0
 18 22  1  0
 19 18  2  0
 20 16  1  0
 21 20  2  0
 23 20  1  0
 23 27  1  0
 24 23  1  0
 25 24  1  0
 25 26  1  0
 26 27  1  0
 27 28  1  6
 28 29  1  0
 30 28  2  0
M  END
$$$$
