WDP.pdb
     RDKit          3D

 30 32  0  0  1  0  0  0  0  0999 V2000
    6.3887  -17.5060   24.1738 N   0  0  0  0  0  0  0  0  0  0  0  0
    7.4841  -16.6302   23.9461 C   0  0  1  0  0  0  0  0  0  0  0  0
    8.0242  -15.9001   25.1269 C   0  0  0  0  0  0  0  0  0  0  0  0
    7.0683  -14.9614   25.7632 C   0  0  0  0  0  0  0  0  0  0  0  0
    5.9196  -15.2587   26.4477 C   0  0  0  0  0  0  0  0  0  0  0  0
    5.3432  -14.1336   26.8331 N   0  0  0  0  0  0  0  0  0  0  0  0
    6.0996  -13.1138   26.4100 C   0  0  0  0  0  0  0  0  0  0  0  0
    5.9505  -11.7293   26.5537 C   0  0  0  0  0  0  0  0  0  0  0  0
    6.9068  -10.8992   26.0122 C   0  0  0  0  0  0  0  0  0  0  0  0
    7.9978  -11.3834   25.3385 C   0  0  0  0  0  0  0  0  0  0  0  0
    8.1466  -12.7373   25.1959 C   0  0  0  0  0  0  0  0  0  0  0  0
    7.1984  -13.5807   25.7311 C   0  0  0  0  0  0  0  0  0  0  0  0
    8.5383  -17.3817   23.1809 C   0  0  0  0  0  0  0  0  0  0  0  0
    8.6571  -18.6128   23.4228 O   0  0  0  0  0  0  0  0  0  0  0  0
    9.3516  -16.7489   22.2454 N   0  0  0  0  0  0  0  0  0  0  0  0
   10.7023  -17.2224   21.8420 C   0  0  1  0  0  0  0  0  0  0  0  0
   11.1708  -16.3444   20.7052 C   0  0  0  0  0  0  0  0  0  0  0  0
   12.3619  -16.7196   19.9944 C   0  0  0  0  0  0  0  0  0  0  0  0
   13.5041  -16.2124   20.2724 O   0  0  0  0  0  0  0  0  0  0  0  0
   11.5447  -17.2224   23.0368 C   0  0  0  0  0  0  0  0  0  0  0  0
   11.3985  -16.2241   23.8346 O   0  0  0  0  0  0  0  0  0  0  0  0
   12.4041  -17.6573   18.9472 O   0  0  0  0  0  0  0  0  0  0  0  0
   12.4985  -18.1851   23.4296 N   0  0  0  0  0  0  0  0  0  0  0  0
   12.7440  -19.4215   22.6511 C   0  0  0  0  0  0  0  0  0  0  0  0
   12.5681  -20.4402   23.7624 C   0  0  0  0  0  0  0  0  0  0  0  0
   13.2806  -19.7608   24.9364 C   0  0  0  0  0  0  0  0  0  0  0  0
   13.4051  -18.3130   24.5313 C   0  0  1  0  0  0  0  0  0  0  0  0
   14.8255  -18.0086   24.1004 C   0  0  0  0  0  0  0  0  0  0  0  0
   15.1371  -18.0027   22.7586 O   0  0  0  0  0  0  0  0  0  0  0  0
   15.6893  -17.7687   24.9567 O   0  0  0  0  0  0  0  0  0  0  0  0
  2  1  1  1
  2 13  1  0
  2  3  1  0
  3  4  1  0
  4 12  1  0
  4  5  2  0
  5  6  1  0
  7  8  2  0
  7  6  1  0
  9  8  1  0
 10  9  2  0
 11 10  1  0
 11 12  2  0
 12  7  1  0
 13 14  2  0
 15 13  1  0
 15 16  1  0
 16 17  1  6
 17 18  1  0
 18 22  1  0
 19 18  2  0
 20 16  1  0
 21 20  2  0
 23 20  1  0
 23 27  1  0
 24 23  1  0
 25 24  1  0
 25 26  1  0
 26 27  1  0
 27 28  1  6
 28 29  1  0
 30 28  2  0
M  END
$$$$
