WDP.pdb
     RDKit          3D

 30 32  0  0  1  0  0  0  0  0999 V2000
    6.6699  -17.6488   24.7601 N   0  0  0  0  0  0  0  0  0  0  0  0
    7.8566  -16.8813   24.6129 C   0  0  1  0  0  0  0  0  0  0  0  0
    8.1655  -15.8990   25.6893 C   0  0  0  0  0  0  0  0  0  0  0  0
    7.0751  -14.9364   25.9790 C   0  0  0  0  0  0  0  0  0  0  0  0
    5.7663  -15.2063   26.2798 C   0  0  0  0  0  0  0  0  0  0  0  0
    5.1173  -14.0668   26.4448 N   0  0  0  0  0  0  0  0  0  0  0  0
    5.9840  -13.0646   26.2562 C   0  0  0  0  0  0  0  0  0  0  0  0
    5.8205  -11.6757   26.3185 C   0  0  0  0  0  0  0  0  0  0  0  0
    6.9107  -10.8680   26.0831 C   0  0  0  0  0  0  0  0  0  0  0  0
    8.1487  -11.3785   25.7905 C   0  0  0  0  0  0  0  0  0  0  0  0
    8.3122  -12.7368   25.7286 C   0  0  0  0  0  0  0  0  0  0  0  0
    7.2312  -13.5581   25.9607 C   0  0  0  0  0  0  0  0  0  0  0  0
    8.9942  -17.8214   24.3241 C   0  0  0  0  0  0  0  0  0  0  0  0
    8.8792  -19.0071   24.7350 O   0  0  0  0  0  0  0  0  0  0  0  0
   10.1285  -17.4043   23.6338 N   0  0  0  0  0  0  0  0  0  0  0  0
   11.4311  -18.1214   23.6368 C   0  0  1  0  0  0  0  0  0  0  0  0
   12.3562  -17.3875   22.6944 C   0  0  0  0  0  0  0  0  0  0  0  0
   11.9898  -17.2933   21.3082 C   0  0  0  0  0  0  0  0  0  0  0  0
   11.7123  -18.3298   20.6095 O   0  0  0  0  0  0  0  0  0  0  0  0
   11.8792  -18.2161   25.0252 C   0  0  0  0  0  0  0  0  0  0  0  0
   11.7452  -17.1543   25.7388 O   0  0  0  0  0  0  0  0  0  0  0  0
   11.8973  -16.0893   20.5873 O   0  0  0  0  0  0  0  0  0  0  0  0
   12.4381  -19.3306   25.6856 N   0  0  0  0  0  0  0  0  0  0  0  0
   12.6997  -20.6138   24.9926 C   0  0  0  0  0  0  0  0  0  0  0  0
   11.9612  -21.5469   25.9347 C   0  0  0  0  0  0  0  0  0  0  0  0
   12.3381  -20.9810   27.3078 C   0  0  0  0  0  0  0  0  0  0  0  0
   12.8660  -19.5960   27.0267 C   0  0  1  0  0  0  0  0  0  0  0  0
   14.3780  -19.5806   27.1246 C   0  0  0  0  0  0  0  0  0  0  0  0
   14.9728  -19.4447   28.3597 O   0  0  0  0  0  0  0  0  0  0  0  0
   15.0615  -19.6903   26.0962 O   0  0  0  0  0  0  0  0  0  0  0  0
  2  1  1  1
  2 13  1  0
  2  3  1  0
  3  4  1  0
  4 12  1  0
  4  5  2  0
  5  6  1  0
  7  8  2  0
  7  6  1  0
  9  8  1  0
 10  9  2  0
 11 10  1  0
 11 12  2  0
 12  7  1  0
 13 14  2  0
 15 13  1  0
 15 16  1  0
 16 17  1  6
 17 18  1  0
 18 22  1  0
 19 18  2  0
 20 16  1  0
 21 20  2  0
 23 20  1  0
 23 27  1  0
 24 23  1  0
 25 24  1  0
 25 26  1  0
 26 27  1  0
 27 28  1  6
 28 29  1  0
 30 28  2  0
M  END
$$$$
