WDP.pdb
     RDKit          3D

 30 32  0  0  1  0  0  0  0  0999 V2000
    9.2876  -17.8704   24.8026 N   0  0  0  0  0  0  0  0  0  0  0  0
    8.7741  -16.5464   24.7578 C   0  0  1  0  0  0  0  0  0  0  0  0
    8.8609  -15.7437   26.0097 C   0  0  0  0  0  0  0  0  0  0  0  0
    7.6114  -15.0340   26.3766 C   0  0  0  0  0  0  0  0  0  0  0  0
    6.3500  -15.5528   26.5034 C   0  0  0  0  0  0  0  0  0  0  0  0
    5.5131  -14.5804   26.8209 N   0  0  0  0  0  0  0  0  0  0  0  0
    6.2117  -13.4418   26.9021 C   0  0  0  0  0  0  0  0  0  0  0  0
    5.8174  -12.1341   27.2093 C   0  0  0  0  0  0  0  0  0  0  0  0
    6.7709  -11.1407   27.2281 C   0  0  0  0  0  0  0  0  0  0  0  0
    8.0911  -11.3899   26.9564 C   0  0  0  0  0  0  0  0  0  0  0  0
    8.4803  -12.6679   26.6553 C   0  0  0  0  0  0  0  0  0  0  0  0
    7.5383  -13.6724   26.6316 C   0  0  0  0  0  0  0  0  0  0  0  0
    9.3681  -15.8497   23.5648 C   0  0  0  0  0  0  0  0  0  0  0  0
    9.2731  -14.5936   23.5258 O   0  0  0  0  0  0  0  0  0  0  0  0
    9.9958  -16.5573   22.5440 N   0  0  0  0  0  0  0  0  0  0  0  0
   10.4454  -15.9639   21.2567 C   0  0  1  0  0  0  0  0  0  0  0  0
   11.6541  -16.7436   20.7945 C   0  0  0  0  0  0  0  0  0  0  0  0
   12.9142  -16.5038   21.4421 C   0  0  0  0  0  0  0  0  0  0  0  0
   13.4627  -15.3469   21.4479 O   0  0  0  0  0  0  0  0  0  0  0  0
    9.3006  -15.9638   20.3475 C   0  0  0  0  0  0  0  0  0  0  0  0
    8.4448  -16.9098   20.5121 O   0  0  0  0  0  0  0  0  0  0  0  0
   13.6615  -17.4827   22.1210 O   0  0  0  0  0  0  0  0  0  0  0  0
    9.0120  -15.0510   19.3111 N   0  0  0  0  0  0  0  0  0  0  0  0
    9.8628  -13.8699   19.0351 C   0  0  0  0  0  0  0  0  0  0  0  0
    8.7940  -12.7931   19.0755 C   0  0  0  0  0  0  0  0  0  0  0  0
    7.6324  -13.4659   18.3368 C   0  0  0  0  0  0  0  0  0  0  0  0
    7.9733  -14.9354   18.3315 C   0  0  1  0  0  0  0  0  0  0  0  0
    8.4719  -15.3537   16.9631 C   0  0  0  0  0  0  0  0  0  0  0  0
    7.5598  -15.6485   15.9737 O   0  0  0  0  0  0  0  0  0  0  0  0
    9.6908  -15.4259   16.7489 O   0  0  0  0  0  0  0  0  0  0  0  0
  2  1  1  1
  2 13  1  0
  2  3  1  0
  3  4  1  0
  4 12  1  0
  4  5  2  0
  5  6  1  0
  7  8  2  0
  7  6  1  0
  9  8  1  0
 10  9  2  0
 11 10  1  0
 11 12  2  0
 12  7  1  0
 13 14  2  0
 15 13  1  0
 15 16  1  0
 16 17  1  6
 17 18  1  0
 18 22  1  0
 19 18  2  0
 20 16  1  0
 21 20  2  0
 23 20  1  0
 23 27  1  0
 24 23  1  0
 25 24  1  0
 25 26  1  0
 26 27  1  0
 27 28  1  6
 28 29  1  0
 30 28  2  0
M  END
$$$$
