WDP.pdb
     RDKit          3D

 30 32  0  0  1  0  0  0  0  0999 V2000
    8.6831  -17.3390   25.4132 N   0  0  0  0  0  0  0  0  0  0  0  0
    8.3273  -16.6117   24.2455 C   0  0  1  0  0  0  0  0  0  0  0  0
    8.2354  -15.1303   24.3722 C   0  0  0  0  0  0  0  0  0  0  0  0
    7.3737  -14.6574   25.4828 C   0  0  0  0  0  0  0  0  0  0  0  0
    6.5011  -15.3870   26.2460 C   0  0  0  0  0  0  0  0  0  0  0  0
    5.9095  -14.5836   27.1127 N   0  0  0  0  0  0  0  0  0  0  0  0
    6.3848  -13.3469   26.9234 C   0  0  0  0  0  0  0  0  0  0  0  0
    6.1020  -12.1378   27.5698 C   0  0  0  0  0  0  0  0  0  0  0  0
    6.7605  -10.9985   27.1639 C   0  0  0  0  0  0  0  0  0  0  0  0
    7.6822  -11.0096   26.1495 C   0  0  0  0  0  0  0  0  0  0  0  0
    7.9612  -12.1906   25.5147 C   0  0  0  0  0  0  0  0  0  0  0  0
    7.3102  -13.3386   25.9086 C   0  0  0  0  0  0  0  0  0  0  0  0
    9.2222  -17.0560   23.1216 C   0  0  0  0  0  0  0  0  0  0  0  0
   10.4640  -17.0452   23.3362 O   0  0  0  0  0  0  0  0  0  0  0  0
    8.7061  -17.4617   21.8944 N   0  0  0  0  0  0  0  0  0  0  0  0
    9.4557  -17.4313   20.6105 C   0  0  1  0  0  0  0  0  0  0  0  0
    9.3013  -18.7871   19.9619 C   0  0  0  0  0  0  0  0  0  0  0  0
    9.9335  -19.0162   18.6921 C   0  0  0  0  0  0  0  0  0  0  0  0
   11.2058  -18.9780   18.5528 O   0  0  0  0  0  0  0  0  0  0  0  0
    8.9598  -16.2941   19.8371 C   0  0  0  0  0  0  0  0  0  0  0  0
    7.6880  -16.1033   19.8599 O   0  0  0  0  0  0  0  0  0  0  0  0
    9.2465  -19.2998   17.4982 O   0  0  0  0  0  0  0  0  0  0  0  0
    9.7031  -15.3728   19.0693 N   0  0  0  0  0  0  0  0  0  0  0  0
   11.1832  -15.3197   19.1090 C   0  0  0  0  0  0  0  0  0  0  0  0
   11.3592  -13.8450   19.4216 C   0  0  0  0  0  0  0  0  0  0  0  0
   10.2930  -13.1986   18.5310 C   0  0  0  0  0  0  0  0  0  0  0  0
    9.3681  -14.3275   18.1491 C   0  0  1  0  0  0  0  0  0  0  0  0
    9.6299  -14.7603   16.7208 C   0  0  0  0  0  0  0  0  0  0  0  0
    8.8059  -14.3039   15.7156 O   0  0  0  0  0  0  0  0  0  0  0  0
   10.5795  -15.5175   16.4724 O   0  0  0  0  0  0  0  0  0  0  0  0
  2  1  1  1
  2 13  1  0
  2  3  1  0
  3  4  1  0
  4 12  1  0
  4  5  2  0
  5  6  1  0
  7  8  2  0
  7  6  1  0
  9  8  1  0
 10  9  2  0
 11 10  1  0
 11 12  2  0
 12  7  1  0
 13 14  2  0
 15 13  1  0
 15 16  1  0
 16 17  1  6
 17 18  1  0
 18 22  1  0
 19 18  2  0
 20 16  1  0
 21 20  2  0
 23 20  1  0
 23 27  1  0
 24 23  1  0
 25 24  1  0
 25 26  1  0
 26 27  1  0
 27 28  1  6
 28 29  1  0
 30 28  2  0
M  END
$$$$
