WDP.pdb
     RDKit          3D

 30 32  0  0  1  0  0  0  0  0999 V2000
    7.6133  -17.4297   21.6162 N   0  0  0  0  0  0  0  0  0  0  0  0
    8.8733  -17.0067   22.1184 C   0  0  1  0  0  0  0  0  0  0  0  0
    9.3028  -15.6191   21.7878 C   0  0  0  0  0  0  0  0  0  0  0  0
    8.2526  -14.7799   21.1614 C   0  0  0  0  0  0  0  0  0  0  0  0
    6.9615  -14.5899   21.5778 C   0  0  0  0  0  0  0  0  0  0  0  0
    6.3469  -13.7874   20.7263 N   0  0  0  0  0  0  0  0  0  0  0  0
    7.2184  -13.4547   19.7667 C   0  0  0  0  0  0  0  0  0  0  0  0
    7.0861  -12.6337   18.6406 C   0  0  0  0  0  0  0  0  0  0  0  0
    8.1738  -12.4611   17.8138 C   0  0  0  0  0  0  0  0  0  0  0  0
    9.3797  -13.0656   18.0570 C   0  0  0  0  0  0  0  0  0  0  0  0
    9.5126  -13.8696   19.1576 C   0  0  0  0  0  0  0  0  0  0  0  0
    8.4337  -14.0530   19.9938 C   0  0  0  0  0  0  0  0  0  0  0  0
    8.9193  -17.3062   23.5914 C   0  0  0  0  0  0  0  0  0  0  0  0
    7.9289  -16.9467   24.2828 O   0  0  0  0  0  0  0  0  0  0  0  0
   10.0074  -17.9516   24.1714 N   0  0  0  0  0  0  0  0  0  0  0  0
   10.1910  -18.1506   25.6335 C   0  0  1  0  0  0  0  0  0  0  0  0
   10.9901  -19.4188   25.8228 C   0  0  0  0  0  0  0  0  0  0  0  0
   11.2403  -19.8789   27.1608 C   0  0  0  0  0  0  0  0  0  0  0  0
   12.0275  -20.8592   27.4033 O   0  0  0  0  0  0  0  0  0  0  0  0
   10.7920  -16.9317   26.1724 C   0  0  0  0  0  0  0  0  0  0  0  0
   11.8351  -16.4943   25.5600 O   0  0  0  0  0  0  0  0  0  0  0  0
   10.6667  -19.3205   28.3170 O   0  0  0  0  0  0  0  0  0  0  0  0
   10.3684  -16.1687   27.2810 N   0  0  0  0  0  0  0  0  0  0  0  0
    9.0700  -16.4030   27.9551 C   0  0  0  0  0  0  0  0  0  0  0  0
    8.5154  -14.9913   27.8986 C   0  0  0  0  0  0  0  0  0  0  0  0
    9.7510  -14.1475   28.2291 C   0  0  0  0  0  0  0  0  0  0  0  0
   10.9227  -15.0748   28.0214 C   0  0  1  0  0  0  0  0  0  0  0  0
   11.4635  -15.5446   29.3565 C   0  0  0  0  0  0  0  0  0  0  0  0
   12.2455  -14.6928   30.1052 O   0  0  0  0  0  0  0  0  0  0  0  0
   11.1975  -16.6863   29.7599 O   0  0  0  0  0  0  0  0  0  0  0  0
  2  1  1  1
  2 13  1  0
  2  3  1  0
  3  4  1  0
  4 12  1  0
  4  5  2  0
  5  6  1  0
  7  8  2  0
  7  6  1  0
  9  8  1  0
 10  9  2  0
 11 10  1  0
 11 12  2  0
 12  7  1  0
 13 14  2  0
 15 13  1  0
 15 16  1  0
 16 17  1  6
 17 18  1  0
 18 22  1  0
 19 18  2  0
 20 16  1  0
 21 20  2  0
 23 20  1  0
 23 27  1  0
 24 23  1  0
 25 24  1  0
 25 26  1  0
 26 27  1  0
 27 28  1  1
 28 29  1  0
 30 28  2  0
M  END
$$$$
