WDP.pdb
     RDKit          3D

 30 32  0  0  1  0  0  0  0  0999 V2000
    6.8898  -17.5384   24.0309 N   0  0  0  0  0  0  0  0  0  0  0  0
    7.9442  -16.5919   23.9245 C   0  0  1  0  0  0  0  0  0  0  0  0
    8.3092  -15.8431   25.1595 C   0  0  0  0  0  0  0  0  0  0  0  0
    7.2011  -15.0588   25.7567 C   0  0  0  0  0  0  0  0  0  0  0  0
    6.0750  -15.5258   26.3813 C   0  0  0  0  0  0  0  0  0  0  0  0
    5.3277  -14.4994   26.7483 N   0  0  0  0  0  0  0  0  0  0  0  0
    5.9513  -13.3766   26.3722 C   0  0  0  0  0  0  0  0  0  0  0  0
    5.6013  -12.0293   26.5211 C   0  0  0  0  0  0  0  0  0  0  0  0
    6.4550  -11.0643   26.0348 C   0  0  0  0  0  0  0  0  0  0  0  0
    7.6342  -11.3792   25.4110 C   0  0  0  0  0  0  0  0  0  0  0  0
    7.9796  -12.6962   25.2634 C   0  0  0  0  0  0  0  0  0  0  0  0
    7.1360  -13.6731   25.7438 C   0  0  0  0  0  0  0  0  0  0  0  0
    9.1191  -17.2655   23.2708 C   0  0  0  0  0  0  0  0  0  0  0  0
    9.5272  -18.3400   23.7878 O   0  0  0  0  0  0  0  0  0  0  0  0
    9.7340  -16.7287   22.1436 N   0  0  0  0  0  0  0  0  0  0  0  0
   11.0315  -17.1943   21.5860 C   0  0  1  0  0  0  0  0  0  0  0  0
   11.2024  -16.5473   20.2315 C   0  0  0  0  0  0  0  0  0  0  0  0
   10.2320  -16.8280   19.2096 C   0  0  0  0  0  0  0  0  0  0  0  0
   10.0393  -18.0138   18.7666 O   0  0  0  0  0  0  0  0  0  0  0  0
   12.0684  -16.8936   22.5718 C   0  0  0  0  0  0  0  0  0  0  0  0
   11.8282  -15.9113   23.3669 O   0  0  0  0  0  0  0  0  0  0  0  0
    9.4108  -15.8615   18.6019 O   0  0  0  0  0  0  0  0  0  0  0  0
   13.3023  -17.5498   22.7654 N   0  0  0  0  0  0  0  0  0  0  0  0
   13.6604  -18.7935   22.0442 C   0  0  0  0  0  0  0  0  0  0  0  0
   14.0246  -19.6614   23.2349 C   0  0  0  0  0  0  0  0  0  0  0  0
   14.8013  -18.6817   24.1207 C   0  0  0  0  0  0  0  0  0  0  0  0
   14.4496  -17.3141   23.5899 C   0  0  1  0  0  0  0  0  0  0  0  0
   15.5974  -16.7571   22.7725 C   0  0  0  0  0  0  0  0  0  0  0  0
   16.5603  -15.9930   23.3945 O   0  0  0  0  0  0  0  0  0  0  0  0
   15.6580  -16.9939   21.5572 O   0  0  0  0  0  0  0  0  0  0  0  0
  2  1  1  1
  2 13  1  0
  2  3  1  0
  3  4  1  0
  4 12  1  0
  4  5  2  0
  5  6  1  0
  7  8  2  0
  7  6  1  0
  9  8  1  0
 10  9  2  0
 11 10  1  0
 11 12  2  0
 12  7  1  0
 13 14  2  0
 15 13  1  0
 15 16  1  0
 16 17  1  6
 17 18  1  0
 18 22  1  0
 19 18  2  0
 20 16  1  0
 21 20  2  0
 23 20  1  0
 23 27  1  0
 24 23  1  0
 25 24  1  0
 25 26  1  0
 26 27  1  0
 27 28  1  6
 28 29  1  0
 30 28  2  0
M  END
$$$$
