WDP.pdb
     RDKit          3D

 30 32  0  0  1  0  0  0  0  0999 V2000
    6.3634  -17.2215   23.8084 N   0  0  0  0  0  0  0  0  0  0  0  0
    7.5874  -16.5010   23.8500 C   0  0  1  0  0  0  0  0  0  0  0  0
    8.0085  -15.9574   25.1714 C   0  0  0  0  0  0  0  0  0  0  0  0
    7.0657  -14.9790   25.7660 C   0  0  0  0  0  0  0  0  0  0  0  0
    5.8804  -15.2279   26.4060 C   0  0  0  0  0  0  0  0  0  0  0  0
    5.3335  -14.0792   26.7640 N   0  0  0  0  0  0  0  0  0  0  0  0
    6.1449  -13.0917   26.3670 C   0  0  0  0  0  0  0  0  0  0  0  0
    6.0444  -11.7018   26.4993 C   0  0  0  0  0  0  0  0  0  0  0  0
    7.0526  -10.9123   25.9926 C   0  0  0  0  0  0  0  0  0  0  0  0
    8.1495  -11.4421   25.3641 C   0  0  0  0  0  0  0  0  0  0  0  0
    8.2510  -12.8014   25.2328 C   0  0  0  0  0  0  0  0  0  0  0  0
    7.2505  -13.6045   25.7337 C   0  0  0  0  0  0  0  0  0  0  0  0
    8.6487  -17.3346   23.1866 C   0  0  0  0  0  0  0  0  0  0  0  0
    8.5320  -18.5867   23.2689 O   0  0  0  0  0  0  0  0  0  0  0  0
    9.7171  -16.7529   22.5104 N   0  0  0  0  0  0  0  0  0  0  0  0
   11.0187  -17.4233   22.2505 C   0  0  1  0  0  0  0  0  0  0  0  0
   11.8401  -16.4997   21.3817 C   0  0  0  0  0  0  0  0  0  0  0  0
   11.8116  -16.6913   19.9579 C   0  0  0  0  0  0  0  0  0  0  0  0
   11.2532  -15.8481   19.1726 O   0  0  0  0  0  0  0  0  0  0  0  0
   11.6032  -17.7685   23.5453 C   0  0  0  0  0  0  0  0  0  0  0  0
   11.3786  -16.9447   24.5073 O   0  0  0  0  0  0  0  0  0  0  0  0
   12.3771  -17.7918   19.2893 O   0  0  0  0  0  0  0  0  0  0  0  0
   12.3819  -18.8977   23.8759 N   0  0  0  0  0  0  0  0  0  0  0  0
   12.7007  -19.9569   22.8903 C   0  0  0  0  0  0  0  0  0  0  0  0
   12.2216  -21.1638   23.6760 C   0  0  0  0  0  0  0  0  0  0  0  0
   12.7134  -20.8416   25.0909 C   0  0  0  0  0  0  0  0  0  0  0  0
   13.0220  -19.3650   25.0691 C   0  0  1  0  0  0  0  0  0  0  0  0
   14.5193  -19.1426   25.0019 C   0  0  0  0  0  0  0  0  0  0  0  0
   15.2390  -19.0380   26.1719 O   0  0  0  0  0  0  0  0  0  0  0  0
   15.0790  -19.0575   23.8991 O   0  0  0  0  0  0  0  0  0  0  0  0
  2  1  1  1
  2 13  1  0
  2  3  1  0
  3  4  1  0
  4 12  1  0
  4  5  2  0
  5  6  1  0
  7  8  2  0
  7  6  1  0
  9  8  1  0
 10  9  2  0
 11 10  1  0
 11 12  2  0
 12  7  1  0
 13 14  2  0
 15 13  1  0
 15 16  1  0
 16 17  1  1
 17 18  1  0
 18 22  1  0
 19 18  2  0
 20 16  1  0
 21 20  2  0
 23 20  1  0
 23 27  1  0
 24 23  1  0
 25 24  1  0
 25 26  1  0
 26 27  1  0
 27 28  1  6
 28 29  1  0
 30 28  2  0
M  END
$$$$
