DHI.pdb
     RDKit          3D

 27 27  0  0  1  0  0  0  0  0999 V2000
   27.2584  -35.8288   -6.8182 N   0  0  0  0  0  0  0  0  0  0  0  0
   27.3170  -34.8318   -5.7897 C   0  0  1  0  0  0  0  0  0  0  0  0
   25.8713  -34.4189   -5.4859 C   0  0  0  0  0  0  0  0  0  0  0  0
   25.3418  -33.5795   -6.6018 C   0  0  0  0  0  0  0  0  0  0  0  0
   26.0051  -33.4171   -7.6584 O   0  0  0  0  0  0  0  0  0  0  0  0
   27.9473  -35.4244   -4.5824 C   0  0  0  0  0  0  0  0  0  0  0  0
   27.6319  -36.5571   -4.1327 O   0  0  0  0  0  0  0  0  0  0  0  0
   24.1102  -32.9484   -6.5256 O   0  0  0  0  0  0  0  0  0  0  0  0
   28.9689  -34.7221   -3.8516 N   0  0  0  0  0  0  0  0  0  0  0  0
   29.6889  -35.2806   -2.7495 C   0  0  1  0  0  0  0  0  0  0  0  0
   30.9639  -34.5209   -2.4616 C   0  0  0  0  0  0  0  0  0  0  0  0
   32.0127  -34.8487   -3.4583 C   0  0  0  0  0  0  0  0  0  0  0  0
   31.9067  -35.7436   -4.5291 C   0  0  0  0  0  0  0  0  0  0  0  0
   33.0719  -35.7598   -5.1978 N   0  0  0  0  0  0  0  0  0  0  0  0
   33.9133  -34.9072   -4.5896 C   0  0  0  0  0  0  0  0  0  0  0  0
   33.2610  -34.3575   -3.5327 N   0  0  0  0  0  0  0  0  0  0  0  0
   28.7995  -35.3548   -1.5737 C   0  0  0  0  0  0  0  0  0  0  0  0
   28.0256  -34.3923   -1.3450 O   0  0  0  0  0  0  0  0  0  0  0  0
   26.8305  -40.1804    0.0673 C   0  0  0  0  0  0  0  0  0  0  0  0
   27.0138  -38.7209   -0.3565 C   0  0  0  0  0  0  0  0  0  0  0  0
   27.5135  -37.9110    0.8030 C   0  0  2  0  0  0  0  0  0  0  0  0
   26.4497  -38.0066    1.8863 C   0  0  0  0  0  0  0  0  0  0  0  0
   27.7839  -36.5057    0.3947 C   0  0  2  0  0  0  0  0  0  0  0  0
   28.7771  -36.4662   -0.6859 N   0  0  0  0  0  0  0  0  0  0  0  0
   28.3132  -35.6954    1.4963 C   0  0  0  0  0  0  0  0  0  0  0  0
   27.5139  -35.2312    2.3799 O   0  0  0  0  0  0  0  0  0  0  0  0
   29.6657  -35.4198    1.6092 O   0  0  0  0  0  0  0  0  0  0  0  0
  2  1  1  6
  2  3  1  0
  2  6  1  0
  3  4  1  0
  4  8  1  0
  4  5  2  0
  6  9  1  0
  7  6  2  0
  9 10  1  0
 10 11  1  1
 11 12  1  0
 12 16  1  0
 12 13  2  0
 13 14  1  0
 15 14  1  0
 16 15  2  0
 17 10  1  0
 17 24  1  0
 18 17  2  0
 19 20  1  0
 20 21  1  0
 21 23  1  0
 21 22  1  1
 23 24  1  6
 23 25  1  0
 25 26  2  0
 25 27  1  0
M  END
$$$$
