DHI.pdb
     RDKit          3D

 27 27  0  0  1  0  0  0  0  0999 V2000
   18.4540  -16.2486  -18.4738 N   0  0  0  0  0  0  0  0  0  0  0  0
   19.4064  -15.6888  -17.5601 C   0  0  1  0  0  0  0  0  0  0  0  0
   20.6865  -16.5250  -17.6823 C   0  0  0  0  0  0  0  0  0  0  0  0
   20.4809  -17.8580  -17.0410 C   0  0  0  0  0  0  0  0  0  0  0  0
   19.5034  -18.5834  -17.3589 O   0  0  0  0  0  0  0  0  0  0  0  0
   19.6731  -14.2801  -17.9482 C   0  0  0  0  0  0  0  0  0  0  0  0
   19.3833  -13.8169  -19.0823 O   0  0  0  0  0  0  0  0  0  0  0  0
   21.3470  -18.3510  -16.0779 O   0  0  0  0  0  0  0  0  0  0  0  0
   20.2872  -13.3559  -17.0320 N   0  0  0  0  0  0  0  0  0  0  0  0
   20.4974  -11.9704  -17.3167 C   0  0  1  0  0  0  0  0  0  0  0  0
   19.2077  -11.2597  -17.6589 C   0  0  0  0  0  0  0  0  0  0  0  0
   19.4472   -9.8167  -17.9063 C   0  0  0  0  0  0  0  0  0  0  0  0
   20.0855   -9.2467  -19.0136 C   0  0  0  0  0  0  0  0  0  0  0  0
   20.1031   -7.9115  -18.8644 N   0  0  0  0  0  0  0  0  0  0  0  0
   19.4988   -7.6142  -17.7020 C   0  0  0  0  0  0  0  0  0  0  0  0
   19.1030   -8.7787  -17.1258 N   0  0  0  0  0  0  0  0  0  0  0  0
   21.2036  -11.3416  -16.1831 C   0  0  0  0  0  0  0  0  0  0  0  0
   20.7772  -11.5503  -15.0202 O   0  0  0  0  0  0  0  0  0  0  0  0
   26.4503  -11.4581  -15.7653 C   0  0  0  0  0  0  0  0  0  0  0  0
   24.9438  -11.4307  -15.4949 C   0  0  0  0  0  0  0  0  0  0  0  0
   24.4844  -10.0156  -15.3042 C   0  0  2  0  0  0  0  0  0  0  0  0
   25.2130   -9.4870  -14.0778 C   0  0  0  0  0  0  0  0  0  0  0  0
   23.0049   -9.9502  -15.1582 C   0  0  2  0  0  0  0  0  0  0  0  0
   22.3458  -10.5091  -16.3453 N   0  0  0  0  0  0  0  0  0  0  0  0
   22.5185   -8.5757  -15.0024 C   0  0  0  0  0  0  0  0  0  0  0  0
   22.3023   -8.1112  -13.8308 O   0  0  0  0  0  0  0  0  0  0  0  0
   22.2886   -7.7592  -16.0971 O   0  0  0  0  0  0  0  0  0  0  0  0
  2  1  1  6
  2  3  1  0
  2  6  1  0
  3  4  1  0
  4  8  1  0
  4  5  2  0
  6  9  1  0
  7  6  2  0
  9 10  1  0
 10 11  1  1
 11 12  1  0
 12 16  1  0
 12 13  2  0
 13 14  1  0
 15 14  1  0
 16 15  2  0
 17 10  1  0
 17 24  1  0
 18 17  2  0
 19 20  1  0
 20 21  1  0
 21 23  1  0
 21 22  1  1
 23 24  1  6
 23 25  1  0
 25 26  2  0
 25 27  1  0
M  END
$$$$
