DHI.pdb
     RDKit          3D

 27 27  0  0  1  0  0  0  0  0999 V2000
   26.8699  -21.5036  -14.1650 N   0  0  0  0  0  0  0  0  0  0  0  0
   27.3602  -20.2257  -13.7385 C   0  0  1  0  0  0  0  0  0  0  0  0
   26.9596  -19.2117  -14.8175 C   0  0  0  0  0  0  0  0  0  0  0  0
   27.6207  -19.5632  -16.1097 C   0  0  0  0  0  0  0  0  0  0  0  0
   28.8706  -19.4942  -16.2352 O   0  0  0  0  0  0  0  0  0  0  0  0
   26.7246  -19.8759  -12.4425 C   0  0  0  0  0  0  0  0  0  0  0  0
   26.7596  -18.7159  -11.9550 O   0  0  0  0  0  0  0  0  0  0  0  0
   26.8962  -19.9764  -17.2167 O   0  0  0  0  0  0  0  0  0  0  0  0
   26.0235  -20.8622  -11.6636 N   0  0  0  0  0  0  0  0  0  0  0  0
   25.3796  -20.5849  -10.4173 C   0  0  1  0  0  0  0  0  0  0  0  0
   24.0433  -21.2822  -10.3018 C   0  0  0  0  0  0  0  0  0  0  0  0
   23.0343  -20.6433  -11.1820 C   0  0  0  0  0  0  0  0  0  0  0  0
   23.1827  -19.4583  -11.9114 C   0  0  0  0  0  0  0  0  0  0  0  0
   22.0443  -19.2169  -12.5830 N   0  0  0  0  0  0  0  0  0  0  0  0
   21.1791  -20.2064  -12.3057 C   0  0  0  0  0  0  0  0  0  0  0  0
   21.7893  -21.0696  -11.4529 N   0  0  0  0  0  0  0  0  0  0  0  0
   26.2926  -20.9297   -9.3097 C   0  0  0  0  0  0  0  0  0  0  0  0
   27.0624  -21.9122   -9.4503 O   0  0  0  0  0  0  0  0  0  0  0  0
   29.6712  -18.9386   -4.7072 C   0  0  0  0  0  0  0  0  0  0  0  0
   28.8318  -20.0882   -5.2705 C   0  0  0  0  0  0  0  0  0  0  0  0
   28.0080  -19.6013   -6.4256 C   0  0  2  0  0  0  0  0  0  0  0  0
   27.1705  -18.4446   -5.9010 C   0  0  0  0  0  0  0  0  0  0  0  0
   27.1735  -20.6988   -6.9856 C   0  0  2  0  0  0  0  0  0  0  0  0
   26.3422  -20.2011   -8.0888 N   0  0  0  0  0  0  0  0  0  0  0  0
   26.2660  -21.2757   -5.9887 C   0  0  0  0  0  0  0  0  0  0  0  0
   25.0130  -21.0296   -6.0576 O   0  0  0  0  0  0  0  0  0  0  0  0
   26.7313  -22.0889   -4.9688 O   0  0  0  0  0  0  0  0  0  0  0  0
  2  1  1  6
  2  3  1  0
  2  6  1  0
  3  4  1  0
  4  8  1  0
  4  5  2  0
  6  9  1  0
  7  6  2  0
  9 10  1  0
 10 11  1  1
 11 12  1  0
 12 16  1  0
 12 13  2  0
 13 14  1  0
 15 14  1  0
 16 15  2  0
 17 10  1  0
 17 24  1  0
 18 17  2  0
 19 20  1  0
 20 21  1  0
 21 23  1  0
 21 22  1  1
 23 24  1  6
 23 25  1  0
 25 26  2  0
 25 27  1  0
M  END
$$$$
