DHI.pdb
     RDKit          3D

 27 27  0  0  1  0  0  0  0  0999 V2000
   10.3806  -19.0540    0.9974 N   0  0  0  0  0  0  0  0  0  0  0  0
   11.6991  -18.6695    1.4082 C   0  0  1  0  0  0  0  0  0  0  0  0
   11.5360  -17.7369    2.6152 C   0  0  0  0  0  0  0  0  0  0  0  0
   11.0662  -16.3958    2.1560 C   0  0  0  0  0  0  0  0  0  0  0  0
   10.8253  -16.1774    0.9407 O   0  0  0  0  0  0  0  0  0  0  0  0
   12.4548  -19.8874    1.7976 C   0  0  0  0  0  0  0  0  0  0  0  0
   11.9535  -20.8102    2.4917 O   0  0  0  0  0  0  0  0  0  0  0  0
   10.8763  -15.3429    3.0371 O   0  0  0  0  0  0  0  0  0  0  0  0
   13.8228  -20.0789    1.3943 N   0  0  0  0  0  0  0  0  0  0  0  0
   14.5704  -21.2712    1.6482 C   0  0  1  0  0  0  0  0  0  0  0  0
   15.6358  -21.5063    0.6017 C   0  0  0  0  0  0  0  0  0  0  0  0
   15.1804  -22.4962   -0.4051 C   0  0  0  0  0  0  0  0  0  0  0  0
   13.9990  -23.2457   -0.3748 C   0  0  0  0  0  0  0  0  0  0  0  0
   13.9528  -24.0269   -1.4669 N   0  0  0  0  0  0  0  0  0  0  0  0
   15.0627  -23.7999   -2.1889 C   0  0  0  0  0  0  0  0  0  0  0  0
   15.8037  -22.8676   -1.5359 N   0  0  0  0  0  0  0  0  0  0  0  0
   15.1255  -21.2167    3.0150 C   0  0  0  0  0  0  0  0  0  0  0  0
   15.7848  -20.2030    3.3549 O   0  0  0  0  0  0  0  0  0  0  0  0
   12.1229  -21.5058    7.1686 C   0  0  0  0  0  0  0  0  0  0  0  0
   13.2776  -21.2148    6.2067 C   0  0  0  0  0  0  0  0  0  0  0  0
   14.3142  -22.2939    6.3115 C   0  0  2  0  0  0  0  0  0  0  0  0
   14.7949  -22.2918    7.7548 C   0  0  0  0  0  0  0  0  0  0  0  0
   15.4214  -22.0656    5.3436 C   0  0  2  0  0  0  0  0  0  0  0  0
   14.9491  -22.2590    3.9669 N   0  0  0  0  0  0  0  0  0  0  0  0
   16.5423  -22.9885    5.5483 C   0  0  0  0  0  0  0  0  0  0  0  0
   16.5661  -24.1024    4.9206 O   0  0  0  0  0  0  0  0  0  0  0  0
   17.5857  -22.6835    6.4063 O   0  0  0  0  0  0  0  0  0  0  0  0
  2  1  1  1
  2  3  1  0
  2  6  1  0
  3  4  1  0
  4  8  1  0
  4  5  2  0
  6  9  1  0
  7  6  2  0
  9 10  1  0
 10 11  1  6
 11 12  1  0
 12 16  1  0
 12 13  2  0
 13 14  1  0
 15 14  1  0
 16 15  2  0
 17 10  1  0
 17 24  1  0
 18 17  2  0
 19 20  1  0
 20 21  1  0
 21 23  1  0
 21 22  1  1
 23 24  1  6
 23 25  1  0
 25 26  2  0
 25 27  1  0
M  END
$$$$
