DHI.pdb
     RDKit          3D

 27 27  0  0  1  0  0  0  0  0999 V2000
   17.3745  -13.4202  -17.9659 N   0  0  0  0  0  0  0  0  0  0  0  0
   17.0549  -12.1613  -17.3592 C   0  0  1  0  0  0  0  0  0  0  0  0
   16.7853  -12.4374  -15.8746 C   0  0  0  0  0  0  0  0  0  0  0  0
   15.3138  -12.5353  -15.6393 C   0  0  0  0  0  0  0  0  0  0  0  0
   14.8565  -13.2154  -14.6848 O   0  0  0  0  0  0  0  0  0  0  0  0
   18.2160  -11.2473  -17.5099 C   0  0  0  0  0  0  0  0  0  0  0  0
   19.3988  -11.5977  -17.2589 O   0  0  0  0  0  0  0  0  0  0  0  0
   14.3955  -11.8893  -16.4519 O   0  0  0  0  0  0  0  0  0  0  0  0
   18.0460   -9.8907  -17.9585 N   0  0  0  0  0  0  0  0  0  0  0  0
   19.1249   -8.9717  -18.1488 C   0  0  1  0  0  0  0  0  0  0  0  0
   18.7250   -7.7991  -19.0151 C   0  0  0  0  0  0  0  0  0  0  0  0
   18.7913   -8.1560  -20.4536 C   0  0  0  0  0  0  0  0  0  0  0  0
   19.1943   -9.3797  -21.0000 C   0  0  0  0  0  0  0  0  0  0  0  0
   19.1140   -9.3043  -22.3391 N   0  0  0  0  0  0  0  0  0  0  0  0
   18.6744   -8.0766  -22.6617 C   0  0  0  0  0  0  0  0  0  0  0  0
   18.4807   -7.3848  -21.5090 N   0  0  0  0  0  0  0  0  0  0  0  0
   19.6430   -8.5490  -16.8327 C   0  0  0  0  0  0  0  0  0  0  0  0
   18.8303   -8.4052  -15.8859 O   0  0  0  0  0  0  0  0  0  0  0  0
   23.3786  -11.1562  -14.5023 C   0  0  0  0  0  0  0  0  0  0  0  0
   22.1813  -10.2712  -14.8583 C   0  0  0  0  0  0  0  0  0  0  0  0
   22.5782   -8.8259  -14.7976 C   0  0  2  0  0  0  0  0  0  0  0  0
   23.0102   -8.5569  -13.3640 C   0  0  0  0  0  0  0  0  0  0  0  0
   21.4574   -7.9465  -15.2277 C   0  0  2  0  0  0  0  0  0  0  0  0
   21.0210   -8.2964  -16.5853 N   0  0  0  0  0  0  0  0  0  0  0  0
   21.8343   -6.5296  -15.2481 C   0  0  0  0  0  0  0  0  0  0  0  0
   22.2644   -6.0059  -16.3325 O   0  0  0  0  0  0  0  0  0  0  0  0
   21.7333   -5.7359  -14.1178 O   0  0  0  0  0  0  0  0  0  0  0  0
  2  1  1  6
  2  3  1  0
  2  6  1  0
  3  4  1  0
  4  8  1  0
  4  5  2  0
  6  9  1  0
  7  6  2  0
  9 10  1  0
 10 11  1  1
 11 12  1  0
 12 16  1  0
 12 13  2  0
 13 14  1  0
 15 14  1  0
 16 15  2  0
 17 10  1  0
 17 24  1  0
 18 17  2  0
 19 20  1  0
 20 21  1  0
 21 23  1  0
 21 22  1  1
 23 24  1  6
 23 25  1  0
 25 26  2  0
 25 27  1  0
M  END
$$$$
