DHI.pdb
     RDKit          3D

 27 27  0  0  1  0  0  0  0  0999 V2000
   18.0283  -11.9954  -15.6695 N   0  0  0  0  0  0  0  0  0  0  0  0
   17.8816  -10.9090  -16.5933 C   0  0  1  0  0  0  0  0  0  0  0  0
   16.4968  -11.0549  -17.2370 C   0  0  0  0  0  0  0  0  0  0  0  0
   16.6052  -11.8631  -18.4881 C   0  0  0  0  0  0  0  0  0  0  0  0
   17.7234  -12.0774  -19.0234 O   0  0  0  0  0  0  0  0  0  0  0  0
   17.9692   -9.6284  -15.8461 C   0  0  0  0  0  0  0  0  0  0  0  0
   17.9186   -8.5036  -16.4091 O   0  0  0  0  0  0  0  0  0  0  0  0
   15.4924  -12.4077  -19.1093 O   0  0  0  0  0  0  0  0  0  0  0  0
   18.1189   -9.6069  -14.4150 N   0  0  0  0  0  0  0  0  0  0  0  0
   18.1565   -8.4094  -13.6343 C   0  0  1  0  0  0  0  0  0  0  0  0
   17.6462   -8.6325  -12.2288 C   0  0  0  0  0  0  0  0  0  0  0  0
   17.8671   -7.4305  -11.3878 C   0  0  0  0  0  0  0  0  0  0  0  0
   18.9019   -7.2243  -10.4686 C   0  0  0  0  0  0  0  0  0  0  0  0
   18.7514   -6.0114   -9.9106 N   0  0  0  0  0  0  0  0  0  0  0  0
   17.6580   -5.4407  -10.4431 C   0  0  0  0  0  0  0  0  0  0  0  0
   17.1263   -6.3106  -11.3405 N   0  0  0  0  0  0  0  0  0  0  0  0
   19.5249   -7.8563  -13.6557 C   0  0  0  0  0  0  0  0  0  0  0  0
   20.4902   -8.6352  -13.4576 O   0  0  0  0  0  0  0  0  0  0  0  0
   22.1195   -6.5325  -17.5517 C   0  0  0  0  0  0  0  0  0  0  0  0
   21.7928   -6.9151  -16.1059 C   0  0  0  0  0  0  0  0  0  0  0  0
   21.6310   -5.6776  -15.2739 C   0  0  2  0  0  0  0  0  0  0  0  0
   22.9727   -4.9609  -15.3010 C   0  0  0  0  0  0  0  0  0  0  0  0
   21.1961   -6.0172  -13.8918 C   0  0  2  0  0  0  0  0  0  0  0  0
   19.8030   -6.4810  -13.8904 N   0  0  0  0  0  0  0  0  0  0  0  0
   21.2685   -4.8676  -12.9844 C   0  0  0  0  0  0  0  0  0  0  0  0
   22.3071   -4.7012  -12.2572 O   0  0  0  0  0  0  0  0  0  0  0  0
   20.2369   -3.9480  -12.8951 O   0  0  0  0  0  0  0  0  0  0  0  0
  2  1  1  1
  2  3  1  0
  2  6  1  0
  3  4  1  0
  4  8  1  0
  4  5  2  0
  6  9  1  0
  7  6  2  0
  9 10  1  0
 10 11  1  1
 11 12  1  0
 12 16  1  0
 12 13  2  0
 13 14  1  0
 15 14  1  0
 16 15  2  0
 17 10  1  0
 17 24  1  0
 18 17  2  0
 19 20  1  0
 20 21  1  0
 21 23  1  0
 21 22  1  1
 23 24  1  6
 23 25  1  0
 25 26  2  0
 25 27  1  0
M  END
$$$$
