DHI.pdb
     RDKit          3D

 27 27  0  0  1  0  0  0  0  0999 V2000
   17.6659  -26.9197   -4.2226 N   0  0  0  0  0  0  0  0  0  0  0  0
   17.7264  -27.4148   -2.8785 C   0  0  1  0  0  0  0  0  0  0  0  0
   19.1309  -27.9994   -2.6814 C   0  0  0  0  0  0  0  0  0  0  0  0
   19.0752  -29.1253   -1.7019 C   0  0  0  0  0  0  0  0  0  0  0  0
   18.1329  -29.2139   -0.8730 O   0  0  0  0  0  0  0  0  0  0  0  0
   17.5031  -26.2851   -1.9404 C   0  0  0  0  0  0  0  0  0  0  0  0
   18.1261  -25.1944   -2.0233 O   0  0  0  0  0  0  0  0  0  0  0  0
   20.0474  -30.1123   -1.6614 O   0  0  0  0  0  0  0  0  0  0  0  0
   16.5463  -26.3806   -0.8698 N   0  0  0  0  0  0  0  0  0  0  0  0
   16.2543  -25.3145    0.0374 C   0  0  1  0  0  0  0  0  0  0  0  0
   14.7672  -25.0857    0.1839 C   0  0  0  0  0  0  0  0  0  0  0  0
   14.2399  -24.2856   -0.9487 C   0  0  0  0  0  0  0  0  0  0  0  0
   14.5587  -22.9598   -1.2637 C   0  0  0  0  0  0  0  0  0  0  0  0
   13.8737  -22.5980   -2.3614 N   0  0  0  0  0  0  0  0  0  0  0  0
   13.1317  -23.6468   -2.7540 C   0  0  0  0  0  0  0  0  0  0  0  0
   13.3605  -24.6688   -1.8893 N   0  0  0  0  0  0  0  0  0  0  0  0
   16.9136  -25.5810    1.3310 C   0  0  0  0  0  0  0  0  0  0  0  0
   16.9040  -26.7545    1.7789 O   0  0  0  0  0  0  0  0  0  0  0  0
   21.8161  -24.4605    1.8543 C   0  0  0  0  0  0  0  0  0  0  0  0
   20.4479  -25.1172    2.0545 C   0  0  0  0  0  0  0  0  0  0  0  0
   19.7254  -24.4567    3.1911 C   0  0  2  0  0  0  0  0  0  0  0  0
   20.5348  -24.7499    4.4454 C   0  0  0  0  0  0  0  0  0  0  0  0
   18.3247  -24.9493    3.2907 C   0  0  2  0  0  0  0  0  0  0  0  0
   17.5601  -24.5706    2.0958 N   0  0  0  0  0  0  0  0  0  0  0  0
   17.6175  -24.3934    4.4488 C   0  0  0  0  0  0  0  0  0  0  0  0
   17.5824  -25.0529    5.5438 O   0  0  0  0  0  0  0  0  0  0  0  0
   16.9848  -23.1629    4.3902 O   0  0  0  0  0  0  0  0  0  0  0  0
  2  1  1  6
  2  3  1  0
  2  6  1  0
  3  4  1  0
  4  8  1  0
  4  5  2  0
  6  9  1  0
  7  6  2  0
  9 10  1  0
 10 11  1  1
 11 12  1  0
 12 16  1  0
 12 13  2  0
 13 14  1  0
 15 14  1  0
 16 15  2  0
 17 10  1  0
 17 24  1  0
 18 17  2  0
 19 20  1  0
 20 21  1  0
 21 23  1  0
 21 22  1  1
 23 24  1  6
 23 25  1  0
 25 26  2  0
 25 27  1  0
M  END
$$$$
