DHI.pdb
     RDKit          3D

 27 27  0  0  1  0  0  0  0  0999 V2000
   19.3965  -13.6050  -18.5764 N   0  0  0  0  0  0  0  0  0  0  0  0
   18.5892  -12.6566  -17.8664 C   0  0  1  0  0  0  0  0  0  0  0  0
   18.3857  -13.2144  -16.4521 C   0  0  0  0  0  0  0  0  0  0  0  0
   17.5363  -14.4413  -16.5116 C   0  0  0  0  0  0  0  0  0  0  0  0
   16.5418  -14.5014  -17.2799 O   0  0  0  0  0  0  0  0  0  0  0  0
   19.3110  -11.3597  -17.8090 C   0  0  0  0  0  0  0  0  0  0  0  0
   20.5630  -11.2782  -17.7066 O   0  0  0  0  0  0  0  0  0  0  0  0
   17.8015  -15.5566  -15.7327 O   0  0  0  0  0  0  0  0  0  0  0  0
   18.6041  -10.1077  -17.8684 N   0  0  0  0  0  0  0  0  0  0  0  0
   19.2426   -8.8285  -17.8428 C   0  0  1  0  0  0  0  0  0  0  0  0
   18.3268   -7.7276  -18.3274 C   0  0  0  0  0  0  0  0  0  0  0  0
   18.2768   -7.6938  -19.8097 C   0  0  0  0  0  0  0  0  0  0  0  0
   19.1217   -8.3707  -20.6965 C   0  0  0  0  0  0  0  0  0  0  0  0
   18.7513   -8.0810  -21.9551 N   0  0  0  0  0  0  0  0  0  0  0  0
   17.7016   -7.2446  -21.8984 C   0  0  0  0  0  0  0  0  0  0  0  0
   17.4197   -7.0143  -20.5899 N   0  0  0  0  0  0  0  0  0  0  0  0
   19.7642   -8.5711  -16.4860 C   0  0  0  0  0  0  0  0  0  0  0  0
   19.0159   -8.7967  -15.5027 O   0  0  0  0  0  0  0  0  0  0  0  0
   23.6844  -11.0320  -14.6166 C   0  0  0  0  0  0  0  0  0  0  0  0
   22.4311  -10.1892  -14.8661 C   0  0  0  0  0  0  0  0  0  0  0  0
   22.7208   -8.7455  -14.5800 C   0  0  2  0  0  0  0  0  0  0  0  0
   23.1628   -8.6740  -13.1261 C   0  0  0  0  0  0  0  0  0  0  0  0
   21.5287   -7.8979  -14.8538 C   0  0  2  0  0  0  0  0  0  0  0  0
   21.0759   -8.0791  -16.2387 N   0  0  0  0  0  0  0  0  0  0  0  0
   21.8052   -6.4691  -14.6743 C   0  0  0  0  0  0  0  0  0  0  0  0
   22.0219   -5.7342  -15.6981 O   0  0  0  0  0  0  0  0  0  0  0  0
   21.8348   -5.8883  -13.4175 O   0  0  0  0  0  0  0  0  0  0  0  0
  2  1  1  6
  2  3  1  0
  2  6  1  0
  3  4  1  0
  4  8  1  0
  4  5  2  0
  6  9  1  0
  7  6  2  0
  9 10  1  0
 10 11  1  1
 11 12  1  0
 12 16  1  0
 12 13  2  0
 13 14  1  0
 15 14  1  0
 16 15  2  0
 17 10  1  0
 17 24  1  0
 18 17  2  0
 19 20  1  0
 20 21  1  0
 21 23  1  0
 21 22  1  1
 23 24  1  6
 23 25  1  0
 25 26  2  0
 25 27  1  0
M  END
$$$$
