DHI.pdb
     RDKit          3D

 27 27  0  0  1  0  0  0  0  0999 V2000
   21.0295  -11.3073  -19.3990 N   0  0  0  0  0  0  0  0  0  0  0  0
   21.6664  -10.0827  -19.0120 C   0  0  1  0  0  0  0  0  0  0  0  0
   21.9112   -9.2818  -20.2971 C   0  0  0  0  0  0  0  0  0  0  0  0
   22.9511   -9.9628  -21.1249 C   0  0  0  0  0  0  0  0  0  0  0  0
   22.7418  -10.2240  -22.3377 O   0  0  0  0  0  0  0  0  0  0  0  0
   20.7582   -9.3351  -18.1051 C   0  0  0  0  0  0  0  0  0  0  0  0
   19.5278   -9.1967  -18.3320 O   0  0  0  0  0  0  0  0  0  0  0  0
   24.1796  -10.3338  -20.6014 O   0  0  0  0  0  0  0  0  0  0  0  0
   21.2464   -8.7199  -16.8993 N   0  0  0  0  0  0  0  0  0  0  0  0
   20.4368   -7.9364  -16.0187 C   0  0  1  0  0  0  0  0  0  0  0  0
   20.3209   -8.5623  -14.6474 C   0  0  0  0  0  0  0  0  0  0  0  0
   19.3499   -9.6838  -14.6571 C   0  0  0  0  0  0  0  0  0  0  0  0
   18.5674  -10.1110  -15.7358 C   0  0  0  0  0  0  0  0  0  0  0  0
   17.8187  -11.1549  -15.3421 N   0  0  0  0  0  0  0  0  0  0  0  0
   18.0984  -11.4053  -14.0522 C   0  0  0  0  0  0  0  0  0  0  0  0
   19.0305  -10.5059  -13.6436 N   0  0  0  0  0  0  0  0  0  0  0  0
   20.9654   -6.5591  -15.9665 C   0  0  0  0  0  0  0  0  0  0  0  0
   22.2076   -6.3961  -15.8768 O   0  0  0  0  0  0  0  0  0  0  0  0
   22.7986   -2.4460  -18.8858 C   0  0  0  0  0  0  0  0  0  0  0  0
   21.9230   -2.5245  -17.6326 C   0  0  0  0  0  0  0  0  0  0  0  0
   21.4380   -3.9301  -17.4352 C   0  0  2  0  0  0  0  0  0  0  0  0
   20.5228   -4.2398  -18.6103 C   0  0  0  0  0  0  0  0  0  0  0  0
   20.7491   -4.0773  -16.1243 C   0  0  2  0  0  0  0  0  0  0  0  0
   20.1338   -5.4058  -16.0131 N   0  0  0  0  0  0  0  0  0  0  0  0
   19.6801   -3.0906  -15.9404 C   0  0  0  0  0  0  0  0  0  0  0  0
   19.9805   -1.8716  -15.6978 O   0  0  0  0  0  0  0  0  0  0  0  0
   18.3439   -3.4443  -16.0264 O   0  0  0  0  0  0  0  0  0  0  0  0
  2  1  1  6
  2  3  1  0
  2  6  1  0
  3  4  1  0
  4  8  1  0
  4  5  2  0
  6  9  1  0
  7  6  2  0
  9 10  1  0
 10 11  1  1
 11 12  1  0
 12 16  1  0
 12 13  2  0
 13 14  1  0
 15 14  1  0
 16 15  2  0
 17 10  1  0
 17 24  1  0
 18 17  2  0
 19 20  1  0
 20 21  1  0
 21 23  1  0
 21 22  1  6
 23 24  1  6
 23 25  1  0
 25 26  2  0
 25 27  1  0
M  END
$$$$
