DHI.pdb
     RDKit          3D

 27 27  0  0  1  0  0  0  0  0999 V2000
   21.9129  -15.1183  -18.7192 N   0  0  0  0  0  0  0  0  0  0  0  0
   23.1865  -15.7708  -18.8051 C   0  0  1  0  0  0  0  0  0  0  0  0
   23.0043  -16.9852  -19.7243 C   0  0  0  0  0  0  0  0  0  0  0  0
   22.1308  -17.9960  -19.0568 C   0  0  0  0  0  0  0  0  0  0  0  0
   21.2844  -17.6482  -18.1934 O   0  0  0  0  0  0  0  0  0  0  0  0
   24.1714  -14.8256  -19.3906 C   0  0  0  0  0  0  0  0  0  0  0  0
   25.3514  -15.1581  -19.6763 O   0  0  0  0  0  0  0  0  0  0  0  0
   22.2116  -19.3473  -19.3542 O   0  0  0  0  0  0  0  0  0  0  0  0
   23.8215  -13.4573  -19.6664 N   0  0  0  0  0  0  0  0  0  0  0  0
   24.6889  -12.5280  -20.3213 C   0  0  1  0  0  0  0  0  0  0  0  0
   23.9582  -11.7020  -21.3554 C   0  0  0  0  0  0  0  0  0  0  0  0
   23.5898  -12.5291  -22.5305 C   0  0  0  0  0  0  0  0  0  0  0  0
   24.3995  -12.8400  -23.6288 C   0  0  0  0  0  0  0  0  0  0  0  0
   23.7008  -13.6115  -24.4783 N   0  0  0  0  0  0  0  0  0  0  0  0
   22.4768  -13.8013  -23.9582 C   0  0  0  0  0  0  0  0  0  0  0  0
   22.4179  -13.1395  -22.7736 N   0  0  0  0  0  0  0  0  0  0  0  0
   25.3635  -11.6934  -19.3076 C   0  0  0  0  0  0  0  0  0  0  0  0
   24.6563  -11.0380  -18.5026 O   0  0  0  0  0  0  0  0  0  0  0  0
   28.1957  -13.4376  -15.5420 C   0  0  0  0  0  0  0  0  0  0  0  0
   27.3297  -12.5973  -16.4841 C   0  0  0  0  0  0  0  0  0  0  0  0
   28.1851  -11.6078  -17.2183 C   0  0  2  0  0  0  0  0  0  0  0  0
   28.8963  -10.7813  -16.1574 C   0  0  0  0  0  0  0  0  0  0  0  0
   27.3648  -10.7706  -18.1353 C   0  0  2  0  0  0  0  0  0  0  0  0
   26.7786  -11.5959  -19.1989 N   0  0  0  0  0  0  0  0  0  0  0  0
   28.1525   -9.7208  -18.7891 C   0  0  0  0  0  0  0  0  0  0  0  0
   28.5794   -8.7307  -18.1016 O   0  0  0  0  0  0  0  0  0  0  0  0
   28.4524   -9.7740  -20.1400 O   0  0  0  0  0  0  0  0  0  0  0  0
  2  1  1  6
  2  3  1  0
  2  6  1  0
  3  4  1  0
  4  8  1  0
  4  5  2  0
  6  9  1  0
  7  6  2  0
  9 10  1  0
 10 11  1  6
 11 12  1  0
 12 16  1  0
 12 13  2  0
 13 14  1  0
 15 14  1  0
 16 15  2  0
 17 10  1  0
 17 24  1  0
 18 17  2  0
 19 20  1  0
 20 21  1  0
 21 23  1  0
 21 22  1  1
 23 24  1  6
 23 25  1  0
 25 26  2  0
 25 27  1  0
M  END
$$$$
