DHI.pdb
     RDKit          3D

 27 27  0  0  1  0  0  0  0  0999 V2000
   26.4217  -22.2224  -16.6300 N   0  0  0  0  0  0  0  0  0  0  0  0
   27.4119  -21.6679  -15.7541 C   0  0  1  0  0  0  0  0  0  0  0  0
   28.3109  -20.7673  -16.6106 C   0  0  0  0  0  0  0  0  0  0  0  0
   29.1802  -21.6090  -17.4858 C   0  0  0  0  0  0  0  0  0  0  0  0
   29.0432  -22.8591  -17.5213 O   0  0  0  0  0  0  0  0  0  0  0  0
   26.7304  -20.8666  -14.7055 C   0  0  0  0  0  0  0  0  0  0  0  0
   26.9239  -19.6319  -14.5551 O   0  0  0  0  0  0  0  0  0  0  0  0
   30.1659  -21.0583  -18.2896 O   0  0  0  0  0  0  0  0  0  0  0  0
   25.7975  -21.4708  -13.7915 N   0  0  0  0  0  0  0  0  0  0  0  0
   24.9798  -20.7315  -12.8806 C   0  0  1  0  0  0  0  0  0  0  0  0
   23.5137  -20.8133  -13.2400 C   0  0  0  0  0  0  0  0  0  0  0  0
   23.1780  -19.8516  -14.3186 C   0  0  0  0  0  0  0  0  0  0  0  0
   24.0344  -18.9154  -14.9088 C   0  0  0  0  0  0  0  0  0  0  0  0
   23.3533  -18.2344  -15.8455 N   0  0  0  0  0  0  0  0  0  0  0  0
   22.0953  -18.7051  -15.8707 C   0  0  0  0  0  0  0  0  0  0  0  0
   21.9974  -19.6884  -14.9389 N   0  0  0  0  0  0  0  0  0  0  0  0
   25.2486  -21.1887  -11.5030 C   0  0  0  0  0  0  0  0  0  0  0  0
   25.2856  -22.4238  -11.2771 O   0  0  0  0  0  0  0  0  0  0  0  0
   28.2311  -18.7769   -7.5026 C   0  0  0  0  0  0  0  0  0  0  0  0
   27.5610  -19.8251   -8.3946 C   0  0  0  0  0  0  0  0  0  0  0  0
   26.0897  -19.8755   -8.1070 C   0  0  2  0  0  0  0  0  0  0  0  0
   25.9485  -20.3022   -6.6535 C   0  0  0  0  0  0  0  0  0  0  0  0
   25.3952  -20.8026   -9.0412 C   0  0  2  0  0  0  0  0  0  0  0  0
   25.4681  -20.2959  -10.4174 N   0  0  0  0  0  0  0  0  0  0  0  0
   23.9744  -20.9636   -8.7161 C   0  0  0  0  0  0  0  0  0  0  0  0
   23.1081  -20.2104   -9.2794 O   0  0  0  0  0  0  0  0  0  0  0  0
   23.5411  -21.9186   -7.8115 O   0  0  0  0  0  0  0  0  0  0  0  0
  2  1  1  6
  2  3  1  0
  2  6  1  0
  3  4  1  0
  4  8  1  0
  4  5  2  0
  6  9  1  0
  7  6  2  0
  9 10  1  0
 10 11  1  6
 11 12  1  0
 12 16  1  0
 12 13  2  0
 13 14  1  0
 15 14  1  0
 16 15  2  0
 17 10  1  0
 17 24  1  0
 18 17  2  0
 19 20  1  0
 20 21  1  0
 21 23  1  0
 21 22  1  1
 23 24  1  6
 23 25  1  0
 25 26  2  0
 25 27  1  0
M  END
$$$$
