GKR.pdb
     RDKit          3D

 25 24  0  0  1  0  0  0  0  0999 V2000
   17.2569  -14.8024  -14.7474 N   0  0  0  0  0  0  0  0  0  0  0  0
   18.6625  -14.7166  -14.5054 C   0  0  0  0  0  0  0  0  0  0  0  0
   19.4343  -15.7854  -15.1467 C   0  0  0  0  0  0  0  0  0  0  0  0
   18.8734  -16.7833  -15.6619 O   0  0  0  0  0  0  0  0  0  0  0  0
   20.8755  -15.7547  -15.2240 N   0  0  0  0  0  0  0  0  0  0  0  0
   21.6118  -16.8496  -15.7687 C   0  0  1  0  0  0  0  0  0  0  0  0
   22.9748  -16.4954  -16.2289 C   0  0  0  0  0  0  0  0  0  0  0  0
   23.2683  -16.6286  -17.6733 C   0  0  0  0  0  0  0  0  0  0  0  0
   24.6735  -16.3194  -18.0857 C   0  0  0  0  0  0  0  0  0  0  0  0
   24.7627  -16.6342  -19.5911 C   0  0  0  0  0  0  0  0  0  0  0  0
   26.1449  -16.3281  -19.9490 N   0  0  0  0  0  0  0  0  0  0  0  0
   21.8093  -17.8753  -14.6672 C   0  0  0  0  0  0  0  0  0  0  0  0
   22.4476  -17.5530  -13.6476 O   0  0  0  0  0  0  0  0  0  0  0  0
   15.9075  -23.6990  -12.0186 N   0  0  0  0  0  0  0  0  0  0  0  0
   17.1438  -24.1971  -11.5301 C   0  0  0  0  0  0  0  0  0  0  0  0
   17.1181  -25.2277  -10.7667 N   0  0  0  0  0  0  0  0  0  0  0  0
   18.3572  -23.5845  -11.8699 N   0  0  0  0  0  0  0  0  0  0  0  0
   18.3350  -22.4184  -12.7732 C   0  0  0  0  0  0  0  0  0  0  0  0
   19.7236  -21.9210  -12.8717 C   0  0  0  0  0  0  0  0  0  0  0  0
   20.0441  -20.6949  -13.6013 C   0  0  0  0  0  0  0  0  0  0  0  0
   21.4455  -20.2361  -13.8172 C   0  0  2  0  0  0  0  0  0  0  0  0
   21.2503  -19.1491  -14.8654 N   0  0  0  0  0  0  0  0  0  0  0  0
   22.3190  -21.1860  -14.5048 C   0  0  0  0  0  0  0  0  0  0  0  0
   22.2948  -21.2433  -15.9165 O   0  0  0  0  0  0  0  0  0  0  0  0
   23.1085  -21.9782  -13.9764 O   0  0  0  0  0  0  0  0  0  0  0  0
  2  1  1  0
  3  4  2  0
  3  2  1  0
  5  3  1  0
  6  7  1  1
  6  5  1  0
  8  7  1  0
  9  8  1  0
 10  9  1  0
 11 10  1  0
 12 22  1  0
 12  6  1  0
 13 12  2  0
 15 14  1  0
 15 16  2  0
 17 15  1  0
 18 17  1  0
 19 20  1  0
 19 18  1  0
 21 22  1  0
 21 20  1  6
 23 24  1  0
 23 21  1  0
 25 23  2  0
M  END
$$$$
