GKR.pdb
     RDKit          3D

 25 24  0  0  1  0  0  0  0  0999 V2000
   26.7132  -21.9102  -11.9460 N   0  0  0  0  0  0  0  0  0  0  0  0
   26.0041  -22.1653  -13.1600 C   0  0  0  0  0  0  0  0  0  0  0  0
   24.7223  -21.4594  -13.2498 C   0  0  0  0  0  0  0  0  0  0  0  0
   23.9727  -21.3278  -12.2515 O   0  0  0  0  0  0  0  0  0  0  0  0
   24.2485  -20.8772  -14.4829 N   0  0  0  0  0  0  0  0  0  0  0  0
   23.0644  -20.0809  -14.5194 C   0  0  1  0  0  0  0  0  0  0  0  0
   23.0353  -19.0862  -15.6170 C   0  0  0  0  0  0  0  0  0  0  0  0
   24.0278  -17.9892  -15.5762 C   0  0  0  0  0  0  0  0  0  0  0  0
   23.8838  -16.9383  -16.6322 C   0  0  0  0  0  0  0  0  0  0  0  0
   24.9809  -15.8928  -16.3557 C   0  0  0  0  0  0  0  0  0  0  0  0
   24.8578  -14.9333  -17.4496 N   0  0  0  0  0  0  0  0  0  0  0  0
   21.8871  -21.0040  -14.7772 C   0  0  0  0  0  0  0  0  0  0  0  0
   21.9955  -21.8967  -15.6388 O   0  0  0  0  0  0  0  0  0  0  0  0
   19.3023  -26.1397  -11.4212 N   0  0  0  0  0  0  0  0  0  0  0  0
   18.7376  -25.4117  -10.3411 C   0  0  0  0  0  0  0  0  0  0  0  0
   18.1535  -26.0729   -9.4097 N   0  0  0  0  0  0  0  0  0  0  0  0
   18.8144  -24.0137  -10.2905 N   0  0  0  0  0  0  0  0  0  0  0  0
   17.7804  -23.2206  -10.9818 C   0  0  0  0  0  0  0  0  0  0  0  0
   18.2234  -23.0598  -12.3830 C   0  0  0  0  0  0  0  0  0  0  0  0
   19.2295  -22.0659  -12.7550 C   0  0  0  0  0  0  0  0  0  0  0  0
   19.5334  -21.7285  -14.1745 C   0  0  2  0  0  0  0  0  0  0  0  0
   20.7253  -20.7944  -14.0153 N   0  0  0  0  0  0  0  0  0  0  0  0
   18.5504  -20.8766  -14.8424 C   0  0  0  0  0  0  0  0  0  0  0  0
   17.6335  -21.4626  -15.7438 O   0  0  0  0  0  0  0  0  0  0  0  0
   18.4208  -19.6538  -14.7072 O   0  0  0  0  0  0  0  0  0  0  0  0
  2  1  1  0
  3  4  2  0
  3  2  1  0
  5  3  1  0
  6  7  1  6
  6  5  1  0
  8  7  1  0
  9  8  1  0
 10  9  1  0
 11 10  1  0
 12 22  1  0
 12  6  1  0
 13 12  2  0
 15 14  1  0
 15 16  2  0
 17 15  1  0
 18 17  1  0
 19 20  1  0
 19 18  1  0
 21 22  1  0
 21 20  1  1
 23 24  1  0
 23 21  1  0
 25 23  2  0
M  END
$$$$
