GKR.pdb
     RDKit          3D

 25 24  0  0  1  0  0  0  0  0999 V2000
   30.0382  -21.2007  -10.4895 N   0  0  0  0  0  0  0  0  0  0  0  0
   29.8376  -21.4616  -11.8799 C   0  0  0  0  0  0  0  0  0  0  0  0
   28.6804  -20.7624  -12.4468 C   0  0  0  0  0  0  0  0  0  0  0  0
   27.8522  -20.1635  -11.7181 O   0  0  0  0  0  0  0  0  0  0  0  0
   28.4257  -20.7208  -13.8672 N   0  0  0  0  0  0  0  0  0  0  0  0
   27.3144  -20.0005  -14.3998 C   0  0  1  0  0  0  0  0  0  0  0  0
   27.4494  -19.6490  -15.8327 C   0  0  0  0  0  0  0  0  0  0  0  0
   28.2309  -18.4391  -16.1724 C   0  0  0  0  0  0  0  0  0  0  0  0
   28.3469  -18.1244  -17.6311 C   0  0  0  0  0  0  0  0  0  0  0  0
   29.1560  -16.8171  -17.7295 C   0  0  0  0  0  0  0  0  0  0  0  0
   29.2015  -16.5202  -19.1585 N   0  0  0  0  0  0  0  0  0  0  0  0
   26.0918  -20.8964  -14.3153 C   0  0  0  0  0  0  0  0  0  0  0  0
   26.1678  -22.0654  -14.7380 O   0  0  0  0  0  0  0  0  0  0  0  0
   21.2169  -21.5821   -7.2450 N   0  0  0  0  0  0  0  0  0  0  0  0
   20.5245  -22.3222   -8.2391 C   0  0  0  0  0  0  0  0  0  0  0  0
   19.4881  -22.9880   -7.8809 N   0  0  0  0  0  0  0  0  0  0  0  0
   20.9568  -22.3271   -9.5717 N   0  0  0  0  0  0  0  0  0  0  0  0
   22.1484  -21.5365   -9.9343 C   0  0  0  0  0  0  0  0  0  0  0  0
   22.3760  -21.7359  -11.3813 C   0  0  0  0  0  0  0  0  0  0  0  0
   23.4554  -21.0449  -12.0853 C   0  0  0  0  0  0  0  0  0  0  0  0
   23.6978  -21.2193  -13.5454 C   0  0  2  0  0  0  0  0  0  0  0  0
   24.9271  -20.3455  -13.7549 N   0  0  0  0  0  0  0  0  0  0  0  0
   22.7113  -20.5945  -14.4255 C   0  0  0  0  0  0  0  0  0  0  0  0
   22.8002  -19.2076  -14.6812 O   0  0  0  0  0  0  0  0  0  0  0  0
   21.7693  -21.1582  -14.9957 O   0  0  0  0  0  0  0  0  0  0  0  0
  2  1  1  0
  3  4  2  0
  3  2  1  0
  5  3  1  0
  6  7  1  6
  6  5  1  0
  8  7  1  0
  9  8  1  0
 10  9  1  0
 11 10  1  0
 12 22  1  0
 12  6  1  0
 13 12  2  0
 15 14  1  0
 15 16  2  0
 17 15  1  0
 18 17  1  0
 19 20  1  0
 19 18  1  0
 21 22  1  0
 21 20  1  1
 23 24  1  0
 23 21  1  0
 25 23  2  0
M  END
$$$$
