GKR.pdb
     RDKit          3D

 25 24  0  0  1  0  0  0  0  0999 V2000
   28.1901  -18.6470  -17.6428 N   0  0  0  0  0  0  0  0  0  0  0  0
   28.1530  -18.3198  -16.2524 C   0  0  0  0  0  0  0  0  0  0  0  0
   27.4484  -19.3122  -15.4351 C   0  0  0  0  0  0  0  0  0  0  0  0
   27.4680  -20.5341  -15.7221 O   0  0  0  0  0  0  0  0  0  0  0  0
   26.6953  -18.9466  -14.2590 N   0  0  0  0  0  0  0  0  0  0  0  0
   26.1367  -19.9392  -13.3986 C   0  0  1  0  0  0  0  0  0  0  0  0
   26.2258  -19.6122  -11.9564 C   0  0  0  0  0  0  0  0  0  0  0  0
   25.6249  -20.5659  -10.9975 C   0  0  0  0  0  0  0  0  0  0  0  0
   25.6270  -20.1387   -9.5630 C   0  0  0  0  0  0  0  0  0  0  0  0
   25.0802  -21.3309   -8.7549 C   0  0  0  0  0  0  0  0  0  0  0  0
   25.0602  -20.8595   -7.3730 N   0  0  0  0  0  0  0  0  0  0  0  0
   24.6524  -20.0394  -13.7009 C   0  0  0  0  0  0  0  0  0  0  0  0
   23.9940  -18.9934  -13.8534 O   0  0  0  0  0  0  0  0  0  0  0  0
   20.2975  -27.4025  -13.6796 N   0  0  0  0  0  0  0  0  0  0  0  0
   19.4370  -26.6345  -14.5073 C   0  0  0  0  0  0  0  0  0  0  0  0
   18.2130  -27.0045  -14.6104 N   0  0  0  0  0  0  0  0  0  0  0  0
   19.9068  -25.5061  -15.1920 N   0  0  0  0  0  0  0  0  0  0  0  0
   21.3199  -25.1148  -15.0298 C   0  0  0  0  0  0  0  0  0  0  0  0
   21.3382  -23.6614  -14.7600 C   0  0  0  0  0  0  0  0  0  0  0  0
   22.5931  -22.9411  -14.5489 C   0  0  0  0  0  0  0  0  0  0  0  0
   22.6340  -21.5005  -14.1692 C   0  0  2  0  0  0  0  0  0  0  0  0
   24.0995  -21.3278  -13.7935 N   0  0  0  0  0  0  0  0  0  0  0  0
   21.9458  -21.1587  -12.9252 C   0  0  0  0  0  0  0  0  0  0  0  0
   20.6798  -20.5342  -12.9900 O   0  0  0  0  0  0  0  0  0  0  0  0
   22.3567  -21.3587  -11.7756 O   0  0  0  0  0  0  0  0  0  0  0  0
  2  1  1  0
  3  4  2  0
  3  2  1  0
  5  3  1  0
  6  7  1  1
  6  5  1  0
  8  7  1  0
  9  8  1  0
 10  9  1  0
 11 10  1  0
 12 22  1  0
 12  6  1  0
 13 12  2  0
 15 14  1  0
 15 16  2  0
 17 15  1  0
 18 17  1  0
 19 20  1  0
 19 18  1  0
 21 22  1  0
 21 20  1  1
 23 24  1  0
 23 21  1  0
 25 23  2  0
M  END
$$$$
