GKR.pdb
     RDKit          3D

 25 24  0  0  1  0  0  0  0  0999 V2000
   28.5436  -23.0958  -16.3350 N   0  0  0  0  0  0  0  0  0  0  0  0
   28.2650  -22.3486  -15.1493 C   0  0  0  0  0  0  0  0  0  0  0  0
   27.5037  -21.1202  -15.3956 C   0  0  0  0  0  0  0  0  0  0  0  0
   27.0527  -20.4257  -14.4522 O   0  0  0  0  0  0  0  0  0  0  0  0
   27.2290  -20.6386  -16.7286 N   0  0  0  0  0  0  0  0  0  0  0  0
   26.4191  -19.4837  -16.9468 C   0  0  1  0  0  0  0  0  0  0  0  0
   26.5476  -18.8995  -18.3022 C   0  0  0  0  0  0  0  0  0  0  0  0
   25.7864  -17.6640  -18.5925 C   0  0  0  0  0  0  0  0  0  0  0  0
   26.0160  -17.0569  -19.9412 C   0  0  0  0  0  0  0  0  0  0  0  0
   25.1138  -15.8104  -20.0148 C   0  0  0  0  0  0  0  0  0  0  0  0
   25.3797  -15.2419  -21.3332 N   0  0  0  0  0  0  0  0  0  0  0  0
   24.9649  -19.9010  -16.8212 C   0  0  0  0  0  0  0  0  0  0  0  0
   24.5390  -20.8316  -17.5308 O   0  0  0  0  0  0  0  0  0  0  0  0
   20.7234  -20.4308   -9.2465 N   0  0  0  0  0  0  0  0  0  0  0  0
   19.7823  -20.7890  -10.2471 C   0  0  0  0  0  0  0  0  0  0  0  0
   18.6244  -21.1907   -9.8682 N   0  0  0  0  0  0  0  0  0  0  0  0
   20.1048  -20.7071  -11.6081 N   0  0  0  0  0  0  0  0  0  0  0  0
   21.4540  -20.2503  -11.9915 C   0  0  0  0  0  0  0  0  0  0  0  0
   21.4808  -20.1713  -13.4675 C   0  0  0  0  0  0  0  0  0  0  0  0
   22.6948  -19.7907  -14.1885 C   0  0  0  0  0  0  0  0  0  0  0  0
   22.7246  -19.6174  -15.6684 C   0  0  2  0  0  0  0  0  0  0  0  0
   24.1718  -19.2020  -15.8956 N   0  0  0  0  0  0  0  0  0  0  0  0
   21.9809  -18.4679  -16.1817 C   0  0  0  0  0  0  0  0  0  0  0  0
   20.6576  -18.6554  -16.6405 O   0  0  0  0  0  0  0  0  0  0  0  0
   22.3889  -17.3031  -16.2662 O   0  0  0  0  0  0  0  0  0  0  0  0
  2  1  1  0
  3  4  2  0
  3  2  1  0
  5  3  1  0
  6  7  1  6
  6  5  1  0
  8  7  1  0
  9  8  1  0
 10  9  1  0
 11 10  1  0
 12 22  1  0
 12  6  1  0
 13 12  2  0
 15 14  1  0
 15 16  2  0
 17 15  1  0
 18 17  1  0
 19 20  1  0
 19 18  1  0
 21 22  1  0
 21 20  1  1
 23 24  1  0
 23 21  1  0
 25 23  2  0
M  END
$$$$
