GKR.pdb
     RDKit          3D

 25 24  0  0  1  0  0  0  0  0999 V2000
   19.5379  -13.7835  -18.4941 N   0  0  0  0  0  0  0  0  0  0  0  0
   19.6098  -12.3600  -18.5937 C   0  0  0  0  0  0  0  0  0  0  0  0
   20.1234  -11.7126  -17.3828 C   0  0  0  0  0  0  0  0  0  0  0  0
   19.8861  -12.1735  -16.2395 O   0  0  0  0  0  0  0  0  0  0  0  0
   20.9275  -10.5146  -17.4319 N   0  0  0  0  0  0  0  0  0  0  0  0
   21.3254   -9.8399  -16.2387 C   0  0  1  0  0  0  0  0  0  0  0  0
   22.5615   -9.0355  -16.3796 C   0  0  0  0  0  0  0  0  0  0  0  0
   23.8059   -9.7471  -16.7475 C   0  0  0  0  0  0  0  0  0  0  0  0
   24.9875   -8.8811  -17.0541 C   0  0  0  0  0  0  0  0  0  0  0  0
   26.1255   -9.8322  -17.4707 C   0  0  0  0  0  0  0  0  0  0  0  0
   27.2230   -8.9473  -17.8509 N   0  0  0  0  0  0  0  0  0  0  0  0
   20.2351   -8.8480  -15.8758 C   0  0  0  0  0  0  0  0  0  0  0  0
   19.7844   -8.0943  -16.7590 O   0  0  0  0  0  0  0  0  0  0  0  0
   13.5997  -10.8371  -10.5658 N   0  0  0  0  0  0  0  0  0  0  0  0
   13.3316   -9.5898  -11.1886 C   0  0  0  0  0  0  0  0  0  0  0  0
   12.1243   -9.1566  -11.1733 N   0  0  0  0  0  0  0  0  0  0  0  0
   14.3524   -8.8516  -11.8018 N   0  0  0  0  0  0  0  0  0  0  0  0
   15.6341   -9.5206  -12.0951 C   0  0  0  0  0  0  0  0  0  0  0  0
   16.4905   -8.5318  -12.7837 C   0  0  0  0  0  0  0  0  0  0  0  0
   17.7728   -8.9138  -13.3737 C   0  0  0  0  0  0  0  0  0  0  0  0
   18.6181   -7.9545  -14.1394 C   0  0  2  0  0  0  0  0  0  0  0  0
   19.7901   -8.8388  -14.5431 N   0  0  0  0  0  0  0  0  0  0  0  0
   19.2664   -6.9136  -13.3429 C   0  0  0  0  0  0  0  0  0  0  0  0
   18.6274   -5.6616  -13.1983 O   0  0  0  0  0  0  0  0  0  0  0  0
   20.3523   -7.0018  -12.7570 O   0  0  0  0  0  0  0  0  0  0  0  0
  2  1  1  0
  3  4  2  0
  3  2  1  0
  5  3  1  0
  6  7  1  6
  6  5  1  0
  8  7  1  0
  9  8  1  0
 10  9  1  0
 11 10  1  0
 12 22  1  0
 12  6  1  0
 13 12  2  0
 15 14  1  0
 15 16  2  0
 17 15  1  0
 18 17  1  0
 19 20  1  0
 19 18  1  0
 21 22  1  0
 21 20  1  1
 23 24  1  0
 23 21  1  0
 25 23  2  0
M  END
$$$$
