GKR.pdb
     RDKit          3D

 25 24  0  0  1  0  0  0  0  0999 V2000
   19.3840  -20.6194  -14.2963 N   0  0  0  0  0  0  0  0  0  0  0  0
   20.2706  -19.5117  -14.4658 C   0  0  0  0  0  0  0  0  0  0  0  0
   21.4606  -19.8295  -15.2610 C   0  0  0  0  0  0  0  0  0  0  0  0
   21.9541  -20.9836  -15.2739 O   0  0  0  0  0  0  0  0  0  0  0  0
   22.1316  -18.8411  -16.0717 N   0  0  0  0  0  0  0  0  0  0  0  0
   23.3658  -19.1337  -16.7262 C   0  0  1  0  0  0  0  0  0  0  0  0
   23.7650  -18.1340  -17.7441 C   0  0  0  0  0  0  0  0  0  0  0  0
   25.0007  -18.3950  -18.5155 C   0  0  0  0  0  0  0  0  0  0  0  0
   25.3935  -17.3363  -19.4979 C   0  0  0  0  0  0  0  0  0  0  0  0
   26.6297  -17.8741  -20.2436 C   0  0  0  0  0  0  0  0  0  0  0  0
   26.9379  -16.8454  -21.2330 N   0  0  0  0  0  0  0  0  0  0  0  0
   24.4669  -19.1106  -15.6814 C   0  0  0  0  0  0  0  0  0  0  0  0
   24.5203  -18.1593  -14.8795 O   0  0  0  0  0  0  0  0  0  0  0  0
   26.0735  -20.4453   -8.9936 N   0  0  0  0  0  0  0  0  0  0  0  0
   24.8253  -20.7431   -9.6008 C   0  0  0  0  0  0  0  0  0  0  0  0
   23.7648  -20.2587   -9.0657 N   0  0  0  0  0  0  0  0  0  0  0  0
   24.7503  -21.5412  -10.7499 N   0  0  0  0  0  0  0  0  0  0  0  0
   25.9865  -22.1576  -11.2678 C   0  0  0  0  0  0  0  0  0  0  0  0
   26.5412  -21.2317  -12.2779 C   0  0  0  0  0  0  0  0  0  0  0  0
   25.9070  -21.0600  -13.5843 C   0  0  0  0  0  0  0  0  0  0  0  0
   26.5054  -20.2188  -14.6592 C   0  0  2  0  0  0  0  0  0  0  0  0
   25.3757  -20.1822  -15.6795 N   0  0  0  0  0  0  0  0  0  0  0  0
   27.5927  -20.8417  -15.4128 C   0  0  0  0  0  0  0  0  0  0  0  0
   28.9174  -20.3980  -15.2006 O   0  0  0  0  0  0  0  0  0  0  0  0
   27.4867  -21.7475  -16.2486 O   0  0  0  0  0  0  0  0  0  0  0  0
  2  1  1  0
  3  4  2  0
  3  2  1  0
  5  3  1  0
  6  7  1  6
  6  5  1  0
  8  7  1  0
  9  8  1  0
 10  9  1  0
 11 10  1  0
 12 22  1  0
 12  6  1  0
 13 12  2  0
 15 14  1  0
 15 16  2  0
 17 15  1  0
 18 17  1  0
 19 20  1  0
 19 18  1  0
 21 22  1  0
 21 20  1  1
 23 24  1  0
 23 21  1  0
 25 23  2  0
M  END
$$$$
