GKR.pdb
     RDKit          3D

 25 24  0  0  1  0  0  0  0  0999 V2000
   22.5278  -27.1639  -15.9790 N   0  0  0  0  0  0  0  0  0  0  0  0
   21.5362  -26.1351  -15.9920 C   0  0  0  0  0  0  0  0  0  0  0  0
   22.0883  -24.7865  -15.8315 C   0  0  0  0  0  0  0  0  0  0  0  0
   23.3086  -24.5981  -15.6054 O   0  0  0  0  0  0  0  0  0  0  0  0
   21.2675  -23.6024  -15.9233 N   0  0  0  0  0  0  0  0  0  0  0  0
   21.8088  -22.3049  -15.6767 C   0  0  1  0  0  0  0  0  0  0  0  0
   20.9929  -21.1936  -16.2195 C   0  0  0  0  0  0  0  0  0  0  0  0
   21.4479  -19.8117  -15.9487 C   0  0  0  0  0  0  0  0  0  0  0  0
   20.5715  -18.7198  -16.4780 C   0  0  0  0  0  0  0  0  0  0  0  0
   21.3350  -17.4016  -16.2487 C   0  0  0  0  0  0  0  0  0  0  0  0
   20.4443  -16.3666  -16.7661 N   0  0  0  0  0  0  0  0  0  0  0  0
   21.8406  -22.0885  -14.1745 C   0  0  0  0  0  0  0  0  0  0  0  0
   20.7880  -22.2195  -13.5218 O   0  0  0  0  0  0  0  0  0  0  0  0
   29.1787  -21.3400  -12.2104 N   0  0  0  0  0  0  0  0  0  0  0  0
   28.0796  -20.5246  -12.5877 C   0  0  0  0  0  0  0  0  0  0  0  0
   27.8983  -20.2994  -13.8375 N   0  0  0  0  0  0  0  0  0  0  0  0
   27.2169  -19.9809  -11.6269 N   0  0  0  0  0  0  0  0  0  0  0  0
   26.7354  -20.8471  -10.5341 C   0  0  0  0  0  0  0  0  0  0  0  0
   25.2680  -20.9521  -10.6798 C   0  0  0  0  0  0  0  0  0  0  0  0
   24.6584  -21.4580  -11.9089 C   0  0  0  0  0  0  0  0  0  0  0  0
   23.1819  -21.5398  -12.0941 C   0  0  2  0  0  0  0  0  0  0  0  0
   23.0764  -21.7486  -13.5987 N   0  0  0  0  0  0  0  0  0  0  0  0
   22.4533  -20.2875  -11.8963 C   0  0  0  0  0  0  0  0  0  0  0  0
   21.7375  -20.0921  -10.6937 O   0  0  0  0  0  0  0  0  0  0  0  0
   22.3857  -19.3402  -12.6890 O   0  0  0  0  0  0  0  0  0  0  0  0
  2  1  1  0
  3  4  2  0
  3  2  1  0
  5  3  1  0
  6  7  1  6
  6  5  1  0
  8  7  1  0
  9  8  1  0
 10  9  1  0
 11 10  1  0
 12 22  1  0
 12  6  1  0
 13 12  2  0
 15 14  1  0
 15 16  2  0
 17 15  1  0
 18 17  1  0
 19 20  1  0
 19 18  1  0
 21 22  1  0
 21 20  1  6
 23 24  1  0
 23 21  1  0
 25 23  2  0
M  END
$$$$
