GKR.pdb
     RDKit          3D

 25 24  0  0  1  0  0  0  0  0999 V2000
   26.8461  -21.3181  -10.4294 N   0  0  0  0  0  0  0  0  0  0  0  0
   27.3495  -21.0793  -11.7452 C   0  0  0  0  0  0  0  0  0  0  0  0
   26.5916  -20.0682  -12.4885 C   0  0  0  0  0  0  0  0  0  0  0  0
   25.5168  -19.5945  -12.0454 O   0  0  0  0  0  0  0  0  0  0  0  0
   27.0326  -19.5598  -13.7657 N   0  0  0  0  0  0  0  0  0  0  0  0
   26.3041  -18.5401  -14.4488 C   0  0  1  0  0  0  0  0  0  0  0  0
   27.0900  -17.8165  -15.4753 C   0  0  0  0  0  0  0  0  0  0  0  0
   26.6859  -16.4301  -15.7988 C   0  0  0  0  0  0  0  0  0  0  0  0
   27.5335  -15.7213  -16.8085 C   0  0  0  0  0  0  0  0  0  0  0  0
   26.9387  -14.3081  -16.9583 C   0  0  0  0  0  0  0  0  0  0  0  0
   27.8301  -13.6320  -17.8966 N   0  0  0  0  0  0  0  0  0  0  0  0
   25.1653  -19.2030  -15.2026 C   0  0  0  0  0  0  0  0  0  0  0  0
   25.4119  -20.1803  -15.9342 O   0  0  0  0  0  0  0  0  0  0  0  0
   19.2256  -22.5932  -11.3515 N   0  0  0  0  0  0  0  0  0  0  0  0
   19.0563  -23.1014  -12.6662 C   0  0  0  0  0  0  0  0  0  0  0  0
   18.1724  -24.0127  -12.8500 N   0  0  0  0  0  0  0  0  0  0  0  0
   19.8290  -22.6240  -13.7329 N   0  0  0  0  0  0  0  0  0  0  0  0
   20.9192  -21.6716  -13.4491 C   0  0  0  0  0  0  0  0  0  0  0  0
   20.7523  -20.5336  -14.3779 C   0  0  0  0  0  0  0  0  0  0  0  0
   21.7607  -19.4798  -14.4811 C   0  0  0  0  0  0  0  0  0  0  0  0
   22.6750  -19.3599  -15.6519 C   0  0  2  0  0  0  0  0  0  0  0  0
   23.8784  -18.6672  -15.0269 N   0  0  0  0  0  0  0  0  0  0  0  0
   22.2589  -18.4062  -16.6793 C   0  0  0  0  0  0  0  0  0  0  0  0
   21.5752  -18.8815  -17.8210 O   0  0  0  0  0  0  0  0  0  0  0  0
   22.4420  -17.1829  -16.6679 O   0  0  0  0  0  0  0  0  0  0  0  0
  2  1  1  0
  3  4  2  0
  3  2  1  0
  5  3  1  0
  6  7  1  6
  6  5  1  0
  8  7  1  0
  9  8  1  0
 10  9  1  0
 11 10  1  0
 12 22  1  0
 12  6  1  0
 13 12  2  0
 15 14  1  0
 15 16  2  0
 17 15  1  0
 18 17  1  0
 19 20  1  0
 19 18  1  0
 21 22  1  0
 21 20  1  1
 23 24  1  0
 23 21  1  0
 25 23  2  0
M  END
$$$$
