GKR.pdb
     RDKit          3D

 25 24  0  0  1  0  0  0  0  0999 V2000
   28.8761  -24.0021  -16.1340 N   0  0  0  0  0  0  0  0  0  0  0  0
   28.1059  -23.1791  -17.0120 C   0  0  0  0  0  0  0  0  0  0  0  0
   27.3965  -22.0941  -16.3271 C   0  0  0  0  0  0  0  0  0  0  0  0
   27.2187  -22.1062  -15.0845 O   0  0  0  0  0  0  0  0  0  0  0  0
   26.8639  -20.9545  -17.0355 N   0  0  0  0  0  0  0  0  0  0  0  0
   26.1483  -19.9257  -16.3522 C   0  0  1  0  0  0  0  0  0  0  0  0
   26.1283  -18.6257  -17.0625 C   0  0  0  0  0  0  0  0  0  0  0  0
   27.4247  -17.9523  -17.2993 C   0  0  0  0  0  0  0  0  0  0  0  0
   27.3813  -16.7425  -18.1794 C   0  0  0  0  0  0  0  0  0  0  0  0
   28.8341  -16.2454  -18.3049 C   0  0  0  0  0  0  0  0  0  0  0  0
   28.7402  -15.0398  -19.1233 N   0  0  0  0  0  0  0  0  0  0  0  0
   24.6957  -20.3543  -16.2497 C   0  0  0  0  0  0  0  0  0  0  0  0
   24.1528  -20.8925  -17.2328 O   0  0  0  0  0  0  0  0  0  0  0  0
   21.1099  -22.4992   -8.4474 N   0  0  0  0  0  0  0  0  0  0  0  0
   20.1329  -22.7826   -9.4376 C   0  0  0  0  0  0  0  0  0  0  0  0
   19.0561  -23.3744   -9.0687 N   0  0  0  0  0  0  0  0  0  0  0  0
   20.3351  -22.4279  -10.7778 N   0  0  0  0  0  0  0  0  0  0  0  0
   21.5861  -21.7398  -11.1489 C   0  0  0  0  0  0  0  0  0  0  0  0
   21.5743  -21.5837  -12.6189 C   0  0  0  0  0  0  0  0  0  0  0  0
   22.6536  -20.8896  -13.3203 C   0  0  0  0  0  0  0  0  0  0  0  0
   22.6444  -20.6823  -14.7961 C   0  0  2  0  0  0  0  0  0  0  0  0
   24.0381  -20.1159  -15.0311 N   0  0  0  0  0  0  0  0  0  0  0  0
   21.7798  -19.6042  -15.2740 C   0  0  0  0  0  0  0  0  0  0  0  0
   20.5067  -19.9255  -15.7964 O   0  0  0  0  0  0  0  0  0  0  0  0
   22.0408  -18.3950  -15.2760 O   0  0  0  0  0  0  0  0  0  0  0  0
  2  1  1  0
  3  4  2  0
  3  2  1  0
  5  3  1  0
  6  7  1  6
  6  5  1  0
  8  7  1  0
  9  8  1  0
 10  9  1  0
 11 10  1  0
 12 22  1  0
 12  6  1  0
 13 12  2  0
 15 14  1  0
 15 16  2  0
 17 15  1  0
 18 17  1  0
 19 20  1  0
 19 18  1  0
 21 22  1  0
 21 20  1  1
 23 24  1  0
 23 21  1  0
 25 23  2  0
M  END
$$$$
