GKR.pdb
     RDKit          3D

 25 24  0  0  1  0  0  0  0  0999 V2000
   30.3605  -25.1705  -15.8566 N   0  0  0  0  0  0  0  0  0  0  0  0
   29.7684  -24.5240  -16.9849 C   0  0  0  0  0  0  0  0  0  0  0  0
   29.1164  -23.2526  -16.6568 C   0  0  0  0  0  0  0  0  0  0  0  0
   28.6798  -23.0157  -15.5040 O   0  0  0  0  0  0  0  0  0  0  0  0
   28.9388  -22.2038  -17.6329 N   0  0  0  0  0  0  0  0  0  0  0  0
   28.3586  -20.9496  -17.2754 C   0  0  1  0  0  0  0  0  0  0  0  0
   28.7952  -19.8153  -18.1226 C   0  0  0  0  0  0  0  0  0  0  0  0
   28.1831  -18.4922  -17.8677 C   0  0  0  0  0  0  0  0  0  0  0  0
   28.5959  -17.3919  -18.7946 C   0  0  0  0  0  0  0  0  0  0  0  0
   27.8434  -16.1299  -18.3316 C   0  0  0  0  0  0  0  0  0  0  0  0
   28.2287  -15.0996  -19.2919 N   0  0  0  0  0  0  0  0  0  0  0  0
   26.8577  -21.0532  -17.4782 C   0  0  0  0  0  0  0  0  0  0  0  0
   26.4219  -21.4829  -18.5629 O   0  0  0  0  0  0  0  0  0  0  0  0
   20.1027  -20.3865  -14.2920 N   0  0  0  0  0  0  0  0  0  0  0  0
   20.1862  -21.5630  -13.5019 C   0  0  0  0  0  0  0  0  0  0  0  0
   19.1357  -22.2913  -13.3941 N   0  0  0  0  0  0  0  0  0  0  0  0
   21.3781  -21.9209  -12.8585 N   0  0  0  0  0  0  0  0  0  0  0  0
   22.5861  -21.1090  -13.0990 C   0  0  0  0  0  0  0  0  0  0  0  0
   22.9267  -21.2539  -14.5303 C   0  0  0  0  0  0  0  0  0  0  0  0
   24.1042  -20.6030  -15.1031 C   0  0  0  0  0  0  0  0  0  0  0  0
   24.5237  -20.8109  -16.5180 C   0  0  2  0  0  0  0  0  0  0  0  0
   26.0345  -20.6526  -16.4124 N   0  0  0  0  0  0  0  0  0  0  0  0
   24.1574  -19.7417  -17.4458 C   0  0  0  0  0  0  0  0  0  0  0  0
   23.1007  -19.9570  -18.3589 O   0  0  0  0  0  0  0  0  0  0  0  0
   24.6842  -18.6256  -17.5304 O   0  0  0  0  0  0  0  0  0  0  0  0
  2  1  1  0
  3  4  2  0
  3  2  1  0
  5  3  1  0
  6  7  1  6
  6  5  1  0
  8  7  1  0
  9  8  1  0
 10  9  1  0
 11 10  1  0
 12 22  1  0
 12  6  1  0
 13 12  2  0
 15 14  1  0
 15 16  2  0
 17 15  1  0
 18 17  1  0
 19 20  1  0
 19 18  1  0
 21 22  1  0
 21 20  1  1
 23 24  1  0
 23 21  1  0
 25 23  2  0
M  END
$$$$
