KIS.pdb
     RDKit          3D

 24 23  0  0  1  0  0  0  0  0999 V2000
   20.3649  -12.1410  -18.4559 N   0  0  0  0  0  0  0  0  0  0  0  0
   19.3842  -11.8856  -17.4191 C   0  0  1  0  0  0  0  0  0  0  0  0
   18.8452  -13.2345  -16.9827 C   0  0  0  0  0  0  0  0  0  0  0  0
   18.0816  -13.9611  -18.0339 C   0  0  0  0  0  0  0  0  0  0  0  0
   16.8114  -13.2523  -18.4421 C   0  0  0  0  0  0  0  0  0  0  0  0
   16.0621  -14.0139  -19.5133 C   0  0  0  0  0  0  0  0  0  0  0  0
   14.8604  -13.2906  -19.8368 N   0  0  0  0  0  0  0  0  0  0  0  0
   20.0698  -11.2748  -16.2630 C   0  0  0  0  0  0  0  0  0  0  0  0
   19.5336  -11.1142  -15.1405 O   0  0  0  0  0  0  0  0  0  0  0  0
   25.9128  -10.7309  -14.6644 C   0  0  0  0  0  0  0  0  0  0  0  0
   24.5047  -10.1524  -14.4372 C   0  0  0  0  0  0  0  0  0  0  0  0
   23.5527  -10.6459  -15.4797 C   0  0  2  0  0  0  0  0  0  0  0  0
   24.1282  -10.5905  -16.8694 C   0  0  0  0  0  0  0  0  0  0  0  0
   22.1530  -10.1388  -15.3793 C   0  0  2  0  0  0  0  0  0  0  0  0
   21.4095  -10.8469  -16.4349 N   0  0  0  0  0  0  0  0  0  0  0  0
   21.9765   -8.7010  -15.6477 C   0  0  0  0  0  0  0  0  0  0  0  0
   22.0917   -8.2085  -16.8249 O   0  0  0  0  0  0  0  0  0  0  0  0
   20.0354   -4.6142  -15.5366 O   0  0  0  0  0  0  0  0  0  0  0  0
   20.0670   -5.9665  -15.2226 C   0  0  0  0  0  0  0  0  0  0  0  0
   21.5311   -6.3161  -14.9729 C   0  0  2  0  0  0  0  0  0  0  0  0
   21.6653   -7.7461  -14.6424 N   0  0  0  0  0  0  0  0  0  0  0  0
   22.0927   -5.4921  -13.8828 C   0  0  0  0  0  0  0  0  0  0  0  0
   22.6796   -4.2823  -14.2238 O   0  0  0  0  0  0  0  0  0  0  0  0
   22.0691   -5.8222  -12.6723 O   0  0  0  0  0  0  0  0  0  0  0  0
  2  3  1  0
  2  1  1  6
  4  5  1  0
  4  3  1  0
  6  5  1  0
  7  6  1  0
  8  2  1  0
  9  8  2  0
 10 11  1  0
 11 12  1  0
 12 13  1  6
 12 14  1  0
 14 15  1  6
 15  8  1  0
 16 17  2  0
 16 14  1  0
 18 19  1  0
 20 19  1  1
 20 21  1  0
 21 16  1  0
 22 20  1  0
 23 22  1  0
 24 22  2  0
M  END
$$$$
