KIS.pdb
     RDKit          3D

 24 23  0  0  1  0  0  0  0  0999 V2000
   21.8733  -22.4749  -13.8176 N   0  0  0  0  0  0  0  0  0  0  0  0
   21.4627  -21.2039  -13.2536 C   0  0  1  0  0  0  0  0  0  0  0  0
   20.7830  -21.5090  -11.9325 C   0  0  0  0  0  0  0  0  0  0  0  0
   19.6554  -22.4760  -12.0298 C   0  0  0  0  0  0  0  0  0  0  0  0
   18.9698  -22.7239  -10.7065 C   0  0  0  0  0  0  0  0  0  0  0  0
   19.0563  -24.1763  -10.2920 C   0  0  0  0  0  0  0  0  0  0  0  0
   18.6840  -24.2820   -8.9056 N   0  0  0  0  0  0  0  0  0  0  0  0
   22.6701  -20.4034  -12.9691 C   0  0  0  0  0  0  0  0  0  0  0  0
   23.0389  -20.0864  -11.8129 O   0  0  0  0  0  0  0  0  0  0  0  0
   26.0181  -22.1200  -11.3048 C   0  0  0  0  0  0  0  0  0  0  0  0
   25.2239  -20.9143  -11.8383 C   0  0  0  0  0  0  0  0  0  0  0  0
   25.5653  -20.6438  -13.2691 C   0  0  2  0  0  0  0  0  0  0  0  0
   27.0479  -20.6543  -13.5279 C   0  0  0  0  0  0  0  0  0  0  0  0
   24.8430  -19.5062  -13.9096 C   0  0  2  0  0  0  0  0  0  0  0  0
   23.4543  -19.9704  -14.0668 N   0  0  0  0  0  0  0  0  0  0  0  0
   25.3068  -19.1368  -15.2583 C   0  0  0  0  0  0  0  0  0  0  0  0
   25.2973  -19.9678  -16.2334 O   0  0  0  0  0  0  0  0  0  0  0  0
   27.0743  -15.5899  -15.9896 O   0  0  0  0  0  0  0  0  0  0  0  0
   26.4299  -16.0348  -17.1365 C   0  0  0  0  0  0  0  0  0  0  0  0
   26.2392  -17.5391  -16.9668 C   0  0  2  0  0  0  0  0  0  0  0  0
   25.7965  -17.8460  -15.5951 N   0  0  0  0  0  0  0  0  0  0  0  0
   27.4888  -18.2675  -17.2678 C   0  0  0  0  0  0  0  0  0  0  0  0
   27.9251  -18.2857  -18.5846 O   0  0  0  0  0  0  0  0  0  0  0  0
   28.1747  -18.8675  -16.4050 O   0  0  0  0  0  0  0  0  0  0  0  0
  2  3  1  0
  2  1  1  1
  4  5  1  0
  4  3  1  0
  6  5  1  0
  7  6  1  0
  8  2  1  0
  9  8  2  0
 10 11  1  0
 11 12  1  0
 12 13  1  1
 12 14  1  0
 14 15  1  6
 15  8  1  0
 16 17  2  0
 16 14  1  0
 18 19  1  0
 20 19  1  1
 20 21  1  0
 21 16  1  0
 22 20  1  0
 23 22  1  0
 24 22  2  0
M  END
$$$$
