KIS.pdb
     RDKit          3D

 24 23  0  0  1  0  0  0  0  0999 V2000
   18.0093  -12.6253  -16.1957 N   0  0  0  0  0  0  0  0  0  0  0  0
   18.6061  -11.4401  -16.7799 C   0  0  1  0  0  0  0  0  0  0  0  0
   17.4639  -10.5553  -17.2410 C   0  0  0  0  0  0  0  0  0  0  0  0
   16.6967  -11.0938  -18.3974 C   0  0  0  0  0  0  0  0  0  0  0  0
   15.2376  -11.3290  -18.0843 C   0  0  0  0  0  0  0  0  0  0  0  0
   14.4546  -11.7237  -19.3173 C   0  0  0  0  0  0  0  0  0  0  0  0
   13.1044  -12.0325  -18.9256 N   0  0  0  0  0  0  0  0  0  0  0  0
   19.3443  -10.7166  -15.7257 C   0  0  0  0  0  0  0  0  0  0  0  0
   18.9966  -10.6964  -14.5208 O   0  0  0  0  0  0  0  0  0  0  0  0
   24.0566  -12.1594  -15.0330 C   0  0  0  0  0  0  0  0  0  0  0  0
   22.6559  -11.5364  -14.8957 C   0  0  0  0  0  0  0  0  0  0  0  0
   22.6909  -10.0748  -15.2109 C   0  0  2  0  0  0  0  0  0  0  0  0
   23.8392   -9.3618  -14.5487 C   0  0  0  0  0  0  0  0  0  0  0  0
   21.3883   -9.3536  -15.1132 C   0  0  2  0  0  0  0  0  0  0  0  0
   20.5114  -10.0058  -16.1002 N   0  0  0  0  0  0  0  0  0  0  0  0
   21.4229   -7.9261  -15.4758 C   0  0  0  0  0  0  0  0  0  0  0  0
   21.7980   -7.5261  -16.6337 O   0  0  0  0  0  0  0  0  0  0  0  0
   19.2266   -5.1239  -13.7781 O   0  0  0  0  0  0  0  0  0  0  0  0
   19.8430   -4.7682  -14.9706 C   0  0  0  0  0  0  0  0  0  0  0  0
   21.1991   -5.4675  -14.9793 C   0  0  2  0  0  0  0  0  0  0  0  0
   21.0473   -6.8807  -14.5896 N   0  0  0  0  0  0  0  0  0  0  0  0
   22.1473   -4.7929  -14.0690 C   0  0  0  0  0  0  0  0  0  0  0  0
   22.4888   -3.4781  -14.3502 O   0  0  0  0  0  0  0  0  0  0  0  0
   22.6588   -5.3384  -13.0612 O   0  0  0  0  0  0  0  0  0  0  0  0
  2  3  1  0
  2  1  1  1
  4  5  1  0
  4  3  1  0
  6  5  1  0
  7  6  1  0
  8  2  1  0
  9  8  2  0
 10 11  1  0
 11 12  1  0
 12 13  1  1
 12 14  1  0
 14 15  1  6
 15  8  1  0
 16 17  2  0
 16 14  1  0
 18 19  1  0
 20 19  1  1
 20 21  1  0
 21 16  1  0
 22 20  1  0
 23 22  1  0
 24 22  2  0
M  END
$$$$
