KIS.pdb
     RDKit          3D

 24 23  0  0  1  0  0  0  0  0999 V2000
   20.2042  -20.9084  -11.9021 N   0  0  0  0  0  0  0  0  0  0  0  0
   20.9315  -21.2223  -13.1164 C   0  0  1  0  0  0  0  0  0  0  0  0
   20.0012  -20.9207  -14.2756 C   0  0  0  0  0  0  0  0  0  0  0  0
   18.8818  -21.8892  -14.4341 C   0  0  0  0  0  0  0  0  0  0  0  0
   19.3275  -23.3304  -14.3524 C   0  0  0  0  0  0  0  0  0  0  0  0
   18.2030  -24.2862  -14.6857 C   0  0  0  0  0  0  0  0  0  0  0  0
   18.6988  -25.6336  -14.5825 N   0  0  0  0  0  0  0  0  0  0  0  0
   22.0921  -20.3154  -13.2175 C   0  0  0  0  0  0  0  0  0  0  0  0
   22.0830  -19.1258  -12.8200 O   0  0  0  0  0  0  0  0  0  0  0  0
   26.4954  -21.8519  -11.1728 C   0  0  0  0  0  0  0  0  0  0  0  0
   25.3366  -21.0365  -11.7739 C   0  0  0  0  0  0  0  0  0  0  0  0
   25.5671  -20.7780  -13.2288 C   0  0  2  0  0  0  0  0  0  0  0  0
   26.9650  -20.3044  -13.5237 C   0  0  0  0  0  0  0  0  0  0  0  0
   24.5013  -20.0064  -13.9325 C   0  0  2  0  0  0  0  0  0  0  0  0
   23.2821  -20.8210  -13.7970 N   0  0  0  0  0  0  0  0  0  0  0  0
   24.7060  -19.8122  -15.3785 C   0  0  0  0  0  0  0  0  0  0  0  0
   24.8931  -20.7956  -16.1782 O   0  0  0  0  0  0  0  0  0  0  0  0
   24.7945  -16.1169  -17.0410 O   0  0  0  0  0  0  0  0  0  0  0  0
   24.4368  -17.0823  -17.9730 C   0  0  0  0  0  0  0  0  0  0  0  0
   24.9825  -18.4079  -17.4503 C   0  0  2  0  0  0  0  0  0  0  0  0
   24.7120  -18.5380  -16.0075 N   0  0  0  0  0  0  0  0  0  0  0  0
   26.4340  -18.5182  -17.7029 C   0  0  0  0  0  0  0  0  0  0  0  0
   26.8443  -18.8211  -18.9929 O   0  0  0  0  0  0  0  0  0  0  0  0
   27.3123  -18.3544  -16.8217 O   0  0  0  0  0  0  0  0  0  0  0  0
  2  3  1  0
  2  1  1  1
  4  5  1  0
  4  3  1  0
  6  5  1  0
  7  6  1  0
  8  2  1  0
  9  8  2  0
 10 11  1  0
 11 12  1  0
 12 13  1  1
 12 14  1  0
 14 15  1  6
 15  8  1  0
 16 17  2  0
 16 14  1  0
 18 19  1  0
 20 19  1  1
 20 21  1  0
 21 16  1  0
 22 20  1  0
 23 22  1  0
 24 22  2  0
M  END
$$$$
