KIS.pdb
     RDKit          3D

 24 23  0  0  1  0  0  0  0  0999 V2000
   20.7386  -11.5773  -16.5974 N   0  0  0  0  0  0  0  0  0  0  0  0
   20.1713  -10.7840  -17.6702 C   0  0  1  0  0  0  0  0  0  0  0  0
   19.0972  -11.6328  -18.3231 C   0  0  0  0  0  0  0  0  0  0  0  0
   19.4332  -13.0795  -18.4243 C   0  0  0  0  0  0  0  0  0  0  0  0
   18.3160  -13.9089  -19.0127 C   0  0  0  0  0  0  0  0  0  0  0  0
   18.6800  -15.3758  -19.0794 C   0  0  0  0  0  0  0  0  0  0  0  0
   17.5936  -16.0919  -19.6950 N   0  0  0  0  0  0  0  0  0  0  0  0
   19.5182   -9.5972  -17.0832 C   0  0  0  0  0  0  0  0  0  0  0  0
   18.9143   -8.7295  -17.7582 O   0  0  0  0  0  0  0  0  0  0  0  0
   16.0516   -7.2903  -14.2041 C   0  0  0  0  0  0  0  0  0  0  0  0
   17.1656   -7.8386  -13.2944 C   0  0  0  0  0  0  0  0  0  0  0  0
   18.0096   -8.8322  -14.0273 C   0  0  2  0  0  0  0  0  0  0  0  0
   18.5750   -9.8963  -13.1255 C   0  0  0  0  0  0  0  0  0  0  0  0
   18.9951   -8.2660  -14.9939 C   0  0  2  0  0  0  0  0  0  0  0  0
   19.5790   -9.4324  -15.6773 N   0  0  0  0  0  0  0  0  0  0  0  0
   20.1247   -7.5338  -14.3952 C   0  0  0  0  0  0  0  0  0  0  0  0
   21.1558   -8.1348  -13.9290 O   0  0  0  0  0  0  0  0  0  0  0  0
   23.6398   -5.0432  -14.5664 O   0  0  0  0  0  0  0  0  0  0  0  0
   22.5392   -5.8230  -14.8967 C   0  0  0  0  0  0  0  0  0  0  0  0
   21.4272   -5.4298  -13.9286 C   0  0  2  0  0  0  0  0  0  0  0  0
   20.1736   -6.1180  -14.2844 N   0  0  0  0  0  0  0  0  0  0  0  0
   21.2174   -3.9674  -13.9306 C   0  0  0  0  0  0  0  0  0  0  0  0
   21.9901   -3.2024  -13.0691 O   0  0  0  0  0  0  0  0  0  0  0  0
   20.3845   -3.3806  -14.6634 O   0  0  0  0  0  0  0  0  0  0  0  0
  2  3  1  0
  2  1  1  1
  4  5  1  0
  4  3  1  0
  6  5  1  0
  7  6  1  0
  8  2  1  0
  9  8  2  0
 10 11  1  0
 11 12  1  0
 12 13  1  1
 12 14  1  0
 14 15  1  1
 15  8  1  0
 16 17  2  0
 16 14  1  0
 18 19  1  0
 20 19  1  6
 20 21  1  0
 21 16  1  0
 22 20  1  0
 23 22  1  0
 24 22  2  0
M  END
$$$$
