KIS.pdb
     RDKit          3D

 24 23  0  0  1  0  0  0  0  0999 V2000
   20.4046  -11.6876  -18.1651 N   0  0  0  0  0  0  0  0  0  0  0  0
   19.5113  -11.2760  -17.0999 C   0  0  1  0  0  0  0  0  0  0  0  0
   18.8418  -12.5330  -16.5782 C   0  0  0  0  0  0  0  0  0  0  0  0
   18.0836  -13.2980  -17.6058 C   0  0  0  0  0  0  0  0  0  0  0  0
   18.5114  -14.7435  -17.7056 C   0  0  0  0  0  0  0  0  0  0  0  0
   17.8154  -15.4584  -18.8429 C   0  0  0  0  0  0  0  0  0  0  0  0
   18.3058  -16.8103  -18.9052 N   0  0  0  0  0  0  0  0  0  0  0  0
   20.3180  -10.7028  -16.0044 C   0  0  0  0  0  0  0  0  0  0  0  0
   19.8910  -10.5411  -14.8361 O   0  0  0  0  0  0  0  0  0  0  0  0
   26.2505  -10.5379  -14.8103 C   0  0  0  0  0  0  0  0  0  0  0  0
   24.9438   -9.7534  -14.5958 C   0  0  0  0  0  0  0  0  0  0  0  0
   23.8350  -10.3332  -15.4150 C   0  0  2  0  0  0  0  0  0  0  0  0
   24.2494  -10.6319  -16.8308 C   0  0  0  0  0  0  0  0  0  0  0  0
   22.5116   -9.6541  -15.2979 C   0  0  2  0  0  0  0  0  0  0  0  0
   21.6498  -10.3145  -16.2926 N   0  0  0  0  0  0  0  0  0  0  0  0
   22.5008   -8.2197  -15.6341 C   0  0  0  0  0  0  0  0  0  0  0  0
   22.8793   -7.7852  -16.7784 O   0  0  0  0  0  0  0  0  0  0  0  0
   19.8681   -5.6312  -14.7886 O   0  0  0  0  0  0  0  0  0  0  0  0
   20.8618   -5.2910  -15.6971 C   0  0  0  0  0  0  0  0  0  0  0  0
   22.1774   -5.7804  -15.0989 C   0  0  2  0  0  0  0  0  0  0  0  0
   22.0743   -7.2049  -14.7354 N   0  0  0  0  0  0  0  0  0  0  0  0
   22.5470   -4.9829  -13.9114 C   0  0  0  0  0  0  0  0  0  0  0  0
   22.8079   -3.6329  -14.0952 O   0  0  0  0  0  0  0  0  0  0  0  0
   22.6380   -5.4544  -12.7519 O   0  0  0  0  0  0  0  0  0  0  0  0
  2  3  1  0
  2  1  1  6
  4  5  1  0
  4  3  1  0
  6  5  1  0
  7  6  1  0
  8  2  1  0
  9  8  2  0
 10 11  1  0
 11 12  1  0
 12 13  1  6
 12 14  1  0
 14 15  1  6
 15  8  1  0
 16 17  2  0
 16 14  1  0
 18 19  1  0
 20 19  1  1
 20 21  1  0
 21 16  1  0
 22 20  1  0
 23 22  1  0
 24 22  2  0
M  END
$$$$
