KIS.pdb
     RDKit          3D

 24 23  0  0  1  0  0  0  0  0999 V2000
   18.9703  -24.7333  -10.2909 N   0  0  0  0  0  0  0  0  0  0  0  0
   18.4698  -25.7959   -9.4410 C   0  0  1  0  0  0  0  0  0  0  0  0
   19.5081  -26.9013   -9.4628 C   0  0  0  0  0  0  0  0  0  0  0  0
   20.0652  -27.1955  -10.8115 C   0  0  0  0  0  0  0  0  0  0  0  0
   19.9366  -28.6490  -11.2029 C   0  0  0  0  0  0  0  0  0  0  0  0
   20.6360  -28.9426  -12.5119 C   0  0  0  0  0  0  0  0  0  0  0  0
   20.4722  -30.3396  -12.8179 N   0  0  0  0  0  0  0  0  0  0  0  0
   18.3761  -25.2878   -8.0581 C   0  0  0  0  0  0  0  0  0  0  0  0
   19.1391  -24.4119   -7.5848 O   0  0  0  0  0  0  0  0  0  0  0  0
   14.0757  -23.1362   -6.6832 C   0  0  0  0  0  0  0  0  0  0  0  0
   15.5434  -23.5962   -6.7400 C   0  0  0  0  0  0  0  0  0  0  0  0
   15.7663  -24.7743   -5.8460 C   0  0  2  0  0  0  0  0  0  0  0  0
   15.1793  -24.5850   -4.4730 C   0  0  0  0  0  0  0  0  0  0  0  0
   17.1458  -25.3430   -5.8458 C   0  0  2  0  0  0  0  0  0  0  0  0
   17.3657  -25.8221   -7.2207 N   0  0  0  0  0  0  0  0  0  0  0  0
   17.3536  -26.5076   -4.9677 C   0  0  0  0  0  0  0  0  0  0  0  0
   16.7669  -27.6282   -5.1720 O   0  0  0  0  0  0  0  0  0  0  0  0
   19.4729  -26.1930   -1.5661 O   0  0  0  0  0  0  0  0  0  0  0  0
   19.5025  -27.5111   -2.0023 C   0  0  0  0  0  0  0  0  0  0  0  0
   18.3246  -27.6743   -2.9585 C   0  0  2  0  0  0  0  0  0  0  0  0
   18.2110  -26.4947   -3.8346 N   0  0  0  0  0  0  0  0  0  0  0  0
   17.0637  -27.8728   -2.2146 C   0  0  0  0  0  0  0  0  0  0  0  0
   16.7866  -29.1468   -1.7407 O   0  0  0  0  0  0  0  0  0  0  0  0
   16.2333  -26.9595   -1.9881 O   0  0  0  0  0  0  0  0  0  0  0  0
  2  3  1  0
  2  1  1  6
  4  5  1  0
  4  3  1  0
  6  5  1  0
  7  6  1  0
  8  2  1  0
  9  8  2  0
 10 11  1  0
 11 12  1  0
 12 13  1  1
 12 14  1  0
 14 15  1  6
 15  8  1  0
 16 17  2  0
 16 14  1  0
 18 19  1  0
 20 19  1  1
 20 21  1  0
 21 16  1  0
 22 20  1  0
 23 22  1  0
 24 22  2  0
M  END
$$$$
