KIS.pdb
     RDKit          3D

 24 23  0  0  1  0  0  0  0  0999 V2000
   23.2977  -16.1602  -16.8565 N   0  0  0  0  0  0  0  0  0  0  0  0
   23.3376  -14.8583  -17.4933 C   0  0  1  0  0  0  0  0  0  0  0  0
   22.0100  -14.6763  -18.2037 C   0  0  0  0  0  0  0  0  0  0  0  0
   21.7575  -15.6555  -19.2962 C   0  0  0  0  0  0  0  0  0  0  0  0
   20.6606  -16.6413  -18.9684 C   0  0  0  0  0  0  0  0  0  0  0  0
   19.4572  -16.4628  -19.8678 C   0  0  0  0  0  0  0  0  0  0  0  0
   18.4532  -17.4220  -19.4886 N   0  0  0  0  0  0  0  0  0  0  0  0
   23.4370  -13.8242  -16.4444 C   0  0  0  0  0  0  0  0  0  0  0  0
   22.9582  -13.9527  -15.2922 O   0  0  0  0  0  0  0  0  0  0  0  0
   28.0974  -12.3415  -15.3781 C   0  0  0  0  0  0  0  0  0  0  0  0
   26.5834  -12.5901  -15.2562 C   0  0  0  0  0  0  0  0  0  0  0  0
   25.8102  -11.3863  -15.6917 C   0  0  2  0  0  0  0  0  0  0  0  0
   26.2514  -10.1260  -14.9972 C   0  0  0  0  0  0  0  0  0  0  0  0
   24.3294  -11.5530  -15.7686 C   0  0  2  0  0  0  0  0  0  0  0  0
   24.1124  -12.6195  -16.7607 N   0  0  0  0  0  0  0  0  0  0  0  0
   23.5818  -10.3811  -16.2565 C   0  0  0  0  0  0  0  0  0  0  0  0
   23.8406   -9.8285  -17.3831 O   0  0  0  0  0  0  0  0  0  0  0  0
   20.3110   -8.7850  -14.2989 O   0  0  0  0  0  0  0  0  0  0  0  0
   20.3293   -8.6601  -15.6819 C   0  0  0  0  0  0  0  0  0  0  0  0
   21.7986   -8.6108  -16.0901 C   0  0  2  0  0  0  0  0  0  0  0  0
   22.5218   -9.7687  -15.5348 N   0  0  0  0  0  0  0  0  0  0  0  0
   22.4317   -7.3558  -15.6350 C   0  0  0  0  0  0  0  0  0  0  0  0
   21.9665   -6.1651  -16.1736 O   0  0  0  0  0  0  0  0  0  0  0  0
   23.3614   -7.3057  -14.7936 O   0  0  0  0  0  0  0  0  0  0  0  0
  2  3  1  0
  2  1  1  1
  4  5  1  0
  4  3  1  0
  6  5  1  0
  7  6  1  0
  8  2  1  0
  9  8  2  0
 10 11  1  0
 11 12  1  0
 12 13  1  1
 12 14  1  0
 14 15  1  6
 15  8  1  0
 16 17  2  0
 16 14  1  0
 18 19  1  0
 20 19  1  1
 20 21  1  0
 21 16  1  0
 22 20  1  0
 23 22  1  0
 24 22  2  0
M  END
$$$$
