KIS.pdb
     RDKit          3D

 24 23  0  0  1  0  0  0  0  0999 V2000
   23.7420  -12.7841  -18.2791 N   0  0  0  0  0  0  0  0  0  0  0  0
   23.9564  -11.8965  -17.1530 C   0  0  1  0  0  0  0  0  0  0  0  0
   25.3697  -11.3609  -17.2791 C   0  0  0  0  0  0  0  0  0  0  0  0
   26.4246  -12.4107  -17.3143 C   0  0  0  0  0  0  0  0  0  0  0  0
   27.7955  -11.8644  -17.6376 C   0  0  0  0  0  0  0  0  0  0  0  0
   28.8134  -12.9694  -17.8152 C   0  0  0  0  0  0  0  0  0  0  0  0
   30.0813  -12.3772  -18.1523 N   0  0  0  0  0  0  0  0  0  0  0  0
   23.0263  -10.7559  -17.2691 C   0  0  0  0  0  0  0  0  0  0  0  0
   22.7614  -10.1807  -18.3519 O   0  0  0  0  0  0  0  0  0  0  0  0
   17.7252   -9.7209  -14.9660 C   0  0  0  0  0  0  0  0  0  0  0  0
   18.9678   -8.9352  -15.4216 C   0  0  0  0  0  0  0  0  0  0  0  0
   20.1302   -9.8530  -15.6300 C   0  0  2  0  0  0  0  0  0  0  0  0
   20.3212  -10.8210  -14.4935 C   0  0  0  0  0  0  0  0  0  0  0  0
   21.3919   -9.2127  -16.1036 C   0  0  2  0  0  0  0  0  0  0  0  0
   22.3989  -10.2870  -16.0884 N   0  0  0  0  0  0  0  0  0  0  0  0
   21.9230   -8.1409  -15.2435 C   0  0  0  0  0  0  0  0  0  0  0  0
   22.5252   -8.3883  -14.1400 O   0  0  0  0  0  0  0  0  0  0  0  0
   22.7262   -4.4379  -16.5785 O   0  0  0  0  0  0  0  0  0  0  0  0
   23.3877   -4.8654  -15.4348 C   0  0  0  0  0  0  0  0  0  0  0  0
   22.3986   -5.7365  -14.6659 C   0  0  2  0  0  0  0  0  0  0  0  0
   21.8193   -6.7585  -15.5557 N   0  0  0  0  0  0  0  0  0  0  0  0
   21.3224   -4.9163  -14.0727 C   0  0  0  0  0  0  0  0  0  0  0  0
   21.6632   -4.0468  -13.0469 O   0  0  0  0  0  0  0  0  0  0  0  0
   20.1238   -4.9611  -14.4417 O   0  0  0  0  0  0  0  0  0  0  0  0
  2  3  1  0
  2  1  1  6
  4  5  1  0
  4  3  1  0
  6  5  1  0
  7  6  1  0
  8  2  1  0
  9  8  2  0
 10 11  1  0
 11 12  1  0
 12 13  1  1
 12 14  1  0
 14 15  1  1
 15  8  1  0
 16 17  2  0
 16 14  1  0
 18 19  1  0
 20 19  1  6
 20 21  1  0
 21 16  1  0
 22 20  1  0
 23 22  1  0
 24 22  2  0
M  END
$$$$
