IQD.pdb
     RDKit          3D

 26 25  0  0  1  0  0  0  0  0999 V2000
    6.6111  -11.7760   28.1111 C   0  0  0  0  0  0  0  0  0  0  0  0
    5.9450  -12.8380   27.2816 C   0  0  0  0  0  0  0  0  0  0  0  0
    6.8273  -13.4337   26.2482 C   0  0  2  0  0  0  0  0  0  0  0  0
    7.4369  -12.2958   25.4546 C   0  0  0  0  0  0  0  0  0  0  0  0
    6.2501  -14.4851   25.3766 C   0  0  2  0  0  0  0  0  0  0  0  0
    5.9117  -15.6062   26.2945 N   0  0  0  0  0  0  0  0  0  0  0  0
    7.1212  -15.0654   24.3579 C   0  0  0  0  0  0  0  0  0  0  0  0
    7.7993  -16.1244   24.5902 O   0  0  0  0  0  0  0  0  0  0  0  0
    7.7927  -12.8959   18.4346 N   0  0  0  0  0  0  0  0  0  0  0  0
    8.5067  -14.1176   18.3855 C   0  0  0  0  0  0  0  0  0  0  0  0
    9.0208  -14.4656   17.2968 O   0  0  0  0  0  0  0  0  0  0  0  0
    8.6608  -14.9977   19.5968 C   0  0  0  0  0  0  0  0  0  0  0  0
    7.8922  -14.4248   20.7595 C   0  0  0  0  0  0  0  0  0  0  0  0
    8.0787  -15.2110   22.0471 C   0  0  2  0  0  0  0  0  0  0  0  0
    7.2824  -14.5272   23.0630 N   0  0  0  0  0  0  0  0  0  0  0  0
    9.4451  -15.3837   22.4704 C   0  0  0  0  0  0  0  0  0  0  0  0
   10.0343  -14.3932   23.0062 O   0  0  0  0  0  0  0  0  0  0  0  0
   10.1862  -16.5859   22.3338 N   0  0  0  0  0  0  0  0  0  0  0  0
   11.5634  -16.6766   22.8278 C   0  0  1  0  0  0  0  0  0  0  0  0
   11.8777  -18.0067   23.4283 C   0  0  0  0  0  0  0  0  0  0  0  0
   11.3636  -18.1644   24.8020 C   0  0  0  0  0  0  0  0  0  0  0  0
   11.4774  -17.2647   25.6509 O   0  0  0  0  0  0  0  0  0  0  0  0
   12.4974  -16.3214   21.7249 C   0  0  0  0  0  0  0  0  0  0  0  0
   13.8349  -16.0235   21.9479 O   0  0  0  0  0  0  0  0  0  0  0  0
   10.7387  -19.3557   25.1385 O   0  0  0  0  0  0  0  0  0  0  0  0
   12.0854  -16.2825   20.5377 O   0  0  0  0  0  0  0  0  0  0  0  0
  1  2  1  0
  2  3  1  0
  3  5  1  0
  3  4  1  6
  5  7  1  0
  5  6  1  1
  7  8  2  0
  9 10  1  0
 10 12  1  0
 10 11  2  0
 12 13  1  0
 14 13  1  6
 15 14  1  0
 15  7  1  0
 16 17  2  0
 16 14  1  0
 18 16  1  0
 19 18  1  0
 19 23  1  0
 19 20  1  6
 21 20  1  0
 22 21  2  0
 23 24  1  0
 25 21  1  0
 26 23  2  0
M  END
$$$$
