IQD.pdb
     RDKit          3D

 26 25  0  0  1  0  0  0  0  0999 V2000
    7.9932  -11.6882   20.0486 C   0  0  0  0  0  0  0  0  0  0  0  0
    7.9318  -13.1728   19.8210 C   0  0  0  0  0  0  0  0  0  0  0  0
    7.7002  -13.9603   21.0568 C   0  0  2  0  0  0  0  0  0  0  0  0
    8.8022  -13.6108   22.0364 C   0  0  0  0  0  0  0  0  0  0  0  0
    7.5154  -15.4243   20.9127 C   0  0  2  0  0  0  0  0  0  0  0  0
    6.4533  -15.5809   19.8825 N   0  0  0  0  0  0  0  0  0  0  0  0
    7.0360  -16.1586   22.0808 C   0  0  0  0  0  0  0  0  0  0  0  0
    5.9938  -15.7822   22.7189 O   0  0  0  0  0  0  0  0  0  0  0  0
    4.6787  -21.5269   22.4812 N   0  0  0  0  0  0  0  0  0  0  0  0
    4.4445  -20.1383   22.3340 C   0  0  0  0  0  0  0  0  0  0  0  0
    3.2600  -19.7288   22.3362 O   0  0  0  0  0  0  0  0  0  0  0  0
    5.5724  -19.1541   22.1766 C   0  0  0  0  0  0  0  0  0  0  0  0
    6.5677  -19.3173   23.2963 C   0  0  0  0  0  0  0  0  0  0  0  0
    7.1499  -17.9982   23.7779 C   0  0  2  0  0  0  0  0  0  0  0  0
    7.6596  -17.3180   22.5900 N   0  0  0  0  0  0  0  0  0  0  0  0
    8.1582  -18.1078   24.8013 C   0  0  0  0  0  0  0  0  0  0  0  0
    9.3169  -17.6498   24.5498 O   0  0  0  0  0  0  0  0  0  0  0  0
    7.9520  -18.6915   26.0779 N   0  0  0  0  0  0  0  0  0  0  0  0
    9.0497  -18.7837   27.0451 C   0  0  1  0  0  0  0  0  0  0  0  0
    9.4302  -17.4589   27.6185 C   0  0  0  0  0  0  0  0  0  0  0  0
   10.6493  -17.5088   28.4475 C   0  0  0  0  0  0  0  0  0  0  0  0
   11.3013  -18.5564   28.5904 O   0  0  0  0  0  0  0  0  0  0  0  0
    8.6848  -19.7697   28.0985 C   0  0  0  0  0  0  0  0  0  0  0  0
    9.5926  -20.2129   29.0508 O   0  0  0  0  0  0  0  0  0  0  0  0
   11.0653  -16.3456   29.0776 O   0  0  0  0  0  0  0  0  0  0  0  0
    7.5178  -20.2343   28.1501 O   0  0  0  0  0  0  0  0  0  0  0  0
  1  2  1  0
  2  3  1  0
  3  5  1  0
  3  4  1  1
  5  7  1  0
  5  6  1  6
  7  8  2  0
  9 10  1  0
 10 12  1  0
 10 11  2  0
 12 13  1  0
 14 13  1  6
 15 14  1  0
 15  7  1  0
 16 17  2  0
 16 14  1  0
 18 16  1  0
 19 18  1  0
 19 23  1  0
 19 20  1  1
 21 20  1  0
 22 21  2  0
 23 24  1  0
 25 21  1  0
 26 23  2  0
M  END
$$$$
