IQD.pdb
     RDKit          3D

 26 25  0  0  1  0  0  0  0  0999 V2000
    6.6266  -12.1376   27.7439 C   0  0  0  0  0  0  0  0  0  0  0  0
    6.1283  -12.9946   26.6140 C   0  0  0  0  0  0  0  0  0  0  0  0
    7.1775  -13.8416   25.9953 C   0  0  2  0  0  0  0  0  0  0  0  0
    8.3360  -12.9382   25.6239 C   0  0  0  0  0  0  0  0  0  0  0  0
    6.7725  -14.7292   24.8789 C   0  0  2  0  0  0  0  0  0  0  0  0
    5.6508  -15.5438   25.4193 N   0  0  0  0  0  0  0  0  0  0  0  0
    7.7575  -15.6943   24.3974 C   0  0  0  0  0  0  0  0  0  0  0  0
    7.9254  -16.8187   24.9827 O   0  0  0  0  0  0  0  0  0  0  0  0
   10.2675  -18.1652   19.6446 N   0  0  0  0  0  0  0  0  0  0  0  0
    9.1138  -17.3503   19.5464 C   0  0  0  0  0  0  0  0  0  0  0  0
    8.2472  -17.6425   18.6894 O   0  0  0  0  0  0  0  0  0  0  0  0
    8.9066  -16.1549   20.4373 C   0  0  0  0  0  0  0  0  0  0  0  0
   10.0132  -16.0652   21.4562 C   0  0  0  0  0  0  0  0  0  0  0  0
    9.5744  -16.4674   22.8550 C   0  0  2  0  0  0  0  0  0  0  0  0
    8.5831  -15.4792   23.2728 N   0  0  0  0  0  0  0  0  0  0  0  0
   10.6364  -16.5956   23.8201 C   0  0  0  0  0  0  0  0  0  0  0  0
   11.0200  -15.5480   24.4291 O   0  0  0  0  0  0  0  0  0  0  0  0
   11.2892  -17.8129   24.1444 N   0  0  0  0  0  0  0  0  0  0  0  0
   12.0370  -17.9505   25.3978 C   0  0  1  0  0  0  0  0  0  0  0  0
   11.1619  -18.2770   26.5624 C   0  0  0  0  0  0  0  0  0  0  0  0
   11.9094  -18.4721   27.8191 C   0  0  0  0  0  0  0  0  0  0  0  0
   13.1511  -18.4604   27.8507 O   0  0  0  0  0  0  0  0  0  0  0  0
   13.1196  -18.9540   25.2076 C   0  0  0  0  0  0  0  0  0  0  0  0
   14.4301  -18.7199   25.6015 O   0  0  0  0  0  0  0  0  0  0  0  0
   11.1911  -18.6727   28.9882 O   0  0  0  0  0  0  0  0  0  0  0  0
   12.8646  -20.0629   24.6729 O   0  0  0  0  0  0  0  0  0  0  0  0
  1  2  1  0
  2  3  1  0
  3  5  1  0
  3  4  1  6
  5  7  1  0
  5  6  1  1
  7  8  2  0
  9 10  1  0
 10 12  1  0
 10 11  2  0
 12 13  1  0
 14 13  1  6
 15 14  1  0
 15  7  1  0
 16 17  2  0
 16 14  1  0
 18 16  1  0
 19 18  1  0
 19 23  1  0
 19 20  1  1
 21 20  1  0
 22 21  2  0
 23 24  1  0
 25 21  1  0
 26 23  2  0
M  END
$$$$
