IQD.pdb
     RDKit          3D

 26 25  0  0  1  0  0  0  0  0999 V2000
    6.3934  -11.6600   27.8308 C   0  0  0  0  0  0  0  0  0  0  0  0
    5.8500  -12.6928   26.8834 C   0  0  0  0  0  0  0  0  0  0  0  0
    6.8814  -13.3135   26.0162 C   0  0  2  0  0  0  0  0  0  0  0  0
    7.6275  -12.1945   25.3181 C   0  0  0  0  0  0  0  0  0  0  0  0
    6.4407  -14.3717   25.0759 C   0  0  2  0  0  0  0  0  0  0  0  0
    5.8947  -15.4538   25.9390 N   0  0  0  0  0  0  0  0  0  0  0  0
    7.4663  -15.0093   24.2543 C   0  0  0  0  0  0  0  0  0  0  0  0
    8.1063  -16.0351   24.6703 O   0  0  0  0  0  0  0  0  0  0  0  0
    7.9136  -12.5987   18.5436 N   0  0  0  0  0  0  0  0  0  0  0  0
    7.6676  -13.9757   18.7622 C   0  0  0  0  0  0  0  0  0  0  0  0
    7.5495  -14.7270   17.7659 O   0  0  0  0  0  0  0  0  0  0  0  0
    7.5460  -14.5516   20.1475 C   0  0  0  0  0  0  0  0  0  0  0  0
    8.8901  -14.5608   20.8288 C   0  0  0  0  0  0  0  0  0  0  0  0
    8.8677  -15.2374   22.1899 C   0  0  2  0  0  0  0  0  0  0  0  0
    7.8269  -14.5654   22.9638 N   0  0  0  0  0  0  0  0  0  0  0  0
   10.1262  -15.2510   22.8912 C   0  0  0  0  0  0  0  0  0  0  0  0
   10.1920  -14.6553   24.0121 O   0  0  0  0  0  0  0  0  0  0  0  0
   11.3050  -15.8852   22.4210 N   0  0  0  0  0  0  0  0  0  0  0  0
   12.2109  -16.5658   23.3512 C   0  0  1  0  0  0  0  0  0  0  0  0
   11.5098  -17.5496   24.2282 C   0  0  0  0  0  0  0  0  0  0  0  0
   12.4198  -18.2836   25.1278 C   0  0  0  0  0  0  0  0  0  0  0  0
   13.4548  -18.8286   24.7097 O   0  0  0  0  0  0  0  0  0  0  0  0
   13.3190  -17.1898   22.5780 C   0  0  0  0  0  0  0  0  0  0  0  0
   13.0924  -18.0826   21.5393 O   0  0  0  0  0  0  0  0  0  0  0  0
   12.0964  -18.3578   26.4742 O   0  0  0  0  0  0  0  0  0  0  0  0
   14.5141  -16.9151   22.8554 O   0  0  0  0  0  0  0  0  0  0  0  0
  1  2  1  0
  2  3  1  0
  3  5  1  0
  3  4  1  6
  5  7  1  0
  5  6  1  1
  7  8  2  0
  9 10  1  0
 10 12  1  0
 10 11  2  0
 12 13  1  0
 14 13  1  6
 15 14  1  0
 15  7  1  0
 16 17  2  0
 16 14  1  0
 18 16  1  0
 19 18  1  0
 19 23  1  0
 19 20  1  6
 21 20  1  0
 22 21  2  0
 23 24  1  0
 25 21  1  0
 26 23  2  0
M  END
$$$$
