IQD.pdb
     RDKit          3D

 26 25  0  0  1  0  0  0  0  0999 V2000
    7.1264  -10.5706   26.6639 C   0  0  0  0  0  0  0  0  0  0  0  0
    7.6188  -11.9873   26.7643 C   0  0  0  0  0  0  0  0  0  0  0  0
    6.9757  -12.9157   25.8022 C   0  0  2  0  0  0  0  0  0  0  0  0
    5.4755  -12.7781   25.9652 C   0  0  0  0  0  0  0  0  0  0  0  0
    7.4182  -14.3307   25.8143 C   0  0  2  0  0  0  0  0  0  0  0  0
    8.8620  -14.2819   26.1706 N   0  0  0  0  0  0  0  0  0  0  0  0
    7.3531  -15.0651   24.5533 C   0  0  0  0  0  0  0  0  0  0  0  0
    6.2801  -15.6540   24.1835 O   0  0  0  0  0  0  0  0  0  0  0  0
    9.1960  -13.2285   19.1598 N   0  0  0  0  0  0  0  0  0  0  0  0
    8.2431  -12.8189   20.1237 C   0  0  0  0  0  0  0  0  0  0  0  0
    7.7285  -11.6819   20.0092 O   0  0  0  0  0  0  0  0  0  0  0  0
    7.8387  -13.7073   21.2694 C   0  0  0  0  0  0  0  0  0  0  0  0
    8.6949  -14.9471   21.2960 C   0  0  0  0  0  0  0  0  0  0  0  0
    8.3098  -15.9181   22.4004 C   0  0  2  0  0  0  0  0  0  0  0  0
    8.4361  -15.1813   23.6554 N   0  0  0  0  0  0  0  0  0  0  0  0
    9.0603  -17.1476   22.4283 C   0  0  0  0  0  0  0  0  0  0  0  0
    9.1837  -17.7970   21.3426 O   0  0  0  0  0  0  0  0  0  0  0  0
    9.6772  -17.6902   23.5850 N   0  0  0  0  0  0  0  0  0  0  0  0
   10.9777  -18.3608   23.4951 C   0  0  1  0  0  0  0  0  0  0  0  0
   11.9748  -17.5880   22.6969 C   0  0  0  0  0  0  0  0  0  0  0  0
   13.3175  -18.1989   22.6888 C   0  0  0  0  0  0  0  0  0  0  0  0
   13.4997  -19.3742   22.3301 O   0  0  0  0  0  0  0  0  0  0  0  0
   11.4649  -18.6580   24.8697 C   0  0  0  0  0  0  0  0  0  0  0  0
   12.6339  -19.3676   25.1088 O   0  0  0  0  0  0  0  0  0  0  0  0
   14.3950  -17.4265   23.0955 O   0  0  0  0  0  0  0  0  0  0  0  0
   10.8122  -18.2631   25.8690 O   0  0  0  0  0  0  0  0  0  0  0  0
  1  2  1  0
  2  3  1  0
  3  5  1  0
  3  4  1  1
  5  7  1  0
  5  6  1  6
  7  8  2  0
  9 10  1  0
 10 12  1  0
 10 11  2  0
 12 13  1  0
 14 13  1  6
 15 14  1  0
 15  7  1  0
 16 17  2  0
 16 14  1  0
 18 16  1  0
 19 18  1  0
 19 23  1  0
 19 20  1  1
 21 20  1  0
 22 21  2  0
 23 24  1  0
 25 21  1  0
 26 23  2  0
M  END
$$$$
