IQD.pdb
     RDKit          3D

 26 25  0  0  1  0  0  0  0  0999 V2000
    6.7120  -11.6504   27.8475 C   0  0  0  0  0  0  0  0  0  0  0  0
    6.0393  -12.5245   26.8262 C   0  0  0  0  0  0  0  0  0  0  0  0
    6.9839  -13.2902   25.9762 C   0  0  2  0  0  0  0  0  0  0  0  0
    7.9428  -12.2990   25.3485 C   0  0  0  0  0  0  0  0  0  0  0  0
    6.4072  -14.2263   24.9814 C   0  0  2  0  0  0  0  0  0  0  0  0
    5.6111  -15.1973   25.7796 N   0  0  0  0  0  0  0  0  0  0  0  0
    7.3401  -15.0357   24.2017 C   0  0  0  0  0  0  0  0  0  0  0  0
    7.6971  -16.1991   24.5942 O   0  0  0  0  0  0  0  0  0  0  0  0
    7.5965  -12.6494   18.5086 N   0  0  0  0  0  0  0  0  0  0  0  0
    7.8463  -14.0075   18.8212 C   0  0  0  0  0  0  0  0  0  0  0  0
    8.2522  -14.7655   17.9093 O   0  0  0  0  0  0  0  0  0  0  0  0
    7.6381  -14.5556   20.2075 C   0  0  0  0  0  0  0  0  0  0  0  0
    8.9653  -14.8585   20.8538 C   0  0  0  0  0  0  0  0  0  0  0  0
    8.8317  -15.4748   22.2371 C   0  0  2  0  0  0  0  0  0  0  0  0
    7.9090  -14.6192   22.9788 N   0  0  0  0  0  0  0  0  0  0  0  0
   10.0701  -15.6636   22.9489 C   0  0  0  0  0  0  0  0  0  0  0  0
   10.5658  -14.6657   23.5605 O   0  0  0  0  0  0  0  0  0  0  0  0
   10.7814  -16.8892   23.0194 N   0  0  0  0  0  0  0  0  0  0  0  0
   12.0755  -16.9655   23.7038 C   0  0  1  0  0  0  0  0  0  0  0  0
   12.3039  -18.2831   24.3674 C   0  0  0  0  0  0  0  0  0  0  0  0
   11.3243  -18.5807   25.4294 C   0  0  0  0  0  0  0  0  0  0  0  0
   11.0573  -17.7596   26.3225 O   0  0  0  0  0  0  0  0  0  0  0  0
   13.1549  -16.6271   22.7367 C   0  0  0  0  0  0  0  0  0  0  0  0
   14.4675  -16.4073   23.1318 O   0  0  0  0  0  0  0  0  0  0  0  0
   10.6930  -19.8153   25.4159 O   0  0  0  0  0  0  0  0  0  0  0  0
   12.8952  -16.5305   21.5103 O   0  0  0  0  0  0  0  0  0  0  0  0
  1  2  1  0
  2  3  1  0
  3  5  1  0
  3  4  1  6
  5  7  1  0
  5  6  1  1
  7  8  2  0
  9 10  1  0
 10 12  1  0
 10 11  2  0
 12 13  1  0
 14 13  1  6
 15 14  1  0
 15  7  1  0
 16 17  2  0
 16 14  1  0
 18 16  1  0
 19 18  1  0
 19 23  1  0
 19 20  1  6
 21 20  1  0
 22 21  2  0
 23 24  1  0
 25 21  1  0
 26 23  2  0
M  END
$$$$
