IQD.pdb
     RDKit          3D

 26 25  0  0  1  0  0  0  0  0999 V2000
    7.7265  -11.6087   27.8495 C   0  0  0  0  0  0  0  0  0  0  0  0
    6.7528  -12.3744   26.9979 C   0  0  0  0  0  0  0  0  0  0  0  0
    7.3921  -13.3694   26.1022 C   0  0  2  0  0  0  0  0  0  0  0  0
    8.5284  -12.6734   25.3807 C   0  0  0  0  0  0  0  0  0  0  0  0
    6.5131  -14.1241   25.1770 C   0  0  2  0  0  0  0  0  0  0  0  0
    5.5751  -14.8716   26.0575 N   0  0  0  0  0  0  0  0  0  0  0  0
    7.1406  -15.1349   24.3297 C   0  0  0  0  0  0  0  0  0  0  0  0
    7.2928  -16.3382   24.7347 O   0  0  0  0  0  0  0  0  0  0  0  0
    7.7347  -14.4544   17.9533 N   0  0  0  0  0  0  0  0  0  0  0  0
    7.7197  -13.6747   19.1350 C   0  0  0  0  0  0  0  0  0  0  0  0
    7.9797  -12.4518   19.0472 O   0  0  0  0  0  0  0  0  0  0  0  0
    7.4023  -14.2739   20.4788 C   0  0  0  0  0  0  0  0  0  0  0  0
    8.4045  -15.3454   20.8225 C   0  0  0  0  0  0  0  0  0  0  0  0
    8.1936  -15.9425   22.2045 C   0  0  2  0  0  0  0  0  0  0  0  0
    7.6155  -14.8812   23.0249 N   0  0  0  0  0  0  0  0  0  0  0  0
    9.3693  -16.5069   22.8170 C   0  0  0  0  0  0  0  0  0  0  0  0
    9.5549  -17.7599   22.7116 O   0  0  0  0  0  0  0  0  0  0  0  0
   10.3425  -15.7627   23.5326 N   0  0  0  0  0  0  0  0  0  0  0  0
   11.5303  -16.4202   24.0856 C   0  0  1  0  0  0  0  0  0  0  0  0
   12.7116  -15.5111   24.1667 C   0  0  0  0  0  0  0  0  0  0  0  0
   13.5597  -15.5451   22.9602 C   0  0  0  0  0  0  0  0  0  0  0  0
   13.2921  -16.2762   21.9923 O   0  0  0  0  0  0  0  0  0  0  0  0
   11.1843  -17.0137   25.4058 C   0  0  0  0  0  0  0  0  0  0  0  0
   11.9964  -17.9435   26.0407 O   0  0  0  0  0  0  0  0  0  0  0  0
   14.6828  -14.7326   22.9216 O   0  0  0  0  0  0  0  0  0  0  0  0
   10.1226  -16.6776   25.9894 O   0  0  0  0  0  0  0  0  0  0  0  0
  1  2  1  0
  2  3  1  0
  3  5  1  0
  3  4  1  6
  5  7  1  0
  5  6  1  1
  7  8  2  0
  9 10  1  0
 10 12  1  0
 10 11  2  0
 12 13  1  0
 14 13  1  6
 15 14  1  0
 15  7  1  0
 16 17  2  0
 16 14  1  0
 18 16  1  0
 19 18  1  0
 19 23  1  0
 19 20  1  1
 21 20  1  0
 22 21  2  0
 23 24  1  0
 25 21  1  0
 26 23  2  0
M  END
$$$$
