IQD.pdb
     RDKit          3D

 26 25  0  0  1  0  0  0  0  0999 V2000
    6.8650  -11.3321   28.0762 C   0  0  0  0  0  0  0  0  0  0  0  0
    6.0256  -12.1889   27.1702 C   0  0  0  0  0  0  0  0  0  0  0  0
    6.8137  -12.9881   26.2001 C   0  0  2  0  0  0  0  0  0  0  0  0
    7.7545  -12.0412   25.4829 C   0  0  0  0  0  0  0  0  0  0  0  0
    6.0664  -13.8602   25.2625 C   0  0  2  0  0  0  0  0  0  0  0  0
    5.4310  -14.8965   26.1206 N   0  0  0  0  0  0  0  0  0  0  0  0
    6.8424  -14.5992   24.2698 C   0  0  0  0  0  0  0  0  0  0  0  0
    7.3134  -15.7599   24.5263 O   0  0  0  0  0  0  0  0  0  0  0  0
    8.6233  -12.7825   18.1539 N   0  0  0  0  0  0  0  0  0  0  0  0
    8.1969  -14.1297   18.2416 C   0  0  0  0  0  0  0  0  0  0  0  0
    7.6889  -14.6628   17.2274 O   0  0  0  0  0  0  0  0  0  0  0  0
    8.3380  -14.9274   19.5103 C   0  0  0  0  0  0  0  0  0  0  0  0
    7.7083  -14.1895   20.6635 C   0  0  0  0  0  0  0  0  0  0  0  0
    7.7956  -14.9466   21.9789 C   0  0  2  0  0  0  0  0  0  0  0  0
    7.1276  -14.1134   22.9755 N   0  0  0  0  0  0  0  0  0  0  0  0
    9.1272  -15.3073   22.3942 C   0  0  0  0  0  0  0  0  0  0  0  0
    9.8098  -14.4433   23.0289 O   0  0  0  0  0  0  0  0  0  0  0  0
    9.7367  -16.5644   22.1467 N   0  0  0  0  0  0  0  0  0  0  0  0
   11.0565  -16.8789   22.7020 C   0  0  1  0  0  0  0  0  0  0  0  0
   11.1034  -18.2159   23.3644 C   0  0  0  0  0  0  0  0  0  0  0  0
   11.8414  -18.2101   24.6417 C   0  0  0  0  0  0  0  0  0  0  0  0
   12.4488  -17.2033   25.0422 O   0  0  0  0  0  0  0  0  0  0  0  0
   12.0776  -16.7463   21.6274 C   0  0  0  0  0  0  0  0  0  0  0  0
   13.3333  -16.2002   21.8560 O   0  0  0  0  0  0  0  0  0  0  0  0
   11.8471  -19.3684   25.4042 O   0  0  0  0  0  0  0  0  0  0  0  0
   11.8189  -17.1356   20.4603 O   0  0  0  0  0  0  0  0  0  0  0  0
  1  2  1  0
  2  3  1  0
  3  5  1  0
  3  4  1  6
  5  7  1  0
  5  6  1  1
  7  8  2  0
  9 10  1  0
 10 12  1  0
 10 11  2  0
 12 13  1  0
 14 13  1  6
 15 14  1  0
 15  7  1  0
 16 17  2  0
 16 14  1  0
 18 16  1  0
 19 18  1  0
 19 23  1  0
 19 20  1  6
 21 20  1  0
 22 21  2  0
 23 24  1  0
 25 21  1  0
 26 23  2  0
M  END
$$$$
