IQD.pdb
     RDKit          3D

 26 25  0  0  1  0  0  0  0  0999 V2000
    6.9832  -11.4941   27.1390 C   0  0  0  0  0  0  0  0  0  0  0  0
    6.2124  -12.5714   26.4285 C   0  0  0  0  0  0  0  0  0  0  0  0
    7.0691  -13.5621   25.7317 C   0  0  2  0  0  0  0  0  0  0  0  0
    8.0489  -12.7940   24.8679 C   0  0  0  0  0  0  0  0  0  0  0  0
    6.3921  -14.6509   24.9871 C   0  0  2  0  0  0  0  0  0  0  0  0
    5.2904  -15.1032   25.8791 N   0  0  0  0  0  0  0  0  0  0  0  0
    7.1729  -15.8501   24.6941 C   0  0  0  0  0  0  0  0  0  0  0  0
    6.6531  -17.0157   24.7735 O   0  0  0  0  0  0  0  0  0  0  0  0
    6.3980  -17.2671   19.7308 N   0  0  0  0  0  0  0  0  0  0  0  0
    7.7338  -17.3314   20.1956 C   0  0  0  0  0  0  0  0  0  0  0  0
    8.2735  -18.4569   20.3084 O   0  0  0  0  0  0  0  0  0  0  0  0
    8.5117  -16.0934   20.5532 C   0  0  0  0  0  0  0  0  0  0  0  0
    8.1713  -15.6491   21.9523 C   0  0  0  0  0  0  0  0  0  0  0  0
    8.9626  -16.3823   23.0234 C   0  0  2  0  0  0  0  0  0  0  0  0
    8.5292  -15.8283   24.3036 N   0  0  0  0  0  0  0  0  0  0  0  0
   10.3949  -16.3257   22.8776 C   0  0  0  0  0  0  0  0  0  0  0  0
   10.9200  -15.2113   22.5646 O   0  0  0  0  0  0  0  0  0  0  0  0
   11.2686  -17.4286   23.0599 N   0  0  0  0  0  0  0  0  0  0  0  0
   12.3115  -17.3953   24.0896 C   0  0  1  0  0  0  0  0  0  0  0  0
   13.0696  -16.1094   24.1059 C   0  0  0  0  0  0  0  0  0  0  0  0
   14.3353  -16.1670   23.3504 C   0  0  0  0  0  0  0  0  0  0  0  0
   14.8512  -17.2472   23.0189 O   0  0  0  0  0  0  0  0  0  0  0  0
   11.6979  -17.7045   25.4098 C   0  0  0  0  0  0  0  0  0  0  0  0
   10.9451  -16.7770   26.1171 O   0  0  0  0  0  0  0  0  0  0  0  0
   14.9531  -14.9735   23.0087 O   0  0  0  0  0  0  0  0  0  0  0  0
   11.8518  -18.8405   25.9260 O   0  0  0  0  0  0  0  0  0  0  0  0
  1  2  1  0
  2  3  1  0
  3  5  1  0
  3  4  1  6
  5  7  1  0
  5  6  1  1
  7  8  2  0
  9 10  1  0
 10 12  1  0
 10 11  2  0
 12 13  1  0
 14 13  1  6
 15 14  1  0
 15  7  1  0
 16 17  2  0
 16 14  1  0
 18 16  1  0
 19 18  1  0
 19 23  1  0
 19 20  1  1
 21 20  1  0
 22 21  2  0
 23 24  1  0
 25 21  1  0
 26 23  2  0
M  END
$$$$
