IQD.pdb
     RDKit          3D

 26 25  0  0  1  0  0  0  0  0999 V2000
    6.8477  -10.6538   26.8888 C   0  0  0  0  0  0  0  0  0  0  0  0
    7.2307  -12.1029   27.0026 C   0  0  0  0  0  0  0  0  0  0  0  0
    7.0213  -12.8787   25.7555 C   0  0  2  0  0  0  0  0  0  0  0  0
    5.5738  -12.7024   25.3435 C   0  0  0  0  0  0  0  0  0  0  0  0
    7.4402  -14.3010   25.7540 C   0  0  2  0  0  0  0  0  0  0  0  0
    8.7857  -14.3090   26.3893 N   0  0  0  0  0  0  0  0  0  0  0  0
    7.6189  -14.9467   24.4561 C   0  0  0  0  0  0  0  0  0  0  0  0
    6.8845  -15.9305   24.0982 O   0  0  0  0  0  0  0  0  0  0  0  0
    8.5144  -12.4687   19.0416 N   0  0  0  0  0  0  0  0  0  0  0  0
    7.3242  -12.8267   19.7198 C   0  0  0  0  0  0  0  0  0  0  0  0
    6.2528  -12.2730   19.3789 O   0  0  0  0  0  0  0  0  0  0  0  0
    7.3163  -13.8451   20.8281 C   0  0  0  0  0  0  0  0  0  0  0  0
    8.7225  -14.2869   21.1412 C   0  0  0  0  0  0  0  0  0  0  0  0
    8.7949  -15.3002   22.2722 C   0  0  2  0  0  0  0  0  0  0  0  0
    8.5861  -14.5497   23.5078 N   0  0  0  0  0  0  0  0  0  0  0  0
   10.0048  -16.0809   22.3225 C   0  0  0  0  0  0  0  0  0  0  0  0
   10.2994  -16.7922   21.3112 O   0  0  0  0  0  0  0  0  0  0  0  0
   10.8984  -16.1137   23.4241 N   0  0  0  0  0  0  0  0  0  0  0  0
   12.1106  -16.9370   23.3804 C   0  0  1  0  0  0  0  0  0  0  0  0
   13.3616  -16.1246   23.3194 C   0  0  0  0  0  0  0  0  0  0  0  0
   14.5900  -16.9414   23.3196 C   0  0  0  0  0  0  0  0  0  0  0  0
   14.5978  -18.1119   22.9038 O   0  0  0  0  0  0  0  0  0  0  0  0
   12.1021  -17.8724   24.5380 C   0  0  0  0  0  0  0  0  0  0  0  0
   11.6072  -17.5117   25.7838 O   0  0  0  0  0  0  0  0  0  0  0  0
   15.7593  -16.3719   23.8006 O   0  0  0  0  0  0  0  0  0  0  0  0
   12.5542  -19.0385   24.4096 O   0  0  0  0  0  0  0  0  0  0  0  0
  1  2  1  0
  2  3  1  0
  3  5  1  0
  3  4  1  1
  5  7  1  0
  5  6  1  6
  7  8  2  0
  9 10  1  0
 10 12  1  0
 10 11  2  0
 12 13  1  0
 14 13  1  6
 15 14  1  0
 15  7  1  0
 16 17  2  0
 16 14  1  0
 18 16  1  0
 19 18  1  0
 19 23  1  0
 19 20  1  1
 21 20  1  0
 22 21  2  0
 23 24  1  0
 25 21  1  0
 26 23  2  0
M  END
$$$$
