IQD.pdb
     RDKit          3D

 26 25  0  0  1  0  0  0  0  0999 V2000
    6.6949  -12.1542   27.2823 C   0  0  0  0  0  0  0  0  0  0  0  0
    6.1716  -13.2023   26.3403 C   0  0  0  0  0  0  0  0  0  0  0  0
    7.2316  -14.0342   25.7195 C   0  0  2  0  0  0  0  0  0  0  0  0
    8.2263  -13.0967   25.0657 C   0  0  0  0  0  0  0  0  0  0  0  0
    6.8034  -15.1261   24.8124 C   0  0  2  0  0  0  0  0  0  0  0  0
    5.9766  -16.0296   25.6574 N   0  0  0  0  0  0  0  0  0  0  0  0
    7.8476  -15.9736   24.2425 C   0  0  0  0  0  0  0  0  0  0  0  0
    8.1514  -17.0976   24.7710 O   0  0  0  0  0  0  0  0  0  0  0  0
    7.9574  -17.6163   19.0800 N   0  0  0  0  0  0  0  0  0  0  0  0
    9.3584  -17.8199   19.0951 C   0  0  0  0  0  0  0  0  0  0  0  0
    9.8506  -18.6469   18.2923 O   0  0  0  0  0  0  0  0  0  0  0  0
   10.2600  -17.0746   20.0424 C   0  0  0  0  0  0  0  0  0  0  0  0
    9.4488  -16.1631   20.9267 C   0  0  0  0  0  0  0  0  0  0  0  0
    9.3710  -16.6398   22.3682 C   0  0  2  0  0  0  0  0  0  0  0  0
    8.5880  -15.6387   23.0883 N   0  0  0  0  0  0  0  0  0  0  0  0
   10.6402  -16.8812   23.0059 C   0  0  0  0  0  0  0  0  0  0  0  0
   11.3717  -17.8138   22.5468 O   0  0  0  0  0  0  0  0  0  0  0  0
   11.1381  -16.1495   24.1148 N   0  0  0  0  0  0  0  0  0  0  0  0
   12.3577  -16.5767   24.8069 C   0  0  1  0  0  0  0  0  0  0  0  0
   12.2694  -17.9722   25.3298 C   0  0  0  0  0  0  0  0  0  0  0  0
   12.2095  -18.0424   26.8020 C   0  0  0  0  0  0  0  0  0  0  0  0
   12.2822  -17.0240   27.5095 O   0  0  0  0  0  0  0  0  0  0  0  0
   13.5211  -16.3880   23.8981 C   0  0  0  0  0  0  0  0  0  0  0  0
   13.3748  -16.0264   22.5657 O   0  0  0  0  0  0  0  0  0  0  0  0
   12.0681  -19.2872   27.3967 O   0  0  0  0  0  0  0  0  0  0  0  0
   14.6906  -16.5563   24.3277 O   0  0  0  0  0  0  0  0  0  0  0  0
  1  2  1  0
  2  3  1  0
  3  5  1  0
  3  4  1  6
  5  7  1  0
  5  6  1  1
  7  8  2  0
  9 10  1  0
 10 12  1  0
 10 11  2  0
 12 13  1  0
 14 13  1  6
 15 14  1  0
 15  7  1  0
 16 17  2  0
 16 14  1  0
 18 16  1  0
 19 18  1  0
 19 23  1  0
 19 20  1  6
 21 20  1  0
 22 21  2  0
 23 24  1  0
 25 21  1  0
 26 23  2  0
M  END
$$$$
