IQD.pdb
     RDKit          3D

 26 25  0  0  1  0  0  0  0  0999 V2000
    6.5757  -11.4990   27.2195 C   0  0  0  0  0  0  0  0  0  0  0  0
    5.9900  -12.6230   26.4112 C   0  0  0  0  0  0  0  0  0  0  0  0
    7.0045  -13.5354   25.8288 C   0  0  2  0  0  0  0  0  0  0  0  0
    7.9884  -12.6882   25.0476 C   0  0  0  0  0  0  0  0  0  0  0  0
    6.5148  -14.6971   25.0485 C   0  0  2  0  0  0  0  0  0  0  0  0
    5.7103  -15.4981   26.0103 N   0  0  0  0  0  0  0  0  0  0  0  0
    7.5157  -15.6184   24.5165 C   0  0  0  0  0  0  0  0  0  0  0  0
    7.9752  -16.5792   25.2240 O   0  0  0  0  0  0  0  0  0  0  0  0
    8.3842  -17.8857   18.2150 N   0  0  0  0  0  0  0  0  0  0  0  0
    9.4724  -17.3455   18.9421 C   0  0  0  0  0  0  0  0  0  0  0  0
   10.3462  -16.6996   18.3176 O   0  0  0  0  0  0  0  0  0  0  0  0
    9.6025  -17.5271   20.4306 C   0  0  0  0  0  0  0  0  0  0  0  0
    8.8460  -16.4447   21.1566 C   0  0  0  0  0  0  0  0  0  0  0  0
    8.9078  -16.5816   22.6693 C   0  0  2  0  0  0  0  0  0  0  0  0
    8.0445  -15.5348   23.2104 N   0  0  0  0  0  0  0  0  0  0  0  0
   10.2302  -16.5268   23.2387 C   0  0  0  0  0  0  0  0  0  0  0  0
   10.7532  -15.3836   23.4259 O   0  0  0  0  0  0  0  0  0  0  0  0
   10.9964  -17.6618   23.6098 N   0  0  0  0  0  0  0  0  0  0  0  0
   12.3037  -17.5044   24.2542 C   0  0  1  0  0  0  0  0  0  0  0  0
   12.6422  -18.6387   25.1639 C   0  0  0  0  0  0  0  0  0  0  0  0
   11.8951  -18.6115   26.4356 C   0  0  0  0  0  0  0  0  0  0  0  0
   11.1800  -17.6470   26.7541 O   0  0  0  0  0  0  0  0  0  0  0  0
   13.3383  -17.2955   23.2049 C   0  0  0  0  0  0  0  0  0  0  0  0
   13.0570  -17.4009   21.8496 O   0  0  0  0  0  0  0  0  0  0  0  0
   12.0051  -19.7002   27.2873 O   0  0  0  0  0  0  0  0  0  0  0  0
   14.5189  -17.0121   23.5312 O   0  0  0  0  0  0  0  0  0  0  0  0
  1  2  1  0
  2  3  1  0
  3  5  1  0
  3  4  1  6
  5  7  1  0
  5  6  1  1
  7  8  2  0
  9 10  1  0
 10 12  1  0
 10 11  2  0
 12 13  1  0
 14 13  1  6
 15 14  1  0
 15  7  1  0
 16 17  2  0
 16 14  1  0
 18 16  1  0
 19 18  1  0
 19 23  1  0
 19 20  1  6
 21 20  1  0
 22 21  2  0
 23 24  1  0
 25 21  1  0
 26 23  2  0
M  END
$$$$
