IQD.pdb
     RDKit          3D

 26 25  0  0  1  0  0  0  0  0999 V2000
    8.1101  -12.5341   28.2213 C   0  0  0  0  0  0  0  0  0  0  0  0
    7.0651  -13.3126   27.4720 C   0  0  0  0  0  0  0  0  0  0  0  0
    7.5764  -13.9826   26.2511 C   0  0  2  0  0  0  0  0  0  0  0  0
    8.3157  -12.9431   25.4331 C   0  0  0  0  0  0  0  0  0  0  0  0
    6.6091  -14.7583   25.4382 C   0  0  2  0  0  0  0  0  0  0  0  0
    6.0825  -15.8040   26.3564 N   0  0  0  0  0  0  0  0  0  0  0  0
    7.1322  -15.4826   24.2826 C   0  0  0  0  0  0  0  0  0  0  0  0
    7.3242  -16.7461   24.3233 O   0  0  0  0  0  0  0  0  0  0  0  0
    8.2020  -17.9840   19.0996 N   0  0  0  0  0  0  0  0  0  0  0  0
    7.4339  -16.7971   19.1761 C   0  0  0  0  0  0  0  0  0  0  0  0
    6.1889  -16.8827   19.0600 O   0  0  0  0  0  0  0  0  0  0  0  0
    8.0708  -15.4504   19.3913 C   0  0  0  0  0  0  0  0  0  0  0  0
    7.5678  -14.8335   20.6708 C   0  0  0  0  0  0  0  0  0  0  0  0
    7.9032  -15.6554   21.9050 C   0  0  2  0  0  0  0  0  0  0  0  0
    7.4571  -14.8701   23.0531 N   0  0  0  0  0  0  0  0  0  0  0  0
    9.2856  -16.0415   22.0301 C   0  0  0  0  0  0  0  0  0  0  0  0
    9.7781  -16.7978   21.1352 O   0  0  0  0  0  0  0  0  0  0  0  0
   10.1441  -15.6363   23.0846 N   0  0  0  0  0  0  0  0  0  0  0  0
   11.4938  -16.1952   23.2078 C   0  0  1  0  0  0  0  0  0  0  0  0
   12.5586  -15.1490   23.1892 C   0  0  0  0  0  0  0  0  0  0  0  0
   13.9247  -15.7041   23.2314 C   0  0  0  0  0  0  0  0  0  0  0  0
   14.2475  -16.5875   24.0428 O   0  0  0  0  0  0  0  0  0  0  0  0
   11.5571  -17.0420   24.4300 C   0  0  0  0  0  0  0  0  0  0  0  0
   12.0340  -18.3456   24.4095 O   0  0  0  0  0  0  0  0  0  0  0  0
   14.8621  -15.2155   22.3339 O   0  0  0  0  0  0  0  0  0  0  0  0
   11.1705  -16.5838   25.5352 O   0  0  0  0  0  0  0  0  0  0  0  0
  1  2  1  0
  2  3  1  0
  3  5  1  0
  3  4  1  6
  5  7  1  0
  5  6  1  1
  7  8  2  0
  9 10  1  0
 10 12  1  0
 10 11  2  0
 12 13  1  0
 14 13  1  6
 15 14  1  0
 15  7  1  0
 16 17  2  0
 16 14  1  0
 18 16  1  0
 19 18  1  0
 19 23  1  0
 19 20  1  1
 21 20  1  0
 22 21  2  0
 23 24  1  0
 25 21  1  0
 26 23  2  0
M  END
$$$$
