IQD.pdb
     RDKit          3D

 26 25  0  0  1  0  0  0  0  0999 V2000
    7.3868  -11.8437   19.2094 C   0  0  0  0  0  0  0  0  0  0  0  0
    7.7684  -13.1605   18.5930 C   0  0  0  0  0  0  0  0  0  0  0  0
    8.4826  -14.0725   19.5199 C   0  0  2  0  0  0  0  0  0  0  0  0
    9.6525  -13.3075   20.1050 C   0  0  0  0  0  0  0  0  0  0  0  0
    8.8801  -15.4036   19.0017 C   0  0  2  0  0  0  0  0  0  0  0  0
    7.6483  -15.9607   18.3802 N   0  0  0  0  0  0  0  0  0  0  0  0
    9.3099  -16.4025   19.9769 C   0  0  0  0  0  0  0  0  0  0  0  0
    8.4657  -17.1629   20.5635 O   0  0  0  0  0  0  0  0  0  0  0  0
   10.5172  -21.4175   19.1922 N   0  0  0  0  0  0  0  0  0  0  0  0
   10.5089  -20.2330   18.4166 C   0  0  0  0  0  0  0  0  0  0  0  0
   10.4761  -20.3367   17.1681 O   0  0  0  0  0  0  0  0  0  0  0  0
   10.5382  -18.8678   19.0499 C   0  0  0  0  0  0  0  0  0  0  0  0
   10.6094  -18.9897   20.5501 C   0  0  0  0  0  0  0  0  0  0  0  0
   11.0415  -17.7037   21.2363 C   0  0  2  0  0  0  0  0  0  0  0  0
   10.6567  -16.6141   20.3428 N   0  0  0  0  0  0  0  0  0  0  0  0
   12.4365  -17.6336   21.5899 C   0  0  0  0  0  0  0  0  0  0  0  0
   13.2953  -17.7633   20.6619 O   0  0  0  0  0  0  0  0  0  0  0  0
   12.9259  -17.4277   22.9056 N   0  0  0  0  0  0  0  0  0  0  0  0
   14.2834  -16.9213   23.1287 C   0  0  1  0  0  0  0  0  0  0  0  0
   14.5330  -15.6138   22.4529 C   0  0  0  0  0  0  0  0  0  0  0  0
   15.8137  -15.5681   21.7223 C   0  0  0  0  0  0  0  0  0  0  0  0
   16.5869  -16.5399   21.6954 O   0  0  0  0  0  0  0  0  0  0  0  0
   14.5412  -16.8569   24.5931 C   0  0  0  0  0  0  0  0  0  0  0  0
   15.7179  -17.3227   25.1637 O   0  0  0  0  0  0  0  0  0  0  0  0
   16.1486  -14.4009   21.0526 O   0  0  0  0  0  0  0  0  0  0  0  0
   13.6775  -16.3672   25.3644 O   0  0  0  0  0  0  0  0  0  0  0  0
  1  2  1  0
  2  3  1  0
  3  5  1  0
  3  4  1  6
  5  7  1  0
  5  6  1  1
  7  8  2  0
  9 10  1  0
 10 12  1  0
 10 11  2  0
 12 13  1  0
 14 13  1  6
 15 14  1  0
 15  7  1  0
 16 17  2  0
 16 14  1  0
 18 16  1  0
 19 18  1  0
 19 23  1  0
 19 20  1  1
 21 20  1  0
 22 21  2  0
 23 24  1  0
 25 21  1  0
 26 23  2  0
M  END
$$$$
