MVR.pdb
     RDKit          3D

 27 26  0  0  1  0  0  0  0  0999 V2000
   18.6685  -27.0323  -11.9879 C   0  0  0  0  0  0  0  0  0  0  0  0
   18.7721  -28.0281  -10.4787 S   0  0  0  0  0  0  0  0  0  0  0  0
   18.6566  -26.9502   -8.9913 C   0  0  0  0  0  0  0  0  0  0  0  0
   18.5178  -25.5580   -9.5020 C   0  0  0  0  0  0  0  0  0  0  0  0
   18.4839  -24.4825   -8.4429 C   0  0  2  0  0  0  0  0  0  0  0  0
   17.1150  -24.5915   -7.8690 N   0  0  0  0  0  0  0  0  0  0  0  0
   18.6294  -23.1355   -9.0100 C   0  0  0  0  0  0  0  0  0  0  0  0
   17.6251  -22.4400   -9.3867 O   0  0  0  0  0  0  0  0  0  0  0  0
   22.3182  -21.3483   -8.9352 C   0  0  0  0  0  0  0  0  0  0  0  0
   21.1230  -20.4586   -9.0722 C   0  0  1  0  0  0  0  0  0  0  0  0
   21.5203  -19.2087   -9.7988 C   0  0  0  0  0  0  0  0  0  0  0  0
   20.0292  -21.2237   -9.8028 C   0  0  2  0  0  0  0  0  0  0  0  0
   19.8915  -22.5495   -9.1592 N   0  0  0  0  0  0  0  0  0  0  0  0
   20.3509  -21.4215  -11.2435 C   0  0  0  0  0  0  0  0  0  0  0  0
   21.1167  -22.3973  -11.5289 O   0  0  0  0  0  0  0  0  0  0  0  0
   16.7109  -17.0994  -15.7311 N   0  0  0  0  0  0  0  0  0  0  0  0
   16.3892  -18.2549  -16.4902 C   0  0  0  0  0  0  0  0  0  0  0  0
   15.2321  -18.4495  -17.0467 N   0  0  0  0  0  0  0  0  0  0  0  0
   17.3713  -19.2630  -16.6604 N   0  0  0  0  0  0  0  0  0  0  0  0
   18.7687  -18.9895  -16.8468 C   0  0  0  0  0  0  0  0  0  0  0  0
   19.5763  -20.0049  -16.0456 C   0  0  0  0  0  0  0  0  0  0  0  0
   19.3681  -19.8732  -14.5680 C   0  0  0  0  0  0  0  0  0  0  0  0
   20.1751  -20.7633  -13.7050 C   0  0  2  0  0  0  0  0  0  0  0  0
   19.8726  -20.6192  -12.2946 N   0  0  0  0  0  0  0  0  0  0  0  0
   21.6327  -20.7945  -13.9931 C   0  0  0  0  0  0  0  0  0  0  0  0
   22.1984  -21.6006  -14.9846 O   0  0  0  0  0  0  0  0  0  0  0  0
   22.4563  -20.0918  -13.3571 O   0  0  0  0  0  0  0  0  0  0  0  0
  2  1  1  0
  3  2  1  0
  4  5  1  0
  4  3  1  0
  5  6  1  6
  7 13  1  0
  7  5  1  0
  8  7  2  0
 10  9  1  6
 10 12  1  0
 11 10  1  0
 12 13  1  1
 14 15  2  0
 14 12  1  0
 16 17  1  0
 17 19  1  0
 18 17  2  0
 19 20  1  0
 20 21  1  0
 21 22  1  0
 23 22  1  6
 23 24  1  0
 24 14  1  0
 25 23  1  0
 26 25  1  0
 27 25  2  0
M  END
$$$$
