MVR.pdb
     RDKit          3D

 27 26  0  0  1  0  0  0  0  0999 V2000
   27.6146  -19.3570   -7.4965 C   0  0  0  0  0  0  0  0  0  0  0  0
   28.4688  -20.9154   -7.8456 S   0  0  0  0  0  0  0  0  0  0  0  0
   28.2972  -21.3549   -9.6246 C   0  0  0  0  0  0  0  0  0  0  0  0
   26.8990  -21.0064  -10.0015 C   0  0  0  0  0  0  0  0  0  0  0  0
   26.4046  -21.6230  -11.2880 C   0  0  2  0  0  0  0  0  0  0  0  0
   27.5094  -21.3677  -12.2521 N   0  0  0  0  0  0  0  0  0  0  0  0
   25.1982  -20.9587  -11.7981 C   0  0  0  0  0  0  0  0  0  0  0  0
   24.2086  -20.6649  -11.0440 O   0  0  0  0  0  0  0  0  0  0  0  0
   25.2058  -18.1627  -14.5264 C   0  0  0  0  0  0  0  0  0  0  0  0
   24.1852  -19.1909  -14.9008 C   0  0  1  0  0  0  0  0  0  0  0  0
   24.7315  -20.0483  -16.0028 C   0  0  0  0  0  0  0  0  0  0  0  0
   23.8362  -20.0025  -13.6618 C   0  0  2  0  0  0  0  0  0  0  0  0
   25.0836  -20.6124  -13.1492 N   0  0  0  0  0  0  0  0  0  0  0  0
   22.8597  -21.0869  -13.9596 C   0  0  0  0  0  0  0  0  0  0  0  0
   23.3071  -22.2785  -13.9437 O   0  0  0  0  0  0  0  0  0  0  0  0
   17.3121  -24.5880   -9.9702 N   0  0  0  0  0  0  0  0  0  0  0  0
   18.4526  -24.2732   -9.1861 C   0  0  0  0  0  0  0  0  0  0  0  0
   18.9959  -25.0995   -8.3442 N   0  0  0  0  0  0  0  0  0  0  0  0
   19.0446  -22.9914   -9.3144 N   0  0  0  0  0  0  0  0  0  0  0  0
   18.7900  -22.1036  -10.4140 C   0  0  0  0  0  0  0  0  0  0  0  0
   19.3560  -22.7261  -11.6857 C   0  0  0  0  0  0  0  0  0  0  0  0
   20.4610  -21.9121  -12.2859 C   0  0  0  0  0  0  0  0  0  0  0  0
   20.3803  -21.6596  -13.7414 C   0  0  2  0  0  0  0  0  0  0  0  0
   21.4981  -20.8894  -14.2500 N   0  0  0  0  0  0  0  0  0  0  0  0
   19.0640  -21.1863  -14.2428 C   0  0  0  0  0  0  0  0  0  0  0  0
   18.0413  -22.0520  -14.6398 O   0  0  0  0  0  0  0  0  0  0  0  0
   18.7847  -19.9662  -14.3428 O   0  0  0  0  0  0  0  0  0  0  0  0
  2  1  1  0
  3  2  1  0
  4  5  1  0
  4  3  1  0
  5  6  1  6
  7 13  1  0
  7  5  1  0
  8  7  2  0
 10  9  1  1
 10 12  1  0
 11 10  1  0
 12 13  1  6
 14 15  2  0
 14 12  1  0
 16 17  1  0
 17 19  1  0
 18 17  2  0
 19 20  1  0
 20 21  1  0
 21 22  1  0
 23 22  1  1
 23 24  1  0
 24 14  1  0
 25 23  1  0
 26 25  1  0
 27 25  2  0
M  END
$$$$
