MVR.pdb
     RDKit          3D

 27 26  0  0  1  0  0  0  0  0999 V2000
   24.1358  -21.1834   -7.5617 C   0  0  0  0  0  0  0  0  0  0  0  0
   25.9436  -21.2579   -7.4802 S   0  0  0  0  0  0  0  0  0  0  0  0
   26.6522  -21.4715   -9.1653 C   0  0  0  0  0  0  0  0  0  0  0  0
   25.5393  -21.1993  -10.1171 C   0  0  0  0  0  0  0  0  0  0  0  0
   25.8798  -21.3800  -11.5769 C   0  0  2  0  0  0  0  0  0  0  0  0
   27.0608  -20.4969  -11.7785 N   0  0  0  0  0  0  0  0  0  0  0  0
   24.8076  -20.9088  -12.4630 C   0  0  0  0  0  0  0  0  0  0  0  0
   24.4393  -19.6851  -12.5001 O   0  0  0  0  0  0  0  0  0  0  0  0
   22.3891  -21.1912  -16.5709 C   0  0  0  0  0  0  0  0  0  0  0  0
   23.4963  -21.5996  -15.6510 C   0  0  1  0  0  0  0  0  0  0  0  0
   24.7494  -20.8717  -16.0355 C   0  0  0  0  0  0  0  0  0  0  0  0
   23.0746  -21.2993  -14.2201 C   0  0  2  0  0  0  0  0  0  0  0  0
   24.1389  -21.7928  -13.3174 N   0  0  0  0  0  0  0  0  0  0  0  0
   21.7935  -21.9691  -13.8616 C   0  0  0  0  0  0  0  0  0  0  0  0
   21.8741  -23.1676  -13.4404 O   0  0  0  0  0  0  0  0  0  0  0  0
   19.0618  -23.7213   -6.9329 N   0  0  0  0  0  0  0  0  0  0  0  0
   19.0884  -24.5750   -8.0667 C   0  0  0  0  0  0  0  0  0  0  0  0
   19.3278  -25.8497   -8.0005 N   0  0  0  0  0  0  0  0  0  0  0  0
   18.8435  -24.0243   -9.3498 N   0  0  0  0  0  0  0  0  0  0  0  0
   18.5515  -22.6369   -9.5780 C   0  0  0  0  0  0  0  0  0  0  0  0
   18.2686  -22.4350  -11.0627 C   0  0  0  0  0  0  0  0  0  0  0  0
   19.4806  -22.0007  -11.8286 C   0  0  0  0  0  0  0  0  0  0  0  0
   19.3099  -21.8157  -13.2863 C   0  0  2  0  0  0  0  0  0  0  0  0
   20.5209  -21.3778  -13.9520 N   0  0  0  0  0  0  0  0  0  0  0  0
   18.1026  -21.0566  -13.7040 C   0  0  0  0  0  0  0  0  0  0  0  0
   16.8688  -21.6623  -13.9569 O   0  0  0  0  0  0  0  0  0  0  0  0
   18.1149  -19.8105  -13.8580 O   0  0  0  0  0  0  0  0  0  0  0  0
  2  1  1  0
  3  2  1  0
  4  5  1  0
  4  3  1  0
  5  6  1  6
  7 13  1  0
  7  5  1  0
  8  7  2  0
 10  9  1  6
 10 12  1  0
 11 10  1  0
 12 13  1  1
 14 15  2  0
 14 12  1  0
 16 17  1  0
 17 19  1  0
 18 17  2  0
 19 20  1  0
 20 21  1  0
 21 22  1  0
 23 22  1  1
 23 24  1  0
 24 14  1  0
 25 23  1  0
 26 25  1  0
 27 25  2  0
M  END
$$$$
