MVR.pdb
     RDKit          3D

 27 26  0  0  1  0  0  0  0  0999 V2000
   27.5263  -18.7422   -7.2592 C   0  0  0  0  0  0  0  0  0  0  0  0
   26.3684  -20.0578   -6.8026 S   0  0  0  0  0  0  0  0  0  0  0  0
   25.8996  -21.0413   -8.2859 C   0  0  0  0  0  0  0  0  0  0  0  0
   26.4215  -20.2885   -9.4604 C   0  0  0  0  0  0  0  0  0  0  0  0
   25.5251  -20.2857  -10.6754 C   0  0  2  0  0  0  0  0  0  0  0  0
   25.3652  -21.7289  -11.0025 N   0  0  0  0  0  0  0  0  0  0  0  0
   26.1511  -19.6282  -11.8298 C   0  0  0  0  0  0  0  0  0  0  0  0
   26.4400  -18.3829  -11.8338 O   0  0  0  0  0  0  0  0  0  0  0  0
   27.4435  -21.8501  -15.2135 C   0  0  0  0  0  0  0  0  0  0  0  0
   28.1341  -20.6138  -14.7303 C   0  0  1  0  0  0  0  0  0  0  0  0
   28.8813  -19.9898  -15.8706 C   0  0  0  0  0  0  0  0  0  0  0  0
   27.0918  -19.6728  -14.1441 C   0  0  2  0  0  0  0  0  0  0  0  0
   26.4646  -20.3501  -12.9870 N   0  0  0  0  0  0  0  0  0  0  0  0
   26.0306  -19.3283  -15.1307 C   0  0  0  0  0  0  0  0  0  0  0  0
   25.2593  -20.2738  -15.4933 O   0  0  0  0  0  0  0  0  0  0  0  0
   19.5844  -16.5677  -18.2803 N   0  0  0  0  0  0  0  0  0  0  0  0
   19.3750  -17.1301  -16.9939 C   0  0  0  0  0  0  0  0  0  0  0  0
   18.3784  -17.9110  -16.7049 N   0  0  0  0  0  0  0  0  0  0  0  0
   20.2927  -16.8340  -15.9547 N   0  0  0  0  0  0  0  0  0  0  0  0
   21.3737  -15.8984  -16.0901 C   0  0  0  0  0  0  0  0  0  0  0  0
   22.5098  -16.5716  -16.8524 C   0  0  0  0  0  0  0  0  0  0  0  0
   23.6196  -17.0258  -15.9545 C   0  0  0  0  0  0  0  0  0  0  0  0
   24.7820  -17.6631  -16.6110 C   0  0  2  0  0  0  0  0  0  0  0  0
   25.8227  -18.0502  -15.6790 N   0  0  0  0  0  0  0  0  0  0  0  0
   25.3024  -16.9699  -17.8180 C   0  0  0  0  0  0  0  0  0  0  0  0
   24.7725  -17.1610  -19.0969 O   0  0  0  0  0  0  0  0  0  0  0  0
   26.2610  -16.1607  -17.7646 O   0  0  0  0  0  0  0  0  0  0  0  0
  2  1  1  0
  3  2  1  0
  4  5  1  0
  4  3  1  0
  5  6  1  6
  7 13  1  0
  7  5  1  0
  8  7  2  0
 10  9  1  6
 10 12  1  0
 11 10  1  0
 12 13  1  1
 14 15  2  0
 14 12  1  0
 16 17  1  0
 17 19  1  0
 18 17  2  0
 19 20  1  0
 20 21  1  0
 21 22  1  0
 23 22  1  1
 23 24  1  0
 24 14  1  0
 25 23  1  0
 26 25  1  0
 27 25  2  0
M  END
$$$$
