MVR.pdb
     RDKit          3D

 27 26  0  0  1  0  0  0  0  0999 V2000
   27.8099  -17.9137   -5.3022 C   0  0  0  0  0  0  0  0  0  0  0  0
   28.5411  -19.4719   -4.7387 S   0  0  0  0  0  0  0  0  0  0  0  0
   28.7053  -20.6476   -6.1451 C   0  0  0  0  0  0  0  0  0  0  0  0
   27.8113  -20.1318   -7.2190 C   0  0  0  0  0  0  0  0  0  0  0  0
   27.6746  -21.0244   -8.4290 C   0  0  2  0  0  0  0  0  0  0  0  0
   29.0562  -21.0931   -8.9781 N   0  0  0  0  0  0  0  0  0  0  0  0
   26.8080  -20.4387   -9.4600 C   0  0  0  0  0  0  0  0  0  0  0  0
   26.8468  -19.1970   -9.7614 O   0  0  0  0  0  0  0  0  0  0  0  0
   27.0517  -20.2332  -12.5940 C   0  0  0  0  0  0  0  0  0  0  0  0
   25.7206  -20.9162  -12.5683 C   0  0  1  0  0  0  0  0  0  0  0  0
   25.9160  -22.3842  -12.8023 C   0  0  0  0  0  0  0  0  0  0  0  0
   25.0548  -20.6323  -11.2297 C   0  0  2  0  0  0  0  0  0  0  0  0
   25.8943  -21.2290  -10.1666 N   0  0  0  0  0  0  0  0  0  0  0  0
   23.6887  -21.2201  -11.1481 C   0  0  0  0  0  0  0  0  0  0  0  0
   23.4753  -22.0391  -10.1974 O   0  0  0  0  0  0  0  0  0  0  0  0
   19.1219  -24.7238   -7.1906 N   0  0  0  0  0  0  0  0  0  0  0  0
   18.0250  -24.0187   -7.7514 C   0  0  0  0  0  0  0  0  0  0  0  0
   16.7868  -24.2442   -7.4311 N   0  0  0  0  0  0  0  0  0  0  0  0
   18.2748  -23.0101   -8.7158 N   0  0  0  0  0  0  0  0  0  0  0  0
   19.2611  -23.1272   -9.7529 C   0  0  0  0  0  0  0  0  0  0  0  0
   19.2227  -21.8655  -10.6083 C   0  0  0  0  0  0  0  0  0  0  0  0
   20.5690  -21.2251  -10.7552 C   0  0  0  0  0  0  0  0  0  0  0  0
   21.3014  -21.5065  -12.0093 C   0  0  2  0  0  0  0  0  0  0  0  0
   22.6335  -20.9353  -12.0329 N   0  0  0  0  0  0  0  0  0  0  0  0
   20.5418  -21.2781  -13.2660 C   0  0  0  0  0  0  0  0  0  0  0  0
   19.6704  -22.2229  -13.8144 O   0  0  0  0  0  0  0  0  0  0  0  0
   20.6363  -20.2112  -13.9212 O   0  0  0  0  0  0  0  0  0  0  0  0
  2  1  1  0
  3  2  1  0
  4  5  1  0
  4  3  1  0
  5  6  1  6
  7 13  1  0
  7  5  1  0
  8  7  2  0
 10  9  1  1
 10 12  1  0
 11 10  1  0
 12 13  1  1
 14 15  2  0
 14 12  1  0
 16 17  1  0
 17 19  1  0
 18 17  2  0
 19 20  1  0
 20 21  1  0
 21 22  1  0
 23 22  1  1
 23 24  1  0
 24 14  1  0
 25 23  1  0
 26 25  1  0
 27 25  2  0
M  END
$$$$
