MVR.pdb
     RDKit          3D

 27 26  0  0  1  0  0  0  0  0999 V2000
   25.8071  -19.9652   -7.7207 C   0  0  0  0  0  0  0  0  0  0  0  0
   25.6494  -19.5821   -9.4838 S   0  0  0  0  0  0  0  0  0  0  0  0
   25.1318  -21.0795  -10.4205 C   0  0  0  0  0  0  0  0  0  0  0  0
   25.0288  -20.6582  -11.8454 C   0  0  0  0  0  0  0  0  0  0  0  0
   24.5798  -21.7335  -12.8054 C   0  0  2  0  0  0  0  0  0  0  0  0
   25.8231  -22.5026  -13.0847 N   0  0  0  0  0  0  0  0  0  0  0  0
   24.0962  -21.1804  -14.0771 C   0  0  0  0  0  0  0  0  0  0  0  0
   24.8890  -20.7209  -14.9685 O   0  0  0  0  0  0  0  0  0  0  0  0
   23.0863  -22.8694  -16.6698 C   0  0  0  0  0  0  0  0  0  0  0  0
   21.8623  -22.0369  -16.4521 C   0  0  1  0  0  0  0  0  0  0  0  0
   20.8553  -22.8349  -15.6793 C   0  0  0  0  0  0  0  0  0  0  0  0
   22.2648  -20.7625  -15.7246 C   0  0  2  0  0  0  0  0  0  0  0  0
   22.7283  -21.1371  -14.3697 N   0  0  0  0  0  0  0  0  0  0  0  0
   21.1281  -19.8087  -15.5955 C   0  0  0  0  0  0  0  0  0  0  0  0
   20.5436  -19.7665  -14.4656 O   0  0  0  0  0  0  0  0  0  0  0  0
   17.7243  -13.2573  -20.9215 N   0  0  0  0  0  0  0  0  0  0  0  0
   16.9663  -13.2855  -19.7217 C   0  0  0  0  0  0  0  0  0  0  0  0
   15.9743  -12.4830  -19.4799 N   0  0  0  0  0  0  0  0  0  0  0  0
   17.2955  -14.2338  -18.7207 N   0  0  0  0  0  0  0  0  0  0  0  0
   18.4354  -15.1042  -18.7929 C   0  0  0  0  0  0  0  0  0  0  0  0
   18.3858  -16.0728  -17.6163 C   0  0  0  0  0  0  0  0  0  0  0  0
   19.5384  -17.0297  -17.6058 C   0  0  0  0  0  0  0  0  0  0  0  0
   19.5184  -18.0770  -16.5612 C   0  0  2  0  0  0  0  0  0  0  0  0
   20.6647  -18.9624  -16.6184 N   0  0  0  0  0  0  0  0  0  0  0  0
   18.2287  -18.7956  -16.3918 C   0  0  0  0  0  0  0  0  0  0  0  0
   17.2242  -18.3673  -15.5197 O   0  0  0  0  0  0  0  0  0  0  0  0
   17.9575  -19.8438  -17.0275 O   0  0  0  0  0  0  0  0  0  0  0  0
  2  1  1  0
  3  2  1  0
  4  5  1  0
  4  3  1  0
  5  6  1  6
  7 13  1  0
  7  5  1  0
  8  7  2  0
 10  9  1  1
 10 12  1  0
 11 10  1  0
 12 13  1  1
 14 15  2  0
 14 12  1  0
 16 17  1  0
 17 19  1  0
 18 17  2  0
 19 20  1  0
 20 21  1  0
 21 22  1  0
 23 22  1  6
 23 24  1  0
 24 14  1  0
 25 23  1  0
 26 25  1  0
 27 25  2  0
M  END
$$$$
