MVR.pdb
     RDKit          3D

 27 26  0  0  1  0  0  0  0  0999 V2000
   23.1361  -20.5759  -19.1331 C   0  0  0  0  0  0  0  0  0  0  0  0
   24.0046  -19.2747  -20.0458 S   0  0  0  0  0  0  0  0  0  0  0  0
   25.8249  -19.5259  -19.9420 C   0  0  0  0  0  0  0  0  0  0  0  0
   26.0699  -20.2335  -18.6545 C   0  0  0  0  0  0  0  0  0  0  0  0
   26.0730  -19.3556  -17.4261 C   0  0  2  0  0  0  0  0  0  0  0  0
   27.1357  -18.3526  -17.7085 N   0  0  0  0  0  0  0  0  0  0  0  0
   26.4577  -20.0916  -16.2147 C   0  0  0  0  0  0  0  0  0  0  0  0
   25.9170  -21.2033  -15.8892 O   0  0  0  0  0  0  0  0  0  0  0  0
   29.6842  -18.8024  -13.7800 C   0  0  0  0  0  0  0  0  0  0  0  0
   29.3111  -20.2427  -13.9383 C   0  0  1  0  0  0  0  0  0  0  0  0
   29.7814  -21.0078  -12.7377 C   0  0  0  0  0  0  0  0  0  0  0  0
   27.8037  -20.3364  -14.1239 C   0  0  2  0  0  0  0  0  0  0  0  0
   27.4490  -19.5998  -15.3578 N   0  0  0  0  0  0  0  0  0  0  0  0
   27.0605  -19.7399  -12.9793 C   0  0  0  0  0  0  0  0  0  0  0  0
   26.9643  -18.4709  -12.9601 O   0  0  0  0  0  0  0  0  0  0  0  0
   19.6243  -21.5431  -10.7429 N   0  0  0  0  0  0  0  0  0  0  0  0
   19.4038  -21.2865  -12.1215 C   0  0  0  0  0  0  0  0  0  0  0  0
   18.2235  -21.2068  -12.6574 N   0  0  0  0  0  0  0  0  0  0  0  0
   20.5205  -21.1055  -12.9759 N   0  0  0  0  0  0  0  0  0  0  0  0
   21.8571  -21.5035  -12.6338 C   0  0  0  0  0  0  0  0  0  0  0  0
   22.6839  -20.2523  -12.3578 C   0  0  0  0  0  0  0  0  0  0  0  0
   24.1354  -20.4354  -12.6800 C   0  0  0  0  0  0  0  0  0  0  0  0
   25.0718  -20.4337  -11.5348 C   0  0  2  0  0  0  0  0  0  0  0  0
   26.4643  -20.4701  -11.9359 N   0  0  0  0  0  0  0  0  0  0  0  0
   24.7515  -21.3828  -10.4371 C   0  0  0  0  0  0  0  0  0  0  0  0
   24.9893  -22.7573  -10.5217 O   0  0  0  0  0  0  0  0  0  0  0  0
   24.2414  -21.0060   -9.3534 O   0  0  0  0  0  0  0  0  0  0  0  0
  2  1  1  0
  3  2  1  0
  4  5  1  0
  4  3  1  0
  5  6  1  6
  7 13  1  0
  7  5  1  0
  8  7  2  0
 10  9  1  1
 10 12  1  0
 11 10  1  0
 12 13  1  6
 14 15  2  0
 14 12  1  0
 16 17  1  0
 17 19  1  0
 18 17  2  0
 19 20  1  0
 20 21  1  0
 21 22  1  0
 23 22  1  6
 23 24  1  0
 24 14  1  0
 25 23  1  0
 26 25  1  0
 27 25  2  0
M  END
$$$$
