MVR.pdb
     RDKit          3D

 27 26  0  0  1  0  0  0  0  0999 V2000
    9.0766  -11.8411  -11.8196 C   0  0  0  0  0  0  0  0  0  0  0  0
    9.6630  -13.2623  -10.8623 S   0  0  0  0  0  0  0  0  0  0  0  0
   11.4801  -13.1476  -10.5938 C   0  0  0  0  0  0  0  0  0  0  0  0
   11.8750  -11.7795  -11.0307 C   0  0  0  0  0  0  0  0  0  0  0  0
   13.3607  -11.5509  -11.1724 C   0  0  2  0  0  0  0  0  0  0  0  0
   13.9157  -11.9999   -9.8665 N   0  0  0  0  0  0  0  0  0  0  0  0
   13.6937  -10.1303  -11.3397 C   0  0  0  0  0  0  0  0  0  0  0  0
   13.5486   -9.5205  -12.4539 O   0  0  0  0  0  0  0  0  0  0  0  0
   15.1593   -8.2008   -8.1046 C   0  0  0  0  0  0  0  0  0  0  0  0
   14.3640   -7.3096   -9.0058 C   0  0  1  0  0  0  0  0  0  0  0  0
   14.9575   -5.9329   -8.9853 C   0  0  0  0  0  0  0  0  0  0  0  0
   14.3593   -7.9115  -10.4034 C   0  0  2  0  0  0  0  0  0  0  0  0
   14.1868   -9.3755  -10.2694 N   0  0  0  0  0  0  0  0  0  0  0  0
   15.6299   -7.6434  -11.1327 C   0  0  0  0  0  0  0  0  0  0  0  0
   16.5359   -8.5334  -11.0475 O   0  0  0  0  0  0  0  0  0  0  0  0
   22.2851   -9.6293  -14.2778 N   0  0  0  0  0  0  0  0  0  0  0  0
   22.0738   -8.5215  -15.1397 C   0  0  0  0  0  0  0  0  0  0  0  0
   22.9744   -8.0649  -15.9565 N   0  0  0  0  0  0  0  0  0  0  0  0
   20.8180   -7.8641  -15.1217 N   0  0  0  0  0  0  0  0  0  0  0  0
   19.7979   -8.1230  -14.1447 C   0  0  0  0  0  0  0  0  0  0  0  0
   18.5634   -7.3006  -14.4975 C   0  0  0  0  0  0  0  0  0  0  0  0
   17.4507   -7.4747  -13.5098 C   0  0  0  0  0  0  0  0  0  0  0  0
   17.0370   -6.2679  -12.7608 C   0  0  2  0  0  0  0  0  0  0  0  0
   15.8933   -6.4945  -11.8995 N   0  0  0  0  0  0  0  0  0  0  0  0
   16.9344   -5.0172  -13.5568 C   0  0  0  0  0  0  0  0  0  0  0  0
   18.0293   -4.1924  -13.8286 O   0  0  0  0  0  0  0  0  0  0  0  0
   15.8464   -4.6184  -14.0402 O   0  0  0  0  0  0  0  0  0  0  0  0
  2  1  1  0
  3  2  1  0
  4  5  1  0
  4  3  1  0
  5  6  1  1
  7 13  1  0
  7  5  1  0
  8  7  2  0
 10  9  1  1
 10 12  1  0
 11 10  1  0
 12 13  1  1
 14 15  2  0
 14 12  1  0
 16 17  1  0
 17 19  1  0
 18 17  2  0
 19 20  1  0
 20 21  1  0
 21 22  1  0
 23 22  1  6
 23 24  1  0
 24 14  1  0
 25 23  1  0
 26 25  1  0
 27 25  2  0
M  END
$$$$
