MVR.pdb
     RDKit          3D

 27 26  0  0  1  0  0  0  0  0999 V2000
   23.3578  -29.2291  -16.3159 C   0  0  0  0  0  0  0  0  0  0  0  0
   23.6954  -27.9399  -17.5424 S   0  0  0  0  0  0  0  0  0  0  0  0
   22.4690  -26.5759  -17.3915 C   0  0  0  0  0  0  0  0  0  0  0  0
   22.6645  -25.9952  -16.0339 C   0  0  0  0  0  0  0  0  0  0  0  0
   23.0902  -24.5469  -16.0067 C   0  0  2  0  0  0  0  0  0  0  0  0
   24.5760  -24.6140  -15.9513 N   0  0  0  0  0  0  0  0  0  0  0  0
   22.6248  -23.8505  -14.8003 C   0  0  0  0  0  0  0  0  0  0  0  0
   23.2309  -23.9462  -13.6788 O   0  0  0  0  0  0  0  0  0  0  0  0
   20.1941  -20.0393  -13.0289 C   0  0  0  0  0  0  0  0  0  0  0  0
   20.8665  -20.7992  -14.1286 C   0  0  1  0  0  0  0  0  0  0  0  0
   22.1379  -20.0991  -14.5048 C   0  0  0  0  0  0  0  0  0  0  0  0
   21.1147  -22.2233  -13.6536 C   0  0  2  0  0  0  0  0  0  0  0  0
   21.4846  -23.0396  -14.8317 N   0  0  0  0  0  0  0  0  0  0  0  0
   19.9074  -22.8198  -13.0173 C   0  0  0  0  0  0  0  0  0  0  0  0
   18.8856  -22.9708  -13.7611 O   0  0  0  0  0  0  0  0  0  0  0  0
   16.3669  -26.8521   -6.6973 N   0  0  0  0  0  0  0  0  0  0  0  0
   17.7466  -27.0071   -6.9927 C   0  0  0  0  0  0  0  0  0  0  0  0
   18.3397  -28.1599   -7.0689 N   0  0  0  0  0  0  0  0  0  0  0  0
   18.5367  -25.8521   -7.2192 N   0  0  0  0  0  0  0  0  0  0  0  0
   18.0073  -24.5174   -7.2418 C   0  0  0  0  0  0  0  0  0  0  0  0
   17.6522  -24.1570   -8.6803 C   0  0  0  0  0  0  0  0  0  0  0  0
   18.8597  -23.8755   -9.5210 C   0  0  0  0  0  0  0  0  0  0  0  0
   18.6163  -23.5858  -10.9511 C   0  0  2  0  0  0  0  0  0  0  0  0
   19.8200  -23.2241  -11.6733 N   0  0  0  0  0  0  0  0  0  0  0  0
   17.4654  -22.6919  -11.2423 C   0  0  0  0  0  0  0  0  0  0  0  0
   16.2648  -23.1471  -11.7938 O   0  0  0  0  0  0  0  0  0  0  0  0
   17.4995  -21.4586  -11.0091 O   0  0  0  0  0  0  0  0  0  0  0  0
  2  1  1  0
  3  2  1  0
  4  5  1  0
  4  3  1  0
  5  6  1  1
  7 13  1  0
  7  5  1  0
  8  7  2  0
 10  9  1  1
 10 12  1  0
 11 10  1  0
 12 13  1  6
 14 15  2  0
 14 12  1  0
 16 17  1  0
 17 19  1  0
 18 17  2  0
 19 20  1  0
 20 21  1  0
 21 22  1  0
 23 22  1  1
 23 24  1  0
 24 14  1  0
 25 23  1  0
 26 25  1  0
 27 25  2  0
M  END
$$$$
