MVR.pdb
     RDKit          3D

 27 26  0  0  1  0  0  0  0  0999 V2000
   26.8206  -18.6723   -6.6136 C   0  0  0  0  0  0  0  0  0  0  0  0
   28.0126  -20.0334   -6.5324 S   0  0  0  0  0  0  0  0  0  0  0  0
   27.9917  -20.9971   -8.1002 C   0  0  0  0  0  0  0  0  0  0  0  0
   26.8658  -20.4477   -8.9059 C   0  0  0  0  0  0  0  0  0  0  0  0
   26.6505  -21.1064  -10.2472 C   0  0  2  0  0  0  0  0  0  0  0  0
   27.9133  -20.8313  -10.9853 N   0  0  0  0  0  0  0  0  0  0  0  0
   25.5464  -20.4953  -10.9987 C   0  0  0  0  0  0  0  0  0  0  0  0
   25.5712  -19.2752  -11.3795 O   0  0  0  0  0  0  0  0  0  0  0  0
   25.4343  -19.9097  -13.4724 C   0  0  0  0  0  0  0  0  0  0  0  0
   24.1175  -20.5952  -13.6599 C   0  0  1  0  0  0  0  0  0  0  0  0
   24.3466  -21.9390  -14.2842 C   0  0  0  0  0  0  0  0  0  0  0  0
   23.4280  -20.7009  -12.3075 C   0  0  2  0  0  0  0  0  0  0  0  0
   24.4081  -21.2363  -11.3360 N   0  0  0  0  0  0  0  0  0  0  0  0
   22.2493  -21.6103  -12.3497 C   0  0  0  0  0  0  0  0  0  0  0  0
   22.4903  -22.8509  -12.5012 O   0  0  0  0  0  0  0  0  0  0  0  0
   19.4337  -25.6381   -7.6092 N   0  0  0  0  0  0  0  0  0  0  0  0
   19.0349  -24.2769   -7.5555 C   0  0  0  0  0  0  0  0  0  0  0  0
   19.1393  -23.5393   -6.4916 N   0  0  0  0  0  0  0  0  0  0  0  0
   18.4899  -23.6722   -8.7161 N   0  0  0  0  0  0  0  0  0  0  0  0
   18.4250  -24.3207   -9.9957 C   0  0  0  0  0  0  0  0  0  0  0  0
   19.4470  -23.6733  -10.9238 C   0  0  0  0  0  0  0  0  0  0  0  0
   18.9066  -22.4660  -11.6271 C   0  0  0  0  0  0  0  0  0  0  0  0
   19.7390  -21.9070  -12.7148 C   0  0  2  0  0  0  0  0  0  0  0  0
   20.9093  -21.2004  -12.2326 N   0  0  0  0  0  0  0  0  0  0  0  0
   19.0048  -21.1716  -13.7771 C   0  0  0  0  0  0  0  0  0  0  0  0
   19.3296  -19.8703  -14.1695 O   0  0  0  0  0  0  0  0  0  0  0  0
   18.0364  -21.6780  -14.3953 O   0  0  0  0  0  0  0  0  0  0  0  0
  2  1  1  0
  3  2  1  0
  4  5  1  0
  4  3  1  0
  5  6  1  6
  7 13  1  0
  7  5  1  0
  8  7  2  0
 10  9  1  1
 10 12  1  0
 11 10  1  0
 12 13  1  1
 14 15  2  0
 14 12  1  0
 16 17  1  0
 17 19  1  0
 18 17  2  0
 19 20  1  0
 20 21  1  0
 21 22  1  0
 23 22  1  1
 23 24  1  0
 24 14  1  0
 25 23  1  0
 26 25  1  0
 27 25  2  0
M  END
$$$$
