HVR.pdb
     RDKit          3D

 29 29  0  0  1  0  0  0  0  0999 V2000
   27.0299  -19.1336  -12.2923 N   0  0  0  0  0  0  0  0  0  0  0  0
   26.3285  -20.3858  -12.4301 C   0  0  1  0  0  0  0  0  0  0  0  0
   26.5637  -21.2473  -11.1980 C   0  0  0  0  0  0  0  0  0  0  0  0
   28.0187  -21.5044  -11.0485 C   0  0  0  0  0  0  0  0  0  0  0  0
   28.8166  -21.1266   -9.9793 C   0  0  0  0  0  0  0  0  0  0  0  0
   30.0810  -21.5325  -10.1900 N   0  0  0  0  0  0  0  0  0  0  0  0
   30.0718  -22.1616  -11.3870 C   0  0  0  0  0  0  0  0  0  0  0  0
   28.8349  -22.1434  -11.8995 N   0  0  0  0  0  0  0  0  0  0  0  0
   24.8720  -20.1287  -12.5020 C   0  0  0  0  0  0  0  0  0  0  0  0
   24.2926  -19.6678  -11.4902 O   0  0  0  0  0  0  0  0  0  0  0  0
   20.7882  -19.3158  -15.0519 C   0  0  0  0  0  0  0  0  0  0  0  0
   22.2525  -19.6242  -15.0541 C   0  0  2  0  0  0  0  0  0  0  0  0
   22.6408  -20.6546  -16.0955 C   0  0  0  0  0  0  0  0  0  0  0  0
   22.6953  -20.1029  -13.6608 C   0  0  2  0  0  0  0  0  0  0  0  0
   24.1088  -20.3819  -13.6665 N   0  0  0  0  0  0  0  0  0  0  0  0
   21.8873  -21.3316  -13.4056 C   0  0  0  0  0  0  0  0  0  0  0  0
   22.2597  -22.4478  -13.8543 O   0  0  0  0  0  0  0  0  0  0  0  0
   17.7367  -24.4306   -6.1969 N   0  0  0  0  0  0  0  0  0  0  0  0
   17.8826  -25.4293   -7.1861 C   0  0  0  0  0  0  0  0  0  0  0  0
   17.4076  -26.6271   -7.0270 N   0  0  0  0  0  0  0  0  0  0  0  0
   18.5557  -25.1941   -8.4167 N   0  0  0  0  0  0  0  0  0  0  0  0
   18.9688  -23.8838   -8.8783 C   0  0  0  0  0  0  0  0  0  0  0  0
   19.6208  -23.8792  -10.1959 C   0  0  0  0  0  0  0  0  0  0  0  0
   20.0708  -22.6692  -10.8553 C   0  0  0  0  0  0  0  0  0  0  0  0
   19.8662  -22.3707  -12.2802 C   0  0  2  0  0  0  0  0  0  0  0  0
   20.7016  -21.2024  -12.6518 N   0  0  0  0  0  0  0  0  0  0  0  0
   18.5202  -22.1015  -12.7607 C   0  0  0  0  0  0  0  0  0  0  0  0
   17.7265  -23.2002  -13.1750 O   0  0  0  0  0  0  0  0  0  0  0  0
   17.9923  -20.9939  -12.8450 O   0  0  0  0  0  0  0  0  0  0  0  0
  2  1  1  1
  3  4  1  0
  3  2  1  0
  4  8  1  0
  5  6  1  0
  5  4  2  0
  6  7  1  0
  7  8  2  0
  9  2  1  0
  9 10  2  0
 12 14  1  0
 12 11  1  1
 13 12  1  0
 14 15  1  6
 15  9  1  0
 16 14  1  0
 17 16  2  0
 18 19  1  0
 19 20  2  0
 19 21  1  0
 21 22  1  0
 22 23  1  0
 23 24  1  0
 25 24  1  1
 25 27  1  0
 25 26  1  0
 26 16  1  0
 27 28  1  0
 29 27  2  0
M  END
$$$$
