HVR.pdb
     RDKit          3D

 29 29  0  0  1  0  0  0  0  0999 V2000
   31.4684  -24.9445  -15.7897 N   0  0  0  0  0  0  0  0  0  0  0  0
   30.7890  -24.6952  -17.0368 C   0  0  1  0  0  0  0  0  0  0  0  0
   30.5106  -26.0128  -17.7453 C   0  0  0  0  0  0  0  0  0  0  0  0
   31.7925  -26.6016  -18.2094 C   0  0  0  0  0  0  0  0  0  0  0  0
   32.3037  -27.8423  -17.8600 C   0  0  0  0  0  0  0  0  0  0  0  0
   33.4832  -28.0375  -18.4753 N   0  0  0  0  0  0  0  0  0  0  0  0
   33.7070  -26.9220  -19.2063 C   0  0  0  0  0  0  0  0  0  0  0  0
   32.6925  -26.0631  -19.0453 N   0  0  0  0  0  0  0  0  0  0  0  0
   29.4752  -24.0685  -16.7647 C   0  0  0  0  0  0  0  0  0  0  0  0
   28.8600  -24.3916  -15.7213 O   0  0  0  0  0  0  0  0  0  0  0  0
   28.0143  -20.6735  -18.9105 C   0  0  0  0  0  0  0  0  0  0  0  0
   27.7209  -20.9845  -17.4765 C   0  0  2  0  0  0  0  0  0  0  0  0
   28.7398  -20.3968  -16.5209 C   0  0  0  0  0  0  0  0  0  0  0  0
   27.6352  -22.5068  -17.2714 C   0  0  2  0  0  0  0  0  0  0  0  0
   28.8873  -23.1199  -17.6349 N   0  0  0  0  0  0  0  0  0  0  0  0
   26.5210  -22.9488  -18.1607 C   0  0  0  0  0  0  0  0  0  0  0  0
   26.7198  -23.1411  -19.3893 O   0  0  0  0  0  0  0  0  0  0  0  0
   18.5547  -23.3283  -17.4481 N   0  0  0  0  0  0  0  0  0  0  0  0
   18.4554  -24.7040  -17.7565 C   0  0  0  0  0  0  0  0  0  0  0  0
   17.3619  -25.2252  -18.2236 N   0  0  0  0  0  0  0  0  0  0  0  0
   19.5390  -25.6077  -17.5779 N   0  0  0  0  0  0  0  0  0  0  0  0
   20.8048  -25.2473  -16.9709 C   0  0  0  0  0  0  0  0  0  0  0  0
   21.7881  -24.6778  -17.9037 C   0  0  0  0  0  0  0  0  0  0  0  0
   23.0962  -24.2092  -17.4907 C   0  0  0  0  0  0  0  0  0  0  0  0
   24.0711  -23.5653  -18.3830 C   0  0  2  0  0  0  0  0  0  0  0  0
   25.2477  -23.1421  -17.5845 N   0  0  0  0  0  0  0  0  0  0  0  0
   23.6569  -22.4163  -19.1725 C   0  0  0  0  0  0  0  0  0  0  0  0
   22.9745  -22.6545  -20.3916 O   0  0  0  0  0  0  0  0  0  0  0  0
   23.8439  -21.2360  -18.8818 O   0  0  0  0  0  0  0  0  0  0  0  0
  2  1  1  1
  3  4  1  0
  3  2  1  0
  4  8  1  0
  5  6  1  0
  5  4  2  0
  6  7  1  0
  7  8  2  0
  9  2  1  0
  9 10  2  0
 12 14  1  0
 12 11  1  6
 13 12  1  0
 14 15  1  6
 15  9  1  0
 16 14  1  0
 17 16  2  0
 18 19  1  0
 19 20  2  0
 19 21  1  0
 21 22  1  0
 22 23  1  0
 23 24  1  0
 25 24  1  1
 25 27  1  0
 25 26  1  0
 26 16  1  0
 27 28  1  0
 29 27  2  0
M  END
$$$$
