HVR.pdb
     RDKit          3D

 29 29  0  0  1  0  0  0  0  0999 V2000
   24.9791  -15.0396  -19.8573 N   0  0  0  0  0  0  0  0  0  0  0  0
   24.3571  -14.9437  -18.5600 C   0  0  1  0  0  0  0  0  0  0  0  0
   22.9255  -14.4499  -18.7094 C   0  0  0  0  0  0  0  0  0  0  0  0
   22.9380  -13.0184  -19.1041 C   0  0  0  0  0  0  0  0  0  0  0  0
   22.6071  -12.5039  -20.3485 C   0  0  0  0  0  0  0  0  0  0  0  0
   22.7321  -11.1652  -20.3345 N   0  0  0  0  0  0  0  0  0  0  0  0
   23.1397  -10.8456  -19.0854 C   0  0  0  0  0  0  0  0  0  0  0  0
   23.2623  -11.9579  -18.3500 N   0  0  0  0  0  0  0  0  0  0  0  0
   24.2848  -16.2902  -17.9482 C   0  0  0  0  0  0  0  0  0  0  0  0
   23.8402  -17.2395  -18.6358 O   0  0  0  0  0  0  0  0  0  0  0  0
   25.8833  -17.2205  -14.0705 C   0  0  0  0  0  0  0  0  0  0  0  0
   25.8152  -18.1916  -15.2070 C   0  0  2  0  0  0  0  0  0  0  0  0
   27.0721  -18.2038  -16.0537 C   0  0  0  0  0  0  0  0  0  0  0  0
   24.5958  -17.8853  -16.0934 C   0  0  2  0  0  0  0  0  0  0  0  0
   24.6978  -16.5479  -16.6193 N   0  0  0  0  0  0  0  0  0  0  0  0
   23.4189  -18.0384  -15.1882 C   0  0  0  0  0  0  0  0  0  0  0  0
   23.0050  -17.0644  -14.5055 O   0  0  0  0  0  0  0  0  0  0  0  0
   17.4338  -24.5417  -15.0960 N   0  0  0  0  0  0  0  0  0  0  0  0
   16.8784  -23.3104  -15.5118 C   0  0  0  0  0  0  0  0  0  0  0  0
   15.7569  -23.2486  -16.1628 N   0  0  0  0  0  0  0  0  0  0  0  0
   17.5051  -22.0612  -15.2482 N   0  0  0  0  0  0  0  0  0  0  0  0
   18.7157  -21.9095  -14.4658 C   0  0  0  0  0  0  0  0  0  0  0  0
   19.2657  -20.5462  -14.4517 C   0  0  0  0  0  0  0  0  0  0  0  0
   20.5707  -20.2106  -14.9863 C   0  0  0  0  0  0  0  0  0  0  0  0
   21.6478  -19.5714  -14.2165 C   0  0  2  0  0  0  0  0  0  0  0  0
   22.7908  -19.3001  -15.1225 N   0  0  0  0  0  0  0  0  0  0  0  0
   22.1830  -20.2525  -13.0483 C   0  0  0  0  0  0  0  0  0  0  0  0
   21.4474  -20.1825  -11.8388 O   0  0  0  0  0  0  0  0  0  0  0  0
   23.2307  -20.8951  -13.0048 O   0  0  0  0  0  0  0  0  0  0  0  0
  2  1  1  6
  3  4  1  0
  3  2  1  0
  4  8  1  0
  5  6  1  0
  5  4  2  0
  6  7  1  0
  7  8  2  0
  9  2  1  0
  9 10  2  0
 12 14  1  0
 12 11  1  1
 13 12  1  0
 14 15  1  1
 15  9  1  0
 16 14  1  0
 17 16  2  0
 18 19  1  0
 19 20  2  0
 19 21  1  0
 21 22  1  0
 22 23  1  0
 23 24  1  0
 25 24  1  6
 25 27  1  0
 25 26  1  0
 26 16  1  0
 27 28  1  0
 29 27  2  0
M  END
$$$$
