HVR.pdb
     RDKit          3D

 29 29  0  0  1  0  0  0  0  0999 V2000
   22.6624  -20.3853  -14.5941 N   0  0  0  0  0  0  0  0  0  0  0  0
   22.2225  -19.7009  -13.4036 C   0  0  1  0  0  0  0  0  0  0  0  0
   20.8103  -19.1711  -13.6049 C   0  0  0  0  0  0  0  0  0  0  0  0
   20.8308  -18.0929  -14.6259 C   0  0  0  0  0  0  0  0  0  0  0  0
   21.7229  -17.0332  -14.6874 C   0  0  0  0  0  0  0  0  0  0  0  0
   21.4374  -16.2598  -15.7496 N   0  0  0  0  0  0  0  0  0  0  0  0
   20.3705  -16.8353  -16.3488 C   0  0  0  0  0  0  0  0  0  0  0  0
   20.0089  -17.9336  -15.6736 N   0  0  0  0  0  0  0  0  0  0  0  0
   22.1641  -20.6607  -12.2774 C   0  0  0  0  0  0  0  0  0  0  0  0
   21.5103  -21.7202  -12.4244 O   0  0  0  0  0  0  0  0  0  0  0  0
   23.1609  -20.8091   -7.6250 C   0  0  0  0  0  0  0  0  0  0  0  0
   23.8019  -21.1520   -8.9329 C   0  0  2  0  0  0  0  0  0  0  0  0
   24.7548  -20.0816   -9.4259 C   0  0  0  0  0  0  0  0  0  0  0  0
   22.7239  -21.4170   -9.9980 C   0  0  2  0  0  0  0  0  0  0  0  0
   22.8167  -20.4297  -11.0431 N   0  0  0  0  0  0  0  0  0  0  0  0
   21.4294  -21.3257   -9.2606 C   0  0  0  0  0  0  0  0  0  0  0  0
   20.8512  -20.2162   -9.1164 O   0  0  0  0  0  0  0  0  0  0  0  0
   14.0522  -25.5851  -10.9312 N   0  0  0  0  0  0  0  0  0  0  0  0
   13.8521  -24.8961   -9.7136 C   0  0  0  0  0  0  0  0  0  0  0  0
   12.6906  -24.8479   -9.1354 N   0  0  0  0  0  0  0  0  0  0  0  0
   14.9017  -24.2116   -9.0409 N   0  0  0  0  0  0  0  0  0  0  0  0
   16.2688  -24.1519   -9.5187 C   0  0  0  0  0  0  0  0  0  0  0  0
   17.1911  -23.4205   -8.6380 C   0  0  0  0  0  0  0  0  0  0  0  0
   18.5833  -23.1848   -8.9658 C   0  0  0  0  0  0  0  0  0  0  0  0
   19.5553  -22.5470   -8.0659 C   0  0  2  0  0  0  0  0  0  0  0  0
   20.8795  -22.5136   -8.7341 N   0  0  0  0  0  0  0  0  0  0  0  0
   19.7623  -23.1041   -6.7386 C   0  0  0  0  0  0  0  0  0  0  0  0
   18.8015  -22.8180   -5.7367 O   0  0  0  0  0  0  0  0  0  0  0  0
   20.7065  -23.8121   -6.3925 O   0  0  0  0  0  0  0  0  0  0  0  0
  2  1  1  6
  3  4  1  0
  3  2  1  0
  4  8  1  0
  5  6  1  0
  5  4  2  0
  6  7  1  0
  7  8  2  0
  9  2  1  0
  9 10  2  0
 12 14  1  0
 12 11  1  1
 13 12  1  0
 14 15  1  6
 15  9  1  0
 16 14  1  0
 17 16  2  0
 18 19  1  0
 19 20  2  0
 19 21  1  0
 21 22  1  0
 22 23  1  0
 23 24  1  0
 25 24  1  6
 25 27  1  0
 25 26  1  0
 26 16  1  0
 27 28  1  0
 29 27  2  0
M  END
$$$$
