HVR.pdb
     RDKit          3D

 29 29  0  0  1  0  0  0  0  0999 V2000
   28.5838  -21.2312  -16.1595 N   0  0  0  0  0  0  0  0  0  0  0  0
   27.9308  -20.2732  -15.3022 C   0  0  1  0  0  0  0  0  0  0  0  0
   27.1995  -19.2396  -16.1462 C   0  0  0  0  0  0  0  0  0  0  0  0
   28.1872  -18.3062  -16.7451 C   0  0  0  0  0  0  0  0  0  0  0  0
   29.5590  -18.3174  -16.5434 C   0  0  0  0  0  0  0  0  0  0  0  0
   30.1303  -17.3265  -17.2502 N   0  0  0  0  0  0  0  0  0  0  0  0
   29.1181  -16.6991  -17.8907 C   0  0  0  0  0  0  0  0  0  0  0  0
   27.9546  -17.2881  -17.5865 N   0  0  0  0  0  0  0  0  0  0  0  0
   26.9062  -20.9623  -14.4849 C   0  0  0  0  0  0  0  0  0  0  0  0
   26.2552  -21.9001  -15.0032 O   0  0  0  0  0  0  0  0  0  0  0  0
   24.8898  -21.9317  -10.0991 C   0  0  0  0  0  0  0  0  0  0  0  0
   25.8093  -21.0584  -10.8934 C   0  0  2  0  0  0  0  0  0  0  0  0
   25.5890  -19.5802  -10.6419 C   0  0  0  0  0  0  0  0  0  0  0  0
   25.6582  -21.3570  -12.3950 C   0  0  2  0  0  0  0  0  0  0  0  0
   26.6331  -20.6050  -13.1431 N   0  0  0  0  0  0  0  0  0  0  0  0
   24.2630  -20.9434  -12.7270 C   0  0  0  0  0  0  0  0  0  0  0  0
   23.9987  -19.7427  -12.9999 O   0  0  0  0  0  0  0  0  0  0  0  0
   17.3535  -26.6496  -14.6566 N   0  0  0  0  0  0  0  0  0  0  0  0
   16.9166  -25.3142  -14.8087 C   0  0  0  0  0  0  0  0  0  0  0  0
   15.7186  -25.0266  -15.2181 N   0  0  0  0  0  0  0  0  0  0  0  0
   17.7532  -24.1992  -14.5262 N   0  0  0  0  0  0  0  0  0  0  0  0
   19.0859  -24.3056  -13.9665 C   0  0  0  0  0  0  0  0  0  0  0  0
   19.7740  -23.0196  -13.7816 C   0  0  0  0  0  0  0  0  0  0  0  0
   21.1535  -22.9118  -13.3496 C   0  0  0  0  0  0  0  0  0  0  0  0
   21.8558  -21.6424  -13.1117 C   0  0  2  0  0  0  0  0  0  0  0  0
   23.2580  -21.9337  -12.7244 N   0  0  0  0  0  0  0  0  0  0  0  0
   21.3258  -20.7145  -12.1252 C   0  0  0  0  0  0  0  0  0  0  0  0
   20.4003  -19.7333  -12.5604 O   0  0  0  0  0  0  0  0  0  0  0  0
   21.6067  -20.6962  -10.9280 O   0  0  0  0  0  0  0  0  0  0  0  0
  2  1  1  6
  3  4  1  0
  3  2  1  0
  4  8  1  0
  5  6  1  0
  5  4  2  0
  6  7  1  0
  7  8  2  0
  9  2  1  0
  9 10  2  0
 12 14  1  0
 12 11  1  1
 13 12  1  0
 14 15  1  6
 15  9  1  0
 16 14  1  0
 17 16  2  0
 18 19  1  0
 19 20  2  0
 19 21  1  0
 21 22  1  0
 22 23  1  0
 23 24  1  0
 25 24  1  1
 25 27  1  0
 25 26  1  0
 26 16  1  0
 27 28  1  0
 29 27  2  0
M  END
$$$$
