HVR.pdb
     RDKit          3D

 29 29  0  0  1  0  0  0  0  0999 V2000
   26.3795  -17.1203  -17.9967 N   0  0  0  0  0  0  0  0  0  0  0  0
   26.2777  -16.9529  -16.5682 C   0  0  1  0  0  0  0  0  0  0  0  0
   25.0675  -16.0929  -16.2343 C   0  0  0  0  0  0  0  0  0  0  0  0
   25.3874  -14.6681  -16.5048 C   0  0  0  0  0  0  0  0  0  0  0  0
   26.1340  -13.8236  -15.6973 C   0  0  0  0  0  0  0  0  0  0  0  0
   26.2168  -12.6077  -16.2652 N   0  0  0  0  0  0  0  0  0  0  0  0
   25.5239  -12.6934  -17.4232 C   0  0  0  0  0  0  0  0  0  0  0  0
   25.0279  -13.9291  -17.5646 N   0  0  0  0  0  0  0  0  0  0  0  0
   26.0551  -18.2717  -15.9327 C   0  0  0  0  0  0  0  0  0  0  0  0
   25.1728  -19.0257  -16.4067 O   0  0  0  0  0  0  0  0  0  0  0  0
   28.4886  -19.8237  -12.7314 C   0  0  0  0  0  0  0  0  0  0  0  0
   27.8478  -20.6639  -13.7909 C   0  0  2  0  0  0  0  0  0  0  0  0
   28.7499  -20.9038  -14.9849 C   0  0  0  0  0  0  0  0  0  0  0  0
   26.5322  -20.0167  -14.2568 C   0  0  2  0  0  0  0  0  0  0  0  0
   26.7985  -18.7145  -14.8128 N   0  0  0  0  0  0  0  0  0  0  0  0
   25.6917  -19.9343  -13.0262 C   0  0  0  0  0  0  0  0  0  0  0  0
   25.6999  -18.8962  -12.3132 O   0  0  0  0  0  0  0  0  0  0  0  0
   17.9749  -21.5026  -11.5560 N   0  0  0  0  0  0  0  0  0  0  0  0
   18.3256  -20.7196  -10.4329 C   0  0  0  0  0  0  0  0  0  0  0  0
   17.4390  -20.0558   -9.7555 N   0  0  0  0  0  0  0  0  0  0  0  0
   19.6652  -20.6046   -9.9692 N   0  0  0  0  0  0  0  0  0  0  0  0
   20.8185  -20.4914  -10.8398 C   0  0  0  0  0  0  0  0  0  0  0  0
   21.5934  -21.7317  -10.9895 C   0  0  0  0  0  0  0  0  0  0  0  0
   22.8112  -21.8181  -11.7710 C   0  0  0  0  0  0  0  0  0  0  0  0
   24.0474  -21.0806  -11.4726 C   0  0  2  0  0  0  0  0  0  0  0  0
   24.8945  -21.0488  -12.6901 N   0  0  0  0  0  0  0  0  0  0  0  0
   24.8926  -21.5298  -10.3776 C   0  0  0  0  0  0  0  0  0  0  0  0
   24.6338  -21.0193   -9.0810 O   0  0  0  0  0  0  0  0  0  0  0  0
   25.8278  -22.3235  -10.4669 O   0  0  0  0  0  0  0  0  0  0  0  0
  2  1  1  6
  3  4  1  0
  3  2  1  0
  4  8  1  0
  5  6  1  0
  5  4  2  0
  6  7  1  0
  7  8  2  0
  9  2  1  0
  9 10  2  0
 12 14  1  0
 12 11  1  1
 13 12  1  0
 14 15  1  1
 15  9  1  0
 16 14  1  0
 17 16  2  0
 18 19  1  0
 19 20  2  0
 19 21  1  0
 21 22  1  0
 22 23  1  0
 23 24  1  0
 25 24  1  6
 25 27  1  0
 25 26  1  0
 26 16  1  0
 27 28  1  0
 29 27  2  0
M  END
$$$$
