HVR.pdb
     RDKit          3D

 29 29  0  0  1  0  0  0  0  0999 V2000
   25.5278  -23.3329  -15.8438 N   0  0  0  0  0  0  0  0  0  0  0  0
   24.2496  -23.9697  -15.6445 C   0  0  1  0  0  0  0  0  0  0  0  0
   24.4534  -25.3815  -15.1145 C   0  0  0  0  0  0  0  0  0  0  0  0
   25.0162  -26.2345  -16.1920 C   0  0  0  0  0  0  0  0  0  0  0  0
   26.2229  -26.9167  -16.1573 C   0  0  0  0  0  0  0  0  0  0  0  0
   26.3995  -27.5865  -17.3097 N   0  0  0  0  0  0  0  0  0  0  0  0
   25.3065  -27.3228  -18.0610 C   0  0  0  0  0  0  0  0  0  0  0  0
   24.4790  -26.5124  -17.3890 N   0  0  0  0  0  0  0  0  0  0  0  0
   23.4869  -23.2302  -14.6128 C   0  0  0  0  0  0  0  0  0  0  0  0
   24.1057  -22.4466  -13.8547 O   0  0  0  0  0  0  0  0  0  0  0  0
   20.6204  -20.8542  -15.1801 C   0  0  0  0  0  0  0  0  0  0  0  0
   21.4759  -21.0616  -13.9700 C   0  0  2  0  0  0  0  0  0  0  0  0
   22.9240  -20.6741  -14.1930 C   0  0  0  0  0  0  0  0  0  0  0  0
   21.3963  -22.5274  -13.5098 C   0  0  2  0  0  0  0  0  0  0  0  0
   22.0884  -23.3725  -14.4492 N   0  0  0  0  0  0  0  0  0  0  0  0
   19.9360  -22.8320  -13.4592 C   0  0  0  0  0  0  0  0  0  0  0  0
   19.1187  -22.1669  -14.1489 O   0  0  0  0  0  0  0  0  0  0  0  0
   18.3365  -25.0528   -6.1283 N   0  0  0  0  0  0  0  0  0  0  0  0
   18.0431  -26.3106   -6.7020 C   0  0  0  0  0  0  0  0  0  0  0  0
   17.3727  -27.2181   -6.0595 N   0  0  0  0  0  0  0  0  0  0  0  0
   18.4590  -26.6683   -8.0142 N   0  0  0  0  0  0  0  0  0  0  0  0
   19.0645  -25.7454   -8.9535 C   0  0  0  0  0  0  0  0  0  0  0  0
   18.1719  -24.6723   -9.4152 C   0  0  0  0  0  0  0  0  0  0  0  0
   18.5529  -23.6995  -10.4201 C   0  0  0  0  0  0  0  0  0  0  0  0
   18.2373  -23.8122  -11.8515 C   0  0  2  0  0  0  0  0  0  0  0  0
   19.5047  -23.8806  -12.6197 N   0  0  0  0  0  0  0  0  0  0  0  0
   17.4149  -22.7891  -12.4776 C   0  0  0  0  0  0  0  0  0  0  0  0
   16.1406  -23.1655  -12.9708 O   0  0  0  0  0  0  0  0  0  0  0  0
   17.7214  -21.6071  -12.6245 O   0  0  0  0  0  0  0  0  0  0  0  0
  2  1  1  1
  3  4  1  0
  3  2  1  0
  4  8  1  0
  5  6  1  0
  5  4  2  0
  6  7  1  0
  7  8  2  0
  9  2  1  0
  9 10  2  0
 12 14  1  0
 12 11  1  6
 13 12  1  0
 14 15  1  6
 15  9  1  0
 16 14  1  0
 17 16  2  0
 18 19  1  0
 19 20  2  0
 19 21  1  0
 21 22  1  0
 22 23  1  0
 23 24  1  0
 25 24  1  1
 25 27  1  0
 25 26  1  0
 26 16  1  0
 27 28  1  0
 29 27  2  0
M  END
$$$$
