HVR.pdb
     RDKit          3D

 29 29  0  0  1  0  0  0  0  0999 V2000
   23.2368  -20.2326  -14.6919 N   0  0  0  0  0  0  0  0  0  0  0  0
   23.0612  -19.5576  -15.9539 C   0  0  1  0  0  0  0  0  0  0  0  0
   21.5782  -19.3567  -16.2296 C   0  0  0  0  0  0  0  0  0  0  0  0
   20.9346  -20.6778  -16.4435 C   0  0  0  0  0  0  0  0  0  0  0  0
   21.0833  -21.4969  -17.5523 C   0  0  0  0  0  0  0  0  0  0  0  0
   20.3523  -22.6142  -17.3932 N   0  0  0  0  0  0  0  0  0  0  0  0
   19.7496  -22.4924  -16.1889 C   0  0  0  0  0  0  0  0  0  0  0  0
   20.1001  -21.3312  -15.6217 N   0  0  0  0  0  0  0  0  0  0  0  0
   23.6702  -18.2099  -15.8800 C   0  0  0  0  0  0  0  0  0  0  0  0
   23.4132  -17.4880  -14.8878 O   0  0  0  0  0  0  0  0  0  0  0  0
   26.8094  -16.9460  -18.4598 C   0  0  0  0  0  0  0  0  0  0  0  0
   26.6124  -16.4485  -17.0624 C   0  0  2  0  0  0  0  0  0  0  0  0
   27.3406  -17.2822  -16.0271 C   0  0  0  0  0  0  0  0  0  0  0  0
   25.1124  -16.3967  -16.7248 C   0  0  2  0  0  0  0  0  0  0  0  0
   24.5305  -17.7050  -16.8839 N   0  0  0  0  0  0  0  0  0  0  0  0
   24.5389  -15.4123  -17.6890 C   0  0  0  0  0  0  0  0  0  0  0  0
   24.2514  -15.7601  -18.8647 O   0  0  0  0  0  0  0  0  0  0  0  0
   18.6722   -9.6355  -15.4092 N   0  0  0  0  0  0  0  0  0  0  0  0
   18.7527  -10.9532  -15.9138 C   0  0  0  0  0  0  0  0  0  0  0  0
   17.8632  -11.8539  -15.6253 N   0  0  0  0  0  0  0  0  0  0  0  0
   19.8066  -11.3822  -16.7671 N   0  0  0  0  0  0  0  0  0  0  0  0
   20.8882  -10.5271  -17.2139 C   0  0  0  0  0  0  0  0  0  0  0  0
   21.9457  -11.2223  -17.9620 C   0  0  0  0  0  0  0  0  0  0  0  0
   22.6724  -12.3615  -17.4372 C   0  0  0  0  0  0  0  0  0  0  0  0
   23.7842  -13.0312  -18.1276 C   0  0  2  0  0  0  0  0  0  0  0  0
   24.3316  -14.0896  -17.2437 N   0  0  0  0  0  0  0  0  0  0  0  0
   24.9116  -12.2370  -18.5893 C   0  0  0  0  0  0  0  0  0  0  0  0
   24.7137  -11.3776  -19.6987 O   0  0  0  0  0  0  0  0  0  0  0  0
   26.0415  -12.2375  -18.1035 O   0  0  0  0  0  0  0  0  0  0  0  0
  2  1  1  1
  3  4  1  0
  3  2  1  0
  4  8  1  0
  5  6  1  0
  5  4  2  0
  6  7  1  0
  7  8  2  0
  9  2  1  0
  9 10  2  0
 12 14  1  0
 12 11  1  6
 13 12  1  0
 14 15  1  6
 15  9  1  0
 16 14  1  0
 17 16  2  0
 18 19  1  0
 19 20  2  0
 19 21  1  0
 21 22  1  0
 22 23  1  0
 23 24  1  0
 25 24  1  1
 25 27  1  0
 25 26  1  0
 26 16  1  0
 27 28  1  0
 29 27  2  0
M  END
$$$$
