HVR.pdb
     RDKit          3D

 29 29  0  0  1  0  0  0  0  0999 V2000
   18.9833  -10.7017  -15.4569 N   0  0  0  0  0  0  0  0  0  0  0  0
   18.3933   -9.4088  -15.2133 C   0  0  1  0  0  0  0  0  0  0  0  0
   16.8934   -9.4709  -15.4621 C   0  0  0  0  0  0  0  0  0  0  0  0
   16.6406   -9.5536  -16.9232 C   0  0  0  0  0  0  0  0  0  0  0  0
   16.2314  -10.6764  -17.6264 C   0  0  0  0  0  0  0  0  0  0  0  0
   16.1024  -10.3741  -18.9302 N   0  0  0  0  0  0  0  0  0  0  0  0
   16.4302   -9.0667  -19.0399 C   0  0  0  0  0  0  0  0  0  0  0  0
   16.7523   -8.5773  -17.8359 N   0  0  0  0  0  0  0  0  0  0  0  0
   18.5772   -9.0443  -13.7898 C   0  0  0  0  0  0  0  0  0  0  0  0
   18.3780   -9.9198  -12.9149 O   0  0  0  0  0  0  0  0  0  0  0  0
   20.7245   -5.6662  -12.5489 C   0  0  0  0  0  0  0  0  0  0  0  0
   20.4923   -6.8691  -11.6897 C   0  0  2  0  0  0  0  0  0  0  0  0
   21.5498   -7.9399  -11.8688 C   0  0  0  0  0  0  0  0  0  0  0  0
   19.1011   -7.4619  -11.9725 C   0  0  2  0  0  0  0  0  0  0  0  0
   18.9688   -7.7482  -13.3784 N   0  0  0  0  0  0  0  0  0  0  0  0
   18.1410   -6.4095  -11.5269 C   0  0  0  0  0  0  0  0  0  0  0  0
   17.7880   -5.4905  -12.3123 O   0  0  0  0  0  0  0  0  0  0  0  0
   11.0141   -7.9691   -6.7211 N   0  0  0  0  0  0  0  0  0  0  0  0
   12.0343   -8.4262   -7.5857 C   0  0  0  0  0  0  0  0  0  0  0  0
   12.1345   -9.6743   -7.9292 N   0  0  0  0  0  0  0  0  0  0  0  0
   13.0164   -7.5571   -8.1360 N   0  0  0  0  0  0  0  0  0  0  0  0
   13.5160   -6.3711   -7.4692 C   0  0  0  0  0  0  0  0  0  0  0  0
   14.5136   -5.6136   -8.2387 C   0  0  0  0  0  0  0  0  0  0  0  0
   15.6249   -6.2374   -8.9296 C   0  0  0  0  0  0  0  0  0  0  0  0
   16.6563   -5.5064   -9.6800 C   0  0  2  0  0  0  0  0  0  0  0  0
   17.6464   -6.4772  -10.2073 N   0  0  0  0  0  0  0  0  0  0  0  0
   17.4058   -4.4545   -9.0116 C   0  0  0  0  0  0  0  0  0  0  0  0
   16.8588   -3.1470   -9.0021 O   0  0  0  0  0  0  0  0  0  0  0  0
   18.4880   -4.5895   -8.4431 O   0  0  0  0  0  0  0  0  0  0  0  0
  2  1  1  1
  3  4  1  0
  3  2  1  0
  4  8  1  0
  5  6  1  0
  5  4  2  0
  6  7  1  0
  7  8  2  0
  9  2  1  0
  9 10  2  0
 12 14  1  0
 12 11  1  6
 13 12  1  0
 14 15  1  6
 15  9  1  0
 16 14  1  0
 17 16  2  0
 18 19  1  0
 19 20  2  0
 19 21  1  0
 21 22  1  0
 22 23  1  0
 23 24  1  0
 25 24  1  1
 25 27  1  0
 25 26  1  0
 26 16  1  0
 27 28  1  0
 29 27  2  0
M  END
$$$$
