HVR.pdb
     RDKit          3D

 29 29  0  0  1  0  0  0  0  0999 V2000
   22.6369  -18.9519  -14.3199 N   0  0  0  0  0  0  0  0  0  0  0  0
   22.5786  -18.2140  -15.5573 C   0  0  1  0  0  0  0  0  0  0  0  0
   21.1275  -17.9916  -15.9578 C   0  0  0  0  0  0  0  0  0  0  0  0
   20.5321  -19.2831  -16.3852 C   0  0  0  0  0  0  0  0  0  0  0  0
   19.6036  -20.0353  -15.6818 C   0  0  0  0  0  0  0  0  0  0  0  0
   19.2923  -21.1415  -16.3799 N   0  0  0  0  0  0  0  0  0  0  0  0
   20.0243  -21.0795  -17.5152 C   0  0  0  0  0  0  0  0  0  0  0  0
   20.7664  -19.9650  -17.5161 N   0  0  0  0  0  0  0  0  0  0  0  0
   23.1793  -16.8749  -15.3605 C   0  0  0  0  0  0  0  0  0  0  0  0
   22.8900  -16.2332  -14.3232 O   0  0  0  0  0  0  0  0  0  0  0  0
   26.7628  -15.5921  -16.9322 C   0  0  0  0  0  0  0  0  0  0  0  0
   26.0248  -14.9194  -15.8178 C   0  0  2  0  0  0  0  0  0  0  0  0
   26.2999  -15.5408  -14.4632 C   0  0  0  0  0  0  0  0  0  0  0  0
   24.5122  -14.9357  -16.0982 C   0  0  2  0  0  0  0  0  0  0  0  0
   24.0667  -16.2915  -16.2960 N   0  0  0  0  0  0  0  0  0  0  0  0
   24.3445  -14.1102  -17.3304 C   0  0  0  0  0  0  0  0  0  0  0  0
   24.4340  -14.6365  -18.4711 O   0  0  0  0  0  0  0  0  0  0  0  0
   18.5519  -12.7157  -16.2402 N   0  0  0  0  0  0  0  0  0  0  0  0
   18.4418  -11.4039  -16.7542 C   0  0  0  0  0  0  0  0  0  0  0  0
   17.2969  -10.7998  -16.8536 N   0  0  0  0  0  0  0  0  0  0  0  0
   19.5697  -10.6586  -17.1960 N   0  0  0  0  0  0  0  0  0  0  0  0
   20.9295  -11.1604  -17.1836 C   0  0  0  0  0  0  0  0  0  0  0  0
   21.9340  -10.2115  -17.6854 C   0  0  0  0  0  0  0  0  0  0  0  0
   23.3361  -10.5462  -17.8388 C   0  0  0  0  0  0  0  0  0  0  0  0
   23.8358  -11.8373  -18.3335 C   0  0  2  0  0  0  0  0  0  0  0  0
   24.0849  -12.7320  -17.1766 N   0  0  0  0  0  0  0  0  0  0  0  0
   25.0337  -11.8636  -19.1577 C   0  0  0  0  0  0  0  0  0  0  0  0
   24.8770  -11.8199  -20.5657 O   0  0  0  0  0  0  0  0  0  0  0  0
   26.1913  -11.9215  -18.7464 O   0  0  0  0  0  0  0  0  0  0  0  0
  2  1  1  1
  3  4  1  0
  3  2  1  0
  4  8  1  0
  5  6  1  0
  5  4  2  0
  6  7  1  0
  7  8  2  0
  9  2  1  0
  9 10  2  0
 12 14  1  0
 12 11  1  6
 13 12  1  0
 14 15  1  6
 15  9  1  0
 16 14  1  0
 17 16  2  0
 18 19  1  0
 19 20  2  0
 19 21  1  0
 21 22  1  0
 22 23  1  0
 23 24  1  0
 25 24  1  1
 25 27  1  0
 25 26  1  0
 26 16  1  0
 27 28  1  0
 29 27  2  0
M  END
$$$$
