HVR.pdb
     RDKit          3D

 29 29  0  0  1  0  0  0  0  0999 V2000
   24.0526  -20.7497  -15.2765 N   0  0  0  0  0  0  0  0  0  0  0  0
   22.6273  -20.6821  -15.0693 C   0  0  1  0  0  0  0  0  0  0  0  0
   21.9246  -21.6696  -15.9894 C   0  0  0  0  0  0  0  0  0  0  0  0
   22.0799  -21.2251  -17.3978 C   0  0  0  0  0  0  0  0  0  0  0  0
   22.7394  -21.9071  -18.4091 C   0  0  0  0  0  0  0  0  0  0  0  0
   22.6727  -21.2013  -19.5516 N   0  0  0  0  0  0  0  0  0  0  0  0
   21.9738  -20.0826  -19.2539 C   0  0  0  0  0  0  0  0  0  0  0  0
   21.6197  -20.0992  -17.9627 N   0  0  0  0  0  0  0  0  0  0  0  0
   22.3120  -21.0901  -13.6812 C   0  0  0  0  0  0  0  0  0  0  0  0
   22.9693  -22.0249  -13.1657 O   0  0  0  0  0  0  0  0  0  0  0  0
   20.6919  -19.9743   -9.2438 C   0  0  0  0  0  0  0  0  0  0  0  0
   20.8422  -19.5945  -10.6834 C   0  0  2  0  0  0  0  0  0  0  0  0
   19.6346  -18.8623  -11.2335 C   0  0  0  0  0  0  0  0  0  0  0  0
   21.1228  -20.8446  -11.5348 C   0  0  2  0  0  0  0  0  0  0  0  0
   21.2992  -20.4669  -12.9139 N   0  0  0  0  0  0  0  0  0  0  0  0
   19.9228  -21.7118  -11.3452 C   0  0  0  0  0  0  0  0  0  0  0  0
   18.9521  -21.6458  -12.1447 O   0  0  0  0  0  0  0  0  0  0  0  0
   18.3137  -27.1117   -4.0884 N   0  0  0  0  0  0  0  0  0  0  0  0
   17.4587  -26.0119   -4.3268 C   0  0  0  0  0  0  0  0  0  0  0  0
   16.6385  -25.5717   -3.4218 N   0  0  0  0  0  0  0  0  0  0  0  0
   17.4369  -25.3151   -5.5665 N   0  0  0  0  0  0  0  0  0  0  0  0
   18.2907  -25.6359   -6.6930 C   0  0  0  0  0  0  0  0  0  0  0  0
   17.9756  -24.8996   -7.9259 C   0  0  0  0  0  0  0  0  0  0  0  0
   18.9033  -23.9877   -8.5655 C   0  0  0  0  0  0  0  0  0  0  0  0
   18.7322  -23.4369   -9.9178 C   0  0  2  0  0  0  0  0  0  0  0  0
   19.9116  -22.6002  -10.2492 N   0  0  0  0  0  0  0  0  0  0  0  0
   17.5503  -22.6430  -10.2142 C   0  0  0  0  0  0  0  0  0  0  0  0
   17.5563  -21.2737   -9.8485 O   0  0  0  0  0  0  0  0  0  0  0  0
   16.5265  -23.0498  -10.7610 O   0  0  0  0  0  0  0  0  0  0  0  0
  2  1  1  1
  3  4  1  0
  3  2  1  0
  4  8  1  0
  5  6  1  0
  5  4  2  0
  6  7  1  0
  7  8  2  0
  9  2  1  0
  9 10  2  0
 12 14  1  0
 12 11  1  1
 13 12  1  0
 14 15  1  6
 15  9  1  0
 16 14  1  0
 17 16  2  0
 18 19  1  0
 19 20  2  0
 19 21  1  0
 21 22  1  0
 22 23  1  0
 23 24  1  0
 25 24  1  1
 25 27  1  0
 25 26  1  0
 26 16  1  0
 27 28  1  0
 29 27  2  0
M  END
$$$$
