HVR.pdb
     RDKit          3D

 29 29  0  0  1  0  0  0  0  0999 V2000
   30.9904  -25.1778  -20.6758 N   0  0  0  0  0  0  0  0  0  0  0  0
   30.1033  -26.3110  -20.7648 C   0  0  1  0  0  0  0  0  0  0  0  0
   30.7346  -27.3940  -21.6276 C   0  0  0  0  0  0  0  0  0  0  0  0
   30.6986  -26.9716  -23.0509 C   0  0  0  0  0  0  0  0  0  0  0  0
   31.7728  -26.9347  -23.9268 C   0  0  0  0  0  0  0  0  0  0  0  0
   31.3618  -26.5030  -25.1321 N   0  0  0  0  0  0  0  0  0  0  0  0
   30.0353  -26.2713  -25.0083 C   0  0  0  0  0  0  0  0  0  0  0  0
   29.6402  -26.5529  -23.7603 N   0  0  0  0  0  0  0  0  0  0  0  0
   29.9123  -26.8936  -19.4169 C   0  0  0  0  0  0  0  0  0  0  0  0
   30.9028  -26.9780  -18.6530 O   0  0  0  0  0  0  0  0  0  0  0  0
   26.2021  -27.0136  -17.5200 C   0  0  0  0  0  0  0  0  0  0  0  0
   27.5267  -27.0156  -16.8239 C   0  0  2  0  0  0  0  0  0  0  0  0
   28.0858  -25.6238  -16.6071 C   0  0  0  0  0  0  0  0  0  0  0  0
   28.5388  -27.8638  -17.6132 C   0  0  2  0  0  0  0  0  0  0  0  0
   28.6571  -27.3580  -18.9571 N   0  0  0  0  0  0  0  0  0  0  0  0
   27.9787  -29.2470  -17.5873 C   0  0  0  0  0  0  0  0  0  0  0  0
   27.0252  -29.5663  -18.3455 O   0  0  0  0  0  0  0  0  0  0  0  0
   25.6431  -34.8877  -20.0116 N   0  0  0  0  0  0  0  0  0  0  0  0
   26.7568  -35.7359  -20.2050 C   0  0  0  0  0  0  0  0  0  0  0  0
   26.6253  -37.0203  -20.3424 N   0  0  0  0  0  0  0  0  0  0  0  0
   28.0906  -35.2456  -20.2621 N   0  0  0  0  0  0  0  0  0  0  0  0
   28.4628  -33.8720  -19.9873 C   0  0  0  0  0  0  0  0  0  0  0  0
   28.1804  -33.4266  -18.6151 C   0  0  0  0  0  0  0  0  0  0  0  0
   28.5386  -32.1134  -18.1165 C   0  0  0  0  0  0  0  0  0  0  0  0
   28.2476  -31.6289  -16.7594 C   0  0  2  0  0  0  0  0  0  0  0  0
   28.5475  -30.1775  -16.6922 N   0  0  0  0  0  0  0  0  0  0  0  0
   28.9128  -32.2539  -15.6271 C   0  0  0  0  0  0  0  0  0  0  0  0
   30.2394  -31.8547  -15.3280 O   0  0  0  0  0  0  0  0  0  0  0  0
   28.4292  -33.1109  -14.8894 O   0  0  0  0  0  0  0  0  0  0  0  0
  2  1  1  1
  3  4  1  0
  3  2  1  0
  4  8  1  0
  5  6  1  0
  5  4  2  0
  6  7  1  0
  7  8  2  0
  9  2  1  0
  9 10  2  0
 12 14  1  0
 12 11  1  6
 13 12  1  0
 14 15  1  6
 15  9  1  0
 16 14  1  0
 17 16  2  0
 18 19  1  0
 19 20  2  0
 19 21  1  0
 21 22  1  0
 22 23  1  0
 23 24  1  0
 25 24  1  6
 25 27  1  0
 25 26  1  0
 26 16  1  0
 27 28  1  0
 29 27  2  0
M  END
$$$$
