HMT.pdb
     RDKit          3D

 26 26  0  0  1  0  0  0  0  0999 V2000
   23.9809  -36.0642  -15.1831 N   0  0  0  0  0  0  0  0  0  0  0  0
   23.6598  -35.3266  -13.9948 C   0  0  1  0  0  0  0  0  0  0  0  0
   22.3958  -35.9431  -13.3960 C   0  0  0  0  0  0  0  0  0  0  0  0
   21.2391  -35.7030  -14.2831 C   0  0  0  0  0  0  0  0  0  0  0  0
   20.3538  -34.6512  -14.3044 C   0  0  0  0  0  0  0  0  0  0  0  0
   19.4592  -34.8529  -15.2837 N   0  0  0  0  0  0  0  0  0  0  0  0
   19.7610  -36.0041  -15.8768 C   0  0  0  0  0  0  0  0  0  0  0  0
   20.8559  -36.5288  -15.2626 N   0  0  0  0  0  0  0  0  0  0  0  0
   24.7496  -35.3550  -12.9856 C   0  0  0  0  0  0  0  0  0  0  0  0
   25.8273  -35.8888  -13.3303 O   0  0  0  0  0  0  0  0  0  0  0  0
   29.2512  -32.9011  -14.8645 C   0  0  0  0  0  0  0  0  0  0  0  0
   27.9810  -32.2795  -13.7287 S   0  0  0  0  0  0  0  0  0  0  0  0
   27.3768  -33.6152  -12.6719 C   0  0  0  0  0  0  0  0  0  0  0  0
   26.2944  -33.0906  -11.7634 C   0  0  0  0  0  0  0  0  0  0  0  0
   25.6362  -34.1869  -10.9713 C   0  0  2  0  0  0  0  0  0  0  0  0
   24.5643  -34.8003  -11.6979 N   0  0  0  0  0  0  0  0  0  0  0  0
   25.1453  -33.6796   -9.6510 C   0  0  0  0  0  0  0  0  0  0  0  0
   24.4076  -32.6780   -9.5084 O   0  0  0  0  0  0  0  0  0  0  0  0
   23.6533  -35.9967   -7.0416 C   0  0  0  0  0  0  0  0  0  0  0  0
   24.7182  -35.1894   -6.3711 C   0  0  1  0  0  0  0  0  0  0  0  0
   25.8260  -36.0120   -6.1751 O   0  0  0  0  0  0  0  0  0  0  0  0
   25.0899  -33.9392   -7.1450 C   0  0  2  0  0  0  0  0  0  0  0  0
   25.5167  -34.3500   -8.4455 N   0  0  0  0  0  0  0  0  0  0  0  0
   26.0306  -33.0830   -6.4334 C   0  0  0  0  0  0  0  0  0  0  0  0
   25.6555  -32.4240   -5.2699 O   0  0  0  0  0  0  0  0  0  0  0  0
   27.2215  -32.8824   -6.8105 O   0  0  0  0  0  0  0  0  0  0  0  0
  2  1  1  6
  2  3  1  0
  3  4  1  0
  4  5  2  0
  5  6  1  0
  7  6  1  0
  8  4  1  0
  8  7  2  0
  9  2  1  0
 10  9  2  0
 11 12  1  0
 13 12  1  0
 15 14  1  6
 14 13  1  0
 15 16  1  0
 16  9  1  0
 17 18  2  0
 17 15  1  0
 20 22  1  0
 20 19  1  6
 21 20  1  0
 22 23  1  6
 23 17  1  0
 24 22  1  0
 25 24  1  0
 26 24  2  0
M  END
$$$$
