HMT.pdb
     RDKit          3D

 26 26  0  0  1  0  0  0  0  0999 V2000
   14.2580  -11.6565  -12.7401 N   0  0  0  0  0  0  0  0  0  0  0  0
   15.4806  -11.1973  -12.1455 C   0  0  1  0  0  0  0  0  0  0  0  0
   16.6183  -11.5369  -13.1080 C   0  0  0  0  0  0  0  0  0  0  0  0
   16.7032  -12.9987  -13.3052 C   0  0  0  0  0  0  0  0  0  0  0  0
   16.3520  -13.7581  -14.3962 C   0  0  0  0  0  0  0  0  0  0  0  0
   16.6033  -15.0487  -14.1292 N   0  0  0  0  0  0  0  0  0  0  0  0
   17.1028  -15.1178  -12.8988 C   0  0  0  0  0  0  0  0  0  0  0  0
   17.1651  -13.8573  -12.3901 N   0  0  0  0  0  0  0  0  0  0  0  0
   15.4790   -9.7359  -11.8779 C   0  0  0  0  0  0  0  0  0  0  0  0
   15.0572   -8.9930  -12.7917 O   0  0  0  0  0  0  0  0  0  0  0  0
   14.6780   -4.1276   -6.4869 C   0  0  0  0  0  0  0  0  0  0  0  0
   14.6180   -5.8764   -6.9638 S   0  0  0  0  0  0  0  0  0  0  0  0
   15.3463   -6.1051   -8.6018 C   0  0  0  0  0  0  0  0  0  0  0  0
   15.3456   -7.5705   -8.9552 C   0  0  0  0  0  0  0  0  0  0  0  0
   15.8881   -7.8227  -10.3353 C   0  0  2  0  0  0  0  0  0  0  0  0
   15.9361   -9.2214  -10.6423 N   0  0  0  0  0  0  0  0  0  0  0  0
   17.2425   -7.2071  -10.5043 C   0  0  0  0  0  0  0  0  0  0  0  0
   18.1842   -7.3357   -9.6893 O   0  0  0  0  0  0  0  0  0  0  0  0
   19.0405   -7.5063  -13.7949 C   0  0  0  0  0  0  0  0  0  0  0  0
   19.6611   -6.9196  -12.5677 C   0  0  1  0  0  0  0  0  0  0  0  0
   20.9210   -6.4325  -12.9106 O   0  0  0  0  0  0  0  0  0  0  0  0
   18.8076   -5.8403  -11.9300 C   0  0  2  0  0  0  0  0  0  0  0  0
   17.5265   -6.4115  -11.6563 N   0  0  0  0  0  0  0  0  0  0  0  0
   18.7751   -4.6045  -12.7019 C   0  0  0  0  0  0  0  0  0  0  0  0
   17.5757   -4.0953  -13.1826 O   0  0  0  0  0  0  0  0  0  0  0  0
   19.8044   -3.9246  -12.9831 O   0  0  0  0  0  0  0  0  0  0  0  0
  2  1  1  6
  2  3  1  0
  3  4  1  0
  4  5  2  0
  5  6  1  0
  7  6  1  0
  8  4  1  0
  8  7  2  0
  9  2  1  0
 10  9  2  0
 11 12  1  0
 13 12  1  0
 15 14  1  1
 14 13  1  0
 15 16  1  0
 16  9  1  0
 17 18  2  0
 17 15  1  0
 20 22  1  0
 20 19  1  6
 21 20  1  0
 22 23  1  6
 23 17  1  0
 24 22  1  0
 25 24  1  0
 26 24  2  0
M  END
$$$$
