HMT.pdb
     RDKit          3D

 26 26  0  0  1  0  0  0  0  0999 V2000
   28.2370  -20.6482  -15.4019 N   0  0  0  0  0  0  0  0  0  0  0  0
   27.3504  -19.8488  -14.6056 C   0  0  1  0  0  0  0  0  0  0  0  0
   26.5853  -18.9249  -15.5527 C   0  0  0  0  0  0  0  0  0  0  0  0
   27.5007  -17.9293  -16.1475 C   0  0  0  0  0  0  0  0  0  0  0  0
   27.8913  -16.7011  -15.6685 C   0  0  0  0  0  0  0  0  0  0  0  0
   28.7372  -16.1392  -16.5452 N   0  0  0  0  0  0  0  0  0  0  0  0
   28.8869  -16.9836  -17.5614 C   0  0  0  0  0  0  0  0  0  0  0  0
   28.1268  -18.0857  -17.3186 N   0  0  0  0  0  0  0  0  0  0  0  0
   26.3856  -20.6629  -13.8224 C   0  0  0  0  0  0  0  0  0  0  0  0
   25.8811  -21.6525  -14.3978 O   0  0  0  0  0  0  0  0  0  0  0  0
   26.3333  -19.2716   -7.6791 C   0  0  0  0  0  0  0  0  0  0  0  0
   26.5657  -21.0501   -7.9481 S   0  0  0  0  0  0  0  0  0  0  0  0
   26.4225  -21.4424   -9.7064 C   0  0  0  0  0  0  0  0  0  0  0  0
   25.1823  -20.7964  -10.2690 C   0  0  0  0  0  0  0  0  0  0  0  0
   25.0480  -21.0183  -11.7507 C   0  0  2  0  0  0  0  0  0  0  0  0
   26.0611  -20.3237  -12.4882 N   0  0  0  0  0  0  0  0  0  0  0  0
   23.6882  -20.6210  -12.2355 C   0  0  0  0  0  0  0  0  0  0  0  0
   23.2881  -19.4382  -12.3273 O   0  0  0  0  0  0  0  0  0  0  0  0
   19.9388  -22.0717  -15.0392 C   0  0  0  0  0  0  0  0  0  0  0  0
   21.2682  -22.2503  -14.3790 C   0  0  1  0  0  0  0  0  0  0  0  0
   22.2585  -22.0537  -15.3398 O   0  0  0  0  0  0  0  0  0  0  0  0
   21.4663  -21.3330  -13.1876 C   0  0  2  0  0  0  0  0  0  0  0  0
   22.7500  -21.6231  -12.6307 N   0  0  0  0  0  0  0  0  0  0  0  0
   20.3616  -21.3802  -12.2379 C   0  0  0  0  0  0  0  0  0  0  0  0
   19.3113  -20.4753  -12.3202 O   0  0  0  0  0  0  0  0  0  0  0  0
   20.2795  -22.2224  -11.2973 O   0  0  0  0  0  0  0  0  0  0  0  0
  2  1  1  6
  2  3  1  0
  3  4  1  0
  4  5  2  0
  5  6  1  0
  7  6  1  0
  8  4  1  0
  8  7  2  0
  9  2  1  0
 10  9  2  0
 11 12  1  0
 13 12  1  0
 15 14  1  1
 14 13  1  0
 15 16  1  0
 16  9  1  0
 17 18  2  0
 17 15  1  0
 20 22  1  0
 20 19  1  6
 21 20  1  0
 22 23  1  1
 23 17  1  0
 24 22  1  0
 25 24  1  0
 26 24  2  0
M  END
$$$$
