HMT.pdb
     RDKit          3D

 26 26  0  0  1  0  0  0  0  0999 V2000
   22.1256  -11.6408  -16.2742 N   0  0  0  0  0  0  0  0  0  0  0  0
   21.3722  -10.6163  -16.9390 C   0  0  1  0  0  0  0  0  0  0  0  0
   20.0037  -11.2014  -17.2868 C   0  0  0  0  0  0  0  0  0  0  0  0
   20.1527  -12.3221  -18.2380 C   0  0  0  0  0  0  0  0  0  0  0  0
   19.9473  -13.6680  -18.0462 C   0  0  0  0  0  0  0  0  0  0  0  0
   20.2050  -14.3168  -19.1920 N   0  0  0  0  0  0  0  0  0  0  0  0
   20.5666  -13.4121  -20.0969 C   0  0  0  0  0  0  0  0  0  0  0  0
   20.5350  -12.1841  -19.5118 N   0  0  0  0  0  0  0  0  0  0  0  0
   21.1924   -9.3995  -16.1057 C   0  0  0  0  0  0  0  0  0  0  0  0
   20.7159   -9.5623  -14.9605 O   0  0  0  0  0  0  0  0  0  0  0  0
   25.3007   -4.7257  -15.5029 C   0  0  0  0  0  0  0  0  0  0  0  0
   24.5118   -4.5895  -17.1304 S   0  0  0  0  0  0  0  0  0  0  0  0
   23.0333   -5.6265  -17.1995 C   0  0  0  0  0  0  0  0  0  0  0  0
   22.7015   -6.1264  -15.8167 C   0  0  0  0  0  0  0  0  0  0  0  0
   21.4362   -6.9395  -15.7947 C   0  0  2  0  0  0  0  0  0  0  0  0
   21.5476   -8.1216  -16.5968 N   0  0  0  0  0  0  0  0  0  0  0  0
   20.2611   -6.1225  -16.2343 C   0  0  0  0  0  0  0  0  0  0  0  0
   19.8921   -5.9979  -17.4243 O   0  0  0  0  0  0  0  0  0  0  0  0
   15.9115   -4.3373  -15.1515 C   0  0  0  0  0  0  0  0  0  0  0  0
   17.1483   -5.1376  -14.8964 C   0  0  1  0  0  0  0  0  0  0  0  0
   16.8983   -6.4543  -15.2784 O   0  0  0  0  0  0  0  0  0  0  0  0
   18.3702   -4.5814  -15.6019 C   0  0  2  0  0  0  0  0  0  0  0  0
   19.4780   -5.4200  -15.2678 N   0  0  0  0  0  0  0  0  0  0  0  0
   18.5797   -3.1609  -15.3515 C   0  0  0  0  0  0  0  0  0  0  0  0
   18.1516   -2.2053  -16.2638 O   0  0  0  0  0  0  0  0  0  0  0  0
   19.1492   -2.7065  -14.3171 O   0  0  0  0  0  0  0  0  0  0  0  0
  2  1  1  1
  2  3  1  0
  3  4  1  0
  4  5  2  0
  5  6  1  0
  7  6  1  0
  8  4  1  0
  8  7  2  0
  9  2  1  0
 10  9  2  0
 11 12  1  0
 13 12  1  0
 15 14  1  6
 14 13  1  0
 15 16  1  0
 16  9  1  0
 17 18  2  0
 17 15  1  0
 20 22  1  0
 20 19  1  6
 21 20  1  0
 22 23  1  1
 23 17  1  0
 24 22  1  0
 25 24  1  0
 26 24  2  0
M  END
$$$$
