HMT.pdb
     RDKit          3D

 26 26  0  0  1  0  0  0  0  0999 V2000
   27.7834  -23.7930  -17.0173 N   0  0  0  0  0  0  0  0  0  0  0  0
   26.4414  -23.8105  -16.5095 C   0  0  1  0  0  0  0  0  0  0  0  0
   26.3070  -25.0330  -15.6019 C   0  0  0  0  0  0  0  0  0  0  0  0
   26.4159  -26.2745  -16.3953 C   0  0  0  0  0  0  0  0  0  0  0  0
   27.3412  -27.2883  -16.3146 C   0  0  0  0  0  0  0  0  0  0  0  0
   27.0499  -28.2199  -17.2352 N   0  0  0  0  0  0  0  0  0  0  0  0
   25.9658  -27.8160  -17.8908 C   0  0  0  0  0  0  0  0  0  0  0  0
   25.5742  -26.6191  -17.3755 N   0  0  0  0  0  0  0  0  0  0  0  0
   26.0983  -22.5853  -15.7426 C   0  0  0  0  0  0  0  0  0  0  0  0
   27.0419  -21.9847  -15.1824 O   0  0  0  0  0  0  0  0  0  0  0  0
   21.3193  -17.8256  -16.2955 C   0  0  0  0  0  0  0  0  0  0  0  0
   21.1198  -19.5249  -16.8973 S   0  0  0  0  0  0  0  0  0  0  0  0
   22.1360  -20.6585  -15.9235 C   0  0  0  0  0  0  0  0  0  0  0  0
   23.4972  -20.0512  -15.6991 C   0  0  0  0  0  0  0  0  0  0  0  0
   24.4023  -20.9597  -14.9128 C   0  0  2  0  0  0  0  0  0  0  0  0
   24.7621  -22.1295  -15.6579 N   0  0  0  0  0  0  0  0  0  0  0  0
   23.7784  -21.3465  -13.6079 C   0  0  0  0  0  0  0  0  0  0  0  0
   22.9393  -22.2655  -13.4704 O   0  0  0  0  0  0  0  0  0  0  0  0
   25.8992  -20.9437  -10.2379 C   0  0  0  0  0  0  0  0  0  0  0  0
   24.5138  -20.4044  -10.0800 C   0  0  1  0  0  0  0  0  0  0  0  0
   24.5864  -19.0128  -10.0981 O   0  0  0  0  0  0  0  0  0  0  0  0
   23.5533  -20.9201  -11.1345 C   0  0  2  0  0  0  0  0  0  0  0  0
   24.1328  -20.6494  -12.4125 N   0  0  0  0  0  0  0  0  0  0  0  0
   22.1931  -20.4261  -10.9615 C   0  0  0  0  0  0  0  0  0  0  0  0
   21.4453  -20.7727   -9.8437 O   0  0  0  0  0  0  0  0  0  0  0  0
   21.6101  -19.6686  -11.7904 O   0  0  0  0  0  0  0  0  0  0  0  0
  2  1  1  1
  2  3  1  0
  3  4  1  0
  4  5  2  0
  5  6  1  0
  7  6  1  0
  8  4  1  0
  8  7  2  0
  9  2  1  0
 10  9  2  0
 11 12  1  0
 13 12  1  0
 15 14  1  6
 14 13  1  0
 15 16  1  0
 16  9  1  0
 17 18  2  0
 17 15  1  0
 20 22  1  0
 20 19  1  6
 21 20  1  0
 22 23  1  6
 23 17  1  0
 24 22  1  0
 25 24  1  0
 26 24  2  0
M  END
$$$$
