HMT.pdb
     RDKit          3D

 26 26  0  0  1  0  0  0  0  0999 V2000
   27.9608  -21.6150  -16.2804 N   0  0  0  0  0  0  0  0  0  0  0  0
   27.6016  -20.6795  -15.2532 C   0  0  1  0  0  0  0  0  0  0  0  0
   26.9138  -19.4935  -15.9288 C   0  0  0  0  0  0  0  0  0  0  0  0
   27.8858  -18.7317  -16.7398 C   0  0  0  0  0  0  0  0  0  0  0  0
   28.1860  -18.8381  -18.0773 C   0  0  0  0  0  0  0  0  0  0  0  0
   29.1356  -17.9416  -18.3846 N   0  0  0  0  0  0  0  0  0  0  0  0
   29.4383  -17.2758  -17.2740 C   0  0  0  0  0  0  0  0  0  0  0  0
   28.6703  -17.7606  -16.2609 N   0  0  0  0  0  0  0  0  0  0  0  0
   26.6924  -21.2630  -14.2334 C   0  0  0  0  0  0  0  0  0  0  0  0
   25.8562  -22.1027  -14.6339 O   0  0  0  0  0  0  0  0  0  0  0  0
   26.2981  -19.3521   -7.5902 C   0  0  0  0  0  0  0  0  0  0  0  0
   25.8324  -21.0889   -7.8272 S   0  0  0  0  0  0  0  0  0  0  0  0
   25.1769  -21.3408   -9.4924 C   0  0  0  0  0  0  0  0  0  0  0  0
   26.2103  -20.9300  -10.5099 C   0  0  0  0  0  0  0  0  0  0  0  0
   25.7748  -21.2343  -11.9172 C   0  0  2  0  0  0  0  0  0  0  0  0
   26.7790  -20.8780  -12.8752 N   0  0  0  0  0  0  0  0  0  0  0  0
   24.4819  -20.5527  -12.2421 C   0  0  0  0  0  0  0  0  0  0  0  0
   24.3487  -19.3145  -12.3725 O   0  0  0  0  0  0  0  0  0  0  0  0
   21.7587  -22.7533  -14.3943 C   0  0  0  0  0  0  0  0  0  0  0  0
   21.8254  -21.2632  -14.2914 C   0  0  1  0  0  0  0  0  0  0  0  0
   20.6489  -20.7395  -14.8243 O   0  0  0  0  0  0  0  0  0  0  0  0
   22.0525  -20.7766  -12.8730 C   0  0  2  0  0  0  0  0  0  0  0  0
   23.2939  -21.3245  -12.4245 N   0  0  0  0  0  0  0  0  0  0  0  0
   20.9184  -21.0273  -11.9925 C   0  0  0  0  0  0  0  0  0  0  0  0
   21.0604  -21.8049  -10.8506 O   0  0  0  0  0  0  0  0  0  0  0  0
   19.7565  -20.5697  -12.1961 O   0  0  0  0  0  0  0  0  0  0  0  0
  2  1  1  6
  2  3  1  0
  3  4  1  0
  4  5  2  0
  5  6  1  0
  7  6  1  0
  8  4  1  0
  8  7  2  0
  9  2  1  0
 10  9  2  0
 11 12  1  0
 13 12  1  0
 15 14  1  1
 14 13  1  0
 15 16  1  0
 16  9  1  0
 17 18  2  0
 17 15  1  0
 20 22  1  0
 20 19  1  1
 21 20  1  0
 22 23  1  1
 23 17  1  0
 24 22  1  0
 25 24  1  0
 26 24  2  0
M  END
$$$$
