HMT.pdb
     RDKit          3D

 26 26  0  0  1  0  0  0  0  0999 V2000
   20.8947  -12.2347  -18.3192 N   0  0  0  0  0  0  0  0  0  0  0  0
   21.3448  -10.8803  -18.4685 C   0  0  1  0  0  0  0  0  0  0  0  0
   20.1605  -10.0523  -18.9664 C   0  0  0  0  0  0  0  0  0  0  0  0
   19.7837  -10.4677  -20.3333 C   0  0  0  0  0  0  0  0  0  0  0  0
   20.5439  -10.5082  -21.4782 C   0  0  0  0  0  0  0  0  0  0  0  0
   19.7847  -10.9531  -22.4911 N   0  0  0  0  0  0  0  0  0  0  0  0
   18.5683  -11.1925  -22.0104 C   0  0  0  0  0  0  0  0  0  0  0  0
   18.5656  -10.8944  -20.6828 N   0  0  0  0  0  0  0  0  0  0  0  0
   21.8564  -10.2990  -17.2007 C   0  0  0  0  0  0  0  0  0  0  0  0
   21.2243  -10.5725  -16.1563 O   0  0  0  0  0  0  0  0  0  0  0  0
   27.3564  -12.6860  -15.0172 C   0  0  0  0  0  0  0  0  0  0  0  0
   27.0256  -10.9361  -15.3607 S   0  0  0  0  0  0  0  0  0  0  0  0
   25.2564  -10.6706  -15.6164 C   0  0  0  0  0  0  0  0  0  0  0  0
   24.9880   -9.1993  -15.8043 C   0  0  0  0  0  0  0  0  0  0  0  0
   23.5231   -8.9066  -15.9797 C   0  0  2  0  0  0  0  0  0  0  0  0
   23.0063   -9.4757  -17.1888 N   0  0  0  0  0  0  0  0  0  0  0  0
   23.2585   -7.4333  -15.9446 C   0  0  0  0  0  0  0  0  0  0  0  0
   23.7176   -6.6127  -16.7714 O   0  0  0  0  0  0  0  0  0  0  0  0
   20.4665   -5.6190  -16.5980 C   0  0  0  0  0  0  0  0  0  0  0  0
   20.7447   -5.2294  -15.1817 C   0  0  1  0  0  0  0  0  0  0  0  0
   19.8540   -5.9180  -14.3604 O   0  0  0  0  0  0  0  0  0  0  0  0
   22.1823   -5.4812  -14.7692 C   0  0  2  0  0  0  0  0  0  0  0  0
   22.4331   -6.8802  -14.9182 N   0  0  0  0  0  0  0  0  0  0  0  0
   22.5057   -4.9372  -13.4563 C   0  0  0  0  0  0  0  0  0  0  0  0
   22.4963   -3.5670  -13.2302 O   0  0  0  0  0  0  0  0  0  0  0  0
   22.8095   -5.6499  -12.4561 O   0  0  0  0  0  0  0  0  0  0  0  0
  2  1  1  1
  2  3  1  0
  3  4  1  0
  4  5  2  0
  5  6  1  0
  7  6  1  0
  8  4  1  0
  8  7  2  0
  9  2  1  0
 10  9  2  0
 11 12  1  0
 13 12  1  0
 15 14  1  6
 14 13  1  0
 15 16  1  0
 16  9  1  0
 17 18  2  0
 17 15  1  0
 20 22  1  0
 20 19  1  6
 21 20  1  0
 22 23  1  1
 23 17  1  0
 24 22  1  0
 25 24  1  0
 26 24  2  0
M  END
$$$$
