HMT.pdb
     RDKit          3D

 26 26  0  0  1  0  0  0  0  0999 V2000
   23.1503  -20.5625  -14.1099 N   0  0  0  0  0  0  0  0  0  0  0  0
   22.3938  -19.9408  -13.0608 C   0  0  1  0  0  0  0  0  0  0  0  0
   20.9705  -19.7341  -13.5781 C   0  0  0  0  0  0  0  0  0  0  0  0
   20.9762  -18.8291  -14.7458 C   0  0  0  0  0  0  0  0  0  0  0  0
   20.7206  -19.1031  -16.0687 C   0  0  0  0  0  0  0  0  0  0  0  0
   20.8412  -17.9720  -16.7803 N   0  0  0  0  0  0  0  0  0  0  0  0
   21.1657  -16.9962  -15.9374 C   0  0  0  0  0  0  0  0  0  0  0  0
   21.2493  -17.5215  -14.6850 N   0  0  0  0  0  0  0  0  0  0  0  0
   22.3551  -20.7534  -11.8178 C   0  0  0  0  0  0  0  0  0  0  0  0
   21.8877  -21.9101  -11.9113 O   0  0  0  0  0  0  0  0  0  0  0  0
   26.1648  -20.5308   -6.0046 C   0  0  0  0  0  0  0  0  0  0  0  0
   26.4123  -19.8732   -7.6767 S   0  0  0  0  0  0  0  0  0  0  0  0
   25.2936  -20.6841   -8.8415 C   0  0  0  0  0  0  0  0  0  0  0  0
   23.8670  -20.4707   -8.4042 C   0  0  0  0  0  0  0  0  0  0  0  0
   22.8798  -21.0208   -9.3969 C   0  0  2  0  0  0  0  0  0  0  0  0
   22.8281  -20.2313  -10.5914 N   0  0  0  0  0  0  0  0  0  0  0  0
   21.5149  -21.1389   -8.7928 C   0  0  0  0  0  0  0  0  0  0  0  0
   20.7700  -20.1664   -8.5335 O   0  0  0  0  0  0  0  0  0  0  0  0
   19.4234  -24.6687   -9.3772 C   0  0  0  0  0  0  0  0  0  0  0  0
   18.8525  -23.3447   -8.9816 C   0  0  1  0  0  0  0  0  0  0  0  0
   17.5449  -23.5502   -8.5456 O   0  0  0  0  0  0  0  0  0  0  0  0
   19.6797  -22.6337   -7.9279 C   0  0  2  0  0  0  0  0  0  0  0  0
   20.9841  -22.4261   -8.4737 N   0  0  0  0  0  0  0  0  0  0  0  0
   19.6566  -23.3027   -6.6332 C   0  0  0  0  0  0  0  0  0  0  0  0
   20.8251  -23.7875   -6.0602 O   0  0  0  0  0  0  0  0  0  0  0  0
   18.6038  -23.4861   -5.9560 O   0  0  0  0  0  0  0  0  0  0  0  0
  2  1  1  6
  2  3  1  0
  3  4  1  0
  4  5  2  0
  5  6  1  0
  7  6  1  0
  8  4  1  0
  8  7  2  0
  9  2  1  0
 10  9  2  0
 11 12  1  0
 13 12  1  0
 15 14  1  1
 14 13  1  0
 15 16  1  0
 16  9  1  0
 17 18  2  0
 17 15  1  0
 20 22  1  0
 20 19  1  1
 21 20  1  0
 22 23  1  6
 23 17  1  0
 24 22  1  0
 25 24  1  0
 26 24  2  0
M  END
$$$$
