HMT.pdb
     RDKit          3D

 26 26  0  0  1  0  0  0  0  0999 V2000
   16.8697   -8.2404  -14.2093 N   0  0  0  0  0  0  0  0  0  0  0  0
   15.8253   -9.0140  -14.8175 C   0  0  1  0  0  0  0  0  0  0  0  0
   16.4563  -10.2962  -15.3599 C   0  0  0  0  0  0  0  0  0  0  0  0
   17.3652   -9.9846  -16.4822 C   0  0  0  0  0  0  0  0  0  0  0  0
   17.0754   -9.7461  -17.8049 C   0  0  0  0  0  0  0  0  0  0  0  0
   18.2179   -9.5054  -18.4659 N   0  0  0  0  0  0  0  0  0  0  0  0
   19.2163   -9.5868  -17.5915 C   0  0  0  0  0  0  0  0  0  0  0  0
   18.6937   -9.8816  -16.3703 N   0  0  0  0  0  0  0  0  0  0  0  0
   14.7370   -9.3619  -13.8679 C   0  0  0  0  0  0  0  0  0  0  0  0
   15.0791   -9.6990  -12.7128 O   0  0  0  0  0  0  0  0  0  0  0  0
   11.0941   -4.6407  -11.5130 C   0  0  0  0  0  0  0  0  0  0  0  0
   10.5103   -6.0792  -12.4509 S   0  0  0  0  0  0  0  0  0  0  0  0
   11.7784   -7.3666  -12.4786 C   0  0  0  0  0  0  0  0  0  0  0  0
   11.2891   -8.5407  -13.2872 C   0  0  0  0  0  0  0  0  0  0  0  0
   12.3120   -9.6406  -13.3687 C   0  0  2  0  0  0  0  0  0  0  0  0
   13.3804   -9.3102  -14.2645 N   0  0  0  0  0  0  0  0  0  0  0  0
   11.6802  -10.9374  -13.7698 C   0  0  0  0  0  0  0  0  0  0  0  0
   11.2815  -11.2015  -14.9270 O   0  0  0  0  0  0  0  0  0  0  0  0
   12.8030  -14.1252  -14.2174 C   0  0  0  0  0  0  0  0  0  0  0  0
   11.7984  -14.3077  -13.1253 C   0  0  1  0  0  0  0  0  0  0  0  0
   12.4874  -14.4391  -11.9210 O   0  0  0  0  0  0  0  0  0  0  0  0
   10.7833  -13.1827  -13.0596 C   0  0  2  0  0  0  0  0  0  0  0  0
   11.4990  -11.9728  -12.8025 N   0  0  0  0  0  0  0  0  0  0  0  0
    9.6865  -13.4533  -12.1387 C   0  0  0  0  0  0  0  0  0  0  0  0
    9.4769  -12.6516  -11.0243 O   0  0  0  0  0  0  0  0  0  0  0  0
    8.8693  -14.4087  -12.2810 O   0  0  0  0  0  0  0  0  0  0  0  0
  2  1  1  1
  2  3  1  0
  3  4  1  0
  4  5  2  0
  5  6  1  0
  7  6  1  0
  8  4  1  0
  8  7  2  0
  9  2  1  0
 10  9  2  0
 11 12  1  0
 13 12  1  0
 15 14  1  6
 14 13  1  0
 15 16  1  0
 16  9  1  0
 17 18  2  0
 17 15  1  0
 20 22  1  0
 20 19  1  6
 21 20  1  0
 22 23  1  1
 23 17  1  0
 24 22  1  0
 25 24  1  0
 26 24  2  0
M  END
$$$$
