HMT.pdb
     RDKit          3D

 26 26  0  0  1  0  0  0  0  0999 V2000
   21.6948  -22.4449  -14.5979 N   0  0  0  0  0  0  0  0  0  0  0  0
   21.2237  -21.2107  -14.0375 C   0  0  1  0  0  0  0  0  0  0  0  0
   20.0375  -21.5381  -13.1310 C   0  0  0  0  0  0  0  0  0  0  0  0
   18.8951  -22.0180  -13.9356 C   0  0  0  0  0  0  0  0  0  0  0  0
   18.7374  -22.0525  -15.3010 C   0  0  0  0  0  0  0  0  0  0  0  0
   17.5343  -22.5719  -15.5887 N   0  0  0  0  0  0  0  0  0  0  0  0
   16.9339  -22.8639  -14.4388 C   0  0  0  0  0  0  0  0  0  0  0  0
   17.7697  -22.5238  -13.4204 N   0  0  0  0  0  0  0  0  0  0  0  0
   22.2647  -20.4990  -13.2521 C   0  0  0  0  0  0  0  0  0  0  0  0
   21.9306  -19.4191  -12.7161 O   0  0  0  0  0  0  0  0  0  0  0  0
   24.4774  -21.1605   -8.0205 C   0  0  0  0  0  0  0  0  0  0  0  0
   26.1381  -20.8685   -8.6885 S   0  0  0  0  0  0  0  0  0  0  0  0
   26.0324  -20.2388  -10.3791 C   0  0  0  0  0  0  0  0  0  0  0  0
   24.9717  -20.9970  -11.1355 C   0  0  0  0  0  0  0  0  0  0  0  0
   24.6119  -20.3284  -12.4340 C   0  0  2  0  0  0  0  0  0  0  0  0
   23.5697  -21.0289  -13.1240 N   0  0  0  0  0  0  0  0  0  0  0  0
   25.8120  -20.1818  -13.3171 C   0  0  0  0  0  0  0  0  0  0  0  0
   26.8700  -19.6021  -12.9816 O   0  0  0  0  0  0  0  0  0  0  0  0
   28.1446  -22.3701  -14.8036 C   0  0  0  0  0  0  0  0  0  0  0  0
   27.4811  -21.7279  -15.9795 C   0  0  1  0  0  0  0  0  0  0  0  0
   26.5909  -22.6480  -16.5300 O   0  0  0  0  0  0  0  0  0  0  0  0
   26.7835  -20.4275  -15.6293 C   0  0  2  0  0  0  0  0  0  0  0  0
   25.7963  -20.7228  -14.6390 N   0  0  0  0  0  0  0  0  0  0  0  0
   26.2851  -19.7119  -16.7970 C   0  0  0  0  0  0  0  0  0  0  0  0
   27.1457  -19.3194  -17.8138 O   0  0  0  0  0  0  0  0  0  0  0  0
   25.0696  -19.4042  -16.9663 O   0  0  0  0  0  0  0  0  0  0  0  0
  2  1  1  1
  2  3  1  0
  3  4  1  0
  4  5  2  0
  5  6  1  0
  7  6  1  0
  8  4  1  0
  8  7  2  0
  9  2  1  0
 10  9  2  0
 11 12  1  0
 13 12  1  0
 15 14  1  1
 14 13  1  0
 15 16  1  0
 16  9  1  0
 17 18  2  0
 17 15  1  0
 20 22  1  0
 20 19  1  1
 21 20  1  0
 22 23  1  1
 23 17  1  0
 24 22  1  0
 25 24  1  0
 26 24  2  0
M  END
$$$$
