HMT.pdb
     RDKit          3D

 26 26  0  0  1  0  0  0  0  0999 V2000
   13.5288  -11.3417  -11.6627 N   0  0  0  0  0  0  0  0  0  0  0  0
   14.9408  -11.0865  -11.6466 C   0  0  1  0  0  0  0  0  0  0  0  0
   15.5652  -11.8723  -12.7994 C   0  0  0  0  0  0  0  0  0  0  0  0
   15.4602  -13.3240  -12.5458 C   0  0  0  0  0  0  0  0  0  0  0  0
   16.3981  -14.1972  -12.0475 C   0  0  0  0  0  0  0  0  0  0  0  0
   15.8627  -15.4259  -11.9872 N   0  0  0  0  0  0  0  0  0  0  0  0
   14.6132  -15.3453  -12.4349 C   0  0  0  0  0  0  0  0  0  0  0  0
   14.3636  -14.0528  -12.7791 N   0  0  0  0  0  0  0  0  0  0  0  0
   15.2686   -9.6452  -11.7960 C   0  0  0  0  0  0  0  0  0  0  0  0
   14.6080   -8.9982  -12.6386 O   0  0  0  0  0  0  0  0  0  0  0  0
   15.9139   -5.7430   -6.8173 C   0  0  0  0  0  0  0  0  0  0  0  0
   14.6120   -6.5921   -7.7519 S   0  0  0  0  0  0  0  0  0  0  0  0
   15.3413   -7.6664   -9.0089 C   0  0  0  0  0  0  0  0  0  0  0  0
   16.0562   -6.8279  -10.0375 C   0  0  0  0  0  0  0  0  0  0  0  0
   16.6301   -7.6609  -11.1507 C   0  0  2  0  0  0  0  0  0  0  0  0
   16.2833   -9.0445  -11.0151 N   0  0  0  0  0  0  0  0  0  0  0  0
   18.1168   -7.5036  -11.2321 C   0  0  0  0  0  0  0  0  0  0  0  0
   18.9231   -7.9593  -10.3894 O   0  0  0  0  0  0  0  0  0  0  0  0
   22.0189   -7.5976  -13.8264 C   0  0  0  0  0  0  0  0  0  0  0  0
   20.5480   -7.6355  -13.5613 C   0  0  1  0  0  0  0  0  0  0  0  0
   20.2070   -8.9371  -13.1983 O   0  0  0  0  0  0  0  0  0  0  0  0
   20.1098   -6.6366  -12.5074 C   0  0  2  0  0  0  0  0  0  0  0  0
   18.7011   -6.7942  -12.3256 N   0  0  0  0  0  0  0  0  0  0  0  0
   20.5421   -5.2745  -12.7938 C   0  0  0  0  0  0  0  0  0  0  0  0
   21.8614   -4.8885  -12.5956 O   0  0  0  0  0  0  0  0  0  0  0  0
   19.7722   -4.3704  -13.2304 O   0  0  0  0  0  0  0  0  0  0  0  0
  2  1  1  6
  2  3  1  0
  3  4  1  0
  4  5  2  0
  5  6  1  0
  7  6  1  0
  8  4  1  0
  8  7  2  0
  9  2  1  0
 10  9  2  0
 11 12  1  0
 13 12  1  0
 15 14  1  1
 14 13  1  0
 15 16  1  0
 16  9  1  0
 17 18  2  0
 17 15  1  0
 20 22  1  0
 20 19  1  1
 21 20  1  0
 22 23  1  6
 23 17  1  0
 24 22  1  0
 25 24  1  0
 26 24  2  0
M  END
$$$$
