HMT.pdb
     RDKit          3D

 26 26  0  0  1  0  0  0  0  0999 V2000
   15.6029   -6.8053   -9.2005 N   0  0  0  0  0  0  0  0  0  0  0  0
   15.9945   -7.8191  -10.1376 C   0  0  1  0  0  0  0  0  0  0  0  0
   14.7350   -8.2835  -10.8685 C   0  0  0  0  0  0  0  0  0  0  0  0
   13.8818   -9.0803   -9.9630 C   0  0  0  0  0  0  0  0  0  0  0  0
   13.9265  -10.4234   -9.6723 C   0  0  0  0  0  0  0  0  0  0  0  0
   12.9555  -10.7125   -8.7927 N   0  0  0  0  0  0  0  0  0  0  0  0
   12.3033   -9.5851   -8.5247 C   0  0  0  0  0  0  0  0  0  0  0  0
   12.8718   -8.5796   -9.2439 N   0  0  0  0  0  0  0  0  0  0  0  0
   16.9910   -7.3358  -11.1279 C   0  0  0  0  0  0  0  0  0  0  0  0
   16.9233   -6.1311  -11.4581 O   0  0  0  0  0  0  0  0  0  0  0  0
   24.0985   -7.9318  -14.3322 C   0  0  0  0  0  0  0  0  0  0  0  0
   22.8992   -8.4879  -13.0905 S   0  0  0  0  0  0  0  0  0  0  0  0
   21.2589   -7.8270  -13.4626 C   0  0  0  0  0  0  0  0  0  0  0  0
   20.2692   -8.3260  -12.4411 C   0  0  0  0  0  0  0  0  0  0  0  0
   18.8845   -7.7902  -12.6821 C   0  0  2  0  0  0  0  0  0  0  0  0
   17.9661   -8.2082  -11.6648 N   0  0  0  0  0  0  0  0  0  0  0  0
   18.3787   -8.1884  -14.0339 C   0  0  0  0  0  0  0  0  0  0  0  0
   18.0404   -9.3525  -14.3474 O   0  0  0  0  0  0  0  0  0  0  0  0
   16.3145   -6.7359  -18.2152 C   0  0  0  0  0  0  0  0  0  0  0  0
   16.7776   -6.5496  -16.8059 C   0  0  1  0  0  0  0  0  0  0  0  0
   15.6710   -6.6695  -15.9672 O   0  0  0  0  0  0  0  0  0  0  0  0
   17.8765   -7.5172  -16.4104 C   0  0  2  0  0  0  0  0  0  0  0  0
   18.2566   -7.2099  -15.0674 N   0  0  0  0  0  0  0  0  0  0  0  0
   18.9771   -7.5560  -17.3650 C   0  0  0  0  0  0  0  0  0  0  0  0
   20.0007   -6.6189  -17.3116 O   0  0  0  0  0  0  0  0  0  0  0  0
   19.0792   -8.4188  -18.2847 O   0  0  0  0  0  0  0  0  0  0  0  0
  2  1  1  1
  2  3  1  0
  3  4  1  0
  4  5  2  0
  5  6  1  0
  7  6  1  0
  8  4  1  0
  8  7  2  0
  9  2  1  0
 10  9  2  0
 11 12  1  0
 13 12  1  0
 15 14  1  1
 14 13  1  0
 15 16  1  0
 16  9  1  0
 17 18  2  0
 17 15  1  0
 20 22  1  0
 20 19  1  6
 21 20  1  0
 22 23  1  1
 23 17  1  0
 24 22  1  0
 25 24  1  0
 26 24  2  0
M  END
$$$$
