IQF.pdb
     RDKit          3D

 29 29  0  0  1  0  0  0  0  0999 V2000
    7.7713  -12.0452   18.8803 C   0  0  0  0  0  0  0  0  0  0  0  0
    7.7724  -13.5624   18.6868 C   0  0  0  0  0  0  0  0  0  0  0  0
    7.5254  -14.1843   20.0170 C   0  0  2  0  0  0  0  0  0  0  0  0
    8.5384  -13.6651   21.0255 C   0  0  0  0  0  0  0  0  0  0  0  0
    7.3825  -15.6584   20.0585 C   0  0  2  0  0  0  0  0  0  0  0  0
    6.4397  -16.0512   18.9764 N   0  0  0  0  0  0  0  0  0  0  0  0
    6.9337  -16.2956   21.2843 C   0  0  0  0  0  0  0  0  0  0  0  0
    5.7566  -16.0157   21.7254 O   0  0  0  0  0  0  0  0  0  0  0  0
    6.9536  -21.3281   25.0473 N   0  0  0  0  0  0  0  0  0  0  0  0
    7.9643  -21.1938   24.0763 C   0  0  0  0  0  0  0  0  0  0  0  0
    8.7700  -22.1668   23.9298 O   0  0  0  0  0  0  0  0  0  0  0  0
    8.0844  -19.9496   23.2446 C   0  0  0  0  0  0  0  0  0  0  0  0
    6.9386  -19.0215   23.4931 C   0  0  0  0  0  0  0  0  0  0  0  0
    7.3560  -17.5501   23.4614 C   0  0  2  0  0  0  0  0  0  0  0  0
    7.6350  -17.2219   22.0877 N   0  0  0  0  0  0  0  0  0  0  0  0
    8.3731  -17.2735   24.4449 C   0  0  0  0  0  0  0  0  0  0  0  0
    9.5862  -17.5199   24.0990 O   0  0  0  0  0  0  0  0  0  0  0  0
    8.2277  -16.7656   25.7579 N   0  0  0  0  0  0  0  0  0  0  0  0
    9.3985  -16.3348   26.5056 C   0  0  1  0  0  0  0  0  0  0  0  0
    9.7001  -14.8964   26.4897 C   0  0  0  0  0  0  0  0  0  0  0  0
    8.5906  -13.9561   26.5941 C   0  0  0  0  0  0  0  0  0  0  0  0
    8.4933  -13.1522   27.7143 C   0  0  0  0  0  0  0  0  0  0  0  0
    7.4672  -12.2294   27.8905 C   0  0  0  0  0  0  0  0  0  0  0  0
    6.5009  -12.0929   26.9255 C   0  0  0  0  0  0  0  0  0  0  0  0
    6.5804  -12.8843   25.8016 C   0  0  0  0  0  0  0  0  0  0  0  0
    7.6223  -13.8125   25.6360 C   0  0  0  0  0  0  0  0  0  0  0  0
    9.2974  -16.8647   27.9179 C   0  0  0  0  0  0  0  0  0  0  0  0
   10.3682  -16.7327   28.7407 O   0  0  0  0  0  0  0  0  0  0  0  0
    8.2482  -17.4008   28.2779 O   0  0  0  0  0  0  0  0  0  0  0  0
  2  3  1  0
  2  1  1  0
  3  5  1  0
  3  4  1  1
  5  7  1  0
  5  6  1  6
  7  8  2  0
  7 15  1  0
  9 10  1  0
 10 11  2  0
 10 12  1  0
 12 13  1  0
 14 13  1  6
 14 16  1  0
 15 14  1  0
 16 17  2  0
 18 16  1  0
 18 19  1  0
 19 27  1  0
 19 20  1  1
 21 26  2  0
 21 20  1  0
 22 21  1  0
 23 24  1  0
 23 22  2  0
 24 25  2  0
 25 26  1  0
 27 28  1  0
 29 27  2  0
M  END
$$$$
