IQF.pdb
     RDKit          3D

 29 29  0  0  1  0  0  0  0  0999 V2000
    8.4938  -11.5403   19.8062 C   0  0  0  0  0  0  0  0  0  0  0  0
    7.8839  -12.9219   19.5644 C   0  0  0  0  0  0  0  0  0  0  0  0
    8.2850  -13.7947   20.7022 C   0  0  2  0  0  0  0  0  0  0  0  0
    9.7805  -13.6675   20.9478 C   0  0  0  0  0  0  0  0  0  0  0  0
    7.8301  -15.2042   20.6667 C   0  0  2  0  0  0  0  0  0  0  0  0
    6.3646  -15.1992   20.4090 N   0  0  0  0  0  0  0  0  0  0  0  0
    8.0705  -16.0588   21.8164 C   0  0  0  0  0  0  0  0  0  0  0  0
    7.1098  -16.2452   22.6534 O   0  0  0  0  0  0  0  0  0  0  0  0
    9.0713  -21.0679   22.9036 N   0  0  0  0  0  0  0  0  0  0  0  0
    9.4231  -20.6010   21.6227 C   0  0  0  0  0  0  0  0  0  0  0  0
    9.0672  -21.3035   20.6241 O   0  0  0  0  0  0  0  0  0  0  0  0
   10.1878  -19.3215   21.4434 C   0  0  0  0  0  0  0  0  0  0  0  0
   10.5014  -18.6908   22.7625 C   0  0  0  0  0  0  0  0  0  0  0  0
    9.4222  -17.7052   23.2145 C   0  0  2  0  0  0  0  0  0  0  0  0
    9.2575  -16.7464   22.1533 N   0  0  0  0  0  0  0  0  0  0  0  0
    9.6892  -17.2091   24.5414 C   0  0  0  0  0  0  0  0  0  0  0  0
    9.8281  -18.0915   25.4654 O   0  0  0  0  0  0  0  0  0  0  0  0
    9.8188  -15.8704   24.9824 N   0  0  0  0  0  0  0  0  0  0  0  0
    9.8519  -15.5730   26.4057 C   0  0  1  0  0  0  0  0  0  0  0  0
    8.5553  -15.4797   27.0914 C   0  0  0  0  0  0  0  0  0  0  0  0
    7.6451  -14.4076   26.7066 C   0  0  0  0  0  0  0  0  0  0  0  0
    6.3391  -14.7194   26.3780 C   0  0  0  0  0  0  0  0  0  0  0  0
    5.4082  -13.7564   26.0017 C   0  0  0  0  0  0  0  0  0  0  0  0
    5.7782  -12.4358   25.9481 C   0  0  0  0  0  0  0  0  0  0  0  0
    7.0747  -12.1046   26.2724 C   0  0  0  0  0  0  0  0  0  0  0  0
    8.0051  -13.0872   26.6511 C   0  0  0  0  0  0  0  0  0  0  0  0
   10.7709  -16.5600   27.0889 C   0  0  0  0  0  0  0  0  0  0  0  0
   11.0396  -16.3932   28.4084 O   0  0  0  0  0  0  0  0  0  0  0  0
   11.2486  -17.4833   26.4278 O   0  0  0  0  0  0  0  0  0  0  0  0
  2  3  1  0
  2  1  1  0
  3  5  1  0
  3  4  1  6
  5  7  1  0
  5  6  1  1
  7  8  2  0
  7 15  1  0
  9 10  1  0
 10 11  2  0
 10 12  1  0
 12 13  1  0
 14 13  1  6
 14 16  1  0
 15 14  1  0
 16 17  2  0
 18 16  1  0
 18 19  1  0
 19 27  1  0
 19 20  1  1
 21 26  2  0
 21 20  1  0
 22 21  1  0
 23 24  1  0
 23 22  2  0
 24 25  2  0
 25 26  1  0
 27 28  1  0
 29 27  2  0
M  END
$$$$
