IQF.pdb
     RDKit          3D

 29 29  0  0  1  0  0  0  0  0999 V2000
    6.2292  -11.9828   26.0825 C   0  0  0  0  0  0  0  0  0  0  0  0
    5.8387  -13.4116   25.7014 C   0  0  0  0  0  0  0  0  0  0  0  0
    7.0348  -14.0560   25.0921 C   0  0  2  0  0  0  0  0  0  0  0  0
    7.6328  -13.1398   24.0358 C   0  0  0  0  0  0  0  0  0  0  0  0
    6.8835  -15.4515   24.6180 C   0  0  2  0  0  0  0  0  0  0  0  0
    6.0126  -16.1665   25.5898 N   0  0  0  0  0  0  0  0  0  0  0  0
    8.0689  -16.2649   24.4100 C   0  0  0  0  0  0  0  0  0  0  0  0
    8.2151  -17.3287   25.1209 O   0  0  0  0  0  0  0  0  0  0  0  0
   10.7769  -17.2016   18.7992 N   0  0  0  0  0  0  0  0  0  0  0  0
   11.8394  -17.3990   19.7018 C   0  0  0  0  0  0  0  0  0  0  0  0
   13.0204  -17.3823   19.2303 O   0  0  0  0  0  0  0  0  0  0  0  0
   11.5868  -17.6190   21.1653 C   0  0  0  0  0  0  0  0  0  0  0  0
   10.4897  -16.7330   21.6628 C   0  0  0  0  0  0  0  0  0  0  0  0
   10.1554  -16.9810   23.1349 C   0  0  2  0  0  0  0  0  0  0  0  0
    9.1222  -16.0454   23.4947 N   0  0  0  0  0  0  0  0  0  0  0  0
   11.3484  -17.0181   23.9434 C   0  0  0  0  0  0  0  0  0  0  0  0
   12.2855  -17.8024   23.5454 O   0  0  0  0  0  0  0  0  0  0  0  0
   11.6408  -16.3083   25.1324 N   0  0  0  0  0  0  0  0  0  0  0  0
   11.9511  -17.0327   26.3549 C   0  0  1  0  0  0  0  0  0  0  0  0
   10.9211  -17.0310   27.4033 C   0  0  0  0  0  0  0  0  0  0  0  0
   10.4206  -15.7467   27.8789 C   0  0  0  0  0  0  0  0  0  0  0  0
   11.2370  -14.9565   28.6661 C   0  0  0  0  0  0  0  0  0  0  0  0
   10.8363  -13.7188   29.1592 C   0  0  0  0  0  0  0  0  0  0  0  0
    9.5838  -13.2413   28.8642 C   0  0  0  0  0  0  0  0  0  0  0  0
    8.7556  -14.0133   28.0807 C   0  0  0  0  0  0  0  0  0  0  0  0
    9.1728  -15.2619   27.5891 C   0  0  0  0  0  0  0  0  0  0  0  0
   12.3735  -18.4389   25.9946 C   0  0  0  0  0  0  0  0  0  0  0  0
   12.3673  -18.8056   24.6883 O   0  0  0  0  0  0  0  0  0  0  0  0
   12.7084  -19.2084   26.8965 O   0  0  0  0  0  0  0  0  0  0  0  0
  2  3  1  0
  2  1  1  0
  3  5  1  0
  3  4  1  6
  5  7  1  0
  5  6  1  1
  7  8  2  0
  7 15  1  0
  9 10  1  0
 10 11  2  0
 10 12  1  0
 12 13  1  0
 14 13  1  6
 14 16  1  0
 15 14  1  0
 16 17  2  0
 18 16  1  0
 18 19  1  0
 19 27  1  0
 19 20  1  1
 21 26  2  0
 21 20  1  0
 22 21  1  0
 23 24  1  0
 23 22  2  0
 24 25  2  0
 25 26  1  0
 27 28  1  0
 29 27  2  0
M  END
$$$$
