IQF.pdb
     RDKit          3D

 29 29  0  0  1  0  0  0  0  0999 V2000
    8.0699  -11.8291   20.8750 C   0  0  0  0  0  0  0  0  0  0  0  0
    7.7725  -13.3275   20.9520 C   0  0  0  0  0  0  0  0  0  0  0  0
    8.2500  -13.9452   19.6840 C   0  0  2  0  0  0  0  0  0  0  0  0
    7.6696  -13.1961   18.4946 C   0  0  0  0  0  0  0  0  0  0  0  0
    8.1144  -15.4148   19.5546 C   0  0  2  0  0  0  0  0  0  0  0  0
    6.6648  -15.7246   19.4239 N   0  0  0  0  0  0  0  0  0  0  0  0
    8.6546  -16.2737   20.5941 C   0  0  0  0  0  0  0  0  0  0  0  0
    7.9006  -16.5754   21.5935 O   0  0  0  0  0  0  0  0  0  0  0  0
   12.8412  -20.7060   20.3249 N   0  0  0  0  0  0  0  0  0  0  0  0
   13.0141  -20.3844   21.6848 C   0  0  0  0  0  0  0  0  0  0  0  0
   13.6824  -21.1970   22.3993 O   0  0  0  0  0  0  0  0  0  0  0  0
   12.4329  -19.1289   22.2677 C   0  0  0  0  0  0  0  0  0  0  0  0
   11.7418  -18.3167   21.2195 C   0  0  0  0  0  0  0  0  0  0  0  0
   10.4765  -17.6347   21.7432 C   0  0  2  0  0  0  0  0  0  0  0  0
    9.9416  -16.8521   20.6597 N   0  0  0  0  0  0  0  0  0  0  0  0
   10.7205  -16.9741   23.0011 C   0  0  0  0  0  0  0  0  0  0  0  0
   11.1975  -15.7823   22.9388 O   0  0  0  0  0  0  0  0  0  0  0  0
   10.5116  -17.4560   24.3154 N   0  0  0  0  0  0  0  0  0  0  0  0
   10.4036  -16.5214   25.4247 C   0  0  1  0  0  0  0  0  0  0  0  0
    9.4755  -15.3951   25.2516 C   0  0  0  0  0  0  0  0  0  0  0  0
    9.2281  -14.5213   26.3924 C   0  0  0  0  0  0  0  0  0  0  0  0
   10.2486  -14.2889   27.2954 C   0  0  0  0  0  0  0  0  0  0  0  0
   10.0951  -13.4683   28.4084 C   0  0  0  0  0  0  0  0  0  0  0  0
    8.8905  -12.8526   28.6396 C   0  0  0  0  0  0  0  0  0  0  0  0
    7.8615  -13.0709   27.7512 C   0  0  0  0  0  0  0  0  0  0  0  0
    8.0299  -13.9021   26.6307 C   0  0  0  0  0  0  0  0  0  0  0  0
   10.1056  -17.2966   26.6880 C   0  0  0  0  0  0  0  0  0  0  0  0
   10.9231  -17.1347   27.7588 O   0  0  0  0  0  0  0  0  0  0  0  0
    9.1324  -18.0517   26.7064 O   0  0  0  0  0  0  0  0  0  0  0  0
  2  3  1  0
  2  1  1  0
  3  5  1  0
  3  4  1  6
  5  7  1  0
  5  6  1  1
  7  8  2  0
  7 15  1  0
  9 10  1  0
 10 11  2  0
 10 12  1  0
 12 13  1  0
 14 13  1  6
 14 16  1  0
 15 14  1  0
 16 17  2  0
 18 16  1  0
 18 19  1  0
 19 27  1  0
 19 20  1  6
 21 26  2  0
 21 20  1  0
 22 21  1  0
 23 24  1  0
 23 22  2  0
 24 25  2  0
 25 26  1  0
 27 28  1  0
 29 27  2  0
M  END
$$$$
