IQF.pdb
     RDKit          3D

 29 29  0  0  1  0  0  0  0  0999 V2000
    7.1404  -11.6744   19.3322 C   0  0  0  0  0  0  0  0  0  0  0  0
    7.4634  -13.0966   18.8715 C   0  0  0  0  0  0  0  0  0  0  0  0
    7.9123  -13.8640   20.0660 C   0  0  2  0  0  0  0  0  0  0  0  0
    9.0406  -13.1198   20.7632 C   0  0  0  0  0  0  0  0  0  0  0  0
    8.2105  -15.3023   19.8732 C   0  0  2  0  0  0  0  0  0  0  0  0
    7.0217  -15.9280   19.2333 N   0  0  0  0  0  0  0  0  0  0  0  0
    8.5689  -16.1151   21.0225 C   0  0  0  0  0  0  0  0  0  0  0  0
    7.6228  -16.6109   21.7418 O   0  0  0  0  0  0  0  0  0  0  0  0
   12.8218  -20.1136   21.7281 N   0  0  0  0  0  0  0  0  0  0  0  0
   12.6944  -19.8548   23.1063 C   0  0  0  0  0  0  0  0  0  0  0  0
   13.1153  -20.7446   23.9116 O   0  0  0  0  0  0  0  0  0  0  0  0
   12.0864  -18.5759   23.6052 C   0  0  0  0  0  0  0  0  0  0  0  0
   11.6289  -17.7169   22.4699 C   0  0  0  0  0  0  0  0  0  0  0  0
   10.1871  -17.2349   22.6410 C   0  0  2  0  0  0  0  0  0  0  0  0
    9.8630  -16.4561   21.4744 N   0  0  0  0  0  0  0  0  0  0  0  0
    9.9868  -16.6329   23.9355 C   0  0  0  0  0  0  0  0  0  0  0  0
    9.9071  -15.3505   23.9644 O   0  0  0  0  0  0  0  0  0  0  0  0
    9.8671  -17.2582   25.1996 N   0  0  0  0  0  0  0  0  0  0  0  0
    9.2612  -16.5423   26.3113 C   0  0  1  0  0  0  0  0  0  0  0  0
    7.8429  -16.1833   26.1715 C   0  0  0  0  0  0  0  0  0  0  0  0
    7.4901  -14.7698   26.1115 C   0  0  0  0  0  0  0  0  0  0  0  0
    8.0602  -13.8952   27.0175 C   0  0  0  0  0  0  0  0  0  0  0  0
    7.7778  -12.5330   27.0270 C   0  0  0  0  0  0  0  0  0  0  0  0
    6.9010  -12.0127   26.1081 C   0  0  0  0  0  0  0  0  0  0  0  0
    6.3230  -12.8676   25.1966 C   0  0  0  0  0  0  0  0  0  0  0  0
    6.6170  -14.2417   25.1978 C   0  0  0  0  0  0  0  0  0  0  0  0
    9.5146  -17.3158   27.5854 C   0  0  0  0  0  0  0  0  0  0  0  0
    9.3441  -16.6849   28.7744 O   0  0  0  0  0  0  0  0  0  0  0  0
    9.8693  -18.4929   27.5055 O   0  0  0  0  0  0  0  0  0  0  0  0
  2  3  1  0
  2  1  1  0
  3  5  1  0
  3  4  1  6
  5  7  1  0
  5  6  1  1
  7  8  2  0
  7 15  1  0
  9 10  1  0
 10 11  2  0
 10 12  1  0
 12 13  1  0
 14 13  1  6
 14 16  1  0
 15 14  1  0
 16 17  2  0
 18 16  1  0
 18 19  1  0
 19 27  1  0
 19 20  1  6
 21 26  2  0
 21 20  1  0
 22 21  1  0
 23 24  1  0
 23 22  2  0
 24 25  2  0
 25 26  1  0
 27 28  1  0
 29 27  2  0
M  END
$$$$
