IQF.pdb
     RDKit          3D

 29 29  0  0  1  0  0  0  0  0999 V2000
    7.2918  -11.7984   19.9114 C   0  0  0  0  0  0  0  0  0  0  0  0
    7.4318  -13.1483   19.2062 C   0  0  0  0  0  0  0  0  0  0  0  0
    8.1774  -14.0568   20.1205 C   0  0  2  0  0  0  0  0  0  0  0  0
    9.4781  -13.3988   20.5539 C   0  0  0  0  0  0  0  0  0  0  0  0
    8.3664  -15.4574   19.6763 C   0  0  2  0  0  0  0  0  0  0  0  0
    7.0396  -15.9786   19.2495 N   0  0  0  0  0  0  0  0  0  0  0  0
    8.9425  -16.4239   20.5951 C   0  0  0  0  0  0  0  0  0  0  0  0
    8.1906  -16.9177   21.5165 O   0  0  0  0  0  0  0  0  0  0  0  0
   11.7971  -21.4370   21.3068 N   0  0  0  0  0  0  0  0  0  0  0  0
   11.1770  -20.4630   20.5009 C   0  0  0  0  0  0  0  0  0  0  0  0
    9.9482  -20.6305   20.2192 O   0  0  0  0  0  0  0  0  0  0  0  0
   11.9379  -19.2716   19.9953 C   0  0  0  0  0  0  0  0  0  0  0  0
   12.1716  -18.2772   21.0874 C   0  0  0  0  0  0  0  0  0  0  0  0
   10.8690  -17.7108   21.6556 C   0  0  2  0  0  0  0  0  0  0  0  0
   10.2643  -16.9217   20.6143 N   0  0  0  0  0  0  0  0  0  0  0  0
   11.0841  -17.0900   22.9388 C   0  0  0  0  0  0  0  0  0  0  0  0
   11.5802  -15.9045   22.9253 O   0  0  0  0  0  0  0  0  0  0  0  0
   10.8281  -17.6057   24.2317 N   0  0  0  0  0  0  0  0  0  0  0  0
   10.9698  -16.7487   25.3984 C   0  0  1  0  0  0  0  0  0  0  0  0
    9.7317  -16.1996   25.9690 C   0  0  0  0  0  0  0  0  0  0  0  0
    9.8297  -15.3693   27.1636 C   0  0  0  0  0  0  0  0  0  0  0  0
    9.5560  -14.0178   27.0678 C   0  0  0  0  0  0  0  0  0  0  0  0
    9.6254  -13.1576   28.1590 C   0  0  0  0  0  0  0  0  0  0  0  0
    9.9768  -13.6481   29.3917 C   0  0  0  0  0  0  0  0  0  0  0  0
   10.2527  -14.9921   29.5081 C   0  0  0  0  0  0  0  0  0  0  0  0
   10.1788  -15.8502   28.3977 C   0  0  0  0  0  0  0  0  0  0  0  0
   11.7862  -17.4768   26.4419 C   0  0  0  0  0  0  0  0  0  0  0  0
   11.4123  -18.7302   26.8027 O   0  0  0  0  0  0  0  0  0  0  0  0
   12.7637  -16.9105   26.9334 O   0  0  0  0  0  0  0  0  0  0  0  0
  2  3  1  0
  2  1  1  0
  3  5  1  0
  3  4  1  6
  5  7  1  0
  5  6  1  1
  7  8  2  0
  7 15  1  0
  9 10  1  0
 10 11  2  0
 10 12  1  0
 12 13  1  0
 14 13  1  6
 14 16  1  0
 15 14  1  0
 16 17  2  0
 18 16  1  0
 18 19  1  0
 19 27  1  0
 19 20  1  1
 21 26  2  0
 21 20  1  0
 22 21  1  0
 23 24  1  0
 23 22  2  0
 24 25  2  0
 25 26  1  0
 27 28  1  0
 29 27  2  0
M  END
$$$$
