IQF.pdb
     RDKit          3D

 29 29  0  0  1  0  0  0  0  0999 V2000
    7.1945  -11.7455   19.9162 C   0  0  0  0  0  0  0  0  0  0  0  0
    7.2681  -13.2343   19.5739 C   0  0  0  0  0  0  0  0  0  0  0  0
    7.8221  -13.9408   20.7619 C   0  0  2  0  0  0  0  0  0  0  0  0
    9.1378  -13.3003   21.1760 C   0  0  0  0  0  0  0  0  0  0  0  0
    7.9031  -15.4185   20.6932 C   0  0  2  0  0  0  0  0  0  0  0  0
    6.5840  -15.9215   20.2227 N   0  0  0  0  0  0  0  0  0  0  0  0
    8.2585  -16.1679   21.8858 C   0  0  0  0  0  0  0  0  0  0  0  0
    7.3394  -16.4093   22.7549 O   0  0  0  0  0  0  0  0  0  0  0  0
   13.5070  -20.5505   24.8372 N   0  0  0  0  0  0  0  0  0  0  0  0
   12.6624  -20.0311   23.8375 C   0  0  0  0  0  0  0  0  0  0  0  0
   12.9753  -20.2626   22.6268 O   0  0  0  0  0  0  0  0  0  0  0  0
   11.4383  -19.2360   24.1885 C   0  0  0  0  0  0  0  0  0  0  0  0
   11.0966  -18.2642   23.1045 C   0  0  0  0  0  0  0  0  0  0  0  0
    9.8383  -17.4525   23.4175 C   0  0  2  0  0  0  0  0  0  0  0  0
    9.5215  -16.6953   22.2347 N   0  0  0  0  0  0  0  0  0  0  0  0
    9.9718  -16.7398   24.6635 C   0  0  0  0  0  0  0  0  0  0  0  0
   10.7333  -15.7046   24.6522 O   0  0  0  0  0  0  0  0  0  0  0  0
    9.3801  -17.0209   25.9181 N   0  0  0  0  0  0  0  0  0  0  0  0
    9.7083  -16.2053   27.0767 C   0  0  1  0  0  0  0  0  0  0  0  0
    8.6152  -15.4132   27.6580 C   0  0  0  0  0  0  0  0  0  0  0  0
    8.0960  -14.2855   26.8934 C   0  0  0  0  0  0  0  0  0  0  0  0
    8.7918  -13.0911   26.8997 C   0  0  0  0  0  0  0  0  0  0  0  0
    8.3652  -11.9689   26.1966 C   0  0  0  0  0  0  0  0  0  0  0  0
    7.2097  -12.0264   25.4583 C   0  0  0  0  0  0  0  0  0  0  0  0
    6.5024  -13.2076   25.4386 C   0  0  0  0  0  0  0  0  0  0  0  0
    6.9445  -14.3339   26.1533 C   0  0  0  0  0  0  0  0  0  0  0  0
   10.3733  -17.0793   28.1157 C   0  0  0  0  0  0  0  0  0  0  0  0
   10.8812  -16.4943   29.2296 O   0  0  0  0  0  0  0  0  0  0  0  0
   10.4352  -18.2939   27.9192 O   0  0  0  0  0  0  0  0  0  0  0  0
  2  3  1  0
  2  1  1  0
  3  5  1  0
  3  4  1  6
  5  7  1  0
  5  6  1  1
  7  8  2  0
  7 15  1  0
  9 10  1  0
 10 11  2  0
 10 12  1  0
 12 13  1  0
 14 13  1  6
 14 16  1  0
 15 14  1  0
 16 17  2  0
 18 16  1  0
 18 19  1  0
 19 27  1  0
 19 20  1  1
 21 26  2  0
 21 20  1  0
 22 21  1  0
 23 24  1  0
 23 22  2  0
 24 25  2  0
 25 26  1  0
 27 28  1  0
 29 27  2  0
M  END
$$$$
