IQF.pdb
     RDKit          3D

 29 29  0  0  1  0  0  0  0  0999 V2000
    7.7187  -11.6924   19.3398 C   0  0  0  0  0  0  0  0  0  0  0  0
    7.9527  -13.1729   19.0353 C   0  0  0  0  0  0  0  0  0  0  0  0
    8.0739  -13.8848   20.3375 C   0  0  2  0  0  0  0  0  0  0  0  0
    9.1825  -13.2568   21.1677 C   0  0  0  0  0  0  0  0  0  0  0  0
    8.1603  -15.3632   20.2947 C   0  0  2  0  0  0  0  0  0  0  0  0
    7.0068  -15.8599   19.4965 N   0  0  0  0  0  0  0  0  0  0  0  0
    8.1867  -16.1109   21.5398 C   0  0  0  0  0  0  0  0  0  0  0  0
    7.0659  -16.4571   22.0710 O   0  0  0  0  0  0  0  0  0  0  0  0
   12.2490  -20.3062   23.5124 N   0  0  0  0  0  0  0  0  0  0  0  0
   12.3253  -19.3473   22.4842 C   0  0  0  0  0  0  0  0  0  0  0  0
   13.3872  -19.3203   21.7850 O   0  0  0  0  0  0  0  0  0  0  0  0
   11.1948  -18.3946   22.2228 C   0  0  0  0  0  0  0  0  0  0  0  0
   10.0820  -18.5961   23.2012 C   0  0  0  0  0  0  0  0  0  0  0  0
    9.3111  -17.3063   23.4888 C   0  0  2  0  0  0  0  0  0  0  0  0
    9.3169  -16.5335   22.2742 N   0  0  0  0  0  0  0  0  0  0  0  0
    9.7802  -16.6748   24.6968 C   0  0  0  0  0  0  0  0  0  0  0  0
   10.8191  -15.9265   24.5855 O   0  0  0  0  0  0  0  0  0  0  0  0
    9.2571  -16.7633   26.0090 N   0  0  0  0  0  0  0  0  0  0  0  0
    9.8854  -16.0265   27.0943 C   0  0  1  0  0  0  0  0  0  0  0  0
    9.0430  -15.0578   27.8097 C   0  0  0  0  0  0  0  0  0  0  0  0
    8.2494  -14.1194   27.0250 C   0  0  0  0  0  0  0  0  0  0  0  0
    8.7365  -12.8442   26.8073 C   0  0  0  0  0  0  0  0  0  0  0  0
    8.0428  -11.8903   26.0696 C   0  0  0  0  0  0  0  0  0  0  0  0
    6.8230  -12.2053   25.5249 C   0  0  0  0  0  0  0  0  0  0  0  0
    6.3208  -13.4708   25.7299 C   0  0  0  0  0  0  0  0  0  0  0  0
    7.0319  -14.4251   26.4770 C   0  0  0  0  0  0  0  0  0  0  0  0
   10.5275  -17.0114   28.0447 C   0  0  0  0  0  0  0  0  0  0  0  0
   10.3649  -18.3386   27.8142 O   0  0  0  0  0  0  0  0  0  0  0  0
   11.1765  -16.5800   28.9989 O   0  0  0  0  0  0  0  0  0  0  0  0
  2  3  1  0
  2  1  1  0
  3  5  1  0
  3  4  1  6
  5  7  1  0
  5  6  1  6
  7  8  2  0
  7 15  1  0
  9 10  1  0
 10 11  2  0
 10 12  1  0
 12 13  1  0
 14 13  1  6
 14 16  1  0
 15 14  1  0
 16 17  2  0
 18 16  1  0
 18 19  1  0
 19 27  1  0
 19 20  1  1
 21 26  2  0
 21 20  1  0
 22 21  1  0
 23 24  1  0
 23 22  2  0
 24 25  2  0
 25 26  1  0
 27 28  1  0
 29 27  2  0
M  END
$$$$
