IQF.pdb
     RDKit          3D

 29 29  0  0  1  0  0  0  0  0999 V2000
    7.8978  -11.9765   20.0931 C   0  0  0  0  0  0  0  0  0  0  0  0
    7.7360  -13.4771   20.3409 C   0  0  0  0  0  0  0  0  0  0  0  0
    8.4287  -14.1918   19.2334 C   0  0  2  0  0  0  0  0  0  0  0  0
    7.9901  -13.6181   17.8950 C   0  0  0  0  0  0  0  0  0  0  0  0
    8.3948  -15.6727   19.2585 C   0  0  2  0  0  0  0  0  0  0  0  0
    7.0117  -16.0986   18.9122 N   0  0  0  0  0  0  0  0  0  0  0  0
    8.7786  -16.3729   20.4720 C   0  0  0  0  0  0  0  0  0  0  0  0
    7.8607  -16.6693   21.3252 O   0  0  0  0  0  0  0  0  0  0  0  0
   13.4781  -19.7345   23.3712 N   0  0  0  0  0  0  0  0  0  0  0  0
   12.4010  -20.4171   22.7744 C   0  0  0  0  0  0  0  0  0  0  0  0
   12.2985  -21.6642   23.0019 O   0  0  0  0  0  0  0  0  0  0  0  0
   11.4104  -19.6990   21.9043 C   0  0  0  0  0  0  0  0  0  0  0  0
   11.6897  -18.2304   21.8670 C   0  0  0  0  0  0  0  0  0  0  0  0
   10.4382  -17.3872   22.1179 C   0  0  2  0  0  0  0  0  0  0  0  0
   10.0697  -16.7966   20.8578 N   0  0  0  0  0  0  0  0  0  0  0  0
   10.6145  -16.5133   23.2508 C   0  0  0  0  0  0  0  0  0  0  0  0
   10.8553  -15.2782   22.9892 O   0  0  0  0  0  0  0  0  0  0  0  0
   10.5641  -16.8231   24.6309 N   0  0  0  0  0  0  0  0  0  0  0  0
   10.1273  -15.8179   25.5871 C   0  0  1  0  0  0  0  0  0  0  0  0
    8.8527  -15.1442   25.3014 C   0  0  0  0  0  0  0  0  0  0  0  0
    8.3135  -14.2315   26.3025 C   0  0  0  0  0  0  0  0  0  0  0  0
    7.0255  -13.7527   26.1519 C   0  0  0  0  0  0  0  0  0  0  0  0
    6.4368  -12.8801   27.0616 C   0  0  0  0  0  0  0  0  0  0  0  0
    7.1438  -12.4645   28.1621 C   0  0  0  0  0  0  0  0  0  0  0  0
    8.4284  -12.9307   28.3304 C   0  0  0  0  0  0  0  0  0  0  0  0
    9.0112  -13.8119   27.4039 C   0  0  0  0  0  0  0  0  0  0  0  0
   10.1354  -16.4256   26.9713 C   0  0  0  0  0  0  0  0  0  0  0  0
   10.3074  -17.7660   27.0925 O   0  0  0  0  0  0  0  0  0  0  0  0
    9.9843  -15.6869   27.9456 O   0  0  0  0  0  0  0  0  0  0  0  0
  2  3  1  0
  2  1  1  0
  3  5  1  0
  3  4  1  6
  5  7  1  0
  5  6  1  1
  7  8  2  0
  7 15  1  0
  9 10  1  0
 10 11  2  0
 10 12  1  0
 12 13  1  0
 14 13  1  6
 14 16  1  0
 15 14  1  0
 16 17  2  0
 18 16  1  0
 18 19  1  0
 19 27  1  0
 19 20  1  6
 21 26  2  0
 21 20  1  0
 22 21  1  0
 23 24  1  0
 23 22  2  0
 24 25  2  0
 25 26  1  0
 27 28  1  0
 29 27  2  0
M  END
$$$$
