IQF.pdb
     RDKit          3D

 29 29  0  0  1  0  0  0  0  0999 V2000
    7.3913  -11.6568   19.1762 C   0  0  0  0  0  0  0  0  0  0  0  0
    7.4082  -13.1506   18.8482 C   0  0  0  0  0  0  0  0  0  0  0  0
    7.9503  -13.8647   20.0371 C   0  0  2  0  0  0  0  0  0  0  0  0
    9.2824  -13.2535   20.4431 C   0  0  0  0  0  0  0  0  0  0  0  0
    7.9964  -15.3441   19.9747 C   0  0  2  0  0  0  0  0  0  0  0  0
    6.6605  -15.8187   19.5226 N   0  0  0  0  0  0  0  0  0  0  0  0
    8.3488  -16.0961   21.1665 C   0  0  0  0  0  0  0  0  0  0  0  0
    7.4441  -16.2825   22.0638 O   0  0  0  0  0  0  0  0  0  0  0  0
   13.1986  -19.6568   23.9982 N   0  0  0  0  0  0  0  0  0  0  0  0
   13.4533  -18.6707   23.0260 C   0  0  0  0  0  0  0  0  0  0  0  0
   14.6022  -18.6677   22.4806 O   0  0  0  0  0  0  0  0  0  0  0  0
   12.4072  -17.6628   22.6469 C   0  0  0  0  0  0  0  0  0  0  0  0
   11.1134  -18.3301   22.3051 C   0  0  0  0  0  0  0  0  0  0  0  0
    9.8977  -17.4689   22.6527 C   0  0  2  0  0  0  0  0  0  0  0  0
    9.5944  -16.6801   21.4871 N   0  0  0  0  0  0  0  0  0  0  0  0
   10.0840  -16.7824   23.9066 C   0  0  0  0  0  0  0  0  0  0  0  0
   10.2796  -15.5139   23.8413 O   0  0  0  0  0  0  0  0  0  0  0  0
   10.0866  -17.3111   25.2195 N   0  0  0  0  0  0  0  0  0  0  0  0
    9.4754  -16.5627   26.3066 C   0  0  1  0  0  0  0  0  0  0  0  0
    8.1224  -16.0399   26.0699 C   0  0  0  0  0  0  0  0  0  0  0  0
    7.8974  -14.6077   26.2255 C   0  0  0  0  0  0  0  0  0  0  0  0
    8.8858  -13.8300   26.7990 C   0  0  0  0  0  0  0  0  0  0  0  0
    8.7507  -12.4575   26.9823 C   0  0  0  0  0  0  0  0  0  0  0  0
    7.5982  -11.8274   26.5844 C   0  0  0  0  0  0  0  0  0  0  0  0
    6.6019  -12.5847   26.0101 C   0  0  0  0  0  0  0  0  0  0  0  0
    6.7512  -13.9703   25.8306 C   0  0  0  0  0  0  0  0  0  0  0  0
    9.5353  -17.3964   27.5664 C   0  0  0  0  0  0  0  0  0  0  0  0
    9.8686  -18.7077   27.4638 O   0  0  0  0  0  0  0  0  0  0  0  0
    9.2786  -16.8613   28.6460 O   0  0  0  0  0  0  0  0  0  0  0  0
  2  3  1  0
  2  1  1  0
  3  5  1  0
  3  4  1  6
  5  7  1  0
  5  6  1  1
  7  8  2  0
  7 15  1  0
  9 10  1  0
 10 11  2  0
 10 12  1  0
 12 13  1  0
 14 13  1  6
 14 16  1  0
 15 14  1  0
 16 17  2  0
 18 16  1  0
 18 19  1  0
 19 27  1  0
 19 20  1  6
 21 26  2  0
 21 20  1  0
 22 21  1  0
 23 24  1  0
 23 22  2  0
 24 25  2  0
 25 26  1  0
 27 28  1  0
 29 27  2  0
M  END
$$$$
