FLK.pdb
     RDKit          3D

 29 29  0  0  1  0  0  0  0  0999 V2000
    7.0068  -18.9628   27.6021 N   0  0  0  0  0  0  0  0  0  0  0  0
    7.7470  -17.7190   27.6242 C   0  0  1  0  0  0  0  0  0  0  0  0
    9.0902  -18.0310   28.2725 C   0  0  0  0  0  0  0  0  0  0  0  0
    9.7464  -16.7336   28.5639 C   0  0  0  0  0  0  0  0  0  0  0  0
   10.4565  -16.0681   27.6039 C   0  0  0  0  0  0  0  0  0  0  0  0
   11.0780  -14.8616   27.8185 C   0  0  0  0  0  0  0  0  0  0  0  0
   10.9686  -14.3102   29.0725 C   0  0  0  0  0  0  0  0  0  0  0  0
   10.2668  -14.9396   30.0701 C   0  0  0  0  0  0  0  0  0  0  0  0
    9.6433  -16.1640   29.8299 C   0  0  0  0  0  0  0  0  0  0  0  0
    7.8981  -17.0692   26.3267 C   0  0  0  0  0  0  0  0  0  0  0  0
    8.1021  -17.7881   25.3222 O   0  0  0  0  0  0  0  0  0  0  0  0
    6.9114  -11.6225   26.2235 C   0  0  0  0  0  0  0  0  0  0  0  0
    6.7514  -13.0930   25.8809 C   0  0  1  0  0  0  0  0  0  0  0  0
    5.3569  -13.4797   25.5095 C   0  0  0  0  0  0  0  0  0  0  0  0
    7.8182  -13.5705   24.9679 C   0  0  0  0  0  0  0  0  0  0  0  0
    7.9457  -15.0609   24.8187 C   0  0  2  0  0  0  0  0  0  0  0  0
    7.8278  -15.6628   26.1291 N   0  0  0  0  0  0  0  0  0  0  0  0
    9.3264  -15.3959   24.3031 C   0  0  0  0  0  0  0  0  0  0  0  0
   10.3186  -15.4131   25.0764 O   0  0  0  0  0  0  0  0  0  0  0  0
    9.5642  -15.6997   22.9554 N   0  0  0  0  0  0  0  0  0  0  0  0
   10.7587  -16.5167   22.5573 C   0  0  1  0  0  0  0  0  0  0  0  0
   10.2759  -17.7814   21.9923 C   0  0  0  0  0  0  0  0  0  0  0  0
   11.2439  -18.7632   21.5051 C   0  0  0  0  0  0  0  0  0  0  0  0
   10.8904  -20.0301   20.8636 C   0  0  0  0  0  0  0  0  0  0  0  0
   12.0327  -20.9010   20.4161 C   0  0  0  0  0  0  0  0  0  0  0  0
   11.6278  -22.0561   19.6762 N   0  0  0  0  0  0  0  0  0  0  0  0
   11.4922  -15.6517   21.6390 C   0  0  0  0  0  0  0  0  0  0  0  0
   12.7920  -15.6637   21.7392 O   0  0  0  0  0  0  0  0  0  0  0  0
   11.0297  -14.8180   20.6645 O   0  0  0  0  0  0  0  0  0  0  0  0
  2  1  1  6
  3  2  1  0
  3  4  1  0
  4  5  2  0
  5  6  1  0
  7  6  2  0
  8  7  1  0
  9  4  1  0
  9  8  2  0
 10 17  1  0
 10  2  1  0
 11 10  2  0
 13 12  1  6
 14 13  1  0
 16 15  1  1
 15 13  1  0
 16 17  1  0
 18 16  1  0
 19 18  2  0
 20 18  1  0
 21 20  1  0
 21 22  1  6
 22 23  1  0
 23 24  1  0
 24 25  1  0
 26 25  1  0
 27 29  1  0
 27 21  1  0
 28 27  2  0
M  END
$$$$
