FLK.pdb
     RDKit          3D

 29 29  0  0  1  0  0  0  0  0999 V2000
    7.4775  -17.8009   21.4753 N   0  0  0  0  0  0  0  0  0  0  0  0
    7.7998  -16.4031   21.2810 C   0  0  1  0  0  0  0  0  0  0  0  0
    6.5949  -15.7776   20.5891 C   0  0  0  0  0  0  0  0  0  0  0  0
    6.9969  -14.4173   20.1570 C   0  0  0  0  0  0  0  0  0  0  0  0
    6.8142  -13.3335   20.9699 C   0  0  0  0  0  0  0  0  0  0  0  0
    7.1740  -12.0539   20.6219 C   0  0  0  0  0  0  0  0  0  0  0  0
    7.7468  -11.8741   19.3857 C   0  0  0  0  0  0  0  0  0  0  0  0
    7.9510  -12.9303   18.5333 C   0  0  0  0  0  0  0  0  0  0  0  0
    7.5782  -14.2212   18.9074 C   0  0  0  0  0  0  0  0  0  0  0  0
    8.1751  -15.6834   22.4934 C   0  0  0  0  0  0  0  0  0  0  0  0
    8.5985  -14.5106   22.3813 O   0  0  0  0  0  0  0  0  0  0  0  0
    8.8260  -12.6697   26.2815 C   0  0  0  0  0  0  0  0  0  0  0  0
    7.5772  -13.5292   26.3660 C   0  0  1  0  0  0  0  0  0  0  0  0
    6.3585  -12.7847   26.8049 C   0  0  0  0  0  0  0  0  0  0  0  0
    7.4118  -14.3889   25.1688 C   0  0  0  0  0  0  0  0  0  0  0  0
    8.4379  -15.4715   24.9825 C   0  0  2  0  0  0  0  0  0  0  0  0
    8.0897  -16.2325   23.8023 N   0  0  0  0  0  0  0  0  0  0  0  0
    8.3783  -16.4244   26.1541 C   0  0  0  0  0  0  0  0  0  0  0  0
    7.3885  -16.4329   26.9307 O   0  0  0  0  0  0  0  0  0  0  0  0
    9.4101  -17.3330   26.4279 N   0  0  0  0  0  0  0  0  0  0  0  0
    9.3336  -18.2356   27.6247 C   0  0  1  0  0  0  0  0  0  0  0  0
    9.5052  -19.6173   27.1630 C   0  0  0  0  0  0  0  0  0  0  0  0
    8.6844  -20.1094   26.0573 C   0  0  0  0  0  0  0  0  0  0  0  0
    9.1120  -20.1466   24.6582 C   0  0  0  0  0  0  0  0  0  0  0  0
    8.1074  -20.6536   23.6596 C   0  0  0  0  0  0  0  0  0  0  0  0
    8.5791  -20.6533   22.3093 N   0  0  0  0  0  0  0  0  0  0  0  0
   10.3724  -17.7324   28.5177 C   0  0  0  0  0  0  0  0  0  0  0  0
   11.1852  -16.8414   28.0228 O   0  0  0  0  0  0  0  0  0  0  0  0
   10.6337  -18.0438   29.8189 O   0  0  0  0  0  0  0  0  0  0  0  0
  2  1  1  1
  3  2  1  0
  3  4  1  0
  4  5  2  0
  5  6  1  0
  7  6  2  0
  8  7  1  0
  9  4  1  0
  9  8  2  0
 10 17  1  0
 10  2  1  0
 11 10  2  0
 13 12  1  6
 14 13  1  0
 16 15  1  1
 15 13  1  0
 16 17  1  0
 18 16  1  0
 19 18  2  0
 20 18  1  0
 21 20  1  0
 21 22  1  6
 22 23  1  0
 23 24  1  0
 24 25  1  0
 26 25  1  0
 27 29  1  0
 27 21  1  0
 28 27  2  0
M  END
$$$$
