FLK.pdb
     RDKit          3D

 29 29  0  0  1  0  0  0  0  0999 V2000
    5.2346  -17.7485   24.1831 N   0  0  0  0  0  0  0  0  0  0  0  0
    6.1006  -16.5984   24.3339 C   0  0  1  0  0  0  0  0  0  0  0  0
    6.5844  -16.6126   25.7787 C   0  0  0  0  0  0  0  0  0  0  0  0
    7.0836  -15.2504   26.0855 C   0  0  0  0  0  0  0  0  0  0  0  0
    6.2341  -14.1809   26.1402 C   0  0  0  0  0  0  0  0  0  0  0  0
    6.6425  -12.9004   26.4261 C   0  0  0  0  0  0  0  0  0  0  0  0
    7.9812  -12.7046   26.6670 C   0  0  0  0  0  0  0  0  0  0  0  0
    8.8741  -13.7461   26.6236 C   0  0  0  0  0  0  0  0  0  0  0  0
    8.4372  -15.0382   26.3316 C   0  0  0  0  0  0  0  0  0  0  0  0
    7.2049  -16.5301   23.3828 C   0  0  0  0  0  0  0  0  0  0  0  0
    7.6886  -17.6030   22.9558 O   0  0  0  0  0  0  0  0  0  0  0  0
    7.9161  -11.8630   20.3832 C   0  0  0  0  0  0  0  0  0  0  0  0
    7.7336  -13.3224   20.7604 C   0  0  1  0  0  0  0  0  0  0  0  0
    7.1100  -14.1519   19.6857 C   0  0  0  0  0  0  0  0  0  0  0  0
    8.9506  -13.8904   21.3896 C   0  0  0  0  0  0  0  0  0  0  0  0
    8.8300  -15.2909   21.9224 C   0  0  2  0  0  0  0  0  0  0  0  0
    7.7699  -15.3152   22.9068 N   0  0  0  0  0  0  0  0  0  0  0  0
   10.1062  -15.6647   22.6406 C   0  0  0  0  0  0  0  0  0  0  0  0
   11.2176  -15.6121   22.0534 O   0  0  0  0  0  0  0  0  0  0  0  0
   10.1123  -16.0824   23.9788 N   0  0  0  0  0  0  0  0  0  0  0  0
   11.3893  -16.5199   24.6351 C   0  0  1  0  0  0  0  0  0  0  0  0
   11.0729  -16.9528   26.0004 C   0  0  0  0  0  0  0  0  0  0  0  0
   12.1017  -17.6225   26.7952 C   0  0  0  0  0  0  0  0  0  0  0  0
   11.8846  -18.1881   28.1274 C   0  0  0  0  0  0  0  0  0  0  0  0
   13.0721  -18.8350   28.7868 C   0  0  0  0  0  0  0  0  0  0  0  0
   13.3643  -18.3224   30.0897 N   0  0  0  0  0  0  0  0  0  0  0  0
   11.9103  -17.5543   23.7472 C   0  0  0  0  0  0  0  0  0  0  0  0
   11.0293  -18.2734   23.1098 O   0  0  0  0  0  0  0  0  0  0  0  0
   13.1992  -17.8951   23.4625 O   0  0  0  0  0  0  0  0  0  0  0  0
  2  1  1  6
  3  2  1  0
  3  4  1  0
  4  5  2  0
  5  6  1  0
  7  6  2  0
  8  7  1  0
  9  4  1  0
  9  8  2  0
 10 17  1  0
 10  2  1  0
 11 10  2  0
 13 12  1  6
 14 13  1  0
 16 15  1  1
 15 13  1  0
 16 17  1  0
 18 16  1  0
 19 18  2  0
 20 18  1  0
 21 20  1  0
 21 22  1  1
 22 23  1  0
 23 24  1  0
 24 25  1  0
 26 25  1  0
 27 29  1  0
 27 21  1  0
 28 27  2  0
M  END
$$$$
