FLK.pdb
     RDKit          3D

 29 29  0  0  1  0  0  0  0  0999 V2000
    6.4154  -16.9954   25.4326 N   0  0  0  0  0  0  0  0  0  0  0  0
    7.1067  -15.9323   24.7344 C   0  0  1  0  0  0  0  0  0  0  0  0
    8.2125  -15.4548   25.6676 C   0  0  0  0  0  0  0  0  0  0  0  0
    7.8376  -14.0968   26.1302 C   0  0  0  0  0  0  0  0  0  0  0  0
    6.6018  -13.5753   25.8667 C   0  0  0  0  0  0  0  0  0  0  0  0
    6.2011  -12.3267   26.2770 C   0  0  0  0  0  0  0  0  0  0  0  0
    7.1058  -11.5766   26.9893 C   0  0  0  0  0  0  0  0  0  0  0  0
    8.3590  -12.0556   27.2789 C   0  0  0  0  0  0  0  0  0  0  0  0
    8.7445  -13.3265   26.8527 C   0  0  0  0  0  0  0  0  0  0  0  0
    7.6149  -16.2910   23.4147 C   0  0  0  0  0  0  0  0  0  0  0  0
    7.6009  -17.4974   23.0802 O   0  0  0  0  0  0  0  0  0  0  0  0
    7.6999  -12.2108   19.8271 C   0  0  0  0  0  0  0  0  0  0  0  0
    7.4098  -13.5756   20.4261 C   0  0  1  0  0  0  0  0  0  0  0  0
    6.0766  -14.1325   20.0458 C   0  0  0  0  0  0  0  0  0  0  0  0
    8.5600  -14.5011   20.2839 C   0  0  0  0  0  0  0  0  0  0  0  0
    8.5287  -15.7350   21.1419 C   0  0  2  0  0  0  0  0  0  0  0  0
    8.1280  -15.3519   22.4783 N   0  0  0  0  0  0  0  0  0  0  0  0
    9.9238  -16.3066   21.2475 C   0  0  0  0  0  0  0  0  0  0  0  0
   10.4700  -16.8651   20.2613 O   0  0  0  0  0  0  0  0  0  0  0  0
   10.6666  -16.2424   22.4347 N   0  0  0  0  0  0  0  0  0  0  0  0
   12.0797  -16.7466   22.4781 C   0  0  1  0  0  0  0  0  0  0  0  0
   12.9756  -15.6064   22.2571 C   0  0  0  0  0  0  0  0  0  0  0  0
   13.1607  -15.0944   20.8999 C   0  0  0  0  0  0  0  0  0  0  0  0
   14.3564  -14.3912   20.4336 C   0  0  0  0  0  0  0  0  0  0  0  0
   14.3568  -13.9409   18.9980 C   0  0  0  0  0  0  0  0  0  0  0  0
   15.5869  -13.3456   18.5759 N   0  0  0  0  0  0  0  0  0  0  0  0
   12.1874  -17.3935   23.7818 C   0  0  0  0  0  0  0  0  0  0  0  0
   13.3391  -17.9305   24.0728 O   0  0  0  0  0  0  0  0  0  0  0  0
   11.2602  -17.5251   24.7725 O   0  0  0  0  0  0  0  0  0  0  0  0
  2  1  1  1
  3  2  1  0
  3  4  1  0
  4  5  2  0
  5  6  1  0
  7  6  2  0
  8  7  1  0
  9  4  1  0
  9  8  2  0
 10 17  1  0
 10  2  1  0
 11 10  2  0
 13 12  1  6
 14 13  1  0
 16 15  1  6
 15 13  1  0
 16 17  1  0
 18 16  1  0
 19 18  2  0
 20 18  1  0
 21 20  1  0
 21 22  1  1
 22 23  1  0
 23 24  1  0
 24 25  1  0
 26 25  1  0
 27 29  1  0
 27 21  1  0
 28 27  2  0
M  END
$$$$
