FLK.pdb
     RDKit          3D

 29 29  0  0  1  0  0  0  0  0999 V2000
    6.3546  -16.5206   21.5654 N   0  0  0  0  0  0  0  0  0  0  0  0
    7.7807  -16.7086   21.7276 C   0  0  1  0  0  0  0  0  0  0  0  0
    8.4293  -16.1918   20.4493 C   0  0  0  0  0  0  0  0  0  0  0  0
    8.1990  -14.7277   20.4038 C   0  0  0  0  0  0  0  0  0  0  0  0
    9.1495  -13.8477   20.8406 C   0  0  0  0  0  0  0  0  0  0  0  0
    8.9904  -12.4832   20.8148 C   0  0  0  0  0  0  0  0  0  0  0  0
    7.8046  -11.9959   20.3198 C   0  0  0  0  0  0  0  0  0  0  0  0
    6.8192  -12.8385   19.8695 C   0  0  0  0  0  0  0  0  0  0  0  0
    7.0024  -14.2208   19.9047 C   0  0  0  0  0  0  0  0  0  0  0  0
    8.3507  -16.0955   22.9225 C   0  0  0  0  0  0  0  0  0  0  0  0
    9.5973  -16.0468   23.0285 O   0  0  0  0  0  0  0  0  0  0  0  0
    5.7742  -12.2903   26.3408 C   0  0  0  0  0  0  0  0  0  0  0  0
    6.9235  -12.9374   25.5886 C   0  0  1  0  0  0  0  0  0  0  0  0
    8.1511  -12.0891   25.5127 C   0  0  0  0  0  0  0  0  0  0  0  0
    7.1369  -14.3453   26.0033 C   0  0  0  0  0  0  0  0  0  0  0  0
    8.1689  -15.1161   25.2284 C   0  0  2  0  0  0  0  0  0  0  0  0
    7.5759  -15.5461   23.9806 N   0  0  0  0  0  0  0  0  0  0  0  0
    8.5390  -16.3658   25.9936 C   0  0  0  0  0  0  0  0  0  0  0  0
    7.6510  -17.1370   26.4404 O   0  0  0  0  0  0  0  0  0  0  0  0
    9.8727  -16.7208   26.2388 N   0  0  0  0  0  0  0  0  0  0  0  0
   10.2085  -18.0545   26.8400 C   0  0  1  0  0  0  0  0  0  0  0  0
   11.0746  -18.7719   25.8982 C   0  0  0  0  0  0  0  0  0  0  0  0
   11.6273  -20.0705   26.2812 C   0  0  0  0  0  0  0  0  0  0  0  0
   12.4845  -20.8928   25.4264 C   0  0  0  0  0  0  0  0  0  0  0  0
   13.0044  -22.1719   26.0242 C   0  0  0  0  0  0  0  0  0  0  0  0
   13.6687  -23.0236   25.0867 N   0  0  0  0  0  0  0  0  0  0  0  0
   10.8099  -17.7237   28.1278 C   0  0  0  0  0  0  0  0  0  0  0  0
   11.3262  -16.5321   28.2413 O   0  0  0  0  0  0  0  0  0  0  0  0
   10.9162  -18.4727   29.2620 O   0  0  0  0  0  0  0  0  0  0  0  0
  2  1  1  6
  3  2  1  0
  3  4  1  0
  4  5  2  0
  5  6  1  0
  7  6  2  0
  8  7  1  0
  9  4  1  0
  9  8  2  0
 10 17  1  0
 10  2  1  0
 11 10  2  0
 13 12  1  1
 14 13  1  0
 16 15  1  1
 15 13  1  0
 16 17  1  0
 18 16  1  0
 19 18  2  0
 20 18  1  0
 21 20  1  0
 21 22  1  6
 22 23  1  0
 23 24  1  0
 24 25  1  0
 26 25  1  0
 27 29  1  0
 27 21  1  0
 28 27  2  0
M  END
$$$$
