FLK.pdb
     RDKit          3D

 29 29  0  0  1  0  0  0  0  0999 V2000
    8.0355  -15.9942   21.5615 N   0  0  0  0  0  0  0  0  0  0  0  0
    9.3627  -15.8458   22.1199 C   0  0  1  0  0  0  0  0  0  0  0  0
   10.0441  -14.7434   21.3185 C   0  0  0  0  0  0  0  0  0  0  0  0
    8.9912  -14.0670   20.5232 C   0  0  0  0  0  0  0  0  0  0  0  0
    8.4147  -12.9052   20.9549 C   0  0  0  0  0  0  0  0  0  0  0  0
    7.4407  -12.2348   20.2548 C   0  0  0  0  0  0  0  0  0  0  0  0
    7.0376  -12.7775   19.0583 C   0  0  0  0  0  0  0  0  0  0  0  0
    7.5858  -13.9422   18.5822 C   0  0  0  0  0  0  0  0  0  0  0  0
    8.5737  -14.6060   19.3095 C   0  0  0  0  0  0  0  0  0  0  0  0
    9.4016  -15.5889   23.5556 C   0  0  0  0  0  0  0  0  0  0  0  0
   10.5109  -15.6203   24.1351 O   0  0  0  0  0  0  0  0  0  0  0  0
    5.7006  -12.2619   26.0336 C   0  0  0  0  0  0  0  0  0  0  0  0
    7.0530  -12.8894   25.7461 C   0  0  1  0  0  0  0  0  0  0  0  0
    8.2131  -12.0303   26.1313 C   0  0  0  0  0  0  0  0  0  0  0  0
    7.1180  -14.3010   26.1964 C   0  0  0  0  0  0  0  0  0  0  0  0
    8.3322  -15.0781   25.7703 C   0  0  2  0  0  0  0  0  0  0  0  0
    8.2528  -15.3030   24.3432 N   0  0  0  0  0  0  0  0  0  0  0  0
    8.3141  -16.4370   26.4317 C   0  0  0  0  0  0  0  0  0  0  0  0
    8.2802  -16.5457   27.6846 O   0  0  0  0  0  0  0  0  0  0  0  0
    8.3340  -17.6262   25.6898 N   0  0  0  0  0  0  0  0  0  0  0  0
    8.4400  -18.9544   26.3809 C   0  0  1  0  0  0  0  0  0  0  0  0
    8.3058  -20.0058   25.3670 C   0  0  0  0  0  0  0  0  0  0  0  0
    8.4565  -21.4054   25.7632 C   0  0  0  0  0  0  0  0  0  0  0  0
    8.4465  -22.5368   24.8351 C   0  0  0  0  0  0  0  0  0  0  0  0
    8.6061  -23.9055   25.4390 C   0  0  0  0  0  0  0  0  0  0  0  0
    7.4035  -24.4357   26.0033 N   0  0  0  0  0  0  0  0  0  0  0  0
    9.7263  -18.8971   27.0678 C   0  0  0  0  0  0  0  0  0  0  0  0
    9.7626  -19.3785   28.2788 O   0  0  0  0  0  0  0  0  0  0  0  0
   10.9275  -18.4174   26.6372 O   0  0  0  0  0  0  0  0  0  0  0  0
  2  1  1  6
  3  2  1  0
  3  4  1  0
  4  5  2  0
  5  6  1  0
  7  6  2  0
  8  7  1  0
  9  4  1  0
  9  8  2  0
 10 17  1  0
 10  2  1  0
 11 10  2  0
 13 12  1  1
 14 13  1  0
 16 15  1  1
 15 13  1  0
 16 17  1  0
 18 16  1  0
 19 18  2  0
 20 18  1  0
 21 20  1  0
 21 22  1  6
 22 23  1  0
 23 24  1  0
 24 25  1  0
 26 25  1  0
 27 29  1  0
 27 21  1  0
 28 27  2  0
M  END
$$$$
