FLK.pdb
     RDKit          3D

 29 29  0  0  1  0  0  0  0  0999 V2000
    5.7840  -18.0560   24.7270 N   0  0  0  0  0  0  0  0  0  0  0  0
    6.4440  -16.7702   24.6458 C   0  0  1  0  0  0  0  0  0  0  0  0
    6.9451  -16.4562   26.0501 C   0  0  0  0  0  0  0  0  0  0  0  0
    7.1753  -14.9928   26.1147 C   0  0  0  0  0  0  0  0  0  0  0  0
    8.4077  -14.4827   26.4140 C   0  0  0  0  0  0  0  0  0  0  0  0
    8.6769  -13.1369   26.4807 C   0  0  0  0  0  0  0  0  0  0  0  0
    7.6381  -12.2729   26.2299 C   0  0  0  0  0  0  0  0  0  0  0  0
    6.3824  -12.7359   25.9254 C   0  0  0  0  0  0  0  0  0  0  0  0
    6.1317  -14.1067   25.8629 C   0  0  0  0  0  0  0  0  0  0  0  0
    7.5060  -16.6849   23.6490 C   0  0  0  0  0  0  0  0  0  0  0  0
    8.0575  -17.7451   23.2761 O   0  0  0  0  0  0  0  0  0  0  0  0
    7.7063  -12.2292   20.2557 C   0  0  0  0  0  0  0  0  0  0  0  0
    7.6565  -13.6580   20.7672 C   0  0  1  0  0  0  0  0  0  0  0  0
    7.0663  -14.6282   19.7964 C   0  0  0  0  0  0  0  0  0  0  0  0
    8.9366  -14.0694   21.3930 C   0  0  0  0  0  0  0  0  0  0  0  0
    8.9576  -15.4328   22.0260 C   0  0  2  0  0  0  0  0  0  0  0  0
    7.9569  -15.4668   23.0703 N   0  0  0  0  0  0  0  0  0  0  0  0
   10.2962  -15.6549   22.6917 C   0  0  0  0  0  0  0  0  0  0  0  0
   11.3698  -15.4256   22.0771 O   0  0  0  0  0  0  0  0  0  0  0  0
   10.4041  -16.1210   24.0093 N   0  0  0  0  0  0  0  0  0  0  0  0
   11.7518  -16.3458   24.6307 C   0  0  1  0  0  0  0  0  0  0  0  0
   11.5454  -16.8450   25.9944 C   0  0  0  0  0  0  0  0  0  0  0  0
   11.1310  -15.9132   27.0424 C   0  0  0  0  0  0  0  0  0  0  0  0
   10.8082  -16.2992   28.4166 C   0  0  0  0  0  0  0  0  0  0  0  0
   10.4501  -15.1858   29.3631 C   0  0  0  0  0  0  0  0  0  0  0  0
   10.1717  -15.6232   30.6961 N   0  0  0  0  0  0  0  0  0  0  0  0
   12.4182  -17.2649   23.7137 C   0  0  0  0  0  0  0  0  0  0  0  0
   13.7218  -17.2555   23.7238 O   0  0  0  0  0  0  0  0  0  0  0  0
   11.8877  -18.1589   22.8317 O   0  0  0  0  0  0  0  0  0  0  0  0
  2  1  1  1
  3  2  1  0
  3  4  1  0
  4  5  2  0
  5  6  1  0
  7  6  2  0
  8  7  1  0
  9  4  1  0
  9  8  2  0
 10 17  1  0
 10  2  1  0
 11 10  2  0
 13 12  1  6
 14 13  1  0
 16 15  1  1
 15 13  1  0
 16 17  1  0
 18 16  1  0
 19 18  2  0
 20 18  1  0
 21 20  1  0
 21 22  1  1
 22 23  1  0
 23 24  1  0
 24 25  1  0
 26 25  1  0
 27 29  1  0
 27 21  1  0
 28 27  2  0
M  END
$$$$
