FLK.pdb
     RDKit          3D

 29 29  0  0  1  0  0  0  0  0999 V2000
    5.4632  -17.5851   24.9570 N   0  0  0  0  0  0  0  0  0  0  0  0
    6.2848  -16.3933   24.9592 C   0  0  1  0  0  0  0  0  0  0  0  0
    6.8601  -16.2718   26.3649 C   0  0  0  0  0  0  0  0  0  0  0  0
    7.0583  -14.8269   26.6323 C   0  0  0  0  0  0  0  0  0  0  0  0
    8.3099  -14.3032   26.7997 C   0  0  0  0  0  0  0  0  0  0  0  0
    8.5501  -12.9724   27.0429 C   0  0  0  0  0  0  0  0  0  0  0  0
    7.4603  -12.1386   27.1188 C   0  0  0  0  0  0  0  0  0  0  0  0
    6.1836  -12.6162   26.9581 C   0  0  0  0  0  0  0  0  0  0  0  0
    5.9631  -13.9713   26.7115 C   0  0  0  0  0  0  0  0  0  0  0  0
    7.3219  -16.3585   23.9335 C   0  0  0  0  0  0  0  0  0  0  0  0
    7.9492  -17.4134   23.6867 O   0  0  0  0  0  0  0  0  0  0  0  0
    7.3277  -12.1181   20.2863 C   0  0  0  0  0  0  0  0  0  0  0  0
    7.3371  -13.5433   20.8100 C   0  0  1  0  0  0  0  0  0  0  0  0
    6.7778  -14.5439   19.8519 C   0  0  0  0  0  0  0  0  0  0  0  0
    8.6368  -13.8995   21.4293 C   0  0  0  0  0  0  0  0  0  0  0  0
    8.6848  -15.2105   22.1632 C   0  0  2  0  0  0  0  0  0  0  0  0
    7.6674  -15.1956   23.1917 N   0  0  0  0  0  0  0  0  0  0  0  0
   10.0173  -15.3431   22.8641 C   0  0  0  0  0  0  0  0  0  0  0  0
   10.2558  -14.7095   23.9245 O   0  0  0  0  0  0  0  0  0  0  0  0
   11.0382  -16.1683   22.3723 N   0  0  0  0  0  0  0  0  0  0  0  0
   12.2744  -16.4191   23.1858 C   0  0  1  0  0  0  0  0  0  0  0  0
   12.2539  -17.8191   23.6229 C   0  0  0  0  0  0  0  0  0  0  0  0
   13.4092  -18.3632   24.3355 C   0  0  0  0  0  0  0  0  0  0  0  0
   13.5297  -19.7508   24.7847 C   0  0  0  0  0  0  0  0  0  0  0  0
   14.7153  -20.0783   25.6511 C   0  0  0  0  0  0  0  0  0  0  0  0
   14.8257  -21.4646   25.9851 N   0  0  0  0  0  0  0  0  0  0  0  0
   13.3690  -16.0498   22.2941 C   0  0  0  0  0  0  0  0  0  0  0  0
   14.4965  -15.7211   22.8600 O   0  0  0  0  0  0  0  0  0  0  0  0
   13.4086  -15.9980   20.9324 O   0  0  0  0  0  0  0  0  0  0  0  0
  2  1  1  1
  3  2  1  0
  3  4  1  0
  4  5  2  0
  5  6  1  0
  7  6  2  0
  8  7  1  0
  9  4  1  0
  9  8  2  0
 10 17  1  0
 10  2  1  0
 11 10  2  0
 13 12  1  6
 14 13  1  0
 16 15  1  1
 15 13  1  0
 16 17  1  0
 18 16  1  0
 19 18  2  0
 20 18  1  0
 21 20  1  0
 21 22  1  6
 22 23  1  0
 23 24  1  0
 24 25  1  0
 26 25  1  0
 27 29  1  0
 27 21  1  0
 28 27  2  0
M  END
$$$$
