FLK.pdb
     RDKit          3D

 29 29  0  0  1  0  0  0  0  0999 V2000
    6.1107  -17.3615   25.6308 N   0  0  0  0  0  0  0  0  0  0  0  0
    6.7985  -16.2170   25.0719 C   0  0  1  0  0  0  0  0  0  0  0  0
    7.7798  -15.7442   26.1373 C   0  0  0  0  0  0  0  0  0  0  0  0
    7.5262  -14.2995   26.3545 C   0  0  0  0  0  0  0  0  0  0  0  0
    8.5434  -13.3874   26.3077 C   0  0  0  0  0  0  0  0  0  0  0  0
    8.3629  -12.0382   26.4951 C   0  0  0  0  0  0  0  0  0  0  0  0
    7.0835  -11.6015   26.7420 C   0  0  0  0  0  0  0  0  0  0  0  0
    6.0288  -12.4779   26.7991 C   0  0  0  0  0  0  0  0  0  0  0  0
    6.2350  -13.8437   26.6054 C   0  0  0  0  0  0  0  0  0  0  0  0
    7.4502  -16.4564   23.7887 C   0  0  0  0  0  0  0  0  0  0  0  0
    7.4505  -17.6216   23.3306 O   0  0  0  0  0  0  0  0  0  0  0  0
    6.4087  -14.5646   20.5424 C   0  0  0  0  0  0  0  0  0  0  0  0
    7.7469  -14.0026   20.0965 C   0  0  1  0  0  0  0  0  0  0  0  0
    7.7033  -12.5550   19.7293 C   0  0  0  0  0  0  0  0  0  0  0  0
    8.8491  -14.4051   21.0036 C   0  0  0  0  0  0  0  0  0  0  0  0
    8.6717  -15.7127   21.7237 C   0  0  2  0  0  0  0  0  0  0  0  0
    8.0886  -15.4445   23.0204 N   0  0  0  0  0  0  0  0  0  0  0  0
   10.0263  -16.3358   21.9706 C   0  0  0  0  0  0  0  0  0  0  0  0
   10.6117  -16.9888   21.0684 O   0  0  0  0  0  0  0  0  0  0  0  0
   10.6870  -16.2174   23.2012 N   0  0  0  0  0  0  0  0  0  0  0  0
   12.0160  -16.8798   23.4200 C   0  0  1  0  0  0  0  0  0  0  0  0
   13.0620  -15.8650   23.2540 C   0  0  0  0  0  0  0  0  0  0  0  0
   14.4460  -16.2906   23.0495 C   0  0  0  0  0  0  0  0  0  0  0  0
   15.5857  -15.3804   22.9307 C   0  0  0  0  0  0  0  0  0  0  0  0
   16.9418  -16.0144   22.7793 C   0  0  0  0  0  0  0  0  0  0  0  0
   18.0164  -15.0745   22.6932 N   0  0  0  0  0  0  0  0  0  0  0  0
   11.9073  -17.4655   24.7523 C   0  0  0  0  0  0  0  0  0  0  0  0
   11.0515  -16.9114   25.5647 O   0  0  0  0  0  0  0  0  0  0  0  0
   12.5650  -18.5280   25.2972 O   0  0  0  0  0  0  0  0  0  0  0  0
  2  1  1  1
  3  2  1  0
  3  4  1  0
  4  5  2  0
  5  6  1  0
  7  6  2  0
  8  7  1  0
  9  4  1  0
  9  8  2  0
 10 17  1  0
 10  2  1  0
 11 10  2  0
 13 12  1  1
 14 13  1  0
 16 15  1  6
 15 13  1  0
 16 17  1  0
 18 16  1  0
 19 18  2  0
 20 18  1  0
 21 20  1  0
 21 22  1  1
 22 23  1  0
 23 24  1  0
 24 25  1  0
 26 25  1  0
 27 29  1  0
 27 21  1  0
 28 27  2  0
M  END
$$$$
