FLK.pdb
     RDKit          3D

 29 29  0  0  1  0  0  0  0  0999 V2000
    5.8877  -19.4312   22.6460 N   0  0  0  0  0  0  0  0  0  0  0  0
    6.2721  -18.9752   23.9650 C   0  0  1  0  0  0  0  0  0  0  0  0
    6.9761  -20.1482   24.6358 C   0  0  0  0  0  0  0  0  0  0  0  0
    7.2255  -19.7599   26.0450 C   0  0  0  0  0  0  0  0  0  0  0  0
    8.4152  -19.2053   26.4265 C   0  0  0  0  0  0  0  0  0  0  0  0
    8.6958  -18.8220   27.7159 C   0  0  0  0  0  0  0  0  0  0  0  0
    7.7147  -19.0150   28.6587 C   0  0  0  0  0  0  0  0  0  0  0  0
    6.5037  -19.5684   28.3255 C   0  0  0  0  0  0  0  0  0  0  0  0
    6.2403  -19.9500   27.0100 C   0  0  0  0  0  0  0  0  0  0  0  0
    7.0810  -17.7611   23.9853 C   0  0  0  0  0  0  0  0  0  0  0  0
    8.0235  -17.6613   23.1672 O   0  0  0  0  0  0  0  0  0  0  0  0
    7.5346  -12.4226   24.2253 C   0  0  0  0  0  0  0  0  0  0  0  0
    7.4023  -13.0289   25.6111 C   0  0  1  0  0  0  0  0  0  0  0  0
    6.8257  -12.0973   26.6269 C   0  0  0  0  0  0  0  0  0  0  0  0
    6.8068  -14.3867   25.5695 C   0  0  0  0  0  0  0  0  0  0  0  0
    7.5171  -15.3965   24.7119 C   0  0  2  0  0  0  0  0  0  0  0  0
    6.8656  -16.6774   24.8803 N   0  0  0  0  0  0  0  0  0  0  0  0
    8.9379  -15.5577   25.2013 C   0  0  0  0  0  0  0  0  0  0  0  0
    9.7266  -14.5779   25.2304 O   0  0  0  0  0  0  0  0  0  0  0  0
    9.4385  -16.7911   25.6407 N   0  0  0  0  0  0  0  0  0  0  0  0
   10.8417  -16.9026   26.1618 C   0  0  1  0  0  0  0  0  0  0  0  0
   10.9583  -18.1742   26.8835 C   0  0  0  0  0  0  0  0  0  0  0  0
   12.1424  -18.4253   27.7040 C   0  0  0  0  0  0  0  0  0  0  0  0
   12.4040  -19.6717   28.4250 C   0  0  0  0  0  0  0  0  0  0  0  0
   13.6770  -19.7335   29.2246 C   0  0  0  0  0  0  0  0  0  0  0  0
   13.5180  -19.3718   30.5992 N   0  0  0  0  0  0  0  0  0  0  0  0
   11.6755  -16.7709   24.9714 C   0  0  0  0  0  0  0  0  0  0  0  0
   12.7472  -16.0379   25.0884 O   0  0  0  0  0  0  0  0  0  0  0  0
   11.5172  -17.3082   23.7286 O   0  0  0  0  0  0  0  0  0  0  0  0
  2  1  1  6
  3  2  1  0
  3  4  1  0
  4  5  2  0
  5  6  1  0
  7  6  2  0
  8  7  1  0
  9  4  1  0
  9  8  2  0
 10 17  1  0
 10  2  1  0
 11 10  2  0
 13 12  1  6
 14 13  1  0
 16 15  1  1
 15 13  1  0
 16 17  1  0
 18 16  1  0
 19 18  2  0
 20 18  1  0
 21 20  1  0
 21 22  1  6
 22 23  1  0
 23 24  1  0
 24 25  1  0
 26 25  1  0
 27 29  1  0
 27 21  1  0
 28 27  2  0
M  END
$$$$
