FLK.pdb
     RDKit          3D

 29 29  0  0  1  0  0  0  0  0999 V2000
    6.8009  -18.4493   26.1550 N   0  0  0  0  0  0  0  0  0  0  0  0
    7.5923  -17.2515   25.9692 C   0  0  1  0  0  0  0  0  0  0  0  0
    8.6441  -17.2575   27.0716 C   0  0  0  0  0  0  0  0  0  0  0  0
    8.8838  -15.8451   27.4544 C   0  0  0  0  0  0  0  0  0  0  0  0
    9.8195  -15.5156   28.3949 C   0  0  0  0  0  0  0  0  0  0  0  0
   10.0857  -14.2242   28.7815 C   0  0  0  0  0  0  0  0  0  0  0  0
    9.3616  -13.2236   28.1788 C   0  0  0  0  0  0  0  0  0  0  0  0
    8.4110  -13.5033   27.2292 C   0  0  0  0  0  0  0  0  0  0  0  0
    8.1573  -14.8219   26.8517 C   0  0  0  0  0  0  0  0  0  0  0  0
    8.1831  -17.1032   24.6435 C   0  0  0  0  0  0  0  0  0  0  0  0
    8.3352  -18.1293   23.9425 O   0  0  0  0  0  0  0  0  0  0  0  0
    7.5737  -12.2076   21.9868 C   0  0  0  0  0  0  0  0  0  0  0  0
    7.5531  -13.7117   22.1935 C   0  0  1  0  0  0  0  0  0  0  0  0
    6.6433  -14.4388   21.2579 C   0  0  0  0  0  0  0  0  0  0  0  0
    8.9192  -14.2727   22.3314 C   0  0  0  0  0  0  0  0  0  0  0  0
    9.0048  -15.7246   22.7112 C   0  0  2  0  0  0  0  0  0  0  0  0
    8.5995  -15.8598   24.0935 N   0  0  0  0  0  0  0  0  0  0  0  0
   10.4437  -16.1796   22.6279 C   0  0  0  0  0  0  0  0  0  0  0  0
   11.0193  -16.3031   21.5160 O   0  0  0  0  0  0  0  0  0  0  0  0
   11.1962  -16.4817   23.7714 N   0  0  0  0  0  0  0  0  0  0  0  0
   12.5812  -17.0465   23.6455 C   0  0  1  0  0  0  0  0  0  0  0  0
   13.4884  -16.2034   24.4313 C   0  0  0  0  0  0  0  0  0  0  0  0
   14.8763  -16.6251   24.6170 C   0  0  0  0  0  0  0  0  0  0  0  0
   15.9953  -15.7142   24.8615 C   0  0  0  0  0  0  0  0  0  0  0  0
   17.3581  -16.3391   24.9876 C   0  0  0  0  0  0  0  0  0  0  0  0
   18.4221  -15.3921   25.1166 N   0  0  0  0  0  0  0  0  0  0  0  0
   12.4460  -18.4267   24.0998 C   0  0  0  0  0  0  0  0  0  0  0  0
   11.4390  -18.6857   24.8862 O   0  0  0  0  0  0  0  0  0  0  0  0
   13.2150  -19.5180   23.8238 O   0  0  0  0  0  0  0  0  0  0  0  0
  2  1  1  6
  3  2  1  0
  3  4  1  0
  4  5  2  0
  5  6  1  0
  7  6  2  0
  8  7  1  0
  9  4  1  0
  9  8  2  0
 10 17  1  0
 10  2  1  0
 11 10  2  0
 13 12  1  6
 14 13  1  0
 16 15  1  1
 15 13  1  0
 16 17  1  0
 18 16  1  0
 19 18  2  0
 20 18  1  0
 21 20  1  0
 21 22  1  1
 22 23  1  0
 23 24  1  0
 24 25  1  0
 26 25  1  0
 27 29  1  0
 27 21  1  0
 28 27  2  0
M  END
$$$$
