FLK.pdb
     RDKit          3D

 29 29  0  0  1  0  0  0  0  0999 V2000
    5.1419  -17.8993   23.6949 N   0  0  0  0  0  0  0  0  0  0  0  0
    5.9623  -16.7452   23.9958 C   0  0  1  0  0  0  0  0  0  0  0  0
    6.3017  -16.8354   25.4785 C   0  0  0  0  0  0  0  0  0  0  0  0
    6.9695  -15.5652   25.8517 C   0  0  0  0  0  0  0  0  0  0  0  0
    6.2503  -14.4209   26.0561 C   0  0  0  0  0  0  0  0  0  0  0  0
    6.8176  -13.2202   26.4092 C   0  0  0  0  0  0  0  0  0  0  0  0
    8.1831  -13.1881   26.5600 C   0  0  0  0  0  0  0  0  0  0  0  0
    8.9492  -14.3102   26.3656 C   0  0  0  0  0  0  0  0  0  0  0  0
    8.3521  -15.5189   26.0078 C   0  0  0  0  0  0  0  0  0  0  0  0
    7.1529  -16.6025   23.1647 C   0  0  0  0  0  0  0  0  0  0  0  0
    7.8070  -17.6319   22.8818 O   0  0  0  0  0  0  0  0  0  0  0  0
    7.8720  -11.9206   20.1486 C   0  0  0  0  0  0  0  0  0  0  0  0
    7.7678  -13.3968   20.4885 C   0  0  1  0  0  0  0  0  0  0  0  0
    7.4101  -14.2622   19.3244 C   0  0  0  0  0  0  0  0  0  0  0  0
    8.9128  -13.8605   21.3094 C   0  0  0  0  0  0  0  0  0  0  0  0
    8.8189  -15.2608   21.8481 C   0  0  2  0  0  0  0  0  0  0  0  0
    7.6204  -15.3612   22.6523 N   0  0  0  0  0  0  0  0  0  0  0  0
    9.9893  -15.5227   22.7677 C   0  0  0  0  0  0  0  0  0  0  0  0
   11.1707  -15.4881   22.3364 O   0  0  0  0  0  0  0  0  0  0  0  0
    9.8166  -15.8128   24.1282 N   0  0  0  0  0  0  0  0  0  0  0  0
   10.9896  -15.8038   25.0647 C   0  0  1  0  0  0  0  0  0  0  0  0
   10.5497  -15.2229   26.3378 C   0  0  0  0  0  0  0  0  0  0  0  0
   11.4361  -15.2896   27.4989 C   0  0  0  0  0  0  0  0  0  0  0  0
   11.0125  -15.0620   28.8811 C   0  0  0  0  0  0  0  0  0  0  0  0
   12.0670  -15.2155   29.9433 C   0  0  0  0  0  0  0  0  0  0  0  0
   11.6432  -14.8058   31.2464 N   0  0  0  0  0  0  0  0  0  0  0  0
   11.4139  -17.1991   25.1180 C   0  0  0  0  0  0  0  0  0  0  0  0
   10.4869  -18.0977   24.9370 O   0  0  0  0  0  0  0  0  0  0  0  0
   12.6528  -17.7295   25.3237 O   0  0  0  0  0  0  0  0  0  0  0  0
  2  1  1  6
  3  2  1  0
  3  4  1  0
  4  5  2  0
  5  6  1  0
  7  6  2  0
  8  7  1  0
  9  4  1  0
  9  8  2  0
 10 17  1  0
 10  2  1  0
 11 10  2  0
 13 12  1  6
 14 13  1  0
 16 15  1  1
 15 13  1  0
 16 17  1  0
 18 16  1  0
 19 18  2  0
 20 18  1  0
 21 20  1  0
 21 22  1  1
 22 23  1  0
 23 24  1  0
 24 25  1  0
 26 25  1  0
 27 29  1  0
 27 21  1  0
 28 27  2  0
M  END
$$$$
