ICC.pdb
     RDKit          3D

 21 20  0  0  1  0  0  0  0  0999 V2000
    8.0459  -12.1072   21.5656 C   0  0  0  0  0  0  0  0  0  0  0  0
    7.5769  -13.5649   21.6762 C   0  0  0  0  0  0  0  0  0  0  0  0
    8.2096  -14.3093   20.5457 C   0  0  2  0  0  0  0  0  0  0  0  0
    7.7784  -13.7712   19.1911 C   0  0  0  0  0  0  0  0  0  0  0  0
    8.0738  -15.7996   20.6336 C   0  0  2  0  0  0  0  0  0  0  0  0
    6.6701  -16.1162   20.3704 N   0  0  0  0  0  0  0  0  0  0  0  0
    8.5245  -16.3742   21.9035 C   0  0  0  0  0  0  0  0  0  0  0  0
    7.6592  -16.6265   22.7806 O   0  0  0  0  0  0  0  0  0  0  0  0
    9.8733  -16.6725   22.2280 N   0  0  0  0  0  0  0  0  0  0  0  0
   10.3207  -17.1794   23.4905 C   0  0  1  0  0  0  0  0  0  0  0  0
   11.6229  -17.9230   23.4206 C   0  0  0  0  0  0  0  0  0  0  0  0
   12.0121  -18.5575   25.0611 S   0  0  0  0  0  0  0  0  0  0  0  0
   10.3520  -16.0727   24.4947 C   0  0  0  0  0  0  0  0  0  0  0  0
   10.5684  -14.8698   24.1238 O   0  0  0  0  0  0  0  0  0  0  0  0
   10.1506  -16.2800   25.8747 N   0  0  0  0  0  0  0  0  0  0  0  0
   10.2197  -15.1925   26.8553 C   0  0  1  0  0  0  0  0  0  0  0  0
    8.9243  -14.3825   26.7045 C   0  0  0  0  0  0  0  0  0  0  0  0
    8.8603  -13.0459   27.9167 S   0  0  0  0  0  0  0  0  0  0  0  0
   10.3619  -15.7026   28.2250 C   0  0  0  0  0  0  0  0  0  0  0  0
   10.9139  -14.9460   29.2400 O   0  0  0  0  0  0  0  0  0  0  0  0
    9.9727  -16.8620   28.4934 O   0  0  0  0  0  0  0  0  0  0  0  0
  1  2  1  0
  3  4  1  6
  3  2  1  0
  3  5  1  0
  5  6  1  1
  7  8  2  0
  7  5  1  0
  9  7  1  0
 10  9  1  0
 10 13  1  0
 10 11  1  6
 12 11  1  0
 13 14  2  0
 15 13  1  0
 15 16  1  0
 16 17  1  1
 17 18  1  0
 19 20  1  0
 19 16  1  0
 21 19  2  0
M  END
$$$$
