ICC.pdb
     RDKit          3D

 21 20  0  0  1  0  0  0  0  0999 V2000
    7.9407  -12.3264   19.3982 C   0  0  0  0  0  0  0  0  0  0  0  0
    7.8465  -13.8584   19.4341 C   0  0  0  0  0  0  0  0  0  0  0  0
    7.5686  -14.2410   20.8514 C   0  0  2  0  0  0  0  0  0  0  0  0
    8.5654  -13.6236   21.8189 C   0  0  0  0  0  0  0  0  0  0  0  0
    7.4009  -15.7141   21.0728 C   0  0  2  0  0  0  0  0  0  0  0  0
    6.3192  -16.1572   20.1933 N   0  0  0  0  0  0  0  0  0  0  0  0
    7.1488  -16.0916   22.4656 C   0  0  0  0  0  0  0  0  0  0  0  0
    6.0084  -15.8641   22.9446 O   0  0  0  0  0  0  0  0  0  0  0  0
    8.0974  -16.7000   23.3279 N   0  0  0  0  0  0  0  0  0  0  0  0
    7.8967  -16.9480   24.7240 C   0  0  1  0  0  0  0  0  0  0  0  0
    7.8528  -18.4049   25.0829 C   0  0  0  0  0  0  0  0  0  0  0  0
    7.5446  -18.5530   26.8517 S   0  0  0  0  0  0  0  0  0  0  0  0
    8.9154  -16.1977   25.5200 C   0  0  0  0  0  0  0  0  0  0  0  0
   10.1465  -16.2221   25.1807 O   0  0  0  0  0  0  0  0  0  0  0  0
    8.5918  -15.4375   26.6626 N   0  0  0  0  0  0  0  0  0  0  0  0
    9.5909  -14.6644   27.4062 C   0  0  1  0  0  0  0  0  0  0  0  0
    8.8501  -13.4715   28.0268 C   0  0  0  0  0  0  0  0  0  0  0  0
    7.8748  -12.6041   26.7793 S   0  0  0  0  0  0  0  0  0  0  0  0
   10.2434  -15.4730   28.4438 C   0  0  0  0  0  0  0  0  0  0  0  0
   11.2725  -14.9819   29.2231 O   0  0  0  0  0  0  0  0  0  0  0  0
    9.8618  -16.6498   28.6376 O   0  0  0  0  0  0  0  0  0  0  0  0
  1  2  1  0
  3  4  1  1
  3  2  1  0
  3  5  1  0
  5  6  1  6
  7  8  2  0
  7  5  1  0
  9  7  1  0
 10  9  1  0
 10 13  1  0
 10 11  1  6
 12 11  1  0
 13 14  2  0
 15 13  1  0
 15 16  1  0
 16 17  1  1
 17 18  1  0
 19 20  1  0
 19 16  1  0
 21 19  2  0
M  END
$$$$
