ICC.pdb
     RDKit          3D

 21 20  0  0  1  0  0  0  0  0999 V2000
    6.1618  -11.0481   26.8072 C   0  0  0  0  0  0  0  0  0  0  0  0
    5.6183  -12.2919   26.0899 C   0  0  0  0  0  0  0  0  0  0  0  0
    6.7873  -13.1848   25.8279 C   0  0  2  0  0  0  0  0  0  0  0  0
    7.8989  -12.4701   25.0768 C   0  0  0  0  0  0  0  0  0  0  0  0
    6.4330  -14.4995   25.2007 C   0  0  2  0  0  0  0  0  0  0  0  0
    5.3078  -15.0448   25.9599 N   0  0  0  0  0  0  0  0  0  0  0  0
    7.5427  -15.4529   25.1266 C   0  0  0  0  0  0  0  0  0  0  0  0
    7.8318  -16.1080   26.1605 O   0  0  0  0  0  0  0  0  0  0  0  0
    8.3267  -15.7001   23.9700 N   0  0  0  0  0  0  0  0  0  0  0  0
    9.4428  -16.5956   23.9113 C   0  0  1  0  0  0  0  0  0  0  0  0
    9.9677  -16.8232   22.5234 C   0  0  0  0  0  0  0  0  0  0  0  0
   10.3621  -15.2267   21.7880 S   0  0  0  0  0  0  0  0  0  0  0  0
   10.5083  -16.1343   24.8527 C   0  0  0  0  0  0  0  0  0  0  0  0
   11.3682  -15.2665   24.4800 O   0  0  0  0  0  0  0  0  0  0  0  0
   10.6286  -16.6136   26.1732 N   0  0  0  0  0  0  0  0  0  0  0  0
   11.8147  -16.3666   26.9984 C   0  0  1  0  0  0  0  0  0  0  0  0
   11.3272  -15.6459   28.2633 C   0  0  0  0  0  0  0  0  0  0  0  0
   10.2080  -14.2942   27.8388 S   0  0  0  0  0  0  0  0  0  0  0  0
   12.5089  -17.6143   27.3413 C   0  0  0  0  0  0  0  0  0  0  0  0
   13.6681  -17.6309   28.0921 O   0  0  0  0  0  0  0  0  0  0  0  0
   12.0431  -18.7068   26.9447 O   0  0  0  0  0  0  0  0  0  0  0  0
  1  2  1  0
  3  4  1  6
  3  2  1  0
  3  5  1  0
  5  6  1  1
  7  8  2  0
  7  5  1  0
  9  7  1  0
 10  9  1  0
 10 13  1  0
 10 11  1  6
 12 11  1  0
 13 14  2  0
 15 13  1  0
 15 16  1  0
 16 17  1  1
 17 18  1  0
 19 20  1  0
 19 16  1  0
 21 19  2  0
M  END
$$$$
