ICC.pdb
     RDKit          3D

 21 20  0  0  1  0  0  0  0  0999 V2000
    5.4950  -11.7543   26.5016 C   0  0  0  0  0  0  0  0  0  0  0  0
    6.2924  -12.7644   27.3387 C   0  0  0  0  0  0  0  0  0  0  0  0
    7.2114  -13.4746   26.3988 C   0  0  2  0  0  0  0  0  0  0  0  0
    8.0319  -12.5094   25.5588 C   0  0  0  0  0  0  0  0  0  0  0  0
    6.5490  -14.5301   25.5656 C   0  0  2  0  0  0  0  0  0  0  0  0
    5.9424  -15.4864   26.4917 N   0  0  0  0  0  0  0  0  0  0  0  0
    7.4404  -15.1970   24.6134 C   0  0  0  0  0  0  0  0  0  0  0  0
    8.1511  -16.1466   25.0314 O   0  0  0  0  0  0  0  0  0  0  0  0
    7.5685  -14.8546   23.2424 N   0  0  0  0  0  0  0  0  0  0  0  0
    8.4131  -15.5299   22.3034 C   0  0  1  0  0  0  0  0  0  0  0  0
    8.1677  -15.1404   20.8746 C   0  0  0  0  0  0  0  0  0  0  0  0
    6.4364  -15.4486   20.4832 S   0  0  0  0  0  0  0  0  0  0  0  0
    9.8441  -15.3597   22.7004 C   0  0  0  0  0  0  0  0  0  0  0  0
   10.1879  -14.4155   23.4889 O   0  0  0  0  0  0  0  0  0  0  0  0
   10.8753  -16.2057   22.2433 N   0  0  0  0  0  0  0  0  0  0  0  0
   11.9690  -16.6569   23.1088 C   0  0  1  0  0  0  0  0  0  0  0  0
   11.3223  -17.4313   24.2659 C   0  0  0  0  0  0  0  0  0  0  0  0
   12.2093  -17.1340   25.8102 S   0  0  0  0  0  0  0  0  0  0  0  0
   12.9249  -17.5024   22.3824 C   0  0  0  0  0  0  0  0  0  0  0  0
   14.2912  -17.3657   22.5304 O   0  0  0  0  0  0  0  0  0  0  0  0
   12.4978  -18.3810   21.5990 O   0  0  0  0  0  0  0  0  0  0  0  0
  1  2  1  0
  3  4  1  6
  3  2  1  0
  3  5  1  0
  5  6  1  1
  7  8  2  0
  7  5  1  0
  9  7  1  0
 10  9  1  0
 10 13  1  0
 10 11  1  6
 12 11  1  0
 13 14  2  0
 15 13  1  0
 15 16  1  0
 16 17  1  1
 17 18  1  0
 19 20  1  0
 19 16  1  0
 21 19  2  0
M  END
$$$$
