ICC.pdb
     RDKit          3D

 21 20  0  0  1  0  0  0  0  0999 V2000
    8.1512  -11.9764   20.3104 C   0  0  0  0  0  0  0  0  0  0  0  0
    8.8209  -13.2838   20.7567 C   0  0  0  0  0  0  0  0  0  0  0  0
    7.9736  -14.4012   20.2409 C   0  0  2  0  0  0  0  0  0  0  0  0
    6.5240  -14.2726   20.6799 C   0  0  0  0  0  0  0  0  0  0  0  0
    8.5269  -15.7693   20.5041 C   0  0  2  0  0  0  0  0  0  0  0  0
    7.7830  -16.7007   19.6561 N   0  0  0  0  0  0  0  0  0  0  0  0
    8.4888  -16.1768   21.9107 C   0  0  0  0  0  0  0  0  0  0  0  0
    7.3720  -16.4558   22.4173 O   0  0  0  0  0  0  0  0  0  0  0  0
    9.6223  -16.2835   22.7575 N   0  0  0  0  0  0  0  0  0  0  0  0
    9.5896  -16.7186   24.1216 C   0  0  1  0  0  0  0  0  0  0  0  0
   10.3003  -18.0187   24.3627 C   0  0  0  0  0  0  0  0  0  0  0  0
   10.4038  -18.9159   22.8040 S   0  0  0  0  0  0  0  0  0  0  0  0
   10.0883  -15.6255   25.0107 C   0  0  0  0  0  0  0  0  0  0  0  0
   11.1306  -14.9593   24.6930 O   0  0  0  0  0  0  0  0  0  0  0  0
    9.4584  -15.2705   26.2212 N   0  0  0  0  0  0  0  0  0  0  0  0
   10.0986  -14.4131   27.2231 C   0  0  1  0  0  0  0  0  0  0  0  0
    9.1700  -13.2078   27.4274 C   0  0  0  0  0  0  0  0  0  0  0  0
    7.4391  -13.7205   27.3956 S   0  0  0  0  0  0  0  0  0  0  0  0
   10.3185  -15.1251   28.4885 C   0  0  0  0  0  0  0  0  0  0  0  0
   11.0566  -14.5817   29.5218 O   0  0  0  0  0  0  0  0  0  0  0  0
    9.8247  -16.2647   28.6473 O   0  0  0  0  0  0  0  0  0  0  0  0
  1  2  1  0
  3  4  1  1
  3  2  1  0
  3  5  1  0
  5  6  1  6
  7  8  2  0
  7  5  1  0
  9  7  1  0
 10  9  1  0
 10 13  1  0
 10 11  1  6
 12 11  1  0
 13 14  2  0
 15 13  1  0
 15 16  1  0
 16 17  1  1
 17 18  1  0
 19 20  1  0
 19 16  1  0
 21 19  2  0
M  END
$$$$
