ICC.pdb
     RDKit          3D

 21 20  0  0  1  0  0  0  0  0999 V2000
    7.7089  -11.9840   20.6848 C   0  0  0  0  0  0  0  0  0  0  0  0
    7.5015  -13.5038   20.6195 C   0  0  0  0  0  0  0  0  0  0  0  0
    8.6795  -14.0699   19.8954 C   0  0  2  0  0  0  0  0  0  0  0  0
    8.8313  -13.4855   18.5005 C   0  0  0  0  0  0  0  0  0  0  0  0
    8.7427  -15.5676   19.8931 C   0  0  2  0  0  0  0  0  0  0  0  0
    7.6315  -16.0401   19.0673 N   0  0  0  0  0  0  0  0  0  0  0  0
    8.7178  -16.1762   21.2253 C   0  0  0  0  0  0  0  0  0  0  0  0
    7.6176  -16.5994   21.6636 O   0  0  0  0  0  0  0  0  0  0  0  0
    9.8470  -16.3287   22.0710 N   0  0  0  0  0  0  0  0  0  0  0  0
    9.8297  -16.9578   23.3575 C   0  0  1  0  0  0  0  0  0  0  0  0
   10.7106  -18.1695   23.4541 C   0  0  0  0  0  0  0  0  0  0  0  0
   12.3995  -17.6866   23.0544 S   0  0  0  0  0  0  0  0  0  0  0  0
   10.1357  -15.9476   24.4159 C   0  0  0  0  0  0  0  0  0  0  0  0
   10.7513  -14.8683   24.1201 O   0  0  0  0  0  0  0  0  0  0  0  0
    9.7750  -16.1169   25.7684 N   0  0  0  0  0  0  0  0  0  0  0  0
   10.1599  -15.1641   26.8138 C   0  0  1  0  0  0  0  0  0  0  0  0
    9.0268  -14.1324   26.9064 C   0  0  0  0  0  0  0  0  0  0  0  0
    9.3541  -12.9381   28.2203 S   0  0  0  0  0  0  0  0  0  0  0  0
   10.3694  -15.8291   28.1062 C   0  0  0  0  0  0  0  0  0  0  0  0
   11.0687  -15.2332   29.1374 O   0  0  0  0  0  0  0  0  0  0  0  0
    9.9025  -16.9761   28.2910 O   0  0  0  0  0  0  0  0  0  0  0  0
  1  2  1  0
  3  4  1  6
  3  2  1  0
  3  5  1  0
  5  6  1  6
  7  8  2  0
  7  5  1  0
  9  7  1  0
 10  9  1  0
 10 13  1  0
 10 11  1  6
 12 11  1  0
 13 14  2  0
 15 13  1  0
 15 16  1  0
 16 17  1  1
 17 18  1  0
 19 20  1  0
 19 16  1  0
 21 19  2  0
M  END
$$$$
