ICC.pdb
     RDKit          3D

 21 20  0  0  1  0  0  0  0  0999 V2000
    6.8497  -25.4528   25.4408 C   0  0  0  0  0  0  0  0  0  0  0  0
    6.4521  -23.9743   25.3270 C   0  0  0  0  0  0  0  0  0  0  0  0
    7.6072  -23.1758   25.8376 C   0  0  2  0  0  0  0  0  0  0  0  0
    8.0991  -23.6752   27.1863 C   0  0  0  0  0  0  0  0  0  0  0  0
    7.3866  -21.6931   25.8276 C   0  0  2  0  0  0  0  0  0  0  0  0
    7.0289  -21.3243   24.4579 N   0  0  0  0  0  0  0  0  0  0  0  0
    8.5242  -20.9091   26.3147 C   0  0  0  0  0  0  0  0  0  0  0  0
    9.5270  -20.7902   25.5651 O   0  0  0  0  0  0  0  0  0  0  0  0
    8.5871  -20.2656   27.5778 N   0  0  0  0  0  0  0  0  0  0  0  0
    9.7125  -19.5275   28.0675 C   0  0  1  0  0  0  0  0  0  0  0  0
    9.4317  -18.0706   28.2960 C   0  0  0  0  0  0  0  0  0  0  0  0
    8.1392  -17.5478   27.1552 S   0  0  0  0  0  0  0  0  0  0  0  0
   10.2625  -20.1974   29.2853 C   0  0  0  0  0  0  0  0  0  0  0  0
    9.4847  -20.5535   30.2337 O   0  0  0  0  0  0  0  0  0  0  0  0
   11.6347  -20.4710   29.4595 N   0  0  0  0  0  0  0  0  0  0  0  0
   12.1603  -21.1498   30.6477 C   0  0  1  0  0  0  0  0  0  0  0  0
   12.4192  -22.6076   30.2419 C   0  0  0  0  0  0  0  0  0  0  0  0
   12.3526  -22.7942   28.4473 S   0  0  0  0  0  0  0  0  0  0  0  0
   13.3912  -20.5160   31.1371 C   0  0  0  0  0  0  0  0  0  0  0  0
   14.0147  -20.9179   32.3021 O   0  0  0  0  0  0  0  0  0  0  0  0
   13.9021  -19.5779   30.4838 O   0  0  0  0  0  0  0  0  0  0  0  0
  1  2  1  0
  3  4  1  1
  3  2  1  0
  3  5  1  0
  5  6  1  6
  7  8  2  0
  7  5  1  0
  9  7  1  0
 10  9  1  0
 10 13  1  0
 10 11  1  1
 12 11  1  0
 13 14  2  0
 15 13  1  0
 15 16  1  0
 16 17  1  6
 17 18  1  0
 19 20  1  0
 19 16  1  0
 21 19  2  0
M  END
$$$$
