ICC.pdb
     RDKit          3D

 21 20  0  0  1  0  0  0  0  0999 V2000
    7.7217  -18.9865   20.4457 C   0  0  0  0  0  0  0  0  0  0  0  0
    7.6680  -17.4655   20.2434 C   0  0  0  0  0  0  0  0  0  0  0  0
    7.9980  -16.8426   21.5608 C   0  0  2  0  0  0  0  0  0  0  0  0
    7.2062  -17.4596   22.7022 C   0  0  0  0  0  0  0  0  0  0  0  0
    7.9335  -15.3449   21.5701 C   0  0  2  0  0  0  0  0  0  0  0  0
    8.7846  -14.8745   20.4772 N   0  0  0  0  0  0  0  0  0  0  0  0
    8.3102  -14.7312   22.8458 C   0  0  0  0  0  0  0  0  0  0  0  0
    9.5281  -14.7141   23.1590 O   0  0  0  0  0  0  0  0  0  0  0  0
    7.4023  -14.1480   23.7672 N   0  0  0  0  0  0  0  0  0  0  0  0
    7.7603  -13.6200   25.0495 C   0  0  1  0  0  0  0  0  0  0  0  0
    6.7069  -12.7434   25.6622 C   0  0  0  0  0  0  0  0  0  0  0  0
    7.2037  -12.3371   27.3454 S   0  0  0  0  0  0  0  0  0  0  0  0
    8.1689  -14.7353   25.9568 C   0  0  0  0  0  0  0  0  0  0  0  0
    7.3071  -15.5853   26.3643 O   0  0  0  0  0  0  0  0  0  0  0  0
    9.4928  -14.9149   26.4074 N   0  0  0  0  0  0  0  0  0  0  0  0
    9.8596  -15.9336   27.3957 C   0  0  1  0  0  0  0  0  0  0  0  0
   11.1096  -16.6411   26.8537 C   0  0  0  0  0  0  0  0  0  0  0  0
   10.8153  -17.2751   25.1889 S   0  0  0  0  0  0  0  0  0  0  0  0
   10.1224  -15.3432   28.7143 C   0  0  0  0  0  0  0  0  0  0  0  0
   10.4928  -16.1071   29.8037 O   0  0  0  0  0  0  0  0  0  0  0  0
   10.0099  -14.1057   28.8680 O   0  0  0  0  0  0  0  0  0  0  0  0
  1  2  1  0
  3  4  1  1
  3  2  1  0
  3  5  1  0
  5  6  1  6
  7  8  2  0
  7  5  1  0
  9  7  1  0
 10  9  1  0
 10 13  1  0
 10 11  1  1
 12 11  1  0
 13 14  2  0
 15 13  1  0
 15 16  1  0
 16 17  1  6
 17 18  1  0
 19 20  1  0
 19 16  1  0
 21 19  2  0
M  END
$$$$
