ICC.pdb
     RDKit          3D

 21 20  0  0  1  0  0  0  0  0999 V2000
    5.8935  -18.5721   15.3263 C   0  0  0  0  0  0  0  0  0  0  0  0
    5.7975  -19.8038   16.2378 C   0  0  0  0  0  0  0  0  0  0  0  0
    5.5183  -19.3003   17.6165 C   0  0  2  0  0  0  0  0  0  0  0  0
    6.5670  -18.3061   18.0881 C   0  0  0  0  0  0  0  0  0  0  0  0
    5.2617  -20.3767   18.6278 C   0  0  2  0  0  0  0  0  0  0  0  0
    4.1507  -21.1821   18.1209 N   0  0  0  0  0  0  0  0  0  0  0  0
    4.9935  -19.8838   19.9810 C   0  0  0  0  0  0  0  0  0  0  0  0
    4.0020  -19.1291   20.1516 O   0  0  0  0  0  0  0  0  0  0  0  0
    5.7703  -20.1921   21.1277 N   0  0  0  0  0  0  0  0  0  0  0  0
    5.4831  -19.7453   22.4578 C   0  0  1  0  0  0  0  0  0  0  0  0
    4.7828  -20.7676   23.3051 C   0  0  0  0  0  0  0  0  0  0  0  0
    5.9188  -22.1297   23.6204 S   0  0  0  0  0  0  0  0  0  0  0  0
    6.7340  -19.2370   23.0990 C   0  0  0  0  0  0  0  0  0  0  0  0
    7.8776  -19.6085   22.6685 O   0  0  0  0  0  0  0  0  0  0  0  0
    6.7313  -18.3415   24.1881 N   0  0  0  0  0  0  0  0  0  0  0  0
    7.9632  -17.8831   24.8370 C   0  0  1  0  0  0  0  0  0  0  0  0
    7.6253  -16.5575   25.5340 C   0  0  0  0  0  0  0  0  0  0  0  0
    6.0380  -16.6693   26.3872 S   0  0  0  0  0  0  0  0  0  0  0  0
    8.4693  -18.8677   25.8017 C   0  0  0  0  0  0  0  0  0  0  0  0
    9.7328  -18.7786   26.3524 O   0  0  0  0  0  0  0  0  0  0  0  0
    7.7390  -19.8254   26.1442 O   0  0  0  0  0  0  0  0  0  0  0  0
  1  2  1  0
  3  4  1  1
  3  2  1  0
  3  5  1  0
  5  6  1  6
  7  8  2  0
  7  5  1  0
  9  7  1  0
 10  9  1  0
 10 13  1  0
 10 11  1  1
 12 11  1  0
 13 14  2  0
 15 13  1  0
 15 16  1  0
 16 17  1  1
 17 18  1  0
 19 20  1  0
 19 16  1  0
 21 19  2  0
M  END
$$$$
