ICC.pdb
     RDKit          3D

 21 20  0  0  1  0  0  0  0  0999 V2000
    6.9311  -12.3879   19.5027 C   0  0  0  0  0  0  0  0  0  0  0  0
    7.8109  -12.9297   18.3672 C   0  0  0  0  0  0  0  0  0  0  0  0
    8.7882  -13.8726   18.9902 C   0  0  2  0  0  0  0  0  0  0  0  0
    9.5571  -13.2304   20.1333 C   0  0  0  0  0  0  0  0  0  0  0  0
    9.6936  -14.5599   18.0129 C   0  0  2  0  0  0  0  0  0  0  0  0
    8.8485  -15.0647   16.9308 N   0  0  0  0  0  0  0  0  0  0  0  0
   10.5142  -15.6250   18.5943 C   0  0  0  0  0  0  0  0  0  0  0  0
   10.0607  -16.7980   18.5800 O   0  0  0  0  0  0  0  0  0  0  0  0
   11.7936  -15.4387   19.1790 N   0  0  0  0  0  0  0  0  0  0  0  0
   12.6020  -16.4824   19.7342 C   0  0  1  0  0  0  0  0  0  0  0  0
   13.8438  -16.7760   18.9434 C   0  0  0  0  0  0  0  0  0  0  0  0
   14.5420  -15.2179   18.3687 S   0  0  0  0  0  0  0  0  0  0  0  0
   12.8998  -16.1800   21.1674 C   0  0  0  0  0  0  0  0  0  0  0  0
   13.4650  -15.0816   21.4920 O   0  0  0  0  0  0  0  0  0  0  0  0
   12.5851  -17.0621   22.2214 N   0  0  0  0  0  0  0  0  0  0  0  0
   12.9293  -16.7791   23.6179 C   0  0  1  0  0  0  0  0  0  0  0  0
   11.6736  -17.0785   24.4489 C   0  0  0  0  0  0  0  0  0  0  0  0
   10.2697  -16.1077   23.8602 S   0  0  0  0  0  0  0  0  0  0  0  0
   14.0649  -17.5906   24.0740 C   0  0  0  0  0  0  0  0  0  0  0  0
   14.6350  -18.5706   23.2852 O   0  0  0  0  0  0  0  0  0  0  0  0
   14.5411  -17.3962   25.2157 O   0  0  0  0  0  0  0  0  0  0  0  0
  1  2  1  0
  3  4  1  1
  3  2  1  0
  3  5  1  0
  5  6  1  6
  7  8  2  0
  7  5  1  0
  9  7  1  0
 10  9  1  0
 10 13  1  0
 10 11  1  6
 12 11  1  0
 13 14  2  0
 15 13  1  0
 15 16  1  0
 16 17  1  1
 17 18  1  0
 19 20  1  0
 19 16  1  0
 21 19  2  0
M  END
$$$$
