GPH.pdb
     RDKit          3D

 22 23  0  0  1  0  0  0  0  0999 V2000
   20.7556  -13.1455  -18.1825 N   0  0  0  0  0  0  0  0  0  0  0  0
   21.8273  -12.1955  -18.3117 C   0  0  0  0  0  0  0  0  0  0  0  0
   21.9911  -11.4241  -17.0511 C   0  0  0  0  0  0  0  0  0  0  0  0
   21.0398  -10.7250  -16.6527 O   0  0  0  0  0  0  0  0  0  0  0  0
   23.2174  -11.4784  -16.3026 N   0  0  0  0  0  0  0  0  0  0  0  0
   24.2598  -12.4636  -16.4399 C   0  0  0  0  0  0  0  0  0  0  0  0
   25.5160  -11.6632  -16.2198 C   0  0  0  0  0  0  0  0  0  0  0  0
   25.0871  -10.8927  -14.9553 C   0  0  0  0  0  0  0  0  0  0  0  0
   23.6216  -10.5580  -15.2740 C   0  0  1  0  0  0  0  0  0  0  0  0
   23.5078   -9.1311  -15.6731 C   0  0  0  0  0  0  0  0  0  0  0  0
   23.9660   -8.7757  -16.7682 O   0  0  0  0  0  0  0  0  0  0  0  0
   22.8816   -8.2087  -14.8006 N   0  0  0  0  0  0  0  0  0  0  0  0
   22.7909   -6.7913  -15.1547 C   0  0  1  0  0  0  0  0  0  0  0  0
   21.8615   -6.7407  -16.3728 C   0  0  0  0  0  0  0  0  0  0  0  0
   20.4912   -7.1711  -16.0290 C   0  0  0  0  0  0  0  0  0  0  0  0
   20.1210   -7.9423  -14.9532 C   0  0  0  0  0  0  0  0  0  0  0  0
   18.7791   -8.0880  -15.0304 N   0  0  0  0  0  0  0  0  0  0  0  0
   18.3437   -7.4366  -16.1041 C   0  0  0  0  0  0  0  0  0  0  0  0
   19.3956   -6.8670  -16.7268 N   0  0  0  0  0  0  0  0  0  0  0  0
   22.2362   -6.0013  -14.0314 C   0  0  0  0  0  0  0  0  0  0  0  0
   22.2119   -4.7666  -14.1091 O   0  0  0  0  0  0  0  0  0  0  0  0
   21.7455   -6.6180  -12.8984 O   0  0  0  0  0  0  0  0  0  0  0  0
  2  1  1  0
  2  3  1  0
  3  4  2  0
  5  3  1  0
  5  6  1  0
  7  6  1  0
  8  7  1  0
  9  8  1  0
  9  5  1  0
  9 10  1  6
 11 10  2  0
 12 10  1  0
 13 14  1  6
 13 12  1  0
 14 15  1  0
 15 16  2  0
 17 16  1  0
 18 17  1  0
 19 18  2  0
 19 15  1  0
 20 13  1  0
 20 22  1  0
 21 20  2  0
M  END
$$$$
