GPH.pdb
     RDKit          3D

 22 23  0  0  1  0  0  0  0  0999 V2000
   28.8371  -19.3555  -15.6841 N   0  0  0  0  0  0  0  0  0  0  0  0
   27.7340  -19.3768  -16.6064 C   0  0  0  0  0  0  0  0  0  0  0  0
   26.4749  -18.9880  -15.9178 C   0  0  0  0  0  0  0  0  0  0  0  0
   26.4108  -19.1104  -14.6796 O   0  0  0  0  0  0  0  0  0  0  0  0
   25.3512  -18.4809  -16.6577 N   0  0  0  0  0  0  0  0  0  0  0  0
   25.3547  -18.0598  -18.0356 C   0  0  0  0  0  0  0  0  0  0  0  0
   24.0024  -18.5005  -18.5298 C   0  0  0  0  0  0  0  0  0  0  0  0
   23.1407  -17.9675  -17.3678 C   0  0  0  0  0  0  0  0  0  0  0  0
   24.0181  -18.2969  -16.1501 C   0  0  1  0  0  0  0  0  0  0  0  0
   23.4774  -19.4908  -15.4498 C   0  0  0  0  0  0  0  0  0  0  0  0
   24.1887  -20.5003  -15.3476 O   0  0  0  0  0  0  0  0  0  0  0  0
   22.1671  -19.4540  -14.9149 N   0  0  0  0  0  0  0  0  0  0  0  0
   21.8075  -20.2863  -13.7658 C   0  0  1  0  0  0  0  0  0  0  0  0
   22.6280  -19.7315  -12.5958 C   0  0  0  0  0  0  0  0  0  0  0  0
   23.7508  -20.6254  -12.2472 C   0  0  0  0  0  0  0  0  0  0  0  0
   24.0351  -21.8432  -12.8178 C   0  0  0  0  0  0  0  0  0  0  0  0
   25.1426  -22.3076  -12.1966 N   0  0  0  0  0  0  0  0  0  0  0  0
   25.5222  -21.4168  -11.2860 C   0  0  0  0  0  0  0  0  0  0  0  0
   24.6672  -20.3741  -11.3109 N   0  0  0  0  0  0  0  0  0  0  0  0
   20.3560  -20.1983  -13.4843 C   0  0  0  0  0  0  0  0  0  0  0  0
   19.7537  -21.1984  -13.0741 O   0  0  0  0  0  0  0  0  0  0  0  0
   19.6625  -19.0198  -13.6712 O   0  0  0  0  0  0  0  0  0  0  0  0
  2  1  1  0
  2  3  1  0
  3  4  2  0
  5  3  1  0
  5  6  1  0
  7  6  1  0
  8  7  1  0
  9  8  1  0
  9  5  1  0
  9 10  1  6
 11 10  2  0
 12 10  1  0
 13 14  1  1
 13 12  1  0
 14 15  1  0
 15 16  2  0
 17 16  1  0
 18 17  1  0
 19 18  2  0
 19 15  1  0
 20 13  1  0
 20 22  1  0
 21 20  2  0
M  END
$$$$
