GPH.pdb
     RDKit          3D

 22 23  0  0  1  0  0  0  0  0999 V2000
   24.2515  -23.9679  -15.7888 N   0  0  0  0  0  0  0  0  0  0  0  0
   22.9204  -24.3914  -15.4473 C   0  0  0  0  0  0  0  0  0  0  0  0
   22.9585  -25.6933  -14.7301 C   0  0  0  0  0  0  0  0  0  0  0  0
   23.8978  -26.4768  -14.9673 O   0  0  0  0  0  0  0  0  0  0  0  0
   21.9373  -26.0478  -13.7821 N   0  0  0  0  0  0  0  0  0  0  0  0
   20.7954  -25.2487  -13.4168 C   0  0  0  0  0  0  0  0  0  0  0  0
   19.7124  -26.2749  -13.2143 C   0  0  0  0  0  0  0  0  0  0  0  0
   20.4966  -27.2781  -12.3452 C   0  0  0  0  0  0  0  0  0  0  0  0
   21.8766  -27.2667  -13.0211 C   0  0  1  0  0  0  0  0  0  0  0  0
   22.0423  -28.4922  -13.8449 C   0  0  0  0  0  0  0  0  0  0  0  0
   22.9875  -28.5553  -14.6439 O   0  0  0  0  0  0  0  0  0  0  0  0
   21.1232  -29.5597  -13.7034 N   0  0  0  0  0  0  0  0  0  0  0  0
   21.2471  -30.7640  -14.5260 C   0  0  1  0  0  0  0  0  0  0  0  0
   22.5866  -31.3902  -14.1216 C   0  0  0  0  0  0  0  0  0  0  0  0
   22.8018  -32.6906  -14.7880 C   0  0  0  0  0  0  0  0  0  0  0  0
   21.9360  -33.3228  -15.6483 C   0  0  0  0  0  0  0  0  0  0  0  0
   22.5358  -34.4778  -16.0145 N   0  0  0  0  0  0  0  0  0  0  0  0
   23.7160  -34.5529  -15.4078 C   0  0  0  0  0  0  0  0  0  0  0  0
   23.8881  -33.4521  -14.6478 N   0  0  0  0  0  0  0  0  0  0  0  0
   20.1262  -31.6970  -14.2676 C   0  0  0  0  0  0  0  0  0  0  0  0
   20.0516  -32.7518  -14.9104 O   0  0  0  0  0  0  0  0  0  0  0  0
   19.1625  -31.4110  -13.3220 O   0  0  0  0  0  0  0  0  0  0  0  0
  2  1  1  0
  2  3  1  0
  3  4  2  0
  5  3  1  0
  5  6  1  0
  7  6  1  0
  8  7  1  0
  9  8  1  0
  9  5  1  0
  9 10  1  6
 11 10  2  0
 12 10  1  0
 13 14  1  1
 13 12  1  0
 14 15  1  0
 15 16  2  0
 17 16  1  0
 18 17  1  0
 19 18  2  0
 19 15  1  0
 20 13  1  0
 20 22  1  0
 21 20  2  0
M  END
$$$$
