GPH.pdb
     RDKit          3D

 22 23  0  0  1  0  0  0  0  0999 V2000
   18.9860  -10.1364  -15.9788 N   0  0  0  0  0  0  0  0  0  0  0  0
   19.2042   -8.7501  -15.6651 C   0  0  0  0  0  0  0  0  0  0  0  0
   19.0158   -8.5120  -14.2095 C   0  0  0  0  0  0  0  0  0  0  0  0
   17.9689   -8.9186  -13.6700 O   0  0  0  0  0  0  0  0  0  0  0  0
   20.0153   -7.8283  -13.4345 N   0  0  0  0  0  0  0  0  0  0  0  0
   21.3521   -7.5012  -13.8611 C   0  0  0  0  0  0  0  0  0  0  0  0
   21.5983   -6.1640  -13.2144 C   0  0  0  0  0  0  0  0  0  0  0  0
   21.1004   -6.4934  -11.7930 C   0  0  0  0  0  0  0  0  0  0  0  0
   19.8602   -7.3519  -12.0863 C   0  0  1  0  0  0  0  0  0  0  0  0
   18.6301   -6.5449  -11.8775 C   0  0  0  0  0  0  0  0  0  0  0  0
   18.1849   -5.8742  -12.8196 O   0  0  0  0  0  0  0  0  0  0  0  0
   17.9922   -6.5565  -10.6136 N   0  0  0  0  0  0  0  0  0  0  0  0
   16.8343   -5.6993  -10.3553 C   0  0  1  0  0  0  0  0  0  0  0  0
   15.6912   -6.3114  -11.1730 C   0  0  0  0  0  0  0  0  0  0  0  0
   15.1857   -7.5539  -10.5551 C   0  0  0  0  0  0  0  0  0  0  0  0
   15.9307   -8.6529  -10.1989 C   0  0  0  0  0  0  0  0  0  0  0  0
   15.0646   -9.5483   -9.6735 N   0  0  0  0  0  0  0  0  0  0  0  0
   13.8433   -9.0246   -9.7048 C   0  0  0  0  0  0  0  0  0  0  0  0
   13.9095   -7.7922  -10.2483 N   0  0  0  0  0  0  0  0  0  0  0  0
   16.5029   -5.6812   -8.9118 C   0  0  0  0  0  0  0  0  0  0  0  0
   17.1161   -6.4263   -8.1371 O   0  0  0  0  0  0  0  0  0  0  0  0
   15.5218   -4.8475   -8.4146 O   0  0  0  0  0  0  0  0  0  0  0  0
  2  1  1  0
  2  3  1  0
  3  4  2  0
  5  3  1  0
  5  6  1  0
  7  6  1  0
  8  7  1  0
  9  8  1  0
  9  5  1  0
  9 10  1  6
 11 10  2  0
 12 10  1  0
 13 14  1  6
 13 12  1  0
 14 15  1  0
 15 16  2  0
 17 16  1  0
 18 17  1  0
 19 18  2  0
 19 15  1  0
 20 13  1  0
 20 22  1  0
 21 20  2  0
M  END
$$$$
