GPH.pdb
     RDKit          3D

 22 23  0  0  1  0  0  0  0  0999 V2000
   23.8568  -14.5598  -17.8010 N   0  0  0  0  0  0  0  0  0  0  0  0
   24.0048  -13.2264  -18.3186 C   0  0  0  0  0  0  0  0  0  0  0  0
   23.5925  -12.2258  -17.2990 C   0  0  0  0  0  0  0  0  0  0  0  0
   22.3816  -11.9550  -17.1857 O   0  0  0  0  0  0  0  0  0  0  0  0
   24.5640  -11.5802  -16.4584 N   0  0  0  0  0  0  0  0  0  0  0  0
   25.9709  -11.8830  -16.3897 C   0  0  0  0  0  0  0  0  0  0  0  0
   26.6001  -10.5315  -16.1779 C   0  0  0  0  0  0  0  0  0  0  0  0
   25.6763  -10.0135  -15.0576 C   0  0  0  0  0  0  0  0  0  0  0  0
   24.3021  -10.5160  -15.5270 C   0  0  1  0  0  0  0  0  0  0  0  0
   23.5284   -9.3899  -16.1113 C   0  0  0  0  0  0  0  0  0  0  0  0
   23.7011   -9.0975  -17.3031 O   0  0  0  0  0  0  0  0  0  0  0  0
   22.6133   -8.6753  -15.3012 N   0  0  0  0  0  0  0  0  0  0  0  0
   21.7669   -7.6294  -15.8774 C   0  0  1  0  0  0  0  0  0  0  0  0
   20.3278   -8.0900  -15.6192 C   0  0  0  0  0  0  0  0  0  0  0  0
   19.9491   -9.2110  -16.5032 C   0  0  0  0  0  0  0  0  0  0  0  0
   19.7233   -9.1452  -17.8575 C   0  0  0  0  0  0  0  0  0  0  0  0
   19.4045  -10.3980  -18.2535 N   0  0  0  0  0  0  0  0  0  0  0  0
   19.4329  -11.1977  -17.1921 C   0  0  0  0  0  0  0  0  0  0  0  0
   19.7687  -10.4717  -16.1062 N   0  0  0  0  0  0  0  0  0  0  0  0
   22.0293   -6.3228  -15.2310 C   0  0  0  0  0  0  0  0  0  0  0  0
   22.4651   -6.2930  -14.0733 O   0  0  0  0  0  0  0  0  0  0  0  0
   21.7964   -5.1368  -15.8974 O   0  0  0  0  0  0  0  0  0  0  0  0
  2  1  1  0
  2  3  1  0
  3  4  2  0
  5  3  1  0
  5  6  1  0
  7  6  1  0
  8  7  1  0
  9  8  1  0
  9  5  1  0
  9 10  1  6
 11 10  2  0
 12 10  1  0
 13 14  1  1
 13 12  1  0
 14 15  1  0
 15 16  2  0
 17 16  1  0
 18 17  1  0
 19 18  2  0
 19 15  1  0
 20 13  1  0
 20 22  1  0
 21 20  2  0
M  END
$$$$
