GPH.pdb
     RDKit          3D

 22 23  0  0  1  0  0  0  0  0999 V2000
   29.3307  -20.0231  -12.7117 N   0  0  0  0  0  0  0  0  0  0  0  0
   28.8360  -20.1632  -14.0547 C   0  0  0  0  0  0  0  0  0  0  0  0
   27.4429  -19.6521  -14.1500 C   0  0  0  0  0  0  0  0  0  0  0  0
   26.7471  -19.6229  -13.1168 O   0  0  0  0  0  0  0  0  0  0  0  0
   26.9032  -19.1998  -15.4035 N   0  0  0  0  0  0  0  0  0  0  0  0
   27.6445  -18.9524  -16.6139 C   0  0  0  0  0  0  0  0  0  0  0  0
   26.6948  -19.4012  -17.6926 C   0  0  0  0  0  0  0  0  0  0  0  0
   25.4178  -18.6980  -17.1911 C   0  0  0  0  0  0  0  0  0  0  0  0
   25.5210  -18.9063  -15.6722 C   0  0  1  0  0  0  0  0  0  0  0  0
   24.5899  -19.9842  -15.2487 C   0  0  0  0  0  0  0  0  0  0  0  0
   25.0508  -21.0997  -14.9680 O   0  0  0  0  0  0  0  0  0  0  0  0
   23.2012  -19.7193  -15.1738 N   0  0  0  0  0  0  0  0  0  0  0  0
   22.3897  -20.2940  -14.0998 C   0  0  1  0  0  0  0  0  0  0  0  0
   22.8843  -19.6166  -12.8166 C   0  0  0  0  0  0  0  0  0  0  0  0
   23.7708  -20.5062  -12.0394 C   0  0  0  0  0  0  0  0  0  0  0  0
   24.1474  -21.7845  -12.3766 C   0  0  0  0  0  0  0  0  0  0  0  0
   24.9578  -22.2186  -11.3853 N   0  0  0  0  0  0  0  0  0  0  0  0
   25.0746  -21.2522  -10.4801 C   0  0  0  0  0  0  0  0  0  0  0  0
   24.3440  -20.1904  -10.8769 N   0  0  0  0  0  0  0  0  0  0  0  0
   20.9509  -20.0217  -14.3223 C   0  0  0  0  0  0  0  0  0  0  0  0
   20.1177  -20.8978  -14.0589 O   0  0  0  0  0  0  0  0  0  0  0  0
   20.5223  -18.8072  -14.8186 O   0  0  0  0  0  0  0  0  0  0  0  0
  2  1  1  0
  2  3  1  0
  3  4  2  0
  5  3  1  0
  5  6  1  0
  7  6  1  0
  8  7  1  0
  9  8  1  0
  9  5  1  0
  9 10  1  6
 11 10  2  0
 12 10  1  0
 13 14  1  1
 13 12  1  0
 14 15  1  0
 15 16  2  0
 17 16  1  0
 18 17  1  0
 19 18  2  0
 19 15  1  0
 20 13  1  0
 20 22  1  0
 21 20  2  0
M  END
$$$$
