GPH.pdb
     RDKit          3D

 22 23  0  0  1  0  0  0  0  0999 V2000
   27.7145  -20.2325  -16.1593 N   0  0  0  0  0  0  0  0  0  0  0  0
   27.3632  -19.7741  -14.8424 C   0  0  0  0  0  0  0  0  0  0  0  0
   26.1019  -20.4177  -14.3887 C   0  0  0  0  0  0  0  0  0  0  0  0
   25.1572  -20.5114  -15.1957 O   0  0  0  0  0  0  0  0  0  0  0  0
   25.9675  -20.9233  -13.0495 N   0  0  0  0  0  0  0  0  0  0  0  0
   27.0274  -21.0881  -12.0875 C   0  0  0  0  0  0  0  0  0  0  0  0
   26.3601  -20.7418  -10.7830 C   0  0  0  0  0  0  0  0  0  0  0  0
   25.0754  -21.5785  -10.9451 C   0  0  0  0  0  0  0  0  0  0  0  0
   24.7459  -21.3627  -12.4304 C   0  0  1  0  0  0  0  0  0  0  0  0
   23.6290  -20.3914  -12.5610 C   0  0  0  0  0  0  0  0  0  0  0  0
   23.7676  -19.2511  -12.0962 O   0  0  0  0  0  0  0  0  0  0  0  0
   22.4335  -20.7835  -13.2102 N   0  0  0  0  0  0  0  0  0  0  0  0
   21.2986  -19.8637  -13.3012 C   0  0  1  0  0  0  0  0  0  0  0  0
   21.8107  -18.6743  -14.1215 C   0  0  0  0  0  0  0  0  0  0  0  0
   22.1246  -19.0668  -15.5103 C   0  0  0  0  0  0  0  0  0  0  0  0
   22.0870  -20.3389  -16.0298 C   0  0  0  0  0  0  0  0  0  0  0  0
   22.4459  -20.2323  -17.3289 N   0  0  0  0  0  0  0  0  0  0  0  0
   22.6929  -18.9540  -17.5965 C   0  0  0  0  0  0  0  0  0  0  0  0
   22.4966  -18.2270  -16.4777 N   0  0  0  0  0  0  0  0  0  0  0  0
   20.1465  -20.5119  -13.9694 C   0  0  0  0  0  0  0  0  0  0  0  0
   19.0304  -19.9811  -13.9092 O   0  0  0  0  0  0  0  0  0  0  0  0
   20.2956  -21.6982  -14.6587 O   0  0  0  0  0  0  0  0  0  0  0  0
  2  1  1  0
  2  3  1  0
  3  4  2  0
  5  3  1  0
  5  6  1  0
  7  6  1  0
  8  7  1  0
  9  8  1  0
  9  5  1  0
  9 10  1  1
 11 10  2  0
 12 10  1  0
 13 14  1  6
 13 12  1  0
 14 15  1  0
 15 16  2  0
 17 16  1  0
 18 17  1  0
 19 18  2  0
 19 15  1  0
 20 13  1  0
 20 22  1  0
 21 20  2  0
M  END
$$$$
