GPH.pdb
     RDKit          3D

 22 23  0  0  1  0  0  0  0  0999 V2000
   27.4344  -18.3923  -16.2335 N   0  0  0  0  0  0  0  0  0  0  0  0
   26.5259  -18.9847  -17.1777 C   0  0  0  0  0  0  0  0  0  0  0  0
   25.2148  -18.2841  -17.1452 C   0  0  0  0  0  0  0  0  0  0  0  0
   24.6811  -18.0698  -16.0399 O   0  0  0  0  0  0  0  0  0  0  0  0
   24.5703  -17.8602  -18.3585 N   0  0  0  0  0  0  0  0  0  0  0  0
   25.1866  -17.7341  -19.6548 C   0  0  0  0  0  0  0  0  0  0  0  0
   24.0934  -18.1675  -20.5951 C   0  0  0  0  0  0  0  0  0  0  0  0
   22.9320  -17.3446  -20.0029 C   0  0  0  0  0  0  0  0  0  0  0  0
   23.1902  -17.4786  -18.4940 C   0  0  1  0  0  0  0  0  0  0  0  0
   22.2406  -18.4594  -17.9072 C   0  0  0  0  0  0  0  0  0  0  0  0
   22.6350  -19.6105  -17.6727 O   0  0  0  0  0  0  0  0  0  0  0  0
   20.9102  -18.0638  -17.6280 N   0  0  0  0  0  0  0  0  0  0  0  0
   19.9437  -19.0243  -17.0934 C   0  0  1  0  0  0  0  0  0  0  0  0
   20.3969  -19.2906  -15.6534 C   0  0  0  0  0  0  0  0  0  0  0  0
   20.3127  -18.0721  -14.8230 C   0  0  0  0  0  0  0  0  0  0  0  0
   20.0227  -16.8018  -15.2606 C   0  0  0  0  0  0  0  0  0  0  0  0
   20.0527  -16.0049  -14.1688 N   0  0  0  0  0  0  0  0  0  0  0  0
   20.3475  -16.7503  -13.1085 C   0  0  0  0  0  0  0  0  0  0  0  0
   20.5098  -18.0292  -13.5043 N   0  0  0  0  0  0  0  0  0  0  0  0
   18.5726  -18.4648  -17.1228 C   0  0  0  0  0  0  0  0  0  0  0  0
   18.4004  -17.2946  -17.4862 O   0  0  0  0  0  0  0  0  0  0  0  0
   17.4827  -19.2258  -16.7518 O   0  0  0  0  0  0  0  0  0  0  0  0
  2  1  1  0
  2  3  1  0
  3  4  2  0
  5  3  1  0
  5  6  1  0
  7  6  1  0
  8  7  1  0
  9  8  1  0
  9  5  1  0
  9 10  1  6
 11 10  2  0
 12 10  1  0
 13 14  1  1
 13 12  1  0
 14 15  1  0
 15 16  2  0
 17 16  1  0
 18 17  1  0
 19 18  2  0
 19 15  1  0
 20 13  1  0
 20 22  1  0
 21 20  2  0
M  END
$$$$
