GPH.pdb
     RDKit          3D

 22 23  0  0  1  0  0  0  0  0999 V2000
   28.4090  -20.4807  -15.5042 N   0  0  0  0  0  0  0  0  0  0  0  0
   27.7269  -19.6744  -14.5282 C   0  0  0  0  0  0  0  0  0  0  0  0
   26.4528  -20.3227  -14.1192 C   0  0  0  0  0  0  0  0  0  0  0  0
   25.5257  -20.3903  -14.9488 O   0  0  0  0  0  0  0  0  0  0  0  0
   26.2864  -20.8622  -12.7969 N   0  0  0  0  0  0  0  0  0  0  0  0
   27.3170  -21.0213  -11.8026 C   0  0  0  0  0  0  0  0  0  0  0  0
   26.5965  -20.7225  -10.5146 C   0  0  0  0  0  0  0  0  0  0  0  0
   25.3410  -21.5885  -10.7395 C   0  0  0  0  0  0  0  0  0  0  0  0
   25.0567  -21.3474  -12.2303 C   0  0  1  0  0  0  0  0  0  0  0  0
   23.9192  -20.4028  -12.3781 C   0  0  0  0  0  0  0  0  0  0  0  0
   24.1134  -19.1943  -12.1849 O   0  0  0  0  0  0  0  0  0  0  0  0
   22.6415  -20.8971  -12.7350 N   0  0  0  0  0  0  0  0  0  0  0  0
   21.5867  -19.9847  -13.1792 C   0  0  1  0  0  0  0  0  0  0  0  0
   22.0805  -19.4209  -14.5165 C   0  0  0  0  0  0  0  0  0  0  0  0
   20.9669  -18.8833  -15.3241 C   0  0  0  0  0  0  0  0  0  0  0  0
   19.6488  -18.7947  -14.9445 C   0  0  0  0  0  0  0  0  0  0  0  0
   18.9867  -18.2443  -15.9869 N   0  0  0  0  0  0  0  0  0  0  0  0
   19.8570  -18.0053  -16.9627 C   0  0  0  0  0  0  0  0  0  0  0  0
   21.0832  -18.3973  -16.5610 N   0  0  0  0  0  0  0  0  0  0  0  0
   20.3034  -20.7045  -13.3489 C   0  0  0  0  0  0  0  0  0  0  0  0
   19.2523  -20.1723  -12.9705 O   0  0  0  0  0  0  0  0  0  0  0  0
   20.2587  -21.9593  -13.9218 O   0  0  0  0  0  0  0  0  0  0  0  0
  2  1  1  0
  2  3  1  0
  3  4  2  0
  5  3  1  0
  5  6  1  0
  7  6  1  0
  8  7  1  0
  9  8  1  0
  9  5  1  0
  9 10  1  1
 11 10  2  0
 12 10  1  0
 13 14  1  6
 13 12  1  0
 14 15  1  0
 15 16  2  0
 17 16  1  0
 18 17  1  0
 19 18  2  0
 19 15  1  0
 20 13  1  0
 20 22  1  0
 21 20  2  0
M  END
$$$$
