GPH.pdb
     RDKit          3D

 22 23  0  0  1  0  0  0  0  0999 V2000
   14.6006  -11.6211  -14.1951 N   0  0  0  0  0  0  0  0  0  0  0  0
   15.3250  -10.3885  -14.3487 C   0  0  0  0  0  0  0  0  0  0  0  0
   15.7429   -9.8639  -13.0216 C   0  0  0  0  0  0  0  0  0  0  0  0
   14.9122   -9.8627  -12.0930 O   0  0  0  0  0  0  0  0  0  0  0  0
   17.0749   -9.3671  -12.8066 N   0  0  0  0  0  0  0  0  0  0  0  0
   18.1865   -9.4797  -13.7163 C   0  0  0  0  0  0  0  0  0  0  0  0
   18.9172   -8.1774  -13.5239 C   0  0  0  0  0  0  0  0  0  0  0  0
   18.9406   -8.1447  -11.9828 C   0  0  0  0  0  0  0  0  0  0  0  0
   17.5391   -8.6711  -11.6367 C   0  0  1  0  0  0  0  0  0  0  0  0
   16.6645   -7.5407  -11.2299 C   0  0  0  0  0  0  0  0  0  0  0  0
   16.1761   -6.8138  -12.1067 O   0  0  0  0  0  0  0  0  0  0  0  0
   16.4061   -7.3156   -9.8563 N   0  0  0  0  0  0  0  0  0  0  0  0
   15.4959   -6.2499   -9.4339 C   0  0  1  0  0  0  0  0  0  0  0  0
   14.8172   -6.7808   -8.1661 C   0  0  0  0  0  0  0  0  0  0  0  0
   13.7674   -7.7694   -8.4849 C   0  0  0  0  0  0  0  0  0  0  0  0
   13.2587   -8.0505   -9.7305 C   0  0  0  0  0  0  0  0  0  0  0  0
   12.3255   -9.0127   -9.5545 N   0  0  0  0  0  0  0  0  0  0  0  0
   12.2627   -9.3101   -8.2606 C   0  0  0  0  0  0  0  0  0  0  0  0
   13.1508   -8.5461   -7.5925 N   0  0  0  0  0  0  0  0  0  0  0  0
   16.2404   -5.0006   -9.1534 C   0  0  0  0  0  0  0  0  0  0  0  0
   17.4053   -5.0658   -8.7412 O   0  0  0  0  0  0  0  0  0  0  0  0
   15.6577   -3.7640   -9.3434 O   0  0  0  0  0  0  0  0  0  0  0  0
  2  1  1  0
  2  3  1  0
  3  4  2  0
  5  3  1  0
  5  6  1  0
  7  6  1  0
  8  7  1  0
  9  8  1  0
  9  5  1  0
  9 10  1  6
 11 10  2  0
 12 10  1  0
 13 14  1  1
 13 12  1  0
 14 15  1  0
 15 16  2  0
 17 16  1  0
 18 17  1  0
 19 18  2  0
 19 15  1  0
 20 13  1  0
 20 22  1  0
 21 20  2  0
M  END
$$$$
