GPH.pdb
     RDKit          3D

 22 23  0  0  1  0  0  0  0  0999 V2000
   28.4114  -22.2150  -15.9496 N   0  0  0  0  0  0  0  0  0  0  0  0
   27.8971  -21.1361  -15.1500 C   0  0  0  0  0  0  0  0  0  0  0  0
   26.5649  -21.4923  -14.5939 C   0  0  0  0  0  0  0  0  0  0  0  0
   25.6554  -21.8105  -15.3838 O   0  0  0  0  0  0  0  0  0  0  0  0
   26.3235  -21.4724  -13.1767 N   0  0  0  0  0  0  0  0  0  0  0  0
   27.2959  -21.2055  -12.1476 C   0  0  0  0  0  0  0  0  0  0  0  0
   26.5038  -20.4406  -11.1207 C   0  0  0  0  0  0  0  0  0  0  0  0
   25.2626  -21.3524  -11.0521 C   0  0  0  0  0  0  0  0  0  0  0  0
   25.0634  -21.7227  -12.5301 C   0  0  1  0  0  0  0  0  0  0  0  0
   23.9366  -20.9372  -13.0970 C   0  0  0  0  0  0  0  0  0  0  0  0
   24.1216  -19.7474  -13.3900 O   0  0  0  0  0  0  0  0  0  0  0  0
   22.6792  -21.5581  -13.2914 N   0  0  0  0  0  0  0  0  0  0  0  0
   21.5647  -20.8157  -13.8822 C   0  0  1  0  0  0  0  0  0  0  0  0
   21.4268  -21.3649  -15.3067 C   0  0  0  0  0  0  0  0  0  0  0  0
   20.3244  -20.7082  -16.0380 C   0  0  0  0  0  0  0  0  0  0  0  0
   20.1236  -19.3551  -16.1734 C   0  0  0  0  0  0  0  0  0  0  0  0
   19.0034  -19.2070  -16.9158 N   0  0  0  0  0  0  0  0  0  0  0  0
   18.5365  -20.4130  -17.2230 C   0  0  0  0  0  0  0  0  0  0  0  0
   19.3473  -21.3464  -16.6842 N   0  0  0  0  0  0  0  0  0  0  0  0
   20.3197  -21.0292  -13.1088 C   0  0  0  0  0  0  0  0  0  0  0  0
   20.1625  -22.0884  -12.4886 O   0  0  0  0  0  0  0  0  0  0  0  0
   19.3308  -20.0674  -13.0674 O   0  0  0  0  0  0  0  0  0  0  0  0
  2  1  1  0
  2  3  1  0
  3  4  2  0
  5  3  1  0
  5  6  1  0
  7  6  1  0
  8  7  1  0
  9  8  1  0
  9  5  1  0
  9 10  1  6
 11 10  2  0
 12 10  1  0
 13 14  1  6
 13 12  1  0
 14 15  1  0
 15 16  2  0
 17 16  1  0
 18 17  1  0
 19 18  2  0
 19 15  1  0
 20 13  1  0
 20 22  1  0
 21 20  2  0
M  END
$$$$
