GPH.pdb
     RDKit          3D

 22 23  0  0  1  0  0  0  0  0999 V2000
   31.4691  -22.4484   -9.2143 N   0  0  0  0  0  0  0  0  0  0  0  0
   31.0219  -21.1104   -8.9355 C   0  0  0  0  0  0  0  0  0  0  0  0
   29.5915  -21.1159   -8.5292 C   0  0  0  0  0  0  0  0  0  0  0  0
   28.7479  -21.5707   -9.3253 O   0  0  0  0  0  0  0  0  0  0  0  0
   29.1829  -20.6092   -7.2473 N   0  0  0  0  0  0  0  0  0  0  0  0
   30.0518  -20.2005   -6.1731 C   0  0  0  0  0  0  0  0  0  0  0  0
   29.3228  -19.0278   -5.5728 C   0  0  0  0  0  0  0  0  0  0  0  0
   27.9137  -19.6465   -5.4820 C   0  0  0  0  0  0  0  0  0  0  0  0
   27.8271  -20.4247   -6.8042 C   0  0  1  0  0  0  0  0  0  0  0  0
   26.9806  -19.6788   -7.7713 C   0  0  0  0  0  0  0  0  0  0  0  0
   27.3776  -18.5851   -8.1977 O   0  0  0  0  0  0  0  0  0  0  0  0
   25.7431  -20.2274   -8.1859 N   0  0  0  0  0  0  0  0  0  0  0  0
   25.2952  -20.0922   -9.5728 C   0  0  1  0  0  0  0  0  0  0  0  0
   26.3644  -20.8021  -10.4111 C   0  0  0  0  0  0  0  0  0  0  0  0
   26.0199  -20.7988  -11.8472 C   0  0  0  0  0  0  0  0  0  0  0  0
   24.9227  -20.2053  -12.4245 C   0  0  0  0  0  0  0  0  0  0  0  0
   25.0081  -20.4516  -13.7511 N   0  0  0  0  0  0  0  0  0  0  0  0
   26.1069  -21.1636  -13.9797 C   0  0  0  0  0  0  0  0  0  0  0  0
   26.7380  -21.3825  -12.8081 N   0  0  0  0  0  0  0  0  0  0  0  0
   23.9682  -20.7223   -9.7624 C   0  0  0  0  0  0  0  0  0  0  0  0
   23.3675  -20.5660  -10.8329 O   0  0  0  0  0  0  0  0  0  0  0  0
   23.3891  -21.4813   -8.7657 O   0  0  0  0  0  0  0  0  0  0  0  0
  2  1  1  0
  2  3  1  0
  3  4  2  0
  5  3  1  0
  5  6  1  0
  7  6  1  0
  8  7  1  0
  9  8  1  0
  9  5  1  0
  9 10  1  6
 11 10  2  0
 12 10  1  0
 13 14  1  6
 13 12  1  0
 14 15  1  0
 15 16  2  0
 17 16  1  0
 18 17  1  0
 19 18  2  0
 19 15  1  0
 20 13  1  0
 20 22  1  0
 21 20  2  0
M  END
$$$$
