VVC.pdb
     RDKit          3D

 21 20  0  0  1  0  0  0  0  0999 V2000
    7.5631  -20.3380   24.2075 C   0  0  0  0  0  0  0  0  0  0  0  0
    6.1423  -19.8117   24.1646 C   0  0  2  0  0  0  0  0  0  0  0  0
    5.2321  -21.0259   24.3683 C   0  0  0  0  0  0  0  0  0  0  0  0
    5.7901  -19.2450   22.8079 C   0  0  2  0  0  0  0  0  0  0  0  0
    5.6723  -20.3654   21.8969 N   0  0  0  0  0  0  0  0  0  0  0  0
    6.8089  -18.2814   22.3175 C   0  0  0  0  0  0  0  0  0  0  0  0
    7.7446  -18.6749   21.6029 O   0  0  0  0  0  0  0  0  0  0  0  0
    6.0068  -14.6854   20.9676 C   0  0  0  0  0  0  0  0  0  0  0  0
    7.0776  -14.6435   21.9932 C   0  0  2  0  0  0  0  0  0  0  0  0
    8.0247  -13.5215   21.6391 C   0  0  0  0  0  0  0  0  0  0  0  0
    7.7596  -15.9343   22.2854 C   0  0  2  0  0  0  0  0  0  0  0  0
    6.7250  -16.9049   22.6585 N   0  0  0  0  0  0  0  0  0  0  0  0
    8.7924  -15.8467   23.3282 C   0  0  0  0  0  0  0  0  0  0  0  0
    8.4209  -15.5985   24.5319 O   0  0  0  0  0  0  0  0  0  0  0  0
   10.1600  -16.0095   23.1463 N   0  0  0  0  0  0  0  0  0  0  0  0
   11.1269  -16.1165   24.2445 C   0  0  1  0  0  0  0  0  0  0  0  0
   10.8209  -17.4629   24.9126 C   0  0  0  0  0  0  0  0  0  0  0  0
   11.0045  -17.3477   26.7046 S   0  0  0  0  0  0  0  0  0  0  0  0
   12.5041  -16.1401   23.7685 C   0  0  0  0  0  0  0  0  0  0  0  0
   13.5331  -15.6769   24.5620 O   0  0  0  0  0  0  0  0  0  0  0  0
   12.7742  -16.5813   22.6323 O   0  0  0  0  0  0  0  0  0  0  0  0
  2  1  1  6
  3  2  1  0
  4  2  1  0
  4  5  1  6
  6  4  1  0
  7  6  2  0
  9  8  1  6
  9 11  1  0
 10  9  1  0
 11 12  1  1
 12  6  1  0
 13 11  1  0
 13 15  1  0
 14 13  2  0
 16 15  1  0
 16 17  1  6
 16 19  1  0
 18 17  1  0
 19 21  2  0
 19 20  1  0
M  END
$$$$
