VVC.pdb
     RDKit          3D

 21 20  0  0  1  0  0  0  0  0999 V2000
    8.2998  -19.8720   19.4647 C   0  0  0  0  0  0  0  0  0  0  0  0
    7.0877  -19.1271   18.9415 C   0  0  2  0  0  0  0  0  0  0  0  0
    6.3715  -20.0923   17.9929 C   0  0  0  0  0  0  0  0  0  0  0  0
    7.4778  -17.9287   18.1063 C   0  0  2  0  0  0  0  0  0  0  0  0
    8.2772  -18.4216   17.0030 N   0  0  0  0  0  0  0  0  0  0  0  0
    8.2376  -16.9197   18.8882 C   0  0  0  0  0  0  0  0  0  0  0  0
    9.4739  -16.9966   18.9688 O   0  0  0  0  0  0  0  0  0  0  0  0
    7.1676  -12.9992   19.0592 C   0  0  0  0  0  0  0  0  0  0  0  0
    7.4297  -13.6281   20.3768 C   0  0  2  0  0  0  0  0  0  0  0  0
    7.9383  -12.5595   21.3153 C   0  0  0  0  0  0  0  0  0  0  0  0
    8.2641  -14.8610   20.3631 C   0  0  2  0  0  0  0  0  0  0  0  0
    7.5618  -15.8595   19.5498 N   0  0  0  0  0  0  0  0  0  0  0  0
    8.5683  -15.3968   21.6982 C   0  0  0  0  0  0  0  0  0  0  0  0
    7.6115  -15.9214   22.3747 O   0  0  0  0  0  0  0  0  0  0  0  0
    9.8106  -15.3977   22.3199 N   0  0  0  0  0  0  0  0  0  0  0  0
   10.0987  -16.0978   23.5766 C   0  0  1  0  0  0  0  0  0  0  0  0
    9.9194  -17.5861   23.2516 C   0  0  0  0  0  0  0  0  0  0  0  0
   10.1619  -18.5997   24.7254 S   0  0  0  0  0  0  0  0  0  0  0  0
   11.4685  -15.8856   24.0265 C   0  0  0  0  0  0  0  0  0  0  0  0
   11.8033  -16.0219   25.3578 O   0  0  0  0  0  0  0  0  0  0  0  0
   12.3623  -15.5765   23.2115 O   0  0  0  0  0  0  0  0  0  0  0  0
  2  1  1  6
  3  2  1  0
  4  2  1  0
  4  5  1  6
  6  4  1  0
  7  6  2  0
  9  8  1  6
  9 11  1  0
 10  9  1  0
 11 12  1  6
 12  6  1  0
 13 11  1  0
 13 15  1  0
 14 13  2  0
 16 15  1  0
 16 17  1  6
 16 19  1  0
 18 17  1  0
 19 21  2  0
 19 20  1  0
M  END
$$$$
