VVC.pdb
     RDKit          3D

 21 20  0  0  1  0  0  0  0  0999 V2000
   12.2249  -20.0022   20.8879 C   0  0  0  0  0  0  0  0  0  0  0  0
   11.8614  -18.7220   21.6136 C   0  0  2  0  0  0  0  0  0  0  0  0
   10.7408  -19.0894   22.5900 C   0  0  0  0  0  0  0  0  0  0  0  0
   11.2806  -17.6868   20.6771 C   0  0  2  0  0  0  0  0  0  0  0  0
   12.2984  -17.3875   19.6904 N   0  0  0  0  0  0  0  0  0  0  0  0
   10.8680  -16.4502   21.3895 C   0  0  0  0  0  0  0  0  0  0  0  0
   11.7267  -15.6843   21.8552 O   0  0  0  0  0  0  0  0  0  0  0  0
    7.9631  -13.9165   20.2410 C   0  0  0  0  0  0  0  0  0  0  0  0
    7.7980  -14.4560   21.6129 C   0  0  2  0  0  0  0  0  0  0  0  0
    7.0279  -13.4436   22.4272 C   0  0  0  0  0  0  0  0  0  0  0  0
    9.0352  -14.9464   22.2802 C   0  0  2  0  0  0  0  0  0  0  0  0
    9.4926  -16.1308   21.5455 N   0  0  0  0  0  0  0  0  0  0  0  0
    8.8679  -15.2517   23.7088 C   0  0  0  0  0  0  0  0  0  0  0  0
    8.2312  -16.3190   24.0313 O   0  0  0  0  0  0  0  0  0  0  0  0
    9.3380  -14.4915   24.7723 N   0  0  0  0  0  0  0  0  0  0  0  0
    9.0860  -14.8088   26.1823 C   0  0  1  0  0  0  0  0  0  0  0  0
    9.5163  -13.5550   26.9541 C   0  0  0  0  0  0  0  0  0  0  0  0
   10.9280  -13.9100   28.0214 S   0  0  0  0  0  0  0  0  0  0  0  0
    7.6747  -15.0540   26.4505 C   0  0  0  0  0  0  0  0  0  0  0  0
    7.2851  -16.0338   27.3399 O   0  0  0  0  0  0  0  0  0  0  0  0
    6.7945  -14.3790   25.8776 O   0  0  0  0  0  0  0  0  0  0  0  0
  2  1  1  6
  3  2  1  0
  4  2  1  0
  4  5  1  6
  6  4  1  0
  7  6  2  0
  9  8  1  6
  9 11  1  0
 10  9  1  0
 11 12  1  6
 12  6  1  0
 13 11  1  0
 13 15  1  0
 14 13  2  0
 16 15  1  0
 16 17  1  1
 16 19  1  0
 18 17  1  0
 19 21  2  0
 19 20  1  0
M  END
$$$$
