VVC.pdb
     RDKit          3D

 21 20  0  0  1  0  0  0  0  0999 V2000
    9.1396  -17.6837   22.2810 C   0  0  0  0  0  0  0  0  0  0  0  0
    7.7899  -17.0275   22.0678 C   0  0  2  0  0  0  0  0  0  0  0  0
    7.2694  -17.5503   20.7262 C   0  0  0  0  0  0  0  0  0  0  0  0
    7.9080  -15.5277   21.9173 C   0  0  2  0  0  0  0  0  0  0  0  0
    8.7763  -15.2813   20.7840 N   0  0  0  0  0  0  0  0  0  0  0  0
    8.4512  -14.8794   23.1386 C   0  0  0  0  0  0  0  0  0  0  0  0
    9.6690  -14.6600   23.2376 O   0  0  0  0  0  0  0  0  0  0  0  0
    6.3590  -12.0534   25.1885 C   0  0  0  0  0  0  0  0  0  0  0  0
    6.9494  -13.1194   26.0343 C   0  0  2  0  0  0  0  0  0  0  0  0
    7.2635  -12.5265   27.3875 C   0  0  0  0  0  0  0  0  0  0  0  0
    8.0794  -13.8829   25.4370 C   0  0  2  0  0  0  0  0  0  0  0  0
    7.5878  -14.5045   24.2027 N   0  0  0  0  0  0  0  0  0  0  0  0
    8.6634  -14.8926   26.3323 C   0  0  0  0  0  0  0  0  0  0  0  0
    7.9543  -15.9195   26.6343 O   0  0  0  0  0  0  0  0  0  0  0  0
    9.9314  -14.8542   26.8984 N   0  0  0  0  0  0  0  0  0  0  0  0
   10.4423  -15.8603   27.8360 C   0  0  1  0  0  0  0  0  0  0  0  0
   11.8479  -16.2010   27.3252 C   0  0  0  0  0  0  0  0  0  0  0  0
   11.8118  -16.6083   25.5670 S   0  0  0  0  0  0  0  0  0  0  0  0
   10.5575  -15.3432   29.1936 C   0  0  0  0  0  0  0  0  0  0  0  0
   10.9230  -16.1704   30.2353 O   0  0  0  0  0  0  0  0  0  0  0  0
   10.3265  -14.1403   29.4350 O   0  0  0  0  0  0  0  0  0  0  0  0
  2  1  1  6
  3  2  1  0
  4  2  1  0
  4  5  1  6
  6  4  1  0
  7  6  2  0
  9  8  1  6
  9 11  1  0
 10  9  1  0
 11 12  1  6
 12  6  1  0
 13 11  1  0
 13 15  1  0
 14 13  2  0
 16 15  1  0
 16 17  1  6
 16 19  1  0
 18 17  1  0
 19 21  2  0
 19 20  1  0
M  END
$$$$
