VVC.pdb
     RDKit          3D

 21 20  0  0  1  0  0  0  0  0999 V2000
    7.9013  -18.9903   24.7382 C   0  0  0  0  0  0  0  0  0  0  0  0
    6.9529  -18.9596   23.5561 C   0  0  2  0  0  0  0  0  0  0  0  0
    6.4527  -20.3952   23.3741 C   0  0  0  0  0  0  0  0  0  0  0  0
    7.6622  -18.5954   22.2716 C   0  0  2  0  0  0  0  0  0  0  0  0
    8.6981  -19.5864   22.0624 N   0  0  0  0  0  0  0  0  0  0  0  0
    8.2497  -17.2317   22.3189 C   0  0  0  0  0  0  0  0  0  0  0  0
    9.4480  -17.0799   22.6052 O   0  0  0  0  0  0  0  0  0  0  0  0
    7.6041  -14.3800   19.7494 C   0  0  0  0  0  0  0  0  0  0  0  0
    7.3726  -13.8886   21.1297 C   0  0  2  0  0  0  0  0  0  0  0  0
    7.7888  -12.4379   21.1888 C   0  0  0  0  0  0  0  0  0  0  0  0
    7.9382  -14.7201   22.2276 C   0  0  2  0  0  0  0  0  0  0  0  0
    7.4512  -16.0907   22.0382 N   0  0  0  0  0  0  0  0  0  0  0  0
    7.6161  -14.2344   23.5776 C   0  0  0  0  0  0  0  0  0  0  0  0
    6.4684  -14.5296   24.0715 O   0  0  0  0  0  0  0  0  0  0  0  0
    8.4415  -13.4737   24.3960 N   0  0  0  0  0  0  0  0  0  0  0  0
    8.1021  -13.0844   25.7692 C   0  0  1  0  0  0  0  0  0  0  0  0
    6.5697  -13.0232   25.7969 C   0  0  0  0  0  0  0  0  0  0  0  0
    5.9991  -11.6680   26.8438 S   0  0  0  0  0  0  0  0  0  0  0  0
    8.5423  -14.0698   26.7484 C   0  0  0  0  0  0  0  0  0  0  0  0
    9.1120  -13.6743   27.9408 O   0  0  0  0  0  0  0  0  0  0  0  0
    8.4099  -15.2905   26.5222 O   0  0  0  0  0  0  0  0  0  0  0  0
  2  1  1  1
  3  2  1  0
  4  2  1  0
  4  5  1  1
  6  4  1  0
  7  6  2  0
  9  8  1  6
  9 11  1  0
 10  9  1  0
 11 12  1  1
 12  6  1  0
 13 11  1  0
 13 15  1  0
 14 13  2  0
 16 15  1  0
 16 17  1  6
 16 19  1  0
 18 17  1  0
 19 21  2  0
 19 20  1  0
M  END
$$$$
