VVC.pdb
     RDKit          3D

 21 20  0  0  1  0  0  0  0  0999 V2000
    7.7748  -18.8972   24.3336 C   0  0  0  0  0  0  0  0  0  0  0  0
    6.4337  -18.2555   24.0381 C   0  0  2  0  0  0  0  0  0  0  0  0
    5.6867  -19.2313   23.1250 C   0  0  0  0  0  0  0  0  0  0  0  0
    6.5819  -16.9729   23.2513 C   0  0  2  0  0  0  0  0  0  0  0  0
    7.1668  -17.3237   21.9730 N   0  0  0  0  0  0  0  0  0  0  0  0
    7.4288  -15.9749   23.9539 C   0  0  0  0  0  0  0  0  0  0  0  0
    8.6353  -15.8784   23.6784 O   0  0  0  0  0  0  0  0  0  0  0  0
    6.0643  -12.3353   25.3064 C   0  0  0  0  0  0  0  0  0  0  0  0
    6.7825  -13.1667   26.3030 C   0  0  2  0  0  0  0  0  0  0  0  0
    7.4502  -12.2423   27.2935 C   0  0  0  0  0  0  0  0  0  0  0  0
    7.6878  -14.2143   25.7559 C   0  0  2  0  0  0  0  0  0  0  0  0
    6.8708  -15.1231   24.9444 N   0  0  0  0  0  0  0  0  0  0  0  0
    8.4347  -14.9592   26.7802 C   0  0  0  0  0  0  0  0  0  0  0  0
    7.7906  -15.7895   27.5180 O   0  0  0  0  0  0  0  0  0  0  0  0
    9.7958  -14.8597   27.0400 N   0  0  0  0  0  0  0  0  0  0  0  0
   10.4883  -15.6156   28.0895 C   0  0  1  0  0  0  0  0  0  0  0  0
   11.8859  -15.8934   27.5218 C   0  0  0  0  0  0  0  0  0  0  0  0
   11.7949  -16.3210   25.7705 S   0  0  0  0  0  0  0  0  0  0  0  0
   10.6341  -14.8476   29.3195 C   0  0  0  0  0  0  0  0  0  0  0  0
   11.1452  -15.4318   30.4599 O   0  0  0  0  0  0  0  0  0  0  0  0
   10.2980  -13.6460   29.3596 O   0  0  0  0  0  0  0  0  0  0  0  0
  2  1  1  6
  3  2  1  0
  4  2  1  0
  4  5  1  6
  6  4  1  0
  7  6  2  0
  9  8  1  6
  9 11  1  0
 10  9  1  0
 11 12  1  1
 12  6  1  0
 13 11  1  0
 13 15  1  0
 14 13  2  0
 16 15  1  0
 16 17  1  6
 16 19  1  0
 18 17  1  0
 19 21  2  0
 19 20  1  0
M  END
$$$$
