VVC.pdb
     RDKit          3D

 21 20  0  0  1  0  0  0  0  0999 V2000
    7.2705  -19.7754   17.0901 C   0  0  0  0  0  0  0  0  0  0  0  0
    8.1884  -18.9113   17.9318 C   0  0  2  0  0  0  0  0  0  0  0  0
    7.7713  -19.1389   19.3873 C   0  0  0  0  0  0  0  0  0  0  0  0
    7.9833  -17.4380   17.6610 C   0  0  2  0  0  0  0  0  0  0  0  0
    8.3609  -17.2026   16.2822 N   0  0  0  0  0  0  0  0  0  0  0  0
    8.7835  -16.5804   18.5726 C   0  0  0  0  0  0  0  0  0  0  0  0
   10.0166  -16.5171   18.4449 O   0  0  0  0  0  0  0  0  0  0  0  0
    6.7593  -14.0250   21.4590 C   0  0  0  0  0  0  0  0  0  0  0  0
    8.0833  -13.7895   20.8331 C   0  0  2  0  0  0  0  0  0  0  0  0
    7.8840  -12.8941   19.6332 C   0  0  0  0  0  0  0  0  0  0  0  0
    8.9013  -15.0005   20.5485 C   0  0  2  0  0  0  0  0  0  0  0  0
    8.1503  -15.8258   19.5963 N   0  0  0  0  0  0  0  0  0  0  0  0
    9.2601  -15.7789   21.7432 C   0  0  0  0  0  0  0  0  0  0  0  0
    8.3116  -16.2743   22.4528 O   0  0  0  0  0  0  0  0  0  0  0  0
   10.5465  -16.0437   22.1959 N   0  0  0  0  0  0  0  0  0  0  0  0
   10.8473  -16.7988   23.4173 C   0  0  1  0  0  0  0  0  0  0  0  0
   11.7534  -17.9487   22.9596 C   0  0  0  0  0  0  0  0  0  0  0  0
   10.9295  -18.9581   21.7103 S   0  0  0  0  0  0  0  0  0  0  0  0
   11.5740  -16.0004   24.3963 C   0  0  0  0  0  0  0  0  0  0  0  0
   11.9392  -14.7002   24.1155 O   0  0  0  0  0  0  0  0  0  0  0  0
   11.8776  -16.4826   25.5071 O   0  0  0  0  0  0  0  0  0  0  0  0
  2  1  1  6
  3  2  1  0
  4  2  1  0
  4  5  1  6
  6  4  1  0
  7  6  2  0
  9  8  1  6
  9 11  1  0
 10  9  1  0
 11 12  1  6
 12  6  1  0
 13 11  1  0
 13 15  1  0
 14 13  2  0
 16 15  1  0
 16 17  1  6
 16 19  1  0
 18 17  1  0
 19 21  2  0
 19 20  1  0
M  END
$$$$
