VVC.pdb
     RDKit          3D

 21 20  0  0  1  0  0  0  0  0999 V2000
    7.1530  -20.1844   17.6838 C   0  0  0  0  0  0  0  0  0  0  0  0
    7.9668  -19.1641   18.4547 C   0  0  2  0  0  0  0  0  0  0  0  0
    7.3072  -19.0457   19.8314 C   0  0  0  0  0  0  0  0  0  0  0  0
    7.8871  -17.7893   17.8307 C   0  0  2  0  0  0  0  0  0  0  0  0
    8.5077  -17.8788   16.5245 N   0  0  0  0  0  0  0  0  0  0  0  0
    8.5618  -16.7551   18.6567 C   0  0  0  0  0  0  0  0  0  0  0  0
    9.8003  -16.7339   18.7379 O   0  0  0  0  0  0  0  0  0  0  0  0
    7.3387  -12.8753   19.0750 C   0  0  0  0  0  0  0  0  0  0  0  0
    7.5158  -13.6291   20.3402 C   0  0  2  0  0  0  0  0  0  0  0  0
    7.8818  -12.6456   21.4265 C   0  0  0  0  0  0  0  0  0  0  0  0
    8.4122  -14.8161   20.2789 C   0  0  2  0  0  0  0  0  0  0  0  0
    7.8016  -15.7827   19.3599 N   0  0  0  0  0  0  0  0  0  0  0  0
    8.6801  -15.4361   21.5850 C   0  0  0  0  0  0  0  0  0  0  0  0
    7.7122  -16.0274   22.1866 O   0  0  0  0  0  0  0  0  0  0  0  0
    9.8982  -15.4526   22.2527 N   0  0  0  0  0  0  0  0  0  0  0  0
   10.1820  -16.2927   23.4215 C   0  0  1  0  0  0  0  0  0  0  0  0
   10.0893  -17.7343   22.9056 C   0  0  0  0  0  0  0  0  0  0  0  0
   10.4864  -18.9122   24.2145 S   0  0  0  0  0  0  0  0  0  0  0  0
   11.5243  -16.0757   23.9458 C   0  0  0  0  0  0  0  0  0  0  0  0
   11.8217  -16.3580   25.2629 O   0  0  0  0  0  0  0  0  0  0  0  0
   12.4280  -15.6300   23.2087 O   0  0  0  0  0  0  0  0  0  0  0  0
  2  1  1  6
  3  2  1  0
  4  2  1  0
  4  5  1  6
  6  4  1  0
  7  6  2  0
  9  8  1  6
  9 11  1  0
 10  9  1  0
 11 12  1  6
 12  6  1  0
 13 11  1  0
 13 15  1  0
 14 13  2  0
 16 15  1  0
 16 17  1  6
 16 19  1  0
 18 17  1  0
 19 21  2  0
 19 20  1  0
M  END
$$$$
