VVC.pdb
     RDKit          3D

 21 20  0  0  1  0  0  0  0  0999 V2000
    8.1087  -20.0270   16.6496 C   0  0  0  0  0  0  0  0  0  0  0  0
    8.7862  -19.1070   17.6457 C   0  0  2  0  0  0  0  0  0  0  0  0
    8.0957  -19.3525   18.9900 C   0  0  0  0  0  0  0  0  0  0  0  0
    8.5573  -17.6494   17.3155 C   0  0  2  0  0  0  0  0  0  0  0  0
    9.1998  -17.3963   16.0418 N   0  0  0  0  0  0  0  0  0  0  0  0
    9.0992  -16.7428   18.3601 C   0  0  0  0  0  0  0  0  0  0  0  0
   10.3261  -16.6341   18.5145 O   0  0  0  0  0  0  0  0  0  0  0  0
    7.1920  -13.2415   19.3630 C   0  0  0  0  0  0  0  0  0  0  0  0
    7.6189  -14.0945   20.4989 C   0  0  2  0  0  0  0  0  0  0  0  0
    7.8911  -13.1985   21.6840 C   0  0  0  0  0  0  0  0  0  0  0  0
    8.7116  -15.0659   20.2179 C   0  0  2  0  0  0  0  0  0  0  0  0
    8.2242  -15.9926   19.1907 N   0  0  0  0  0  0  0  0  0  0  0  0
    9.1829  -15.8005   21.4013 C   0  0  0  0  0  0  0  0  0  0  0  0
    8.3881  -16.6493   21.9457 O   0  0  0  0  0  0  0  0  0  0  0  0
   10.4267  -15.6726   22.0065 N   0  0  0  0  0  0  0  0  0  0  0  0
   10.8727  -16.4839   23.1447 C   0  0  1  0  0  0  0  0  0  0  0  0
   12.3839  -16.2380   23.2391 C   0  0  0  0  0  0  0  0  0  0  0  0
   13.2066  -17.6067   24.0805 S   0  0  0  0  0  0  0  0  0  0  0  0
   10.2578  -16.0646   24.3975 C   0  0  0  0  0  0  0  0  0  0  0  0
    9.9842  -16.9816   25.3911 O   0  0  0  0  0  0  0  0  0  0  0  0
    9.9687  -14.8656   24.5912 O   0  0  0  0  0  0  0  0  0  0  0  0
  2  1  1  6
  3  2  1  0
  4  2  1  0
  4  5  1  6
  6  4  1  0
  7  6  2  0
  9  8  1  6
  9 11  1  0
 10  9  1  0
 11 12  1  6
 12  6  1  0
 13 11  1  0
 13 15  1  0
 14 13  2  0
 16 15  1  0
 16 17  1  1
 16 19  1  0
 18 17  1  0
 19 21  2  0
 19 20  1  0
M  END
$$$$
