VVC.pdb
     RDKit          3D

 21 20  0  0  1  0  0  0  0  0999 V2000
    8.3974  -12.9445   18.0947 C   0  0  0  0  0  0  0  0  0  0  0  0
    7.7430  -13.5392   19.3259 C   0  0  2  0  0  0  0  0  0  0  0  0
    8.1529  -12.6455   20.4996 C   0  0  0  0  0  0  0  0  0  0  0  0
    8.2781  -14.9179   19.6403 C   0  0  2  0  0  0  0  0  0  0  0  0
    7.7925  -15.8084   18.6057 N   0  0  0  0  0  0  0  0  0  0  0  0
    7.8510  -15.3965   20.9803 C   0  0  0  0  0  0  0  0  0  0  0  0
    6.6709  -15.7284   21.1756 O   0  0  0  0  0  0  0  0  0  0  0  0
    9.2211  -18.2334   23.0306 C   0  0  0  0  0  0  0  0  0  0  0  0
    9.3019  -16.9830   23.8244 C   0  0  2  0  0  0  0  0  0  0  0  0
    9.1856  -17.3452   25.2861 C   0  0  0  0  0  0  0  0  0  0  0  0
    8.3954  -15.8785   23.4062 C   0  0  2  0  0  0  0  0  0  0  0  0
    8.7834  -15.4798   22.0489 N   0  0  0  0  0  0  0  0  0  0  0  0
    8.4011  -14.7198   24.3115 C   0  0  0  0  0  0  0  0  0  0  0  0
    9.4628  -14.0002   24.3703 O   0  0  0  0  0  0  0  0  0  0  0  0
    7.3547  -14.3096   25.1280 N   0  0  0  0  0  0  0  0  0  0  0  0
    7.4255  -13.1606   26.0375 C   0  0  1  0  0  0  0  0  0  0  0  0
    5.9886  -12.6302   26.1191 C   0  0  0  0  0  0  0  0  0  0  0  0
    5.8637  -11.2954   27.3278 S   0  0  0  0  0  0  0  0  0  0  0  0
    7.8536  -13.5414   27.3775 C   0  0  0  0  0  0  0  0  0  0  0  0
    8.5187  -12.6445   28.1875 O   0  0  0  0  0  0  0  0  0  0  0  0
    7.6240  -14.6884   27.8138 O   0  0  0  0  0  0  0  0  0  0  0  0
  2  1  1  6
  3  2  1  0
  4  2  1  0
  4  5  1  6
  6  4  1  0
  7  6  2  0
  9  8  1  6
  9 11  1  0
 10  9  1  0
 11 12  1  6
 12  6  1  0
 13 11  1  0
 13 15  1  0
 14 13  2  0
 16 15  1  0
 16 17  1  1
 16 19  1  0
 18 17  1  0
 19 21  2  0
 19 20  1  0
M  END
$$$$
