VVC.pdb
     RDKit          3D

 21 20  0  0  1  0  0  0  0  0999 V2000
    6.4772  -18.0335   21.1337 C   0  0  0  0  0  0  0  0  0  0  0  0
    7.2032  -17.3584   22.2804 C   0  0  2  0  0  0  0  0  0  0  0  0
    6.4519  -17.7570   23.5536 C   0  0  0  0  0  0  0  0  0  0  0  0
    7.1165  -15.8514   22.1953 C   0  0  2  0  0  0  0  0  0  0  0  0
    7.6912  -15.4638   20.9231 N   0  0  0  0  0  0  0  0  0  0  0  0
    7.8296  -15.1815   23.3132 C   0  0  0  0  0  0  0  0  0  0  0  0
    9.0704  -15.1824   23.3493 O   0  0  0  0  0  0  0  0  0  0  0  0
    6.1426  -11.9377   25.2329 C   0  0  0  0  0  0  0  0  0  0  0  0
    6.7558  -12.9657   26.1090 C   0  0  2  0  0  0  0  0  0  0  0  0
    7.2547  -12.2812   27.3596 C   0  0  0  0  0  0  0  0  0  0  0  0
    7.7626  -13.8580   25.4714 C   0  0  2  0  0  0  0  0  0  0  0  0
    7.1037  -14.5350   24.3492 N   0  0  0  0  0  0  0  0  0  0  0  0
    8.3663  -14.8362   26.3882 C   0  0  0  0  0  0  0  0  0  0  0  0
    7.6510  -15.8307   26.7724 O   0  0  0  0  0  0  0  0  0  0  0  0
    9.6598  -14.7994   26.8938 N   0  0  0  0  0  0  0  0  0  0  0  0
   10.1941  -15.7732   27.8522 C   0  0  1  0  0  0  0  0  0  0  0  0
   11.4587  -16.3313   27.1872 C   0  0  0  0  0  0  0  0  0  0  0  0
   12.3062  -17.4863   28.2854 S   0  0  0  0  0  0  0  0  0  0  0  0
   10.5722  -15.1549   29.1165 C   0  0  0  0  0  0  0  0  0  0  0  0
   10.6830  -13.7843   29.2265 O   0  0  0  0  0  0  0  0  0  0  0  0
   10.8020  -15.8583   30.1220 O   0  0  0  0  0  0  0  0  0  0  0  0
  2  1  1  6
  3  2  1  0
  4  2  1  0
  4  5  1  6
  6  4  1  0
  7  6  2  0
  9  8  1  6
  9 11  1  0
 10  9  1  0
 11 12  1  6
 12  6  1  0
 13 11  1  0
 13 15  1  0
 14 13  2  0
 16 15  1  0
 16 17  1  6
 16 19  1  0
 18 17  1  0
 19 21  2  0
 19 20  1  0
M  END
$$$$
