VVC.pdb
     RDKit          3D

 21 20  0  0  1  0  0  0  0  0999 V2000
    7.1110  -20.6444   17.8541 C   0  0  0  0  0  0  0  0  0  0  0  0
    7.9918  -19.6363   18.5652 C   0  0  2  0  0  0  0  0  0  0  0  0
    7.6055  -19.7024   20.0452 C   0  0  0  0  0  0  0  0  0  0  0  0
    7.7050  -18.2206   18.1185 C   0  0  2  0  0  0  0  0  0  0  0  0
    8.0571  -18.1379   16.7156 N   0  0  0  0  0  0  0  0  0  0  0  0
    8.4657  -17.2160   18.9052 C   0  0  0  0  0  0  0  0  0  0  0  0
    9.7028  -17.1633   18.8168 O   0  0  0  0  0  0  0  0  0  0  0  0
    7.2211  -13.4040   19.7140 C   0  0  0  0  0  0  0  0  0  0  0  0
    7.5937  -14.2196   20.8956 C   0  0  2  0  0  0  0  0  0  0  0  0
    8.0849  -13.2855   21.9761 C   0  0  0  0  0  0  0  0  0  0  0  0
    8.5017  -15.3715   20.6402 C   0  0  2  0  0  0  0  0  0  0  0  0
    7.7900  -16.3079   19.7637 N   0  0  0  0  0  0  0  0  0  0  0  0
    8.9699  -16.0503   21.8576 C   0  0  0  0  0  0  0  0  0  0  0  0
    8.0912  -16.5226   22.6658 O   0  0  0  0  0  0  0  0  0  0  0  0
   10.2932  -16.2414   22.2348 N   0  0  0  0  0  0  0  0  0  0  0  0
   10.7048  -16.9134   23.4723 C   0  0  1  0  0  0  0  0  0  0  0  0
   11.7328  -17.9628   23.0308 C   0  0  0  0  0  0  0  0  0  0  0  0
   12.4443  -18.8064   24.4592 S   0  0  0  0  0  0  0  0  0  0  0  0
   11.3493  -16.0016   24.4088 C   0  0  0  0  0  0  0  0  0  0  0  0
   12.1480  -14.9723   23.9553 O   0  0  0  0  0  0  0  0  0  0  0  0
   11.1876  -16.1385   25.6391 O   0  0  0  0  0  0  0  0  0  0  0  0
  2  1  1  6
  3  2  1  0
  4  2  1  0
  4  5  1  6
  6  4  1  0
  7  6  2  0
  9  8  1  6
  9 11  1  0
 10  9  1  0
 11 12  1  6
 12  6  1  0
 13 11  1  0
 13 15  1  0
 14 13  2  0
 16 15  1  0
 16 17  1  6
 16 19  1  0
 18 17  1  0
 19 21  2  0
 19 20  1  0
M  END
$$$$
