VVC.pdb
     RDKit          3D

 21 20  0  0  1  0  0  0  0  0999 V2000
    7.2462  -17.6120   20.5394 C   0  0  0  0  0  0  0  0  0  0  0  0
    7.9321  -17.0112   21.7503 C   0  0  2  0  0  0  0  0  0  0  0  0
    7.2395  -17.6148   22.9751 C   0  0  0  0  0  0  0  0  0  0  0  0
    7.7165  -15.5174   21.8389 C   0  0  2  0  0  0  0  0  0  0  0  0
    8.3090  -14.9314   20.6537 N   0  0  0  0  0  0  0  0  0  0  0  0
    8.3189  -14.9324   23.0644 C   0  0  0  0  0  0  0  0  0  0  0  0
    9.5439  -14.7413   23.1255 O   0  0  0  0  0  0  0  0  0  0  0  0
    6.4803  -12.0827   25.2191 C   0  0  0  0  0  0  0  0  0  0  0  0
    7.0032  -13.1972   26.0466 C   0  0  2  0  0  0  0  0  0  0  0  0
    7.3918  -12.6397   27.3955 C   0  0  0  0  0  0  0  0  0  0  0  0
    8.0568  -14.0430   25.4211 C   0  0  2  0  0  0  0  0  0  0  0  0
    7.5043  -14.5861   24.1756 N   0  0  0  0  0  0  0  0  0  0  0  0
    8.5533  -15.1235   26.2859 C   0  0  0  0  0  0  0  0  0  0  0  0
    7.7110  -15.9901   26.7195 O   0  0  0  0  0  0  0  0  0  0  0  0
    9.8683  -15.3126   26.6921 N   0  0  0  0  0  0  0  0  0  0  0  0
   10.2989  -16.3720   27.6113 C   0  0  1  0  0  0  0  0  0  0  0  0
   11.6655  -16.8249   27.0822 C   0  0  0  0  0  0  0  0  0  0  0  0
   11.5760  -17.2163   25.3223 S   0  0  0  0  0  0  0  0  0  0  0  0
   10.4698  -15.8858   28.9744 C   0  0  0  0  0  0  0  0  0  0  0  0
   10.7626  -16.7571   30.0030 O   0  0  0  0  0  0  0  0  0  0  0  0
   10.3538  -14.6698   29.2325 O   0  0  0  0  0  0  0  0  0  0  0  0
  2  1  1  6
  3  2  1  0
  4  2  1  0
  4  5  1  6
  6  4  1  0
  7  6  2  0
  9  8  1  6
  9 11  1  0
 10  9  1  0
 11 12  1  6
 12  6  1  0
 13 11  1  0
 13 15  1  0
 14 13  2  0
 16 15  1  0
 16 17  1  6
 16 19  1  0
 18 17  1  0
 19 21  2  0
 19 20  1  0
M  END
$$$$
