VVC.pdb
     RDKit          3D

 21 20  0  0  1  0  0  0  0  0999 V2000
    7.3840  -20.0973   17.2485 C   0  0  0  0  0  0  0  0  0  0  0  0
    8.1557  -19.1688   18.1651 C   0  0  2  0  0  0  0  0  0  0  0  0
    7.4189  -19.1862   19.5071 C   0  0  0  0  0  0  0  0  0  0  0  0
    8.1164  -17.7366   17.6823 C   0  0  2  0  0  0  0  0  0  0  0  0
    8.7988  -17.6998   16.4048 N   0  0  0  0  0  0  0  0  0  0  0  0
    8.7577  -16.8005   18.6411 C   0  0  0  0  0  0  0  0  0  0  0  0
    9.9883  -16.8212   18.8025 O   0  0  0  0  0  0  0  0  0  0  0  0
    7.3555  -13.0165   19.3720 C   0  0  0  0  0  0  0  0  0  0  0  0
    7.6148  -13.8439   20.5756 C   0  0  2  0  0  0  0  0  0  0  0  0
    7.9920  -12.9199   21.7093 C   0  0  0  0  0  0  0  0  0  0  0  0
    8.5502  -14.9885   20.3982 C   0  0  2  0  0  0  0  0  0  0  0  0
    7.9743  -15.8748   19.3811 N   0  0  0  0  0  0  0  0  0  0  0  0
    8.8348  -15.7304   21.6353 C   0  0  0  0  0  0  0  0  0  0  0  0
    7.8435  -16.1872   22.3114 O   0  0  0  0  0  0  0  0  0  0  0  0
   10.0920  -15.9981   22.1623 N   0  0  0  0  0  0  0  0  0  0  0  0
   10.3174  -16.6967   23.4326 C   0  0  1  0  0  0  0  0  0  0  0  0
   11.0409  -17.9937   23.0490 C   0  0  0  0  0  0  0  0  0  0  0  0
    9.9474  -19.0893   22.1206 S   0  0  0  0  0  0  0  0  0  0  0  0
   11.1750  -15.9397   24.3356 C   0  0  0  0  0  0  0  0  0  0  0  0
   11.4261  -16.3912   25.6146 O   0  0  0  0  0  0  0  0  0  0  0  0
   11.6968  -14.8682   23.9640 O   0  0  0  0  0  0  0  0  0  0  0  0
  2  1  1  6
  3  2  1  0
  4  2  1  0
  4  5  1  6
  6  4  1  0
  7  6  2  0
  9  8  1  6
  9 11  1  0
 10  9  1  0
 11 12  1  6
 12  6  1  0
 13 11  1  0
 13 15  1  0
 14 13  2  0
 16 15  1  0
 16 17  1  6
 16 19  1  0
 18 17  1  0
 19 21  2  0
 19 20  1  0
M  END
$$$$
