VWD.pdb
     RDKit          3D

 30 31  0  0  1  0  0  0  0  0999 V2000
   29.3826  -22.9029  -17.5148 C   0  0  0  0  0  0  0  0  0  0  0  0
   28.6766  -22.8486  -16.1886 C   0  0  1  0  0  0  0  0  0  0  0  0
   29.4637  -21.9163  -15.2857 C   0  0  0  0  0  0  0  0  0  0  0  0
   27.2767  -22.2852  -16.2916 C   0  0  2  0  0  0  0  0  0  0  0  0
   27.3649  -21.0221  -16.9685 N   0  0  0  0  0  0  0  0  0  0  0  0
   26.6179  -22.1891  -14.9689 C   0  0  0  0  0  0  0  0  0  0  0  0
   26.3095  -23.2635  -14.3966 O   0  0  0  0  0  0  0  0  0  0  0  0
   26.3447  -20.9204  -14.3688 N   0  0  0  0  0  0  0  0  0  0  0  0
   25.5919  -20.8373  -13.1494 C   0  0  1  0  0  0  0  0  0  0  0  0
   26.1973  -19.7046  -12.3097 C   0  0  0  0  0  0  0  0  0  0  0  0
   27.2137  -20.2422  -11.3691 C   0  0  0  0  0  0  0  0  0  0  0  0
   28.4266  -20.7825  -11.7115 C   0  0  0  0  0  0  0  0  0  0  0  0
   29.0410  -21.1466  -10.5799 N   0  0  0  0  0  0  0  0  0  0  0  0
   28.2704  -20.8612   -9.5253 C   0  0  0  0  0  0  0  0  0  0  0  0
   28.4330  -21.0320   -8.1531 C   0  0  0  0  0  0  0  0  0  0  0  0
   27.4550  -20.6390   -7.2619 C   0  0  0  0  0  0  0  0  0  0  0  0
   26.2944  -20.0671   -7.7274 C   0  0  0  0  0  0  0  0  0  0  0  0
   26.1322  -19.8975   -9.0861 C   0  0  0  0  0  0  0  0  0  0  0  0
   27.1171  -20.2921   -9.9992 C   0  0  0  0  0  0  0  0  0  0  0  0
   24.1522  -20.6353  -13.3545 C   0  0  0  0  0  0  0  0  0  0  0  0
   23.7838  -19.6554  -14.0567 O   0  0  0  0  0  0  0  0  0  0  0  0
   23.1940  -21.5219  -12.7767 N   0  0  0  0  0  0  0  0  0  0  0  0
   21.7950  -21.2386  -12.9581 C   0  0  1  0  0  0  0  0  0  0  0  0
   20.9809  -22.3700  -12.3935 C   0  0  0  0  0  0  0  0  0  0  0  0
   19.8306  -22.7262  -13.2604 C   0  0  0  0  0  0  0  0  0  0  0  0
   19.5609  -22.0031  -14.2677 O   0  0  0  0  0  0  0  0  0  0  0  0
   21.4283  -20.0116  -12.1953 C   0  0  0  0  0  0  0  0  0  0  0  0
   20.3777  -19.2532  -12.6687 O   0  0  0  0  0  0  0  0  0  0  0  0
   18.9993  -23.8162  -13.0558 O   0  0  0  0  0  0  0  0  0  0  0  0
   22.0283  -19.6633  -11.1710 O   0  0  0  0  0  0  0  0  0  0  0  0
  2  1  1  6
  2  3  1  0
  2  4  1  0
  4  5  1  1
  6  4  1  0
  6  7  2  0
  8  6  1  0
  9  8  1  0
  9 20  1  0
  9 10  1  1
 11 10  1  0
 11 12  2  0
 13 12  1  0
 14 19  2  0
 14 13  1  0
 15 14  1  0
 16 17  1  0
 16 15  2  0
 17 18  2  0
 18 19  1  0
 19 11  1  0
 20 21  2  0
 20 22  1  0
 22 23  1  0
 23 27  1  0
 23 24  1  1
 25 24  1  0
 26 25  2  0
 27 30  2  0
 27 28  1  0
 29 25  1  0
M  END
$$$$
