VWD.pdb
     RDKit          3D

 30 31  0  0  1  0  0  0  0  0999 V2000
   29.2853  -18.3693  -13.9436 C   0  0  0  0  0  0  0  0  0  0  0  0
   28.1556  -19.1441  -13.3243 C   0  0  1  0  0  0  0  0  0  0  0  0
   27.5593  -20.0303  -14.4027 C   0  0  0  0  0  0  0  0  0  0  0  0
   28.6123  -20.0556  -12.2069 C   0  0  2  0  0  0  0  0  0  0  0  0
   29.6189  -20.9285  -12.7417 N   0  0  0  0  0  0  0  0  0  0  0  0
   27.4820  -20.7848  -11.5879 C   0  0  0  0  0  0  0  0  0  0  0  0
   27.2962  -21.9745  -11.9443 O   0  0  0  0  0  0  0  0  0  0  0  0
   26.6361  -20.1559  -10.6217 N   0  0  0  0  0  0  0  0  0  0  0  0
   25.4550  -20.8182  -10.1452 C   0  0  1  0  0  0  0  0  0  0  0  0
   25.0809  -20.1829   -8.7995 C   0  0  0  0  0  0  0  0  0  0  0  0
   26.2960  -19.6835   -8.1059 C   0  0  0  0  0  0  0  0  0  0  0  0
   26.9488  -18.5059   -8.3655 C   0  0  0  0  0  0  0  0  0  0  0  0
   27.9898  -18.4276   -7.5285 N   0  0  0  0  0  0  0  0  0  0  0  0
   28.0306  -19.5082   -6.7422 C   0  0  0  0  0  0  0  0  0  0  0  0
   28.8901  -19.9134   -5.7245 C   0  0  0  0  0  0  0  0  0  0  0  0
   28.6986  -21.1072   -5.0587 C   0  0  0  0  0  0  0  0  0  0  0  0
   27.6422  -21.9191   -5.3990 C   0  0  0  0  0  0  0  0  0  0  0  0
   26.7904  -21.5189   -6.4066 C   0  0  0  0  0  0  0  0  0  0  0  0
   26.9747  -20.3105   -7.0887 C   0  0  0  0  0  0  0  0  0  0  0  0
   24.3290  -20.7712  -11.0861 C   0  0  0  0  0  0  0  0  0  0  0  0
   24.1876  -19.7366  -11.7923 O   0  0  0  0  0  0  0  0  0  0  0  0
   23.4182  -21.8645  -11.2007 N   0  0  0  0  0  0  0  0  0  0  0  0
   22.3276  -21.7589  -12.1334 C   0  0  1  0  0  0  0  0  0  0  0  0
   21.8966  -23.1372  -12.5532 C   0  0  0  0  0  0  0  0  0  0  0  0
   22.6926  -23.6557  -13.6929 C   0  0  0  0  0  0  0  0  0  0  0  0
   23.5620  -22.9091  -14.2378 O   0  0  0  0  0  0  0  0  0  0  0  0
   21.1582  -21.1178  -11.4678 C   0  0  0  0  0  0  0  0  0  0  0  0
   21.2633  -20.8342  -10.1219 O   0  0  0  0  0  0  0  0  0  0  0  0
   22.5620  -24.9269  -14.2299 O   0  0  0  0  0  0  0  0  0  0  0  0
   20.1185  -20.8391  -12.0776 O   0  0  0  0  0  0  0  0  0  0  0  0
  2  1  1  6
  2  3  1  0
  2  4  1  0
  4  5  1  6
  6  4  1  0
  6  7  2  0
  8  6  1  0
  9  8  1  0
  9 20  1  0
  9 10  1  1
 11 10  1  0
 11 12  2  0
 13 12  1  0
 14 19  2  0
 14 13  1  0
 15 14  1  0
 16 17  1  0
 16 15  2  0
 17 18  2  0
 18 19  1  0
 19 11  1  0
 20 21  2  0
 20 22  1  0
 22 23  1  0
 23 27  1  0
 23 24  1  1
 25 24  1  0
 26 25  2  0
 27 30  2  0
 27 28  1  0
 29 25  1  0
M  END
$$$$
