VWD.pdb
     RDKit          3D

 30 31  0  0  1  0  0  0  0  0999 V2000
   14.6259  -20.3903    5.2145 C   0  0  0  0  0  0  0  0  0  0  0  0
   15.2040  -20.4485    3.8279 C   0  0  1  0  0  0  0  0  0  0  0  0
   14.0944  -20.8748    2.8839 C   0  0  0  0  0  0  0  0  0  0  0  0
   15.7035  -19.1055    3.3434 C   0  0  2  0  0  0  0  0  0  0  0  0
   16.1068  -19.2595    1.9741 N   0  0  0  0  0  0  0  0  0  0  0  0
   16.7792  -18.5683    4.2076 C   0  0  0  0  0  0  0  0  0  0  0  0
   17.9646  -18.8301    3.8865 O   0  0  0  0  0  0  0  0  0  0  0  0
   16.4768  -17.7817    5.3628 N   0  0  0  0  0  0  0  0  0  0  0  0
   17.5306  -17.2100    6.1522 C   0  0  1  0  0  0  0  0  0  0  0  0
   17.0597  -15.8257    6.6172 C   0  0  0  0  0  0  0  0  0  0  0  0
   17.3685  -14.7998    5.5880 C   0  0  0  0  0  0  0  0  0  0  0  0
   16.6428  -14.5506    4.4516 C   0  0  0  0  0  0  0  0  0  0  0  0
   17.2501  -13.5560    3.7941 N   0  0  0  0  0  0  0  0  0  0  0  0
   18.3365  -13.1572    4.4636 C   0  0  0  0  0  0  0  0  0  0  0  0
   19.2985  -12.1802    4.2222 C   0  0  0  0  0  0  0  0  0  0  0  0
   20.3432  -11.9718    5.0999 C   0  0  0  0  0  0  0  0  0  0  0  0
   20.4452  -12.7382    6.2371 C   0  0  0  0  0  0  0  0  0  0  0  0
   19.4930  -13.7061    6.4772 C   0  0  0  0  0  0  0  0  0  0  0  0
   18.4293  -13.9263    5.5944 C   0  0  0  0  0  0  0  0  0  0  0  0
   17.9365  -18.0431    7.2909 C   0  0  0  0  0  0  0  0  0  0  0  0
   17.0465  -18.4143    8.1028 O   0  0  0  0  0  0  0  0  0  0  0  0
   19.2998  -18.4242    7.4763 N   0  0  0  0  0  0  0  0  0  0  0  0
   19.6278  -19.3044    8.5663 C   0  0  1  0  0  0  0  0  0  0  0  0
   20.3625  -20.5037    8.0337 C   0  0  0  0  0  0  0  0  0  0  0  0
   19.5074  -21.7152    7.9864 C   0  0  0  0  0  0  0  0  0  0  0  0
   18.3121  -21.6523    8.4080 O   0  0  0  0  0  0  0  0  0  0  0  0
   20.5482  -18.6110    9.5119 C   0  0  0  0  0  0  0  0  0  0  0  0
   20.8174  -19.2312   10.7143 O   0  0  0  0  0  0  0  0  0  0  0  0
   19.9173  -22.9491    7.5060 O   0  0  0  0  0  0  0  0  0  0  0  0
   21.0658  -17.5179    9.2520 O   0  0  0  0  0  0  0  0  0  0  0  0
  2  1  1  1
  2  3  1  0
  2  4  1  0
  4  5  1  6
  6  4  1  0
  6  7  2  0
  8  6  1  0
  9  8  1  0
  9 20  1  0
  9 10  1  1
 11 10  1  0
 11 12  2  0
 13 12  1  0
 14 19  2  0
 14 13  1  0
 15 14  1  0
 16 17  1  0
 16 15  2  0
 17 18  2  0
 18 19  1  0
 19 11  1  0
 20 21  2  0
 20 22  1  0
 22 23  1  0
 23 27  1  0
 23 24  1  6
 25 24  1  0
 26 25  2  0
 27 30  2  0
 27 28  1  0
 29 25  1  0
M  END
$$$$
