VWD.pdb
     RDKit          3D

 30 31  0  0  1  0  0  0  0  0999 V2000
   25.0008   -7.5373  -19.3626 C   0  0  0  0  0  0  0  0  0  0  0  0
   24.9272   -8.9501  -19.8712 C   0  0  1  0  0  0  0  0  0  0  0  0
   26.3034   -9.3250  -20.3903 C   0  0  0  0  0  0  0  0  0  0  0  0
   24.5779   -9.9464  -18.7880 C   0  0  2  0  0  0  0  0  0  0  0  0
   24.6672  -11.2601  -19.3602 N   0  0  0  0  0  0  0  0  0  0  0  0
   23.2562   -9.6669  -18.1816 C   0  0  0  0  0  0  0  0  0  0  0  0
   22.2374   -9.9386  -18.8636 O   0  0  0  0  0  0  0  0  0  0  0  0
   23.1473   -9.1089  -16.8696 N   0  0  0  0  0  0  0  0  0  0  0  0
   21.8625   -8.7747  -16.3235 C   0  0  1  0  0  0  0  0  0  0  0  0
   21.6366   -9.6672  -15.0960 C   0  0  0  0  0  0  0  0  0  0  0  0
   21.2807  -11.0470  -15.5161 C   0  0  0  0  0  0  0  0  0  0  0  0
   22.1555  -12.0861  -15.7036 C   0  0  0  0  0  0  0  0  0  0  0  0
   21.4410  -13.1536  -16.0783 N   0  0  0  0  0  0  0  0  0  0  0  0
   20.1426  -12.8405  -16.1387 C   0  0  0  0  0  0  0  0  0  0  0  0
   19.0019  -13.5678  -16.4679 C   0  0  0  0  0  0  0  0  0  0  0  0
   17.7509  -12.9849  -16.4487 C   0  0  0  0  0  0  0  0  0  0  0  0
   17.6174  -11.6617  -16.0994 C   0  0  0  0  0  0  0  0  0  0  0  0
   18.7463  -10.9404  -15.7731 C   0  0  0  0  0  0  0  0  0  0  0  0
   20.0200  -11.5208  -15.7890 C   0  0  0  0  0  0  0  0  0  0  0  0
   21.7152   -7.3544  -15.9820 C   0  0  0  0  0  0  0  0  0  0  0  0
   22.6001   -6.8224  -15.2589 O   0  0  0  0  0  0  0  0  0  0  0  0
   20.6026   -6.5945  -16.4540 N   0  0  0  0  0  0  0  0  0  0  0  0
   20.5601   -5.1846  -16.1696 C   0  0  1  0  0  0  0  0  0  0  0  0
   20.0658   -4.4469  -17.3833 C   0  0  0  0  0  0  0  0  0  0  0  0
   20.0618   -2.9761  -17.1879 C   0  0  0  0  0  0  0  0  0  0  0  0
   20.4824   -2.4908  -16.0935 O   0  0  0  0  0  0  0  0  0  0  0  0
   19.5866   -4.9233  -15.0714 C   0  0  0  0  0  0  0  0  0  0  0  0
   18.9383   -6.0082  -14.5185 O   0  0  0  0  0  0  0  0  0  0  0  0
   19.6228   -2.0586  -18.1297 O   0  0  0  0  0  0  0  0  0  0  0  0
   19.3502   -3.7837  -14.6519 O   0  0  0  0  0  0  0  0  0  0  0  0
  2  1  1  1
  2  3  1  0
  2  4  1  0
  4  5  1  6
  6  4  1  0
  6  7  2  0
  8  6  1  0
  9  8  1  0
  9 20  1  0
  9 10  1  1
 11 10  1  0
 11 12  2  0
 13 12  1  0
 14 19  2  0
 14 13  1  0
 15 14  1  0
 16 17  1  0
 16 15  2  0
 17 18  2  0
 18 19  1  0
 19 11  1  0
 20 21  2  0
 20 22  1  0
 22 23  1  0
 23 27  1  0
 23 24  1  6
 25 24  1  0
 26 25  2  0
 27 30  2  0
 27 28  1  0
 29 25  1  0
M  END
$$$$
