VWD.pdb
     RDKit          3D

 30 31  0  0  1  0  0  0  0  0999 V2000
   28.4702  -18.0695  -15.8532 C   0  0  0  0  0  0  0  0  0  0  0  0
   27.7368  -18.7992  -14.7625 C   0  0  1  0  0  0  0  0  0  0  0  0
   26.2978  -18.9745  -15.2126 C   0  0  0  0  0  0  0  0  0  0  0  0
   28.2908  -20.1832  -14.5070 C   0  0  2  0  0  0  0  0  0  0  0  0
   28.2795  -20.8934  -15.7548 N   0  0  0  0  0  0  0  0  0  0  0  0
   27.5535  -20.8870  -13.4329 C   0  0  0  0  0  0  0  0  0  0  0  0
   26.6388  -21.6747  -13.7789 O   0  0  0  0  0  0  0  0  0  0  0  0
   27.8731  -20.6759  -12.0552 N   0  0  0  0  0  0  0  0  0  0  0  0
   27.0794  -21.2781  -11.0218 C   0  0  1  0  0  0  0  0  0  0  0  0
   27.9846  -21.4705   -9.7979 C   0  0  0  0  0  0  0  0  0  0  0  0
   27.3050  -20.9864   -8.5687 C   0  0  0  0  0  0  0  0  0  0  0  0
   25.9506  -20.8853   -8.3801 C   0  0  0  0  0  0  0  0  0  0  0  0
   25.7487  -20.4094   -7.1459 N   0  0  0  0  0  0  0  0  0  0  0  0
   26.9198  -20.2013   -6.5353 C   0  0  0  0  0  0  0  0  0  0  0  0
   27.2642  -19.7262   -5.2728 C   0  0  0  0  0  0  0  0  0  0  0  0
   28.5845  -19.6076   -4.8882 C   0  0  0  0  0  0  0  0  0  0  0  0
   29.5863  -19.9624   -5.7608 C   0  0  0  0  0  0  0  0  0  0  0  0
   29.2464  -20.4330   -7.0114 C   0  0  0  0  0  0  0  0  0  0  0  0
   27.9111  -20.5577   -7.4123 C   0  0  0  0  0  0  0  0  0  0  0  0
   25.8756  -20.5117  -10.6769 C   0  0  0  0  0  0  0  0  0  0  0  0
   26.0049  -19.2831  -10.4261 O   0  0  0  0  0  0  0  0  0  0  0  0
   24.5932  -21.1370  -10.6265 N   0  0  0  0  0  0  0  0  0  0  0  0
   23.4756  -20.4690  -11.2393 C   0  0  1  0  0  0  0  0  0  0  0  0
   23.7616  -20.2593  -12.7007 C   0  0  0  0  0  0  0  0  0  0  0  0
   22.6549  -19.5592  -13.3983 C   0  0  0  0  0  0  0  0  0  0  0  0
   21.6802  -19.1057  -12.7242 O   0  0  0  0  0  0  0  0  0  0  0  0
   22.2640  -21.3325  -11.1494 C   0  0  0  0  0  0  0  0  0  0  0  0
   22.3194  -22.5776  -11.7408 O   0  0  0  0  0  0  0  0  0  0  0  0
   22.5940  -19.3529  -14.7676 O   0  0  0  0  0  0  0  0  0  0  0  0
   21.2325  -20.9698  -10.5706 O   0  0  0  0  0  0  0  0  0  0  0  0
  2  1  1  6
  2  3  1  0
  2  4  1  0
  4  5  1  6
  6  4  1  0
  6  7  2  0
  8  6  1  0
  9  8  1  0
  9 20  1  0
  9 10  1  1
 11 10  1  0
 11 12  2  0
 13 12  1  0
 14 19  2  0
 14 13  1  0
 15 14  1  0
 16 17  1  0
 16 15  2  0
 17 18  2  0
 18 19  1  0
 19 11  1  0
 20 21  2  0
 20 22  1  0
 22 23  1  0
 23 27  1  0
 23 24  1  6
 25 24  1  0
 26 25  2  0
 27 30  2  0
 27 28  1  0
 29 25  1  0
M  END
$$$$
