VWD.pdb
     RDKit          3D

 30 31  0  0  1  0  0  0  0  0999 V2000
   26.7932  -18.2415  -13.9724 C   0  0  0  0  0  0  0  0  0  0  0  0
   27.1342  -19.3592  -14.9183 C   0  0  1  0  0  0  0  0  0  0  0  0
   27.9932  -18.7784  -16.0268 C   0  0  0  0  0  0  0  0  0  0  0  0
   27.9427  -20.4567  -14.2628 C   0  0  2  0  0  0  0  0  0  0  0  0
   28.1744  -21.4743  -15.2488 N   0  0  0  0  0  0  0  0  0  0  0  0
   27.2883  -20.9734  -13.0392 C   0  0  0  0  0  0  0  0  0  0  0  0
   26.3262  -21.7665  -13.1884 O   0  0  0  0  0  0  0  0  0  0  0  0
   27.7368  -20.5826  -11.7389 N   0  0  0  0  0  0  0  0  0  0  0  0
   26.9967  -20.9598  -10.5682 C   0  0  1  0  0  0  0  0  0  0  0  0
   27.9163  -20.7590   -9.3565 C   0  0  0  0  0  0  0  0  0  0  0  0
   27.1269  -20.7721   -8.0981 C   0  0  0  0  0  0  0  0  0  0  0  0
   25.8585  -21.2701   -7.9445 C   0  0  0  0  0  0  0  0  0  0  0  0
   25.5066  -21.0925   -6.6658 N   0  0  0  0  0  0  0  0  0  0  0  0
   26.4989  -20.5005   -5.9931 C   0  0  0  0  0  0  0  0  0  0  0  0
   26.6445  -20.1002   -4.6676 C   0  0  0  0  0  0  0  0  0  0  0  0
   27.8041  -19.4960   -4.2254 C   0  0  0  0  0  0  0  0  0  0  0  0
   28.8411  -19.2807   -5.1024 C   0  0  0  0  0  0  0  0  0  0  0  0
   28.6981  -19.6767   -6.4153 C   0  0  0  0  0  0  0  0  0  0  0  0
   27.5269  -20.2903   -6.8749 C   0  0  0  0  0  0  0  0  0  0  0  0
   25.7344  -20.2281  -10.4041 C   0  0  0  0  0  0  0  0  0  0  0  0
   25.7795  -18.9694  -10.3540 O   0  0  0  0  0  0  0  0  0  0  0  0
   24.4895  -20.9196  -10.3041 N   0  0  0  0  0  0  0  0  0  0  0  0
   23.3152  -20.3113  -10.8712 C   0  0  1  0  0  0  0  0  0  0  0  0
   23.5105  -20.1380  -12.3523 C   0  0  0  0  0  0  0  0  0  0  0  0
   22.3475  -19.4859  -13.0032 C   0  0  0  0  0  0  0  0  0  0  0  0
   21.5886  -18.7349  -12.3174 O   0  0  0  0  0  0  0  0  0  0  0  0
   22.1434  -21.2138  -10.6864 C   0  0  0  0  0  0  0  0  0  0  0  0
   20.8935  -20.7086  -10.9787 O   0  0  0  0  0  0  0  0  0  0  0  0
   22.0092  -19.6332  -14.3393 O   0  0  0  0  0  0  0  0  0  0  0  0
   22.2600  -22.3787  -10.2866 O   0  0  0  0  0  0  0  0  0  0  0  0
  2  1  1  1
  2  3  1  0
  2  4  1  0
  4  5  1  6
  6  4  1  0
  6  7  2  0
  8  6  1  0
  9  8  1  0
  9 20  1  0
  9 10  1  1
 11 10  1  0
 11 12  2  0
 13 12  1  0
 14 19  2  0
 14 13  1  0
 15 14  1  0
 16 17  1  0
 16 15  2  0
 17 18  2  0
 18 19  1  0
 19 11  1  0
 20 21  2  0
 20 22  1  0
 22 23  1  0
 23 27  1  0
 23 24  1  6
 25 24  1  0
 26 25  2  0
 27 30  2  0
 27 28  1  0
 29 25  1  0
M  END
$$$$
