VWD.pdb
     RDKit          3D

 30 31  0  0  1  0  0  0  0  0999 V2000
   27.2182  -25.8718  -16.5836 C   0  0  0  0  0  0  0  0  0  0  0  0
   27.7952  -24.4988  -16.7888 C   0  0  1  0  0  0  0  0  0  0  0  0
   28.6892  -24.5534  -18.0142 C   0  0  0  0  0  0  0  0  0  0  0  0
   26.7376  -23.4523  -17.0606 C   0  0  2  0  0  0  0  0  0  0  0  0
   27.4020  -22.2821  -17.5611 N   0  0  0  0  0  0  0  0  0  0  0  0
   25.9055  -23.1803  -15.8664 C   0  0  0  0  0  0  0  0  0  0  0  0
   25.0863  -24.0659  -15.5178 O   0  0  0  0  0  0  0  0  0  0  0  0
   26.0321  -21.9552  -15.1398 N   0  0  0  0  0  0  0  0  0  0  0  0
   25.2437  -21.7201  -13.9635 C   0  0  1  0  0  0  0  0  0  0  0  0
   25.9152  -20.5865  -13.1771 C   0  0  0  0  0  0  0  0  0  0  0  0
   25.2727  -20.4260  -11.8473 C   0  0  0  0  0  0  0  0  0  0  0  0
   23.9580  -20.1116  -11.6172 C   0  0  0  0  0  0  0  0  0  0  0  0
   23.7802  -20.0616  -10.2919 N   0  0  0  0  0  0  0  0  0  0  0  0
   24.9286  -20.3317   -9.6628 C   0  0  0  0  0  0  0  0  0  0  0  0
   25.2828  -20.4083   -8.3185 C   0  0  0  0  0  0  0  0  0  0  0  0
   26.5729  -20.7134   -7.9343 C   0  0  0  0  0  0  0  0  0  0  0  0
   27.5343  -20.9478   -8.8892 C   0  0  0  0  0  0  0  0  0  0  0  0
   27.1847  -20.8721  -10.2208 C   0  0  0  0  0  0  0  0  0  0  0  0
   25.8797  -20.5637  -10.6222 C   0  0  0  0  0  0  0  0  0  0  0  0
   23.8367  -21.4100  -14.2456 C   0  0  0  0  0  0  0  0  0  0  0  0
   23.5841  -20.4513  -15.0241 O   0  0  0  0  0  0  0  0  0  0  0  0
   22.7820  -22.1708  -13.6566 N   0  0  0  0  0  0  0  0  0  0  0  0
   21.4225  -21.8420  -13.9947 C   0  0  1  0  0  0  0  0  0  0  0  0
   20.6556  -23.1081  -14.2601 C   0  0  0  0  0  0  0  0  0  0  0  0
   19.9989  -23.1027  -15.5906 C   0  0  0  0  0  0  0  0  0  0  0  0
   20.0821  -22.0701  -16.3234 O   0  0  0  0  0  0  0  0  0  0  0  0
   20.7671  -21.1669  -12.8386 C   0  0  0  0  0  0  0  0  0  0  0  0
   19.7128  -20.3183  -13.1060 O   0  0  0  0  0  0  0  0  0  0  0  0
   19.2789  -24.1638  -16.1168 O   0  0  0  0  0  0  0  0  0  0  0  0
   21.1357  -21.3440  -11.6710 O   0  0  0  0  0  0  0  0  0  0  0  0
  2  1  1  6
  2  3  1  0
  2  4  1  0
  4  5  1  1
  6  4  1  0
  6  7  2  0
  8  6  1  0
  9  8  1  0
  9 20  1  0
  9 10  1  6
 11 10  1  0
 11 12  2  0
 13 12  1  0
 14 19  2  0
 14 13  1  0
 15 14  1  0
 16 17  1  0
 16 15  2  0
 17 18  2  0
 18 19  1  0
 19 11  1  0
 20 21  2  0
 20 22  1  0
 22 23  1  0
 23 27  1  0
 23 24  1  1
 25 24  1  0
 26 25  2  0
 27 30  2  0
 27 28  1  0
 29 25  1  0
M  END
$$$$
