VWD.pdb
     RDKit          3D

 30 31  0  0  1  0  0  0  0  0999 V2000
   13.2944  -20.0162    4.1085 C   0  0  0  0  0  0  0  0  0  0  0  0
   13.7451  -21.1398    3.2170 C   0  0  1  0  0  0  0  0  0  0  0  0
   12.5299  -21.6416    2.4584 C   0  0  0  0  0  0  0  0  0  0  0  0
   14.7587  -20.6993    2.1844 C   0  0  2  0  0  0  0  0  0  0  0  0
   15.0371  -21.8264    1.3397 N   0  0  0  0  0  0  0  0  0  0  0  0
   15.9742  -20.1279    2.8078 C   0  0  0  0  0  0  0  0  0  0  0  0
   16.8104  -20.9317    3.2890 O   0  0  0  0  0  0  0  0  0  0  0  0
   16.1852  -18.7145    2.8585 N   0  0  0  0  0  0  0  0  0  0  0  0
   17.3501  -18.1735    3.4994 C   0  0  1  0  0  0  0  0  0  0  0  0
   17.8972  -17.0591    2.5975 C   0  0  0  0  0  0  0  0  0  0  0  0
   18.8559  -17.6156    1.6085 C   0  0  0  0  0  0  0  0  0  0  0  0
   18.6877  -18.7629    0.8766 C   0  0  0  0  0  0  0  0  0  0  0  0
   19.7716  -18.9137    0.1067 N   0  0  0  0  0  0  0  0  0  0  0  0
   20.6283  -17.9087    0.3155 C   0  0  0  0  0  0  0  0  0  0  0  0
   21.8760  -17.5950   -0.2165 C   0  0  0  0  0  0  0  0  0  0  0  0
   22.5627  -16.4671    0.1855 C   0  0  0  0  0  0  0  0  0  0  0  0
   22.0130  -15.6308    1.1286 C   0  0  0  0  0  0  0  0  0  0  0  0
   20.7774  -15.9405    1.6561 C   0  0  0  0  0  0  0  0  0  0  0  0
   20.0719  -17.0814    1.2561 C   0  0  0  0  0  0  0  0  0  0  0  0
   17.1030  -17.6819    4.8606 C   0  0  0  0  0  0  0  0  0  0  0  0
   16.0792  -16.9741    5.0600 O   0  0  0  0  0  0  0  0  0  0  0  0
   17.9948  -17.9952    5.9304 N   0  0  0  0  0  0  0  0  0  0  0  0
   17.6414  -17.5880    7.2645 C   0  0  1  0  0  0  0  0  0  0  0  0
   16.3418  -18.2364    7.6548 C   0  0  0  0  0  0  0  0  0  0  0  0
   15.9297  -17.8891    9.0373 C   0  0  0  0  0  0  0  0  0  0  0  0
   16.5957  -17.0279    9.6892 O   0  0  0  0  0  0  0  0  0  0  0  0
   18.6756  -18.0660    8.2257 C   0  0  0  0  0  0  0  0  0  0  0  0
   18.8051  -17.3849    9.4183 O   0  0  0  0  0  0  0  0  0  0  0  0
   14.8448  -18.4442    9.6976 O   0  0  0  0  0  0  0  0  0  0  0  0
   19.4047  -19.0366    7.9872 O   0  0  0  0  0  0  0  0  0  0  0  0
  2  1  1  1
  2  3  1  0
  2  4  1  0
  4  5  1  1
  6  4  1  0
  6  7  2  0
  8  6  1  0
  9  8  1  0
  9 20  1  0
  9 10  1  6
 11 10  1  0
 11 12  2  0
 13 12  1  0
 14 19  2  0
 14 13  1  0
 15 14  1  0
 16 17  1  0
 16 15  2  0
 17 18  2  0
 18 19  1  0
 19 11  1  0
 20 21  2  0
 20 22  1  0
 22 23  1  0
 23 27  1  0
 23 24  1  1
 25 24  1  0
 26 25  2  0
 27 30  2  0
 27 28  1  0
 29 25  1  0
M  END
$$$$
