VWD.pdb
     RDKit          3D

 30 31  0  0  1  0  0  0  0  0999 V2000
   28.7552  -17.9249  -15.4367 C   0  0  0  0  0  0  0  0  0  0  0  0
   27.6554  -18.7110  -14.7789 C   0  0  1  0  0  0  0  0  0  0  0  0
   26.6860  -19.1433  -15.8639 C   0  0  0  0  0  0  0  0  0  0  0  0
   28.1554  -19.9704  -14.1068 C   0  0  2  0  0  0  0  0  0  0  0  0
   28.7341  -20.8048  -15.1218 N   0  0  0  0  0  0  0  0  0  0  0  0
   27.0888  -20.6499  -13.3365 C   0  0  0  0  0  0  0  0  0  0  0  0
   26.5728  -21.6762  -13.8438 O   0  0  0  0  0  0  0  0  0  0  0  0
   26.6646  -20.1541  -12.0642 N   0  0  0  0  0  0  0  0  0  0  0  0
   25.6281  -20.8225  -11.3296 C   0  0  1  0  0  0  0  0  0  0  0  0
   25.7392  -20.3766   -9.8656 C   0  0  0  0  0  0  0  0  0  0  0  0
   27.0635  -20.7532   -9.3076 C   0  0  0  0  0  0  0  0  0  0  0  0
   28.0014  -21.5469   -9.9165 C   0  0  0  0  0  0  0  0  0  0  0  0
   29.0487  -21.6424   -9.0892 N   0  0  0  0  0  0  0  0  0  0  0  0
   28.8199  -20.9415   -7.9739 C   0  0  0  0  0  0  0  0  0  0  0  0
   29.5676  -20.7149   -6.8214 C   0  0  0  0  0  0  0  0  0  0  0  0
   29.0810  -19.9306   -5.7951 C   0  0  0  0  0  0  0  0  0  0  0  0
   27.8357  -19.3575   -5.9027 C   0  0  0  0  0  0  0  0  0  0  0  0
   27.0944  -19.5812   -7.0436 C   0  0  0  0  0  0  0  0  0  0  0  0
   27.5775  -20.3746   -8.0907 C   0  0  0  0  0  0  0  0  0  0  0  0
   24.2791  -20.5825  -11.8570 C   0  0  0  0  0  0  0  0  0  0  0  0
   23.9463  -19.3954  -12.1197 O   0  0  0  0  0  0  0  0  0  0  0  0
   23.3677  -21.6609  -12.0679 N   0  0  0  0  0  0  0  0  0  0  0  0
   22.0968  -21.3799  -12.6813 C   0  0  1  0  0  0  0  0  0  0  0  0
   21.5832  -22.6229  -13.3541 C   0  0  0  0  0  0  0  0  0  0  0  0
   20.2677  -22.4101  -14.0064 C   0  0  0  0  0  0  0  0  0  0  0  0
   19.8588  -21.2271  -14.2153 O   0  0  0  0  0  0  0  0  0  0  0  0
   21.1049  -21.0075  -11.6328 C   0  0  0  0  0  0  0  0  0  0  0  0
   20.0022  -20.2771  -12.0248 O   0  0  0  0  0  0  0  0  0  0  0  0
   19.4208  -23.4267  -14.4194 O   0  0  0  0  0  0  0  0  0  0  0  0
   21.2416  -21.3295  -10.4462 O   0  0  0  0  0  0  0  0  0  0  0  0
  2  1  1  6
  2  3  1  0
  2  4  1  0
  4  5  1  6
  6  4  1  0
  6  7  2  0
  8  6  1  0
  9  8  1  0
  9 20  1  0
  9 10  1  1
 11 10  1  0
 11 12  2  0
 13 12  1  0
 14 19  2  0
 14 13  1  0
 15 14  1  0
 16 17  1  0
 16 15  2  0
 17 18  2  0
 18 19  1  0
 19 11  1  0
 20 21  2  0
 20 22  1  0
 22 23  1  0
 23 27  1  0
 23 24  1  1
 25 24  1  0
 26 25  2  0
 27 30  2  0
 27 28  1  0
 29 25  1  0
M  END
$$$$
