VWD.pdb
     RDKit          3D

 30 31  0  0  1  0  0  0  0  0999 V2000
   21.8239  -34.4284  -12.9447 C   0  0  0  0  0  0  0  0  0  0  0  0
   22.2658  -33.7460  -14.2093 C   0  0  1  0  0  0  0  0  0  0  0  0
   21.4277  -34.2987  -15.3478 C   0  0  0  0  0  0  0  0  0  0  0  0
   22.0385  -32.2510  -14.1797 C   0  0  2  0  0  0  0  0  0  0  0  0
   22.6431  -31.6957  -15.3576 N   0  0  0  0  0  0  0  0  0  0  0  0
   22.5381  -31.6379  -12.9278 C   0  0  0  0  0  0  0  0  0  0  0  0
   23.7273  -31.2347  -12.9153 O   0  0  0  0  0  0  0  0  0  0  0  0
   21.6964  -31.5111  -11.7789 N   0  0  0  0  0  0  0  0  0  0  0  0
   22.1938  -30.9121  -10.5729 C   0  0  1  0  0  0  0  0  0  0  0  0
   21.0699  -30.0443   -9.9913 C   0  0  0  0  0  0  0  0  0  0  0  0
   20.9841  -28.7512  -10.7175 C   0  0  0  0  0  0  0  0  0  0  0  0
   21.9097  -28.2565  -11.6000 C   0  0  0  0  0  0  0  0  0  0  0  0
   21.4629  -27.0718  -12.0328 N   0  0  0  0  0  0  0  0  0  0  0  0
   20.2874  -26.7870  -11.4631 C   0  0  0  0  0  0  0  0  0  0  0  0
   19.4165  -25.7056  -11.5660 C   0  0  0  0  0  0  0  0  0  0  0  0
   18.2386  -25.6642  -10.8477 C   0  0  0  0  0  0  0  0  0  0  0  0
   17.9095  -26.7053  -10.0118 C   0  0  0  0  0  0  0  0  0  0  0  0
   18.7711  -27.7767   -9.9091 C   0  0  0  0  0  0  0  0  0  0  0  0
   19.9683  -27.8297  -10.6326 C   0  0  0  0  0  0  0  0  0  0  0  0
   22.6796  -31.8839   -9.5855 C   0  0  0  0  0  0  0  0  0  0  0  0
   22.0507  -32.9692   -9.4607 O   0  0  0  0  0  0  0  0  0  0  0  0
   23.8317  -31.6108   -8.7878 N   0  0  0  0  0  0  0  0  0  0  0  0
   24.3429  -32.6513   -7.9355 C   0  0  1  0  0  0  0  0  0  0  0  0
   25.5976  -32.1700   -7.2605 C   0  0  0  0  0  0  0  0  0  0  0  0
   26.2739  -33.2444   -6.4925 C   0  0  0  0  0  0  0  0  0  0  0  0
   25.7720  -34.4098   -6.4752 O   0  0  0  0  0  0  0  0  0  0  0  0
   23.3544  -32.9507   -6.8608 C   0  0  0  0  0  0  0  0  0  0  0  0
   22.6266  -31.8969   -6.3482 O   0  0  0  0  0  0  0  0  0  0  0  0
   27.4443  -33.0769   -5.7691 O   0  0  0  0  0  0  0  0  0  0  0  0
   23.1733  -34.0948   -6.4262 O   0  0  0  0  0  0  0  0  0  0  0  0
  2  1  1  1
  2  3  1  0
  2  4  1  0
  4  5  1  6
  6  4  1  0
  6  7  2  0
  8  6  1  0
  9  8  1  0
  9 20  1  0
  9 10  1  1
 11 10  1  0
 11 12  2  0
 13 12  1  0
 14 19  2  0
 14 13  1  0
 15 14  1  0
 16 17  1  0
 16 15  2  0
 17 18  2  0
 18 19  1  0
 19 11  1  0
 20 21  2  0
 20 22  1  0
 22 23  1  0
 23 27  1  0
 23 24  1  1
 25 24  1  0
 26 25  2  0
 27 30  2  0
 27 28  1  0
 29 25  1  0
M  END
$$$$
