CHI.pdb
     RDKit          3D

 25 25  0  0  1  0  0  0  0  0999 V2000
   26.4102  -19.6755  -16.6304 N   0  0  0  0  0  0  0  0  0  0  0  0
   26.9054  -20.4000  -15.4783 C   0  0  1  0  0  0  0  0  0  0  0  0
   28.3836  -20.1175  -15.3676 C   0  0  0  0  0  0  0  0  0  0  0  0
   29.2728  -21.5033  -16.1311 S   0  0  0  0  0  0  0  0  0  0  0  0
   26.1464  -20.0146  -14.2931 C   0  0  0  0  0  0  0  0  0  0  0  0
   25.9951  -18.7926  -14.0245 O   0  0  0  0  0  0  0  0  0  0  0  0
   25.5859  -21.0034  -13.4541 N   0  0  0  0  0  0  0  0  0  0  0  0
   24.8517  -20.6340  -12.2801 C   0  0  1  0  0  0  0  0  0  0  0  0
   23.4838  -21.3340  -12.2610 C   0  0  0  0  0  0  0  0  0  0  0  0
   22.5404  -20.7451  -13.1933 C   0  0  0  0  0  0  0  0  0  0  0  0
   22.5871  -19.4749  -13.7167 C   0  0  0  0  0  0  0  0  0  0  0  0
   21.5311  -19.2880  -14.5533 N   0  0  0  0  0  0  0  0  0  0  0  0
   20.8288  -20.4412  -14.5497 C   0  0  0  0  0  0  0  0  0  0  0  0
   21.4513  -21.3271  -13.7165 N   0  0  0  0  0  0  0  0  0  0  0  0
   25.5191  -21.1060  -11.0313 C   0  0  0  0  0  0  0  0  0  0  0  0
   26.0054  -22.2632  -11.0301 O   0  0  0  0  0  0  0  0  0  0  0  0
   28.5946  -19.1142   -6.1657 C   0  0  0  0  0  0  0  0  0  0  0  0
   27.7365  -20.2430   -6.7146 C   0  0  0  0  0  0  0  0  0  0  0  0
   27.1199  -19.7552   -7.9908 C   0  0  2  0  0  0  0  0  0  0  0  0
   26.4279  -18.4517   -7.7797 C   0  0  0  0  0  0  0  0  0  0  0  0
   26.2006  -20.7752   -8.6219 C   0  0  2  0  0  0  0  0  0  0  0  0
   25.6383  -20.3393   -9.8576 N   0  0  0  0  0  0  0  0  0  0  0  0
   25.1076  -21.1028   -7.6867 C   0  0  0  0  0  0  0  0  0  0  0  0
   25.3670  -21.7073   -6.6245 O   0  0  0  0  0  0  0  0  0  0  0  0
   23.7860  -20.7700   -7.9282 O   0  0  0  0  0  0  0  0  0  0  0  0
  2  1  1  6
  3  2  1  0
  3  4  1  0
  5  6  2  0
  5  2  1  0
  7  5  1  0
  8  7  1  0
  8  9  1  6
 10  9  1  0
 11 10  2  0
 12 11  1  0
 13 12  1  0
 13 14  2  0
 14 10  1  0
 15 22  1  0
 15  8  1  0
 16 15  2  0
 18 17  1  0
 19 21  1  0
 19 18  1  0
 19 20  1  1
 21 23  1  0
 21 22  1  6
 23 25  1  0
 24 23  2  0
M  END
$$$$
