CHI.pdb
     RDKit          3D

 25 25  0  0  1  0  0  0  0  0999 V2000
   22.9227  -21.5224  -13.1810 N   0  0  0  0  0  0  0  0  0  0  0  0
   23.2601  -20.6581  -12.0690 C   0  0  1  0  0  0  0  0  0  0  0  0
   22.0387  -20.5563  -11.1886 C   0  0  0  0  0  0  0  0  0  0  0  0
   21.0598  -19.1382  -11.7583 S   0  0  0  0  0  0  0  0  0  0  0  0
   24.4352  -21.1814  -11.3800 C   0  0  0  0  0  0  0  0  0  0  0  0
   24.4747  -22.3998  -11.0604 O   0  0  0  0  0  0  0  0  0  0  0  0
   25.5193  -20.3289  -11.0738 N   0  0  0  0  0  0  0  0  0  0  0  0
   26.6489  -20.8190  -10.3407 C   0  0  1  0  0  0  0  0  0  0  0  0
   27.9468  -20.5663  -11.1238 C   0  0  0  0  0  0  0  0  0  0  0  0
   29.1217  -21.0732  -10.4391 C   0  0  0  0  0  0  0  0  0  0  0  0
   30.0923  -20.3285   -9.8124 C   0  0  0  0  0  0  0  0  0  0  0  0
   31.0334  -21.1575   -9.2861 N   0  0  0  0  0  0  0  0  0  0  0  0
   30.6478  -22.4163   -9.5856 C   0  0  0  0  0  0  0  0  0  0  0  0
   29.4788  -22.3573  -10.2902 N   0  0  0  0  0  0  0  0  0  0  0  0
   26.8476  -20.0801   -9.0593 C   0  0  0  0  0  0  0  0  0  0  0  0
   26.5586  -18.8587   -9.0381 O   0  0  0  0  0  0  0  0  0  0  0  0
   28.9627  -21.1677   -3.2971 C   0  0  0  0  0  0  0  0  0  0  0  0
   28.2451  -20.2116   -4.2365 C   0  0  0  0  0  0  0  0  0  0  0  0
   28.1841  -20.8693   -5.5820 C   0  0  2  0  0  0  0  0  0  0  0  0
   29.5395  -21.3136   -6.0157 C   0  0  0  0  0  0  0  0  0  0  0  0
   27.5248  -19.9997   -6.6274 C   0  0  2  0  0  0  0  0  0  0  0  0
   27.3369  -20.6627   -7.8757 N   0  0  0  0  0  0  0  0  0  0  0  0
   28.3357  -18.7866   -6.8460 C   0  0  0  0  0  0  0  0  0  0  0  0
   29.0379  -18.6931   -7.8751 O   0  0  0  0  0  0  0  0  0  0  0  0
   28.3600  -17.7276   -5.9551 O   0  0  0  0  0  0  0  0  0  0  0  0
  2  1  1  6
  3  2  1  0
  3  4  1  0
  5  6  2  0
  5  2  1  0
  7  5  1  0
  8  7  1  0
  8  9  1  6
 10  9  1  0
 11 10  2  0
 12 11  1  0
 13 12  1  0
 13 14  2  0
 14 10  1  0
 15 22  1  0
 15  8  1  0
 16 15  2  0
 18 17  1  0
 19 21  1  0
 19 18  1  0
 19 20  1  6
 21 23  1  0
 21 22  1  6
 23 25  1  0
 24 23  2  0
M  END
$$$$
