CHI.pdb
     RDKit          3D

 25 25  0  0  1  0  0  0  0  0999 V2000
   24.5014  -12.7393  -17.9312 N   0  0  0  0  0  0  0  0  0  0  0  0
   24.2876  -12.0996  -16.6497 C   0  0  1  0  0  0  0  0  0  0  0  0
   25.5913  -11.4587  -16.2411 C   0  0  0  0  0  0  0  0  0  0  0  0
   26.7235  -12.7808  -15.7273 S   0  0  0  0  0  0  0  0  0  0  0  0
   23.1791  -11.1561  -16.7512 C   0  0  0  0  0  0  0  0  0  0  0  0
   23.0362  -10.4792  -17.8046 O   0  0  0  0  0  0  0  0  0  0  0  0
   22.2739  -11.0030  -15.6775 N   0  0  0  0  0  0  0  0  0  0  0  0
   21.1406  -10.1339  -15.7963 C   0  0  1  0  0  0  0  0  0  0  0  0
   19.8725  -10.8332  -15.2820 C   0  0  0  0  0  0  0  0  0  0  0  0
   18.6794  -10.0247  -15.4513 C   0  0  0  0  0  0  0  0  0  0  0  0
   18.6139   -8.7581  -15.9813 C   0  0  0  0  0  0  0  0  0  0  0  0
   17.3236   -8.3280  -15.9751 N   0  0  0  0  0  0  0  0  0  0  0  0
   16.5880   -9.3266  -15.4417 C   0  0  0  0  0  0  0  0  0  0  0  0
   17.4229  -10.3602  -15.1239 N   0  0  0  0  0  0  0  0  0  0  0  0
   21.2679   -8.9268  -14.9278 C   0  0  0  0  0  0  0  0  0  0  0  0
   21.6845   -9.0918  -13.7552 O   0  0  0  0  0  0  0  0  0  0  0  0
   23.0788   -3.2205  -15.3825 C   0  0  0  0  0  0  0  0  0  0  0  0
   22.2513   -4.1632  -14.5233 C   0  0  0  0  0  0  0  0  0  0  0  0
   21.9883   -5.3942  -15.3370 C   0  0  2  0  0  0  0  0  0  0  0  0
   21.3574   -5.0417  -16.6410 C   0  0  0  0  0  0  0  0  0  0  0  0
   21.1758   -6.4257  -14.5889 C   0  0  2  0  0  0  0  0  0  0  0  0
   20.9518   -7.6184  -15.3375 N   0  0  0  0  0  0  0  0  0  0  0  0
   19.8732   -5.8481  -14.2061 C   0  0  0  0  0  0  0  0  0  0  0  0
   18.8619   -6.1005  -14.8949 O   0  0  0  0  0  0  0  0  0  0  0  0
   19.7094   -5.0265  -13.1043 O   0  0  0  0  0  0  0  0  0  0  0  0
  2  1  1  6
  3  2  1  0
  3  4  1  0
  5  6  2  0
  5  2  1  0
  7  5  1  0
  8  7  1  0
  8  9  1  1
 10  9  1  0
 11 10  2  0
 12 11  1  0
 13 12  1  0
 13 14  2  0
 14 10  1  0
 15 22  1  0
 15  8  1  0
 16 15  2  0
 18 17  1  0
 19 21  1  0
 19 18  1  0
 19 20  1  6
 21 23  1  0
 21 22  1  6
 23 25  1  0
 24 23  2  0
M  END
$$$$
