CHI.pdb
     RDKit          3D

 25 25  0  0  1  0  0  0  0  0999 V2000
   16.8365  -21.5908  -13.1227 N   0  0  0  0  0  0  0  0  0  0  0  0
   17.7373  -21.3434  -14.2293 C   0  0  1  0  0  0  0  0  0  0  0  0
   17.7142  -19.8605  -14.5083 C   0  0  0  0  0  0  0  0  0  0  0  0
   18.5453  -19.0226  -13.1296 S   0  0  0  0  0  0  0  0  0  0  0  0
   19.0644  -21.8565  -13.9056 C   0  0  0  0  0  0  0  0  0  0  0  0
   19.3337  -22.1711  -12.7154 O   0  0  0  0  0  0  0  0  0  0  0  0
   20.0389  -21.9994  -14.9184 N   0  0  0  0  0  0  0  0  0  0  0  0
   21.3170  -22.5775  -14.6254 C   0  0  1  0  0  0  0  0  0  0  0  0
   21.9327  -23.1881  -15.8941 C   0  0  0  0  0  0  0  0  0  0  0  0
   23.1847  -23.8745  -15.6345 C   0  0  0  0  0  0  0  0  0  0  0  0
   23.7970  -24.0324  -14.4140 C   0  0  0  0  0  0  0  0  0  0  0  0
   24.9534  -24.7309  -14.5717 N   0  0  0  0  0  0  0  0  0  0  0  0
   25.0594  -25.0067  -15.8892 C   0  0  0  0  0  0  0  0  0  0  0  0
   23.9752  -24.4804  -16.5326 N   0  0  0  0  0  0  0  0  0  0  0  0
   22.3109  -21.5498  -14.1972 C   0  0  0  0  0  0  0  0  0  0  0  0
   22.1998  -20.3944  -14.6753 O   0  0  0  0  0  0  0  0  0  0  0  0
   25.2059  -20.6758   -9.1524 C   0  0  0  0  0  0  0  0  0  0  0  0
   24.5596  -20.2039  -10.4452 C   0  0  0  0  0  0  0  0  0  0  0  0
   24.9402  -21.1801  -11.5171 C   0  0  2  0  0  0  0  0  0  0  0  0
   26.4221  -21.3155  -11.6074 C   0  0  0  0  0  0  0  0  0  0  0  0
   24.3317  -20.8409  -12.8582 C   0  0  2  0  0  0  0  0  0  0  0  0
   23.3625  -21.7916  -13.2942 N   0  0  0  0  0  0  0  0  0  0  0  0
   25.3965  -20.7411  -13.8745 C   0  0  0  0  0  0  0  0  0  0  0  0
   25.6468  -21.7253  -14.6023 O   0  0  0  0  0  0  0  0  0  0  0  0
   26.1465  -19.5940  -14.0678 O   0  0  0  0  0  0  0  0  0  0  0  0
  2  1  1  1
  3  2  1  0
  3  4  1  0
  5  6  2  0
  5  2  1  0
  7  5  1  0
  8  7  1  0
  8  9  1  6
 10  9  1  0
 11 10  2  0
 12 11  1  0
 13 12  1  0
 13 14  2  0
 14 10  1  0
 15 22  1  0
 15  8  1  0
 16 15  2  0
 18 17  1  0
 19 21  1  0
 19 18  1  0
 19 20  1  6
 21 23  1  0
 21 22  1  6
 23 25  1  0
 24 23  2  0
M  END
$$$$
