CHI.pdb
     RDKit          3D

 25 25  0  0  1  0  0  0  0  0999 V2000
   26.3517  -18.7755  -18.1223 N   0  0  0  0  0  0  0  0  0  0  0  0
   26.6387  -19.7974  -17.1370 C   0  0  1  0  0  0  0  0  0  0  0  0
   28.1309  -19.8028  -16.9126 C   0  0  0  0  0  0  0  0  0  0  0  0
   28.5480  -18.3457  -15.9142 S   0  0  0  0  0  0  0  0  0  0  0  0
   25.8664  -19.5415  -15.9257 C   0  0  0  0  0  0  0  0  0  0  0  0
   25.6470  -18.3525  -15.5703 O   0  0  0  0  0  0  0  0  0  0  0  0
   25.3689  -20.6180  -15.1579 N   0  0  0  0  0  0  0  0  0  0  0  0
   24.6239  -20.3759  -13.9579 C   0  0  1  0  0  0  0  0  0  0  0  0
   23.2170  -20.9842  -14.0685 C   0  0  0  0  0  0  0  0  0  0  0  0
   22.3646  -20.2593  -14.9925 C   0  0  0  0  0  0  0  0  0  0  0  0
   22.0435  -20.6295  -16.2768 C   0  0  0  0  0  0  0  0  0  0  0  0
   21.2214  -19.6965  -16.8276 N   0  0  0  0  0  0  0  0  0  0  0  0
   21.0317  -18.7473  -15.8863 C   0  0  0  0  0  0  0  0  0  0  0  0
   21.7332  -19.0977  -14.7675 N   0  0  0  0  0  0  0  0  0  0  0  0
   25.2255  -21.0633  -12.7776 C   0  0  0  0  0  0  0  0  0  0  0  0
   25.4599  -22.2927  -12.8740 O   0  0  0  0  0  0  0  0  0  0  0  0
   29.8126  -20.1225  -10.5854 C   0  0  0  0  0  0  0  0  0  0  0  0
   28.5380  -20.8216  -11.0308 C   0  0  0  0  0  0  0  0  0  0  0  0
   27.4680  -20.4727  -10.0408 C   0  0  2  0  0  0  0  0  0  0  0  0
   27.8691  -20.8780   -8.6634 C   0  0  0  0  0  0  0  0  0  0  0  0
   26.1187  -21.0410  -10.4152 C   0  0  2  0  0  0  0  0  0  0  0  0
   25.5464  -20.4237  -11.5662 N   0  0  0  0  0  0  0  0  0  0  0  0
   25.1875  -20.8957   -9.2801 C   0  0  0  0  0  0  0  0  0  0  0  0
   25.2196  -21.7265   -8.3476 O   0  0  0  0  0  0  0  0  0  0  0  0
   24.2635  -19.8689   -9.1921 O   0  0  0  0  0  0  0  0  0  0  0  0
  2  1  1  6
  3  2  1  0
  3  4  1  0
  5  6  2  0
  5  2  1  0
  7  5  1  0
  8  7  1  0
  8  9  1  6
 10  9  1  0
 11 10  2  0
 12 11  1  0
 13 12  1  0
 13 14  2  0
 14 10  1  0
 15 22  1  0
 15  8  1  0
 16 15  2  0
 18 17  1  0
 19 21  1  0
 19 18  1  0
 19 20  1  1
 21 23  1  0
 21 22  1  6
 23 25  1  0
 24 23  2  0
M  END
$$$$
