CHI.pdb
     RDKit          3D

 25 25  0  0  1  0  0  0  0  0999 V2000
   25.9090  -18.5593  -16.2172 N   0  0  0  0  0  0  0  0  0  0  0  0
   26.7107  -18.9231  -15.0673 C   0  0  1  0  0  0  0  0  0  0  0  0
   27.8275  -17.9141  -14.9572 C   0  0  0  0  0  0  0  0  0  0  0  0
   29.0844  -18.3390  -16.1956 S   0  0  0  0  0  0  0  0  0  0  0  0
   25.8644  -18.9899  -13.8805 C   0  0  0  0  0  0  0  0  0  0  0  0
   25.3196  -17.9390  -13.4481 O   0  0  0  0  0  0  0  0  0  0  0  0
   25.6577  -20.2226  -13.2221 N   0  0  0  0  0  0  0  0  0  0  0  0
   24.8235  -20.2982  -12.0593 C   0  0  1  0  0  0  0  0  0  0  0  0
   23.5994  -21.1856  -12.3346 C   0  0  0  0  0  0  0  0  0  0  0  0
   22.6495  -20.5644  -13.2389 C   0  0  0  0  0  0  0  0  0  0  0  0
   22.7662  -19.3295  -13.8313 C   0  0  0  0  0  0  0  0  0  0  0  0
   21.6776  -19.0942  -14.6119 N   0  0  0  0  0  0  0  0  0  0  0  0
   20.8851  -20.1821  -14.5047 C   0  0  0  0  0  0  0  0  0  0  0  0
   21.4852  -21.0764  -13.6642 N   0  0  0  0  0  0  0  0  0  0  0  0
   25.5122  -20.9722  -10.9196 C   0  0  0  0  0  0  0  0  0  0  0  0
   25.9943  -22.1136  -11.1205 O   0  0  0  0  0  0  0  0  0  0  0  0
   27.5681  -18.5572   -6.0793 C   0  0  0  0  0  0  0  0  0  0  0  0
   26.6082  -19.0263   -7.1610 C   0  0  0  0  0  0  0  0  0  0  0  0
   27.1103  -20.3470   -7.6616 C   0  0  2  0  0  0  0  0  0  0  0  0
   28.3746  -20.1746   -8.4324 C   0  0  0  0  0  0  0  0  0  0  0  0
   26.0724  -21.1012   -8.4602 C   0  0  2  0  0  0  0  0  0  0  0  0
   25.6559  -20.4120   -9.6369 N   0  0  0  0  0  0  0  0  0  0  0  0
   24.8919  -21.3643   -7.6153 C   0  0  0  0  0  0  0  0  0  0  0  0
   23.8057  -20.8093   -7.8856 O   0  0  0  0  0  0  0  0  0  0  0  0
   24.9247  -22.2087   -6.5190 O   0  0  0  0  0  0  0  0  0  0  0  0
  2  1  1  6
  3  2  1  0
  3  4  1  0
  5  6  2  0
  5  2  1  0
  7  5  1  0
  8  7  1  0
  8  9  1  6
 10  9  1  0
 11 10  2  0
 12 11  1  0
 13 12  1  0
 13 14  2  0
 14 10  1  0
 15 22  1  0
 15  8  1  0
 16 15  2  0
 18 17  1  0
 19 21  1  0
 19 18  1  0
 19 20  1  6
 21 23  1  0
 21 22  1  6
 23 25  1  0
 24 23  2  0
M  END
$$$$
