CHI.pdb
     RDKit          3D

 25 25  0  0  1  0  0  0  0  0999 V2000
   26.3796  -20.0792  -16.0977 N   0  0  0  0  0  0  0  0  0  0  0  0
   26.8644  -20.8352  -14.9616 C   0  0  1  0  0  0  0  0  0  0  0  0
   28.3720  -20.7753  -14.9885 C   0  0  0  0  0  0  0  0  0  0  0  0
   28.9905  -22.4607  -15.2543 S   0  0  0  0  0  0  0  0  0  0  0  0
   26.2802  -20.3047  -13.7341 C   0  0  0  0  0  0  0  0  0  0  0  0
   26.3133  -19.0635  -13.5183 O   0  0  0  0  0  0  0  0  0  0  0  0
   25.6828  -21.1756  -12.7958 N   0  0  0  0  0  0  0  0  0  0  0  0
   25.0460  -20.6573  -11.6212 C   0  0  1  0  0  0  0  0  0  0  0  0
   23.5563  -21.0346  -11.6083 C   0  0  0  0  0  0  0  0  0  0  0  0
   22.7920  -20.3317  -12.6221 C   0  0  0  0  0  0  0  0  0  0  0  0
   22.1594  -19.1196  -12.4805 C   0  0  0  0  0  0  0  0  0  0  0  0
   21.5474  -18.7862  -13.6485 N   0  0  0  0  0  0  0  0  0  0  0  0
   21.7997  -19.7903  -14.5151 C   0  0  0  0  0  0  0  0  0  0  0  0
   22.5606  -20.7313  -13.8812 N   0  0  0  0  0  0  0  0  0  0  0  0
   25.5877  -21.2722  -10.3738 C   0  0  0  0  0  0  0  0  0  0  0  0
   25.7382  -22.5183  -10.3541 O   0  0  0  0  0  0  0  0  0  0  0  0
   27.9613  -18.2268   -6.0553 C   0  0  0  0  0  0  0  0  0  0  0  0
   26.9082  -18.8877   -6.9304 C   0  0  0  0  0  0  0  0  0  0  0  0
   27.4117  -20.2558   -7.2790 C   0  0  2  0  0  0  0  0  0  0  0  0
   28.6710  -20.1699   -8.0724 C   0  0  0  0  0  0  0  0  0  0  0  0
   26.3717  -21.0996   -7.9791 C   0  0  2  0  0  0  0  0  0  0  0  0
   25.9398  -20.5471   -9.2206 N   0  0  0  0  0  0  0  0  0  0  0  0
   25.2008  -21.2744   -7.0987 C   0  0  0  0  0  0  0  0  0  0  0  0
   24.0849  -20.8503   -7.4675 O   0  0  0  0  0  0  0  0  0  0  0  0
   25.2744  -21.8946   -5.8635 O   0  0  0  0  0  0  0  0  0  0  0  0
  2  1  1  6
  3  2  1  0
  3  4  1  0
  5  6  2  0
  5  2  1  0
  7  5  1  0
  8  7  1  0
  8  9  1  6
 10  9  1  0
 11 10  2  0
 12 11  1  0
 13 12  1  0
 13 14  2  0
 14 10  1  0
 15 22  1  0
 15  8  1  0
 16 15  2  0
 18 17  1  0
 19 21  1  0
 19 18  1  0
 19 20  1  6
 21 23  1  0
 21 22  1  6
 23 25  1  0
 24 23  2  0
M  END
$$$$
