CHI.pdb
     RDKit          3D

 25 25  0  0  1  0  0  0  0  0999 V2000
   26.3786  -16.5584  -16.9542 N   0  0  0  0  0  0  0  0  0  0  0  0
   26.8623  -17.7381  -16.2675 C   0  0  1  0  0  0  0  0  0  0  0  0
   28.1422  -17.3589  -15.5638 C   0  0  0  0  0  0  0  0  0  0  0  0
   29.4859  -17.4222  -16.7822 S   0  0  0  0  0  0  0  0  0  0  0  0
   25.8283  -18.2412  -15.3690 C   0  0  0  0  0  0  0  0  0  0  0  0
   25.3015  -17.4603  -14.5318 O   0  0  0  0  0  0  0  0  0  0  0  0
   25.4217  -19.5924  -15.4373 N   0  0  0  0  0  0  0  0  0  0  0  0
   24.3848  -20.0870  -14.5806 C   0  0  1  0  0  0  0  0  0  0  0  0
   23.5699  -21.1745  -15.2981 C   0  0  0  0  0  0  0  0  0  0  0  0
   22.5820  -20.6251  -16.2081 C   0  0  0  0  0  0  0  0  0  0  0  0
   22.2778  -19.2963  -16.3855 C   0  0  0  0  0  0  0  0  0  0  0  0
   21.3003  -19.1742  -17.3233 N   0  0  0  0  0  0  0  0  0  0  0  0
   20.9973  -20.4261  -17.7283 C   0  0  0  0  0  0  0  0  0  0  0  0
   21.7843  -21.3076  -17.0427 N   0  0  0  0  0  0  0  0  0  0  0  0
   24.9351  -20.7788  -13.3782 C   0  0  0  0  0  0  0  0  0  0  0  0
   25.8248  -21.6458  -13.5588 O   0  0  0  0  0  0  0  0  0  0  0  0
   27.3959  -19.9274   -8.2022 C   0  0  0  0  0  0  0  0  0  0  0  0
   26.7191  -21.0152   -9.0209 C   0  0  0  0  0  0  0  0  0  0  0  0
   26.1983  -20.3741  -10.2717 C   0  0  2  0  0  0  0  0  0  0  0  0
   25.8446  -18.9467  -10.0267 C   0  0  0  0  0  0  0  0  0  0  0  0
   25.0431  -21.1351  -10.8801 C   0  0  2  0  0  0  0  0  0  0  0  0
   24.5222  -20.5227  -12.0577 N   0  0  0  0  0  0  0  0  0  0  0  0
   23.9588  -21.2662   -9.8881 C   0  0  0  0  0  0  0  0  0  0  0  0
   24.1684  -21.8904   -8.8263 O   0  0  0  0  0  0  0  0  0  0  0  0
   22.6989  -20.7244  -10.0749 O   0  0  0  0  0  0  0  0  0  0  0  0
  2  1  1  1
  3  2  1  0
  3  4  1  0
  5  6  2  0
  5  2  1  0
  7  5  1  0
  8  7  1  0
  8  9  1  6
 10  9  1  0
 11 10  2  0
 12 11  1  0
 13 12  1  0
 13 14  2  0
 14 10  1  0
 15 22  1  0
 15  8  1  0
 16 15  2  0
 18 17  1  0
 19 21  1  0
 19 18  1  0
 19 20  1  1
 21 23  1  0
 21 22  1  6
 23 25  1  0
 24 23  2  0
M  END
$$$$
