CHI.pdb
     RDKit          3D

 25 25  0  0  1  0  0  0  0  0999 V2000
   13.2062  -17.0973    4.8289 N   0  0  0  0  0  0  0  0  0  0  0  0
   14.2356  -16.3557    5.5271 C   0  0  1  0  0  0  0  0  0  0  0  0
   13.6644  -15.9330    6.8584 C   0  0  0  0  0  0  0  0  0  0  0  0
   12.5457  -14.5345    6.5642 S   0  0  0  0  0  0  0  0  0  0  0  0
   15.4384  -17.1741    5.6405 C   0  0  0  0  0  0  0  0  0  0  0  0
   15.3319  -18.3938    5.9393 O   0  0  0  0  0  0  0  0  0  0  0  0
   16.7113  -16.6036    5.4172 N   0  0  0  0  0  0  0  0  0  0  0  0
   17.8995  -17.3929    5.5550 C   0  0  1  0  0  0  0  0  0  0  0  0
   18.7847  -17.2515    4.3068 C   0  0  0  0  0  0  0  0  0  0  0  0
   18.3985  -18.1575    3.2409 C   0  0  0  0  0  0  0  0  0  0  0  0
   17.4485  -19.1486    3.3092 C   0  0  0  0  0  0  0  0  0  0  0  0
   17.3686  -19.7861    2.1105 N   0  0  0  0  0  0  0  0  0  0  0  0
   18.2681  -19.1915    1.2979 C   0  0  0  0  0  0  0  0  0  0  0  0
   18.8938  -18.1972    1.9952 N   0  0  0  0  0  0  0  0  0  0  0  0
   18.7650  -16.9109    6.6712 C   0  0  0  0  0  0  0  0  0  0  0  0
   18.9373  -15.6727    6.7843 O   0  0  0  0  0  0  0  0  0  0  0  0
   20.4235  -18.5078   12.3170 C   0  0  0  0  0  0  0  0  0  0  0  0
   20.7504  -17.6179   11.1284 C   0  0  0  0  0  0  0  0  0  0  0  0
   20.0009  -18.1569    9.9475 C   0  0  2  0  0  0  0  0  0  0  0  0
   20.3328  -19.5925    9.7205 C   0  0  0  0  0  0  0  0  0  0  0  0
   20.2123  -17.3346    8.6973 C   0  0  2  0  0  0  0  0  0  0  0  0
   19.3993  -17.7529    7.6030 N   0  0  0  0  0  0  0  0  0  0  0  0
   21.6300  -17.4010    8.2943 C   0  0  0  0  0  0  0  0  0  0  0  0
   22.4790  -16.7289    8.9174 O   0  0  0  0  0  0  0  0  0  0  0  0
   22.0773  -18.1827    7.2432 O   0  0  0  0  0  0  0  0  0  0  0  0
  2  1  1  1
  3  2  1  0
  3  4  1  0
  5  6  2  0
  5  2  1  0
  7  5  1  0
  8  7  1  0
  8  9  1  6
 10  9  1  0
 11 10  2  0
 12 11  1  0
 13 12  1  0
 13 14  2  0
 14 10  1  0
 15 22  1  0
 15  8  1  0
 16 15  2  0
 18 17  1  0
 19 21  1  0
 19 18  1  0
 19 20  1  6
 21 23  1  0
 21 22  1  6
 23 25  1  0
 24 23  2  0
M  END
$$$$
