CHI.pdb
     RDKit          3D

 25 25  0  0  1  0  0  0  0  0999 V2000
   22.4250  -13.3258  -17.6311 N   0  0  0  0  0  0  0  0  0  0  0  0
   22.1632  -12.1448  -18.4273 C   0  0  1  0  0  0  0  0  0  0  0  0
   20.8699  -12.3772  -19.1694 C   0  0  0  0  0  0  0  0  0  0  0  0
   21.1302  -13.7553  -20.3214 S   0  0  0  0  0  0  0  0  0  0  0  0
   22.1390  -10.9675  -17.5654 C   0  0  0  0  0  0  0  0  0  0  0  0
   21.5117  -11.0121  -16.4733 O   0  0  0  0  0  0  0  0  0  0  0  0
   22.8133   -9.7880  -17.9524 N   0  0  0  0  0  0  0  0  0  0  0  0
   22.9047   -8.6723  -17.0576 C   0  0  1  0  0  0  0  0  0  0  0  0
   24.3503   -8.1552  -16.9914 C   0  0  0  0  0  0  0  0  0  0  0  0
   25.2664   -9.1252  -16.4205 C   0  0  0  0  0  0  0  0  0  0  0  0
   25.0672   -9.8738  -15.2850 C   0  0  0  0  0  0  0  0  0  0  0  0
   26.1486  -10.6700  -15.0690 N   0  0  0  0  0  0  0  0  0  0  0  0
   27.0190  -10.4162  -16.0695 C   0  0  0  0  0  0  0  0  0  0  0  0
   26.4734   -9.4713  -16.8917 N   0  0  0  0  0  0  0  0  0  0  0  0
   22.1207   -7.4993  -17.5441 C   0  0  0  0  0  0  0  0  0  0  0  0
   22.2235   -7.1899  -18.7564 O   0  0  0  0  0  0  0  0  0  0  0  0
   17.9591   -6.7110  -18.6167 C   0  0  0  0  0  0  0  0  0  0  0  0
   18.2880   -6.9701  -17.1550 C   0  0  0  0  0  0  0  0  0  0  0  0
   19.0166   -5.7653  -16.6408 C   0  0  2  0  0  0  0  0  0  0  0  0
   18.2382   -4.5223  -16.9082 C   0  0  0  0  0  0  0  0  0  0  0  0
   20.4260   -5.6630  -17.1764 C   0  0  2  0  0  0  0  0  0  0  0  0
   21.2756   -6.7192  -16.7337 N   0  0  0  0  0  0  0  0  0  0  0  0
   21.0164   -4.3721  -16.7744 C   0  0  0  0  0  0  0  0  0  0  0  0
   21.6434   -4.2912  -15.6967 O   0  0  0  0  0  0  0  0  0  0  0  0
   20.9105   -3.2251  -17.5418 O   0  0  0  0  0  0  0  0  0  0  0  0
  2  1  1  1
  3  2  1  0
  3  4  1  0
  5  6  2  0
  5  2  1  0
  7  5  1  0
  8  7  1  0
  8  9  1  6
 10  9  1  0
 11 10  2  0
 12 11  1  0
 13 12  1  0
 13 14  2  0
 14 10  1  0
 15 22  1  0
 15  8  1  0
 16 15  2  0
 18 17  1  0
 19 21  1  0
 19 18  1  0
 19 20  1  6
 21 23  1  0
 21 22  1  1
 23 25  1  0
 24 23  2  0
M  END
$$$$
