CHI.pdb
     RDKit          3D

 25 25  0  0  1  0  0  0  0  0999 V2000
   28.7924  -23.1062  -16.6755 N   0  0  0  0  0  0  0  0  0  0  0  0
   29.0995  -24.2666  -17.4856 C   0  0  1  0  0  0  0  0  0  0  0  0
   30.5725  -24.5529  -17.3255 C   0  0  0  0  0  0  0  0  0  0  0  0
   31.4533  -23.6968  -18.6616 S   0  0  0  0  0  0  0  0  0  0  0  0
   28.2418  -25.3799  -17.0929 C   0  0  0  0  0  0  0  0  0  0  0  0
   28.4199  -25.9352  -15.9756 O   0  0  0  0  0  0  0  0  0  0  0  0
   27.2203  -25.8312  -17.9582 N   0  0  0  0  0  0  0  0  0  0  0  0
   26.3899  -26.9401  -17.5914 C   0  0  1  0  0  0  0  0  0  0  0  0
   25.1532  -27.0076  -18.5012 C   0  0  0  0  0  0  0  0  0  0  0  0
   24.1884  -27.9987  -18.0620 C   0  0  0  0  0  0  0  0  0  0  0  0
   23.6503  -28.1196  -16.8029 C   0  0  0  0  0  0  0  0  0  0  0  0
   22.7833  -29.1672  -16.7769 N   0  0  0  0  0  0  0  0  0  0  0  0
   22.7827  -29.6968  -18.0189 C   0  0  0  0  0  0  0  0  0  0  0  0
   23.6435  -28.9778  -18.7989 N   0  0  0  0  0  0  0  0  0  0  0  0
   27.0744  -28.2481  -17.8106 C   0  0  0  0  0  0  0  0  0  0  0  0
   27.8929  -28.3277  -18.7589 O   0  0  0  0  0  0  0  0  0  0  0  0
   28.7625  -33.2867  -14.9085 C   0  0  0  0  0  0  0  0  0  0  0  0
   28.0873  -32.8775  -16.2079 C   0  0  0  0  0  0  0  0  0  0  0  0
   27.4606  -31.5348  -15.9820 C   0  0  2  0  0  0  0  0  0  0  0  0
   26.0885  -31.6796  -15.4171 C   0  0  0  0  0  0  0  0  0  0  0  0
   27.4607  -30.6743  -17.2243 C   0  0  2  0  0  0  0  0  0  0  0  0
   26.8620  -29.3956  -17.0246 N   0  0  0  0  0  0  0  0  0  0  0  0
   26.7483  -31.3729  -18.3111 C   0  0  0  0  0  0  0  0  0  0  0  0
   27.3083  -32.3183  -18.9057 O   0  0  0  0  0  0  0  0  0  0  0  0
   25.4693  -31.0301  -18.7141 O   0  0  0  0  0  0  0  0  0  0  0  0
  2  1  1  1
  3  2  1  0
  3  4  1  0
  5  6  2  0
  5  2  1  0
  7  5  1  0
  8  7  1  0
  8  9  1  6
 10  9  1  0
 11 10  2  0
 12 11  1  0
 13 12  1  0
 13 14  2  0
 14 10  1  0
 15 22  1  0
 15  8  1  0
 16 15  2  0
 18 17  1  0
 19 21  1  0
 19 18  1  0
 19 20  1  6
 21 23  1  0
 21 22  1  1
 23 25  1  0
 24 23  2  0
M  END
$$$$
