CHI.pdb
     RDKit          3D

 25 25  0  0  1  0  0  0  0  0999 V2000
   25.8526  -21.4275  -17.2186 N   0  0  0  0  0  0  0  0  0  0  0  0
   26.6036  -21.7846  -16.0330 C   0  0  1  0  0  0  0  0  0  0  0  0
   28.0599  -21.8512  -16.4232 C   0  0  0  0  0  0  0  0  0  0  0  0
   29.0119  -22.2963  -14.9435 S   0  0  0  0  0  0  0  0  0  0  0  0
   26.3269  -20.8248  -14.9693 C   0  0  0  0  0  0  0  0  0  0  0  0
   26.4527  -19.5920  -15.1990 O   0  0  0  0  0  0  0  0  0  0  0  0
   25.9212  -21.2740  -13.6928 N   0  0  0  0  0  0  0  0  0  0  0  0
   25.6918  -20.3411  -12.6295 C   0  0  1  0  0  0  0  0  0  0  0  0
   24.3006  -19.7030  -12.7670 C   0  0  0  0  0  0  0  0  0  0  0  0
   23.2802  -20.6616  -13.1491 C   0  0  0  0  0  0  0  0  0  0  0  0
   23.4428  -22.0183  -13.2991 C   0  0  0  0  0  0  0  0  0  0  0  0
   22.2599  -22.5809  -13.6655 N   0  0  0  0  0  0  0  0  0  0  0  0
   21.3631  -21.5745  -13.7430 C   0  0  0  0  0  0  0  0  0  0  0  0
   21.9934  -20.4046  -13.4263 N   0  0  0  0  0  0  0  0  0  0  0  0
   25.6546  -21.0106  -11.2961 C   0  0  0  0  0  0  0  0  0  0  0  0
   25.4903  -22.2549  -11.2714 O   0  0  0  0  0  0  0  0  0  0  0  0
   28.5041  -19.7930   -6.0408 C   0  0  0  0  0  0  0  0  0  0  0  0
   27.5249  -20.7295   -6.7306 C   0  0  0  0  0  0  0  0  0  0  0  0
   27.1368  -20.0915   -8.0303 C   0  0  2  0  0  0  0  0  0  0  0  0
   26.6192  -18.7111   -7.8083 C   0  0  0  0  0  0  0  0  0  0  0  0
   26.1601  -20.9291   -8.8229 C   0  0  2  0  0  0  0  0  0  0  0  0
   25.7915  -20.3389  -10.0675 N   0  0  0  0  0  0  0  0  0  0  0  0
   24.9425  -21.1606   -8.0226 C   0  0  0  0  0  0  0  0  0  0  0  0
   25.0189  -21.8154   -6.9613 O   0  0  0  0  0  0  0  0  0  0  0  0
   23.6973  -20.6821   -8.3921 O   0  0  0  0  0  0  0  0  0  0  0  0
  2  1  1  6
  3  2  1  0
  3  4  1  0
  5  6  2  0
  5  2  1  0
  7  5  1  0
  8  7  1  0
  8  9  1  6
 10  9  1  0
 11 10  2  0
 12 11  1  0
 13 12  1  0
 13 14  2  0
 14 10  1  0
 15 22  1  0
 15  8  1  0
 16 15  2  0
 18 17  1  0
 19 21  1  0
 19 18  1  0
 19 20  1  1
 21 23  1  0
 21 22  1  6
 23 25  1  0
 24 23  2  0
M  END
$$$$
