IIY.pdb
     RDKit          3D

 29 29  0  0  1  0  0  0  0  0999 V2000
    5.2445  -20.5693   22.2035 C   0  0  0  0  0  0  0  0  0  0  0  0
    4.8898  -19.0891   21.9744 C   0  0  0  0  0  0  0  0  0  0  0  0
    5.8928  -18.2262   22.6527 C   0  0  2  0  0  0  0  0  0  0  0  0
    6.1039  -18.7010   24.0731 C   0  0  0  0  0  0  0  0  0  0  0  0
    5.6409  -16.7619   22.5571 C   0  0  2  0  0  0  0  0  0  0  0  0
    5.5342  -16.4334   21.1198 N   0  0  0  0  0  0  0  0  0  0  0  0
    6.6869  -15.8953   23.1213 C   0  0  0  0  0  0  0  0  0  0  0  0
    7.7725  -15.7552   22.4916 O   0  0  0  0  0  0  0  0  0  0  0  0
    5.4722  -11.7064   26.3590 C   0  0  0  0  0  0  0  0  0  0  0  0
    6.0702  -12.4918   25.1721 C   0  0  0  0  0  0  0  0  0  0  0  0
    7.1189  -13.3670   25.7458 C   0  0  2  0  0  0  0  0  0  0  0  0
    8.1444  -12.4776   26.4222 C   0  0  0  0  0  0  0  0  0  0  0  0
    7.7436  -14.3776   24.8458 C   0  0  2  0  0  0  0  0  0  0  0  0
    6.5923  -15.1770   24.3414 N   0  0  0  0  0  0  0  0  0  0  0  0
    8.6971  -15.2789   25.5292 C   0  0  0  0  0  0  0  0  0  0  0  0
    8.2897  -15.9614   26.5244 O   0  0  0  0  0  0  0  0  0  0  0  0
    7.7866  -20.3048   29.7153 O   0  0  0  0  0  0  0  0  0  0  0  0
    8.3715  -19.6993   28.6105 C   0  0  0  0  0  0  0  0  0  0  0  0
    7.6118  -19.0967   27.6163 C   0  0  0  0  0  0  0  0  0  0  0  0
    8.2232  -18.5124   26.5463 C   0  0  0  0  0  0  0  0  0  0  0  0
    9.5874  -18.4915   26.4026 C   0  0  0  0  0  0  0  0  0  0  0  0
   10.2498  -17.8604   25.2413 C   0  0  0  0  0  0  0  0  0  0  0  0
   10.8706  -16.5428   25.6099 C   0  0  2  0  0  0  0  0  0  0  0  0
   10.0441  -15.4350   25.1409 N   0  0  0  0  0  0  0  0  0  0  0  0
   12.2475  -16.4492   25.1393 C   0  0  0  0  0  0  0  0  0  0  0  0
   12.6815  -15.5889   24.3480 O   0  0  0  0  0  0  0  0  0  0  0  0
   10.3559  -19.0894   27.3878 C   0  0  0  0  0  0  0  0  0  0  0  0
    9.7463  -19.6797   28.4679 C   0  0  0  0  0  0  0  0  0  0  0  0
   13.2010  -17.3855   25.5889 O   0  0  0  0  0  0  0  0  0  0  0  0
  2  1  1  0
  3  5  1  0
  3  2  1  0
  3  4  1  1
  5  6  1  6
  7  5  1  0
  7  8  2  0
  9 10  1  0
 11 10  1  0
 11 13  1  0
 11 12  1  6
 13 14  1  1
 14  7  1  0
 15 24  1  0
 15 13  1  0
 16 15  2  0
 17 18  1  0
 18 28  2  0
 19 20  2  0
 19 18  1  0
 20 21  1  0
 21 22  1  0
 21 27  2  0
 23 22  1  6
 23 24  1  0
 23 25  1  0
 25 29  1  0
 26 25  2  0
 28 27  1  0
M  END
$$$$
