IIY.pdb
     RDKit          3D

 29 29  0  0  1  0  0  0  0  0999 V2000
    7.4662  -11.6213   20.2617 C   0  0  0  0  0  0  0  0  0  0  0  0
    7.7685  -13.0803   19.8753 C   0  0  0  0  0  0  0  0  0  0  0  0
    7.9780  -13.8879   21.1060 C   0  0  2  0  0  0  0  0  0  0  0  0
    8.9830  -13.2039   22.0059 C   0  0  0  0  0  0  0  0  0  0  0  0
    8.2819  -15.3276   20.8784 C   0  0  2  0  0  0  0  0  0  0  0  0
    7.1146  -15.9127   20.1855 N   0  0  0  0  0  0  0  0  0  0  0  0
    8.5128  -16.1311   22.0885 C   0  0  0  0  0  0  0  0  0  0  0  0
    7.5232  -16.6446   22.6816 O   0  0  0  0  0  0  0  0  0  0  0  0
   11.8186  -20.0601   22.1567 C   0  0  0  0  0  0  0  0  0  0  0  0
   10.5560  -19.2088   22.4100 C   0  0  0  0  0  0  0  0  0  0  0  0
   10.9000  -18.2829   23.5142 C   0  0  2  0  0  0  0  0  0  0  0  0
   11.3418  -19.1201   24.6991 C   0  0  0  0  0  0  0  0  0  0  0  0
    9.8930  -17.2495   23.8880 C   0  0  2  0  0  0  0  0  0  0  0  0
    9.7787  -16.3961   22.6725 N   0  0  0  0  0  0  0  0  0  0  0  0
   10.2977  -16.4075   25.0351 C   0  0  0  0  0  0  0  0  0  0  0  0
   11.2489  -15.5750   24.8790 O   0  0  0  0  0  0  0  0  0  0  0  0
    5.9414  -11.8548   24.5634 O   0  0  0  0  0  0  0  0  0  0  0  0
    6.7043  -12.6126   25.4426 C   0  0  0  0  0  0  0  0  0  0  0  0
    7.8425  -12.1025   26.0535 C   0  0  0  0  0  0  0  0  0  0  0  0
    8.5656  -12.8780   26.9113 C   0  0  0  0  0  0  0  0  0  0  0  0
    8.2125  -14.1705   27.2063 C   0  0  0  0  0  0  0  0  0  0  0  0
    8.9980  -15.0119   28.1340 C   0  0  0  0  0  0  0  0  0  0  0  0
   10.1536  -15.6710   27.4361 C   0  0  2  0  0  0  0  0  0  0  0  0
    9.6864  -16.4663   26.3049 N   0  0  0  0  0  0  0  0  0  0  0  0
   10.9680  -16.4466   28.3642 C   0  0  0  0  0  0  0  0  0  0  0  0
   11.5668  -15.9856   29.3559 O   0  0  0  0  0  0  0  0  0  0  0  0
    7.0791  -14.6905   26.6031 C   0  0  0  0  0  0  0  0  0  0  0  0
    6.3466  -13.9146   25.7382 C   0  0  0  0  0  0  0  0  0  0  0  0
   11.1190  -17.8342   28.1644 O   0  0  0  0  0  0  0  0  0  0  0  0
  2  1  1  0
  3  5  1  0
  3  2  1  0
  3  4  1  6
  5  6  1  1
  7  5  1  0
  7  8  2  0
  9 10  1  0
 11 10  1  0
 11 13  1  0
 11 12  1  1
 13 14  1  6
 14  7  1  0
 15 24  1  0
 15 13  1  0
 16 15  2  0
 17 18  1  0
 18 28  2  0
 19 20  2  0
 19 18  1  0
 20 21  1  0
 21 22  1  0
 21 27  2  0
 23 22  1  1
 23 24  1  0
 23 25  1  0
 25 29  1  0
 26 25  2  0
 28 27  1  0
M  END
$$$$
