IIY.pdb
     RDKit          3D

 29 29  0  0  1  0  0  0  0  0999 V2000
    7.1455  -12.3195   18.6971 C   0  0  0  0  0  0  0  0  0  0  0  0
    7.3156  -13.7158   19.3222 C   0  0  0  0  0  0  0  0  0  0  0  0
    7.9146  -13.5850   20.6768 C   0  0  2  0  0  0  0  0  0  0  0  0
    9.2451  -12.8715   20.5847 C   0  0  0  0  0  0  0  0  0  0  0  0
    7.9802  -14.8446   21.4679 C   0  0  2  0  0  0  0  0  0  0  0  0
    6.6025  -15.3729   21.5567 N   0  0  0  0  0  0  0  0  0  0  0  0
    8.4800  -14.7093   22.8446 C   0  0  0  0  0  0  0  0  0  0  0  0
    9.7070  -14.4758   23.0312 O   0  0  0  0  0  0  0  0  0  0  0  0
    6.0553  -11.7463   26.3132 C   0  0  0  0  0  0  0  0  0  0  0  0
    7.1495  -12.4195   25.4572 C   0  0  0  0  0  0  0  0  0  0  0  0
    7.4138  -13.7336   26.0883 C   0  0  2  0  0  0  0  0  0  0  0  0
    7.8588  -13.4799   27.5157 C   0  0  0  0  0  0  0  0  0  0  0  0
    8.3150  -14.6771   25.3676 C   0  0  2  0  0  0  0  0  0  0  0  0
    7.6938  -14.8169   24.0210 N   0  0  0  0  0  0  0  0  0  0  0  0
    8.4109  -16.0119   25.9982 C   0  0  0  0  0  0  0  0  0  0  0  0
    7.3499  -16.7033   26.1340 O   0  0  0  0  0  0  0  0  0  0  0  0
   13.3961  -18.3814   21.7462 O   0  0  0  0  0  0  0  0  0  0  0  0
   12.4163  -18.5008   22.7235 C   0  0  0  0  0  0  0  0  0  0  0  0
   11.1440  -17.9699   22.5554 C   0  0  0  0  0  0  0  0  0  0  0  0
   10.2088  -18.1078   23.5384 C   0  0  0  0  0  0  0  0  0  0  0  0
   10.4725  -18.7628   24.7147 C   0  0  0  0  0  0  0  0  0  0  0  0
    9.4594  -18.9099   25.7813 C   0  0  0  0  0  0  0  0  0  0  0  0
    9.7123  -17.9589   26.9165 C   0  0  2  0  0  0  0  0  0  0  0  0
    9.6184  -16.5757   26.4603 N   0  0  0  0  0  0  0  0  0  0  0  0
   10.9793  -18.2421   27.5803 C   0  0  0  0  0  0  0  0  0  0  0  0
   11.3159  -19.3474   28.0488 O   0  0  0  0  0  0  0  0  0  0  0  0
   11.7380  -19.2967   24.8941 C   0  0  0  0  0  0  0  0  0  0  0  0
   12.6845  -19.1611   23.9078 C   0  0  0  0  0  0  0  0  0  0  0  0
   11.9325  -17.2135   27.7269 O   0  0  0  0  0  0  0  0  0  0  0  0
  2  1  1  0
  3  5  1  0
  3  2  1  0
  3  4  1  6
  5  6  1  1
  7  5  1  0
  7  8  2  0
  9 10  1  0
 11 10  1  0
 11 13  1  0
 11 12  1  1
 13 14  1  6
 14  7  1  0
 15 24  1  0
 15 13  1  0
 16 15  2  0
 17 18  1  0
 18 28  2  0
 19 20  2  0
 19 18  1  0
 20 21  1  0
 21 22  1  0
 21 27  2  0
 23 22  1  6
 23 24  1  0
 23 25  1  0
 25 29  1  0
 26 25  2  0
 28 27  1  0
M  END
$$$$
