IIY.pdb
     RDKit          3D

 29 29  0  0  1  0  0  0  0  0999 V2000
    8.8330  -20.2275   22.9613 C   0  0  0  0  0  0  0  0  0  0  0  0
    8.1242  -18.9823   22.3988 C   0  0  0  0  0  0  0  0  0  0  0  0
    6.8733  -18.7339   23.1632 C   0  0  2  0  0  0  0  0  0  0  0  0
    6.0071  -19.9737   23.1501 C   0  0  0  0  0  0  0  0  0  0  0  0
    6.1321  -17.4988   22.7866 C   0  0  2  0  0  0  0  0  0  0  0  0
    5.7426  -17.6425   21.3679 N   0  0  0  0  0  0  0  0  0  0  0  0
    6.8858  -16.2410   22.9018 C   0  0  0  0  0  0  0  0  0  0  0  0
    7.4018  -15.7383   21.8646 O   0  0  0  0  0  0  0  0  0  0  0  0
    5.3766  -12.3505   26.2977 C   0  0  0  0  0  0  0  0  0  0  0  0
    5.8439  -12.9447   24.9518 C   0  0  0  0  0  0  0  0  0  0  0  0
    7.2278  -13.4249   25.1735 C   0  0  2  0  0  0  0  0  0  0  0  0
    8.0726  -12.2312   25.5756 C   0  0  0  0  0  0  0  0  0  0  0  0
    7.8595  -14.2343   24.0930 C   0  0  2  0  0  0  0  0  0  0  0  0
    7.0951  -15.5127   24.1016 N   0  0  0  0  0  0  0  0  0  0  0  0
    9.2919  -14.5244   24.3227 C   0  0  0  0  0  0  0  0  0  0  0  0
   10.1325  -13.5720   24.2316 O   0  0  0  0  0  0  0  0  0  0  0  0
   12.1721  -16.8064   32.0040 O   0  0  0  0  0  0  0  0  0  0  0  0
   11.5413  -16.5676   30.7898 C   0  0  0  0  0  0  0  0  0  0  0  0
   11.2520  -17.5934   29.8993 C   0  0  0  0  0  0  0  0  0  0  0  0
   10.6313  -17.3188   28.7163 C   0  0  0  0  0  0  0  0  0  0  0  0
   10.2705  -16.0453   28.3558 C   0  0  0  0  0  0  0  0  0  0  0  0
    9.6001  -15.7475   27.0723 C   0  0  0  0  0  0  0  0  0  0  0  0
   10.4790  -16.0828   25.9007 C   0  0  2  0  0  0  0  0  0  0  0  0
    9.7907  -15.8040   24.6442 N   0  0  0  0  0  0  0  0  0  0  0  0
   10.9704  -17.4536   25.9749 C   0  0  0  0  0  0  0  0  0  0  0  0
   12.1408  -17.7856   26.2475 O   0  0  0  0  0  0  0  0  0  0  0  0
   10.5538  -15.0137   29.2358 C   0  0  0  0  0  0  0  0  0  0  0  0
   11.1787  -15.2836   30.4288 C   0  0  0  0  0  0  0  0  0  0  0  0
   10.0863  -18.5235   25.7264 O   0  0  0  0  0  0  0  0  0  0  0  0
  2  1  1  0
  3  5  1  0
  3  2  1  0
  3  4  1  6
  5  6  1  6
  7  5  1  0
  7  8  2  0
  9 10  1  0
 11 10  1  0
 11 13  1  0
 11 12  1  6
 13 14  1  1
 14  7  1  0
 15 24  1  0
 15 13  1  0
 16 15  2  0
 17 18  1  0
 18 28  2  0
 19 20  2  0
 19 18  1  0
 20 21  1  0
 21 22  1  0
 21 27  2  0
 23 22  1  1
 23 24  1  0
 23 25  1  0
 25 29  1  0
 26 25  2  0
 28 27  1  0
M  END
$$$$
