IIY.pdb
     RDKit          3D

 29 29  0  0  1  0  0  0  0  0999 V2000
    6.8673  -18.1773   18.4397 C   0  0  0  0  0  0  0  0  0  0  0  0
    6.6925  -16.6783   18.7427 C   0  0  0  0  0  0  0  0  0  0  0  0
    7.3725  -16.3467   20.0228 C   0  0  2  0  0  0  0  0  0  0  0  0
    7.0533  -17.3977   21.0626 C   0  0  0  0  0  0  0  0  0  0  0  0
    7.1630  -14.9566   20.5131 C   0  0  2  0  0  0  0  0  0  0  0  0
    7.5989  -14.0459   19.4335 N   0  0  0  0  0  0  0  0  0  0  0  0
    7.9153  -14.5849   21.7211 C   0  0  0  0  0  0  0  0  0  0  0  0
    9.1669  -14.4367   21.6426 O   0  0  0  0  0  0  0  0  0  0  0  0
    5.7618  -11.9100   26.0178 C   0  0  0  0  0  0  0  0  0  0  0  0
    6.7062  -12.2639   24.8491 C   0  0  0  0  0  0  0  0  0  0  0  0
    7.3424  -13.5520   25.2112 C   0  0  2  0  0  0  0  0  0  0  0  0
    8.0267  -13.3690   26.5522 C   0  0  0  0  0  0  0  0  0  0  0  0
    8.2298  -14.1925   24.1992 C   0  0  2  0  0  0  0  0  0  0  0  0
    7.3548  -14.3676   23.0066 N   0  0  0  0  0  0  0  0  0  0  0  0
    8.7542  -15.5123   24.6136 C   0  0  0  0  0  0  0  0  0  0  0  0
    7.9491  -16.4965   24.6861 O   0  0  0  0  0  0  0  0  0  0  0  0
   12.3884  -17.0145   32.2607 O   0  0  0  0  0  0  0  0  0  0  0  0
   11.8841  -16.5547   31.0510 C   0  0  0  0  0  0  0  0  0  0  0  0
   11.6471  -15.2057   30.8203 C   0  0  0  0  0  0  0  0  0  0  0  0
   11.1510  -14.7931   29.6188 C   0  0  0  0  0  0  0  0  0  0  0  0
   10.8681  -15.6698   28.6021 C   0  0  0  0  0  0  0  0  0  0  0  0
   10.3279  -15.2226   27.3007 C   0  0  0  0  0  0  0  0  0  0  0  0
   10.5243  -16.2636   26.2354 C   0  0  2  0  0  0  0  0  0  0  0  0
   10.1067  -15.7532   24.9333 N   0  0  0  0  0  0  0  0  0  0  0  0
    9.8622  -17.5157   26.5817 C   0  0  0  0  0  0  0  0  0  0  0  0
    8.6819  -17.6235   26.9690 O   0  0  0  0  0  0  0  0  0  0  0  0
   11.1003  -17.0179   28.8203 C   0  0  0  0  0  0  0  0  0  0  0  0
   11.5998  -17.4399   30.0282 C   0  0  0  0  0  0  0  0  0  0  0  0
   10.5746  -18.7287   26.4857 O   0  0  0  0  0  0  0  0  0  0  0  0
  2  1  1  0
  3  5  1  0
  3  2  1  0
  3  4  1  1
  5  6  1  6
  7  5  1  0
  7  8  2  0
  9 10  1  0
 11 10  1  0
 11 13  1  0
 11 12  1  1
 13 14  1  6
 14  7  1  0
 15 24  1  0
 15 13  1  0
 16 15  2  0
 17 18  1  0
 18 28  2  0
 19 20  2  0
 19 18  1  0
 20 21  1  0
 21 22  1  0
 21 27  2  0
 23 22  1  1
 23 24  1  0
 23 25  1  0
 25 29  1  0
 26 25  2  0
 28 27  1  0
M  END
$$$$
