IIY.pdb
     RDKit          3D

 29 29  0  0  1  0  0  0  0  0999 V2000
    6.7856  -21.9369   25.1291 C   0  0  0  0  0  0  0  0  0  0  0  0
    5.8238  -20.7626   24.8735 C   0  0  0  0  0  0  0  0  0  0  0  0
    6.6019  -19.5030   24.7355 C   0  0  2  0  0  0  0  0  0  0  0  0
    7.5324  -19.3406   25.9168 C   0  0  0  0  0  0  0  0  0  0  0  0
    5.7946  -18.2839   24.4552 C   0  0  2  0  0  0  0  0  0  0  0  0
    5.0880  -18.5161   23.1778 N   0  0  0  0  0  0  0  0  0  0  0  0
    6.5554  -17.0339   24.3064 C   0  0  0  0  0  0  0  0  0  0  0  0
    7.1437  -16.8006   23.2136 O   0  0  0  0  0  0  0  0  0  0  0  0
    5.2632  -12.6017   27.0774 C   0  0  0  0  0  0  0  0  0  0  0  0
    5.6184  -13.4581   25.8431 C   0  0  0  0  0  0  0  0  0  0  0  0
    7.0501  -13.8111   25.9867 C   0  0  2  0  0  0  0  0  0  0  0  0
    7.8514  -12.5247   25.9307 C   0  0  0  0  0  0  0  0  0  0  0  0
    7.5957  -14.8643   25.0840 C   0  0  2  0  0  0  0  0  0  0  0  0
    6.6961  -16.0315   25.3010 N   0  0  0  0  0  0  0  0  0  0  0  0
    8.9864  -15.2592   25.3978 C   0  0  0  0  0  0  0  0  0  0  0  0
    9.3290  -15.3789   26.6186 O   0  0  0  0  0  0  0  0  0  0  0  0
   10.9354  -15.0310   31.0798 O   0  0  0  0  0  0  0  0  0  0  0  0
   11.0468  -15.4856   29.7721 C   0  0  0  0  0  0  0  0  0  0  0  0
   11.2101  -14.6134   28.7036 C   0  0  0  0  0  0  0  0  0  0  0  0
   11.3158  -15.0985   27.4334 C   0  0  0  0  0  0  0  0  0  0  0  0
   11.2672  -16.4409   27.1546 C   0  0  0  0  0  0  0  0  0  0  0  0
   11.3791  -16.9663   25.7773 C   0  0  0  0  0  0  0  0  0  0  0  0
   11.3446  -15.8604   24.7610 C   0  0  2  0  0  0  0  0  0  0  0  0
    9.9676  -15.5186   24.4183 N   0  0  0  0  0  0  0  0  0  0  0  0
   12.1466  -16.1861   23.5877 C   0  0  0  0  0  0  0  0  0  0  0  0
   11.7187  -16.2529   22.4185 O   0  0  0  0  0  0  0  0  0  0  0  0
   11.1046  -17.3208   28.2120 C   0  0  0  0  0  0  0  0  0  0  0  0
   10.9975  -16.8387   29.4938 C   0  0  0  0  0  0  0  0  0  0  0  0
   13.5226  -16.4543   23.7387 O   0  0  0  0  0  0  0  0  0  0  0  0
  2  1  1  0
  3  5  1  0
  3  2  1  0
  3  4  1  1
  5  6  1  6
  7  5  1  0
  7  8  2  0
  9 10  1  0
 11 10  1  0
 11 13  1  0
 11 12  1  6
 13 14  1  1
 14  7  1  0
 15 24  1  0
 15 13  1  0
 16 15  2  0
 17 18  1  0
 18 28  2  0
 19 20  2  0
 19 18  1  0
 20 21  1  0
 21 22  1  0
 21 27  2  0
 23 22  1  1
 23 24  1  0
 23 25  1  0
 25 29  1  0
 26 25  2  0
 28 27  1  0
M  END
$$$$
