IIY.pdb
     RDKit          3D

 29 29  0  0  1  0  0  0  0  0999 V2000
   14.6456  -18.1498   15.6012 C   0  0  0  0  0  0  0  0  0  0  0  0
   13.5015  -17.1497   15.3562 C   0  0  0  0  0  0  0  0  0  0  0  0
   13.1338  -16.4905   16.6373 C   0  0  2  0  0  0  0  0  0  0  0  0
   13.0286  -17.5240   17.7365 C   0  0  0  0  0  0  0  0  0  0  0  0
   11.9538  -15.5850   16.5713 C   0  0  2  0  0  0  0  0  0  0  0  0
   12.2975  -14.4925   15.6368 N   0  0  0  0  0  0  0  0  0  0  0  0
   11.5576  -14.9579   17.8413 C   0  0  0  0  0  0  0  0  0  0  0  0
   12.3412  -14.1321   18.3881 O   0  0  0  0  0  0  0  0  0  0  0  0
    6.5931  -13.2643   18.8888 C   0  0  0  0  0  0  0  0  0  0  0  0
    8.1279  -13.3259   18.7355 C   0  0  0  0  0  0  0  0  0  0  0  0
    8.6106  -14.2352   19.8009 C   0  0  2  0  0  0  0  0  0  0  0  0
    8.0868  -13.7146   21.1255 C   0  0  0  0  0  0  0  0  0  0  0  0
   10.0696  -14.5377   19.8421 C   0  0  2  0  0  0  0  0  0  0  0  0
   10.3420  -15.1957   18.5338 N   0  0  0  0  0  0  0  0  0  0  0  0
   10.4596  -15.4541   20.9361 C   0  0  0  0  0  0  0  0  0  0  0  0
   10.0274  -16.6520   20.9156 O   0  0  0  0  0  0  0  0  0  0  0  0
   16.5005  -16.3676   18.7619 O   0  0  0  0  0  0  0  0  0  0  0  0
   15.6900  -16.2077   19.8785 C   0  0  0  0  0  0  0  0  0  0  0  0
   15.1343  -14.9793   20.2118 C   0  0  0  0  0  0  0  0  0  0  0  0
   14.3433  -14.8625   21.3167 C   0  0  0  0  0  0  0  0  0  0  0  0
   14.0640  -15.9279   22.1346 C   0  0  0  0  0  0  0  0  0  0  0  0
   13.2087  -15.8005   23.3337 C   0  0  0  0  0  0  0  0  0  0  0  0
   11.7620  -16.0401   23.0068 C   0  0  2  0  0  0  0  0  0  0  0  0
   11.2934  -15.0815   22.0110 N   0  0  0  0  0  0  0  0  0  0  0  0
   10.9353  -16.0452   24.2079 C   0  0  0  0  0  0  0  0  0  0  0  0
   10.0011  -15.2536   24.4428 O   0  0  0  0  0  0  0  0  0  0  0  0
   14.6126  -17.1584   21.8125 C   0  0  0  0  0  0  0  0  0  0  0  0
   15.4101  -17.2827   20.7011 C   0  0  0  0  0  0  0  0  0  0  0  0
   11.1746  -17.0051   25.2126 O   0  0  0  0  0  0  0  0  0  0  0  0
  2  1  1  0
  3  5  1  0
  3  2  1  0
  3  4  1  1
  5  6  1  6
  7  5  1  0
  7  8  2  0
  9 10  1  0
 11 10  1  0
 11 13  1  0
 11 12  1  1
 13 14  1  6
 14  7  1  0
 15 24  1  0
 15 13  1  0
 16 15  2  0
 17 18  1  0
 18 28  2  0
 19 20  2  0
 19 18  1  0
 20 21  1  0
 21 22  1  0
 21 27  2  0
 23 22  1  1
 23 24  1  0
 23 25  1  0
 25 29  1  0
 26 25  2  0
 28 27  1  0
M  END
$$$$
