IIY.pdb
     RDKit          3D

 29 29  0  0  1  0  0  0  0  0999 V2000
    6.4762  -21.3863   24.8215 C   0  0  0  0  0  0  0  0  0  0  0  0
    5.6988  -20.2290   24.1689 C   0  0  0  0  0  0  0  0  0  0  0  0
    6.5336  -18.9986   24.1826 C   0  0  2  0  0  0  0  0  0  0  0  0
    7.1645  -18.8195   25.5455 C   0  0  0  0  0  0  0  0  0  0  0  0
    5.8610  -17.7677   23.6834 C   0  0  2  0  0  0  0  0  0  0  0  0
    5.4076  -18.0502   22.3051 N   0  0  0  0  0  0  0  0  0  0  0  0
    6.6997  -16.5609   23.6229 C   0  0  0  0  0  0  0  0  0  0  0  0
    7.5972  -16.4817   22.7382 O   0  0  0  0  0  0  0  0  0  0  0  0
    5.3405  -11.7730   25.9480 C   0  0  0  0  0  0  0  0  0  0  0  0
    5.8425  -12.7266   24.8427 C   0  0  0  0  0  0  0  0  0  0  0  0
    7.1048  -13.3138   25.3494 C   0  0  2  0  0  0  0  0  0  0  0  0
    8.0875  -12.1795   25.5679 C   0  0  0  0  0  0  0  0  0  0  0  0
    7.6983  -14.4442   24.5802 C   0  0  2  0  0  0  0  0  0  0  0  0
    6.5948  -15.4405   24.4874 N   0  0  0  0  0  0  0  0  0  0  0  0
    8.8632  -15.0715   25.2421 C   0  0  0  0  0  0  0  0  0  0  0  0
    8.6582  -15.9026   26.1852 O   0  0  0  0  0  0  0  0  0  0  0  0
   11.0020  -15.8090   31.6281 O   0  0  0  0  0  0  0  0  0  0  0  0
   10.9598  -16.0848   30.2674 C   0  0  0  0  0  0  0  0  0  0  0  0
   11.4654  -17.2671   29.7426 C   0  0  0  0  0  0  0  0  0  0  0  0
   11.4056  -17.5015   28.4004 C   0  0  0  0  0  0  0  0  0  0  0  0
   10.8557  -16.6019   27.5226 C   0  0  0  0  0  0  0  0  0  0  0  0
   10.7934  -16.8550   26.0674 C   0  0  0  0  0  0  0  0  0  0  0  0
   11.3035  -15.6807   25.2814 C   0  0  2  0  0  0  0  0  0  0  0  0
   10.2025  -14.8072   24.8874 N   0  0  0  0  0  0  0  0  0  0  0  0
   12.1109  -16.1072   24.1446 C   0  0  0  0  0  0  0  0  0  0  0  0
   13.3568  -16.0942   24.1005 O   0  0  0  0  0  0  0  0  0  0  0  0
   10.3481  -15.4189   28.0342 C   0  0  0  0  0  0  0  0  0  0  0  0
   10.4053  -15.1767   29.3851 C   0  0  0  0  0  0  0  0  0  0  0  0
   11.4747  -16.5807   22.9787 O   0  0  0  0  0  0  0  0  0  0  0  0
  2  1  1  0
  3  5  1  0
  3  2  1  0
  3  4  1  1
  5  6  1  6
  7  5  1  0
  7  8  2  0
  9 10  1  0
 11 10  1  0
 11 13  1  0
 11 12  1  6
 13 14  1  1
 14  7  1  0
 15 24  1  0
 15 13  1  0
 16 15  2  0
 17 18  1  0
 18 28  2  0
 19 20  2  0
 19 18  1  0
 20 21  1  0
 21 22  1  0
 21 27  2  0
 23 22  1  6
 23 24  1  0
 23 25  1  0
 25 29  1  0
 26 25  2  0
 28 27  1  0
M  END
$$$$
