IIY.pdb
     RDKit          3D

 29 29  0  0  1  0  0  0  0  0999 V2000
    7.1383  -19.8819   23.9660 C   0  0  0  0  0  0  0  0  0  0  0  0
    7.5178  -18.5649   23.2655 C   0  0  0  0  0  0  0  0  0  0  0  0
    6.2925  -17.7572   23.0264 C   0  0  2  0  0  0  0  0  0  0  0  0
    5.3211  -18.5370   22.1684 C   0  0  0  0  0  0  0  0  0  0  0  0
    6.5291  -16.3732   22.5313 C   0  0  2  0  0  0  0  0  0  0  0  0
    7.1624  -16.4911   21.2008 N   0  0  0  0  0  0  0  0  0  0  0  0
    7.4158  -15.5413   23.3589 C   0  0  0  0  0  0  0  0  0  0  0  0
    8.6360  -15.4477   23.0473 O   0  0  0  0  0  0  0  0  0  0  0  0
    5.5324  -11.2874   26.1110 C   0  0  0  0  0  0  0  0  0  0  0  0
    6.4555  -12.0707   25.1532 C   0  0  0  0  0  0  0  0  0  0  0  0
    7.2298  -13.0056   26.0025 C   0  0  2  0  0  0  0  0  0  0  0  0
    8.0646  -12.1771   26.9600 C   0  0  0  0  0  0  0  0  0  0  0  0
    8.0264  -14.0628   25.3173 C   0  0  2  0  0  0  0  0  0  0  0  0
    7.0220  -14.8086   24.5086 N   0  0  0  0  0  0  0  0  0  0  0  0
    8.6963  -15.0017   26.2438 C   0  0  0  0  0  0  0  0  0  0  0  0
    8.1789  -15.2061   27.3895 O   0  0  0  0  0  0  0  0  0  0  0  0
   10.4282  -22.2771   30.0889 O   0  0  0  0  0  0  0  0  0  0  0  0
   10.1340  -21.1856   29.2818 C   0  0  0  0  0  0  0  0  0  0  0  0
   11.1252  -20.3384   28.8038 C   0  0  0  0  0  0  0  0  0  0  0  0
   10.7963  -19.2766   28.0136 C   0  0  0  0  0  0  0  0  0  0  0  0
    9.5001  -18.9994   27.6599 C   0  0  0  0  0  0  0  0  0  0  0  0
    9.1436  -17.8469   26.8054 C   0  0  0  0  0  0  0  0  0  0  0  0
   10.2982  -16.8983   26.6496 C   0  0  2  0  0  0  0  0  0  0  0  0
    9.8840  -15.6961   25.9330 N   0  0  0  0  0  0  0  0  0  0  0  0
   11.4461  -17.5492   26.0295 C   0  0  0  0  0  0  0  0  0  0  0  0
   11.7466  -17.4820   24.8213 O   0  0  0  0  0  0  0  0  0  0  0  0
    8.5025  -19.8374   28.1305 C   0  0  0  0  0  0  0  0  0  0  0  0
    8.8272  -20.9084   28.9269 C   0  0  0  0  0  0  0  0  0  0  0  0
   12.3153  -18.3277   26.8209 O   0  0  0  0  0  0  0  0  0  0  0  0
  2  1  1  0
  3  5  1  0
  3  2  1  0
  3  4  1  6
  5  6  1  6
  7  5  1  0
  7  8  2  0
  9 10  1  0
 11 10  1  0
 11 13  1  0
 11 12  1  6
 13 14  1  6
 14  7  1  0
 15 24  1  0
 15 13  1  0
 16 15  2  0
 17 18  1  0
 18 28  2  0
 19 20  2  0
 19 18  1  0
 20 21  1  0
 21 22  1  0
 21 27  2  0
 23 22  1  6
 23 24  1  0
 23 25  1  0
 25 29  1  0
 26 25  2  0
 28 27  1  0
M  END
$$$$
