IIY.pdb
     RDKit          3D

 29 29  0  0  1  0  0  0  0  0999 V2000
    7.9757  -22.0948   18.5167 C   0  0  0  0  0  0  0  0  0  0  0  0
    7.7144  -20.7471   17.8204 C   0  0  0  0  0  0  0  0  0  0  0  0
    8.3446  -19.6517   18.6040 C   0  0  2  0  0  0  0  0  0  0  0  0
    7.9298  -19.7521   20.0550 C   0  0  0  0  0  0  0  0  0  0  0  0
    8.1717  -18.2848   18.0397 C   0  0  2  0  0  0  0  0  0  0  0  0
    8.7669  -18.2959   16.6867 N   0  0  0  0  0  0  0  0  0  0  0  0
    8.8210  -17.1977   18.7878 C   0  0  0  0  0  0  0  0  0  0  0  0
   10.0804  -17.1059   18.7668 O   0  0  0  0  0  0  0  0  0  0  0  0
    6.8650  -12.1651   19.4230 C   0  0  0  0  0  0  0  0  0  0  0  0
    7.8748  -13.2950   19.1286 C   0  0  0  0  0  0  0  0  0  0  0  0
    8.0629  -14.0205   20.4066 C   0  0  2  0  0  0  0  0  0  0  0  0
    8.5110  -13.0135   21.4484 C   0  0  0  0  0  0  0  0  0  0  0  0
    8.9167  -15.2421   20.3881 C   0  0  2  0  0  0  0  0  0  0  0  0
    8.1502  -16.2093   19.5539 N   0  0  0  0  0  0  0  0  0  0  0  0
    9.1467  -15.8314   21.7254 C   0  0  0  0  0  0  0  0  0  0  0  0
    8.1773  -16.4097   22.3153 O   0  0  0  0  0  0  0  0  0  0  0  0
   11.8374  -21.6050   27.4055 O   0  0  0  0  0  0  0  0  0  0  0  0
   11.4946  -20.7301   26.3826 C   0  0  0  0  0  0  0  0  0  0  0  0
   11.0907  -19.4259   26.6374 C   0  0  0  0  0  0  0  0  0  0  0  0
   10.7621  -18.5967   25.6056 C   0  0  0  0  0  0  0  0  0  0  0  0
   10.8130  -19.0005   24.2955 C   0  0  0  0  0  0  0  0  0  0  0  0
   10.4542  -18.1023   23.1774 C   0  0  0  0  0  0  0  0  0  0  0  0
   10.6890  -16.6612   23.5311 C   0  0  2  0  0  0  0  0  0  0  0  0
   10.3878  -15.7963   22.3946 N   0  0  0  0  0  0  0  0  0  0  0  0
   12.0347  -16.4498   24.0511 C   0  0  0  0  0  0  0  0  0  0  0  0
   12.4305  -16.7875   25.1842 O   0  0  0  0  0  0  0  0  0  0  0  0
   11.2145  -20.2992   24.0287 C   0  0  0  0  0  0  0  0  0  0  0  0
   11.5468  -21.1393   25.0634 C   0  0  0  0  0  0  0  0  0  0  0  0
   13.0009  -15.8165   23.2428 O   0  0  0  0  0  0  0  0  0  0  0  0
  2  1  1  0
  3  5  1  0
  3  2  1  0
  3  4  1  1
  5  6  1  6
  7  5  1  0
  7  8  2  0
  9 10  1  0
 11 10  1  0
 11 13  1  0
 11 12  1  1
 13 14  1  6
 14  7  1  0
 15 24  1  0
 15 13  1  0
 16 15  2  0
 17 18  1  0
 18 28  2  0
 19 20  2  0
 19 18  1  0
 20 21  1  0
 21 22  1  0
 21 27  2  0
 23 22  1  6
 23 24  1  0
 23 25  1  0
 25 29  1  0
 26 25  2  0
 28 27  1  0
M  END
$$$$
