KMI.pdb
     RDKit          3D

 26 25  0  0  1  0  0  0  0  0999 V2000
   -8.9138   10.9752  -62.6819 N   0  0  0  0  0  0  0  0  0  0  0  0
  -10.2391   10.4408  -62.7048 C   0  0  1  0  0  0  0  0  0  0  0  0
  -10.6067    9.6949  -61.4534 C   0  0  0  0  0  0  0  0  0  0  0  0
  -10.0177   10.4232  -60.2733 C   0  0  0  0  0  0  0  0  0  0  0  0
   -9.9488    9.5881  -59.0347 C   0  0  0  0  0  0  0  0  0  0  0  0
  -10.2955   10.3280  -57.7822 C   0  0  0  0  0  0  0  0  0  0  0  0
   -9.7868    9.7166  -56.5886 N   0  0  0  0  0  0  0  0  0  0  0  0
  -11.1882   11.5680  -62.9653 C   0  0  0  0  0  0  0  0  0  0  0  0
  -11.2308   12.4862  -62.1018 O   0  0  0  0  0  0  0  0  0  0  0  0
  -12.0379   16.0198  -62.6318 C   0  0  0  0  0  0  0  0  0  0  0  0
  -12.4218   14.2711  -62.8982 S   0  0  0  0  0  0  0  0  0  0  0  0
  -12.9858   14.0078  -64.6423 C   0  0  0  0  0  0  0  0  0  0  0  0
  -11.7749   13.6373  -65.4043 C   0  0  0  0  0  0  0  0  0  0  0  0
  -11.4458   12.1726  -65.3438 C   0  0  2  0  0  0  0  0  0  0  0  0
  -12.0043   11.6269  -64.1077 N   0  0  0  0  0  0  0  0  0  0  0  0
   -9.9778   11.9674  -65.3765 C   0  0  0  0  0  0  0  0  0  0  0  0
   -9.2078   12.8850  -65.8496 O   0  0  0  0  0  0  0  0  0  0  0  0
   -9.1080    9.2151  -60.9046 C   0  0  0  0  0  0  0  0  0  0  0  0
   -8.1078   10.2121  -61.4701 C   0  0  0  0  0  0  0  0  0  0  0  0
   -8.1139   10.2329  -62.9576 C   0  0  2  0  0  0  0  0  0  0  0  0
   -7.2218   11.2731  -63.5761 C   0  0  0  0  0  0  0  0  0  0  0  0
   -9.4966   10.3387  -63.5174 C   0  0  2  0  0  0  0  0  0  0  0  0
   -9.3074   10.8093  -64.9104 N   0  0  0  0  0  0  0  0  0  0  0  0
  -10.3184   11.2824  -62.7530 C   0  0  0  0  0  0  0  0  0  0  0  0
  -10.5717   12.5386  -63.2713 O   0  0  0  0  0  0  0  0  0  0  0  0
  -10.8014   10.9923  -61.6425 O   0  0  0  0  0  0  0  0  0  0  0  0
  2  1  1  1
  3  2  1  0
  4  3  1  0
  5  4  1  0
  5  6  1  0
  7  6  1  0
  8  9  2  0
  8  2  1  0
 11 10  1  0
 11 12  1  0
 12 13  1  0
 14 13  1  1
 14 15  1  0
 15  8  1  0
 16 14  1  0
 17 16  2  0
 19 18  1  0
 19 20  1  0
 20 21  1  1
 20 22  1  0
 22 24  1  0
 22 23  1  6
 23 16  1  0
 24 25  1  0
 26 24  2  0
M  END
$$$$
