KMI.pdb
     RDKit          3D

 26 25  0  0  1  0  0  0  0  0999 V2000
   24.2053  -20.2930  -16.5395 N   0  0  0  0  0  0  0  0  0  0  0  0
   22.7791  -20.2839  -16.4471 C   0  0  1  0  0  0  0  0  0  0  0  0
   22.0974  -20.9085  -17.6314 C   0  0  0  0  0  0  0  0  0  0  0  0
   21.7322  -19.8162  -18.6027 C   0  0  0  0  0  0  0  0  0  0  0  0
   22.9134  -19.2306  -19.3086 C   0  0  0  0  0  0  0  0  0  0  0  0
   22.5704  -18.1205  -20.2502 C   0  0  0  0  0  0  0  0  0  0  0  0
   23.7052  -17.5655  -20.9293 N   0  0  0  0  0  0  0  0  0  0  0  0
   22.3935  -20.9683  -15.1735 C   0  0  0  0  0  0  0  0  0  0  0  0
   22.8969  -22.1055  -14.9644 O   0  0  0  0  0  0  0  0  0  0  0  0
   20.5350  -19.7230   -7.7087 C   0  0  0  0  0  0  0  0  0  0  0  0
   20.8297  -19.1508   -9.4004 S   0  0  0  0  0  0  0  0  0  0  0  0
   20.8291  -20.5924  -10.5628 C   0  0  0  0  0  0  0  0  0  0  0  0
   21.2353  -20.0495  -11.8761 C   0  0  0  0  0  0  0  0  0  0  0  0
   21.2979  -21.0824  -12.9654 C   0  0  2  0  0  0  0  0  0  0  0  0
   21.5154  -20.3957  -14.2376 N   0  0  0  0  0  0  0  0  0  0  0  0
   20.0390  -21.8640  -13.0142 C   0  0  0  0  0  0  0  0  0  0  0  0
   18.9886  -21.3630  -13.5658 O   0  0  0  0  0  0  0  0  0  0  0  0
   19.8764  -27.0531  -14.0649 C   0  0  0  0  0  0  0  0  0  0  0  0
   19.5431  -25.5754  -13.9257 C   0  0  0  0  0  0  0  0  0  0  0  0
   18.8210  -25.2785  -12.6594 C   0  0  2  0  0  0  0  0  0  0  0  0
   17.5649  -26.0775  -12.4489 C   0  0  0  0  0  0  0  0  0  0  0  0
   18.5387  -23.8189  -12.4965 C   0  0  2  0  0  0  0  0  0  0  0  0
   19.8726  -23.1720  -12.4951 N   0  0  0  0  0  0  0  0  0  0  0  0
   17.8219  -23.5433  -11.2473 C   0  0  0  0  0  0  0  0  0  0  0  0
   16.4815  -23.2082  -11.2919 O   0  0  0  0  0  0  0  0  0  0  0  0
   18.3809  -23.5997  -10.1360 O   0  0  0  0  0  0  0  0  0  0  0  0
  2  1  1  6
  3  2  1  0
  4  3  1  0
  5  4  1  0
  5  6  1  0
  7  6  1  0
  8  9  2  0
  8  2  1  0
 11 10  1  0
 11 12  1  0
 12 13  1  0
 14 13  1  1
 14 15  1  0
 15  8  1  0
 16 14  1  0
 17 16  2  0
 19 18  1  0
 19 20  1  0
 20 21  1  6
 20 22  1  0
 22 24  1  0
 22 23  1  1
 23 16  1  0
 24 25  1  0
 26 24  2  0
M  END
$$$$
