KMI.pdb
     RDKit          3D

 26 25  0  0  1  0  0  0  0  0999 V2000
   20.3020  -16.1378  -16.4801 N   0  0  0  0  0  0  0  0  0  0  0  0
   20.4807  -14.9380  -17.2359 C   0  0  1  0  0  0  0  0  0  0  0  0
   19.2017  -14.3905  -17.8031 C   0  0  0  0  0  0  0  0  0  0  0  0
   18.6063  -15.4246  -18.7229 C   0  0  0  0  0  0  0  0  0  0  0  0
   17.1506  -15.6664  -18.4808 C   0  0  0  0  0  0  0  0  0  0  0  0
   16.5172  -16.5990  -19.4634 C   0  0  0  0  0  0  0  0  0  0  0  0
   16.7758  -16.2605  -20.8330 N   0  0  0  0  0  0  0  0  0  0  0  0
   21.1602  -13.9348  -16.3578 C   0  0  0  0  0  0  0  0  0  0  0  0
   20.8225  -13.9218  -15.1428 O   0  0  0  0  0  0  0  0  0  0  0  0
   27.0910  -13.4099  -15.2997 C   0  0  0  0  0  0  0  0  0  0  0  0
   26.7690  -11.6344  -15.4396 S   0  0  0  0  0  0  0  0  0  0  0  0
   24.9754  -11.2925  -15.1302 C   0  0  0  0  0  0  0  0  0  0  0  0
   24.2330  -12.1767  -16.0528 C   0  0  0  0  0  0  0  0  0  0  0  0
   22.7406  -12.0959  -15.8996 C   0  0  2  0  0  0  0  0  0  0  0  0
   22.1309  -13.0385  -16.8363 N   0  0  0  0  0  0  0  0  0  0  0  0
   22.2631  -10.7196  -16.1748 C   0  0  0  0  0  0  0  0  0  0  0  0
   22.5012  -10.1691  -17.3145 O   0  0  0  0  0  0  0  0  0  0  0  0
   17.5362   -9.0415  -16.5844 C   0  0  0  0  0  0  0  0  0  0  0  0
   19.0521   -9.0308  -16.7115 C   0  0  0  0  0  0  0  0  0  0  0  0
   19.7122   -8.4324  -15.5203 C   0  0  2  0  0  0  0  0  0  0  0  0
   19.2800   -7.0284  -15.2001 C   0  0  0  0  0  0  0  0  0  0  0  0
   21.2036   -8.5086  -15.6005 C   0  0  2  0  0  0  0  0  0  0  0  0
   21.5305   -9.9156  -15.2667 N   0  0  0  0  0  0  0  0  0  0  0  0
   21.8434   -7.5848  -14.6583 C   0  0  0  0  0  0  0  0  0  0  0  0
   22.2047   -8.0359  -13.4026 O   0  0  0  0  0  0  0  0  0  0  0  0
   22.0756   -6.3965  -14.9494 O   0  0  0  0  0  0  0  0  0  0  0  0
  2  1  1  1
  3  2  1  0
  4  3  1  0
  5  4  1  0
  5  6  1  0
  7  6  1  0
  8  9  2  0
  8  2  1  0
 11 10  1  0
 11 12  1  0
 12 13  1  0
 14 13  1  6
 14 15  1  0
 15  8  1  0
 16 14  1  0
 17 16  2  0
 19 18  1  0
 19 20  1  0
 20 21  1  6
 20 22  1  0
 22 24  1  0
 22 23  1  1
 23 16  1  0
 24 25  1  0
 26 24  2  0
M  END
$$$$
