KMI.pdb
     RDKit          3D

 26 25  0  0  1  0  0  0  0  0999 V2000
   28.5168  -20.7275  -15.3904 N   0  0  0  0  0  0  0  0  0  0  0  0
   27.2994  -21.2165  -15.9573 C   0  0  1  0  0  0  0  0  0  0  0  0
   27.4960  -22.3782  -16.8896 C   0  0  0  0  0  0  0  0  0  0  0  0
   28.9704  -22.5273  -17.1619 C   0  0  0  0  0  0  0  0  0  0  0  0
   29.5629  -23.7618  -16.5608 C   0  0  0  0  0  0  0  0  0  0  0  0
   30.9818  -24.0125  -16.9614 C   0  0  0  0  0  0  0  0  0  0  0  0
   31.5809  -25.1349  -16.2991 N   0  0  0  0  0  0  0  0  0  0  0  0
   26.3753  -21.5699  -14.8347 C   0  0  0  0  0  0  0  0  0  0  0  0
   25.6252  -22.5686  -15.0089 O   0  0  0  0  0  0  0  0  0  0  0  0
   27.5119  -20.8281   -8.6452 C   0  0  0  0  0  0  0  0  0  0  0  0
   25.7547  -20.3944   -8.6414 S   0  0  0  0  0  0  0  0  0  0  0  0
   24.9353  -21.0690  -10.1590 C   0  0  0  0  0  0  0  0  0  0  0  0
   25.8317  -20.7294  -11.2840 C   0  0  0  0  0  0  0  0  0  0  0  0
   25.3507  -21.2333  -12.6151 C   0  0  2  0  0  0  0  0  0  0  0  0
   26.3243  -20.8424  -13.6334 N   0  0  0  0  0  0  0  0  0  0  0  0
   24.0189  -20.6664  -12.9358 C   0  0  0  0  0  0  0  0  0  0  0  0
   23.8510  -19.3898  -12.9680 O   0  0  0  0  0  0  0  0  0  0  0  0
   19.6658  -23.1161  -14.7384 C   0  0  0  0  0  0  0  0  0  0  0  0
   21.0955  -22.6926  -15.0399 C   0  0  0  0  0  0  0  0  0  0  0  0
   21.2729  -21.2175  -14.9647 C   0  0  2  0  0  0  0  0  0  0  0  0
   22.2699  -20.6531  -15.9383 C   0  0  0  0  0  0  0  0  0  0  0  0
   21.5855  -20.7541  -13.5776 C   0  0  2  0  0  0  0  0  0  0  0  0
   22.8602  -21.4269  -13.2306 N   0  0  0  0  0  0  0  0  0  0  0  0
   20.5256  -21.1217  -12.6333 C   0  0  0  0  0  0  0  0  0  0  0  0
   19.3356  -20.4183  -12.6390 O   0  0  0  0  0  0  0  0  0  0  0  0
   20.6584  -22.0530  -11.8174 O   0  0  0  0  0  0  0  0  0  0  0  0
  2  1  1  1
  3  2  1  0
  4  3  1  0
  5  4  1  0
  5  6  1  0
  7  6  1  0
  8  9  2  0
  8  2  1  0
 11 10  1  0
 11 12  1  0
 12 13  1  0
 14 13  1  1
 14 15  1  0
 15  8  1  0
 16 14  1  0
 17 16  2  0
 19 18  1  0
 19 20  1  0
 20 21  1  6
 20 22  1  0
 22 24  1  0
 22 23  1  1
 23 16  1  0
 24 25  1  0
 26 24  2  0
M  END
$$$$
