KMI.pdb
     RDKit          3D

 26 25  0  0  1  0  0  0  0  0999 V2000
   29.2771  -22.6530  -14.9503 N   0  0  0  0  0  0  0  0  0  0  0  0
   28.3314  -21.6218  -15.2417 C   0  0  1  0  0  0  0  0  0  0  0  0
   27.8597  -21.6262  -16.6682 C   0  0  0  0  0  0  0  0  0  0  0  0
   29.0493  -21.4006  -17.5649 C   0  0  0  0  0  0  0  0  0  0  0  0
   29.5792  -22.6586  -18.1756 C   0  0  0  0  0  0  0  0  0  0  0  0
   30.6986  -22.4405  -19.1429 C   0  0  0  0  0  0  0  0  0  0  0  0
   30.3175  -21.7045  -20.3135 N   0  0  0  0  0  0  0  0  0  0  0  0
   27.1859  -21.7618  -14.2892 C   0  0  0  0  0  0  0  0  0  0  0  0
   26.2000  -22.4432  -14.6820 O   0  0  0  0  0  0  0  0  0  0  0  0
   27.6769  -19.9520   -8.3724 C   0  0  0  0  0  0  0  0  0  0  0  0
   25.9105  -20.3106   -8.2078 S   0  0  0  0  0  0  0  0  0  0  0  0
   25.2482  -20.9659   -9.8083 C   0  0  0  0  0  0  0  0  0  0  0  0
   26.3541  -20.8428  -10.7810 C   0  0  0  0  0  0  0  0  0  0  0  0
   26.0311  -21.3987  -12.1389 C   0  0  2  0  0  0  0  0  0  0  0  0
   27.1814  -21.1738  -13.0128 N   0  0  0  0  0  0  0  0  0  0  0  0
   24.8266  -20.7394  -12.6980 C   0  0  0  0  0  0  0  0  0  0  0  0
   24.8299  -19.4710  -12.9218 O   0  0  0  0  0  0  0  0  0  0  0  0
   22.9321  -21.4087  -17.1961 C   0  0  0  0  0  0  0  0  0  0  0  0
   23.2487  -20.9006  -15.7976 C   0  0  0  0  0  0  0  0  0  0  0  0
   22.1308  -21.1398  -14.8457 C   0  0  2  0  0  0  0  0  0  0  0  0
   20.7925  -20.6330  -15.3066 C   0  0  0  0  0  0  0  0  0  0  0  0
   22.4340  -20.6258  -13.4745 C   0  0  2  0  0  0  0  0  0  0  0  0
   23.6184  -21.3999  -13.0319 N   0  0  0  0  0  0  0  0  0  0  0  0
   21.3054  -20.8272  -12.5601 C   0  0  0  0  0  0  0  0  0  0  0  0
   20.3947  -19.8051  -12.3681 O   0  0  0  0  0  0  0  0  0  0  0  0
   21.1347  -21.8952  -11.9431 O   0  0  0  0  0  0  0  0  0  0  0  0
  2  1  1  6
  3  2  1  0
  4  3  1  0
  5  4  1  0
  5  6  1  0
  7  6  1  0
  8  9  2  0
  8  2  1  0
 11 10  1  0
 11 12  1  0
 12 13  1  0
 14 13  1  1
 14 15  1  0
 15  8  1  0
 16 14  1  0
 17 16  2  0
 19 18  1  0
 19 20  1  0
 20 21  1  6
 20 22  1  0
 22 24  1  0
 22 23  1  1
 23 16  1  0
 24 25  1  0
 26 24  2  0
M  END
$$$$
