KMI.pdb
     RDKit          3D

 26 25  0  0  1  0  0  0  0  0999 V2000
   28.9923  -17.7905  -15.3642 N   0  0  0  0  0  0  0  0  0  0  0  0
   28.2704  -18.8719  -15.9576 C   0  0  1  0  0  0  0  0  0  0  0  0
   29.0018  -19.5294  -17.0934 C   0  0  0  0  0  0  0  0  0  0  0  0
   28.6500  -18.8083  -18.3687 C   0  0  0  0  0  0  0  0  0  0  0  0
   27.4932  -19.4171  -19.0950 C   0  0  0  0  0  0  0  0  0  0  0  0
   27.8824  -20.4635  -20.0900 C   0  0  0  0  0  0  0  0  0  0  0  0
   26.7675  -21.0749  -20.7536 N   0  0  0  0  0  0  0  0  0  0  0  0
   27.9420  -19.8560  -14.8793 C   0  0  0  0  0  0  0  0  0  0  0  0
   27.1587  -20.7954  -15.1865 O   0  0  0  0  0  0  0  0  0  0  0  0
   28.9747  -19.9732   -7.6349 C   0  0  0  0  0  0  0  0  0  0  0  0
   29.6723  -21.0981   -8.8693 S   0  0  0  0  0  0  0  0  0  0  0  0
   28.4346  -21.4072  -10.2118 C   0  0  0  0  0  0  0  0  0  0  0  0
   28.8870  -20.6047  -11.3676 C   0  0  0  0  0  0  0  0  0  0  0  0
   27.9643  -20.6739  -12.5513 C   0  0  2  0  0  0  0  0  0  0  0  0
   28.4661  -19.7628  -13.5787 N   0  0  0  0  0  0  0  0  0  0  0  0
   26.5858  -20.2943  -12.1594 C   0  0  0  0  0  0  0  0  0  0  0  0
   26.3054  -19.0659  -11.8923 O   0  0  0  0  0  0  0  0  0  0  0  0
   20.8886  -21.3913  -13.5717 C   0  0  0  0  0  0  0  0  0  0  0  0
   21.8134  -20.8642  -12.4848 C   0  0  0  0  0  0  0  0  0  0  0  0
   23.2268  -21.2748  -12.7009 C   0  0  2  0  0  0  0  0  0  0  0  0
   23.4405  -22.7585  -12.8160 C   0  0  0  0  0  0  0  0  0  0  0  0
   24.1481  -20.6978  -11.6740 C   0  0  2  0  0  0  0  0  0  0  0  0
   25.4942  -21.1912  -12.0514 N   0  0  0  0  0  0  0  0  0  0  0  0
   23.7907  -21.1350  -10.3207 C   0  0  0  0  0  0  0  0  0  0  0  0
   22.7399  -20.5229   -9.6634 O   0  0  0  0  0  0  0  0  0  0  0  0
   24.4046  -22.0462   -9.7347 O   0  0  0  0  0  0  0  0  0  0  0  0
  2  1  1  1
  3  2  1  0
  4  3  1  0
  5  4  1  0
  5  6  1  0
  7  6  1  0
  8  9  2  0
  8  2  1  0
 11 10  1  0
 11 12  1  0
 12 13  1  0
 14 13  1  1
 14 15  1  0
 15  8  1  0
 16 14  1  0
 17 16  2  0
 19 18  1  0
 19 20  1  0
 20 21  1  1
 20 22  1  0
 22 24  1  0
 22 23  1  6
 23 16  1  0
 24 25  1  0
 26 24  2  0
M  END
$$$$
