KMI.pdb
     RDKit          3D

 26 25  0  0  1  0  0  0  0  0999 V2000
   23.3647  -20.6649  -14.6341 N   0  0  0  0  0  0  0  0  0  0  0  0
   22.6845  -19.9665  -13.5891 C   0  0  1  0  0  0  0  0  0  0  0  0
   21.2257  -19.7410  -13.8691 C   0  0  0  0  0  0  0  0  0  0  0  0
   21.0945  -19.0896  -15.2213 C   0  0  0  0  0  0  0  0  0  0  0  0
   21.7525  -17.7490  -15.3006 C   0  0  0  0  0  0  0  0  0  0  0  0
   21.4803  -17.0121  -16.5731 C   0  0  0  0  0  0  0  0  0  0  0  0
   22.0374  -15.6909  -16.6079 N   0  0  0  0  0  0  0  0  0  0  0  0
   22.8830  -20.7294  -12.3172 C   0  0  0  0  0  0  0  0  0  0  0  0
   22.7139  -21.9780  -12.3710 O   0  0  0  0  0  0  0  0  0  0  0  0
   27.3623  -19.9403   -7.8530 C   0  0  0  0  0  0  0  0  0  0  0  0
   25.8891  -20.1041   -6.8144 S   0  0  0  0  0  0  0  0  0  0  0  0
   24.5740  -21.0348   -7.7275 C   0  0  0  0  0  0  0  0  0  0  0  0
   24.3544  -20.2899   -8.9850 C   0  0  0  0  0  0  0  0  0  0  0  0
   23.3551  -20.9337   -9.9037 C   0  0  2  0  0  0  0  0  0  0  0  0
   23.2407  -20.1111  -11.1069 N   0  0  0  0  0  0  0  0  0  0  0  0
   22.0361  -21.0520   -9.2371 C   0  0  0  0  0  0  0  0  0  0  0  0
   21.2983  -20.0089   -9.0755 O   0  0  0  0  0  0  0  0  0  0  0  0
   18.9992  -23.4067  -11.4558 C   0  0  0  0  0  0  0  0  0  0  0  0
   18.9840  -22.4371  -10.2836 C   0  0  0  0  0  0  0  0  0  0  0  0
   19.2924  -23.1099   -8.9931 C   0  0  2  0  0  0  0  0  0  0  0  0
   18.0906  -23.6118   -8.2420 C   0  0  0  0  0  0  0  0  0  0  0  0
   20.1429  -22.2628   -8.1012 C   0  0  2  0  0  0  0  0  0  0  0  0
   21.4791  -22.2577   -8.7433 N   0  0  0  0  0  0  0  0  0  0  0  0
   20.2165  -22.8121   -6.7436 C   0  0  0  0  0  0  0  0  0  0  0  0
   19.1528  -22.6336   -5.8789 O   0  0  0  0  0  0  0  0  0  0  0  0
   21.2117  -23.4396   -6.3355 O   0  0  0  0  0  0  0  0  0  0  0  0
  2  1  1  6
  3  2  1  0
  4  3  1  0
  5  4  1  0
  5  6  1  0
  7  6  1  0
  8  9  2  0
  8  2  1  0
 11 10  1  0
 11 12  1  0
 12 13  1  0
 14 13  1  1
 14 15  1  0
 15  8  1  0
 16 14  1  0
 17 16  2  0
 19 18  1  0
 19 20  1  0
 20 21  1  1
 20 22  1  0
 22 24  1  0
 22 23  1  6
 23 16  1  0
 24 25  1  0
 26 24  2  0
M  END
$$$$
