KMI.pdb
     RDKit          3D

 26 25  0  0  1  0  0  0  0  0999 V2000
   27.3129  -20.4753  -16.4853 N   0  0  0  0  0  0  0  0  0  0  0  0
   26.4434  -19.6489  -15.7085 C   0  0  1  0  0  0  0  0  0  0  0  0
   25.3565  -18.9969  -16.5154 C   0  0  0  0  0  0  0  0  0  0  0  0
   25.9929  -18.0303  -17.4802 C   0  0  0  0  0  0  0  0  0  0  0  0
   26.4996  -16.7851  -16.8250 C   0  0  0  0  0  0  0  0  0  0  0  0
   27.0382  -15.7701  -17.7822 C   0  0  0  0  0  0  0  0  0  0  0  0
   27.5351  -14.5831  -17.1489 N   0  0  0  0  0  0  0  0  0  0  0  0
   25.8752  -20.4841  -14.6046 C   0  0  0  0  0  0  0  0  0  0  0  0
   25.2545  -21.5282  -14.9436 O   0  0  0  0  0  0  0  0  0  0  0  0
   27.4840  -20.7812   -8.2521 C   0  0  0  0  0  0  0  0  0  0  0  0
   25.6991  -20.4820   -8.2238 S   0  0  0  0  0  0  0  0  0  0  0  0
   24.9304  -21.1052   -9.7891 C   0  0  0  0  0  0  0  0  0  0  0  0
   25.6948  -20.4799  -10.8887 C   0  0  0  0  0  0  0  0  0  0  0  0
   25.2195  -20.8752  -12.2580 C   0  0  2  0  0  0  0  0  0  0  0  0
   26.0113  -20.1460  -13.2474 N   0  0  0  0  0  0  0  0  0  0  0  0
   23.7802  -20.5592  -12.4205 C   0  0  0  0  0  0  0  0  0  0  0  0
   23.4026  -19.3409  -12.5998 O   0  0  0  0  0  0  0  0  0  0  0  0
   21.0171  -21.9838  -16.2919 C   0  0  0  0  0  0  0  0  0  0  0  0
   21.4713  -21.2423  -15.0437 C   0  0  0  0  0  0  0  0  0  0  0  0
   20.8540  -21.7921  -13.8069 C   0  0  2  0  0  0  0  0  0  0  0  0
   19.3522  -21.8585  -13.8290 C   0  0  0  0  0  0  0  0  0  0  0  0
   21.3221  -21.0832  -12.5762 C   0  0  2  0  0  0  0  0  0  0  0  0
   22.7310  -21.5114  -12.4039 N   0  0  0  0  0  0  0  0  0  0  0  0
   20.5178  -21.4456  -11.4049 C   0  0  0  0  0  0  0  0  0  0  0  0
   20.9991  -22.3864  -10.5138 O   0  0  0  0  0  0  0  0  0  0  0  0
   19.4055  -20.9328  -11.1802 O   0  0  0  0  0  0  0  0  0  0  0  0
  2  1  1  6
  3  2  1  0
  4  3  1  0
  5  4  1  0
  5  6  1  0
  7  6  1  0
  8  9  2  0
  8  2  1  0
 11 10  1  0
 11 12  1  0
 12 13  1  0
 14 13  1  1
 14 15  1  0
 15  8  1  0
 16 14  1  0
 17 16  2  0
 19 18  1  0
 19 20  1  0
 20 21  1  6
 20 22  1  0
 22 24  1  0
 22 23  1  1
 23 16  1  0
 24 25  1  0
 26 24  2  0
M  END
$$$$
