KMI.pdb
     RDKit          3D

 26 25  0  0  1  0  0  0  0  0999 V2000
   22.2418  -20.5855  -13.5547 N   0  0  0  0  0  0  0  0  0  0  0  0
   21.7307  -19.9284  -12.3930 C   0  0  1  0  0  0  0  0  0  0  0  0
   20.3368  -19.3961  -12.5696 C   0  0  0  0  0  0  0  0  0  0  0  0
   20.1198  -19.1024  -14.0313 C   0  0  0  0  0  0  0  0  0  0  0  0
   19.4998  -20.2393  -14.7793 C   0  0  0  0  0  0  0  0  0  0  0  0
   19.2554  -19.9539  -16.2268 C   0  0  0  0  0  0  0  0  0  0  0  0
   18.6622  -21.0473  -16.9407 N   0  0  0  0  0  0  0  0  0  0  0  0
   21.8056  -20.8884  -11.2476 C   0  0  0  0  0  0  0  0  0  0  0  0
   21.4564  -22.0779  -11.4793 O   0  0  0  0  0  0  0  0  0  0  0  0
   27.2407  -20.3036   -6.9385 C   0  0  0  0  0  0  0  0  0  0  0  0
   25.4569  -20.3648   -6.6385 S   0  0  0  0  0  0  0  0  0  0  0  0
   24.5854  -20.9985   -8.1447 C   0  0  0  0  0  0  0  0  0  0  0  0
   23.1486  -21.0174   -7.7992 C   0  0  0  0  0  0  0  0  0  0  0  0
   22.2659  -21.5188   -8.9067 C   0  0  2  0  0  0  0  0  0  0  0  0
   22.2401  -20.5111   -9.9656 N   0  0  0  0  0  0  0  0  0  0  0  0
   20.8934  -21.7695   -8.4051 C   0  0  0  0  0  0  0  0  0  0  0  0
   20.0617  -20.7936   -8.2839 O   0  0  0  0  0  0  0  0  0  0  0  0
   16.2554  -25.3676   -9.0767 C   0  0  0  0  0  0  0  0  0  0  0  0
   16.9098  -24.3714   -8.1316 C   0  0  0  0  0  0  0  0  0  0  0  0
   18.3117  -24.0629   -8.5221 C   0  0  2  0  0  0  0  0  0  0  0  0
   19.1642  -25.2672   -8.8105 C   0  0  0  0  0  0  0  0  0  0  0  0
   18.9930  -23.1722   -7.5326 C   0  0  2  0  0  0  0  0  0  0  0  0
   20.3812  -23.0378   -8.0353 N   0  0  0  0  0  0  0  0  0  0  0  0
   18.9778  -23.7504   -6.1851 C   0  0  0  0  0  0  0  0  0  0  0  0
   20.1646  -24.1622   -5.6081 O   0  0  0  0  0  0  0  0  0  0  0  0
   17.9251  -23.8864   -5.5339 O   0  0  0  0  0  0  0  0  0  0  0  0
  2  1  1  6
  3  2  1  0
  4  3  1  0
  5  4  1  0
  5  6  1  0
  7  6  1  0
  8  9  2  0
  8  2  1  0
 11 10  1  0
 11 12  1  0
 12 13  1  0
 14 13  1  1
 14 15  1  0
 15  8  1  0
 16 14  1  0
 17 16  2  0
 19 18  1  0
 19 20  1  0
 20 21  1  1
 20 22  1  0
 22 24  1  0
 22 23  1  6
 23 16  1  0
 24 25  1  0
 26 24  2  0
M  END
$$$$
