KMI.pdb
     RDKit          3D

 26 25  0  0  1  0  0  0  0  0999 V2000
   28.1111  -22.1586  -16.4199 N   0  0  0  0  0  0  0  0  0  0  0  0
   28.0593  -21.1136  -15.4464 C   0  0  1  0  0  0  0  0  0  0  0  0
   27.9191  -19.7427  -16.0450 C   0  0  0  0  0  0  0  0  0  0  0  0
   28.5008  -19.7670  -17.4346 C   0  0  0  0  0  0  0  0  0  0  0  0
   27.5221  -19.3734  -18.4946 C   0  0  0  0  0  0  0  0  0  0  0  0
   28.0989  -19.3430  -19.8740 C   0  0  0  0  0  0  0  0  0  0  0  0
   27.1893  -18.8589  -20.8717 N   0  0  0  0  0  0  0  0  0  0  0  0
   26.9360  -21.4138  -14.5045 C   0  0  0  0  0  0  0  0  0  0  0  0
   26.1298  -22.3193  -14.8517 O   0  0  0  0  0  0  0  0  0  0  0  0
   27.0626  -20.8396   -8.0185 C   0  0  0  0  0  0  0  0  0  0  0  0
   25.4406  -20.1631   -8.4513 S   0  0  0  0  0  0  0  0  0  0  0  0
   24.8647  -20.8840  -10.0570 C   0  0  0  0  0  0  0  0  0  0  0  0
   25.9272  -20.5792  -11.0381 C   0  0  0  0  0  0  0  0  0  0  0  0
   25.6633  -21.1348  -12.4088 C   0  0  2  0  0  0  0  0  0  0  0  0
   26.7631  -20.7358  -13.2858 N   0  0  0  0  0  0  0  0  0  0  0  0
   24.3757  -20.6247  -12.9381 C   0  0  0  0  0  0  0  0  0  0  0  0
   24.2473  -19.3776  -13.2330 O   0  0  0  0  0  0  0  0  0  0  0  0
   19.8392  -21.4566  -16.1964 C   0  0  0  0  0  0  0  0  0  0  0  0
   19.8205  -21.4935  -14.6757 C   0  0  0  0  0  0  0  0  0  0  0  0
   21.1210  -21.9397  -14.1077 C   0  0  2  0  0  0  0  0  0  0  0  0
   21.0107  -22.9568  -13.0061 C   0  0  0  0  0  0  0  0  0  0  0  0
   21.9714  -20.7910  -13.6677 C   0  0  2  0  0  0  0  0  0  0  0  0
   23.2210  -21.4130  -13.1681 N   0  0  0  0  0  0  0  0  0  0  0  0
   21.3187  -20.0080  -12.6136 C   0  0  0  0  0  0  0  0  0  0  0  0
   21.5678  -20.3108  -11.2881 O   0  0  0  0  0  0  0  0  0  0  0  0
   20.5396  -19.0709  -12.8700 O   0  0  0  0  0  0  0  0  0  0  0  0
  2  1  1  6
  3  2  1  0
  4  3  1  0
  5  4  1  0
  5  6  1  0
  7  6  1  0
  8  9  2  0
  8  2  1  0
 11 10  1  0
 11 12  1  0
 12 13  1  0
 14 13  1  1
 14 15  1  0
 15  8  1  0
 16 14  1  0
 17 16  2  0
 19 18  1  0
 19 20  1  0
 20 21  1  1
 20 22  1  0
 22 24  1  0
 22 23  1  1
 23 16  1  0
 24 25  1  0
 26 24  2  0
M  END
$$$$
