KMI.pdb
     RDKit          3D

 26 25  0  0  1  0  0  0  0  0999 V2000
   29.0314  -19.4000  -16.9621 N   0  0  0  0  0  0  0  0  0  0  0  0
   27.8339  -20.1724  -16.8524 C   0  0  1  0  0  0  0  0  0  0  0  0
   27.6870  -21.2077  -17.9312 C   0  0  0  0  0  0  0  0  0  0  0  0
   27.2174  -20.5233  -19.1887 C   0  0  0  0  0  0  0  0  0  0  0  0
   28.1602  -19.4712  -19.6791 C   0  0  0  0  0  0  0  0  0  0  0  0
   27.6812  -18.7442  -20.8951 C   0  0  0  0  0  0  0  0  0  0  0  0
   28.5494  -17.6825  -21.3147 N   0  0  0  0  0  0  0  0  0  0  0  0
   27.8084  -20.7960  -15.4924 C   0  0  0  0  0  0  0  0  0  0  0  0
   26.9026  -21.6459  -15.2737 O   0  0  0  0  0  0  0  0  0  0  0  0
   32.6159  -22.4282  -11.1025 C   0  0  0  0  0  0  0  0  0  0  0  0
   31.5523  -21.1659  -10.3599 S   0  0  0  0  0  0  0  0  0  0  0  0
   29.8274  -21.3307  -11.0133 C   0  0  0  0  0  0  0  0  0  0  0  0
   29.8947  -20.9224  -12.4321 C   0  0  0  0  0  0  0  0  0  0  0  0
   28.6006  -21.0980  -13.1750 C   0  0  2  0  0  0  0  0  0  0  0  0
   28.7359  -20.4699  -14.4883 N   0  0  0  0  0  0  0  0  0  0  0  0
   27.4817  -20.4792  -12.4244 C   0  0  0  0  0  0  0  0  0  0  0  0
   27.4486  -19.2036  -12.2496 O   0  0  0  0  0  0  0  0  0  0  0  0
   21.6230  -20.2785  -11.7819 C   0  0  0  0  0  0  0  0  0  0  0  0
   22.9460  -20.0184  -11.0775 C   0  0  0  0  0  0  0  0  0  0  0  0
   24.0903  -20.6670  -11.7725 C   0  0  2  0  0  0  0  0  0  0  0  0
   23.8857  -22.1199  -12.1006 C   0  0  0  0  0  0  0  0  0  0  0  0
   25.3796  -20.4794  -11.0382 C   0  0  2  0  0  0  0  0  0  0  0  0
   26.3910  -21.1861  -11.8601 N   0  0  0  0  0  0  0  0  0  0  0  0
   25.3180  -21.0424   -9.6856 C   0  0  0  0  0  0  0  0  0  0  0  0
   24.7864  -20.2864   -8.6576 O   0  0  0  0  0  0  0  0  0  0  0  0
   25.7312  -22.1878   -9.4249 O   0  0  0  0  0  0  0  0  0  0  0  0
  2  1  1  6
  3  2  1  0
  4  3  1  0
  5  4  1  0
  5  6  1  0
  7  6  1  0
  8  9  2  0
  8  2  1  0
 11 10  1  0
 11 12  1  0
 12 13  1  0
 14 13  1  1
 14 15  1  0
 15  8  1  0
 16 14  1  0
 17 16  2  0
 19 18  1  0
 19 20  1  0
 20 21  1  1
 20 22  1  0
 22 24  1  0
 22 23  1  6
 23 16  1  0
 24 25  1  0
 26 24  2  0
M  END
$$$$
