KMI.pdb
     RDKit          3D

 26 25  0  0  1  0  0  0  0  0999 V2000
   21.2133  -21.2093  -12.3071 N   0  0  0  0  0  0  0  0  0  0  0  0
   21.3642  -21.0773  -13.7222 C   0  0  1  0  0  0  0  0  0  0  0  0
   20.4589  -20.0424  -14.3279 C   0  0  0  0  0  0  0  0  0  0  0  0
   19.1111  -20.6707  -14.5704 C   0  0  0  0  0  0  0  0  0  0  0  0
   19.1832  -21.9527  -15.3369 C   0  0  0  0  0  0  0  0  0  0  0  0
   17.8481  -22.5184  -15.7029 C   0  0  0  0  0  0  0  0  0  0  0  0
   17.9142  -23.8247  -16.2915 N   0  0  0  0  0  0  0  0  0  0  0  0
   22.8020  -20.7772  -14.0082 C   0  0  0  0  0  0  0  0  0  0  0  0
   23.3940  -20.0102  -13.2009 O   0  0  0  0  0  0  0  0  0  0  0  0
   28.0915  -23.9385  -16.4961 C   0  0  0  0  0  0  0  0  0  0  0  0
   26.6744  -24.6890  -15.6569 S   0  0  0  0  0  0  0  0  0  0  0  0
   25.6606  -23.3757  -14.8341 C   0  0  0  0  0  0  0  0  0  0  0  0
   25.5803  -22.2636  -15.8043 C   0  0  0  0  0  0  0  0  0  0  0  0
   24.9130  -21.0323  -15.2603 C   0  0  2  0  0  0  0  0  0  0  0  0
   23.4850  -21.3099  -15.1148 N   0  0  0  0  0  0  0  0  0  0  0  0
   25.1206  -19.8820  -16.1724 C   0  0  0  0  0  0  0  0  0  0  0  0
   24.3139  -19.6844  -17.1567 O   0  0  0  0  0  0  0  0  0  0  0  0
   26.4623  -14.9206  -14.6577 C   0  0  0  0  0  0  0  0  0  0  0  0
   25.8752  -16.0516  -15.4885 C   0  0  0  0  0  0  0  0  0  0  0  0
   26.8967  -16.7060  -16.3495 C   0  0  2  0  0  0  0  0  0  0  0  0
   27.6064  -15.7806  -17.2984 C   0  0  0  0  0  0  0  0  0  0  0  0
   26.3447  -17.8821  -17.0902 C   0  0  2  0  0  0  0  0  0  0  0  0
   26.1644  -18.9306  -16.0578 N   0  0  0  0  0  0  0  0  0  0  0  0
   27.2594  -18.3356  -18.1428 C   0  0  0  0  0  0  0  0  0  0  0  0
   27.1620  -17.7911  -19.4097 O   0  0  0  0  0  0  0  0  0  0  0  0
   28.1295  -19.2022  -17.9368 O   0  0  0  0  0  0  0  0  0  0  0  0
  2  1  1  1
  3  2  1  0
  4  3  1  0
  5  4  1  0
  5  6  1  0
  7  6  1  0
  8  9  2  0
  8  2  1  0
 11 10  1  0
 11 12  1  0
 12 13  1  0
 14 13  1  6
 14 15  1  0
 15  8  1  0
 16 14  1  0
 17 16  2  0
 19 18  1  0
 19 20  1  0
 20 21  1  6
 20 22  1  0
 22 24  1  0
 22 23  1  1
 23 16  1  0
 24 25  1  0
 26 24  2  0
M  END
$$$$
