KHY.pdb
     RDKit          3D

 32 33  0  0  1  0  0  0  0  0999 V2000
    8.7927  -15.6862   18.0068 N   0  0  0  0  0  0  0  0  0  0  0  0
    8.4560  -14.3274   18.6095 C   0  0  1  0  0  0  0  0  0  0  0  0
    7.4265  -13.7577   17.7315 C   0  0  0  0  0  0  0  0  0  0  0  0
    7.3599  -14.0603   16.2999 C   0  0  0  0  0  0  0  0  0  0  0  0
    7.9413  -13.1924   15.2725 C   0  0  0  0  0  0  0  0  0  0  0  0
    7.7983  -13.5287   13.8530 C   0  0  0  0  0  0  0  0  0  0  0  0
    8.4970  -12.5436   12.9928 N   0  0  0  0  0  0  0  0  0  0  0  0
    8.0222  -14.6981   19.9801 C   0  0  0  0  0  0  0  0  0  0  0  0
    7.5544  -13.8113   20.7942 O   0  0  0  0  0  0  0  0  0  0  0  0
    8.0589  -15.9984   20.5429 N   0  0  0  0  0  0  0  0  0  0  0  0
    7.6821  -16.2526   21.9318 C   0  0  1  0  0  0  0  0  0  0  0  0
    7.4861  -17.7752   22.0040 C   0  0  0  0  0  0  0  0  0  0  0  0
    6.0695  -18.0415   21.6465 C   0  0  0  0  0  0  0  0  0  0  0  0
    5.0551  -17.1124   21.4876 C   0  0  0  0  0  0  0  0  0  0  0  0
    3.8900  -17.7367   21.1574 N   0  0  0  0  0  0  0  0  0  0  0  0
    4.1815  -19.0437   21.1122 C   0  0  0  0  0  0  0  0  0  0  0  0
    5.4742  -19.2478   21.4001 N   0  0  0  0  0  0  0  0  0  0  0  0
    8.7389  -15.9355   22.9026 C   0  0  0  0  0  0  0  0  0  0  0  0
    9.9151  -16.3023   22.5604 O   0  0  0  0  0  0  0  0  0  0  0  0
   11.2698  -15.8008   31.0935 O   0  0  0  0  0  0  0  0  0  0  0  0
   10.7788  -15.3621   29.8595 C   0  0  0  0  0  0  0  0  0  0  0  0
    9.4295  -15.1650   29.6431 C   0  0  0  0  0  0  0  0  0  0  0  0
    8.9918  -14.7247   28.3889 C   0  0  0  0  0  0  0  0  0  0  0  0
    9.8846  -14.4854   27.3693 C   0  0  0  0  0  0  0  0  0  0  0  0
    9.4033  -14.0397   26.0557 C   0  0  0  0  0  0  0  0  0  0  0  0
    9.6858  -15.0911   25.0182 C   0  0  2  0  0  0  0  0  0  0  0  0
    8.5373  -15.2777   24.1367 N   0  0  0  0  0  0  0  0  0  0  0  0
   10.0219  -16.4157   25.5698 C   0  0  0  0  0  0  0  0  0  0  0  0
   11.2129  -16.7967   25.7128 O   0  0  0  0  0  0  0  0  0  0  0  0
   11.2237  -14.6856   27.5970 C   0  0  0  0  0  0  0  0  0  0  0  0
   11.6861  -15.1257   28.8436 C   0  0  0  0  0  0  0  0  0  0  0  0
    9.0405  -17.3240   25.9653 O   0  0  0  0  0  0  0  0  0  0  0  0
  2  1  1  6
  3  2  1  0
  3  4  1  0
  5  4  1  0
  6  5  1  0
  7  6  1  0
  8  2  1  0
  8  9  2  0
 10  8  1  0
 11 18  1  0
 11 10  1  0
 12 13  1  0
 11 12  1  6
 13 17  1  0
 14 15  1  0
 14 13  2  0
 15 16  1  0
 16 17  2  0
 18 27  1  0
 19 18  2  0
 20 21  1  0
 21 31  2  0
 21 22  1  0
 22 23  2  0
 23 24  1  0
 24 25  1  0
 26 25  1  1
 26 28  1  0
 27 26  1  0
 28 29  2  0
 28 32  1  0
 30 24  2  0
 31 30  1  0
M  END
$$$$
