KHY.pdb
     RDKit          3D

 32 33  0  0  1  0  0  0  0  0999 V2000
    7.7460  -17.6091   20.4273 N   0  0  0  0  0  0  0  0  0  0  0  0
    8.3471  -16.4196   21.1667 C   0  0  1  0  0  0  0  0  0  0  0  0
    7.8019  -15.2314   20.4984 C   0  0  0  0  0  0  0  0  0  0  0  0
    8.1634  -14.8666   19.1267 C   0  0  0  0  0  0  0  0  0  0  0  0
    7.6715  -13.6542   18.4670 C   0  0  0  0  0  0  0  0  0  0  0  0
    8.0472  -13.3627   17.0804 C   0  0  0  0  0  0  0  0  0  0  0  0
    7.2373  -12.2518   16.5249 N   0  0  0  0  0  0  0  0  0  0  0  0
    7.8909  -16.6606   22.5588 C   0  0  0  0  0  0  0  0  0  0  0  0
    6.8937  -16.0078   23.0561 O   0  0  0  0  0  0  0  0  0  0  0  0
    8.4541  -17.5867   23.4719 N   0  0  0  0  0  0  0  0  0  0  0  0
    7.9749  -17.7082   24.8471 C   0  0  1  0  0  0  0  0  0  0  0  0
    8.1027  -19.2059   25.1674 C   0  0  0  0  0  0  0  0  0  0  0  0
    6.9220  -19.8746   24.5639 C   0  0  0  0  0  0  0  0  0  0  0  0
    5.8658  -19.2742   23.8994 C   0  0  0  0  0  0  0  0  0  0  0  0
    4.9713  -20.2150   23.4862 N   0  0  0  0  0  0  0  0  0  0  0  0
    5.4706  -21.3901   23.8923 C   0  0  0  0  0  0  0  0  0  0  0  0
    6.6320  -21.2108   24.5363 N   0  0  0  0  0  0  0  0  0  0  0  0
    8.8132  -17.0120   25.8331 C   0  0  0  0  0  0  0  0  0  0  0  0
   10.0645  -17.0048   25.5699 O   0  0  0  0  0  0  0  0  0  0  0  0
    6.5210  -11.2539   24.2177 O   0  0  0  0  0  0  0  0  0  0  0  0
    7.0783  -12.0347   25.2356 C   0  0  0  0  0  0  0  0  0  0  0  0
    8.3133  -12.6361   25.0963 C   0  0  0  0  0  0  0  0  0  0  0  0
    8.8246  -13.4070   26.1464 C   0  0  0  0  0  0  0  0  0  0  0  0
    8.1162  -13.5746   27.3143 C   0  0  0  0  0  0  0  0  0  0  0  0
    8.6631  -14.4009   28.3976 C   0  0  0  0  0  0  0  0  0  0  0  0
    9.2879  -15.6465   27.8320 C   0  0  2  0  0  0  0  0  0  0  0  0
    8.3357  -16.3787   27.0024 N   0  0  0  0  0  0  0  0  0  0  0  0
    9.7872  -16.5917   28.8466 C   0  0  0  0  0  0  0  0  0  0  0  0
   10.6583  -16.2632   29.6936 O   0  0  0  0  0  0  0  0  0  0  0  0
    6.8891  -12.9717   27.4403 C   0  0  0  0  0  0  0  0  0  0  0  0
    6.3563  -12.1953   26.4035 C   0  0  0  0  0  0  0  0  0  0  0  0
    9.3240  -17.9044   28.9273 O   0  0  0  0  0  0  0  0  0  0  0  0
  2  1  1  6
  3  2  1  0
  3  4  1  0
  5  4  1  0
  6  5  1  0
  7  6  1  0
  8  2  1  0
  8  9  2  0
 10  8  1  0
 11 18  1  0
 11 10  1  0
 12 13  1  0
 11 12  1  1
 13 17  1  0
 14 15  1  0
 14 13  2  0
 15 16  1  0
 16 17  2  0
 18 27  1  0
 19 18  2  0
 20 21  1  0
 21 31  2  0
 21 22  1  0
 22 23  2  0
 23 24  1  0
 24 25  1  0
 26 25  1  1
 26 28  1  0
 27 26  1  0
 28 29  2  0
 28 32  1  0
 30 24  2  0
 31 30  1  0
M  END
$$$$
