KHY.pdb
     RDKit          3D

 32 33  0  0  1  0  0  0  0  0999 V2000
    8.9393  -18.2982   19.4998 N   0  0  0  0  0  0  0  0  0  0  0  0
   10.4265  -17.9744   19.5803 C   0  0  1  0  0  0  0  0  0  0  0  0
   10.9340  -18.1380   18.2124 C   0  0  0  0  0  0  0  0  0  0  0  0
   10.5510  -19.2678   17.3624 C   0  0  0  0  0  0  0  0  0  0  0  0
   10.5580  -20.6566   17.8295 C   0  0  0  0  0  0  0  0  0  0  0  0
   10.2535  -21.7501   16.9020 C   0  0  0  0  0  0  0  0  0  0  0  0
   10.3807  -23.0702   17.5651 N   0  0  0  0  0  0  0  0  0  0  0  0
   10.4111  -16.5902   20.1167 C   0  0  0  0  0  0  0  0  0  0  0  0
   11.4858  -15.8746   20.1465 O   0  0  0  0  0  0  0  0  0  0  0  0
    9.2808  -15.9092   20.6339 N   0  0  0  0  0  0  0  0  0  0  0  0
    9.3759  -14.5615   21.1908 C   0  0  1  0  0  0  0  0  0  0  0  0
    7.9747  -13.9630   20.9893 C   0  0  0  0  0  0  0  0  0  0  0  0
    7.7161  -13.9623   19.5269 C   0  0  0  0  0  0  0  0  0  0  0  0
    7.8729  -12.9044   18.6473 C   0  0  0  0  0  0  0  0  0  0  0  0
    7.5374  -13.2869   17.3835 N   0  0  0  0  0  0  0  0  0  0  0  0
    7.1752  -14.5732   17.4802 C   0  0  0  0  0  0  0  0  0  0  0  0
    7.2742  -14.9959   18.7480 N   0  0  0  0  0  0  0  0  0  0  0  0
    9.6225  -14.5321   22.6392 C   0  0  0  0  0  0  0  0  0  0  0  0
    9.0327  -13.5884   23.2690 O   0  0  0  0  0  0  0  0  0  0  0  0
   10.0659  -15.1075   31.0931 O   0  0  0  0  0  0  0  0  0  0  0  0
    9.8770  -15.1165   29.7072 C   0  0  0  0  0  0  0  0  0  0  0  0
    9.7038  -13.9495   28.9901 C   0  0  0  0  0  0  0  0  0  0  0  0
    9.5189  -14.0154   27.6046 C   0  0  0  0  0  0  0  0  0  0  0  0
    9.5070  -15.2241   26.9466 C   0  0  0  0  0  0  0  0  0  0  0  0
    9.2950  -15.2725   25.4946 C   0  0  0  0  0  0  0  0  0  0  0  0
   10.6173  -15.2524   24.7787 C   0  0  2  0  0  0  0  0  0  0  0  0
   10.4376  -15.4468   23.3431 N   0  0  0  0  0  0  0  0  0  0  0  0
   11.5715  -16.2793   25.2337 C   0  0  0  0  0  0  0  0  0  0  0  0
   11.6076  -17.4296   24.7241 O   0  0  0  0  0  0  0  0  0  0  0  0
    9.6799  -16.3775   27.6712 C   0  0  0  0  0  0  0  0  0  0  0  0
    9.8669  -16.3373   29.0586 C   0  0  0  0  0  0  0  0  0  0  0  0
   12.4895  -16.0367   26.2548 O   0  0  0  0  0  0  0  0  0  0  0  0
  2  1  1  6
  3  2  1  0
  3  4  1  0
  5  4  1  0
  6  5  1  0
  7  6  1  0
  8  2  1  0
  8  9  2  0
 10  8  1  0
 11 18  1  0
 11 10  1  0
 12 13  1  0
 11 12  1  1
 13 17  1  0
 14 15  1  0
 14 13  2  0
 15 16  1  0
 16 17  2  0
 18 27  1  0
 19 18  2  0
 20 21  1  0
 21 31  2  0
 21 22  1  0
 22 23  2  0
 23 24  1  0
 24 25  1  0
 26 25  1  1
 26 28  1  0
 27 26  1  0
 28 29  2  0
 28 32  1  0
 30 24  2  0
 31 30  1  0
M  END
$$$$
