KHY.pdb
     RDKit          3D

 32 33  0  0  1  0  0  0  0  0999 V2000
   13.6708  -19.1788   20.4494 N   0  0  0  0  0  0  0  0  0  0  0  0
   12.2015  -19.3944   20.1059 C   0  0  1  0  0  0  0  0  0  0  0  0
   11.7989  -20.5904   20.8561 C   0  0  0  0  0  0  0  0  0  0  0  0
   12.6008  -21.1360   21.9538 C   0  0  0  0  0  0  0  0  0  0  0  0
   12.1353  -21.1692   23.3428 C   0  0  0  0  0  0  0  0  0  0  0  0
   12.9973  -21.7082   24.3987 C   0  0  0  0  0  0  0  0  0  0  0  0
   12.3585  -21.5847   25.7311 N   0  0  0  0  0  0  0  0  0  0  0  0
   11.5936  -18.1102   20.5367 C   0  0  0  0  0  0  0  0  0  0  0  0
   12.2703  -17.2482   21.2200 O   0  0  0  0  0  0  0  0  0  0  0  0
   10.2690  -17.6836   20.2684 N   0  0  0  0  0  0  0  0  0  0  0  0
    9.7576  -16.3991   20.7417 C   0  0  1  0  0  0  0  0  0  0  0  0
    8.3916  -16.2522   20.0529 C   0  0  0  0  0  0  0  0  0  0  0  0
    7.9626  -14.8441   20.2496 C   0  0  0  0  0  0  0  0  0  0  0  0
    8.6345  -13.8509   20.9423 C   0  0  0  0  0  0  0  0  0  0  0  0
    7.9277  -12.6868   20.9036 N   0  0  0  0  0  0  0  0  0  0  0  0
    6.8256  -12.9577   20.1916 C   0  0  0  0  0  0  0  0  0  0  0  0
    6.8258  -14.2369   19.7921 N   0  0  0  0  0  0  0  0  0  0  0  0
    9.4872  -16.3618   22.1857 C   0  0  0  0  0  0  0  0  0  0  0  0
    9.0198  -17.4461   22.6764 O   0  0  0  0  0  0  0  0  0  0  0  0
   10.4297  -15.5244   30.7191 O   0  0  0  0  0  0  0  0  0  0  0  0
   10.3395  -15.1847   29.3652 C   0  0  0  0  0  0  0  0  0  0  0  0
    9.5741  -14.1200   28.9329 C   0  0  0  0  0  0  0  0  0  0  0  0
    9.5190  -13.8234   27.5664 C   0  0  0  0  0  0  0  0  0  0  0  0
   10.2153  -14.5757   26.6481 C   0  0  0  0  0  0  0  0  0  0  0  0
   10.1309  -14.2580   25.2171 C   0  0  0  0  0  0  0  0  0  0  0  0
    9.5402  -15.4182   24.4645 C   0  0  2  0  0  0  0  0  0  0  0  0
    9.7052  -15.2457   23.0243 N   0  0  0  0  0  0  0  0  0  0  0  0
    8.1026  -15.6332   24.7080 C   0  0  0  0  0  0  0  0  0  0  0  0
    7.2163  -15.0339   24.0451 O   0  0  0  0  0  0  0  0  0  0  0  0
   10.9725  -15.6320   27.0907 C   0  0  0  0  0  0  0  0  0  0  0  0
   11.0436  -15.9485   28.4532 C   0  0  0  0  0  0  0  0  0  0  0  0
    7.6407  -16.5127   25.6865 O   0  0  0  0  0  0  0  0  0  0  0  0
  2  1  1  1
  3  2  1  0
  3  4  1  0
  5  4  1  0
  6  5  1  0
  7  6  1  0
  8  2  1  0
  8  9  2  0
 10  8  1  0
 11 18  1  0
 11 10  1  0
 12 13  1  0
 11 12  1  6
 13 17  1  0
 14 15  1  0
 14 13  2  0
 15 16  1  0
 16 17  2  0
 18 27  1  0
 19 18  2  0
 20 21  1  0
 21 31  2  0
 21 22  1  0
 22 23  2  0
 23 24  1  0
 24 25  1  0
 26 25  1  1
 26 28  1  0
 27 26  1  0
 28 29  2  0
 28 32  1  0
 30 24  2  0
 31 30  1  0
M  END
$$$$
