KHY.pdb
     RDKit          3D

 32 33  0  0  1  0  0  0  0  0999 V2000
    7.1307  -18.4469   18.3185 N   0  0  0  0  0  0  0  0  0  0  0  0
    8.2561  -17.4568   18.5945 C   0  0  1  0  0  0  0  0  0  0  0  0
    7.6929  -16.1350   18.2927 C   0  0  0  0  0  0  0  0  0  0  0  0
    7.7023  -15.5668   16.9427 C   0  0  0  0  0  0  0  0  0  0  0  0
    8.1341  -14.1962   16.6562 C   0  0  0  0  0  0  0  0  0  0  0  0
    8.0616  -13.6683   15.2907 C   0  0  0  0  0  0  0  0  0  0  0  0
    8.4914  -12.2502   15.2377 N   0  0  0  0  0  0  0  0  0  0  0  0
    8.5648  -17.7320   20.0204 C   0  0  0  0  0  0  0  0  0  0  0  0
    7.6216  -17.9095   20.8846 O   0  0  0  0  0  0  0  0  0  0  0  0
    9.8593  -17.8337   20.5884 N   0  0  0  0  0  0  0  0  0  0  0  0
   10.0674  -17.9210   22.0322 C   0  0  1  0  0  0  0  0  0  0  0  0
   11.0058  -19.1246   22.2129 C   0  0  0  0  0  0  0  0  0  0  0  0
   10.3257  -20.2932   21.5987 C   0  0  0  0  0  0  0  0  0  0  0  0
    9.1159  -20.3016   20.9249 C   0  0  0  0  0  0  0  0  0  0  0  0
    8.8185  -21.5626   20.5035 N   0  0  0  0  0  0  0  0  0  0  0  0
    9.8375  -22.3296   20.9137 C   0  0  0  0  0  0  0  0  0  0  0  0
   10.7466  -21.5941   21.5681 N   0  0  0  0  0  0  0  0  0  0  0  0
   10.7772  -16.7672   22.6019 C   0  0  0  0  0  0  0  0  0  0  0  0
   12.0512  -16.8134   22.5028 O   0  0  0  0  0  0  0  0  0  0  0  0
   10.9930  -15.1040   30.9297 O   0  0  0  0  0  0  0  0  0  0  0  0
   10.6073  -15.2669   29.5951 C   0  0  0  0  0  0  0  0  0  0  0  0
   10.1691  -14.2040   28.8307 C   0  0  0  0  0  0  0  0  0  0  0  0
    9.7953  -14.4225   27.5000 C   0  0  0  0  0  0  0  0  0  0  0  0
    9.8578  -15.6790   26.9423 C   0  0  0  0  0  0  0  0  0  0  0  0
    9.4454  -15.8900   25.5490 C   0  0  0  0  0  0  0  0  0  0  0  0
   10.4997  -15.3661   24.6133 C   0  0  2  0  0  0  0  0  0  0  0  0
   10.1589  -15.6597   23.2246 N   0  0  0  0  0  0  0  0  0  0  0  0
   11.8480  -15.9130   24.8481 C   0  0  0  0  0  0  0  0  0  0  0  0
   12.8633  -15.1738   24.9297 O   0  0  0  0  0  0  0  0  0  0  0  0
   10.2949  -16.7279   27.7130 C   0  0  0  0  0  0  0  0  0  0  0  0
   10.6746  -16.5343   29.0472 C   0  0  0  0  0  0  0  0  0  0  0  0
   12.0774  -17.2807   24.9935 O   0  0  0  0  0  0  0  0  0  0  0  0
  2  1  1  1
  3  2  1  0
  3  4  1  0
  5  4  1  0
  6  5  1  0
  7  6  1  0
  8  2  1  0
  8  9  2  0
 10  8  1  0
 11 18  1  0
 11 10  1  0
 12 13  1  0
 11 12  1  6
 13 17  1  0
 14 15  1  0
 14 13  2  0
 15 16  1  0
 16 17  2  0
 18 27  1  0
 19 18  2  0
 20 21  1  0
 21 31  2  0
 21 22  1  0
 22 23  2  0
 23 24  1  0
 24 25  1  0
 26 25  1  1
 26 28  1  0
 27 26  1  0
 28 29  2  0
 28 32  1  0
 30 24  2  0
 31 30  1  0
M  END
$$$$
