KHY.pdb
     RDKit          3D

 32 33  0  0  1  0  0  0  0  0999 V2000
    4.5672  -18.7576   22.4085 N   0  0  0  0  0  0  0  0  0  0  0  0
    5.9413  -19.3664   22.6623 C   0  0  1  0  0  0  0  0  0  0  0  0
    6.0205  -20.5307   21.7714 C   0  0  0  0  0  0  0  0  0  0  0  0
    4.8433  -21.3226   21.4073 C   0  0  0  0  0  0  0  0  0  0  0  0
    4.1180  -21.1417   20.1471 C   0  0  0  0  0  0  0  0  0  0  0  0
    2.9660  -21.9903   19.8287 C   0  0  0  0  0  0  0  0  0  0  0  0
    2.4239  -21.6805   18.4838 N   0  0  0  0  0  0  0  0  0  0  0  0
    6.8438  -18.2310   22.3452 C   0  0  0  0  0  0  0  0  0  0  0  0
    8.1186  -18.4041   22.2320 O   0  0  0  0  0  0  0  0  0  0  0  0
    6.4491  -16.8863   22.1341 N   0  0  0  0  0  0  0  0  0  0  0  0
    7.4229  -15.8135   21.9439 C   0  0  1  0  0  0  0  0  0  0  0  0
    6.6479  -14.7200   21.1918 C   0  0  0  0  0  0  0  0  0  0  0  0
    7.3183  -14.5474   19.8780 C   0  0  0  0  0  0  0  0  0  0  0  0
    8.4670  -15.1795   19.4323 C   0  0  0  0  0  0  0  0  0  0  0  0
    8.7760  -14.7646   18.1719 N   0  0  0  0  0  0  0  0  0  0  0  0
    7.8247  -13.8815   17.8397 C   0  0  0  0  0  0  0  0  0  0  0  0
    6.9462  -13.7369   18.8412 N   0  0  0  0  0  0  0  0  0  0  0  0
    7.8793  -15.1952   23.1966 C   0  0  0  0  0  0  0  0  0  0  0  0
    7.0697  -14.3473   23.7073 O   0  0  0  0  0  0  0  0  0  0  0  0
   10.6604  -15.8887   30.9986 O   0  0  0  0  0  0  0  0  0  0  0  0
   10.1400  -15.5013   29.7594 C   0  0  0  0  0  0  0  0  0  0  0  0
   10.1547  -14.1845   29.3449 C   0  0  0  0  0  0  0  0  0  0  0  0
    9.6209  -13.8515   28.0949 C   0  0  0  0  0  0  0  0  0  0  0  0
    9.0823  -14.8154   27.2735 C   0  0  0  0  0  0  0  0  0  0  0  0
    8.5123  -14.4427   25.9727 C   0  0  0  0  0  0  0  0  0  0  0  0
    9.5547  -14.5709   24.8963 C   0  0  2  0  0  0  0  0  0  0  0  0
    9.1066  -15.4726   23.8393 N   0  0  0  0  0  0  0  0  0  0  0  0
   10.8566  -15.0763   25.3669 C   0  0  0  0  0  0  0  0  0  0  0  0
   11.2026  -16.2764   25.2114 O   0  0  0  0  0  0  0  0  0  0  0  0
    9.0733  -16.1213   27.6973 C   0  0  0  0  0  0  0  0  0  0  0  0
    9.6017  -16.4793   28.9440 C   0  0  0  0  0  0  0  0  0  0  0  0
   11.7807  -14.2549   26.0117 O   0  0  0  0  0  0  0  0  0  0  0  0
  2  1  1  6
  3  2  1  0
  3  4  1  0
  5  4  1  0
  6  5  1  0
  7  6  1  0
  8  2  1  0
  8  9  2  0
 10  8  1  0
 11 18  1  0
 11 10  1  0
 12 13  1  0
 11 12  1  6
 13 17  1  0
 14 15  1  0
 14 13  2  0
 15 16  1  0
 16 17  2  0
 18 27  1  0
 19 18  2  0
 20 21  1  0
 21 31  2  0
 21 22  1  0
 22 23  2  0
 23 24  1  0
 24 25  1  0
 26 25  1  1
 26 28  1  0
 27 26  1  0
 28 29  2  0
 28 32  1  0
 30 24  2  0
 31 30  1  0
M  END
$$$$
