KHY.pdb
     RDKit          3D

 32 33  0  0  1  0  0  0  0  0999 V2000
    7.5585  -19.4940   19.7676 N   0  0  0  0  0  0  0  0  0  0  0  0
    6.7852  -18.5243   20.6535 C   0  0  1  0  0  0  0  0  0  0  0  0
    6.2658  -19.3385   21.7593 C   0  0  0  0  0  0  0  0  0  0  0  0
    6.6790  -20.7274   21.9735 C   0  0  0  0  0  0  0  0  0  0  0  0
    6.0788  -21.5906   22.9941 C   0  0  0  0  0  0  0  0  0  0  0  0
    6.4458  -23.0075   23.0730 C   0  0  0  0  0  0  0  0  0  0  0  0
    5.7952  -23.6690   24.2297 N   0  0  0  0  0  0  0  0  0  0  0  0
    7.8288  -17.5276   21.0023 C   0  0  0  0  0  0  0  0  0  0  0  0
    9.0740  -17.8629   21.0728 O   0  0  0  0  0  0  0  0  0  0  0  0
    7.6103  -16.1560   21.2845 N   0  0  0  0  0  0  0  0  0  0  0  0
    8.6943  -15.2678   21.6986 C   0  0  1  0  0  0  0  0  0  0  0  0
    8.1849  -13.8573   21.3620 C   0  0  0  0  0  0  0  0  0  0  0  0
    8.2061  -13.7368   19.8820 C   0  0  0  0  0  0  0  0  0  0  0  0
    8.7015  -14.6556   18.9721 C   0  0  0  0  0  0  0  0  0  0  0  0
    8.5442  -14.1930   17.7003 N   0  0  0  0  0  0  0  0  0  0  0  0
    7.9554  -12.9958   17.8223 C   0  0  0  0  0  0  0  0  0  0  0  0
    7.7447  -12.7042   19.1132 N   0  0  0  0  0  0  0  0  0  0  0  0
    8.9459  -15.2708   23.1465 C   0  0  0  0  0  0  0  0  0  0  0  0
    9.8945  -14.5049   23.5320 O   0  0  0  0  0  0  0  0  0  0  0  0
    6.3108  -10.3296   26.9276 O   0  0  0  0  0  0  0  0  0  0  0  0
    6.5800  -11.6961   26.7993 C   0  0  0  0  0  0  0  0  0  0  0  0
    5.5687  -12.6352   26.7596 C   0  0  0  0  0  0  0  0  0  0  0  0
    5.8937  -13.9901   26.6298 C   0  0  0  0  0  0  0  0  0  0  0  0
    7.2043  -14.4004   26.5413 C   0  0  0  0  0  0  0  0  0  0  0  0
    7.5246  -15.8283   26.4222 C   0  0  0  0  0  0  0  0  0  0  0  0
    8.6822  -16.0212   25.4817 C   0  0  2  0  0  0  0  0  0  0  0  0
    8.2307  -16.0377   24.0936 N   0  0  0  0  0  0  0  0  0  0  0  0
    9.4427  -17.2646   25.6994 C   0  0  0  0  0  0  0  0  0  0  0  0
    9.5322  -18.1559   24.8152 O   0  0  0  0  0  0  0  0  0  0  0  0
    8.2009  -13.4568   26.5824 C   0  0  0  0  0  0  0  0  0  0  0  0
    7.9007  -12.0949   26.7117 C   0  0  0  0  0  0  0  0  0  0  0  0
   10.1070  -17.5263   26.8972 O   0  0  0  0  0  0  0  0  0  0  0  0
  2  1  1  6
  3  2  1  0
  3  4  1  0
  5  4  1  0
  6  5  1  0
  7  6  1  0
  8  2  1  0
  8  9  2  0
 10  8  1  0
 11 18  1  0
 11 10  1  0
 12 13  1  0
 11 12  1  1
 13 17  1  0
 14 15  1  0
 14 13  2  0
 15 16  1  0
 16 17  2  0
 18 27  1  0
 19 18  2  0
 20 21  1  0
 21 31  2  0
 21 22  1  0
 22 23  2  0
 23 24  1  0
 24 25  1  0
 26 25  1  1
 26 28  1  0
 27 26  1  0
 28 29  2  0
 28 32  1  0
 30 24  2  0
 31 30  1  0
M  END
$$$$
