KHY.pdb
     RDKit          3D

 32 33  0  0  1  0  0  0  0  0999 V2000
    7.4060  -18.0558   18.6768 N   0  0  0  0  0  0  0  0  0  0  0  0
    8.8512  -17.5719   18.6947 C   0  0  1  0  0  0  0  0  0  0  0  0
    8.8031  -16.1877   18.2078 C   0  0  0  0  0  0  0  0  0  0  0  0
    8.1895  -15.1044   18.9796 C   0  0  0  0  0  0  0  0  0  0  0  0
    8.1248  -13.7209   18.5016 C   0  0  0  0  0  0  0  0  0  0  0  0
    8.6462  -12.6280   19.3277 C   0  0  0  0  0  0  0  0  0  0  0  0
    8.5227  -11.3228   18.6352 N   0  0  0  0  0  0  0  0  0  0  0  0
    9.2196  -17.7567   20.1210 C   0  0  0  0  0  0  0  0  0  0  0  0
    8.3186  -17.9808   21.0187 O   0  0  0  0  0  0  0  0  0  0  0  0
   10.5319  -17.7171   20.6548 N   0  0  0  0  0  0  0  0  0  0  0  0
   10.7983  -17.9405   22.0741 C   0  0  1  0  0  0  0  0  0  0  0  0
   12.3315  -17.9507   22.1803 C   0  0  0  0  0  0  0  0  0  0  0  0
   12.7749  -19.3257   21.8367 C   0  0  0  0  0  0  0  0  0  0  0  0
   12.1436  -20.5158   22.1572 C   0  0  0  0  0  0  0  0  0  0  0  0
   12.8513  -21.5726   21.6687 N   0  0  0  0  0  0  0  0  0  0  0  0
   13.9135  -21.0400   21.0498 C   0  0  0  0  0  0  0  0  0  0  0  0
   13.8880  -19.7031   21.1376 N   0  0  0  0  0  0  0  0  0  0  0  0
   10.3410  -16.8482   22.9445 C   0  0  0  0  0  0  0  0  0  0  0  0
   10.7639  -15.6857   22.6206 O   0  0  0  0  0  0  0  0  0  0  0  0
    5.7271  -11.2130   27.6131 O   0  0  0  0  0  0  0  0  0  0  0  0
    6.2179  -12.2486   26.8111 C   0  0  0  0  0  0  0  0  0  0  0  0
    7.1574  -12.0210   25.8253 C   0  0  0  0  0  0  0  0  0  0  0  0
    7.6149  -13.0934   25.0513 C   0  0  0  0  0  0  0  0  0  0  0  0
    7.1434  -14.3697   25.2575 C   0  0  0  0  0  0  0  0  0  0  0  0
    7.6241  -15.4783   24.4235 C   0  0  0  0  0  0  0  0  0  0  0  0
    9.0509  -15.8039   24.7696 C   0  0  2  0  0  0  0  0  0  0  0  0
    9.4984  -17.0034   24.0681 N   0  0  0  0  0  0  0  0  0  0  0  0
    9.2920  -16.0326   26.2054 C   0  0  0  0  0  0  0  0  0  0  0  0
    9.3152  -15.0883   27.0371 O   0  0  0  0  0  0  0  0  0  0  0  0
    6.2089  -14.5829   26.2407 C   0  0  0  0  0  0  0  0  0  0  0  0
    5.7358  -13.5258   27.0283 C   0  0  0  0  0  0  0  0  0  0  0  0
    9.5085  -17.3079   26.7261 O   0  0  0  0  0  0  0  0  0  0  0  0
  2  1  1  1
  3  2  1  0
  3  4  1  0
  5  4  1  0
  6  5  1  0
  7  6  1  0
  8  2  1  0
  8  9  2  0
 10  8  1  0
 11 18  1  0
 11 10  1  0
 12 13  1  0
 11 12  1  6
 13 17  1  0
 14 15  1  0
 14 13  2  0
 15 16  1  0
 16 17  2  0
 18 27  1  0
 19 18  2  0
 20 21  1  0
 21 31  2  0
 21 22  1  0
 22 23  2  0
 23 24  1  0
 24 25  1  0
 26 25  1  1
 26 28  1  0
 27 26  1  0
 28 29  2  0
 28 32  1  0
 30 24  2  0
 31 30  1  0
M  END
$$$$
