KHY.pdb
     RDKit          3D

 32 33  0  0  1  0  0  0  0  0999 V2000
    6.5710  -19.5729   19.1465 N   0  0  0  0  0  0  0  0  0  0  0  0
    6.7204  -19.5677   20.6634 C   0  0  1  0  0  0  0  0  0  0  0  0
    6.5950  -20.9726   21.0707 C   0  0  0  0  0  0  0  0  0  0  0  0
    5.8150  -21.9463   20.3031 C   0  0  0  0  0  0  0  0  0  0  0  0
    5.6338  -23.3369   20.7277 C   0  0  0  0  0  0  0  0  0  0  0  0
    4.8970  -24.2788   19.8800 C   0  0  0  0  0  0  0  0  0  0  0  0
    4.9227  -25.6483   20.4477 N   0  0  0  0  0  0  0  0  0  0  0  0
    8.0579  -18.9474   20.8383 C   0  0  0  0  0  0  0  0  0  0  0  0
    9.1060  -19.6713   21.0508 O   0  0  0  0  0  0  0  0  0  0  0  0
    8.3455  -17.5602   20.7948 N   0  0  0  0  0  0  0  0  0  0  0  0
    9.7001  -17.0435   20.9776 C   0  0  1  0  0  0  0  0  0  0  0  0
    9.8425  -15.9513   19.9058 C   0  0  0  0  0  0  0  0  0  0  0  0
    9.9845  -16.6475   18.6018 C   0  0  0  0  0  0  0  0  0  0  0  0
   11.1387  -17.1876   18.0600 C   0  0  0  0  0  0  0  0  0  0  0  0
   10.8744  -17.7462   16.8458 N   0  0  0  0  0  0  0  0  0  0  0  0
    9.5650  -17.5531   16.6375 C   0  0  0  0  0  0  0  0  0  0  0  0
    9.0152  -16.9007   17.6709 N   0  0  0  0  0  0  0  0  0  0  0  0
    9.9120  -16.3726   22.2678 C   0  0  0  0  0  0  0  0  0  0  0  0
    8.9508  -15.6213   22.6508 O   0  0  0  0  0  0  0  0  0  0  0  0
   10.2888  -14.1421   30.4142 O   0  0  0  0  0  0  0  0  0  0  0  0
   10.2098  -14.7150   29.1406 C   0  0  0  0  0  0  0  0  0  0  0  0
   10.7754  -15.9428   28.8600 C   0  0  0  0  0  0  0  0  0  0  0  0
   10.6667  -16.4704   27.5684 C   0  0  0  0  0  0  0  0  0  0  0  0
   10.0055  -15.7850   26.5749 C   0  0  0  0  0  0  0  0  0  0  0  0
    9.9170  -16.3486   25.2221 C   0  0  0  0  0  0  0  0  0  0  0  0
   11.0715  -15.8688   24.3862 C   0  0  2  0  0  0  0  0  0  0  0  0
   11.0659  -16.5052   23.0725 N   0  0  0  0  0  0  0  0  0  0  0  0
   12.3975  -16.1203   24.9782 C   0  0  0  0  0  0  0  0  0  0  0  0
   12.9657  -17.2400   24.8915 O   0  0  0  0  0  0  0  0  0  0  0  0
    9.4477  -14.5648   26.8666 C   0  0  0  0  0  0  0  0  0  0  0  0
    9.5431  -14.0160   28.1516 C   0  0  0  0  0  0  0  0  0  0  0  0
   13.0996  -15.1331   25.6687 O   0  0  0  0  0  0  0  0  0  0  0  0
  2  1  1  6
  3  2  1  0
  3  4  1  0
  5  4  1  0
  6  5  1  0
  7  6  1  0
  8  2  1  0
  8  9  2  0
 10  8  1  0
 11 18  1  0
 11 10  1  0
 12 13  1  0
 11 12  1  6
 13 17  1  0
 14 15  1  0
 14 13  2  0
 15 16  1  0
 16 17  2  0
 18 27  1  0
 19 18  2  0
 20 21  1  0
 21 31  2  0
 21 22  1  0
 22 23  2  0
 23 24  1  0
 24 25  1  0
 26 25  1  1
 26 28  1  0
 27 26  1  0
 28 29  2  0
 28 32  1  0
 30 24  2  0
 31 30  1  0
M  END
$$$$
