KHY.pdb
     RDKit          3D

 32 33  0  0  1  0  0  0  0  0999 V2000
    6.2578  -17.5750   19.2665 N   0  0  0  0  0  0  0  0  0  0  0  0
    7.6399  -17.9090   19.8155 C   0  0  1  0  0  0  0  0  0  0  0  0
    8.5439  -16.9164   19.2213 C   0  0  0  0  0  0  0  0  0  0  0  0
    8.1795  -15.5042   19.0854 C   0  0  0  0  0  0  0  0  0  0  0  0
    9.0795  -14.4988   18.5143 C   0  0  0  0  0  0  0  0  0  0  0  0
    8.6471  -13.1035   18.3922 C   0  0  0  0  0  0  0  0  0  0  0  0
    9.7053  -12.2629   17.7821 N   0  0  0  0  0  0  0  0  0  0  0  0
    7.4213  -17.8081   21.2805 C   0  0  0  0  0  0  0  0  0  0  0  0
    6.8280  -16.7840   21.7971 O   0  0  0  0  0  0  0  0  0  0  0  0
    7.8091  -18.7674   22.2491 N   0  0  0  0  0  0  0  0  0  0  0  0
    7.5899  -18.5576   23.6786 C   0  0  1  0  0  0  0  0  0  0  0  0
    7.6996  -19.9616   24.2941 C   0  0  0  0  0  0  0  0  0  0  0  0
    7.4313  -19.8137   25.7472 C   0  0  0  0  0  0  0  0  0  0  0  0
    6.9210  -18.7029   26.3977 C   0  0  0  0  0  0  0  0  0  0  0  0
    6.8144  -18.9453   27.7341 N   0  0  0  0  0  0  0  0  0  0  0  0
    7.2560  -20.1980   27.9096 C   0  0  0  0  0  0  0  0  0  0  0  0
    7.6284  -20.7341   26.7393 N   0  0  0  0  0  0  0  0  0  0  0  0
    8.6318  -17.7499   24.3281 C   0  0  0  0  0  0  0  0  0  0  0  0
    9.8293  -18.0287   23.9770 O   0  0  0  0  0  0  0  0  0  0  0  0
    4.7182  -12.5810   28.1384 O   0  0  0  0  0  0  0  0  0  0  0  0
    5.8752  -13.0437   27.5031 C   0  0  0  0  0  0  0  0  0  0  0  0
    7.1239  -12.9025   28.0750 C   0  0  0  0  0  0  0  0  0  0  0  0
    8.2490  -13.3838   27.3962 C   0  0  0  0  0  0  0  0  0  0  0  0
    8.1301  -13.9951   26.1690 C   0  0  0  0  0  0  0  0  0  0  0  0
    9.3249  -14.4784   25.4658 C   0  0  0  0  0  0  0  0  0  0  0  0
    9.5317  -15.9417   25.7445 C   0  0  2  0  0  0  0  0  0  0  0  0
    8.3952  -16.7288   25.2757 N   0  0  0  0  0  0  0  0  0  0  0  0
    9.7209  -16.2692   27.1689 C   0  0  0  0  0  0  0  0  0  0  0  0
    8.8730  -16.9341   27.8193 O   0  0  0  0  0  0  0  0  0  0  0  0
    6.8828  -14.1291   25.6108 C   0  0  0  0  0  0  0  0  0  0  0  0
    5.7419  -13.6556   26.2707 C   0  0  0  0  0  0  0  0  0  0  0  0
   10.8496  -15.8616   27.8789 O   0  0  0  0  0  0  0  0  0  0  0  0
  2  1  1  6
  3  2  1  0
  3  4  1  0
  5  4  1  0
  6  5  1  0
  7  6  1  0
  8  2  1  0
  8  9  2  0
 10  8  1  0
 11 18  1  0
 11 10  1  0
 12 13  1  0
 11 12  1  1
 13 17  1  0
 14 15  1  0
 14 13  2  0
 15 16  1  0
 16 17  2  0
 18 27  1  0
 19 18  2  0
 20 21  1  0
 21 31  2  0
 21 22  1  0
 22 23  2  0
 23 24  1  0
 24 25  1  0
 26 25  1  1
 26 28  1  0
 27 26  1  0
 28 29  2  0
 28 32  1  0
 30 24  2  0
 31 30  1  0
M  END
$$$$
