KHY.pdb
     RDKit          3D

 32 33  0  0  1  0  0  0  0  0999 V2000
   10.5026  -14.9268   17.6726 N   0  0  0  0  0  0  0  0  0  0  0  0
    9.4526  -14.4474   18.6680 C   0  0  1  0  0  0  0  0  0  0  0  0
    8.1700  -14.5566   17.9621 C   0  0  0  0  0  0  0  0  0  0  0  0
    8.0082  -14.1600   16.5613 C   0  0  0  0  0  0  0  0  0  0  0  0
    7.0033  -13.1906   16.1171 C   0  0  0  0  0  0  0  0  0  0  0  0
    6.8781  -12.8541   14.6959 C   0  0  0  0  0  0  0  0  0  0  0  0
    6.4924  -14.0398   13.8934 N   0  0  0  0  0  0  0  0  0  0  0  0
    9.6603  -15.3781   19.8059 C   0  0  0  0  0  0  0  0  0  0  0  0
    8.8526  -15.3900   20.8136 O   0  0  0  0  0  0  0  0  0  0  0  0
   10.7090  -16.3236   19.9287 N   0  0  0  0  0  0  0  0  0  0  0  0
   10.7758  -17.2664   21.0432 C   0  0  1  0  0  0  0  0  0  0  0  0
   12.0452  -18.0899   20.7740 C   0  0  0  0  0  0  0  0  0  0  0  0
   11.6562  -19.1858   19.8503 C   0  0  0  0  0  0  0  0  0  0  0  0
   10.3755  -19.6293   19.5664 C   0  0  0  0  0  0  0  0  0  0  0  0
   10.4181  -20.6536   18.6691 N   0  0  0  0  0  0  0  0  0  0  0  0
   11.7168  -20.8427   18.3994 C   0  0  0  0  0  0  0  0  0  0  0  0
   12.4721  -19.9792   19.0920 N   0  0  0  0  0  0  0  0  0  0  0  0
   10.9790  -16.6281   22.3513 C   0  0  0  0  0  0  0  0  0  0  0  0
   12.1384  -16.1194   22.5303 O   0  0  0  0  0  0  0  0  0  0  0  0
   10.8129  -14.4475   30.8038 O   0  0  0  0  0  0  0  0  0  0  0  0
   10.4203  -14.7266   29.4907 C   0  0  0  0  0  0  0  0  0  0  0  0
   10.1354  -13.7212   28.5884 C   0  0  0  0  0  0  0  0  0  0  0  0
    9.7471  -14.0561   27.2863 C   0  0  0  0  0  0  0  0  0  0  0  0
    9.6449  -15.3706   26.8919 C   0  0  0  0  0  0  0  0  0  0  0  0
    9.2198  -15.7009   25.5260 C   0  0  0  0  0  0  0  0  0  0  0  0
   10.4173  -16.0298   24.6777 C   0  0  2  0  0  0  0  0  0  0  0  0
   10.0090  -16.5485   23.3757 N   0  0  0  0  0  0  0  0  0  0  0  0
   11.3271  -17.0268   25.2697 C   0  0  0  0  0  0  0  0  0  0  0  0
   12.4297  -16.7026   25.7828 O   0  0  0  0  0  0  0  0  0  0  0  0
    9.9306  -16.3612   27.7987 C   0  0  0  0  0  0  0  0  0  0  0  0
   10.3214  -16.0511   29.1074 C   0  0  0  0  0  0  0  0  0  0  0  0
   11.0197  -18.3866   25.2956 O   0  0  0  0  0  0  0  0  0  0  0  0
  2  1  1  6
  3  2  1  0
  3  4  1  0
  5  4  1  0
  6  5  1  0
  7  6  1  0
  8  2  1  0
  8  9  2  0
 10  8  1  0
 11 18  1  0
 11 10  1  0
 12 13  1  0
 11 12  1  6
 13 17  1  0
 14 15  1  0
 14 13  2  0
 15 16  1  0
 16 17  2  0
 18 27  1  0
 19 18  2  0
 20 21  1  0
 21 31  2  0
 21 22  1  0
 22 23  2  0
 23 24  1  0
 24 25  1  0
 26 25  1  1
 26 28  1  0
 27 26  1  0
 28 29  2  0
 28 32  1  0
 30 24  2  0
 31 30  1  0
M  END
$$$$
