KHY.pdb
     RDKit          3D

 32 33  0  0  1  0  0  0  0  0999 V2000
    7.5175  -19.4425   20.0814 N   0  0  0  0  0  0  0  0  0  0  0  0
    6.7510  -18.4559   20.9545 C   0  0  1  0  0  0  0  0  0  0  0  0
    6.2863  -19.2374   22.1072 C   0  0  0  0  0  0  0  0  0  0  0  0
    7.1346  -20.2232   22.7812 C   0  0  0  0  0  0  0  0  0  0  0  0
    6.6726  -21.0354   23.9099 C   0  0  0  0  0  0  0  0  0  0  0  0
    7.5829  -21.9818   24.5613 C   0  0  0  0  0  0  0  0  0  0  0  0
    6.9278  -22.6577   25.7070 N   0  0  0  0  0  0  0  0  0  0  0  0
    7.7822  -17.4240   21.2301 C   0  0  0  0  0  0  0  0  0  0  0  0
    9.0315  -17.7379   21.3233 O   0  0  0  0  0  0  0  0  0  0  0  0
    7.5467  -16.0385   21.4136 N   0  0  0  0  0  0  0  0  0  0  0  0
    8.6356  -15.0907   21.6408 C   0  0  1  0  0  0  0  0  0  0  0  0
    8.0791  -13.7429   21.1554 C   0  0  0  0  0  0  0  0  0  0  0  0
    8.1034  -13.7796   19.6710 C   0  0  0  0  0  0  0  0  0  0  0  0
    8.5583  -14.8091   18.8643 C   0  0  0  0  0  0  0  0  0  0  0  0
    8.4191  -14.4767   17.5504 N   0  0  0  0  0  0  0  0  0  0  0  0
    7.8816  -13.2494   17.5440 C   0  0  0  0  0  0  0  0  0  0  0  0
    7.6851  -12.8151   18.7964 N   0  0  0  0  0  0  0  0  0  0  0  0
    8.9731  -14.9008   23.0584 C   0  0  0  0  0  0  0  0  0  0  0  0
    8.5175  -13.8276   23.5835 O   0  0  0  0  0  0  0  0  0  0  0  0
    5.8023  -10.9486   26.9381 O   0  0  0  0  0  0  0  0  0  0  0  0
    6.3630  -12.1880   26.6126 C   0  0  0  0  0  0  0  0  0  0  0  0
    5.6928  -13.1047   25.8272 C   0  0  0  0  0  0  0  0  0  0  0  0
    6.3001  -14.3303   25.5315 C   0  0  0  0  0  0  0  0  0  0  0  0
    7.5534  -14.6355   26.0108 C   0  0  0  0  0  0  0  0  0  0  0  0
    8.1661  -15.9337   25.7027 C   0  0  0  0  0  0  0  0  0  0  0  0
    9.5998  -15.7434   25.2907 C   0  0  2  0  0  0  0  0  0  0  0  0
    9.7380  -15.7969   23.8384 N   0  0  0  0  0  0  0  0  0  0  0  0
   10.5305  -16.7419   25.8464 C   0  0  0  0  0  0  0  0  0  0  0  0
   10.6828  -16.8951   27.0863 O   0  0  0  0  0  0  0  0  0  0  0  0
    8.2093  -13.7156   26.7912 C   0  0  0  0  0  0  0  0  0  0  0  0
    7.6224  -12.4822   27.1007 C   0  0  0  0  0  0  0  0  0  0  0  0
   11.2963  -17.5747   25.0314 O   0  0  0  0  0  0  0  0  0  0  0  0
  2  1  1  6
  3  2  1  0
  3  4  1  0
  5  4  1  0
  6  5  1  0
  7  6  1  0
  8  2  1  0
  8  9  2  0
 10  8  1  0
 11 18  1  0
 11 10  1  0
 12 13  1  0
 11 12  1  1
 13 17  1  0
 14 15  1  0
 14 13  2  0
 15 16  1  0
 16 17  2  0
 18 27  1  0
 19 18  2  0
 20 21  1  0
 21 31  2  0
 21 22  1  0
 22 23  2  0
 23 24  1  0
 24 25  1  0
 26 25  1  6
 26 28  1  0
 27 26  1  0
 28 29  2  0
 28 32  1  0
 30 24  2  0
 31 30  1  0
M  END
$$$$
