KHY.pdb
     RDKit          3D

 32 33  0  0  1  0  0  0  0  0999 V2000
   10.4577  -18.7453   18.8329 N   0  0  0  0  0  0  0  0  0  0  0  0
   11.7494  -18.0437   19.2362 C   0  0  1  0  0  0  0  0  0  0  0  0
   12.3390  -17.5639   17.9802 C   0  0  0  0  0  0  0  0  0  0  0  0
   12.1898  -18.2877   16.7156 C   0  0  0  0  0  0  0  0  0  0  0  0
   11.3505  -17.8072   15.6148 C   0  0  0  0  0  0  0  0  0  0  0  0
   11.3986  -18.4662   14.3063 C   0  0  0  0  0  0  0  0  0  0  0  0
   10.5759  -17.7418   13.3077 N   0  0  0  0  0  0  0  0  0  0  0  0
   11.2544  -17.0030   20.1722 C   0  0  0  0  0  0  0  0  0  0  0  0
   12.0320  -16.0626   20.5953 O   0  0  0  0  0  0  0  0  0  0  0  0
    9.9396  -16.9072   20.6925 N   0  0  0  0  0  0  0  0  0  0  0  0
    9.5087  -15.7719   21.5056 C   0  0  1  0  0  0  0  0  0  0  0  0
    8.0028  -15.6481   21.2249 C   0  0  0  0  0  0  0  0  0  0  0  0
    7.8653  -14.8925   19.9538 C   0  0  0  0  0  0  0  0  0  0  0  0
    7.5191  -15.3962   18.7113 C   0  0  0  0  0  0  0  0  0  0  0  0
    7.4947  -14.3963   17.7861 N   0  0  0  0  0  0  0  0  0  0  0  0
    7.8238  -13.2811   18.4518 C   0  0  0  0  0  0  0  0  0  0  0  0
    8.0486  -13.5535   19.7445 N   0  0  0  0  0  0  0  0  0  0  0  0
    9.6322  -15.9956   22.9528 C   0  0  0  0  0  0  0  0  0  0  0  0
    9.5689  -17.2194   23.3181 O   0  0  0  0  0  0  0  0  0  0  0  0
   10.5769  -15.8481   31.5870 O   0  0  0  0  0  0  0  0  0  0  0  0
   10.4968  -15.4156   30.2592 C   0  0  0  0  0  0  0  0  0  0  0  0
    9.8213  -14.2632   29.9101 C   0  0  0  0  0  0  0  0  0  0  0  0
    9.7722  -13.8757   28.5663 C   0  0  0  0  0  0  0  0  0  0  0  0
   10.3862  -14.6248   27.5887 C   0  0  0  0  0  0  0  0  0  0  0  0
   10.3089  -14.2096   26.1825 C   0  0  0  0  0  0  0  0  0  0  0  0
    9.8719  -15.3660   25.3260 C   0  0  2  0  0  0  0  0  0  0  0  0
    9.8091  -14.9803   23.9194 N   0  0  0  0  0  0  0  0  0  0  0  0
    8.5520  -15.9193   25.6776 C   0  0  0  0  0  0  0  0  0  0  0  0
    8.4254  -16.9026   26.4529 O   0  0  0  0  0  0  0  0  0  0  0  0
   11.0545  -15.7689   27.9487 C   0  0  0  0  0  0  0  0  0  0  0  0
   11.1177  -16.1772   29.2869 C   0  0  0  0  0  0  0  0  0  0  0  0
    7.3669  -15.3860   25.1721 O   0  0  0  0  0  0  0  0  0  0  0  0
  2  1  1  6
  3  2  1  0
  3  4  1  0
  5  4  1  0
  6  5  1  0
  7  6  1  0
  8  2  1  0
  8  9  2  0
 10  8  1  0
 11 18  1  0
 11 10  1  0
 12 13  1  0
 11 12  1  1
 13 17  1  0
 14 15  1  0
 14 13  2  0
 15 16  1  0
 16 17  2  0
 18 27  1  0
 19 18  2  0
 20 21  1  0
 21 31  2  0
 21 22  1  0
 22 23  2  0
 23 24  1  0
 24 25  1  0
 26 25  1  1
 26 28  1  0
 27 26  1  0
 28 29  2  0
 28 32  1  0
 30 24  2  0
 31 30  1  0
M  END
$$$$
