ITQ.pdb
     RDKit          3D

 25 24  0  0  1  0  0  0  0  0999 V2000
    7.6747  -12.0608   19.6195 C   0  0  0  0  0  0  0  0  0  0  0  0
    7.8935  -13.3512   20.3582 C   0  0  0  0  0  0  0  0  0  0  0  0
    8.7090  -14.3428   19.5996 C   0  0  2  0  0  0  0  0  0  0  0  0
    8.1247  -14.5354   18.2344 C   0  0  0  0  0  0  0  0  0  0  0  0
    8.8511  -15.6273   20.3770 C   0  0  2  0  0  0  0  0  0  0  0  0
    7.5709  -16.3087   20.3149 N   0  0  0  0  0  0  0  0  0  0  0  0
    9.3242  -15.4302   21.7469 C   0  0  0  0  0  0  0  0  0  0  0  0
   10.3567  -14.7758   21.9922 O   0  0  0  0  0  0  0  0  0  0  0  0
    7.9558  -15.2645   26.4496 C   0  0  0  0  0  0  0  0  0  0  0  0
    7.7457  -15.4399   24.9606 C   0  0  1  0  0  0  0  0  0  0  0  0
    7.2732  -14.1945   24.5087 O   0  0  0  0  0  0  0  0  0  0  0  0
    9.0452  -15.7913   24.2286 C   0  0  2  0  0  0  0  0  0  0  0  0
    8.6101  -15.9851   22.8312 N   0  0  0  0  0  0  0  0  0  0  0  0
    9.4948  -17.1101   24.7131 C   0  0  0  0  0  0  0  0  0  0  0  0
    8.7987  -18.1251   24.4161 O   0  0  0  0  0  0  0  0  0  0  0  0
   14.6918  -19.9689   24.4050 N   0  0  0  0  0  0  0  0  0  0  0  0
   13.8385  -19.3314   23.4803 C   0  0  0  0  0  0  0  0  0  0  0  0
   14.1897  -19.1723   22.3011 O   0  0  0  0  0  0  0  0  0  0  0  0
   12.5136  -18.8503   23.9282 C   0  0  0  0  0  0  0  0  0  0  0  0
   12.2974  -19.1235   25.3906 C   0  0  0  0  0  0  0  0  0  0  0  0
   10.9610  -18.7112   25.8966 C   0  0  2  0  0  0  0  0  0  0  0  0
   10.6447  -17.3338   25.4828 N   0  0  0  0  0  0  0  0  0  0  0  0
   10.8138  -18.7919   27.3635 C   0  0  0  0  0  0  0  0  0  0  0  0
   10.8262  -17.7406   28.0712 O   0  0  0  0  0  0  0  0  0  0  0  0
   10.6525  -19.9689   28.0852 O   0  0  0  0  0  0  0  0  0  0  0  0
  2  1  1  0
  3  5  1  0
  3  2  1  0
  3  4  1  6
  5  7  1  0
  5  6  1  1
  7  8  2  0
 10 12  1  0
 10  9  1  1
 11 10  1  0
 12 14  1  0
 13  7  1  0
 12 13  1  6
 14 22  1  0
 15 14  2  0
 17 19  1  0
 17 16  1  0
 18 17  2  0
 19 20  1  0
 21 20  1  1
 21 23  1  0
 22 21  1  0
 23 25  1  0
 24 23  2  0
M  END
$$$$
