ITQ.pdb
     RDKit          3D

 25 24  0  0  1  0  0  0  0  0999 V2000
    6.5095  -11.5512   27.3993 C   0  0  0  0  0  0  0  0  0  0  0  0
    5.9591  -12.7241   26.6378 C   0  0  0  0  0  0  0  0  0  0  0  0
    7.0103  -13.5717   26.0049 C   0  0  2  0  0  0  0  0  0  0  0  0
    7.9110  -12.7157   25.1692 C   0  0  0  0  0  0  0  0  0  0  0  0
    6.3897  -14.7137   25.2397 C   0  0  2  0  0  0  0  0  0  0  0  0
    5.5703  -15.4609   26.1763 N   0  0  0  0  0  0  0  0  0  0  0  0
    7.3685  -15.5511   24.5470 C   0  0  0  0  0  0  0  0  0  0  0  0
    7.9878  -16.4563   25.1399 O   0  0  0  0  0  0  0  0  0  0  0  0
    9.3445  -16.4617   20.0330 C   0  0  0  0  0  0  0  0  0  0  0  0
    8.4539  -15.6958   20.9882 C   0  0  1  0  0  0  0  0  0  0  0  0
    7.1459  -15.9023   20.5138 O   0  0  0  0  0  0  0  0  0  0  0  0
    8.5652  -16.2129   22.4263 C   0  0  2  0  0  0  0  0  0  0  0  0
    7.6334  -15.3466   23.1753 N   0  0  0  0  0  0  0  0  0  0  0  0
    9.9189  -15.8943   22.9180 C   0  0  0  0  0  0  0  0  0  0  0  0
   10.0997  -14.7801   23.4916 O   0  0  0  0  0  0  0  0  0  0  0  0
   10.1381  -19.0812   27.0464 N   0  0  0  0  0  0  0  0  0  0  0  0
   11.4129  -18.5492   27.3320 C   0  0  0  0  0  0  0  0  0  0  0  0
   11.9401  -18.7306   28.4402 O   0  0  0  0  0  0  0  0  0  0  0  0
   12.1218  -17.7684   26.2951 C   0  0  0  0  0  0  0  0  0  0  0  0
   11.2415  -17.5142   25.1033 C   0  0  0  0  0  0  0  0  0  0  0  0
   11.9384  -16.8726   23.9566 C   0  0  2  0  0  0  0  0  0  0  0  0
   11.0342  -16.7355   22.8025 N   0  0  0  0  0  0  0  0  0  0  0  0
   13.1501  -17.5849   23.5047 C   0  0  0  0  0  0  0  0  0  0  0  0
   14.1745  -17.6496   24.2482 O   0  0  0  0  0  0  0  0  0  0  0  0
   13.2871  -18.2281   22.2801 O   0  0  0  0  0  0  0  0  0  0  0  0
  2  1  1  0
  3  5  1  0
  3  2  1  0
  3  4  1  6
  5  7  1  0
  5  6  1  1
  7  8  2  0
 10 12  1  0
 10  9  1  6
 11 10  1  0
 12 14  1  0
 13  7  1  0
 12 13  1  1
 14 22  1  0
 15 14  2  0
 17 19  1  0
 17 16  1  0
 18 17  2  0
 19 20  1  0
 21 20  1  1
 21 23  1  0
 22 21  1  0
 23 25  1  0
 24 23  2  0
M  END
$$$$
