ITQ.pdb
     RDKit          3D

 25 24  0  0  1  0  0  0  0  0999 V2000
    6.0904  -11.1218   26.7173 C   0  0  0  0  0  0  0  0  0  0  0  0
    5.7435  -12.3614   25.9418 C   0  0  0  0  0  0  0  0  0  0  0  0
    6.8784  -13.3197   25.8084 C   0  0  2  0  0  0  0  0  0  0  0  0
    8.0647  -12.6163   25.2250 C   0  0  0  0  0  0  0  0  0  0  0  0
    6.4610  -14.5398   25.0263 C   0  0  2  0  0  0  0  0  0  0  0  0
    5.2538  -15.0537   25.6475 N   0  0  0  0  0  0  0  0  0  0  0  0
    7.5148  -15.5476   24.9123 C   0  0  0  0  0  0  0  0  0  0  0  0
    7.7874  -16.3154   25.8560 O   0  0  0  0  0  0  0  0  0  0  0  0
    8.2655  -16.6685   21.1763 C   0  0  0  0  0  0  0  0  0  0  0  0
    9.5282  -16.6947   22.0110 C   0  0  1  0  0  0  0  0  0  0  0  0
   10.1885  -15.4889   21.7133 O   0  0  0  0  0  0  0  0  0  0  0  0
    9.2300  -16.7587   23.5126 C   0  0  2  0  0  0  0  0  0  0  0  0
    8.2527  -15.6707   23.7148 N   0  0  0  0  0  0  0  0  0  0  0  0
   10.4535  -16.3609   24.2341 C   0  0  0  0  0  0  0  0  0  0  0  0
   10.5867  -15.1447   24.5598 O   0  0  0  0  0  0  0  0  0  0  0  0
   10.8478  -15.0656   28.2625 N   0  0  0  0  0  0  0  0  0  0  0  0
   11.1461  -16.2341   28.9942 C   0  0  0  0  0  0  0  0  0  0  0  0
   11.5400  -16.1618   30.1684 O   0  0  0  0  0  0  0  0  0  0  0  0
   10.9852  -17.5549   28.3485 C   0  0  0  0  0  0  0  0  0  0  0  0
   10.6753  -17.4147   26.8842 C   0  0  0  0  0  0  0  0  0  0  0  0
   11.8772  -17.3214   26.0130 C   0  0  2  0  0  0  0  0  0  0  0  0
   11.4921  -17.2305   24.5947 N   0  0  0  0  0  0  0  0  0  0  0  0
   12.8229  -18.4460   26.1577 C   0  0  0  0  0  0  0  0  0  0  0  0
   12.5932  -19.5577   25.5939 O   0  0  0  0  0  0  0  0  0  0  0  0
   14.0047  -18.4053   26.8883 O   0  0  0  0  0  0  0  0  0  0  0  0
  2  1  1  0
  3  5  1  0
  3  2  1  0
  3  4  1  6
  5  7  1  0
  5  6  1  1
  7  8  2  0
 10 12  1  0
 10  9  1  6
 11 10  1  0
 12 14  1  0
 13  7  1  0
 12 13  1  6
 14 22  1  0
 15 14  2  0
 17 19  1  0
 17 16  1  0
 18 17  2  0
 19 20  1  0
 21 20  1  1
 21 23  1  0
 22 21  1  0
 23 25  1  0
 24 23  2  0
M  END
$$$$
