ITQ.pdb
     RDKit          3D

 25 24  0  0  1  0  0  0  0  0999 V2000
   12.6582  -14.1470   18.1598 C   0  0  0  0  0  0  0  0  0  0  0  0
   11.2729  -13.7484   18.5848 C   0  0  0  0  0  0  0  0  0  0  0  0
   10.1947  -14.5385   17.9237 C   0  0  2  0  0  0  0  0  0  0  0  0
   10.3913  -14.5141   16.4394 C   0  0  0  0  0  0  0  0  0  0  0  0
    8.8332  -14.0544   18.3557 C   0  0  2  0  0  0  0  0  0  0  0  0
    8.6967  -12.6874   17.8868 N   0  0  0  0  0  0  0  0  0  0  0  0
    8.5958  -14.1888   19.7926 C   0  0  0  0  0  0  0  0  0  0  0  0
    8.7590  -13.2302   20.5728 O   0  0  0  0  0  0  0  0  0  0  0  0
    6.4601  -16.9642   23.2781 C   0  0  0  0  0  0  0  0  0  0  0  0
    6.7152  -16.4601   21.8735 C   0  0  1  0  0  0  0  0  0  0  0  0
    5.6016  -15.6582   21.5649 O   0  0  0  0  0  0  0  0  0  0  0  0
    7.9932  -15.6196   21.7818 C   0  0  2  0  0  0  0  0  0  0  0  0
    8.1715  -15.4240   20.3294 N   0  0  0  0  0  0  0  0  0  0  0  0
    9.1197  -16.4589   22.2319 C   0  0  0  0  0  0  0  0  0  0  0  0
    9.5856  -17.3166   21.4256 O   0  0  0  0  0  0  0  0  0  0  0  0
   14.1150  -16.7125   21.2738 N   0  0  0  0  0  0  0  0  0  0  0  0
   13.5313  -15.5512   21.8218 C   0  0  0  0  0  0  0  0  0  0  0  0
   13.9641  -14.4264   21.5273 O   0  0  0  0  0  0  0  0  0  0  0  0
   12.3923  -15.6836   22.7558 C   0  0  0  0  0  0  0  0  0  0  0  0
   11.9736  -17.1193   22.9091 C   0  0  0  0  0  0  0  0  0  0  0  0
   10.8116  -17.3219   23.8151 C   0  0  2  0  0  0  0  0  0  0  0  0
    9.7249  -16.3816   23.4939 N   0  0  0  0  0  0  0  0  0  0  0  0
   11.1270  -17.1814   25.2506 C   0  0  0  0  0  0  0  0  0  0  0  0
   10.5163  -16.3305   25.9643 O   0  0  0  0  0  0  0  0  0  0  0  0
   12.0767  -17.9304   25.9356 O   0  0  0  0  0  0  0  0  0  0  0  0
  2  1  1  0
  3  5  1  0
  3  2  1  0
  3  4  1  6
  5  7  1  0
  5  6  1  1
  7  8  2  0
 10 12  1  0
 10  9  1  1
 11 10  1  0
 12 14  1  0
 13  7  1  0
 12 13  1  6
 14 22  1  0
 15 14  2  0
 17 19  1  0
 17 16  1  0
 18 17  2  0
 19 20  1  0
 21 20  1  6
 21 23  1  0
 22 21  1  0
 23 25  1  0
 24 23  2  0
M  END
$$$$
