ITQ.pdb
     RDKit          3D

 25 24  0  0  1  0  0  0  0  0999 V2000
    7.6078  -11.7996   18.9732 C   0  0  0  0  0  0  0  0  0  0  0  0
    8.2374  -13.1641   18.9890 C   0  0  0  0  0  0  0  0  0  0  0  0
    7.9012  -13.9631   20.2025 C   0  0  2  0  0  0  0  0  0  0  0  0
    8.2752  -13.1931   21.4312 C   0  0  0  0  0  0  0  0  0  0  0  0
    8.5340  -15.3305   20.1368 C   0  0  2  0  0  0  0  0  0  0  0  0
    8.0458  -15.9701   18.9285 N   0  0  0  0  0  0  0  0  0  0  0  0
    8.3084  -16.1354   21.3369 C   0  0  0  0  0  0  0  0  0  0  0  0
    7.1819  -16.5927   21.6129 O   0  0  0  0  0  0  0  0  0  0  0  0
    9.7107  -19.2788   22.1972 C   0  0  0  0  0  0  0  0  0  0  0  0
   10.1192  -18.3599   23.3290 C   0  0  1  0  0  0  0  0  0  0  0  0
   11.4059  -17.9068   22.9858 O   0  0  0  0  0  0  0  0  0  0  0  0
    9.1753  -17.1616   23.4730 C   0  0  2  0  0  0  0  0  0  0  0  0
    9.3774  -16.4129   22.2167 N   0  0  0  0  0  0  0  0  0  0  0  0
    9.6928  -16.3059   24.5574 C   0  0  0  0  0  0  0  0  0  0  0  0
   10.3074  -15.2454   24.2404 O   0  0  0  0  0  0  0  0  0  0  0  0
    7.9262  -11.9512   26.7029 N   0  0  0  0  0  0  0  0  0  0  0  0
    7.1612  -13.1248   26.5385 C   0  0  0  0  0  0  0  0  0  0  0  0
    5.9315  -13.0622   26.3865 O   0  0  0  0  0  0  0  0  0  0  0  0
    7.8386  -14.4395   26.5486 C   0  0  0  0  0  0  0  0  0  0  0  0
    9.3212  -14.2902   26.7475 C   0  0  0  0  0  0  0  0  0  0  0  0
   10.0494  -15.5788   26.8936 C   0  0  2  0  0  0  0  0  0  0  0  0
    9.5560  -16.5735   25.9265 N   0  0  0  0  0  0  0  0  0  0  0  0
    9.9684  -16.1744   28.2422 C   0  0  0  0  0  0  0  0  0  0  0  0
    9.4003  -17.2935   28.4193 O   0  0  0  0  0  0  0  0  0  0  0  0
   10.4820  -15.6009   29.3995 O   0  0  0  0  0  0  0  0  0  0  0  0
  2  1  1  0
  3  5  1  0
  3  2  1  0
  3  4  1  1
  5  7  1  0
  5  6  1  6
  7  8  2  0
 10 12  1  0
 10  9  1  6
 11 10  1  0
 12 14  1  0
 13  7  1  0
 12 13  1  6
 14 22  1  0
 15 14  2  0
 17 19  1  0
 17 16  1  0
 18 17  2  0
 19 20  1  0
 21 20  1  1
 21 23  1  0
 22 21  1  0
 23 25  1  0
 24 23  2  0
M  END
$$$$
