ITQ.pdb
     RDKit          3D

 25 24  0  0  1  0  0  0  0  0999 V2000
    7.7407  -12.0187   18.8560 C   0  0  0  0  0  0  0  0  0  0  0  0
    8.2663  -13.4203   18.9900 C   0  0  0  0  0  0  0  0  0  0  0  0
    8.0532  -14.0113   20.3425 C   0  0  2  0  0  0  0  0  0  0  0  0
    8.6965  -13.1421   21.3783 C   0  0  0  0  0  0  0  0  0  0  0  0
    8.5272  -15.4425   20.3831 C   0  0  2  0  0  0  0  0  0  0  0  0
    7.8552  -16.1464   19.3060 N   0  0  0  0  0  0  0  0  0  0  0  0
    8.3385  -16.0822   21.6848 C   0  0  0  0  0  0  0  0  0  0  0  0
    7.2047  -16.3912   22.1011 O   0  0  0  0  0  0  0  0  0  0  0  0
   10.1630  -19.1596   22.7584 C   0  0  0  0  0  0  0  0  0  0  0  0
   10.4076  -18.0916   23.8031 C   0  0  1  0  0  0  0  0  0  0  0  0
   11.6297  -17.4975   23.4395 O   0  0  0  0  0  0  0  0  0  0  0  0
    9.3043  -17.0283   23.8154 C   0  0  2  0  0  0  0  0  0  0  0  0
    9.4527  -16.3651   22.5048 N   0  0  0  0  0  0  0  0  0  0  0  0
    9.6568  -16.0225   24.8351 C   0  0  0  0  0  0  0  0  0  0  0  0
   10.3519  -15.0266   24.4773 O   0  0  0  0  0  0  0  0  0  0  0  0
    5.5849  -13.0156   26.9824 N   0  0  0  0  0  0  0  0  0  0  0  0
    6.7723  -12.2810   27.1832 C   0  0  0  0  0  0  0  0  0  0  0  0
    6.7368  -11.1452   27.6810 O   0  0  0  0  0  0  0  0  0  0  0  0
    8.0685  -12.8773   26.7939 C   0  0  0  0  0  0  0  0  0  0  0  0
    8.2520  -14.2375   27.4072 C   0  0  0  0  0  0  0  0  0  0  0  0
    9.5283  -14.9057   27.0374 C   0  0  2  0  0  0  0  0  0  0  0  0
    9.2787  -16.0792   26.1837 N   0  0  0  0  0  0  0  0  0  0  0  0
   10.3419  -15.3440   28.1888 C   0  0  0  0  0  0  0  0  0  0  0  0
   10.4384  -16.5740   28.4787 O   0  0  0  0  0  0  0  0  0  0  0  0
   11.0528  -14.4974   29.0315 O   0  0  0  0  0  0  0  0  0  0  0  0
  2  1  1  0
  3  5  1  0
  3  2  1  0
  3  4  1  1
  5  7  1  0
  5  6  1  6
  7  8  2  0
 10 12  1  0
 10  9  1  6
 11 10  1  0
 12 14  1  0
 13  7  1  0
 12 13  1  6
 14 22  1  0
 15 14  2  0
 17 19  1  0
 17 16  1  0
 18 17  2  0
 19 20  1  0
 21 20  1  1
 21 23  1  0
 22 21  1  0
 23 25  1  0
 24 23  2  0
M  END
$$$$
