ITQ.pdb
     RDKit          3D

 25 24  0  0  1  0  0  0  0  0999 V2000
    7.8293  -12.0422   21.2527 C   0  0  0  0  0  0  0  0  0  0  0  0
    7.6784  -13.3899   20.6050 C   0  0  0  0  0  0  0  0  0  0  0  0
    8.8201  -13.7580   19.7190 C   0  0  2  0  0  0  0  0  0  0  0  0
    8.9527  -12.7463   18.6229 C   0  0  0  0  0  0  0  0  0  0  0  0
    8.6736  -15.1718   19.2147 C   0  0  2  0  0  0  0  0  0  0  0  0
    7.4937  -15.2044   18.3698 N   0  0  0  0  0  0  0  0  0  0  0  0
    8.6357  -16.1704   20.2826 C   0  0  0  0  0  0  0  0  0  0  0  0
    7.5739  -16.7371   20.6080 O   0  0  0  0  0  0  0  0  0  0  0  0
   11.3494  -19.4674   22.7014 C   0  0  0  0  0  0  0  0  0  0  0  0
   11.1212  -18.3390   21.7181 C   0  0  1  0  0  0  0  0  0  0  0  0
   11.0187  -18.9637   20.4620 O   0  0  0  0  0  0  0  0  0  0  0  0
    9.8320  -17.5649   22.0123 C   0  0  2  0  0  0  0  0  0  0  0  0
    9.8176  -16.5155   20.9739 N   0  0  0  0  0  0  0  0  0  0  0  0
   10.0046  -16.8729   23.3035 C   0  0  0  0  0  0  0  0  0  0  0  0
   10.8574  -15.9395   23.3722 O   0  0  0  0  0  0  0  0  0  0  0  0
    5.7032  -13.3298   25.3197 N   0  0  0  0  0  0  0  0  0  0  0  0
    6.3403  -14.5544   25.6099 C   0  0  0  0  0  0  0  0  0  0  0  0
    5.6990  -15.6165   25.6101 O   0  0  0  0  0  0  0  0  0  0  0  0
    7.7872  -14.5646   25.9159 C   0  0  0  0  0  0  0  0  0  0  0  0
    8.2547  -15.9387   26.3071 C   0  0  0  0  0  0  0  0  0  0  0  0
    9.5364  -16.3496   25.6744 C   0  0  2  0  0  0  0  0  0  0  0  0
    9.2915  -17.1665   24.4740 N   0  0  0  0  0  0  0  0  0  0  0  0
   10.4398  -17.1059   26.5642 C   0  0  0  0  0  0  0  0  0  0  0  0
   10.9142  -16.5678   27.6091 O   0  0  0  0  0  0  0  0  0  0  0  0
   10.8428  -18.4206   26.3611 O   0  0  0  0  0  0  0  0  0  0  0  0
  2  1  1  0
  3  5  1  0
  3  2  1  0
  3  4  1  6
  5  7  1  0
  5  6  1  1
  7  8  2  0
 10 12  1  0
 10  9  1  1
 11 10  1  0
 12 14  1  0
 13  7  1  0
 12 13  1  6
 14 22  1  0
 15 14  2  0
 17 19  1  0
 17 16  1  0
 18 17  2  0
 19 20  1  0
 21 20  1  1
 21 23  1  0
 22 21  1  0
 23 25  1  0
 24 23  2  0
M  END
$$$$
