ITQ.pdb
     RDKit          3D

 25 24  0  0  1  0  0  0  0  0999 V2000
    8.8177  -13.6962   17.1965 C   0  0  0  0  0  0  0  0  0  0  0  0
    7.9709  -14.3882   18.2273 C   0  0  0  0  0  0  0  0  0  0  0  0
    8.5394  -14.3292   19.6047 C   0  0  2  0  0  0  0  0  0  0  0  0
    9.9102  -14.9320   19.6093 C   0  0  0  0  0  0  0  0  0  0  0  0
    7.6017  -14.9659   20.5997 C   0  0  2  0  0  0  0  0  0  0  0  0
    6.3224  -14.2915   20.4739 N   0  0  0  0  0  0  0  0  0  0  0  0
    8.1145  -14.9610   21.9694 C   0  0  0  0  0  0  0  0  0  0  0  0
    8.3479  -13.8961   22.5744 O   0  0  0  0  0  0  0  0  0  0  0  0
    6.6404  -15.1219   24.7704 C   0  0  0  0  0  0  0  0  0  0  0  0
    7.4956  -16.3696   24.8313 C   0  0  1  0  0  0  0  0  0  0  0  0
    6.7115  -17.3793   24.2444 O   0  0  0  0  0  0  0  0  0  0  0  0
    8.8033  -16.2156   24.0477 C   0  0  2  0  0  0  0  0  0  0  0  0
    8.3577  -16.1792   22.6406 N   0  0  0  0  0  0  0  0  0  0  0  0
    9.5768  -17.4612   24.2091 C   0  0  0  0  0  0  0  0  0  0  0  0
    9.7503  -18.1933   23.1909 O   0  0  0  0  0  0  0  0  0  0  0  0
   13.8766  -20.9603   22.8246 N   0  0  0  0  0  0  0  0  0  0  0  0
   13.9160  -19.5761   23.0927 C   0  0  0  0  0  0  0  0  0  0  0  0
   14.1904  -18.7653   22.1946 O   0  0  0  0  0  0  0  0  0  0  0  0
   13.6261  -19.0938   24.4605 C   0  0  0  0  0  0  0  0  0  0  0  0
   12.3737  -18.2629   24.4944 C   0  0  0  0  0  0  0  0  0  0  0  0
   11.2960  -18.8197   25.3549 C   0  0  2  0  0  0  0  0  0  0  0  0
   10.1438  -17.9044   25.4119 N   0  0  0  0  0  0  0  0  0  0  0  0
   11.7137  -19.1140   26.7401 C   0  0  0  0  0  0  0  0  0  0  0  0
   12.6178  -19.9714   26.9721 O   0  0  0  0  0  0  0  0  0  0  0  0
   11.1879  -18.5111   27.8769 O   0  0  0  0  0  0  0  0  0  0  0  0
  2  1  1  0
  3  5  1  0
  3  2  1  0
  3  4  1  6
  5  7  1  0
  5  6  1  1
  7  8  2  0
 10 12  1  0
 10  9  1  6
 11 10  1  0
 12 14  1  0
 13  7  1  0
 12 13  1  6
 14 22  1  0
 15 14  2  0
 17 19  1  0
 17 16  1  0
 18 17  2  0
 19 20  1  0
 21 20  1  6
 21 23  1  0
 22 21  1  0
 23 25  1  0
 24 23  2  0
M  END
$$$$
