ITQ.pdb
     RDKit          3D

 25 24  0  0  1  0  0  0  0  0999 V2000
    7.8107  -17.1114   20.2914 C   0  0  0  0  0  0  0  0  0  0  0  0
    8.1198  -15.6861   20.6541 C   0  0  0  0  0  0  0  0  0  0  0  0
    6.9055  -14.8427   20.8497 C   0  0  2  0  0  0  0  0  0  0  0  0
    6.0981  -14.8233   19.5887 C   0  0  0  0  0  0  0  0  0  0  0  0
    7.2812  -13.4674   21.3418 C   0  0  2  0  0  0  0  0  0  0  0  0
    8.0189  -12.8178   20.2736 N   0  0  0  0  0  0  0  0  0  0  0  0
    8.0105  -13.4811   22.6095 C   0  0  0  0  0  0  0  0  0  0  0  0
    9.2535  -13.3917   22.6476 O   0  0  0  0  0  0  0  0  0  0  0  0
    6.4703  -11.8632   26.0910 C   0  0  0  0  0  0  0  0  0  0  0  0
    6.9014  -13.3137   26.1389 C   0  0  1  0  0  0  0  0  0  0  0  0
    5.7482  -14.0490   25.8102 O   0  0  0  0  0  0  0  0  0  0  0  0
    8.0115  -13.6228   25.1289 C   0  0  2  0  0  0  0  0  0  0  0  0
    7.3101  -13.5975   23.8300 N   0  0  0  0  0  0  0  0  0  0  0  0
    8.4432  -15.0168   25.3438 C   0  0  0  0  0  0  0  0  0  0  0  0
    7.9588  -15.9149   24.5943 O   0  0  0  0  0  0  0  0  0  0  0  0
   12.5504  -19.5251   23.2888 N   0  0  0  0  0  0  0  0  0  0  0  0
   12.5693  -18.5095   24.2676 C   0  0  0  0  0  0  0  0  0  0  0  0
   13.5093  -17.7017   24.3227 O   0  0  0  0  0  0  0  0  0  0  0  0
   11.4541  -18.4130   25.2342 C   0  0  0  0  0  0  0  0  0  0  0  0
   10.8907  -17.0202   25.2832 C   0  0  0  0  0  0  0  0  0  0  0  0
    9.8247  -16.8294   26.3028 C   0  0  2  0  0  0  0  0  0  0  0  0
    9.3586  -15.4327   26.3204 N   0  0  0  0  0  0  0  0  0  0  0  0
   10.2239  -17.1945   27.6766 C   0  0  0  0  0  0  0  0  0  0  0  0
   10.6010  -18.3741   27.9461 O   0  0  0  0  0  0  0  0  0  0  0  0
   10.2296  -16.3269   28.7626 O   0  0  0  0  0  0  0  0  0  0  0  0
  2  1  1  0
  3  5  1  0
  3  2  1  0
  3  4  1  6
  5  7  1  0
  5  6  1  6
  7  8  2  0
 10 12  1  0
 10  9  1  6
 11 10  1  0
 12 14  1  0
 13  7  1  0
 12 13  1  6
 14 22  1  0
 15 14  2  0
 17 19  1  0
 17 16  1  0
 18 17  2  0
 19 20  1  0
 21 20  1  6
 21 23  1  0
 22 21  1  0
 23 25  1  0
 24 23  2  0
M  END
$$$$
