ITQ.pdb
     RDKit          3D

 25 24  0  0  1  0  0  0  0  0999 V2000
    6.2965  -10.6982   26.7757 C   0  0  0  0  0  0  0  0  0  0  0  0
    5.7667  -11.9512   26.1371 C   0  0  0  0  0  0  0  0  0  0  0  0
    6.8189  -12.9709   25.8591 C   0  0  2  0  0  0  0  0  0  0  0  0
    7.9243  -12.3488   25.0633 C   0  0  0  0  0  0  0  0  0  0  0  0
    6.2229  -14.1918   25.2042 C   0  0  2  0  0  0  0  0  0  0  0  0
    5.0731  -14.5849   25.9984 N   0  0  0  0  0  0  0  0  0  0  0  0
    7.1826  -15.2794   25.0164 C   0  0  0  0  0  0  0  0  0  0  0  0
    7.4378  -16.0887   25.9297 O   0  0  0  0  0  0  0  0  0  0  0  0
    7.3435  -16.9075   21.4280 C   0  0  0  0  0  0  0  0  0  0  0  0
    8.7338  -16.6881   21.9855 C   0  0  1  0  0  0  0  0  0  0  0  0
    9.1629  -15.4696   21.4291 O   0  0  0  0  0  0  0  0  0  0  0  0
    8.7359  -16.5825   23.5142 C   0  0  2  0  0  0  0  0  0  0  0  0
    7.8465  -15.4344   23.7799 N   0  0  0  0  0  0  0  0  0  0  0  0
   10.0877  -16.1706   23.9372 C   0  0  0  0  0  0  0  0  0  0  0  0
   10.3155  -14.9346   24.0903 O   0  0  0  0  0  0  0  0  0  0  0  0
   11.2875  -15.1343   28.8853 N   0  0  0  0  0  0  0  0  0  0  0  0
   10.9357  -16.4790   28.6453 C   0  0  0  0  0  0  0  0  0  0  0  0
   10.5058  -17.1939   29.5636 O   0  0  0  0  0  0  0  0  0  0  0  0
   11.0836  -17.0353   27.2830 C   0  0  0  0  0  0  0  0  0  0  0  0
   11.6727  -16.0240   26.3394 C   0  0  0  0  0  0  0  0  0  0  0  0
   12.2306  -16.6082   25.0906 C   0  0  2  0  0  0  0  0  0  0  0  0
   11.1526  -17.0468   24.1885 N   0  0  0  0  0  0  0  0  0  0  0  0
   13.1387  -17.7523   25.3063 C   0  0  0  0  0  0  0  0  0  0  0  0
   14.2275  -17.8409   24.6636 O   0  0  0  0  0  0  0  0  0  0  0  0
   12.9077  -18.7978   26.1928 O   0  0  0  0  0  0  0  0  0  0  0  0
  2  1  1  0
  3  5  1  0
  3  2  1  0
  3  4  1  6
  5  7  1  0
  5  6  1  1
  7  8  2  0
 10 12  1  0
 10  9  1  6
 11 10  1  0
 12 14  1  0
 13  7  1  0
 12 13  1  6
 14 22  1  0
 15 14  2  0
 17 19  1  0
 17 16  1  0
 18 17  2  0
 19 20  1  0
 21 20  1  1
 21 23  1  0
 22 21  1  0
 23 25  1  0
 24 23  2  0
M  END
$$$$
