ITQ.pdb
     RDKit          3D

 25 24  0  0  1  0  0  0  0  0999 V2000
    6.4647  -11.5437   26.8488 C   0  0  0  0  0  0  0  0  0  0  0  0
    5.9506  -12.7358   26.0917 C   0  0  0  0  0  0  0  0  0  0  0  0
    7.0239  -13.6749   25.6560 C   0  0  2  0  0  0  0  0  0  0  0  0
    8.1152  -12.9097   24.9735 C   0  0  0  0  0  0  0  0  0  0  0  0
    6.4535  -14.7868   24.8115 C   0  0  2  0  0  0  0  0  0  0  0  0
    5.3193  -15.3336   25.5338 N   0  0  0  0  0  0  0  0  0  0  0  0
    7.4382  -15.8042   24.4451 C   0  0  0  0  0  0  0  0  0  0  0  0
    7.6218  -16.8170   25.1486 O   0  0  0  0  0  0  0  0  0  0  0  0
    8.1427  -16.0714   20.4591 C   0  0  0  0  0  0  0  0  0  0  0  0
    9.3723  -16.2878   21.3155 C   0  0  1  0  0  0  0  0  0  0  0  0
    9.9953  -15.0287   21.3857 O   0  0  0  0  0  0  0  0  0  0  0  0
    9.0188  -16.7643   22.7283 C   0  0  2  0  0  0  0  0  0  0  0  0
    8.2093  -15.6556   23.2716 N   0  0  0  0  0  0  0  0  0  0  0  0
   10.2638  -16.7990   23.5186 C   0  0  0  0  0  0  0  0  0  0  0  0
   11.2444  -17.4561   23.0606 O   0  0  0  0  0  0  0  0  0  0  0  0
   11.2294  -15.3491   29.5960 N   0  0  0  0  0  0  0  0  0  0  0  0
   10.3969  -14.6712   28.6812 C   0  0  0  0  0  0  0  0  0  0  0  0
    9.7193  -13.6974   29.0441 O   0  0  0  0  0  0  0  0  0  0  0  0
   10.3364  -15.1316   27.2770 C   0  0  0  0  0  0  0  0  0  0  0  0
   11.1509  -16.3787   27.0738 C   0  0  0  0  0  0  0  0  0  0  0  0
   11.5008  -16.6537   25.6546 C   0  0  2  0  0  0  0  0  0  0  0  0
   10.4526  -16.1545   24.7489 N   0  0  0  0  0  0  0  0  0  0  0  0
   11.7266  -18.0803   25.3486 C   0  0  0  0  0  0  0  0  0  0  0  0
   10.7477  -18.8767   25.2300 O   0  0  0  0  0  0  0  0  0  0  0  0
   12.9723  -18.6694   25.1658 O   0  0  0  0  0  0  0  0  0  0  0  0
  2  1  1  0
  3  5  1  0
  3  2  1  0
  3  4  1  6
  5  7  1  0
  5  6  1  1
  7  8  2  0
 10 12  1  0
 10  9  1  6
 11 10  1  0
 12 14  1  0
 13  7  1  0
 12 13  1  1
 14 22  1  0
 15 14  2  0
 17 19  1  0
 17 16  1  0
 18 17  2  0
 19 20  1  0
 21 20  1  1
 21 23  1  0
 22 21  1  0
 23 25  1  0
 24 23  2  0
M  END
$$$$
