ITQ.pdb
     RDKit          3D

 25 24  0  0  1  0  0  0  0  0999 V2000
   15.2325  -16.7487   17.7362 C   0  0  0  0  0  0  0  0  0  0  0  0
   13.9213  -16.0497   17.5108 C   0  0  0  0  0  0  0  0  0  0  0  0
   13.2426  -15.6321   18.7713 C   0  0  2  0  0  0  0  0  0  0  0  0
   13.0825  -16.8171   19.6728 C   0  0  0  0  0  0  0  0  0  0  0  0
   11.9434  -14.9267   18.4727 C   0  0  2  0  0  0  0  0  0  0  0  0
   12.2513  -13.8216   17.5832 N   0  0  0  0  0  0  0  0  0  0  0  0
   11.2194  -14.5064   19.6720 C   0  0  0  0  0  0  0  0  0  0  0  0
   11.7129  -13.6961   20.4809 O   0  0  0  0  0  0  0  0  0  0  0  0
    8.1045  -12.7011   19.7380 C   0  0  0  0  0  0  0  0  0  0  0  0
    7.8616  -14.0071   20.4642 C   0  0  1  0  0  0  0  0  0  0  0  0
    7.4023  -14.8956   19.4752 O   0  0  0  0  0  0  0  0  0  0  0  0
    9.1398  -14.5640   21.1000 C   0  0  2  0  0  0  0  0  0  0  0  0
    9.9307  -15.0178   19.9389 N   0  0  0  0  0  0  0  0  0  0  0  0
    8.7768  -15.7762   21.8580 C   0  0  0  0  0  0  0  0  0  0  0  0
    8.6747  -16.8684   21.2258 O   0  0  0  0  0  0  0  0  0  0  0  0
   10.2987  -16.6680   27.8207 N   0  0  0  0  0  0  0  0  0  0  0  0
   10.3928  -16.1430   26.5148 C   0  0  0  0  0  0  0  0  0  0  0  0
   10.7363  -14.9653   26.3298 O   0  0  0  0  0  0  0  0  0  0  0  0
   10.0774  -17.0112   25.3598 C   0  0  0  0  0  0  0  0  0  0  0  0
    8.5959  -17.2281   25.2260 C   0  0  0  0  0  0  0  0  0  0  0  0
    8.0818  -17.0845   23.8377 C   0  0  2  0  0  0  0  0  0  0  0  0
    8.5350  -15.8183   23.2381 N   0  0  0  0  0  0  0  0  0  0  0  0
    6.6109  -17.1423   23.7241 C   0  0  0  0  0  0  0  0  0  0  0  0
    5.9585  -16.1464   23.2895 O   0  0  0  0  0  0  0  0  0  0  0  0
    5.8273  -18.2394   24.0626 O   0  0  0  0  0  0  0  0  0  0  0  0
  2  1  1  0
  3  5  1  0
  3  2  1  0
  3  4  1  1
  5  7  1  0
  5  6  1  6
  7  8  2  0
 10 12  1  0
 10  9  1  6
 11 10  1  0
 12 14  1  0
 13  7  1  0
 12 13  1  6
 14 22  1  0
 15 14  2  0
 17 19  1  0
 17 16  1  0
 18 17  2  0
 19 20  1  0
 21 20  1  1
 21 23  1  0
 22 21  1  0
 23 25  1  0
 24 23  2  0
M  END
$$$$
