ITQ.pdb
     RDKit          3D

 25 24  0  0  1  0  0  0  0  0999 V2000
    7.3884  -12.0283   20.6649 C   0  0  0  0  0  0  0  0  0  0  0  0
    7.2502  -13.5230   20.7374 C   0  0  0  0  0  0  0  0  0  0  0  0
    8.5373  -14.2518   20.5469 C   0  0  2  0  0  0  0  0  0  0  0  0
    9.1392  -13.8734   19.2289 C   0  0  0  0  0  0  0  0  0  0  0  0
    8.3415  -15.7381   20.7113 C   0  0  2  0  0  0  0  0  0  0  0  0
    7.3977  -16.1605   19.6924 N   0  0  0  0  0  0  0  0  0  0  0  0
    7.9325  -16.1263   22.0608 C   0  0  0  0  0  0  0  0  0  0  0  0
    6.7513  -16.0107   22.4427 O   0  0  0  0  0  0  0  0  0  0  0  0
    7.3101  -19.0509   23.3987 C   0  0  0  0  0  0  0  0  0  0  0  0
    8.4442  -18.5640   24.2754 C   0  0  1  0  0  0  0  0  0  0  0  0
    9.6133  -19.0588   23.6695 O   0  0  0  0  0  0  0  0  0  0  0  0
    8.5098  -17.0346   24.3431 C   0  0  2  0  0  0  0  0  0  0  0  0
    8.8813  -16.6461   22.9681 N   0  0  0  0  0  0  0  0  0  0  0  0
    9.6506  -16.6685   25.2036 C   0  0  0  0  0  0  0  0  0  0  0  0
   10.7889  -16.5393   24.6643 O   0  0  0  0  0  0  0  0  0  0  0  0
    9.6856  -12.4097   26.6030 N   0  0  0  0  0  0  0  0  0  0  0  0
    8.8103  -13.2451   27.3279 C   0  0  0  0  0  0  0  0  0  0  0  0
    7.5811  -13.1368   27.1994 O   0  0  0  0  0  0  0  0  0  0  0  0
    9.3707  -14.2580   28.2485 C   0  0  0  0  0  0  0  0  0  0  0  0
   10.7422  -14.6939   27.8139 C   0  0  0  0  0  0  0  0  0  0  0  0
   10.8066  -16.0926   27.3121 C   0  0  2  0  0  0  0  0  0  0  0  0
    9.5759  -16.4473   26.5857 N   0  0  0  0  0  0  0  0  0  0  0  0
   11.0247  -17.1069   28.3626 C   0  0  0  0  0  0  0  0  0  0  0  0
   12.0433  -17.0472   29.1145 O   0  0  0  0  0  0  0  0  0  0  0  0
   10.1783  -18.1778   28.6253 O   0  0  0  0  0  0  0  0  0  0  0  0
  2  1  1  0
  3  5  1  0
  3  2  1  0
  3  4  1  6
  5  7  1  0
  5  6  1  6
  7  8  2  0
 10 12  1  0
 10  9  1  6
 11 10  1  0
 12 14  1  0
 13  7  1  0
 12 13  1  6
 14 22  1  0
 15 14  2  0
 17 19  1  0
 17 16  1  0
 18 17  2  0
 19 20  1  0
 21 20  1  1
 21 23  1  0
 22 21  1  0
 23 25  1  0
 24 23  2  0
M  END
$$$$
