ITQ.pdb
     RDKit          3D

 25 24  0  0  1  0  0  0  0  0999 V2000
    6.1258  -11.1635   27.2733 C   0  0  0  0  0  0  0  0  0  0  0  0
    5.6780  -12.3532   26.4716 C   0  0  0  0  0  0  0  0  0  0  0  0
    6.7883  -13.2792   26.1059 C   0  0  2  0  0  0  0  0  0  0  0  0
    7.8905  -12.5079   25.4481 C   0  0  0  0  0  0  0  0  0  0  0  0
    6.2773  -14.4254   25.2694 C   0  0  2  0  0  0  0  0  0  0  0  0
    5.1297  -14.9823   25.9623 N   0  0  0  0  0  0  0  0  0  0  0  0
    7.2993  -15.4268   24.9665 C   0  0  0  0  0  0  0  0  0  0  0  0
    7.6315  -16.2922   25.8003 O   0  0  0  0  0  0  0  0  0  0  0  0
    7.6954  -16.5348   21.1199 C   0  0  0  0  0  0  0  0  0  0  0  0
    9.0256  -16.3306   21.8132 C   0  0  1  0  0  0  0  0  0  0  0  0
    9.4083  -15.0161   21.4905 O   0  0  0  0  0  0  0  0  0  0  0  0
    8.9149  -16.4733   23.3348 C   0  0  2  0  0  0  0  0  0  0  0  0
    7.9370  -15.4316   23.7067 N   0  0  0  0  0  0  0  0  0  0  0  0
   10.2047  -16.0646   23.9225 C   0  0  0  0  0  0  0  0  0  0  0  0
   10.4211  -14.8282   24.0882 O   0  0  0  0  0  0  0  0  0  0  0  0
   11.2794  -15.2663   29.6420 N   0  0  0  0  0  0  0  0  0  0  0  0
   11.1580  -15.9773   28.4298 C   0  0  0  0  0  0  0  0  0  0  0  0
   10.4606  -17.0012   28.3642 O   0  0  0  0  0  0  0  0  0  0  0  0
   11.8721  -15.4913   27.2293 C   0  0  0  0  0  0  0  0  0  0  0  0
   12.4203  -16.6324   26.4187 C   0  0  0  0  0  0  0  0  0  0  0  0
   12.4296  -16.3886   24.9515 C   0  0  2  0  0  0  0  0  0  0  0  0
   11.2214  -16.9443   24.3191 N   0  0  0  0  0  0  0  0  0  0  0  0
   13.6061  -16.9397   24.2500 C   0  0  0  0  0  0  0  0  0  0  0  0
   14.7765  -16.5708   24.5670 O   0  0  0  0  0  0  0  0  0  0  0  0
   13.5565  -17.8745   23.2225 O   0  0  0  0  0  0  0  0  0  0  0  0
  2  1  1  0
  3  5  1  0
  3  2  1  0
  3  4  1  6
  5  7  1  0
  5  6  1  1
  7  8  2  0
 10 12  1  0
 10  9  1  6
 11 10  1  0
 12 14  1  0
 13  7  1  0
 12 13  1  1
 14 22  1  0
 15 14  2  0
 17 19  1  0
 17 16  1  0
 18 17  2  0
 19 20  1  0
 21 20  1  1
 21 23  1  0
 22 21  1  0
 23 25  1  0
 24 23  2  0
M  END
$$$$
