LMD.pdb
     RDKit          3D

 25 24  0  0  1  0  0  0  0  0999 V2000
   15.7739  -12.0030  -18.8294 C   0  0  0  0  0  0  0  0  0  0  0  0
   16.7043  -13.1733  -18.5902 C   0  0  2  0  0  0  0  0  0  0  0  0
   15.8944  -14.3608  -18.1295 C   0  0  0  0  0  0  0  0  0  0  0  0
   17.7814  -12.8034  -17.5666 C   0  0  0  0  0  0  0  0  0  0  0  0
   18.4636  -11.5690  -18.1171 C   0  0  2  0  0  0  0  0  0  0  0  0
   19.1625  -11.9634  -19.3245 N   0  0  0  0  0  0  0  0  0  0  0  0
   19.4147  -10.9626  -17.1730 C   0  0  0  0  0  0  0  0  0  0  0  0
   19.0149  -10.6486  -16.0248 O   0  0  0  0  0  0  0  0  0  0  0  0
   26.8245  -10.4778  -14.6409 C   0  0  0  0  0  0  0  0  0  0  0  0
   25.5858  -11.0464  -15.8305 S   0  0  0  0  0  0  0  0  0  0  0  0
   24.0367  -10.1080  -15.6613 C   0  0  0  0  0  0  0  0  0  0  0  0
   23.0698  -10.6436  -16.6621 C   0  0  0  0  0  0  0  0  0  0  0  0
   21.6942  -10.0595  -16.5686 C   0  0  2  0  0  0  0  0  0  0  0  0
   20.7782  -10.6989  -17.4644 N   0  0  0  0  0  0  0  0  0  0  0  0
   21.6850   -8.5809  -16.6895 C   0  0  0  0  0  0  0  0  0  0  0  0
   21.9819   -7.9659  -17.7452 O   0  0  0  0  0  0  0  0  0  0  0  0
   21.3251   -7.7907  -15.5676 N   0  0  0  0  0  0  0  0  0  0  0  0
   21.2873   -6.3606  -15.5172 C   0  0  1  0  0  0  0  0  0  0  0  0
   19.8540   -5.9099  -15.4860 C   0  0  0  0  0  0  0  0  0  0  0  0
   19.7830   -4.4503  -15.4613 C   0  0  0  0  0  0  0  0  0  0  0  0
   20.4970   -3.6883  -16.1240 O   0  0  0  0  0  0  0  0  0  0  0  0
   22.0785   -5.7996  -14.4066 C   0  0  0  0  0  0  0  0  0  0  0  0
   22.4473   -6.5346  -13.4747 O   0  0  0  0  0  0  0  0  0  0  0  0
   18.8348   -3.8302  -14.6249 O   0  0  0  0  0  0  0  0  0  0  0  0
   22.4065   -4.4664  -14.4039 O   0  0  0  0  0  0  0  0  0  0  0  0
  2  1  1  1
  3  2  1  0
  4  2  1  0
  4  5  1  0
  5  6  1  6
  7  5  1  0
  7  8  2  0
 10 11  1  0
 10  9  1  0
 11 12  1  0
 13 12  1  6
 13 14  1  0
 14  7  1  0
 15 13  1  0
 16 15  2  0
 17 15  1  0
 18 22  1  0
 18 17  1  0
 18 19  1  1
 20 19  1  0
 20 21  2  0
 22 25  1  0
 23 22  2  0
 24 20  1  0
M  END
$$$$
