LMD.pdb
     RDKit          3D

 25 24  0  0  1  0  0  0  0  0999 V2000
   29.5940  -17.8397  -16.2820 C   0  0  0  0  0  0  0  0  0  0  0  0
   29.2227  -19.2516  -16.6830 C   0  0  2  0  0  0  0  0  0  0  0  0
   28.0961  -19.1989  -17.6863 C   0  0  0  0  0  0  0  0  0  0  0  0
   28.8337  -20.0755  -15.4523 C   0  0  0  0  0  0  0  0  0  0  0  0
   27.3495  -19.8477  -15.2588 C   0  0  2  0  0  0  0  0  0  0  0  0
   27.1559  -18.4294  -15.0298 N   0  0  0  0  0  0  0  0  0  0  0  0
   26.7880  -20.6097  -14.1329 C   0  0  0  0  0  0  0  0  0  0  0  0
   26.5596  -21.8355  -14.2822 O   0  0  0  0  0  0  0  0  0  0  0  0
   27.5367  -20.1617   -7.9912 C   0  0  0  0  0  0  0  0  0  0  0  0
   25.8183  -20.7094   -7.8518 S   0  0  0  0  0  0  0  0  0  0  0  0
   25.1015  -21.0392   -9.4909 C   0  0  0  0  0  0  0  0  0  0  0  0
   26.0173  -20.4555  -10.5128 C   0  0  0  0  0  0  0  0  0  0  0  0
   25.5582  -20.6295  -11.9274 C   0  0  2  0  0  0  0  0  0  0  0  0
   26.4776  -20.0564  -12.8637 N   0  0  0  0  0  0  0  0  0  0  0  0
   24.1602  -20.1810  -12.1404 C   0  0  0  0  0  0  0  0  0  0  0  0
   23.8212  -18.9734  -12.2279 O   0  0  0  0  0  0  0  0  0  0  0  0
   23.1270  -21.1462  -12.2556 N   0  0  0  0  0  0  0  0  0  0  0  0
   21.9896  -21.0688  -13.1214 C   0  0  1  0  0  0  0  0  0  0  0  0
   22.3728  -21.5847  -14.4799 C   0  0  0  0  0  0  0  0  0  0  0  0
   21.2543  -21.4412  -15.4096 C   0  0  0  0  0  0  0  0  0  0  0  0
   20.1223  -21.0430  -15.1105 O   0  0  0  0  0  0  0  0  0  0  0  0
   20.7999  -21.7479  -12.5760 C   0  0  0  0  0  0  0  0  0  0  0  0
   19.7285  -21.7231  -13.2055 O   0  0  0  0  0  0  0  0  0  0  0  0
   21.4492  -21.7755  -16.7637 O   0  0  0  0  0  0  0  0  0  0  0  0
   20.8776  -22.4064  -11.3738 O   0  0  0  0  0  0  0  0  0  0  0  0
  2  1  1  1
  3  2  1  0
  4  2  1  0
  4  5  1  0
  5  6  1  1
  7  5  1  0
  7  8  2  0
 10 11  1  0
 10  9  1  0
 11 12  1  0
 13 12  1  1
 13 14  1  0
 14  7  1  0
 15 13  1  0
 16 15  2  0
 17 15  1  0
 18 22  1  0
 18 17  1  0
 18 19  1  6
 20 19  1  0
 20 21  2  0
 22 25  1  0
 23 22  2  0
 24 20  1  0
M  END
$$$$
