LMD.pdb
     RDKit          3D

 25 24  0  0  1  0  0  0  0  0999 V2000
   28.1192  -17.9074  -15.9461 C   0  0  0  0  0  0  0  0  0  0  0  0
   27.5904  -18.8212  -17.0314 C   0  0  2  0  0  0  0  0  0  0  0  0
   27.1813  -17.9878  -18.2215 C   0  0  0  0  0  0  0  0  0  0  0  0
   26.4187  -19.6562  -16.5075 C   0  0  0  0  0  0  0  0  0  0  0  0
   26.9442  -20.3784  -15.2849 C   0  0  2  0  0  0  0  0  0  0  0  0
   27.8413  -21.4182  -15.7492 N   0  0  0  0  0  0  0  0  0  0  0  0
   25.8807  -20.9759  -14.4629 C   0  0  0  0  0  0  0  0  0  0  0  0
   25.3466  -22.0466  -14.8444 O   0  0  0  0  0  0  0  0  0  0  0  0
   24.3015  -20.9695   -7.9276 C   0  0  0  0  0  0  0  0  0  0  0  0
   25.9212  -21.0015   -8.7328 S   0  0  0  0  0  0  0  0  0  0  0  0
   25.7685  -21.4335  -10.4932 C   0  0  0  0  0  0  0  0  0  0  0  0
   24.5249  -20.7943  -11.0114 C   0  0  0  0  0  0  0  0  0  0  0  0
   24.3117  -20.9584  -12.4844 C   0  0  2  0  0  0  0  0  0  0  0  0
   25.4007  -20.4256  -13.2464 N   0  0  0  0  0  0  0  0  0  0  0  0
   22.9900  -20.4583  -12.9360 C   0  0  0  0  0  0  0  0  0  0  0  0
   22.7564  -19.2531  -13.2078 O   0  0  0  0  0  0  0  0  0  0  0  0
   21.9106  -21.3677  -13.0783 N   0  0  0  0  0  0  0  0  0  0  0  0
   20.5859  -21.0468  -13.5158 C   0  0  1  0  0  0  0  0  0  0  0  0
   19.8940  -22.3091  -13.9473 C   0  0  0  0  0  0  0  0  0  0  0  0
   20.3892  -22.7362  -15.2544 C   0  0  0  0  0  0  0  0  0  0  0  0
   20.1238  -23.8124  -15.8029 O   0  0  0  0  0  0  0  0  0  0  0  0
   19.8111  -20.2947  -12.5118 C   0  0  0  0  0  0  0  0  0  0  0  0
   20.0722  -20.4230  -11.3035 O   0  0  0  0  0  0  0  0  0  0  0  0
   21.2402  -21.8746  -15.9732 O   0  0  0  0  0  0  0  0  0  0  0  0
   18.8027  -19.4540  -12.9133 O   0  0  0  0  0  0  0  0  0  0  0  0
  2  1  1  1
  3  2  1  0
  4  2  1  0
  4  5  1  0
  5  6  1  6
  7  5  1  0
  7  8  2  0
 10 11  1  0
 10  9  1  0
 11 12  1  0
 13 12  1  1
 13 14  1  0
 14  7  1  0
 15 13  1  0
 16 15  2  0
 17 15  1  0
 18 22  1  0
 18 17  1  0
 18 19  1  1
 20 19  1  0
 20 21  2  0
 22 25  1  0
 23 22  2  0
 24 20  1  0
M  END
$$$$
