LMD.pdb
     RDKit          3D

 25 24  0  0  1  0  0  0  0  0999 V2000
   18.3768  -11.5232  -21.1972 C   0  0  0  0  0  0  0  0  0  0  0  0
   17.4144  -11.2176  -20.0690 C   0  0  2  0  0  0  0  0  0  0  0  0
   16.2241  -10.4739  -20.6243 C   0  0  0  0  0  0  0  0  0  0  0  0
   18.1122  -10.4102  -18.9708 C   0  0  0  0  0  0  0  0  0  0  0  0
   19.2524  -11.2796  -18.4845 C   0  0  2  0  0  0  0  0  0  0  0  0
   18.6727  -12.3606  -17.7118 N   0  0  0  0  0  0  0  0  0  0  0  0
   20.2259  -10.5499  -17.6577 C   0  0  0  0  0  0  0  0  0  0  0  0
   19.9099  -10.2320  -16.4846 O   0  0  0  0  0  0  0  0  0  0  0  0
   26.7203  -10.2215  -14.3309 C   0  0  0  0  0  0  0  0  0  0  0  0
   25.5019  -10.8305  -15.5214 S   0  0  0  0  0  0  0  0  0  0  0  0
   24.9236   -9.4918  -16.6089 C   0  0  0  0  0  0  0  0  0  0  0  0
   23.8771  -10.0574  -17.5080 C   0  0  0  0  0  0  0  0  0  0  0  0
   22.4993   -9.5220  -17.2683 C   0  0  2  0  0  0  0  0  0  0  0  0
   21.5221  -10.1689  -18.0911 N   0  0  0  0  0  0  0  0  0  0  0  0
   22.4330   -8.0420  -17.3459 C   0  0  0  0  0  0  0  0  0  0  0  0
   22.5753   -7.3928  -18.4132 O   0  0  0  0  0  0  0  0  0  0  0  0
   22.1971   -7.2907  -16.1660 N   0  0  0  0  0  0  0  0  0  0  0  0
   22.0713   -5.8673  -16.0803 C   0  0  1  0  0  0  0  0  0  0  0  0
   21.1886   -5.5235  -14.9135 C   0  0  0  0  0  0  0  0  0  0  0  0
   20.9281   -4.0857  -14.8826 C   0  0  0  0  0  0  0  0  0  0  0  0
   21.3986   -3.2913  -14.0599 O   0  0  0  0  0  0  0  0  0  0  0  0
   23.3713   -5.1736  -16.0267 C   0  0  0  0  0  0  0  0  0  0  0  0
   24.2164   -5.5046  -15.1776 O   0  0  0  0  0  0  0  0  0  0  0  0
   20.0757   -3.5286  -15.8554 O   0  0  0  0  0  0  0  0  0  0  0  0
   23.6461   -4.1633  -16.9148 O   0  0  0  0  0  0  0  0  0  0  0  0
  2  1  1  6
  3  2  1  0
  4  2  1  0
  4  5  1  0
  5  6  1  1
  7  5  1  0
  7  8  2  0
 10 11  1  0
 10  9  1  0
 11 12  1  0
 13 12  1  6
 13 14  1  0
 14  7  1  0
 15 13  1  0
 16 15  2  0
 17 15  1  0
 18 22  1  0
 18 17  1  0
 18 19  1  1
 20 19  1  0
 20 21  2  0
 22 25  1  0
 23 22  2  0
 24 20  1  0
M  END
$$$$
