LMD.pdb
     RDKit          3D

 25 24  0  0  1  0  0  0  0  0999 V2000
   23.7667  -13.2550  -21.0824 C   0  0  0  0  0  0  0  0  0  0  0  0
   22.5865  -13.7987  -20.3053 C   0  0  2  0  0  0  0  0  0  0  0  0
   21.8650  -14.8176  -21.1536 C   0  0  0  0  0  0  0  0  0  0  0  0
   21.6507  -12.6623  -19.8839 C   0  0  0  0  0  0  0  0  0  0  0  0
   22.4859  -11.7431  -19.0182 C   0  0  2  0  0  0  0  0  0  0  0  0
   23.0792  -12.5540  -17.9732 N   0  0  0  0  0  0  0  0  0  0  0  0
   21.7077  -10.6515  -18.4127 C   0  0  0  0  0  0  0  0  0  0  0  0
   21.1193   -9.8351  -19.1640 O   0  0  0  0  0  0  0  0  0  0  0  0
   18.4530  -13.2573  -14.7598 C   0  0  0  0  0  0  0  0  0  0  0  0
   17.5516  -11.8290  -15.4078 S   0  0  0  0  0  0  0  0  0  0  0  0
   18.6038  -10.8364  -16.5109 C   0  0  0  0  0  0  0  0  0  0  0  0
   19.5811  -10.0966  -15.6617 C   0  0  0  0  0  0  0  0  0  0  0  0
   20.7077   -9.4659  -16.4200 C   0  0  2  0  0  0  0  0  0  0  0  0
   21.5667  -10.4441  -17.0162 N   0  0  0  0  0  0  0  0  0  0  0  0
   21.4463   -8.4557  -15.6232 C   0  0  0  0  0  0  0  0  0  0  0  0
   22.3305   -8.7454  -14.7776 O   0  0  0  0  0  0  0  0  0  0  0  0
   21.1602   -7.0781  -15.8042 N   0  0  0  0  0  0  0  0  0  0  0  0
   21.7769   -5.9877  -15.1114 C   0  0  1  0  0  0  0  0  0  0  0  0
   21.3980   -4.7008  -15.7887 C   0  0  0  0  0  0  0  0  0  0  0  0
   22.0107   -3.5669  -15.0995 C   0  0  0  0  0  0  0  0  0  0  0  0
   23.2120   -3.4607  -14.8255 O   0  0  0  0  0  0  0  0  0  0  0  0
   21.4756   -5.9746  -13.6681 C   0  0  0  0  0  0  0  0  0  0  0  0
   20.4151   -6.4710  -13.2514 O   0  0  0  0  0  0  0  0  0  0  0  0
   21.1933   -2.4913  -14.7018 O   0  0  0  0  0  0  0  0  0  0  0  0
   22.3669   -5.4142  -12.7870 O   0  0  0  0  0  0  0  0  0  0  0  0
  2  1  1  6
  3  2  1  0
  4  2  1  0
  4  5  1  0
  5  6  1  1
  7  5  1  0
  7  8  2  0
 10 11  1  0
 10  9  1  0
 11 12  1  0
 13 12  1  1
 13 14  1  0
 14  7  1  0
 15 13  1  0
 16 15  2  0
 17 15  1  0
 18 22  1  0
 18 17  1  0
 18 19  1  6
 20 19  1  0
 20 21  2  0
 22 25  1  0
 23 22  2  0
 24 20  1  0
M  END
$$$$
