LMD.pdb
     RDKit          3D

 25 24  0  0  1  0  0  0  0  0999 V2000
   25.4902  -33.1104   -1.5651 C   0  0  0  0  0  0  0  0  0  0  0  0
   24.6655  -32.9729   -0.3028 C   0  0  2  0  0  0  0  0  0  0  0  0
   24.1185  -31.5684   -0.2219 C   0  0  0  0  0  0  0  0  0  0  0  0
   25.5078  -33.3139    0.9296 C   0  0  0  0  0  0  0  0  0  0  0  0
   26.0673  -31.9958    1.4213 C   0  0  2  0  0  0  0  0  0  0  0  0
   27.2989  -31.7515    0.6966 N   0  0  0  0  0  0  0  0  0  0  0  0
   26.3360  -31.9834    2.8675 C   0  0  0  0  0  0  0  0  0  0  0  0
   25.3760  -32.1211    3.6653 O   0  0  0  0  0  0  0  0  0  0  0  0
   31.9789  -35.5452    4.8116 C   0  0  0  0  0  0  0  0  0  0  0  0
   31.4478  -33.8543    5.1738 S   0  0  0  0  0  0  0  0  0  0  0  0
   29.6961  -33.6127    4.7463 C   0  0  0  0  0  0  0  0  0  0  0  0
   29.3220  -32.2221    5.1331 C   0  0  0  0  0  0  0  0  0  0  0  0
   27.8965  -31.8624    4.8491 C   0  0  2  0  0  0  0  0  0  0  0  0
   27.6227  -31.8248    3.4442 N   0  0  0  0  0  0  0  0  0  0  0  0
   27.4584  -30.6346    5.5573 C   0  0  0  0  0  0  0  0  0  0  0  0
   27.6494  -29.4716    5.1194 O   0  0  0  0  0  0  0  0  0  0  0  0
   26.7836  -30.7482    6.7999 N   0  0  0  0  0  0  0  0  0  0  0  0
   26.3713  -29.6657    7.6409 C   0  0  1  0  0  0  0  0  0  0  0  0
   24.8739  -29.6877    7.7678 C   0  0  0  0  0  0  0  0  0  0  0  0
   24.4141  -28.5314    8.5344 C   0  0  0  0  0  0  0  0  0  0  0  0
   25.0784  -27.5130    8.7601 O   0  0  0  0  0  0  0  0  0  0  0  0
   27.0476  -29.6605    8.9511 C   0  0  0  0  0  0  0  0  0  0  0  0
   27.5807  -30.6990    9.3779 O   0  0  0  0  0  0  0  0  0  0  0  0
   23.1131  -28.5474    9.0734 O   0  0  0  0  0  0  0  0  0  0  0  0
   27.0873  -28.5088    9.6973 O   0  0  0  0  0  0  0  0  0  0  0  0
  2  1  1  6
  3  2  1  0
  4  2  1  0
  4  5  1  0
  5  6  1  6
  7  5  1  0
  7  8  2  0
 10 11  1  0
 10  9  1  0
 11 12  1  0
 13 12  1  6
 13 14  1  0
 14  7  1  0
 15 13  1  0
 16 15  2  0
 17 15  1  0
 18 22  1  0
 18 17  1  0
 18 19  1  1
 20 19  1  0
 20 21  2  0
 22 25  1  0
 23 22  2  0
 24 20  1  0
M  END
$$$$
