LMD.pdb
     RDKit          3D

 25 24  0  0  1  0  0  0  0  0999 V2000
   28.2997  -22.0143  -18.1244 C   0  0  0  0  0  0  0  0  0  0  0  0
   28.9465  -22.4250  -16.8186 C   0  0  2  0  0  0  0  0  0  0  0  0
   29.9354  -23.5337  -17.0856 C   0  0  0  0  0  0  0  0  0  0  0  0
   27.8838  -22.8593  -15.8053 C   0  0  0  0  0  0  0  0  0  0  0  0
   27.0042  -21.6462  -15.5884 C   0  0  2  0  0  0  0  0  0  0  0  0
   27.8782  -20.5190  -15.3298 N   0  0  0  0  0  0  0  0  0  0  0  0
   26.0620  -21.8059  -14.4701 C   0  0  0  0  0  0  0  0  0  0  0  0
   25.1981  -22.7154  -14.5282 O   0  0  0  0  0  0  0  0  0  0  0  0
   26.4951  -20.8830   -7.5535 C   0  0  0  0  0  0  0  0  0  0  0  0
   25.3522  -19.7713   -8.4080 S   0  0  0  0  0  0  0  0  0  0  0  0
   24.5997  -20.5875   -9.8491 C   0  0  0  0  0  0  0  0  0  0  0  0
   25.5472  -20.4539  -10.9927 C   0  0  0  0  0  0  0  0  0  0  0  0
   25.0646  -21.0653  -12.2716 C   0  0  2  0  0  0  0  0  0  0  0  0
   26.0526  -20.9952  -13.3056 N   0  0  0  0  0  0  0  0  0  0  0  0
   23.7425  -20.5447  -12.6979 C   0  0  0  0  0  0  0  0  0  0  0  0
   23.5701  -19.4022  -13.1937 O   0  0  0  0  0  0  0  0  0  0  0  0
   22.5905  -21.3592  -12.5502 N   0  0  0  0  0  0  0  0  0  0  0  0
   21.2678  -21.0430  -12.9970 C   0  0  1  0  0  0  0  0  0  0  0  0
   20.9485  -21.8743  -14.2076 C   0  0  0  0  0  0  0  0  0  0  0  0
   19.6058  -21.5642  -14.6946 C   0  0  0  0  0  0  0  0  0  0  0  0
   18.7350  -22.3979  -14.9706 O   0  0  0  0  0  0  0  0  0  0  0  0
   20.2513  -21.1776  -11.9373 C   0  0  0  0  0  0  0  0  0  0  0  0
   20.1999  -22.2154  -11.2555 O   0  0  0  0  0  0  0  0  0  0  0  0
   19.2432  -20.2155  -14.8748 O   0  0  0  0  0  0  0  0  0  0  0  0
   19.3635  -20.1562  -11.7056 O   0  0  0  0  0  0  0  0  0  0  0  0
  2  1  1  6
  3  2  1  0
  4  2  1  0
  4  5  1  0
  5  6  1  1
  7  5  1  0
  7  8  2  0
 10 11  1  0
 10  9  1  0
 11 12  1  0
 13 12  1  1
 13 14  1  0
 14  7  1  0
 15 13  1  0
 16 15  2  0
 17 15  1  0
 18 22  1  0
 18 17  1  0
 18 19  1  6
 20 19  1  0
 20 21  2  0
 22 25  1  0
 23 22  2  0
 24 20  1  0
M  END
$$$$
