LMD.pdb
     RDKit          3D

 25 24  0  0  1  0  0  0  0  0999 V2000
   19.0169  -11.7072  -20.6002 C   0  0  0  0  0  0  0  0  0  0  0  0
   17.9490  -11.6301  -19.5297 C   0  0  2  0  0  0  0  0  0  0  0  0
   16.7015  -11.0199  -20.1210 C   0  0  0  0  0  0  0  0  0  0  0  0
   18.4486  -10.8218  -18.3289 C   0  0  0  0  0  0  0  0  0  0  0  0
   19.6627  -11.5639  -17.8117 C   0  0  2  0  0  0  0  0  0  0  0  0
   19.1895  -12.7803  -17.1806 N   0  0  0  0  0  0  0  0  0  0  0  0
   20.4518  -10.7830  -16.8467 C   0  0  0  0  0  0  0  0  0  0  0  0
   19.9821  -10.5805  -15.6998 O   0  0  0  0  0  0  0  0  0  0  0  0
   26.5146  -11.2447  -14.7521 C   0  0  0  0  0  0  0  0  0  0  0  0
   26.4215   -9.5109  -15.2602 S   0  0  0  0  0  0  0  0  0  0  0  0
   24.7066   -8.9061  -15.2126 C   0  0  0  0  0  0  0  0  0  0  0  0
   23.9091   -9.7267  -16.1688 C   0  0  0  0  0  0  0  0  0  0  0  0
   22.4540   -9.3772  -16.2210 C   0  0  2  0  0  0  0  0  0  0  0  0
   21.7299  -10.2286  -17.1159 N   0  0  0  0  0  0  0  0  0  0  0  0
   22.2150   -7.9350  -16.4737 C   0  0  0  0  0  0  0  0  0  0  0  0
   22.5335   -7.3522  -17.5414 O   0  0  0  0  0  0  0  0  0  0  0  0
   21.5940   -7.1441  -15.4731 N   0  0  0  0  0  0  0  0  0  0  0  0
   21.2504   -5.7587  -15.5818 C   0  0  1  0  0  0  0  0  0  0  0  0
   19.9554   -5.5176  -14.8582 C   0  0  0  0  0  0  0  0  0  0  0  0
   19.5274   -4.1314  -15.0353 C   0  0  0  0  0  0  0  0  0  0  0  0
   19.4426   -3.2886  -14.1343 O   0  0  0  0  0  0  0  0  0  0  0  0
   22.3258   -4.8583  -15.1271 C   0  0  0  0  0  0  0  0  0  0  0  0
   22.9792   -5.1380  -14.1076 O   0  0  0  0  0  0  0  0  0  0  0  0
   19.1760   -3.6884  -16.3250 O   0  0  0  0  0  0  0  0  0  0  0  0
   22.6035   -3.7125  -15.8307 O   0  0  0  0  0  0  0  0  0  0  0  0
  2  1  1  6
  3  2  1  0
  4  2  1  0
  4  5  1  0
  5  6  1  1
  7  5  1  0
  7  8  2  0
 10 11  1  0
 10  9  1  0
 11 12  1  0
 13 12  1  6
 13 14  1  0
 14  7  1  0
 15 13  1  0
 16 15  2  0
 17 15  1  0
 18 22  1  0
 18 17  1  0
 18 19  1  1
 20 19  1  0
 20 21  2  0
 22 25  1  0
 23 22  2  0
 24 20  1  0
M  END
$$$$
