LMD.pdb
     RDKit          3D

 25 24  0  0  1  0  0  0  0  0999 V2000
   32.7689  -22.5582  -11.3976 C   0  0  0  0  0  0  0  0  0  0  0  0
   32.1643  -22.0595  -10.1021 C   0  0  2  0  0  0  0  0  0  0  0  0
   33.1016  -22.3828   -8.9641 C   0  0  0  0  0  0  0  0  0  0  0  0
   30.7828  -22.6812   -9.8790 C   0  0  0  0  0  0  0  0  0  0  0  0
   29.8548  -21.9755  -10.8450 C   0  0  2  0  0  0  0  0  0  0  0  0
   30.3804  -20.6405  -11.0524 N   0  0  0  0  0  0  0  0  0  0  0  0
   28.4690  -21.8894  -10.3593 C   0  0  0  0  0  0  0  0  0  0  0  0
   27.7941  -22.9435  -10.2572 O   0  0  0  0  0  0  0  0  0  0  0  0
   27.5556  -19.6665   -4.2166 C   0  0  0  0  0  0  0  0  0  0  0  0
   26.8409  -19.0549   -5.7619 S   0  0  0  0  0  0  0  0  0  0  0  0
   26.9886  -20.2930   -7.0864 C   0  0  0  0  0  0  0  0  0  0  0  0
   26.3495  -19.7280   -8.3094 C   0  0  0  0  0  0  0  0  0  0  0  0
   26.4690  -20.5922   -9.5264 C   0  0  2  0  0  0  0  0  0  0  0  0
   27.8210  -20.6827   -9.9891 N   0  0  0  0  0  0  0  0  0  0  0  0
   25.5145  -20.2161  -10.5980 C   0  0  0  0  0  0  0  0  0  0  0  0
   25.5912  -19.1478  -11.2565 O   0  0  0  0  0  0  0  0  0  0  0  0
   24.4454  -21.0914  -10.9197 N   0  0  0  0  0  0  0  0  0  0  0  0
   23.4916  -20.9109  -11.9718 C   0  0  1  0  0  0  0  0  0  0  0  0
   23.1995  -22.2439  -12.6013 C   0  0  0  0  0  0  0  0  0  0  0  0
   22.2484  -22.0872  -13.6998 C   0  0  0  0  0  0  0  0  0  0  0  0
   21.8024  -21.0096  -14.1113 O   0  0  0  0  0  0  0  0  0  0  0  0
   22.2681  -20.2160  -11.5309 C   0  0  0  0  0  0  0  0  0  0  0  0
   21.8108  -20.4263  -10.3945 O   0  0  0  0  0  0  0  0  0  0  0  0
   21.7826  -23.2380  -14.3646 O   0  0  0  0  0  0  0  0  0  0  0  0
   21.6363  -19.3380  -12.3763 O   0  0  0  0  0  0  0  0  0  0  0  0
  2  1  1  6
  3  2  1  0
  4  2  1  0
  4  5  1  0
  5  6  1  1
  7  5  1  0
  7  8  2  0
 10 11  1  0
 10  9  1  0
 11 12  1  0
 13 12  1  1
 13 14  1  0
 14  7  1  0
 15 13  1  0
 16 15  2  0
 17 15  1  0
 18 22  1  0
 18 17  1  0
 18 19  1  1
 20 19  1  0
 20 21  2  0
 22 25  1  0
 23 22  2  0
 24 20  1  0
M  END
$$$$
