LMD.pdb
     RDKit          3D

 25 24  0  0  1  0  0  0  0  0999 V2000
   17.0214  -15.7344    1.5279 C   0  0  0  0  0  0  0  0  0  0  0  0
   18.0475  -14.9169    2.2837 C   0  0  2  0  0  0  0  0  0  0  0  0
   19.3150  -14.8406    1.4677 C   0  0  0  0  0  0  0  0  0  0  0  0
   18.3099  -15.5263    3.6638 C   0  0  0  0  0  0  0  0  0  0  0  0
   17.0346  -15.3184    4.4529 C   0  0  2  0  0  0  0  0  0  0  0  0
   16.9049  -13.8956    4.6983 N   0  0  0  0  0  0  0  0  0  0  0  0
   17.0207  -16.0425    5.7333 C   0  0  0  0  0  0  0  0  0  0  0  0
   17.7928  -15.6699    6.6508 O   0  0  0  0  0  0  0  0  0  0  0  0
   13.2902  -16.8185   10.4621 C   0  0  0  0  0  0  0  0  0  0  0  0
   13.7578  -18.5561   10.2762 S   0  0  0  0  0  0  0  0  0  0  0  0
   15.3057  -18.7202    9.3348 C   0  0  0  0  0  0  0  0  0  0  0  0
   15.1602  -17.9279    8.0800 C   0  0  0  0  0  0  0  0  0  0  0  0
   16.3333  -18.0142    7.1534 C   0  0  2  0  0  0  0  0  0  0  0  0
   16.1850  -17.1530    6.0191 N   0  0  0  0  0  0  0  0  0  0  0  0
   16.6736  -19.4092    6.7805 C   0  0  0  0  0  0  0  0  0  0  0  0
   16.5150  -19.8806    5.6257 O   0  0  0  0  0  0  0  0  0  0  0  0
   17.2098  -20.2832    7.7609 N   0  0  0  0  0  0  0  0  0  0  0  0
   17.6249  -21.6370    7.5512 C   0  0  1  0  0  0  0  0  0  0  0  0
   18.7438  -21.6559    6.5481 C   0  0  0  0  0  0  0  0  0  0  0  0
   18.8486  -22.9770    5.9318 C   0  0  0  0  0  0  0  0  0  0  0  0
   18.1371  -23.9513    6.2036 O   0  0  0  0  0  0  0  0  0  0  0  0
   17.9775  -22.3344    8.8015 C   0  0  0  0  0  0  0  0  0  0  0  0
   17.6317  -23.5160    8.9713 O   0  0  0  0  0  0  0  0  0  0  0  0
   19.8300  -23.1902    4.9445 O   0  0  0  0  0  0  0  0  0  0  0  0
   18.6873  -21.6775    9.7760 O   0  0  0  0  0  0  0  0  0  0  0  0
  2  1  1  6
  3  2  1  0
  4  2  1  0
  4  5  1  0
  5  6  1  1
  7  5  1  0
  7  8  2  0
 10 11  1  0
 10  9  1  0
 11 12  1  0
 13 12  1  6
 13 14  1  0
 14  7  1  0
 15 13  1  0
 16 15  2  0
 17 15  1  0
 18 22  1  0
 18 17  1  0
 18 19  1  6
 20 19  1  0
 20 21  2  0
 22 25  1  0
 23 22  2  0
 24 20  1  0
M  END
$$$$
