CMY.pdb
     RDKit          3D

 27 27  0  0  1  0  0  0  0  0999 V2000
   16.6054  -11.3778  -15.2604 N   0  0  0  0  0  0  0  0  0  0  0  0
   17.1754  -11.1812  -13.9422 C   0  0  1  0  0  0  0  0  0  0  0  0
   18.6556  -10.8300  -14.0370 C   0  0  0  0  0  0  0  0  0  0  0  0
   19.6478  -12.2907  -14.4172 S   0  0  0  0  0  0  0  0  0  0  0  0
   16.5137  -10.0561  -13.2306 C   0  0  0  0  0  0  0  0  0  0  0  0
   16.3830   -8.9892  -13.8368 O   0  0  0  0  0  0  0  0  0  0  0  0
   11.3912   -7.7912   -7.7849 C   0  0  0  0  0  0  0  0  0  0  0  0
   12.1468   -9.1229   -8.7508 S   0  0  0  0  0  0  0  0  0  0  0  0
   13.5886   -8.5154   -9.6537 C   0  0  0  0  0  0  0  0  0  0  0  0
   14.1968   -9.7168  -10.3927 C   0  0  0  0  0  0  0  0  0  0  0  0
   15.4048   -9.2450  -11.1137 C   0  0  2  0  0  0  0  0  0  0  0  0
   16.0606  -10.2389  -11.9008 N   0  0  0  0  0  0  0  0  0  0  0  0
   16.3796   -8.4849  -10.3106 C   0  0  0  0  0  0  0  0  0  0  0  0
   17.0430   -9.0382   -9.4105 O   0  0  0  0  0  0  0  0  0  0  0  0
   21.7480   -6.6245  -14.6465 O   0  0  0  0  0  0  0  0  0  0  0  0
   21.0312   -6.6970  -13.4456 C   0  0  0  0  0  0  0  0  0  0  0  0
   20.5341   -7.9086  -13.0161 C   0  0  0  0  0  0  0  0  0  0  0  0
   19.8173   -8.0086  -11.8247 C   0  0  0  0  0  0  0  0  0  0  0  0
   19.5816   -6.9019  -11.0369 C   0  0  0  0  0  0  0  0  0  0  0  0
   18.8234   -7.0036   -9.7807 C   0  0  0  0  0  0  0  0  0  0  0  0
   17.5008   -6.2984   -9.7874 C   0  0  2  0  0  0  0  0  0  0  0  0
   16.5704   -7.1019  -10.5615 N   0  0  0  0  0  0  0  0  0  0  0  0
   17.5411   -4.9040  -10.2252 C   0  0  0  0  0  0  0  0  0  0  0  0
   16.7711   -4.4703  -11.2873 O   0  0  0  0  0  0  0  0  0  0  0  0
   20.0857   -5.6985  -11.4810 C   0  0  0  0  0  0  0  0  0  0  0  0
   20.7997   -5.5919  -12.6653 C   0  0  0  0  0  0  0  0  0  0  0  0
   18.2766   -4.0832   -9.6408 O   0  0  0  0  0  0  0  0  0  0  0  0
  2  1  1  6
  3  2  1  0
  3  4  1  0
  5  6  2  0
  5  2  1  0
  7  8  1  0
  8  9  1  0
 11 10  1  1
 10  9  1  0
 11 12  1  0
 12  5  1  0
 13 14  2  0
 13 11  1  0
 16 15  1  0
 17 16  2  0
 18 17  1  0
 19 25  1  0
 19 18  2  0
 20 19  1  0
 21 20  1  6
 21 22  1  0
 22 13  1  0
 23 21  1  0
 24 23  1  0
 25 26  2  0
 26 16  1  0
 27 23  2  0
M  END
$$$$
