CMY.pdb
     RDKit          3D

 27 27  0  0  1  0  0  0  0  0999 V2000
   26.8031  -22.2425  -17.0944 N   0  0  0  0  0  0  0  0  0  0  0  0
   26.9593  -21.2142  -16.0848 C   0  0  1  0  0  0  0  0  0  0  0  0
   26.5889  -19.8446  -16.6419 C   0  0  0  0  0  0  0  0  0  0  0  0
   27.8228  -19.2699  -17.8294 S   0  0  0  0  0  0  0  0  0  0  0  0
   26.0653  -21.4590  -14.9226 C   0  0  0  0  0  0  0  0  0  0  0  0
   25.0169  -22.0781  -15.1233 O   0  0  0  0  0  0  0  0  0  0  0  0
   25.1673  -21.2627   -7.0889 C   0  0  0  0  0  0  0  0  0  0  0  0
   26.2584  -20.9756   -8.5046 S   0  0  0  0  0  0  0  0  0  0  0  0
   25.3288  -21.0559  -10.0514 C   0  0  0  0  0  0  0  0  0  0  0  0
   26.3347  -20.8471  -11.1933 C   0  0  0  0  0  0  0  0  0  0  0  0
   25.6133  -21.0332  -12.4765 C   0  0  2  0  0  0  0  0  0  0  0  0
   26.4370  -20.9825  -13.6411 N   0  0  0  0  0  0  0  0  0  0  0  0
   24.3986  -20.2179  -12.6576 C   0  0  0  0  0  0  0  0  0  0  0  0
   24.4695  -18.9810  -12.8047 O   0  0  0  0  0  0  0  0  0  0  0  0
   21.2696  -22.6317  -18.8504 O   0  0  0  0  0  0  0  0  0  0  0  0
   21.4889  -21.8346  -17.7200 C   0  0  0  0  0  0  0  0  0  0  0  0
   20.4270  -21.4743  -16.9188 C   0  0  0  0  0  0  0  0  0  0  0  0
   20.6176  -20.6817  -15.7881 C   0  0  0  0  0  0  0  0  0  0  0  0
   21.8717  -20.2320  -15.4330 C   0  0  0  0  0  0  0  0  0  0  0  0
   22.0757  -19.3934  -14.2421 C   0  0  0  0  0  0  0  0  0  0  0  0
   21.9042  -20.1072  -12.9354 C   0  0  2  0  0  0  0  0  0  0  0  0
   23.1263  -20.8450  -12.6659 N   0  0  0  0  0  0  0  0  0  0  0  0
   20.7080  -20.9418  -12.8343 C   0  0  0  0  0  0  0  0  0  0  0  0
   20.8080  -22.3076  -12.6513 O   0  0  0  0  0  0  0  0  0  0  0  0
   22.9223  -20.6015  -16.2450 C   0  0  0  0  0  0  0  0  0  0  0  0
   22.7397  -21.3898  -17.3715 C   0  0  0  0  0  0  0  0  0  0  0  0
   19.5744  -20.4269  -12.9129 O   0  0  0  0  0  0  0  0  0  0  0  0
  2  1  1  6
  3  2  1  0
  3  4  1  0
  5  6  2  0
  5  2  1  0
  7  8  1  0
  8  9  1  0
 11 10  1  1
 10  9  1  0
 11 12  1  0
 12  5  1  0
 13 14  2  0
 13 11  1  0
 16 15  1  0
 17 16  2  0
 18 17  1  0
 19 25  1  0
 19 18  2  0
 20 19  1  0
 21 20  1  6
 21 22  1  0
 22 13  1  0
 23 21  1  0
 24 23  1  0
 25 26  2  0
 26 16  1  0
 27 23  2  0
M  END
$$$$
