CMY.pdb
     RDKit          3D

 27 27  0  0  1  0  0  0  0  0999 V2000
   27.7317  -20.9592  -16.8591 N   0  0  0  0  0  0  0  0  0  0  0  0
   27.5937  -20.0672  -15.7250 C   0  0  1  0  0  0  0  0  0  0  0  0
   27.0976  -18.6961  -16.1690 C   0  0  0  0  0  0  0  0  0  0  0  0
   28.3955  -17.7826  -17.0316 S   0  0  0  0  0  0  0  0  0  0  0  0
   26.5999  -20.5858  -14.7485 C   0  0  0  0  0  0  0  0  0  0  0  0
   25.6280  -21.2048  -15.1902 O   0  0  0  0  0  0  0  0  0  0  0  0
   24.8448  -21.6610   -7.0994 C   0  0  0  0  0  0  0  0  0  0  0  0
   26.0539  -21.1028   -8.3257 S   0  0  0  0  0  0  0  0  0  0  0  0
   25.3602  -21.1941   -9.9911 C   0  0  0  0  0  0  0  0  0  0  0  0
   26.4471  -20.7045  -10.9597 C   0  0  0  0  0  0  0  0  0  0  0  0
   25.8868  -20.7462  -12.3330 C   0  0  2  0  0  0  0  0  0  0  0  0
   26.7946  -20.3579  -13.3638 N   0  0  0  0  0  0  0  0  0  0  0  0
   24.5771  -20.0950  -12.5153 C   0  0  0  0  0  0  0  0  0  0  0  0
   24.4953  -18.8933  -12.8411 O   0  0  0  0  0  0  0  0  0  0  0  0
   17.4560  -16.2299  -14.5919 O   0  0  0  0  0  0  0  0  0  0  0  0
   18.6436  -16.9079  -14.2897 C   0  0  0  0  0  0  0  0  0  0  0  0
   19.0536  -17.0212  -12.9788 C   0  0  0  0  0  0  0  0  0  0  0  0
   20.2314  -17.6907  -12.6505 C   0  0  0  0  0  0  0  0  0  0  0  0
   21.0246  -18.2612  -13.6233 C   0  0  0  0  0  0  0  0  0  0  0  0
   22.2693  -18.9659  -13.2804 C   0  0  0  0  0  0  0  0  0  0  0  0
   22.0748  -20.2950  -12.6154 C   0  0  2  0  0  0  0  0  0  0  0  0
   23.3874  -20.8421  -12.3187 N   0  0  0  0  0  0  0  0  0  0  0  0
   21.2229  -21.2357  -13.3415 C   0  0  0  0  0  0  0  0  0  0  0  0
   21.7706  -22.2805  -14.0609 O   0  0  0  0  0  0  0  0  0  0  0  0
   20.5999  -18.1386  -14.9288 C   0  0  0  0  0  0  0  0  0  0  0  0
   19.4293  -17.4738  -15.2624 C   0  0  0  0  0  0  0  0  0  0  0  0
   19.9825  -21.1051  -13.3203 O   0  0  0  0  0  0  0  0  0  0  0  0
  2  1  1  6
  3  2  1  0
  3  4  1  0
  5  6  2  0
  5  2  1  0
  7  8  1  0
  8  9  1  0
 11 10  1  1
 10  9  1  0
 11 12  1  0
 12  5  1  0
 13 14  2  0
 13 11  1  0
 16 15  1  0
 17 16  2  0
 18 17  1  0
 19 25  1  0
 19 18  2  0
 20 19  1  0
 21 20  1  6
 21 22  1  0
 22 13  1  0
 23 21  1  0
 24 23  1  0
 25 26  2  0
 26 16  1  0
 27 23  2  0
M  END
$$$$
