CMY.pdb
     RDKit          3D

 27 27  0  0  1  0  0  0  0  0999 V2000
   28.7569  -11.5741  -19.1222 N   0  0  0  0  0  0  0  0  0  0  0  0
   28.3393  -11.0639  -17.8313 C   0  0  1  0  0  0  0  0  0  0  0  0
   28.7077   -9.5922  -17.6835 C   0  0  0  0  0  0  0  0  0  0  0  0
   30.4997   -9.3655  -17.6983 S   0  0  0  0  0  0  0  0  0  0  0  0
   26.8645  -11.1539  -17.6670 C   0  0  0  0  0  0  0  0  0  0  0  0
   26.1588  -10.8698  -18.6386 O   0  0  0  0  0  0  0  0  0  0  0  0
   22.6081  -15.5273  -15.1268 C   0  0  0  0  0  0  0  0  0  0  0  0
   24.3341  -15.7130  -15.6403 S   0  0  0  0  0  0  0  0  0  0  0  0
   24.9319  -14.1988  -16.4231 C   0  0  0  0  0  0  0  0  0  0  0  0
   24.6210  -13.0415  -15.4623 C   0  0  0  0  0  0  0  0  0  0  0  0
   24.9355  -11.7711  -16.1614 C   0  0  2  0  0  0  0  0  0  0  0  0
   26.3224  -11.5563  -16.4214 N   0  0  0  0  0  0  0  0  0  0  0  0
   24.3125  -10.5568  -15.6043 C   0  0  0  0  0  0  0  0  0  0  0  0
   24.9391   -9.8117  -14.8240 O   0  0  0  0  0  0  0  0  0  0  0  0
   21.2190   -2.6695  -14.7916 O   0  0  0  0  0  0  0  0  0  0  0  0
   21.7340   -3.9506  -15.0258 C   0  0  0  0  0  0  0  0  0  0  0  0
   21.8244   -4.4277  -16.3157 C   0  0  0  0  0  0  0  0  0  0  0  0
   22.3331   -5.6991  -16.5766 C   0  0  0  0  0  0  0  0  0  0  0  0
   22.7622   -6.5209  -15.5562 C   0  0  0  0  0  0  0  0  0  0  0  0
   23.2969   -7.8639  -15.8280 C   0  0  0  0  0  0  0  0  0  0  0  0
   22.3518   -8.9879  -15.5281 C   0  0  2  0  0  0  0  0  0  0  0  0
   22.9793  -10.2256  -15.9580 N   0  0  0  0  0  0  0  0  0  0  0  0
   21.0010   -8.8251  -16.0635 C   0  0  0  0  0  0  0  0  0  0  0  0
   20.0326   -8.1424  -15.3527 O   0  0  0  0  0  0  0  0  0  0  0  0
   22.6648   -6.0283  -14.2727 C   0  0  0  0  0  0  0  0  0  0  0  0
   22.1597   -4.7644  -14.0059 C   0  0  0  0  0  0  0  0  0  0  0  0
   20.7046   -9.3043  -17.1764 O   0  0  0  0  0  0  0  0  0  0  0  0
  2  1  1  6
  3  2  1  0
  3  4  1  0
  5  6  2  0
  5  2  1  0
  7  8  1  0
  8  9  1  0
 11 10  1  1
 10  9  1  0
 11 12  1  0
 12  5  1  0
 13 14  2  0
 13 11  1  0
 16 15  1  0
 17 16  2  0
 18 17  1  0
 19 25  1  0
 19 18  2  0
 20 19  1  0
 21 20  1  6
 21 22  1  0
 22 13  1  0
 23 21  1  0
 24 23  1  0
 25 26  2  0
 26 16  1  0
 27 23  2  0
M  END
$$$$
