CMY.pdb
     RDKit          3D

 27 27  0  0  1  0  0  0  0  0999 V2000
   22.5465  -21.7075  -15.5326 N   0  0  0  0  0  0  0  0  0  0  0  0
   23.4784  -22.7775  -15.2368 C   0  0  1  0  0  0  0  0  0  0  0  0
   22.7956  -24.1366  -15.3384 C   0  0  0  0  0  0  0  0  0  0  0  0
   21.4761  -24.2948  -14.1150 S   0  0  0  0  0  0  0  0  0  0  0  0
   24.6072  -22.7928  -16.2040 C   0  0  0  0  0  0  0  0  0  0  0  0
   24.5714  -21.9927  -17.1428 O   0  0  0  0  0  0  0  0  0  0  0  0
   31.0519  -21.1313  -19.0429 C   0  0  0  0  0  0  0  0  0  0  0  0
   29.6023  -21.0184  -17.9644 S   0  0  0  0  0  0  0  0  0  0  0  0
   28.7760  -22.6197  -17.8388 C   0  0  0  0  0  0  0  0  0  0  0  0
   27.5884  -22.4404  -16.8812 C   0  0  0  0  0  0  0  0  0  0  0  0
   26.8717  -23.7367  -16.7954 C   0  0  2  0  0  0  0  0  0  0  0  0
   25.6720  -23.7095  -16.0225 N   0  0  0  0  0  0  0  0  0  0  0  0
   27.6957  -24.9072  -16.4433 C   0  0  0  0  0  0  0  0  0  0  0  0
   28.0508  -25.1136  -15.2652 O   0  0  0  0  0  0  0  0  0  0  0  0
   27.5419  -33.3588  -15.3725 O   0  0  0  0  0  0  0  0  0  0  0  0
   27.4888  -31.9781  -15.6007 C   0  0  0  0  0  0  0  0  0  0  0  0
   26.5139  -31.4563  -16.4234 C   0  0  0  0  0  0  0  0  0  0  0  0
   26.4387  -30.0859  -16.6673 C   0  0  0  0  0  0  0  0  0  0  0  0
   27.3344  -29.2075  -16.0954 C   0  0  0  0  0  0  0  0  0  0  0  0
   27.2592  -27.7613  -16.3529 C   0  0  0  0  0  0  0  0  0  0  0  0
   28.3884  -27.2102  -17.1700 C   0  0  2  0  0  0  0  0  0  0  0  0
   28.0936  -25.8168  -17.4565 N   0  0  0  0  0  0  0  0  0  0  0  0
   28.7186  -27.9750  -18.3715 C   0  0  0  0  0  0  0  0  0  0  0  0
   29.2988  -29.2257  -18.2805 O   0  0  0  0  0  0  0  0  0  0  0  0
   28.3025  -29.7459  -15.2755 C   0  0  0  0  0  0  0  0  0  0  0  0
   28.3832  -31.1084  -15.0286 C   0  0  0  0  0  0  0  0  0  0  0  0
   28.4789  -27.5040  -19.5015 O   0  0  0  0  0  0  0  0  0  0  0  0
  2  1  1  6
  3  2  1  0
  3  4  1  0
  5  6  2  0
  5  2  1  0
  7  8  1  0
  8  9  1  0
 11 10  1  1
 10  9  1  0
 11 12  1  0
 12  5  1  0
 13 14  2  0
 13 11  1  0
 16 15  1  0
 17 16  2  0
 18 17  1  0
 19 25  1  0
 19 18  2  0
 20 19  1  0
 21 20  1  6
 21 22  1  0
 22 13  1  0
 23 21  1  0
 24 23  1  0
 25 26  2  0
 26 16  1  0
 27 23  2  0
M  END
$$$$
