CMY.pdb
     RDKit          3D

 27 27  0  0  1  0  0  0  0  0999 V2000
   21.3511  -16.7426  -18.4625 N   0  0  0  0  0  0  0  0  0  0  0  0
   21.1408  -15.3104  -18.3871 C   0  0  1  0  0  0  0  0  0  0  0  0
   19.7092  -14.9924  -17.9713 C   0  0  0  0  0  0  0  0  0  0  0  0
   18.5197  -15.7828  -19.0773 S   0  0  0  0  0  0  0  0  0  0  0  0
   22.0294  -14.6873  -17.3712 C   0  0  0  0  0  0  0  0  0  0  0  0
   22.5732  -15.4299  -16.5492 O   0  0  0  0  0  0  0  0  0  0  0  0
   28.3735  -12.6211  -14.8710 C   0  0  0  0  0  0  0  0  0  0  0  0
   27.1558  -13.3970  -15.9630 S   0  0  0  0  0  0  0  0  0  0  0  0
   25.5781  -12.5211  -15.8815 C   0  0  0  0  0  0  0  0  0  0  0  0
   24.6175  -13.2318  -16.8467 C   0  0  0  0  0  0  0  0  0  0  0  0
   23.2825  -12.5988  -16.7100 C   0  0  2  0  0  0  0  0  0  0  0  0
   22.2223  -13.2837  -17.3766 N   0  0  0  0  0  0  0  0  0  0  0  0
   23.2241  -11.1512  -16.9821 C   0  0  0  0  0  0  0  0  0  0  0  0
   23.3359  -10.7094  -18.1435 O   0  0  0  0  0  0  0  0  0  0  0  0
   16.4283   -6.0549  -16.5420 O   0  0  0  0  0  0  0  0  0  0  0  0
   17.4985   -6.9575  -16.5068 C   0  0  0  0  0  0  0  0  0  0  0  0
   17.4850   -8.0020  -15.6078 C   0  0  0  0  0  0  0  0  0  0  0  0
   18.5373   -8.9145  -15.5519 C   0  0  0  0  0  0  0  0  0  0  0  0
   19.6251   -8.8040  -16.3919 C   0  0  0  0  0  0  0  0  0  0  0  0
   20.7382   -9.7636  -16.3336 C   0  0  0  0  0  0  0  0  0  0  0  0
   22.0638   -9.1653  -15.9713 C   0  0  2  0  0  0  0  0  0  0  0  0
   23.0376  -10.2417  -15.9096 N   0  0  0  0  0  0  0  0  0  0  0  0
   22.0641   -8.3354  -14.7676 C   0  0  0  0  0  0  0  0  0  0  0  0
   21.8534   -6.9721  -14.8447 O   0  0  0  0  0  0  0  0  0  0  0  0
   19.6224   -7.7540  -17.2847 C   0  0  0  0  0  0  0  0  0  0  0  0
   18.5788   -6.8425  -17.3456 C   0  0  0  0  0  0  0  0  0  0  0  0
   22.2562   -8.8520  -13.6485 O   0  0  0  0  0  0  0  0  0  0  0  0
  2  1  1  1
  3  2  1  0
  3  4  1  0
  5  6  2  0
  5  2  1  0
  7  8  1  0
  8  9  1  0
 11 10  1  6
 10  9  1  0
 11 12  1  0
 12  5  1  0
 13 14  2  0
 13 11  1  0
 16 15  1  0
 17 16  2  0
 18 17  1  0
 19 25  1  0
 19 18  2  0
 20 19  1  0
 21 20  1  1
 21 22  1  0
 22 13  1  0
 23 21  1  0
 24 23  1  0
 25 26  2  0
 26 16  1  0
 27 23  2  0
M  END
$$$$
