CMY.pdb
     RDKit          3D

 27 27  0  0  1  0  0  0  0  0999 V2000
   22.3066  -15.2526  -17.1870 N   0  0  0  0  0  0  0  0  0  0  0  0
   22.3834  -13.9668  -17.8518 C   0  0  1  0  0  0  0  0  0  0  0  0
   21.0142  -13.5386  -18.3670 C   0  0  0  0  0  0  0  0  0  0  0  0
   20.3245  -14.7762  -19.4875 S   0  0  0  0  0  0  0  0  0  0  0  0
   22.8408  -12.9036  -16.9190 C   0  0  0  0  0  0  0  0  0  0  0  0
   22.3466  -12.8781  -15.7885 O   0  0  0  0  0  0  0  0  0  0  0  0
   28.9985  -13.3289  -15.5388 C   0  0  0  0  0  0  0  0  0  0  0  0
   28.1714  -11.8657  -16.2113 S   0  0  0  0  0  0  0  0  0  0  0  0
   26.3852  -11.9748  -15.9656 C   0  0  0  0  0  0  0  0  0  0  0  0
   25.7685  -10.7045  -16.5701 C   0  0  0  0  0  0  0  0  0  0  0  0
   24.2939  -10.8696  -16.5721 C   0  0  2  0  0  0  0  0  0  0  0  0
   23.8137  -11.9673  -17.3479 N   0  0  0  0  0  0  0  0  0  0  0  0
   23.5089   -9.6520  -16.8445 C   0  0  0  0  0  0  0  0  0  0  0  0
   23.3424   -9.2408  -18.0106 O   0  0  0  0  0  0  0  0  0  0  0  0
   16.9097  -11.4545  -15.1137 O   0  0  0  0  0  0  0  0  0  0  0  0
   17.9288  -10.6057  -15.5635 C   0  0  0  0  0  0  0  0  0  0  0  0
   18.7809  -11.0268  -16.5616 C   0  0  0  0  0  0  0  0  0  0  0  0
   19.8034  -10.2020  -17.0277 C   0  0  0  0  0  0  0  0  0  0  0  0
   19.9972   -8.9398  -16.5077 C   0  0  0  0  0  0  0  0  0  0  0  0
   21.0769   -8.0682  -16.9955 C   0  0  0  0  0  0  0  0  0  0  0  0
   22.1273   -7.7412  -15.9776 C   0  0  2  0  0  0  0  0  0  0  0  0
   22.9311   -8.9328  -15.7669 N   0  0  0  0  0  0  0  0  0  0  0  0
   21.6269   -7.1707  -14.7279 C   0  0  0  0  0  0  0  0  0  0  0  0
   21.0477   -5.9165  -14.7012 O   0  0  0  0  0  0  0  0  0  0  0  0
   19.1364   -8.5346  -15.5106 C   0  0  0  0  0  0  0  0  0  0  0  0
   18.1170   -9.3501  -15.0421 C   0  0  0  0  0  0  0  0  0  0  0  0
   21.7177   -7.8140  -13.6630 O   0  0  0  0  0  0  0  0  0  0  0  0
  2  1  1  1
  3  2  1  0
  3  4  1  0
  5  6  2  0
  5  2  1  0
  7  8  1  0
  8  9  1  0
 11 10  1  6
 10  9  1  0
 11 12  1  0
 12  5  1  0
 13 14  2  0
 13 11  1  0
 16 15  1  0
 17 16  2  0
 18 17  1  0
 19 25  1  0
 19 18  2  0
 20 19  1  0
 21 20  1  6
 21 22  1  0
 22 13  1  0
 23 21  1  0
 24 23  1  0
 25 26  2  0
 26 16  1  0
 27 23  2  0
M  END
$$$$
