CMY.pdb
     RDKit          3D

 27 27  0  0  1  0  0  0  0  0999 V2000
   30.3954  -20.3693  -18.8548 N   0  0  0  0  0  0  0  0  0  0  0  0
   29.1119  -19.7395  -18.6154 C   0  0  1  0  0  0  0  0  0  0  0  0
   28.5664  -19.1141  -19.8939 C   0  0  0  0  0  0  0  0  0  0  0  0
   29.9056  -18.5184  -20.9495 S   0  0  0  0  0  0  0  0  0  0  0  0
   28.1016  -20.7301  -18.1592 C   0  0  0  0  0  0  0  0  0  0  0  0
   26.9434  -20.3370  -17.9954 O   0  0  0  0  0  0  0  0  0  0  0  0
   29.3653  -27.1945  -17.0415 C   0  0  0  0  0  0  0  0  0  0  0  0
   27.6258  -27.1303  -17.5386 S   0  0  0  0  0  0  0  0  0  0  0  0
   26.9723  -25.4564  -17.3543 C   0  0  0  0  0  0  0  0  0  0  0  0
   28.1046  -24.4870  -17.7251 C   0  0  0  0  0  0  0  0  0  0  0  0
   27.6308  -23.1072  -17.4545 C   0  0  2  0  0  0  0  0  0  0  0  0
   28.4916  -22.0727  -17.9302 N   0  0  0  0  0  0  0  0  0  0  0  0
   27.1967  -22.8337  -16.0726 C   0  0  0  0  0  0  0  0  0  0  0  0
   28.0183  -22.8005  -15.1342 O   0  0  0  0  0  0  0  0  0  0  0  0
   24.4431  -19.8661   -8.5763 O   0  0  0  0  0  0  0  0  0  0  0  0
   24.8656  -20.2211   -9.8634 C   0  0  0  0  0  0  0  0  0  0  0  0
   24.1212  -19.8397  -10.9588 C   0  0  0  0  0  0  0  0  0  0  0  0
   24.5192  -20.1798  -12.2507 C   0  0  0  0  0  0  0  0  0  0  0  0
   25.6682  -20.9076  -12.4768 C   0  0  0  0  0  0  0  0  0  0  0  0
   26.0894  -21.2703  -13.8385 C   0  0  0  0  0  0  0  0  0  0  0  0
   25.3277  -22.4079  -14.4486 C   0  0  2  0  0  0  0  0  0  0  0  0
   25.8237  -22.6036  -15.8000 N   0  0  0  0  0  0  0  0  0  0  0  0
   23.8720  -22.2821  -14.3952 C   0  0  0  0  0  0  0  0  0  0  0  0
   23.1634  -22.6962  -13.2837 O   0  0  0  0  0  0  0  0  0  0  0  0
   26.4006  -21.2808  -11.3705 C   0  0  0  0  0  0  0  0  0  0  0  0
   26.0105  -20.9458  -10.0824 C   0  0  0  0  0  0  0  0  0  0  0  0
   23.2478  -21.7959  -15.3597 O   0  0  0  0  0  0  0  0  0  0  0  0
  2  1  1  6
  3  2  1  0
  3  4  1  0
  5  6  2  0
  5  2  1  0
  7  8  1  0
  8  9  1  0
 11 10  1  1
 10  9  1  0
 11 12  1  0
 12  5  1  0
 13 14  2  0
 13 11  1  0
 16 15  1  0
 17 16  2  0
 18 17  1  0
 19 25  1  0
 19 18  2  0
 20 19  1  0
 21 20  1  6
 21 22  1  0
 22 13  1  0
 23 21  1  0
 24 23  1  0
 25 26  2  0
 26 16  1  0
 27 23  2  0
M  END
$$$$
