CMY.pdb
     RDKit          3D

 27 27  0  0  1  0  0  0  0  0999 V2000
   40.1376   -4.5684   -3.3298 N   0  0  0  0  0  0  0  0  0  0  0  0
   39.9068   -3.2409   -2.7954 C   0  0  1  0  0  0  0  0  0  0  0  0
   39.9373   -2.1956   -3.9044 C   0  0  0  0  0  0  0  0  0  0  0  0
   41.5665   -2.1182   -4.6808 S   0  0  0  0  0  0  0  0  0  0  0  0
   38.5700   -3.1430   -2.1524 C   0  0  0  0  0  0  0  0  0  0  0  0
   37.6452   -3.7945   -2.6455 O   0  0  0  0  0  0  0  0  0  0  0  0
   38.0872   -4.4160    4.5494 C   0  0  0  0  0  0  0  0  0  0  0  0
   37.8313   -2.8846    3.6185 S   0  0  0  0  0  0  0  0  0  0  0  0
   37.6022   -3.2380    1.8619 C   0  0  0  0  0  0  0  0  0  0  0  0
   37.3449   -1.8953    1.1618 C   0  0  0  0  0  0  0  0  0  0  0  0
   37.1802   -2.1613   -0.2887 C   0  0  2  0  0  0  0  0  0  0  0  0
   38.4003   -2.3191   -1.0124 N   0  0  0  0  0  0  0  0  0  0  0  0
   36.2562   -1.2658   -1.0079 C   0  0  0  0  0  0  0  0  0  0  0  0
   36.4432   -0.9760   -2.2069 O   0  0  0  0  0  0  0  0  0  0  0  0
   29.7158    2.4166   -5.0658 O   0  0  0  0  0  0  0  0  0  0  0  0
   30.6559    1.6826   -4.3317 C   0  0  0  0  0  0  0  0  0  0  0  0
   31.9471    1.5620   -4.7982 C   0  0  0  0  0  0  0  0  0  0  0  0
   32.9023    0.8372   -4.0872 C   0  0  0  0  0  0  0  0  0  0  0  0
   32.5892    0.2177   -2.8959 C   0  0  0  0  0  0  0  0  0  0  0  0
   33.5941   -0.5499   -2.1448 C   0  0  0  0  0  0  0  0  0  0  0  0
   34.2007    0.1784   -0.9837 C   0  0  2  0  0  0  0  0  0  0  0  0
   35.1347   -0.7223   -0.3304 N   0  0  0  0  0  0  0  0  0  0  0  0
   33.2428    0.7706   -0.0512 C   0  0  0  0  0  0  0  0  0  0  0  0
   32.7067    2.0227   -0.2832 O   0  0  0  0  0  0  0  0  0  0  0  0
   31.2938    0.3485   -2.4439 C   0  0  0  0  0  0  0  0  0  0  0  0
   30.3385    1.0680   -3.1463 C   0  0  0  0  0  0  0  0  0  0  0  0
   32.8959    0.1480    0.9726 O   0  0  0  0  0  0  0  0  0  0  0  0
  2  1  1  6
  3  2  1  0
  3  4  1  0
  5  6  2  0
  5  2  1  0
  7  8  1  0
  8  9  1  0
 11 10  1  1
 10  9  1  0
 11 12  1  0
 12  5  1  0
 13 14  2  0
 13 11  1  0
 16 15  1  0
 17 16  2  0
 18 17  1  0
 19 25  1  0
 19 18  2  0
 20 19  1  0
 21 20  1  6
 21 22  1  0
 22 13  1  0
 23 21  1  0
 24 23  1  0
 25 26  2  0
 26 16  1  0
 27 23  2  0
M  END
$$$$
