CMY.pdb
     RDKit          3D

 27 27  0  0  1  0  0  0  0  0999 V2000
   28.4063  -19.7367  -16.6585 N   0  0  0  0  0  0  0  0  0  0  0  0
   28.0851  -19.4521  -15.2740 C   0  0  1  0  0  0  0  0  0  0  0  0
   27.6069  -18.0139  -15.1114 C   0  0  0  0  0  0  0  0  0  0  0  0
   25.9716  -17.7854  -15.8439 S   0  0  0  0  0  0  0  0  0  0  0  0
   26.9865  -20.3258  -14.7844 C   0  0  0  0  0  0  0  0  0  0  0  0
   26.2606  -20.8635  -15.6252 O   0  0  0  0  0  0  0  0  0  0  0  0
   23.9136  -21.1018   -8.8577 C   0  0  0  0  0  0  0  0  0  0  0  0
   25.6412  -20.5632   -8.9106 S   0  0  0  0  0  0  0  0  0  0  0  0
   26.1713  -20.2912  -10.6158 C   0  0  0  0  0  0  0  0  0  0  0  0
   26.0099  -21.6271  -11.3566 C   0  0  0  0  0  0  0  0  0  0  0  0
   25.8010  -21.3288  -12.7950 C   0  0  2  0  0  0  0  0  0  0  0  0
   26.8084  -20.5121  -13.3913 N   0  0  0  0  0  0  0  0  0  0  0  0
   24.4551  -20.8562  -13.1669 C   0  0  0  0  0  0  0  0  0  0  0  0
   24.1368  -19.6563  -13.0421 O   0  0  0  0  0  0  0  0  0  0  0  0
   16.3068  -21.3342  -16.7840 O   0  0  0  0  0  0  0  0  0  0  0  0
   17.6089  -21.5918  -16.3375 C   0  0  0  0  0  0  0  0  0  0  0  0
   18.6863  -21.1412  -17.0694 C   0  0  0  0  0  0  0  0  0  0  0  0
   19.9925  -21.3839  -16.6475 C   0  0  0  0  0  0  0  0  0  0  0  0
   20.2511  -22.0811  -15.4865 C   0  0  0  0  0  0  0  0  0  0  0  0
   21.6282  -22.3411  -15.0400 C   0  0  0  0  0  0  0  0  0  0  0  0
   22.1496  -21.3756  -14.0191 C   0  0  2  0  0  0  0  0  0  0  0  0
   23.5030  -21.7765  -13.6756 N   0  0  0  0  0  0  0  0  0  0  0  0
   21.2999  -21.1939  -12.8432 C   0  0  0  0  0  0  0  0  0  0  0  0
   21.2823  -22.1308  -11.8278 O   0  0  0  0  0  0  0  0  0  0  0  0
   19.1625  -22.5243  -14.7667 C   0  0  0  0  0  0  0  0  0  0  0  0
   17.8603  -22.2864  -15.1807 C   0  0  0  0  0  0  0  0  0  0  0  0
   20.5752  -20.1835  -12.7420 O   0  0  0  0  0  0  0  0  0  0  0  0
  2  1  1  6
  3  2  1  0
  3  4  1  0
  5  6  2  0
  5  2  1  0
  7  8  1  0
  8  9  1  0
 11 10  1  1
 10  9  1  0
 11 12  1  0
 12  5  1  0
 13 14  2  0
 13 11  1  0
 16 15  1  0
 17 16  2  0
 18 17  1  0
 19 25  1  0
 19 18  2  0
 20 19  1  0
 21 20  1  6
 21 22  1  0
 22 13  1  0
 23 21  1  0
 24 23  1  0
 25 26  2  0
 26 16  1  0
 27 23  2  0
M  END
$$$$
