CMY.pdb
     RDKit          3D

 27 27  0  0  1  0  0  0  0  0999 V2000
   21.2625  -16.2160  -16.7828 N   0  0  0  0  0  0  0  0  0  0  0  0
   20.3452  -15.0937  -16.7946 C   0  0  1  0  0  0  0  0  0  0  0  0
   19.5662  -15.0147  -15.4868 C   0  0  0  0  0  0  0  0  0  0  0  0
   18.7225  -16.5731  -15.1369 S   0  0  0  0  0  0  0  0  0  0  0  0
   21.0717  -13.8047  -16.9380 C   0  0  0  0  0  0  0  0  0  0  0  0
   22.1870  -13.7117  -16.4182 O   0  0  0  0  0  0  0  0  0  0  0  0
   21.9608   -7.3062  -21.2580 C   0  0  0  0  0  0  0  0  0  0  0  0
   20.9867   -8.7938  -20.9186 S   0  0  0  0  0  0  0  0  0  0  0  0
   21.5293   -9.5733  -19.3820 C   0  0  0  0  0  0  0  0  0  0  0  0
   20.7075  -10.8602  -19.2146 C   0  0  0  0  0  0  0  0  0  0  0  0
   21.0903  -11.4810  -17.9224 C   0  0  2  0  0  0  0  0  0  0  0  0
   20.4725  -12.7396  -17.6547 N   0  0  0  0  0  0  0  0  0  0  0  0
   21.0244  -10.6028  -16.7403 C   0  0  0  0  0  0  0  0  0  0  0  0
   19.9360  -10.3522  -16.1843 O   0  0  0  0  0  0  0  0  0  0  0  0
   28.2323  -10.3630  -17.1004 O   0  0  0  0  0  0  0  0  0  0  0  0
   27.0413  -10.1697  -16.3894 C   0  0  0  0  0  0  0  0  0  0  0  0
   26.5318  -11.1899  -15.6153 C   0  0  0  0  0  0  0  0  0  0  0  0
   25.3483  -11.0239  -14.8977 C   0  0  0  0  0  0  0  0  0  0  0  0
   24.6484   -9.8367  -14.9374 C   0  0  0  0  0  0  0  0  0  0  0  0
   23.3980   -9.6594  -14.1836 C   0  0  0  0  0  0  0  0  0  0  0  0
   22.2228   -9.2316  -15.0096 C   0  0  2  0  0  0  0  0  0  0  0  0
   22.2149  -10.0311  -16.2226 N   0  0  0  0  0  0  0  0  0  0  0  0
   22.1409   -7.7970  -15.2796 C   0  0  0  0  0  0  0  0  0  0  0  0
   21.8365   -6.9009  -14.2729 O   0  0  0  0  0  0  0  0  0  0  0  0
   25.1718   -8.8272  -15.7162 C   0  0  0  0  0  0  0  0  0  0  0  0
   26.3488   -8.9855  -16.4327 C   0  0  0  0  0  0  0  0  0  0  0  0
   22.3461   -7.3617  -16.4305 O   0  0  0  0  0  0  0  0  0  0  0  0
  2  1  1  1
  3  2  1  0
  3  4  1  0
  5  6  2  0
  5  2  1  0
  7  8  1  0
  8  9  1  0
 11 10  1  6
 10  9  1  0
 11 12  1  0
 12  5  1  0
 13 14  2  0
 13 11  1  0
 16 15  1  0
 17 16  2  0
 18 17  1  0
 19 25  1  0
 19 18  2  0
 20 19  1  0
 21 20  1  6
 21 22  1  0
 22 13  1  0
 23 21  1  0
 24 23  1  0
 25 26  2  0
 26 16  1  0
 27 23  2  0
M  END
$$$$
