CMY.pdb
     RDKit          3D

 27 27  0  0  1  0  0  0  0  0999 V2000
   21.9022  -20.2216  -13.9647 N   0  0  0  0  0  0  0  0  0  0  0  0
   22.6669  -20.0004  -15.1761 C   0  0  1  0  0  0  0  0  0  0  0  0
   21.7868  -20.1572  -16.4107 C   0  0  0  0  0  0  0  0  0  0  0  0
   20.8670  -21.7111  -16.3609 S   0  0  0  0  0  0  0  0  0  0  0  0
   23.2224  -18.6222  -15.2194 C   0  0  0  0  0  0  0  0  0  0  0  0
   22.4936  -17.6962  -14.8530 O   0  0  0  0  0  0  0  0  0  0  0  0
   27.9487  -20.0539  -12.9704 C   0  0  0  0  0  0  0  0  0  0  0  0
   27.2714  -19.4181  -14.5242 S   0  0  0  0  0  0  0  0  0  0  0  0
   27.1119  -17.6199  -14.4606 C   0  0  0  0  0  0  0  0  0  0  0  0
   26.6485  -17.1589  -15.8507 C   0  0  0  0  0  0  0  0  0  0  0  0
   25.1649  -17.1415  -15.8545 C   0  0  2  0  0  0  0  0  0  0  0  0
   24.5490  -18.4162  -15.6721 N   0  0  0  0  0  0  0  0  0  0  0  0
   24.5313  -16.4072  -16.9646 C   0  0  0  0  0  0  0  0  0  0  0  0
   23.8083  -16.9941  -17.7950 O   0  0  0  0  0  0  0  0  0  0  0  0
   19.5573  -11.2617  -21.6381 O   0  0  0  0  0  0  0  0  0  0  0  0
   20.3107  -12.0281  -20.7402 C   0  0  0  0  0  0  0  0  0  0  0  0
   20.7425  -11.4695  -19.5565 C   0  0  0  0  0  0  0  0  0  0  0  0
   21.4938  -12.2102  -18.6454 C   0  0  0  0  0  0  0  0  0  0  0  0
   21.8299  -13.5236  -18.8962 C   0  0  0  0  0  0  0  0  0  0  0  0
   22.6248  -14.3069  -17.9381 C   0  0  0  0  0  0  0  0  0  0  0  0
   24.1077  -14.2281  -18.1409 C   0  0  2  0  0  0  0  0  0  0  0  0
   24.7436  -15.0108  -17.0952 N   0  0  0  0  0  0  0  0  0  0  0  0
   24.6512  -12.8745  -18.2414 C   0  0  0  0  0  0  0  0  0  0  0  0
   24.8402  -12.0993  -17.1134 O   0  0  0  0  0  0  0  0  0  0  0  0
   21.3901  -14.0665  -20.0842 C   0  0  0  0  0  0  0  0  0  0  0  0
   20.6424  -13.3353  -20.9952 C   0  0  0  0  0  0  0  0  0  0  0  0
   24.9528  -12.3999  -19.3549 O   0  0  0  0  0  0  0  0  0  0  0  0
  2  1  1  1
  3  2  1  0
  3  4  1  0
  5  6  2  0
  5  2  1  0
  7  8  1  0
  8  9  1  0
 11 10  1  6
 10  9  1  0
 11 12  1  0
 12  5  1  0
 13 14  2  0
 13 11  1  0
 16 15  1  0
 17 16  2  0
 18 17  1  0
 19 25  1  0
 19 18  2  0
 20 19  1  0
 21 20  1  1
 21 22  1  0
 22 13  1  0
 23 21  1  0
 24 23  1  0
 25 26  2  0
 26 16  1  0
 27 23  2  0
M  END
$$$$
