CMY.pdb
     RDKit          3D

 27 27  0  0  1  0  0  0  0  0999 V2000
   28.3869  -21.8699  -16.2249 N   0  0  0  0  0  0  0  0  0  0  0  0
   27.8387  -20.7808  -15.4410 C   0  0  1  0  0  0  0  0  0  0  0  0
   27.3920  -19.6345  -16.3409 C   0  0  0  0  0  0  0  0  0  0  0  0
   27.1240  -18.1246  -15.3864 S   0  0  0  0  0  0  0  0  0  0  0  0
   26.6403  -21.2161  -14.6766 C   0  0  0  0  0  0  0  0  0  0  0  0
   25.8985  -22.0536  -15.1974 O   0  0  0  0  0  0  0  0  0  0  0  0
   25.2448  -20.9655   -7.9648 C   0  0  0  0  0  0  0  0  0  0  0  0
   26.8265  -20.7702   -8.8237 S   0  0  0  0  0  0  0  0  0  0  0  0
   26.6854  -21.2977  -10.5455 C   0  0  0  0  0  0  0  0  0  0  0  0
   25.4477  -20.6010  -11.1305 C   0  0  0  0  0  0  0  0  0  0  0  0
   25.3054  -21.0336  -12.5427 C   0  0  2  0  0  0  0  0  0  0  0  0
   26.3898  -20.6663  -13.3952 N   0  0  0  0  0  0  0  0  0  0  0  0
   24.0114  -20.7339  -13.1819 C   0  0  0  0  0  0  0  0  0  0  0  0
   23.7672  -19.5995  -13.6404 O   0  0  0  0  0  0  0  0  0  0  0  0
   16.1779  -22.5832  -17.0306 O   0  0  0  0  0  0  0  0  0  0  0  0
   17.4077  -22.6451  -16.3634 C   0  0  0  0  0  0  0  0  0  0  0  0
   18.5816  -22.6010  -17.0842 C   0  0  0  0  0  0  0  0  0  0  0  0
   19.8189  -22.6608  -16.4450 C   0  0  0  0  0  0  0  0  0  0  0  0
   19.9109  -22.7659  -15.0733 C   0  0  0  0  0  0  0  0  0  0  0  0
   21.2149  -22.8319  -14.3961 C   0  0  0  0  0  0  0  0  0  0  0  0
   21.7371  -21.5135  -13.9108 C   0  0  2  0  0  0  0  0  0  0  0  0
   23.0246  -21.7481  -13.2800 N   0  0  0  0  0  0  0  0  0  0  0  0
   20.8214  -20.7569  -13.0583 C   0  0  0  0  0  0  0  0  0  0  0  0
   20.7459  -21.0044  -11.7011 O   0  0  0  0  0  0  0  0  0  0  0  0
   18.7276  -22.8087  -14.3680 C   0  0  0  0  0  0  0  0  0  0  0  0
   17.4931  -22.7497  -14.9976 C   0  0  0  0  0  0  0  0  0  0  0  0
   20.0917  -19.8724  -13.5499 O   0  0  0  0  0  0  0  0  0  0  0  0
  2  1  1  6
  3  2  1  0
  3  4  1  0
  5  6  2  0
  5  2  1  0
  7  8  1  0
  8  9  1  0
 11 10  1  1
 10  9  1  0
 11 12  1  0
 12  5  1  0
 13 14  2  0
 13 11  1  0
 16 15  1  0
 17 16  2  0
 18 17  1  0
 19 25  1  0
 19 18  2  0
 20 19  1  0
 21 20  1  1
 21 22  1  0
 22 13  1  0
 23 21  1  0
 24 23  1  0
 25 26  2  0
 26 16  1  0
 27 23  2  0
M  END
$$$$
