CMY.pdb
     RDKit          3D

 27 27  0  0  1  0  0  0  0  0999 V2000
   27.4891  -22.1619  -16.1971 N   0  0  0  0  0  0  0  0  0  0  0  0
   27.5460  -21.1740  -15.1379 C   0  0  1  0  0  0  0  0  0  0  0  0
   27.2259  -19.7834  -15.6738 C   0  0  0  0  0  0  0  0  0  0  0  0
   28.4753  -19.2398  -16.8597 S   0  0  0  0  0  0  0  0  0  0  0  0
   26.5466  -21.4633  -14.0761 C   0  0  0  0  0  0  0  0  0  0  0  0
   25.5076  -22.0418  -14.4058 O   0  0  0  0  0  0  0  0  0  0  0  0
   26.7825  -19.0027   -7.5876 C   0  0  0  0  0  0  0  0  0  0  0  0
   25.9594  -20.6120   -7.6873 S   0  0  0  0  0  0  0  0  0  0  0  0
   25.2481  -20.8626   -9.3287 C   0  0  0  0  0  0  0  0  0  0  0  0
   26.4046  -20.7903  -10.3371 C   0  0  0  0  0  0  0  0  0  0  0  0
   25.8459  -21.0328  -11.6901 C   0  0  2  0  0  0  0  0  0  0  0  0
   26.8119  -21.0732  -12.7401 N   0  0  0  0  0  0  0  0  0  0  0  0
   24.6925  -20.1976  -12.0710 C   0  0  0  0  0  0  0  0  0  0  0  0
   24.8527  -19.0434  -12.5170 O   0  0  0  0  0  0  0  0  0  0  0  0
   18.5772  -18.3571  -17.6757 O   0  0  0  0  0  0  0  0  0  0  0  0
   19.5890  -18.7820  -16.8056 C   0  0  0  0  0  0  0  0  0  0  0  0
   19.5917  -20.0788  -16.3388 C   0  0  0  0  0  0  0  0  0  0  0  0
   20.5869  -20.5274  -15.4719 C   0  0  0  0  0  0  0  0  0  0  0  0
   21.6003  -19.6916  -15.0528 C   0  0  0  0  0  0  0  0  0  0  0  0
   22.6502  -20.1612  -14.1361 C   0  0  0  0  0  0  0  0  0  0  0  0
   22.2577  -20.1803  -12.6897 C   0  0  2  0  0  0  0  0  0  0  0  0
   23.3772  -20.7097  -11.9302 N   0  0  0  0  0  0  0  0  0  0  0  0
   21.0012  -20.8673  -12.3947 C   0  0  0  0  0  0  0  0  0  0  0  0
   19.8219  -20.1615  -12.2528 O   0  0  0  0  0  0  0  0  0  0  0  0
   21.5825  -18.3985  -15.5291 C   0  0  0  0  0  0  0  0  0  0  0  0
   20.5954  -17.9455  -16.3918 C   0  0  0  0  0  0  0  0  0  0  0  0
   20.9788  -22.1080  -12.2666 O   0  0  0  0  0  0  0  0  0  0  0  0
  2  1  1  6
  3  2  1  0
  3  4  1  0
  5  6  2  0
  5  2  1  0
  7  8  1  0
  8  9  1  0
 11 10  1  1
 10  9  1  0
 11 12  1  0
 12  5  1  0
 13 14  2  0
 13 11  1  0
 16 15  1  0
 17 16  2  0
 18 17  1  0
 19 25  1  0
 19 18  2  0
 20 19  1  0
 21 20  1  6
 21 22  1  0
 22 13  1  0
 23 21  1  0
 24 23  1  0
 25 26  2  0
 26 16  1  0
 27 23  2  0
M  END
$$$$
