NNH.pdb
     RDKit          3D

 27 27  0  0  1  0  0  0  0  0999 V2000
   12.9486  -17.3036   15.7688 N   0  0  0  0  0  0  0  0  0  0  0  0
   12.5139  -16.0025   15.4693 C   0  0  0  0  0  0  0  0  0  0  0  0
   12.5890  -15.5798   14.2926 O   0  0  0  0  0  0  0  0  0  0  0  0
   11.9679  -15.1253   16.5301 C   0  0  0  0  0  0  0  0  0  0  0  0
   11.9618  -15.8136   17.8814 C   0  0  2  0  0  0  0  0  0  0  0  0
   11.1417  -16.9974   17.8782 N   0  0  0  0  0  0  0  0  0  0  0  0
   11.4185  -14.8612   18.8644 C   0  0  0  0  0  0  0  0  0  0  0  0
   12.0798  -13.8425   19.1694 O   0  0  0  0  0  0  0  0  0  0  0  0
    8.2552  -12.2306   18.3497 N   0  0  0  0  0  0  0  0  0  0  0  0
    8.0999  -13.5673   18.8418 C   0  0  0  0  0  0  0  0  0  0  0  0
    7.7988  -14.4995   18.0545 O   0  0  0  0  0  0  0  0  0  0  0  0
    8.2993  -13.8146   20.2698 C   0  0  0  0  0  0  0  0  0  0  0  0
    9.7582  -14.1636   20.5328 C   0  0  2  0  0  0  0  0  0  0  0  0
   10.1587  -15.0588   19.4846 N   0  0  0  0  0  0  0  0  0  0  0  0
    9.9243  -14.8674   21.8183 C   0  0  0  0  0  0  0  0  0  0  0  0
    9.5829  -14.3374   22.9268 O   0  0  0  0  0  0  0  0  0  0  0  0
   10.4733  -16.1710   21.8809 N   0  0  0  0  0  0  0  0  0  0  0  0
   10.8022  -16.7512   23.2235 C   0  0  1  0  0  0  0  0  0  0  0  0
   10.4637  -18.2085   23.0661 C   0  0  0  0  0  0  0  0  0  0  0  0
   11.0501  -18.8652   21.8963 C   0  0  0  0  0  0  0  0  0  0  0  0
   11.8656  -18.4307   20.8926 C   0  0  0  0  0  0  0  0  0  0  0  0
   12.1434  -19.5005   20.1069 N   0  0  0  0  0  0  0  0  0  0  0  0
   11.5278  -20.5857   20.5908 C   0  0  0  0  0  0  0  0  0  0  0  0
   10.8659  -20.1957   21.6765 N   0  0  0  0  0  0  0  0  0  0  0  0
   12.2996  -16.6762   23.3464 C   0  0  0  0  0  0  0  0  0  0  0  0
   12.8068  -16.9584   24.4567 O   0  0  0  0  0  0  0  0  0  0  0  0
   13.0837  -16.3226   22.3202 O   0  0  0  0  0  0  0  0  0  0  0  0
  2  1  1  0
  3  2  2  0
  4  2  1  0
  5  4  1  0
  5  6  1  6
  7  5  1  0
  7  8  2  0
  9 10  1  0
 10 12  1  0
 10 11  2  0
 13 12  1  6
 13 14  1  0
 14  7  1  0
 15 13  1  0
 15 17  1  0
 16 15  2  0
 18 17  1  0
 18 19  1  6
 20 19  1  0
 20 21  2  0
 22 21  1  0
 23 22  1  0
 24 23  2  0
 24 20  1  0
 25 18  1  0
 26 25  2  0
 27 25  1  0
M  END
$$$$
