NNH.pdb
     RDKit          3D

 27 27  0  0  1  0  0  0  0  0999 V2000
    9.7302  -18.0186   15.0228 N   0  0  0  0  0  0  0  0  0  0  0  0
    9.9381  -18.1590   16.4043 C   0  0  0  0  0  0  0  0  0  0  0  0
    9.9523  -19.3023   16.9155 O   0  0  0  0  0  0  0  0  0  0  0  0
   10.1404  -16.9694   17.2627 C   0  0  0  0  0  0  0  0  0  0  0  0
   10.2425  -17.3442   18.7286 C   0  0  2  0  0  0  0  0  0  0  0  0
    9.1994  -18.2546   19.1248 N   0  0  0  0  0  0  0  0  0  0  0  0
   10.1172  -16.1057   19.5152 C   0  0  0  0  0  0  0  0  0  0  0  0
   11.0852  -15.3141   19.5811 O   0  0  0  0  0  0  0  0  0  0  0  0
    7.0347  -14.3191   18.3694 N   0  0  0  0  0  0  0  0  0  0  0  0
    7.3511  -13.4278   19.4457 C   0  0  0  0  0  0  0  0  0  0  0  0
    7.5039  -12.2001   19.2251 O   0  0  0  0  0  0  0  0  0  0  0  0
    7.4897  -13.9797   20.7934 C   0  0  0  0  0  0  0  0  0  0  0  0
    8.8872  -14.5583   20.9712 C   0  0  2  0  0  0  0  0  0  0  0  0
    8.9255  -15.7738   20.2085 N   0  0  0  0  0  0  0  0  0  0  0  0
    9.1580  -14.8987   22.3806 C   0  0  0  0  0  0  0  0  0  0  0  0
    8.7621  -14.1597   23.3413 O   0  0  0  0  0  0  0  0  0  0  0  0
    9.8740  -16.0682   22.7333 N   0  0  0  0  0  0  0  0  0  0  0  0
   10.1581  -16.3303   24.1817 C   0  0  1  0  0  0  0  0  0  0  0  0
    8.8748  -16.9327   24.6854 C   0  0  0  0  0  0  0  0  0  0  0  0
    8.9230  -17.4582   26.0510 C   0  0  0  0  0  0  0  0  0  0  0  0
    9.9068  -17.5182   26.9942 C   0  0  0  0  0  0  0  0  0  0  0  0
    9.3623  -18.0615   28.1112 N   0  0  0  0  0  0  0  0  0  0  0  0
    8.0717  -18.3396   27.8926 C   0  0  0  0  0  0  0  0  0  0  0  0
    7.8095  -17.9717   26.6417 N   0  0  0  0  0  0  0  0  0  0  0  0
   11.1805  -17.4337   24.2054 C   0  0  0  0  0  0  0  0  0  0  0  0
   11.3733  -18.0706   23.1439 O   0  0  0  0  0  0  0  0  0  0  0  0
   11.8719  -17.7430   25.3094 O   0  0  0  0  0  0  0  0  0  0  0  0
  2  1  1  0
  3  2  2  0
  4  2  1  0
  5  4  1  0
  5  6  1  1
  7  5  1  0
  7  8  2  0
  9 10  1  0
 10 12  1  0
 10 11  2  0
 13 12  1  1
 13 14  1  0
 14  7  1  0
 15 13  1  0
 15 17  1  0
 16 15  2  0
 18 17  1  0
 18 19  1  1
 20 19  1  0
 20 21  2  0
 22 21  1  0
 23 22  1  0
 24 23  2  0
 24 20  1  0
 25 18  1  0
 26 25  2  0
 27 25  1  0
M  END
$$$$
