NNH.pdb
     RDKit          3D

 27 27  0  0  1  0  0  0  0  0999 V2000
    7.1980  -12.3766   17.6208 N   0  0  0  0  0  0  0  0  0  0  0  0
    8.0440  -13.1734   18.4087 C   0  0  0  0  0  0  0  0  0  0  0  0
    9.2236  -13.3770   18.0400 O   0  0  0  0  0  0  0  0  0  0  0  0
    7.5559  -13.7754   19.6705 C   0  0  0  0  0  0  0  0  0  0  0  0
    8.6901  -14.3583   20.4913 C   0  0  2  0  0  0  0  0  0  0  0  0
    9.6138  -15.1057   19.6778 N   0  0  0  0  0  0  0  0  0  0  0  0
    8.0977  -15.2624   21.4914 C   0  0  0  0  0  0  0  0  0  0  0  0
    6.9533  -15.0236   21.9402 O   0  0  0  0  0  0  0  0  0  0  0  0
    8.5042  -20.8371   23.7327 N   0  0  0  0  0  0  0  0  0  0  0  0
    7.7860  -19.7034   23.2308 C   0  0  0  0  0  0  0  0  0  0  0  0
    6.5617  -19.5697   23.4809 O   0  0  0  0  0  0  0  0  0  0  0  0
    8.5088  -18.7168   22.4282 C   0  0  0  0  0  0  0  0  0  0  0  0
    8.0931  -17.3117   22.8433 C   0  0  2  0  0  0  0  0  0  0  0  0
    8.7849  -16.4069   21.9696 N   0  0  0  0  0  0  0  0  0  0  0  0
    8.5058  -17.0105   24.2269 C   0  0  0  0  0  0  0  0  0  0  0  0
    8.1204  -17.7181   25.2152 O   0  0  0  0  0  0  0  0  0  0  0  0
    9.3535  -15.9157   24.5229 N   0  0  0  0  0  0  0  0  0  0  0  0
    9.6649  -15.6121   25.9576 C   0  0  1  0  0  0  0  0  0  0  0  0
    8.3141  -15.3253   26.5545 C   0  0  0  0  0  0  0  0  0  0  0  0
    7.6748  -14.0913   26.0940 C   0  0  0  0  0  0  0  0  0  0  0  0
    8.0223  -13.1473   25.1724 C   0  0  0  0  0  0  0  0  0  0  0  0
    7.0102  -12.2465   25.1162 N   0  0  0  0  0  0  0  0  0  0  0  0
    6.0447  -12.6010   25.9722 C   0  0  0  0  0  0  0  0  0  0  0  0
    6.4519  -13.7209   26.5630 N   0  0  0  0  0  0  0  0  0  0  0  0
   10.1259  -16.9110   26.5604 C   0  0  0  0  0  0  0  0  0  0  0  0
   10.1267  -17.9254   25.8251 O   0  0  0  0  0  0  0  0  0  0  0  0
   10.5252  -17.0050   27.8349 O   0  0  0  0  0  0  0  0  0  0  0  0
  2  1  1  0
  3  2  2  0
  4  2  1  0
  5  4  1  0
  5  6  1  6
  7  5  1  0
  7  8  2  0
  9 10  1  0
 10 12  1  0
 10 11  2  0
 13 12  1  6
 13 14  1  0
 14  7  1  0
 15 13  1  0
 15 17  1  0
 16 15  2  0
 18 17  1  0
 18 19  1  1
 20 19  1  0
 20 21  2  0
 22 21  1  0
 23 22  1  0
 24 23  2  0
 24 20  1  0
 25 18  1  0
 26 25  2  0
 27 25  1  0
M  END
$$$$
