NNH.pdb
     RDKit          3D

 27 27  0  0  1  0  0  0  0  0999 V2000
    8.9836  -21.4411   13.7819 N   0  0  0  0  0  0  0  0  0  0  0  0
    9.8083  -20.7032   14.6461 C   0  0  0  0  0  0  0  0  0  0  0  0
   10.8081  -21.2504   15.1656 O   0  0  0  0  0  0  0  0  0  0  0  0
    9.5080  -19.2852   14.9495 C   0  0  0  0  0  0  0  0  0  0  0  0
    9.5017  -19.0185   16.4424 C   0  0  2  0  0  0  0  0  0  0  0  0
    8.1868  -19.1693   17.0100 N   0  0  0  0  0  0  0  0  0  0  0  0
    9.9533  -17.6323   16.6494 C   0  0  0  0  0  0  0  0  0  0  0  0
   10.2472  -16.9232   15.6601 O   0  0  0  0  0  0  0  0  0  0  0  0
    9.0663  -12.6594   18.3422 N   0  0  0  0  0  0  0  0  0  0  0  0
    9.9522  -13.5645   19.0122 C   0  0  0  0  0  0  0  0  0  0  0  0
   10.9810  -13.1307   19.5892 O   0  0  0  0  0  0  0  0  0  0  0  0
    9.6301  -14.9915   19.0065 C   0  0  0  0  0  0  0  0  0  0  0  0
   10.5770  -15.7290   18.0691 C   0  0  2  0  0  0  0  0  0  0  0  0
   10.0682  -17.0654   17.9441 N   0  0  0  0  0  0  0  0  0  0  0  0
   11.9388  -15.8128   18.6294 C   0  0  0  0  0  0  0  0  0  0  0  0
   12.9741  -15.8393   17.8855 O   0  0  0  0  0  0  0  0  0  0  0  0
   12.1602  -15.8677   20.0268 N   0  0  0  0  0  0  0  0  0  0  0  0
   13.5708  -15.8604   20.5342 C   0  0  1  0  0  0  0  0  0  0  0  0
   14.0223  -14.4464   20.2890 C   0  0  0  0  0  0  0  0  0  0  0  0
   14.9314  -14.2665   19.1556 C   0  0  0  0  0  0  0  0  0  0  0  0
   15.3139  -15.0777   18.1276 C   0  0  0  0  0  0  0  0  0  0  0  0
   16.1389  -14.3557   17.3294 N   0  0  0  0  0  0  0  0  0  0  0  0
   16.2803  -13.1219   17.8278 C   0  0  0  0  0  0  0  0  0  0  0  0
   15.5459  -13.0722   18.9355 N   0  0  0  0  0  0  0  0  0  0  0  0
   13.4701  -16.0188   22.0268 C   0  0  0  0  0  0  0  0  0  0  0  0
   12.3376  -15.8994   22.5491 O   0  0  0  0  0  0  0  0  0  0  0  0
   14.5383  -16.2779   22.7913 O   0  0  0  0  0  0  0  0  0  0  0  0
  2  1  1  0
  3  2  2  0
  4  2  1  0
  5  4  1  0
  5  6  1  6
  7  5  1  0
  7  8  2  0
  9 10  1  0
 10 12  1  0
 10 11  2  0
 13 12  1  1
 13 14  1  0
 14  7  1  0
 15 13  1  0
 15 17  1  0
 16 15  2  0
 18 17  1  0
 18 19  1  1
 20 19  1  0
 20 21  2  0
 22 21  1  0
 23 22  1  0
 24 23  2  0
 24 20  1  0
 25 18  1  0
 26 25  2  0
 27 25  1  0
M  END
$$$$
