NNH.pdb
     RDKit          3D

 27 27  0  0  1  0  0  0  0  0999 V2000
    8.2282  -19.1770   15.8848 N   0  0  0  0  0  0  0  0  0  0  0  0
    8.4053  -17.9657   15.1972 C   0  0  0  0  0  0  0  0  0  0  0  0
    8.0581  -17.8783   13.9969 O   0  0  0  0  0  0  0  0  0  0  0  0
    8.9981  -16.7909   15.8764 C   0  0  0  0  0  0  0  0  0  0  0  0
    9.5147  -17.1415   17.2585 C   0  0  2  0  0  0  0  0  0  0  0  0
    8.4873  -17.7187   18.0862 N   0  0  0  0  0  0  0  0  0  0  0  0
    9.9881  -15.8966   17.8865 C   0  0  0  0  0  0  0  0  0  0  0  0
   10.9964  -15.3153   17.4244 O   0  0  0  0  0  0  0  0  0  0  0  0
    6.9466  -12.0852   18.6379 N   0  0  0  0  0  0  0  0  0  0  0  0
    8.1958  -12.7867   18.6183 C   0  0  0  0  0  0  0  0  0  0  0  0
    8.7606  -13.0409   17.5248 O   0  0  0  0  0  0  0  0  0  0  0  0
    8.7892  -13.1944   19.8917 C   0  0  0  0  0  0  0  0  0  0  0  0
    9.9237  -14.1786   19.6391 C   0  0  2  0  0  0  0  0  0  0  0  0
    9.3352  -15.3261   19.0086 N   0  0  0  0  0  0  0  0  0  0  0  0
   10.5466  -14.6235   20.8998 C   0  0  0  0  0  0  0  0  0  0  0  0
   11.2752  -13.8482   21.6029 O   0  0  0  0  0  0  0  0  0  0  0  0
   10.3632  -15.9391   21.3901 N   0  0  0  0  0  0  0  0  0  0  0  0
   11.1623  -16.3839   22.5779 C   0  0  1  0  0  0  0  0  0  0  0  0
   10.5041  -17.6765   22.9768 C   0  0  0  0  0  0  0  0  0  0  0  0
   11.1680  -18.4109   24.0555 C   0  0  0  0  0  0  0  0  0  0  0  0
   12.2156  -18.1167   24.8784 C   0  0  0  0  0  0  0  0  0  0  0  0
   12.3565  -19.1551   25.7391 N   0  0  0  0  0  0  0  0  0  0  0  0
   11.4295  -20.0843   25.4782 C   0  0  0  0  0  0  0  0  0  0  0  0
   10.7106  -19.6285   24.4563 N   0  0  0  0  0  0  0  0  0  0  0  0
   12.5207  -16.7486   22.0443 C   0  0  0  0  0  0  0  0  0  0  0  0
   12.5875  -17.1809   20.8703 O   0  0  0  0  0  0  0  0  0  0  0  0
   13.6334  -16.6249   22.7788 O   0  0  0  0  0  0  0  0  0  0  0  0
  2  1  1  0
  3  2  2  0
  4  2  1  0
  5  4  1  0
  5  6  1  1
  7  5  1  0
  7  8  2  0
  9 10  1  0
 10 12  1  0
 10 11  2  0
 13 12  1  1
 13 14  1  0
 14  7  1  0
 15 13  1  0
 15 17  1  0
 16 15  2  0
 18 17  1  0
 18 19  1  6
 20 19  1  0
 20 21  2  0
 22 21  1  0
 23 22  1  0
 24 23  2  0
 24 20  1  0
 25 18  1  0
 26 25  2  0
 27 25  1  0
M  END
$$$$
