NNH.pdb
     RDKit          3D

 27 27  0  0  1  0  0  0  0  0999 V2000
    9.2023  -15.6092   12.4814 N   0  0  0  0  0  0  0  0  0  0  0  0
    8.5343  -16.7438   12.9693 C   0  0  0  0  0  0  0  0  0  0  0  0
    7.6795  -17.3148   12.2537 O   0  0  0  0  0  0  0  0  0  0  0  0
    8.8300  -17.2718   14.3209 C   0  0  0  0  0  0  0  0  0  0  0  0
    9.7987  -16.3802   15.0736 C   0  0  2  0  0  0  0  0  0  0  0  0
   11.0965  -16.3490   14.4501 N   0  0  0  0  0  0  0  0  0  0  0  0
    9.9380  -16.9230   16.4353 C   0  0  0  0  0  0  0  0  0  0  0  0
    8.9317  -16.9994   17.1767 O   0  0  0  0  0  0  0  0  0  0  0  0
   12.0446  -20.8883   19.6431 N   0  0  0  0  0  0  0  0  0  0  0  0
   12.5467  -19.5491   19.5590 C   0  0  0  0  0  0  0  0  0  0  0  0
   13.0427  -18.9954   20.5722 O   0  0  0  0  0  0  0  0  0  0  0  0
   12.4672  -18.8515   18.2755 C   0  0  0  0  0  0  0  0  0  0  0  0
   11.2249  -17.9713   18.2443 C   0  0  2  0  0  0  0  0  0  0  0  0
   11.1854  -17.3675   16.9426 N   0  0  0  0  0  0  0  0  0  0  0  0
   11.3014  -16.8894   19.2438 C   0  0  0  0  0  0  0  0  0  0  0  0
   12.0925  -15.8988   19.1068 O   0  0  0  0  0  0  0  0  0  0  0  0
   10.4953  -16.9011   20.4078 N   0  0  0  0  0  0  0  0  0  0  0  0
   10.6579  -15.7970   21.4087 C   0  0  1  0  0  0  0  0  0  0  0  0
    9.2666  -15.2408   21.5436 C   0  0  0  0  0  0  0  0  0  0  0  0
    8.8865  -14.2517   20.5333 C   0  0  0  0  0  0  0  0  0  0  0  0
    9.5201  -13.7477   19.4353 C   0  0  0  0  0  0  0  0  0  0  0  0
    8.6576  -12.8959   18.8273 N   0  0  0  0  0  0  0  0  0  0  0  0
    7.5083  -12.8556   19.5114 C   0  0  0  0  0  0  0  0  0  0  0  0
    7.6515  -13.6798   20.5454 N   0  0  0  0  0  0  0  0  0  0  0  0
   10.9716  -16.4720   22.7160 C   0  0  0  0  0  0  0  0  0  0  0  0
   10.7513  -17.7023   22.8026 O   0  0  0  0  0  0  0  0  0  0  0  0
   11.4685  -15.8032   23.7640 O   0  0  0  0  0  0  0  0  0  0  0  0
  2  1  1  0
  3  2  2  0
  4  2  1  0
  5  4  1  0
  5  6  1  6
  7  5  1  0
  7  8  2  0
  9 10  1  0
 10 12  1  0
 10 11  2  0
 13 12  1  6
 13 14  1  0
 14  7  1  0
 15 13  1  0
 15 17  1  0
 16 15  2  0
 18 17  1  0
 18 19  1  1
 20 19  1  0
 20 21  2  0
 22 21  1  0
 23 22  1  0
 24 23  2  0
 24 20  1  0
 25 18  1  0
 26 25  2  0
 27 25  1  0
M  END
$$$$
