NNH.pdb
     RDKit          3D

 27 27  0  0  1  0  0  0  0  0999 V2000
    8.8218  -12.6672   16.8364 N   0  0  0  0  0  0  0  0  0  0  0  0
    7.9356  -13.7487   16.9643 C   0  0  0  0  0  0  0  0  0  0  0  0
    7.1646  -14.0329   16.0190 O   0  0  0  0  0  0  0  0  0  0  0  0
    7.9033  -14.5565   18.2050 C   0  0  0  0  0  0  0  0  0  0  0  0
    9.0628  -15.5317   18.2718 C   0  0  2  0  0  0  0  0  0  0  0  0
    8.9626  -16.5560   17.2646 N   0  0  0  0  0  0  0  0  0  0  0  0
    9.0356  -16.1664   19.6003 C   0  0  0  0  0  0  0  0  0  0  0  0
    7.9460  -16.5601   20.0755 O   0  0  0  0  0  0  0  0  0  0  0  0
   10.6989  -20.2170   21.6695 N   0  0  0  0  0  0  0  0  0  0  0  0
   11.2743  -19.0660   21.0392 C   0  0  0  0  0  0  0  0  0  0  0  0
   11.6750  -19.1311   19.8499 O   0  0  0  0  0  0  0  0  0  0  0  0
   11.3814  -17.8269   21.8095 C   0  0  0  0  0  0  0  0  0  0  0  0
   10.1101  -17.0054   21.6420 C   0  0  2  0  0  0  0  0  0  0  0  0
   10.2129  -16.3498   20.3691 N   0  0  0  0  0  0  0  0  0  0  0  0
    9.9963  -15.9642   22.6805 C   0  0  0  0  0  0  0  0  0  0  0  0
   10.7951  -14.9716   22.7312 O   0  0  0  0  0  0  0  0  0  0  0  0
    8.9892  -16.0194   23.6742 N   0  0  0  0  0  0  0  0  0  0  0  0
    8.9070  -14.9107   24.6798 C   0  0  1  0  0  0  0  0  0  0  0  0
    7.4967  -14.4085   24.5308 C   0  0  0  0  0  0  0  0  0  0  0  0
    7.0683  -13.4358   25.5376 C   0  0  0  0  0  0  0  0  0  0  0  0
    6.4549  -13.5557   26.7503 C   0  0  0  0  0  0  0  0  0  0  0  0
    6.3582  -12.3104   27.2784 N   0  0  0  0  0  0  0  0  0  0  0  0
    6.8927  -11.4210   26.4335 C   0  0  0  0  0  0  0  0  0  0  0  0
    7.3226  -12.1081   25.3790 N   0  0  0  0  0  0  0  0  0  0  0  0
    8.9788  -15.5743   26.0280 C   0  0  0  0  0  0  0  0  0  0  0  0
    8.5931  -16.7634   26.1121 O   0  0  0  0  0  0  0  0  0  0  0  0
    9.4344  -14.9376   27.1141 O   0  0  0  0  0  0  0  0  0  0  0  0
  2  1  1  0
  3  2  2  0
  4  2  1  0
  5  4  1  0
  5  6  1  6
  7  5  1  0
  7  8  2  0
  9 10  1  0
 10 12  1  0
 10 11  2  0
 13 12  1  1
 13 14  1  0
 14  7  1  0
 15 13  1  0
 15 17  1  0
 16 15  2  0
 18 17  1  0
 18 19  1  1
 20 19  1  0
 20 21  2  0
 22 21  1  0
 23 22  1  0
 24 23  2  0
 24 20  1  0
 25 18  1  0
 26 25  2  0
 27 25  1  0
M  END
$$$$
