NNH.pdb
     RDKit          3D

 27 27  0  0  1  0  0  0  0  0999 V2000
    8.2111  -12.1908   17.2613 N   0  0  0  0  0  0  0  0  0  0  0  0
    7.8771  -13.5545   17.2789 C   0  0  0  0  0  0  0  0  0  0  0  0
    8.0335  -14.2438   16.2448 O   0  0  0  0  0  0  0  0  0  0  0  0
    7.3421  -14.1857   18.5070 C   0  0  0  0  0  0  0  0  0  0  0  0
    8.4315  -14.8748   19.3058 C   0  0  2  0  0  0  0  0  0  0  0  0
    8.9800  -16.0058   18.6030 N   0  0  0  0  0  0  0  0  0  0  0  0
    7.8315  -15.3432   20.5663 C   0  0  0  0  0  0  0  0  0  0  0  0
    7.2457  -14.5267   21.3135 O   0  0  0  0  0  0  0  0  0  0  0  0
    4.5933  -17.9196   21.5639 N   0  0  0  0  0  0  0  0  0  0  0  0
    5.7570  -18.6978   21.2586 C   0  0  0  0  0  0  0  0  0  0  0  0
    5.7505  -19.4873   20.2809 O   0  0  0  0  0  0  0  0  0  0  0  0
    6.9397  -18.5498   22.1067 C   0  0  0  0  0  0  0  0  0  0  0  0
    7.3078  -17.0767   22.2240 C   0  0  2  0  0  0  0  0  0  0  0  0
    7.8940  -16.7015   20.9686 N   0  0  0  0  0  0  0  0  0  0  0  0
    8.3131  -16.8512   23.2794 C   0  0  0  0  0  0  0  0  0  0  0  0
    9.5529  -17.0821   23.0907 O   0  0  0  0  0  0  0  0  0  0  0  0
    7.9457  -16.3650   24.5574 N   0  0  0  0  0  0  0  0  0  0  0  0
    9.0203  -16.1309   25.5761 C   0  0  1  0  0  0  0  0  0  0  0  0
    8.4280  -15.0776   26.4723 C   0  0  0  0  0  0  0  0  0  0  0  0
    9.1760  -14.8079   27.7016 C   0  0  0  0  0  0  0  0  0  0  0  0
   10.3143  -15.3360   28.2368 C   0  0  0  0  0  0  0  0  0  0  0  0
   10.5795  -14.6512   29.3769 N   0  0  0  0  0  0  0  0  0  0  0  0
    9.6433  -13.7140   29.5664 C   0  0  0  0  0  0  0  0  0  0  0  0
    8.7941  -13.8125   28.5476 N   0  0  0  0  0  0  0  0  0  0  0  0
    9.0904  -17.3912   26.3946 C   0  0  0  0  0  0  0  0  0  0  0  0
    8.0669  -18.1123   26.4405 O   0  0  0  0  0  0  0  0  0  0  0  0
   10.1956  -17.7504   27.0596 O   0  0  0  0  0  0  0  0  0  0  0  0
  2  1  1  0
  3  2  2  0
  4  2  1  0
  5  4  1  0
  5  6  1  6
  7  5  1  0
  7  8  2  0
  9 10  1  0
 10 12  1  0
 10 11  2  0
 13 12  1  6
 13 14  1  0
 14  7  1  0
 15 13  1  0
 15 17  1  0
 16 15  2  0
 18 17  1  0
 18 19  1  1
 20 19  1  0
 20 21  2  0
 22 21  1  0
 23 22  1  0
 24 23  2  0
 24 20  1  0
 25 18  1  0
 26 25  2  0
 27 25  1  0
M  END
$$$$
