NNH.pdb
     RDKit          3D

 27 27  0  0  1  0  0  0  0  0999 V2000
    7.6849  -18.2042   15.3931 N   0  0  0  0  0  0  0  0  0  0  0  0
    6.7922  -18.6543   16.3789 C   0  0  0  0  0  0  0  0  0  0  0  0
    5.8397  -19.4015   16.0573 O   0  0  0  0  0  0  0  0  0  0  0  0
    6.9652  -18.2548   17.7943 C   0  0  0  0  0  0  0  0  0  0  0  0
    8.1077  -17.2724   17.9659 C   0  0  2  0  0  0  0  0  0  0  0  0
    9.1637  -17.5041   17.0146 N   0  0  0  0  0  0  0  0  0  0  0  0
    8.6453  -17.4469   19.3256 C   0  0  0  0  0  0  0  0  0  0  0  0
    7.8597  -17.5002   20.2993 O   0  0  0  0  0  0  0  0  0  0  0  0
   12.2168  -19.8041   22.7762 N   0  0  0  0  0  0  0  0  0  0  0  0
   12.4577  -18.5377   22.1509 C   0  0  0  0  0  0  0  0  0  0  0  0
   13.1207  -17.6535   22.7492 O   0  0  0  0  0  0  0  0  0  0  0  0
   11.9167  -18.3045   20.8119 C   0  0  0  0  0  0  0  0  0  0  0  0
   10.4795  -17.8116   20.9161 C   0  0  2  0  0  0  0  0  0  0  0  0
   10.0369  -17.5583   19.5743 N   0  0  0  0  0  0  0  0  0  0  0  0
   10.3934  -16.5460   21.6686 C   0  0  0  0  0  0  0  0  0  0  0  0
   10.6863  -15.4241   21.1379 O   0  0  0  0  0  0  0  0  0  0  0  0
    9.9791  -16.5185   23.0223 N   0  0  0  0  0  0  0  0  0  0  0  0
    9.4509  -15.2349   23.5887 C   0  0  1  0  0  0  0  0  0  0  0  0
    8.0633  -15.1451   23.0145 C   0  0  0  0  0  0  0  0  0  0  0  0
    7.9273  -14.2873   21.8358 C   0  0  0  0  0  0  0  0  0  0  0  0
    8.8170  -13.5525   21.1081 C   0  0  0  0  0  0  0  0  0  0  0  0
    8.1344  -13.0009   20.0742 N   0  0  0  0  0  0  0  0  0  0  0  0
    6.8498  -13.3704   20.1355 C   0  0  0  0  0  0  0  0  0  0  0  0
    6.7287  -14.1510   21.2056 N   0  0  0  0  0  0  0  0  0  0  0  0
    9.2827  -15.4768   25.0639 C   0  0  0  0  0  0  0  0  0  0  0  0
    8.9774  -14.4971   25.7827 O   0  0  0  0  0  0  0  0  0  0  0  0
    9.4487  -16.6867   25.6128 O   0  0  0  0  0  0  0  0  0  0  0  0
  2  1  1  0
  3  2  2  0
  4  2  1  0
  5  4  1  0
  5  6  1  6
  7  5  1  0
  7  8  2  0
  9 10  1  0
 10 12  1  0
 10 11  2  0
 13 12  1  6
 13 14  1  0
 14  7  1  0
 15 13  1  0
 15 17  1  0
 16 15  2  0
 18 17  1  0
 18 19  1  6
 20 19  1  0
 20 21  2  0
 22 21  1  0
 23 22  1  0
 24 23  2  0
 24 20  1  0
 25 18  1  0
 26 25  2  0
 27 25  1  0
M  END
$$$$
