NNH.pdb
     RDKit          3D

 27 27  0  0  1  0  0  0  0  0999 V2000
    9.2177  -18.1158   12.4461 N   0  0  0  0  0  0  0  0  0  0  0  0
    8.8533  -17.2758   13.5105 C   0  0  0  0  0  0  0  0  0  0  0  0
    8.4725  -16.1061   13.2741 O   0  0  0  0  0  0  0  0  0  0  0  0
    8.9145  -17.7584   14.9091 C   0  0  0  0  0  0  0  0  0  0  0  0
    9.8920  -16.9504   15.7407 C   0  0  2  0  0  0  0  0  0  0  0  0
   11.2501  -17.1246   15.2943 N   0  0  0  0  0  0  0  0  0  0  0  0
    9.7852  -17.4176   17.1331 C   0  0  0  0  0  0  0  0  0  0  0  0
    8.6807  -17.3635   17.7207 O   0  0  0  0  0  0  0  0  0  0  0  0
   10.0299  -20.8765   18.3869 N   0  0  0  0  0  0  0  0  0  0  0  0
   11.3854  -20.7230   18.8250 C   0  0  0  0  0  0  0  0  0  0  0  0
   12.2047  -21.6659   18.6870 O   0  0  0  0  0  0  0  0  0  0  0  0
   11.7853  -19.4528   19.4306 C   0  0  0  0  0  0  0  0  0  0  0  0
   10.7099  -18.4033   19.1826 C   0  0  2  0  0  0  0  0  0  0  0  0
   10.9013  -17.9326   17.8401 N   0  0  0  0  0  0  0  0  0  0  0  0
   10.8560  -17.2515   20.0922 C   0  0  0  0  0  0  0  0  0  0  0  0
   11.8712  -16.4812   20.0478 O   0  0  0  0  0  0  0  0  0  0  0  0
    9.8702  -16.9465   21.0617 N   0  0  0  0  0  0  0  0  0  0  0  0
   10.1136  -15.8058   22.0034 C   0  0  1  0  0  0  0  0  0  0  0  0
    8.8524  -14.9923   21.8993 C   0  0  0  0  0  0  0  0  0  0  0  0
    8.7391  -14.1631   20.6981 C   0  0  0  0  0  0  0  0  0  0  0  0
    9.5692  -13.9337   19.6401 C   0  0  0  0  0  0  0  0  0  0  0  0
    8.9120  -13.1150   18.7816 N   0  0  0  0  0  0  0  0  0  0  0  0
    7.6999  -12.8296   19.2717 C   0  0  0  0  0  0  0  0  0  0  0  0
    7.5992  -13.4677   20.4342 N   0  0  0  0  0  0  0  0  0  0  0  0
   10.1161  -16.4067   23.3826 C   0  0  0  0  0  0  0  0  0  0  0  0
    9.6827  -17.5755   23.5084 O   0  0  0  0  0  0  0  0  0  0  0  0
   10.5599  -15.7360   24.4530 O   0  0  0  0  0  0  0  0  0  0  0  0
  2  1  1  0
  3  2  2  0
  4  2  1  0
  5  4  1  0
  5  6  1  6
  7  5  1  0
  7  8  2  0
  9 10  1  0
 10 12  1  0
 10 11  2  0
 13 12  1  1
 13 14  1  0
 14  7  1  0
 15 13  1  0
 15 17  1  0
 16 15  2  0
 18 17  1  0
 18 19  1  1
 20 19  1  0
 20 21  2  0
 22 21  1  0
 23 22  1  0
 24 23  2  0
 24 20  1  0
 25 18  1  0
 26 25  2  0
 27 25  1  0
M  END
$$$$
