NNH.pdb
     RDKit          3D

 27 27  0  0  1  0  0  0  0  0999 V2000
    7.3918  -16.2922   16.4259 N   0  0  0  0  0  0  0  0  0  0  0  0
    7.1072  -17.4802   17.1183 C   0  0  0  0  0  0  0  0  0  0  0  0
    7.1958  -18.5795   16.5246 O   0  0  0  0  0  0  0  0  0  0  0  0
    6.7036  -17.4464   18.5427 C   0  0  0  0  0  0  0  0  0  0  0  0
    7.8930  -17.6134   19.4686 C   0  0  2  0  0  0  0  0  0  0  0  0
    8.6268  -18.8205   19.1890 N   0  0  0  0  0  0  0  0  0  0  0  0
    7.3792  -17.6773   20.8471 C   0  0  0  0  0  0  0  0  0  0  0  0
    6.5846  -16.7984   21.2525 O   0  0  0  0  0  0  0  0  0  0  0  0
    6.4898  -21.4820   25.5192 N   0  0  0  0  0  0  0  0  0  0  0  0
    6.4262  -20.2490   24.7921 C   0  0  0  0  0  0  0  0  0  0  0  0
    5.7958  -19.2693   25.2634 O   0  0  0  0  0  0  0  0  0  0  0  0
    7.1077  -20.1627   23.5005 C   0  0  0  0  0  0  0  0  0  0  0  0
    7.2121  -18.7055   23.0702 C   0  0  2  0  0  0  0  0  0  0  0  0
    7.7565  -18.7106   21.7420 N   0  0  0  0  0  0  0  0  0  0  0  0
    8.1359  -17.9491   23.9361 C   0  0  0  0  0  0  0  0  0  0  0  0
    9.3380  -17.7037   23.5887 O   0  0  0  0  0  0  0  0  0  0  0  0
    7.7280  -17.4578   25.1998 N   0  0  0  0  0  0  0  0  0  0  0  0
    8.6781  -16.6012   25.9814 C   0  0  1  0  0  0  0  0  0  0  0  0
    7.7914  -15.5282   26.5522 C   0  0  0  0  0  0  0  0  0  0  0  0
    7.5231  -14.3977   25.6615 C   0  0  0  0  0  0  0  0  0  0  0  0
    7.9549  -14.0729   24.4088 C   0  0  0  0  0  0  0  0  0  0  0  0
    7.3232  -12.9283   24.0484 N   0  0  0  0  0  0  0  0  0  0  0  0
    6.5121  -12.5322   25.0363 C   0  0  0  0  0  0  0  0  0  0  0  0
    6.6363  -13.4267   26.0127 N   0  0  0  0  0  0  0  0  0  0  0  0
    9.1256  -17.4427   27.1453 C   0  0  0  0  0  0  0  0  0  0  0  0
    8.5596  -18.5473   27.3158 O   0  0  0  0  0  0  0  0  0  0  0  0
   10.0919  -17.0466   27.9832 O   0  0  0  0  0  0  0  0  0  0  0  0
  2  1  1  0
  3  2  2  0
  4  2  1  0
  5  4  1  0
  5  6  1  6
  7  5  1  0
  7  8  2  0
  9 10  1  0
 10 12  1  0
 10 11  2  0
 13 12  1  1
 13 14  1  0
 14  7  1  0
 15 13  1  0
 15 17  1  0
 16 15  2  0
 18 17  1  0
 18 19  1  1
 20 19  1  0
 20 21  2  0
 22 21  1  0
 23 22  1  0
 24 23  2  0
 24 20  1  0
 25 18  1  0
 26 25  2  0
 27 25  1  0
M  END
$$$$
