NNH.pdb
     RDKit          3D

 27 27  0  0  1  0  0  0  0  0999 V2000
   16.6624  -16.3234   12.4794 N   0  0  0  0  0  0  0  0  0  0  0  0
   15.8448  -16.7337   13.5446 C   0  0  0  0  0  0  0  0  0  0  0  0
   15.9661  -17.8909   14.0085 O   0  0  0  0  0  0  0  0  0  0  0  0
   14.8409  -15.8126   14.1249 C   0  0  0  0  0  0  0  0  0  0  0  0
   14.7549  -15.9518   15.6326 C   0  0  2  0  0  0  0  0  0  0  0  0
   14.7371  -17.3314   16.0451 N   0  0  0  0  0  0  0  0  0  0  0  0
   13.5042  -15.3085   16.0689 C   0  0  0  0  0  0  0  0  0  0  0  0
   13.3202  -14.0920   15.8358 O   0  0  0  0  0  0  0  0  0  0  0  0
   10.0936  -15.9632   14.9461 N   0  0  0  0  0  0  0  0  0  0  0  0
    9.6546  -16.6867   16.1023 C   0  0  0  0  0  0  0  0  0  0  0  0
    8.7921  -17.5938   15.9903 O   0  0  0  0  0  0  0  0  0  0  0  0
   10.2315  -16.3445   17.4024 C   0  0  0  0  0  0  0  0  0  0  0  0
   11.3355  -15.3115   17.2196 C   0  0  2  0  0  0  0  0  0  0  0  0
   12.4891  -16.0260   16.7514 N   0  0  0  0  0  0  0  0  0  0  0  0
   11.6902  -14.6649   18.4969 C   0  0  0  0  0  0  0  0  0  0  0  0
   11.8739  -13.4064   18.5881 O   0  0  0  0  0  0  0  0  0  0  0  0
   11.8438  -15.4162   19.6872 N   0  0  0  0  0  0  0  0  0  0  0  0
   11.4283  -14.7985   20.9884 C   0  0  1  0  0  0  0  0  0  0  0  0
    9.9592  -15.1122   21.0702 C   0  0  0  0  0  0  0  0  0  0  0  0
    9.0817  -14.1992   20.3353 C   0  0  0  0  0  0  0  0  0  0  0  0
    9.1412  -12.8637   20.0634 C   0  0  0  0  0  0  0  0  0  0  0  0
    8.0754  -12.5636   19.2803 N   0  0  0  0  0  0  0  0  0  0  0  0
    7.3566  -13.6698   19.0560 C   0  0  0  0  0  0  0  0  0  0  0  0
    7.9709  -14.6596   19.6977 N   0  0  0  0  0  0  0  0  0  0  0  0
   12.0950  -15.6157   22.0612 C   0  0  0  0  0  0  0  0  0  0  0  0
   12.6252  -16.6989   21.7218 O   0  0  0  0  0  0  0  0  0  0  0  0
   12.1330  -15.2208   23.3400 O   0  0  0  0  0  0  0  0  0  0  0  0
  2  1  1  0
  3  2  2  0
  4  2  1  0
  5  4  1  0
  5  6  1  6
  7  5  1  0
  7  8  2  0
  9 10  1  0
 10 12  1  0
 10 11  2  0
 13 12  1  1
 13 14  1  0
 14  7  1  0
 15 13  1  0
 15 17  1  0
 16 15  2  0
 18 17  1  0
 18 19  1  1
 20 19  1  0
 20 21  2  0
 22 21  1  0
 23 22  1  0
 24 23  2  0
 24 20  1  0
 25 18  1  0
 26 25  2  0
 27 25  1  0
M  END
$$$$
