NNH.pdb
     RDKit          3D

 27 27  0  0  1  0  0  0  0  0999 V2000
    8.6041  -14.5792   12.9535 N   0  0  0  0  0  0  0  0  0  0  0  0
    8.2569  -14.1420   14.2419 C   0  0  0  0  0  0  0  0  0  0  0  0
    7.5402  -13.1239   14.3784 O   0  0  0  0  0  0  0  0  0  0  0  0
    8.7294  -14.8722   15.4404 C   0  0  0  0  0  0  0  0  0  0  0  0
    9.6039  -16.0547   15.0704 C   0  0  2  0  0  0  0  0  0  0  0  0
    8.8634  -17.0734   14.3721 N   0  0  0  0  0  0  0  0  0  0  0  0
   10.1349  -16.6246   16.3200 C   0  0  0  0  0  0  0  0  0  0  0  0
    9.4109  -17.3735   17.0151 O   0  0  0  0  0  0  0  0  0  0  0  0
   13.7546  -19.7650   17.8397 N   0  0  0  0  0  0  0  0  0  0  0  0
   13.5543  -18.5905   17.0439 C   0  0  0  0  0  0  0  0  0  0  0  0
   13.5102  -18.6762   15.7909 O   0  0  0  0  0  0  0  0  0  0  0  0
   13.4041  -17.3031   17.7222 C   0  0  0  0  0  0  0  0  0  0  0  0
   11.9271  -17.0119   17.9525 C   0  0  2  0  0  0  0  0  0  0  0  0
   11.4521  -16.3526   16.7693 N   0  0  0  0  0  0  0  0  0  0  0  0
   11.7258  -16.0981   19.0927 C   0  0  0  0  0  0  0  0  0  0  0  0
   12.2542  -14.9382   19.1293 O   0  0  0  0  0  0  0  0  0  0  0  0
   10.9319  -16.4690   20.2049 N   0  0  0  0  0  0  0  0  0  0  0  0
   10.8001  -15.5091   21.3488 C   0  0  1  0  0  0  0  0  0  0  0  0
    9.3126  -15.3277   21.4822 C   0  0  0  0  0  0  0  0  0  0  0  0
    8.7099  -14.3813   20.5417 C   0  0  0  0  0  0  0  0  0  0  0  0
    9.2131  -13.6362   19.5156 C   0  0  0  0  0  0  0  0  0  0  0  0
    8.1721  -12.9808   18.9447 N   0  0  0  0  0  0  0  0  0  0  0  0
    7.0385  -13.2958   19.5822 C   0  0  0  0  0  0  0  0  0  0  0  0
    7.3694  -14.1458   20.5501 N   0  0  0  0  0  0  0  0  0  0  0  0
   11.2447  -16.2649   22.5711 C   0  0  0  0  0  0  0  0  0  0  0  0
   11.4093  -17.5021   22.4619 O   0  0  0  0  0  0  0  0  0  0  0  0
   11.4628  -15.6594   23.7452 O   0  0  0  0  0  0  0  0  0  0  0  0
  2  1  1  0
  3  2  2  0
  4  2  1  0
  5  4  1  0
  5  6  1  1
  7  5  1  0
  7  8  2  0
  9 10  1  0
 10 12  1  0
 10 11  2  0
 13 12  1  6
 13 14  1  0
 14  7  1  0
 15 13  1  0
 15 17  1  0
 16 15  2  0
 18 17  1  0
 18 19  1  1
 20 19  1  0
 20 21  2  0
 22 21  1  0
 23 22  1  0
 24 23  2  0
 24 20  1  0
 25 18  1  0
 26 25  2  0
 27 25  1  0
M  END
$$$$
