ECA.pdb
     RDKit          3D

 21 20  0  0  1  0  0  0  0  0999 V2000
    9.1415  -15.2481   20.3868 N   0  0  0  0  0  0  0  0  0  0  0  0
    8.5794  -15.9207   21.5776 C   0  0  1  0  0  0  0  0  0  0  0  0
    9.3533  -17.1826   21.7788 C   0  0  0  0  0  0  0  0  0  0  0  0
    8.8525  -18.3003   20.9416 C   0  0  0  0  0  0  0  0  0  0  0  0
    9.5993  -19.5397   21.2113 C   0  0  0  0  0  0  0  0  0  0  0  0
   10.4684  -20.0412   20.4829 O   0  0  0  0  0  0  0  0  0  0  0  0
    8.7020  -15.0460   22.7526 C   0  0  0  0  0  0  0  0  0  0  0  0
    9.7654  -14.4313   22.9712 O   0  0  0  0  0  0  0  0  0  0  0  0
    9.2875  -20.2063   22.4104 O   0  0  0  0  0  0  0  0  0  0  0  0
    7.6407  -14.8584   23.6800 N   0  0  0  0  0  0  0  0  0  0  0  0
    7.7290  -14.0035   24.8443 C   0  0  1  0  0  0  0  0  0  0  0  0
    6.3127  -13.7494   25.3128 C   0  0  0  0  0  0  0  0  0  0  0  0
    6.2344  -12.6578   26.7296 S   0  0  0  0  0  0  0  0  0  0  0  0
    8.5479  -14.6536   25.9000 C   0  0  0  0  0  0  0  0  0  0  0  0
    8.5686  -15.9227   26.0246 O   0  0  0  0  0  0  0  0  0  0  0  0
   10.5707  -13.4818   28.8802 C   0  0  0  0  0  0  0  0  0  0  0  0
   10.1742  -14.4609   27.8165 C   0  0  2  0  0  0  0  0  0  0  0  0
    9.3275  -13.9032   26.7977 N   0  0  0  0  0  0  0  0  0  0  0  0
    9.4721  -15.5903   28.4813 C   0  0  0  0  0  0  0  0  0  0  0  0
   10.1079  -16.6050   29.1575 O   0  0  0  0  0  0  0  0  0  0  0  0
    8.1954  -15.6581   28.4438 O   0  0  0  0  0  0  0  0  0  0  0  0
  2  1  1  6
  3  2  1  0
  3  4  1  0
  4  5  1  0
  5  9  1  0
  5  6  2  0
  7  2  1  0
  7 10  1  0
  8  7  2  0
 11 10  1  0
 11 12  1  1
 13 12  1  0
 14 18  1  0
 14 11  1  0
 15 14  2  0
 17 18  1  0
 17 16  1  1
 19 17  1  0
 20 19  1  0
 21 19  2  0
M  END
$$$$
