ECA.pdb
     RDKit          3D

 21 20  0  0  1  0  0  0  0  0999 V2000
    8.9646  -17.5699   19.4194 N   0  0  0  0  0  0  0  0  0  0  0  0
    9.2615  -17.8878   20.8326 C   0  0  1  0  0  0  0  0  0  0  0  0
   10.7128  -17.6099   21.0525 C   0  0  0  0  0  0  0  0  0  0  0  0
   11.1213  -16.2737   20.5536 C   0  0  0  0  0  0  0  0  0  0  0  0
   12.5273  -15.9919   20.8851 C   0  0  0  0  0  0  0  0  0  0  0  0
   13.4748  -15.9668   20.0854 O   0  0  0  0  0  0  0  0  0  0  0  0
    8.4356  -17.0549   21.7185 C   0  0  0  0  0  0  0  0  0  0  0  0
    7.7939  -16.0897   21.2569 O   0  0  0  0  0  0  0  0  0  0  0  0
   12.8076  -15.7285   22.2384 O   0  0  0  0  0  0  0  0  0  0  0  0
    8.3267  -17.2991   23.1149 N   0  0  0  0  0  0  0  0  0  0  0  0
    7.4022  -16.6048   23.9853 C   0  0  1  0  0  0  0  0  0  0  0  0
    6.7476  -17.6529   24.8587 C   0  0  0  0  0  0  0  0  0  0  0  0
    5.7591  -16.9445   26.1725 S   0  0  0  0  0  0  0  0  0  0  0  0
    8.1214  -15.5872   24.7945 C   0  0  0  0  0  0  0  0  0  0  0  0
    9.3139  -15.7936   25.1970 O   0  0  0  0  0  0  0  0  0  0  0  0
    7.1914  -12.2352   26.3359 C   0  0  0  0  0  0  0  0  0  0  0  0
    8.0843  -13.4071   26.0597 C   0  0  2  0  0  0  0  0  0  0  0  0
    7.5227  -14.3650   25.1470 N   0  0  0  0  0  0  0  0  0  0  0  0
    8.3738  -14.0705   27.3584 C   0  0  0  0  0  0  0  0  0  0  0  0
    8.0194  -15.3642   27.6615 O   0  0  0  0  0  0  0  0  0  0  0  0
    8.9902  -13.4300   28.2781 O   0  0  0  0  0  0  0  0  0  0  0  0
  2  1  1  6
  3  2  1  0
  3  4  1  0
  4  5  1  0
  5  9  1  0
  5  6  2  0
  7  2  1  0
  7 10  1  0
  8  7  2  0
 11 10  1  0
 11 12  1  1
 13 12  1  0
 14 18  1  0
 14 11  1  0
 15 14  2  0
 17 18  1  0
 17 16  1  1
 19 17  1  0
 20 19  1  0
 21 19  2  0
M  END
$$$$
