ECA.pdb
     RDKit          3D

 21 20  0  0  1  0  0  0  0  0999 V2000
    9.5389  -18.6808   21.9332 N   0  0  0  0  0  0  0  0  0  0  0  0
   10.5645  -17.6216   21.8225 C   0  0  1  0  0  0  0  0  0  0  0  0
   10.6275  -17.2159   20.3861 C   0  0  0  0  0  0  0  0  0  0  0  0
   10.3966  -18.3520   19.4603 C   0  0  0  0  0  0  0  0  0  0  0  0
   10.4894  -17.9186   18.0568 C   0  0  0  0  0  0  0  0  0  0  0  0
    9.5355  -17.6536   17.3101 O   0  0  0  0  0  0  0  0  0  0  0  0
   10.1964  -16.4765   22.6675 C   0  0  0  0  0  0  0  0  0  0  0  0
   10.8521  -15.4166   22.6114 O   0  0  0  0  0  0  0  0  0  0  0  0
   11.7871  -17.7982   17.5266 O   0  0  0  0  0  0  0  0  0  0  0  0
    9.1000  -16.5150   23.5719 N   0  0  0  0  0  0  0  0  0  0  0  0
    8.7706  -15.4424   24.4859 C   0  0  1  0  0  0  0  0  0  0  0  0
    7.3178  -15.6214   24.8700 C   0  0  0  0  0  0  0  0  0  0  0  0
    6.7242  -14.3342   25.9636 S   0  0  0  0  0  0  0  0  0  0  0  0
    9.6617  -15.4858   25.6740 C   0  0  0  0  0  0  0  0  0  0  0  0
   10.3210  -16.5393   25.9603 O   0  0  0  0  0  0  0  0  0  0  0  0
   10.5837  -13.0541   28.4528 C   0  0  0  0  0  0  0  0  0  0  0  0
   10.6365  -14.3511   27.7031 C   0  0  2  0  0  0  0  0  0  0  0  0
    9.8141  -14.3768   26.5246 N   0  0  0  0  0  0  0  0  0  0  0  0
   10.2044  -15.4280   28.6327 C   0  0  0  0  0  0  0  0  0  0  0  0
    9.0289  -16.1309   28.5082 O   0  0  0  0  0  0  0  0  0  0  0  0
   10.9458  -15.7504   29.6238 O   0  0  0  0  0  0  0  0  0  0  0  0
  2  1  1  6
  3  2  1  0
  3  4  1  0
  4  5  1  0
  5  9  1  0
  5  6  2  0
  7  2  1  0
  7 10  1  0
  8  7  2  0
 11 10  1  0
 11 12  1  1
 13 12  1  0
 14 18  1  0
 14 11  1  0
 15 14  2  0
 17 18  1  0
 17 16  1  1
 19 17  1  0
 20 19  1  0
 21 19  2  0
M  END
$$$$
