ECA.pdb
     RDKit          3D

 21 20  0  0  1  0  0  0  0  0999 V2000
    7.7115  -14.5987   20.1596 N   0  0  0  0  0  0  0  0  0  0  0  0
    8.1393  -15.3993   21.3267 C   0  0  1  0  0  0  0  0  0  0  0  0
    9.4587  -16.0103   20.9838 C   0  0  0  0  0  0  0  0  0  0  0  0
    9.3300  -17.1787   20.0787 C   0  0  0  0  0  0  0  0  0  0  0  0
   10.6396  -17.8029   19.8303 C   0  0  0  0  0  0  0  0  0  0  0  0
   11.7168  -17.4687   20.3456 O   0  0  0  0  0  0  0  0  0  0  0  0
    8.2613  -14.5358   22.5101 C   0  0  0  0  0  0  0  0  0  0  0  0
    9.0300  -13.5533   22.4955 O   0  0  0  0  0  0  0  0  0  0  0  0
   10.6554  -18.8770   18.9217 O   0  0  0  0  0  0  0  0  0  0  0  0
    7.5274  -14.7688   23.7053 N   0  0  0  0  0  0  0  0  0  0  0  0
    7.6407  -13.9506   24.8936 C   0  0  1  0  0  0  0  0  0  0  0  0
    6.2518  -13.8351   25.4832 C   0  0  0  0  0  0  0  0  0  0  0  0
    6.1912  -12.7613   26.9144 S   0  0  0  0  0  0  0  0  0  0  0  0
    8.5949  -14.5645   25.8529 C   0  0  0  0  0  0  0  0  0  0  0  0
    8.8005  -15.8231   25.8577 O   0  0  0  0  0  0  0  0  0  0  0  0
   10.6396  -13.3656   28.8116 C   0  0  0  0  0  0  0  0  0  0  0  0
   10.3036  -14.2983   27.6872 C   0  0  2  0  0  0  0  0  0  0  0  0
    9.3048  -13.7900   26.7872 N   0  0  0  0  0  0  0  0  0  0  0  0
    9.8289  -15.5742   28.2851 C   0  0  0  0  0  0  0  0  0  0  0  0
   10.6586  -16.5403   28.8042 O   0  0  0  0  0  0  0  0  0  0  0  0
    8.5761  -15.8262   28.3384 O   0  0  0  0  0  0  0  0  0  0  0  0
  2  1  1  6
  3  2  1  0
  3  4  1  0
  4  5  1  0
  5  9  1  0
  5  6  2  0
  7  2  1  0
  7 10  1  0
  8  7  2  0
 11 10  1  0
 11 12  1  1
 13 12  1  0
 14 18  1  0
 14 11  1  0
 15 14  2  0
 17 18  1  0
 17 16  1  1
 19 17  1  0
 20 19  1  0
 21 19  2  0
M  END
$$$$
