ECA.pdb
     RDKit          3D

 21 20  0  0  1  0  0  0  0  0999 V2000
    7.6973  -13.8607   20.1299 N   0  0  0  0  0  0  0  0  0  0  0  0
    7.7095  -14.7888   21.2809 C   0  0  1  0  0  0  0  0  0  0  0  0
    8.7406  -15.8318   20.9966 C   0  0  0  0  0  0  0  0  0  0  0  0
    8.2829  -16.8320   20.0011 C   0  0  0  0  0  0  0  0  0  0  0  0
    9.2835  -17.8964   19.8214 C   0  0  0  0  0  0  0  0  0  0  0  0
    9.3198  -18.9747   20.4327 O   0  0  0  0  0  0  0  0  0  0  0  0
    8.0402  -14.0569   22.5121 C   0  0  0  0  0  0  0  0  0  0  0  0
    8.9905  -13.2488   22.5277 O   0  0  0  0  0  0  0  0  0  0  0  0
   10.2857  -17.6540   18.8641 O   0  0  0  0  0  0  0  0  0  0  0  0
    7.3121  -14.2270   23.7214 N   0  0  0  0  0  0  0  0  0  0  0  0
    7.6404  -13.5569   24.9614 C   0  0  1  0  0  0  0  0  0  0  0  0
    6.3313  -13.2438   25.6530 C   0  0  0  0  0  0  0  0  0  0  0  0
    6.5565  -12.4334   27.2334 S   0  0  0  0  0  0  0  0  0  0  0  0
    8.5110  -14.4212   25.7995 C   0  0  0  0  0  0  0  0  0  0  0  0
    8.3992  -15.6912   25.7673 O   0  0  0  0  0  0  0  0  0  0  0  0
   11.1547  -13.8201   28.4643 C   0  0  0  0  0  0  0  0  0  0  0  0
   10.3494  -14.6488   27.5093 C   0  0  2  0  0  0  0  0  0  0  0  0
    9.4860  -13.8797   26.6556 N   0  0  0  0  0  0  0  0  0  0  0  0
    9.5348  -15.5991   28.3117 C   0  0  0  0  0  0  0  0  0  0  0  0
   10.0543  -16.6633   29.0108 O   0  0  0  0  0  0  0  0  0  0  0  0
    8.2663  -15.4510   28.3808 O   0  0  0  0  0  0  0  0  0  0  0  0
  2  1  1  6
  3  2  1  0
  3  4  1  0
  4  5  1  0
  5  9  1  0
  5  6  2  0
  7  2  1  0
  7 10  1  0
  8  7  2  0
 11 10  1  0
 11 12  1  1
 13 12  1  0
 14 18  1  0
 14 11  1  0
 15 14  2  0
 17 18  1  0
 17 16  1  1
 19 17  1  0
 20 19  1  0
 21 19  2  0
M  END
$$$$
