ECA.pdb
     RDKit          3D

 21 20  0  0  1  0  0  0  0  0999 V2000
    9.5097  -16.0978   20.2047 N   0  0  0  0  0  0  0  0  0  0  0  0
    9.0719  -16.6349   21.5109 C   0  0  1  0  0  0  0  0  0  0  0  0
    9.9551  -17.7970   21.8291 C   0  0  0  0  0  0  0  0  0  0  0  0
   11.1477  -17.8669   20.9493 C   0  0  0  0  0  0  0  0  0  0  0  0
   12.3661  -18.1374   21.7294 C   0  0  0  0  0  0  0  0  0  0  0  0
   13.1945  -17.2944   22.1048 O   0  0  0  0  0  0  0  0  0  0  0  0
    9.1901  -15.5972   22.5452 C   0  0  0  0  0  0  0  0  0  0  0  0
   10.0352  -14.6868   22.4296 O   0  0  0  0  0  0  0  0  0  0  0  0
   12.5997  -19.4813   22.0738 O   0  0  0  0  0  0  0  0  0  0  0  0
    8.3671  -15.5763   23.7045 N   0  0  0  0  0  0  0  0  0  0  0  0
    8.4511  -14.5634   24.7347 C   0  0  1  0  0  0  0  0  0  0  0  0
    7.0436  -14.3308   25.2397 C   0  0  0  0  0  0  0  0  0  0  0  0
    6.4159  -15.7016   26.2050 S   0  0  0  0  0  0  0  0  0  0  0  0
    9.3580  -15.0098   25.8237 C   0  0  0  0  0  0  0  0  0  0  0  0
    9.8306  -16.1943   25.8384 O   0  0  0  0  0  0  0  0  0  0  0  0
   10.7946  -13.4226   28.9701 C   0  0  0  0  0  0  0  0  0  0  0  0
   10.6193  -14.5041   27.9470 C   0  0  2  0  0  0  0  0  0  0  0  0
    9.7299  -14.1524   26.8740 N   0  0  0  0  0  0  0  0  0  0  0  0
   10.0997  -15.7084   28.6471 C   0  0  0  0  0  0  0  0  0  0  0  0
   10.8783  -16.5706   29.3831 O   0  0  0  0  0  0  0  0  0  0  0  0
    8.8547  -15.9948   28.5846 O   0  0  0  0  0  0  0  0  0  0  0  0
  2  1  1  6
  3  2  1  0
  3  4  1  0
  4  5  1  0
  5  9  1  0
  5  6  2  0
  7  2  1  0
  7 10  1  0
  8  7  2  0
 11 10  1  0
 11 12  1  1
 13 12  1  0
 14 18  1  0
 14 11  1  0
 15 14  2  0
 17 18  1  0
 17 16  1  1
 19 17  1  0
 20 19  1  0
 21 19  2  0
M  END
$$$$
