ECA.pdb
     RDKit          3D

 21 20  0  0  1  0  0  0  0  0999 V2000
    8.2599  -14.2162   13.5546 N   0  0  0  0  0  0  0  0  0  0  0  0
    7.9851  -15.0272   14.7601 C   0  0  1  0  0  0  0  0  0  0  0  0
    8.4881  -16.4073   14.4882 C   0  0  0  0  0  0  0  0  0  0  0  0
    9.9529  -16.4469   14.2564 C   0  0  0  0  0  0  0  0  0  0  0  0
   10.3979  -17.8067   13.9114 C   0  0  0  0  0  0  0  0  0  0  0  0
    9.6633  -18.7686   13.6414 O   0  0  0  0  0  0  0  0  0  0  0  0
    8.6717  -14.4464   15.9228 C   0  0  0  0  0  0  0  0  0  0  0  0
    9.8198  -13.9729   15.8038 O   0  0  0  0  0  0  0  0  0  0  0  0
   11.7884  -18.0205   13.8899 O   0  0  0  0  0  0  0  0  0  0  0  0
    8.0782  -14.3945   17.2138 N   0  0  0  0  0  0  0  0  0  0  0  0
    8.7211  -13.8161   18.3742 C   0  0  1  0  0  0  0  0  0  0  0  0
    7.6478  -13.6272   19.4241 C   0  0  0  0  0  0  0  0  0  0  0  0
    8.3105  -13.1524   21.0180 S   0  0  0  0  0  0  0  0  0  0  0  0
    9.8102  -14.7044   18.8563 C   0  0  0  0  0  0  0  0  0  0  0  0
    9.6555  -15.9698   18.8935 O   0  0  0  0  0  0  0  0  0  0  0  0
   13.4522  -14.2817   19.7996 C   0  0  0  0  0  0  0  0  0  0  0  0
   12.1265  -14.9812   19.8119 C   0  0  2  0  0  0  0  0  0  0  0  0
   11.0461  -14.1914   19.2878 N   0  0  0  0  0  0  0  0  0  0  0  0
   11.8278  -15.3583   21.2187 C   0  0  0  0  0  0  0  0  0  0  0  0
   10.6684  -15.0247   21.8788 O   0  0  0  0  0  0  0  0  0  0  0  0
   12.6785  -16.0363   21.8915 O   0  0  0  0  0  0  0  0  0  0  0  0
  2  1  1  6
  3  2  1  0
  3  4  1  0
  4  5  1  0
  5  9  1  0
  5  6  2  0
  7  2  1  0
  7 10  1  0
  8  7  2  0
 11 10  1  0
 11 12  1  1
 13 12  1  0
 14 18  1  0
 14 11  1  0
 15 14  2  0
 17 18  1  0
 17 16  1  1
 19 17  1  0
 20 19  1  0
 21 19  2  0
M  END
$$$$
