ECA.pdb
     RDKit          3D

 21 20  0  0  1  0  0  0  0  0999 V2000
    8.0269  -12.7744   19.6847 N   0  0  0  0  0  0  0  0  0  0  0  0
    7.1921  -13.4969   20.6682 C   0  0  1  0  0  0  0  0  0  0  0  0
    6.9404  -14.8620   20.1160 C   0  0  0  0  0  0  0  0  0  0  0  0
    8.1637  -15.4865   19.5551 C   0  0  0  0  0  0  0  0  0  0  0  0
    7.8990  -16.8649   19.1120 C   0  0  0  0  0  0  0  0  0  0  0  0
    6.7882  -17.4135   19.0580 O   0  0  0  0  0  0  0  0  0  0  0  0
    7.8948  -13.5818   21.9566 C   0  0  0  0  0  0  0  0  0  0  0  0
    9.1393  -13.5073   22.0006 O   0  0  0  0  0  0  0  0  0  0  0  0
    9.0195  -17.6179   18.7159 O   0  0  0  0  0  0  0  0  0  0  0  0
    7.2098  -13.7493   23.1912 N   0  0  0  0  0  0  0  0  0  0  0  0
    7.8643  -13.7558   24.4820 C   0  0  1  0  0  0  0  0  0  0  0  0
    6.9451  -13.0372   25.4457 C   0  0  0  0  0  0  0  0  0  0  0  0
    7.5335  -13.0869   27.1357 S   0  0  0  0  0  0  0  0  0  0  0  0
    8.1328  -15.1510   24.9166 C   0  0  0  0  0  0  0  0  0  0  0  0
    7.1938  -16.0123   24.9716 O   0  0  0  0  0  0  0  0  0  0  0  0
   11.0849  -17.3905   25.3347 C   0  0  0  0  0  0  0  0  0  0  0  0
    9.7460  -16.8849   25.7804 C   0  0  2  0  0  0  0  0  0  0  0  0
    9.4221  -15.5762   25.2821 N   0  0  0  0  0  0  0  0  0  0  0  0
    9.7431  -16.8640   27.2671 C   0  0  0  0  0  0  0  0  0  0  0  0
    9.9597  -17.9694   28.0560 O   0  0  0  0  0  0  0  0  0  0  0  0
    9.5291  -15.7670   27.8890 O   0  0  0  0  0  0  0  0  0  0  0  0
  2  1  1  6
  3  2  1  0
  3  4  1  0
  4  5  1  0
  5  9  1  0
  5  6  2  0
  7  2  1  0
  7 10  1  0
  8  7  2  0
 11 10  1  0
 11 12  1  1
 13 12  1  0
 14 18  1  0
 14 11  1  0
 15 14  2  0
 17 18  1  0
 17 16  1  6
 19 17  1  0
 20 19  1  0
 21 19  2  0
M  END
$$$$
