ECA.pdb
     RDKit          3D

 21 20  0  0  1  0  0  0  0  0999 V2000
    7.5330  -13.8883   19.6907 N   0  0  0  0  0  0  0  0  0  0  0  0
    6.9489  -14.5163   20.8952 C   0  0  1  0  0  0  0  0  0  0  0  0
    6.6169  -15.9289   20.5401 C   0  0  0  0  0  0  0  0  0  0  0  0
    7.7550  -16.6432   19.9112 C   0  0  0  0  0  0  0  0  0  0  0  0
    7.3724  -18.0101   19.5222 C   0  0  0  0  0  0  0  0  0  0  0  0
    7.9740  -19.0509   19.8264 O   0  0  0  0  0  0  0  0  0  0  0  0
    7.9158  -14.4750   22.0016 C   0  0  0  0  0  0  0  0  0  0  0  0
    9.1396  -14.4184   21.7660 O   0  0  0  0  0  0  0  0  0  0  0  0
    6.2148  -18.1319   18.7320 O   0  0  0  0  0  0  0  0  0  0  0  0
    7.5173  -14.4967   23.3663 N   0  0  0  0  0  0  0  0  0  0  0  0
    8.4357  -14.3635   24.4767 C   0  0  1  0  0  0  0  0  0  0  0  0
    7.7105  -13.5927   25.5584 C   0  0  0  0  0  0  0  0  0  0  0  0
    5.9771  -14.0248   25.6767 S   0  0  0  0  0  0  0  0  0  0  0  0
    8.8666  -15.7035   24.9527 C   0  0  0  0  0  0  0  0  0  0  0  0
    8.0288  -16.6580   25.0690 O   0  0  0  0  0  0  0  0  0  0  0  0
   12.1769  -17.4329   25.4815 C   0  0  0  0  0  0  0  0  0  0  0  0
   10.7056  -17.2542   25.7064 C   0  0  2  0  0  0  0  0  0  0  0  0
   10.2042  -15.9727   25.2915 N   0  0  0  0  0  0  0  0  0  0  0  0
   10.4443  -17.4426   27.1579 C   0  0  0  0  0  0  0  0  0  0  0  0
   10.6865  -18.6109   27.8416 O   0  0  0  0  0  0  0  0  0  0  0  0
    9.9636  -16.4799   27.8494 O   0  0  0  0  0  0  0  0  0  0  0  0
  2  1  1  6
  3  2  1  0
  3  4  1  0
  4  5  1  0
  5  9  1  0
  5  6  2  0
  7  2  1  0
  7 10  1  0
  8  7  2  0
 11 10  1  0
 11 12  1  1
 13 12  1  0
 14 18  1  0
 14 11  1  0
 15 14  2  0
 17 18  1  0
 17 16  1  1
 19 17  1  0
 20 19  1  0
 21 19  2  0
M  END
$$$$
