ECA.pdb
     RDKit          3D

 21 20  0  0  1  0  0  0  0  0999 V2000
    7.8531  -14.9995   20.4886 N   0  0  0  0  0  0  0  0  0  0  0  0
    7.8940  -15.8091   21.7251 C   0  0  1  0  0  0  0  0  0  0  0  0
    8.9076  -16.8863   21.5147 C   0  0  0  0  0  0  0  0  0  0  0  0
    9.9365  -16.5154   20.5123 C   0  0  0  0  0  0  0  0  0  0  0  0
   10.8574  -17.6354   20.2595 C   0  0  0  0  0  0  0  0  0  0  0  0
   11.9906  -17.7722   20.7443 O   0  0  0  0  0  0  0  0  0  0  0  0
    8.2688  -14.9625   22.8669 C   0  0  0  0  0  0  0  0  0  0  0  0
    9.4112  -14.4657   22.9337 O   0  0  0  0  0  0  0  0  0  0  0  0
   10.3959  -18.6361   19.3849 O   0  0  0  0  0  0  0  0  0  0  0  0
    7.3708  -14.6719   23.9303 N   0  0  0  0  0  0  0  0  0  0  0  0
    7.7226  -13.8795   25.0890 C   0  0  1  0  0  0  0  0  0  0  0  0
    6.4272  -13.4978   25.7717 C   0  0  0  0  0  0  0  0  0  0  0  0
    6.6784  -12.4629   27.2108 S   0  0  0  0  0  0  0  0  0  0  0  0
    8.6116  -14.6546   25.9927 C   0  0  0  0  0  0  0  0  0  0  0  0
    8.5793  -15.9294   26.0083 O   0  0  0  0  0  0  0  0  0  0  0  0
   11.0782  -13.7869   28.7501 C   0  0  0  0  0  0  0  0  0  0  0  0
   10.3843  -14.6996   27.7845 C   0  0  2  0  0  0  0  0  0  0  0  0
    9.5177  -14.0204   26.8607 N   0  0  0  0  0  0  0  0  0  0  0  0
    9.5944  -15.6791   28.5766 C   0  0  0  0  0  0  0  0  0  0  0  0
   10.1468  -16.6842   29.3354 O   0  0  0  0  0  0  0  0  0  0  0  0
    8.3169  -15.6157   28.5779 O   0  0  0  0  0  0  0  0  0  0  0  0
  2  1  1  6
  3  2  1  0
  3  4  1  0
  4  5  1  0
  5  9  1  0
  5  6  2  0
  7  2  1  0
  7 10  1  0
  8  7  2  0
 11 10  1  0
 11 12  1  1
 13 12  1  0
 14 18  1  0
 14 11  1  0
 15 14  2  0
 17 18  1  0
 17 16  1  1
 19 17  1  0
 20 19  1  0
 21 19  2  0
M  END
$$$$
