ECA.pdb
     RDKit          3D

 21 20  0  0  1  0  0  0  0  0999 V2000
    7.9030  -17.1142   21.9337 N   0  0  0  0  0  0  0  0  0  0  0  0
    9.0470  -16.8264   22.8250 C   0  0  1  0  0  0  0  0  0  0  0  0
   10.2813  -16.8575   21.9839 C   0  0  0  0  0  0  0  0  0  0  0  0
   10.2509  -17.9340   20.9634 C   0  0  0  0  0  0  0  0  0  0  0  0
   11.4697  -17.9161   20.1385 C   0  0  0  0  0  0  0  0  0  0  0  0
   11.5142  -17.9780   18.9007 O   0  0  0  0  0  0  0  0  0  0  0  0
    8.8786  -15.5052   23.4471 C   0  0  0  0  0  0  0  0  0  0  0  0
    9.7110  -14.6000   23.2370 O   0  0  0  0  0  0  0  0  0  0  0  0
   12.6900  -17.8195   20.8320 O   0  0  0  0  0  0  0  0  0  0  0  0
    7.7842  -15.1962   24.3006 N   0  0  0  0  0  0  0  0  0  0  0  0
    7.6232  -13.9275   24.9780 C   0  0  1  0  0  0  0  0  0  0  0  0
    6.2457  -13.9341   25.6044 C   0  0  0  0  0  0  0  0  0  0  0  0
    5.8478  -12.3937   26.4253 S   0  0  0  0  0  0  0  0  0  0  0  0
    8.6890  -13.7490   25.9979 C   0  0  0  0  0  0  0  0  0  0  0  0
    9.2225  -12.6075   26.1949 O   0  0  0  0  0  0  0  0  0  0  0  0
    9.5034  -13.9393   29.0521 C   0  0  0  0  0  0  0  0  0  0  0  0
   10.0599  -14.7010   27.8871 C   0  0  2  0  0  0  0  0  0  0  0  0
    9.1495  -14.8216   26.7814 N   0  0  0  0  0  0  0  0  0  0  0  0
   10.4346  -16.0561   28.3707 C   0  0  0  0  0  0  0  0  0  0  0  0
   11.3250  -16.2935   29.3915 O   0  0  0  0  0  0  0  0  0  0  0  0
    9.9174  -17.0924   27.8281 O   0  0  0  0  0  0  0  0  0  0  0  0
  2  1  1  6
  3  2  1  0
  3  4  1  0
  4  5  1  0
  5  9  1  0
  5  6  2  0
  7  2  1  0
  7 10  1  0
  8  7  2  0
 11 10  1  0
 11 12  1  1
 13 12  1  0
 14 18  1  0
 14 11  1  0
 15 14  2  0
 17 18  1  0
 17 16  1  1
 19 17  1  0
 20 19  1  0
 21 19  2  0
M  END
$$$$
