ECA.pdb
     RDKit          3D

 21 20  0  0  1  0  0  0  0  0999 V2000
   -2.7360  -26.1751   26.1213 N   0  0  0  0  0  0  0  0  0  0  0  0
   -2.6275  -26.4755   27.5650 C   0  0  1  0  0  0  0  0  0  0  0  0
   -1.1740  -26.6210   27.8779 C   0  0  0  0  0  0  0  0  0  0  0  0
   -0.5486  -27.7658   27.1713 C   0  0  0  0  0  0  0  0  0  0  0  0
    0.8913  -27.8468   27.4652 C   0  0  0  0  0  0  0  0  0  0  0  0
    1.5415  -27.0472   28.1549 O   0  0  0  0  0  0  0  0  0  0  0  0
   -3.2187  -25.3828   28.3507 C   0  0  0  0  0  0  0  0  0  0  0  0
   -3.2195  -25.4331   29.5972 O   0  0  0  0  0  0  0  0  0  0  0  0
    1.5810  -28.9376   26.9051 O   0  0  0  0  0  0  0  0  0  0  0  0
   -3.8069  -24.2382   27.7463 N   0  0  0  0  0  0  0  0  0  0  0  0
   -4.3689  -23.1320   28.4912 C   0  0  1  0  0  0  0  0  0  0  0  0
   -4.0379  -21.8705   27.7238 C   0  0  0  0  0  0  0  0  0  0  0  0
   -4.6977  -20.3951   28.4937 S   0  0  0  0  0  0  0  0  0  0  0  0
   -5.8356  -23.3094   28.6493 C   0  0  0  0  0  0  0  0  0  0  0  0
   -6.5876  -23.4840   27.6341 O   0  0  0  0  0  0  0  0  0  0  0  0
   -8.1763  -24.2001   31.4157 C   0  0  0  0  0  0  0  0  0  0  0  0
   -7.8575  -23.4693   30.1463 C   0  0  2  0  0  0  0  0  0  0  0  0
   -6.4503  -23.2924   29.9136 N   0  0  0  0  0  0  0  0  0  0  0  0
   -8.5201  -22.1400   30.2118 C   0  0  0  0  0  0  0  0  0  0  0  0
   -9.8329  -21.9131   29.8706 O   0  0  0  0  0  0  0  0  0  0  0  0
   -7.8605  -21.1174   30.6054 O   0  0  0  0  0  0  0  0  0  0  0  0
  2  1  1  6
  3  2  1  0
  3  4  1  0
  4  5  1  0
  5  9  1  0
  5  6  2  0
  7  2  1  0
  7 10  1  0
  8  7  2  0
 11 10  1  0
 11 12  1  6
 13 12  1  0
 14 18  1  0
 14 11  1  0
 15 14  2  0
 17 18  1  0
 17 16  1  1
 19 17  1  0
 20 19  1  0
 21 19  2  0
M  END
$$$$
