AHS.pdb
     RDKit          3D

 22 22  0  0  1  0  0  0  0  0999 V2000
   22.0750  -16.6428  -17.4683 C   0  0  0  0  0  0  0  0  0  0  0  0
   22.1667  -18.1582  -17.5152 C   0  0  2  0  0  0  0  0  0  0  0  0
   20.9406  -18.6798  -18.0300 N   0  0  0  0  0  0  0  0  0  0  0  0
   22.3950  -18.6637  -16.1370 C   0  0  0  0  0  0  0  0  0  0  0  0
   22.3693  -17.8402  -15.1810 O   0  0  0  0  0  0  0  0  0  0  0  0
   22.6403  -20.0705  -15.9094 N   0  0  0  0  0  0  0  0  0  0  0  0
   22.8782  -20.5579  -14.5914 C   0  0  1  0  0  0  0  0  0  0  0  0
   21.9965  -21.6320  -14.0961 C   0  0  0  0  0  0  0  0  0  0  0  0
   20.5885  -21.2013  -13.9444 C   0  0  0  0  0  0  0  0  0  0  0  0
   19.8997  -20.7937  -12.8246 C   0  0  0  0  0  0  0  0  0  0  0  0
   18.6156  -20.5135  -13.1622 N   0  0  0  0  0  0  0  0  0  0  0  0
   18.4783  -20.7365  -14.4749 C   0  0  0  0  0  0  0  0  0  0  0  0
   19.6562  -21.1492  -14.9520 N   0  0  0  0  0  0  0  0  0  0  0  0
   24.3345  -20.8713  -14.3905 C   0  0  0  0  0  0  0  0  0  0  0  0
   24.8556  -21.6928  -15.1769 O   0  0  0  0  0  0  0  0  0  0  0  0
   28.7292  -19.5781  -13.1109 O   0  0  0  0  0  0  0  0  0  0  0  0
   27.3839  -19.3329  -13.2996 C   0  0  0  0  0  0  0  0  0  0  0  0
   26.5425  -20.5794  -13.2106 C   0  0  2  0  0  0  0  0  0  0  0  0
   25.1315  -20.2992  -13.3810 N   0  0  0  0  0  0  0  0  0  0  0  0
   26.7979  -21.2578  -11.9146 C   0  0  0  0  0  0  0  0  0  0  0  0
   25.9186  -21.3674  -11.0266 O   0  0  0  0  0  0  0  0  0  0  0  0
   28.0473  -21.7984  -11.6525 O   0  0  0  0  0  0  0  0  0  0  0  0
  2  1  1  1
  2  4  1  0
  3  2  1  0
  4  5  2  0
  4  6  1  0
  6  7  1  0
  7  8  1  6
  7 14  1  0
  9 10  2  0
  9  8  1  0
 11 10  1  0
 12 13  2  0
 12 11  1  0
 13  9  1  0
 14 19  1  0
 15 14  2  0
 17 16  1  0
 18 20  1  0
 18 17  1  1
 19 18  1  0
 20 22  1  0
 21 20  2  0
M  END
$$$$
