AHS.pdb
     RDKit          3D

 22 22  0  0  1  0  0  0  0  0999 V2000
   19.4159   -8.4579  -12.6743 C   0  0  0  0  0  0  0  0  0  0  0  0
   18.3204   -9.4468  -12.3152 C   0  0  2  0  0  0  0  0  0  0  0  0
   17.9238  -10.1462  -13.4959 N   0  0  0  0  0  0  0  0  0  0  0  0
   17.1661   -8.6960  -11.7576 C   0  0  0  0  0  0  0  0  0  0  0  0
   16.3793   -8.1187  -12.5578 O   0  0  0  0  0  0  0  0  0  0  0  0
   16.9599   -8.6357  -10.3275 N   0  0  0  0  0  0  0  0  0  0  0  0
   15.7957   -8.0121   -9.7917 C   0  0  1  0  0  0  0  0  0  0  0  0
   14.9320   -8.8270   -8.9162 C   0  0  0  0  0  0  0  0  0  0  0  0
   14.2762   -9.9461   -9.6295 C   0  0  0  0  0  0  0  0  0  0  0  0
   13.0006  -10.0513  -10.1356 C   0  0  0  0  0  0  0  0  0  0  0  0
   12.8361  -11.2780  -10.6920 N   0  0  0  0  0  0  0  0  0  0  0  0
   13.9836  -11.9517  -10.5473 C   0  0  0  0  0  0  0  0  0  0  0  0
   14.8527  -11.1608   -9.9112 N   0  0  0  0  0  0  0  0  0  0  0  0
   16.1325   -6.6782   -9.1862 C   0  0  0  0  0  0  0  0  0  0  0  0
   17.0002   -6.6627   -8.2853 O   0  0  0  0  0  0  0  0  0  0  0  0
   16.5966   -1.9418   -9.5867 O   0  0  0  0  0  0  0  0  0  0  0  0
   16.2722   -3.1844  -10.0930 C   0  0  0  0  0  0  0  0  0  0  0  0
   15.8962   -4.1743   -9.0213 C   0  0  2  0  0  0  0  0  0  0  0  0
   15.5337   -5.4641   -9.5721 N   0  0  0  0  0  0  0  0  0  0  0  0
   14.7926   -3.6176   -8.1983 C   0  0  0  0  0  0  0  0  0  0  0  0
   14.9981   -2.8642   -7.2165 O   0  0  0  0  0  0  0  0  0  0  0  0
   13.4771   -3.9277   -8.5066 O   0  0  0  0  0  0  0  0  0  0  0  0
  2  1  1  6
  2  4  1  0
  3  2  1  0
  4  5  2  0
  4  6  1  0
  6  7  1  0
  7  8  1  1
  7 14  1  0
  9 10  2  0
  9  8  1  0
 11 10  1  0
 12 13  2  0
 12 11  1  0
 13  9  1  0
 14 19  1  0
 15 14  2  0
 17 16  1  0
 18 20  1  0
 18 17  1  6
 19 18  1  0
 20 22  1  0
 21 20  2  0
M  END
$$$$
