AHS.pdb
     RDKit          3D

 22 22  0  0  1  0  0  0  0  0999 V2000
   24.9000  -11.7520  -15.3974 C   0  0  0  0  0  0  0  0  0  0  0  0
   23.4306  -12.1355  -15.3751 C   0  0  2  0  0  0  0  0  0  0  0  0
   23.2183  -13.2062  -16.2965 N   0  0  0  0  0  0  0  0  0  0  0  0
   22.6245  -10.9535  -15.7754 C   0  0  0  0  0  0  0  0  0  0  0  0
   22.7850  -10.4787  -16.9336 O   0  0  0  0  0  0  0  0  0  0  0  0
   21.6804  -10.3692  -14.8488 N   0  0  0  0  0  0  0  0  0  0  0  0
   20.8756   -9.2604  -15.2414 C   0  0  1  0  0  0  0  0  0  0  0  0
   19.4115   -9.4211  -15.1558 C   0  0  0  0  0  0  0  0  0  0  0  0
   18.8522  -10.2289  -16.2629 C   0  0  0  0  0  0  0  0  0  0  0  0
   19.4762  -10.8036  -17.3468 C   0  0  0  0  0  0  0  0  0  0  0  0
   18.5536  -11.4364  -18.1149 N   0  0  0  0  0  0  0  0  0  0  0  0
   17.3571  -11.2729  -17.5377 C   0  0  0  0  0  0  0  0  0  0  0  0
   17.5266  -10.5500  -16.4268 N   0  0  0  0  0  0  0  0  0  0  0  0
   21.3537   -7.9934  -14.5893 C   0  0  0  0  0  0  0  0  0  0  0  0
   21.6134   -8.0432  -13.3666 O   0  0  0  0  0  0  0  0  0  0  0  0
   24.0301   -5.6971  -16.0757 O   0  0  0  0  0  0  0  0  0  0  0  0
   23.0378   -4.8707  -15.5878 C   0  0  0  0  0  0  0  0  0  0  0  0
   22.0839   -5.5821  -14.6640 C   0  0  2  0  0  0  0  0  0  0  0  0
   21.5227   -6.7725  -15.2694 N   0  0  0  0  0  0  0  0  0  0  0  0
   21.0128   -4.6447  -14.2406 C   0  0  0  0  0  0  0  0  0  0  0  0
   19.8490   -4.6968  -14.7057 O   0  0  0  0  0  0  0  0  0  0  0  0
   21.2849   -3.6662  -13.2969 O   0  0  0  0  0  0  0  0  0  0  0  0
  2  1  1  6
  2  4  1  0
  3  2  1  0
  4  5  2  0
  4  6  1  0
  6  7  1  0
  7  8  1  1
  7 14  1  0
  9 10  2  0
  9  8  1  0
 11 10  1  0
 12 13  2  0
 12 11  1  0
 13  9  1  0
 14 19  1  0
 15 14  2  0
 17 16  1  0
 18 20  1  0
 18 17  1  6
 19 18  1  0
 20 22  1  0
 21 20  2  0
M  END
$$$$
