AHS.pdb
     RDKit          3D

 22 22  0  0  1  0  0  0  0  0999 V2000
   27.1276  -16.2552  -16.1796 C   0  0  0  0  0  0  0  0  0  0  0  0
   27.4311  -17.7422  -16.1179 C   0  0  2  0  0  0  0  0  0  0  0  0
   28.1303  -18.1209  -17.3046 N   0  0  0  0  0  0  0  0  0  0  0  0
   26.1483  -18.4858  -16.0249 C   0  0  0  0  0  0  0  0  0  0  0  0
   25.4939  -18.6937  -17.0837 O   0  0  0  0  0  0  0  0  0  0  0  0
   25.6711  -18.9557  -14.7432 N   0  0  0  0  0  0  0  0  0  0  0  0
   24.4757  -19.7269  -14.6564 C   0  0  1  0  0  0  0  0  0  0  0  0
   24.3313  -20.6258  -13.4955 C   0  0  0  0  0  0  0  0  0  0  0  0
   23.1570  -21.5209  -13.5993 C   0  0  0  0  0  0  0  0  0  0  0  0
   22.9175  -22.5778  -14.4478 C   0  0  0  0  0  0  0  0  0  0  0  0
   21.6887  -23.0930  -14.1907 N   0  0  0  0  0  0  0  0  0  0  0  0
   21.1455  -22.3819  -13.1953 C   0  0  0  0  0  0  0  0  0  0  0  0
   22.0187  -21.4371  -12.8346 N   0  0  0  0  0  0  0  0  0  0  0  0
   23.2640  -18.8631  -14.8687 C   0  0  0  0  0  0  0  0  0  0  0  0
   23.1550  -17.8455  -14.1493 O   0  0  0  0  0  0  0  0  0  0  0  0
   19.6818  -17.2382  -17.6332 O   0  0  0  0  0  0  0  0  0  0  0  0
   20.7777  -18.0569  -17.4484 C   0  0  0  0  0  0  0  0  0  0  0  0
   21.0760  -18.3182  -15.9950 C   0  0  2  0  0  0  0  0  0  0  0  0
   22.2607  -19.1329  -15.8185 N   0  0  0  0  0  0  0  0  0  0  0  0
   19.8952  -18.9495  -15.3529 C   0  0  0  0  0  0  0  0  0  0  0  0
   19.6594  -20.1787  -15.4366 O   0  0  0  0  0  0  0  0  0  0  0  0
   19.0053  -18.1719  -14.6281 O   0  0  0  0  0  0  0  0  0  0  0  0
  2  1  1  6
  2  4  1  0
  3  2  1  0
  4  5  2  0
  4  6  1  0
  6  7  1  0
  7  8  1  1
  7 14  1  0
  9 10  2  0
  9  8  1  0
 11 10  1  0
 12 13  2  0
 12 11  1  0
 13  9  1  0
 14 19  1  0
 15 14  2  0
 17 16  1  0
 18 20  1  0
 18 17  1  6
 19 18  1  0
 20 22  1  0
 21 20  2  0
M  END
$$$$
