AHS.pdb
     RDKit          3D

 22 22  0  0  1  0  0  0  0  0999 V2000
   29.8574  -28.0911  -17.3794 C   0  0  0  0  0  0  0  0  0  0  0  0
   28.7096  -27.1224  -17.6052 C   0  0  2  0  0  0  0  0  0  0  0  0
   29.0071  -25.8912  -16.9450 N   0  0  0  0  0  0  0  0  0  0  0  0
   27.4695  -27.7148  -17.0407 C   0  0  0  0  0  0  0  0  0  0  0  0
   27.2020  -27.5080  -15.8249 O   0  0  0  0  0  0  0  0  0  0  0  0
   26.5967  -28.5089  -17.8767 N   0  0  0  0  0  0  0  0  0  0  0  0
   25.3507  -28.9837  -17.3736 C   0  0  1  0  0  0  0  0  0  0  0  0
   24.1258  -28.3212  -17.8608 C   0  0  0  0  0  0  0  0  0  0  0  0
   23.9262  -26.9744  -17.2801 C   0  0  0  0  0  0  0  0  0  0  0  0
   23.7314  -26.5903  -15.9728 C   0  0  0  0  0  0  0  0  0  0  0  0
   23.5731  -25.2437  -15.9173 N   0  0  0  0  0  0  0  0  0  0  0  0
   23.6636  -24.7679  -17.1652 C   0  0  0  0  0  0  0  0  0  0  0  0
   23.8752  -25.7986  -17.9888 N   0  0  0  0  0  0  0  0  0  0  0  0
   25.2702  -30.4817  -17.4680 C   0  0  0  0  0  0  0  0  0  0  0  0
   25.6695  -31.0092  -18.5296 O   0  0  0  0  0  0  0  0  0  0  0  0
   23.7259  -32.5783  -14.3429 O   0  0  0  0  0  0  0  0  0  0  0  0
   24.4137  -33.4006  -15.2125 C   0  0  0  0  0  0  0  0  0  0  0  0
   24.6802  -32.7520  -16.5459 C   0  0  2  0  0  0  0  0  0  0  0  0
   24.7775  -31.3104  -16.4423 N   0  0  0  0  0  0  0  0  0  0  0  0
   23.6208  -33.1463  -17.5089 C   0  0  0  0  0  0  0  0  0  0  0  0
   22.9139  -32.3054  -18.1146 O   0  0  0  0  0  0  0  0  0  0  0  0
   23.3850  -34.4882  -17.7650 O   0  0  0  0  0  0  0  0  0  0  0  0
  2  1  1  1
  2  4  1  0
  3  2  1  0
  4  5  2  0
  4  6  1  0
  6  7  1  0
  7  8  1  6
  7 14  1  0
  9 10  2  0
  9  8  1  0
 11 10  1  0
 12 13  2  0
 12 11  1  0
 13  9  1  0
 14 19  1  0
 15 14  2  0
 17 16  1  0
 18 20  1  0
 18 17  1  1
 19 18  1  0
 20 22  1  0
 21 20  2  0
M  END
$$$$
