AHS.pdb
     RDKit          3D

 22 22  0  0  1  0  0  0  0  0999 V2000
   21.6993  -11.2385  -18.9178 C   0  0  0  0  0  0  0  0  0  0  0  0
   21.2697  -11.6832  -17.5305 C   0  0  2  0  0  0  0  0  0  0  0  0
   21.0059  -13.0868  -17.5560 N   0  0  0  0  0  0  0  0  0  0  0  0
   20.0388  -10.9416  -17.1534 C   0  0  0  0  0  0  0  0  0  0  0  0
   19.0767  -10.9159  -17.9698 O   0  0  0  0  0  0  0  0  0  0  0  0
   19.9575  -10.2684  -15.8761 N   0  0  0  0  0  0  0  0  0  0  0  0
   18.7535   -9.6179  -15.4783 C   0  0  1  0  0  0  0  0  0  0  0  0
   17.9896  -10.2233  -14.3709 C   0  0  0  0  0  0  0  0  0  0  0  0
   17.3935  -11.5308  -14.7260 C   0  0  0  0  0  0  0  0  0  0  0  0
   16.3341  -11.8294  -15.5524 C   0  0  0  0  0  0  0  0  0  0  0  0
   16.1312  -13.1711  -15.5586 N   0  0  0  0  0  0  0  0  0  0  0  0
   17.0422  -13.7278  -14.7512 C   0  0  0  0  0  0  0  0  0  0  0  0
   17.8032  -12.7517  -14.2476 N   0  0  0  0  0  0  0  0  0  0  0  0
   18.9796   -8.1448  -15.2825 C   0  0  0  0  0  0  0  0  0  0  0  0
   19.9217   -7.8064  -14.5324 O   0  0  0  0  0  0  0  0  0  0  0  0
   17.1858   -5.1586  -17.6840 O   0  0  0  0  0  0  0  0  0  0  0  0
   18.3643   -4.9580  -16.9937 C   0  0  0  0  0  0  0  0  0  0  0  0
   18.4215   -5.7220  -15.6966 C   0  0  2  0  0  0  0  0  0  0  0  0
   18.2007   -7.1408  -15.8883 N   0  0  0  0  0  0  0  0  0  0  0  0
   17.4349   -5.1537  -14.7433 C   0  0  0  0  0  0  0  0  0  0  0  0
   16.5111   -5.8383  -14.2415 O   0  0  0  0  0  0  0  0  0  0  0  0
   17.5169   -3.8188  -14.3785 O   0  0  0  0  0  0  0  0  0  0  0  0
  2  1  1  6
  2  4  1  0
  3  2  1  0
  4  5  2  0
  4  6  1  0
  6  7  1  0
  7  8  1  1
  7 14  1  0
  9 10  2  0
  9  8  1  0
 11 10  1  0
 12 13  2  0
 12 11  1  0
 13  9  1  0
 14 19  1  0
 15 14  2  0
 17 16  1  0
 18 20  1  0
 18 17  1  6
 19 18  1  0
 20 22  1  0
 21 20  2  0
M  END
$$$$
