AHS.pdb
     RDKit          3D

 22 22  0  0  1  0  0  0  0  0999 V2000
   21.4515  -11.6332  -16.4860 C   0  0  0  0  0  0  0  0  0  0  0  0
   19.9405  -11.6529  -16.3327 C   0  0  2  0  0  0  0  0  0  0  0  0
   19.3614  -12.1779  -17.5283 N   0  0  0  0  0  0  0  0  0  0  0  0
   19.4673  -10.2628  -16.1069 C   0  0  0  0  0  0  0  0  0  0  0  0
   19.2925   -9.5154  -17.1086 O   0  0  0  0  0  0  0  0  0  0  0  0
   19.2163   -9.7889  -14.7639 N   0  0  0  0  0  0  0  0  0  0  0  0
   18.7251   -8.4693  -14.5441 C   0  0  1  0  0  0  0  0  0  0  0  0
   17.3747   -8.3360  -13.9650 C   0  0  0  0  0  0  0  0  0  0  0  0
   16.3201   -8.9386  -14.8111 C   0  0  0  0  0  0  0  0  0  0  0  0
   15.8323   -8.5464  -16.0369 C   0  0  0  0  0  0  0  0  0  0  0  0
   14.8471   -9.3959  -16.4229 N   0  0  0  0  0  0  0  0  0  0  0  0
   14.7016  -10.3186  -15.4641 C   0  0  0  0  0  0  0  0  0  0  0  0
   15.5807  -10.0521  -14.4938 N   0  0  0  0  0  0  0  0  0  0  0  0
   19.7442   -7.6307  -13.8245 C   0  0  0  0  0  0  0  0  0  0  0  0
   20.5107   -8.2198  -13.0307 O   0  0  0  0  0  0  0  0  0  0  0  0
   23.4346   -5.2980  -14.0805 O   0  0  0  0  0  0  0  0  0  0  0  0
   22.3047   -6.0555  -14.3153 C   0  0  0  0  0  0  0  0  0  0  0  0
   21.0756   -5.4981  -13.6459 C   0  0  2  0  0  0  0  0  0  0  0  0
   19.8807   -6.2398  -13.9930 N   0  0  0  0  0  0  0  0  0  0  0  0
   20.9305   -4.0617  -13.9939 C   0  0  0  0  0  0  0  0  0  0  0  0
   20.2356   -3.6698  -14.9619 O   0  0  0  0  0  0  0  0  0  0  0  0
   21.5777   -3.0986  -13.2353 O   0  0  0  0  0  0  0  0  0  0  0  0
  2  1  1  6
  2  4  1  0
  3  2  1  0
  4  5  2  0
  4  6  1  0
  6  7  1  0
  7  8  1  1
  7 14  1  0
  9 10  2  0
  9  8  1  0
 11 10  1  0
 12 13  2  0
 12 11  1  0
 13  9  1  0
 14 19  1  0
 15 14  2  0
 17 16  1  0
 18 20  1  0
 18 17  1  6
 19 18  1  0
 20 22  1  0
 21 20  2  0
M  END
$$$$
