AHS.pdb
     RDKit          3D

 22 22  0  0  1  0  0  0  0  0999 V2000
   20.7640  -10.4225  -20.9555 C   0  0  0  0  0  0  0  0  0  0  0  0
   21.5755  -10.5694  -19.6800 C   0  0  2  0  0  0  0  0  0  0  0  0
   21.5533  -11.9385  -19.2731 N   0  0  0  0  0  0  0  0  0  0  0  0
   20.9655   -9.7167  -18.6274 C   0  0  0  0  0  0  0  0  0  0  0  0
   20.0751   -8.8880  -18.9640 O   0  0  0  0  0  0  0  0  0  0  0  0
   21.3914   -9.8431  -17.2513 N   0  0  0  0  0  0  0  0  0  0  0  0
   20.7560   -9.0837  -16.2262 C   0  0  1  0  0  0  0  0  0  0  0  0
   20.2068   -9.8247  -15.0748 C   0  0  0  0  0  0  0  0  0  0  0  0
   18.9407  -10.5249  -15.3877 C   0  0  0  0  0  0  0  0  0  0  0  0
   18.1917  -10.5329  -16.5425 C   0  0  0  0  0  0  0  0  0  0  0  0
   17.0904  -11.3046  -16.3602 N   0  0  0  0  0  0  0  0  0  0  0  0
   17.1279  -11.7851  -15.1114 C   0  0  0  0  0  0  0  0  0  0  0  0
   18.2338  -11.3226  -14.5210 N   0  0  0  0  0  0  0  0  0  0  0  0
   21.6161   -7.9247  -15.8064 C   0  0  0  0  0  0  0  0  0  0  0  0
   22.8421   -8.1393  -15.6811 O   0  0  0  0  0  0  0  0  0  0  0  0
   22.5528   -3.2414  -15.6215 O   0  0  0  0  0  0  0  0  0  0  0  0
   21.8135   -4.3290  -16.0411 C   0  0  0  0  0  0  0  0  0  0  0  0
   21.9541   -5.5204  -15.1298 C   0  0  2  0  0  0  0  0  0  0  0  0
   21.1243   -6.6307  -15.5505 N   0  0  0  0  0  0  0  0  0  0  0  0
   21.6378   -5.1176  -13.7359 C   0  0  0  0  0  0  0  0  0  0  0  0
   20.4935   -5.2503  -13.2393 O   0  0  0  0  0  0  0  0  0  0  0  0
   22.6277   -4.5719  -12.9333 O   0  0  0  0  0  0  0  0  0  0  0  0
  2  1  1  6
  2  4  1  0
  3  2  1  0
  4  5  2  0
  4  6  1  0
  6  7  1  0
  7  8  1  1
  7 14  1  0
  9 10  2  0
  9  8  1  0
 11 10  1  0
 12 13  2  0
 12 11  1  0
 13  9  1  0
 14 19  1  0
 15 14  2  0
 17 16  1  0
 18 20  1  0
 18 17  1  6
 19 18  1  0
 20 22  1  0
 21 20  2  0
M  END
$$$$
