AHS.pdb
     RDKit          3D

 22 22  0  0  1  0  0  0  0  0999 V2000
   26.8868  -15.5908  -17.5159 C   0  0  0  0  0  0  0  0  0  0  0  0
   27.5585  -16.7181  -18.2808 C   0  0  2  0  0  0  0  0  0  0  0  0
   26.9460  -16.8337  -19.5660 N   0  0  0  0  0  0  0  0  0  0  0  0
   27.3822  -17.9810  -17.5185 C   0  0  0  0  0  0  0  0  0  0  0  0
   27.8435  -18.0465  -16.3456 O   0  0  0  0  0  0  0  0  0  0  0  0
   26.6954  -19.1032  -18.1187 N   0  0  0  0  0  0  0  0  0  0  0  0
   26.5155  -20.3138  -17.3885 C   0  0  1  0  0  0  0  0  0  0  0  0
   25.1370  -20.8184  -17.2411 C   0  0  0  0  0  0  0  0  0  0  0  0
   24.3038  -19.9753  -16.3545 C   0  0  0  0  0  0  0  0  0  0  0  0
   24.6192  -18.8238  -15.6696 C   0  0  0  0  0  0  0  0  0  0  0  0
   23.5376  -18.4092  -14.9627 N   0  0  0  0  0  0  0  0  0  0  0  0
   22.5434  -19.2768  -15.1868 C   0  0  0  0  0  0  0  0  0  0  0  0
   22.9938  -20.2192  -16.0201 N   0  0  0  0  0  0  0  0  0  0  0  0
   27.4676  -21.3744  -17.8660 C   0  0  0  0  0  0  0  0  0  0  0  0
   27.6884  -21.4319  -19.0959 O   0  0  0  0  0  0  0  0  0  0  0  0
   30.8129  -24.7839  -16.7992 O   0  0  0  0  0  0  0  0  0  0  0  0
   29.9068  -23.8354  -16.3689 C   0  0  0  0  0  0  0  0  0  0  0  0
   29.0371  -23.3085  -17.4805 C   0  0  2  0  0  0  0  0  0  0  0  0
   28.1145  -22.2924  -17.0171 N   0  0  0  0  0  0  0  0  0  0  0  0
   28.3110  -24.4361  -18.1180 C   0  0  0  0  0  0  0  0  0  0  0  0
   27.1207  -24.7158  -17.8373 O   0  0  0  0  0  0  0  0  0  0  0  0
   28.9512  -25.2241  -19.0620 O   0  0  0  0  0  0  0  0  0  0  0  0
  2  1  1  1
  2  4  1  0
  3  2  1  0
  4  5  2  0
  4  6  1  0
  6  7  1  0
  7  8  1  6
  7 14  1  0
  9 10  2  0
  9  8  1  0
 11 10  1  0
 12 13  2  0
 12 11  1  0
 13  9  1  0
 14 19  1  0
 15 14  2  0
 17 16  1  0
 18 20  1  0
 18 17  1  1
 19 18  1  0
 20 22  1  0
 21 20  2  0
M  END
$$$$
