AHS.pdb
     RDKit          3D

 22 22  0  0  1  0  0  0  0  0999 V2000
   18.0787  -11.9071  -16.5005 C   0  0  0  0  0  0  0  0  0  0  0  0
   17.7779  -10.8051  -15.4996 C   0  0  2  0  0  0  0  0  0  0  0  0
   16.8373   -9.8991  -16.0783 N   0  0  0  0  0  0  0  0  0  0  0  0
   19.0421  -10.0916  -15.1836 C   0  0  0  0  0  0  0  0  0  0  0  0
   20.0114  -10.7572  -14.7250 O   0  0  0  0  0  0  0  0  0  0  0  0
   19.1469   -8.6658  -15.4013 N   0  0  0  0  0  0  0  0  0  0  0  0
   20.4160   -8.0636  -15.6414 C   0  0  1  0  0  0  0  0  0  0  0  0
   21.2417   -8.6305  -16.7246 C   0  0  0  0  0  0  0  0  0  0  0  0
   22.5958   -8.0364  -16.7917 C   0  0  0  0  0  0  0  0  0  0  0  0
   23.1762   -7.0580  -16.0170 C   0  0  0  0  0  0  0  0  0  0  0  0
   24.4357   -6.8187  -16.4618 N   0  0  0  0  0  0  0  0  0  0  0  0
   24.6635   -7.6271  -17.5041 C   0  0  0  0  0  0  0  0  0  0  0  0
   23.5657   -8.3607  -17.7090 N   0  0  0  0  0  0  0  0  0  0  0  0
   20.2906   -6.5687  -15.7368 C   0  0  0  0  0  0  0  0  0  0  0  0
   19.5811   -6.1130  -16.6607 O   0  0  0  0  0  0  0  0  0  0  0  0
   21.1786   -2.1729  -13.7367 O   0  0  0  0  0  0  0  0  0  0  0  0
   21.3940   -3.5364  -13.7402 C   0  0  0  0  0  0  0  0  0  0  0  0
   20.7280   -4.2323  -14.8985 C   0  0  2  0  0  0  0  0  0  0  0  0
   20.9185   -5.6677  -14.8561 N   0  0  0  0  0  0  0  0  0  0  0  0
   21.2344   -3.6655  -16.1743 C   0  0  0  0  0  0  0  0  0  0  0  0
   22.3400   -3.9957  -16.6665 O   0  0  0  0  0  0  0  0  0  0  0  0
   20.4749   -2.7346  -16.8660 O   0  0  0  0  0  0  0  0  0  0  0  0
  2  1  1  6
  2  4  1  0
  3  2  1  0
  4  5  2  0
  4  6  1  0
  6  7  1  0
  7  8  1  6
  7 14  1  0
  9 10  2  0
  9  8  1  0
 11 10  1  0
 12 13  2  0
 12 11  1  0
 13  9  1  0
 14 19  1  0
 15 14  2  0
 17 16  1  0
 18 20  1  0
 18 17  1  1
 19 18  1  0
 20 22  1  0
 21 20  2  0
M  END
$$$$
