AHS.pdb
     RDKit          3D

 22 22  0  0  1  0  0  0  0  0999 V2000
   18.8974  -17.5806  -18.5409 C   0  0  0  0  0  0  0  0  0  0  0  0
   20.1647  -17.7349  -19.3637 C   0  0  2  0  0  0  0  0  0  0  0  0
   20.2095  -19.0581  -19.9000 N   0  0  0  0  0  0  0  0  0  0  0  0
   21.3365  -17.5051  -18.4798 C   0  0  0  0  0  0  0  0  0  0  0  0
   21.3606  -16.4619  -17.7700 O   0  0  0  0  0  0  0  0  0  0  0  0
   22.4189  -18.4633  -18.4428 N   0  0  0  0  0  0  0  0  0  0  0  0
   23.5583  -18.2339  -17.6179 C   0  0  1  0  0  0  0  0  0  0  0  0
   23.8206  -19.2048  -16.5386 C   0  0  0  0  0  0  0  0  0  0  0  0
   22.7504  -19.2372  -15.5165 C   0  0  0  0  0  0  0  0  0  0  0  0
   21.6080  -18.4780  -15.4018 C   0  0  0  0  0  0  0  0  0  0  0  0
   20.9310  -18.8481  -14.2855 N   0  0  0  0  0  0  0  0  0  0  0  0
   21.6236  -19.8271  -13.6909 C   0  0  0  0  0  0  0  0  0  0  0  0
   22.7160  -20.0669  -14.4221 N   0  0  0  0  0  0  0  0  0  0  0  0
   24.7778  -17.9591  -18.4526 C   0  0  0  0  0  0  0  0  0  0  0  0
   24.8273  -18.4907  -19.5838 O   0  0  0  0  0  0  0  0  0  0  0  0
   29.1732  -15.7992  -18.8550 O   0  0  0  0  0  0  0  0  0  0  0  0
   27.9741  -15.9302  -18.1839 C   0  0  0  0  0  0  0  0  0  0  0  0
   27.0625  -16.9552  -18.8067 C   0  0  2  0  0  0  0  0  0  0  0  0
   25.8508  -17.1482  -18.0367 N   0  0  0  0  0  0  0  0  0  0  0  0
   27.7970  -18.2351  -18.9732 C   0  0  0  0  0  0  0  0  0  0  0  0
   28.5273  -18.4687  -19.9660 O   0  0  0  0  0  0  0  0  0  0  0  0
   27.6874  -19.2247  -18.0085 O   0  0  0  0  0  0  0  0  0  0  0  0
  2  1  1  1
  2  4  1  0
  3  2  1  0
  4  5  2  0
  4  6  1  0
  6  7  1  0
  7  8  1  6
  7 14  1  0
  9 10  2  0
  9  8  1  0
 11 10  1  0
 12 13  2  0
 12 11  1  0
 13  9  1  0
 14 19  1  0
 15 14  2  0
 17 16  1  0
 18 20  1  0
 18 17  1  1
 19 18  1  0
 20 22  1  0
 21 20  2  0
M  END
$$$$
