AHS.pdb
     RDKit          3D

 22 22  0  0  1  0  0  0  0  0999 V2000
   21.4915  -10.2724  -17.7392 C   0  0  0  0  0  0  0  0  0  0  0  0
   20.5052  -10.6010  -16.6319 C   0  0  2  0  0  0  0  0  0  0  0  0
   19.3004  -11.0964  -17.2180 N   0  0  0  0  0  0  0  0  0  0  0  0
   20.2238   -9.3617  -15.8625 C   0  0  0  0  0  0  0  0  0  0  0  0
   19.5423   -8.4527  -16.4122 O   0  0  0  0  0  0  0  0  0  0  0  0
   20.7253   -9.2125  -14.5144 N   0  0  0  0  0  0  0  0  0  0  0  0
   20.3775   -8.0698  -13.7370 C   0  0  1  0  0  0  0  0  0  0  0  0
   20.1010   -8.2833  -12.3037 C   0  0  0  0  0  0  0  0  0  0  0  0
   18.7714   -8.8840  -12.0540 C   0  0  0  0  0  0  0  0  0  0  0  0
   17.7626   -9.2062  -12.9332 C   0  0  0  0  0  0  0  0  0  0  0  0
   16.7113   -9.7187  -12.2450 N   0  0  0  0  0  0  0  0  0  0  0  0
   17.0354   -9.7265  -10.9463 C   0  0  0  0  0  0  0  0  0  0  0  0
   18.2688   -9.2277  -10.8225 N   0  0  0  0  0  0  0  0  0  0  0  0
   21.3461   -6.9451  -13.9741 C   0  0  0  0  0  0  0  0  0  0  0  0
   22.5472   -7.2516  -14.1420 O   0  0  0  0  0  0  0  0  0  0  0  0
   23.0566   -3.6915  -16.3858 O   0  0  0  0  0  0  0  0  0  0  0  0
   22.3438   -4.7601  -15.8803 C   0  0  0  0  0  0  0  0  0  0  0  0
   21.8582   -4.5282  -14.4732 C   0  0  2  0  0  0  0  0  0  0  0  0
   20.9804   -5.5863  -14.0169 N   0  0  0  0  0  0  0  0  0  0  0  0
   21.1854   -3.2067  -14.3931 C   0  0  0  0  0  0  0  0  0  0  0  0
   19.9680   -3.0535  -14.6539 O   0  0  0  0  0  0  0  0  0  0  0  0
   21.9089   -2.0851  -14.0182 O   0  0  0  0  0  0  0  0  0  0  0  0
  2  1  1  6
  2  4  1  0
  3  2  1  0
  4  5  2  0
  4  6  1  0
  6  7  1  0
  7  8  1  1
  7 14  1  0
  9 10  2  0
  9  8  1  0
 11 10  1  0
 12 13  2  0
 12 11  1  0
 13  9  1  0
 14 19  1  0
 15 14  2  0
 17 16  1  0
 18 20  1  0
 18 17  1  6
 19 18  1  0
 20 22  1  0
 21 20  2  0
M  END
$$$$
