AHS.pdb
     RDKit          3D

 22 22  0  0  1  0  0  0  0  0999 V2000
   18.5519  -15.3047  -19.4508 C   0  0  0  0  0  0  0  0  0  0  0  0
   19.2026  -15.6912  -18.1339 C   0  0  2  0  0  0  0  0  0  0  0  0
   18.9251  -17.0668  -17.8673 N   0  0  0  0  0  0  0  0  0  0  0  0
   18.6360  -14.8404  -17.0558 C   0  0  0  0  0  0  0  0  0  0  0  0
   17.4177  -14.9780  -16.7569 O   0  0  0  0  0  0  0  0  0  0  0  0
   19.4728  -13.8795  -16.3718 N   0  0  0  0  0  0  0  0  0  0  0  0
   18.9641  -13.1365  -15.2671 C   0  0  1  0  0  0  0  0  0  0  0  0
   19.5214  -13.4357  -13.9343 C   0  0  0  0  0  0  0  0  0  0  0  0
   19.3274  -14.8461  -13.5292 C   0  0  0  0  0  0  0  0  0  0  0  0
   20.2322  -15.8803  -13.4497 C   0  0  0  0  0  0  0  0  0  0  0  0
   19.5935  -17.0082  -13.0482 N   0  0  0  0  0  0  0  0  0  0  0  0
   18.3011  -16.7078  -12.8724 C   0  0  0  0  0  0  0  0  0  0  0  0
   18.1324  -15.4135  -13.1586 N   0  0  0  0  0  0  0  0  0  0  0  0
   18.9565  -11.6641  -15.5695 C   0  0  0  0  0  0  0  0  0  0  0  0
   20.0208  -11.1628  -15.9945 O   0  0  0  0  0  0  0  0  0  0  0  0
   16.5204   -9.7151  -17.7669 O   0  0  0  0  0  0  0  0  0  0  0  0
   16.5864   -9.0608  -16.5532 C   0  0  0  0  0  0  0  0  0  0  0  0
   17.8110   -9.4266  -15.7557 C   0  0  2  0  0  0  0  0  0  0  0  0
   17.8336  -10.8315  -15.4030 N   0  0  0  0  0  0  0  0  0  0  0  0
   17.8860   -8.5721  -14.5434 C   0  0  0  0  0  0  0  0  0  0  0  0
   17.8916   -9.0481  -13.3828 O   0  0  0  0  0  0  0  0  0  0  0  0
   17.9530   -7.1935  -14.6734 O   0  0  0  0  0  0  0  0  0  0  0  0
  2  1  1  6
  2  4  1  0
  3  2  1  0
  4  5  2  0
  4  6  1  0
  6  7  1  0
  7  8  1  1
  7 14  1  0
  9 10  2  0
  9  8  1  0
 11 10  1  0
 12 13  2  0
 12 11  1  0
 13  9  1  0
 14 19  1  0
 15 14  2  0
 17 16  1  0
 18 20  1  0
 18 17  1  1
 19 18  1  0
 20 22  1  0
 21 20  2  0
M  END
$$$$
