AHS.pdb
     RDKit          3D

 22 22  0  0  1  0  0  0  0  0999 V2000
   26.9192  -25.8199  -16.6246 C   0  0  0  0  0  0  0  0  0  0  0  0
   28.1313  -26.7050  -16.8579 C   0  0  2  0  0  0  0  0  0  0  0  0
   28.8565  -26.2082  -17.9839 N   0  0  0  0  0  0  0  0  0  0  0  0
   27.6646  -28.0899  -17.1250 C   0  0  0  0  0  0  0  0  0  0  0  0
   27.2921  -28.3855  -18.2939 O   0  0  0  0  0  0  0  0  0  0  0  0
   27.6424  -29.0681  -16.0602 N   0  0  0  0  0  0  0  0  0  0  0  0
   27.2520  -30.4132  -16.3237 C   0  0  1  0  0  0  0  0  0  0  0  0
   28.0898  -31.4863  -15.7553 C   0  0  0  0  0  0  0  0  0  0  0  0
   29.3410  -31.7074  -16.5147 C   0  0  0  0  0  0  0  0  0  0  0  0
   29.7598  -31.1732  -17.7120 C   0  0  0  0  0  0  0  0  0  0  0  0
   30.9749  -31.6849  -18.0335 N   0  0  0  0  0  0  0  0  0  0  0  0
   31.3330  -32.5334  -17.0622 C   0  0  0  0  0  0  0  0  0  0  0  0
   30.3593  -32.5532  -16.1474 N   0  0  0  0  0  0  0  0  0  0  0  0
   25.7899  -30.6129  -16.0372 C   0  0  0  0  0  0  0  0  0  0  0  0
   25.3556  -30.1721  -14.9501 O   0  0  0  0  0  0  0  0  0  0  0  0
   22.8341  -30.6182  -18.8724 O   0  0  0  0  0  0  0  0  0  0  0  0
   22.7039  -31.6323  -17.9449 C   0  0  0  0  0  0  0  0  0  0  0  0
   23.4718  -31.3685  -16.6760 C   0  0  2  0  0  0  0  0  0  0  0  0
   24.8967  -31.2591  -16.9126 N   0  0  0  0  0  0  0  0  0  0  0  0
   23.1767  -32.4368  -15.6875 C   0  0  0  0  0  0  0  0  0  0  0  0
   24.0282  -33.2920  -15.3453 O   0  0  0  0  0  0  0  0  0  0  0  0
   21.9200  -32.5126  -15.1071 O   0  0  0  0  0  0  0  0  0  0  0  0
  2  1  1  6
  2  4  1  0
  3  2  1  0
  4  5  2  0
  4  6  1  0
  6  7  1  0
  7  8  1  1
  7 14  1  0
  9 10  2  0
  9  8  1  0
 11 10  1  0
 12 13  2  0
 12 11  1  0
 13  9  1  0
 14 19  1  0
 15 14  2  0
 17 16  1  0
 18 20  1  0
 18 17  1  6
 19 18  1  0
 20 22  1  0
 21 20  2  0
M  END
$$$$
