AHS.pdb
     RDKit          3D

 22 22  0  0  1  0  0  0  0  0999 V2000
   17.7543  -26.1129   -3.7503 C   0  0  0  0  0  0  0  0  0  0  0  0
   16.2834  -25.8086   -3.9754 C   0  0  2  0  0  0  0  0  0  0  0  0
   16.1309  -25.1812   -5.2496 N   0  0  0  0  0  0  0  0  0  0  0  0
   15.8168  -24.8955   -2.9004 C   0  0  0  0  0  0  0  0  0  0  0  0
   16.4281  -23.8049   -2.7284 O   0  0  0  0  0  0  0  0  0  0  0  0
   14.6858  -25.2600   -2.0762 N   0  0  0  0  0  0  0  0  0  0  0  0
   14.1932  -24.3597   -1.0873 C   0  0  1  0  0  0  0  0  0  0  0  0
   12.7330  -24.3097   -0.8829 C   0  0  0  0  0  0  0  0  0  0  0  0
   12.0128  -23.6704   -2.0071 C   0  0  0  0  0  0  0  0  0  0  0  0
   12.4987  -23.0198   -3.1184 C   0  0  0  0  0  0  0  0  0  0  0  0
   11.4604  -22.5754   -3.8707 N   0  0  0  0  0  0  0  0  0  0  0  0
   10.3260  -22.9321   -3.2562 C   0  0  0  0  0  0  0  0  0  0  0  0
   10.6477  -23.5890   -2.1380 N   0  0  0  0  0  0  0  0  0  0  0  0
   14.9490  -24.5146    0.2027 C   0  0  0  0  0  0  0  0  0  0  0  0
   15.4800  -25.6254    0.4237 O   0  0  0  0  0  0  0  0  0  0  0  0
   17.1398  -22.4199    4.0214 O   0  0  0  0  0  0  0  0  0  0  0  0
   16.4178  -22.3109    2.8499 C   0  0  0  0  0  0  0  0  0  0  0  0
   15.8614  -23.6294    2.3792 C   0  0  2  0  0  0  0  0  0  0  0  0
   15.0897  -23.4929    1.1609 N   0  0  0  0  0  0  0  0  0  0  0  0
   15.0455  -24.2371    3.4609 C   0  0  0  0  0  0  0  0  0  0  0  0
   13.8090  -24.0496    3.5587 O   0  0  0  0  0  0  0  0  0  0  0  0
   15.6502  -25.0461    4.4106 O   0  0  0  0  0  0  0  0  0  0  0  0
  2  1  1  1
  2  4  1  0
  3  2  1  0
  4  5  2  0
  4  6  1  0
  6  7  1  0
  7  8  1  1
  7 14  1  0
  9 10  2  0
  9  8  1  0
 11 10  1  0
 12 13  2  0
 12 11  1  0
 13  9  1  0
 14 19  1  0
 15 14  2  0
 17 16  1  0
 18 20  1  0
 18 17  1  1
 19 18  1  0
 20 22  1  0
 21 20  2  0
M  END
$$$$
