AHS.pdb
     RDKit          3D

 22 22  0  0  1  0  0  0  0  0999 V2000
   19.4119  -10.5555  -20.8524 C   0  0  0  0  0  0  0  0  0  0  0  0
   20.4255  -10.8245  -19.7537 C   0  0  2  0  0  0  0  0  0  0  0  0
   20.4177  -12.2200  -19.4491 N   0  0  0  0  0  0  0  0  0  0  0  0
   20.0431  -10.0398  -18.5515 C   0  0  0  0  0  0  0  0  0  0  0  0
   19.0552   -9.2586  -18.6308 O   0  0  0  0  0  0  0  0  0  0  0  0
   20.7947  -10.1774  -17.3237 N   0  0  0  0  0  0  0  0  0  0  0  0
   20.3871   -9.4851  -16.1465 C   0  0  1  0  0  0  0  0  0  0  0  0
   19.9572  -10.3006  -14.9947 C   0  0  0  0  0  0  0  0  0  0  0  0
   18.6880  -11.0224  -15.2382 C   0  0  0  0  0  0  0  0  0  0  0  0
   17.3852  -10.6044  -15.0884 C   0  0  0  0  0  0  0  0  0  0  0  0
   16.5457  -11.6203  -15.4121 N   0  0  0  0  0  0  0  0  0  0  0  0
   17.2927  -12.6739  -15.7638 C   0  0  0  0  0  0  0  0  0  0  0  0
   18.5784  -12.3245  -15.6624 N   0  0  0  0  0  0  0  0  0  0  0  0
   21.3952   -8.4375  -15.7645 C   0  0  0  0  0  0  0  0  0  0  0  0
   22.6008   -8.7705  -15.7856 O   0  0  0  0  0  0  0  0  0  0  0  0
   22.9808   -4.0039  -15.7402 O   0  0  0  0  0  0  0  0  0  0  0  0
   22.1085   -5.0165  -16.0853 C   0  0  0  0  0  0  0  0  0  0  0  0
   22.0372   -6.1076  -15.0489 C   0  0  2  0  0  0  0  0  0  0  0  0
   21.0612   -7.1222  -15.3902 N   0  0  0  0  0  0  0  0  0  0  0  0
   21.7429   -5.5110  -13.7212 C   0  0  0  0  0  0  0  0  0  0  0  0
   20.6004   -5.5473  -13.2045 O   0  0  0  0  0  0  0  0  0  0  0  0
   22.7523   -4.8848  -13.0065 O   0  0  0  0  0  0  0  0  0  0  0  0
  2  1  1  6
  2  4  1  0
  3  2  1  0
  4  5  2  0
  4  6  1  0
  6  7  1  0
  7  8  1  1
  7 14  1  0
  9 10  2  0
  9  8  1  0
 11 10  1  0
 12 13  2  0
 12 11  1  0
 13  9  1  0
 14 19  1  0
 15 14  2  0
 17 16  1  0
 18 20  1  0
 18 17  1  6
 19 18  1  0
 20 22  1  0
 21 20  2  0
M  END
$$$$
