AHS.pdb
     RDKit          3D

 22 22  0  0  1  0  0  0  0  0999 V2000
   21.9351  -10.4159  -20.0743 C   0  0  0  0  0  0  0  0  0  0  0  0
   22.7497   -9.7360  -18.9875 C   0  0  2  0  0  0  0  0  0  0  0  0
   23.5901  -10.7078  -18.3633 N   0  0  0  0  0  0  0  0  0  0  0  0
   21.8171   -9.1538  -17.9883 C   0  0  0  0  0  0  0  0  0  0  0  0
   20.9817   -8.2905  -18.3747 O   0  0  0  0  0  0  0  0  0  0  0  0
   21.8757   -9.5757  -16.6063 N   0  0  0  0  0  0  0  0  0  0  0  0
   21.0360   -8.9661  -15.6293 C   0  0  1  0  0  0  0  0  0  0  0  0
   20.3807   -9.8535  -14.6496 C   0  0  0  0  0  0  0  0  0  0  0  0
   19.1815  -10.5300  -15.1929 C   0  0  0  0  0  0  0  0  0  0  0  0
   18.5832  -10.4219  -16.4277 C   0  0  0  0  0  0  0  0  0  0  0  0
   17.4873  -11.2211  -16.4693 N   0  0  0  0  0  0  0  0  0  0  0  0
   17.3802  -11.8330  -15.2836 C   0  0  0  0  0  0  0  0  0  0  0  0
   18.3918  -11.4245  -14.5121 N   0  0  0  0  0  0  0  0  0  0  0  0
   21.7293   -7.8028  -14.9771 C   0  0  0  0  0  0  0  0  0  0  0  0
   22.9331   -7.9534  -14.6720 O   0  0  0  0  0  0  0  0  0  0  0  0
   23.5909   -3.8764  -15.0153 O   0  0  0  0  0  0  0  0  0  0  0  0
   22.9046   -5.0309  -15.3343 C   0  0  0  0  0  0  0  0  0  0  0  0
   21.8267   -5.3669  -14.3369 C   0  0  2  0  0  0  0  0  0  0  0  0
   21.1071   -6.5718  -14.6956 N   0  0  0  0  0  0  0  0  0  0  0  0
   20.9006   -4.2140  -14.2013 C   0  0  0  0  0  0  0  0  0  0  0  0
   19.8979   -4.0647  -14.9401 O   0  0  0  0  0  0  0  0  0  0  0  0
   21.1317   -3.2532  -13.2290 O   0  0  0  0  0  0  0  0  0  0  0  0
  2  1  1  6
  2  4  1  0
  3  2  1  0
  4  5  2  0
  4  6  1  0
  6  7  1  0
  7  8  1  1
  7 14  1  0
  9 10  2  0
  9  8  1  0
 11 10  1  0
 12 13  2  0
 12 11  1  0
 13  9  1  0
 14 19  1  0
 15 14  2  0
 17 16  1  0
 18 20  1  0
 18 17  1  6
 19 18  1  0
 20 22  1  0
 21 20  2  0
M  END
$$$$
