WWW.pdb
     RDKit          3D

 43 48  0  0  1  0  0  0  0  0999 V2000
   28.7857  -22.2228  -15.7024 N   0  0  0  0  0  0  0  0  0  0  0  0
   27.9464  -21.2954  -14.9903 C   0  0  1  0  0  0  0  0  0  0  0  0
   26.8166  -20.7730  -15.8481 C   0  0  0  0  0  0  0  0  0  0  0  0
   27.4850  -19.9757  -16.9356 C   0  0  0  0  0  0  0  0  0  0  0  0
   27.9667  -20.4765  -18.1161 C   0  0  0  0  0  0  0  0  0  0  0  0
   28.5016  -19.4908  -18.8306 N   0  0  0  0  0  0  0  0  0  0  0  0
   28.3910  -18.3143  -18.1499 C   0  0  0  0  0  0  0  0  0  0  0  0
   28.7905  -17.0359  -18.4654 C   0  0  0  0  0  0  0  0  0  0  0  0
   28.5246  -16.0410  -17.5302 C   0  0  0  0  0  0  0  0  0  0  0  0
   27.8858  -16.3604  -16.3481 C   0  0  0  0  0  0  0  0  0  0  0  0
   27.4896  -17.6451  -16.0402 C   0  0  0  0  0  0  0  0  0  0  0  0
   27.7517  -18.6252  -16.9607 C   0  0  0  0  0  0  0  0  0  0  0  0
   27.4680  -21.8633  -13.6873 C   0  0  0  0  0  0  0  0  0  0  0  0
   26.7621  -22.8970  -13.7097 O   0  0  0  0  0  0  0  0  0  0  0  0
   27.8200  -21.2266  -12.4729 N   0  0  0  0  0  0  0  0  0  0  0  0
   27.1444  -21.3381  -11.2118 C   0  0  1  0  0  0  0  0  0  0  0  0
   28.0014  -20.9362  -10.0057 C   0  0  0  0  0  0  0  0  0  0  0  0
   27.2451  -20.8564   -8.7509 C   0  0  0  0  0  0  0  0  0  0  0  0
   25.9181  -21.0259   -8.5043 C   0  0  0  0  0  0  0  0  0  0  0  0
   25.7313  -20.8549   -7.1788 N   0  0  0  0  0  0  0  0  0  0  0  0
   26.9007  -20.5830   -6.5790 C   0  0  0  0  0  0  0  0  0  0  0  0
   27.2350  -20.3374   -5.2559 C   0  0  0  0  0  0  0  0  0  0  0  0
   28.5468  -20.0909   -4.9304 C   0  0  0  0  0  0  0  0  0  0  0  0
   29.5254  -20.0877   -5.9143 C   0  0  0  0  0  0  0  0  0  0  0  0
   29.2078  -20.3297   -7.2335 C   0  0  0  0  0  0  0  0  0  0  0  0
   27.8719  -20.5762   -7.5355 C   0  0  0  0  0  0  0  0  0  0  0  0
   25.8928  -20.5774  -11.2066 C   0  0  0  0  0  0  0  0  0  0  0  0
   25.9436  -19.3401  -11.0228 O   0  0  0  0  0  0  0  0  0  0  0  0
   24.6604  -21.2074  -11.4021 N   0  0  0  0  0  0  0  0  0  0  0  0
   23.3539  -20.5967  -11.3165 C   0  0  1  0  0  0  0  0  0  0  0  0
   23.2684  -19.3074  -12.0800 C   0  0  0  0  0  0  0  0  0  0  0  0
   23.5051  -19.5034  -13.5115 C   0  0  0  0  0  0  0  0  0  0  0  0
   23.2378  -20.6413  -14.2094 C   0  0  0  0  0  0  0  0  0  0  0  0
   23.6309  -20.4425  -15.4770 N   0  0  0  0  0  0  0  0  0  0  0  0
   24.1354  -19.2104  -15.5911 C   0  0  0  0  0  0  0  0  0  0  0  0
   24.6431  -18.5819  -16.7308 C   0  0  0  0  0  0  0  0  0  0  0  0
   25.0911  -17.2881  -16.6061 C   0  0  0  0  0  0  0  0  0  0  0  0
   25.0343  -16.6469  -15.3903 C   0  0  0  0  0  0  0  0  0  0  0  0
   24.5323  -17.2853  -14.2855 C   0  0  0  0  0  0  0  0  0  0  0  0
   24.0679  -18.5983  -14.3688 C   0  0  0  0  0  0  0  0  0  0  0  0
   22.2607  -21.5293  -11.5225 C   0  0  0  0  0  0  0  0  0  0  0  0
   22.3524  -22.8375  -11.9557 O   0  0  0  0  0  0  0  0  0  0  0  0
   21.0802  -21.0928  -11.2823 O   0  0  0  0  0  0  0  0  0  0  0  0
  2  1  1  6
  3  2  1  0
  4  5  2  0
  4  3  1  0
  6  5  1  0
  7 12  2  0
  7  6  1  0
  8  7  1  0
  9 10  1  0
  9  8  2  0
 10 11  2  0
 11 12  1  0
 12  4  1  0
 13 15  1  0
 13  2  1  0
 14 13  2  0
 16 27  1  0
 16 15  1  0
 16 17  1  1
 18 26  1  0
 18 17  1  0
 19 18  2  0
 20 19  1  0
 20 21  1  0
 21 22  1  0
 21 26  2  0
 22 23  2  0
 23 24  1  0
 25 24  2  0
 26 25  1  0
 27 28  2  0
 29 30  1  0
 29 27  1  0
 30 41  1  0
 30 31  1  6
 32 31  1  0
 33 32  2  0
 34 35  1  0
 34 33  1  0
 35 40  2  0
 36 37  2  0
 36 35  1  0
 37 38  1  0
 38 39  2  0
 40 39  1  0
 40 32  1  0
 41 42  1  0
 43 41  2  0
M  END
$$$$
