WWW.pdb
     RDKit          3D

 43 48  0  0  1  0  0  0  0  0999 V2000
   27.2836  -21.1715  -17.9046 N   0  0  0  0  0  0  0  0  0  0  0  0
   27.9743  -21.8924  -16.8678 C   0  0  1  0  0  0  0  0  0  0  0  0
   29.4048  -22.2037  -17.2444 C   0  0  0  0  0  0  0  0  0  0  0  0
   29.3179  -22.9031  -18.5743 C   0  0  0  0  0  0  0  0  0  0  0  0
   30.1194  -22.6649  -19.6592 C   0  0  0  0  0  0  0  0  0  0  0  0
   29.7526  -23.4554  -20.6636 N   0  0  0  0  0  0  0  0  0  0  0  0
   28.7038  -24.2366  -20.2772 C   0  0  0  0  0  0  0  0  0  0  0  0
   27.9823  -25.1951  -20.9513 C   0  0  0  0  0  0  0  0  0  0  0  0
   26.9505  -25.8162  -20.2551 C   0  0  0  0  0  0  0  0  0  0  0  0
   26.6913  -25.4602  -18.9461 C   0  0  0  0  0  0  0  0  0  0  0  0
   27.4195  -24.4976  -18.2788 C   0  0  0  0  0  0  0  0  0  0  0  0
   28.4354  -23.8853  -18.9642 C   0  0  0  0  0  0  0  0  0  0  0  0
   27.8628  -21.2035  -15.5403 C   0  0  0  0  0  0  0  0  0  0  0  0
   28.7676  -20.4066  -15.2032 O   0  0  0  0  0  0  0  0  0  0  0  0
   26.7500  -21.4651  -14.7053 N   0  0  0  0  0  0  0  0  0  0  0  0
   26.4127  -20.7967  -13.4811 C   0  0  1  0  0  0  0  0  0  0  0  0
   25.1702  -19.9036  -13.5781 C   0  0  0  0  0  0  0  0  0  0  0  0
   25.1324  -19.0836  -14.7943 C   0  0  0  0  0  0  0  0  0  0  0  0
   24.4325  -19.2445  -15.9496 C   0  0  0  0  0  0  0  0  0  0  0  0
   24.7439  -18.2075  -16.7551 N   0  0  0  0  0  0  0  0  0  0  0  0
   25.6194  -17.3946  -16.1436 C   0  0  0  0  0  0  0  0  0  0  0  0
   26.2302  -16.2147  -16.5404 C   0  0  0  0  0  0  0  0  0  0  0  0
   27.0968  -15.5858  -15.6794 C   0  0  0  0  0  0  0  0  0  0  0  0
   27.3575  -16.1253  -14.4277 C   0  0  0  0  0  0  0  0  0  0  0  0
   26.7581  -17.2976  -14.0201 C   0  0  0  0  0  0  0  0  0  0  0  0
   25.8850  -17.9138  -14.9116 C   0  0  0  0  0  0  0  0  0  0  0  0
   26.2554  -21.7476  -12.3783 C   0  0  0  0  0  0  0  0  0  0  0  0
   25.5193  -22.7461  -12.5477 O   0  0  0  0  0  0  0  0  0  0  0  0
   26.9080  -21.5565  -11.1571 N   0  0  0  0  0  0  0  0  0  0  0  0
   26.3012  -21.5370   -9.8462 C   0  0  1  0  0  0  0  0  0  0  0  0
   27.3154  -21.5690   -8.7403 C   0  0  0  0  0  0  0  0  0  0  0  0
   27.1397  -20.4558   -7.8056 C   0  0  0  0  0  0  0  0  0  0  0  0
   26.0679  -19.6174   -7.7658 C   0  0  0  0  0  0  0  0  0  0  0  0
   26.2980  -18.7088   -6.8054 N   0  0  0  0  0  0  0  0  0  0  0  0
   27.4842  -18.9573   -6.2423 C   0  0  0  0  0  0  0  0  0  0  0  0
   28.1088  -18.2746   -5.1957 C   0  0  0  0  0  0  0  0  0  0  0  0
   29.3319  -18.7340   -4.7677 C   0  0  0  0  0  0  0  0  0  0  0  0
   29.9087  -19.8325   -5.3618 C   0  0  0  0  0  0  0  0  0  0  0  0
   29.2762  -20.4854   -6.3883 C   0  0  0  0  0  0  0  0  0  0  0  0
   28.0344  -20.0515   -6.8533 C   0  0  0  0  0  0  0  0  0  0  0  0
   25.2439  -20.5519   -9.7086 C   0  0  0  0  0  0  0  0  0  0  0  0
   25.3458  -19.1883   -9.9019 O   0  0  0  0  0  0  0  0  0  0  0  0
   24.0902  -20.9915   -9.3653 O   0  0  0  0  0  0  0  0  0  0  0  0
  2  1  1  6
  3  2  1  0
  4  5  2  0
  4  3  1  0
  6  5  1  0
  7 12  2  0
  7  6  1  0
  8  7  1  0
  9 10  1  0
  9  8  2  0
 10 11  2  0
 11 12  1  0
 12  4  1  0
 13 15  1  0
 13  2  1  0
 14 13  2  0
 16 27  1  0
 16 15  1  0
 16 17  1  6
 18 26  1  0
 18 17  1  0
 19 18  2  0
 20 19  1  0
 20 21  1  0
 21 22  1  0
 21 26  2  0
 22 23  2  0
 23 24  1  0
 25 24  2  0
 26 25  1  0
 27 28  2  0
 29 30  1  0
 29 27  1  0
 30 41  1  0
 30 31  1  1
 32 31  1  0
 33 32  2  0
 34 35  1  0
 34 33  1  0
 35 40  2  0
 36 37  2  0
 36 35  1  0
 37 38  1  0
 38 39  2  0
 40 39  1  0
 40 32  1  0
 41 42  1  0
 43 41  2  0
M  END
$$$$
