WWW.pdb
     RDKit          3D

 43 48  0  0  1  0  0  0  0  0999 V2000
   28.4197  -22.4557  -15.7132 N   0  0  0  0  0  0  0  0  0  0  0  0
   27.8054  -21.3145  -15.0871 C   0  0  1  0  0  0  0  0  0  0  0  0
   26.8832  -20.5742  -16.0286 C   0  0  0  0  0  0  0  0  0  0  0  0
   27.7945  -19.8417  -16.9763 C   0  0  0  0  0  0  0  0  0  0  0  0
   28.4341  -20.3886  -18.0571 C   0  0  0  0  0  0  0  0  0  0  0  0
   29.1640  -19.4547  -18.6598 N   0  0  0  0  0  0  0  0  0  0  0  0
   29.0308  -18.2681  -18.0012 C   0  0  0  0  0  0  0  0  0  0  0  0
   29.5816  -17.0284  -18.2329 C   0  0  0  0  0  0  0  0  0  0  0  0
   29.2366  -16.0083  -17.3522 C   0  0  0  0  0  0  0  0  0  0  0  0
   28.3763  -16.2662  -16.3030 C   0  0  0  0  0  0  0  0  0  0  0  0
   27.8298  -17.5123  -16.0783 C   0  0  0  0  0  0  0  0  0  0  0  0
   28.1696  -18.5173  -16.9450 C   0  0  0  0  0  0  0  0  0  0  0  0
   27.1396  -21.6793  -13.7937 C   0  0  0  0  0  0  0  0  0  0  0  0
   26.3195  -22.6251  -13.7900 O   0  0  0  0  0  0  0  0  0  0  0  0
   27.4484  -20.9551  -12.6170 N   0  0  0  0  0  0  0  0  0  0  0  0
   26.8242  -21.0890  -11.3318 C   0  0  1  0  0  0  0  0  0  0  0  0
   27.5833  -20.3977  -10.1931 C   0  0  0  0  0  0  0  0  0  0  0  0
   26.9016  -20.4865   -8.8968 C   0  0  0  0  0  0  0  0  0  0  0  0
   25.5977  -20.7313   -8.5967 C   0  0  0  0  0  0  0  0  0  0  0  0
   25.4857  -20.7165   -7.2520 N   0  0  0  0  0  0  0  0  0  0  0  0
   26.6803  -20.4704   -6.6919 C   0  0  0  0  0  0  0  0  0  0  0  0
   27.0859  -20.3620   -5.3704 C   0  0  0  0  0  0  0  0  0  0  0  0
   28.4069  -20.1051   -5.0934 C   0  0  0  0  0  0  0  0  0  0  0  0
   29.3240  -19.9559   -6.1241 C   0  0  0  0  0  0  0  0  0  0  0  0
   28.9352  -20.0606   -7.4422 C   0  0  0  0  0  0  0  0  0  0  0  0
   27.5916  -20.3210   -7.6946 C   0  0  0  0  0  0  0  0  0  0  0  0
   25.4369  -20.6201  -11.3597 C   0  0  0  0  0  0  0  0  0  0  0  0
   24.9576  -20.1033  -10.3250 O   0  0  0  0  0  0  0  0  0  0  0  0
   24.6535  -20.7408  -12.5110 N   0  0  0  0  0  0  0  0  0  0  0  0
   23.2779  -20.3286  -12.6680 C   0  0  1  0  0  0  0  0  0  0  0  0
   22.9550  -19.9192  -14.0753 C   0  0  0  0  0  0  0  0  0  0  0  0
   23.4949  -18.5967  -14.3970 C   0  0  0  0  0  0  0  0  0  0  0  0
   23.8495  -17.6448  -13.4907 C   0  0  0  0  0  0  0  0  0  0  0  0
   24.2568  -16.5643  -14.1744 N   0  0  0  0  0  0  0  0  0  0  0  0
   24.1680  -16.8154  -15.4839 C   0  0  0  0  0  0  0  0  0  0  0  0
   24.5036  -15.9809  -16.5529 C   0  0  0  0  0  0  0  0  0  0  0  0
   24.3446  -16.4726  -17.8270 C   0  0  0  0  0  0  0  0  0  0  0  0
   23.8691  -17.7480  -18.0257 C   0  0  0  0  0  0  0  0  0  0  0  0
   23.5456  -18.5479  -16.9600 C   0  0  0  0  0  0  0  0  0  0  0  0
   23.6913  -18.0874  -15.6511 C   0  0  0  0  0  0  0  0  0  0  0  0
   22.3262  -21.2226  -12.0336 C   0  0  0  0  0  0  0  0  0  0  0  0
   21.3356  -20.8819  -11.1337 O   0  0  0  0  0  0  0  0  0  0  0  0
   22.4158  -22.4648  -12.3351 O   0  0  0  0  0  0  0  0  0  0  0  0
  2  1  1  6
  3  2  1  0
  4  5  2  0
  4  3  1  0
  6  5  1  0
  7 12  2  0
  7  6  1  0
  8  7  1  0
  9 10  1  0
  9  8  2  0
 10 11  2  0
 11 12  1  0
 12  4  1  0
 13 15  1  0
 13  2  1  0
 14 13  2  0
 16 27  1  0
 16 15  1  0
 16 17  1  1
 18 26  1  0
 18 17  1  0
 19 18  2  0
 20 19  1  0
 20 21  1  0
 21 22  1  0
 21 26  2  0
 22 23  2  0
 23 24  1  0
 25 24  2  0
 26 25  1  0
 27 28  2  0
 29 30  1  0
 29 27  1  0
 30 41  1  0
 30 31  1  6
 32 31  1  0
 33 32  2  0
 34 35  1  0
 34 33  1  0
 35 40  2  0
 36 37  2  0
 36 35  1  0
 37 38  1  0
 38 39  2  0
 40 39  1  0
 40 32  1  0
 41 42  1  0
 43 41  2  0
M  END
$$$$
