WWW.pdb
     RDKit          3D

 43 48  0  0  1  0  0  0  0  0999 V2000
   28.3533  -21.8915  -17.5146 N   0  0  0  0  0  0  0  0  0  0  0  0
   27.2406  -22.7662  -17.2530 C   0  0  1  0  0  0  0  0  0  0  0  0
   27.6424  -24.2233  -17.2746 C   0  0  0  0  0  0  0  0  0  0  0  0
   28.2892  -24.4329  -18.6173 C   0  0  0  0  0  0  0  0  0  0  0  0
   29.5352  -24.9593  -18.8335 C   0  0  0  0  0  0  0  0  0  0  0  0
   29.7846  -24.9865  -20.1393 N   0  0  0  0  0  0  0  0  0  0  0  0
   28.7183  -24.4825  -20.8238 C   0  0  0  0  0  0  0  0  0  0  0  0
   28.5009  -24.3008  -22.1704 C   0  0  0  0  0  0  0  0  0  0  0  0
   27.2813  -23.7466  -22.5453 C   0  0  0  0  0  0  0  0  0  0  0  0
   26.3542  -23.4061  -21.5799 C   0  0  0  0  0  0  0  0  0  0  0  0
   26.5812  -23.5913  -20.2323 C   0  0  0  0  0  0  0  0  0  0  0  0
   27.7823  -24.1366  -19.8627 C   0  0  0  0  0  0  0  0  0  0  0  0
   26.5150  -22.3851  -15.9971 C   0  0  0  0  0  0  0  0  0  0  0  0
   25.8120  -23.2504  -15.4275 O   0  0  0  0  0  0  0  0  0  0  0  0
   26.6381  -21.0702  -15.4871 N   0  0  0  0  0  0  0  0  0  0  0  0
   25.7922  -20.4380  -14.5155 C   0  0  1  0  0  0  0  0  0  0  0  0
   26.4864  -19.3384  -13.7032 C   0  0  0  0  0  0  0  0  0  0  0  0
   27.7058  -19.7928  -13.0255 C   0  0  0  0  0  0  0  0  0  0  0  0
   28.9179  -20.1504  -13.5287 C   0  0  0  0  0  0  0  0  0  0  0  0
   29.7044  -20.4822  -12.4835 N   0  0  0  0  0  0  0  0  0  0  0  0
   29.0263  -20.3443  -11.3335 C   0  0  0  0  0  0  0  0  0  0  0  0
   29.3840  -20.5504  -10.0098 C   0  0  0  0  0  0  0  0  0  0  0  0
   28.4597  -20.3144   -9.0209 C   0  0  0  0  0  0  0  0  0  0  0  0
   27.1835  -19.8751   -9.3434 C   0  0  0  0  0  0  0  0  0  0  0  0
   26.8138  -19.6665  -10.6547 C   0  0  0  0  0  0  0  0  0  0  0  0
   27.7690  -19.9132  -11.6362 C   0  0  0  0  0  0  0  0  0  0  0  0
   24.5747  -19.9060  -15.1317 C   0  0  0  0  0  0  0  0  0  0  0  0
   24.4177  -20.0438  -16.3661 O   0  0  0  0  0  0  0  0  0  0  0  0
   23.6001  -19.2560  -14.3690 N   0  0  0  0  0  0  0  0  0  0  0  0
   22.2082  -19.6237  -14.2496 C   0  0  1  0  0  0  0  0  0  0  0  0
   22.0225  -21.0548  -13.8375 C   0  0  0  0  0  0  0  0  0  0  0  0
   21.8421  -21.1877  -12.3906 C   0  0  0  0  0  0  0  0  0  0  0  0
   20.6519  -21.1269  -11.7326 C   0  0  0  0  0  0  0  0  0  0  0  0
   20.9060  -21.2496  -10.4206 N   0  0  0  0  0  0  0  0  0  0  0  0
   22.2230  -21.3870  -10.2404 C   0  0  0  0  0  0  0  0  0  0  0  0
   22.9224  -21.5606   -9.0436 C   0  0  0  0  0  0  0  0  0  0  0  0
   24.2881  -21.7029   -9.1118 C   0  0  0  0  0  0  0  0  0  0  0  0
   24.9305  -21.6729  -10.3279 C   0  0  0  0  0  0  0  0  0  0  0  0
   24.2220  -21.5003  -11.4891 C   0  0  0  0  0  0  0  0  0  0  0  0
   22.8350  -21.3515  -11.4642 C   0  0  0  0  0  0  0  0  0  0  0  0
   21.4078  -18.6482  -13.5319 C   0  0  0  0  0  0  0  0  0  0  0  0
   20.0481  -18.4374  -13.6501 O   0  0  0  0  0  0  0  0  0  0  0  0
   22.0284  -17.8953  -12.7012 O   0  0  0  0  0  0  0  0  0  0  0  0
  2  1  1  1
  3  2  1  0
  4  5  2  0
  4  3  1  0
  6  5  1  0
  7 12  2  0
  7  6  1  0
  8  7  1  0
  9 10  1  0
  9  8  2  0
 10 11  2  0
 11 12  1  0
 12  4  1  0
 13 15  1  0
 13  2  1  0
 14 13  2  0
 16 27  1  0
 16 15  1  0
 16 17  1  6
 18 26  1  0
 18 17  1  0
 19 18  2  0
 20 19  1  0
 20 21  1  0
 21 22  1  0
 21 26  2  0
 22 23  2  0
 23 24  1  0
 25 24  2  0
 26 25  1  0
 27 28  2  0
 29 30  1  0
 29 27  1  0
 30 41  1  0
 30 31  1  1
 32 31  1  0
 33 32  2  0
 34 35  1  0
 34 33  1  0
 35 40  2  0
 36 37  2  0
 36 35  1  0
 37 38  1  0
 38 39  2  0
 40 39  1  0
 40 32  1  0
 41 42  1  0
 43 41  2  0
M  END
$$$$
