WWW.pdb
     RDKit          3D

 43 48  0  0  1  0  0  0  0  0999 V2000
   15.0878  -13.7266    3.9348 N   0  0  0  0  0  0  0  0  0  0  0  0
   15.5147  -15.0761    3.6735 C   0  0  1  0  0  0  0  0  0  0  0  0
   15.5099  -15.4007    2.1972 C   0  0  0  0  0  0  0  0  0  0  0  0
   14.7848  -16.7149    2.0860 C   0  0  0  0  0  0  0  0  0  0  0  0
   13.4474  -16.9137    2.3059 C   0  0  0  0  0  0  0  0  0  0  0  0
   13.1552  -18.1988    2.1290 N   0  0  0  0  0  0  0  0  0  0  0  0
   14.2826  -18.8862    1.7884 C   0  0  0  0  0  0  0  0  0  0  0  0
   14.4913  -20.2178    1.5110 C   0  0  0  0  0  0  0  0  0  0  0  0
   15.7904  -20.6022    1.1953 C   0  0  0  0  0  0  0  0  0  0  0  0
   16.8003  -19.6605    1.1712 C   0  0  0  0  0  0  0  0  0  0  0  0
   16.5817  -18.3279    1.4513 C   0  0  0  0  0  0  0  0  0  0  0  0
   15.3026  -17.9490    1.7628 C   0  0  0  0  0  0  0  0  0  0  0  0
   16.8287  -15.3821    4.3284 C   0  0  0  0  0  0  0  0  0  0  0  0
   17.8778  -15.2284    3.6629 O   0  0  0  0  0  0  0  0  0  0  0  0
   16.8557  -15.8332    5.6701 N   0  0  0  0  0  0  0  0  0  0  0  0
   17.9774  -16.3884    6.3720 C   0  0  1  0  0  0  0  0  0  0  0  0
   18.2642  -15.7190    7.7213 C   0  0  0  0  0  0  0  0  0  0  0  0
   18.9301  -14.4173    7.5991 C   0  0  0  0  0  0  0  0  0  0  0  0
   18.4307  -13.1938    7.2768 C   0  0  0  0  0  0  0  0  0  0  0  0
   19.4580  -12.3193    7.3112 N   0  0  0  0  0  0  0  0  0  0  0  0
   20.5926  -12.9529    7.6464 C   0  0  0  0  0  0  0  0  0  0  0  0
   21.8939  -12.5062    7.8188 C   0  0  0  0  0  0  0  0  0  0  0  0
   22.8691  -13.4047    8.1788 C   0  0  0  0  0  0  0  0  0  0  0  0
   22.5551  -14.7432    8.3675 C   0  0  0  0  0  0  0  0  0  0  0  0
   21.2662  -15.2014    8.1993 C   0  0  0  0  0  0  0  0  0  0  0  0
   20.2982  -14.2705    7.8345 C   0  0  0  0  0  0  0  0  0  0  0  0
   17.8305  -17.8339    6.5566 C   0  0  0  0  0  0  0  0  0  0  0  0
   16.7952  -18.2655    7.1127 O   0  0  0  0  0  0  0  0  0  0  0  0
   18.8180  -18.7242    6.1252 N   0  0  0  0  0  0  0  0  0  0  0  0
   18.8018  -20.1629    6.2554 C   0  0  1  0  0  0  0  0  0  0  0  0
   19.0988  -20.8629    4.9615 C   0  0  0  0  0  0  0  0  0  0  0  0
   18.9344  -22.3134    5.0748 C   0  0  0  0  0  0  0  0  0  0  0  0
   18.2915  -22.9604    6.0854 C   0  0  0  0  0  0  0  0  0  0  0  0
   18.3913  -24.2783    5.8527 N   0  0  0  0  0  0  0  0  0  0  0  0
   19.0778  -24.4729    4.7228 C   0  0  0  0  0  0  0  0  0  0  0  0
   19.4000  -25.6809    4.0994 C   0  0  0  0  0  0  0  0  0  0  0  0
   20.1033  -25.6280    2.9193 C   0  0  0  0  0  0  0  0  0  0  0  0
   20.4706  -24.4158    2.3826 C   0  0  0  0  0  0  0  0  0  0  0  0
   20.1434  -23.2433    3.0138 C   0  0  0  0  0  0  0  0  0  0  0  0
   19.4311  -23.2526    4.2134 C   0  0  0  0  0  0  0  0  0  0  0  0
   19.5196  -20.6502    7.4193 C   0  0  0  0  0  0  0  0  0  0  0  0
   20.8655  -20.5007    7.6907 O   0  0  0  0  0  0  0  0  0  0  0  0
   18.8337  -21.2944    8.2891 O   0  0  0  0  0  0  0  0  0  0  0  0
  2  1  1  6
  3  2  1  0
  4  5  2  0
  4  3  1  0
  6  5  1  0
  7 12  2  0
  7  6  1  0
  8  7  1  0
  9 10  1  0
  9  8  2  0
 10 11  2  0
 11 12  1  0
 12  4  1  0
 13 15  1  0
 13  2  1  0
 14 13  2  0
 16 27  1  0
 16 15  1  0
 16 17  1  1
 18 26  1  0
 18 17  1  0
 19 18  2  0
 20 19  1  0
 20 21  1  0
 21 22  1  0
 21 26  2  0
 22 23  2  0
 23 24  1  0
 25 24  2  0
 26 25  1  0
 27 28  2  0
 29 30  1  0
 29 27  1  0
 30 41  1  0
 30 31  1  6
 32 31  1  0
 33 32  2  0
 34 35  1  0
 34 33  1  0
 35 40  2  0
 36 37  2  0
 36 35  1  0
 37 38  1  0
 38 39  2  0
 40 39  1  0
 40 32  1  0
 41 42  1  0
 43 41  2  0
M  END
$$$$
