WWW.pdb
     RDKit          3D

 43 48  0  0  1  0  0  0  0  0999 V2000
   27.9863  -22.0336  -12.8388 N   0  0  0  0  0  0  0  0  0  0  0  0
   26.9000  -21.1744  -12.4472 C   0  0  1  0  0  0  0  0  0  0  0  0
   27.3675  -19.7731  -12.1264 C   0  0  0  0  0  0  0  0  0  0  0  0
   28.2341  -19.9179  -10.9044 C   0  0  0  0  0  0  0  0  0  0  0  0
   29.6032  -19.8770  -10.8832 C   0  0  0  0  0  0  0  0  0  0  0  0
   30.0327  -20.0512   -9.6368 N   0  0  0  0  0  0  0  0  0  0  0  0
   28.9682  -20.2115   -8.7997 C   0  0  0  0  0  0  0  0  0  0  0  0
   28.8984  -20.4224   -7.4416 C   0  0  0  0  0  0  0  0  0  0  0  0
   27.6296  -20.5497   -6.8856 C   0  0  0  0  0  0  0  0  0  0  0  0
   26.5124  -20.4626   -7.6928 C   0  0  0  0  0  0  0  0  0  0  0  0
   26.5922  -20.2516   -9.0534 C   0  0  0  0  0  0  0  0  0  0  0  0
   27.8416  -20.1268   -9.6014 C   0  0  0  0  0  0  0  0  0  0  0  0
   25.7831  -21.1963  -13.4478 C   0  0  0  0  0  0  0  0  0  0  0  0
   26.0652  -21.0684  -14.6607 O   0  0  0  0  0  0  0  0  0  0  0  0
   24.4481  -21.3592  -13.0056 N   0  0  0  0  0  0  0  0  0  0  0  0
   23.2742  -21.4659  -13.8240 C   0  0  1  0  0  0  0  0  0  0  0  0
   22.7344  -22.8946  -13.9598 C   0  0  0  0  0  0  0  0  0  0  0  0
   23.6916  -23.8267  -14.5663 C   0  0  0  0  0  0  0  0  0  0  0  0
   24.5819  -24.6800  -13.9923 C   0  0  0  0  0  0  0  0  0  0  0  0
   25.2221  -25.3236  -14.9909 N   0  0  0  0  0  0  0  0  0  0  0  0
   24.7627  -24.9035  -16.1799 C   0  0  0  0  0  0  0  0  0  0  0  0
   25.0867  -25.2547  -17.4816 C   0  0  0  0  0  0  0  0  0  0  0  0
   24.4290  -24.6469  -18.5236 C   0  0  0  0  0  0  0  0  0  0  0  0
   23.4521  -23.6930  -18.2760 C   0  0  0  0  0  0  0  0  0  0  0  0
   23.1199  -23.3336  -16.9875 C   0  0  0  0  0  0  0  0  0  0  0  0
   23.8015  -23.9644  -15.9511 C   0  0  0  0  0  0  0  0  0  0  0  0
   22.2106  -20.5764  -13.3521 C   0  0  0  0  0  0  0  0  0  0  0  0
   21.8749  -20.6294  -12.1472 O   0  0  0  0  0  0  0  0  0  0  0  0
   21.5755  -19.6819  -14.2184 N   0  0  0  0  0  0  0  0  0  0  0  0
   20.5190  -18.7557  -13.8826 C   0  0  1  0  0  0  0  0  0  0  0  0
   20.6370  -17.4536  -14.6196 C   0  0  0  0  0  0  0  0  0  0  0  0
   20.1699  -17.5645  -16.0028 C   0  0  0  0  0  0  0  0  0  0  0  0
   18.8698  -17.5249  -16.4047 C   0  0  0  0  0  0  0  0  0  0  0  0
   18.8499  -17.7014  -17.7348 N   0  0  0  0  0  0  0  0  0  0  0  0
   20.1027  -17.8486  -18.1760 C   0  0  0  0  0  0  0  0  0  0  0  0
   20.5450  -18.0374  -19.4877 C   0  0  0  0  0  0  0  0  0  0  0  0
   21.8991  -18.1423  -19.7008 C   0  0  0  0  0  0  0  0  0  0  0  0
   22.7774  -18.0619  -18.6450 C   0  0  0  0  0  0  0  0  0  0  0  0
   22.3188  -17.8773  -17.3661 C   0  0  0  0  0  0  0  0  0  0  0  0
   20.9525  -17.7665  -17.1062 C   0  0  0  0  0  0  0  0  0  0  0  0
   19.1986  -19.3589  -13.8684 C   0  0  0  0  0  0  0  0  0  0  0  0
   18.0883  -18.9166  -13.1764 O   0  0  0  0  0  0  0  0  0  0  0  0
   19.0445  -20.4206  -14.5691 O   0  0  0  0  0  0  0  0  0  0  0  0
  2  1  1  6
  3  2  1  0
  4  5  2  0
  4  3  1  0
  6  5  1  0
  7 12  2  0
  7  6  1  0
  8  7  1  0
  9 10  1  0
  9  8  2  0
 10 11  2  0
 11 12  1  0
 12  4  1  0
 13 15  1  0
 13  2  1  0
 14 13  2  0
 16 27  1  0
 16 15  1  0
 16 17  1  1
 18 26  1  0
 18 17  1  0
 19 18  2  0
 20 19  1  0
 20 21  1  0
 21 22  1  0
 21 26  2  0
 22 23  2  0
 23 24  1  0
 25 24  2  0
 26 25  1  0
 27 28  2  0
 29 30  1  0
 29 27  1  0
 30 41  1  0
 30 31  1  6
 32 31  1  0
 33 32  2  0
 34 35  1  0
 34 33  1  0
 35 40  2  0
 36 37  2  0
 36 35  1  0
 37 38  1  0
 38 39  2  0
 40 39  1  0
 40 32  1  0
 41 42  1  0
 43 41  2  0
M  END
$$$$
