WWW.pdb
     RDKit          3D

 43 48  0  0  1  0  0  0  0  0999 V2000
   27.1777  -19.8941  -18.3550 N   0  0  0  0  0  0  0  0  0  0  0  0
   27.3161  -18.6914  -17.5765 C   0  0  1  0  0  0  0  0  0  0  0  0
   27.2670  -17.4474  -18.4338 C   0  0  0  0  0  0  0  0  0  0  0  0
   28.3200  -17.6553  -19.4889 C   0  0  0  0  0  0  0  0  0  0  0  0
   28.0877  -17.9515  -20.8060 C   0  0  0  0  0  0  0  0  0  0  0  0
   29.2478  -18.0768  -21.4436 N   0  0  0  0  0  0  0  0  0  0  0  0
   30.2775  -17.8684  -20.5742 C   0  0  0  0  0  0  0  0  0  0  0  0
   31.6419  -17.8924  -20.7523 C   0  0  0  0  0  0  0  0  0  0  0  0
   32.4302  -17.6353  -19.6354 C   0  0  0  0  0  0  0  0  0  0  0  0
   31.8340  -17.3716  -18.4179 C   0  0  0  0  0  0  0  0  0  0  0  0
   30.4654  -17.3504  -18.2488 C   0  0  0  0  0  0  0  0  0  0  0  0
   29.6887  -17.6041  -19.3484 C   0  0  0  0  0  0  0  0  0  0  0  0
   26.3401  -18.6482  -16.4387 C   0  0  0  0  0  0  0  0  0  0  0  0
   26.2407  -17.5902  -15.7769 O   0  0  0  0  0  0  0  0  0  0  0  0
   25.5602  -19.7912  -16.1395 N   0  0  0  0  0  0  0  0  0  0  0  0
   24.5442  -19.9041  -15.1324 C   0  0  1  0  0  0  0  0  0  0  0  0
   23.1681  -20.3078  -15.6750 C   0  0  0  0  0  0  0  0  0  0  0  0
   22.6611  -19.4050  -16.7147 C   0  0  0  0  0  0  0  0  0  0  0  0
   22.6045  -19.5532  -18.0657 C   0  0  0  0  0  0  0  0  0  0  0  0
   22.0387  -18.4360  -18.5685 N   0  0  0  0  0  0  0  0  0  0  0  0
   21.7348  -17.5854  -17.5758 C   0  0  0  0  0  0  0  0  0  0  0  0
   21.1453  -16.3304  -17.5711 C   0  0  0  0  0  0  0  0  0  0  0  0
   20.9496  -15.6860  -16.3735 C   0  0  0  0  0  0  0  0  0  0  0  0
   21.3374  -16.2844  -15.1829 C   0  0  0  0  0  0  0  0  0  0  0  0
   21.9248  -17.5311  -15.1724 C   0  0  0  0  0  0  0  0  0  0  0  0
   22.1114  -18.1613  -16.3991 C   0  0  0  0  0  0  0  0  0  0  0  0
   24.9471  -20.8248  -14.0671 C   0  0  0  0  0  0  0  0  0  0  0  0
   25.9775  -21.5169  -14.2303 O   0  0  0  0  0  0  0  0  0  0  0  0
   24.2058  -20.9380  -12.8874 N   0  0  0  0  0  0  0  0  0  0  0  0
   24.5187  -21.7659  -11.7456 C   0  0  1  0  0  0  0  0  0  0  0  0
   25.9532  -21.6456  -11.3213 C   0  0  0  0  0  0  0  0  0  0  0  0
   26.1079  -20.7659  -10.1612 C   0  0  0  0  0  0  0  0  0  0  0  0
   25.2126  -19.8230   -9.7580 C   0  0  0  0  0  0  0  0  0  0  0  0
   25.7314  -19.2009   -8.6881 N   0  0  0  0  0  0  0  0  0  0  0  0
   26.9264  -19.7305   -8.4102 C   0  0  0  0  0  0  0  0  0  0  0  0
   27.8036  -19.3992   -7.3746 C   0  0  0  0  0  0  0  0  0  0  0  0
   28.9790  -20.1057   -7.2767 C   0  0  0  0  0  0  0  0  0  0  0  0
   29.2672  -21.1041   -8.1781 C   0  0  0  0  0  0  0  0  0  0  0  0
   28.3903  -21.4104   -9.1868 C   0  0  0  0  0  0  0  0  0  0  0  0
   27.1870  -20.7174   -9.3221 C   0  0  0  0  0  0  0  0  0  0  0  0
   23.5340  -21.6868  -10.6819 C   0  0  0  0  0  0  0  0  0  0  0  0
   22.5276  -20.7509  -10.5465 O   0  0  0  0  0  0  0  0  0  0  0  0
   23.6072  -22.5779   -9.7639 O   0  0  0  0  0  0  0  0  0  0  0  0
  2  1  1  6
  3  2  1  0
  4  5  2  0
  4  3  1  0
  6  5  1  0
  7 12  2  0
  7  6  1  0
  8  7  1  0
  9 10  1  0
  9  8  2  0
 10 11  2  0
 11 12  1  0
 12  4  1  0
 13 15  1  0
 13  2  1  0
 14 13  2  0
 16 27  1  0
 16 15  1  0
 16 17  1  6
 18 26  1  0
 18 17  1  0
 19 18  2  0
 20 19  1  0
 20 21  1  0
 21 22  1  0
 21 26  2  0
 22 23  2  0
 23 24  1  0
 25 24  2  0
 26 25  1  0
 27 28  2  0
 29 30  1  0
 29 27  1  0
 30 41  1  0
 30 31  1  1
 32 31  1  0
 33 32  2  0
 34 35  1  0
 34 33  1  0
 35 40  2  0
 36 37  2  0
 36 35  1  0
 37 38  1  0
 38 39  2  0
 40 39  1  0
 40 32  1  0
 41 42  1  0
 43 41  2  0
M  END
$$$$
