WWW.pdb
     RDKit          3D

 43 48  0  0  1  0  0  0  0  0999 V2000
   29.0031  -19.8753  -16.3080 N   0  0  0  0  0  0  0  0  0  0  0  0
   27.7294  -20.4483  -15.9603 C   0  0  1  0  0  0  0  0  0  0  0  0
   27.0365  -21.0663  -17.1532 C   0  0  0  0  0  0  0  0  0  0  0  0
   26.7724  -19.9198  -18.0918 C   0  0  0  0  0  0  0  0  0  0  0  0
   27.6695  -19.3877  -18.9798 C   0  0  0  0  0  0  0  0  0  0  0  0
   27.0996  -18.3817  -19.6366 N   0  0  0  0  0  0  0  0  0  0  0  0
   25.8159  -18.2178  -19.2069 C   0  0  0  0  0  0  0  0  0  0  0  0
   24.8376  -17.3222  -19.5737 C   0  0  0  0  0  0  0  0  0  0  0  0
   23.6114  -17.4238  -18.9248 C   0  0  0  0  0  0  0  0  0  0  0  0
   23.4214  -18.3936  -17.9600 C   0  0  0  0  0  0  0  0  0  0  0  0
   24.4082  -19.2866  -17.5984 C   0  0  0  0  0  0  0  0  0  0  0  0
   25.6161  -19.1866  -18.2369 C   0  0  0  0  0  0  0  0  0  0  0  0
   27.8412  -21.3948  -14.8023 C   0  0  0  0  0  0  0  0  0  0  0  0
   28.4078  -22.4963  -14.9839 O   0  0  0  0  0  0  0  0  0  0  0  0
   27.3100  -21.0279  -13.5424 N   0  0  0  0  0  0  0  0  0  0  0  0
   26.4856  -21.8313  -12.6856 C   0  0  1  0  0  0  0  0  0  0  0  0
   27.0670  -22.0497  -11.2838 C   0  0  0  0  0  0  0  0  0  0  0  0
   26.5924  -21.0751  -10.2950 C   0  0  0  0  0  0  0  0  0  0  0  0
   25.4454  -20.3453  -10.2507 C   0  0  0  0  0  0  0  0  0  0  0  0
   25.4857  -19.6023   -9.1248 N   0  0  0  0  0  0  0  0  0  0  0  0
   26.6238  -19.8409   -8.4548 C   0  0  0  0  0  0  0  0  0  0  0  0
   27.1257  -19.3423   -7.2623 C   0  0  0  0  0  0  0  0  0  0  0  0
   28.3446  -19.7865   -6.8098 C   0  0  0  0  0  0  0  0  0  0  0  0
   29.0646  -20.7231   -7.5379 C   0  0  0  0  0  0  0  0  0  0  0  0
   28.5785  -21.2271   -8.7251 C   0  0  0  0  0  0  0  0  0  0  0  0
   27.3419  -20.7600   -9.1602 C   0  0  0  0  0  0  0  0  0  0  0  0
   25.1308  -21.2849  -12.5812 C   0  0  0  0  0  0  0  0  0  0  0  0
   24.7832  -20.7443  -11.5069 O   0  0  0  0  0  0  0  0  0  0  0  0
   24.2345  -21.3585  -13.6514 N   0  0  0  0  0  0  0  0  0  0  0  0
   22.9244  -21.9671  -13.6418 C   0  0  1  0  0  0  0  0  0  0  0  0
   21.8558  -21.0447  -14.1515 C   0  0  0  0  0  0  0  0  0  0  0  0
   21.5584  -19.9736  -13.1986 C   0  0  0  0  0  0  0  0  0  0  0  0
   21.9697  -18.6805  -13.3078 C   0  0  0  0  0  0  0  0  0  0  0  0
   21.5333  -18.0222  -12.2229 N   0  0  0  0  0  0  0  0  0  0  0  0
   20.8587  -18.8684  -11.4389 C   0  0  0  0  0  0  0  0  0  0  0  0
   20.2204  -18.6057  -10.2243 C   0  0  0  0  0  0  0  0  0  0  0  0
   19.5649  -19.6434   -9.6048 C   0  0  0  0  0  0  0  0  0  0  0  0
   19.5475  -20.8947  -10.1761 C   0  0  0  0  0  0  0  0  0  0  0  0
   20.1824  -21.1280  -11.3688 C   0  0  0  0  0  0  0  0  0  0  0  0
   20.8596  -20.1029  -12.0299 C   0  0  0  0  0  0  0  0  0  0  0  0
   22.9052  -23.3165  -14.1765 C   0  0  0  0  0  0  0  0  0  0  0  0
   23.9282  -23.9634  -14.8416 O   0  0  0  0  0  0  0  0  0  0  0  0
   21.8206  -23.9808  -14.0209 O   0  0  0  0  0  0  0  0  0  0  0  0
  2  1  1  6
  3  2  1  0
  4  5  2  0
  4  3  1  0
  6  5  1  0
  7 12  2  0
  7  6  1  0
  8  7  1  0
  9 10  1  0
  9  8  2  0
 10 11  2  0
 11 12  1  0
 12  4  1  0
 13 15  1  0
 13  2  1  0
 14 13  2  0
 16 27  1  0
 16 15  1  0
 16 17  1  1
 18 26  1  0
 18 17  1  0
 19 18  2  0
 20 19  1  0
 20 21  1  0
 21 22  1  0
 21 26  2  0
 22 23  2  0
 23 24  1  0
 25 24  2  0
 26 25  1  0
 27 28  2  0
 29 30  1  0
 29 27  1  0
 30 41  1  0
 30 31  1  6
 32 31  1  0
 33 32  2  0
 34 35  1  0
 34 33  1  0
 35 40  2  0
 36 37  2  0
 36 35  1  0
 37 38  1  0
 38 39  2  0
 40 39  1  0
 40 32  1  0
 41 42  1  0
 43 41  2  0
M  END
$$$$
