WWW.pdb
     RDKit          3D

 43 48  0  0  1  0  0  0  0  0999 V2000
   28.1868  -22.2553  -15.5141 N   0  0  0  0  0  0  0  0  0  0  0  0
   27.3330  -21.2746  -14.8970 C   0  0  1  0  0  0  0  0  0  0  0  0
   26.1967  -20.8564  -15.8019 C   0  0  0  0  0  0  0  0  0  0  0  0
   26.8421  -20.0492  -16.8960 C   0  0  0  0  0  0  0  0  0  0  0  0
   27.1354  -20.4976  -18.1567 C   0  0  0  0  0  0  0  0  0  0  0  0
   27.7103  -19.5208  -18.8521 N   0  0  0  0  0  0  0  0  0  0  0  0
   27.8144  -18.4026  -18.0787 C   0  0  0  0  0  0  0  0  0  0  0  0
   28.3323  -17.1552  -18.3421 C   0  0  0  0  0  0  0  0  0  0  0  0
   28.2870  -16.2210  -17.3123 C   0  0  0  0  0  0  0  0  0  0  0  0
   27.7388  -16.5668  -16.0928 C   0  0  0  0  0  0  0  0  0  0  0  0
   27.2226  -17.8200  -15.8377 C   0  0  0  0  0  0  0  0  0  0  0  0
   27.2675  -18.7405  -16.8514 C   0  0  0  0  0  0  0  0  0  0  0  0
   26.8615  -21.7180  -13.5441 C   0  0  0  0  0  0  0  0  0  0  0  0
   26.2621  -22.8131  -13.4499 O   0  0  0  0  0  0  0  0  0  0  0  0
   27.1008  -20.8991  -12.4144 N   0  0  0  0  0  0  0  0  0  0  0  0
   26.2368  -20.7131  -11.2839 C   0  0  1  0  0  0  0  0  0  0  0  0
   26.8275  -19.8212  -10.1856 C   0  0  0  0  0  0  0  0  0  0  0  0
   27.9642  -20.4300   -9.4854 C   0  0  0  0  0  0  0  0  0  0  0  0
   29.0852  -21.0289   -9.9701 C   0  0  0  0  0  0  0  0  0  0  0  0
   29.8245  -21.4150   -8.9092 N   0  0  0  0  0  0  0  0  0  0  0  0
   29.2051  -21.0774   -7.7675 C   0  0  0  0  0  0  0  0  0  0  0  0
   29.5499  -21.2451   -6.4350 C   0  0  0  0  0  0  0  0  0  0  0  0
   28.7017  -20.7802   -5.4592 C   0  0  0  0  0  0  0  0  0  0  0  0
   27.5140  -20.1503   -5.8036 C   0  0  0  0  0  0  0  0  0  0  0  0
   27.1581  -19.9771   -7.1238 C   0  0  0  0  0  0  0  0  0  0  0  0
   28.0352  -20.4575   -8.0916 C   0  0  0  0  0  0  0  0  0  0  0  0
   24.9274  -20.1981  -11.6906 C   0  0  0  0  0  0  0  0  0  0  0  0
   24.8583  -19.0407  -12.1627 O   0  0  0  0  0  0  0  0  0  0  0  0
   23.7710  -20.9725  -11.5600 N   0  0  0  0  0  0  0  0  0  0  0  0
   22.4359  -20.6098  -11.9760 C   0  0  1  0  0  0  0  0  0  0  0  0
   22.4095  -19.9592  -13.3282 C   0  0  0  0  0  0  0  0  0  0  0  0
   21.7137  -20.7840  -14.3178 C   0  0  0  0  0  0  0  0  0  0  0  0
   20.3901  -21.1014  -14.2935 C   0  0  0  0  0  0  0  0  0  0  0  0
   20.1452  -21.9034  -15.3412 N   0  0  0  0  0  0  0  0  0  0  0  0
   21.2796  -22.0947  -16.0211 C   0  0  0  0  0  0  0  0  0  0  0  0
   21.4795  -22.8427  -17.1840 C   0  0  0  0  0  0  0  0  0  0  0  0
   22.7459  -22.8743  -17.7184 C   0  0  0  0  0  0  0  0  0  0  0  0
   23.7726  -22.1857  -17.1150 C   0  0  0  0  0  0  0  0  0  0  0  0
   23.5515  -21.4591  -15.9733 C   0  0  0  0  0  0  0  0  0  0  0  0
   22.2817  -21.4012  -15.3982 C   0  0  0  0  0  0  0  0  0  0  0  0
   21.4533  -21.6555  -11.7561 C   0  0  0  0  0  0  0  0  0  0  0  0
   20.0806  -21.5118  -11.7092 O   0  0  0  0  0  0  0  0  0  0  0  0
   21.9058  -22.8414  -11.5807 O   0  0  0  0  0  0  0  0  0  0  0  0
  2  1  1  6
  3  2  1  0
  4  5  2  0
  4  3  1  0
  6  5  1  0
  7 12  2  0
  7  6  1  0
  8  7  1  0
  9 10  1  0
  9  8  2  0
 10 11  2  0
 11 12  1  0
 12  4  1  0
 13 15  1  0
 13  2  1  0
 14 13  2  0
 16 27  1  0
 16 15  1  0
 16 17  1  1
 18 26  1  0
 18 17  1  0
 19 18  2  0
 20 19  1  0
 20 21  1  0
 21 22  1  0
 21 26  2  0
 22 23  2  0
 23 24  1  0
 25 24  2  0
 26 25  1  0
 27 28  2  0
 29 30  1  0
 29 27  1  0
 30 41  1  0
 30 31  1  6
 32 31  1  0
 33 32  2  0
 34 35  1  0
 34 33  1  0
 35 40  2  0
 36 37  2  0
 36 35  1  0
 37 38  1  0
 38 39  2  0
 40 39  1  0
 40 32  1  0
 41 42  1  0
 43 41  2  0
M  END
$$$$
