WWW.pdb
     RDKit          3D

 43 48  0  0  1  0  0  0  0  0999 V2000
   27.4868  -21.0985  -17.2416 N   0  0  0  0  0  0  0  0  0  0  0  0
   26.3496  -20.4178  -16.6802 C   0  0  1  0  0  0  0  0  0  0  0  0
   25.1519  -20.4512  -17.6019 C   0  0  0  0  0  0  0  0  0  0  0  0
   25.1816  -19.1359  -18.3329 C   0  0  0  0  0  0  0  0  0  0  0  0
   25.9012  -18.8649  -19.4666 C   0  0  0  0  0  0  0  0  0  0  0  0
   25.6984  -17.6016  -19.8290 N   0  0  0  0  0  0  0  0  0  0  0  0
   24.8437  -17.0011  -18.9524 C   0  0  0  0  0  0  0  0  0  0  0  0
   24.3399  -15.7216  -18.8998 C   0  0  0  0  0  0  0  0  0  0  0  0
   23.4759  -15.4246  -17.8508 C   0  0  0  0  0  0  0  0  0  0  0  0
   23.1607  -16.3970  -16.9222 C   0  0  0  0  0  0  0  0  0  0  0  0
   23.6712  -17.6768  -16.9826 C   0  0  0  0  0  0  0  0  0  0  0  0
   24.5226  -17.9696  -18.0152 C   0  0  0  0  0  0  0  0  0  0  0  0
   26.0306  -20.9098  -15.2999 C   0  0  0  0  0  0  0  0  0  0  0  0
   25.8622  -22.1383  -15.1278 O   0  0  0  0  0  0  0  0  0  0  0  0
   25.9276  -19.9860  -14.2321 N   0  0  0  0  0  0  0  0  0  0  0  0
   25.4961  -20.2604  -12.8913 C   0  0  1  0  0  0  0  0  0  0  0  0
   26.1669  -19.3841  -11.8269 C   0  0  0  0  0  0  0  0  0  0  0  0
   27.2645  -20.0561  -11.1222 C   0  0  0  0  0  0  0  0  0  0  0  0
   28.3443  -20.7296  -11.6024 C   0  0  0  0  0  0  0  0  0  0  0  0
   29.0602  -21.1506  -10.5387 N   0  0  0  0  0  0  0  0  0  0  0  0
   28.4660  -20.7627   -9.3996 C   0  0  0  0  0  0  0  0  0  0  0  0
   28.8025  -20.9379   -8.0659 C   0  0  0  0  0  0  0  0  0  0  0  0
   27.9875  -20.4102   -7.0937 C   0  0  0  0  0  0  0  0  0  0  0  0
   26.8412  -19.7102   -7.4428 C   0  0  0  0  0  0  0  0  0  0  0  0
   26.4940  -19.5287   -8.7642 C   0  0  0  0  0  0  0  0  0  0  0  0
   27.3368  -20.0735   -9.7283 C   0  0  0  0  0  0  0  0  0  0  0  0
   24.0399  -20.1638  -12.7679 C   0  0  0  0  0  0  0  0  0  0  0  0
   23.4879  -19.0689  -13.0201 O   0  0  0  0  0  0  0  0  0  0  0  0
   23.2705  -21.2638  -12.3778 N   0  0  0  0  0  0  0  0  0  0  0  0
   21.8426  -21.2866  -12.1599 C   0  0  1  0  0  0  0  0  0  0  0  0
   21.0761  -20.6669  -13.2917 C   0  0  0  0  0  0  0  0  0  0  0  0
   21.3210  -21.3567  -14.5597 C   0  0  0  0  0  0  0  0  0  0  0  0
   21.6872  -22.6611  -14.6932 C   0  0  0  0  0  0  0  0  0  0  0  0
   21.8550  -22.9042  -16.0022 N   0  0  0  0  0  0  0  0  0  0  0  0
   21.6020  -21.7875  -16.6912 C   0  0  0  0  0  0  0  0  0  0  0  0
   21.6372  -21.5935  -18.0743 C   0  0  0  0  0  0  0  0  0  0  0  0
   21.3133  -20.3478  -18.5573 C   0  0  0  0  0  0  0  0  0  0  0  0
   20.9677  -19.3351  -17.6928 C   0  0  0  0  0  0  0  0  0  0  0  0
   20.9412  -19.5498  -16.3388 C   0  0  0  0  0  0  0  0  0  0  0  0
   21.2636  -20.7989  -15.8072 C   0  0  0  0  0  0  0  0  0  0  0  0
   21.3468  -22.5649  -11.6831 C   0  0  0  0  0  0  0  0  0  0  0  0
   20.0933  -22.8326  -11.1688 O   0  0  0  0  0  0  0  0  0  0  0  0
   22.1599  -23.5537  -11.7392 O   0  0  0  0  0  0  0  0  0  0  0  0
  2  1  1  6
  3  2  1  0
  4  5  2  0
  4  3  1  0
  6  5  1  0
  7 12  2  0
  7  6  1  0
  8  7  1  0
  9 10  1  0
  9  8  2  0
 10 11  2  0
 11 12  1  0
 12  4  1  0
 13 15  1  0
 13  2  1  0
 14 13  2  0
 16 27  1  0
 16 15  1  0
 16 17  1  1
 18 26  1  0
 18 17  1  0
 19 18  2  0
 20 19  1  0
 20 21  1  0
 21 22  1  0
 21 26  2  0
 22 23  2  0
 23 24  1  0
 25 24  2  0
 26 25  1  0
 27 28  2  0
 29 30  1  0
 29 27  1  0
 30 41  1  0
 30 31  1  6
 32 31  1  0
 33 32  2  0
 34 35  1  0
 34 33  1  0
 35 40  2  0
 36 37  2  0
 36 35  1  0
 37 38  1  0
 38 39  2  0
 40 39  1  0
 40 32  1  0
 41 42  1  0
 43 41  2  0
M  END
$$$$
