WWW.pdb
     RDKit          3D

 43 48  0  0  1  0  0  0  0  0999 V2000
   26.4060  -22.9453  -10.8589 N   0  0  0  0  0  0  0  0  0  0  0  0
   25.9888  -21.6030  -11.1688 C   0  0  1  0  0  0  0  0  0  0  0  0
   27.1410  -20.7384  -11.6270 C   0  0  0  0  0  0  0  0  0  0  0  0
   28.1186  -20.7475  -10.4827 C   0  0  0  0  0  0  0  0  0  0  0  0
   29.3064  -21.4289  -10.4485 C   0  0  0  0  0  0  0  0  0  0  0  0
   29.9051  -21.2181   -9.2800 N   0  0  0  0  0  0  0  0  0  0  0  0
   29.1373  -20.3956   -8.5095 C   0  0  0  0  0  0  0  0  0  0  0  0
   29.3228  -19.8981   -7.2399 C   0  0  0  0  0  0  0  0  0  0  0  0
   28.3258  -19.0711   -6.7327 C   0  0  0  0  0  0  0  0  0  0  0  0
   27.2131  -18.7846   -7.4989 C   0  0  0  0  0  0  0  0  0  0  0  0
   27.0355  -19.2886   -8.7703 C   0  0  0  0  0  0  0  0  0  0  0  0
   28.0169  -20.1034   -9.2701 C   0  0  0  0  0  0  0  0  0  0  0  0
   24.8355  -21.5848  -12.1272 C   0  0  0  0  0  0  0  0  0  0  0  0
   24.8097  -22.4338  -13.0469 O   0  0  0  0  0  0  0  0  0  0  0  0
   23.8115  -20.6192  -11.9745 N   0  0  0  0  0  0  0  0  0  0  0  0
   22.4675  -20.6998  -12.4709 C   0  0  1  0  0  0  0  0  0  0  0  0
   21.4148  -20.1120  -11.5236 C   0  0  0  0  0  0  0  0  0  0  0  0
   21.1080  -20.9782  -10.3797 C   0  0  0  0  0  0  0  0  0  0  0  0
   21.4880  -20.8920   -9.0765 C   0  0  0  0  0  0  0  0  0  0  0  0
   20.9288  -21.9336   -8.4257 N   0  0  0  0  0  0  0  0  0  0  0  0
   20.2055  -22.6760   -9.2782 C   0  0  0  0  0  0  0  0  0  0  0  0
   19.4480  -23.8242   -9.1034 C   0  0  0  0  0  0  0  0  0  0  0  0
   18.7974  -24.3693  -10.1838 C   0  0  0  0  0  0  0  0  0  0  0  0
   18.8974  -23.7776  -11.4351 C   0  0  0  0  0  0  0  0  0  0  0  0
   19.6470  -22.6365  -11.6238 C   0  0  0  0  0  0  0  0  0  0  0  0
   20.2956  -22.1055  -10.5129 C   0  0  0  0  0  0  0  0  0  0  0  0
   22.3473  -20.0797  -13.7923 C   0  0  0  0  0  0  0  0  0  0  0  0
   22.5339  -18.8460  -13.8951 O   0  0  0  0  0  0  0  0  0  0  0  0
   22.0317  -20.8380  -14.9234 N   0  0  0  0  0  0  0  0  0  0  0  0
   21.8014  -20.3417  -16.2604 C   0  0  1  0  0  0  0  0  0  0  0  0
   22.1548  -21.3464  -17.3178 C   0  0  0  0  0  0  0  0  0  0  0  0
   21.9678  -20.8086  -18.6667 C   0  0  0  0  0  0  0  0  0  0  0  0
   22.9101  -20.1461  -19.3922 C   0  0  0  0  0  0  0  0  0  0  0  0
   22.3454  -19.7784  -20.5527 N   0  0  0  0  0  0  0  0  0  0  0  0
   21.0757  -20.1946  -20.5733 C   0  0  0  0  0  0  0  0  0  0  0  0
   20.1290  -20.0447  -21.5897 C   0  0  0  0  0  0  0  0  0  0  0  0
   18.8796  -20.5822  -21.3889 C   0  0  0  0  0  0  0  0  0  0  0  0
   18.5869  -21.2435  -20.2187 C   0  0  0  0  0  0  0  0  0  0  0  0
   19.5330  -21.3769  -19.2352 C   0  0  0  0  0  0  0  0  0  0  0  0
   20.8128  -20.8457  -19.3985 C   0  0  0  0  0  0  0  0  0  0  0  0
   20.5220  -19.6750  -16.4215 C   0  0  0  0  0  0  0  0  0  0  0  0
   20.2661  -18.5280  -17.1470 O   0  0  0  0  0  0  0  0  0  0  0  0
   19.5197  -20.2024  -15.8222 O   0  0  0  0  0  0  0  0  0  0  0  0
  2  1  1  6
  3  2  1  0
  4  5  2  0
  4  3  1  0
  6  5  1  0
  7 12  2  0
  7  6  1  0
  8  7  1  0
  9 10  1  0
  9  8  2  0
 10 11  2  0
 11 12  1  0
 12  4  1  0
 13 15  1  0
 13  2  1  0
 14 13  2  0
 16 27  1  0
 16 15  1  0
 16 17  1  1
 18 26  1  0
 18 17  1  0
 19 18  2  0
 20 19  1  0
 20 21  1  0
 21 22  1  0
 21 26  2  0
 22 23  2  0
 23 24  1  0
 25 24  2  0
 26 25  1  0
 27 28  2  0
 29 30  1  0
 29 27  1  0
 30 41  1  0
 30 31  1  6
 32 31  1  0
 33 32  2  0
 34 35  1  0
 34 33  1  0
 35 40  2  0
 36 37  2  0
 36 35  1  0
 37 38  1  0
 38 39  2  0
 40 39  1  0
 40 32  1  0
 41 42  1  0
 43 41  2  0
M  END
$$$$
