WWW.pdb
     RDKit          3D

 43 48  0  0  1  0  0  0  0  0999 V2000
   29.0517  -20.5755  -14.3793 N   0  0  0  0  0  0  0  0  0  0  0  0
   27.8964  -20.3057  -13.5642 C   0  0  1  0  0  0  0  0  0  0  0  0
   26.7372  -19.7732  -14.3752 C   0  0  0  0  0  0  0  0  0  0  0  0
   27.2828  -18.5716  -15.0989 C   0  0  0  0  0  0  0  0  0  0  0  0
   28.5932  -18.3701  -15.4435 C   0  0  0  0  0  0  0  0  0  0  0  0
   28.7142  -17.1983  -16.0605 N   0  0  0  0  0  0  0  0  0  0  0  0
   27.4956  -16.5919  -16.1432 C   0  0  0  0  0  0  0  0  0  0  0  0
   27.1112  -15.3846  -16.6803 C   0  0  0  0  0  0  0  0  0  0  0  0
   25.7623  -15.0552  -16.5952 C   0  0  0  0  0  0  0  0  0  0  0  0
   24.8777  -15.9267  -15.9908 C   0  0  0  0  0  0  0  0  0  0  0  0
   25.2724  -17.1344  -15.4545 C   0  0  0  0  0  0  0  0  0  0  0  0
   26.6008  -17.4590  -15.5377 C   0  0  0  0  0  0  0  0  0  0  0  0
   27.5186  -21.4886  -12.7233 C   0  0  0  0  0  0  0  0  0  0  0  0
   27.3182  -22.5858  -13.2918 O   0  0  0  0  0  0  0  0  0  0  0  0
   27.3976  -21.3422  -11.3204 N   0  0  0  0  0  0  0  0  0  0  0  0
   26.2742  -21.7109  -10.5073 C   0  0  1  0  0  0  0  0  0  0  0  0
   26.6253  -21.9752   -9.0384 C   0  0  0  0  0  0  0  0  0  0  0  0
   26.7620  -20.7517   -8.2401 C   0  0  0  0  0  0  0  0  0  0  0  0
   26.1854  -19.5286   -8.3879 C   0  0  0  0  0  0  0  0  0  0  0  0
   26.6347  -18.7489   -7.3823 N   0  0  0  0  0  0  0  0  0  0  0  0
   27.4780  -19.4424   -6.6019 C   0  0  0  0  0  0  0  0  0  0  0  0
   28.1871  -19.1001   -5.4605 C   0  0  0  0  0  0  0  0  0  0  0  0
   28.9850  -20.0430   -4.8588 C   0  0  0  0  0  0  0  0  0  0  0  0
   29.0799  -21.3226   -5.3872 C   0  0  0  0  0  0  0  0  0  0  0  0
   28.3812  -21.6769   -6.5213 C   0  0  0  0  0  0  0  0  0  0  0  0
   27.5809  -20.7029   -7.1106 C   0  0  0  0  0  0  0  0  0  0  0  0
   25.2042  -20.7141  -10.5901 C   0  0  0  0  0  0  0  0  0  0  0  0
   25.4965  -19.5064  -10.4376 O   0  0  0  0  0  0  0  0  0  0  0  0
   23.8801  -21.0900  -10.8340 N   0  0  0  0  0  0  0  0  0  0  0  0
   22.9849  -20.5170  -11.8125 C   0  0  1  0  0  0  0  0  0  0  0  0
   23.6499  -20.2866  -13.1381 C   0  0  0  0  0  0  0  0  0  0  0  0
   22.7420  -19.6650  -14.1040 C   0  0  0  0  0  0  0  0  0  0  0  0
   21.7410  -18.7934  -13.8018 C   0  0  0  0  0  0  0  0  0  0  0  0
   21.1121  -18.4839  -14.9462 N   0  0  0  0  0  0  0  0  0  0  0  0
   21.6940  -19.1372  -15.9563 C   0  0  0  0  0  0  0  0  0  0  0  0
   21.3752  -19.0955  -17.3159 C   0  0  0  0  0  0  0  0  0  0  0  0
   22.1384  -19.8461  -18.1786 C   0  0  0  0  0  0  0  0  0  0  0  0
   23.1795  -20.6087  -17.7021 C   0  0  0  0  0  0  0  0  0  0  0  0
   23.4724  -20.6339  -16.3628 C   0  0  0  0  0  0  0  0  0  0  0  0
   22.7224  -19.8875  -15.4535 C   0  0  0  0  0  0  0  0  0  0  0  0
   21.6844  -21.1601  -11.8587 C   0  0  0  0  0  0  0  0  0  0  0  0
   21.4089  -22.4545  -12.2539 O   0  0  0  0  0  0  0  0  0  0  0  0
   20.6795  -20.4507  -11.4996 O   0  0  0  0  0  0  0  0  0  0  0  0
  2  1  1  6
  3  2  1  0
  4  5  2  0
  4  3  1  0
  6  5  1  0
  7 12  2  0
  7  6  1  0
  8  7  1  0
  9 10  1  0
  9  8  2  0
 10 11  2  0
 11 12  1  0
 12  4  1  0
 13 15  1  0
 13  2  1  0
 14 13  2  0
 16 27  1  0
 16 15  1  0
 16 17  1  1
 18 26  1  0
 18 17  1  0
 19 18  2  0
 20 19  1  0
 20 21  1  0
 21 22  1  0
 21 26  2  0
 22 23  2  0
 23 24  1  0
 25 24  2  0
 26 25  1  0
 27 28  2  0
 29 30  1  0
 29 27  1  0
 30 41  1  0
 30 31  1  6
 32 31  1  0
 33 32  2  0
 34 35  1  0
 34 33  1  0
 35 40  2  0
 36 37  2  0
 36 35  1  0
 37 38  1  0
 38 39  2  0
 40 39  1  0
 40 32  1  0
 41 42  1  0
 43 41  2  0
M  END
$$$$
