WWW.pdb
     RDKit          3D

 43 48  0  0  1  0  0  0  0  0999 V2000
   28.5734  -28.6300  -22.7675 N   0  0  0  0  0  0  0  0  0  0  0  0
   27.8037  -29.2412  -21.7161 C   0  0  1  0  0  0  0  0  0  0  0  0
   26.4210  -29.6403  -22.1787 C   0  0  0  0  0  0  0  0  0  0  0  0
   25.7017  -28.3429  -22.4327 C   0  0  0  0  0  0  0  0  0  0  0  0
   25.9344  -27.4885  -23.4779 C   0  0  0  0  0  0  0  0  0  0  0  0
   25.1253  -26.4378  -23.3804 N   0  0  0  0  0  0  0  0  0  0  0  0
   24.3367  -26.5633  -22.2750 C   0  0  0  0  0  0  0  0  0  0  0  0
   23.3598  -25.7466  -21.7529 C   0  0  0  0  0  0  0  0  0  0  0  0
   22.7359  -26.1735  -20.5851 C   0  0  0  0  0  0  0  0  0  0  0  0
   23.1073  -27.3701  -20.0041 C   0  0  0  0  0  0  0  0  0  0  0  0
   24.0882  -28.1818  -20.5343 C   0  0  0  0  0  0  0  0  0  0  0  0
   24.7032  -27.7615  -21.6840 C   0  0  0  0  0  0  0  0  0  0  0  0
   28.5450  -30.3720  -21.0673 C   0  0  0  0  0  0  0  0  0  0  0  0
   28.9712  -31.3000  -21.7914 O   0  0  0  0  0  0  0  0  0  0  0  0
   28.7453  -30.3672  -19.6659 N   0  0  0  0  0  0  0  0  0  0  0  0
   29.4353  -31.3567  -18.8887 C   0  0  1  0  0  0  0  0  0  0  0  0
   30.1292  -30.7991  -17.6403 C   0  0  0  0  0  0  0  0  0  0  0  0
   31.3115  -29.9845  -17.9426 C   0  0  0  0  0  0  0  0  0  0  0  0
   31.4245  -28.7931  -18.5893 C   0  0  0  0  0  0  0  0  0  0  0  0
   32.7329  -28.4627  -18.5962 N   0  0  0  0  0  0  0  0  0  0  0  0
   33.4513  -29.4092  -17.9724 C   0  0  0  0  0  0  0  0  0  0  0  0
   34.8082  -29.5312  -17.7143 C   0  0  0  0  0  0  0  0  0  0  0  0
   35.2647  -30.6333  -17.0326 C   0  0  0  0  0  0  0  0  0  0  0  0
   34.3781  -31.6125  -16.6074 C   0  0  0  0  0  0  0  0  0  0  0  0
   33.0269  -31.5048  -16.8571 C   0  0  0  0  0  0  0  0  0  0  0  0
   32.5916  -30.3789  -17.5495 C   0  0  0  0  0  0  0  0  0  0  0  0
   28.5450  -32.4569  -18.5117 C   0  0  0  0  0  0  0  0  0  0  0  0
   27.4405  -32.1829  -17.9899 O   0  0  0  0  0  0  0  0  0  0  0  0
   28.9086  -33.7897  -18.7250 N   0  0  0  0  0  0  0  0  0  0  0  0
   28.0455  -34.9452  -18.6425 C   0  0  1  0  0  0  0  0  0  0  0  0
   26.6481  -34.6562  -19.1074 C   0  0  0  0  0  0  0  0  0  0  0  0
   25.7706  -35.8185  -18.9564 C   0  0  0  0  0  0  0  0  0  0  0  0
   25.2261  -36.2523  -17.7865 C   0  0  0  0  0  0  0  0  0  0  0  0
   24.5217  -37.3630  -18.0532 N   0  0  0  0  0  0  0  0  0  0  0  0
   24.6096  -37.6346  -19.3587 C   0  0  0  0  0  0  0  0  0  0  0  0
   24.0195  -38.6826  -20.0694 C   0  0  0  0  0  0  0  0  0  0  0  0
   24.2389  -38.7438  -21.4252 C   0  0  0  0  0  0  0  0  0  0  0  0
   25.0174  -37.7953  -22.0472 C   0  0  0  0  0  0  0  0  0  0  0  0
   25.5867  -36.7763  -21.3276 C   0  0  0  0  0  0  0  0  0  0  0  0
   25.3898  -36.6779  -19.9499 C   0  0  0  0  0  0  0  0  0  0  0  0
   28.6478  -36.1600  -19.1611 C   0  0  0  0  0  0  0  0  0  0  0  0
   29.7284  -36.2545  -20.0158 O   0  0  0  0  0  0  0  0  0  0  0  0
   28.1181  -37.2668  -18.7919 O   0  0  0  0  0  0  0  0  0  0  0  0
  2  1  1  6
  3  2  1  0
  4  5  2  0
  4  3  1  0
  6  5  1  0
  7 12  2  0
  7  6  1  0
  8  7  1  0
  9 10  1  0
  9  8  2  0
 10 11  2  0
 11 12  1  0
 12  4  1  0
 13 15  1  0
 13  2  1  0
 14 13  2  0
 16 27  1  0
 16 15  1  0
 16 17  1  1
 18 26  1  0
 18 17  1  0
 19 18  2  0
 20 19  1  0
 20 21  1  0
 21 22  1  0
 21 26  2  0
 22 23  2  0
 23 24  1  0
 25 24  2  0
 26 25  1  0
 27 28  2  0
 29 30  1  0
 29 27  1  0
 30 41  1  0
 30 31  1  6
 32 31  1  0
 33 32  2  0
 34 35  1  0
 34 33  1  0
 35 40  2  0
 36 37  2  0
 36 35  1  0
 37 38  1  0
 38 39  2  0
 40 39  1  0
 40 32  1  0
 41 42  1  0
 43 41  2  0
M  END
$$$$
