WWW.pdb
     RDKit          3D

 43 48  0  0  1  0  0  0  0  0999 V2000
   24.8679  -33.0223  -19.1537 N   0  0  0  0  0  0  0  0  0  0  0  0
   24.9977  -32.5449  -17.8020 C   0  0  1  0  0  0  0  0  0  0  0  0
   23.7114  -32.6859  -17.0206 C   0  0  0  0  0  0  0  0  0  0  0  0
   22.7568  -31.7108  -17.6556 C   0  0  0  0  0  0  0  0  0  0  0  0
   21.6888  -32.0359  -18.4494 C   0  0  0  0  0  0  0  0  0  0  0  0
   21.0749  -30.9243  -18.8438 N   0  0  0  0  0  0  0  0  0  0  0  0
   21.7131  -29.8358  -18.3267 C   0  0  0  0  0  0  0  0  0  0  0  0
   21.4640  -28.4879  -18.4487 C   0  0  0  0  0  0  0  0  0  0  0  0
   22.3258  -27.6226  -17.7827 C   0  0  0  0  0  0  0  0  0  0  0  0
   23.3743  -28.1307  -17.0412 C   0  0  0  0  0  0  0  0  0  0  0  0
   23.6165  -29.4835  -16.9252 C   0  0  0  0  0  0  0  0  0  0  0  0
   22.7684  -30.3361  -17.5814 C   0  0  0  0  0  0  0  0  0  0  0  0
   26.1703  -33.1646  -17.1019 C   0  0  0  0  0  0  0  0  0  0  0  0
   26.5265  -34.3165  -17.4388 O   0  0  0  0  0  0  0  0  0  0  0  0
   26.8426  -32.4431  -16.0863 N   0  0  0  0  0  0  0  0  0  0  0  0
   27.8994  -32.9220  -15.2418 C   0  0  1  0  0  0  0  0  0  0  0  0
   29.0088  -31.8952  -14.9853 C   0  0  0  0  0  0  0  0  0  0  0  0
   29.6767  -31.4372  -16.2089 C   0  0  0  0  0  0  0  0  0  0  0  0
   29.2765  -30.5467  -17.1561 C   0  0  0  0  0  0  0  0  0  0  0  0
   30.2604  -30.4708  -18.0766 N   0  0  0  0  0  0  0  0  0  0  0  0
   31.2717  -31.2862  -17.7397 C   0  0  0  0  0  0  0  0  0  0  0  0
   32.4904  -31.5585  -18.3426 C   0  0  0  0  0  0  0  0  0  0  0  0
   33.3464  -32.4549  -17.7498 C   0  0  0  0  0  0  0  0  0  0  0  0
   32.9953  -33.0802  -16.5617 C   0  0  0  0  0  0  0  0  0  0  0  0
   31.7873  -32.8197  -15.9514 C   0  0  0  0  0  0  0  0  0  0  0  0
   30.9393  -31.9081  -16.5731 C   0  0  0  0  0  0  0  0  0  0  0  0
   27.3803  -33.4206  -13.9663 C   0  0  0  0  0  0  0  0  0  0  0  0
   26.6761  -32.6583  -13.2661 O   0  0  0  0  0  0  0  0  0  0  0  0
   27.6575  -34.7188  -13.5281 N   0  0  0  0  0  0  0  0  0  0  0  0
   26.8345  -35.5343  -12.6653 C   0  0  1  0  0  0  0  0  0  0  0  0
   25.3687  -35.3721  -12.9436 C   0  0  0  0  0  0  0  0  0  0  0  0
   24.5468  -36.1506  -12.0151 C   0  0  0  0  0  0  0  0  0  0  0  0
   24.2908  -35.8228  -10.7189 C   0  0  0  0  0  0  0  0  0  0  0  0
   23.5391  -36.8021  -10.1928 N   0  0  0  0  0  0  0  0  0  0  0  0
   23.3167  -37.7328  -11.1256 C   0  0  0  0  0  0  0  0  0  0  0  0
   22.5720  -38.9099  -11.0177 C   0  0  0  0  0  0  0  0  0  0  0  0
   22.4664  -39.7083  -12.1319 C   0  0  0  0  0  0  0  0  0  0  0  0
   23.0806  -39.3454  -13.3081 C   0  0  0  0  0  0  0  0  0  0  0  0
   23.8071  -38.1852  -13.3889 C   0  0  0  0  0  0  0  0  0  0  0  0
   23.9398  -37.3470  -12.2815 C   0  0  0  0  0  0  0  0  0  0  0  0
   27.3071  -36.9004  -12.5311 C   0  0  0  0  0  0  0  0  0  0  0  0
   27.3624  -37.6526  -11.3742 O   0  0  0  0  0  0  0  0  0  0  0  0
   27.7240  -37.4717  -13.5996 O   0  0  0  0  0  0  0  0  0  0  0  0
  2  1  1  6
  3  2  1  0
  4  5  2  0
  4  3  1  0
  6  5  1  0
  7 12  2  0
  7  6  1  0
  8  7  1  0
  9 10  1  0
  9  8  2  0
 10 11  2  0
 11 12  1  0
 12  4  1  0
 13 15  1  0
 13  2  1  0
 14 13  2  0
 16 27  1  0
 16 15  1  0
 16 17  1  1
 18 26  1  0
 18 17  1  0
 19 18  2  0
 20 19  1  0
 20 21  1  0
 21 22  1  0
 21 26  2  0
 22 23  2  0
 23 24  1  0
 25 24  2  0
 26 25  1  0
 27 28  2  0
 29 30  1  0
 29 27  1  0
 30 41  1  0
 30 31  1  6
 32 31  1  0
 33 32  2  0
 34 35  1  0
 34 33  1  0
 35 40  2  0
 36 37  2  0
 36 35  1  0
 37 38  1  0
 38 39  2  0
 40 39  1  0
 40 32  1  0
 41 42  1  0
 43 41  2  0
M  END
$$$$
