WWW.pdb
     RDKit          3D

 43 48  0  0  1  0  0  0  0  0999 V2000
   20.8349  -12.7380  -17.6630 N   0  0  0  0  0  0  0  0  0  0  0  0
   20.5616  -11.3598  -17.9755 C   0  0  1  0  0  0  0  0  0  0  0  0
   19.0850  -11.0422  -17.9133 C   0  0  0  0  0  0  0  0  0  0  0  0
   18.4813  -11.7455  -19.0991 C   0  0  0  0  0  0  0  0  0  0  0  0
   17.9077  -12.9894  -19.0868 C   0  0  0  0  0  0  0  0  0  0  0  0
   17.4912  -13.2977  -20.3114 N   0  0  0  0  0  0  0  0  0  0  0  0
   17.7740  -12.2740  -21.1668 C   0  0  0  0  0  0  0  0  0  0  0  0
   17.5472  -12.1222  -22.5156 C   0  0  0  0  0  0  0  0  0  0  0  0
   17.9712  -10.9323  -23.0984 C   0  0  0  0  0  0  0  0  0  0  0  0
   18.5888   -9.9689  -22.3252 C   0  0  0  0  0  0  0  0  0  0  0  0
   18.8125  -10.1303  -20.9739 C   0  0  0  0  0  0  0  0  0  0  0  0
   18.3956  -11.3022  -20.3997 C   0  0  0  0  0  0  0  0  0  0  0  0
   21.3895  -10.4249  -17.1451 C   0  0  0  0  0  0  0  0  0  0  0  0
   21.5466  -10.6847  -15.9306 O   0  0  0  0  0  0  0  0  0  0  0  0
   21.9698   -9.2810  -17.7443 N   0  0  0  0  0  0  0  0  0  0  0  0
   22.7494   -8.2670  -17.0940 C   0  0  1  0  0  0  0  0  0  0  0  0
   24.0597   -7.9276  -17.8142 C   0  0  0  0  0  0  0  0  0  0  0  0
   24.9071   -9.0979  -18.0699 C   0  0  0  0  0  0  0  0  0  0  0  0
   25.2376   -9.7142  -19.2366 C   0  0  0  0  0  0  0  0  0  0  0  0
   26.0544  -10.7436  -18.9294 N   0  0  0  0  0  0  0  0  0  0  0  0
   26.2513  -10.7966  -17.6029 C   0  0  0  0  0  0  0  0  0  0  0  0
   26.9991  -11.6488  -16.8047 C   0  0  0  0  0  0  0  0  0  0  0  0
   27.0170  -11.4508  -15.4452 C   0  0  0  0  0  0  0  0  0  0  0  0
   26.2952  -10.4101  -14.8780 C   0  0  0  0  0  0  0  0  0  0  0  0
   25.5472   -9.5555  -15.6589 C   0  0  0  0  0  0  0  0  0  0  0  0
   25.5465   -9.7787  -17.0325 C   0  0  0  0  0  0  0  0  0  0  0  0
   21.9689   -7.0458  -16.8824 C   0  0  0  0  0  0  0  0  0  0  0  0
   20.9569   -6.8502  -17.5929 O   0  0  0  0  0  0  0  0  0  0  0  0
   22.3351   -6.1102  -15.9106 N   0  0  0  0  0  0  0  0  0  0  0  0
   21.5639   -5.7184  -14.7535 C   0  0  1  0  0  0  0  0  0  0  0  0
   20.9971   -6.8941  -14.0126 C   0  0  0  0  0  0  0  0  0  0  0  0
   20.1594   -6.4778  -12.8862 C   0  0  0  0  0  0  0  0  0  0  0  0
   18.8637   -6.0693  -12.9720 C   0  0  0  0  0  0  0  0  0  0  0  0
   18.4605   -5.7342  -11.7367 N   0  0  0  0  0  0  0  0  0  0  0  0
   19.4686   -5.9236  -10.8803 C   0  0  0  0  0  0  0  0  0  0  0  0
   19.4840   -5.7201   -9.4983 C   0  0  0  0  0  0  0  0  0  0  0  0
   20.6439   -6.0083   -8.8188 C   0  0  0  0  0  0  0  0  0  0  0  0
   21.7456   -6.4813   -9.4932 C   0  0  0  0  0  0  0  0  0  0  0  0
   21.7063   -6.6719  -10.8506 C   0  0  0  0  0  0  0  0  0  0  0  0
   20.5493   -6.3912  -11.5780 C   0  0  0  0  0  0  0  0  0  0  0  0
   22.2110   -4.7069  -13.9378 C   0  0  0  0  0  0  0  0  0  0  0  0
   23.5219   -4.7009  -13.5031 O   0  0  0  0  0  0  0  0  0  0  0  0
   21.4887   -3.7125  -13.5753 O   0  0  0  0  0  0  0  0  0  0  0  0
  2  1  1  1
  3  2  1  0
  4  5  2  0
  4  3  1  0
  6  5  1  0
  7 12  2  0
  7  6  1  0
  8  7  1  0
  9 10  1  0
  9  8  2  0
 10 11  2  0
 11 12  1  0
 12  4  1  0
 13 15  1  0
 13  2  1  0
 14 13  2  0
 16 27  1  0
 16 15  1  0
 16 17  1  6
 18 26  1  0
 18 17  1  0
 19 18  2  0
 20 19  1  0
 20 21  1  0
 21 22  1  0
 21 26  2  0
 22 23  2  0
 23 24  1  0
 25 24  2  0
 26 25  1  0
 27 28  2  0
 29 30  1  0
 29 27  1  0
 30 41  1  0
 30 31  1  1
 32 31  1  0
 33 32  2  0
 34 35  1  0
 34 33  1  0
 35 40  2  0
 36 37  2  0
 36 35  1  0
 37 38  1  0
 38 39  2  0
 40 39  1  0
 40 32  1  0
 41 42  1  0
 43 41  2  0
M  END
$$$$
