PTT.pdb
     RDKit          3D

 22 22  0  0  1  0  0  0  0  0999 V2000
    7.9282  -15.6141   17.3198 N   0  0  0  0  0  0  0  0  0  0  0  0
    7.2217  -15.0492   16.1615 C   0  0  0  0  0  0  0  0  0  0  0  0
    7.4073  -13.5538   16.4511 C   0  0  0  0  0  0  0  0  0  0  0  0
    8.8867  -13.5131   16.7661 C   0  0  0  0  0  0  0  0  0  0  0  0
    9.1251  -14.8263   17.4693 C   0  0  1  0  0  0  0  0  0  0  0  0
    9.4525  -14.6694   18.8867 C   0  0  0  0  0  0  0  0  0  0  0  0
   10.5822  -14.2248   19.2141 O   0  0  0  0  0  0  0  0  0  0  0  0
    7.3119  -13.0622   21.4777 C   0  0  0  0  0  0  0  0  0  0  0  0
    7.7109  -14.3859   22.0964 C   0  0  1  0  0  0  0  0  0  0  0  0
    6.6975  -15.3409   21.8959 O   0  0  0  0  0  0  0  0  0  0  0  0
    8.9395  -14.9149   21.3438 C   0  0  2  0  0  0  0  0  0  0  0  0
    8.5779  -14.9854   19.9630 N   0  0  0  0  0  0  0  0  0  0  0  0
    9.2948  -16.1951   21.9516 C   0  0  0  0  0  0  0  0  0  0  0  0
    8.7419  -17.2623   21.6110 O   0  0  0  0  0  0  0  0  0  0  0  0
   12.0940  -18.2906   21.6711 C   0  0  0  0  0  0  0  0  0  0  0  0
   12.0804  -17.9063   23.1153 C   0  0  1  0  0  0  0  0  0  0  0  0
   12.9778  -16.8507   23.2939 O   0  0  0  0  0  0  0  0  0  0  0  0
   10.7293  -17.4388   23.6011 C   0  0  2  0  0  0  0  0  0  0  0  0
   10.2926  -16.2322   22.9549 N   0  0  0  0  0  0  0  0  0  0  0  0
   10.8187  -17.2337   25.0544 C   0  0  0  0  0  0  0  0  0  0  0  0
   11.0621  -18.2900   25.8964 O   0  0  0  0  0  0  0  0  0  0  0  0
   10.6730  -16.0948   25.5292 O   0  0  0  0  0  0  0  0  0  0  0  0
  1  2  1  0
  1  5  1  0
  2  3  1  0
  3  4  1  0
  5  4  1  0
  6 12  1  0
  5  6  1  1
  7  6  2  0
  9  8  1  6
  9 11  1  0
 10  9  1  0
 11 12  1  6
 11 13  1  0
 13 19  1  0
 14 13  2  0
 16 17  1  0
 16 15  1  6
 18 20  1  0
 18 16  1  0
 18 19  1  6
 20 21  1  0
 22 20  2  0
M  END
$$$$
