PTT.pdb
     RDKit          3D

 22 22  0  0  1  0  0  0  0  0999 V2000
    8.1621  -15.0033   18.2020 N   0  0  0  0  0  0  0  0  0  0  0  0
    8.2120  -13.9492   17.1791 C   0  0  0  0  0  0  0  0  0  0  0  0
    7.8718  -12.7311   18.0481 C   0  0  0  0  0  0  0  0  0  0  0  0
    8.8042  -12.9555   19.2186 C   0  0  0  0  0  0  0  0  0  0  0  0
    8.8263  -14.4574   19.3580 C   0  0  1  0  0  0  0  0  0  0  0  0
    8.1805  -14.9317   20.5822 C   0  0  0  0  0  0  0  0  0  0  0  0
    7.2189  -15.7378   20.5008 O   0  0  0  0  0  0  0  0  0  0  0  0
    7.9087  -17.2286   21.7695 C   0  0  0  0  0  0  0  0  0  0  0  0
    8.4399  -16.6273   23.0542 C   0  0  1  0  0  0  0  0  0  0  0  0
    9.8466  -16.6439   23.0529 O   0  0  0  0  0  0  0  0  0  0  0  0
    8.0386  -15.1464   23.0911 C   0  0  2  0  0  0  0  0  0  0  0  0
    8.5558  -14.5497   21.8999 N   0  0  0  0  0  0  0  0  0  0  0  0
    8.5667  -14.5912   24.3351 C   0  0  0  0  0  0  0  0  0  0  0  0
    9.7684  -14.2721   24.4566 O   0  0  0  0  0  0  0  0  0  0  0  0
    6.4864  -11.6538   26.2341 C   0  0  0  0  0  0  0  0  0  0  0  0
    6.8447  -12.8177   27.1005 C   0  0  1  0  0  0  0  0  0  0  0  0
    5.7469  -13.6805   27.1474 O   0  0  0  0  0  0  0  0  0  0  0  0
    8.0220  -13.6110   26.5863 C   0  0  2  0  0  0  0  0  0  0  0  0
    7.6963  -14.4080   25.4362 N   0  0  0  0  0  0  0  0  0  0  0  0
    8.5006  -14.4688   27.6806 C   0  0  0  0  0  0  0  0  0  0  0  0
    9.0195  -13.9179   28.8257 O   0  0  0  0  0  0  0  0  0  0  0  0
    8.4363  -15.7048   27.5719 O   0  0  0  0  0  0  0  0  0  0  0  0
  1  2  1  0
  1  5  1  0
  2  3  1  0
  3  4  1  0
  5  4  1  0
  6 12  1  0
  5  6  1  1
  7  6  2  0
  9  8  1  6
  9 11  1  0
 10  9  1  0
 11 12  1  6
 11 13  1  0
 13 19  1  0
 14 13  2  0
 16 17  1  0
 16 15  1  6
 18 20  1  0
 18 16  1  0
 18 19  1  6
 20 21  1  0
 22 20  2  0
M  END
$$$$
