PTT.pdb
     RDKit          3D

 22 22  0  0  1  0  0  0  0  0999 V2000
    9.2833  -14.4576   19.6748 N   0  0  0  0  0  0  0  0  0  0  0  0
    8.6579  -14.1189   18.3887 C   0  0  0  0  0  0  0  0  0  0  0  0
    7.2106  -13.9096   18.8536 C   0  0  0  0  0  0  0  0  0  0  0  0
    7.4313  -13.0216   20.0587 C   0  0  0  0  0  0  0  0  0  0  0  0
    8.7270  -13.5376   20.6338 C   0  0  1  0  0  0  0  0  0  0  0  0
    8.5598  -14.1978   21.9287 C   0  0  0  0  0  0  0  0  0  0  0  0
    7.8659  -13.6442   22.8192 O   0  0  0  0  0  0  0  0  0  0  0  0
    8.5459  -18.1448   22.3337 C   0  0  0  0  0  0  0  0  0  0  0  0
    9.4201  -17.5288   23.4062 C   0  0  1  0  0  0  0  0  0  0  0  0
   10.7629  -17.5099   22.9869 O   0  0  0  0  0  0  0  0  0  0  0  0
    9.0119  -16.0584   23.5702 C   0  0  2  0  0  0  0  0  0  0  0  0
    9.1312  -15.4517   22.2818 N   0  0  0  0  0  0  0  0  0  0  0  0
    9.8762  -15.4870   24.6003 C   0  0  0  0  0  0  0  0  0  0  0  0
   10.9423  -14.9013   24.3156 O   0  0  0  0  0  0  0  0  0  0  0  0
    9.6752  -12.6556   26.8920 C   0  0  0  0  0  0  0  0  0  0  0  0
    9.6469  -13.8970   27.7237 C   0  0  1  0  0  0  0  0  0  0  0  0
    8.3119  -14.2235   27.9742 O   0  0  0  0  0  0  0  0  0  0  0  0
   10.2851  -15.0878   27.0495 C   0  0  2  0  0  0  0  0  0  0  0  0
    9.4995  -15.5978   25.9602 N   0  0  0  0  0  0  0  0  0  0  0  0
   10.4812  -16.1309   28.0673 C   0  0  0  0  0  0  0  0  0  0  0  0
   11.3126  -15.9163   29.1381 O   0  0  0  0  0  0  0  0  0  0  0  0
    9.8904  -17.2187   27.9609 O   0  0  0  0  0  0  0  0  0  0  0  0
  1  2  1  0
  1  5  1  0
  2  3  1  0
  3  4  1  0
  5  4  1  0
  6 12  1  0
  5  6  1  1
  7  6  2  0
  9  8  1  6
  9 11  1  0
 10  9  1  0
 11 12  1  6
 11 13  1  0
 13 19  1  0
 14 13  2  0
 16 17  1  0
 16 15  1  6
 18 20  1  0
 18 16  1  0
 18 19  1  6
 20 21  1  0
 22 20  2  0
M  END
$$$$
