PTT.pdb
     RDKit          3D

 22 22  0  0  1  0  0  0  0  0999 V2000
    9.3119  -14.4664   19.5487 N   0  0  0  0  0  0  0  0  0  0  0  0
    8.7400  -14.1164   18.2409 C   0  0  0  0  0  0  0  0  0  0  0  0
    7.2798  -13.8850   18.6522 C   0  0  0  0  0  0  0  0  0  0  0  0
    7.4696  -13.0020   19.8663 C   0  0  0  0  0  0  0  0  0  0  0  0
    8.7349  -13.5390   20.4881 C   0  0  1  0  0  0  0  0  0  0  0  0
    8.5095  -14.1982   21.7747 C   0  0  0  0  0  0  0  0  0  0  0  0
    7.7339  -13.6701   22.6118 O   0  0  0  0  0  0  0  0  0  0  0  0
    8.6976  -18.1268   22.2332 C   0  0  0  0  0  0  0  0  0  0  0  0
    9.4520  -17.4576   23.3633 C   0  0  1  0  0  0  0  0  0  0  0  0
   10.8218  -17.3776   23.0526 O   0  0  0  0  0  0  0  0  0  0  0  0
    8.9622  -16.0071   23.4728 C   0  0  2  0  0  0  0  0  0  0  0  0
    9.1093  -15.4238   22.1764 N   0  0  0  0  0  0  0  0  0  0  0  0
    9.7482  -15.3688   24.5260 C   0  0  0  0  0  0  0  0  0  0  0  0
   10.8377  -14.8064   24.2864 O   0  0  0  0  0  0  0  0  0  0  0  0
    8.6892  -12.4580   26.6426 C   0  0  0  0  0  0  0  0  0  0  0  0
    8.9476  -13.6261   27.5384 C   0  0  1  0  0  0  0  0  0  0  0  0
    7.7282  -14.2584   27.7930 O   0  0  0  0  0  0  0  0  0  0  0  0
    9.8733  -14.6548   26.9343 C   0  0  2  0  0  0  0  0  0  0  0  0
    9.2658  -15.3853   25.8567 N   0  0  0  0  0  0  0  0  0  0  0  0
   10.2846  -15.5754   28.0047 C   0  0  0  0  0  0  0  0  0  0  0  0
   10.9755  -15.1140   29.0972 O   0  0  0  0  0  0  0  0  0  0  0  0
   10.0060  -16.7835   27.9233 O   0  0  0  0  0  0  0  0  0  0  0  0
  1  2  1  0
  1  5  1  0
  2  3  1  0
  3  4  1  0
  5  4  1  0
  6 12  1  0
  5  6  1  1
  7  6  2  0
  9  8  1  6
  9 11  1  0
 10  9  1  0
 11 12  1  6
 11 13  1  0
 13 19  1  0
 14 13  2  0
 16 17  1  0
 16 15  1  6
 18 20  1  0
 18 16  1  0
 18 19  1  6
 20 21  1  0
 22 20  2  0
M  END
$$$$
