PTT.pdb
     RDKit          3D

 22 22  0  0  1  0  0  0  0  0999 V2000
   -1.9219  -26.8954   27.5032 N   0  0  0  0  0  0  0  0  0  0  0  0
   -1.0266  -27.7259   26.6855 C   0  0  0  0  0  0  0  0  0  0  0  0
   -2.0675  -28.5879   25.9588 C   0  0  0  0  0  0  0  0  0  0  0  0
   -3.0427  -27.5232   25.5060 C   0  0  0  0  0  0  0  0  0  0  0  0
   -3.0105  -26.5240   26.6357 C   0  0  1  0  0  0  0  0  0  0  0  0
   -4.2621  -26.4687   27.3915 C   0  0  0  0  0  0  0  0  0  0  0  0
   -5.3262  -26.8687   26.8543 O   0  0  0  0  0  0  0  0  0  0  0  0
   -5.3235  -28.1537   30.2832 C   0  0  0  0  0  0  0  0  0  0  0  0
   -5.5068  -26.7079   30.6957 C   0  0  1  0  0  0  0  0  0  0  0  0
   -4.3574  -26.2430   31.3606 O   0  0  0  0  0  0  0  0  0  0  0  0
   -5.6265  -25.8586   29.4230 C   0  0  2  0  0  0  0  0  0  0  0  0
   -4.3865  -25.9869   28.7240 N   0  0  0  0  0  0  0  0  0  0  0  0
   -5.9553  -24.4991   29.8454 C   0  0  0  0  0  0  0  0  0  0  0  0
   -5.0730  -23.6846   30.1902 O   0  0  0  0  0  0  0  0  0  0  0  0
   -7.0003  -21.6992   27.9798 C   0  0  0  0  0  0  0  0  0  0  0  0
   -8.1401  -21.9904   28.9017 C   0  0  1  0  0  0  0  0  0  0  0  0
   -9.0638  -22.7830   28.2159 O   0  0  0  0  0  0  0  0  0  0  0  0
   -7.7317  -22.7441   30.1446 C   0  0  2  0  0  0  0  0  0  0  0  0
   -7.3098  -24.0889   29.8664 N   0  0  0  0  0  0  0  0  0  0  0  0
   -8.8782  -22.7507   31.0654 C   0  0  0  0  0  0  0  0  0  0  0  0
   -9.3458  -21.5804   31.6089 O   0  0  0  0  0  0  0  0  0  0  0  0
   -9.4320  -23.8241   31.3568 O   0  0  0  0  0  0  0  0  0  0  0  0
  1  2  1  0
  1  5  1  0
  2  3  1  0
  3  4  1  0
  5  4  1  0
  6 12  1  0
  5  6  1  1
  7  6  2  0
  9  8  1  6
  9 11  1  0
 10  9  1  0
 11 12  1  1
 11 13  1  0
 13 19  1  0
 14 13  2  0
 16 17  1  0
 16 15  1  6
 18 20  1  0
 18 16  1  0
 18 19  1  6
 20 21  1  0
 22 20  2  0
M  END
$$$$
