PTT.pdb
     RDKit          3D

 22 22  0  0  1  0  0  0  0  0999 V2000
    7.7114  -14.1567   19.8311 N   0  0  0  0  0  0  0  0  0  0  0  0
    7.4589  -14.9172   18.5992 C   0  0  0  0  0  0  0  0  0  0  0  0
    7.6810  -16.3413   19.1259 C   0  0  0  0  0  0  0  0  0  0  0  0
    6.8580  -16.2998   20.3950 C   0  0  0  0  0  0  0  0  0  0  0  0
    7.0482  -14.8849   20.8825 C   0  0  1  0  0  0  0  0  0  0  0  0
    7.8231  -14.8017   22.1207 C   0  0  0  0  0  0  0  0  0  0  0  0
    9.0737  -14.6858   22.0601 O   0  0  0  0  0  0  0  0  0  0  0  0
    6.8630  -12.8209   25.3610 C   0  0  0  0  0  0  0  0  0  0  0  0
    7.1641  -14.2575   25.7348 C   0  0  1  0  0  0  0  0  0  0  0  0
    5.9792  -15.0159   25.7429 O   0  0  0  0  0  0  0  0  0  0  0  0
    8.0424  -14.8648   24.6324 C   0  0  2  0  0  0  0  0  0  0  0  0
    7.2697  -14.8415   23.4305 N   0  0  0  0  0  0  0  0  0  0  0  0
    8.4350  -16.1976   25.0842 C   0  0  0  0  0  0  0  0  0  0  0  0
    7.7722  -17.2149   24.7903 O   0  0  0  0  0  0  0  0  0  0  0  0
   11.0835  -18.4185   24.2956 C   0  0  0  0  0  0  0  0  0  0  0  0
   11.2743  -18.1337   25.7503 C   0  0  1  0  0  0  0  0  0  0  0  0
   12.2720  -17.1641   25.8775 O   0  0  0  0  0  0  0  0  0  0  0  0
   10.0348  -17.5990   26.4267 C   0  0  2  0  0  0  0  0  0  0  0  0
    9.5980  -16.3454   25.8773 N   0  0  0  0  0  0  0  0  0  0  0  0
   10.3309  -17.4510   27.8594 C   0  0  0  0  0  0  0  0  0  0  0  0
   10.6010  -18.5505   28.6353 O   0  0  0  0  0  0  0  0  0  0  0  0
   10.3378  -16.3214   28.3768 O   0  0  0  0  0  0  0  0  0  0  0  0
  1  2  1  0
  1  5  1  0
  2  3  1  0
  3  4  1  0
  5  4  1  0
  6 12  1  0
  5  6  1  1
  7  6  2  0
  9  8  1  6
  9 11  1  0
 10  9  1  0
 11 12  1  6
 11 13  1  0
 13 19  1  0
 14 13  2  0
 16 17  1  0
 16 15  1  6
 18 20  1  0
 18 16  1  0
 18 19  1  6
 20 21  1  0
 22 20  2  0
M  END
$$$$
