PTT.pdb
     RDKit          3D

 22 22  0  0  1  0  0  0  0  0999 V2000
    9.3955  -14.4599   19.5845 N   0  0  0  0  0  0  0  0  0  0  0  0
    8.8369  -14.1075   18.2716 C   0  0  0  0  0  0  0  0  0  0  0  0
    7.3702  -13.8891   18.6661 C   0  0  0  0  0  0  0  0  0  0  0  0
    7.5385  -13.0108   19.8867 C   0  0  0  0  0  0  0  0  0  0  0  0
    8.8001  -13.5415   20.5213 C   0  0  1  0  0  0  0  0  0  0  0  0
    8.5639  -14.2088   21.8018 C   0  0  0  0  0  0  0  0  0  0  0  0
    7.7611  -13.6995   22.6248 O   0  0  0  0  0  0  0  0  0  0  0  0
    8.5617  -18.1207   22.2965 C   0  0  0  0  0  0  0  0  0  0  0  0
    9.4256  -17.4882   23.3678 C   0  0  1  0  0  0  0  0  0  0  0  0
   10.7728  -17.4786   22.9626 O   0  0  0  0  0  0  0  0  0  0  0  0
    9.0184  -16.0146   23.5027 C   0  0  2  0  0  0  0  0  0  0  0  0
    9.1818  -15.4224   22.2124 N   0  0  0  0  0  0  0  0  0  0  0  0
    9.8514  -15.4354   24.5540 C   0  0  0  0  0  0  0  0  0  0  0  0
   10.8950  -14.8002   24.2931 O   0  0  0  0  0  0  0  0  0  0  0  0
    9.4128  -12.6770   26.8595 C   0  0  0  0  0  0  0  0  0  0  0  0
    9.4919  -13.9138   27.6950 C   0  0  1  0  0  0  0  0  0  0  0  0
    8.1897  -14.3402   27.9669 O   0  0  0  0  0  0  0  0  0  0  0  0
   10.2089  -15.0551   27.0143 C   0  0  2  0  0  0  0  0  0  0  0  0
    9.4695  -15.5957   25.9075 N   0  0  0  0  0  0  0  0  0  0  0  0
   10.4535  -16.0987   28.0210 C   0  0  0  0  0  0  0  0  0  0  0  0
    9.9204  -17.3545   27.8707 O   0  0  0  0  0  0  0  0  0  0  0  0
   11.1489  -15.8454   29.0190 O   0  0  0  0  0  0  0  0  0  0  0  0
  1  2  1  0
  1  5  1  0
  2  3  1  0
  3  4  1  0
  5  4  1  0
  6 12  1  0
  5  6  1  1
  7  6  2  0
  9  8  1  6
  9 11  1  0
 10  9  1  0
 11 12  1  6
 11 13  1  0
 13 19  1  0
 14 13  2  0
 16 17  1  0
 16 15  1  6
 18 20  1  0
 18 16  1  0
 18 19  1  6
 20 21  1  0
 22 20  2  0
M  END
$$$$
