PTT.pdb
     RDKit          3D

 22 22  0  0  1  0  0  0  0  0999 V2000
    8.7101  -15.0372   19.1096 N   0  0  0  0  0  0  0  0  0  0  0  0
    8.3514  -14.5916   17.7558 C   0  0  0  0  0  0  0  0  0  0  0  0
    7.2769  -13.5526   18.1032 C   0  0  0  0  0  0  0  0  0  0  0  0
    7.9815  -12.7786   19.1958 C   0  0  0  0  0  0  0  0  0  0  0  0
    8.7822  -13.8403   19.9083 C   0  0  1  0  0  0  0  0  0  0  0  0
    8.3039  -14.1090   21.2647 C   0  0  0  0  0  0  0  0  0  0  0  0
    8.2445  -13.1678   22.0964 O   0  0  0  0  0  0  0  0  0  0  0  0
    8.7109  -17.6185   23.4660 C   0  0  0  0  0  0  0  0  0  0  0  0
    7.2934  -17.1366   23.2364 C   0  0  1  0  0  0  0  0  0  0  0  0
    6.5139  -17.3546   24.3871 O   0  0  0  0  0  0  0  0  0  0  0  0
    7.3314  -15.6151   23.0385 C   0  0  2  0  0  0  0  0  0  0  0  0
    7.8864  -15.3821   21.7424 N   0  0  0  0  0  0  0  0  0  0  0  0
    8.1046  -15.0590   24.1465 C   0  0  0  0  0  0  0  0  0  0  0  0
    9.3451  -14.9260   24.0831 O   0  0  0  0  0  0  0  0  0  0  0  0
    7.0143  -11.6768   25.9494 C   0  0  0  0  0  0  0  0  0  0  0  0
    7.1894  -12.8036   26.9155 C   0  0  1  0  0  0  0  0  0  0  0  0
    5.9307  -13.3462   27.1851 O   0  0  0  0  0  0  0  0  0  0  0  0
    8.0595  -13.9191   26.3879 C   0  0  2  0  0  0  0  0  0  0  0  0
    7.4338  -14.6584   25.3268 N   0  0  0  0  0  0  0  0  0  0  0  0
    8.3779  -14.8128   27.5115 C   0  0  0  0  0  0  0  0  0  0  0  0
    9.0143  -14.3326   28.6287 O   0  0  0  0  0  0  0  0  0  0  0  0
    8.0696  -16.0149   27.4530 O   0  0  0  0  0  0  0  0  0  0  0  0
  1  2  1  0
  1  5  1  0
  2  3  1  0
  3  4  1  0
  5  4  1  0
  6 12  1  0
  5  6  1  1
  7  6  2  0
  9  8  1  1
  9 11  1  0
 10  9  1  0
 11 12  1  6
 11 13  1  0
 13 19  1  0
 14 13  2  0
 16 17  1  0
 16 15  1  6
 18 20  1  0
 18 16  1  0
 18 19  1  6
 20 21  1  0
 22 20  2  0
M  END
$$$$
