PTT.pdb
     RDKit          3D

 22 22  0  0  1  0  0  0  0  0999 V2000
    9.0905  -14.8082   19.2000 N   0  0  0  0  0  0  0  0  0  0  0  0
    8.7794  -14.4578   17.8070 C   0  0  0  0  0  0  0  0  0  0  0  0
    7.4579  -13.7074   18.0195 C   0  0  0  0  0  0  0  0  0  0  0  0
    7.8395  -12.7901   19.1609 C   0  0  0  0  0  0  0  0  0  0  0  0
    8.7912  -13.6312   19.9749 C   0  0  1  0  0  0  0  0  0  0  0  0
    8.2518  -14.0103   21.2810 C   0  0  0  0  0  0  0  0  0  0  0  0
    7.7901  -13.1208   22.0405 O   0  0  0  0  0  0  0  0  0  0  0  0
    6.9310  -17.6877   24.3442 C   0  0  0  0  0  0  0  0  0  0  0  0
    7.7597  -17.2291   23.1622 C   0  0  1  0  0  0  0  0  0  0  0  0
    7.2474  -17.7724   21.9699 O   0  0  0  0  0  0  0  0  0  0  0  0
    7.6040  -15.7080   23.0300 C   0  0  2  0  0  0  0  0  0  0  0  0
    8.2013  -15.3394   21.7852 N   0  0  0  0  0  0  0  0  0  0  0  0
    8.2251  -15.1105   24.2098 C   0  0  0  0  0  0  0  0  0  0  0  0
    9.4659  -15.0507   24.3425 O   0  0  0  0  0  0  0  0  0  0  0  0
    6.9156  -11.6328   26.0251 C   0  0  0  0  0  0  0  0  0  0  0  0
    6.9757  -12.8384   26.9064 C   0  0  1  0  0  0  0  0  0  0  0  0
    5.6958  -13.3946   26.9719 O   0  0  0  0  0  0  0  0  0  0  0  0
    7.9094  -13.9103   26.3973 C   0  0  2  0  0  0  0  0  0  0  0  0
    7.4022  -14.5832   25.2337 N   0  0  0  0  0  0  0  0  0  0  0  0
    8.1278  -14.8731   27.4871 C   0  0  0  0  0  0  0  0  0  0  0  0
    8.7465  -14.4858   28.6494 O   0  0  0  0  0  0  0  0  0  0  0  0
    7.7500  -16.0497   27.3586 O   0  0  0  0  0  0  0  0  0  0  0  0
  1  2  1  0
  1  5  1  0
  2  3  1  0
  3  4  1  0
  5  4  1  0
  6 12  1  0
  5  6  1  1
  7  6  2  0
  9  8  1  1
  9 11  1  0
 10  9  1  0
 11 12  1  6
 11 13  1  0
 13 19  1  0
 14 13  2  0
 16 17  1  0
 16 15  1  6
 18 20  1  0
 18 16  1  0
 18 19  1  6
 20 21  1  0
 22 20  2  0
M  END
$$$$
