PTT.pdb
     RDKit          3D

 22 22  0  0  1  0  0  0  0  0999 V2000
    8.8637  -14.7146   19.3848 N   0  0  0  0  0  0  0  0  0  0  0  0
    8.3398  -14.3285   18.0671 C   0  0  0  0  0  0  0  0  0  0  0  0
    7.0811  -13.5672   18.5036 C   0  0  0  0  0  0  0  0  0  0  0  0
    7.6542  -12.6811   19.5881 C   0  0  0  0  0  0  0  0  0  0  0  0
    8.7104  -13.5521   20.2219 C   0  0  1  0  0  0  0  0  0  0  0  0
    8.3804  -13.9546   21.5893 C   0  0  0  0  0  0  0  0  0  0  0  0
    8.1429  -13.0719   22.4527 O   0  0  0  0  0  0  0  0  0  0  0  0
    6.5154  -17.3676   22.3393 C   0  0  0  0  0  0  0  0  0  0  0  0
    7.6284  -17.1733   23.3480 C   0  0  1  0  0  0  0  0  0  0  0  0
    8.7931  -17.8363   22.9201 O   0  0  0  0  0  0  0  0  0  0  0  0
    7.9857  -15.6811   23.3849 C   0  0  2  0  0  0  0  0  0  0  0  0
    8.3018  -15.3000   22.0443 N   0  0  0  0  0  0  0  0  0  0  0  0
    9.0795  -15.5268   24.3411 C   0  0  0  0  0  0  0  0  0  0  0  0
   10.2623  -15.3721   23.9701 O   0  0  0  0  0  0  0  0  0  0  0  0
    9.6349  -12.7794   26.6715 C   0  0  0  0  0  0  0  0  0  0  0  0
    9.4951  -14.0117   27.5056 C   0  0  1  0  0  0  0  0  0  0  0  0
    8.1784  -14.0784   27.9676 O   0  0  0  0  0  0  0  0  0  0  0  0
    9.7735  -15.2871   26.7466 C   0  0  2  0  0  0  0  0  0  0  0  0
    8.7961  -15.5528   25.7277 N   0  0  0  0  0  0  0  0  0  0  0  0
    9.8094  -16.3910   27.7173 C   0  0  0  0  0  0  0  0  0  0  0  0
   10.7395  -16.4053   28.7266 O   0  0  0  0  0  0  0  0  0  0  0  0
    8.9917  -17.3220   27.6268 O   0  0  0  0  0  0  0  0  0  0  0  0
  1  2  1  0
  1  5  1  0
  2  3  1  0
  3  4  1  0
  5  4  1  0
  6 12  1  0
  5  6  1  1
  7  6  2  0
  9  8  1  6
  9 11  1  0
 10  9  1  0
 11 12  1  6
 11 13  1  0
 13 19  1  0
 14 13  2  0
 16 17  1  0
 16 15  1  6
 18 20  1  0
 18 16  1  0
 18 19  1  6
 20 21  1  0
 22 20  2  0
M  END
$$$$
