PTT.pdb
     RDKit          3D

 22 22  0  0  1  0  0  0  0  0999 V2000
    8.2332  -15.1513   17.8606 N   0  0  0  0  0  0  0  0  0  0  0  0
    7.5004  -14.3853   16.8427 C   0  0  0  0  0  0  0  0  0  0  0  0
    7.6667  -12.9714   17.4155 C   0  0  0  0  0  0  0  0  0  0  0  0
    9.1500  -12.9656   17.7149 C   0  0  0  0  0  0  0  0  0  0  0  0
    9.4197  -14.3857   18.1464 C   0  0  1  0  0  0  0  0  0  0  0  0
    9.7660  -14.5012   19.5632 C   0  0  0  0  0  0  0  0  0  0  0  0
   10.8833  -14.0844   19.9619 O   0  0  0  0  0  0  0  0  0  0  0  0
    7.6182  -13.3831   22.3588 C   0  0  0  0  0  0  0  0  0  0  0  0
    8.0212  -14.7903   22.7481 C   0  0  1  0  0  0  0  0  0  0  0  0
    7.0251  -15.7054   22.3612 O   0  0  0  0  0  0  0  0  0  0  0  0
    9.2727  -15.1692   21.9446 C   0  0  2  0  0  0  0  0  0  0  0  0
    8.9235  -15.0615   20.5631 N   0  0  0  0  0  0  0  0  0  0  0  0
    9.6682  -16.5081   22.3754 C   0  0  0  0  0  0  0  0  0  0  0  0
    8.9760  -17.5152   22.1159 O   0  0  0  0  0  0  0  0  0  0  0  0
   12.4487  -18.4897   21.2696 C   0  0  0  0  0  0  0  0  0  0  0  0
   12.6603  -18.3098   22.7382 C   0  0  1  0  0  0  0  0  0  0  0  0
   13.5678  -17.2639   22.9229 O   0  0  0  0  0  0  0  0  0  0  0  0
   11.3997  -17.9530   23.4887 C   0  0  2  0  0  0  0  0  0  0  0  0
   10.8683  -16.6739   23.1075 N   0  0  0  0  0  0  0  0  0  0  0  0
   11.7112  -17.9666   24.9258 C   0  0  0  0  0  0  0  0  0  0  0  0
   11.5578  -16.8340   25.6857 O   0  0  0  0  0  0  0  0  0  0  0  0
   12.1174  -19.0115   25.4614 O   0  0  0  0  0  0  0  0  0  0  0  0
  1  2  1  0
  1  5  1  0
  2  3  1  0
  3  4  1  0
  5  4  1  0
  6 12  1  0
  5  6  1  1
  7  6  2  0
  9  8  1  6
  9 11  1  0
 10  9  1  0
 11 12  1  6
 11 13  1  0
 13 19  1  0
 14 13  2  0
 16 17  1  0
 16 15  1  6
 18 20  1  0
 18 16  1  0
 18 19  1  6
 20 21  1  0
 22 20  2  0
M  END
$$$$
