PTT.pdb
     RDKit          3D

 22 22  0  0  1  0  0  0  0  0999 V2000
    9.0176  -14.6547   19.2804 N   0  0  0  0  0  0  0  0  0  0  0  0
    8.5274  -14.3271   17.9342 C   0  0  0  0  0  0  0  0  0  0  0  0
    7.2172  -13.6185   18.3028 C   0  0  0  0  0  0  0  0  0  0  0  0
    7.7040  -12.6791   19.3847 C   0  0  0  0  0  0  0  0  0  0  0  0
    8.7756  -13.4813   20.0804 C   0  0  1  0  0  0  0  0  0  0  0  0
    8.4124  -13.8663   21.4445 C   0  0  0  0  0  0  0  0  0  0  0  0
    8.0686  -12.9786   22.2660 O   0  0  0  0  0  0  0  0  0  0  0  0
    6.6937  -17.3412   22.2151 C   0  0  0  0  0  0  0  0  0  0  0  0
    7.7622  -17.0733   23.2546 C   0  0  1  0  0  0  0  0  0  0  0  0
    8.9712  -17.6862   22.8777 O   0  0  0  0  0  0  0  0  0  0  0  0
    8.0452  -15.5649   23.2722 C   0  0  2  0  0  0  0  0  0  0  0  0
    8.4136  -15.1994   21.9407 N   0  0  0  0  0  0  0  0  0  0  0  0
    9.0780  -15.3354   24.2799 C   0  0  0  0  0  0  0  0  0  0  0  0
   10.2879  -15.2593   23.9781 O   0  0  0  0  0  0  0  0  0  0  0  0
    9.1778  -12.4176   26.8516 C   0  0  0  0  0  0  0  0  0  0  0  0
    9.1638  -13.7356   27.5562 C   0  0  1  0  0  0  0  0  0  0  0  0
    7.8503  -14.0073   27.9464 O   0  0  0  0  0  0  0  0  0  0  0  0
    9.6263  -14.8846   26.6926 C   0  0  2  0  0  0  0  0  0  0  0  0
    8.7021  -15.1946   25.6372 N   0  0  0  0  0  0  0  0  0  0  0  0
    9.8160  -16.0548   27.5627 C   0  0  0  0  0  0  0  0  0  0  0  0
   10.7167  -16.0185   28.5977 O   0  0  0  0  0  0  0  0  0  0  0  0
    9.1565  -17.0887   27.3624 O   0  0  0  0  0  0  0  0  0  0  0  0
  1  2  1  0
  1  5  1  0
  2  3  1  0
  3  4  1  0
  5  4  1  0
  6 12  1  0
  5  6  1  1
  7  6  2  0
  9  8  1  6
  9 11  1  0
 10  9  1  0
 11 12  1  6
 11 13  1  0
 13 19  1  0
 14 13  2  0
 16 17  1  0
 16 15  1  6
 18 20  1  0
 18 16  1  0
 18 19  1  6
 20 21  1  0
 22 20  2  0
M  END
$$$$
