GKP.pdb
     RDKit          3D

 21 21  0  0  1  0  0  0  0  0999 V2000
   10.9916  -16.6811   20.3455 N   0  0  0  0  0  0  0  0  0  0  0  0
    9.8777  -16.9028   21.2126 C   0  0  0  0  0  0  0  0  0  0  0  0
    9.8947  -16.0556   22.4305 C   0  0  0  0  0  0  0  0  0  0  0  0
   10.9400  -15.3857   22.6376 O   0  0  0  0  0  0  0  0  0  0  0  0
    8.7769  -15.9938   23.3391 N   0  0  0  0  0  0  0  0  0  0  0  0
    8.8904  -15.1800   24.4836 C   0  0  1  0  0  0  0  0  0  0  0  0
    7.5363  -14.4906   24.7026 C   0  0  0  0  0  0  0  0  0  0  0  0
    7.5775  -13.5449   25.8581 C   0  0  0  0  0  0  0  0  0  0  0  0
    6.1924  -12.9651   26.0395 C   0  0  0  0  0  0  0  0  0  0  0  0
    6.1167  -11.9388   27.1249 C   0  0  0  0  0  0  0  0  0  0  0  0
    4.7121  -11.5037   27.1896 N   0  0  0  0  0  0  0  0  0  0  0  0
    9.4080  -15.7631   25.7159 C   0  0  0  0  0  0  0  0  0  0  0  0
    9.2093  -17.0358   25.7972 O   0  0  0  0  0  0  0  0  0  0  0  0
   10.0678  -15.1620   26.7941 N   0  0  0  0  0  0  0  0  0  0  0  0
   10.1995  -13.7437   27.0205 C   0  0  0  0  0  0  0  0  0  0  0  0
   11.2223  -13.5753   28.1374 C   0  0  0  0  0  0  0  0  0  0  0  0
   11.0017  -14.8140   28.9568 C   0  0  0  0  0  0  0  0  0  0  0  0
   10.7477  -15.8565   27.8551 C   0  0  1  0  0  0  0  0  0  0  0  0
    9.9837  -16.9949   28.4223 C   0  0  0  0  0  0  0  0  0  0  0  0
    8.8001  -17.2725   28.2362 O   0  0  0  0  0  0  0  0  0  0  0  0
   10.7120  -17.8426   29.2666 O   0  0  0  0  0  0  0  0  0  0  0  0
  2  1  1  0
  3  2  1  0
  4  3  2  0
  5  3  1  0
  6 12  1  0
  6  5  1  0
  6  7  1  1
  8  7  1  0
  9  8  1  0
 10  9  1  0
 11 10  1  0
 12 14  1  0
 13 12  2  0
 14 18  1  0
 14 15  1  0
 15 16  1  0
 17 16  1  0
 18 17  1  0
 19 21  1  0
 18 19  1  1
 20 19  2  0
M  END
$$$$
