GKP.pdb
     RDKit          3D

 21 21  0  0  1  0  0  0  0  0999 V2000
    9.5584  -16.4254   13.7197 N   0  0  0  0  0  0  0  0  0  0  0  0
    9.8450  -17.0171   14.9883 C   0  0  0  0  0  0  0  0  0  0  0  0
    9.0406  -16.4557   16.1014 C   0  0  0  0  0  0  0  0  0  0  0  0
    8.7777  -15.2261   16.0436 O   0  0  0  0  0  0  0  0  0  0  0  0
    8.5773  -17.2666   17.1998 N   0  0  0  0  0  0  0  0  0  0  0  0
    7.8597  -16.6393   18.2374 C   0  0  1  0  0  0  0  0  0  0  0  0
    7.0509  -17.7215   18.9665 C   0  0  0  0  0  0  0  0  0  0  0  0
    5.9605  -18.2710   18.1062 C   0  0  0  0  0  0  0  0  0  0  0  0
    6.1999  -19.7547   17.9358 C   0  0  0  0  0  0  0  0  0  0  0  0
    5.2052  -20.4161   17.0357 C   0  0  0  0  0  0  0  0  0  0  0  0
    5.5660  -21.8425   16.9930 N   0  0  0  0  0  0  0  0  0  0  0  0
    8.5759  -15.7767   19.1697 C   0  0  0  0  0  0  0  0  0  0  0  0
    9.6275  -16.3331   19.6700 O   0  0  0  0  0  0  0  0  0  0  0  0
    8.2970  -14.4716   19.5917 N   0  0  0  0  0  0  0  0  0  0  0  0
    7.2776  -13.6072   19.0496 C   0  0  0  0  0  0  0  0  0  0  0  0
    7.5392  -12.2177   19.6178 C   0  0  0  0  0  0  0  0  0  0  0  0
    8.1268  -12.5323   20.9632 C   0  0  0  0  0  0  0  0  0  0  0  0
    8.9940  -13.7575   20.6285 C   0  0  1  0  0  0  0  0  0  0  0  0
    9.2230  -14.5495   21.8620 C   0  0  0  0  0  0  0  0  0  0  0  0
    8.6538  -15.5835   22.2075 O   0  0  0  0  0  0  0  0  0  0  0  0
   10.2066  -14.0454   22.7224 O   0  0  0  0  0  0  0  0  0  0  0  0
  2  1  1  0
  3  2  1  0
  4  3  2  0
  5  3  1  0
  6 12  1  0
  6  5  1  0
  6  7  1  1
  8  7  1  0
  9  8  1  0
 10  9  1  0
 11 10  1  0
 12 14  1  0
 13 12  2  0
 14 18  1  0
 14 15  1  0
 15 16  1  0
 17 16  1  0
 18 17  1  0
 19 21  1  0
 18 19  1  1
 20 19  2  0
M  END
$$$$
