GKP.pdb
     RDKit          3D

 21 21  0  0  1  0  0  0  0  0999 V2000
    8.3777  -16.0992   19.4541 N   0  0  0  0  0  0  0  0  0  0  0  0
    9.0953  -16.1089   20.6896 C   0  0  0  0  0  0  0  0  0  0  0  0
    8.2570  -15.7723   21.8665 C   0  0  0  0  0  0  0  0  0  0  0  0
    7.3893  -14.8752   21.7035 O   0  0  0  0  0  0  0  0  0  0  0  0
    8.4179  -16.4319   23.1384 N   0  0  0  0  0  0  0  0  0  0  0  0
    7.6426  -15.9841   24.2262 C   0  0  1  0  0  0  0  0  0  0  0  0
    7.2568  -17.2127   25.0620 C   0  0  0  0  0  0  0  0  0  0  0  0
    6.5048  -18.2182   24.2529 C   0  0  0  0  0  0  0  0  0  0  0  0
    7.2305  -19.5411   24.3561 C   0  0  0  0  0  0  0  0  0  0  0  0
    6.5794  -20.6371   23.5738 C   0  0  0  0  0  0  0  0  0  0  0  0
    7.5065  -21.7798   23.6067 N   0  0  0  0  0  0  0  0  0  0  0  0
    8.1528  -14.9005   25.0581 C   0  0  0  0  0  0  0  0  0  0  0  0
    9.4121  -15.0107   25.3184 O   0  0  0  0  0  0  0  0  0  0  0  0
    7.4955  -13.7911   25.6023 N   0  0  0  0  0  0  0  0  0  0  0  0
    6.2079  -13.2863   25.1930 C   0  0  0  0  0  0  0  0  0  0  0  0
    6.0432  -11.9256   25.8588 C   0  0  0  0  0  0  0  0  0  0  0  0
    6.8092  -12.1051   27.1377 C   0  0  0  0  0  0  0  0  0  0  0  0
    8.0008  -12.9481   26.6533 C   0  0  1  0  0  0  0  0  0  0  0  0
    8.5773  -13.6899   27.8017 C   0  0  0  0  0  0  0  0  0  0  0  0
    8.4423  -14.8826   28.0698 O   0  0  0  0  0  0  0  0  0  0  0  0
    9.3651  -12.9261   28.6722 O   0  0  0  0  0  0  0  0  0  0  0  0
  2  1  1  0
  3  2  1  0
  4  3  2  0
  5  3  1  0
  6 12  1  0
  6  5  1  0
  6  7  1  1
  8  7  1  0
  9  8  1  0
 10  9  1  0
 11 10  1  0
 12 14  1  0
 13 12  2  0
 14 18  1  0
 14 15  1  0
 15 16  1  0
 17 16  1  0
 18 17  1  0
 19 21  1  0
 18 19  1  1
 20 19  2  0
M  END
$$$$
