GKP.pdb
     RDKit          3D

 21 21  0  0  1  0  0  0  0  0999 V2000
   11.9280  -15.5935   19.2783 N   0  0  0  0  0  0  0  0  0  0  0  0
   11.6067  -16.3910   20.4195 C   0  0  0  0  0  0  0  0  0  0  0  0
   10.2940  -16.0592   21.0261 C   0  0  0  0  0  0  0  0  0  0  0  0
   10.1161  -14.8603   21.3659 O   0  0  0  0  0  0  0  0  0  0  0  0
    9.2656  -17.0504   21.2220 N   0  0  0  0  0  0  0  0  0  0  0  0
    8.0816  -16.6637   21.8806 C   0  0  1  0  0  0  0  0  0  0  0  0
    7.0038  -17.7075   21.5552 C   0  0  0  0  0  0  0  0  0  0  0  0
    5.6602  -17.2901   22.0567 C   0  0  0  0  0  0  0  0  0  0  0  0
    4.6637  -18.3627   21.6771 C   0  0  0  0  0  0  0  0  0  0  0  0
    3.2587  -18.0322   22.0693 C   0  0  0  0  0  0  0  0  0  0  0  0
    2.4233  -19.1537   21.6101 N   0  0  0  0  0  0  0  0  0  0  0  0
    8.1329  -16.3634   23.3067 C   0  0  0  0  0  0  0  0  0  0  0  0
    8.6581  -17.3123   24.0063 O   0  0  0  0  0  0  0  0  0  0  0  0
    7.7061  -15.2302   24.0087 N   0  0  0  0  0  0  0  0  0  0  0  0
    7.1151  -14.0491   23.4290 C   0  0  0  0  0  0  0  0  0  0  0  0
    7.0835  -12.9947   24.5286 C   0  0  0  0  0  0  0  0  0  0  0  0
    6.9087  -13.8313   25.7632 C   0  0  0  0  0  0  0  0  0  0  0  0
    7.8017  -15.0387   25.4316 C   0  0  1  0  0  0  0  0  0  0  0  0
    7.3636  -16.2086   26.2320 C   0  0  0  0  0  0  0  0  0  0  0  0
    7.6430  -16.4659   27.4017 O   0  0  0  0  0  0  0  0  0  0  0  0
    6.5348  -17.1162   25.5602 O   0  0  0  0  0  0  0  0  0  0  0  0
  2  1  1  0
  3  2  1  0
  4  3  2  0
  5  3  1  0
  6 12  1  0
  6  5  1  0
  6  7  1  1
  8  7  1  0
  9  8  1  0
 10  9  1  0
 11 10  1  0
 12 14  1  0
 13 12  2  0
 14 18  1  0
 14 15  1  0
 15 16  1  0
 17 16  1  0
 18 17  1  0
 19 21  1  0
 18 19  1  1
 20 19  2  0
M  END
$$$$
