GKP.pdb
     RDKit          3D

 21 21  0  0  1  0  0  0  0  0999 V2000
   12.4295  -16.7083   21.2620 N   0  0  0  0  0  0  0  0  0  0  0  0
   11.3802  -17.0893   22.1539 C   0  0  0  0  0  0  0  0  0  0  0  0
   10.6014  -15.9415   22.6802 C   0  0  0  0  0  0  0  0  0  0  0  0
   11.2112  -15.1483   23.4439 O   0  0  0  0  0  0  0  0  0  0  0  0
    9.2154  -15.7336   22.3418 N   0  0  0  0  0  0  0  0  0  0  0  0
    8.5295  -14.6683   22.9581 C   0  0  1  0  0  0  0  0  0  0  0  0
    7.3814  -14.2517   22.0280 C   0  0  0  0  0  0  0  0  0  0  0  0
    7.8342  -13.2729   20.9944 C   0  0  0  0  0  0  0  0  0  0  0  0
    7.8406  -13.9746   19.6546 C   0  0  0  0  0  0  0  0  0  0  0  0
    8.4285  -13.1482   18.5553 C   0  0  0  0  0  0  0  0  0  0  0  0
    8.3979  -13.9837   17.3439 N   0  0  0  0  0  0  0  0  0  0  0  0
    8.0821  -14.8208   24.3376 C   0  0  0  0  0  0  0  0  0  0  0  0
    8.1104  -16.0442   24.7476 O   0  0  0  0  0  0  0  0  0  0  0  0
    7.6368  -13.8626   25.2556 N   0  0  0  0  0  0  0  0  0  0  0  0
    7.5542  -12.4418   25.0219 C   0  0  0  0  0  0  0  0  0  0  0  0
    7.2944  -11.7932   26.3761 C   0  0  0  0  0  0  0  0  0  0  0  0
    6.4961  -12.8496   27.0841 C   0  0  0  0  0  0  0  0  0  0  0  0
    7.2023  -14.1277   26.6015 C   0  0  1  0  0  0  0  0  0  0  0  0
    6.2737  -15.2784   26.7237 C   0  0  0  0  0  0  0  0  0  0  0  0
    5.5607  -15.7648   25.8475 O   0  0  0  0  0  0  0  0  0  0  0  0
    6.2153  -15.8676   27.9930 O   0  0  0  0  0  0  0  0  0  0  0  0
  2  1  1  0
  3  2  1  0
  4  3  2  0
  5  3  1  0
  6 12  1  0
  6  5  1  0
  6  7  1  6
  8  7  1  0
  9  8  1  0
 10  9  1  0
 11 10  1  0
 12 14  1  0
 13 12  2  0
 14 18  1  0
 14 15  1  0
 15 16  1  0
 17 16  1  0
 18 17  1  0
 19 21  1  0
 18 19  1  6
 20 19  2  0
M  END
$$$$
