GKP.pdb
     RDKit          3D

 21 21  0  0  1  0  0  0  0  0999 V2000
   12.4502  -16.7388   21.4402 N   0  0  0  0  0  0  0  0  0  0  0  0
   11.1417  -17.0897   21.8945 C   0  0  0  0  0  0  0  0  0  0  0  0
   10.3712  -15.9414   22.4318 C   0  0  0  0  0  0  0  0  0  0  0  0
   11.0218  -15.0756   23.0733 O   0  0  0  0  0  0  0  0  0  0  0  0
    8.9486  -15.8117   22.2361 N   0  0  0  0  0  0  0  0  0  0  0  0
    8.2733  -14.7745   22.9094 C   0  0  1  0  0  0  0  0  0  0  0  0
    7.0318  -14.4116   22.0825 C   0  0  0  0  0  0  0  0  0  0  0  0
    7.3066  -13.2903   21.1348 C   0  0  0  0  0  0  0  0  0  0  0  0
    7.7201  -13.8876   19.8082 C   0  0  0  0  0  0  0  0  0  0  0  0
    8.0652  -12.8605   18.7772 C   0  0  0  0  0  0  0  0  0  0  0  0
    8.5013  -13.6003   17.5819 N   0  0  0  0  0  0  0  0  0  0  0  0
    7.9545  -14.9404   24.3226 C   0  0  0  0  0  0  0  0  0  0  0  0
    7.9908  -16.1711   24.7096 O   0  0  0  0  0  0  0  0  0  0  0  0
    7.6220  -13.9882   25.2931 N   0  0  0  0  0  0  0  0  0  0  0  0
    7.6272  -12.5575   25.1108 C   0  0  0  0  0  0  0  0  0  0  0  0
    7.4792  -11.9424   26.4970 C   0  0  0  0  0  0  0  0  0  0  0  0
    6.6445  -12.9672   27.2096 C   0  0  0  0  0  0  0  0  0  0  0  0
    7.2359  -14.2719   26.6499 C   0  0  1  0  0  0  0  0  0  0  0  0
    6.2365  -15.3606   26.7813 C   0  0  0  0  0  0  0  0  0  0  0  0
    5.4704  -15.7855   25.9180 O   0  0  0  0  0  0  0  0  0  0  0  0
    6.1720  -15.9641   28.0436 O   0  0  0  0  0  0  0  0  0  0  0  0
  2  1  1  0
  3  2  1  0
  4  3  2  0
  5  3  1  0
  6 12  1  0
  6  5  1  0
  6  7  1  6
  8  7  1  0
  9  8  1  0
 10  9  1  0
 11 10  1  0
 12 14  1  0
 13 12  2  0
 14 18  1  0
 14 15  1  0
 15 16  1  0
 17 16  1  0
 18 17  1  0
 19 21  1  0
 18 19  1  6
 20 19  2  0
M  END
$$$$
