GKP.pdb
     RDKit          3D

 21 21  0  0  1  0  0  0  0  0999 V2000
    4.8312  -20.1704   23.6104 N   0  0  0  0  0  0  0  0  0  0  0  0
    5.8603  -19.6463   24.4518 C   0  0  0  0  0  0  0  0  0  0  0  0
    6.2477  -18.2532   24.1197 C   0  0  0  0  0  0  0  0  0  0  0  0
    5.9878  -17.8578   22.9533 O   0  0  0  0  0  0  0  0  0  0  0  0
    6.8900  -17.3857   25.0756 N   0  0  0  0  0  0  0  0  0  0  0  0
    7.5115  -16.2134   24.6019 C   0  0  1  0  0  0  0  0  0  0  0  0
    7.6245  -15.2358   25.7802 C   0  0  0  0  0  0  0  0  0  0  0  0
    6.3941  -14.4018   25.9271 C   0  0  0  0  0  0  0  0  0  0  0  0
    6.7607  -13.1575   26.7049 C   0  0  0  0  0  0  0  0  0  0  0  0
    5.6180  -12.2081   26.8775 C   0  0  0  0  0  0  0  0  0  0  0  0
    6.1085  -11.1174   27.7356 N   0  0  0  0  0  0  0  0  0  0  0  0
    8.7669  -16.3268   23.8687 C   0  0  0  0  0  0  0  0  0  0  0  0
    9.6206  -17.1064   24.4424 O   0  0  0  0  0  0  0  0  0  0  0  0
    9.1715  -15.7294   22.6693 N   0  0  0  0  0  0  0  0  0  0  0  0
    8.3550  -14.8944   21.8229 C   0  0  0  0  0  0  0  0  0  0  0  0
    9.1199  -14.7204   20.5165 C   0  0  0  0  0  0  0  0  0  0  0  0
   10.5479  -14.7735   20.9773 C   0  0  0  0  0  0  0  0  0  0  0  0
   10.4690  -15.8615   22.0614 C   0  0  1  0  0  0  0  0  0  0  0  0
   11.6011  -15.6972   23.0062 C   0  0  0  0  0  0  0  0  0  0  0  0
   11.5509  -15.3574   24.1872 O   0  0  0  0  0  0  0  0  0  0  0  0
   12.8685  -15.9646   22.4733 O   0  0  0  0  0  0  0  0  0  0  0  0
  2  1  1  0
  3  2  1  0
  4  3  2  0
  5  3  1  0
  6 12  1  0
  6  5  1  0
  6  7  1  1
  8  7  1  0
  9  8  1  0
 10  9  1  0
 11 10  1  0
 12 14  1  0
 13 12  2  0
 14 18  1  0
 14 15  1  0
 15 16  1  0
 17 16  1  0
 18 17  1  0
 19 21  1  0
 18 19  1  1
 20 19  2  0
M  END
$$$$
