GKP.pdb
     RDKit          3D

 21 21  0  0  1  0  0  0  0  0999 V2000
    7.6030  -12.5058   19.2165 N   0  0  0  0  0  0  0  0  0  0  0  0
    8.4772  -13.2598   20.0586 C   0  0  0  0  0  0  0  0  0  0  0  0
    7.8308  -13.7471   21.3019 C   0  0  0  0  0  0  0  0  0  0  0  0
    6.7870  -13.1465   21.6682 O   0  0  0  0  0  0  0  0  0  0  0  0
    8.3613  -14.8517   22.0616 N   0  0  0  0  0  0  0  0  0  0  0  0
    7.7278  -15.1955   23.2722 C   0  0  1  0  0  0  0  0  0  0  0  0
    7.7724  -16.7243   23.4050 C   0  0  0  0  0  0  0  0  0  0  0  0
    7.0500  -17.1949   24.6247 C   0  0  0  0  0  0  0  0  0  0  0  0
    7.2345  -18.6924   24.7308 C   0  0  0  0  0  0  0  0  0  0  0  0
    6.4598  -19.3072   25.8528 C   0  0  0  0  0  0  0  0  0  0  0  0
    6.8584  -20.7230   25.9076 N   0  0  0  0  0  0  0  0  0  0  0  0
    8.1464  -14.5317   24.5013 C   0  0  0  0  0  0  0  0  0  0  0  0
    9.3567  -14.8185   24.8457 O   0  0  0  0  0  0  0  0  0  0  0  0
    7.4474  -13.6559   25.3400 N   0  0  0  0  0  0  0  0  0  0  0  0
    6.1327  -13.1169   25.0926 C   0  0  0  0  0  0  0  0  0  0  0  0
    5.9160  -12.0119   26.1193 C   0  0  0  0  0  0  0  0  0  0  0  0
    6.7073  -12.5122   27.2932 C   0  0  0  0  0  0  0  0  0  0  0  0
    7.9288  -13.1247   26.5876 C   0  0  1  0  0  0  0  0  0  0  0  0
    8.5544  -14.1349   27.4761 C   0  0  0  0  0  0  0  0  0  0  0  0
    9.2914  -13.9343   28.4400 O   0  0  0  0  0  0  0  0  0  0  0  0
    8.2600  -15.4686   27.1656 O   0  0  0  0  0  0  0  0  0  0  0  0
  2  1  1  0
  3  2  1  0
  4  3  2  0
  5  3  1  0
  6 12  1  0
  6  5  1  0
  6  7  1  1
  8  7  1  0
  9  8  1  0
 10  9  1  0
 11 10  1  0
 12 14  1  0
 13 12  2  0
 14 18  1  0
 14 15  1  0
 15 16  1  0
 17 16  1  0
 18 17  1  0
 19 21  1  0
 18 19  1  1
 20 19  2  0
M  END
$$$$
