GKP.pdb
     RDKit          3D

 21 21  0  0  1  0  0  0  0  0999 V2000
    7.2385  -20.0886   18.1482 N   0  0  0  0  0  0  0  0  0  0  0  0
    6.7460  -19.5343   19.3696 C   0  0  0  0  0  0  0  0  0  0  0  0
    7.4766  -18.3200   19.8085 C   0  0  0  0  0  0  0  0  0  0  0  0
    8.6809  -18.2269   19.4543 O   0  0  0  0  0  0  0  0  0  0  0  0
    6.8506  -17.2909   20.6009 N   0  0  0  0  0  0  0  0  0  0  0  0
    7.6545  -16.2425   21.0904 C   0  0  1  0  0  0  0  0  0  0  0  0
    6.7398  -15.0394   21.3601 C   0  0  0  0  0  0  0  0  0  0  0  0
    7.4926  -13.7502   21.3107 C   0  0  0  0  0  0  0  0  0  0  0  0
    7.8994  -13.4990   19.8758 C   0  0  0  0  0  0  0  0  0  0  0  0
    8.6618  -12.2257   19.6899 C   0  0  0  0  0  0  0  0  0  0  0  0
    9.0343  -12.1671   18.2672 N   0  0  0  0  0  0  0  0  0  0  0  0
    8.5512  -16.5042   22.2102 C   0  0  0  0  0  0  0  0  0  0  0  0
    7.9492  -17.0073   23.2350 O   0  0  0  0  0  0  0  0  0  0  0  0
    9.9294  -16.2936   22.3343 N   0  0  0  0  0  0  0  0  0  0  0  0
   10.7908  -15.7194   21.3301 C   0  0  0  0  0  0  0  0  0  0  0  0
   12.2215  -15.9547   21.7990 C   0  0  0  0  0  0  0  0  0  0  0  0
   12.0754  -15.9104   23.2927 C   0  0  0  0  0  0  0  0  0  0  0  0
   10.7306  -16.6327   23.4803 C   0  0  1  0  0  0  0  0  0  0  0  0
   10.1339  -16.2313   24.7780 C   0  0  0  0  0  0  0  0  0  0  0  0
    9.1666  -15.4950   24.9645 O   0  0  0  0  0  0  0  0  0  0  0  0
   10.7584  -16.7630   25.9134 O   0  0  0  0  0  0  0  0  0  0  0  0
  2  1  1  0
  3  2  1  0
  4  3  2  0
  5  3  1  0
  6 12  1  0
  6  5  1  0
  6  7  1  1
  8  7  1  0
  9  8  1  0
 10  9  1  0
 11 10  1  0
 12 14  1  0
 13 12  2  0
 14 18  1  0
 14 15  1  0
 15 16  1  0
 17 16  1  0
 18 17  1  0
 19 21  1  0
 18 19  1  1
 20 19  2  0
M  END
$$$$
