GKP.pdb
     RDKit          3D

 21 21  0  0  1  0  0  0  0  0999 V2000
    7.9769  -12.5586   18.8072 N   0  0  0  0  0  0  0  0  0  0  0  0
    8.7650  -13.2817   19.7547 C   0  0  0  0  0  0  0  0  0  0  0  0
    8.0307  -13.6305   20.9957 C   0  0  0  0  0  0  0  0  0  0  0  0
    6.9142  -13.0747   21.1662 O   0  0  0  0  0  0  0  0  0  0  0  0
    8.5581  -14.5576   21.9658 N   0  0  0  0  0  0  0  0  0  0  0  0
    7.7855  -14.8394   23.1097 C   0  0  1  0  0  0  0  0  0  0  0  0
    7.6533  -16.3650   23.2199 C   0  0  0  0  0  0  0  0  0  0  0  0
    7.1724  -16.9722   21.9428 C   0  0  0  0  0  0  0  0  0  0  0  0
    7.1085  -18.4716   22.1310 C   0  0  0  0  0  0  0  0  0  0  0  0
    6.6084  -19.1999   20.9241 C   0  0  0  0  0  0  0  0  0  0  0  0
    6.5969  -20.6292   21.2750 N   0  0  0  0  0  0  0  0  0  0  0  0
    8.1612  -14.2341   24.3821 C   0  0  0  0  0  0  0  0  0  0  0  0
    9.3746  -14.5009   24.7319 O   0  0  0  0  0  0  0  0  0  0  0  0
    7.4196  -13.4309   25.2561 N   0  0  0  0  0  0  0  0  0  0  0  0
    6.1530  -12.8068   24.9620 C   0  0  0  0  0  0  0  0  0  0  0  0
    5.8822  -11.8204   26.0914 C   0  0  0  0  0  0  0  0  0  0  0  0
    6.5442  -12.4901   27.2609 C   0  0  0  0  0  0  0  0  0  0  0  0
    7.8029  -13.0716   26.5957 C   0  0  1  0  0  0  0  0  0  0  0  0
    8.3082  -14.2063   27.4071 C   0  0  0  0  0  0  0  0  0  0  0  0
    8.2140  -15.4074   27.1600 O   0  0  0  0  0  0  0  0  0  0  0  0
    8.9674  -13.8488   28.5901 O   0  0  0  0  0  0  0  0  0  0  0  0
  2  1  1  0
  3  2  1  0
  4  3  2  0
  5  3  1  0
  6 12  1  0
  6  5  1  0
  6  7  1  1
  8  7  1  0
  9  8  1  0
 10  9  1  0
 11 10  1  0
 12 14  1  0
 13 12  2  0
 14 18  1  0
 14 15  1  0
 15 16  1  0
 17 16  1  0
 18 17  1  0
 19 21  1  0
 18 19  1  1
 20 19  2  0
M  END
$$$$
