GKP.pdb
     RDKit          3D

 21 21  0  0  1  0  0  0  0  0999 V2000
    4.6963  -20.1117   20.0805 N   0  0  0  0  0  0  0  0  0  0  0  0
    4.8196  -19.2727   21.2306 C   0  0  0  0  0  0  0  0  0  0  0  0
    6.1306  -18.5849   21.3268 C   0  0  0  0  0  0  0  0  0  0  0  0
    7.1385  -19.2351   20.9452 O   0  0  0  0  0  0  0  0  0  0  0  0
    6.2575  -17.2398   21.8301 N   0  0  0  0  0  0  0  0  0  0  0  0
    7.5442  -16.6700   21.8969 C   0  0  1  0  0  0  0  0  0  0  0  0
    7.4051  -15.1676   21.6131 C   0  0  0  0  0  0  0  0  0  0  0  0
    7.8764  -14.8182   20.2395 C   0  0  0  0  0  0  0  0  0  0  0  0
    8.0525  -13.3175   20.1715 C   0  0  0  0  0  0  0  0  0  0  0  0
    8.4382  -12.8268   18.8122 C   0  0  0  0  0  0  0  0  0  0  0  0
    8.4774  -11.3578   18.8952 N   0  0  0  0  0  0  0  0  0  0  0  0
    8.3696  -16.9261   23.0716 C   0  0  0  0  0  0  0  0  0  0  0  0
    7.7239  -16.8012   24.1821 O   0  0  0  0  0  0  0  0  0  0  0  0
    9.7215  -17.2752   23.1689 N   0  0  0  0  0  0  0  0  0  0  0  0
   10.5964  -17.5853   22.0650 C   0  0  0  0  0  0  0  0  0  0  0  0
   11.8658  -18.1736   22.6689 C   0  0  0  0  0  0  0  0  0  0  0  0
   11.9514  -17.4557   23.9848 C   0  0  0  0  0  0  0  0  0  0  0  0
   10.4691  -17.4049   24.3915 C   0  0  1  0  0  0  0  0  0  0  0  0
   10.2605  -16.2928   25.3511 C   0  0  0  0  0  0  0  0  0  0  0  0
    9.6648  -15.2345   25.1568 O   0  0  0  0  0  0  0  0  0  0  0  0
   10.8138  -16.4885   26.6229 O   0  0  0  0  0  0  0  0  0  0  0  0
  2  1  1  0
  3  2  1  0
  4  3  2  0
  5  3  1  0
  6 12  1  0
  6  5  1  0
  6  7  1  1
  8  7  1  0
  9  8  1  0
 10  9  1  0
 11 10  1  0
 12 14  1  0
 13 12  2  0
 14 18  1  0
 14 15  1  0
 15 16  1  0
 17 16  1  0
 18 17  1  0
 19 21  1  0
 18 19  1  1
 20 19  2  0
M  END
$$$$
