GKP.pdb
     RDKit          3D

 21 21  0  0  1  0  0  0  0  0999 V2000
    3.9483  -19.1266   23.0064 N   0  0  0  0  0  0  0  0  0  0  0  0
    5.3614  -18.9681   22.8657 C   0  0  0  0  0  0  0  0  0  0  0  0
    5.8119  -17.5567   22.9439 C   0  0  0  0  0  0  0  0  0  0  0  0
    5.0244  -16.6867   22.4888 O   0  0  0  0  0  0  0  0  0  0  0  0
    7.0852  -17.1869   23.5102 N   0  0  0  0  0  0  0  0  0  0  0  0
    7.5964  -15.9053   23.2252 C   0  0  1  0  0  0  0  0  0  0  0  0
    8.6068  -15.5502   24.3250 C   0  0  0  0  0  0  0  0  0  0  0  0
    7.9270  -15.0951   25.5748 C   0  0  0  0  0  0  0  0  0  0  0  0
    8.9937  -14.7387   26.5861 C   0  0  0  0  0  0  0  0  0  0  0  0
    8.4403  -14.3587   27.9227 C   0  0  0  0  0  0  0  0  0  0  0  0
    9.5970  -14.0703   28.7858 N   0  0  0  0  0  0  0  0  0  0  0  0
    8.1272  -15.6371   21.8937 C   0  0  0  0  0  0  0  0  0  0  0  0
    8.8512  -16.6010   21.4327 O   0  0  0  0  0  0  0  0  0  0  0  0
    7.9732  -14.5186   21.0665 N   0  0  0  0  0  0  0  0  0  0  0  0
    7.0785  -13.4115   21.2993 C   0  0  0  0  0  0  0  0  0  0  0  0
    7.0511  -12.5971   20.0116 C   0  0  0  0  0  0  0  0  0  0  0  0
    8.4368  -12.8098   19.4740 C   0  0  0  0  0  0  0  0  0  0  0  0
    8.6678  -14.2886   19.8275 C   0  0  1  0  0  0  0  0  0  0  0  0
   10.1256  -14.5570   19.8905 C   0  0  0  0  0  0  0  0  0  0  0  0
   10.8466  -14.5607   20.8869 O   0  0  0  0  0  0  0  0  0  0  0  0
   10.7358  -14.8373   18.6612 O   0  0  0  0  0  0  0  0  0  0  0  0
  2  1  1  0
  3  2  1  0
  4  3  2  0
  5  3  1  0
  6 12  1  0
  6  5  1  0
  6  7  1  1
  8  7  1  0
  9  8  1  0
 10  9  1  0
 11 10  1  0
 12 14  1  0
 13 12  2  0
 14 18  1  0
 14 15  1  0
 15 16  1  0
 17 16  1  0
 18 17  1  0
 19 21  1  0
 18 19  1  1
 20 19  2  0
M  END
$$$$
