GKP.pdb
     RDKit          3D

 21 21  0  0  1  0  0  0  0  0999 V2000
    7.8566  -12.8684   19.0039 N   0  0  0  0  0  0  0  0  0  0  0  0
    8.7317  -13.1410   20.1000 C   0  0  0  0  0  0  0  0  0  0  0  0
    8.0308  -13.6303   21.3127 C   0  0  0  0  0  0  0  0  0  0  0  0
    7.0305  -12.9675   21.6926 O   0  0  0  0  0  0  0  0  0  0  0  0
    8.4635  -14.8043   22.0291 N   0  0  0  0  0  0  0  0  0  0  0  0
    7.8172  -15.1246   23.2394 C   0  0  1  0  0  0  0  0  0  0  0  0
    7.7526  -16.6549   23.3437 C   0  0  0  0  0  0  0  0  0  0  0  0
    6.3557  -17.1613   23.1914 C   0  0  0  0  0  0  0  0  0  0  0  0
    6.3922  -18.6710   23.2741 C   0  0  0  0  0  0  0  0  0  0  0  0
    5.0455  -19.3055   23.1296 C   0  0  0  0  0  0  0  0  0  0  0  0
    5.2617  -20.7602   23.1899 N   0  0  0  0  0  0  0  0  0  0  0  0
    8.2929  -14.5160   24.4763 C   0  0  0  0  0  0  0  0  0  0  0  0
    9.4967  -14.8656   24.7832 O   0  0  0  0  0  0  0  0  0  0  0  0
    7.6529  -13.6353   25.3560 N   0  0  0  0  0  0  0  0  0  0  0  0
    6.4436  -12.8980   25.0834 C   0  0  0  0  0  0  0  0  0  0  0  0
    6.2961  -11.8761   26.2042 C   0  0  0  0  0  0  0  0  0  0  0  0
    6.9219  -12.5905   27.3672 C   0  0  0  0  0  0  0  0  0  0  0  0
    8.1027  -13.2969   26.6802 C   0  0  1  0  0  0  0  0  0  0  0  0
    8.5195  -14.4639   27.4960 C   0  0  0  0  0  0  0  0  0  0  0  0
    8.2675  -15.6506   27.2937 O   0  0  0  0  0  0  0  0  0  0  0  0
    9.2899  -14.1595   28.6255 O   0  0  0  0  0  0  0  0  0  0  0  0
  2  1  1  0
  3  2  1  0
  4  3  2  0
  5  3  1  0
  6 12  1  0
  6  5  1  0
  6  7  1  1
  8  7  1  0
  9  8  1  0
 10  9  1  0
 11 10  1  0
 12 14  1  0
 13 12  2  0
 14 18  1  0
 14 15  1  0
 15 16  1  0
 17 16  1  0
 18 17  1  0
 19 21  1  0
 18 19  1  1
 20 19  2  0
M  END
$$$$
