KHF.pdb
     RDKit          3D

 31 32  0  0  1  0  0  0  0  0999 V2000
   25.0839  -20.7985  -16.4216 N   0  0  0  0  0  0  0  0  0  0  0  0
   26.0139  -21.1359  -15.3885 C   0  0  1  0  0  0  0  0  0  0  0  0
   27.4336  -20.8717  -15.8356 C   0  0  0  0  0  0  0  0  0  0  0  0
   27.8007  -21.7076  -17.0430 C   0  0  0  0  0  0  0  0  0  0  0  0
   29.2367  -21.5333  -17.4235 C   0  0  0  0  0  0  0  0  0  0  0  0
   29.9169  -22.8075  -17.8139 C   0  0  0  0  0  0  0  0  0  0  0  0
   31.3095  -22.5874  -18.0980 N   0  0  0  0  0  0  0  0  0  0  0  0
   25.6759  -20.4161  -14.1482 C   0  0  0  0  0  0  0  0  0  0  0  0
   24.9733  -19.3789  -14.2201 O   0  0  0  0  0  0  0  0  0  0  0  0
   26.1029  -20.8301  -12.8578 N   0  0  0  0  0  0  0  0  0  0  0  0
   25.2326  -20.7573  -11.7061 C   0  0  1  0  0  0  0  0  0  0  0  0
   24.0108  -21.5992  -12.0367 C   0  0  0  0  0  0  0  0  0  0  0  0
   22.8972  -20.6936  -12.4067 C   0  0  0  0  0  0  0  0  0  0  0  0
   22.8122  -19.7879  -13.4379 C   0  0  0  0  0  0  0  0  0  0  0  0
   21.6164  -19.1932  -13.3825 N   0  0  0  0  0  0  0  0  0  0  0  0
   20.9601  -19.7165  -12.3334 C   0  0  0  0  0  0  0  0  0  0  0  0
   21.7356  -20.6262  -11.7412 N   0  0  0  0  0  0  0  0  0  0  0  0
   25.8817  -21.1563  -10.4468 C   0  0  0  0  0  0  0  0  0  0  0  0
   26.1854  -22.3512  -10.1712 O   0  0  0  0  0  0  0  0  0  0  0  0
   26.1788  -20.1388   -9.4997 N   0  0  0  0  0  0  0  0  0  0  0  0
   26.7695  -20.4203   -8.2155 C   0  0  1  0  0  0  0  0  0  0  0  0
   27.5294  -19.2267   -7.6729 C   0  0  0  0  0  0  0  0  0  0  0  0
   28.0824  -19.4781   -6.3160 C   0  0  0  0  0  0  0  0  0  0  0  0
   27.5775  -18.7806   -5.2280 C   0  0  0  0  0  0  0  0  0  0  0  0
   28.0840  -19.0045   -3.9738 C   0  0  0  0  0  0  0  0  0  0  0  0
   29.0965  -19.9090   -3.7193 C   0  0  0  0  0  0  0  0  0  0  0  0
   29.5921  -20.5978   -4.8080 C   0  0  0  0  0  0  0  0  0  0  0  0
   29.0926  -20.3831   -6.0754 C   0  0  0  0  0  0  0  0  0  0  0  0
   25.7484  -20.8079   -7.2189 C   0  0  0  0  0  0  0  0  0  0  0  0
   24.5561  -20.4394   -7.3624 O   0  0  0  0  0  0  0  0  0  0  0  0
   26.0601  -21.5769   -6.1111 O   0  0  0  0  0  0  0  0  0  0  0  0
  2  1  1  6
  3  2  1  0
  3  4  1  0
  5  4  1  0
  6  5  1  0
  7  6  1  0
  8  9  2  0
  8  2  1  0
 10  8  1  0
 11 10  1  0
 11 12  1  6
 13 17  1  0
 13 12  1  0
 14 13  2  0
 15 14  1  0
 15 16  1  0
 16 17  2  0
 18 11  1  0
 19 18  2  0
 20 18  1  0
 21 29  1  0
 21 20  1  0
 21 22  1  1
 22 23  1  0
 23 28  1  0
 24 23  2  0
 24 25  1  0
 25 26  2  0
 26 27  1  0
 28 27  2  0
 29 31  1  0
 30 29  2  0
M  END
$$$$
