KHF.pdb
     RDKit          3D

 31 32  0  0  1  0  0  0  0  0999 V2000
   28.2620  -21.6393  -15.6462 N   0  0  0  0  0  0  0  0  0  0  0  0
   28.3069  -20.2539  -15.2932 C   0  0  1  0  0  0  0  0  0  0  0  0
   28.0964  -19.3817  -16.5098 C   0  0  0  0  0  0  0  0  0  0  0  0
   28.3363  -20.1494  -17.7922 C   0  0  0  0  0  0  0  0  0  0  0  0
   27.0578  -20.6414  -18.3925 C   0  0  0  0  0  0  0  0  0  0  0  0
   27.2331  -21.3200  -19.7144 C   0  0  0  0  0  0  0  0  0  0  0  0
   26.0057  -21.9274  -20.1538 N   0  0  0  0  0  0  0  0  0  0  0  0
   27.3296  -19.9711  -14.2275 C   0  0  0  0  0  0  0  0  0  0  0  0
   27.2021  -18.7920  -13.8177 O   0  0  0  0  0  0  0  0  0  0  0  0
   26.5117  -20.9656  -13.6269 N   0  0  0  0  0  0  0  0  0  0  0  0
   25.5050  -20.6344  -12.6441 C   0  0  1  0  0  0  0  0  0  0  0  0
   24.1989  -21.2246  -13.1508 C   0  0  0  0  0  0  0  0  0  0  0  0
   23.6263  -20.3075  -14.1649 C   0  0  0  0  0  0  0  0  0  0  0  0
   24.1068  -19.1050  -14.6272 C   0  0  0  0  0  0  0  0  0  0  0  0
   23.2553  -18.6316  -15.5424 N   0  0  0  0  0  0  0  0  0  0  0  0
   22.2554  -19.5221  -15.6536 C   0  0  0  0  0  0  0  0  0  0  0  0
   22.4793  -20.5385  -14.8190 N   0  0  0  0  0  0  0  0  0  0  0  0
   25.8422  -21.0720  -11.2798 C   0  0  0  0  0  0  0  0  0  0  0  0
   26.2961  -22.2201  -11.0120 O   0  0  0  0  0  0  0  0  0  0  0  0
   25.6447  -20.1491  -10.2170 N   0  0  0  0  0  0  0  0  0  0  0  0
   25.6704  -20.5425   -8.8306 C   0  0  1  0  0  0  0  0  0  0  0  0
   25.9413  -19.3641   -7.9172 C   0  0  0  0  0  0  0  0  0  0  0  0
   27.2509  -19.4768   -7.2226 C   0  0  0  0  0  0  0  0  0  0  0  0
   27.8191  -20.7272   -7.0257 C   0  0  0  0  0  0  0  0  0  0  0  0
   29.0252  -20.8400   -6.3834 C   0  0  0  0  0  0  0  0  0  0  0  0
   29.7304  -19.7524   -5.9062 C   0  0  0  0  0  0  0  0  0  0  0  0
   29.1570  -18.5129   -6.1069 C   0  0  0  0  0  0  0  0  0  0  0  0
   27.9445  -18.3840   -6.7511 C   0  0  0  0  0  0  0  0  0  0  0  0
   24.3937  -21.1625   -8.4161 C   0  0  0  0  0  0  0  0  0  0  0  0
   23.3444  -20.9421   -9.0706 O   0  0  0  0  0  0  0  0  0  0  0  0
   24.3068  -21.9938   -7.3128 O   0  0  0  0  0  0  0  0  0  0  0  0
  2  1  1  6
  3  2  1  0
  3  4  1  0
  5  4  1  0
  6  5  1  0
  7  6  1  0
  8  9  2  0
  8  2  1  0
 10  8  1  0
 11 10  1  0
 11 12  1  6
 13 17  1  0
 13 12  1  0
 14 13  2  0
 15 14  1  0
 15 16  1  0
 16 17  2  0
 18 11  1  0
 19 18  2  0
 20 18  1  0
 21 29  1  0
 21 20  1  0
 21 22  1  1
 22 23  1  0
 23 28  1  0
 24 23  2  0
 24 25  1  0
 25 26  2  0
 26 27  1  0
 28 27  2  0
 29 31  1  0
 30 29  2  0
M  END
$$$$
