KHF.pdb
     RDKit          3D

 31 32  0  0  1  0  0  0  0  0999 V2000
   24.0311  -16.8168  -16.9691 N   0  0  0  0  0  0  0  0  0  0  0  0
   23.4943  -17.8871  -16.1865 C   0  0  1  0  0  0  0  0  0  0  0  0
   22.2421  -18.4443  -16.8242 C   0  0  0  0  0  0  0  0  0  0  0  0
   21.0744  -17.4917  -16.6811 C   0  0  0  0  0  0  0  0  0  0  0  0
   21.4329  -16.1049  -17.1117 C   0  0  0  0  0  0  0  0  0  0  0  0
   20.2891  -15.1417  -17.0597 C   0  0  0  0  0  0  0  0  0  0  0  0
   20.6786  -13.8453  -17.5457 N   0  0  0  0  0  0  0  0  0  0  0  0
   24.5206  -18.9225  -15.9732 C   0  0  0  0  0  0  0  0  0  0  0  0
   24.5226  -19.9368  -16.7119 O   0  0  0  0  0  0  0  0  0  0  0  0
   25.5218  -18.8417  -14.9683 N   0  0  0  0  0  0  0  0  0  0  0  0
   26.6120  -19.7881  -14.8993 C   0  0  1  0  0  0  0  0  0  0  0  0
   27.8633  -18.9810  -14.5934 C   0  0  0  0  0  0  0  0  0  0  0  0
   28.1467  -18.0914  -15.7447 C   0  0  0  0  0  0  0  0  0  0  0  0
   28.8346  -18.3556  -16.9056 C   0  0  0  0  0  0  0  0  0  0  0  0
   28.8381  -17.2505  -17.6575 N   0  0  0  0  0  0  0  0  0  0  0  0
   28.1632  -16.3065  -16.9802 C   0  0  0  0  0  0  0  0  0  0  0  0
   27.7436  -16.8152  -15.8204 N   0  0  0  0  0  0  0  0  0  0  0  0
   26.3862  -20.8832  -13.9421 C   0  0  0  0  0  0  0  0  0  0  0  0
   26.6928  -22.0856  -14.1789 O   0  0  0  0  0  0  0  0  0  0  0  0
   25.7939  -20.5616  -12.6906 N   0  0  0  0  0  0  0  0  0  0  0  0
   25.4015  -21.5666  -11.7349 C   0  0  1  0  0  0  0  0  0  0  0  0
   26.4813  -21.8094  -10.6997 C   0  0  0  0  0  0  0  0  0  0  0  0
   26.4456  -20.8089   -9.6006 C   0  0  0  0  0  0  0  0  0  0  0  0
   26.3337  -21.2363   -8.2854 C   0  0  0  0  0  0  0  0  0  0  0  0
   26.2972  -20.3199   -7.2663 C   0  0  0  0  0  0  0  0  0  0  0  0
   26.3671  -18.9562   -7.4750 C   0  0  0  0  0  0  0  0  0  0  0  0
   26.4782  -18.5409   -8.7867 C   0  0  0  0  0  0  0  0  0  0  0  0
   26.5161  -19.4511   -9.8220 C   0  0  0  0  0  0  0  0  0  0  0  0
   24.1601  -21.1895  -11.0258 C   0  0  0  0  0  0  0  0  0  0  0  0
   23.6255  -20.0734  -11.2415 O   0  0  0  0  0  0  0  0  0  0  0  0
   23.5506  -22.0348  -10.1149 O   0  0  0  0  0  0  0  0  0  0  0  0
  2  1  1  6
  3  2  1  0
  3  4  1  0
  5  4  1  0
  6  5  1  0
  7  6  1  0
  8  9  2  0
  8  2  1  0
 10  8  1  0
 11 10  1  0
 11 12  1  1
 13 17  1  0
 13 12  1  0
 14 13  2  0
 15 14  1  0
 15 16  1  0
 16 17  2  0
 18 11  1  0
 19 18  2  0
 20 18  1  0
 21 29  1  0
 21 20  1  0
 21 22  1  1
 22 23  1  0
 23 28  1  0
 24 23  2  0
 24 25  1  0
 25 26  2  0
 26 27  1  0
 28 27  2  0
 29 31  1  0
 30 29  2  0
M  END
$$$$
