KHF.pdb
     RDKit          3D

 31 32  0  0  1  0  0  0  0  0999 V2000
   21.4491  -16.9470  -20.4886 N   0  0  0  0  0  0  0  0  0  0  0  0
   21.9846  -16.7954  -19.1709 C   0  0  1  0  0  0  0  0  0  0  0  0
   21.1011  -15.9015  -18.3308 C   0  0  0  0  0  0  0  0  0  0  0  0
   20.8704  -14.5626  -18.9982 C   0  0  0  0  0  0  0  0  0  0  0  0
   19.9339  -13.7030  -18.2098 C   0  0  0  0  0  0  0  0  0  0  0  0
   19.6745  -12.3662  -18.8297 C   0  0  0  0  0  0  0  0  0  0  0  0
   18.6778  -11.6363  -18.0932 N   0  0  0  0  0  0  0  0  0  0  0  0
   22.1905  -18.1170  -18.5530 C   0  0  0  0  0  0  0  0  0  0  0  0
   21.3274  -19.0107  -18.7288 O   0  0  0  0  0  0  0  0  0  0  0  0
   23.3220  -18.4459  -17.7591 N   0  0  0  0  0  0  0  0  0  0  0  0
   23.4256  -19.7090  -17.0642 C   0  0  1  0  0  0  0  0  0  0  0  0
   24.8435  -20.2085  -17.2893 C   0  0  0  0  0  0  0  0  0  0  0  0
   24.9955  -21.5215  -16.6184 C   0  0  0  0  0  0  0  0  0  0  0  0
   24.0792  -22.2427  -15.8897 C   0  0  0  0  0  0  0  0  0  0  0  0
   24.6614  -23.3723  -15.4752 N   0  0  0  0  0  0  0  0  0  0  0  0
   25.9236  -23.3614  -15.9357 C   0  0  0  0  0  0  0  0  0  0  0  0
   26.1272  -22.2399  -16.6289 N   0  0  0  0  0  0  0  0  0  0  0  0
   23.0625  -19.6330  -15.6398 C   0  0  0  0  0  0  0  0  0  0  0  0
   23.4191  -18.6866  -14.8827 O   0  0  0  0  0  0  0  0  0  0  0  0
   22.2698  -20.6812  -15.0982 N   0  0  0  0  0  0  0  0  0  0  0  0
   21.7763  -20.6629  -13.7441 C   0  0  1  0  0  0  0  0  0  0  0  0
   21.2149  -19.3061  -13.3691 C   0  0  0  0  0  0  0  0  0  0  0  0
   20.7519  -19.2567  -11.9572 C   0  0  0  0  0  0  0  0  0  0  0  0
   19.4084  -19.4463  -11.6675 C   0  0  0  0  0  0  0  0  0  0  0  0
   18.9728  -19.3994  -10.3683 C   0  0  0  0  0  0  0  0  0  0  0  0
   19.8150  -19.1680   -9.2981 C   0  0  0  0  0  0  0  0  0  0  0  0
   21.1496  -18.9806   -9.5966 C   0  0  0  0  0  0  0  0  0  0  0  0
   21.6022  -19.0250  -10.8985 C   0  0  0  0  0  0  0  0  0  0  0  0
   20.7169  -21.6730  -13.5363 C   0  0  0  0  0  0  0  0  0  0  0  0
   19.8765  -21.9004  -14.4419 O   0  0  0  0  0  0  0  0  0  0  0  0
   20.6119  -22.3937  -12.3592 O   0  0  0  0  0  0  0  0  0  0  0  0
  2  1  1  6
  3  2  1  0
  3  4  1  0
  5  4  1  0
  6  5  1  0
  7  6  1  0
  8  9  2  0
  8  2  1  0
 10  8  1  0
 11 10  1  0
 11 12  1  1
 13 17  1  0
 13 12  1  0
 14 13  2  0
 15 14  1  0
 15 16  1  0
 16 17  2  0
 18 11  1  0
 19 18  2  0
 20 18  1  0
 21 29  1  0
 21 20  1  0
 21 22  1  6
 22 23  1  0
 23 28  1  0
 24 23  2  0
 24 25  1  0
 25 26  2  0
 26 27  1  0
 28 27  2  0
 29 31  1  0
 30 29  2  0
M  END
$$$$
