KHF.pdb
     RDKit          3D

 31 32  0  0  1  0  0  0  0  0999 V2000
   27.1480  -16.5665  -18.2372 N   0  0  0  0  0  0  0  0  0  0  0  0
   27.2067  -17.9327  -17.8176 C   0  0  1  0  0  0  0  0  0  0  0  0
   28.6388  -18.3718  -17.6141 C   0  0  0  0  0  0  0  0  0  0  0  0
   29.2571  -18.8667  -18.9041 C   0  0  0  0  0  0  0  0  0  0  0  0
   28.9150  -20.2982  -19.1706 C   0  0  0  0  0  0  0  0  0  0  0  0
   29.7597  -21.2724  -18.4113 C   0  0  0  0  0  0  0  0  0  0  0  0
   29.2658  -22.6149  -18.5600 N   0  0  0  0  0  0  0  0  0  0  0  0
   26.3859  -18.1270  -16.6096 C   0  0  0  0  0  0  0  0  0  0  0  0
   26.5167  -17.3273  -15.6515 O   0  0  0  0  0  0  0  0  0  0  0  0
   25.4426  -19.1790  -16.4609 N   0  0  0  0  0  0  0  0  0  0  0  0
   24.7710  -19.4302  -15.2060 C   0  0  1  0  0  0  0  0  0  0  0  0
   23.3434  -19.8207  -15.5531 C   0  0  0  0  0  0  0  0  0  0  0  0
   22.5955  -20.0503  -14.2940 C   0  0  0  0  0  0  0  0  0  0  0  0
   21.9990  -19.1408  -13.4528 C   0  0  0  0  0  0  0  0  0  0  0  0
   21.4393  -19.8060  -12.4373 N   0  0  0  0  0  0  0  0  0  0  0  0
   21.6801  -21.1127  -12.6369 C   0  0  0  0  0  0  0  0  0  0  0  0
   22.3809  -21.2619  -13.7623 N   0  0  0  0  0  0  0  0  0  0  0  0
   25.4493  -20.4254  -14.3599 C   0  0  0  0  0  0  0  0  0  0  0  0
   25.9728  -21.4813  -14.8149 O   0  0  0  0  0  0  0  0  0  0  0  0
   25.5144  -20.1766  -12.9619 N   0  0  0  0  0  0  0  0  0  0  0  0
   26.0848  -21.1171  -12.0304 C   0  0  1  0  0  0  0  0  0  0  0  0
   27.3104  -20.5520  -11.3411 C   0  0  0  0  0  0  0  0  0  0  0  0
   27.0695  -20.2704   -9.9013 C   0  0  0  0  0  0  0  0  0  0  0  0
   26.6185  -19.0174   -9.5121 C   0  0  0  0  0  0  0  0  0  0  0  0
   26.3967  -18.7488   -8.1861 C   0  0  0  0  0  0  0  0  0  0  0  0
   26.6008  -19.6771   -7.1838 C   0  0  0  0  0  0  0  0  0  0  0  0
   27.0495  -20.9206   -7.5810 C   0  0  0  0  0  0  0  0  0  0  0  0
   27.2770  -21.2052   -8.9110 C   0  0  0  0  0  0  0  0  0  0  0  0
   25.1118  -21.5117  -10.9895 C   0  0  0  0  0  0  0  0  0  0  0  0
   24.1190  -20.7817  -10.7457 O   0  0  0  0  0  0  0  0  0  0  0  0
   25.2539  -22.6779  -10.2576 O   0  0  0  0  0  0  0  0  0  0  0  0
  2  1  1  1
  3  2  1  0
  3  4  1  0
  5  4  1  0
  6  5  1  0
  7  6  1  0
  8  9  2  0
  8  2  1  0
 10  8  1  0
 11 10  1  0
 11 12  1  6
 13 17  1  0
 13 12  1  0
 14 13  2  0
 15 14  1  0
 15 16  1  0
 16 17  2  0
 18 11  1  0
 19 18  2  0
 20 18  1  0
 21 29  1  0
 21 20  1  0
 21 22  1  1
 22 23  1  0
 23 28  1  0
 24 23  2  0
 24 25  1  0
 25 26  2  0
 26 27  1  0
 28 27  2  0
 29 31  1  0
 30 29  2  0
M  END
$$$$
