KHF.pdb
     RDKit          3D

 31 32  0  0  1  0  0  0  0  0999 V2000
   26.3871  -16.9460  -18.7975 N   0  0  0  0  0  0  0  0  0  0  0  0
   26.1912  -16.0357  -19.8834 C   0  0  1  0  0  0  0  0  0  0  0  0
   24.7191  -15.8596  -20.1788 C   0  0  0  0  0  0  0  0  0  0  0  0
   23.9922  -17.1873  -20.1919 C   0  0  0  0  0  0  0  0  0  0  0  0
   24.2360  -17.9415  -21.4603 C   0  0  0  0  0  0  0  0  0  0  0  0
   23.4856  -19.2330  -21.5488 C   0  0  0  0  0  0  0  0  0  0  0  0
   22.0657  -19.0150  -21.4798 N   0  0  0  0  0  0  0  0  0  0  0  0
   26.8605  -14.7548  -19.5972 C   0  0  0  0  0  0  0  0  0  0  0  0
   26.6181  -14.1719  -18.5127 O   0  0  0  0  0  0  0  0  0  0  0  0
   27.7762  -14.1304  -20.4862 N   0  0  0  0  0  0  0  0  0  0  0  0
   28.3824  -12.8534  -20.1847 C   0  0  1  0  0  0  0  0  0  0  0  0
   29.5609  -12.7025  -21.1329 C   0  0  0  0  0  0  0  0  0  0  0  0
   30.2921  -11.4605  -20.7863 C   0  0  0  0  0  0  0  0  0  0  0  0
   30.0255  -10.5331  -19.8066 C   0  0  0  0  0  0  0  0  0  0  0  0
   30.9561   -9.5754  -19.8647 N   0  0  0  0  0  0  0  0  0  0  0  0
   31.7944   -9.8954  -20.8648 C   0  0  0  0  0  0  0  0  0  0  0  0
   31.3927  -11.0381  -21.4242 N   0  0  0  0  0  0  0  0  0  0  0  0
   27.4436  -11.7217  -20.2503 C   0  0  0  0  0  0  0  0  0  0  0  0
   26.6540  -11.5307  -21.2177 O   0  0  0  0  0  0  0  0  0  0  0  0
   27.4315  -10.8034  -19.1654 N   0  0  0  0  0  0  0  0  0  0  0  0
   26.4676   -9.7370  -19.0600 C   0  0  1  0  0  0  0  0  0  0  0  0
   25.3293  -10.0988  -18.1273 C   0  0  0  0  0  0  0  0  0  0  0  0
   25.8108  -10.5241  -16.7865 C   0  0  0  0  0  0  0  0  0  0  0  0
   26.0215  -11.8707  -16.5273 C   0  0  0  0  0  0  0  0  0  0  0  0
   26.4626  -12.2714  -15.2925 C   0  0  0  0  0  0  0  0  0  0  0  0
   26.7177  -11.3902  -14.2599 C   0  0  0  0  0  0  0  0  0  0  0  0
   26.5051  -10.0529  -14.5276 C   0  0  0  0  0  0  0  0  0  0  0  0
   26.0615   -9.6350  -15.7647 C   0  0  0  0  0  0  0  0  0  0  0  0
   27.0877   -8.4885  -18.5672 C   0  0  0  0  0  0  0  0  0  0  0  0
   28.2503   -8.5072  -18.0920 O   0  0  0  0  0  0  0  0  0  0  0  0
   26.4245   -7.2743  -18.6098 O   0  0  0  0  0  0  0  0  0  0  0  0
  2  1  1  1
  3  2  1  0
  3  4  1  0
  5  4  1  0
  6  5  1  0
  7  6  1  0
  8  9  2  0
  8  2  1  0
 10  8  1  0
 11 10  1  0
 11 12  1  6
 13 17  1  0
 13 12  1  0
 14 13  2  0
 15 14  1  0
 15 16  1  0
 16 17  2  0
 18 11  1  0
 19 18  2  0
 20 18  1  0
 21 29  1  0
 21 20  1  0
 21 22  1  1
 22 23  1  0
 23 28  1  0
 24 23  2  0
 24 25  1  0
 25 26  2  0
 26 27  1  0
 28 27  2  0
 29 31  1  0
 30 29  2  0
M  END
$$$$
