KHF.pdb
     RDKit          3D

 31 32  0  0  1  0  0  0  0  0999 V2000
   26.9611  -19.2649  -15.5249 N   0  0  0  0  0  0  0  0  0  0  0  0
   26.7526  -18.4279  -14.3839 C   0  0  1  0  0  0  0  0  0  0  0  0
   25.9203  -17.2196  -14.7480 C   0  0  0  0  0  0  0  0  0  0  0  0
   26.4060  -16.5758  -16.0290 C   0  0  0  0  0  0  0  0  0  0  0  0
   27.6798  -15.8196  -15.8223 C   0  0  0  0  0  0  0  0  0  0  0  0
   28.1895  -15.1460  -17.0574 C   0  0  0  0  0  0  0  0  0  0  0  0
   27.3326  -14.0590  -17.4480 N   0  0  0  0  0  0  0  0  0  0  0  0
   26.1543  -19.2079  -13.2864 C   0  0  0  0  0  0  0  0  0  0  0  0
   25.3916  -18.6290  -12.4754 O   0  0  0  0  0  0  0  0  0  0  0  0
   26.3916  -20.5946  -13.0873 N   0  0  0  0  0  0  0  0  0  0  0  0
   25.8860  -21.2968  -11.9296 C   0  0  1  0  0  0  0  0  0  0  0  0
   25.8612  -22.7714  -12.2982 C   0  0  0  0  0  0  0  0  0  0  0  0
   24.7306  -23.0088  -13.2270 C   0  0  0  0  0  0  0  0  0  0  0  0
   23.7912  -22.1258  -13.7051 C   0  0  0  0  0  0  0  0  0  0  0  0
   22.9625  -22.7876  -14.5187 N   0  0  0  0  0  0  0  0  0  0  0  0
   23.3742  -24.0662  -14.5516 C   0  0  0  0  0  0  0  0  0  0  0  0
   24.4461  -24.2014  -13.7689 N   0  0  0  0  0  0  0  0  0  0  0  0
   26.6411  -21.0256  -10.6956 C   0  0  0  0  0  0  0  0  0  0  0  0
   27.8956  -20.8795  -10.6681 O   0  0  0  0  0  0  0  0  0  0  0  0
   25.9133  -20.9238   -9.4789 N   0  0  0  0  0  0  0  0  0  0  0  0
   26.5574  -20.8391   -8.1923 C   0  0  1  0  0  0  0  0  0  0  0  0
   27.4893  -19.6471   -8.1080 C   0  0  0  0  0  0  0  0  0  0  0  0
   28.1519  -19.5404   -6.7814 C   0  0  0  0  0  0  0  0  0  0  0  0
   29.0507  -20.5187   -6.3814 C   0  0  0  0  0  0  0  0  0  0  0  0
   29.6637  -20.4292   -5.1582 C   0  0  0  0  0  0  0  0  0  0  0  0
   29.4344  -19.3936   -4.2733 C   0  0  0  0  0  0  0  0  0  0  0  0
   28.5387  -18.4254   -4.6804 C   0  0  0  0  0  0  0  0  0  0  0  0
   27.9145  -18.5022   -5.9076 C   0  0  0  0  0  0  0  0  0  0  0  0
   25.5720  -20.7316   -7.0953 C   0  0  0  0  0  0  0  0  0  0  0  0
   25.9033  -21.0247   -5.9196 O   0  0  0  0  0  0  0  0  0  0  0  0
   24.2717  -20.3120   -7.3166 O   0  0  0  0  0  0  0  0  0  0  0  0
  2  1  1  6
  3  2  1  0
  3  4  1  0
  5  4  1  0
  6  5  1  0
  7  6  1  0
  8  9  2  0
  8  2  1  0
 10  8  1  0
 11 10  1  0
 11 12  1  6
 13 17  1  0
 13 12  1  0
 14 13  2  0
 15 14  1  0
 15 16  1  0
 16 17  2  0
 18 11  1  0
 19 18  2  0
 20 18  1  0
 21 29  1  0
 21 20  1  0
 21 22  1  6
 22 23  1  0
 23 28  1  0
 24 23  2  0
 24 25  1  0
 25 26  2  0
 26 27  1  0
 28 27  2  0
 29 31  1  0
 30 29  2  0
M  END
$$$$
