KHF.pdb
     RDKit          3D

 31 32  0  0  1  0  0  0  0  0999 V2000
   25.5475  -16.7355  -19.4675 N   0  0  0  0  0  0  0  0  0  0  0  0
   26.5074  -17.6114  -18.8697 C   0  0  1  0  0  0  0  0  0  0  0  0
   27.7586  -16.8555  -18.4843 C   0  0  0  0  0  0  0  0  0  0  0  0
   28.6432  -16.5961  -19.6849 C   0  0  0  0  0  0  0  0  0  0  0  0
   29.9709  -16.0348  -19.2856 C   0  0  0  0  0  0  0  0  0  0  0  0
   30.8617  -15.7093  -20.4429 C   0  0  0  0  0  0  0  0  0  0  0  0
   32.1185  -15.1712  -19.9963 N   0  0  0  0  0  0  0  0  0  0  0  0
   25.9055  -18.3161  -17.7243 C   0  0  0  0  0  0  0  0  0  0  0  0
   25.1031  -17.6973  -16.9841 O   0  0  0  0  0  0  0  0  0  0  0  0
   26.1820  -19.6720  -17.4019 N   0  0  0  0  0  0  0  0  0  0  0  0
   25.6994  -20.2803  -16.1829 C   0  0  1  0  0  0  0  0  0  0  0  0
   25.0965  -21.6182  -16.5796 C   0  0  0  0  0  0  0  0  0  0  0  0
   23.6927  -21.3988  -17.0023 C   0  0  0  0  0  0  0  0  0  0  0  0
   22.9638  -20.2336  -17.0439 C   0  0  0  0  0  0  0  0  0  0  0  0
   21.7372  -20.5165  -17.4937 N   0  0  0  0  0  0  0  0  0  0  0  0
   21.6957  -21.8383  -17.7310 C   0  0  0  0  0  0  0  0  0  0  0  0
   22.8806  -22.3741  -17.4335 N   0  0  0  0  0  0  0  0  0  0  0  0
   26.7253  -20.4007  -15.1344 C   0  0  0  0  0  0  0  0  0  0  0  0
   27.9320  -20.6875  -15.3743 O   0  0  0  0  0  0  0  0  0  0  0  0
   26.3290  -20.1804  -13.7872 N   0  0  0  0  0  0  0  0  0  0  0  0
   27.2493  -20.2694  -12.6815 C   0  0  1  0  0  0  0  0  0  0  0  0
   26.7975  -19.4272  -11.5054 C   0  0  0  0  0  0  0  0  0  0  0  0
   25.4856  -19.8700  -10.9641 C   0  0  0  0  0  0  0  0  0  0  0  0
   25.4064  -20.3588   -9.6681 C   0  0  0  0  0  0  0  0  0  0  0  0
   24.2008  -20.7720   -9.1625 C   0  0  0  0  0  0  0  0  0  0  0  0
   23.0249  -20.7301   -9.8860 C   0  0  0  0  0  0  0  0  0  0  0  0
   23.1140  -20.2423  -11.1742 C   0  0  0  0  0  0  0  0  0  0  0  0
   24.3197  -19.8233  -11.6963 C   0  0  0  0  0  0  0  0  0  0  0  0
   27.4083  -21.6635  -12.2155 C   0  0  0  0  0  0  0  0  0  0  0  0
   28.2727  -21.9433  -11.3481 O   0  0  0  0  0  0  0  0  0  0  0  0
   26.6260  -22.6944  -12.7068 O   0  0  0  0  0  0  0  0  0  0  0  0
  2  1  1  1
  3  2  1  0
  3  4  1  0
  5  4  1  0
  6  5  1  0
  7  6  1  0
  8  9  2  0
  8  2  1  0
 10  8  1  0
 11 10  1  0
 11 12  1  6
 13 17  1  0
 13 12  1  0
 14 13  2  0
 15 14  1  0
 15 16  1  0
 16 17  2  0
 18 11  1  0
 19 18  2  0
 20 18  1  0
 21 29  1  0
 21 20  1  0
 21 22  1  1
 22 23  1  0
 23 28  1  0
 24 23  2  0
 24 25  1  0
 25 26  2  0
 26 27  1  0
 28 27  2  0
 29 31  1  0
 30 29  2  0
M  END
$$$$
