KHF.pdb
     RDKit          3D

 31 32  0  0  1  0  0  0  0  0999 V2000
   46.6091   -8.7971   -3.6042 N   0  0  0  0  0  0  0  0  0  0  0  0
   45.3793   -9.5258   -3.5512 C   0  0  1  0  0  0  0  0  0  0  0  0
   44.4599   -8.9533   -2.4966 C   0  0  0  0  0  0  0  0  0  0  0  0
   44.2867   -9.9064   -1.3336 C   0  0  0  0  0  0  0  0  0  0  0  0
   43.4216   -9.3234   -0.2617 C   0  0  0  0  0  0  0  0  0  0  0  0
   43.1037  -10.2795    0.8445 C   0  0  0  0  0  0  0  0  0  0  0  0
   42.2508   -9.6701    1.8293 N   0  0  0  0  0  0  0  0  0  0  0  0
   44.7509   -9.5557   -4.8835 C   0  0  0  0  0  0  0  0  0  0  0  0
   44.8167   -8.5341   -5.6091 O   0  0  0  0  0  0  0  0  0  0  0  0
   44.0652  -10.6860   -5.4040 N   0  0  0  0  0  0  0  0  0  0  0  0
   43.4784  -10.6812   -6.7249 C   0  0  1  0  0  0  0  0  0  0  0  0
   43.6723  -12.0803   -7.2865 C   0  0  0  0  0  0  0  0  0  0  0  0
   43.2226  -12.0906   -8.6989 C   0  0  0  0  0  0  0  0  0  0  0  0
   42.6817  -11.0752   -9.4520 C   0  0  0  0  0  0  0  0  0  0  0  0
   42.4276  -11.5450  -10.6773 N   0  0  0  0  0  0  0  0  0  0  0  0
   42.8026  -12.8351  -10.6944 C   0  0  0  0  0  0  0  0  0  0  0  0
   43.2847  -13.1669   -9.4955 N   0  0  0  0  0  0  0  0  0  0  0  0
   42.0736  -10.2424   -6.7475 C   0  0  0  0  0  0  0  0  0  0  0  0
   41.1654  -10.7881   -6.0595 O   0  0  0  0  0  0  0  0  0  0  0  0
   41.7316   -9.1484   -7.5881 N   0  0  0  0  0  0  0  0  0  0  0  0
   40.3718   -8.7109   -7.7803 C   0  0  1  0  0  0  0  0  0  0  0  0
   39.9733   -7.6547   -6.7693 C   0  0  0  0  0  0  0  0  0  0  0  0
   38.5622   -7.2172   -6.9355 C   0  0  0  0  0  0  0  0  0  0  0  0
   38.2892   -5.9427   -7.4110 C   0  0  0  0  0  0  0  0  0  0  0  0
   36.9906   -5.5306   -7.5643 C   0  0  0  0  0  0  0  0  0  0  0  0
   35.9048   -6.3304   -7.2655 C   0  0  0  0  0  0  0  0  0  0  0  0
   36.1867   -7.5964   -6.7931 C   0  0  0  0  0  0  0  0  0  0  0  0
   37.4878   -8.0248   -6.6336 C   0  0  0  0  0  0  0  0  0  0  0  0
   40.1645   -8.1539   -9.1341 C   0  0  0  0  0  0  0  0  0  0  0  0
   39.0003   -7.9871   -9.5755 O   0  0  0  0  0  0  0  0  0  0  0  0
   41.2242   -7.8011   -9.9518 O   0  0  0  0  0  0  0  0  0  0  0  0
  2  1  1  6
  3  2  1  0
  3  4  1  0
  5  4  1  0
  6  5  1  0
  7  6  1  0
  8  9  2  0
  8  2  1  0
 10  8  1  0
 11 10  1  0
 11 12  1  1
 13 17  1  0
 13 12  1  0
 14 13  2  0
 15 14  1  0
 15 16  1  0
 16 17  2  0
 18 11  1  0
 19 18  2  0
 20 18  1  0
 21 29  1  0
 21 20  1  0
 21 22  1  1
 22 23  1  0
 23 28  1  0
 24 23  2  0
 24 25  1  0
 25 26  2  0
 26 27  1  0
 28 27  2  0
 29 31  1  0
 30 29  2  0
M  END
$$$$
