KHF.pdb
     RDKit          3D

 31 32  0  0  1  0  0  0  0  0999 V2000
   30.2168  -36.2780  -17.7550 N   0  0  0  0  0  0  0  0  0  0  0  0
   30.8656  -35.3901  -16.8402 C   0  0  1  0  0  0  0  0  0  0  0  0
   32.3362  -35.7199  -16.7222 C   0  0  0  0  0  0  0  0  0  0  0  0
   32.5519  -37.0843  -16.1032 C   0  0  0  0  0  0  0  0  0  0  0  0
   34.0051  -37.3893  -15.9232 C   0  0  0  0  0  0  0  0  0  0  0  0
   34.2698  -38.7286  -15.3109 C   0  0  0  0  0  0  0  0  0  0  0  0
   35.6793  -39.0120  -15.2699 N   0  0  0  0  0  0  0  0  0  0  0  0
   30.6376  -33.9917  -17.2442 C   0  0  0  0  0  0  0  0  0  0  0  0
   30.5262  -33.7226  -18.4647 O   0  0  0  0  0  0  0  0  0  0  0  0
   30.5348  -32.9144  -16.3235 N   0  0  0  0  0  0  0  0  0  0  0  0
   30.3354  -31.5518  -16.7625 C   0  0  1  0  0  0  0  0  0  0  0  0
   29.4201  -30.9000  -15.7387 C   0  0  0  0  0  0  0  0  0  0  0  0
   28.0423  -31.4064  -15.9444 C   0  0  0  0  0  0  0  0  0  0  0  0
   27.5810  -32.3518  -16.8299 C   0  0  0  0  0  0  0  0  0  0  0  0
   26.2622  -32.4863  -16.6580 N   0  0  0  0  0  0  0  0  0  0  0  0
   25.9002  -31.6389  -15.6801 C   0  0  0  0  0  0  0  0  0  0  0  0
   26.9785  -30.9838  -15.2468 N   0  0  0  0  0  0  0  0  0  0  0  0
   31.5878  -30.8070  -16.9702 C   0  0  0  0  0  0  0  0  0  0  0  0
   32.4785  -30.6863  -16.0824 O   0  0  0  0  0  0  0  0  0  0  0  0
   31.7971  -30.1971  -18.2369 N   0  0  0  0  0  0  0  0  0  0  0  0
   33.0441  -29.5743  -18.6036 C   0  0  1  0  0  0  0  0  0  0  0  0
   33.6167  -30.1690  -19.8745 C   0  0  0  0  0  0  0  0  0  0  0  0
   34.1745  -31.5303  -19.6600 C   0  0  0  0  0  0  0  0  0  0  0  0
   35.4683  -31.6753  -19.1805 C   0  0  0  0  0  0  0  0  0  0  0  0
   35.9911  -32.9272  -18.9827 C   0  0  0  0  0  0  0  0  0  0  0  0
   35.2875  -34.0878  -19.2393 C   0  0  0  0  0  0  0  0  0  0  0  0
   34.0013  -33.9332  -19.7160 C   0  0  0  0  0  0  0  0  0  0  0  0
   33.4622  -32.6804  -19.9198 C   0  0  0  0  0  0  0  0  0  0  0  0
   32.8874  -28.1182  -18.8065 C   0  0  0  0  0  0  0  0  0  0  0  0
   31.7402  -27.6145  -18.8980 O   0  0  0  0  0  0  0  0  0  0  0  0
   33.9770  -27.2698  -18.9014 O   0  0  0  0  0  0  0  0  0  0  0  0
  2  1  1  6
  3  2  1  0
  3  4  1  0
  5  4  1  0
  6  5  1  0
  7  6  1  0
  8  9  2  0
  8  2  1  0
 10  8  1  0
 11 10  1  0
 11 12  1  1
 13 17  1  0
 13 12  1  0
 14 13  2  0
 15 14  1  0
 15 16  1  0
 16 17  2  0
 18 11  1  0
 19 18  2  0
 20 18  1  0
 21 29  1  0
 21 20  1  0
 21 22  1  6
 22 23  1  0
 23 28  1  0
 24 23  2  0
 24 25  1  0
 25 26  2  0
 26 27  1  0
 28 27  2  0
 29 31  1  0
 30 29  2  0
M  END
$$$$
