KHF.pdb
     RDKit          3D

 31 32  0  0  1  0  0  0  0  0999 V2000
   21.6521  -22.3822  -13.4600 N   0  0  0  0  0  0  0  0  0  0  0  0
   20.9293  -21.2111  -13.8500 C   0  0  1  0  0  0  0  0  0  0  0  0
   19.9981  -20.7616  -12.7472 C   0  0  0  0  0  0  0  0  0  0  0  0
   18.6029  -21.3171  -12.9370 C   0  0  0  0  0  0  0  0  0  0  0  0
   18.5041  -22.7382  -12.4812 C   0  0  0  0  0  0  0  0  0  0  0  0
   17.2318  -23.0539  -11.7596 C   0  0  0  0  0  0  0  0  0  0  0  0
   16.2907  -23.7092  -12.6277 N   0  0  0  0  0  0  0  0  0  0  0  0
   21.8666  -20.1497  -14.2568 C   0  0  0  0  0  0  0  0  0  0  0  0
   21.5364  -18.9508  -14.0892 O   0  0  0  0  0  0  0  0  0  0  0  0
   23.1392  -20.4040  -14.8354 N   0  0  0  0  0  0  0  0  0  0  0  0
   24.0236  -19.3331  -15.2352 C   0  0  1  0  0  0  0  0  0  0  0  0
   25.4375  -19.8811  -15.1296 C   0  0  0  0  0  0  0  0  0  0  0  0
   26.3901  -18.8119  -15.5125 C   0  0  0  0  0  0  0  0  0  0  0  0
   26.7631  -17.6839  -14.8203 C   0  0  0  0  0  0  0  0  0  0  0  0
   27.6505  -17.0083  -15.5571 N   0  0  0  0  0  0  0  0  0  0  0  0
   27.8325  -17.7004  -16.6943 C   0  0  0  0  0  0  0  0  0  0  0  0
   27.0689  -18.7941  -16.6682 N   0  0  0  0  0  0  0  0  0  0  0  0
   23.7199  -18.7790  -16.5646 C   0  0  0  0  0  0  0  0  0  0  0  0
   23.3116  -19.4814  -17.5320 O   0  0  0  0  0  0  0  0  0  0  0  0
   23.8972  -17.3823  -16.7598 N   0  0  0  0  0  0  0  0  0  0  0  0
   23.6250  -16.7320  -18.0170 C   0  0  1  0  0  0  0  0  0  0  0  0
   23.5994  -15.2235  -17.8752 C   0  0  0  0  0  0  0  0  0  0  0  0
   24.8362  -14.6943  -17.2423 C   0  0  0  0  0  0  0  0  0  0  0  0
   24.8699  -14.4812  -15.8717 C   0  0  0  0  0  0  0  0  0  0  0  0
   26.0056  -13.9907  -15.2807 C   0  0  0  0  0  0  0  0  0  0  0  0
   27.1528  -13.6866  -15.9874 C   0  0  0  0  0  0  0  0  0  0  0  0
   27.1095  -13.9021  -17.3502 C   0  0  0  0  0  0  0  0  0  0  0  0
   25.9742  -14.3948  -17.9585 C   0  0  0  0  0  0  0  0  0  0  0  0
   24.6328  -17.0814  -19.0408 C   0  0  0  0  0  0  0  0  0  0  0  0
   25.6855  -17.6816  -18.7099 O   0  0  0  0  0  0  0  0  0  0  0  0
   24.4590  -16.7673  -20.3776 O   0  0  0  0  0  0  0  0  0  0  0  0
  2  1  1  1
  3  2  1  0
  3  4  1  0
  5  4  1  0
  6  5  1  0
  7  6  1  0
  8  9  2  0
  8  2  1  0
 10  8  1  0
 11 10  1  0
 11 12  1  6
 13 17  1  0
 13 12  1  0
 14 13  2  0
 15 14  1  0
 15 16  1  0
 16 17  2  0
 18 11  1  0
 19 18  2  0
 20 18  1  0
 21 29  1  0
 21 20  1  0
 21 22  1  1
 22 23  1  0
 23 28  1  0
 24 23  2  0
 24 25  1  0
 25 26  2  0
 26 27  1  0
 28 27  2  0
 29 31  1  0
 30 29  2  0
M  END
$$$$
