KHF.pdb
     RDKit          3D

 31 32  0  0  1  0  0  0  0  0999 V2000
   27.6895  -23.2991  -15.5182 N   0  0  0  0  0  0  0  0  0  0  0  0
   28.8366  -22.6395  -14.9749 C   0  0  1  0  0  0  0  0  0  0  0  0
   29.6826  -22.0387  -16.0743 C   0  0  0  0  0  0  0  0  0  0  0  0
   29.3017  -22.5887  -17.4321 C   0  0  0  0  0  0  0  0  0  0  0  0
   30.4866  -23.1378  -18.1613 C   0  0  0  0  0  0  0  0  0  0  0  0
   30.1685  -23.6512  -19.5303 C   0  0  0  0  0  0  0  0  0  0  0  0
   31.3643  -24.0292  -20.2345 N   0  0  0  0  0  0  0  0  0  0  0  0
   28.4197  -21.6363  -13.9796 C   0  0  0  0  0  0  0  0  0  0  0  0
   29.2524  -20.7802  -13.5947 O   0  0  0  0  0  0  0  0  0  0  0  0
   27.1145  -21.5784  -13.4211 N   0  0  0  0  0  0  0  0  0  0  0  0
   26.7251  -20.5369  -12.4977 C   0  0  1  0  0  0  0  0  0  0  0  0
   25.5721  -19.7922  -13.1510 C   0  0  0  0  0  0  0  0  0  0  0  0
   26.1228  -18.8606  -14.1640 C   0  0  0  0  0  0  0  0  0  0  0  0
   27.0397  -17.8471  -14.0131 C   0  0  0  0  0  0  0  0  0  0  0  0
   27.2362  -17.2722  -15.2038 N   0  0  0  0  0  0  0  0  0  0  0  0
   26.4553  -17.9140  -16.0890 C   0  0  0  0  0  0  0  0  0  0  0  0
   25.7800  -18.8772  -15.4597 N   0  0  0  0  0  0  0  0  0  0  0  0
   26.3997  -21.0312  -11.1500 C   0  0  0  0  0  0  0  0  0  0  0  0
   25.9303  -22.1829  -10.9283 O   0  0  0  0  0  0  0  0  0  0  0  0
   26.6297  -20.1622  -10.0490 N   0  0  0  0  0  0  0  0  0  0  0  0
   26.1691  -20.4579   -8.7156 C   0  0  1  0  0  0  0  0  0  0  0  0
   26.4371  -19.3113   -7.7616 C   0  0  0  0  0  0  0  0  0  0  0  0
   27.4918  -19.6390   -6.7663 C   0  0  0  0  0  0  0  0  0  0  0  0
   27.1969  -20.4822   -5.7047 C   0  0  0  0  0  0  0  0  0  0  0  0
   28.1631  -20.7870   -4.7809 C   0  0  0  0  0  0  0  0  0  0  0  0
   29.4508  -20.2913   -4.8445 C   0  0  0  0  0  0  0  0  0  0  0  0
   29.7344  -19.4534   -5.9041 C   0  0  0  0  0  0  0  0  0  0  0  0
   28.7728  -19.1378   -6.8408 C   0  0  0  0  0  0  0  0  0  0  0  0
   24.7196  -20.7480   -8.6913 C   0  0  0  0  0  0  0  0  0  0  0  0
   23.9583  -20.2272   -9.5440 O   0  0  0  0  0  0  0  0  0  0  0  0
   24.1560  -21.5884   -7.7468 O   0  0  0  0  0  0  0  0  0  0  0  0
  2  1  1  6
  3  2  1  0
  3  4  1  0
  5  4  1  0
  6  5  1  0
  7  6  1  0
  8  9  2  0
  8  2  1  0
 10  8  1  0
 11 10  1  0
 11 12  1  6
 13 17  1  0
 13 12  1  0
 14 13  2  0
 15 14  1  0
 15 16  1  0
 16 17  2  0
 18 11  1  0
 19 18  2  0
 20 18  1  0
 21 29  1  0
 21 20  1  0
 21 22  1  1
 22 23  1  0
 23 28  1  0
 24 23  2  0
 24 25  1  0
 25 26  2  0
 26 27  1  0
 28 27  2  0
 29 31  1  0
 30 29  2  0
M  END
$$$$
