KHF.pdb
     RDKit          3D

 31 32  0  0  1  0  0  0  0  0999 V2000
   28.9376  -23.0910  -19.3390 N   0  0  0  0  0  0  0  0  0  0  0  0
   28.6429  -23.5290  -18.0096 C   0  0  1  0  0  0  0  0  0  0  0  0
   29.8944  -24.0115  -17.3123 C   0  0  0  0  0  0  0  0  0  0  0  0
   30.9681  -24.4025  -18.3051 C   0  0  0  0  0  0  0  0  0  0  0  0
   30.7003  -25.7423  -18.9139 C   0  0  0  0  0  0  0  0  0  0  0  0
   31.9289  -26.4354  -19.4128 C   0  0  0  0  0  0  0  0  0  0  0  0
   32.9956  -25.4992  -19.6456 N   0  0  0  0  0  0  0  0  0  0  0  0
   27.9652  -22.4557  -17.2615 C   0  0  0  0  0  0  0  0  0  0  0  0
   28.3336  -21.2688  -17.4347 O   0  0  0  0  0  0  0  0  0  0  0  0
   26.9057  -22.6856  -16.3432 N   0  0  0  0  0  0  0  0  0  0  0  0
   26.2683  -21.6041  -15.6270 C   0  0  1  0  0  0  0  0  0  0  0  0
   24.9217  -21.3803  -16.2957 C   0  0  0  0  0  0  0  0  0  0  0  0
   24.2333  -20.2596  -15.6120 C   0  0  0  0  0  0  0  0  0  0  0  0
   24.4259  -18.9045  -15.7432 C   0  0  0  0  0  0  0  0  0  0  0  0
   23.5760  -18.2743  -14.9263 N   0  0  0  0  0  0  0  0  0  0  0  0
   22.8606  -19.2181  -14.2917 C   0  0  0  0  0  0  0  0  0  0  0  0
   23.2583  -20.4220  -14.7066 N   0  0  0  0  0  0  0  0  0  0  0  0
   26.1586  -21.8367  -14.1777 C   0  0  0  0  0  0  0  0  0  0  0  0
   25.6416  -22.8760  -13.6792 O   0  0  0  0  0  0  0  0  0  0  0  0
   26.6634  -20.8364  -13.3030 N   0  0  0  0  0  0  0  0  0  0  0  0
   26.5798  -20.9439  -11.8681 C   0  0  1  0  0  0  0  0  0  0  0  0
   27.4490  -19.9133  -11.1760 C   0  0  0  0  0  0  0  0  0  0  0  0
   27.4184  -20.0505   -9.6960 C   0  0  0  0  0  0  0  0  0  0  0  0
   26.5606  -19.2555   -8.9496 C   0  0  0  0  0  0  0  0  0  0  0  0
   26.5285  -19.3738   -7.5840 C   0  0  0  0  0  0  0  0  0  0  0  0
   27.3215  -20.2627   -6.8849 C   0  0  0  0  0  0  0  0  0  0  0  0
   28.1715  -21.0491   -7.6362 C   0  0  0  0  0  0  0  0  0  0  0  0
   28.2148  -20.9412   -9.0104 C   0  0  0  0  0  0  0  0  0  0  0  0
   25.1918  -20.7726  -11.3886 C   0  0  0  0  0  0  0  0  0  0  0  0
   24.4454  -19.9097  -11.9142 O   0  0  0  0  0  0  0  0  0  0  0  0
   24.6707  -21.5413  -10.3622 O   0  0  0  0  0  0  0  0  0  0  0  0
  2  1  1  6
  3  2  1  0
  3  4  1  0
  5  4  1  0
  6  5  1  0
  7  6  1  0
  8  9  2  0
  8  2  1  0
 10  8  1  0
 11 10  1  0
 11 12  1  6
 13 17  1  0
 13 12  1  0
 14 13  2  0
 15 14  1  0
 15 16  1  0
 16 17  2  0
 18 11  1  0
 19 18  2  0
 20 18  1  0
 21 29  1  0
 21 20  1  0
 21 22  1  1
 22 23  1  0
 23 28  1  0
 24 23  2  0
 24 25  1  0
 25 26  2  0
 26 27  1  0
 28 27  2  0
 29 31  1  0
 30 29  2  0
M  END
$$$$
