YNW.pdb
     RDKit          3D

 35 37  0  0  1  0  0  0  0  0999 V2000
    8.3096  -11.5396   19.1905 O   0  0  0  0  0  0  0  0  0  0  0  0
    8.2609  -12.8821   19.5529 C   0  0  0  0  0  0  0  0  0  0  0  0
    7.1016  -13.6095   19.2542 C   0  0  0  0  0  0  0  0  0  0  0  0
    7.0178  -14.9426   19.5988 C   0  0  0  0  0  0  0  0  0  0  0  0
    8.0705  -15.5499   20.2326 C   0  0  0  0  0  0  0  0  0  0  0  0
    7.9824  -16.9748   20.6003 C   0  0  0  0  0  0  0  0  0  0  0  0
    7.1605  -17.1081   21.8878 C   0  0  2  0  0  0  0  0  0  0  0  0
    6.1135  -16.1404   21.9239 N   0  0  0  0  0  0  0  0  0  0  0  0
    8.0954  -16.9315   23.0538 C   0  0  0  0  0  0  0  0  0  0  0  0
    8.0673  -15.8738   23.7036 O   0  0  0  0  0  0  0  0  0  0  0  0
    9.2052  -14.8224   20.5206 C   0  0  0  0  0  0  0  0  0  0  0  0
    9.3152  -13.4857   20.1863 C   0  0  0  0  0  0  0  0  0  0  0  0
   13.1335  -17.0227   22.4674 N   0  0  0  0  0  0  0  0  0  0  0  0
   12.0111  -16.6412   21.6327 C   0  0  0  0  0  0  0  0  0  0  0  0
   12.3014  -16.0077   20.6275 O   0  0  0  0  0  0  0  0  0  0  0  0
   10.7141  -17.0386   22.0669 C   0  0  0  0  0  0  0  0  0  0  0  0
   10.4743  -17.7747   23.3244 C   0  0  2  0  0  0  0  0  0  0  0  0
    8.9892  -17.9756   23.3876 N   0  0  0  0  0  0  0  0  0  0  0  0
   10.9193  -17.1925   24.5867 C   0  0  0  0  0  0  0  0  0  0  0  0
   12.1174  -17.4501   25.0075 O   0  0  0  0  0  0  0  0  0  0  0  0
   10.1980  -16.3516   25.4393 N   0  0  0  0  0  0  0  0  0  0  0  0
   10.7026  -16.0142   26.7938 C   0  0  1  0  0  0  0  0  0  0  0  0
   10.1266  -14.6541   27.0522 C   0  0  0  0  0  0  0  0  0  0  0  0
    8.6784  -14.5947   26.8162 C   0  0  0  0  0  0  0  0  0  0  0  0
    7.8050  -15.6935   26.7089 C   0  0  0  0  0  0  0  0  0  0  0  0
    6.5631  -15.2565   26.4614 N   0  0  0  0  0  0  0  0  0  0  0  0
    6.5416  -13.9063   26.3942 C   0  0  0  0  0  0  0  0  0  0  0  0
    5.5054  -13.0212   26.1811 C   0  0  0  0  0  0  0  0  0  0  0  0
    5.7966  -11.6784   26.1914 C   0  0  0  0  0  0  0  0  0  0  0  0
    7.0928  -11.2609   26.4102 C   0  0  0  0  0  0  0  0  0  0  0  0
    8.1134  -12.1530   26.6197 C   0  0  0  0  0  0  0  0  0  0  0  0
    7.8559  -13.5054   26.6153 C   0  0  0  0  0  0  0  0  0  0  0  0
   10.2930  -17.0331   27.7627 C   0  0  0  0  0  0  0  0  0  0  0  0
    9.4474  -17.9164   27.3971 O   0  0  0  0  0  0  0  0  0  0  0  0
   10.7513  -17.1315   29.0588 O   0  0  0  0  0  0  0  0  0  0  0  0
  2  1  1  0
  3  2  2  0
  4  3  1  0
  5 11  1  0
  5  4  2  0
  6  5  1  0
  7  8  1  6
  7  6  1  0
  9  7  1  0
 10  9  2  0
 11 12  2  0
 12  2  1  0
 13 14  1  0
 14 15  2  0
 14 16  1  0
 17 16  1  6
 17 19  1  0
 17 18  1  0
 18  9  1  0
 19 21  1  0
 20 19  2  0
 21 22  1  0
 22 23  1  1
 22 33  1  0
 24 23  1  0
 25 24  2  0
 26 27  1  0
 26 25  1  0
 27 32  2  0
 28 27  1  0
 28 29  2  0
 29 30  1  0
 30 31  2  0
 32 24  1  0
 32 31  1  0
 33 34  2  0
 33 35  1  0
M  END
$$$$
