YNW.pdb
     RDKit          3D

 35 37  0  0  1  0  0  0  0  0999 V2000
    7.1115  -11.9898   17.1680 O   0  0  0  0  0  0  0  0  0  0  0  0
    7.4205  -12.8188   18.2420 C   0  0  0  0  0  0  0  0  0  0  0  0
    6.4609  -13.7492   18.6610 C   0  0  0  0  0  0  0  0  0  0  0  0
    6.7326  -14.5872   19.7226 C   0  0  0  0  0  0  0  0  0  0  0  0
    7.9416  -14.5053   20.3632 C   0  0  0  0  0  0  0  0  0  0  0  0
    8.2333  -15.4011   21.4971 C   0  0  0  0  0  0  0  0  0  0  0  0
    9.2423  -16.4640   21.0467 C   0  0  2  0  0  0  0  0  0  0  0  0
    8.6925  -17.2807   20.0148 N   0  0  0  0  0  0  0  0  0  0  0  0
    9.6094  -17.2920   22.2486 C   0  0  0  0  0  0  0  0  0  0  0  0
    9.3347  -18.5028   22.2623 O   0  0  0  0  0  0  0  0  0  0  0  0
    8.8767  -13.5851   19.9406 C   0  0  0  0  0  0  0  0  0  0  0  0
    8.6302  -12.7339   18.8797 C   0  0  0  0  0  0  0  0  0  0  0  0
   14.4883  -17.5604   23.7878 N   0  0  0  0  0  0  0  0  0  0  0  0
   13.1994  -17.3818   23.1484 C   0  0  0  0  0  0  0  0  0  0  0  0
   13.1893  -16.6025   22.2057 O   0  0  0  0  0  0  0  0  0  0  0  0
   12.1032  -18.1204   23.6788 C   0  0  0  0  0  0  0  0  0  0  0  0
   10.9693  -17.4883   24.3829 C   0  0  2  0  0  0  0  0  0  0  0  0
   10.2617  -16.6740   23.3408 N   0  0  0  0  0  0  0  0  0  0  0  0
   11.2337  -16.6369   25.5386 C   0  0  0  0  0  0  0  0  0  0  0  0
   12.4514  -16.5220   25.9665 O   0  0  0  0  0  0  0  0  0  0  0  0
   10.3108  -15.8899   26.2766 N   0  0  0  0  0  0  0  0  0  0  0  0
   10.0218  -16.2113   27.6965 C   0  0  1  0  0  0  0  0  0  0  0  0
    8.5689  -16.5819   27.6818 C   0  0  0  0  0  0  0  0  0  0  0  0
    7.7427  -15.6181   26.9437 C   0  0  0  0  0  0  0  0  0  0  0  0
    6.6010  -15.9144   26.1752 C   0  0  0  0  0  0  0  0  0  0  0  0
    6.1277  -14.7893   25.6234 N   0  0  0  0  0  0  0  0  0  0  0  0
    6.8914  -13.7313   25.9776 C   0  0  0  0  0  0  0  0  0  0  0  0
    6.7869  -12.3899   25.6738 C   0  0  0  0  0  0  0  0  0  0  0  0
    7.7189  -11.5359   26.2123 C   0  0  0  0  0  0  0  0  0  0  0  0
    8.7145  -12.0345   27.0264 C   0  0  0  0  0  0  0  0  0  0  0  0
    8.8062  -13.3714   27.3190 C   0  0  0  0  0  0  0  0  0  0  0  0
    7.8888  -14.2542   26.7954 C   0  0  0  0  0  0  0  0  0  0  0  0
   10.9077  -17.2760   28.1724 C   0  0  0  0  0  0  0  0  0  0  0  0
   11.4336  -17.1592   29.3294 O   0  0  0  0  0  0  0  0  0  0  0  0
   11.2276  -18.4197   27.4731 O   0  0  0  0  0  0  0  0  0  0  0  0
  2  1  1  0
  3  2  2  0
  4  3  1  0
  5 11  1  0
  5  4  2  0
  6  5  1  0
  7  8  1  6
  7  6  1  0
  9  7  1  0
 10  9  2  0
 11 12  2  0
 12  2  1  0
 13 14  1  0
 14 15  2  0
 14 16  1  0
 17 16  1  6
 17 19  1  0
 17 18  1  0
 18  9  1  0
 19 21  1  0
 20 19  2  0
 21 22  1  0
 22 23  1  6
 22 33  1  0
 24 23  1  0
 25 24  2  0
 26 27  1  0
 26 25  1  0
 27 32  2  0
 28 27  1  0
 28 29  2  0
 29 30  1  0
 30 31  2  0
 32 24  1  0
 32 31  1  0
 33 34  2  0
 33 35  1  0
M  END
$$$$
