YNW.pdb
     RDKit          3D

 35 37  0  0  1  0  0  0  0  0999 V2000
    0.8025  -19.4204   20.5404 O   0  0  0  0  0  0  0  0  0  0  0  0
    2.1027  -19.1584   20.9610 C   0  0  0  0  0  0  0  0  0  0  0  0
    2.9219  -18.3741   20.1389 C   0  0  0  0  0  0  0  0  0  0  0  0
    4.2166  -18.0942   20.5237 C   0  0  0  0  0  0  0  0  0  0  0  0
    4.6961  -18.5854   21.7101 C   0  0  0  0  0  0  0  0  0  0  0  0
    6.0793  -18.2859   22.1228 C   0  0  0  0  0  0  0  0  0  0  0  0
    7.0419  -18.7749   21.0342 C   0  0  2  0  0  0  0  0  0  0  0  0
    6.7990  -20.1446   20.7199 N   0  0  0  0  0  0  0  0  0  0  0  0
    8.4468  -18.5804   21.5377 C   0  0  0  0  0  0  0  0  0  0  0  0
    9.0339  -19.5259   22.0882 O   0  0  0  0  0  0  0  0  0  0  0  0
    3.8793  -19.3560   22.5094 C   0  0  0  0  0  0  0  0  0  0  0  0
    2.5783  -19.6513   22.1476 C   0  0  0  0  0  0  0  0  0  0  0  0
   11.6651  -17.1273   18.7422 N   0  0  0  0  0  0  0  0  0  0  0  0
   10.8894  -16.1036   19.4147 C   0  0  0  0  0  0  0  0  0  0  0  0
   10.2222  -15.3889   18.6798 O   0  0  0  0  0  0  0  0  0  0  0  0
   10.9873  -16.0421   20.8344 C   0  0  0  0  0  0  0  0  0  0  0  0
   10.5170  -17.1235   21.7234 C   0  0  2  0  0  0  0  0  0  0  0  0
    9.0722  -17.3225   21.3733 N   0  0  0  0  0  0  0  0  0  0  0  0
   10.6267  -16.9555   23.1692 C   0  0  0  0  0  0  0  0  0  0  0  0
   11.6046  -16.2514   23.6456 O   0  0  0  0  0  0  0  0  0  0  0  0
    9.7783  -17.4693   24.1543 N   0  0  0  0  0  0  0  0  0  0  0  0
   10.1006  -17.3282   25.5963 C   0  0  1  0  0  0  0  0  0  0  0  0
   10.1670  -15.8435   25.7955 C   0  0  0  0  0  0  0  0  0  0  0  0
    8.8402  -15.2234   25.9028 C   0  0  0  0  0  0  0  0  0  0  0  0
    7.6897  -15.8070   26.4661 C   0  0  0  0  0  0  0  0  0  0  0  0
    6.6585  -14.9587   26.3593 N   0  0  0  0  0  0  0  0  0  0  0  0
    7.0470  -13.8168   25.7485 C   0  0  0  0  0  0  0  0  0  0  0  0
    6.3509  -12.6669   25.4390 C   0  0  0  0  0  0  0  0  0  0  0  0
    7.0377  -11.6468   24.8262 C   0  0  0  0  0  0  0  0  0  0  0  0
    8.3791  -11.7983   24.5427 C   0  0  0  0  0  0  0  0  0  0  0  0
    9.0580  -12.9483   24.8557 C   0  0  0  0  0  0  0  0  0  0  0  0
    8.3995  -13.9898   25.4697 C   0  0  0  0  0  0  0  0  0  0  0  0
    9.0894  -17.9989   26.4163 C   0  0  0  0  0  0  0  0  0  0  0  0
    8.0008  -18.3668   25.8609 O   0  0  0  0  0  0  0  0  0  0  0  0
    9.2106  -18.2807   27.7599 O   0  0  0  0  0  0  0  0  0  0  0  0
  2  1  1  0
  3  2  2  0
  4  3  1  0
  5 11  1  0
  5  4  2  0
  6  5  1  0
  7  8  1  1
  7  6  1  0
  9  7  1  0
 10  9  2  0
 11 12  2  0
 12  2  1  0
 13 14  1  0
 14 15  2  0
 14 16  1  0
 17 16  1  6
 17 19  1  0
 17 18  1  0
 18  9  1  0
 19 21  1  0
 20 19  2  0
 21 22  1  0
 22 23  1  1
 22 33  1  0
 24 23  1  0
 25 24  2  0
 26 27  1  0
 26 25  1  0
 27 32  2  0
 28 27  1  0
 28 29  2  0
 29 30  1  0
 30 31  2  0
 32 24  1  0
 32 31  1  0
 33 34  2  0
 33 35  1  0
M  END
$$$$
