YNW.pdb
     RDKit          3D

 35 37  0  0  1  0  0  0  0  0999 V2000
    7.2341  -11.8954   17.2344 O   0  0  0  0  0  0  0  0  0  0  0  0
    7.5350  -12.6202   18.3834 C   0  0  0  0  0  0  0  0  0  0  0  0
    6.4941  -13.2919   19.0372 C   0  0  0  0  0  0  0  0  0  0  0  0
    6.7554  -14.0201   20.1792 C   0  0  0  0  0  0  0  0  0  0  0  0
    8.0339  -14.0831   20.6695 C   0  0  0  0  0  0  0  0  0  0  0  0
    8.3144  -14.8619   21.8893 C   0  0  0  0  0  0  0  0  0  0  0  0
    8.9504  -16.1993   21.4923 C   0  0  2  0  0  0  0  0  0  0  0  0
    8.0156  -17.0178   20.7921 N   0  0  0  0  0  0  0  0  0  0  0  0
    9.4225  -16.8784   22.7497 C   0  0  0  0  0  0  0  0  0  0  0  0
    8.5916  -17.4043   23.5078 O   0  0  0  0  0  0  0  0  0  0  0  0
    9.0487  -13.4172   20.0163 C   0  0  0  0  0  0  0  0  0  0  0  0
    8.8142  -12.6807   18.8703 C   0  0  0  0  0  0  0  0  0  0  0  0
   13.4841  -18.6633   21.7174 N   0  0  0  0  0  0  0  0  0  0  0  0
   12.7542  -19.0877   22.8961 C   0  0  0  0  0  0  0  0  0  0  0  0
   12.3315  -20.2349   22.8618 O   0  0  0  0  0  0  0  0  0  0  0  0
   12.6107  -18.1382   23.9481 C   0  0  0  0  0  0  0  0  0  0  0  0
   11.3174  -17.5243   24.3102 C   0  0  2  0  0  0  0  0  0  0  0  0
   10.8057  -16.9047   23.0437 N   0  0  0  0  0  0  0  0  0  0  0  0
   11.2770  -16.5202   25.3689 C   0  0  0  0  0  0  0  0  0  0  0  0
   12.1260  -15.5419   25.3371 O   0  0  0  0  0  0  0  0  0  0  0  0
   10.4032  -16.4646   26.4588 N   0  0  0  0  0  0  0  0  0  0  0  0
   10.8726  -16.0323   27.7989 C   0  0  1  0  0  0  0  0  0  0  0  0
   10.0004  -14.8531   28.1106 C   0  0  0  0  0  0  0  0  0  0  0  0
    8.7448  -14.8562   27.3491 C   0  0  0  0  0  0  0  0  0  0  0  0
    7.9311  -15.9746   27.0868 C   0  0  0  0  0  0  0  0  0  0  0  0
    6.8858  -15.6023   26.3364 N   0  0  0  0  0  0  0  0  0  0  0  0
    6.9423  -14.2779   26.0707 C   0  0  0  0  0  0  0  0  0  0  0  0
    6.0925  -13.4536   25.3629 C   0  0  0  0  0  0  0  0  0  0  0  0
    6.4106  -12.1192   25.2852 C   0  0  0  0  0  0  0  0  0  0  0  0
    7.5497  -11.6499   25.9054 C   0  0  0  0  0  0  0  0  0  0  0  0
    8.3860  -12.4819   26.6051 C   0  0  0  0  0  0  0  0  0  0  0  0
    8.0967  -13.8244   26.7021 C   0  0  0  0  0  0  0  0  0  0  0  0
   10.7619  -17.1312   28.7607 C   0  0  0  0  0  0  0  0  0  0  0  0
   11.2603  -16.9742   29.9251 O   0  0  0  0  0  0  0  0  0  0  0  0
   10.1505  -18.3428   28.5207 O   0  0  0  0  0  0  0  0  0  0  0  0
  2  1  1  0
  3  2  2  0
  4  3  1  0
  5 11  1  0
  5  4  2  0
  6  5  1  0
  7  8  1  1
  7  6  1  0
  9  7  1  0
 10  9  2  0
 11 12  2  0
 12  2  1  0
 13 14  1  0
 14 15  2  0
 14 16  1  0
 17 16  1  6
 17 19  1  0
 17 18  1  0
 18  9  1  0
 19 21  1  0
 20 19  2  0
 21 22  1  0
 22 23  1  1
 22 33  1  0
 24 23  1  0
 25 24  2  0
 26 27  1  0
 26 25  1  0
 27 32  2  0
 28 27  1  0
 28 29  2  0
 29 30  1  0
 30 31  2  0
 32 24  1  0
 32 31  1  0
 33 34  2  0
 33 35  1  0
M  END
$$$$
