YNW.pdb
     RDKit          3D

 35 37  0  0  1  0  0  0  0  0999 V2000
    8.2265  -11.4708   19.9562 O   0  0  0  0  0  0  0  0  0  0  0  0
    7.8554  -12.7094   20.4704 C   0  0  0  0  0  0  0  0  0  0  0  0
    7.5749  -13.7456   19.5706 C   0  0  0  0  0  0  0  0  0  0  0  0
    7.2036  -14.9868   20.0445 C   0  0  0  0  0  0  0  0  0  0  0  0
    7.1108  -15.2005   21.3953 C   0  0  0  0  0  0  0  0  0  0  0  0
    6.7152  -16.5268   21.9027 C   0  0  0  0  0  0  0  0  0  0  0  0
    7.6230  -17.5919   21.2764 C   0  0  2  0  0  0  0  0  0  0  0  0
    7.0052  -18.8765   21.3234 N   0  0  0  0  0  0  0  0  0  0  0  0
    8.9240  -17.5938   22.0328 C   0  0  0  0  0  0  0  0  0  0  0  0
    9.1423  -18.4852   22.8691 O   0  0  0  0  0  0  0  0  0  0  0  0
    7.3895  -14.1720   22.2695 C   0  0  0  0  0  0  0  0  0  0  0  0
    7.7637  -12.9190   21.8213 C   0  0  0  0  0  0  0  0  0  0  0  0
   11.7655  -14.3218   19.6629 N   0  0  0  0  0  0  0  0  0  0  0  0
   12.0007  -15.6173   20.2697 C   0  0  0  0  0  0  0  0  0  0  0  0
   12.1278  -16.5454   19.4832 O   0  0  0  0  0  0  0  0  0  0  0  0
   12.0567  -15.6679   21.6921 C   0  0  0  0  0  0  0  0  0  0  0  0
   11.1856  -16.5417   22.5035 C   0  0  2  0  0  0  0  0  0  0  0  0
    9.8747  -16.5785   21.7756 N   0  0  0  0  0  0  0  0  0  0  0  0
   10.9333  -16.1978   23.8995 C   0  0  0  0  0  0  0  0  0  0  0  0
   11.8083  -15.4861   24.5373 O   0  0  0  0  0  0  0  0  0  0  0  0
    9.8227  -16.5426   24.6754 N   0  0  0  0  0  0  0  0  0  0  0  0
    9.8464  -16.4087   26.1535 C   0  0  1  0  0  0  0  0  0  0  0  0
    8.3980  -16.4849   26.5342 C   0  0  0  0  0  0  0  0  0  0  0  0
    7.5884  -15.4320   25.9079 C   0  0  0  0  0  0  0  0  0  0  0  0
    6.5423  -15.6219   24.9852 C   0  0  0  0  0  0  0  0  0  0  0  0
    6.0566  -14.4322   24.6070 N   0  0  0  0  0  0  0  0  0  0  0  0
    6.7204  -13.4314   25.2281 C   0  0  0  0  0  0  0  0  0  0  0  0
    6.5656  -12.0620   25.1702 C   0  0  0  0  0  0  0  0  0  0  0  0
    7.3917  -11.2896   25.9505 C   0  0  0  0  0  0  0  0  0  0  0  0
    8.3353  -11.8940   26.7549 C   0  0  0  0  0  0  0  0  0  0  0  0
    8.4782  -13.2573   26.8014 C   0  0  0  0  0  0  0  0  0  0  0  0
    7.6669  -14.0602   26.0317 C   0  0  0  0  0  0  0  0  0  0  0  0
   10.6794  -17.4550   26.7504 C   0  0  0  0  0  0  0  0  0  0  0  0
   11.1025  -18.3980   26.0016 O   0  0  0  0  0  0  0  0  0  0  0  0
   11.0615  -17.5127   28.0733 O   0  0  0  0  0  0  0  0  0  0  0  0
  2  1  1  0
  3  2  2  0
  4  3  1  0
  5 11  1  0
  5  4  2  0
  6  5  1  0
  7  8  1  1
  7  6  1  0
  9  7  1  0
 10  9  2  0
 11 12  2  0
 12  2  1  0
 13 14  1  0
 14 15  2  0
 14 16  1  0
 17 16  1  6
 17 19  1  0
 17 18  1  0
 18  9  1  0
 19 21  1  0
 20 19  2  0
 21 22  1  0
 22 23  1  1
 22 33  1  0
 24 23  1  0
 25 24  2  0
 26 27  1  0
 26 25  1  0
 27 32  2  0
 28 27  1  0
 28 29  2  0
 29 30  1  0
 30 31  2  0
 32 24  1  0
 32 31  1  0
 33 34  2  0
 33 35  1  0
M  END
$$$$
