YNW.pdb
     RDKit          3D

 35 37  0  0  1  0  0  0  0  0999 V2000
   17.2952  -21.4732   19.3155 O   0  0  0  0  0  0  0  0  0  0  0  0
   16.3416  -20.5982   19.8266 C   0  0  0  0  0  0  0  0  0  0  0  0
   16.3967  -19.2539   19.4371 C   0  0  0  0  0  0  0  0  0  0  0  0
   15.4677  -18.3578   19.9241 C   0  0  0  0  0  0  0  0  0  0  0  0
   14.4941  -18.7877   20.7878 C   0  0  0  0  0  0  0  0  0  0  0  0
   13.5002  -17.8312   21.3079 C   0  0  0  0  0  0  0  0  0  0  0  0
   12.2106  -17.9563   20.4882 C   0  0  2  0  0  0  0  0  0  0  0  0
   12.3511  -17.3183   19.2205 N   0  0  0  0  0  0  0  0  0  0  0  0
   11.0951  -17.3322   21.2827 C   0  0  0  0  0  0  0  0  0  0  0  0
   10.8745  -16.1153   21.1727 O   0  0  0  0  0  0  0  0  0  0  0  0
   14.4516  -20.1134   21.1629 C   0  0  0  0  0  0  0  0  0  0  0  0
   15.3700  -21.0318   20.6897 C   0  0  0  0  0  0  0  0  0  0  0  0
    6.4141  -17.2167   23.7875 N   0  0  0  0  0  0  0  0  0  0  0  0
    6.8350  -18.5525   23.4129 C   0  0  0  0  0  0  0  0  0  0  0  0
    5.9700  -19.4133   23.4953 O   0  0  0  0  0  0  0  0  0  0  0  0
    8.1876  -18.7148   22.9971 C   0  0  0  0  0  0  0  0  0  0  0  0
    9.1351  -17.5886   22.8751 C   0  0  2  0  0  0  0  0  0  0  0  0
   10.3183  -18.1455   22.1404 N   0  0  0  0  0  0  0  0  0  0  0  0
    9.6093  -16.9224   24.0841 C   0  0  0  0  0  0  0  0  0  0  0  0
   10.4568  -15.9487   23.9715 O   0  0  0  0  0  0  0  0  0  0  0  0
    9.2529  -17.2008   25.4069 N   0  0  0  0  0  0  0  0  0  0  0  0
    9.8965  -16.4927   26.5416 C   0  0  1  0  0  0  0  0  0  0  0  0
    8.7528  -16.2059   27.4680 C   0  0  0  0  0  0  0  0  0  0  0  0
    7.6981  -15.4011   26.8385 C   0  0  0  0  0  0  0  0  0  0  0  0
    6.4923  -15.8839   26.2956 C   0  0  0  0  0  0  0  0  0  0  0  0
    5.7928  -14.8645   25.7802 N   0  0  0  0  0  0  0  0  0  0  0  0
    6.4619  -13.7011   25.9442 C   0  0  0  0  0  0  0  0  0  0  0  0
    6.1363  -12.4063   25.5980 C   0  0  0  0  0  0  0  0  0  0  0  0
    7.0269  -11.4120   25.9240 C   0  0  0  0  0  0  0  0  0  0  0  0
    8.1999  -11.7306   26.5760 C   0  0  0  0  0  0  0  0  0  0  0  0
    8.5106  -13.0233   26.9131 C   0  0  0  0  0  0  0  0  0  0  0  0
    7.6404  -14.0434   26.6007 C   0  0  0  0  0  0  0  0  0  0  0  0
   10.9524  -17.3195   27.1302 C   0  0  0  0  0  0  0  0  0  0  0  0
   11.0560  -18.5345   26.7533 O   0  0  0  0  0  0  0  0  0  0  0  0
   11.8677  -16.8953   28.0691 O   0  0  0  0  0  0  0  0  0  0  0  0
  2  1  1  0
  3  2  2  0
  4  3  1  0
  5 11  1  0
  5  4  2  0
  6  5  1  0
  7  8  1  6
  7  6  1  0
  9  7  1  0
 10  9  2  0
 11 12  2  0
 12  2  1  0
 13 14  1  0
 14 15  2  0
 14 16  1  0
 17 16  1  1
 17 19  1  0
 17 18  1  0
 18  9  1  0
 19 21  1  0
 20 19  2  0
 21 22  1  0
 22 23  1  1
 22 33  1  0
 24 23  1  0
 25 24  2  0
 26 27  1  0
 26 25  1  0
 27 32  2  0
 28 27  1  0
 28 29  2  0
 29 30  1  0
 30 31  2  0
 32 24  1  0
 32 31  1  0
 33 34  2  0
 33 35  1  0
M  END
$$$$
