YNW.pdb
     RDKit          3D

 35 37  0  0  1  0  0  0  0  0999 V2000
    5.1306  -24.4042   26.3855 O   0  0  0  0  0  0  0  0  0  0  0  0
    5.6984  -23.5607   25.4357 C   0  0  0  0  0  0  0  0  0  0  0  0
    4.8486  -22.9096   24.5323 C   0  0  0  0  0  0  0  0  0  0  0  0
    5.3764  -22.0661   23.5769 C   0  0  0  0  0  0  0  0  0  0  0  0
    6.7315  -21.8689   23.5159 C   0  0  0  0  0  0  0  0  0  0  0  0
    7.2964  -20.9668   22.4959 C   0  0  0  0  0  0  0  0  0  0  0  0
    7.7855  -19.6845   23.1795 C   0  0  2  0  0  0  0  0  0  0  0  0
    6.7368  -19.0795   23.9331 N   0  0  0  0  0  0  0  0  0  0  0  0
    8.2850  -18.7515   22.1094 C   0  0  0  0  0  0  0  0  0  0  0  0
    9.0635  -19.1792   21.2418 O   0  0  0  0  0  0  0  0  0  0  0  0
    7.5561  -22.5160   24.4109 C   0  0  0  0  0  0  0  0  0  0  0  0
    7.0534  -23.3661   25.3779 C   0  0  0  0  0  0  0  0  0  0  0  0
    5.5950  -14.9241   20.8636 N   0  0  0  0  0  0  0  0  0  0  0  0
    6.8125  -15.5654   20.4069 C   0  0  0  0  0  0  0  0  0  0  0  0
    6.6797  -16.3105   19.4460 O   0  0  0  0  0  0  0  0  0  0  0  0
    8.0108  -15.2636   21.1152 C   0  0  0  0  0  0  0  0  0  0  0  0
    8.8128  -16.2859   21.8169 C   0  0  2  0  0  0  0  0  0  0  0  0
    7.8570  -17.4034   22.1128 N   0  0  0  0  0  0  0  0  0  0  0  0
    9.5040  -15.9257   23.0510 C   0  0  0  0  0  0  0  0  0  0  0  0
   10.4268  -15.0171   23.0099 O   0  0  0  0  0  0  0  0  0  0  0  0
    9.2921  -16.4473   24.3306 N   0  0  0  0  0  0  0  0  0  0  0  0
   10.1683  -16.0720   25.4684 C   0  0  1  0  0  0  0  0  0  0  0  0
    9.2190  -15.9835   26.6258 C   0  0  0  0  0  0  0  0  0  0  0  0
    8.0056  -15.2191   26.3099 C   0  0  0  0  0  0  0  0  0  0  0  0
    6.7643  -15.7511   25.9127 C   0  0  0  0  0  0  0  0  0  0  0  0
    5.9023  -14.7525   25.6799 N   0  0  0  0  0  0  0  0  0  0  0  0
    6.4936  -13.5567   25.8995 C   0  0  0  0  0  0  0  0  0  0  0  0
    6.0066  -12.2694   25.8094 C   0  0  0  0  0  0  0  0  0  0  0  0
    6.8581  -11.2380   26.1243 C   0  0  0  0  0  0  0  0  0  0  0  0
    8.1521  -11.5137   26.5143 C   0  0  0  0  0  0  0  0  0  0  0  0
    8.6228  -12.7992   26.5984 C   0  0  0  0  0  0  0  0  0  0  0  0
    7.7957  -13.8556   26.2895 C   0  0  0  0  0  0  0  0  0  0  0  0
   11.2355  -17.0598   25.6421 C   0  0  0  0  0  0  0  0  0  0  0  0
   11.1528  -18.1638   25.0071 O   0  0  0  0  0  0  0  0  0  0  0  0
   12.3475  -16.9008   26.4405 O   0  0  0  0  0  0  0  0  0  0  0  0
  2  1  1  0
  3  2  2  0
  4  3  1  0
  5 11  1  0
  5  4  2  0
  6  5  1  0
  7  8  1  6
  7  6  1  0
  9  7  1  0
 10  9  2  0
 11 12  2  0
 12  2  1  0
 13 14  1  0
 14 15  2  0
 14 16  1  0
 17 16  1  1
 17 19  1  0
 17 18  1  0
 18  9  1  0
 19 21  1  0
 20 19  2  0
 21 22  1  0
 22 23  1  1
 22 33  1  0
 24 23  1  0
 25 24  2  0
 26 27  1  0
 26 25  1  0
 27 32  2  0
 28 27  1  0
 28 29  2  0
 29 30  1  0
 30 31  2  0
 32 24  1  0
 32 31  1  0
 33 34  2  0
 33 35  1  0
M  END
$$$$
