YNW.pdb
     RDKit          3D

 35 37  0  0  1  0  0  0  0  0999 V2000
    8.8218  -11.6279   17.8509 O   0  0  0  0  0  0  0  0  0  0  0  0
    8.4264  -12.5552   18.8101 C   0  0  0  0  0  0  0  0  0  0  0  0
    8.0554  -12.0846   20.0762 C   0  0  0  0  0  0  0  0  0  0  0  0
    7.6581  -12.9751   21.0520 C   0  0  0  0  0  0  0  0  0  0  0  0
    7.6282  -14.3177   20.7777 C   0  0  0  0  0  0  0  0  0  0  0  0
    7.2028  -15.2701   21.8195 C   0  0  0  0  0  0  0  0  0  0  0  0
    7.3106  -16.6959   21.2663 C   0  0  2  0  0  0  0  0  0  0  0  0
    6.1062  -17.0755   20.6034 N   0  0  0  0  0  0  0  0  0  0  0  0
    7.6026  -17.6184   22.4190 C   0  0  0  0  0  0  0  0  0  0  0  0
    6.6607  -18.0978   23.0707 O   0  0  0  0  0  0  0  0  0  0  0  0
    7.9960  -14.7671   19.5277 C   0  0  0  0  0  0  0  0  0  0  0  0
    8.3978  -13.8964   18.5321 C   0  0  0  0  0  0  0  0  0  0  0  0
    8.5781  -21.7839   23.3278 N   0  0  0  0  0  0  0  0  0  0  0  0
    9.6237  -21.0632   22.6283 C   0  0  0  0  0  0  0  0  0  0  0  0
    9.9558  -21.5415   21.5527 O   0  0  0  0  0  0  0  0  0  0  0  0
   10.1422  -19.8963   23.2593 C   0  0  0  0  0  0  0  0  0  0  0  0
    9.2846  -18.8561   23.8620 C   0  0  2  0  0  0  0  0  0  0  0  0
    8.9467  -17.9223   22.7379 N   0  0  0  0  0  0  0  0  0  0  0  0
    9.7965  -18.0711   24.9811 C   0  0  0  0  0  0  0  0  0  0  0  0
   10.0650  -18.6723   26.0971 O   0  0  0  0  0  0  0  0  0  0  0  0
   10.0539  -16.6974   25.0122 N   0  0  0  0  0  0  0  0  0  0  0  0
   10.4646  -16.0205   26.2678 C   0  0  1  0  0  0  0  0  0  0  0  0
    9.2751  -16.1953   27.1638 C   0  0  0  0  0  0  0  0  0  0  0  0
    8.0844  -15.4889   26.6741 C   0  0  0  0  0  0  0  0  0  0  0  0
    6.8671  -16.0778   26.2828 C   0  0  0  0  0  0  0  0  0  0  0  0
    6.0231  -15.1260   25.8632 N   0  0  0  0  0  0  0  0  0  0  0  0
    6.6038  -13.9080   25.9485 C   0  0  0  0  0  0  0  0  0  0  0  0
    6.1265  -12.6484   25.6518 C   0  0  0  0  0  0  0  0  0  0  0  0
    6.9608  -11.5787   25.8694 C   0  0  0  0  0  0  0  0  0  0  0  0
    8.2289  -11.7903   26.3691 C   0  0  0  0  0  0  0  0  0  0  0  0
    8.6902  -13.0491   26.6588 C   0  0  0  0  0  0  0  0  0  0  0  0
    7.8799  -14.1427   26.4519 C   0  0  0  0  0  0  0  0  0  0  0  0
   11.6998  -16.6104   26.7886 C   0  0  0  0  0  0  0  0  0  0  0  0
   12.1980  -16.1320   27.8618 O   0  0  0  0  0  0  0  0  0  0  0  0
   12.3847  -17.6611   26.2173 O   0  0  0  0  0  0  0  0  0  0  0  0
  2  1  1  0
  3  2  2  0
  4  3  1  0
  5 11  1  0
  5  4  2  0
  6  5  1  0
  7  8  1  1
  7  6  1  0
  9  7  1  0
 10  9  2  0
 11 12  2  0
 12  2  1  0
 13 14  1  0
 14 15  2  0
 14 16  1  0
 17 16  1  6
 17 19  1  0
 17 18  1  0
 18  9  1  0
 19 21  1  0
 20 19  2  0
 21 22  1  0
 22 23  1  1
 22 33  1  0
 24 23  1  0
 25 24  2  0
 26 27  1  0
 26 25  1  0
 27 32  2  0
 28 27  1  0
 28 29  2  0
 29 30  1  0
 30 31  2  0
 32 24  1  0
 32 31  1  0
 33 34  2  0
 33 35  1  0
M  END
$$$$
