YNW.pdb
     RDKit          3D

 35 37  0  0  1  0  0  0  0  0999 V2000
    8.9821  -12.7917   16.7325 O   0  0  0  0  0  0  0  0  0  0  0  0
    8.4943  -13.2338   17.9583 C   0  0  0  0  0  0  0  0  0  0  0  0
    7.1074  -13.3455   18.1206 C   0  0  0  0  0  0  0  0  0  0  0  0
    6.5880  -13.7804   19.3223 C   0  0  0  0  0  0  0  0  0  0  0  0
    7.4325  -14.1014   20.3531 C   0  0  0  0  0  0  0  0  0  0  0  0
    6.8785  -14.5673   21.6373 C   0  0  0  0  0  0  0  0  0  0  0  0
    6.7890  -16.0977   21.6165 C   0  0  2  0  0  0  0  0  0  0  0  0
    5.5136  -16.5250   21.1423 N   0  0  0  0  0  0  0  0  0  0  0  0
    7.0357  -16.5946   23.0155 C   0  0  0  0  0  0  0  0  0  0  0  0
    6.3075  -16.1999   23.9405 O   0  0  0  0  0  0  0  0  0  0  0  0
    8.7951  -13.9868   20.1799 C   0  0  0  0  0  0  0  0  0  0  0  0
    9.3416  -13.5538   18.9863 C   0  0  0  0  0  0  0  0  0  0  0  0
    5.8649  -19.7493   25.2001 N   0  0  0  0  0  0  0  0  0  0  0  0
    6.9634  -20.0745   24.3115 C   0  0  0  0  0  0  0  0  0  0  0  0
    6.6913  -20.8578   23.4123 O   0  0  0  0  0  0  0  0  0  0  0  0
    8.2191  -19.4574   24.5780 C   0  0  0  0  0  0  0  0  0  0  0  0
    8.4031  -17.9932   24.6334 C   0  0  2  0  0  0  0  0  0  0  0  0
    8.0939  -17.5034   23.2498 N   0  0  0  0  0  0  0  0  0  0  0  0
    9.6965  -17.4526   25.0402 C   0  0  0  0  0  0  0  0  0  0  0  0
   10.7410  -17.7192   24.3213 O   0  0  0  0  0  0  0  0  0  0  0  0
    9.9732  -16.6448   26.1471 N   0  0  0  0  0  0  0  0  0  0  0  0
   11.3669  -16.2763   26.5005 C   0  0  1  0  0  0  0  0  0  0  0  0
   11.3101  -14.7840   26.6352 C   0  0  0  0  0  0  0  0  0  0  0  0
   10.1183  -14.3224   27.3584 C   0  0  0  0  0  0  0  0  0  0  0  0
    9.9274  -14.3463   28.7530 C   0  0  0  0  0  0  0  0  0  0  0  0
    8.7082  -13.8757   29.0467 N   0  0  0  0  0  0  0  0  0  0  0  0
    8.0509  -13.5280   27.9176 C   0  0  0  0  0  0  0  0  0  0  0  0
    6.7964  -12.9886   27.7231 C   0  0  0  0  0  0  0  0  0  0  0  0
    6.4081  -12.7165   26.4335 C   0  0  0  0  0  0  0  0  0  0  0  0
    7.2676  -12.9856   25.3887 C   0  0  0  0  0  0  0  0  0  0  0  0
    8.5121  -13.5230   25.5975 C   0  0  0  0  0  0  0  0  0  0  0  0
    8.9320  -13.8080   26.8773 C   0  0  0  0  0  0  0  0  0  0  0  0
   11.7891  -16.9729   27.7177 C   0  0  0  0  0  0  0  0  0  0  0  0
   13.0082  -16.8767   28.0828 O   0  0  0  0  0  0  0  0  0  0  0  0
   10.9719  -17.7337   28.5256 O   0  0  0  0  0  0  0  0  0  0  0  0
  2  1  1  0
  3  2  2  0
  4  3  1  0
  5 11  1  0
  5  4  2  0
  6  5  1  0
  7  8  1  1
  7  6  1  0
  9  7  1  0
 10  9  2  0
 11 12  2  0
 12  2  1  0
 13 14  1  0
 14 15  2  0
 14 16  1  0
 17 16  1  6
 17 19  1  0
 17 18  1  0
 18  9  1  0
 19 21  1  0
 20 19  2  0
 21 22  1  0
 22 23  1  1
 22 33  1  0
 24 23  1  0
 25 24  2  0
 26 27  1  0
 26 25  1  0
 27 32  2  0
 28 27  1  0
 28 29  2  0
 29 30  1  0
 30 31  2  0
 32 24  1  0
 32 31  1  0
 33 34  2  0
 33 35  1  0
M  END
$$$$
