YNW.pdb
     RDKit          3D

 35 37  0  0  1  0  0  0  0  0999 V2000
    7.5677  -11.7323   16.8218 O   0  0  0  0  0  0  0  0  0  0  0  0
    7.6699  -12.5340   17.9544 C   0  0  0  0  0  0  0  0  0  0  0  0
    8.9481  -12.8855   18.4068 C   0  0  0  0  0  0  0  0  0  0  0  0
    9.0877  -13.6793   19.5264 C   0  0  0  0  0  0  0  0  0  0  0  0
    7.9736  -14.1209   20.1916 C   0  0  0  0  0  0  0  0  0  0  0  0
    8.1217  -14.9684   21.3887 C   0  0  0  0  0  0  0  0  0  0  0  0
    8.2142  -16.4356   20.9534 C   0  0  2  0  0  0  0  0  0  0  0  0
    6.9310  -16.9374   20.5851 N   0  0  0  0  0  0  0  0  0  0  0  0
    8.7900  -17.2228   22.0995 C   0  0  0  0  0  0  0  0  0  0  0  0
    8.0289  -17.6890   22.9628 O   0  0  0  0  0  0  0  0  0  0  0  0
    6.7218  -13.7677   19.7355 C   0  0  0  0  0  0  0  0  0  0  0  0
    6.5539  -12.9735   18.6167 C   0  0  0  0  0  0  0  0  0  0  0  0
   12.7566  -19.1705   20.4831 N   0  0  0  0  0  0  0  0  0  0  0  0
   12.0480  -19.6209   21.6651 C   0  0  0  0  0  0  0  0  0  0  0  0
   11.5199  -20.7199   21.5685 O   0  0  0  0  0  0  0  0  0  0  0  0
   12.0434  -18.7490   22.7914 C   0  0  0  0  0  0  0  0  0  0  0  0
   10.8140  -18.1340   23.3309 C   0  0  2  0  0  0  0  0  0  0  0  0
   10.1891  -17.4169   22.1711 N   0  0  0  0  0  0  0  0  0  0  0  0
   10.9150  -17.2054   24.4526 C   0  0  0  0  0  0  0  0  0  0  0  0
   11.5805  -16.1046   24.2966 O   0  0  0  0  0  0  0  0  0  0  0  0
   10.3611  -17.3458   25.7284 N   0  0  0  0  0  0  0  0  0  0  0  0
   10.6972  -16.3985   26.8207 C   0  0  1  0  0  0  0  0  0  0  0  0
   10.2004  -15.0809   26.3053 C   0  0  0  0  0  0  0  0  0  0  0  0
    8.7359  -14.9754   26.3297 C   0  0  0  0  0  0  0  0  0  0  0  0
    7.8219  -16.0458   26.3059 C   0  0  0  0  0  0  0  0  0  0  0  0
    6.5708  -15.5672   26.3073 N   0  0  0  0  0  0  0  0  0  0  0  0
    6.5817  -14.2155   26.3318 C   0  0  0  0  0  0  0  0  0  0  0  0
    5.5535  -13.2965   26.3601 C   0  0  0  0  0  0  0  0  0  0  0  0
    5.8854  -11.9640   26.4058 C   0  0  0  0  0  0  0  0  0  0  0  0
    7.2128  -11.5894   26.4217 C   0  0  0  0  0  0  0  0  0  0  0  0
    8.2248  -12.5148   26.3923 C   0  0  0  0  0  0  0  0  0  0  0  0
    7.9268  -13.8581   26.3458 C   0  0  0  0  0  0  0  0  0  0  0  0
   10.0770  -16.8234   28.0776 C   0  0  0  0  0  0  0  0  0  0  0  0
    9.2874  -17.8260   28.0588 O   0  0  0  0  0  0  0  0  0  0  0  0
   10.2768  -16.2312   29.3059 O   0  0  0  0  0  0  0  0  0  0  0  0
  2  1  1  0
  3  2  2  0
  4  3  1  0
  5 11  1  0
  5  4  2  0
  6  5  1  0
  7  8  1  1
  7  6  1  0
  9  7  1  0
 10  9  2  0
 11 12  2  0
 12  2  1  0
 13 14  1  0
 14 15  2  0
 14 16  1  0
 17 16  1  6
 17 19  1  0
 17 18  1  0
 18  9  1  0
 19 21  1  0
 20 19  2  0
 21 22  1  0
 22 23  1  6
 22 33  1  0
 24 23  1  0
 25 24  2  0
 26 27  1  0
 26 25  1  0
 27 32  2  0
 28 27  1  0
 28 29  2  0
 29 30  1  0
 30 31  2  0
 32 24  1  0
 32 31  1  0
 33 34  2  0
 33 35  1  0
M  END
$$$$
