YNW.pdb
     RDKit          3D

 35 37  0  0  1  0  0  0  0  0999 V2000
    8.4892  -12.0096   19.6715 O   0  0  0  0  0  0  0  0  0  0  0  0
    8.1497  -12.9105   20.6761 C   0  0  0  0  0  0  0  0  0  0  0  0
    6.9515  -13.6252   20.5508 C   0  0  0  0  0  0  0  0  0  0  0  0
    6.5826  -14.5266   21.5277 C   0  0  0  0  0  0  0  0  0  0  0  0
    7.3913  -14.7190   22.6176 C   0  0  0  0  0  0  0  0  0  0  0  0
    6.9985  -15.6829   23.6615 C   0  0  0  0  0  0  0  0  0  0  0  0
    7.3785  -17.0962   23.2043 C   0  0  2  0  0  0  0  0  0  0  0  0
    6.3783  -18.0388   23.5853 N   0  0  0  0  0  0  0  0  0  0  0  0
    8.7057  -17.4417   23.8239 C   0  0  0  0  0  0  0  0  0  0  0  0
    8.7798  -18.3956   24.6153 O   0  0  0  0  0  0  0  0  0  0  0  0
    8.5675  -14.0090   22.7283 C   0  0  0  0  0  0  0  0  0  0  0  0
    8.9606  -13.1000   21.7640 C   0  0  0  0  0  0  0  0  0  0  0  0
   13.9588  -18.2150   22.3661 N   0  0  0  0  0  0  0  0  0  0  0  0
   13.4964  -16.8844   22.7092 C   0  0  0  0  0  0  0  0  0  0  0  0
   14.3791  -16.0699   22.9407 O   0  0  0  0  0  0  0  0  0  0  0  0
   12.0880  -16.6738   22.7395 C   0  0  0  0  0  0  0  0  0  0  0  0
   11.2259  -17.1394   23.8443 C   0  0  2  0  0  0  0  0  0  0  0  0
    9.8450  -16.6719   23.4919 N   0  0  0  0  0  0  0  0  0  0  0  0
   11.5262  -16.7170   25.2089 C   0  0  0  0  0  0  0  0  0  0  0  0
   12.6749  -17.0269   25.7222 O   0  0  0  0  0  0  0  0  0  0  0  0
   10.7082  -15.9850   26.0746 N   0  0  0  0  0  0  0  0  0  0  0  0
   11.1708  -15.6072   27.4334 C   0  0  1  0  0  0  0  0  0  0  0  0
   10.3095  -14.4298   27.7806 C   0  0  0  0  0  0  0  0  0  0  0  0
    8.9598  -14.5234   27.2096 C   0  0  0  0  0  0  0  0  0  0  0  0
    8.1598  -15.6799   27.1450 C   0  0  0  0  0  0  0  0  0  0  0  0
    7.0056  -15.3927   26.5287 N   0  0  0  0  0  0  0  0  0  0  0  0
    6.9742  -14.0905   26.1666 C   0  0  0  0  0  0  0  0  0  0  0  0
    6.0025  -13.3442   25.5330 C   0  0  0  0  0  0  0  0  0  0  0  0
    6.2561  -12.0110   25.3182 C   0  0  0  0  0  0  0  0  0  0  0  0
    7.4531  -11.4663   25.7342 C   0  0  0  0  0  0  0  0  0  0  0  0
    8.4105  -12.2212   26.3623 C   0  0  0  0  0  0  0  0  0  0  0  0
    8.1885  -13.5603   26.5925 C   0  0  0  0  0  0  0  0  0  0  0  0
   11.0392  -16.7388   28.3536 C   0  0  0  0  0  0  0  0  0  0  0  0
   10.4196  -17.7804   27.9535 O   0  0  0  0  0  0  0  0  0  0  0  0
   11.5389  -16.7856   29.6372 O   0  0  0  0  0  0  0  0  0  0  0  0
  2  1  1  0
  3  2  2  0
  4  3  1  0
  5 11  1  0
  5  4  2  0
  6  5  1  0
  7  8  1  1
  7  6  1  0
  9  7  1  0
 10  9  2  0
 11 12  2  0
 12  2  1  0
 13 14  1  0
 14 15  2  0
 14 16  1  0
 17 16  1  6
 17 19  1  0
 17 18  1  0
 18  9  1  0
 19 21  1  0
 20 19  2  0
 21 22  1  0
 22 23  1  1
 22 33  1  0
 24 23  1  0
 25 24  2  0
 26 27  1  0
 26 25  1  0
 27 32  2  0
 28 27  1  0
 28 29  2  0
 29 30  1  0
 30 31  2  0
 32 24  1  0
 32 31  1  0
 33 34  2  0
 33 35  1  0
M  END
$$$$
