YNW.pdb
     RDKit          3D

 35 37  0  0  1  0  0  0  0  0999 V2000
    7.1879  -11.8179   16.8604 O   0  0  0  0  0  0  0  0  0  0  0  0
    7.5857  -12.5986   17.9414 C   0  0  0  0  0  0  0  0  0  0  0  0
    6.6004  -13.2797   18.6676 C   0  0  0  0  0  0  0  0  0  0  0  0
    6.9580  -14.0627   19.7456 C   0  0  0  0  0  0  0  0  0  0  0  0
    8.2774  -14.1706   20.1013 C   0  0  0  0  0  0  0  0  0  0  0  0
    8.6607  -15.0080   21.2524 C   0  0  0  0  0  0  0  0  0  0  0  0
    9.1756  -16.3576   20.7384 C   0  0  2  0  0  0  0  0  0  0  0  0
    8.1392  -17.0756   20.0718 N   0  0  0  0  0  0  0  0  0  0  0  0
    9.6940  -17.1348   21.9183 C   0  0  0  0  0  0  0  0  0  0  0  0
    8.9054  -17.8136   22.5959 O   0  0  0  0  0  0  0  0  0  0  0  0
    9.2366  -13.4949   19.3781 C   0  0  0  0  0  0  0  0  0  0  0  0
    8.9054  -12.7040   18.2939 C   0  0  0  0  0  0  0  0  0  0  0  0
   12.8603  -20.5298   22.1647 N   0  0  0  0  0  0  0  0  0  0  0  0
   13.2248  -19.1434   21.9477 C   0  0  0  0  0  0  0  0  0  0  0  0
   13.7110  -18.8981   20.8524 O   0  0  0  0  0  0  0  0  0  0  0  0
   12.9818  -18.2330   23.0158 C   0  0  0  0  0  0  0  0  0  0  0  0
   11.6271  -17.8063   23.4201 C   0  0  2  0  0  0  0  0  0  0  0  0
   11.0718  -17.0770   22.2328 N   0  0  0  0  0  0  0  0  0  0  0  0
   11.4686  -16.9624   24.6005 C   0  0  0  0  0  0  0  0  0  0  0  0
   11.9980  -15.7798   24.6008 O   0  0  0  0  0  0  0  0  0  0  0  0
   10.7873  -17.2683   25.7823 N   0  0  0  0  0  0  0  0  0  0  0  0
   10.6646  -16.2746   26.8780 C   0  0  1  0  0  0  0  0  0  0  0  0
   10.2390  -15.0238   26.1690 C   0  0  0  0  0  0  0  0  0  0  0  0
    8.7829  -14.8335   26.1742 C   0  0  0  0  0  0  0  0  0  0  0  0
    7.8098  -15.8382   26.0146 C   0  0  0  0  0  0  0  0  0  0  0  0
    6.5887  -15.2881   26.0423 N   0  0  0  0  0  0  0  0  0  0  0  0
    6.6768  -13.9500   26.2144 C   0  0  0  0  0  0  0  0  0  0  0  0
    5.7028  -12.9792   26.3215 C   0  0  0  0  0  0  0  0  0  0  0  0
    6.1095  -11.6817   26.5193 C   0  0  0  0  0  0  0  0  0  0  0  0
    7.4554  -11.3917   26.6036 C   0  0  0  0  0  0  0  0  0  0  0  0
    8.4128  -12.3677   26.4944 C   0  0  0  0  0  0  0  0  0  0  0  0
    8.0393  -13.6778   26.2954 C   0  0  0  0  0  0  0  0  0  0  0  0
    9.7161  -16.7421   27.8912 C   0  0  0  0  0  0  0  0  0  0  0  0
    8.9369  -17.7088   27.5961 O   0  0  0  0  0  0  0  0  0  0  0  0
    9.5893  -16.2271   29.1632 O   0  0  0  0  0  0  0  0  0  0  0  0
  2  1  1  0
  3  2  2  0
  4  3  1  0
  5 11  1  0
  5  4  2  0
  6  5  1  0
  7  8  1  1
  7  6  1  0
  9  7  1  0
 10  9  2  0
 11 12  2  0
 12  2  1  0
 13 14  1  0
 14 15  2  0
 14 16  1  0
 17 16  1  6
 17 19  1  0
 17 18  1  0
 18  9  1  0
 19 21  1  0
 20 19  2  0
 21 22  1  0
 22 23  1  6
 22 33  1  0
 24 23  1  0
 25 24  2  0
 26 27  1  0
 26 25  1  0
 27 32  2  0
 28 27  1  0
 28 29  2  0
 29 30  1  0
 30 31  2  0
 32 24  1  0
 32 31  1  0
 33 34  2  0
 33 35  1  0
M  END
$$$$
