DYS.pdb
     RDKit          3D

 27 27  0  0  1  0  0  0  0  0999 V2000
    7.1502  -16.8313   20.3540 N   0  0  0  0  0  0  0  0  0  0  0  0
    8.5959  -16.6550   20.1384 C   0  0  1  0  0  0  0  0  0  0  0  0
    8.7321  -15.7695   18.9495 C   0  0  0  0  0  0  0  0  0  0  0  0
    8.3691  -16.3413   17.6558 C   0  0  0  0  0  0  0  0  0  0  0  0
    7.6063  -17.3181   17.4749 O   0  0  0  0  0  0  0  0  0  0  0  0
    9.2218  -16.1435   21.3777 C   0  0  0  0  0  0  0  0  0  0  0  0
   10.2724  -15.4869   21.3498 O   0  0  0  0  0  0  0  0  0  0  0  0
    8.8934  -15.7865   16.4662 O   0  0  0  0  0  0  0  0  0  0  0  0
    5.7707  -10.8200   25.9658 O   0  0  0  0  0  0  0  0  0  0  0  0
    6.3496  -12.0527   25.7045 C   0  0  0  0  0  0  0  0  0  0  0  0
    5.5744  -13.1904   25.6890 C   0  0  0  0  0  0  0  0  0  0  0  0
    6.1523  -14.3987   25.4311 C   0  0  0  0  0  0  0  0  0  0  0  0
    7.4981  -14.5865   25.1745 C   0  0  0  0  0  0  0  0  0  0  0  0
    8.0991  -15.9019   24.8988 C   0  0  0  0  0  0  0  0  0  0  0  0
    9.1904  -15.9355   23.9091 C   0  0  2  0  0  0  0  0  0  0  0  0
    8.6103  -16.4082   22.6220 N   0  0  0  0  0  0  0  0  0  0  0  0
   10.3746  -16.7154   24.1507 C   0  0  0  0  0  0  0  0  0  0  0  0
   10.2798  -17.9976   24.1182 O   0  0  0  0  0  0  0  0  0  0  0  0
    8.2734  -13.4196   25.1938 C   0  0  0  0  0  0  0  0  0  0  0  0
    7.6956  -12.1953   25.4538 C   0  0  0  0  0  0  0  0  0  0  0  0
   15.2034  -17.2636   24.4343 O   0  0  0  0  0  0  0  0  0  0  0  0
   14.1349  -16.3754   24.3296 C   0  0  0  0  0  0  0  0  0  0  0  0
   12.8260  -17.1362   24.5176 C   0  0  2  0  0  0  0  0  0  0  0  0
   11.6924  -16.2354   24.4276 N   0  0  0  0  0  0  0  0  0  0  0  0
   12.8349  -17.7671   25.8506 C   0  0  0  0  0  0  0  0  0  0  0  0
   13.4836  -18.9887   26.0805 O   0  0  0  0  0  0  0  0  0  0  0  0
   12.2600  -17.2185   26.8028 O   0  0  0  0  0  0  0  0  0  0  0  0
  2  1  1  1
  2  6  1  0
  3  2  1  0
  4  8  1  0
  4  3  1  0
  5  4  2  0
  6 16  1  0
  6  7  2  0
  9 10  1  0
 10 11  2  0
 11 12  1  0
 13 12  2  0
 13 14  1  0
 15 14  1  1
 15 17  1  0
 16 15  1  0
 17 18  2  0
 19 13  1  0
 20 10  1  0
 20 19  2  0
 21 22  1  0
 23 22  1  1
 23 25  1  0
 24 17  1  0
 24 23  1  0
 25 26  1  0
 27 25  2  0
M  END
$$$$
