DYS.pdb
     RDKit          3D

 27 27  0  0  1  0  0  0  0  0999 V2000
   10.3833  -18.4729   20.3735 N   0  0  0  0  0  0  0  0  0  0  0  0
    9.1285  -18.1764   21.0842 C   0  0  1  0  0  0  0  0  0  0  0  0
    8.6918  -19.4571   21.7049 C   0  0  0  0  0  0  0  0  0  0  0  0
    8.2397  -20.5092   20.7987 C   0  0  0  0  0  0  0  0  0  0  0  0
    7.5198  -21.4853   21.1110 O   0  0  0  0  0  0  0  0  0  0  0  0
    9.3488  -17.0618   22.0322 C   0  0  0  0  0  0  0  0  0  0  0  0
   10.4857  -16.7537   22.4172 O   0  0  0  0  0  0  0  0  0  0  0  0
    8.6155  -20.4776   19.4366 O   0  0  0  0  0  0  0  0  0  0  0  0
    7.8945  -12.3485   17.7811 O   0  0  0  0  0  0  0  0  0  0  0  0
    7.7855  -12.7953   19.0894 C   0  0  0  0  0  0  0  0  0  0  0  0
    8.7594  -12.4801   20.0103 C   0  0  0  0  0  0  0  0  0  0  0  0
    8.6440  -12.9239   21.2949 C   0  0  0  0  0  0  0  0  0  0  0  0
    7.5956  -13.6907   21.7694 C   0  0  0  0  0  0  0  0  0  0  0  0
    7.4932  -14.1584   23.1616 C   0  0  0  0  0  0  0  0  0  0  0  0
    8.3741  -15.2739   23.5506 C   0  0  2  0  0  0  0  0  0  0  0  0
    8.2402  -16.3308   22.5106 N   0  0  0  0  0  0  0  0  0  0  0  0
    8.2215  -15.9165   24.8283 C   0  0  0  0  0  0  0  0  0  0  0  0
    8.2502  -15.1872   25.8873 O   0  0  0  0  0  0  0  0  0  0  0  0
    6.6131  -14.0030   20.8206 C   0  0  0  0  0  0  0  0  0  0  0  0
    6.7236  -13.5577   19.5207 C   0  0  0  0  0  0  0  0  0  0  0  0
    7.3882  -19.8996   25.3911 O   0  0  0  0  0  0  0  0  0  0  0  0
    7.0412  -19.0774   26.4612 C   0  0  0  0  0  0  0  0  0  0  0  0
    7.9101  -17.8236   26.4367 C   0  0  2  0  0  0  0  0  0  0  0  0
    8.0302  -17.3097   25.0854 N   0  0  0  0  0  0  0  0  0  0  0  0
    9.2519  -18.1703   26.9410 C   0  0  0  0  0  0  0  0  0  0  0  0
   10.3998  -17.9942   26.1552 O   0  0  0  0  0  0  0  0  0  0  0  0
    9.3875  -18.6298   28.0849 O   0  0  0  0  0  0  0  0  0  0  0  0
  2  1  1  1
  2  6  1  0
  3  2  1  0
  4  8  1  0
  4  3  1  0
  5  4  2  0
  6 16  1  0
  6  7  2  0
  9 10  1  0
 10 11  2  0
 11 12  1  0
 13 12  2  0
 13 14  1  0
 15 14  1  6
 15 17  1  0
 16 15  1  0
 17 18  2  0
 19 13  1  0
 20 10  1  0
 20 19  2  0
 21 22  1  0
 23 22  1  6
 23 25  1  0
 24 17  1  0
 24 23  1  0
 25 26  1  0
 27 25  2  0
M  END
$$$$
