DYS.pdb
     RDKit          3D

 27 27  0  0  1  0  0  0  0  0999 V2000
    8.7615  -15.9597   17.8206 N   0  0  0  0  0  0  0  0  0  0  0  0
    8.1593  -16.6637   18.9650 C   0  0  1  0  0  0  0  0  0  0  0  0
    8.5290  -18.0974   18.8100 C   0  0  0  0  0  0  0  0  0  0  0  0
    8.0293  -18.7829   17.6215 C   0  0  0  0  0  0  0  0  0  0  0  0
    8.6653  -18.9616   16.5574 O   0  0  0  0  0  0  0  0  0  0  0  0
    8.6079  -16.0319   20.2256 C   0  0  0  0  0  0  0  0  0  0  0  0
    9.7973  -15.7420   20.4177 O   0  0  0  0  0  0  0  0  0  0  0  0
    6.7193  -19.3134   17.6105 O   0  0  0  0  0  0  0  0  0  0  0  0
    7.2766  -12.4152   28.3725 O   0  0  0  0  0  0  0  0  0  0  0  0
    7.1677  -12.9318   27.0902 C   0  0  0  0  0  0  0  0  0  0  0  0
    7.5234  -12.1643   26.0039 C   0  0  0  0  0  0  0  0  0  0  0  0
    7.4129  -12.6806   24.7462 C   0  0  0  0  0  0  0  0  0  0  0  0
    6.9581  -13.9541   24.4575 C   0  0  0  0  0  0  0  0  0  0  0  0
    6.8474  -14.4893   23.0905 C   0  0  0  0  0  0  0  0  0  0  0  0
    8.0457  -15.1462   22.5389 C   0  0  2  0  0  0  0  0  0  0  0  0
    7.6612  -15.7518   21.2343 N   0  0  0  0  0  0  0  0  0  0  0  0
    8.7353  -16.1614   23.2892 C   0  0  0  0  0  0  0  0  0  0  0  0
    8.2824  -17.3645   23.2505 O   0  0  0  0  0  0  0  0  0  0  0  0
    6.6002  -14.7225   25.5731 C   0  0  0  0  0  0  0  0  0  0  0  0
    6.7094  -14.2068   26.8469 C   0  0  0  0  0  0  0  0  0  0  0  0
   12.5841  -16.0097   24.2321 O   0  0  0  0  0  0  0  0  0  0  0  0
   11.9926  -17.2709   24.2619 C   0  0  0  0  0  0  0  0  0  0  0  0
   10.5472  -17.1394   24.7319 C   0  0  2  0  0  0  0  0  0  0  0  0
    9.9035  -16.0043   24.0980 N   0  0  0  0  0  0  0  0  0  0  0  0
   10.5429  -16.9410   26.1933 C   0  0  0  0  0  0  0  0  0  0  0  0
   11.1240  -17.8748   27.0629 O   0  0  0  0  0  0  0  0  0  0  0  0
   10.0174  -15.9298   26.6826 O   0  0  0  0  0  0  0  0  0  0  0  0
  2  1  1  6
  2  6  1  0
  3  2  1  0
  4  8  1  0
  4  3  1  0
  5  4  2  0
  6 16  1  0
  6  7  2  0
  9 10  1  0
 10 11  2  0
 11 12  1  0
 13 12  2  0
 13 14  1  0
 15 14  1  1
 15 17  1  0
 16 15  1  0
 17 18  2  0
 19 13  1  0
 20 10  1  0
 20 19  2  0
 21 22  1  0
 23 22  1  6
 23 25  1  0
 24 17  1  0
 24 23  1  0
 25 26  1  0
 27 25  2  0
M  END
$$$$
