DYS.pdb
     RDKit          3D

 27 27  0  0  1  0  0  0  0  0999 V2000
    8.7192  -17.3719   19.5378 N   0  0  0  0  0  0  0  0  0  0  0  0
   10.0797  -17.4074   20.0995 C   0  0  1  0  0  0  0  0  0  0  0  0
   10.9806  -16.8859   19.0353 C   0  0  0  0  0  0  0  0  0  0  0  0
   10.9335  -17.5612   17.7414 C   0  0  0  0  0  0  0  0  0  0  0  0
   10.0137  -17.4628   16.8970 O   0  0  0  0  0  0  0  0  0  0  0  0
   10.1088  -16.6537   21.3724 C   0  0  0  0  0  0  0  0  0  0  0  0
   11.1756  -16.3915   21.9460 O   0  0  0  0  0  0  0  0  0  0  0  0
   11.9906  -18.4144   17.3511 O   0  0  0  0  0  0  0  0  0  0  0  0
    6.5138  -11.6342   27.9138 O   0  0  0  0  0  0  0  0  0  0  0  0
    6.7863  -12.3663   26.7680 C   0  0  0  0  0  0  0  0  0  0  0  0
    7.6280  -11.8551   25.8057 C   0  0  0  0  0  0  0  0  0  0  0  0
    7.8903  -12.5822   24.6818 C   0  0  0  0  0  0  0  0  0  0  0  0
    7.3650  -13.8334   24.4158 C   0  0  0  0  0  0  0  0  0  0  0  0
    7.6632  -14.5993   23.1943 C   0  0  0  0  0  0  0  0  0  0  0  0
    8.8479  -15.4747   23.2358 C   0  0  2  0  0  0  0  0  0  0  0  0
    8.8950  -16.2220   21.9490 N   0  0  0  0  0  0  0  0  0  0  0  0
    9.0095  -16.4390   24.2907 C   0  0  0  0  0  0  0  0  0  0  0  0
    8.2264  -17.4590   24.3124 O   0  0  0  0  0  0  0  0  0  0  0  0
    6.5108  -14.3397   25.4042 C   0  0  0  0  0  0  0  0  0  0  0  0
    6.2414  -13.6101   26.5424 C   0  0  0  0  0  0  0  0  0  0  0  0
   12.3498  -17.7320   25.7205 O   0  0  0  0  0  0  0  0  0  0  0  0
   11.1806  -18.4560   25.9447 C   0  0  0  0  0  0  0  0  0  0  0  0
   10.0559  -17.4952   26.3181 C   0  0  2  0  0  0  0  0  0  0  0  0
    9.9641  -16.4146   25.3545 N   0  0  0  0  0  0  0  0  0  0  0  0
   10.3418  -16.9297   27.6498 C   0  0  0  0  0  0  0  0  0  0  0  0
   10.4970  -15.5498   27.8438 O   0  0  0  0  0  0  0  0  0  0  0  0
   10.4508  -17.6775   28.6332 O   0  0  0  0  0  0  0  0  0  0  0  0
  2  1  1  6
  2  6  1  0
  3  2  1  0
  4  8  1  0
  4  3  1  0
  5  4  2  0
  6 16  1  0
  6  7  2  0
  9 10  1  0
 10 11  2  0
 11 12  1  0
 13 12  2  0
 13 14  1  0
 15 14  1  1
 15 17  1  0
 16 15  1  0
 17 18  2  0
 19 13  1  0
 20 10  1  0
 20 19  2  0
 21 22  1  0
 23 22  1  6
 23 25  1  0
 24 17  1  0
 24 23  1  0
 25 26  1  0
 27 25  2  0
M  END
$$$$
