DYS.pdb
     RDKit          3D

 27 27  0  0  1  0  0  0  0  0999 V2000
   10.2849  -16.2893   18.6669 N   0  0  0  0  0  0  0  0  0  0  0  0
    9.8357  -17.1508   19.7731 C   0  0  1  0  0  0  0  0  0  0  0  0
   10.6567  -18.3900   19.6924 C   0  0  0  0  0  0  0  0  0  0  0  0
   10.6813  -19.0827   18.4072 C   0  0  0  0  0  0  0  0  0  0  0  0
   11.7036  -19.3258   17.7257 O   0  0  0  0  0  0  0  0  0  0  0  0
    9.9396  -16.4102   21.0499 C   0  0  0  0  0  0  0  0  0  0  0  0
   11.0305  -16.0078   21.4787 O   0  0  0  0  0  0  0  0  0  0  0  0
    9.4762  -19.5434   17.8300 O   0  0  0  0  0  0  0  0  0  0  0  0
    6.4904  -11.9311   28.0556 O   0  0  0  0  0  0  0  0  0  0  0  0
    6.7564  -12.5728   26.8554 C   0  0  0  0  0  0  0  0  0  0  0  0
    6.1997  -13.8044   26.5925 C   0  0  0  0  0  0  0  0  0  0  0  0
    6.4669  -14.4282   25.4093 C   0  0  0  0  0  0  0  0  0  0  0  0
    7.2778  -13.9122   24.4152 C   0  0  0  0  0  0  0  0  0  0  0  0
    7.5515  -14.6052   23.1455 C   0  0  0  0  0  0  0  0  0  0  0  0
    8.7968  -15.3901   23.0761 C   0  0  2  0  0  0  0  0  0  0  0  0
    8.7709  -16.1549   21.7990 N   0  0  0  0  0  0  0  0  0  0  0  0
    9.1350  -16.3209   24.1193 C   0  0  0  0  0  0  0  0  0  0  0  0
    8.6220  -17.4995   24.0775 O   0  0  0  0  0  0  0  0  0  0  0  0
    7.8366  -12.6588   24.6976 C   0  0  0  0  0  0  0  0  0  0  0  0
    7.5707  -12.0228   25.8914 C   0  0  0  0  0  0  0  0  0  0  0  0
   12.2184  -18.3024   27.0912 O   0  0  0  0  0  0  0  0  0  0  0  0
   11.7939  -17.6030   25.9633 C   0  0  0  0  0  0  0  0  0  0  0  0
   10.3429  -17.1715   26.1535 C   0  0  2  0  0  0  0  0  0  0  0  0
   10.0019  -16.1019   25.2347 N   0  0  0  0  0  0  0  0  0  0  0  0
   10.1718  -16.6905   27.5371 C   0  0  0  0  0  0  0  0  0  0  0  0
   10.3142  -17.5495   28.6361 O   0  0  0  0  0  0  0  0  0  0  0  0
    9.8952  -15.5010   27.7528 O   0  0  0  0  0  0  0  0  0  0  0  0
  2  1  1  6
  2  6  1  0
  3  2  1  0
  4  8  1  0
  4  3  1  0
  5  4  2  0
  6 16  1  0
  6  7  2  0
  9 10  1  0
 10 11  2  0
 11 12  1  0
 13 12  2  0
 13 14  1  0
 15 14  1  1
 15 17  1  0
 16 15  1  0
 17 18  2  0
 19 13  1  0
 20 10  1  0
 20 19  2  0
 21 22  1  0
 23 22  1  1
 23 25  1  0
 24 17  1  0
 24 23  1  0
 25 26  1  0
 27 25  2  0
M  END
$$$$
