DYS.pdb
     RDKit          3D

 27 27  0  0  1  0  0  0  0  0999 V2000
   10.6682  -16.8680   19.0168 N   0  0  0  0  0  0  0  0  0  0  0  0
    9.5749  -17.2588   19.9222 C   0  0  1  0  0  0  0  0  0  0  0  0
    9.5894  -18.7466   19.9706 C   0  0  0  0  0  0  0  0  0  0  0  0
    9.2714  -19.4502   18.7312 C   0  0  0  0  0  0  0  0  0  0  0  0
    8.1990  -19.3573   18.0908 O   0  0  0  0  0  0  0  0  0  0  0  0
    9.7505  -16.5859   21.2283 C   0  0  0  0  0  0  0  0  0  0  0  0
   10.8535  -16.5414   21.7913 O   0  0  0  0  0  0  0  0  0  0  0  0
   10.2175  -20.3276   18.1544 O   0  0  0  0  0  0  0  0  0  0  0  0
    7.0082  -11.5581   28.1818 O   0  0  0  0  0  0  0  0  0  0  0  0
    7.1650  -12.2386   26.9837 C   0  0  0  0  0  0  0  0  0  0  0  0
    6.0709  -12.7862   26.3522 C   0  0  0  0  0  0  0  0  0  0  0  0
    6.2346  -13.4539   25.1740 C   0  0  0  0  0  0  0  0  0  0  0  0
    7.4480  -13.6347   24.5361 C   0  0  0  0  0  0  0  0  0  0  0  0
    7.5995  -14.3600   23.2639 C   0  0  0  0  0  0  0  0  0  0  0  0
    8.7402  -15.2876   23.1637 C   0  0  2  0  0  0  0  0  0  0  0  0
    8.6374  -15.9799   21.8498 N   0  0  0  0  0  0  0  0  0  0  0  0
    8.9485  -16.3028   24.1612 C   0  0  0  0  0  0  0  0  0  0  0  0
    8.1106  -17.2761   24.2278 O   0  0  0  0  0  0  0  0  0  0  0  0
    8.5513  -13.0718   25.1910 C   0  0  0  0  0  0  0  0  0  0  0  0
    8.3930  -12.3958   26.3819 C   0  0  0  0  0  0  0  0  0  0  0  0
   12.4264  -17.5199   25.5338 O   0  0  0  0  0  0  0  0  0  0  0  0
   11.3231  -18.3422   25.7532 C   0  0  0  0  0  0  0  0  0  0  0  0
   10.1032  -17.4788   26.0598 C   0  0  2  0  0  0  0  0  0  0  0  0
   10.0059  -16.3775   25.1204 N   0  0  0  0  0  0  0  0  0  0  0  0
   10.2404  -16.9368   27.4245 C   0  0  0  0  0  0  0  0  0  0  0  0
   10.3580  -17.7777   28.5402 O   0  0  0  0  0  0  0  0  0  0  0  0
   10.2540  -15.7104   27.6087 O   0  0  0  0  0  0  0  0  0  0  0  0
  2  1  1  6
  2  6  1  0
  3  2  1  0
  4  8  1  0
  4  3  1  0
  5  4  2  0
  6 16  1  0
  6  7  2  0
  9 10  1  0
 10 11  2  0
 11 12  1  0
 13 12  2  0
 13 14  1  0
 15 14  1  1
 15 17  1  0
 16 15  1  0
 17 18  2  0
 19 13  1  0
 20 10  1  0
 20 19  2  0
 21 22  1  0
 23 22  1  6
 23 25  1  0
 24 17  1  0
 24 23  1  0
 25 26  1  0
 27 25  2  0
M  END
$$$$
