DYS.pdb
     RDKit          3D

 27 27  0  0  1  0  0  0  0  0999 V2000
    8.3293  -17.5918   19.3488 N   0  0  0  0  0  0  0  0  0  0  0  0
    9.7478  -17.4540   19.7183 C   0  0  1  0  0  0  0  0  0  0  0  0
   10.4285  -16.8629   18.5337 C   0  0  0  0  0  0  0  0  0  0  0  0
   10.4528  -17.6689   17.3162 C   0  0  0  0  0  0  0  0  0  0  0  0
    9.8334  -18.7424   17.1362 O   0  0  0  0  0  0  0  0  0  0  0  0
    9.8594  -16.6656   20.9654 C   0  0  0  0  0  0  0  0  0  0  0  0
   10.9615  -16.3702   21.4489 O   0  0  0  0  0  0  0  0  0  0  0  0
   11.2257  -17.2521   16.2087 O   0  0  0  0  0  0  0  0  0  0  0  0
    6.5364  -11.8329   27.8038 O   0  0  0  0  0  0  0  0  0  0  0  0
    6.7599  -12.5359   26.6296 C   0  0  0  0  0  0  0  0  0  0  0  0
    7.4433  -11.9453   25.5904 C   0  0  0  0  0  0  0  0  0  0  0  0
    7.6585  -12.6443   24.4391 C   0  0  0  0  0  0  0  0  0  0  0  0
    7.2344  -13.9417   24.2173 C   0  0  0  0  0  0  0  0  0  0  0  0
    7.4788  -14.6758   22.9648 C   0  0  0  0  0  0  0  0  0  0  0  0
    8.7216  -15.4644   22.8928 C   0  0  2  0  0  0  0  0  0  0  0  0
    8.6849  -16.2386   21.6217 N   0  0  0  0  0  0  0  0  0  0  0  0
    9.0647  -16.3882   23.9406 C   0  0  0  0  0  0  0  0  0  0  0  0
    8.4318  -17.5062   24.0020 O   0  0  0  0  0  0  0  0  0  0  0  0
    6.5407  -14.5286   25.2838 C   0  0  0  0  0  0  0  0  0  0  0  0
    6.3198  -13.8278   26.4501 C   0  0  0  0  0  0  0  0  0  0  0  0
   12.6626  -16.9088   25.4598 O   0  0  0  0  0  0  0  0  0  0  0  0
   11.7067  -17.9119   25.6056 C   0  0  0  0  0  0  0  0  0  0  0  0
   10.3522  -17.2781   25.9081 C   0  0  2  0  0  0  0  0  0  0  0  0
   10.0563  -16.2234   24.9570 N   0  0  0  0  0  0  0  0  0  0  0  0
   10.3931  -16.7043   27.2660 C   0  0  0  0  0  0  0  0  0  0  0  0
   10.6262  -17.5035   28.3942 O   0  0  0  0  0  0  0  0  0  0  0  0
   10.2193  -15.4878   27.4332 O   0  0  0  0  0  0  0  0  0  0  0  0
  2  1  1  6
  2  6  1  0
  3  2  1  0
  4  8  1  0
  4  3  1  0
  5  4  2  0
  6 16  1  0
  6  7  2  0
  9 10  1  0
 10 11  2  0
 11 12  1  0
 13 12  2  0
 13 14  1  0
 15 14  1  1
 15 17  1  0
 16 15  1  0
 17 18  2  0
 19 13  1  0
 20 10  1  0
 20 19  2  0
 21 22  1  0
 23 22  1  6
 23 25  1  0
 24 17  1  0
 24 23  1  0
 25 26  1  0
 27 25  2  0
M  END
$$$$
