DYS.pdb
     RDKit          3D

 27 27  0  0  1  0  0  0  0  0999 V2000
   10.2959  -16.6437   18.6875 N   0  0  0  0  0  0  0  0  0  0  0  0
    9.3635  -17.1549   19.7059 C   0  0  1  0  0  0  0  0  0  0  0  0
    9.6044  -18.6216   19.7887 C   0  0  0  0  0  0  0  0  0  0  0  0
    9.3393  -19.4029   18.5839 C   0  0  0  0  0  0  0  0  0  0  0  0
   10.2036  -19.8422   17.7910 O   0  0  0  0  0  0  0  0  0  0  0  0
    9.5590  -16.4136   20.9715 C   0  0  0  0  0  0  0  0  0  0  0  0
   10.6913  -16.1819   21.4185 O   0  0  0  0  0  0  0  0  0  0  0  0
    8.0095  -19.7235   18.2284 O   0  0  0  0  0  0  0  0  0  0  0  0
    6.6291  -11.9235   28.2174 O   0  0  0  0  0  0  0  0  0  0  0  0
    6.8212  -12.5113   26.9761 C   0  0  0  0  0  0  0  0  0  0  0  0
    6.1928  -13.6972   26.6688 C   0  0  0  0  0  0  0  0  0  0  0  0
    6.3876  -14.2682   25.4455 C   0  0  0  0  0  0  0  0  0  0  0  0
    7.1907  -13.7400   24.4514 C   0  0  0  0  0  0  0  0  0  0  0  0
    7.3856  -14.3755   23.1379 C   0  0  0  0  0  0  0  0  0  0  0  0
    8.5503  -15.2680   23.0018 C   0  0  2  0  0  0  0  0  0  0  0  0
    8.4314  -15.9586   21.6883 N   0  0  0  0  0  0  0  0  0  0  0  0
    8.8169  -16.2799   23.9887 C   0  0  0  0  0  0  0  0  0  0  0  0
    8.0548  -17.3153   24.0247 O   0  0  0  0  0  0  0  0  0  0  0  0
    7.8230  -12.5334   24.7793 C   0  0  0  0  0  0  0  0  0  0  0  0
    7.6304  -11.9510   26.0138 C   0  0  0  0  0  0  0  0  0  0  0  0
   12.3227  -17.3123   25.2671 O   0  0  0  0  0  0  0  0  0  0  0  0
   11.2820  -18.1928   25.5547 C   0  0  0  0  0  0  0  0  0  0  0  0
   10.0249  -17.3960   25.8902 C   0  0  2  0  0  0  0  0  0  0  0  0
    9.8587  -16.2889   24.9676 N   0  0  0  0  0  0  0  0  0  0  0  0
   10.1547  -16.8657   27.2602 C   0  0  0  0  0  0  0  0  0  0  0  0
   10.3602  -17.7122   28.3589 O   0  0  0  0  0  0  0  0  0  0  0  0
   10.0830  -15.6446   27.4644 O   0  0  0  0  0  0  0  0  0  0  0  0
  2  1  1  6
  2  6  1  0
  3  2  1  0
  4  8  1  0
  4  3  1  0
  5  4  2  0
  6 16  1  0
  6  7  2  0
  9 10  1  0
 10 11  2  0
 11 12  1  0
 13 12  2  0
 13 14  1  0
 15 14  1  1
 15 17  1  0
 16 15  1  0
 17 18  2  0
 19 13  1  0
 20 10  1  0
 20 19  2  0
 21 22  1  0
 23 22  1  6
 23 25  1  0
 24 17  1  0
 24 23  1  0
 25 26  1  0
 27 25  2  0
M  END
$$$$
