DYS.pdb
     RDKit          3D

 27 27  0  0  1  0  0  0  0  0999 V2000
    9.3520  -16.5354   19.2328 N   0  0  0  0  0  0  0  0  0  0  0  0
   10.4259  -17.0238   20.1136 C   0  0  1  0  0  0  0  0  0  0  0  0
   11.6866  -16.9133   19.3297 C   0  0  0  0  0  0  0  0  0  0  0  0
   11.7719  -17.7006   18.1028 C   0  0  0  0  0  0  0  0  0  0  0  0
   10.8030  -18.0660   17.3982 O   0  0  0  0  0  0  0  0  0  0  0  0
   10.4072  -16.2648   21.3836 C   0  0  0  0  0  0  0  0  0  0  0  0
   11.4511  -15.8462   21.9038 O   0  0  0  0  0  0  0  0  0  0  0  0
   13.0322  -18.1168   17.6169 O   0  0  0  0  0  0  0  0  0  0  0  0
    6.4086  -11.6010   27.9517 O   0  0  0  0  0  0  0  0  0  0  0  0
    6.7404  -12.3166   26.8111 C   0  0  0  0  0  0  0  0  0  0  0  0
    7.5780  -11.7640   25.8684 C   0  0  0  0  0  0  0  0  0  0  0  0
    7.8989  -12.4750   24.7495 C   0  0  0  0  0  0  0  0  0  0  0  0
    7.4390  -13.7488   24.4701 C   0  0  0  0  0  0  0  0  0  0  0  0
    7.7996  -14.4967   23.2543 C   0  0  0  0  0  0  0  0  0  0  0  0
    9.0768  -15.2313   23.2847 C   0  0  2  0  0  0  0  0  0  0  0  0
    9.1731  -16.0101   22.0195 N   0  0  0  0  0  0  0  0  0  0  0  0
    9.3757  -16.1364   24.3619 C   0  0  0  0  0  0  0  0  0  0  0  0
    8.8447  -17.3077   24.3420 O   0  0  0  0  0  0  0  0  0  0  0  0
    6.5880  -14.2972   25.4386 C   0  0  0  0  0  0  0  0  0  0  0  0
    6.2596  -13.5840   26.5717 C   0  0  0  0  0  0  0  0  0  0  0  0
   12.4793  -17.4561   25.3167 O   0  0  0  0  0  0  0  0  0  0  0  0
   11.9636  -17.2206   26.5895 C   0  0  0  0  0  0  0  0  0  0  0  0
   10.4703  -16.9271   26.4826 C   0  0  2  0  0  0  0  0  0  0  0  0
   10.2200  -15.8986   25.4907 N   0  0  0  0  0  0  0  0  0  0  0  0
    9.9870  -16.4583   27.7947 C   0  0  0  0  0  0  0  0  0  0  0  0
   10.1078  -17.2482   28.9469 O   0  0  0  0  0  0  0  0  0  0  0  0
    9.4584  -15.3413   27.9006 O   0  0  0  0  0  0  0  0  0  0  0  0
  2  1  1  6
  2  6  1  0
  3  2  1  0
  4  8  1  0
  4  3  1  0
  5  4  2  0
  6 16  1  0
  6  7  2  0
  9 10  1  0
 10 11  2  0
 11 12  1  0
 13 12  2  0
 13 14  1  0
 15 14  1  1
 15 17  1  0
 16 15  1  0
 17 18  2  0
 19 13  1  0
 20 10  1  0
 20 19  2  0
 21 22  1  0
 23 22  1  1
 23 25  1  0
 24 17  1  0
 24 23  1  0
 25 26  1  0
 27 25  2  0
M  END
$$$$
