DYS.pdb
     RDKit          3D

 27 27  0  0  1  0  0  0  0  0999 V2000
    9.1174  -17.3146   19.4391 N   0  0  0  0  0  0  0  0  0  0  0  0
   10.4641  -17.2413   20.0295 C   0  0  1  0  0  0  0  0  0  0  0  0
   11.3623  -16.7447   18.9511 C   0  0  0  0  0  0  0  0  0  0  0  0
   11.5024  -17.5892   17.7680 C   0  0  0  0  0  0  0  0  0  0  0  0
   10.7705  -18.5612   17.4712 O   0  0  0  0  0  0  0  0  0  0  0  0
   10.4244  -16.4043   21.2490 C   0  0  0  0  0  0  0  0  0  0  0  0
   11.4613  -16.0694   21.8392 O   0  0  0  0  0  0  0  0  0  0  0  0
   12.5368  -17.3366   16.8386 O   0  0  0  0  0  0  0  0  0  0  0  0
    6.1987  -12.0930   27.9412 O   0  0  0  0  0  0  0  0  0  0  0  0
    6.5802  -12.6946   26.7513 C   0  0  0  0  0  0  0  0  0  0  0  0
    7.4993  -12.0804   25.9306 C   0  0  0  0  0  0  0  0  0  0  0  0
    7.8687  -12.6794   24.7621 C   0  0  0  0  0  0  0  0  0  0  0  0
    7.3823  -13.8940   24.3145 C   0  0  0  0  0  0  0  0  0  0  0  0
    7.7964  -14.5208   23.0483 C   0  0  0  0  0  0  0  0  0  0  0  0
    9.0446  -15.3037   23.0758 C   0  0  2  0  0  0  0  0  0  0  0  0
    9.1779  -15.9761   21.7542 N   0  0  0  0  0  0  0  0  0  0  0  0
    9.2577  -16.3073   24.0839 C   0  0  0  0  0  0  0  0  0  0  0  0
    8.6530  -17.4358   23.9612 O   0  0  0  0  0  0  0  0  0  0  0  0
    6.4482  -14.5062   25.1605 C   0  0  0  0  0  0  0  0  0  0  0  0
    6.0705  -13.9063   26.3428 C   0  0  0  0  0  0  0  0  0  0  0  0
   12.6228  -17.0324   25.8686 O   0  0  0  0  0  0  0  0  0  0  0  0
   11.6266  -18.0064   25.8869 C   0  0  0  0  0  0  0  0  0  0  0  0
   10.2759  -17.3423   26.1364 C   0  0  2  0  0  0  0  0  0  0  0  0
   10.0872  -16.2139   25.2444 N   0  0  0  0  0  0  0  0  0  0  0  0
   10.2359  -16.8652   27.5313 C   0  0  0  0  0  0  0  0  0  0  0  0
   10.0248  -15.5137   27.8395 O   0  0  0  0  0  0  0  0  0  0  0  0
   10.3907  -17.6642   28.4671 O   0  0  0  0  0  0  0  0  0  0  0  0
  2  1  1  6
  2  6  1  0
  3  2  1  0
  4  8  1  0
  4  3  1  0
  5  4  2  0
  6 16  1  0
  6  7  2  0
  9 10  1  0
 10 11  2  0
 11 12  1  0
 13 12  2  0
 13 14  1  0
 15 14  1  1
 15 17  1  0
 16 15  1  0
 17 18  2  0
 19 13  1  0
 20 10  1  0
 20 19  2  0
 21 22  1  0
 23 22  1  6
 23 25  1  0
 24 17  1  0
 24 23  1  0
 25 26  1  0
 27 25  2  0
M  END
$$$$
