DYS.pdb
     RDKit          3D

 27 27  0  0  1  0  0  0  0  0999 V2000
   10.1898  -17.0324   18.9276 N   0  0  0  0  0  0  0  0  0  0  0  0
    9.3363  -17.6282   19.9688 C   0  0  1  0  0  0  0  0  0  0  0  0
    9.6670  -19.0794   19.9948 C   0  0  0  0  0  0  0  0  0  0  0  0
    9.3592  -19.8479   18.7919 C   0  0  0  0  0  0  0  0  0  0  0  0
   10.0389  -19.8653   17.7400 O   0  0  0  0  0  0  0  0  0  0  0  0
    9.5446  -16.9134   21.2476 C   0  0  0  0  0  0  0  0  0  0  0  0
   10.6500  -16.8960   21.8076 O   0  0  0  0  0  0  0  0  0  0  0  0
    8.2053  -20.6630   18.7506 O   0  0  0  0  0  0  0  0  0  0  0  0
    6.9546  -11.6898   28.1183 O   0  0  0  0  0  0  0  0  0  0  0  0
    7.0968  -12.3777   26.9227 C   0  0  0  0  0  0  0  0  0  0  0  0
    6.1782  -13.3393   26.5657 C   0  0  0  0  0  0  0  0  0  0  0  0
    6.3260  -14.0110   25.3878 C   0  0  0  0  0  0  0  0  0  0  0  0
    7.3557  -13.8022   24.4887 C   0  0  0  0  0  0  0  0  0  0  0  0
    7.4941  -14.5406   23.2226 C   0  0  0  0  0  0  0  0  0  0  0  0
    8.5898  -15.5232   23.1470 C   0  0  2  0  0  0  0  0  0  0  0  0
    8.4611  -16.2347   21.8456 N   0  0  0  0  0  0  0  0  0  0  0  0
    8.7442  -16.5280   24.1646 C   0  0  0  0  0  0  0  0  0  0  0  0
    7.8676  -17.4664   24.2356 O   0  0  0  0  0  0  0  0  0  0  0  0
    8.2819  -12.8210   24.8662 C   0  0  0  0  0  0  0  0  0  0  0  0
    8.1385  -12.1384   26.0552 C   0  0  0  0  0  0  0  0  0  0  0  0
   11.9938  -18.1716   25.2941 O   0  0  0  0  0  0  0  0  0  0  0  0
   10.8099  -18.7759   25.7120 C   0  0  0  0  0  0  0  0  0  0  0  0
    9.8093  -17.6982   26.1183 C   0  0  2  0  0  0  0  0  0  0  0  0
    9.7845  -16.6272   25.1401 N   0  0  0  0  0  0  0  0  0  0  0  0
   10.2144  -17.1475   27.4250 C   0  0  0  0  0  0  0  0  0  0  0  0
   10.3240  -17.9602   28.5623 O   0  0  0  0  0  0  0  0  0  0  0  0
   10.4681  -15.9390   27.5395 O   0  0  0  0  0  0  0  0  0  0  0  0
  2  1  1  6
  2  6  1  0
  3  2  1  0
  4  8  1  0
  4  3  1  0
  5  4  2  0
  6 16  1  0
  6  7  2  0
  9 10  1  0
 10 11  2  0
 11 12  1  0
 13 12  2  0
 13 14  1  0
 15 14  1  1
 15 17  1  0
 16 15  1  0
 17 18  2  0
 19 13  1  0
 20 10  1  0
 20 19  2  0
 21 22  1  0
 23 22  1  6
 23 25  1  0
 24 17  1  0
 24 23  1  0
 25 26  1  0
 27 25  2  0
M  END
$$$$
