DYS.pdb
     RDKit          3D

 27 27  0  0  1  0  0  0  0  0999 V2000
    9.8282  -16.5460   18.2088 N   0  0  0  0  0  0  0  0  0  0  0  0
    9.1794  -17.2094   19.3519 C   0  0  1  0  0  0  0  0  0  0  0  0
    9.7343  -18.5900   19.3987 C   0  0  0  0  0  0  0  0  0  0  0  0
    9.4822  -19.4421   18.2400 C   0  0  0  0  0  0  0  0  0  0  0  0
    8.9195  -19.0875   17.1787 O   0  0  0  0  0  0  0  0  0  0  0  0
    9.3916  -16.4051   20.5757 C   0  0  0  0  0  0  0  0  0  0  0  0
   10.4696  -15.8359   20.7982 O   0  0  0  0  0  0  0  0  0  0  0  0
    9.8861  -20.7964   18.2581 O   0  0  0  0  0  0  0  0  0  0  0  0
    6.5271  -11.8577   27.7828 O   0  0  0  0  0  0  0  0  0  0  0  0
    6.6942  -12.5483   26.5919 C   0  0  0  0  0  0  0  0  0  0  0  0
    6.2194  -13.8347   26.4671 C   0  0  0  0  0  0  0  0  0  0  0  0
    6.3883  -14.5064   25.2920 C   0  0  0  0  0  0  0  0  0  0  0  0
    7.0178  -13.9885   24.1750 C   0  0  0  0  0  0  0  0  0  0  0  0
    7.1882  -14.7338   22.9169 C   0  0  0  0  0  0  0  0  0  0  0  0
    8.4671  -15.4437   22.7374 C   0  0  2  0  0  0  0  0  0  0  0  0
    8.3435  -16.2815   21.5130 N   0  0  0  0  0  0  0  0  0  0  0  0
    8.9875  -16.2897   23.7777 C   0  0  0  0  0  0  0  0  0  0  0  0
    8.5208  -17.4832   23.8864 O   0  0  0  0  0  0  0  0  0  0  0  0
    7.4951  -12.6790   24.3178 C   0  0  0  0  0  0  0  0  0  0  0  0
    7.3278  -11.9944   25.5026 C   0  0  0  0  0  0  0  0  0  0  0  0
   12.3365  -17.3336   24.1089 O   0  0  0  0  0  0  0  0  0  0  0  0
   12.0512  -17.0924   25.4512 C   0  0  0  0  0  0  0  0  0  0  0  0
   10.5411  -16.9728   25.6326 C   0  0  2  0  0  0  0  0  0  0  0  0
    9.9957  -15.9685   24.7390 N   0  0  0  0  0  0  0  0  0  0  0  0
   10.2635  -16.5788   27.0264 C   0  0  0  0  0  0  0  0  0  0  0  0
   10.6641  -17.3755   28.1084 O   0  0  0  0  0  0  0  0  0  0  0  0
    9.6625  -15.5208   27.2662 O   0  0  0  0  0  0  0  0  0  0  0  0
  2  1  1  6
  2  6  1  0
  3  2  1  0
  4  8  1  0
  4  3  1  0
  5  4  2  0
  6 16  1  0
  6  7  2  0
  9 10  1  0
 10 11  2  0
 11 12  1  0
 13 12  2  0
 13 14  1  0
 15 14  1  1
 15 17  1  0
 16 15  1  0
 17 18  2  0
 19 13  1  0
 20 10  1  0
 20 19  2  0
 21 22  1  0
 23 22  1  1
 23 25  1  0
 24 17  1  0
 24 23  1  0
 25 26  1  0
 27 25  2  0
M  END
$$$$
