THW.pdb
     RDKit          3D

 32 34  0  0  1  0  0  0  0  0999 V2000
   24.8958  -16.3530  -15.4603 C   0  0  0  0  0  0  0  0  0  0  0  0
   24.9940  -17.6233  -14.6533 C   0  0  1  0  0  0  0  0  0  0  0  0
   23.7715  -18.2881  -14.5931 O   0  0  0  0  0  0  0  0  0  0  0  0
   26.0124  -18.5973  -15.2452 C   0  0  2  0  0  0  0  0  0  0  0  0
   25.5104  -18.9679  -16.5459 N   0  0  0  0  0  0  0  0  0  0  0  0
   26.2921  -19.7417  -14.3695 C   0  0  0  0  0  0  0  0  0  0  0  0
   25.6288  -20.8067  -14.5542 O   0  0  0  0  0  0  0  0  0  0  0  0
   27.2460  -19.7610  -13.3294 N   0  0  0  0  0  0  0  0  0  0  0  0
   27.3403  -20.9135  -12.4119 C   0  0  1  0  0  0  0  0  0  0  0  0
   28.7630  -21.3991  -12.5596 C   0  0  0  0  0  0  0  0  0  0  0  0
   29.0969  -21.9360  -13.8910 C   0  0  0  0  0  0  0  0  0  0  0  0
   28.3252  -21.9718  -15.0594 C   0  0  0  0  0  0  0  0  0  0  0  0
   29.0210  -22.5582  -16.0573 N   0  0  0  0  0  0  0  0  0  0  0  0
   30.2120  -22.8941  -15.5492 C   0  0  0  0  0  0  0  0  0  0  0  0
   30.2714  -22.5292  -14.2631 N   0  0  0  0  0  0  0  0  0  0  0  0
   26.9343  -20.5477  -11.0646 C   0  0  0  0  0  0  0  0  0  0  0  0
   27.0471  -19.3103  -10.7445 O   0  0  0  0  0  0  0  0  0  0  0  0
   26.4274  -21.3853  -10.0628 N   0  0  0  0  0  0  0  0  0  0  0  0
   25.7032  -20.8691   -8.9220 C   0  0  1  0  0  0  0  0  0  0  0  0
   26.3195  -19.5675   -8.4188 C   0  0  0  0  0  0  0  0  0  0  0  0
   27.6400  -19.8233   -7.8023 C   0  0  0  0  0  0  0  0  0  0  0  0
   28.8508  -19.9511   -8.4903 C   0  0  0  0  0  0  0  0  0  0  0  0
   29.8365  -20.1842   -7.6095 N   0  0  0  0  0  0  0  0  0  0  0  0
   29.3121  -20.2128   -6.3717 C   0  0  0  0  0  0  0  0  0  0  0  0
   29.8766  -20.4024   -5.1052 C   0  0  0  0  0  0  0  0  0  0  0  0
   29.1021  -20.3713   -3.9594 C   0  0  0  0  0  0  0  0  0  0  0  0
   27.7630  -20.1500   -4.1068 C   0  0  0  0  0  0  0  0  0  0  0  0
   27.1526  -19.9587   -5.3177 C   0  0  0  0  0  0  0  0  0  0  0  0
   27.9353  -19.9895   -6.4654 C   0  0  0  0  0  0  0  0  0  0  0  0
   24.2486  -20.7819   -9.1164 C   0  0  0  0  0  0  0  0  0  0  0  0
   23.6429  -20.8848  -10.3639 O   0  0  0  0  0  0  0  0  0  0  0  0
   23.4475  -20.6059   -8.1491 O   0  0  0  0  0  0  0  0  0  0  0  0
  2  1  1  6
  2  4  1  0
  3  2  1  0
  4  5  1  6
  6  8  1  0
  6  4  1  0
  7  6  2  0
  9  8  1  0
  9 16  1  0
  9 10  1  1
 11 12  2  0
 11 10  1  0
 13 12  1  0
 14 15  2  0
 14 13  1  0
 15 11  1  0
 16 18  1  0
 17 16  2  0
 18 19  1  0
 19 20  1  6
 19 30  1  0
 21 20  1  0
 22 21  2  0
 23 22  1  0
 24 23  1  0
 24 29  2  0
 25 24  1  0
 26 25  2  0
 26 27  1  0
 27 28  2  0
 28 29  1  0
 29 21  1  0
 30 32  2  0
 30 31  1  0
M  END
$$$$
