THW.pdb
     RDKit          3D

 32 34  0  0  1  0  0  0  0  0999 V2000
   28.5010  -20.0575  -14.7728 C   0  0  0  0  0  0  0  0  0  0  0  0
   27.5868  -20.0352  -15.9720 C   0  0  1  0  0  0  0  0  0  0  0  0
   28.1812  -20.6327  -17.0810 O   0  0  0  0  0  0  0  0  0  0  0  0
   26.2770  -20.7760  -15.7040 C   0  0  2  0  0  0  0  0  0  0  0  0
   25.5309  -20.7398  -16.9382 N   0  0  0  0  0  0  0  0  0  0  0  0
   25.5405  -20.2459  -14.5502 C   0  0  0  0  0  0  0  0  0  0  0  0
   25.6739  -19.0151  -14.2753 O   0  0  0  0  0  0  0  0  0  0  0  0
   24.6866  -20.9942  -13.7117 N   0  0  0  0  0  0  0  0  0  0  0  0
   24.0826  -20.3843  -12.5107 C   0  0  1  0  0  0  0  0  0  0  0  0
   22.6157  -20.7322  -12.6071 C   0  0  0  0  0  0  0  0  0  0  0  0
   21.8769  -20.0069  -13.6561 C   0  0  0  0  0  0  0  0  0  0  0  0
   22.3456  -19.0988  -14.6139 C   0  0  0  0  0  0  0  0  0  0  0  0
   21.3234  -18.6674  -15.3838 N   0  0  0  0  0  0  0  0  0  0  0  0
   20.2211  -19.2794  -14.9366 C   0  0  0  0  0  0  0  0  0  0  0  0
   20.5354  -20.0792  -13.9109 N   0  0  0  0  0  0  0  0  0  0  0  0
   24.7581  -20.8246  -11.3010 C   0  0  0  0  0  0  0  0  0  0  0  0
   25.0034  -22.0802  -11.2021 O   0  0  0  0  0  0  0  0  0  0  0  0
   25.1817  -20.0410  -10.2199 N   0  0  0  0  0  0  0  0  0  0  0  0
   25.8293  -20.6151   -9.0608 C   0  0  1  0  0  0  0  0  0  0  0  0
   27.0454  -19.7940   -8.6436 C   0  0  0  0  0  0  0  0  0  0  0  0
   27.5865  -20.2857   -7.3571 C   0  0  0  0  0  0  0  0  0  0  0  0
   27.6488  -21.6240   -6.9562 C   0  0  0  0  0  0  0  0  0  0  0  0
   28.1930  -21.6928   -5.7311 N   0  0  0  0  0  0  0  0  0  0  0  0
   28.4880  -20.4475   -5.3188 C   0  0  0  0  0  0  0  0  0  0  0  0
   29.0707  -19.9476   -4.1487 C   0  0  0  0  0  0  0  0  0  0  0  0
   29.2830  -18.5920   -3.9720 C   0  0  0  0  0  0  0  0  0  0  0  0
   28.9018  -17.7552   -4.9811 C   0  0  0  0  0  0  0  0  0  0  0  0
   28.3263  -18.1836   -6.1477 C   0  0  0  0  0  0  0  0  0  0  0  0
   28.1167  -19.5462   -6.3208 C   0  0  0  0  0  0  0  0  0  0  0  0
   24.9210  -20.9105   -7.9433 C   0  0  0  0  0  0  0  0  0  0  0  0
   25.1870  -21.8846   -6.9872 O   0  0  0  0  0  0  0  0  0  0  0  0
   23.8275  -20.2894   -7.7797 O   0  0  0  0  0  0  0  0  0  0  0  0
  2  1  1  1
  2  4  1  0
  3  2  1  0
  4  5  1  6
  6  8  1  0
  6  4  1  0
  7  6  2  0
  9  8  1  0
  9 16  1  0
  9 10  1  1
 11 12  2  0
 11 10  1  0
 13 12  1  0
 14 15  2  0
 14 13  1  0
 15 11  1  0
 16 18  1  0
 17 16  2  0
 18 19  1  0
 19 20  1  1
 19 30  1  0
 21 20  1  0
 22 21  2  0
 23 22  1  0
 24 23  1  0
 24 29  2  0
 25 24  1  0
 26 25  2  0
 26 27  1  0
 27 28  2  0
 28 29  1  0
 29 21  1  0
 30 32  2  0
 30 31  1  0
M  END
$$$$
