THW.pdb
     RDKit          3D

 32 34  0  0  1  0  0  0  0  0999 V2000
   29.1998  -23.4589  -17.7474 C   0  0  0  0  0  0  0  0  0  0  0  0
   28.4989  -22.7603  -16.6094 C   0  0  1  0  0  0  0  0  0  0  0  0
   29.3854  -22.4289  -15.5875 O   0  0  0  0  0  0  0  0  0  0  0  0
   27.8247  -21.4660  -17.0638 C   0  0  2  0  0  0  0  0  0  0  0  0
   28.8372  -20.7007  -17.7495 N   0  0  0  0  0  0  0  0  0  0  0  0
   27.1735  -20.7393  -15.9672 C   0  0  0  0  0  0  0  0  0  0  0  0
   27.6704  -19.6272  -15.6144 O   0  0  0  0  0  0  0  0  0  0  0  0
   26.0295  -21.1744  -15.2643 N   0  0  0  0  0  0  0  0  0  0  0  0
   25.4766  -20.3759  -14.1527 C   0  0  1  0  0  0  0  0  0  0  0  0
   24.0435  -20.1135  -14.5519 C   0  0  0  0  0  0  0  0  0  0  0  0
   23.8648  -19.0269  -15.5315 C   0  0  0  0  0  0  0  0  0  0  0  0
   24.2880  -17.6929  -15.4737 C   0  0  0  0  0  0  0  0  0  0  0  0
   23.9095  -17.0370  -16.5919 N   0  0  0  0  0  0  0  0  0  0  0  0
   23.2577  -17.9222  -17.3542 C   0  0  0  0  0  0  0  0  0  0  0  0
   23.2245  -19.1091  -16.7370 N   0  0  0  0  0  0  0  0  0  0  0  0
   25.6640  -21.0489  -12.8777 C   0  0  0  0  0  0  0  0  0  0  0  0
   25.5206  -22.3239  -12.8722 O   0  0  0  0  0  0  0  0  0  0  0  0
   25.9878  -20.4738  -11.6421 N   0  0  0  0  0  0  0  0  0  0  0  0
   26.1250  -21.2638  -10.4382 C   0  0  1  0  0  0  0  0  0  0  0  0
   27.4628  -21.0012   -9.7540 C   0  0  0  0  0  0  0  0  0  0  0  0
   27.2522  -20.5175   -8.3716 C   0  0  0  0  0  0  0  0  0  0  0  0
   26.0144  -20.2327   -7.7864 C   0  0  0  0  0  0  0  0  0  0  0  0
   26.2081  -19.8120   -6.5265 N   0  0  0  0  0  0  0  0  0  0  0  0
   27.5278  -19.8124   -6.2690 C   0  0  0  0  0  0  0  0  0  0  0  0
   28.2735  -19.4836   -5.1312 C   0  0  0  0  0  0  0  0  0  0  0  0
   29.6531  -19.5856   -5.1199 C   0  0  0  0  0  0  0  0  0  0  0  0
   30.2648  -20.0182   -6.2613 C   0  0  0  0  0  0  0  0  0  0  0  0
   29.5905  -20.3534   -7.4052 C   0  0  0  0  0  0  0  0  0  0  0  0
   28.2049  -20.2505   -7.4108 C   0  0  0  0  0  0  0  0  0  0  0  0
   24.9798  -21.1742   -9.5207 C   0  0  0  0  0  0  0  0  0  0  0  0
   24.6661  -22.1683   -8.6003 O   0  0  0  0  0  0  0  0  0  0  0  0
   24.1988  -20.1750   -9.5112 O   0  0  0  0  0  0  0  0  0  0  0  0
  2  1  1  6
  2  4  1  0
  3  2  1  0
  4  5  1  1
  6  8  1  0
  6  4  1  0
  7  6  2  0
  9  8  1  0
  9 16  1  0
  9 10  1  6
 11 12  2  0
 11 10  1  0
 13 12  1  0
 14 15  2  0
 14 13  1  0
 15 11  1  0
 16 18  1  0
 17 16  2  0
 18 19  1  0
 19 20  1  1
 19 30  1  0
 21 20  1  0
 22 21  2  0
 23 22  1  0
 24 23  1  0
 24 29  2  0
 25 24  1  0
 26 25  2  0
 26 27  1  0
 27 28  2  0
 28 29  1  0
 29 21  1  0
 30 32  2  0
 30 31  1  0
M  END
$$$$
