THW.pdb
     RDKit          3D

 32 34  0  0  1  0  0  0  0  0999 V2000
   29.3872  -25.0143  -18.8670 C   0  0  0  0  0  0  0  0  0  0  0  0
   28.7711  -24.0902  -17.8467 C   0  0  1  0  0  0  0  0  0  0  0  0
   28.0289  -24.7932  -16.9006 O   0  0  0  0  0  0  0  0  0  0  0  0
   29.8304  -23.2893  -17.0900 C   0  0  2  0  0  0  0  0  0  0  0  0
   30.6888  -24.2559  -16.4498 N   0  0  0  0  0  0  0  0  0  0  0  0
   29.2567  -22.3026  -16.1669 C   0  0  0  0  0  0  0  0  0  0  0  0
   29.3157  -22.5478  -14.9241 O   0  0  0  0  0  0  0  0  0  0  0  0
   28.6396  -21.0911  -16.5457 N   0  0  0  0  0  0  0  0  0  0  0  0
   28.1475  -20.1429  -15.5270 C   0  0  1  0  0  0  0  0  0  0  0  0
   27.8571  -18.8767  -16.2978 C   0  0  0  0  0  0  0  0  0  0  0  0
   27.1490  -17.8359  -15.5312 C   0  0  0  0  0  0  0  0  0  0  0  0
   26.6802  -17.8614  -14.2115 C   0  0  0  0  0  0  0  0  0  0  0  0
   26.0838  -16.6884  -13.9082 N   0  0  0  0  0  0  0  0  0  0  0  0
   26.1635  -15.9228  -15.0023 C   0  0  0  0  0  0  0  0  0  0  0  0
   26.7951  -16.5916  -15.9742 N   0  0  0  0  0  0  0  0  0  0  0  0
   27.0287  -20.7017  -14.7855 C   0  0  0  0  0  0  0  0  0  0  0  0
   26.1025  -21.2618  -15.4746 O   0  0  0  0  0  0  0  0  0  0  0  0
   26.8347  -20.7076  -13.3982 N   0  0  0  0  0  0  0  0  0  0  0  0
   25.6890  -21.3425  -12.7845 C   0  0  1  0  0  0  0  0  0  0  0  0
   26.1091  -22.2366  -11.6220 C   0  0  0  0  0  0  0  0  0  0  0  0
   26.4034  -21.4227  -10.4219 C   0  0  0  0  0  0  0  0  0  0  0  0
   25.5022  -20.5756   -9.7693 C   0  0  0  0  0  0  0  0  0  0  0  0
   26.1172  -19.9966   -8.7260 N   0  0  0  0  0  0  0  0  0  0  0  0
   27.3869  -20.4359   -8.6746 C   0  0  0  0  0  0  0  0  0  0  0  0
   28.4482  -20.1730   -7.8010 C   0  0  0  0  0  0  0  0  0  0  0  0
   29.6810  -20.7796   -7.9623 C   0  0  0  0  0  0  0  0  0  0  0  0
   29.8281  -21.6456   -9.0075 C   0  0  0  0  0  0  0  0  0  0  0  0
   28.8287  -21.9423   -9.8955 C   0  0  0  0  0  0  0  0  0  0  0  0
   27.5919  -21.3315   -9.7282 C   0  0  0  0  0  0  0  0  0  0  0  0
   24.5980  -20.4200  -12.4383 C   0  0  0  0  0  0  0  0  0  0  0  0
   23.2735  -20.8248  -12.3138 O   0  0  0  0  0  0  0  0  0  0  0  0
   24.7985  -19.1852  -12.2295 O   0  0  0  0  0  0  0  0  0  0  0  0
  2  1  1  6
  2  4  1  0
  3  2  1  0
  4  5  1  1
  6  8  1  0
  6  4  1  0
  7  6  2  0
  9  8  1  0
  9 16  1  0
  9 10  1  6
 11 12  2  0
 11 10  1  0
 13 12  1  0
 14 15  2  0
 14 13  1  0
 15 11  1  0
 16 18  1  0
 17 16  2  0
 18 19  1  0
 19 20  1  1
 19 30  1  0
 21 20  1  0
 22 21  2  0
 23 22  1  0
 24 23  1  0
 24 29  2  0
 25 24  1  0
 26 25  2  0
 26 27  1  0
 27 28  2  0
 28 29  1  0
 29 21  1  0
 30 32  2  0
 30 31  1  0
M  END
$$$$
