THW.pdb
     RDKit          3D

 32 34  0  0  1  0  0  0  0  0999 V2000
   10.8285  -16.8426    9.4329 C   0  0  0  0  0  0  0  0  0  0  0  0
   11.8731  -16.9086    8.3471 C   0  0  1  0  0  0  0  0  0  0  0  0
   11.7157  -18.0418    7.5526 O   0  0  0  0  0  0  0  0  0  0  0  0
   11.8119  -15.6931    7.4225 C   0  0  2  0  0  0  0  0  0  0  0  0
   10.5031  -15.7107    6.8160 N   0  0  0  0  0  0  0  0  0  0  0  0
   12.9138  -15.6496    6.4537 C   0  0  0  0  0  0  0  0  0  0  0  0
   12.6209  -15.5149    5.2272 O   0  0  0  0  0  0  0  0  0  0  0  0
   14.2857  -15.7445    6.7715 N   0  0  0  0  0  0  0  0  0  0  0  0
   15.3172  -15.5407    5.7354 C   0  0  1  0  0  0  0  0  0  0  0  0
   15.9872  -14.2424    6.1191 C   0  0  0  0  0  0  0  0  0  0  0  0
   17.0777  -13.8216    5.2212 C   0  0  0  0  0  0  0  0  0  0  0  0
   17.0860  -13.6880    3.8270 C   0  0  0  0  0  0  0  0  0  0  0  0
   18.3016  -13.2754    3.4075 N   0  0  0  0  0  0  0  0  0  0  0  0
   19.0613  -13.1453    4.5008 C   0  0  0  0  0  0  0  0  0  0  0  0
   18.3465  -13.4655    5.5859 N   0  0  0  0  0  0  0  0  0  0  0  0
   16.1927  -16.6966    5.6304 C   0  0  0  0  0  0  0  0  0  0  0  0
   16.8186  -17.0443    6.6952 O   0  0  0  0  0  0  0  0  0  0  0  0
   16.4389  -17.4881    4.5013 N   0  0  0  0  0  0  0  0  0  0  0  0
   17.7709  -17.9235    4.1426 C   0  0  1  0  0  0  0  0  0  0  0  0
   18.4508  -16.9187    3.2178 C   0  0  0  0  0  0  0  0  0  0  0  0
   18.8479  -17.5679    1.9489 C   0  0  0  0  0  0  0  0  0  0  0  0
   18.0534  -18.4353    1.1924 C   0  0  0  0  0  0  0  0  0  0  0  0
   18.7414  -18.8339    0.1110 N   0  0  0  0  0  0  0  0  0  0  0  0
   19.9559  -18.2576    0.1349 C   0  0  0  0  0  0  0  0  0  0  0  0
   21.0508  -18.3132   -0.7350 C   0  0  0  0  0  0  0  0  0  0  0  0
   22.2076  -17.5973   -0.4837 C   0  0  0  0  0  0  0  0  0  0  0  0
   22.2455  -16.8331    0.6470 C   0  0  0  0  0  0  0  0  0  0  0  0
   21.2082  -16.7389    1.5362 C   0  0  0  0  0  0  0  0  0  0  0  0
   20.0480  -17.4587    1.2783 C   0  0  0  0  0  0  0  0  0  0  0  0
   18.6088  -18.3152    5.2854 C   0  0  0  0  0  0  0  0  0  0  0  0
   19.1328  -17.3988    6.1906 O   0  0  0  0  0  0  0  0  0  0  0  0
   18.9089  -19.5249    5.5193 O   0  0  0  0  0  0  0  0  0  0  0  0
  2  1  1  1
  2  4  1  0
  3  2  1  0
  4  5  1  6
  6  8  1  0
  6  4  1  0
  7  6  2  0
  9  8  1  0
  9 16  1  0
  9 10  1  1
 11 12  2  0
 11 10  1  0
 13 12  1  0
 14 15  2  0
 14 13  1  0
 15 11  1  0
 16 18  1  0
 17 16  2  0
 18 19  1  0
 19 20  1  1
 19 30  1  0
 21 20  1  0
 22 21  2  0
 23 22  1  0
 24 23  1  0
 24 29  2  0
 25 24  1  0
 26 25  2  0
 26 27  1  0
 27 28  2  0
 28 29  1  0
 29 21  1  0
 30 32  2  0
 30 31  1  0
M  END
$$$$
