THW.pdb
     RDKit          3D

 32 34  0  0  1  0  0  0  0  0999 V2000
   25.4205  -19.9620   -9.8897 C   0  0  0  0  0  0  0  0  0  0  0  0
   25.5343  -21.4198  -10.2590 C   0  0  1  0  0  0  0  0  0  0  0  0
   24.2823  -22.0214  -10.3630 O   0  0  0  0  0  0  0  0  0  0  0  0
   26.2448  -21.6147  -11.5982 C   0  0  2  0  0  0  0  0  0  0  0  0
   27.5978  -21.1509  -11.4104 N   0  0  0  0  0  0  0  0  0  0  0  0
   25.5482  -20.9725  -12.7193 C   0  0  0  0  0  0  0  0  0  0  0  0
   25.7751  -19.7434  -12.9336 O   0  0  0  0  0  0  0  0  0  0  0  0
   24.6388  -21.6107  -13.5899 N   0  0  0  0  0  0  0  0  0  0  0  0
   24.0536  -20.8860  -14.7350 C   0  0  1  0  0  0  0  0  0  0  0  0
   23.9842  -21.9153  -15.8384 C   0  0  0  0  0  0  0  0  0  0  0  0
   23.3956  -21.4297  -17.0994 C   0  0  0  0  0  0  0  0  0  0  0  0
   22.9062  -20.1586  -17.4260 C   0  0  0  0  0  0  0  0  0  0  0  0
   22.4519  -20.1490  -18.6978 N   0  0  0  0  0  0  0  0  0  0  0  0
   22.6413  -21.3812  -19.1826 C   0  0  0  0  0  0  0  0  0  0  0  0
   23.2024  -22.1526  -18.2440 N   0  0  0  0  0  0  0  0  0  0  0  0
   22.7914  -20.2619  -14.3729 C   0  0  0  0  0  0  0  0  0  0  0  0
   22.0276  -20.9228  -13.5816 O   0  0  0  0  0  0  0  0  0  0  0  0
   22.3010  -19.0152  -14.7819 N   0  0  0  0  0  0  0  0  0  0  0  0
   21.0280  -18.5019  -14.3253 C   0  0  1  0  0  0  0  0  0  0  0  0
   20.9896  -16.9784  -14.3931 C   0  0  0  0  0  0  0  0  0  0  0  0
   19.7030  -16.4682  -13.8698 C   0  0  0  0  0  0  0  0  0  0  0  0
   19.3602  -16.3516  -12.5191 C   0  0  0  0  0  0  0  0  0  0  0  0
   18.1157  -15.8583  -12.4207 N   0  0  0  0  0  0  0  0  0  0  0  0
   17.6347  -15.6490  -13.6586 C   0  0  0  0  0  0  0  0  0  0  0  0
   16.4177  -15.1455  -14.1322 C   0  0  0  0  0  0  0  0  0  0  0  0
   16.1708  -15.0144  -15.4870 C   0  0  0  0  0  0  0  0  0  0  0  0
   17.1578  -15.3957  -16.3498 C   0  0  0  0  0  0  0  0  0  0  0  0
   18.3677  -15.8959  -15.9478 C   0  0  0  0  0  0  0  0  0  0  0  0
   18.6112  -16.0242  -14.5859 C   0  0  0  0  0  0  0  0  0  0  0  0
   19.8589  -19.1373  -14.9504 C   0  0  0  0  0  0  0  0  0  0  0  0
   18.7430  -19.5478  -14.2293 O   0  0  0  0  0  0  0  0  0  0  0  0
   19.7943  -19.3528  -16.1985 O   0  0  0  0  0  0  0  0  0  0  0  0
  2  1  1  6
  2  4  1  0
  3  2  1  0
  4  5  1  1
  6  8  1  0
  6  4  1  0
  7  6  2  0
  9  8  1  0
  9 16  1  0
  9 10  1  6
 11 12  2  0
 11 10  1  0
 13 12  1  0
 14 15  2  0
 14 13  1  0
 15 11  1  0
 16 18  1  0
 17 16  2  0
 18 19  1  0
 19 20  1  6
 19 30  1  0
 21 20  1  0
 22 21  2  0
 23 22  1  0
 24 23  1  0
 24 29  2  0
 25 24  1  0
 26 25  2  0
 26 27  1  0
 27 28  2  0
 28 29  1  0
 29 21  1  0
 30 32  2  0
 30 31  1  0
M  END
$$$$
