THW.pdb
     RDKit          3D

 32 34  0  0  1  0  0  0  0  0999 V2000
  -53.5006  -52.6815   -4.6274 C   0  0  0  0  0  0  0  0  0  0  0  0
  -52.9927  -51.3014   -4.2930 C   0  0  1  0  0  0  0  0  0  0  0  0
  -51.7193  -51.0838   -4.8136 O   0  0  0  0  0  0  0  0  0  0  0  0
  -53.9044  -50.2081   -4.8496 C   0  0  2  0  0  0  0  0  0  0  0  0
  -53.5670  -50.0708   -6.2454 N   0  0  0  0  0  0  0  0  0  0  0  0
  -53.8257  -48.9520   -4.0942 C   0  0  0  0  0  0  0  0  0  0  0  0
  -54.8935  -48.2865   -3.9360 O   0  0  0  0  0  0  0  0  0  0  0  0
  -52.6529  -48.4148   -3.5213 N   0  0  0  0  0  0  0  0  0  0  0  0
  -52.6583  -47.8883   -2.1423 C   0  0  1  0  0  0  0  0  0  0  0  0
  -53.3794  -48.9437   -1.3374 C   0  0  0  0  0  0  0  0  0  0  0  0
  -52.7846  -49.2284   -0.0192 C   0  0  0  0  0  0  0  0  0  0  0  0
  -52.9835  -48.5845    1.2087 C   0  0  0  0  0  0  0  0  0  0  0  0
  -52.2343  -49.1712    2.1670 N   0  0  0  0  0  0  0  0  0  0  0  0
  -51.5671  -50.1687    1.5759 C   0  0  0  0  0  0  0  0  0  0  0  0
  -51.8854  -50.2150    0.2769 N   0  0  0  0  0  0  0  0  0  0  0  0
  -51.3124  -47.5647   -1.6977 C   0  0  0  0  0  0  0  0  0  0  0  0
  -51.1741  -46.4864   -1.0161 O   0  0  0  0  0  0  0  0  0  0  0  0
  -50.1360  -48.2917   -1.9203 N   0  0  0  0  0  0  0  0  0  0  0  0
  -48.8423  -47.8142   -1.4835 C   0  0  1  0  0  0  0  0  0  0  0  0
  -48.7955  -47.6530    0.0327 C   0  0  0  0  0  0  0  0  0  0  0  0
  -49.4839  -48.7824    0.6958 C   0  0  0  0  0  0  0  0  0  0  0  0
  -49.3674  -50.1303    0.3418 C   0  0  0  0  0  0  0  0  0  0  0  0
  -50.1377  -50.8687    1.1563 N   0  0  0  0  0  0  0  0  0  0  0  0
  -50.7521  -50.0508    2.0289 C   0  0  0  0  0  0  0  0  0  0  0  0
  -51.6404  -50.2835    3.0850 C   0  0  0  0  0  0  0  0  0  0  0  0
  -52.1280  -49.2452    3.8582 C   0  0  0  0  0  0  0  0  0  0  0  0
  -51.7127  -47.9807    3.5538 C   0  0  0  0  0  0  0  0  0  0  0  0
  -50.8470  -47.6896    2.5334 C   0  0  0  0  0  0  0  0  0  0  0  0
  -50.3590  -48.7363    1.7608 C   0  0  0  0  0  0  0  0  0  0  0  0
  -47.7034  -48.5742   -2.0188 C   0  0  0  0  0  0  0  0  0  0  0  0
  -46.7925  -49.2453   -1.2102 O   0  0  0  0  0  0  0  0  0  0  0  0
  -47.4783  -48.6664   -3.2635 O   0  0  0  0  0  0  0  0  0  0  0  0
  2  1  1  6
  2  4  1  0
  3  2  1  0
  4  5  1  6
  6  8  1  0
  6  4  1  0
  7  6  2  0
  9  8  1  0
  9 16  1  0
  9 10  1  1
 11 12  2  0
 11 10  1  0
 13 12  1  0
 14 15  2  0
 14 13  1  0
 15 11  1  0
 16 18  1  0
 17 16  2  0
 18 19  1  0
 19 20  1  1
 19 30  1  0
 21 20  1  0
 22 21  2  0
 23 22  1  0
 24 23  1  0
 24 29  2  0
 25 24  1  0
 26 25  2  0
 26 27  1  0
 27 28  2  0
 28 29  1  0
 29 21  1  0
 30 32  2  0
 30 31  1  0
M  END
$$$$
