THW.pdb
     RDKit          3D

 32 34  0  0  1  0  0  0  0  0999 V2000
   29.5865  -22.5491  -15.9662 C   0  0  0  0  0  0  0  0  0  0  0  0
   28.3164  -22.3399  -16.7521 C   0  0  1  0  0  0  0  0  0  0  0  0
   27.2228  -22.9336  -16.1264 O   0  0  0  0  0  0  0  0  0  0  0  0
   27.9910  -20.8565  -16.9251 C   0  0  2  0  0  0  0  0  0  0  0  0
   28.9876  -20.3249  -17.8224 N   0  0  0  0  0  0  0  0  0  0  0  0
   27.8955  -20.1347  -15.6504 C   0  0  0  0  0  0  0  0  0  0  0  0
   28.9053  -19.4700  -15.2675 O   0  0  0  0  0  0  0  0  0  0  0  0
   26.7654  -20.1148  -14.8052 N   0  0  0  0  0  0  0  0  0  0  0  0
   26.8093  -19.4248  -13.5010 C   0  0  1  0  0  0  0  0  0  0  0  0
   25.7374  -18.3648  -13.5977 C   0  0  0  0  0  0  0  0  0  0  0  0
   24.3568  -18.8806  -13.5906 C   0  0  0  0  0  0  0  0  0  0  0  0
   23.8971  -20.2036  -13.5770 C   0  0  0  0  0  0  0  0  0  0  0  0
   22.5468  -20.2257  -13.5764 N   0  0  0  0  0  0  0  0  0  0  0  0
   22.1418  -18.9509  -13.5898 C   0  0  0  0  0  0  0  0  0  0  0  0
   23.2068  -18.1407  -13.5971 N   0  0  0  0  0  0  0  0  0  0  0  0
   26.6688  -20.3669  -12.4026 C   0  0  0  0  0  0  0  0  0  0  0  0
   26.1365  -21.5009  -12.6802 O   0  0  0  0  0  0  0  0  0  0  0  0
   27.0484  -20.1907  -11.0658 N   0  0  0  0  0  0  0  0  0  0  0  0
   26.7710  -21.1828  -10.0503 C   0  0  1  0  0  0  0  0  0  0  0  0
   27.9232  -21.2942   -9.0568 C   0  0  0  0  0  0  0  0  0  0  0  0
   27.7236  -20.3629   -7.9245 C   0  0  0  0  0  0  0  0  0  0  0  0
   26.8359  -19.2826   -7.9032 C   0  0  0  0  0  0  0  0  0  0  0  0
   26.9279  -18.6591   -6.7180 N   0  0  0  0  0  0  0  0  0  0  0  0
   27.8435  -19.2941   -5.9656 C   0  0  0  0  0  0  0  0  0  0  0  0
   28.3186  -19.0808   -4.6666 C   0  0  0  0  0  0  0  0  0  0  0  0
   29.2768  -19.9059   -4.1055 C   0  0  0  0  0  0  0  0  0  0  0  0
   29.7461  -20.9384   -4.8655 C   0  0  0  0  0  0  0  0  0  0  0  0
   29.3216  -21.1975   -6.1416 C   0  0  0  0  0  0  0  0  0  0  0  0
   28.3580  -20.3666   -6.6999 C   0  0  0  0  0  0  0  0  0  0  0  0
   25.4606  -21.0348   -9.4004 C   0  0  0  0  0  0  0  0  0  0  0  0
   24.8547  -22.0547   -8.6747 O   0  0  0  0  0  0  0  0  0  0  0  0
   24.7944  -19.9574   -9.4615 O   0  0  0  0  0  0  0  0  0  0  0  0
  2  1  1  1
  2  4  1  0
  3  2  1  0
  4  5  1  6
  6  8  1  0
  6  4  1  0
  7  6  2  0
  9  8  1  0
  9 16  1  0
  9 10  1  6
 11 12  2  0
 11 10  1  0
 13 12  1  0
 14 15  2  0
 14 13  1  0
 15 11  1  0
 16 18  1  0
 17 16  2  0
 18 19  1  0
 19 20  1  1
 19 30  1  0
 21 20  1  0
 22 21  2  0
 23 22  1  0
 24 23  1  0
 24 29  2  0
 25 24  1  0
 26 25  2  0
 26 27  1  0
 27 28  2  0
 28 29  1  0
 29 21  1  0
 30 32  2  0
 30 31  1  0
M  END
$$$$
