THW.pdb
     RDKit          3D

 32 34  0  0  1  0  0  0  0  0999 V2000
   28.9352  -20.0034  -18.3454 C   0  0  0  0  0  0  0  0  0  0  0  0
   28.2164  -19.4921  -17.1221 C   0  0  1  0  0  0  0  0  0  0  0  0
   26.8339  -19.5851  -17.2636 O   0  0  0  0  0  0  0  0  0  0  0  0
   28.5987  -20.2763  -15.8671 C   0  0  2  0  0  0  0  0  0  0  0  0
   28.2857  -21.6576  -16.1412 N   0  0  0  0  0  0  0  0  0  0  0  0
   27.9680  -19.7562  -14.6479 C   0  0  0  0  0  0  0  0  0  0  0  0
   28.2496  -18.5718  -14.2928 O   0  0  0  0  0  0  0  0  0  0  0  0
   27.0650  -20.4664  -13.8279 N   0  0  0  0  0  0  0  0  0  0  0  0
   26.5983  -19.8973  -12.5484 C   0  0  1  0  0  0  0  0  0  0  0  0
   25.4125  -19.0408  -12.9256 C   0  0  0  0  0  0  0  0  0  0  0  0
   24.4791  -19.6648  -13.8804 C   0  0  0  0  0  0  0  0  0  0  0  0
   24.5279  -20.9291  -14.4813 C   0  0  0  0  0  0  0  0  0  0  0  0
   23.4653  -21.0962  -15.2978 N   0  0  0  0  0  0  0  0  0  0  0  0
   22.7469  -19.9699  -15.2284 C   0  0  0  0  0  0  0  0  0  0  0  0
   23.3370  -19.1110  -14.3889 N   0  0  0  0  0  0  0  0  0  0  0  0
   26.3375  -20.9425  -11.5720 C   0  0  0  0  0  0  0  0  0  0  0  0
   26.9078  -22.0742  -11.7727 O   0  0  0  0  0  0  0  0  0  0  0  0
   25.5352  -20.8670  -10.4262 N   0  0  0  0  0  0  0  0  0  0  0  0
   26.0356  -21.2098   -9.1130 C   0  0  1  0  0  0  0  0  0  0  0  0
   27.3975  -20.5723   -8.8564 C   0  0  0  0  0  0  0  0  0  0  0  0
   27.4794  -20.0646   -7.4690 C   0  0  0  0  0  0  0  0  0  0  0  0
   26.5230  -19.2655   -6.8347 C   0  0  0  0  0  0  0  0  0  0  0  0
   26.9334  -18.9930   -5.5861 N   0  0  0  0  0  0  0  0  0  0  0  0
   28.1230  -19.5859   -5.3832 C   0  0  0  0  0  0  0  0  0  0  0  0
   28.9811  -19.6403   -4.2789 C   0  0  0  0  0  0  0  0  0  0  0  0
   30.1692  -20.3475   -4.3240 C   0  0  0  0  0  0  0  0  0  0  0  0
   30.4781  -20.9918   -5.4874 C   0  0  0  0  0  0  0  0  0  0  0  0
   29.6809  -20.9749   -6.6008 C   0  0  0  0  0  0  0  0  0  0  0  0
   28.4879  -20.2643   -6.5498 C   0  0  0  0  0  0  0  0  0  0  0  0
   25.0773  -20.9836   -8.0213 C   0  0  0  0  0  0  0  0  0  0  0  0
   24.9583  -21.8350   -6.9283 O   0  0  0  0  0  0  0  0  0  0  0  0
   24.2917  -19.9881   -8.0078 O   0  0  0  0  0  0  0  0  0  0  0  0
  2  1  1  6
  2  4  1  0
  3  2  1  0
  4  5  1  6
  6  8  1  0
  6  4  1  0
  7  6  2  0
  9  8  1  0
  9 16  1  0
  9 10  1  6
 11 12  2  0
 11 10  1  0
 13 12  1  0
 14 15  2  0
 14 13  1  0
 15 11  1  0
 16 18  1  0
 17 16  2  0
 18 19  1  0
 19 20  1  1
 19 30  1  0
 21 20  1  0
 22 21  2  0
 23 22  1  0
 24 23  1  0
 24 29  2  0
 25 24  1  0
 26 25  2  0
 26 27  1  0
 27 28  2  0
 28 29  1  0
 29 21  1  0
 30 32  2  0
 30 31  1  0
M  END
$$$$
