THW.pdb
     RDKit          3D

 32 34  0  0  1  0  0  0  0  0999 V2000
   21.2752   -4.3694  -14.5613 C   0  0  0  0  0  0  0  0  0  0  0  0
   21.4400   -5.1130  -15.8630 C   0  0  1  0  0  0  0  0  0  0  0  0
   22.6667   -4.8341  -16.4609 O   0  0  0  0  0  0  0  0  0  0  0  0
   21.3630   -6.6270  -15.6683 C   0  0  2  0  0  0  0  0  0  0  0  0
   21.5796   -7.2144  -16.9679 N   0  0  0  0  0  0  0  0  0  0  0  0
   20.1198   -7.0625  -15.0206 C   0  0  0  0  0  0  0  0  0  0  0  0
   19.0407   -6.9624  -15.6792 O   0  0  0  0  0  0  0  0  0  0  0  0
   20.0195   -7.5896  -13.7151 N   0  0  0  0  0  0  0  0  0  0  0  0
   18.7180   -8.0304  -13.1761 C   0  0  1  0  0  0  0  0  0  0  0  0
   18.9482   -9.4631  -12.7561 C   0  0  0  0  0  0  0  0  0  0  0  0
   18.8715  -10.4471  -13.8507 C   0  0  0  0  0  0  0  0  0  0  0  0
   18.6221  -10.2491  -15.2147 C   0  0  0  0  0  0  0  0  0  0  0  0
   18.6392  -11.4319  -15.8661 N   0  0  0  0  0  0  0  0  0  0  0  0
   18.8925  -12.3719  -14.9487 C   0  0  0  0  0  0  0  0  0  0  0  0
   19.0339  -11.8009  -13.7468 N   0  0  0  0  0  0  0  0  0  0  0  0
   18.2502   -7.1334  -12.1320 C   0  0  0  0  0  0  0  0  0  0  0  0
   19.1011   -6.8061  -11.2292 O   0  0  0  0  0  0  0  0  0  0  0  0
   16.9742   -6.5737  -11.9883 N   0  0  0  0  0  0  0  0  0  0  0  0
   16.5302   -5.9794  -10.7464 C   0  0  1  0  0  0  0  0  0  0  0  0
   15.1155   -5.4232  -10.8743 C   0  0  0  0  0  0  0  0  0  0  0  0
   14.7212   -4.7188   -9.6342 C   0  0  0  0  0  0  0  0  0  0  0  0
   15.1326   -3.4362   -9.2583 C   0  0  0  0  0  0  0  0  0  0  0  0
   14.5834   -3.1262   -8.0733 N   0  0  0  0  0  0  0  0  0  0  0  0
   13.8286   -4.1605   -7.6631 C   0  0  0  0  0  0  0  0  0  0  0  0
   13.0378   -4.3674   -6.5271 C   0  0  0  0  0  0  0  0  0  0  0  0
   12.3326   -5.5436   -6.3449 C   0  0  0  0  0  0  0  0  0  0  0  0
   12.4359   -6.4998   -7.3138 C   0  0  0  0  0  0  0  0  0  0  0  0
   13.1935   -6.3566   -8.4457 C   0  0  0  0  0  0  0  0  0  0  0  0
   13.8986   -5.1728   -8.6247 C   0  0  0  0  0  0  0  0  0  0  0  0
   16.7087   -6.8375   -9.5661 C   0  0  0  0  0  0  0  0  0  0  0  0
   17.2019   -6.3668   -8.3542 O   0  0  0  0  0  0  0  0  0  0  0  0
   16.4212   -8.0726   -9.5795 O   0  0  0  0  0  0  0  0  0  0  0  0
  2  1  1  1
  2  4  1  0
  3  2  1  0
  4  5  1  6
  6  8  1  0
  6  4  1  0
  7  6  2  0
  9  8  1  0
  9 16  1  0
  9 10  1  1
 11 12  2  0
 11 10  1  0
 13 12  1  0
 14 15  2  0
 14 13  1  0
 15 11  1  0
 16 18  1  0
 17 16  2  0
 18 19  1  0
 19 20  1  6
 19 30  1  0
 21 20  1  0
 22 21  2  0
 23 22  1  0
 24 23  1  0
 24 29  2  0
 25 24  1  0
 26 25  2  0
 26 27  1  0
 27 28  2  0
 28 29  1  0
 29 21  1  0
 30 32  2  0
 30 31  1  0
M  END
$$$$
