THW.pdb
     RDKit          3D

 32 34  0  0  1  0  0  0  0  0999 V2000
   31.0358  -23.7468  -19.0795 C   0  0  0  0  0  0  0  0  0  0  0  0
   30.5576  -22.6893  -18.1164 C   0  0  1  0  0  0  0  0  0  0  0  0
   30.2729  -21.4923  -18.7694 O   0  0  0  0  0  0  0  0  0  0  0  0
   29.2882  -23.1194  -17.3818 C   0  0  2  0  0  0  0  0  0  0  0  0
   28.2838  -23.3277  -18.3961 N   0  0  0  0  0  0  0  0  0  0  0  0
   28.8833  -22.1780  -16.3308 C   0  0  0  0  0  0  0  0  0  0  0  0
   29.6507  -22.0385  -15.3310 O   0  0  0  0  0  0  0  0  0  0  0  0
   27.7021  -21.4053  -16.3365 N   0  0  0  0  0  0  0  0  0  0  0  0
   27.4366  -20.4232  -15.2670 C   0  0  1  0  0  0  0  0  0  0  0  0
   26.9885  -19.1797  -15.9984 C   0  0  0  0  0  0  0  0  0  0  0  0
   28.0831  -18.3450  -16.5249 C   0  0  0  0  0  0  0  0  0  0  0  0
   29.4661  -18.4613  -16.3356 C   0  0  0  0  0  0  0  0  0  0  0  0
   30.1099  -17.4788  -17.0019 N   0  0  0  0  0  0  0  0  0  0  0  0
   29.1693  -16.7447  -17.6067 C   0  0  0  0  0  0  0  0  0  0  0  0
   27.9603  -17.2487  -17.3329 N   0  0  0  0  0  0  0  0  0  0  0  0
   26.5010  -20.9519  -14.2879 C   0  0  0  0  0  0  0  0  0  0  0  0
   25.4515  -21.5301  -14.7469 O   0  0  0  0  0  0  0  0  0  0  0  0
   26.6044  -20.9112  -12.8915 N   0  0  0  0  0  0  0  0  0  0  0  0
   25.5603  -21.4176  -12.0278 C   0  0  1  0  0  0  0  0  0  0  0  0
   26.1436  -22.0576  -10.7719 C   0  0  0  0  0  0  0  0  0  0  0  0
   26.3274  -21.0433   -9.7104 C   0  0  0  0  0  0  0  0  0  0  0  0
   25.4132  -20.0402   -9.3732 C   0  0  0  0  0  0  0  0  0  0  0  0
   25.9167  -19.3031   -8.3707 N   0  0  0  0  0  0  0  0  0  0  0  0
   27.1264  -19.7894   -8.0421 C   0  0  0  0  0  0  0  0  0  0  0  0
   28.0691  -19.4180   -7.0767 C   0  0  0  0  0  0  0  0  0  0  0  0
   29.2593  -20.1075   -6.9295 C   0  0  0  0  0  0  0  0  0  0  0  0
   29.4845  -21.1658   -7.7621 C   0  0  0  0  0  0  0  0  0  0  0  0
   28.6022  -21.5765   -8.7256 C   0  0  0  0  0  0  0  0  0  0  0  0
   27.4075  -20.8814   -8.8684 C   0  0  0  0  0  0  0  0  0  0  0  0
   24.4903  -20.4514  -11.7398 C   0  0  0  0  0  0  0  0  0  0  0  0
   23.1904  -20.8315  -11.4243 O   0  0  0  0  0  0  0  0  0  0  0  0
   24.6878  -19.1989  -11.7612 O   0  0  0  0  0  0  0  0  0  0  0  0
  2  1  1  6
  2  4  1  0
  3  2  1  0
  4  5  1  6
  6  8  1  0
  6  4  1  0
  7  6  2  0
  9  8  1  0
  9 16  1  0
  9 10  1  6
 11 12  2  0
 11 10  1  0
 13 12  1  0
 14 15  2  0
 14 13  1  0
 15 11  1  0
 16 18  1  0
 17 16  2  0
 18 19  1  0
 19 20  1  1
 19 30  1  0
 21 20  1  0
 22 21  2  0
 23 22  1  0
 24 23  1  0
 24 29  2  0
 25 24  1  0
 26 25  2  0
 26 27  1  0
 27 28  2  0
 28 29  1  0
 29 21  1  0
 30 32  2  0
 30 31  1  0
M  END
$$$$
