THW.pdb
     RDKit          3D

 32 34  0  0  1  0  0  0  0  0999 V2000
   28.0119  -21.2033  -20.0452 C   0  0  0  0  0  0  0  0  0  0  0  0
   27.3307  -20.9339  -18.7269 C   0  0  1  0  0  0  0  0  0  0  0  0
   27.9868  -21.5647  -17.6725 O   0  0  0  0  0  0  0  0  0  0  0  0
   27.2833  -19.4406  -18.4045 C   0  0  2  0  0  0  0  0  0  0  0  0
   28.6469  -18.9722  -18.4520 N   0  0  0  0  0  0  0  0  0  0  0  0
   26.5987  -19.1452  -17.1401 C   0  0  0  0  0  0  0  0  0  0  0  0
   27.2404  -19.3257  -16.0613 O   0  0  0  0  0  0  0  0  0  0  0  0
   25.2746  -18.6716  -17.0188 N   0  0  0  0  0  0  0  0  0  0  0  0
   24.6772  -18.4302  -15.6907 C   0  0  1  0  0  0  0  0  0  0  0  0
   23.8831  -17.1563  -15.8593 C   0  0  0  0  0  0  0  0  0  0  0  0
   24.6921  -15.9248  -15.8959 C   0  0  0  0  0  0  0  0  0  0  0  0
   26.0466  -15.7361  -15.5933 C   0  0  0  0  0  0  0  0  0  0  0  0
   26.3829  -14.4388  -15.7594 N   0  0  0  0  0  0  0  0  0  0  0  0
   25.2756  -13.8032  -16.1587 C   0  0  0  0  0  0  0  0  0  0  0  0
   24.2634  -14.6742  -16.2452 N   0  0  0  0  0  0  0  0  0  0  0  0
   23.9252  -19.5876  -15.2341 C   0  0  0  0  0  0  0  0  0  0  0  0
   23.1805  -20.1702  -16.1015 O   0  0  0  0  0  0  0  0  0  0  0  0
   23.9139  -20.1540  -13.9530 N   0  0  0  0  0  0  0  0  0  0  0  0
   23.1436  -21.3383  -13.6423 C   0  0  1  0  0  0  0  0  0  0  0  0
   23.8330  -22.1820  -12.5746 C   0  0  0  0  0  0  0  0  0  0  0  0
   24.0582  -21.3844  -11.3488 C   0  0  0  0  0  0  0  0  0  0  0  0
   23.0624  -20.7876  -10.5692 C   0  0  0  0  0  0  0  0  0  0  0  0
   23.6347  -20.1414   -9.5412 N   0  0  0  0  0  0  0  0  0  0  0  0
   24.9679  -20.2954   -9.6224 C   0  0  0  0  0  0  0  0  0  0  0  0
   26.0259  -19.8516   -8.8209 C   0  0  0  0  0  0  0  0  0  0  0  0
   27.3389  -20.1662   -9.1220 C   0  0  0  0  0  0  0  0  0  0  0  0
   27.5686  -20.9260  -10.2328 C   0  0  0  0  0  0  0  0  0  0  0  0
   26.5768  -21.3887  -11.0560 C   0  0  0  0  0  0  0  0  0  0  0  0
   25.2595  -21.0712  -10.7482 C   0  0  0  0  0  0  0  0  0  0  0  0
   21.7267  -21.0796  -13.3479 C   0  0  0  0  0  0  0  0  0  0  0  0
   21.2440  -19.8269  -12.9854 O   0  0  0  0  0  0  0  0  0  0  0  0
   20.8474  -21.9916  -13.4068 O   0  0  0  0  0  0  0  0  0  0  0  0
  2  1  1  6
  2  4  1  0
  3  2  1  0
  4  5  1  1
  6  8  1  0
  6  4  1  0
  7  6  2  0
  9  8  1  0
  9 16  1  0
  9 10  1  6
 11 12  2  0
 11 10  1  0
 13 12  1  0
 14 15  2  0
 14 13  1  0
 15 11  1  0
 16 18  1  0
 17 16  2  0
 18 19  1  0
 19 20  1  1
 19 30  1  0
 21 20  1  0
 22 21  2  0
 23 22  1  0
 24 23  1  0
 24 29  2  0
 25 24  1  0
 26 25  2  0
 26 27  1  0
 27 28  2  0
 28 29  1  0
 29 21  1  0
 30 32  2  0
 30 31  1  0
M  END
$$$$
