VWM.pdb
     RDKit          3D

 30 31  0  0  1  0  0  0  0  0999 V2000
   26.7201  -23.0523  -19.5091 C   0  0  0  0  0  0  0  0  0  0  0  0
   25.3843  -22.9285  -18.7837 C   0  0  1  0  0  0  0  0  0  0  0  0
   24.5152  -24.0830  -19.1420 C   0  0  0  0  0  0  0  0  0  0  0  0
   25.6817  -22.7846  -17.3314 C   0  0  2  0  0  0  0  0  0  0  0  0
   26.3702  -23.9588  -16.8293 N   0  0  0  0  0  0  0  0  0  0  0  0
   24.4965  -22.5253  -16.4844 C   0  0  0  0  0  0  0  0  0  0  0  0
   23.8866  -23.4756  -15.9228 O   0  0  0  0  0  0  0  0  0  0  0  0
   23.9786  -21.2241  -16.2520 N   0  0  0  0  0  0  0  0  0  0  0  0
   22.8177  -20.9348  -15.4507 C   0  0  1  0  0  0  0  0  0  0  0  0
   23.0832  -19.7453  -14.5642 C   0  0  0  0  0  0  0  0  0  0  0  0
   21.9771  -19.5488  -13.5934 C   0  0  0  0  0  0  0  0  0  0  0  0
   21.5334  -20.4188  -12.6088 C   0  0  0  0  0  0  0  0  0  0  0  0
   20.5056  -19.8584  -11.9427 N   0  0  0  0  0  0  0  0  0  0  0  0
   20.2496  -18.6374  -12.4546 C   0  0  0  0  0  0  0  0  0  0  0  0
   19.2944  -17.7111  -12.0894 C   0  0  0  0  0  0  0  0  0  0  0  0
   19.2619  -16.5301  -12.7974 C   0  0  0  0  0  0  0  0  0  0  0  0
   20.1646  -16.3087  -13.8299 C   0  0  0  0  0  0  0  0  0  0  0  0
   21.1151  -17.2619  -14.1735 C   0  0  0  0  0  0  0  0  0  0  0  0
   21.1528  -18.4347  -13.4759 C   0  0  0  0  0  0  0  0  0  0  0  0
   21.5904  -20.7924  -16.2465 C   0  0  0  0  0  0  0  0  0  0  0  0
   21.5760  -20.0698  -17.2929 O   0  0  0  0  0  0  0  0  0  0  0  0
   18.4868  -26.3900  -18.5661 C   0  0  0  0  0  0  0  0  0  0  0  0
   17.9929  -25.2435  -17.2971 S   0  0  0  0  0  0  0  0  0  0  0  0
   18.7566  -23.6540  -17.4594 C   0  0  0  0  0  0  0  0  0  0  0  0
   18.4144  -22.6254  -16.4430 C   0  0  0  0  0  0  0  0  0  0  0  0
   19.1229  -21.3058  -16.5770 C   0  0  2  0  0  0  0  0  0  0  0  0
   20.3951  -21.4500  -15.8762 N   0  0  0  0  0  0  0  0  0  0  0  0
   18.3914  -20.2390  -15.8178 C   0  0  0  0  0  0  0  0  0  0  0  0
   18.3913  -20.2154  -14.5748 O   0  0  0  0  0  0  0  0  0  0  0  0
   17.6866  -19.2370  -16.4627 O   0  0  0  0  0  0  0  0  0  0  0  0
  2  1  1  6
  2  3  1  0
  4  2  1  0
  4  5  1  1
  6  7  2  0
  6  4  1  0
  8  6  1  0
  9  8  1  0
 10 11  1  0
  9 10  1  6
 11 12  2  0
 11 19  1  0
 12 13  1  0
 13 14  1  0
 14 15  2  0
 16 15  1  0
 17 16  2  0
 18 19  2  0
 18 17  1  0
 19 14  1  0
 20 21  2  0
 20  9  1  0
 23 22  1  0
 24 25  1  0
 24 23  1  0
 26 25  1  1
 26 27  1  0
 27 20  1  0
 28 26  1  0
 29 28  2  0
 30 28  1  0
M  END
$$$$
