VWM.pdb
     RDKit          3D

 30 31  0  0  1  0  0  0  0  0999 V2000
   29.2145  -18.0664  -16.5605 C   0  0  0  0  0  0  0  0  0  0  0  0
   28.0674  -18.6533  -15.7446 C   0  0  1  0  0  0  0  0  0  0  0  0
   26.7841  -18.4455  -16.4700 C   0  0  0  0  0  0  0  0  0  0  0  0
   28.4112  -20.0737  -15.4570 C   0  0  2  0  0  0  0  0  0  0  0  0
   28.4695  -20.8466  -16.6834 N   0  0  0  0  0  0  0  0  0  0  0  0
   27.4962  -20.7473  -14.5090 C   0  0  0  0  0  0  0  0  0  0  0  0
   26.4384  -21.2990  -14.9178 O   0  0  0  0  0  0  0  0  0  0  0  0
   27.7399  -20.8171  -13.1123 N   0  0  0  0  0  0  0  0  0  0  0  0
   26.8451  -21.4104  -12.1526 C   0  0  1  0  0  0  0  0  0  0  0  0
   27.5826  -21.7109  -10.8731 C   0  0  0  0  0  0  0  0  0  0  0  0
   26.9233  -21.0581   -9.7140 C   0  0  0  0  0  0  0  0  0  0  0  0
   25.5962  -20.6774   -9.5827 C   0  0  0  0  0  0  0  0  0  0  0  0
   25.4059  -20.1184   -8.3722 N   0  0  0  0  0  0  0  0  0  0  0  0
   26.5691  -20.1147   -7.6901 C   0  0  0  0  0  0  0  0  0  0  0  0
   26.8459  -19.6462   -6.4221 C   0  0  0  0  0  0  0  0  0  0  0  0
   28.1422  -19.7744   -5.9744 C   0  0  0  0  0  0  0  0  0  0  0  0
   29.1084  -20.3547   -6.7865 C   0  0  0  0  0  0  0  0  0  0  0  0
   28.7976  -20.8170   -8.0592 C   0  0  0  0  0  0  0  0  0  0  0  0
   27.5148  -20.6931   -8.5092 C   0  0  0  0  0  0  0  0  0  0  0  0
   25.6255  -20.6191  -11.9375 C   0  0  0  0  0  0  0  0  0  0  0  0
   25.6968  -19.4094  -11.5519 O   0  0  0  0  0  0  0  0  0  0  0  0
   22.0798  -21.1265  -17.2540 C   0  0  0  0  0  0  0  0  0  0  0  0
   21.8116  -20.4366  -15.6351 S   0  0  0  0  0  0  0  0  0  0  0  0
   23.3097  -20.2083  -14.7187 C   0  0  0  0  0  0  0  0  0  0  0  0
   23.2096  -19.5135  -13.4090 C   0  0  0  0  0  0  0  0  0  0  0  0
   23.1065  -20.4005  -12.1992 C   0  0  2  0  0  0  0  0  0  0  0  0
   24.3432  -21.1744  -12.1511 N   0  0  0  0  0  0  0  0  0  0  0  0
   22.0268  -21.4239  -12.3902 C   0  0  0  0  0  0  0  0  0  0  0  0
   20.8250  -21.1211  -12.2921 O   0  0  0  0  0  0  0  0  0  0  0  0
   22.3172  -22.7455  -12.6831 O   0  0  0  0  0  0  0  0  0  0  0  0
  2  1  1  6
  2  3  1  0
  4  2  1  0
  4  5  1  6
  6  7  2  0
  6  4  1  0
  8  6  1  0
  9  8  1  0
 10 11  1  0
  9 10  1  1
 11 12  2  0
 11 19  1  0
 12 13  1  0
 13 14  1  0
 14 15  2  0
 16 15  1  0
 17 16  2  0
 18 19  2  0
 18 17  1  0
 19 14  1  0
 20 21  2  0
 20  9  1  0
 23 22  1  0
 24 25  1  0
 24 23  1  0
 26 25  1  6
 26 27  1  0
 27 20  1  0
 28 26  1  0
 29 28  2  0
 30 28  1  0
M  END
$$$$
