VWM.pdb
     RDKit          3D

 30 31  0  0  1  0  0  0  0  0999 V2000
   26.8527  -18.7964  -15.1563 C   0  0  0  0  0  0  0  0  0  0  0  0
   27.4032  -20.0639  -15.8014 C   0  0  1  0  0  0  0  0  0  0  0  0
   28.2463  -19.6995  -16.9731 C   0  0  0  0  0  0  0  0  0  0  0  0
   28.0987  -20.8365  -14.7348 C   0  0  2  0  0  0  0  0  0  0  0  0
   28.5775  -22.1058  -15.2490 N   0  0  0  0  0  0  0  0  0  0  0  0
   27.2826  -21.0863  -13.5260 C   0  0  0  0  0  0  0  0  0  0  0  0
   26.3566  -21.9423  -13.5405 O   0  0  0  0  0  0  0  0  0  0  0  0
   27.4809  -20.3984  -12.3002 N   0  0  0  0  0  0  0  0  0  0  0  0
   26.6499  -20.5461  -11.1334 C   0  0  1  0  0  0  0  0  0  0  0  0
   27.2482  -19.7943   -9.9724 C   0  0  0  0  0  0  0  0  0  0  0  0
   26.5459  -20.1248   -8.7068 C   0  0  0  0  0  0  0  0  0  0  0  0
   25.2601  -20.6174   -8.5410 C   0  0  0  0  0  0  0  0  0  0  0  0
   25.0068  -20.7822   -7.2285 N   0  0  0  0  0  0  0  0  0  0  0  0
   26.0878  -20.4133   -6.5116 C   0  0  0  0  0  0  0  0  0  0  0  0
   26.2813  -20.4130   -5.1455 C   0  0  0  0  0  0  0  0  0  0  0  0
   27.5040  -19.9774   -4.6845 C   0  0  0  0  0  0  0  0  0  0  0  0
   28.4814  -19.5620   -5.5800 C   0  0  0  0  0  0  0  0  0  0  0  0
   28.2556  -19.5744   -6.9508 C   0  0  0  0  0  0  0  0  0  0  0  0
   27.0459  -20.0050   -7.4145 C   0  0  0  0  0  0  0  0  0  0  0  0
   25.2446  -20.1937  -11.3798 C   0  0  0  0  0  0  0  0  0  0  0  0
   24.9045  -18.9849  -11.5803 O   0  0  0  0  0  0  0  0  0  0  0  0
   20.4735  -25.1139  -11.4343 C   0  0  0  0  0  0  0  0  0  0  0  0
   20.0328  -23.8812  -12.6405 S   0  0  0  0  0  0  0  0  0  0  0  0
   20.7845  -22.3073  -12.3340 C   0  0  0  0  0  0  0  0  0  0  0  0
   22.2490  -22.2878  -12.0829 C   0  0  0  0  0  0  0  0  0  0  0  0
   22.8516  -20.9384  -11.8049 C   0  0  2  0  0  0  0  0  0  0  0  0
   24.2332  -21.1812  -11.4016 N   0  0  0  0  0  0  0  0  0  0  0  0
   22.2096  -20.3159  -10.6008 C   0  0  0  0  0  0  0  0  0  0  0  0
   22.4978  -20.6880   -9.4501 O   0  0  0  0  0  0  0  0  0  0  0  0
   21.2719  -19.3038  -10.7147 O   0  0  0  0  0  0  0  0  0  0  0  0
  2  1  1  1
  2  3  1  0
  4  2  1  0
  4  5  1  6
  6  7  2  0
  6  4  1  0
  8  6  1  0
  9  8  1  0
 10 11  1  0
  9 10  1  1
 11 12  2  0
 11 19  1  0
 12 13  1  0
 13 14  1  0
 14 15  2  0
 16 15  1  0
 17 16  2  0
 18 19  2  0
 18 17  1  0
 19 14  1  0
 20 21  2  0
 20  9  1  0
 23 22  1  0
 24 25  1  0
 24 23  1  0
 26 25  1  1
 26 27  1  0
 27 20  1  0
 28 26  1  0
 29 28  2  0
 30 28  1  0
M  END
$$$$
