VWM.pdb
     RDKit          3D

 30 31  0  0  1  0  0  0  0  0999 V2000
   28.8276  -18.2022  -17.4440 C   0  0  0  0  0  0  0  0  0  0  0  0
   27.8265  -18.7311  -16.4221 C   0  0  1  0  0  0  0  0  0  0  0  0
   26.4617  -18.7301  -17.0167 C   0  0  0  0  0  0  0  0  0  0  0  0
   28.3199  -20.0608  -15.9674 C   0  0  2  0  0  0  0  0  0  0  0  0
   28.3477  -21.0030  -17.0704 N   0  0  0  0  0  0  0  0  0  0  0  0
   27.5500  -20.6527  -14.8510 C   0  0  0  0  0  0  0  0  0  0  0  0
   26.4819  -21.2863  -15.0706 O   0  0  0  0  0  0  0  0  0  0  0  0
   27.9501  -20.5508  -13.4928 N   0  0  0  0  0  0  0  0  0  0  0  0
   27.1603  -20.9870  -12.3705 C   0  0  1  0  0  0  0  0  0  0  0  0
   27.9888  -20.9601  -11.1118 C   0  0  0  0  0  0  0  0  0  0  0  0
   27.1235  -20.9807   -9.9056 C   0  0  0  0  0  0  0  0  0  0  0  0
   25.8554  -21.5250   -9.7670 C   0  0  0  0  0  0  0  0  0  0  0  0
   25.4176  -21.3316   -8.5082 N   0  0  0  0  0  0  0  0  0  0  0  0
   26.3578  -20.6729   -7.8007 C   0  0  0  0  0  0  0  0  0  0  0  0
   26.3442  -20.2645   -6.4828 C   0  0  0  0  0  0  0  0  0  0  0  0
   27.4591  -19.6017   -6.0192 C   0  0  0  0  0  0  0  0  0  0  0  0
   28.5362  -19.3685   -6.8651 C   0  0  0  0  0  0  0  0  0  0  0  0
   28.5191  -19.7928   -8.1879 C   0  0  0  0  0  0  0  0  0  0  0  0
   27.4172  -20.4503   -8.6539 C   0  0  0  0  0  0  0  0  0  0  0  0
   25.8944  -20.2523  -12.2378 C   0  0  0  0  0  0  0  0  0  0  0  0
   25.8913  -18.9969  -12.0351 O   0  0  0  0  0  0  0  0  0  0  0  0
   18.6053  -20.6232  -15.1504 C   0  0  0  0  0  0  0  0  0  0  0  0
   20.2486  -21.2844  -14.9736 S   0  0  0  0  0  0  0  0  0  0  0  0
   21.1872  -20.4856  -13.7020 C   0  0  0  0  0  0  0  0  0  0  0  0
   22.5988  -20.9145  -13.5241 C   0  0  0  0  0  0  0  0  0  0  0  0
   23.3589  -20.2360  -12.4182 C   0  0  2  0  0  0  0  0  0  0  0  0
   24.6486  -20.9139  -12.3307 N   0  0  0  0  0  0  0  0  0  0  0  0
   22.7033  -20.4975  -11.0948 C   0  0  0  0  0  0  0  0  0  0  0  0
   22.6339  -21.6460  -10.6239 O   0  0  0  0  0  0  0  0  0  0  0  0
   22.1484  -19.4776  -10.3408 O   0  0  0  0  0  0  0  0  0  0  0  0
  2  1  1  6
  2  3  1  0
  4  2  1  0
  4  5  1  6
  6  7  2  0
  6  4  1  0
  8  6  1  0
  9  8  1  0
 10 11  1  0
  9 10  1  1
 11 12  2  0
 11 19  1  0
 12 13  1  0
 13 14  1  0
 14 15  2  0
 16 15  1  0
 17 16  2  0
 18 19  2  0
 18 17  1  0
 19 14  1  0
 20 21  2  0
 20  9  1  0
 23 22  1  0
 24 25  1  0
 24 23  1  0
 26 25  1  6
 26 27  1  0
 27 20  1  0
 28 26  1  0
 29 28  2  0
 30 28  1  0
M  END
$$$$
