VWM.pdb
     RDKit          3D

 30 31  0  0  1  0  0  0  0  0999 V2000
   26.0662  -25.7421  -16.1451 C   0  0  0  0  0  0  0  0  0  0  0  0
   26.4860  -24.4248  -16.7889 C   0  0  1  0  0  0  0  0  0  0  0  0
   26.6460  -24.6175  -18.2564 C   0  0  0  0  0  0  0  0  0  0  0  0
   25.4835  -23.3984  -16.3890 C   0  0  2  0  0  0  0  0  0  0  0  0
   25.7657  -22.1278  -17.0300 N   0  0  0  0  0  0  0  0  0  0  0  0
   25.3723  -23.1844  -14.9291 C   0  0  0  0  0  0  0  0  0  0  0  0
   25.0513  -24.1328  -14.1624 O   0  0  0  0  0  0  0  0  0  0  0  0
   25.6130  -21.9307  -14.3082 N   0  0  0  0  0  0  0  0  0  0  0  0
   25.4674  -21.6724  -12.8990 C   0  0  1  0  0  0  0  0  0  0  0  0
   26.5460  -20.7298  -12.4307 C   0  0  0  0  0  0  0  0  0  0  0  0
   26.6321  -19.5397  -13.3143 C   0  0  0  0  0  0  0  0  0  0  0  0
   25.9035  -18.3618  -13.2426 C   0  0  0  0  0  0  0  0  0  0  0  0
   26.2875  -17.5339  -14.2330 N   0  0  0  0  0  0  0  0  0  0  0  0
   27.2529  -18.1256  -14.9654 C   0  0  0  0  0  0  0  0  0  0  0  0
   27.9361  -17.6550  -16.0680 C   0  0  0  0  0  0  0  0  0  0  0  0
   28.8839  -18.4870  -16.6218 C   0  0  0  0  0  0  0  0  0  0  0  0
   29.1205  -19.7407  -16.0723 C   0  0  0  0  0  0  0  0  0  0  0  0
   28.4155  -20.1857  -14.9610 C   0  0  0  0  0  0  0  0  0  0  0  0
   27.4746  -19.3661  -14.4072 C   0  0  0  0  0  0  0  0  0  0  0  0
   24.1168  -21.2231  -12.5332 C   0  0  0  0  0  0  0  0  0  0  0  0
   23.3499  -20.6993  -13.4019 O   0  0  0  0  0  0  0  0  0  0  0  0
   19.3960  -23.9834   -7.9968 C   0  0  0  0  0  0  0  0  0  0  0  0
   20.2491  -22.4994   -7.5082 S   0  0  0  0  0  0  0  0  0  0  0  0
   20.6973  -21.4709   -8.8784 C   0  0  0  0  0  0  0  0  0  0  0  0
   22.0278  -21.7016   -9.4985 C   0  0  0  0  0  0  0  0  0  0  0  0
   22.2939  -20.9627  -10.7808 C   0  0  2  0  0  0  0  0  0  0  0  0
   23.6309  -21.3583  -11.2126 N   0  0  0  0  0  0  0  0  0  0  0  0
   22.3998  -19.4888  -10.5239 C   0  0  0  0  0  0  0  0  0  0  0  0
   23.4848  -18.9617  -10.2232 O   0  0  0  0  0  0  0  0  0  0  0  0
   21.3001  -18.6521  -10.6094 O   0  0  0  0  0  0  0  0  0  0  0  0
  2  1  1  1
  2  3  1  0
  4  2  1  0
  4  5  1  6
  6  7  2  0
  6  4  1  0
  8  6  1  0
  9  8  1  0
 10 11  1  0
  9 10  1  6
 11 12  2  0
 11 19  1  0
 12 13  1  0
 13 14  1  0
 14 15  2  0
 16 15  1  0
 17 16  2  0
 18 19  2  0
 18 17  1  0
 19 14  1  0
 20 21  2  0
 20  9  1  0
 23 22  1  0
 24 25  1  0
 24 23  1  0
 26 25  1  1
 26 27  1  0
 27 20  1  0
 28 26  1  0
 29 28  2  0
 30 28  1  0
M  END
$$$$
