VWM.pdb
     RDKit          3D

 30 31  0  0  1  0  0  0  0  0999 V2000
   26.9755  -21.9445  -16.4840 C   0  0  0  0  0  0  0  0  0  0  0  0
   26.0163  -23.1193  -16.6445 C   0  0  1  0  0  0  0  0  0  0  0  0
   26.4749  -23.9861  -17.7646 C   0  0  0  0  0  0  0  0  0  0  0  0
   25.9172  -23.7931  -15.3199 C   0  0  2  0  0  0  0  0  0  0  0  0
   24.9790  -24.8983  -15.3748 N   0  0  0  0  0  0  0  0  0  0  0  0
   25.5399  -22.8992  -14.2027 C   0  0  0  0  0  0  0  0  0  0  0  0
   24.3748  -22.4228  -14.1252 O   0  0  0  0  0  0  0  0  0  0  0  0
   26.4392  -22.5269  -13.1694 N   0  0  0  0  0  0  0  0  0  0  0  0
   26.1403  -21.5840  -12.1228 C   0  0  1  0  0  0  0  0  0  0  0  0
   26.9650  -21.8894  -10.8989 C   0  0  0  0  0  0  0  0  0  0  0  0
   26.5039  -21.0915   -9.7349 C   0  0  0  0  0  0  0  0  0  0  0  0
   25.2762  -20.4738   -9.5487 C   0  0  0  0  0  0  0  0  0  0  0  0
   25.2621  -19.8510   -8.3546 N   0  0  0  0  0  0  0  0  0  0  0  0
   26.4465  -20.0351   -7.7368 C   0  0  0  0  0  0  0  0  0  0  0  0
   26.8786  -19.5835   -6.5067 C   0  0  0  0  0  0  0  0  0  0  0  0
   28.1560  -19.9288   -6.1242 C   0  0  0  0  0  0  0  0  0  0  0  0
   28.9525  -20.6996   -6.9617 C   0  0  0  0  0  0  0  0  0  0  0  0
   28.4879  -21.1390   -8.1950 C   0  0  0  0  0  0  0  0  0  0  0  0
   27.2227  -20.8005   -8.5803 C   0  0  0  0  0  0  0  0  0  0  0  0
   26.2588  -20.1852  -12.5579 C   0  0  0  0  0  0  0  0  0  0  0  0
   27.3572  -19.5571  -12.4304 O   0  0  0  0  0  0  0  0  0  0  0  0
   29.0104  -18.4824  -16.4985 C   0  0  0  0  0  0  0  0  0  0  0  0
   28.1600  -16.9205  -16.4213 S   0  0  0  0  0  0  0  0  0  0  0  0
   26.6872  -16.9776  -15.4394 C   0  0  0  0  0  0  0  0  0  0  0  0
   26.4981  -18.1610  -14.5609 C   0  0  0  0  0  0  0  0  0  0  0  0
   25.2435  -18.1722  -13.7320 C   0  0  2  0  0  0  0  0  0  0  0  0
   25.1626  -19.4984  -13.1279 N   0  0  0  0  0  0  0  0  0  0  0  0
   24.0328  -18.0829  -14.6128 C   0  0  0  0  0  0  0  0  0  0  0  0
   23.3238  -19.0786  -14.8392 O   0  0  0  0  0  0  0  0  0  0  0  0
   23.6512  -16.8940  -15.2108 O   0  0  0  0  0  0  0  0  0  0  0  0
  2  1  1  1
  2  3  1  0
  4  2  1  0
  4  5  1  6
  6  7  2  0
  6  4  1  0
  8  6  1  0
  9  8  1  0
 10 11  1  0
  9 10  1  1
 11 12  2  0
 11 19  1  0
 12 13  1  0
 13 14  1  0
 14 15  2  0
 16 15  1  0
 17 16  2  0
 18 19  2  0
 18 17  1  0
 19 14  1  0
 20 21  2  0
 20  9  1  0
 23 22  1  0
 24 25  1  0
 24 23  1  0
 26 25  1  6
 26 27  1  0
 27 20  1  0
 28 26  1  0
 29 28  2  0
 30 28  1  0
M  END
$$$$
