VWM.pdb
     RDKit          3D

 30 31  0  0  1  0  0  0  0  0999 V2000
   22.2970  -11.0682  -14.5466 C   0  0  0  0  0  0  0  0  0  0  0  0
   23.3919  -11.1901  -15.6012 C   0  0  1  0  0  0  0  0  0  0  0  0
   24.3337  -12.2770  -15.2167 C   0  0  0  0  0  0  0  0  0  0  0  0
   22.7191  -11.3694  -16.9179 C   0  0  2  0  0  0  0  0  0  0  0  0
   23.6944  -11.6122  -17.9642 N   0  0  0  0  0  0  0  0  0  0  0  0
   21.8521  -10.2410  -17.3234 C   0  0  0  0  0  0  0  0  0  0  0  0
   22.3435   -9.1031  -17.5555 O   0  0  0  0  0  0  0  0  0  0  0  0
   20.4456  -10.3589  -17.4751 N   0  0  0  0  0  0  0  0  0  0  0  0
   19.5601   -9.2668  -17.7863 C   0  0  1  0  0  0  0  0  0  0  0  0
   18.2813   -9.7913  -18.3869 C   0  0  0  0  0  0  0  0  0  0  0  0
   17.4896   -8.6920  -18.9944 C   0  0  0  0  0  0  0  0  0  0  0  0
   17.9276   -7.6828  -19.8390 C   0  0  0  0  0  0  0  0  0  0  0  0
   16.8909   -6.8874  -20.1653 N   0  0  0  0  0  0  0  0  0  0  0  0
   15.7715   -7.3365  -19.5623 C   0  0  0  0  0  0  0  0  0  0  0  0
   14.4851   -6.8398  -19.6094 C   0  0  0  0  0  0  0  0  0  0  0  0
   13.5258   -7.5110  -18.8838 C   0  0  0  0  0  0  0  0  0  0  0  0
   13.8680   -8.6369  -18.1454 C   0  0  0  0  0  0  0  0  0  0  0  0
   15.1732   -9.1123  -18.1186 C   0  0  0  0  0  0  0  0  0  0  0  0
   16.1289   -8.4518  -18.8356 C   0  0  0  0  0  0  0  0  0  0  0  0
   19.3303   -8.3695  -16.6453 C   0  0  0  0  0  0  0  0  0  0  0  0
   19.0386   -8.8386  -15.4998 O   0  0  0  0  0  0  0  0  0  0  0  0
   23.2039   -4.0610  -13.5920 C   0  0  0  0  0  0  0  0  0  0  0  0
   21.8863   -3.1452  -14.3628 S   0  0  0  0  0  0  0  0  0  0  0  0
   20.4091   -4.0981  -14.5775 C   0  0  0  0  0  0  0  0  0  0  0  0
   20.4449   -5.1967  -15.5775 C   0  0  0  0  0  0  0  0  0  0  0  0
   19.1879   -6.0119  -15.7056 C   0  0  2  0  0  0  0  0  0  0  0  0
   19.4257   -6.9660  -16.7844 N   0  0  0  0  0  0  0  0  0  0  0  0
   18.0575   -5.1579  -16.1980 C   0  0  0  0  0  0  0  0  0  0  0  0
   17.1923   -4.7199  -15.4201 O   0  0  0  0  0  0  0  0  0  0  0  0
   17.9263   -4.8199  -17.5341 O   0  0  0  0  0  0  0  0  0  0  0  0
  2  1  1  1
  2  3  1  0
  4  2  1  0
  4  5  1  6
  6  7  2  0
  6  4  1  0
  8  6  1  0
  9  8  1  0
 10 11  1  0
  9 10  1  1
 11 12  2  0
 11 19  1  0
 12 13  1  0
 13 14  1  0
 14 15  2  0
 16 15  1  0
 17 16  2  0
 18 19  2  0
 18 17  1  0
 19 14  1  0
 20 21  2  0
 20  9  1  0
 23 22  1  0
 24 25  1  0
 24 23  1  0
 26 25  1  6
 26 27  1  0
 27 20  1  0
 28 26  1  0
 29 28  2  0
 30 28  1  0
M  END
$$$$
