VWM.pdb
     RDKit          3D

 30 31  0  0  1  0  0  0  0  0999 V2000
   27.9093  -18.6078  -15.2828 C   0  0  0  0  0  0  0  0  0  0  0  0
   27.8596  -17.9197  -16.6429 C   0  0  1  0  0  0  0  0  0  0  0  0
   29.2019  -17.9865  -17.2832 C   0  0  0  0  0  0  0  0  0  0  0  0
   26.7548  -18.5507  -17.4173 C   0  0  2  0  0  0  0  0  0  0  0  0
   26.7096  -18.0254  -18.7689 N   0  0  0  0  0  0  0  0  0  0  0  0
   25.4159  -18.4098  -16.8034 C   0  0  0  0  0  0  0  0  0  0  0  0
   24.9664  -17.2728  -16.4939 O   0  0  0  0  0  0  0  0  0  0  0  0
   24.5682  -19.5148  -16.5284 N   0  0  0  0  0  0  0  0  0  0  0  0
   23.2783  -19.4209  -15.8951 C   0  0  1  0  0  0  0  0  0  0  0  0
   22.1856  -19.5071  -16.9295 C   0  0  0  0  0  0  0  0  0  0  0  0
   21.9219  -18.1778  -17.5358 C   0  0  0  0  0  0  0  0  0  0  0  0
   22.6925  -17.4860  -18.4584 C   0  0  0  0  0  0  0  0  0  0  0  0
   22.0984  -16.3136  -18.7523 N   0  0  0  0  0  0  0  0  0  0  0  0
   20.9515  -16.2020  -18.0518 C   0  0  0  0  0  0  0  0  0  0  0  0
   20.0248  -15.1799  -18.0353 C   0  0  0  0  0  0  0  0  0  0  0  0
   18.9314  -15.3369  -17.2124 C   0  0  0  0  0  0  0  0  0  0  0  0
   18.7941  -16.4857  -16.4434 C   0  0  0  0  0  0  0  0  0  0  0  0
   19.7454  -17.4975  -16.4825 C   0  0  0  0  0  0  0  0  0  0  0  0
   20.8315  -17.3484  -17.2960 C   0  0  0  0  0  0  0  0  0  0  0  0
   23.1047  -20.3834  -14.7982 C   0  0  0  0  0  0  0  0  0  0  0  0
   23.2353  -21.6316  -15.0036 O   0  0  0  0  0  0  0  0  0  0  0  0
   26.3776  -21.1788   -9.0872 C   0  0  0  0  0  0  0  0  0  0  0  0
   25.4059  -20.3839  -10.3492 S   0  0  0  0  0  0  0  0  0  0  0  0
   23.6632  -20.4791  -10.0492 C   0  0  0  0  0  0  0  0  0  0  0  0
   22.7585  -19.9798  -11.1171 C   0  0  0  0  0  0  0  0  0  0  0  0
   22.6440  -20.8453  -12.3413 C   0  0  2  0  0  0  0  0  0  0  0  0
   22.7891  -19.9547  -13.4886 N   0  0  0  0  0  0  0  0  0  0  0  0
   21.2550  -21.3978  -12.4644 C   0  0  0  0  0  0  0  0  0  0  0  0
   20.3597  -20.7692  -13.0549 O   0  0  0  0  0  0  0  0  0  0  0  0
   20.9081  -22.6264  -11.9289 O   0  0  0  0  0  0  0  0  0  0  0  0
  2  1  1  1
  2  3  1  0
  4  2  1  0
  4  5  1  6
  6  7  2  0
  6  4  1  0
  8  6  1  0
  9  8  1  0
 10 11  1  0
  9 10  1  6
 11 12  2  0
 11 19  1  0
 12 13  1  0
 13 14  1  0
 14 15  2  0
 16 15  1  0
 17 16  2  0
 18 19  2  0
 18 17  1  0
 19 14  1  0
 20 21  2  0
 20  9  1  0
 23 22  1  0
 24 25  1  0
 24 23  1  0
 26 25  1  1
 26 27  1  0
 27 20  1  0
 28 26  1  0
 29 28  2  0
 30 28  1  0
M  END
$$$$
