VWM.pdb
     RDKit          3D

 30 31  0  0  1  0  0  0  0  0999 V2000
   29.2362  -18.5775  -15.4450 C   0  0  0  0  0  0  0  0  0  0  0  0
   29.0955  -17.6777  -16.6683 C   0  0  1  0  0  0  0  0  0  0  0  0
   30.4225  -17.5194  -17.3242 C   0  0  0  0  0  0  0  0  0  0  0  0
   28.0287  -18.2632  -17.5272 C   0  0  2  0  0  0  0  0  0  0  0  0
   27.8940  -17.5133  -18.7619 N   0  0  0  0  0  0  0  0  0  0  0  0
   26.7023  -18.3605  -16.8786 C   0  0  0  0  0  0  0  0  0  0  0  0
   25.9929  -17.3320  -16.7071 O   0  0  0  0  0  0  0  0  0  0  0  0
   26.1521  -19.5852  -16.4174 N   0  0  0  0  0  0  0  0  0  0  0  0
   24.8825  -19.7139  -15.7503 C   0  0  1  0  0  0  0  0  0  0  0  0
   23.8137  -20.1002  -16.7401 C   0  0  0  0  0  0  0  0  0  0  0  0
   22.4703  -20.0745  -16.1084 C   0  0  0  0  0  0  0  0  0  0  0  0
   21.7873  -18.9866  -15.5855 C   0  0  0  0  0  0  0  0  0  0  0  0
   20.5956  -19.3913  -15.1061 N   0  0  0  0  0  0  0  0  0  0  0  0
   20.4624  -20.7201  -15.2940 C   0  0  0  0  0  0  0  0  0  0  0  0
   19.4159  -21.5565  -14.9637 C   0  0  0  0  0  0  0  0  0  0  0  0
   19.5542  -22.8901  -15.2792 C   0  0  0  0  0  0  0  0  0  0  0  0
   20.7092  -23.3450  -15.9029 C   0  0  0  0  0  0  0  0  0  0  0  0
   21.7457  -22.4769  -16.2226 C   0  0  0  0  0  0  0  0  0  0  0  0
   21.6151  -21.1538  -15.9128 C   0  0  0  0  0  0  0  0  0  0  0  0
   24.9331  -20.6082  -14.5851 C   0  0  0  0  0  0  0  0  0  0  0  0
   25.9596  -21.3247  -14.3615 O   0  0  0  0  0  0  0  0  0  0  0  0
   27.8909  -20.8402   -9.2868 C   0  0  0  0  0  0  0  0  0  0  0  0
   26.2597  -20.1372   -9.1699 S   0  0  0  0  0  0  0  0  0  0  0  0
   25.0597  -20.9962  -10.1488 C   0  0  0  0  0  0  0  0  0  0  0  0
   24.9397  -20.6070  -11.5779 C   0  0  0  0  0  0  0  0  0  0  0  0
   23.9126  -21.3567  -12.3806 C   0  0  2  0  0  0  0  0  0  0  0  0
   23.8492  -20.6993  -13.6822 N   0  0  0  0  0  0  0  0  0  0  0  0
   22.5461  -21.1650  -11.7927 C   0  0  0  0  0  0  0  0  0  0  0  0
   21.8621  -22.1333  -11.4186 O   0  0  0  0  0  0  0  0  0  0  0  0
   21.9868  -19.9077  -11.6405 O   0  0  0  0  0  0  0  0  0  0  0  0
  2  1  1  1
  2  3  1  0
  4  2  1  0
  4  5  1  6
  6  7  2  0
  6  4  1  0
  8  6  1  0
  9  8  1  0
 10 11  1  0
  9 10  1  6
 11 12  2  0
 11 19  1  0
 12 13  1  0
 13 14  1  0
 14 15  2  0
 16 15  1  0
 17 16  2  0
 18 19  2  0
 18 17  1  0
 19 14  1  0
 20 21  2  0
 20  9  1  0
 23 22  1  0
 24 25  1  0
 24 23  1  0
 26 25  1  1
 26 27  1  0
 27 20  1  0
 28 26  1  0
 29 28  2  0
 30 28  1  0
M  END
$$$$
