VWM.pdb
     RDKit          3D

 30 31  0  0  1  0  0  0  0  0999 V2000
   22.6068  -20.1376  -11.9255 C   0  0  0  0  0  0  0  0  0  0  0  0
   22.3947  -20.1481  -13.4357 C   0  0  1  0  0  0  0  0  0  0  0  0
   21.1149  -19.4614  -13.7628 C   0  0  0  0  0  0  0  0  0  0  0  0
   23.6108  -19.5534  -14.0569 C   0  0  2  0  0  0  0  0  0  0  0  0
   23.4252  -19.3790  -15.4851 N   0  0  0  0  0  0  0  0  0  0  0  0
   24.8557  -20.3191  -13.8255 C   0  0  0  0  0  0  0  0  0  0  0  0
   25.0413  -21.4313  -14.3901 O   0  0  0  0  0  0  0  0  0  0  0  0
   25.8983  -19.8664  -12.9750 N   0  0  0  0  0  0  0  0  0  0  0  0
   27.1067  -20.5989  -12.6980 C   0  0  1  0  0  0  0  0  0  0  0  0
   28.3072  -19.8097  -13.1533 C   0  0  0  0  0  0  0  0  0  0  0  0
   28.1627  -19.3933  -14.5710 C   0  0  0  0  0  0  0  0  0  0  0  0
   28.5022  -20.1023  -15.7137 C   0  0  0  0  0  0  0  0  0  0  0  0
   28.2092  -19.3670  -16.8033 N   0  0  0  0  0  0  0  0  0  0  0  0
   27.6830  -18.1857  -16.4212 C   0  0  0  0  0  0  0  0  0  0  0  0
   27.2406  -17.1282  -17.1892 C   0  0  0  0  0  0  0  0  0  0  0  0
   26.7437  -16.0312  -16.5206 C   0  0  0  0  0  0  0  0  0  0  0  0
   26.7021  -16.0182  -15.1321 C   0  0  0  0  0  0  0  0  0  0  0  0
   27.1555  -17.0995  -14.3870 C   0  0  0  0  0  0  0  0  0  0  0  0
   27.6492  -18.1901  -15.0433 C   0  0  0  0  0  0  0  0  0  0  0  0
   27.2066  -21.0355  -11.2982 C   0  0  0  0  0  0  0  0  0  0  0  0
   28.0897  -21.8789  -10.9433 O   0  0  0  0  0  0  0  0  0  0  0  0
   28.2818  -19.1880   -4.1241 C   0  0  0  0  0  0  0  0  0  0  0  0
   27.7284  -18.6521   -5.7289 S   0  0  0  0  0  0  0  0  0  0  0  0
   26.9535  -19.9409   -6.6642 C   0  0  0  0  0  0  0  0  0  0  0  0
   27.0031  -19.8335   -8.1455 C   0  0  0  0  0  0  0  0  0  0  0  0
   26.3430  -20.9481   -8.9090 C   0  0  2  0  0  0  0  0  0  0  0  0
   26.3297  -20.5349  -10.3089 N   0  0  0  0  0  0  0  0  0  0  0  0
   24.8952  -21.0556   -8.5323 C   0  0  0  0  0  0  0  0  0  0  0  0
   23.9975  -20.6662   -9.2992 O   0  0  0  0  0  0  0  0  0  0  0  0
   24.4941  -21.5906   -7.3201 O   0  0  0  0  0  0  0  0  0  0  0  0
  2  1  1  1
  2  3  1  0
  4  2  1  0
  4  5  1  6
  6  7  2  0
  6  4  1  0
  8  6  1  0
  9  8  1  0
 10 11  1  0
  9 10  1  1
 11 12  2  0
 11 19  1  0
 12 13  1  0
 13 14  1  0
 14 15  2  0
 16 15  1  0
 17 16  2  0
 18 19  2  0
 18 17  1  0
 19 14  1  0
 20 21  2  0
 20  9  1  0
 23 22  1  0
 24 25  1  0
 24 23  1  0
 26 25  1  1
 26 27  1  0
 27 20  1  0
 28 26  1  0
 29 28  2  0
 30 28  1  0
M  END
$$$$
