VWM.pdb
     RDKit          3D

 30 31  0  0  1  0  0  0  0  0999 V2000
   29.1439  -19.1939  -14.1273 C   0  0  0  0  0  0  0  0  0  0  0  0
   28.1126  -18.5288  -15.0327 C   0  0  1  0  0  0  0  0  0  0  0  0
   28.6964  -18.3277  -16.3873 C   0  0  0  0  0  0  0  0  0  0  0  0
   26.8815  -19.3661  -14.9900 C   0  0  2  0  0  0  0  0  0  0  0  0
   25.9339  -18.9382  -16.0018 N   0  0  0  0  0  0  0  0  0  0  0  0
   26.2011  -19.3913  -13.6763 C   0  0  0  0  0  0  0  0  0  0  0  0
   25.7610  -18.3287  -13.1591 O   0  0  0  0  0  0  0  0  0  0  0  0
   26.0024  -20.5813  -12.9282 N   0  0  0  0  0  0  0  0  0  0  0  0
   25.3447  -20.6452  -11.6488 C   0  0  1  0  0  0  0  0  0  0  0  0
   24.1022  -21.4926  -11.7464 C   0  0  0  0  0  0  0  0  0  0  0  0
   23.0047  -20.7510  -12.4172 C   0  0  0  0  0  0  0  0  0  0  0  0
   22.8212  -20.5296  -13.7739 C   0  0  0  0  0  0  0  0  0  0  0  0
   21.6985  -19.8106  -13.9648 N   0  0  0  0  0  0  0  0  0  0  0  0
   21.1258  -19.5449  -12.7732 C   0  0  0  0  0  0  0  0  0  0  0  0
   19.9723  -18.8444  -12.4862 C   0  0  0  0  0  0  0  0  0  0  0  0
   19.6215  -18.7286  -11.1593 C   0  0  0  0  0  0  0  0  0  0  0  0
   20.4144  -19.3029  -10.1737 C   0  0  0  0  0  0  0  0  0  0  0  0
   21.5707  -20.0026  -10.4954 C   0  0  0  0  0  0  0  0  0  0  0  0
   21.9242  -20.1212  -11.8087 C   0  0  0  0  0  0  0  0  0  0  0  0
   26.2401  -21.0661  -10.5621 C   0  0  0  0  0  0  0  0  0  0  0  0
   26.9818  -22.0908  -10.6929 O   0  0  0  0  0  0  0  0  0  0  0  0
   29.3772  -19.0567   -3.5646 C   0  0  0  0  0  0  0  0  0  0  0  0
   28.5884  -18.5739   -5.0857 S   0  0  0  0  0  0  0  0  0  0  0  0
   27.9168  -19.9428   -5.9865 C   0  0  0  0  0  0  0  0  0  0  0  0
   27.4013  -19.6730   -7.3538 C   0  0  0  0  0  0  0  0  0  0  0  0
   26.8926  -20.8669   -8.1133 C   0  0  2  0  0  0  0  0  0  0  0  0
   26.3046  -20.3497   -9.3451 N   0  0  0  0  0  0  0  0  0  0  0  0
   25.7461  -21.5022   -7.3843 C   0  0  0  0  0  0  0  0  0  0  0  0
   25.9232  -22.1383   -6.3309 O   0  0  0  0  0  0  0  0  0  0  0  0
   24.4450  -21.4099   -7.8482 O   0  0  0  0  0  0  0  0  0  0  0  0
  2  1  1  1
  2  3  1  0
  4  2  1  0
  4  5  1  6
  6  7  2  0
  6  4  1  0
  8  6  1  0
  9  8  1  0
 10 11  1  0
  9 10  1  6
 11 12  2  0
 11 19  1  0
 12 13  1  0
 13 14  1  0
 14 15  2  0
 16 15  1  0
 17 16  2  0
 18 19  2  0
 18 17  1  0
 19 14  1  0
 20 21  2  0
 20  9  1  0
 23 22  1  0
 24 25  1  0
 24 23  1  0
 26 25  1  1
 26 27  1  0
 27 20  1  0
 28 26  1  0
 29 28  2  0
 30 28  1  0
M  END
$$$$
