VWM.pdb
     RDKit          3D

 30 31  0  0  1  0  0  0  0  0999 V2000
   15.3311  -15.7748  -20.3319 C   0  0  0  0  0  0  0  0  0  0  0  0
   15.8751  -17.1885  -20.1543 C   0  0  1  0  0  0  0  0  0  0  0  0
   16.6360  -17.5847  -21.3710 C   0  0  0  0  0  0  0  0  0  0  0  0
   16.6539  -17.2061  -18.8849 C   0  0  2  0  0  0  0  0  0  0  0  0
   17.8506  -16.3946  -19.0050 N   0  0  0  0  0  0  0  0  0  0  0  0
   17.0359  -18.5570  -18.4173 C   0  0  0  0  0  0  0  0  0  0  0  0
   17.0770  -19.5282  -19.2207 O   0  0  0  0  0  0  0  0  0  0  0  0
   17.3735  -18.8446  -17.0688 N   0  0  0  0  0  0  0  0  0  0  0  0
   17.7121  -20.1521  -16.5694 C   0  0  1  0  0  0  0  0  0  0  0  0
   19.0773  -20.1258  -15.9315 C   0  0  0  0  0  0  0  0  0  0  0  0
   20.1190  -19.7518  -16.9210 C   0  0  0  0  0  0  0  0  0  0  0  0
   20.6807  -18.5040  -17.1473 C   0  0  0  0  0  0  0  0  0  0  0  0
   21.5924  -18.5931  -18.1346 N   0  0  0  0  0  0  0  0  0  0  0  0
   21.6560  -19.8661  -18.5751 C   0  0  0  0  0  0  0  0  0  0  0  0
   22.4424  -20.4177  -19.5657 C   0  0  0  0  0  0  0  0  0  0  0  0
   22.2955  -21.7660  -19.8062 C   0  0  0  0  0  0  0  0  0  0  0  0
   21.3868  -22.5132  -19.0674 C   0  0  0  0  0  0  0  0  0  0  0  0
   20.6091  -21.9278  -18.0761 C   0  0  0  0  0  0  0  0  0  0  0  0
   20.7497  -20.5919  -17.8325 C   0  0  0  0  0  0  0  0  0  0  0  0
   16.6799  -20.7164  -15.6884 C   0  0  0  0  0  0  0  0  0  0  0  0
   16.2064  -20.0351  -14.7247 O   0  0  0  0  0  0  0  0  0  0  0  0
   11.2260  -26.4926  -15.7905 C   0  0  0  0  0  0  0  0  0  0  0  0
   12.7132  -25.7848  -16.4658 S   0  0  0  0  0  0  0  0  0  0  0  0
   13.3751  -24.4768  -15.4723 C   0  0  0  0  0  0  0  0  0  0  0  0
   14.5367  -23.7269  -16.0169 C   0  0  0  0  0  0  0  0  0  0  0  0
   15.0414  -22.5900  -15.1721 C   0  0  2  0  0  0  0  0  0  0  0  0
   16.1843  -22.0259  -15.8835 N   0  0  0  0  0  0  0  0  0  0  0  0
   15.6139  -23.1070  -13.8857 C   0  0  0  0  0  0  0  0  0  0  0  0
   14.8960  -23.2941  -12.8881 O   0  0  0  0  0  0  0  0  0  0  0  0
   16.9606  -23.3980  -13.7510 O   0  0  0  0  0  0  0  0  0  0  0  0
  2  1  1  6
  2  3  1  0
  4  2  1  0
  4  5  1  6
  6  7  2  0
  6  4  1  0
  8  6  1  0
  9  8  1  0
 10 11  1  0
  9 10  1  1
 11 12  2  0
 11 19  1  0
 12 13  1  0
 13 14  1  0
 14 15  2  0
 16 15  1  0
 17 16  2  0
 18 19  2  0
 18 17  1  0
 19 14  1  0
 20 21  2  0
 20  9  1  0
 23 22  1  0
 24 25  1  0
 24 23  1  0
 26 25  1  6
 26 27  1  0
 27 20  1  0
 28 26  1  0
 29 28  2  0
 30 28  1  0
M  END
$$$$
