VWM.pdb
     RDKit          3D

 30 31  0  0  1  0  0  0  0  0999 V2000
   22.2312  -19.5644  -15.9523 C   0  0  0  0  0  0  0  0  0  0  0  0
   22.8238  -20.2286  -14.7139 C   0  0  1  0  0  0  0  0  0  0  0  0
   22.1042  -21.5029  -14.4408 C   0  0  0  0  0  0  0  0  0  0  0  0
   24.2892  -20.3638  -14.9434 C   0  0  2  0  0  0  0  0  0  0  0  0
   24.5535  -21.2147  -16.0884 N   0  0  0  0  0  0  0  0  0  0  0  0
   25.0484  -20.8753  -13.7809 C   0  0  0  0  0  0  0  0  0  0  0  0
   25.2574  -22.1112  -13.6422 O   0  0  0  0  0  0  0  0  0  0  0  0
   25.5794  -20.0326  -12.7694 N   0  0  0  0  0  0  0  0  0  0  0  0
   26.2105  -20.4987  -11.5619 C   0  0  1  0  0  0  0  0  0  0  0  0
   27.3952  -19.6292  -11.2273 C   0  0  0  0  0  0  0  0  0  0  0  0
   28.2955  -20.3069  -10.2607 C   0  0  0  0  0  0  0  0  0  0  0  0
   29.1872  -21.3424  -10.4975 C   0  0  0  0  0  0  0  0  0  0  0  0
   29.8137  -21.6682   -9.3506 N   0  0  0  0  0  0  0  0  0  0  0  0
   29.3657  -20.8790   -8.3531 C   0  0  0  0  0  0  0  0  0  0  0  0
   29.7218  -20.8555   -7.0203 C   0  0  0  0  0  0  0  0  0  0  0  0
   29.0919  -19.9296   -6.2182 C   0  0  0  0  0  0  0  0  0  0  0  0
   28.1429  -19.0693   -6.7558 C   0  0  0  0  0  0  0  0  0  0  0  0
   27.8062  -19.1180   -8.1028 C   0  0  0  0  0  0  0  0  0  0  0  0
   28.4267  -20.0333   -8.9034 C   0  0  0  0  0  0  0  0  0  0  0  0
   25.2715  -20.6421  -10.4405 C   0  0  0  0  0  0  0  0  0  0  0  0
   24.3605  -19.7772  -10.2426 O   0  0  0  0  0  0  0  0  0  0  0  0
   27.2685  -21.1704   -4.4933 C   0  0  0  0  0  0  0  0  0  0  0  0
   25.5831  -20.5992   -4.5358 S   0  0  0  0  0  0  0  0  0  0  0  0
   24.6605  -21.2535   -5.8985 C   0  0  0  0  0  0  0  0  0  0  0  0
   25.3292  -21.2803   -7.2253 C   0  0  0  0  0  0  0  0  0  0  0  0
   24.5370  -21.8877   -8.3499 C   0  0  2  0  0  0  0  0  0  0  0  0
   25.3510  -21.7390   -9.5523 N   0  0  0  0  0  0  0  0  0  0  0  0
   23.3065  -21.0746   -8.6229 C   0  0  0  0  0  0  0  0  0  0  0  0
   22.2017  -21.3970   -8.1527 O   0  0  0  0  0  0  0  0  0  0  0  0
   23.3444  -19.9339   -9.4065 O   0  0  0  0  0  0  0  0  0  0  0  0
  2  1  1  6
  2  3  1  0
  4  2  1  0
  4  5  1  6
  6  7  2  0
  6  4  1  0
  8  6  1  0
  9  8  1  0
 10 11  1  0
  9 10  1  1
 11 12  2  0
 11 19  1  0
 12 13  1  0
 13 14  1  0
 14 15  2  0
 16 15  1  0
 17 16  2  0
 18 19  2  0
 18 17  1  0
 19 14  1  0
 20 21  2  0
 20  9  1  0
 23 22  1  0
 24 25  1  0
 24 23  1  0
 26 25  1  1
 26 27  1  0
 27 20  1  0
 28 26  1  0
 29 28  2  0
 30 28  1  0
M  END
$$$$
