VWM.pdb
     RDKit          3D

 30 31  0  0  1  0  0  0  0  0999 V2000
   27.1541  -18.1521  -14.2807 C   0  0  0  0  0  0  0  0  0  0  0  0
   28.0120  -19.2513  -14.8986 C   0  0  1  0  0  0  0  0  0  0  0  0
   29.0934  -18.6370  -15.7167 C   0  0  0  0  0  0  0  0  0  0  0  0
   28.4765  -20.1267  -13.7868 C   0  0  2  0  0  0  0  0  0  0  0  0
   29.2612  -21.2344  -14.2988 N   0  0  0  0  0  0  0  0  0  0  0  0
   27.3933  -20.6615  -12.9323 C   0  0  0  0  0  0  0  0  0  0  0  0
   26.7181  -21.6612  -13.2998 O   0  0  0  0  0  0  0  0  0  0  0  0
   27.0492  -20.1011  -11.6743 N   0  0  0  0  0  0  0  0  0  0  0  0
   25.9741  -20.5655  -10.8364 C   0  0  1  0  0  0  0  0  0  0  0  0
   26.0874  -19.9563   -9.4625 C   0  0  0  0  0  0  0  0  0  0  0  0
   27.2386  -20.5294   -8.7205 C   0  0  0  0  0  0  0  0  0  0  0  0
   28.2099  -21.4043   -9.1839 C   0  0  0  0  0  0  0  0  0  0  0  0
   29.0778  -21.6799   -8.1916 N   0  0  0  0  0  0  0  0  0  0  0  0
   28.7140  -21.0135   -7.0772 C   0  0  0  0  0  0  0  0  0  0  0  0
   29.3035  -20.9940   -5.8298 C   0  0  0  0  0  0  0  0  0  0  0  0
   28.7071  -20.2119   -4.8655 C   0  0  0  0  0  0  0  0  0  0  0  0
   27.5618  -19.4848   -5.1647 C   0  0  0  0  0  0  0  0  0  0  0  0
   26.9922  -19.5255   -6.4312 C   0  0  0  0  0  0  0  0  0  0  0  0
   27.5782  -20.2987   -7.3917 C   0  0  0  0  0  0  0  0  0  0  0  0
   24.6486  -20.3710  -11.4407 C   0  0  0  0  0  0  0  0  0  0  0  0
   24.2557  -19.2110  -11.7830 O   0  0  0  0  0  0  0  0  0  0  0  0
   21.8867  -25.6793  -14.0524 C   0  0  0  0  0  0  0  0  0  0  0  0
   20.6261  -24.4719  -14.4015 S   0  0  0  0  0  0  0  0  0  0  0  0
   20.9523  -22.8931  -13.6685 C   0  0  0  0  0  0  0  0  0  0  0  0
   22.2573  -22.7168  -12.9801 C   0  0  0  0  0  0  0  0  0  0  0  0
   22.4997  -21.3668  -12.3636 C   0  0  2  0  0  0  0  0  0  0  0  0
   23.7746  -21.4603  -11.6591 N   0  0  0  0  0  0  0  0  0  0  0  0
   21.4915  -21.0938  -11.2872 C   0  0  0  0  0  0  0  0  0  0  0  0
   21.6968  -21.4327  -10.1088 O   0  0  0  0  0  0  0  0  0  0  0  0
   20.2926  -20.4553  -11.5549 O   0  0  0  0  0  0  0  0  0  0  0  0
  2  1  1  1
  2  3  1  0
  4  2  1  0
  4  5  1  6
  6  7  2  0
  6  4  1  0
  8  6  1  0
  9  8  1  0
 10 11  1  0
  9 10  1  1
 11 12  2  0
 11 19  1  0
 12 13  1  0
 13 14  1  0
 14 15  2  0
 16 15  1  0
 17 16  2  0
 18 19  2  0
 18 17  1  0
 19 14  1  0
 20 21  2  0
 20  9  1  0
 23 22  1  0
 24 25  1  0
 24 23  1  0
 26 25  1  1
 26 27  1  0
 27 20  1  0
 28 26  1  0
 29 28  2  0
 30 28  1  0
M  END
$$$$
