VWM.pdb
     RDKit          3D

 30 31  0  0  1  0  0  0  0  0999 V2000
   29.5603  -18.5790  -18.0609 C   0  0  0  0  0  0  0  0  0  0  0  0
   28.3608  -18.8487  -17.1585 C   0  0  1  0  0  0  0  0  0  0  0  0
   28.7715  -18.7183  -15.7335 C   0  0  0  0  0  0  0  0  0  0  0  0
   27.2681  -17.9334  -17.5905 C   0  0  2  0  0  0  0  0  0  0  0  0
   27.7165  -16.5538  -17.5727 N   0  0  0  0  0  0  0  0  0  0  0  0
   26.0246  -18.0435  -16.7961 C   0  0  0  0  0  0  0  0  0  0  0  0
   25.8869  -17.3948  -15.7234 O   0  0  0  0  0  0  0  0  0  0  0  0
   24.9309  -18.8645  -17.1766 N   0  0  0  0  0  0  0  0  0  0  0  0
   23.7708  -19.1146  -16.3611 C   0  0  1  0  0  0  0  0  0  0  0  0
   22.5841  -19.4366  -17.2325 C   0  0  0  0  0  0  0  0  0  0  0  0
   21.3381  -19.5077  -16.4284 C   0  0  0  0  0  0  0  0  0  0  0  0
   20.6588  -18.4729  -15.8030 C   0  0  0  0  0  0  0  0  0  0  0  0
   19.5715  -18.9619  -15.1765 N   0  0  0  0  0  0  0  0  0  0  0  0
   19.5046  -20.2954  -15.3656 C   0  0  0  0  0  0  0  0  0  0  0  0
   18.5702  -21.2041  -14.9128 C   0  0  0  0  0  0  0  0  0  0  0  0
   18.7551  -22.5230  -15.2643 C   0  0  0  0  0  0  0  0  0  0  0  0
   19.8449  -22.8931  -16.0423 C   0  0  0  0  0  0  0  0  0  0  0  0
   20.7687  -21.9536  -16.4828 C   0  0  0  0  0  0  0  0  0  0  0  0
   20.5914  -20.6447  -16.1381 C   0  0  0  0  0  0  0  0  0  0  0  0
   24.0066  -20.1247  -15.3199 C   0  0  0  0  0  0  0  0  0  0  0  0
   24.9529  -20.9664  -15.4352 O   0  0  0  0  0  0  0  0  0  0  0  0
   26.7947  -19.6908   -9.3492 C   0  0  0  0  0  0  0  0  0  0  0  0
   25.1517  -20.3158   -9.6300 S   0  0  0  0  0  0  0  0  0  0  0  0
   25.0247  -21.3082  -11.0912 C   0  0  0  0  0  0  0  0  0  0  0  0
   24.6701  -20.6162  -12.3575 C   0  0  0  0  0  0  0  0  0  0  0  0
   23.4241  -21.1005  -13.0461 C   0  0  2  0  0  0  0  0  0  0  0  0
   23.1940  -20.1920  -14.1651 N   0  0  0  0  0  0  0  0  0  0  0  0
   22.2296  -20.9170  -12.1578 C   0  0  0  0  0  0  0  0  0  0  0  0
   21.7287  -21.8743  -11.5427 O   0  0  0  0  0  0  0  0  0  0  0  0
   21.6331  -19.6800  -11.9830 O   0  0  0  0  0  0  0  0  0  0  0  0
  2  1  1  6
  2  3  1  0
  4  2  1  0
  4  5  1  1
  6  7  2  0
  6  4  1  0
  8  6  1  0
  9  8  1  0
 10 11  1  0
  9 10  1  6
 11 12  2  0
 11 19  1  0
 12 13  1  0
 13 14  1  0
 14 15  2  0
 16 15  1  0
 17 16  2  0
 18 19  2  0
 18 17  1  0
 19 14  1  0
 20 21  2  0
 20  9  1  0
 23 22  1  0
 24 25  1  0
 24 23  1  0
 26 25  1  1
 26 27  1  0
 27 20  1  0
 28 26  1  0
 29 28  2  0
 30 28  1  0
M  END
$$$$
