PYA.pdb
     RDKit          3D

 25 26  0  0  1  0  0  0  0  0999 V2000
   28.4405  -19.9434  -17.3756 N   0  0  0  0  0  0  0  0  0  0  0  0
   29.4856  -19.5466  -18.3288 C   0  0  0  0  0  0  0  0  0  0  0  0
   29.4307  -18.0149  -18.3585 C   0  0  0  0  0  0  0  0  0  0  0  0
   28.4187  -17.6643  -17.2572 C   0  0  0  0  0  0  0  0  0  0  0  0
   28.5496  -18.8984  -16.3911 C   0  0  1  0  0  0  0  0  0  0  0  0
   27.5684  -18.9856  -15.3102 C   0  0  0  0  0  0  0  0  0  0  0  0
   27.5860  -18.1034  -14.4155 O   0  0  0  0  0  0  0  0  0  0  0  0
   19.7404  -20.1955  -11.8421 O   0  0  0  0  0  0  0  0  0  0  0  0
   20.8580  -20.2968  -12.6670 C   0  0  0  0  0  0  0  0  0  0  0  0
   21.2326  -19.3014  -13.5333 C   0  0  0  0  0  0  0  0  0  0  0  0
   22.3417  -19.4382  -14.3313 C   0  0  0  0  0  0  0  0  0  0  0  0
   23.1200  -20.5736  -14.2955 C   0  0  0  0  0  0  0  0  0  0  0  0
   24.3305  -20.6954  -15.1792 C   0  0  0  0  0  0  0  0  0  0  0  0
   25.4802  -20.0863  -14.4791 C   0  0  2  0  0  0  0  0  0  0  0  0
   26.6416  -20.0645  -15.3249 N   0  0  0  0  0  0  0  0  0  0  0  0
   25.8373  -20.7184  -13.1840 C   0  0  0  0  0  0  0  0  0  0  0  0
   26.2826  -21.8946  -13.2124 O   0  0  0  0  0  0  0  0  0  0  0  0
   22.7628  -21.5798  -13.4368 C   0  0  0  0  0  0  0  0  0  0  0  0
   21.6479  -21.4303  -12.6416 C   0  0  0  0  0  0  0  0  0  0  0  0
   26.8146  -19.7359   -9.8601 C   0  0  0  0  0  0  0  0  0  0  0  0
   26.0262  -20.7265  -10.7188 C   0  0  2  0  0  0  0  0  0  0  0  0
   25.6957  -20.0544  -11.9449 N   0  0  0  0  0  0  0  0  0  0  0  0
   24.8116  -21.0861   -9.9408 C   0  0  0  0  0  0  0  0  0  0  0  0
   24.9446  -21.7437   -8.8786 O   0  0  0  0  0  0  0  0  0  0  0  0
   23.5808  -20.6761  -10.4272 O   0  0  0  0  0  0  0  0  0  0  0  0
  1  2  1  0
  3  2  1  0
  4  5  1  0
  4  3  1  0
  5  6  1  1
  5  1  1  0
  6  7  2  0
  8  9  1  0
  9 19  2  0
  9 10  1  0
 10 11  2  0
 11 12  1  0
 12 13  1  0
 14 13  1  6
 15  6  1  0
 15 14  1  0
 16 14  1  0
 16 17  2  0
 18 12  2  0
 19 18  1  0
 21 20  1  1
 21 22  1  0
 21 23  1  0
 22 16  1  0
 23 24  2  0
 23 25  1  0
M  END
$$$$
