PYA.pdb
     RDKit          3D

 25 26  0  0  1  0  0  0  0  0999 V2000
   27.3709  -21.4748  -17.2860 N   0  0  0  0  0  0  0  0  0  0  0  0
   27.9773  -21.8617  -18.5670 C   0  0  0  0  0  0  0  0  0  0  0  0
   28.6165  -23.2298  -18.3030 C   0  0  0  0  0  0  0  0  0  0  0  0
   28.1624  -23.5760  -16.8768 C   0  0  0  0  0  0  0  0  0  0  0  0
   26.8982  -22.7472  -16.8056 C   0  0  1  0  0  0  0  0  0  0  0  0
   26.2809  -22.6982  -15.4809 C   0  0  0  0  0  0  0  0  0  0  0  0
   25.7829  -23.7537  -15.0150 O   0  0  0  0  0  0  0  0  0  0  0  0
   24.8285  -20.2766   -7.2719 O   0  0  0  0  0  0  0  0  0  0  0  0
   25.3103  -20.3397   -8.5771 C   0  0  0  0  0  0  0  0  0  0  0  0
   25.3681  -19.2435   -9.3997 C   0  0  0  0  0  0  0  0  0  0  0  0
   25.8499  -19.3454  -10.6816 C   0  0  0  0  0  0  0  0  0  0  0  0
   26.2928  -20.5451  -11.1920 C   0  0  0  0  0  0  0  0  0  0  0  0
   26.8175  -20.6270  -12.5988 C   0  0  0  0  0  0  0  0  0  0  0  0
   25.8260  -21.3479  -13.4234 C   0  0  2  0  0  0  0  0  0  0  0  0
   26.2749  -21.4582  -14.7839 N   0  0  0  0  0  0  0  0  0  0  0  0
   24.4574  -20.7727  -13.4112 C   0  0  0  0  0  0  0  0  0  0  0  0
   24.2066  -19.8470  -14.2254 O   0  0  0  0  0  0  0  0  0  0  0  0
   26.2435  -21.6523  -10.3863 C   0  0  0  0  0  0  0  0  0  0  0  0
   25.7579  -21.5368   -9.1024 C   0  0  0  0  0  0  0  0  0  0  0  0
   22.2969  -19.1414  -12.7438 C   0  0  0  0  0  0  0  0  0  0  0  0
   22.1289  -20.6540  -12.5882 C   0  0  2  0  0  0  0  0  0  0  0  0
   23.4472  -21.2226  -12.5317 N   0  0  0  0  0  0  0  0  0  0  0  0
   21.3764  -21.1203  -13.7824 C   0  0  0  0  0  0  0  0  0  0  0  0
   21.9555  -21.8667  -14.6106 O   0  0  0  0  0  0  0  0  0  0  0  0
   20.0621  -20.7067  -13.9271 O   0  0  0  0  0  0  0  0  0  0  0  0
  1  2  1  0
  3  2  1  0
  4  5  1  0
  4  3  1  0
  5  6  1  1
  5  1  1  0
  6  7  2  0
  8  9  1  0
  9 19  2  0
  9 10  1  0
 10 11  2  0
 11 12  1  0
 12 13  1  0
 14 13  1  1
 15  6  1  0
 15 14  1  0
 16 14  1  0
 16 17  2  0
 18 12  2  0
 19 18  1  0
 21 20  1  6
 21 22  1  0
 21 23  1  0
 22 16  1  0
 23 24  2  0
 23 25  1  0
M  END
$$$$
