PYA.pdb
     RDKit          3D

 25 26  0  0  1  0  0  0  0  0999 V2000
   28.8939  -21.7604  -12.6416 N   0  0  0  0  0  0  0  0  0  0  0  0
   29.5669  -21.9258  -13.9370 C   0  0  0  0  0  0  0  0  0  0  0  0
   28.7916  -21.0215  -14.9019 C   0  0  0  0  0  0  0  0  0  0  0  0
   27.8027  -20.2782  -13.9911 C   0  0  0  0  0  0  0  0  0  0  0  0
   28.5544  -20.3617  -12.6802 C   0  0  1  0  0  0  0  0  0  0  0  0
   27.7987  -19.8939  -11.5189 C   0  0  0  0  0  0  0  0  0  0  0  0
   27.4012  -18.7019  -11.5061 O   0  0  0  0  0  0  0  0  0  0  0  0
   22.0769  -20.2162  -13.5111 O   0  0  0  0  0  0  0  0  0  0  0  0
   22.9473  -20.5018  -12.4621 C   0  0  0  0  0  0  0  0  0  0  0  0
   23.9553  -21.4263  -12.5661 C   0  0  0  0  0  0  0  0  0  0  0  0
   24.7940  -21.6806  -11.5089 C   0  0  0  0  0  0  0  0  0  0  0  0
   24.6592  -21.0221  -10.3071 C   0  0  0  0  0  0  0  0  0  0  0  0
   25.5934  -21.3192   -9.1669 C   0  0  0  0  0  0  0  0  0  0  0  0
   26.7815  -20.4513   -9.3013 C   0  0  2  0  0  0  0  0  0  0  0  0
   27.5501  -20.8114  -10.4607 N   0  0  0  0  0  0  0  0  0  0  0  0
   27.6775  -20.4206   -8.1178 C   0  0  0  0  0  0  0  0  0  0  0  0
   28.2298  -21.4982   -7.7765 O   0  0  0  0  0  0  0  0  0  0  0  0
   23.6583  -20.0947  -10.1827 C   0  0  0  0  0  0  0  0  0  0  0  0
   22.8237  -19.8487  -11.2506 C   0  0  0  0  0  0  0  0  0  0  0  0
   29.0654  -17.8509   -5.8084 C   0  0  0  0  0  0  0  0  0  0  0  0
   28.7099  -19.2931   -6.1746 C   0  0  2  0  0  0  0  0  0  0  0  0
   27.9251  -19.2432   -7.3771 N   0  0  0  0  0  0  0  0  0  0  0  0
   27.9342  -19.8401   -5.0306 C   0  0  0  0  0  0  0  0  0  0  0  0
   26.7239  -20.1301   -5.2020 O   0  0  0  0  0  0  0  0  0  0  0  0
   28.5873  -20.0056   -3.8199 O   0  0  0  0  0  0  0  0  0  0  0  0
  1  2  1  0
  3  2  1  0
  4  5  1  0
  4  3  1  0
  5  6  1  1
  5  1  1  0
  6  7  2  0
  8  9  1  0
  9 19  2  0
  9 10  1  0
 10 11  2  0
 11 12  1  0
 12 13  1  0
 14 13  1  1
 15  6  1  0
 15 14  1  0
 16 14  1  0
 16 17  2  0
 18 12  2  0
 19 18  1  0
 21 20  1  1
 21 22  1  0
 21 23  1  0
 22 16  1  0
 23 24  2  0
 23 25  1  0
M  END
$$$$
