PYA.pdb
     RDKit          3D

 25 26  0  0  1  0  0  0  0  0999 V2000
   16.8584  -11.2142  -15.5383 N   0  0  0  0  0  0  0  0  0  0  0  0
   16.3752  -12.5556  -15.1840 C   0  0  0  0  0  0  0  0  0  0  0  0
   17.3078  -13.5192  -15.9268 C   0  0  0  0  0  0  0  0  0  0  0  0
   18.3738  -12.5972  -16.5381 C   0  0  0  0  0  0  0  0  0  0  0  0
   18.2812  -11.4316  -15.5774 C   0  0  1  0  0  0  0  0  0  0  0  0
   19.0582  -10.2578  -15.9738 C   0  0  0  0  0  0  0  0  0  0  0  0
   20.3115  -10.3482  -15.9866 O   0  0  0  0  0  0  0  0  0  0  0  0
   21.2751   -2.6827  -19.5642 O   0  0  0  0  0  0  0  0  0  0  0  0
   20.5795   -3.8260  -19.1784 C   0  0  0  0  0  0  0  0  0  0  0  0
   21.0635   -5.0929  -19.3844 C   0  0  0  0  0  0  0  0  0  0  0  0
   20.3480   -6.1965  -18.9896 C   0  0  0  0  0  0  0  0  0  0  0  0
   19.1219   -6.0784  -18.3740 C   0  0  0  0  0  0  0  0  0  0  0  0
   18.3612   -7.3044  -17.9504 C   0  0  0  0  0  0  0  0  0  0  0  0
   19.0361   -7.8860  -16.7718 C   0  0  2  0  0  0  0  0  0  0  0  0
   18.3572   -9.0714  -16.3262 N   0  0  0  0  0  0  0  0  0  0  0  0
   19.2029   -6.9630  -15.6209 C   0  0  0  0  0  0  0  0  0  0  0  0
   18.1805   -6.6875  -14.9415 O   0  0  0  0  0  0  0  0  0  0  0  0
   18.6207   -4.8214  -18.1591 C   0  0  0  0  0  0  0  0  0  0  0  0
   19.3482   -3.7225  -18.5598 C   0  0  0  0  0  0  0  0  0  0  0  0
   21.9379   -5.8156  -13.4975 C   0  0  0  0  0  0  0  0  0  0  0  0
   20.5626   -5.5518  -14.1134 C   0  0  2  0  0  0  0  0  0  0  0  0
   20.4484   -6.3952  -15.2709 N   0  0  0  0  0  0  0  0  0  0  0  0
   20.5314   -4.1101  -14.4746 C   0  0  0  0  0  0  0  0  0  0  0  0
   20.6241   -3.7862  -15.6849 O   0  0  0  0  0  0  0  0  0  0  0  0
   20.4006   -3.1845  -13.4519 O   0  0  0  0  0  0  0  0  0  0  0  0
  1  2  1  0
  3  2  1  0
  4  5  1  0
  4  3  1  0
  5  6  1  6
  5  1  1  0
  6  7  2  0
  8  9  1  0
  9 19  2  0
  9 10  1  0
 10 11  2  0
 11 12  1  0
 12 13  1  0
 14 13  1  6
 15  6  1  0
 15 14  1  0
 16 14  1  0
 16 17  2  0
 18 12  2  0
 19 18  1  0
 21 20  1  6
 21 22  1  0
 21 23  1  0
 22 16  1  0
 23 24  2  0
 23 25  1  0
M  END
$$$$
