PYA.pdb
     RDKit          3D

 25 26  0  0  1  0  0  0  0  0999 V2000
   23.4301  -34.0957  -13.5667 N   0  0  0  0  0  0  0  0  0  0  0  0
   22.8505  -35.1615  -14.3952 C   0  0  0  0  0  0  0  0  0  0  0  0
   23.7398  -36.3843  -14.1429 C   0  0  0  0  0  0  0  0  0  0  0  0
   24.6914  -35.9205  -13.0297 C   0  0  0  0  0  0  0  0  0  0  0  0
   23.8390  -34.8383  -12.4029 C   0  0  1  0  0  0  0  0  0  0  0  0
   24.5259  -34.0383  -11.3896 C   0  0  0  0  0  0  0  0  0  0  0  0
   25.2694  -33.1005  -11.7728 O   0  0  0  0  0  0  0  0  0  0  0  0
   21.2433  -28.8028  -10.9161 O   0  0  0  0  0  0  0  0  0  0  0  0
   21.8927  -29.8193  -10.2198 C   0  0  0  0  0  0  0  0  0  0  0  0
   23.0816  -29.6258   -9.5635 C   0  0  0  0  0  0  0  0  0  0  0  0
   23.6919  -30.6535   -8.8873 C   0  0  0  0  0  0  0  0  0  0  0  0
   23.1392  -31.9138   -8.8400 C   0  0  0  0  0  0  0  0  0  0  0  0
   23.8286  -33.0200   -8.0900 C   0  0  0  0  0  0  0  0  0  0  0  0
   24.8868  -33.5795   -8.9561 C   0  0  2  0  0  0  0  0  0  0  0  0
   24.3182  -34.3603  -10.0198 N   0  0  0  0  0  0  0  0  0  0  0  0
   25.9121  -34.3924   -8.2545 C   0  0  0  0  0  0  0  0  0  0  0  0
   25.6461  -35.6020   -8.0336 O   0  0  0  0  0  0  0  0  0  0  0  0
   21.9518  -32.1279   -9.4893 C   0  0  0  0  0  0  0  0  0  0  0  0
   21.3497  -31.0888  -10.1640 C   0  0  0  0  0  0  0  0  0  0  0  0
   29.3934  -33.8781   -7.0119 C   0  0  0  0  0  0  0  0  0  0  0  0
   28.1095  -34.6961   -7.1627 C   0  0  2  0  0  0  0  0  0  0  0  0
   27.1525  -33.8616   -7.8351 N   0  0  0  0  0  0  0  0  0  0  0  0
   27.6679  -35.0461   -5.7871 C   0  0  0  0  0  0  0  0  0  0  0  0
   26.6765  -34.4490   -5.2983 O   0  0  0  0  0  0  0  0  0  0  0  0
   28.3757  -36.0214   -5.1035 O   0  0  0  0  0  0  0  0  0  0  0  0
  1  2  1  0
  3  2  1  0
  4  5  1  0
  4  3  1  0
  5  6  1  1
  5  1  1  0
  6  7  2  0
  8  9  1  0
  9 19  2  0
  9 10  1  0
 10 11  2  0
 11 12  1  0
 12 13  1  0
 14 13  1  1
 15  6  1  0
 15 14  1  0
 16 14  1  0
 16 17  2  0
 18 12  2  0
 19 18  1  0
 21 20  1  1
 21 22  1  0
 21 23  1  0
 22 16  1  0
 23 24  2  0
 23 25  1  0
M  END
$$$$
