PYA.pdb
     RDKit          3D

 25 26  0  0  1  0  0  0  0  0999 V2000
   21.8941  -10.5828  -17.7814 N   0  0  0  0  0  0  0  0  0  0  0  0
   22.0083  -11.6176  -18.8180 C   0  0  0  0  0  0  0  0  0  0  0  0
   20.7689  -12.5003  -18.6317 C   0  0  0  0  0  0  0  0  0  0  0  0
   19.9534  -11.7632  -17.5586 C   0  0  0  0  0  0  0  0  0  0  0  0
   20.4721  -10.3570  -17.7682 C   0  0  1  0  0  0  0  0  0  0  0  0
   20.0258   -9.3918  -16.7644 C   0  0  0  0  0  0  0  0  0  0  0  0
   18.7962   -9.1480  -16.6760 O   0  0  0  0  0  0  0  0  0  0  0  0
   18.2320   -5.6567   -9.4764 O   0  0  0  0  0  0  0  0  0  0  0  0
   18.9176   -6.3442  -10.4750 C   0  0  0  0  0  0  0  0  0  0  0  0
   18.5305   -7.5817  -10.9226 C   0  0  0  0  0  0  0  0  0  0  0  0
   19.2326   -8.2287  -11.9096 C   0  0  0  0  0  0  0  0  0  0  0  0
   20.3482   -7.6655  -12.4881 C   0  0  0  0  0  0  0  0  0  0  0  0
   21.0965   -8.3959  -13.5687 C   0  0  0  0  0  0  0  0  0  0  0  0
   20.6522   -7.8725  -14.8769 C   0  0  2  0  0  0  0  0  0  0  0  0
   21.0053   -8.7765  -15.9366 N   0  0  0  0  0  0  0  0  0  0  0  0
   21.1483   -6.5145  -15.2147 C   0  0  0  0  0  0  0  0  0  0  0  0
   22.3865   -6.3719  -15.3858 O   0  0  0  0  0  0  0  0  0  0  0  0
   20.7515   -6.4298  -12.0550 C   0  0  0  0  0  0  0  0  0  0  0  0
   20.0386   -5.7913  -11.0642 C   0  0  0  0  0  0  0  0  0  0  0  0
   19.7632   -3.4180  -16.5707 C   0  0  0  0  0  0  0  0  0  0  0  0
   20.8219   -4.1152  -15.7142 C   0  0  2  0  0  0  0  0  0  0  0  0
   20.2913   -5.3991  -15.3476 N   0  0  0  0  0  0  0  0  0  0  0  0
   21.0419   -3.2484  -14.5267 C   0  0  0  0  0  0  0  0  0  0  0  0
   21.7512   -2.2189  -14.6506 O   0  0  0  0  0  0  0  0  0  0  0  0
   20.4500   -3.6193  -13.3302 O   0  0  0  0  0  0  0  0  0  0  0  0
  1  2  1  0
  3  2  1  0
  4  5  1  0
  4  3  1  0
  5  6  1  1
  5  1  1  0
  6  7  2  0
  8  9  1  0
  9 19  2  0
  9 10  1  0
 10 11  2  0
 11 12  1  0
 12 13  1  0
 14 13  1  1
 15  6  1  0
 15 14  1  0
 16 14  1  0
 16 17  2  0
 18 12  2  0
 19 18  1  0
 21 20  1  6
 21 22  1  0
 21 23  1  0
 22 16  1  0
 23 24  2  0
 23 25  1  0
M  END
$$$$
