PYA.pdb
     RDKit          3D

 25 26  0  0  1  0  0  0  0  0999 V2000
   32.3887  -32.5607  -19.4064 N   0  0  0  0  0  0  0  0  0  0  0  0
   33.6641  -31.8481  -19.5609 C   0  0  0  0  0  0  0  0  0  0  0  0
   33.3743  -30.4165  -19.0956 C   0  0  0  0  0  0  0  0  0  0  0  0
   31.9389  -30.4921  -18.5533 C   0  0  0  0  0  0  0  0  0  0  0  0
   31.8793  -31.9625  -18.1998 C   0  0  1  0  0  0  0  0  0  0  0  0
   30.5529  -32.4368  -17.8070 C   0  0  0  0  0  0  0  0  0  0  0  0
   29.7389  -32.7498  -18.7117 O   0  0  0  0  0  0  0  0  0  0  0  0
   23.8282  -35.0078  -12.9002 O   0  0  0  0  0  0  0  0  0  0  0  0
   25.0957  -34.5935  -13.3022 C   0  0  0  0  0  0  0  0  0  0  0  0
   25.9050  -35.3567  -14.1049 C   0  0  0  0  0  0  0  0  0  0  0  0
   27.1494  -34.9139  -14.4804 C   0  0  0  0  0  0  0  0  0  0  0  0
   27.6343  -33.6923  -14.0694 C   0  0  0  0  0  0  0  0  0  0  0  0
   29.0001  -33.2319  -14.4977 C   0  0  0  0  0  0  0  0  0  0  0  0
   28.9572  -32.9318  -15.9437 C   0  0  2  0  0  0  0  0  0  0  0  0
   30.2492  -32.5212  -16.4200 N   0  0  0  0  0  0  0  0  0  0  0  0
   27.9489  -31.9200  -16.3485 C   0  0  0  0  0  0  0  0  0  0  0  0
   28.2190  -30.7099  -16.1351 O   0  0  0  0  0  0  0  0  0  0  0  0
   26.8413  -32.9147  -13.2670 C   0  0  0  0  0  0  0  0  0  0  0  0
   25.5950  -33.3703  -12.8974 C   0  0  0  0  0  0  0  0  0  0  0  0
   25.6447  -31.0859  -18.7292 C   0  0  0  0  0  0  0  0  0  0  0  0
   25.7285  -31.2580  -17.2114 C   0  0  2  0  0  0  0  0  0  0  0  0
   26.7199  -32.2656  -16.9538 N   0  0  0  0  0  0  0  0  0  0  0  0
   24.3777  -31.6834  -16.7596 C   0  0  0  0  0  0  0  0  0  0  0  0
   24.2000  -32.8808  -16.4233 O   0  0  0  0  0  0  0  0  0  0  0  0
   23.3705  -30.7324  -16.7305 O   0  0  0  0  0  0  0  0  0  0  0  0
  1  2  1  0
  3  2  1  0
  4  5  1  0
  4  3  1  0
  5  6  1  6
  5  1  1  0
  6  7  2  0
  8  9  1  0
  9 19  2  0
  9 10  1  0
 10 11  2  0
 11 12  1  0
 12 13  1  0
 14 13  1  1
 15  6  1  0
 15 14  1  0
 16 14  1  0
 16 17  2  0
 18 12  2  0
 19 18  1  0
 21 20  1  6
 21 22  1  0
 21 23  1  0
 22 16  1  0
 23 24  2  0
 23 25  1  0
M  END
$$$$
