PYA.pdb
     RDKit          3D

 25 26  0  0  1  0  0  0  0  0999 V2000
   22.9395  -19.6727  -18.4768 N   0  0  0  0  0  0  0  0  0  0  0  0
   23.5779  -19.7709  -19.7963 C   0  0  0  0  0  0  0  0  0  0  0  0
   24.8790  -18.9710  -19.6650 C   0  0  0  0  0  0  0  0  0  0  0  0
   24.9339  -18.6052  -18.1740 C   0  0  0  0  0  0  0  0  0  0  0  0
   24.0864  -19.7238  -17.6077 C   0  0  1  0  0  0  0  0  0  0  0  0
   23.7707  -19.5835  -16.1867 C   0  0  0  0  0  0  0  0  0  0  0  0
   24.7175  -19.6002  -15.3605 O   0  0  0  0  0  0  0  0  0  0  0  0
   16.8225  -17.4586  -17.5963 O   0  0  0  0  0  0  0  0  0  0  0  0
   17.9636  -17.5544  -16.8035 C   0  0  0  0  0  0  0  0  0  0  0  0
   19.2313  -17.4193  -17.3098 C   0  0  0  0  0  0  0  0  0  0  0  0
   20.3327  -17.5202  -16.4958 C   0  0  0  0  0  0  0  0  0  0  0  0
   20.2114  -17.7597  -15.1452 C   0  0  0  0  0  0  0  0  0  0  0  0
   21.4350  -17.8633  -14.2773 C   0  0  0  0  0  0  0  0  0  0  0  0
   22.0115  -19.2131  -14.4457 C   0  0  2  0  0  0  0  0  0  0  0  0
   22.4075  -19.4342  -15.8092 N   0  0  0  0  0  0  0  0  0  0  0  0
   21.1379  -20.3313  -14.0088 C   0  0  0  0  0  0  0  0  0  0  0  0
   20.5199  -20.9705  -14.8988 O   0  0  0  0  0  0  0  0  0  0  0  0
   18.9536  -17.8977  -14.6198 C   0  0  0  0  0  0  0  0  0  0  0  0
   17.8569  -17.7944  -15.4469 C   0  0  0  0  0  0  0  0  0  0  0  0
   20.3459  -22.0440  -10.7888 C   0  0  0  0  0  0  0  0  0  0  0  0
   20.1601  -21.8154  -12.2900 C   0  0  2  0  0  0  0  0  0  0  0  0
   20.9815  -20.6936  -12.6522 N   0  0  0  0  0  0  0  0  0  0  0  0
   18.7156  -21.5330  -12.4984 C   0  0  0  0  0  0  0  0  0  0  0  0
   18.3536  -20.3484  -12.7086 O   0  0  0  0  0  0  0  0  0  0  0  0
   17.8297  -22.5972  -12.4506 O   0  0  0  0  0  0  0  0  0  0  0  0
  1  2  1  0
  3  2  1  0
  4  5  1  0
  4  3  1  0
  5  6  1  1
  5  1  1  0
  6  7  2  0
  8  9  1  0
  9 19  2  0
  9 10  1  0
 10 11  2  0
 11 12  1  0
 12 13  1  0
 14 13  1  6
 15  6  1  0
 15 14  1  0
 16 14  1  0
 16 17  2  0
 18 12  2  0
 19 18  1  0
 21 20  1  1
 21 22  1  0
 21 23  1  0
 22 16  1  0
 23 24  2  0
 23 25  1  0
M  END
$$$$
