PYA.pdb
     RDKit          3D

 25 26  0  0  1  0  0  0  0  0999 V2000
   27.8406  -20.5582  -17.1403 N   0  0  0  0  0  0  0  0  0  0  0  0
   28.7529  -20.6796  -18.2854 C   0  0  0  0  0  0  0  0  0  0  0  0
   29.7310  -21.7930  -17.8935 C   0  0  0  0  0  0  0  0  0  0  0  0
   29.1646  -22.3273  -16.5692 C   0  0  0  0  0  0  0  0  0  0  0  0
   27.7128  -21.9349  -16.7384 C   0  0  1  0  0  0  0  0  0  0  0  0
   26.8882  -22.1399  -15.5482 C   0  0  0  0  0  0  0  0  0  0  0  0
   26.7169  -23.3145  -15.1358 O   0  0  0  0  0  0  0  0  0  0  0  0
   23.0470  -21.0036   -7.9063 O   0  0  0  0  0  0  0  0  0  0  0  0
   23.7961  -20.8254   -9.0669 C   0  0  0  0  0  0  0  0  0  0  0  0
   23.3525  -20.0776  -10.1279 C   0  0  0  0  0  0  0  0  0  0  0  0
   24.1203  -19.9249  -11.2561 C   0  0  0  0  0  0  0  0  0  0  0  0
   25.3606  -20.5125  -11.3690 C   0  0  0  0  0  0  0  0  0  0  0  0
   26.1807  -20.3265  -12.6155 C   0  0  0  0  0  0  0  0  0  0  0  0
   25.5514  -21.1000  -13.7057 C   0  0  2  0  0  0  0  0  0  0  0  0
   26.3208  -20.9995  -14.9150 N   0  0  0  0  0  0  0  0  0  0  0  0
   24.1405  -20.7431  -13.9995 C   0  0  0  0  0  0  0  0  0  0  0  0
   23.8981  -19.5569  -14.3415 O   0  0  0  0  0  0  0  0  0  0  0  0
   25.8220  -21.2636  -10.3201 C   0  0  0  0  0  0  0  0  0  0  0  0
   25.0421  -21.4091   -9.1939 C   0  0  0  0  0  0  0  0  0  0  0  0
   21.2415  -22.1544  -15.3521 C   0  0  0  0  0  0  0  0  0  0  0  0
   21.7340  -21.2730  -14.2027 C   0  0  2  0  0  0  0  0  0  0  0  0
   23.0820  -21.6746  -13.9091 N   0  0  0  0  0  0  0  0  0  0  0  0
   20.8205  -21.5237  -13.0571 C   0  0  0  0  0  0  0  0  0  0  0  0
   19.6577  -21.0492  -13.0937 O   0  0  0  0  0  0  0  0  0  0  0  0
   21.2977  -22.2745  -11.9950 O   0  0  0  0  0  0  0  0  0  0  0  0
  1  2  1  0
  3  2  1  0
  4  5  1  0
  4  3  1  0
  5  6  1  1
  5  1  1  0
  6  7  2  0
  8  9  1  0
  9 19  2  0
  9 10  1  0
 10 11  2  0
 11 12  1  0
 12 13  1  0
 14 13  1  1
 15  6  1  0
 15 14  1  0
 16 14  1  0
 16 17  2  0
 18 12  2  0
 19 18  1  0
 21 20  1  6
 21 22  1  0
 21 23  1  0
 22 16  1  0
 23 24  2  0
 23 25  1  0
M  END
$$$$
