PYA.pdb
     RDKit          3D

 25 26  0  0  1  0  0  0  0  0999 V2000
   27.4263  -22.3008  -17.0981 N   0  0  0  0  0  0  0  0  0  0  0  0
   28.8410  -21.9536  -16.9075 C   0  0  0  0  0  0  0  0  0  0  0  0
   28.8214  -20.5768  -16.2338 C   0  0  0  0  0  0  0  0  0  0  0  0
   27.3314  -20.3281  -15.9543 C   0  0  0  0  0  0  0  0  0  0  0  0
   26.8421  -21.7591  -15.8987 C   0  0  1  0  0  0  0  0  0  0  0  0
   25.3885  -21.8988  -15.8216 C   0  0  0  0  0  0  0  0  0  0  0  0
   24.6807  -21.2106  -16.5992 O   0  0  0  0  0  0  0  0  0  0  0  0
   17.4784  -25.0043  -13.9802 O   0  0  0  0  0  0  0  0  0  0  0  0
   18.8568  -24.8740  -14.1317 C   0  0  0  0  0  0  0  0  0  0  0  0
   19.7417  -25.1317  -13.1158 C   0  0  0  0  0  0  0  0  0  0  0  0
   21.0949  -24.9918  -13.3037 C   0  0  0  0  0  0  0  0  0  0  0  0
   21.6170  -24.5896  -14.5127 C   0  0  0  0  0  0  0  0  0  0  0  0
   23.1033  -24.4469  -14.6907 C   0  0  0  0  0  0  0  0  0  0  0  0
   23.4313  -23.0067  -14.7239 C   0  0  2  0  0  0  0  0  0  0  0  0
   24.8467  -22.8073  -14.8707 N   0  0  0  0  0  0  0  0  0  0  0  0
   22.9512  -22.2231  -13.5578 C   0  0  0  0  0  0  0  0  0  0  0  0
   23.4869  -22.4501  -12.4423 O   0  0  0  0  0  0  0  0  0  0  0  0
   20.7497  -24.3272  -15.5404 C   0  0  0  0  0  0  0  0  0  0  0  0
   19.3946  -24.4712  -15.3391 C   0  0  0  0  0  0  0  0  0  0  0  0
   21.0452  -19.1646  -12.9068 C   0  0  0  0  0  0  0  0  0  0  0  0
   21.4510  -20.5775  -12.4833 C   0  0  2  0  0  0  0  0  0  0  0  0
   21.9321  -21.2498  -13.6585 N   0  0  0  0  0  0  0  0  0  0  0  0
   20.2274  -21.2229  -11.9391 C   0  0  0  0  0  0  0  0  0  0  0  0
   20.0452  -21.2257  -10.6961 O   0  0  0  0  0  0  0  0  0  0  0  0
   19.3389  -21.7951  -12.8350 O   0  0  0  0  0  0  0  0  0  0  0  0
  1  2  1  0
  3  2  1  0
  4  5  1  0
  4  3  1  0
  5  6  1  6
  5  1  1  0
  6  7  2  0
  8  9  1  0
  9 19  2  0
  9 10  1  0
 10 11  2  0
 11 12  1  0
 12 13  1  0
 14 13  1  1
 15  6  1  0
 15 14  1  0
 16 14  1  0
 16 17  2  0
 18 12  2  0
 19 18  1  0
 21 20  1  6
 21 22  1  0
 21 23  1  0
 22 16  1  0
 23 24  2  0
 23 25  1  0
M  END
$$$$
