PYA.pdb
     RDKit          3D

 25 26  0  0  1  0  0  0  0  0999 V2000
   21.5500   -9.6047  -19.8161 N   0  0  0  0  0  0  0  0  0  0  0  0
   21.5855   -9.9334  -21.2475 C   0  0  0  0  0  0  0  0  0  0  0  0
   20.1530  -10.3584  -21.5897 C   0  0  0  0  0  0  0  0  0  0  0  0
   19.3693  -10.0729  -20.2996 C   0  0  0  0  0  0  0  0  0  0  0  0
   20.2497   -8.9971  -19.7016 C   0  0  1  0  0  0  0  0  0  0  0  0
   19.8865   -8.6058  -18.3402 C   0  0  0  0  0  0  0  0  0  0  0  0
   18.7445   -8.1197  -18.1434 O   0  0  0  0  0  0  0  0  0  0  0  0
   17.0753  -13.7585  -16.3365 O   0  0  0  0  0  0  0  0  0  0  0  0
   18.0089  -12.7687  -16.0387 C   0  0  0  0  0  0  0  0  0  0  0  0
   19.2932  -12.7923  -16.5199 C   0  0  0  0  0  0  0  0  0  0  0  0
   20.1856  -11.7975  -16.2039 C   0  0  0  0  0  0  0  0  0  0  0  0
   19.8306  -10.7407  -15.3956 C   0  0  0  0  0  0  0  0  0  0  0  0
   20.8279   -9.6641  -15.0678 C   0  0  0  0  0  0  0  0  0  0  0  0
   20.5518   -8.4965  -15.9301 C   0  0  2  0  0  0  0  0  0  0  0  0
   20.8435   -8.7951  -17.3050 N   0  0  0  0  0  0  0  0  0  0  0  0
   21.2574   -7.2479  -15.5464 C   0  0  0  0  0  0  0  0  0  0  0  0
   22.5065   -7.2155  -15.6925 O   0  0  0  0  0  0  0  0  0  0  0  0
   18.5521  -10.6985  -14.9047 C   0  0  0  0  0  0  0  0  0  0  0  0
   17.6666  -11.7026  -15.2290 C   0  0  0  0  0  0  0  0  0  0  0  0
   20.3083   -3.8223  -14.4340 C   0  0  0  0  0  0  0  0  0  0  0  0
   21.3228   -4.9488  -14.6392 C   0  0  2  0  0  0  0  0  0  0  0  0
   20.5844   -6.1169  -15.0325 N   0  0  0  0  0  0  0  0  0  0  0  0
   22.0089   -5.1418  -13.3347 C   0  0  0  0  0  0  0  0  0  0  0  0
   22.7649   -4.2340  -12.9071 O   0  0  0  0  0  0  0  0  0  0  0  0
   21.7809   -6.3225  -12.6466 O   0  0  0  0  0  0  0  0  0  0  0  0
  1  2  1  0
  3  2  1  0
  4  5  1  0
  4  3  1  0
  5  6  1  1
  5  1  1  0
  6  7  2  0
  8  9  1  0
  9 19  2  0
  9 10  1  0
 10 11  2  0
 11 12  1  0
 12 13  1  0
 14 13  1  1
 15  6  1  0
 15 14  1  0
 16 14  1  0
 16 17  2  0
 18 12  2  0
 19 18  1  0
 21 20  1  1
 21 22  1  0
 21 23  1  0
 22 16  1  0
 23 24  2  0
 23 25  1  0
M  END
$$$$
