PYA.pdb
     RDKit          3D

 25 26  0  0  1  0  0  0  0  0999 V2000
   21.1408  -20.6243  -13.3287 N   0  0  0  0  0  0  0  0  0  0  0  0
   20.0847  -21.6312  -13.1584 C   0  0  0  0  0  0  0  0  0  0  0  0
   20.5409  -22.8272  -14.0018 C   0  0  0  0  0  0  0  0  0  0  0  0
   21.9485  -22.4281  -14.4703 C   0  0  0  0  0  0  0  0  0  0  0  0
   22.3153  -21.4563  -13.3696 C   0  0  1  0  0  0  0  0  0  0  0  0
   23.5617  -20.7263  -13.5979 C   0  0  0  0  0  0  0  0  0  0  0  0
   23.4921  -19.5250  -13.9600 O   0  0  0  0  0  0  0  0  0  0  0  0
   25.1793  -19.7122   -7.4673 O   0  0  0  0  0  0  0  0  0  0  0  0
   25.6437  -20.0589   -8.7338 C   0  0  0  0  0  0  0  0  0  0  0  0
   26.1682  -19.1411   -9.6079 C   0  0  0  0  0  0  0  0  0  0  0  0
   26.6161  -19.5216  -10.8490 C   0  0  0  0  0  0  0  0  0  0  0  0
   26.5579  -20.8328  -11.2656 C   0  0  0  0  0  0  0  0  0  0  0  0
   27.0577  -21.2214  -12.6296 C   0  0  0  0  0  0  0  0  0  0  0  0
   26.0634  -20.7839  -13.6310 C   0  0  2  0  0  0  0  0  0  0  0  0
   24.7920  -21.4116  -13.3982 N   0  0  0  0  0  0  0  0  0  0  0  0
   26.4567  -20.9991  -15.0464 C   0  0  0  0  0  0  0  0  0  0  0  0
   26.6506  -22.1833  -15.4241 O   0  0  0  0  0  0  0  0  0  0  0  0
   26.0374  -21.7652  -10.4072 C   0  0  0  0  0  0  0  0  0  0  0  0
   25.5914  -21.3707   -9.1650 C   0  0  0  0  0  0  0  0  0  0  0  0
   25.9283  -19.5147  -18.2112 C   0  0  0  0  0  0  0  0  0  0  0  0
   26.9712  -20.2062  -17.3311 C   0  0  2  0  0  0  0  0  0  0  0  0
   26.6172  -19.9374  -15.9647 N   0  0  0  0  0  0  0  0  0  0  0  0
   28.2861  -19.6120  -17.6886 C   0  0  0  0  0  0  0  0  0  0  0  0
   28.7902  -19.8836  -18.8069 O   0  0  0  0  0  0  0  0  0  0  0  0
   28.8985  -18.7805  -16.7650 O   0  0  0  0  0  0  0  0  0  0  0  0
  1  2  1  0
  3  2  1  0
  4  5  1  0
  4  3  1  0
  5  6  1  6
  5  1  1  0
  6  7  2  0
  8  9  1  0
  9 19  2  0
  9 10  1  0
 10 11  2  0
 11 12  1  0
 12 13  1  0
 14 13  1  1
 15  6  1  0
 15 14  1  0
 16 14  1  0
 16 17  2  0
 18 12  2  0
 19 18  1  0
 21 20  1  6
 21 22  1  0
 21 23  1  0
 22 16  1  0
 23 24  2  0
 23 25  1  0
M  END
$$$$
