PYA.pdb
     RDKit          3D

 25 26  0  0  1  0  0  0  0  0999 V2000
   28.0434  -19.6184  -16.8634 N   0  0  0  0  0  0  0  0  0  0  0  0
   28.9204  -19.5353  -18.0391 C   0  0  0  0  0  0  0  0  0  0  0  0
   29.9100  -20.6945  -17.8751 C   0  0  0  0  0  0  0  0  0  0  0  0
   29.3843  -21.4525  -16.6466 C   0  0  0  0  0  0  0  0  0  0  0  0
   27.9280  -21.0445  -16.7018 C   0  0  1  0  0  0  0  0  0  0  0  0
   27.1401  -21.4562  -15.5407 C   0  0  0  0  0  0  0  0  0  0  0  0
   26.9477  -22.6841  -15.3550 O   0  0  0  0  0  0  0  0  0  0  0  0
   23.1921  -21.1312   -7.7810 O   0  0  0  0  0  0  0  0  0  0  0  0
   24.0175  -20.8915   -8.8769 C   0  0  0  0  0  0  0  0  0  0  0  0
   25.3072  -21.3534   -8.9485 C   0  0  0  0  0  0  0  0  0  0  0  0
   26.0908  -21.0964  -10.0466 C   0  0  0  0  0  0  0  0  0  0  0  0
   25.6176  -20.3686  -11.1155 C   0  0  0  0  0  0  0  0  0  0  0  0
   26.4973  -20.1042  -12.3060 C   0  0  0  0  0  0  0  0  0  0  0  0
   25.8947  -20.7610  -13.4843 C   0  0  2  0  0  0  0  0  0  0  0  0
   26.6306  -20.4468  -14.6777 N   0  0  0  0  0  0  0  0  0  0  0  0
   24.4583  -20.4598  -13.7087 C   0  0  0  0  0  0  0  0  0  0  0  0
   24.1464  -19.2698  -13.9720 O   0  0  0  0  0  0  0  0  0  0  0  0
   24.3318  -19.8982  -11.0635 C   0  0  0  0  0  0  0  0  0  0  0  0
   23.5560  -20.1628   -9.9564 C   0  0  0  0  0  0  0  0  0  0  0  0
   21.6128  -22.0610  -15.0328 C   0  0  0  0  0  0  0  0  0  0  0  0
   22.0837  -21.1124  -13.9288 C   0  0  2  0  0  0  0  0  0  0  0  0
   23.4503  -21.4472  -13.6376 N   0  0  0  0  0  0  0  0  0  0  0  0
   21.1954  -21.3499  -12.7608 C   0  0  0  0  0  0  0  0  0  0  0  0
   21.4609  -22.2976  -11.9800 O   0  0  0  0  0  0  0  0  0  0  0  0
   20.1083  -20.5087  -12.5869 O   0  0  0  0  0  0  0  0  0  0  0  0
  1  2  1  0
  3  2  1  0
  4  5  1  0
  4  3  1  0
  5  6  1  1
  5  1  1  0
  6  7  2  0
  8  9  1  0
  9 19  2  0
  9 10  1  0
 10 11  2  0
 11 12  1  0
 12 13  1  0
 14 13  1  1
 15  6  1  0
 15 14  1  0
 16 14  1  0
 16 17  2  0
 18 12  2  0
 19 18  1  0
 21 20  1  6
 21 22  1  0
 21 23  1  0
 22 16  1  0
 23 24  2  0
 23 25  1  0
M  END
$$$$
