IDE.pdb
     RDKit          3D

 26 25  0  0  1  0  0  0  0  0999 V2000
   10.1094   -9.9497   -8.3912 C   0  0  0  0  0  0  0  0  0  0  0  0
   10.7634  -10.8739   -9.3497 C   0  0  0  0  0  0  0  0  0  0  0  0
   12.1101  -10.5297   -9.8425 C   0  0  2  0  0  0  0  0  0  0  0  0
   12.2428   -9.1084  -10.3310 C   0  0  0  0  0  0  0  0  0  0  0  0
   12.6618  -11.4813  -10.8623 C   0  0  2  0  0  0  0  0  0  0  0  0
   12.7507  -12.8122  -10.4226 N   0  0  0  0  0  0  0  0  0  0  0  0
   13.9235  -10.8795  -11.4081 C   0  0  0  0  0  0  0  0  0  0  0  0
   14.9540  -10.8772  -10.6556 O   0  0  0  0  0  0  0  0  0  0  0  0
   13.9447  -10.3486  -12.6915 N   0  0  0  0  0  0  0  0  0  0  0  0
   15.0468   -9.7429  -13.3675 C   0  0  1  0  0  0  0  0  0  0  0  0
   15.1522  -10.0157  -14.8495 C   0  0  0  0  0  0  0  0  0  0  0  0
   16.4641   -9.5414  -15.3343 C   0  0  0  0  0  0  0  0  0  0  0  0
   17.4687   -9.6577  -14.5873 O   0  0  0  0  0  0  0  0  0  0  0  0
   15.2901   -8.3909  -12.9378 C   0  0  0  0  0  0  0  0  0  0  0  0
   14.2975   -7.6266  -12.7373 O   0  0  0  0  0  0  0  0  0  0  0  0
   16.6317   -8.9673  -16.5925 O   0  0  0  0  0  0  0  0  0  0  0  0
   16.6009   -7.8619  -12.7239 N   0  0  0  0  0  0  0  0  0  0  0  0
   16.7914   -6.5100  -12.2446 C   0  0  1  0  0  0  0  0  0  0  0  0
   17.0361   -6.5366  -10.7590 C   0  0  0  0  0  0  0  0  0  0  0  0
   16.2437   -5.4309  -10.1096 C   0  0  0  0  0  0  0  0  0  0  0  0
   16.5880   -5.3089   -8.6623 C   0  0  0  0  0  0  0  0  0  0  0  0
   17.4110   -6.1105   -8.1695 O   0  0  0  0  0  0  0  0  0  0  0  0
   18.0028   -5.9410  -12.9197 C   0  0  0  0  0  0  0  0  0  0  0  0
   18.3560   -4.6126  -12.8168 O   0  0  0  0  0  0  0  0  0  0  0  0
   16.0273   -4.3416   -7.8552 O   0  0  0  0  0  0  0  0  0  0  0  0
   18.7587   -6.6819  -13.6237 O   0  0  0  0  0  0  0  0  0  0  0  0
  2  3  1  0
  2  1  1  0
  3  5  1  0
  3  4  1  6
  5  7  1  0
  5  6  1  1
  7  8  2  0
  9 10  1  0
  9  7  1  0
 10 11  1  6
 11 12  1  0
 12 13  2  0
 14 10  1  0
 14 15  2  0
 16 12  1  0
 17 14  1  0
 18 17  1  0
 18 23  1  0
 18 19  1  1
 20 19  1  0
 21 20  1  0
 21 22  2  0
 23 24  1  0
 25 21  1  0
 26 23  2  0
M  END
$$$$
