IDE.pdb
     RDKit          3D

 26 25  0  0  1  0  0  0  0  0999 V2000
   18.6170  -12.2171  -19.8776 C   0  0  0  0  0  0  0  0  0  0  0  0
   19.5497  -12.1192  -18.7281 C   0  0  0  0  0  0  0  0  0  0  0  0
   19.4915  -10.9117  -17.8834 C   0  0  2  0  0  0  0  0  0  0  0  0
   19.6905   -9.6210  -18.6390 C   0  0  0  0  0  0  0  0  0  0  0  0
   20.3862  -10.9503  -16.6800 C   0  0  2  0  0  0  0  0  0  0  0  0
   20.3580  -12.1662  -15.9775 N   0  0  0  0  0  0  0  0  0  0  0  0
   20.1148   -9.7142  -15.8736 C   0  0  0  0  0  0  0  0  0  0  0  0
   18.9575   -9.5885  -15.3510 O   0  0  0  0  0  0  0  0  0  0  0  0
   21.1052   -8.7532  -15.7156 N   0  0  0  0  0  0  0  0  0  0  0  0
   21.0244   -7.5283  -14.9864 C   0  0  1  0  0  0  0  0  0  0  0  0
   22.2782   -7.1000  -14.2606 C   0  0  0  0  0  0  0  0  0  0  0  0
   21.9695   -5.9272  -13.4177 C   0  0  0  0  0  0  0  0  0  0  0  0
   21.1994   -6.0689  -12.4340 O   0  0  0  0  0  0  0  0  0  0  0  0
   20.3026   -6.5039  -15.6945 C   0  0  0  0  0  0  0  0  0  0  0  0
   20.6197   -6.2551  -16.8975 O   0  0  0  0  0  0  0  0  0  0  0  0
   22.5010   -4.6648  -13.6719 O   0  0  0  0  0  0  0  0  0  0  0  0
   19.2403   -5.7480  -15.1082 N   0  0  0  0  0  0  0  0  0  0  0  0
   18.5296   -4.7439  -15.8701 C   0  0  1  0  0  0  0  0  0  0  0  0
   17.0678   -5.1011  -15.9257 C   0  0  0  0  0  0  0  0  0  0  0  0
   16.3305   -4.0382  -16.6997 C   0  0  0  0  0  0  0  0  0  0  0  0
   14.8758   -4.3598  -16.7917 C   0  0  0  0  0  0  0  0  0  0  0  0
   14.0510   -3.5686  -16.2851 O   0  0  0  0  0  0  0  0  0  0  0  0
   18.6755   -3.4303  -15.1628 C   0  0  0  0  0  0  0  0  0  0  0  0
   18.7956   -2.2332  -15.8354 O   0  0  0  0  0  0  0  0  0  0  0  0
   14.4159   -5.4997  -17.4166 O   0  0  0  0  0  0  0  0  0  0  0  0
   18.6934   -3.3782  -13.8928 O   0  0  0  0  0  0  0  0  0  0  0  0
  2  3  1  0
  2  1  1  0
  3  5  1  0
  3  4  1  6
  5  7  1  0
  5  6  1  1
  7  8  2  0
  9 10  1  0
  9  7  1  0
 10 11  1  6
 11 12  1  0
 12 13  2  0
 14 10  1  0
 14 15  2  0
 16 12  1  0
 17 14  1  0
 18 17  1  0
 18 23  1  0
 18 19  1  1
 20 19  1  0
 21 20  1  0
 21 22  2  0
 23 24  1  0
 25 21  1  0
 26 23  2  0
M  END
$$$$
