IDE.pdb
     RDKit          3D

 26 25  0  0  1  0  0  0  0  0999 V2000
   30.2046  -21.0788   -9.8562 C   0  0  0  0  0  0  0  0  0  0  0  0
   29.6536  -21.3754  -11.2013 C   0  0  0  0  0  0  0  0  0  0  0  0
   28.4581  -20.6343  -11.6445 C   0  0  2  0  0  0  0  0  0  0  0  0
   27.2806  -20.7475  -10.7080 C   0  0  0  0  0  0  0  0  0  0  0  0
   28.0302  -20.9275  -13.0520 C   0  0  2  0  0  0  0  0  0  0  0  0
   29.0906  -21.0518  -13.9645 N   0  0  0  0  0  0  0  0  0  0  0  0
   26.9579  -19.9424  -13.4144 C   0  0  0  0  0  0  0  0  0  0  0  0
   27.3107  -18.8781  -14.0235 O   0  0  0  0  0  0  0  0  0  0  0  0
   25.6331  -20.2017  -13.0871 N   0  0  0  0  0  0  0  0  0  0  0  0
   24.4781  -20.0073  -13.9036 C   0  0  1  0  0  0  0  0  0  0  0  0
   24.6330  -20.3414  -15.3687 C   0  0  0  0  0  0  0  0  0  0  0  0
   23.4159  -19.9179  -16.0903 C   0  0  0  0  0  0  0  0  0  0  0  0
   23.1712  -18.6900  -16.2050 O   0  0  0  0  0  0  0  0  0  0  0  0
   23.2634  -20.4403  -13.2643 C   0  0  0  0  0  0  0  0  0  0  0  0
   22.8218  -21.6024  -13.5174 O   0  0  0  0  0  0  0  0  0  0  0  0
   22.5250  -20.8305  -16.6507 O   0  0  0  0  0  0  0  0  0  0  0  0
   22.5246  -19.6231  -12.3532 N   0  0  0  0  0  0  0  0  0  0  0  0
   21.0792  -19.6724  -12.3097 C   0  0  1  0  0  0  0  0  0  0  0  0
   20.5166  -18.8028  -13.4029 C   0  0  0  0  0  0  0  0  0  0  0  0
   19.0117  -18.8831  -13.3703 C   0  0  0  0  0  0  0  0  0  0  0  0
   18.4194  -18.2624  -14.5918 C   0  0  0  0  0  0  0  0  0  0  0  0
   19.0917  -17.4205  -15.2259 O   0  0  0  0  0  0  0  0  0  0  0  0
   20.6521  -21.0881  -12.5558 C   0  0  0  0  0  0  0  0  0  0  0  0
   19.7513  -21.7444  -11.7447 O   0  0  0  0  0  0  0  0  0  0  0  0
   17.1569  -18.5886  -15.0402 O   0  0  0  0  0  0  0  0  0  0  0  0
   21.1175  -21.7419  -13.5416 O   0  0  0  0  0  0  0  0  0  0  0  0
  2  3  1  0
  2  1  1  0
  3  5  1  0
  3  4  1  1
  5  7  1  0
  5  6  1  6
  7  8  2  0
  9 10  1  0
  9  7  1  0
 10 11  1  6
 11 12  1  0
 12 13  2  0
 14 10  1  0
 14 15  2  0
 16 12  1  0
 17 14  1  0
 18 17  1  0
 18 23  1  0
 18 19  1  6
 20 19  1  0
 21 20  1  0
 21 22  2  0
 23 24  1  0
 25 21  1  0
 26 23  2  0
M  END
$$$$
