IDE.pdb
     RDKit          3D

 26 25  0  0  1  0  0  0  0  0999 V2000
   12.8354   -5.2370   -5.9232 C   0  0  0  0  0  0  0  0  0  0  0  0
   12.4516   -6.3034   -6.8805 C   0  0  0  0  0  0  0  0  0  0  0  0
   13.5260   -7.0672   -7.5416 C   0  0  2  0  0  0  0  0  0  0  0  0
   14.5984   -6.2086   -8.1654 C   0  0  0  0  0  0  0  0  0  0  0  0
   13.0460   -8.0923   -8.5259 C   0  0  2  0  0  0  0  0  0  0  0  0
   12.0395   -8.9394   -8.0338 N   0  0  0  0  0  0  0  0  0  0  0  0
   14.2553   -8.7680   -9.1028 C   0  0  0  0  0  0  0  0  0  0  0  0
   14.4680   -9.9834   -8.7777 O   0  0  0  0  0  0  0  0  0  0  0  0
   15.1003   -8.0735   -9.9591 N   0  0  0  0  0  0  0  0  0  0  0  0
   15.7039   -8.5469  -11.1632 C   0  0  1  0  0  0  0  0  0  0  0  0
   14.8685   -9.4823  -12.0054 C   0  0  0  0  0  0  0  0  0  0  0  0
   15.7180  -10.0662  -13.0630 C   0  0  0  0  0  0  0  0  0  0  0  0
   15.3006  -10.0681  -14.2489 O   0  0  0  0  0  0  0  0  0  0  0  0
   16.4337   -7.5217  -11.8621 C   0  0  0  0  0  0  0  0  0  0  0  0
   15.8210   -6.4670  -12.2108 O   0  0  0  0  0  0  0  0  0  0  0  0
   16.9692  -10.6175  -12.7957 O   0  0  0  0  0  0  0  0  0  0  0  0
   17.8219   -7.6318  -12.1851 N   0  0  0  0  0  0  0  0  0  0  0  0
   18.5282   -6.5430  -12.8249 C   0  0  1  0  0  0  0  0  0  0  0  0
   20.0078   -6.8215  -12.7951 C   0  0  0  0  0  0  0  0  0  0  0  0
   20.7409   -5.6529  -13.4025 C   0  0  0  0  0  0  0  0  0  0  0  0
   22.2113   -5.9073  -13.4375 C   0  0  0  0  0  0  0  0  0  0  0  0
   22.6454   -6.9923  -12.9931 O   0  0  0  0  0  0  0  0  0  0  0  0
   18.0824   -6.4727  -14.2544 C   0  0  0  0  0  0  0  0  0  0  0  0
   17.5071   -7.5418  -14.9071 O   0  0  0  0  0  0  0  0  0  0  0  0
   23.1024   -4.9847  -13.9436 O   0  0  0  0  0  0  0  0  0  0  0  0
   18.2242   -5.4015  -14.9241 O   0  0  0  0  0  0  0  0  0  0  0  0
  2  3  1  0
  2  1  1  0
  3  5  1  0
  3  4  1  6
  5  7  1  0
  5  6  1  1
  7  8  2  0
  9 10  1  0
  9  7  1  0
 10 11  1  6
 11 12  1  0
 12 13  2  0
 14 10  1  0
 14 15  2  0
 16 12  1  0
 17 14  1  0
 18 17  1  0
 18 23  1  0
 18 19  1  6
 20 19  1  0
 21 20  1  0
 21 22  2  0
 23 24  1  0
 25 21  1  0
 26 23  2  0
M  END
$$$$
