IDE.pdb
     RDKit          3D

 26 25  0  0  1  0  0  0  0  0999 V2000
   14.9964  -13.9497  -18.0083 C   0  0  0  0  0  0  0  0  0  0  0  0
   16.4257  -13.8150  -17.6344 C   0  0  0  0  0  0  0  0  0  0  0  0
   16.8580  -12.5735  -16.9660 C   0  0  2  0  0  0  0  0  0  0  0  0
   16.5377  -11.3158  -17.7354 C   0  0  0  0  0  0  0  0  0  0  0  0
   18.2952  -12.5657  -16.5366 C   0  0  2  0  0  0  0  0  0  0  0  0
   18.7087  -13.7365  -15.8802 N   0  0  0  0  0  0  0  0  0  0  0  0
   18.5442  -11.2769  -15.8095 C   0  0  0  0  0  0  0  0  0  0  0  0
   17.8446  -11.0373  -14.7695 O   0  0  0  0  0  0  0  0  0  0  0  0
   19.5082  -10.3902  -16.2718 N   0  0  0  0  0  0  0  0  0  0  0  0
   19.8598   -9.1195  -15.7239 C   0  0  1  0  0  0  0  0  0  0  0  0
   21.3249   -8.9039  -15.4253 C   0  0  0  0  0  0  0  0  0  0  0  0
   21.4965   -7.5846  -14.7842 C   0  0  0  0  0  0  0  0  0  0  0  0
   21.8792   -6.6121  -15.4832 O   0  0  0  0  0  0  0  0  0  0  0  0
   19.1577   -8.0290  -16.3482 C   0  0  0  0  0  0  0  0  0  0  0  0
   19.3633   -7.7958  -17.5782 O   0  0  0  0  0  0  0  0  0  0  0  0
   21.2497   -7.3756  -13.4292 O   0  0  0  0  0  0  0  0  0  0  0  0
   18.2348   -7.1905  -15.6491 N   0  0  0  0  0  0  0  0  0  0  0  0
   17.7121   -5.9860  -16.2572 C   0  0  1  0  0  0  0  0  0  0  0  0
   16.3203   -5.7300  -15.7423 C   0  0  0  0  0  0  0  0  0  0  0  0
   15.8609   -6.9268  -14.9493 C   0  0  0  0  0  0  0  0  0  0  0  0
   14.4542   -6.7479  -14.4831 C   0  0  0  0  0  0  0  0  0  0  0  0
   13.7664   -5.8312  -14.9825 O   0  0  0  0  0  0  0  0  0  0  0  0
   18.5905   -4.8399  -15.8545 C   0  0  0  0  0  0  0  0  0  0  0  0
   19.1596   -3.9819  -16.7709 O   0  0  0  0  0  0  0  0  0  0  0  0
   13.8926   -7.5608  -13.5213 O   0  0  0  0  0  0  0  0  0  0  0  0
   18.8434   -4.6187  -14.6285 O   0  0  0  0  0  0  0  0  0  0  0  0
  2  3  1  0
  2  1  1  0
  3  5  1  0
  3  4  1  6
  5  7  1  0
  5  6  1  1
  7  8  2  0
  9 10  1  0
  9  7  1  0
 10 11  1  6
 11 12  1  0
 12 13  2  0
 14 10  1  0
 14 15  2  0
 16 12  1  0
 17 14  1  0
 18 17  1  0
 18 23  1  0
 18 19  1  1
 20 19  1  0
 21 20  1  0
 21 22  2  0
 23 24  1  0
 25 21  1  0
 26 23  2  0
M  END
$$$$
