IDE.pdb
     RDKit          3D

 26 25  0  0  1  0  0  0  0  0999 V2000
   15.9941  -24.0833    1.4269 C   0  0  0  0  0  0  0  0  0  0  0  0
   15.4732  -22.7043    1.5935 C   0  0  0  0  0  0  0  0  0  0  0  0
   15.8682  -21.9500    2.7976 C   0  0  2  0  0  0  0  0  0  0  0  0
   15.5475  -22.6494    4.0955 C   0  0  0  0  0  0  0  0  0  0  0  0
   15.3726  -20.5348    2.8360 C   0  0  2  0  0  0  0  0  0  0  0  0
   15.5374  -19.8317    1.6314 N   0  0  0  0  0  0  0  0  0  0  0  0
   15.9445  -19.8873    4.0631 C   0  0  0  0  0  0  0  0  0  0  0  0
   17.1757  -19.5533    4.0390 O   0  0  0  0  0  0  0  0  0  0  0  0
   15.1415  -19.6698    5.1755 N   0  0  0  0  0  0  0  0  0  0  0  0
   15.5209  -19.0977    6.4274 C   0  0  1  0  0  0  0  0  0  0  0  0
   14.5292  -18.1458    7.0539 C   0  0  0  0  0  0  0  0  0  0  0  0
   14.8449  -16.7691    6.6227 C   0  0  0  0  0  0  0  0  0  0  0  0
   15.8636  -16.5708    5.9128 O   0  0  0  0  0  0  0  0  0  0  0  0
   16.1533  -20.0466    7.3057 C   0  0  0  0  0  0  0  0  0  0  0  0
   16.1688  -21.2705    6.9719 O   0  0  0  0  0  0  0  0  0  0  0  0
   14.0542  -15.6772    6.9739 O   0  0  0  0  0  0  0  0  0  0  0  0
   16.7688  -19.6784    8.5424 N   0  0  0  0  0  0  0  0  0  0  0  0
   17.4519  -20.6594    9.3575 C   0  0  1  0  0  0  0  0  0  0  0  0
   18.6182  -21.2224    8.5891 C   0  0  0  0  0  0  0  0  0  0  0  0
   19.3239  -22.2439    9.4439 C   0  0  0  0  0  0  0  0  0  0  0  0
   20.4606  -22.8646    8.7018 C   0  0  0  0  0  0  0  0  0  0  0  0
   20.6611  -22.5266    7.5151 O   0  0  0  0  0  0  0  0  0  0  0  0
   17.9731  -19.9688   10.5817 C   0  0  0  0  0  0  0  0  0  0  0  0
   17.9563  -18.5980   10.7258 O   0  0  0  0  0  0  0  0  0  0  0  0
   21.2936  -23.7965    9.2841 O   0  0  0  0  0  0  0  0  0  0  0  0
   18.4574  -20.6403   11.5463 O   0  0  0  0  0  0  0  0  0  0  0  0
  2  3  1  0
  2  1  1  0
  3  5  1  0
  3  4  1  1
  5  7  1  0
  5  6  1  6
  7  8  2  0
  9 10  1  0
  9  7  1  0
 10 11  1  1
 11 12  1  0
 12 13  2  0
 14 10  1  0
 14 15  2  0
 16 12  1  0
 17 14  1  0
 18 17  1  0
 18 23  1  0
 18 19  1  6
 20 19  1  0
 21 20  1  0
 21 22  2  0
 23 24  1  0
 25 21  1  0
 26 23  2  0
M  END
$$$$
