IDE.pdb
     RDKit          3D

 26 25  0  0  1  0  0  0  0  0999 V2000
   27.4980  -13.1060  -15.1266 C   0  0  0  0  0  0  0  0  0  0  0  0
   26.0762  -13.5002  -15.2813 C   0  0  0  0  0  0  0  0  0  0  0  0
   25.0847  -12.4429  -15.5533 C   0  0  2  0  0  0  0  0  0  0  0  0
   25.1028  -11.3101  -14.5569 C   0  0  0  0  0  0  0  0  0  0  0  0
   23.6826  -12.9394  -15.7472 C   0  0  2  0  0  0  0  0  0  0  0  0
   23.5863  -14.1178  -16.5052 N   0  0  0  0  0  0  0  0  0  0  0  0
   22.8524  -11.7810  -16.2172 C   0  0  0  0  0  0  0  0  0  0  0  0
   23.1297  -11.2751  -17.3553 O   0  0  0  0  0  0  0  0  0  0  0  0
   21.8227  -11.2931  -15.4228 N   0  0  0  0  0  0  0  0  0  0  0  0
   20.8805  -10.2703  -15.7461 C   0  0  1  0  0  0  0  0  0  0  0  0
   19.4266  -10.6802  -15.7526 C   0  0  0  0  0  0  0  0  0  0  0  0
   19.2624  -11.8578  -16.6287 C   0  0  0  0  0  0  0  0  0  0  0  0
   19.4613  -11.7316  -17.8637 O   0  0  0  0  0  0  0  0  0  0  0  0
   21.1956   -9.0070  -15.1323 C   0  0  0  0  0  0  0  0  0  0  0  0
   21.5126   -8.9880  -13.9040 O   0  0  0  0  0  0  0  0  0  0  0  0
   18.8938  -13.1081  -16.1371 O   0  0  0  0  0  0  0  0  0  0  0  0
   21.1698   -7.7653  -15.8401 N   0  0  0  0  0  0  0  0  0  0  0  0
   21.4597   -6.5169  -15.1684 C   0  0  1  0  0  0  0  0  0  0  0  0
   21.8786   -5.4882  -16.1852 C   0  0  0  0  0  0  0  0  0  0  0  0
   22.1577   -4.1850  -15.4808 C   0  0  0  0  0  0  0  0  0  0  0  0
   22.5243   -3.1192  -16.4594 C   0  0  0  0  0  0  0  0  0  0  0  0
   22.8692   -3.4542  -17.6134 O   0  0  0  0  0  0  0  0  0  0  0  0
   20.2050   -6.0445  -14.4977 C   0  0  0  0  0  0  0  0  0  0  0  0
   18.9625   -6.5610  -14.7969 O   0  0  0  0  0  0  0  0  0  0  0  0
   22.4940   -1.7806  -16.1298 O   0  0  0  0  0  0  0  0  0  0  0  0
   20.2486   -5.1331  -13.6127 O   0  0  0  0  0  0  0  0  0  0  0  0
  2  3  1  0
  2  1  1  0
  3  5  1  0
  3  4  1  1
  5  7  1  0
  5  6  1  6
  7  8  2  0
  9 10  1  0
  9  7  1  0
 10 11  1  1
 11 12  1  0
 12 13  2  0
 14 10  1  0
 14 15  2  0
 16 12  1  0
 17 14  1  0
 18 17  1  0
 18 23  1  0
 18 19  1  6
 20 19  1  0
 21 20  1  0
 21 22  2  0
 23 24  1  0
 25 21  1  0
 26 23  2  0
M  END
$$$$
