IDE.pdb
     RDKit          3D

 26 25  0  0  1  0  0  0  0  0999 V2000
   14.8466  -12.4853  -17.2078 C   0  0  0  0  0  0  0  0  0  0  0  0
   16.2904  -12.2584  -16.9536 C   0  0  0  0  0  0  0  0  0  0  0  0
   16.6977  -10.9843  -16.3325 C   0  0  2  0  0  0  0  0  0  0  0  0
   16.2384   -9.7585  -17.0827 C   0  0  0  0  0  0  0  0  0  0  0  0
   18.1618  -10.8831  -16.0223 C   0  0  2  0  0  0  0  0  0  0  0  0
   18.6991  -12.0177  -15.3927 N   0  0  0  0  0  0  0  0  0  0  0  0
   18.3885   -9.5720  -15.3283 C   0  0  0  0  0  0  0  0  0  0  0  0
   17.8054   -9.3842  -14.2090 O   0  0  0  0  0  0  0  0  0  0  0  0
   19.2092   -8.6107  -15.9044 N   0  0  0  0  0  0  0  0  0  0  0  0
   19.6083   -7.3575  -15.3489 C   0  0  1  0  0  0  0  0  0  0  0  0
   21.0961   -7.1140  -15.2522 C   0  0  0  0  0  0  0  0  0  0  0  0
   21.7136   -8.2087  -14.4768 C   0  0  0  0  0  0  0  0  0  0  0  0
   21.6505   -8.1778  -13.2215 O   0  0  0  0  0  0  0  0  0  0  0  0
   18.7999   -6.2596  -15.8106 C   0  0  0  0  0  0  0  0  0  0  0  0
   18.4387   -6.2374  -17.0266 O   0  0  0  0  0  0  0  0  0  0  0  0
   22.3663   -9.2785  -15.0855 O   0  0  0  0  0  0  0  0  0  0  0  0
   18.3805   -5.1868  -14.9640 N   0  0  0  0  0  0  0  0  0  0  0  0
   17.4660   -4.1724  -15.4419 C   0  0  1  0  0  0  0  0  0  0  0  0
   16.1441   -4.3191  -14.7357 C   0  0  0  0  0  0  0  0  0  0  0  0
   15.2104   -3.2342  -15.2084 C   0  0  0  0  0  0  0  0  0  0  0  0
   13.8858   -3.3385  -14.5282 C   0  0  0  0  0  0  0  0  0  0  0  0
   13.6374   -4.3569  -13.8469 O   0  0  0  0  0  0  0  0  0  0  0  0
   18.0415   -2.8292  -15.1077 C   0  0  0  0  0  0  0  0  0  0  0  0
   17.6277   -1.6686  -15.7256 O   0  0  0  0  0  0  0  0  0  0  0  0
   12.9311   -2.3487  -14.6283 O   0  0  0  0  0  0  0  0  0  0  0  0
   18.9489   -2.7160  -14.2246 O   0  0  0  0  0  0  0  0  0  0  0  0
  2  3  1  0
  2  1  1  0
  3  5  1  0
  3  4  1  6
  5  7  1  0
  5  6  1  1
  7  8  2  0
  9 10  1  0
  9  7  1  0
 10 11  1  6
 11 12  1  0
 12 13  2  0
 14 10  1  0
 14 15  2  0
 16 12  1  0
 17 14  1  0
 18 17  1  0
 18 23  1  0
 18 19  1  1
 20 19  1  0
 21 20  1  0
 21 22  2  0
 23 24  1  0
 25 21  1  0
 26 23  2  0
M  END
$$$$
