IDE.pdb
     RDKit          3D

 26 25  0  0  1  0  0  0  0  0999 V2000
   27.9687  -12.5041  -16.1269 C   0  0  0  0  0  0  0  0  0  0  0  0
   26.5201  -12.8222  -16.0916 C   0  0  0  0  0  0  0  0  0  0  0  0
   25.5598  -11.7029  -16.0948 C   0  0  2  0  0  0  0  0  0  0  0  0
   25.7388  -10.7341  -14.9521 C   0  0  0  0  0  0  0  0  0  0  0  0
   24.1220  -12.1167  -16.2022 C   0  0  2  0  0  0  0  0  0  0  0  0
   23.8845  -13.1470  -17.1266 N   0  0  0  0  0  0  0  0  0  0  0  0
   23.3035  -10.8709  -16.3757 C   0  0  0  0  0  0  0  0  0  0  0  0
   23.4107  -10.2391  -17.4791 O   0  0  0  0  0  0  0  0  0  0  0  0
   22.4650  -10.4396  -15.3557 N   0  0  0  0  0  0  0  0  0  0  0  0
   21.6225   -9.2870  -15.3471 C   0  0  1  0  0  0  0  0  0  0  0  0
   20.1720   -9.5234  -14.9976 C   0  0  0  0  0  0  0  0  0  0  0  0
   19.6409  -10.6047  -15.8519 C   0  0  0  0  0  0  0  0  0  0  0  0
   19.6464  -10.4542  -17.1001 O   0  0  0  0  0  0  0  0  0  0  0  0
   22.2542   -8.1384  -14.7526 C   0  0  0  0  0  0  0  0  0  0  0  0
   22.7763   -8.2566  -13.6024 O   0  0  0  0  0  0  0  0  0  0  0  0
   19.1319  -11.7899  -15.3254 O   0  0  0  0  0  0  0  0  0  0  0  0
   22.3240   -6.8635  -15.3958 N   0  0  0  0  0  0  0  0  0  0  0  0
   23.0106   -5.7511  -14.7756 C   0  0  1  0  0  0  0  0  0  0  0  0
   23.0871   -4.6054  -15.7499 C   0  0  0  0  0  0  0  0  0  0  0  0
   21.6900   -4.2058  -16.1506 C   0  0  0  0  0  0  0  0  0  0  0  0
   21.7204   -3.1276  -17.1824 C   0  0  0  0  0  0  0  0  0  0  0  0
   22.1506   -3.3990  -18.3244 O   0  0  0  0  0  0  0  0  0  0  0  0
   22.2122   -5.3145  -13.5843 C   0  0  0  0  0  0  0  0  0  0  0  0
   22.7208   -4.4767  -12.6150 O   0  0  0  0  0  0  0  0  0  0  0  0
   21.2896   -1.8454  -16.9147 O   0  0  0  0  0  0  0  0  0  0  0  0
   21.0150   -5.7119  -13.4272 O   0  0  0  0  0  0  0  0  0  0  0  0
  2  3  1  0
  2  1  1  0
  3  5  1  0
  3  4  1  1
  5  7  1  0
  5  6  1  6
  7  8  2  0
  9 10  1  0
  9  7  1  0
 10 11  1  1
 11 12  1  0
 12 13  2  0
 14 10  1  0
 14 15  2  0
 16 12  1  0
 17 14  1  0
 18 17  1  0
 18 23  1  0
 18 19  1  6
 20 19  1  0
 21 20  1  0
 21 22  2  0
 23 24  1  0
 25 21  1  0
 26 23  2  0
M  END
$$$$
