IDE.pdb
     RDKit          3D

 26 25  0  0  1  0  0  0  0  0999 V2000
   13.4395  -11.1378  -16.1540 C   0  0  0  0  0  0  0  0  0  0  0  0
   14.8982  -11.3262  -15.9606 C   0  0  0  0  0  0  0  0  0  0  0  0
   15.7063  -10.1576  -15.5655 C   0  0  2  0  0  0  0  0  0  0  0  0
   15.5843   -8.9796  -16.5004 C   0  0  0  0  0  0  0  0  0  0  0  0
   17.1513  -10.4607  -15.3007 C   0  0  2  0  0  0  0  0  0  0  0  0
   17.3654  -11.5618  -14.4556 N   0  0  0  0  0  0  0  0  0  0  0  0
   17.8170   -9.1779  -14.8969 C   0  0  0  0  0  0  0  0  0  0  0  0
   17.4956   -8.6710  -13.7709 O   0  0  0  0  0  0  0  0  0  0  0  0
   18.7481   -8.5807  -15.7372 N   0  0  0  0  0  0  0  0  0  0  0  0
   19.4671   -7.3665  -15.5203 C   0  0  1  0  0  0  0  0  0  0  0  0
   20.9491   -7.4078  -15.8101 C   0  0  0  0  0  0  0  0  0  0  0  0
   21.5981   -8.3412  -14.8674 C   0  0  0  0  0  0  0  0  0  0  0  0
   21.9657   -9.4697  -15.2825 O   0  0  0  0  0  0  0  0  0  0  0  0
   18.7495   -6.2042  -15.9743 C   0  0  0  0  0  0  0  0  0  0  0  0
   18.2254   -6.2238  -17.1295 O   0  0  0  0  0  0  0  0  0  0  0  0
   21.8193   -8.0180  -13.5305 O   0  0  0  0  0  0  0  0  0  0  0  0
   18.5959   -5.0220  -15.1854 N   0  0  0  0  0  0  0  0  0  0  0  0
   17.8461   -3.8872  -15.6791 C   0  0  1  0  0  0  0  0  0  0  0  0
   16.9728   -3.3481  -14.5772 C   0  0  0  0  0  0  0  0  0  0  0  0
   16.2400   -2.1309  -15.0808 C   0  0  0  0  0  0  0  0  0  0  0  0
   15.3657   -1.5575  -14.0154 C   0  0  0  0  0  0  0  0  0  0  0  0
   15.3394   -2.1118  -12.8952 O   0  0  0  0  0  0  0  0  0  0  0  0
   18.8211   -2.8223  -16.0823 C   0  0  0  0  0  0  0  0  0  0  0  0
   18.4700   -1.7586  -16.8856 O   0  0  0  0  0  0  0  0  0  0  0  0
   14.5888   -0.4386  -14.2291 O   0  0  0  0  0  0  0  0  0  0  0  0
   20.0286   -2.8680  -15.6875 O   0  0  0  0  0  0  0  0  0  0  0  0
  2  3  1  0
  2  1  1  0
  3  5  1  0
  3  4  1  6
  5  7  1  0
  5  6  1  1
  7  8  2  0
  9 10  1  0
  9  7  1  0
 10 11  1  6
 11 12  1  0
 12 13  2  0
 14 10  1  0
 14 15  2  0
 16 12  1  0
 17 14  1  0
 18 17  1  0
 18 23  1  0
 18 19  1  1
 20 19  1  0
 21 20  1  0
 21 22  2  0
 23 24  1  0
 25 21  1  0
 26 23  2  0
M  END
$$$$
