IDE.pdb
     RDKit          3D

 26 25  0  0  1  0  0  0  0  0999 V2000
   18.7927  -12.2595  -20.7698 C   0  0  0  0  0  0  0  0  0  0  0  0
   19.5781  -12.0730  -19.5251 C   0  0  0  0  0  0  0  0  0  0  0  0
   19.4467  -10.7943  -18.8022 C   0  0  2  0  0  0  0  0  0  0  0  0
   19.6852   -9.5751  -19.6585 C   0  0  0  0  0  0  0  0  0  0  0  0
   20.2533  -10.7067  -17.5406 C   0  0  2  0  0  0  0  0  0  0  0  0
   20.1853  -11.8519  -16.7304 N   0  0  0  0  0  0  0  0  0  0  0  0
   19.9146   -9.4050  -16.8754 C   0  0  0  0  0  0  0  0  0  0  0  0
   18.6851   -9.1645  -16.6329 O   0  0  0  0  0  0  0  0  0  0  0  0
   20.9221   -8.5078  -16.5447 N   0  0  0  0  0  0  0  0  0  0  0  0
   20.7862   -7.2423  -15.8978 C   0  0  1  0  0  0  0  0  0  0  0  0
   21.2353   -7.1780  -14.4568 C   0  0  0  0  0  0  0  0  0  0  0  0
   20.2497   -7.8841  -13.6135 C   0  0  0  0  0  0  0  0  0  0  0  0
   19.0427   -7.8950  -13.9651 O   0  0  0  0  0  0  0  0  0  0  0  0
   21.1610   -6.1399  -16.7439 C   0  0  0  0  0  0  0  0  0  0  0  0
   22.3112   -6.1455  -17.2792 O   0  0  0  0  0  0  0  0  0  0  0  0
   20.6078   -8.5411  -12.4383 O   0  0  0  0  0  0  0  0  0  0  0  0
   20.2983   -5.0324  -17.0138 N   0  0  0  0  0  0  0  0  0  0  0  0
   20.7244   -3.9451  -17.8682 C   0  0  1  0  0  0  0  0  0  0  0  0
   19.5184   -3.1702  -18.3294 C   0  0  0  0  0  0  0  0  0  0  0  0
   18.6782   -4.0508  -19.2188 C   0  0  0  0  0  0  0  0  0  0  0  0
   17.4072   -3.3659  -19.5977 C   0  0  0  0  0  0  0  0  0  0  0  0
   16.5295   -3.1985  -18.7233 O   0  0  0  0  0  0  0  0  0  0  0  0
   21.6004   -3.0334  -17.0627 C   0  0  0  0  0  0  0  0  0  0  0  0
   22.3247   -2.0066  -17.6293 O   0  0  0  0  0  0  0  0  0  0  0  0
   17.1727   -2.9139  -20.8791 O   0  0  0  0  0  0  0  0  0  0  0  0
   21.7050   -3.1821  -15.8046 O   0  0  0  0  0  0  0  0  0  0  0  0
  2  3  1  0
  2  1  1  0
  3  5  1  0
  3  4  1  6
  5  7  1  0
  5  6  1  1
  7  8  2  0
  9 10  1  0
  9  7  1  0
 10 11  1  1
 11 12  1  0
 12 13  2  0
 14 10  1  0
 14 15  2  0
 16 12  1  0
 17 14  1  0
 18 17  1  0
 18 23  1  0
 18 19  1  1
 20 19  1  0
 21 20  1  0
 21 22  2  0
 23 24  1  0
 25 21  1  0
 26 23  2  0
M  END
$$$$
