IDE.pdb
     RDKit          3D

 26 25  0  0  1  0  0  0  0  0999 V2000
   19.1274  -13.6820  -17.6193 C   0  0  0  0  0  0  0  0  0  0  0  0
   18.7427  -12.8442  -16.4570 C   0  0  0  0  0  0  0  0  0  0  0  0
   19.1082  -11.4156  -16.4753 C   0  0  2  0  0  0  0  0  0  0  0  0
   20.5732  -11.1575  -16.7276 C   0  0  0  0  0  0  0  0  0  0  0  0
   18.6444  -10.6390  -15.2787 C   0  0  2  0  0  0  0  0  0  0  0  0
   17.3599  -10.9845  -14.8278 N   0  0  0  0  0  0  0  0  0  0  0  0
   18.8757   -9.1842  -15.5649 C   0  0  0  0  0  0  0  0  0  0  0  0
   19.9863   -8.8535  -16.0992 O   0  0  0  0  0  0  0  0  0  0  0  0
   17.8996   -8.2476  -15.2496 N   0  0  0  0  0  0  0  0  0  0  0  0
   17.9461   -6.8355  -15.4553 C   0  0  1  0  0  0  0  0  0  0  0  0
   16.6189   -6.1142  -15.4353 C   0  0  0  0  0  0  0  0  0  0  0  0
   15.7228   -6.7272  -16.4365 C   0  0  0  0  0  0  0  0  0  0  0  0
   16.1025   -6.7975  -17.6329 O   0  0  0  0  0  0  0  0  0  0  0  0
   19.0372   -6.2058  -14.7590 C   0  0  0  0  0  0  0  0  0  0  0  0
   19.1766   -6.4261  -13.5174 O   0  0  0  0  0  0  0  0  0  0  0  0
   14.4676   -7.2323  -16.1045 O   0  0  0  0  0  0  0  0  0  0  0  0
   19.9777   -5.3397  -15.3987 N   0  0  0  0  0  0  0  0  0  0  0  0
   21.1317   -4.8347  -14.6869 C   0  0  1  0  0  0  0  0  0  0  0  0
   22.3738   -5.1033  -15.4948 C   0  0  0  0  0  0  0  0  0  0  0  0
   22.6927   -6.5753  -15.4328 C   0  0  0  0  0  0  0  0  0  0  0  0
   23.8948   -6.8944  -16.2581 C   0  0  0  0  0  0  0  0  0  0  0  0
   23.7517   -7.5917  -17.2858 O   0  0  0  0  0  0  0  0  0  0  0  0
   20.9728   -3.3523  -14.5307 C   0  0  0  0  0  0  0  0  0  0  0  0
   21.6786   -2.6232  -13.5978 O   0  0  0  0  0  0  0  0  0  0  0  0
   25.1542   -6.4448  -15.9221 O   0  0  0  0  0  0  0  0  0  0  0  0
   20.1645   -2.7071  -15.2699 O   0  0  0  0  0  0  0  0  0  0  0  0
  2  3  1  0
  2  1  1  0
  3  5  1  0
  3  4  1  1
  5  7  1  0
  5  6  1  6
  7  8  2  0
  9 10  1  0
  9  7  1  0
 10 11  1  1
 11 12  1  0
 12 13  2  0
 14 10  1  0
 14 15  2  0
 16 12  1  0
 17 14  1  0
 18 17  1  0
 18 23  1  0
 18 19  1  6
 20 19  1  0
 21 20  1  0
 21 22  2  0
 23 24  1  0
 25 21  1  0
 26 23  2  0
M  END
$$$$
