PNH.pdb
     RDKit          3D

 26 27  0  0  1  0  0  0  0  0999 V2000
   37.9946    0.7558   -4.0219 N   0  0  0  0  0  0  0  0  0  0  0  0
   39.1386   -0.0276   -4.3485 C   0  0  0  0  0  0  0  0  0  0  0  0
   38.7871   -0.4971   -5.7690 C   0  0  0  0  0  0  0  0  0  0  0  0
   37.3481   -0.9089   -5.5771 C   0  0  0  0  0  0  0  0  0  0  0  0
   36.8496    0.2064   -4.6429 C   0  0  1  0  0  0  0  0  0  0  0  0
   35.7858   -0.2826   -3.7648 C   0  0  0  0  0  0  0  0  0  0  0  0
   34.7555   -0.7664   -4.3440 O   0  0  0  0  0  0  0  0  0  0  0  0
   32.8059   -1.9800    0.1154 N   0  0  0  0  0  0  0  0  0  0  0  0
   34.1956   -2.2643    0.3150 C   0  0  0  0  0  0  0  0  0  0  0  0
   34.5164   -3.1080    1.2086 O   0  0  0  0  0  0  0  0  0  0  0  0
   35.2792   -1.6388   -0.4571 C   0  0  0  0  0  0  0  0  0  0  0  0
   34.7599   -0.7475   -1.5708 C   0  0  2  0  0  0  0  0  0  0  0  0
   35.8764   -0.2319   -2.3544 N   0  0  0  0  0  0  0  0  0  0  0  0
   33.9684    0.3736   -0.9868 C   0  0  0  0  0  0  0  0  0  0  0  0
   34.4651    1.2389   -0.2443 O   0  0  0  0  0  0  0  0  0  0  0  0
   32.5732    0.4567   -1.2943 N   0  0  0  0  0  0  0  0  0  0  0  0
   31.7279    1.5323   -0.7784 C   0  0  1  0  0  0  0  0  0  0  0  0
   30.5727    1.6578   -1.7710 C   0  0  0  0  0  0  0  0  0  0  0  0
   30.9441    2.4299   -2.9795 C   0  0  0  0  0  0  0  0  0  0  0  0
   32.1124    3.0878   -3.2791 C   0  0  0  0  0  0  0  0  0  0  0  0
   31.9599    3.6342   -4.4909 N   0  0  0  0  0  0  0  0  0  0  0  0
   30.7512    3.3619   -4.9889 C   0  0  0  0  0  0  0  0  0  0  0  0
   30.1307    2.6218   -4.0584 N   0  0  0  0  0  0  0  0  0  0  0  0
   31.2307    1.1931    0.5776 C   0  0  0  0  0  0  0  0  0  0  0  0
   31.0819    2.1765    1.5280 O   0  0  0  0  0  0  0  0  0  0  0  0
   30.9380    0.0110    0.8811 O   0  0  0  0  0  0  0  0  0  0  0  0
  1  2  1  0
  3  2  1  0
  4  5  1  0
  4  3  1  0
  5  1  1  0
  5  6  1  1
  6  7  2  0
  8  9  1  0
  9 11  1  0
 10  9  2  0
 12 11  1  1
 12 14  1  0
 13  6  1  0
 13 12  1  0
 14 15  2  0
 16 14  1  0
 16 17  1  0
 17 24  1  0
 18 19  1  0
 17 18  1  6
 19 20  2  0
 19 23  1  0
 20 21  1  0
 21 22  1  0
 23 22  2  0
 24 25  1  0
 26 24  2  0
M  END
$$$$
