PNH.pdb
     RDKit          3D

 26 27  0  0  1  0  0  0  0  0999 V2000
   27.2878  -19.1474  -14.5229 N   0  0  0  0  0  0  0  0  0  0  0  0
   28.4917  -19.8924  -14.3661 C   0  0  0  0  0  0  0  0  0  0  0  0
   28.7572  -20.3444  -15.8107 C   0  0  0  0  0  0  0  0  0  0  0  0
   27.3770  -20.7995  -16.2172 C   0  0  0  0  0  0  0  0  0  0  0  0
   26.5083  -19.7165  -15.5559 C   0  0  1  0  0  0  0  0  0  0  0  0
   25.1979  -20.2514  -15.1836 C   0  0  0  0  0  0  0  0  0  0  0  0
   24.4715  -20.6797  -16.1428 O   0  0  0  0  0  0  0  0  0  0  0  0
   25.5500  -23.0728  -11.8610 N   0  0  0  0  0  0  0  0  0  0  0  0
   24.3704  -22.8748  -12.6490 C   0  0  0  0  0  0  0  0  0  0  0  0
   24.1278  -23.6946  -13.5884 O   0  0  0  0  0  0  0  0  0  0  0  0
   23.4162  -21.7770  -12.4345 C   0  0  0  0  0  0  0  0  0  0  0  0
   23.3963  -20.7903  -13.5880 C   0  0  2  0  0  0  0  0  0  0  0  0
   24.7457  -20.3006  -13.8446 N   0  0  0  0  0  0  0  0  0  0  0  0
   22.4817  -19.6581  -13.2624 C   0  0  0  0  0  0  0  0  0  0  0  0
   22.5495  -19.0164  -12.1993 O   0  0  0  0  0  0  0  0  0  0  0  0
   21.4796  -19.2941  -14.2170 N   0  0  0  0  0  0  0  0  0  0  0  0
   20.5705  -18.1704  -13.9972 C   0  0  1  0  0  0  0  0  0  0  0  0
   20.5748  -17.3778  -15.3038 C   0  0  0  0  0  0  0  0  0  0  0  0
   19.6899  -16.1909  -15.2506 C   0  0  0  0  0  0  0  0  0  0  0  0
   18.9344  -15.7021  -14.2124 C   0  0  0  0  0  0  0  0  0  0  0  0
   18.3088  -14.6069  -14.6590 N   0  0  0  0  0  0  0  0  0  0  0  0
   18.6226  -14.3640  -15.9340 C   0  0  0  0  0  0  0  0  0  0  0  0
   19.4713  -15.3383  -16.2936 N   0  0  0  0  0  0  0  0  0  0  0  0
   19.2081  -18.6632  -13.6775 C   0  0  0  0  0  0  0  0  0  0  0  0
   18.4714  -18.0679  -12.6800 O   0  0  0  0  0  0  0  0  0  0  0  0
   18.7053  -19.6254  -14.3072 O   0  0  0  0  0  0  0  0  0  0  0  0
  1  2  1  0
  3  2  1  0
  4  5  1  0
  4  3  1  0
  5  1  1  0
  5  6  1  1
  6  7  2  0
  8  9  1  0
  9 11  1  0
 10  9  2  0
 12 11  1  1
 12 14  1  0
 13  6  1  0
 13 12  1  0
 14 15  2  0
 16 14  1  0
 16 17  1  0
 17 24  1  0
 18 19  1  0
 17 18  1  6
 19 20  2  0
 19 23  1  0
 20 21  1  0
 21 22  1  0
 23 22  2  0
 24 25  1  0
 26 24  2  0
M  END
$$$$
