PNH.pdb
     RDKit          3D

 26 27  0  0  1  0  0  0  0  0999 V2000
   27.5439  -19.4136  -14.6281 N   0  0  0  0  0  0  0  0  0  0  0  0
   28.9217  -19.7453  -14.4845 C   0  0  0  0  0  0  0  0  0  0  0  0
   29.1699  -20.5629  -15.7619 C   0  0  0  0  0  0  0  0  0  0  0  0
   27.9501  -21.4512  -15.7643 C   0  0  0  0  0  0  0  0  0  0  0  0
   26.8701  -20.4618  -15.2957 C   0  0  1  0  0  0  0  0  0  0  0  0
   25.8132  -21.1522  -14.5551 C   0  0  0  0  0  0  0  0  0  0  0  0
   25.0744  -21.9425  -15.2337 O   0  0  0  0  0  0  0  0  0  0  0  0
   26.2190  -19.8673  -11.1027 N   0  0  0  0  0  0  0  0  0  0  0  0
   25.5576  -20.9590  -10.4528 C   0  0  0  0  0  0  0  0  0  0  0  0
   25.7831  -21.1520   -9.2178 O   0  0  0  0  0  0  0  0  0  0  0  0
   24.6262  -21.8731  -11.1301 C   0  0  0  0  0  0  0  0  0  0  0  0
   24.3791  -21.4846  -12.5766 C   0  0  2  0  0  0  0  0  0  0  0  0
   25.6079  -20.9683  -13.1681 N   0  0  0  0  0  0  0  0  0  0  0  0
   23.2965  -20.4607  -12.6418 C   0  0  0  0  0  0  0  0  0  0  0  0
   23.4932  -19.2518  -12.4261 O   0  0  0  0  0  0  0  0  0  0  0  0
   21.9703  -20.8895  -12.9666 N   0  0  0  0  0  0  0  0  0  0  0  0
   20.9594  -19.9650  -13.4776 C   0  0  1  0  0  0  0  0  0  0  0  0
   21.4738  -19.5084  -14.8423 C   0  0  0  0  0  0  0  0  0  0  0  0
   20.5189  -18.6156  -15.5391 C   0  0  0  0  0  0  0  0  0  0  0  0
   19.2882  -18.1568  -15.1360 C   0  0  0  0  0  0  0  0  0  0  0  0
   18.8156  -17.3772  -16.1154 N   0  0  0  0  0  0  0  0  0  0  0  0
   19.6799  -17.3096  -17.1310 C   0  0  0  0  0  0  0  0  0  0  0  0
   20.7247  -18.0707  -16.7732 N   0  0  0  0  0  0  0  0  0  0  0  0
   19.6497  -20.6503  -13.6040 C   0  0  0  0  0  0  0  0  0  0  0  0
   19.5717  -21.8969  -14.1805 O   0  0  0  0  0  0  0  0  0  0  0  0
   18.5955  -20.1098  -13.1896 O   0  0  0  0  0  0  0  0  0  0  0  0
  1  2  1  0
  3  2  1  0
  4  5  1  0
  4  3  1  0
  5  1  1  0
  5  6  1  1
  6  7  2  0
  8  9  1  0
  9 11  1  0
 10  9  2  0
 12 11  1  1
 12 14  1  0
 13  6  1  0
 13 12  1  0
 14 15  2  0
 16 14  1  0
 16 17  1  0
 17 24  1  0
 18 19  1  0
 17 18  1  6
 19 20  2  0
 19 23  1  0
 20 21  1  0
 21 22  1  0
 23 22  2  0
 24 25  1  0
 26 24  2  0
M  END
$$$$
