PNH.pdb
     RDKit          3D

 26 27  0  0  1  0  0  0  0  0999 V2000
   16.3936  -21.8195    1.7786 N   0  0  0  0  0  0  0  0  0  0  0  0
   15.6272  -21.9030    0.5809 C   0  0  0  0  0  0  0  0  0  0  0  0
   14.3004  -22.4694    1.1106 C   0  0  0  0  0  0  0  0  0  0  0  0
   14.8081  -23.5620    2.0193 C   0  0  0  0  0  0  0  0  0  0  0  0
   16.0277  -22.8701    2.6509 C   0  0  1  0  0  0  0  0  0  0  0  0
   17.0650  -23.8451    2.9908 C   0  0  0  0  0  0  0  0  0  0  0  0
   16.7232  -24.7713    3.8009 O   0  0  0  0  0  0  0  0  0  0  0  0
   18.6722  -25.7209    0.2608 N   0  0  0  0  0  0  0  0  0  0  0  0
   20.0093  -25.2919    0.5434 C   0  0  0  0  0  0  0  0  0  0  0  0
   20.8486  -25.2658   -0.4096 O   0  0  0  0  0  0  0  0  0  0  0  0
   20.4720  -24.8748    1.8752 C   0  0  0  0  0  0  0  0  0  0  0  0
   19.3404  -24.7901    2.8835 C   0  0  2  0  0  0  0  0  0  0  0  0
   18.3749  -23.7821    2.4616 N   0  0  0  0  0  0  0  0  0  0  0  0
   19.8922  -24.4560    4.2282 C   0  0  0  0  0  0  0  0  0  0  0  0
   20.1751  -23.2958    4.5754 O   0  0  0  0  0  0  0  0  0  0  0  0
   20.1069  -25.5195    5.1614 N   0  0  0  0  0  0  0  0  0  0  0  0
   20.3956  -25.2672    6.5723 C   0  0  1  0  0  0  0  0  0  0  0  0
   19.2029  -24.4697    7.0986 C   0  0  0  0  0  0  0  0  0  0  0  0
   19.2811  -24.2283    8.5581 C   0  0  0  0  0  0  0  0  0  0  0  0
   20.2828  -24.5320    9.4480 C   0  0  0  0  0  0  0  0  0  0  0  0
   19.8822  -24.1126   10.6538 N   0  0  0  0  0  0  0  0  0  0  0  0
   18.6716  -23.5530   10.5869 C   0  0  0  0  0  0  0  0  0  0  0  0
   18.3061  -23.6254    9.2985 N   0  0  0  0  0  0  0  0  0  0  0  0
   20.5455  -26.5480    7.3058 C   0  0  0  0  0  0  0  0  0  0  0  0
   21.3543  -26.6210    8.4162 O   0  0  0  0  0  0  0  0  0  0  0  0
   19.9410  -27.5818    6.9301 O   0  0  0  0  0  0  0  0  0  0  0  0
  1  2  1  0
  3  2  1  0
  4  5  1  0
  4  3  1  0
  5  1  1  0
  5  6  1  6
  6  7  2  0
  8  9  1  0
  9 11  1  0
 10  9  2  0
 12 11  1  6
 12 14  1  0
 13  6  1  0
 13 12  1  0
 14 15  2  0
 16 14  1  0
 16 17  1  0
 17 24  1  0
 18 19  1  0
 17 18  1  1
 19 20  2  0
 19 23  1  0
 20 21  1  0
 21 22  1  0
 23 22  2  0
 24 25  1  0
 26 24  2  0
M  END
$$$$
