PNH.pdb
     RDKit          3D

 26 27  0  0  1  0  0  0  0  0999 V2000
   22.2421  -10.1949  -17.5780 N   0  0  0  0  0  0  0  0  0  0  0  0
   21.9717  -11.2861  -18.4527 C   0  0  0  0  0  0  0  0  0  0  0  0
   23.0127  -11.0515  -19.5585 C   0  0  0  0  0  0  0  0  0  0  0  0
   22.8554   -9.5667  -19.7773 C   0  0  0  0  0  0  0  0  0  0  0  0
   22.6728   -9.0784  -18.3305 C   0  0  1  0  0  0  0  0  0  0  0  0
   21.8333   -7.8804  -18.2843 C   0  0  0  0  0  0  0  0  0  0  0  0
   22.2879   -6.8508  -18.8880 O   0  0  0  0  0  0  0  0  0  0  0  0
   17.2309   -8.4317  -19.6931 N   0  0  0  0  0  0  0  0  0  0  0  0
   18.2233   -7.4612  -19.3396 C   0  0  0  0  0  0  0  0  0  0  0  0
   19.0208   -7.0577  -20.2421 O   0  0  0  0  0  0  0  0  0  0  0  0
   18.3747   -6.8981  -17.9899 C   0  0  0  0  0  0  0  0  0  0  0  0
   19.8228   -6.6050  -17.6413 C   0  0  2  0  0  0  0  0  0  0  0  0
   20.5875   -7.8464  -17.6160 N   0  0  0  0  0  0  0  0  0  0  0  0
   19.8904   -5.9215  -16.3175 C   0  0  0  0  0  0  0  0  0  0  0  0
   19.1958   -4.9307  -16.0301 O   0  0  0  0  0  0  0  0  0  0  0  0
   20.7969   -6.4287  -15.3330 N   0  0  0  0  0  0  0  0  0  0  0  0
   21.0324   -5.7379  -14.0662 C   0  0  1  0  0  0  0  0  0  0  0  0
   21.1802   -6.8410  -13.0189 C   0  0  0  0  0  0  0  0  0  0  0  0
   19.8965   -7.5188  -12.7235 C   0  0  0  0  0  0  0  0  0  0  0  0
   18.6345   -7.2608  -13.2014 C   0  0  0  0  0  0  0  0  0  0  0  0
   17.8078   -8.1483  -12.6366 N   0  0  0  0  0  0  0  0  0  0  0  0
   18.4730   -8.9668  -11.8177 C   0  0  0  0  0  0  0  0  0  0  0  0
   19.7552   -8.5776  -11.8742 N   0  0  0  0  0  0  0  0  0  0  0  0
   22.2629   -4.9132  -14.1487 C   0  0  0  0  0  0  0  0  0  0  0  0
   22.6026   -4.0689  -13.1171 O   0  0  0  0  0  0  0  0  0  0  0  0
   23.0123   -4.9704  -15.1538 O   0  0  0  0  0  0  0  0  0  0  0  0
  1  2  1  0
  3  2  1  0
  4  5  1  0
  4  3  1  0
  5  1  1  0
  5  6  1  6
  6  7  2  0
  8  9  1  0
  9 11  1  0
 10  9  2  0
 12 11  1  1
 12 14  1  0
 13  6  1  0
 13 12  1  0
 14 15  2  0
 16 14  1  0
 16 17  1  0
 17 24  1  0
 18 19  1  0
 17 18  1  1
 19 20  2  0
 19 23  1  0
 20 21  1  0
 21 22  1  0
 23 22  2  0
 24 25  1  0
 26 24  2  0
M  END
$$$$
