PNH.pdb
     RDKit          3D

 26 27  0  0  1  0  0  0  0  0999 V2000
   25.4821  -19.4370  -16.2406 N   0  0  0  0  0  0  0  0  0  0  0  0
   25.6477  -19.7528  -17.6197 C   0  0  0  0  0  0  0  0  0  0  0  0
   25.8805  -18.3586  -18.2226 C   0  0  0  0  0  0  0  0  0  0  0  0
   24.7967  -17.5712  -17.5279 C   0  0  0  0  0  0  0  0  0  0  0  0
   24.8628  -18.1725  -16.1140 C   0  0  1  0  0  0  0  0  0  0  0  0
   23.5503  -18.1356  -15.4674 C   0  0  0  0  0  0  0  0  0  0  0  0
   22.9906  -16.9900  -15.3947 O   0  0  0  0  0  0  0  0  0  0  0  0
   18.0719  -18.7767  -15.5088 N   0  0  0  0  0  0  0  0  0  0  0  0
   19.2798  -18.3920  -14.8419 C   0  0  0  0  0  0  0  0  0  0  0  0
   19.1893  -17.8307  -13.7061 O   0  0  0  0  0  0  0  0  0  0  0  0
   20.6254  -18.6107  -15.3927 C   0  0  0  0  0  0  0  0  0  0  0  0
   21.5960  -19.1518  -14.3584 C   0  0  2  0  0  0  0  0  0  0  0  0
   22.9221  -19.2914  -14.9485 N   0  0  0  0  0  0  0  0  0  0  0  0
   21.1068  -20.4669  -13.8529 C   0  0  0  0  0  0  0  0  0  0  0  0
   21.2515  -21.5306  -14.4809 O   0  0  0  0  0  0  0  0  0  0  0  0
   20.4396  -20.5064  -12.5875 N   0  0  0  0  0  0  0  0  0  0  0  0
   20.0407  -21.7651  -11.9597 C   0  0  1  0  0  0  0  0  0  0  0  0
   20.0025  -21.4806  -10.4587 C   0  0  0  0  0  0  0  0  0  0  0  0
   19.5649  -22.6553   -9.6693 C   0  0  0  0  0  0  0  0  0  0  0  0
   19.1746  -23.9032  -10.0910 C   0  0  0  0  0  0  0  0  0  0  0  0
   18.8735  -24.6145   -8.9984 N   0  0  0  0  0  0  0  0  0  0  0  0
   19.0501  -23.8880   -7.8919 C   0  0  0  0  0  0  0  0  0  0  0  0
   19.4752  -22.6859   -8.3079 N   0  0  0  0  0  0  0  0  0  0  0  0
   18.7085  -22.1900  -12.4554 C   0  0  0  0  0  0  0  0  0  0  0  0
   17.6939  -21.2713  -12.5923 O   0  0  0  0  0  0  0  0  0  0  0  0
   18.4839  -23.3872  -12.7578 O   0  0  0  0  0  0  0  0  0  0  0  0
  1  2  1  0
  3  2  1  0
  4  5  1  0
  4  3  1  0
  5  1  1  0
  5  6  1  6
  6  7  2  0
  8  9  1  0
  9 11  1  0
 10  9  2  0
 12 11  1  6
 12 14  1  0
 13  6  1  0
 13 12  1  0
 14 15  2  0
 16 14  1  0
 16 17  1  0
 17 24  1  0
 18 19  1  0
 17 18  1  1
 19 20  2  0
 19 23  1  0
 20 21  1  0
 21 22  1  0
 23 22  2  0
 24 25  1  0
 26 24  2  0
M  END
$$$$
