PNH.pdb
     RDKit          3D

 26 27  0  0  1  0  0  0  0  0999 V2000
   27.3554  -34.0013   -3.0831 N   0  0  0  0  0  0  0  0  0  0  0  0
   28.4939  -33.7406   -3.8985 C   0  0  0  0  0  0  0  0  0  0  0  0
   29.3451  -34.9932   -3.6373 C   0  0  0  0  0  0  0  0  0  0  0  0
   29.2269  -35.1013   -2.1368 C   0  0  0  0  0  0  0  0  0  0  0  0
   27.7493  -34.7257   -1.9348 C   0  0  1  0  0  0  0  0  0  0  0  0
   27.5460  -34.0792   -0.6375 C   0  0  0  0  0  0  0  0  0  0  0  0
   27.8608  -32.8434   -0.5690 O   0  0  0  0  0  0  0  0  0  0  0  0
   24.6735  -32.4671    0.5670 N   0  0  0  0  0  0  0  0  0  0  0  0
   24.3743  -33.4470    1.5681 C   0  0  0  0  0  0  0  0  0  0  0  0
   23.1626  -33.6049    1.9146 O   0  0  0  0  0  0  0  0  0  0  0  0
   25.3885  -34.2882    2.2205 C   0  0  0  0  0  0  0  0  0  0  0  0
   26.7906  -34.0104    1.7090 C   0  0  2  0  0  0  0  0  0  0  0  0
   27.0308  -34.7668    0.4857 N   0  0  0  0  0  0  0  0  0  0  0  0
   27.7872  -34.3781    2.7560 C   0  0  0  0  0  0  0  0  0  0  0  0
   28.2006  -35.5395    2.9199 O   0  0  0  0  0  0  0  0  0  0  0  0
   28.2902  -33.3471    3.6116 N   0  0  0  0  0  0  0  0  0  0  0  0
   29.3310  -33.6031    4.6059 C   0  0  1  0  0  0  0  0  0  0  0  0
   30.0447  -32.2667    4.8058 C   0  0  0  0  0  0  0  0  0  0  0  0
   31.1094  -32.0361    3.8019 C   0  0  0  0  0  0  0  0  0  0  0  0
   31.5493  -32.8465    2.7835 C   0  0  0  0  0  0  0  0  0  0  0  0
   32.5309  -32.1922    2.1521 N   0  0  0  0  0  0  0  0  0  0  0  0
   32.7469  -30.9993    2.7121 C   0  0  0  0  0  0  0  0  0  0  0  0
   31.8718  -30.9069    3.7243 N   0  0  0  0  0  0  0  0  0  0  0  0
   28.7272  -34.0796    5.8745 C   0  0  0  0  0  0  0  0  0  0  0  0
   29.5289  -34.4238    6.9380 O   0  0  0  0  0  0  0  0  0  0  0  0
   27.4822  -34.1766    6.0007 O   0  0  0  0  0  0  0  0  0  0  0  0
  1  2  1  0
  3  2  1  0
  4  5  1  0
  4  3  1  0
  5  1  1  0
  5  6  1  1
  6  7  2  0
  8  9  1  0
  9 11  1  0
 10  9  2  0
 12 11  1  1
 12 14  1  0
 13  6  1  0
 13 12  1  0
 14 15  2  0
 16 14  1  0
 16 17  1  0
 17 24  1  0
 18 19  1  0
 17 18  1  1
 19 20  2  0
 19 23  1  0
 20 21  1  0
 21 22  1  0
 23 22  2  0
 24 25  1  0
 26 24  2  0
M  END
$$$$
