SSV.pdb
     RDKit          3D

 20 19  0  0  1  0  0  0  0  0999 V2000
    9.3175  -15.9470   18.9869 O   0  0  0  0  0  0  0  0  0  0  0  0
    8.8302  -15.4430   20.1758 C   0  0  0  0  0  0  0  0  0  0  0  0
    7.7913  -16.4065   20.7053 C   0  0  2  0  0  0  0  0  0  0  0  0
    6.5342  -16.2678   19.9528 N   0  0  0  0  0  0  0  0  0  0  0  0
    7.4534  -16.1437   22.1230 C   0  0  0  0  0  0  0  0  0  0  0  0
    6.6396  -15.2186   22.4714 O   0  0  0  0  0  0  0  0  0  0  0  0
    7.8350  -18.9206   25.0263 O   0  0  0  0  0  0  0  0  0  0  0  0
    7.0468  -17.7911   25.2100 C   0  0  0  0  0  0  0  0  0  0  0  0
    7.6657  -16.5577   24.5992 C   0  0  2  0  0  0  0  0  0  0  0  0
    7.9878  -16.8786   23.2224 N   0  0  0  0  0  0  0  0  0  0  0  0
    8.9114  -16.2358   25.3572 C   0  0  0  0  0  0  0  0  0  0  0  0
   10.0368  -16.6048   24.9292 O   0  0  0  0  0  0  0  0  0  0  0  0
    9.7569  -12.7949   27.1125 C   0  0  0  0  0  0  0  0  0  0  0  0
   10.0911  -13.9420   28.0454 C   0  0  1  0  0  0  0  0  0  0  0  0
    8.9754  -14.0558   29.0592 C   0  0  0  0  0  0  0  0  0  0  0  0
   10.1452  -15.2511   27.2858 C   0  0  2  0  0  0  0  0  0  0  0  0
    8.9079  -15.5108   26.5790 N   0  0  0  0  0  0  0  0  0  0  0  0
   10.3851  -16.3899   28.2055 C   0  0  0  0  0  0  0  0  0  0  0  0
   11.6318  -16.5989   28.7915 O   0  0  0  0  0  0  0  0  0  0  0  0
    9.4727  -17.2040   28.4870 O   0  0  0  0  0  0  0  0  0  0  0  0
  2  1  1  0
  3  2  1  0
  3  4  1  6
  5  3  1  0
  5  6  2  0
  7  8  1  0
  9  8  1  1
  9 10  1  0
 10  5  1  0
 11  9  1  0
 11 17  1  0
 12 11  2  0
 14 13  1  6
 14 15  1  0
 14 16  1  0
 16 17  1  1
 16 18  1  0
 18 20  2  0
 18 19  1  0
M  END
$$$$
