SSV.pdb
     RDKit          3D

 20 19  0  0  1  0  0  0  0  0999 V2000
   11.2427  -13.1565   19.0846 O   0  0  0  0  0  0  0  0  0  0  0  0
   10.6426  -14.3078   19.5528 C   0  0  0  0  0  0  0  0  0  0  0  0
    9.1751  -14.2549   19.1901 C   0  0  2  0  0  0  0  0  0  0  0  0
    8.8500  -12.9657   18.5593 N   0  0  0  0  0  0  0  0  0  0  0  0
    8.2991  -14.3638   20.3793 C   0  0  0  0  0  0  0  0  0  0  0  0
    7.6013  -13.3788   20.8063 O   0  0  0  0  0  0  0  0  0  0  0  0
    8.0225  -17.8010   22.9480 O   0  0  0  0  0  0  0  0  0  0  0  0
    6.9172  -17.1011   22.4800 C   0  0  0  0  0  0  0  0  0  0  0  0
    7.2174  -15.6379   22.2646 C   0  0  2  0  0  0  0  0  0  0  0  0
    8.1455  -15.5514   21.1541 N   0  0  0  0  0  0  0  0  0  0  0  0
    7.8505  -15.1030   23.5068 C   0  0  0  0  0  0  0  0  0  0  0  0
    9.0874  -14.8700   23.5478 O   0  0  0  0  0  0  0  0  0  0  0  0
    7.4168  -12.5554   27.7013 C   0  0  0  0  0  0  0  0  0  0  0  0
    6.7717  -13.1964   26.4885 C   0  0  1  0  0  0  0  0  0  0  0  0
    6.4369  -12.0976   25.5058 C   0  0  0  0  0  0  0  0  0  0  0  0
    7.7403  -14.1362   25.8012 C   0  0  2  0  0  0  0  0  0  0  0  0
    7.1173  -14.8294   24.6925 N   0  0  0  0  0  0  0  0  0  0  0  0
    8.2462  -15.1622   26.7456 C   0  0  0  0  0  0  0  0  0  0  0  0
    9.3729  -14.9314   27.5321 O   0  0  0  0  0  0  0  0  0  0  0  0
    7.6761  -16.2732   26.8680 O   0  0  0  0  0  0  0  0  0  0  0  0
  2  1  1  0
  3  2  1  0
  3  4  1  1
  5  3  1  0
  5  6  2  0
  7  8  1  0
  9  8  1  1
  9 10  1  0
 10  5  1  0
 11  9  1  0
 11 17  1  0
 12 11  2  0
 14 13  1  1
 14 15  1  0
 14 16  1  0
 16 17  1  6
 16 18  1  0
 18 20  2  0
 18 19  1  0
M  END
$$$$
