SSV.pdb
     RDKit          3D

 20 19  0  0  1  0  0  0  0  0999 V2000
   10.3259  -15.5180   18.9417 O   0  0  0  0  0  0  0  0  0  0  0  0
    9.9960  -16.2804   20.0438 C   0  0  0  0  0  0  0  0  0  0  0  0
    8.5663  -16.7473   19.8826 C   0  0  2  0  0  0  0  0  0  0  0  0
    7.9397  -16.0871   18.7262 N   0  0  0  0  0  0  0  0  0  0  0  0
    7.7289  -16.4054   21.0552 C   0  0  0  0  0  0  0  0  0  0  0  0
    6.9572  -15.3837   21.0692 O   0  0  0  0  0  0  0  0  0  0  0  0
    5.7051  -18.8893   23.6171 O   0  0  0  0  0  0  0  0  0  0  0  0
    6.6338  -18.0395   24.2053 C   0  0  0  0  0  0  0  0  0  0  0  0
    6.8620  -16.7907   23.3894 C   0  0  2  0  0  0  0  0  0  0  0  0
    7.6962  -17.1629   22.2633 N   0  0  0  0  0  0  0  0  0  0  0  0
    7.5707  -15.7950   24.2473 C   0  0  0  0  0  0  0  0  0  0  0  0
    8.8189  -15.6497   24.1651 O   0  0  0  0  0  0  0  0  0  0  0  0
    7.4707  -11.9057   27.3367 C   0  0  0  0  0  0  0  0  0  0  0  0
    6.6883  -12.9707   26.5941 C   0  0  1  0  0  0  0  0  0  0  0  0
    5.9040  -12.2893   25.4960 C   0  0  0  0  0  0  0  0  0  0  0  0
    7.6255  -13.9591   25.9320 C   0  0  2  0  0  0  0  0  0  0  0  0
    6.9000  -14.9681   25.1880 N   0  0  0  0  0  0  0  0  0  0  0  0
    8.4603  -14.6573   26.9400 C   0  0  0  0  0  0  0  0  0  0  0  0
    9.7218  -14.1820   27.2919 O   0  0  0  0  0  0  0  0  0  0  0  0
    8.0582  -15.7003   27.5100 O   0  0  0  0  0  0  0  0  0  0  0  0
  2  1  1  0
  3  2  1  0
  3  4  1  6
  5  3  1  0
  5  6  2  0
  7  8  1  0
  9  8  1  1
  9 10  1  0
 10  5  1  0
 11  9  1  0
 11 17  1  0
 12 11  2  0
 14 13  1  6
 14 15  1  0
 14 16  1  0
 16 17  1  1
 16 18  1  0
 18 20  2  0
 18 19  1  0
M  END
$$$$
