SSV.pdb
     RDKit          3D

 20 19  0  0  1  0  0  0  0  0999 V2000
   12.3440  -17.2899   21.9621 O   0  0  0  0  0  0  0  0  0  0  0  0
   11.9929  -16.5274   20.8667 C   0  0  0  0  0  0  0  0  0  0  0  0
   10.5136  -16.7178   20.6148 C   0  0  2  0  0  0  0  0  0  0  0  0
   10.0868  -15.9265   19.4497 N   0  0  0  0  0  0  0  0  0  0  0  0
    9.6866  -16.2540   21.7525 C   0  0  0  0  0  0  0  0  0  0  0  0
    9.3493  -15.0272   21.8967 O   0  0  0  0  0  0  0  0  0  0  0  0
    8.2558  -18.8368   24.7875 O   0  0  0  0  0  0  0  0  0  0  0  0
    7.5163  -17.7448   24.3498 C   0  0  0  0  0  0  0  0  0  0  0  0
    8.3953  -16.6089   23.8866 C   0  0  2  0  0  0  0  0  0  0  0  0
    9.1911  -17.1077   22.7820 N   0  0  0  0  0  0  0  0  0  0  0  0
    9.2816  -16.2116   25.0208 C   0  0  0  0  0  0  0  0  0  0  0  0
   10.4874  -16.5737   25.0506 O   0  0  0  0  0  0  0  0  0  0  0  0
   10.1964  -13.4177   29.0167 C   0  0  0  0  0  0  0  0  0  0  0  0
    9.1679  -13.9205   28.0231 C   0  0  1  0  0  0  0  0  0  0  0  0
    8.8039  -12.7716   27.1105 C   0  0  0  0  0  0  0  0  0  0  0  0
    9.7523  -15.0167   27.1567 C   0  0  2  0  0  0  0  0  0  0  0  0
    8.8336  -15.4196   26.1119 N   0  0  0  0  0  0  0  0  0  0  0  0
   10.0703  -16.2198   27.9642 C   0  0  0  0  0  0  0  0  0  0  0  0
   11.3071  -16.3685   28.5881 O   0  0  0  0  0  0  0  0  0  0  0  0
    9.2355  -17.1447   28.1125 O   0  0  0  0  0  0  0  0  0  0  0  0
  2  1  1  0
  3  2  1  0
  3  4  1  6
  5  3  1  0
  5  6  2  0
  7  8  1  0
  9  8  1  1
  9 10  1  0
 10  5  1  0
 11  9  1  0
 11 17  1  0
 12 11  2  0
 14 13  1  1
 14 15  1  0
 14 16  1  0
 16 17  1  6
 16 18  1  0
 18 20  2  0
 18 19  1  0
M  END
$$$$
