SSV.pdb
     RDKit          3D

 20 19  0  0  1  0  0  0  0  0999 V2000
   13.4147  -17.4464   22.2101 O   0  0  0  0  0  0  0  0  0  0  0  0
   12.6288  -18.3580   21.5347 C   0  0  0  0  0  0  0  0  0  0  0  0
   11.5509  -17.5952   20.7969 C   0  0  2  0  0  0  0  0  0  0  0  0
   12.1527  -16.6873   19.8074 N   0  0  0  0  0  0  0  0  0  0  0  0
   10.7472  -16.7426   21.7025 C   0  0  0  0  0  0  0  0  0  0  0  0
   10.8602  -15.4672   21.7194 O   0  0  0  0  0  0  0  0  0  0  0  0
    7.9290  -18.3484   24.3316 O   0  0  0  0  0  0  0  0  0  0  0  0
    7.7443  -17.0613   23.8415 C   0  0  0  0  0  0  0  0  0  0  0  0
    9.0522  -16.3759   23.5303 C   0  0  2  0  0  0  0  0  0  0  0  0
    9.7850  -17.2433   22.6287 N   0  0  0  0  0  0  0  0  0  0  0  0
    9.8068  -16.2069   24.8078 C   0  0  0  0  0  0  0  0  0  0  0  0
   10.8099  -16.9249   25.0608 O   0  0  0  0  0  0  0  0  0  0  0  0
    8.5552  -13.7165   28.1639 C   0  0  0  0  0  0  0  0  0  0  0  0
    9.9806  -13.7335   27.6482 C   0  0  1  0  0  0  0  0  0  0  0  0
   10.9060  -13.6216   28.8383 C   0  0  0  0  0  0  0  0  0  0  0  0
   10.2856  -15.0488   26.9621 C   0  0  2  0  0  0  0  0  0  0  0  0
    9.4510  -15.2496   25.7954 N   0  0  0  0  0  0  0  0  0  0  0  0
   10.0585  -16.1922   27.8794 C   0  0  0  0  0  0  0  0  0  0  0  0
   11.0262  -16.5858   28.8012 O   0  0  0  0  0  0  0  0  0  0  0  0
    8.9865  -16.8439   27.8560 O   0  0  0  0  0  0  0  0  0  0  0  0
  2  1  1  0
  3  2  1  0
  3  4  1  6
  5  3  1  0
  5  6  2  0
  7  8  1  0
  9  8  1  1
  9 10  1  0
 10  5  1  0
 11  9  1  0
 11 17  1  0
 12 11  2  0
 14 13  1  1
 14 15  1  0
 14 16  1  0
 16 17  1  6
 16 18  1  0
 18 20  2  0
 18 19  1  0
M  END
$$$$
