SSV.pdb
     RDKit          3D

 20 19  0  0  1  0  0  0  0  0999 V2000
   12.3815  -16.9472   21.5596 O   0  0  0  0  0  0  0  0  0  0  0  0
   11.7162  -18.0776   21.1300 C   0  0  0  0  0  0  0  0  0  0  0  0
   10.2694  -17.7088   20.8871 C   0  0  2  0  0  0  0  0  0  0  0  0
   10.1687  -16.7202   19.8016 N   0  0  0  0  0  0  0  0  0  0  0  0
    9.6434  -17.0821   22.0739 C   0  0  0  0  0  0  0  0  0  0  0  0
    9.3805  -15.8300   22.1268 O   0  0  0  0  0  0  0  0  0  0  0  0
    8.4243  -19.3233   25.4202 O   0  0  0  0  0  0  0  0  0  0  0  0
    7.6504  -18.2814   24.9239 C   0  0  0  0  0  0  0  0  0  0  0  0
    8.4908  -17.1875   24.3119 C   0  0  2  0  0  0  0  0  0  0  0  0
    9.2763  -17.7934   23.2545 N   0  0  0  0  0  0  0  0  0  0  0  0
    9.3898  -16.6408   25.3715 C   0  0  0  0  0  0  0  0  0  0  0  0
   10.6223  -16.8993   25.3640 O   0  0  0  0  0  0  0  0  0  0  0  0
   10.2616  -13.6272   29.2120 C   0  0  0  0  0  0  0  0  0  0  0  0
    9.2520  -14.1743   28.2225 C   0  0  1  0  0  0  0  0  0  0  0  0
    8.9382  -13.0807   27.2271 C   0  0  0  0  0  0  0  0  0  0  0  0
    9.8382  -15.3355   27.4467 C   0  0  2  0  0  0  0  0  0  0  0  0
    8.9250  -15.8146   26.4297 N   0  0  0  0  0  0  0  0  0  0  0  0
   10.1468  -16.4740   28.3462 C   0  0  0  0  0  0  0  0  0  0  0  0
   11.3937  -16.6002   28.9549 O   0  0  0  0  0  0  0  0  0  0  0  0
    9.2948  -17.3624   28.5892 O   0  0  0  0  0  0  0  0  0  0  0  0
  2  1  1  0
  3  2  1  0
  3  4  1  6
  5  3  1  0
  5  6  2  0
  7  8  1  0
  9  8  1  1
  9 10  1  0
 10  5  1  0
 11  9  1  0
 11 17  1  0
 12 11  2  0
 14 13  1  1
 14 15  1  0
 14 16  1  0
 16 17  1  6
 16 18  1  0
 18 20  2  0
 18 19  1  0
M  END
$$$$
