SSV.pdb
     RDKit          3D

 20 19  0  0  1  0  0  0  0  0999 V2000
   12.2861  -17.3667   21.9521 O   0  0  0  0  0  0  0  0  0  0  0  0
   11.3902  -18.2227   21.3442 C   0  0  0  0  0  0  0  0  0  0  0  0
   10.1557  -17.4294   20.9771 C   0  0  2  0  0  0  0  0  0  0  0  0
   10.4846  -16.4079   19.9701 N   0  0  0  0  0  0  0  0  0  0  0  0
    9.5933  -16.6987   22.1360 C   0  0  0  0  0  0  0  0  0  0  0  0
    9.6332  -15.4219   22.2235 O   0  0  0  0  0  0  0  0  0  0  0  0
    7.6236  -18.6384   25.3022 O   0  0  0  0  0  0  0  0  0  0  0  0
    7.2805  -17.3431   24.9345 C   0  0  0  0  0  0  0  0  0  0  0  0
    8.4567  -16.5763   24.3812 C   0  0  2  0  0  0  0  0  0  0  0  0
    8.9625  -17.3283   23.2495 N   0  0  0  0  0  0  0  0  0  0  0  0
    9.4991  -16.4870   25.4467 C   0  0  0  0  0  0  0  0  0  0  0  0
   10.5711  -17.1410   25.3524 O   0  0  0  0  0  0  0  0  0  0  0  0
   10.3733  -13.0713   27.3725 C   0  0  0  0  0  0  0  0  0  0  0  0
   10.3618  -14.2507   28.3248 C   0  0  1  0  0  0  0  0  0  0  0  0
    9.0438  -14.2365   29.0651 C   0  0  0  0  0  0  0  0  0  0  0  0
   10.4355  -15.5562   27.5605 C   0  0  2  0  0  0  0  0  0  0  0  0
    9.3529  -15.6791   26.6061 N   0  0  0  0  0  0  0  0  0  0  0  0
   10.3567  -16.7164   28.4814 C   0  0  0  0  0  0  0  0  0  0  0  0
   11.4236  -17.0590   29.3095 O   0  0  0  0  0  0  0  0  0  0  0  0
    9.3260  -17.4291   28.5456 O   0  0  0  0  0  0  0  0  0  0  0  0
  2  1  1  0
  3  2  1  0
  3  4  1  6
  5  3  1  0
  5  6  2  0
  7  8  1  0
  9  8  1  1
  9 10  1  0
 10  5  1  0
 11  9  1  0
 11 17  1  0
 12 11  2  0
 14 13  1  6
 14 15  1  0
 14 16  1  0
 16 17  1  6
 16 18  1  0
 18 20  2  0
 18 19  1  0
M  END
$$$$
