SSV.pdb
     RDKit          3D

 20 19  0  0  1  0  0  0  0  0999 V2000
   10.3531  -13.0213   20.4538 O   0  0  0  0  0  0  0  0  0  0  0  0
   10.1862  -14.0913   19.5981 C   0  0  0  0  0  0  0  0  0  0  0  0
    8.7089  -14.2350   19.3063 C   0  0  2  0  0  0  0  0  0  0  0  0
    8.1741  -12.9840   18.7452 N   0  0  0  0  0  0  0  0  0  0  0  0
    7.9195  -14.5081   20.5291 C   0  0  0  0  0  0  0  0  0  0  0  0
    7.1243  -13.6423   21.0367 O   0  0  0  0  0  0  0  0  0  0  0  0
    6.5023  -17.7676   23.8866 O   0  0  0  0  0  0  0  0  0  0  0  0
    7.1988  -17.4403   22.7296 C   0  0  0  0  0  0  0  0  0  0  0  0
    7.1853  -15.9564   22.4557 C   0  0  2  0  0  0  0  0  0  0  0  0
    7.9624  -15.7373   21.2514 N   0  0  0  0  0  0  0  0  0  0  0  0
    7.8239  -15.2618   23.6132 C   0  0  0  0  0  0  0  0  0  0  0  0
    9.0715  -15.0951   23.6531 O   0  0  0  0  0  0  0  0  0  0  0  0
    7.5407  -12.2732   27.5347 C   0  0  0  0  0  0  0  0  0  0  0  0
    6.8136  -13.0483   26.4537 C   0  0  1  0  0  0  0  0  0  0  0  0
    6.3597  -12.0624   25.4014 C   0  0  0  0  0  0  0  0  0  0  0  0
    7.7485  -14.0299   25.7784 C   0  0  2  0  0  0  0  0  0  0  0  0
    7.0844  -14.7568   24.7161 N   0  0  0  0  0  0  0  0  0  0  0  0
    8.2656  -15.0253   26.7491 C   0  0  0  0  0  0  0  0  0  0  0  0
    9.4579  -14.8146   27.4384 O   0  0  0  0  0  0  0  0  0  0  0  0
    7.6463  -16.0914   26.9822 O   0  0  0  0  0  0  0  0  0  0  0  0
  2  1  1  0
  3  2  1  0
  3  4  1  1
  5  3  1  0
  5  6  2  0
  7  8  1  0
  9  8  1  1
  9 10  1  0
 10  5  1  0
 11  9  1  0
 11 17  1  0
 12 11  2  0
 14 13  1  1
 14 15  1  0
 14 16  1  0
 16 17  1  6
 16 18  1  0
 18 20  2  0
 18 19  1  0
M  END
$$$$
