SSV.pdb
     RDKit          3D

 20 19  0  0  1  0  0  0  0  0999 V2000
   10.5740  -12.9945   20.0046 O   0  0  0  0  0  0  0  0  0  0  0  0
   10.2803  -14.2216   19.4454 C   0  0  0  0  0  0  0  0  0  0  0  0
    8.7945  -14.2682   19.1655 C   0  0  2  0  0  0  0  0  0  0  0  0
    8.3546  -13.0174   18.5270 N   0  0  0  0  0  0  0  0  0  0  0  0
    7.9942  -14.4015   20.4044 C   0  0  0  0  0  0  0  0  0  0  0  0
    7.3313  -13.4236   20.8982 O   0  0  0  0  0  0  0  0  0  0  0  0
    8.0287  -17.7859   23.0452 O   0  0  0  0  0  0  0  0  0  0  0  0
    6.8528  -17.1802   22.6196 C   0  0  0  0  0  0  0  0  0  0  0  0
    7.0388  -15.7102   22.3339 C   0  0  2  0  0  0  0  0  0  0  0  0
    7.8816  -15.6069   21.1586 N   0  0  0  0  0  0  0  0  0  0  0  0
    7.7174  -15.0879   23.5095 C   0  0  0  0  0  0  0  0  0  0  0  0
    8.9539  -14.8505   23.4856 O   0  0  0  0  0  0  0  0  0  0  0  0
    7.5180  -12.3716   27.6176 C   0  0  0  0  0  0  0  0  0  0  0  0
    6.7700  -13.1348   26.5425 C   0  0  1  0  0  0  0  0  0  0  0  0
    6.2001  -12.1278   25.5698 C   0  0  0  0  0  0  0  0  0  0  0  0
    7.7143  -14.0280   25.7652 C   0  0  2  0  0  0  0  0  0  0  0  0
    7.0297  -14.7324   24.7008 N   0  0  0  0  0  0  0  0  0  0  0  0
    8.3345  -15.0440   26.6503 C   0  0  0  0  0  0  0  0  0  0  0  0
    9.5184  -14.7824   27.3368 O   0  0  0  0  0  0  0  0  0  0  0  0
    7.8135  -16.1742   26.8107 O   0  0  0  0  0  0  0  0  0  0  0  0
  2  1  1  0
  3  2  1  0
  3  4  1  1
  5  3  1  0
  5  6  2  0
  7  8  1  0
  9  8  1  1
  9 10  1  0
 10  5  1  0
 11  9  1  0
 11 17  1  0
 12 11  2  0
 14 13  1  1
 14 15  1  0
 14 16  1  0
 16 17  1  6
 16 18  1  0
 18 20  2  0
 18 19  1  0
M  END
$$$$
