SSV.pdb
     RDKit          3D

 20 19  0  0  1  0  0  0  0  0999 V2000
    9.6387  -16.7796   18.4904 O   0  0  0  0  0  0  0  0  0  0  0  0
    8.8016  -16.2526   19.4528 C   0  0  0  0  0  0  0  0  0  0  0  0
    8.1394  -17.4012   20.1811 C   0  0  2  0  0  0  0  0  0  0  0  0
    7.1646  -18.0693   19.3040 N   0  0  0  0  0  0  0  0  0  0  0  0
    7.3810  -16.9489   21.3699 C   0  0  0  0  0  0  0  0  0  0  0  0
    6.1340  -16.6631   21.3168 O   0  0  0  0  0  0  0  0  0  0  0  0
    8.0421  -18.0782   25.2187 O   0  0  0  0  0  0  0  0  0  0  0  0
    6.8864  -17.5461   24.6599 C   0  0  0  0  0  0  0  0  0  0  0  0
    7.1709  -16.3357   23.8047 C   0  0  2  0  0  0  0  0  0  0  0  0
    7.9491  -16.7891   22.6684 N   0  0  0  0  0  0  0  0  0  0  0  0
    7.9640  -15.3656   24.6169 C   0  0  0  0  0  0  0  0  0  0  0  0
    9.2219  -15.3562   24.5578 O   0  0  0  0  0  0  0  0  0  0  0  0
    7.1826  -11.4678   25.2562 C   0  0  0  0  0  0  0  0  0  0  0  0
    7.4720  -12.2067   26.5478 C   0  0  1  0  0  0  0  0  0  0  0  0
    6.1486  -12.5472   27.1942 C   0  0  0  0  0  0  0  0  0  0  0  0
    8.1866  -13.5125   26.2686 C   0  0  2  0  0  0  0  0  0  0  0  0
    7.3662  -14.4146   25.4868 N   0  0  0  0  0  0  0  0  0  0  0  0
    8.5393  -14.2061   27.5315 C   0  0  0  0  0  0  0  0  0  0  0  0
    9.5603  -13.7376   28.3556 O   0  0  0  0  0  0  0  0  0  0  0  0
    7.9296  -15.2389   27.9004 O   0  0  0  0  0  0  0  0  0  0  0  0
  2  1  1  0
  3  2  1  0
  3  4  1  6
  5  3  1  0
  5  6  2  0
  7  8  1  0
  9  8  1  1
  9 10  1  0
 10  5  1  0
 11  9  1  0
 11 17  1  0
 12 11  2  0
 14 13  1  6
 14 15  1  0
 14 16  1  0
 16 17  1  6
 16 18  1  0
 18 20  2  0
 18 19  1  0
M  END
$$$$
