SSV.pdb
     RDKit          3D

 20 19  0  0  1  0  0  0  0  0999 V2000
   11.9520  -16.9163   19.5154 O   0  0  0  0  0  0  0  0  0  0  0  0
   11.3684  -16.4248   20.6654 C   0  0  0  0  0  0  0  0  0  0  0  0
    9.9069  -16.8145   20.6555 C   0  0  2  0  0  0  0  0  0  0  0  0
    9.2063  -16.1450   19.5479 N   0  0  0  0  0  0  0  0  0  0  0  0
    9.2078  -16.4016   21.8941 C   0  0  0  0  0  0  0  0  0  0  0  0
    8.7778  -15.2085   22.0706 O   0  0  0  0  0  0  0  0  0  0  0  0
    8.3668  -19.1058   24.9564 O   0  0  0  0  0  0  0  0  0  0  0  0
    7.5148  -18.0301   24.7380 C   0  0  0  0  0  0  0  0  0  0  0  0
    8.2413  -16.8304   24.1810 C   0  0  2  0  0  0  0  0  0  0  0  0
    8.9467  -17.2717   22.9936 N   0  0  0  0  0  0  0  0  0  0  0  0
    9.2136  -16.3539   25.2094 C   0  0  0  0  0  0  0  0  0  0  0  0
   10.4433  -16.5991   25.0927 O   0  0  0  0  0  0  0  0  0  0  0  0
   10.4195  -13.6075   29.1409 C   0  0  0  0  0  0  0  0  0  0  0  0
    9.3436  -14.0382   28.1638 C   0  0  1  0  0  0  0  0  0  0  0  0
    9.1175  -12.9024   27.1921 C   0  0  0  0  0  0  0  0  0  0  0  0
    9.8011  -15.2363   27.3582 C   0  0  2  0  0  0  0  0  0  0  0  0
    8.8244  -15.6121   26.3569 N   0  0  0  0  0  0  0  0  0  0  0  0
   10.0223  -16.4129   28.2341 C   0  0  0  0  0  0  0  0  0  0  0  0
   11.2529  -16.6399   28.8469 O   0  0  0  0  0  0  0  0  0  0  0  0
    9.1080  -17.2439   28.4529 O   0  0  0  0  0  0  0  0  0  0  0  0
  2  1  1  0
  3  2  1  0
  3  4  1  6
  5  3  1  0
  5  6  2  0
  7  8  1  0
  9  8  1  1
  9 10  1  0
 10  5  1  0
 11  9  1  0
 11 17  1  0
 12 11  2  0
 14 13  1  1
 14 15  1  0
 14 16  1  0
 16 17  1  6
 16 18  1  0
 18 20  2  0
 18 19  1  0
M  END
$$$$
