SSV.pdb
     RDKit          3D

 20 19  0  0  1  0  0  0  0  0999 V2000
   12.3879  -16.4828   21.2596 O   0  0  0  0  0  0  0  0  0  0  0  0
   11.7561  -17.7071   21.1779 C   0  0  0  0  0  0  0  0  0  0  0  0
   10.2867  -17.4623   20.9154 C   0  0  2  0  0  0  0  0  0  0  0  0
   10.1151  -16.5811   19.7492 N   0  0  0  0  0  0  0  0  0  0  0  0
    9.6205  -16.7798   22.0484 C   0  0  0  0  0  0  0  0  0  0  0  0
    9.2022  -15.5723   21.9682 O   0  0  0  0  0  0  0  0  0  0  0  0
    8.0436  -18.7390   25.3873 O   0  0  0  0  0  0  0  0  0  0  0  0
    7.6272  -17.4970   24.9239 C   0  0  0  0  0  0  0  0  0  0  0  0
    8.7777  -16.6607   24.4198 C   0  0  2  0  0  0  0  0  0  0  0  0
    9.3811  -17.3844   23.3178 N   0  0  0  0  0  0  0  0  0  0  0  0
    9.7623  -16.5021   25.5313 C   0  0  0  0  0  0  0  0  0  0  0  0
   10.8768  -17.0870   25.4900 O   0  0  0  0  0  0  0  0  0  0  0  0
   10.4496  -13.1053   27.5882 C   0  0  0  0  0  0  0  0  0  0  0  0
   10.3476  -14.3037   28.5109 C   0  0  1  0  0  0  0  0  0  0  0  0
    8.9632  -14.3056   29.1179 C   0  0  0  0  0  0  0  0  0  0  0  0
   10.4999  -15.5934   27.7316 C   0  0  2  0  0  0  0  0  0  0  0  0
    9.5120  -15.7015   26.6779 N   0  0  0  0  0  0  0  0  0  0  0  0
   10.3421  -16.7721   28.6184 C   0  0  0  0  0  0  0  0  0  0  0  0
   11.3238  -17.1202   29.5438 O   0  0  0  0  0  0  0  0  0  0  0  0
    9.3186  -17.4959   28.5649 O   0  0  0  0  0  0  0  0  0  0  0  0
  2  1  1  0
  3  2  1  0
  3  4  1  6
  5  3  1  0
  5  6  2  0
  7  8  1  0
  9  8  1  1
  9 10  1  0
 10  5  1  0
 11  9  1  0
 11 17  1  0
 12 11  2  0
 14 13  1  6
 14 15  1  0
 14 16  1  0
 16 17  1  6
 16 18  1  0
 18 20  2  0
 18 19  1  0
M  END
$$$$
