SSV.pdb
     RDKit          3D

 20 19  0  0  1  0  0  0  0  0999 V2000
   11.8707  -17.5854   20.2576 O   0  0  0  0  0  0  0  0  0  0  0  0
   11.3422  -16.4864   20.9038 C   0  0  0  0  0  0  0  0  0  0  0  0
    9.8393  -16.6492   20.9575 C   0  0  2  0  0  0  0  0  0  0  0  0
    9.1955  -15.7924   19.9488 N   0  0  0  0  0  0  0  0  0  0  0  0
    9.2770  -16.2395   22.2648 C   0  0  0  0  0  0  0  0  0  0  0  0
    8.9987  -15.0196   22.5369 O   0  0  0  0  0  0  0  0  0  0  0  0
    8.1682  -18.9782   25.3201 O   0  0  0  0  0  0  0  0  0  0  0  0
    7.5039  -17.7824   25.0758 C   0  0  0  0  0  0  0  0  0  0  0  0
    8.4375  -16.6985   24.5957 C   0  0  2  0  0  0  0  0  0  0  0  0
    8.9931  -17.1422   23.3320 N   0  0  0  0  0  0  0  0  0  0  0  0
    9.5245  -16.5364   25.6067 C   0  0  0  0  0  0  0  0  0  0  0  0
   10.6749  -17.0018   25.3927 O   0  0  0  0  0  0  0  0  0  0  0  0
   10.3888  -13.2325   27.5238 C   0  0  0  0  0  0  0  0  0  0  0  0
   10.3696  -14.3870   28.5059 C   0  0  1  0  0  0  0  0  0  0  0  0
    9.0518  -14.3453   29.2455 C   0  0  0  0  0  0  0  0  0  0  0  0
   10.4348  -15.7121   27.7753 C   0  0  2  0  0  0  0  0  0  0  0  0
    9.3361  -15.8639   26.8439 N   0  0  0  0  0  0  0  0  0  0  0  0
   10.3768  -16.8477   28.7279 C   0  0  0  0  0  0  0  0  0  0  0  0
   11.4603  -17.1661   29.5440 O   0  0  0  0  0  0  0  0  0  0  0  0
    9.3492  -17.5604   28.8309 O   0  0  0  0  0  0  0  0  0  0  0  0
  2  1  1  0
  3  2  1  0
  3  4  1  6
  5  3  1  0
  5  6  2  0
  7  8  1  0
  9  8  1  1
  9 10  1  0
 10  5  1  0
 11  9  1  0
 11 17  1  0
 12 11  2  0
 14 13  1  6
 14 15  1  0
 14 16  1  0
 16 17  1  6
 16 18  1  0
 18 20  2  0
 18 19  1  0
M  END
$$$$
