SSV.pdb
     RDKit          3D

 20 19  0  0  1  0  0  0  0  0999 V2000
    7.1382  -18.2206   26.0471 O   0  0  0  0  0  0  0  0  0  0  0  0
    6.2099  -18.6385   25.1153 C   0  0  0  0  0  0  0  0  0  0  0  0
    6.9415  -18.9505   23.8287 C   0  0  2  0  0  0  0  0  0  0  0  0
    7.8922  -20.0547   24.0355 N   0  0  0  0  0  0  0  0  0  0  0  0
    7.7430  -17.8023   23.3465 C   0  0  0  0  0  0  0  0  0  0  0  0
    9.0067  -17.7231   23.5371 O   0  0  0  0  0  0  0  0  0  0  0  0
    5.9250  -14.5959   21.5455 O   0  0  0  0  0  0  0  0  0  0  0  0
    7.2267  -14.8471   21.1292 C   0  0  0  0  0  0  0  0  0  0  0  0
    8.0253  -15.5920   22.1707 C   0  0  2  0  0  0  0  0  0  0  0  0
    7.2015  -16.6910   22.6352 N   0  0  0  0  0  0  0  0  0  0  0  0
    8.3146  -14.6545   23.2964 C   0  0  0  0  0  0  0  0  0  0  0  0
    9.0341  -13.6369   23.1157 O   0  0  0  0  0  0  0  0  0  0  0  0
    7.3285  -12.3508   27.4161 C   0  0  0  0  0  0  0  0  0  0  0  0
    6.9349  -13.2986   26.3005 C   0  0  1  0  0  0  0  0  0  0  0  0
    6.2475  -12.4891   25.2246 C   0  0  0  0  0  0  0  0  0  0  0  0
    8.1622  -13.9288   25.6758 C   0  0  2  0  0  0  0  0  0  0  0  0
    7.8097  -14.8448   24.6106 N   0  0  0  0  0  0  0  0  0  0  0  0
    8.9407  -14.6895   26.6836 C   0  0  0  0  0  0  0  0  0  0  0  0
    9.1556  -16.0597   26.5510 O   0  0  0  0  0  0  0  0  0  0  0  0
    9.4321  -14.1242   27.6903 O   0  0  0  0  0  0  0  0  0  0  0  0
  2  1  1  0
  3  2  1  0
  3  4  1  1
  5  3  1  0
  5  6  2  0
  7  8  1  0
  9  8  1  6
  9 10  1  0
 10  5  1  0
 11  9  1  0
 11 17  1  0
 12 11  2  0
 14 13  1  1
 14 15  1  0
 14 16  1  0
 16 17  1  6
 16 18  1  0
 18 20  2  0
 18 19  1  0
M  END
$$$$
