SSV.pdb
     RDKit          3D

 20 19  0  0  1  0  0  0  0  0999 V2000
    3.5289  -19.1675   22.8431 O   0  0  0  0  0  0  0  0  0  0  0  0
    3.0528  -18.1029   22.1051 C   0  0  0  0  0  0  0  0  0  0  0  0
    3.8676  -18.0090   20.8341 C   0  0  2  0  0  0  0  0  0  0  0  0
    3.8168  -19.2827   20.0986 N   0  0  0  0  0  0  0  0  0  0  0  0
    5.2998  -17.7464   21.1039 C   0  0  0  0  0  0  0  0  0  0  0  0
    6.1341  -18.6880   21.3424 O   0  0  0  0  0  0  0  0  0  0  0  0
    6.8828  -13.8404   21.6465 O   0  0  0  0  0  0  0  0  0  0  0  0
    7.6458  -14.8447   21.0635 C   0  0  0  0  0  0  0  0  0  0  0  0
    7.2516  -16.2172   21.5514 C   0  0  2  0  0  0  0  0  0  0  0  0
    5.8848  -16.4457   21.1251 N   0  0  0  0  0  0  0  0  0  0  0  0
    7.3332  -16.2244   23.0425 C   0  0  0  0  0  0  0  0  0  0  0  0
    6.3089  -16.0090   23.7425 O   0  0  0  0  0  0  0  0  0  0  0  0
    7.8135  -18.5494   26.8218 C   0  0  0  0  0  0  0  0  0  0  0  0
    7.6944  -18.0906   25.3820 C   0  0  1  0  0  0  0  0  0  0  0  0
    6.2473  -17.7359   25.1262 C   0  0  0  0  0  0  0  0  0  0  0  0
    8.5134  -16.8379   25.1501 C   0  0  2  0  0  0  0  0  0  0  0  0
    8.5409  -16.4685   23.7499 N   0  0  0  0  0  0  0  0  0  0  0  0
    9.9163  -17.0307   25.5917 C   0  0  0  0  0  0  0  0  0  0  0  0
   10.3463  -16.6065   26.8473 O   0  0  0  0  0  0  0  0  0  0  0  0
   10.7637  -17.5825   24.8489 O   0  0  0  0  0  0  0  0  0  0  0  0
  2  1  1  0
  3  2  1  0
  3  4  1  1
  5  3  1  0
  5  6  2  0
  7  8  1  0
  9  8  1  1
  9 10  1  0
 10  5  1  0
 11  9  1  0
 11 17  1  0
 12 11  2  0
 14 13  1  1
 14 15  1  0
 14 16  1  0
 16 17  1  6
 16 18  1  0
 18 20  2  0
 18 19  1  0
M  END
$$$$
