PKL.pdb
     RDKit          3D

 25 25  0  0  1  0  0  0  0  0999 V2000
    8.5783  -15.2139   18.8474 N   0  0  0  0  0  0  0  0  0  0  0  0
    8.9745  -14.5089   17.6412 C   0  0  0  0  0  0  0  0  0  0  0  0
    8.1520  -13.2369   17.5983 C   0  0  0  0  0  0  0  0  0  0  0  0
    7.4314  -13.2266   18.9526 C   0  0  0  0  0  0  0  0  0  0  0  0
    8.3442  -14.1151   19.7651 C   0  0  1  0  0  0  0  0  0  0  0  0
    7.7342  -14.6111   21.0001 C   0  0  0  0  0  0  0  0  0  0  0  0
    7.3086  -13.8836   21.9293 O   0  0  0  0  0  0  0  0  0  0  0  0
    7.5924  -16.0250   21.2058 N   0  0  0  0  0  0  0  0  0  0  0  0
    7.0105  -16.5616   22.4148 C   0  0  1  0  0  0  0  0  0  0  0  0
    7.1278  -18.0928   22.2838 C   0  0  0  0  0  0  0  0  0  0  0  0
    6.5153  -18.6503   23.5243 C   0  0  0  0  0  0  0  0  0  0  0  0
    6.4957  -20.1510   23.4689 C   0  0  0  0  0  0  0  0  0  0  0  0
    5.8167  -20.6800   24.7066 C   0  0  0  0  0  0  0  0  0  0  0  0
    5.8363  -22.1405   24.5944 N   0  0  0  0  0  0  0  0  0  0  0  0
    7.8995  -16.1893   23.5558 C   0  0  0  0  0  0  0  0  0  0  0  0
    9.1355  -16.2206   23.3718 O   0  0  0  0  0  0  0  0  0  0  0  0
    6.5191  -11.2657   26.4377 C   0  0  0  0  0  0  0  0  0  0  0  0
    7.5211  -12.3529   26.3485 C   0  0  1  0  0  0  0  0  0  0  0  0
    8.0966  -12.6225   27.7479 C   0  0  0  0  0  0  0  0  0  0  0  0
    7.1774  -13.5855   25.6400 C   0  0  0  0  0  0  0  0  0  0  0  0
    8.1193  -14.7240   25.5456 C   0  0  2  0  0  0  0  0  0  0  0  0
    7.4103  -15.8110   24.8088 N   0  0  0  0  0  0  0  0  0  0  0  0
    8.5621  -15.3324   26.7876 C   0  0  0  0  0  0  0  0  0  0  0  0
    9.7906  -14.9821   27.3492 O   0  0  0  0  0  0  0  0  0  0  0  0
    7.8945  -16.1783   27.4092 O   0  0  0  0  0  0  0  0  0  0  0  0
  1  2  1  0
  2  3  1  0
  4  3  1  0
  5  1  1  0
  5  4  1  0
  5  6  1  1
  7  6  2  0
  8  6  1  0
  9  8  1  0
  9 10  1  6
 10 11  1  0
 11 12  1  0
 12 13  1  0
 13 14  1  0
 15 16  2  0
 15  9  1  0
 18 17  1  1
 19 18  1  0
 21 20  1  1
 20 18  1  0
 21 22  1  0
 22 15  1  0
 23 24  1  0
 23 21  1  0
 25 23  2  0
M  END
$$$$
