PKL.pdb
     RDKit          3D

 25 25  0  0  1  0  0  0  0  0999 V2000
    8.8009  -15.0473   19.0538 N   0  0  0  0  0  0  0  0  0  0  0  0
    9.1449  -14.3533   17.8254 C   0  0  0  0  0  0  0  0  0  0  0  0
    8.2416  -13.1388   17.7518 C   0  0  0  0  0  0  0  0  0  0  0  0
    7.5283  -13.1360   19.1100 C   0  0  0  0  0  0  0  0  0  0  0  0
    8.5005  -13.9399   19.9414 C   0  0  1  0  0  0  0  0  0  0  0  0
    7.9298  -14.4384   21.1940 C   0  0  0  0  0  0  0  0  0  0  0  0
    7.3867  -13.7204   22.0677 O   0  0  0  0  0  0  0  0  0  0  0  0
    7.9723  -15.8436   21.4859 N   0  0  0  0  0  0  0  0  0  0  0  0
    7.3201  -16.3970   22.6506 C   0  0  1  0  0  0  0  0  0  0  0  0
    7.5829  -17.9144   22.5876 C   0  0  0  0  0  0  0  0  0  0  0  0
    6.8023  -18.5044   23.7134 C   0  0  0  0  0  0  0  0  0  0  0  0
    7.0508  -19.9828   23.8035 C   0  0  0  0  0  0  0  0  0  0  0  0
    6.2883  -20.5389   24.9793 C   0  0  0  0  0  0  0  0  0  0  0  0
    6.7352  -21.9246   25.1414 N   0  0  0  0  0  0  0  0  0  0  0  0
    8.0535  -15.9148   23.8591 C   0  0  0  0  0  0  0  0  0  0  0  0
    9.3015  -15.9855   23.8558 O   0  0  0  0  0  0  0  0  0  0  0  0
    5.8357  -11.8107   26.7530 C   0  0  0  0  0  0  0  0  0  0  0  0
    6.8384  -12.6557   26.0643 C   0  0  1  0  0  0  0  0  0  0  0  0
    7.9188  -11.7529   25.4479 C   0  0  0  0  0  0  0  0  0  0  0  0
    7.4069  -13.8061   26.7661 C   0  0  0  0  0  0  0  0  0  0  0  0
    8.2442  -14.8116   26.0731 C   0  0  2  0  0  0  0  0  0  0  0  0
    7.4072  -15.3927   24.9827 N   0  0  0  0  0  0  0  0  0  0  0  0
    8.7035  -15.9506   26.8480 C   0  0  0  0  0  0  0  0  0  0  0  0
    9.8665  -15.8631   27.6142 O   0  0  0  0  0  0  0  0  0  0  0  0
    8.1073  -17.0420   26.8762 O   0  0  0  0  0  0  0  0  0  0  0  0
  1  2  1  0
  2  3  1  0
  4  3  1  0
  5  1  1  0
  5  4  1  0
  5  6  1  1
  7  6  2  0
  8  6  1  0
  9  8  1  0
  9 10  1  6
 10 11  1  0
 11 12  1  0
 12 13  1  0
 13 14  1  0
 15 16  2  0
 15  9  1  0
 18 17  1  1
 19 18  1  0
 21 20  1  1
 20 18  1  0
 21 22  1  0
 22 15  1  0
 23 24  1  0
 23 21  1  0
 25 23  2  0
M  END
$$$$
