PKL.pdb
     RDKit          3D

 25 25  0  0  1  0  0  0  0  0999 V2000
    8.5402  -15.1478   19.2306 N   0  0  0  0  0  0  0  0  0  0  0  0
    8.9003  -14.4564   18.0053 C   0  0  0  0  0  0  0  0  0  0  0  0
    8.0939  -13.1736   17.9841 C   0  0  0  0  0  0  0  0  0  0  0  0
    7.4248  -13.1444   19.3643 C   0  0  0  0  0  0  0  0  0  0  0  0
    8.3555  -14.0398   20.1484 C   0  0  1  0  0  0  0  0  0  0  0  0
    7.7857  -14.5190   21.4090 C   0  0  0  0  0  0  0  0  0  0  0  0
    7.4604  -13.7835   22.3717 O   0  0  0  0  0  0  0  0  0  0  0  0
    7.5659  -15.9248   21.6016 N   0  0  0  0  0  0  0  0  0  0  0  0
    7.0702  -16.4512   22.8527 C   0  0  1  0  0  0  0  0  0  0  0  0
    7.3338  -17.9686   22.7944 C   0  0  0  0  0  0  0  0  0  0  0  0
    6.7710  -18.5231   24.0596 C   0  0  0  0  0  0  0  0  0  0  0  0
    6.8594  -20.0224   24.0581 C   0  0  0  0  0  0  0  0  0  0  0  0
    6.2615  -20.5515   25.3370 C   0  0  0  0  0  0  0  0  0  0  0  0
    7.3663  -20.6631   26.2925 N   0  0  0  0  0  0  0  0  0  0  0  0
    7.9469  -15.9355   23.9465 C   0  0  0  0  0  0  0  0  0  0  0  0
    9.1827  -15.9367   23.7585 O   0  0  0  0  0  0  0  0  0  0  0  0
    5.9841  -11.9765   27.0278 C   0  0  0  0  0  0  0  0  0  0  0  0
    6.9387  -12.7926   26.2423 C   0  0  1  0  0  0  0  0  0  0  0  0
    7.8434  -11.8586   25.4230 C   0  0  0  0  0  0  0  0  0  0  0  0
    7.6919  -13.8529   26.9113 C   0  0  0  0  0  0  0  0  0  0  0  0
    8.4124  -14.9007   26.1528 C   0  0  2  0  0  0  0  0  0  0  0  0
    7.4465  -15.4562   25.1600 N   0  0  0  0  0  0  0  0  0  0  0  0
    8.8988  -16.0505   26.8945 C   0  0  0  0  0  0  0  0  0  0  0  0
   10.0074  -15.9342   27.7340 O   0  0  0  0  0  0  0  0  0  0  0  0
    8.3739  -17.1765   26.8295 O   0  0  0  0  0  0  0  0  0  0  0  0
  1  2  1  0
  2  3  1  0
  4  3  1  0
  5  1  1  0
  5  4  1  0
  5  6  1  1
  7  6  2  0
  8  6  1  0
  9  8  1  0
  9 10  1  6
 10 11  1  0
 11 12  1  0
 12 13  1  0
 13 14  1  0
 15 16  2  0
 15  9  1  0
 18 17  1  1
 19 18  1  0
 21 20  1  1
 20 18  1  0
 21 22  1  0
 22 15  1  0
 23 24  1  0
 23 21  1  0
 25 23  2  0
M  END
$$$$
