PKL.pdb
     RDKit          3D

 25 25  0  0  1  0  0  0  0  0999 V2000
    8.7269  -14.6377   18.6712 N   0  0  0  0  0  0  0  0  0  0  0  0
    8.7110  -13.8006   17.4847 C   0  0  0  0  0  0  0  0  0  0  0  0
    7.6372  -12.7558   17.7115 C   0  0  0  0  0  0  0  0  0  0  0  0
    7.2151  -12.9816   19.1690 C   0  0  0  0  0  0  0  0  0  0  0  0
    8.4435  -13.6712   19.7151 C   0  0  1  0  0  0  0  0  0  0  0  0
    8.2149  -14.3568   20.9883 C   0  0  0  0  0  0  0  0  0  0  0  0
    7.9019  -13.7866   22.0611 O   0  0  0  0  0  0  0  0  0  0  0  0
    8.3474  -15.7846   21.0616 N   0  0  0  0  0  0  0  0  0  0  0  0
    8.0467  -16.5138   22.2723 C   0  0  1  0  0  0  0  0  0  0  0  0
    8.5450  -17.9506   22.0222 C   0  0  0  0  0  0  0  0  0  0  0  0
    8.0636  -18.7510   23.1852 C   0  0  0  0  0  0  0  0  0  0  0  0
    8.4943  -20.1832   23.0483 C   0  0  0  0  0  0  0  0  0  0  0  0
    7.8717  -20.9922   24.1578 C   0  0  0  0  0  0  0  0  0  0  0  0
    8.3359  -22.3693   23.9735 N   0  0  0  0  0  0  0  0  0  0  0  0
    8.9156  -15.9737   23.3605 C   0  0  0  0  0  0  0  0  0  0  0  0
    9.8089  -15.1571   23.0480 O   0  0  0  0  0  0  0  0  0  0  0  0
    8.4344  -12.1909   26.6768 C   0  0  0  0  0  0  0  0  0  0  0  0
    7.4338  -13.2557   26.4337 C   0  0  1  0  0  0  0  0  0  0  0  0
    6.0719  -12.6079   26.1377 C   0  0  0  0  0  0  0  0  0  0  0  0
    7.7520  -14.3361   25.5007 C   0  0  0  0  0  0  0  0  0  0  0  0
    8.8719  -15.2744   25.7405 C   0  0  2  0  0  0  0  0  0  0  0  0
    8.7718  -16.3407   24.7011 N   0  0  0  0  0  0  0  0  0  0  0  0
    8.8949  -15.9808   27.0090 C   0  0  0  0  0  0  0  0  0  0  0  0
    8.0480  -17.0677   27.2297 O   0  0  0  0  0  0  0  0  0  0  0  0
    9.6475  -15.6703   27.9496 O   0  0  0  0  0  0  0  0  0  0  0  0
  1  2  1  0
  2  3  1  0
  4  3  1  0
  5  1  1  0
  5  4  1  0
  5  6  1  1
  7  6  2  0
  8  6  1  0
  9  8  1  0
  9 10  1  6
 10 11  1  0
 11 12  1  0
 12 13  1  0
 13 14  1  0
 15 16  2  0
 15  9  1  0
 18 17  1  6
 19 18  1  0
 21 20  1  1
 20 18  1  0
 21 22  1  0
 22 15  1  0
 23 24  1  0
 23 21  1  0
 25 23  2  0
M  END
$$$$
