PKL.pdb
     RDKit          3D

 25 25  0  0  1  0  0  0  0  0999 V2000
    8.8895  -14.8519   19.0816 N   0  0  0  0  0  0  0  0  0  0  0  0
    8.9848  -14.1186   17.8317 C   0  0  0  0  0  0  0  0  0  0  0  0
    7.8274  -13.1407   17.8191 C   0  0  0  0  0  0  0  0  0  0  0  0
    7.2242  -13.2764   19.2231 C   0  0  0  0  0  0  0  0  0  0  0  0
    8.4063  -13.8263   19.9865 C   0  0  1  0  0  0  0  0  0  0  0  0
    8.0481  -14.4198   21.2760 C   0  0  0  0  0  0  0  0  0  0  0  0
    7.3492  -13.8567   22.1525 O   0  0  0  0  0  0  0  0  0  0  0  0
    8.5078  -15.7399   21.6040 N   0  0  0  0  0  0  0  0  0  0  0  0
    8.0899  -16.4104   22.8139 C   0  0  1  0  0  0  0  0  0  0  0  0
    8.7586  -17.7982   22.7676 C   0  0  0  0  0  0  0  0  0  0  0  0
    8.0022  -18.5748   21.7430 C   0  0  0  0  0  0  0  0  0  0  0  0
    8.6108  -19.9361   21.5643 C   0  0  0  0  0  0  0  0  0  0  0  0
    7.8902  -20.6548   20.4521 C   0  0  0  0  0  0  0  0  0  0  0  0
    8.5091  -21.9785   20.3485 N   0  0  0  0  0  0  0  0  0  0  0  0
    8.7176  -15.7032   23.9701 C   0  0  0  0  0  0  0  0  0  0  0  0
    9.9290  -15.4060   23.8893 O   0  0  0  0  0  0  0  0  0  0  0  0
    6.1289  -11.8160   26.4788 C   0  0  0  0  0  0  0  0  0  0  0  0
    7.2091  -12.6625   25.9214 C   0  0  1  0  0  0  0  0  0  0  0  0
    8.2205  -11.7682   25.1869 C   0  0  0  0  0  0  0  0  0  0  0  0
    7.8598  -13.6498   26.7822 C   0  0  0  0  0  0  0  0  0  0  0  0
    8.7543  -14.6964   26.2373 C   0  0  2  0  0  0  0  0  0  0  0  0
    8.0122  -15.3636   25.1276 N   0  0  0  0  0  0  0  0  0  0  0  0
    9.1505  -15.7710   27.1300 C   0  0  0  0  0  0  0  0  0  0  0  0
   10.0813  -15.5421   28.1442 O   0  0  0  0  0  0  0  0  0  0  0  0
    8.6991  -16.9273   27.0486 O   0  0  0  0  0  0  0  0  0  0  0  0
  1  2  1  0
  2  3  1  0
  4  3  1  0
  5  1  1  0
  5  4  1  0
  5  6  1  1
  7  6  2  0
  8  6  1  0
  9  8  1  0
  9 10  1  6
 10 11  1  0
 11 12  1  0
 12 13  1  0
 13 14  1  0
 15 16  2  0
 15  9  1  0
 18 17  1  1
 19 18  1  0
 21 20  1  1
 20 18  1  0
 21 22  1  0
 22 15  1  0
 23 24  1  0
 23 21  1  0
 25 23  2  0
M  END
$$$$
