PKL.pdb
     RDKit          3D

 25 25  0  0  1  0  0  0  0  0999 V2000
    6.5926  -18.2460   21.4510 N   0  0  0  0  0  0  0  0  0  0  0  0
    5.8060  -19.3166   20.8645 C   0  0  0  0  0  0  0  0  0  0  0  0
    6.0676  -19.2730   19.3726 C   0  0  0  0  0  0  0  0  0  0  0  0
    7.1843  -18.2306   19.2317 C   0  0  0  0  0  0  0  0  0  0  0  0
    7.7809  -18.2665   20.6193 C   0  0  1  0  0  0  0  0  0  0  0  0
    8.6292  -17.1128   20.9238 C   0  0  0  0  0  0  0  0  0  0  0  0
    9.8833  -17.1189   20.8896 O   0  0  0  0  0  0  0  0  0  0  0  0
    8.0257  -15.8635   21.2931 N   0  0  0  0  0  0  0  0  0  0  0  0
    8.8120  -14.6645   21.4733 C   0  0  1  0  0  0  0  0  0  0  0  0
    7.8941  -13.5021   21.0470 C   0  0  0  0  0  0  0  0  0  0  0  0
    7.4473  -13.8300   19.6621 C   0  0  0  0  0  0  0  0  0  0  0  0
    8.5121  -13.4627   18.6687 C   0  0  0  0  0  0  0  0  0  0  0  0
    8.0040  -13.7429   17.2771 C   0  0  0  0  0  0  0  0  0  0  0  0
    9.1188  -13.4650   16.3682 N   0  0  0  0  0  0  0  0  0  0  0  0
    9.0363  -14.4793   22.9383 C   0  0  0  0  0  0  0  0  0  0  0  0
    9.8453  -13.5985   23.3019 O   0  0  0  0  0  0  0  0  0  0  0  0
    7.9920  -11.9601   26.4847 C   0  0  0  0  0  0  0  0  0  0  0  0
    7.1260  -13.1449   26.6849 C   0  0  1  0  0  0  0  0  0  0  0  0
    5.6769  -12.6786   26.8969 C   0  0  0  0  0  0  0  0  0  0  0  0
    7.2199  -14.2654   25.7495 C   0  0  0  0  0  0  0  0  0  0  0  0
    8.5228  -14.8367   25.3391 C   0  0  2  0  0  0  0  0  0  0  0  0
    8.3847  -15.2436   23.9099 N   0  0  0  0  0  0  0  0  0  0  0  0
    8.9801  -16.0284   26.0314 C   0  0  0  0  0  0  0  0  0  0  0  0
    9.2530  -17.1987   25.3219 O   0  0  0  0  0  0  0  0  0  0  0  0
    9.1517  -16.0790   27.2624 O   0  0  0  0  0  0  0  0  0  0  0  0
  1  2  1  0
  2  3  1  0
  4  3  1  0
  5  1  1  0
  5  4  1  0
  5  6  1  1
  7  6  2  0
  8  6  1  0
  9  8  1  0
  9 10  1  1
 10 11  1  0
 11 12  1  0
 12 13  1  0
 13 14  1  0
 15 16  2  0
 15  9  1  0
 18 17  1  6
 19 18  1  0
 21 20  1  1
 20 18  1  0
 21 22  1  0
 22 15  1  0
 23 24  1  0
 23 21  1  0
 25 23  2  0
M  END
$$$$
