PKL.pdb
     RDKit          3D

 25 25  0  0  1  0  0  0  0  0999 V2000
    8.7582  -15.1119   19.1704 N   0  0  0  0  0  0  0  0  0  0  0  0
    9.1043  -14.4230   17.9398 C   0  0  0  0  0  0  0  0  0  0  0  0
    8.1863  -13.2208   17.8488 C   0  0  0  0  0  0  0  0  0  0  0  0
    7.4608  -13.2168   19.2004 C   0  0  0  0  0  0  0  0  0  0  0  0
    8.4357  -14.0018   20.0467 C   0  0  1  0  0  0  0  0  0  0  0  0
    7.8602  -14.4979   21.2980 C   0  0  0  0  0  0  0  0  0  0  0  0
    7.3732  -13.7722   22.1980 O   0  0  0  0  0  0  0  0  0  0  0  0
    7.8296  -15.9099   21.5566 N   0  0  0  0  0  0  0  0  0  0  0  0
    7.2428  -16.4483   22.7624 C   0  0  1  0  0  0  0  0  0  0  0  0
    7.5111  -17.9651   22.7093 C   0  0  0  0  0  0  0  0  0  0  0  0
    6.8000  -18.5404   23.8875 C   0  0  0  0  0  0  0  0  0  0  0  0
    6.8731  -20.0403   23.8610 C   0  0  0  0  0  0  0  0  0  0  0  0
    6.1774  -20.5882   25.0812 C   0  0  0  0  0  0  0  0  0  0  0  0
    6.2180  -22.0473   24.9577 N   0  0  0  0  0  0  0  0  0  0  0  0
    8.0355  -15.9430   23.9232 C   0  0  0  0  0  0  0  0  0  0  0  0
    9.2772  -15.8710   23.7995 O   0  0  0  0  0  0  0  0  0  0  0  0
    5.5112  -12.6426   27.3252 C   0  0  0  0  0  0  0  0  0  0  0  0
    6.6396  -13.1528   26.5125 C   0  0  1  0  0  0  0  0  0  0  0  0
    7.4159  -11.9627   25.9266 C   0  0  0  0  0  0  0  0  0  0  0  0
    7.5239  -14.1719   27.0770 C   0  0  0  0  0  0  0  0  0  0  0  0
    8.3429  -15.0602   26.2212 C   0  0  2  0  0  0  0  0  0  0  0  0
    7.4507  -15.5514   25.1303 N   0  0  0  0  0  0  0  0  0  0  0  0
    8.8930  -16.2578   26.8309 C   0  0  0  0  0  0  0  0  0  0  0  0
   10.0189  -16.1814   27.6518 O   0  0  0  0  0  0  0  0  0  0  0  0
    8.4100  -17.3920   26.6643 O   0  0  0  0  0  0  0  0  0  0  0  0
  1  2  1  0
  2  3  1  0
  4  3  1  0
  5  1  1  0
  5  4  1  0
  5  6  1  1
  7  6  2  0
  8  6  1  0
  9  8  1  0
  9 10  1  6
 10 11  1  0
 11 12  1  0
 12 13  1  0
 13 14  1  0
 15 16  2  0
 15  9  1  0
 18 17  1  1
 19 18  1  0
 21 20  1  1
 20 18  1  0
 21 22  1  0
 22 15  1  0
 23 24  1  0
 23 21  1  0
 25 23  2  0
M  END
$$$$
