PKL.pdb
     RDKit          3D

 25 25  0  0  1  0  0  0  0  0999 V2000
    6.6423  -18.6244   21.5089 N   0  0  0  0  0  0  0  0  0  0  0  0
    5.9332  -19.8538   21.2012 C   0  0  0  0  0  0  0  0  0  0  0  0
    6.6340  -20.4649   20.0047 C   0  0  0  0  0  0  0  0  0  0  0  0
    7.8694  -19.5753   19.8160 C   0  0  0  0  0  0  0  0  0  0  0  0
    8.0117  -18.9918   21.2024 C   0  0  1  0  0  0  0  0  0  0  0  0
    8.8748  -17.8105   21.2567 C   0  0  0  0  0  0  0  0  0  0  0  0
   10.1255  -17.8341   21.1619 O   0  0  0  0  0  0  0  0  0  0  0  0
    8.2912  -16.5102   21.4300 N   0  0  0  0  0  0  0  0  0  0  0  0
    9.0956  -15.3098   21.4218 C   0  0  1  0  0  0  0  0  0  0  0  0
    8.2890  -14.2790   20.6080 C   0  0  0  0  0  0  0  0  0  0  0  0
    8.9950  -14.1586   19.2996 C   0  0  0  0  0  0  0  0  0  0  0  0
    8.0520  -13.6648   18.2402 C   0  0  0  0  0  0  0  0  0  0  0  0
    8.7601  -13.6721   16.9092 C   0  0  0  0  0  0  0  0  0  0  0  0
    7.7445  -13.3595   15.9009 N   0  0  0  0  0  0  0  0  0  0  0  0
    9.1354  -14.7751   22.8158 C   0  0  0  0  0  0  0  0  0  0  0  0
    9.8850  -13.8028   23.0507 O   0  0  0  0  0  0  0  0  0  0  0  0
    7.8230  -12.0168   26.9534 C   0  0  0  0  0  0  0  0  0  0  0  0
    6.9362  -13.1548   26.6178 C   0  0  1  0  0  0  0  0  0  0  0  0
    5.4720  -12.6986   26.7205 C   0  0  0  0  0  0  0  0  0  0  0  0
    7.1951  -13.9292   25.4044 C   0  0  0  0  0  0  0  0  0  0  0  0
    8.4623  -14.6676   25.2013 C   0  0  2  0  0  0  0  0  0  0  0  0
    8.3757  -15.3125   23.8583 N   0  0  0  0  0  0  0  0  0  0  0  0
    8.7638  -15.7481   26.1234 C   0  0  0  0  0  0  0  0  0  0  0  0
    9.6414  -15.5454   27.1892 O   0  0  0  0  0  0  0  0  0  0  0  0
    8.2738  -16.8872   26.0236 O   0  0  0  0  0  0  0  0  0  0  0  0
  1  2  1  0
  2  3  1  0
  4  3  1  0
  5  1  1  0
  5  4  1  0
  5  6  1  6
  7  6  2  0
  8  6  1  0
  9  8  1  0
  9 10  1  6
 10 11  1  0
 11 12  1  0
 12 13  1  0
 13 14  1  0
 15 16  2  0
 15  9  1  0
 18 17  1  6
 19 18  1  0
 21 20  1  1
 20 18  1  0
 21 22  1  0
 22 15  1  0
 23 24  1  0
 23 21  1  0
 25 23  2  0
M  END
$$$$
