PKL.pdb
     RDKit          3D

 25 25  0  0  1  0  0  0  0  0999 V2000
    8.5627  -15.3631   19.2019 N   0  0  0  0  0  0  0  0  0  0  0  0
    8.9567  -14.7993   17.9229 C   0  0  0  0  0  0  0  0  0  0  0  0
    8.1390  -13.5366   17.7409 C   0  0  0  0  0  0  0  0  0  0  0  0
    7.4240  -13.3716   19.0881 C   0  0  0  0  0  0  0  0  0  0  0  0
    8.3366  -14.1675   19.9916 C   0  0  1  0  0  0  0  0  0  0  0  0
    7.7298  -14.5195   21.2766 C   0  0  0  0  0  0  0  0  0  0  0  0
    7.3304  -13.6906   22.1294 O   0  0  0  0  0  0  0  0  0  0  0  0
    7.5594  -15.9010   21.6286 N   0  0  0  0  0  0  0  0  0  0  0  0
    6.9798  -16.2967   22.8917 C   0  0  1  0  0  0  0  0  0  0  0  0
    7.1032  -17.8323   22.9384 C   0  0  0  0  0  0  0  0  0  0  0  0
    6.4295  -18.2513   24.2015 C   0  0  0  0  0  0  0  0  0  0  0  0
    6.3726  -19.7494   24.2915 C   0  0  0  0  0  0  0  0  0  0  0  0
    7.1904  -20.2025   25.4742 C   0  0  0  0  0  0  0  0  0  0  0  0
    7.1754  -21.6671   25.4482 N   0  0  0  0  0  0  0  0  0  0  0  0
    7.8675  -15.7916   23.9817 C   0  0  0  0  0  0  0  0  0  0  0  0
    9.1020  -15.8031   23.7863 O   0  0  0  0  0  0  0  0  0  0  0  0
    5.7819  -12.0693   27.4104 C   0  0  0  0  0  0  0  0  0  0  0  0
    6.7009  -12.7911   26.5002 C   0  0  1  0  0  0  0  0  0  0  0  0
    7.4487  -11.7706   25.6275 C   0  0  0  0  0  0  0  0  0  0  0  0
    7.5905  -13.8152   27.0471 C   0  0  0  0  0  0  0  0  0  0  0  0
    8.3514  -14.7391   26.1755 C   0  0  2  0  0  0  0  0  0  0  0  0
    7.3784  -15.3114   25.1993 N   0  0  0  0  0  0  0  0  0  0  0  0
    8.9805  -15.8875   26.8032 C   0  0  0  0  0  0  0  0  0  0  0  0
   10.1790  -15.7437   27.5034 O   0  0  0  0  0  0  0  0  0  0  0  0
    8.5052  -17.0361   26.7570 O   0  0  0  0  0  0  0  0  0  0  0  0
  1  2  1  0
  2  3  1  0
  4  3  1  0
  5  1  1  0
  5  4  1  0
  5  6  1  1
  7  6  2  0
  8  6  1  0
  9  8  1  0
  9 10  1  6
 10 11  1  0
 11 12  1  0
 12 13  1  0
 13 14  1  0
 15 16  2  0
 15  9  1  0
 18 17  1  1
 19 18  1  0
 21 20  1  1
 20 18  1  0
 21 22  1  0
 22 15  1  0
 23 24  1  0
 23 21  1  0
 25 23  2  0
M  END
$$$$
