LTG.pdb
     RDKit          3D

 20 19  0  0  1  0  0  0  0  0999 V2000
    5.5313  -11.6663   26.6804 C   0  0  0  0  0  0  0  0  0  0  0  0
    6.8319  -12.2913   26.2408 C   0  0  1  0  0  0  0  0  0  0  0  0
    7.9322  -12.1209   27.2659 C   0  0  0  0  0  0  0  0  0  0  0  0
    6.5802  -13.7538   25.9513 C   0  0  0  0  0  0  0  0  0  0  0  0
    7.8854  -14.4395   25.6040 C   0  0  2  0  0  0  0  0  0  0  0  0
    8.9273  -13.4900   25.2570 N   0  0  0  0  0  0  0  0  0  0  0  0
    7.7057  -15.3403   24.4514 C   0  0  0  0  0  0  0  0  0  0  0  0
    6.8119  -16.2153   24.5060 O   0  0  0  0  0  0  0  0  0  0  0  0
    6.2431  -15.0797   21.1797 C   0  0  0  0  0  0  0  0  0  0  0  0
    7.6342  -15.6676   20.9415 C   0  0  1  0  0  0  0  0  0  0  0  0
    8.4172  -14.8528   20.1634 O   0  0  0  0  0  0  0  0  0  0  0  0
    8.2648  -16.1883   22.1661 C   0  0  2  0  0  0  0  0  0  0  0  0
    8.4485  -15.3207   23.2697 N   0  0  0  0  0  0  0  0  0  0  0  0
    9.6030  -16.7314   21.8075 C   0  0  0  0  0  0  0  0  0  0  0  0
   10.6519  -16.0905   22.1112 O   0  0  0  0  0  0  0  0  0  0  0  0
    9.8022  -17.9601   21.1252 N   0  0  0  0  0  0  0  0  0  0  0  0
   11.1653  -18.4046   20.8321 C   0  0  0  0  0  0  0  0  0  0  0  0
   11.1865  -19.7336   20.2134 C   0  0  0  0  0  0  0  0  0  0  0  0
   12.3562  -20.2011   19.6497 O   0  0  0  0  0  0  0  0  0  0  0  0
   10.1654  -20.4570   20.1841 O   0  0  0  0  0  0  0  0  0  0  0  0
  2  1  1  1
  3  2  1  0
  4  2  1  0
  5  4  1  0
  5  6  1  6
  7  5  1  0
  7  8  2  0
 10  9  1  1
 10 12  1  0
 11 10  1  0
 12 13  1  1
 13  7  1  0
 14 12  1  0
 14 16  1  0
 15 14  2  0
 16 17  1  0
 17 18  1  0
 18 20  2  0
 18 19  1  0
M  END
$$$$
