LTG.pdb
     RDKit          3D

 20 19  0  0  1  0  0  0  0  0999 V2000
    9.6303  -17.0630   14.6815 C   0  0  0  0  0  0  0  0  0  0  0  0
    8.5971  -16.2772   15.4498 C   0  0  1  0  0  0  0  0  0  0  0  0
    7.5433  -17.1639   16.0771 C   0  0  0  0  0  0  0  0  0  0  0  0
    9.3112  -15.4555   16.4991 C   0  0  0  0  0  0  0  0  0  0  0  0
    8.2997  -14.6884   17.3253 C   0  0  2  0  0  0  0  0  0  0  0  0
    7.9056  -13.4436   16.6908 N   0  0  0  0  0  0  0  0  0  0  0  0
    8.8589  -14.3537   18.6473 C   0  0  0  0  0  0  0  0  0  0  0  0
    9.5401  -13.3098   18.7649 O   0  0  0  0  0  0  0  0  0  0  0  0
    7.4254  -13.0915   21.8611 C   0  0  0  0  0  0  0  0  0  0  0  0
    8.1916  -14.3832   22.1469 C   0  0  1  0  0  0  0  0  0  0  0  0
    7.3640  -15.4010   22.5492 O   0  0  0  0  0  0  0  0  0  0  0  0
    9.1701  -14.7247   21.1008 C   0  0  2  0  0  0  0  0  0  0  0  0
    8.7050  -15.0994   19.8172 N   0  0  0  0  0  0  0  0  0  0  0  0
   10.0199  -15.8386   21.6020 C   0  0  0  0  0  0  0  0  0  0  0  0
    9.6513  -17.0399   21.4459 O   0  0  0  0  0  0  0  0  0  0  0  0
   11.2600  -15.6514   22.2669 N   0  0  0  0  0  0  0  0  0  0  0  0
   12.0236  -16.8213   22.7025 C   0  0  0  0  0  0  0  0  0  0  0  0
   13.3089  -16.4449   23.2990 C   0  0  0  0  0  0  0  0  0  0  0  0
   14.1129  -17.4214   23.8510 O   0  0  0  0  0  0  0  0  0  0  0  0
   13.6960  -15.2547   23.3198 O   0  0  0  0  0  0  0  0  0  0  0  0
  2  1  1  1
  3  2  1  0
  4  2  1  0
  5  4  1  0
  5  6  1  6
  7  5  1  0
  7  8  2  0
 10  9  1  6
 10 12  1  0
 11 10  1  0
 12 13  1  6
 13  7  1  0
 14 12  1  0
 14 16  1  0
 15 14  2  0
 16 17  1  0
 17 18  1  0
 18 20  2  0
 18 19  1  0
M  END
$$$$
