LTG.pdb
     RDKit          3D

 20 19  0  0  1  0  0  0  0  0999 V2000
    7.2786  -11.8489   27.8263 C   0  0  0  0  0  0  0  0  0  0  0  0
    6.4798  -12.9292   27.1407 C   0  0  1  0  0  0  0  0  0  0  0  0
    5.4058  -12.3684   26.2338 C   0  0  0  0  0  0  0  0  0  0  0  0
    7.4377  -13.8091   26.3697 C   0  0  0  0  0  0  0  0  0  0  0  0
    6.6682  -14.8990   25.6525 C   0  0  2  0  0  0  0  0  0  0  0  0
    6.1310  -15.8856   26.5720 N   0  0  0  0  0  0  0  0  0  0  0  0
    7.5423  -15.6095   24.7020 C   0  0  0  0  0  0  0  0  0  0  0  0
    8.0491  -16.6998   25.0511 O   0  0  0  0  0  0  0  0  0  0  0  0
    7.0186  -15.7924   20.6616 C   0  0  0  0  0  0  0  0  0  0  0  0
    8.4922  -15.7143   21.0614 C   0  0  1  0  0  0  0  0  0  0  0  0
    9.1364  -14.6571   20.4700 O   0  0  0  0  0  0  0  0  0  0  0  0
    8.7133  -15.8752   22.5083 C   0  0  2  0  0  0  0  0  0  0  0  0
    7.8752  -15.1829   23.4153 N   0  0  0  0  0  0  0  0  0  0  0  0
   10.1141  -15.4767   22.8137 C   0  0  0  0  0  0  0  0  0  0  0  0
   10.3518  -14.3667   23.3747 O   0  0  0  0  0  0  0  0  0  0  0  0
   11.2483  -16.2758   22.5135 N   0  0  0  0  0  0  0  0  0  0  0  0
   12.5807  -15.7970   22.8834 C   0  0  0  0  0  0  0  0  0  0  0  0
   13.6398  -16.6581   22.3481 C   0  0  0  0  0  0  0  0  0  0  0  0
   14.9607  -16.3365   22.5856 O   0  0  0  0  0  0  0  0  0  0  0  0
   13.3737  -17.6815   21.6783 O   0  0  0  0  0  0  0  0  0  0  0  0
  2  1  1  6
  3  2  1  0
  4  2  1  0
  5  4  1  0
  5  6  1  1
  7  5  1  0
  7  8  2  0
 10  9  1  1
 10 12  1  0
 11 10  1  0
 12 13  1  1
 13  7  1  0
 14 12  1  0
 14 16  1  0
 15 14  2  0
 16 17  1  0
 17 18  1  0
 18 20  2  0
 18 19  1  0
M  END
$$$$
