LTG.pdb
     RDKit          3D

 20 19  0  0  1  0  0  0  0  0999 V2000
    5.0632  -11.5503   26.7712 C   0  0  0  0  0  0  0  0  0  0  0  0
    6.4209  -12.1470   26.4958 C   0  0  1  0  0  0  0  0  0  0  0  0
    7.3431  -12.0659   27.6930 C   0  0  0  0  0  0  0  0  0  0  0  0
    6.2274  -13.5801   26.0545 C   0  0  0  0  0  0  0  0  0  0  0  0
    7.5744  -14.2238   25.7982 C   0  0  2  0  0  0  0  0  0  0  0  0
    8.5993  -13.2437   25.4880 N   0  0  0  0  0  0  0  0  0  0  0  0
    7.4939  -15.1558   24.6593 C   0  0  0  0  0  0  0  0  0  0  0  0
    6.6489  -16.0789   24.6966 O   0  0  0  0  0  0  0  0  0  0  0  0
    7.8923  -14.1022   20.7654 C   0  0  0  0  0  0  0  0  0  0  0  0
    7.4752  -15.5116   21.1862 C   0  0  1  0  0  0  0  0  0  0  0  0
    7.4518  -16.3849   20.1282 O   0  0  0  0  0  0  0  0  0  0  0  0
    8.1643  -15.9866   22.3977 C   0  0  2  0  0  0  0  0  0  0  0  0
    8.2836  -15.1174   23.5089 N   0  0  0  0  0  0  0  0  0  0  0  0
    9.5410  -16.4050   22.0182 C   0  0  0  0  0  0  0  0  0  0  0  0
   10.4430  -15.5351   21.8368 O   0  0  0  0  0  0  0  0  0  0  0  0
    9.9365  -17.7562   21.8373 N   0  0  0  0  0  0  0  0  0  0  0  0
   11.3225  -18.0551   21.4750 C   0  0  0  0  0  0  0  0  0  0  0  0
   11.5529  -19.4963   21.3351 C   0  0  0  0  0  0  0  0  0  0  0  0
   12.8193  -19.9549   21.0337 O   0  0  0  0  0  0  0  0  0  0  0  0
   10.6255  -20.3237   21.4831 O   0  0  0  0  0  0  0  0  0  0  0  0
  2  1  1  1
  3  2  1  0
  4  2  1  0
  5  4  1  0
  5  6  1  6
  7  5  1  0
  7  8  2  0
 10  9  1  6
 10 12  1  0
 11 10  1  0
 12 13  1  1
 13  7  1  0
 14 12  1  0
 14 16  1  0
 15 14  2  0
 16 17  1  0
 17 18  1  0
 18 20  2  0
 18 19  1  0
M  END
$$$$
