LTG.pdb
     RDKit          3D

 20 19  0  0  1  0  0  0  0  0999 V2000
    7.2993  -12.3287   20.1310 C   0  0  0  0  0  0  0  0  0  0  0  0
    8.2737  -13.2291   19.4133 C   0  0  1  0  0  0  0  0  0  0  0  0
    9.5871  -12.5395   19.1134 C   0  0  0  0  0  0  0  0  0  0  0  0
    8.4886  -14.4638   20.2593 C   0  0  0  0  0  0  0  0  0  0  0  0
    9.4723  -15.3896   19.5741 C   0  0  2  0  0  0  0  0  0  0  0  0
    8.9618  -15.8938   18.3121 N   0  0  0  0  0  0  0  0  0  0  0  0
    9.7683  -16.5535   20.4285 C   0  0  0  0  0  0  0  0  0  0  0  0
    8.9210  -17.4718   20.5078 O   0  0  0  0  0  0  0  0  0  0  0  0
   11.9170  -19.5349   20.1190 C   0  0  0  0  0  0  0  0  0  0  0  0
   12.3051  -18.8094   21.4076 C   0  0  1  0  0  0  0  0  0  0  0  0
   13.5666  -18.2738   21.3435 O   0  0  0  0  0  0  0  0  0  0  0  0
   11.2507  -17.9144   21.9133 C   0  0  2  0  0  0  0  0  0  0  0  0
   10.9279  -16.7464   21.1813 N   0  0  0  0  0  0  0  0  0  0  0  0
   11.6246  -17.4819   23.2871 C   0  0  0  0  0  0  0  0  0  0  0  0
   12.0302  -16.3004   23.4938 O   0  0  0  0  0  0  0  0  0  0  0  0
   11.5589  -18.3240   24.4280 N   0  0  0  0  0  0  0  0  0  0  0  0
   11.9804  -17.8029   25.7289 C   0  0  0  0  0  0  0  0  0  0  0  0
   11.7538  -18.7714   26.8060 C   0  0  0  0  0  0  0  0  0  0  0  0
   12.1612  -18.4672   28.0890 O   0  0  0  0  0  0  0  0  0  0  0  0
   11.1976  -19.8716   26.5890 O   0  0  0  0  0  0  0  0  0  0  0  0
  2  1  1  1
  3  2  1  0
  4  2  1  0
  5  4  1  0
  5  6  1  6
  7  5  1  0
  7  8  2  0
 10  9  1  6
 10 12  1  0
 11 10  1  0
 12 13  1  6
 13  7  1  0
 14 12  1  0
 14 16  1  0
 15 14  2  0
 16 17  1  0
 17 18  1  0
 18 20  2  0
 18 19  1  0
M  END
$$$$
