LTG.pdb
     RDKit          3D

 20 19  0  0  1  0  0  0  0  0999 V2000
    5.6946  -11.8522   26.1721 C   0  0  0  0  0  0  0  0  0  0  0  0
    6.8600  -12.8095   26.1456 C   0  0  1  0  0  0  0  0  0  0  0  0
    7.9398  -12.4355   27.1379 C   0  0  0  0  0  0  0  0  0  0  0  0
    6.3349  -14.2020   26.4126 C   0  0  0  0  0  0  0  0  0  0  0  0
    7.4075  -15.2237   26.0961 C   0  0  2  0  0  0  0  0  0  0  0  0
    8.7441  -14.6952   26.3000 N   0  0  0  0  0  0  0  0  0  0  0  0
    7.3118  -15.6554   24.6902 C   0  0  0  0  0  0  0  0  0  0  0  0
    6.2531  -16.1969   24.2984 O   0  0  0  0  0  0  0  0  0  0  0  0
    6.7020  -14.3514   21.3704 C   0  0  0  0  0  0  0  0  0  0  0  0
    8.0269  -15.1087   21.2793 C   0  0  1  0  0  0  0  0  0  0  0  0
    9.0777  -14.2833   20.9674 O   0  0  0  0  0  0  0  0  0  0  0  0
    8.2476  -16.0352   22.4023 C   0  0  2  0  0  0  0  0  0  0  0  0
    8.3062  -15.5205   23.7198 N   0  0  0  0  0  0  0  0  0  0  0  0
    9.5201  -16.7676   22.1603 C   0  0  0  0  0  0  0  0  0  0  0  0
   10.5030  -16.6109   22.9431 O   0  0  0  0  0  0  0  0  0  0  0  0
    9.7251  -17.6631   21.0782 N   0  0  0  0  0  0  0  0  0  0  0  0
   10.9876  -18.3972   20.9845 C   0  0  0  0  0  0  0  0  0  0  0  0
   11.0080  -19.3063   19.8344 C   0  0  0  0  0  0  0  0  0  0  0  0
   12.1585  -20.0128   19.5482 O   0  0  0  0  0  0  0  0  0  0  0  0
   10.0033  -19.4578   19.1033 O   0  0  0  0  0  0  0  0  0  0  0  0
  2  1  1  1
  3  2  1  0
  4  2  1  0
  5  4  1  0
  5  6  1  6
  7  5  1  0
  7  8  2  0
 10  9  1  1
 10 12  1  0
 11 10  1  0
 12 13  1  1
 13  7  1  0
 14 12  1  0
 14 16  1  0
 15 14  2  0
 16 17  1  0
 17 18  1  0
 18 20  2  0
 18 19  1  0
M  END
$$$$
