LTG.pdb
     RDKit          3D

 20 19  0  0  1  0  0  0  0  0999 V2000
    7.5425  -11.6710   27.7341 C   0  0  0  0  0  0  0  0  0  0  0  0
    6.7256  -12.8622   27.2992 C   0  0  1  0  0  0  0  0  0  0  0  0
    5.4826  -12.4638   26.5333 C   0  0  0  0  0  0  0  0  0  0  0  0
    7.6099  -13.7649   26.4690 C   0  0  0  0  0  0  0  0  0  0  0  0
    6.7773  -14.8668   25.8470 C   0  0  2  0  0  0  0  0  0  0  0  0
    6.4007  -15.8811   26.8149 N   0  0  0  0  0  0  0  0  0  0  0  0
    7.5288  -15.5385   24.7717 C   0  0  0  0  0  0  0  0  0  0  0  0
    8.2078  -16.5515   25.0552 O   0  0  0  0  0  0  0  0  0  0  0  0
    7.7785  -14.0151   20.7167 C   0  0  0  0  0  0  0  0  0  0  0  0
    8.0075  -15.4992   21.0038 C   0  0  1  0  0  0  0  0  0  0  0  0
    8.8276  -16.0884   20.0749 O   0  0  0  0  0  0  0  0  0  0  0  0
    8.3273  -15.7780   22.4138 C   0  0  2  0  0  0  0  0  0  0  0  0
    7.5650  -15.1536   23.4304 N   0  0  0  0  0  0  0  0  0  0  0  0
    9.7517  -15.4179   22.6496 C   0  0  0  0  0  0  0  0  0  0  0  0
   10.0501  -14.2859   23.1323 O   0  0  0  0  0  0  0  0  0  0  0  0
   10.8439  -16.2786   22.3647 N   0  0  0  0  0  0  0  0  0  0  0  0
   12.2103  -15.7773   22.5167 C   0  0  0  0  0  0  0  0  0  0  0  0
   13.2070  -16.7745   22.1146 C   0  0  0  0  0  0  0  0  0  0  0  0
   14.5434  -16.5371   22.3642 O   0  0  0  0  0  0  0  0  0  0  0  0
   12.8737  -17.8399   21.5483 O   0  0  0  0  0  0  0  0  0  0  0  0
  2  1  1  6
  3  2  1  0
  4  2  1  0
  5  4  1  0
  5  6  1  1
  7  5  1  0
  7  8  2  0
 10  9  1  1
 10 12  1  0
 11 10  1  0
 12 13  1  1
 13  7  1  0
 14 12  1  0
 14 16  1  0
 15 14  2  0
 16 17  1  0
 17 18  1  0
 18 20  2  0
 18 19  1  0
M  END
$$$$
