LTG.pdb
     RDKit          3D

 20 19  0  0  1  0  0  0  0  0999 V2000
    7.2468  -11.8962   27.6050 C   0  0  0  0  0  0  0  0  0  0  0  0
    6.5483  -13.0863   26.9958 C   0  0  1  0  0  0  0  0  0  0  0  0
    5.4913  -12.6853   25.9897 C   0  0  0  0  0  0  0  0  0  0  0  0
    7.5940  -13.9749   26.3610 C   0  0  0  0  0  0  0  0  0  0  0  0
    6.9299  -15.1906   25.7482 C   0  0  2  0  0  0  0  0  0  0  0  0
    6.4345  -16.1103   26.7564 N   0  0  0  0  0  0  0  0  0  0  0  0
    7.8847  -15.9312   24.9044 C   0  0  0  0  0  0  0  0  0  0  0  0
    8.5150  -16.8886   25.4080 O   0  0  0  0  0  0  0  0  0  0  0  0
    7.5140  -17.3025   21.0459 C   0  0  0  0  0  0  0  0  0  0  0  0
    8.8180  -16.5554   21.3267 C   0  0  1  0  0  0  0  0  0  0  0  0
    8.9506  -15.4308   20.5520 O   0  0  0  0  0  0  0  0  0  0  0  0
    9.0944  -16.3840   22.7629 C   0  0  2  0  0  0  0  0  0  0  0  0
    8.1694  -15.6707   23.5629 N   0  0  0  0  0  0  0  0  0  0  0  0
   10.4121  -15.7080   22.9074 C   0  0  0  0  0  0  0  0  0  0  0  0
   10.4693  -14.4972   23.2731 O   0  0  0  0  0  0  0  0  0  0  0  0
   11.6582  -16.3404   22.6576 N   0  0  0  0  0  0  0  0  0  0  0  0
   12.8910  -15.5574   22.7515 C   0  0  0  0  0  0  0  0  0  0  0  0
   14.0772  -16.3666   22.4551 C   0  0  0  0  0  0  0  0  0  0  0  0
   15.3214  -15.7694   22.4474 O   0  0  0  0  0  0  0  0  0  0  0  0
   13.9882  -17.5904   22.2079 O   0  0  0  0  0  0  0  0  0  0  0  0
  2  1  1  6
  3  2  1  0
  4  2  1  0
  5  4  1  0
  5  6  1  1
  7  5  1  0
  7  8  2  0
 10  9  1  1
 10 12  1  0
 11 10  1  0
 12 13  1  6
 13  7  1  0
 14 12  1  0
 14 16  1  0
 15 14  2  0
 16 17  1  0
 17 18  1  0
 18 20  2  0
 18 19  1  0
M  END
$$$$
