LTG.pdb
     RDKit          3D

 20 19  0  0  1  0  0  0  0  0999 V2000
    5.3397  -11.3983   26.5240 C   0  0  0  0  0  0  0  0  0  0  0  0
    6.6256  -12.1237   26.2146 C   0  0  1  0  0  0  0  0  0  0  0  0
    7.6497  -11.9848   27.3202 C   0  0  0  0  0  0  0  0  0  0  0  0
    6.2987  -13.5770   25.9556 C   0  0  0  0  0  0  0  0  0  0  0  0
    7.5796  -14.3738   25.8177 C   0  0  2  0  0  0  0  0  0  0  0  0
    8.7494  -13.5187   25.7294 N   0  0  0  0  0  0  0  0  0  0  0  0
    7.5443  -15.2029   24.5997 C   0  0  0  0  0  0  0  0  0  0  0  0
    6.6145  -16.0299   24.4623 O   0  0  0  0  0  0  0  0  0  0  0  0
    6.7170  -14.6887   21.1489 C   0  0  0  0  0  0  0  0  0  0  0  0
    8.0577  -15.4223   21.1082 C   0  0  1  0  0  0  0  0  0  0  0  0
    9.0255  -14.7017   20.4551 O   0  0  0  0  0  0  0  0  0  0  0  0
    8.4485  -15.9957   22.4070 C   0  0  2  0  0  0  0  0  0  0  0  0
    8.4654  -15.1627   23.5516 N   0  0  0  0  0  0  0  0  0  0  0  0
    9.8104  -16.5793   22.2689 C   0  0  0  0  0  0  0  0  0  0  0  0
   10.8173  -15.9585   22.7206 O   0  0  0  0  0  0  0  0  0  0  0  0
   10.0782  -17.8265   21.6463 N   0  0  0  0  0  0  0  0  0  0  0  0
   11.4646  -18.2715   21.4996 C   0  0  0  0  0  0  0  0  0  0  0  0
   11.8591  -19.1945   22.5683 C   0  0  0  0  0  0  0  0  0  0  0  0
   11.1332  -19.2241   23.7417 O   0  0  0  0  0  0  0  0  0  0  0  0
   12.8420  -19.9591   22.4415 O   0  0  0  0  0  0  0  0  0  0  0  0
  2  1  1  1
  3  2  1  0
  4  2  1  0
  5  4  1  0
  5  6  1  6
  7  5  1  0
  7  8  2  0
 10  9  1  1
 10 12  1  0
 11 10  1  0
 12 13  1  1
 13  7  1  0
 14 12  1  0
 14 16  1  0
 15 14  2  0
 16 17  1  0
 17 18  1  0
 18 20  2  0
 18 19  1  0
M  END
$$$$
