LTG.pdb
     RDKit          3D

 20 19  0  0  1  0  0  0  0  0999 V2000
    5.8417  -11.8175   26.3528 C   0  0  0  0  0  0  0  0  0  0  0  0
    6.9446  -12.8453   26.3007 C   0  0  1  0  0  0  0  0  0  0  0  0
    8.0458  -12.5645   27.3001 C   0  0  0  0  0  0  0  0  0  0  0  0
    6.3329  -14.2081   26.5342 C   0  0  0  0  0  0  0  0  0  0  0  0
    7.3486  -15.2867   26.2187 C   0  0  2  0  0  0  0  0  0  0  0  0
    8.7119  -14.8310   26.4216 N   0  0  0  0  0  0  0  0  0  0  0  0
    7.2293  -15.7142   24.8133 C   0  0  0  0  0  0  0  0  0  0  0  0
    6.1442  -16.2021   24.4235 O   0  0  0  0  0  0  0  0  0  0  0  0
    6.8342  -14.3379   21.4733 C   0  0  0  0  0  0  0  0  0  0  0  0
    8.0372  -15.2770   21.3834 C   0  0  1  0  0  0  0  0  0  0  0  0
    9.1833  -14.6204   21.0122 O   0  0  0  0  0  0  0  0  0  0  0  0
    8.1590  -16.1813   22.5391 C   0  0  2  0  0  0  0  0  0  0  0  0
    8.2279  -15.6305   23.8415 N   0  0  0  0  0  0  0  0  0  0  0  0
    9.3753  -17.0177   22.3515 C   0  0  0  0  0  0  0  0  0  0  0  0
   10.4178  -16.7861   23.0318 O   0  0  0  0  0  0  0  0  0  0  0  0
    9.4604  -18.0971   21.4335 N   0  0  0  0  0  0  0  0  0  0  0  0
   10.6764  -18.9104   21.3940 C   0  0  0  0  0  0  0  0  0  0  0  0
   11.3700  -18.7955   20.1074 C   0  0  0  0  0  0  0  0  0  0  0  0
   12.5150  -19.5333   19.8855 O   0  0  0  0  0  0  0  0  0  0  0  0
   10.9471  -18.0416   19.2021 O   0  0  0  0  0  0  0  0  0  0  0  0
  2  1  1  1
  3  2  1  0
  4  2  1  0
  5  4  1  0
  5  6  1  6
  7  5  1  0
  7  8  2  0
 10  9  1  1
 10 12  1  0
 11 10  1  0
 12 13  1  1
 13  7  1  0
 14 12  1  0
 14 16  1  0
 15 14  2  0
 16 17  1  0
 17 18  1  0
 18 20  2  0
 18 19  1  0
M  END
$$$$
