LTG.pdb
     RDKit          3D

 20 19  0  0  1  0  0  0  0  0999 V2000
    7.2621  -12.0104   27.9034 C   0  0  0  0  0  0  0  0  0  0  0  0
    6.5319  -12.8707   26.9023 C   0  0  1  0  0  0  0  0  0  0  0  0
    5.9794  -12.0693   25.7435 C   0  0  0  0  0  0  0  0  0  0  0  0
    7.4814  -13.9432   26.4182 C   0  0  0  0  0  0  0  0  0  0  0  0
    6.7722  -14.8487   25.4326 C   0  0  2  0  0  0  0  0  0  0  0  0
    5.7898  -15.6994   26.0797 N   0  0  0  0  0  0  0  0  0  0  0  0
    7.7384  -15.7281   24.7504 C   0  0  0  0  0  0  0  0  0  0  0  0
    7.9313  -16.8777   25.2071 O   0  0  0  0  0  0  0  0  0  0  0  0
    7.9125  -17.2542   21.2629 C   0  0  0  0  0  0  0  0  0  0  0  0
    9.2555  -16.5884   21.5635 C   0  0  1  0  0  0  0  0  0  0  0  0
    9.5562  -15.5949   20.6662 O   0  0  0  0  0  0  0  0  0  0  0  0
    9.4320  -16.2469   22.9849 C   0  0  2  0  0  0  0  0  0  0  0  0
    8.4837  -15.4055   23.6150 N   0  0  0  0  0  0  0  0  0  0  0  0
   10.7649  -15.6059   23.1492 C   0  0  0  0  0  0  0  0  0  0  0  0
   10.8495  -14.3629   23.3748 O   0  0  0  0  0  0  0  0  0  0  0  0
   11.9963  -16.3075   23.0698 N   0  0  0  0  0  0  0  0  0  0  0  0
   13.2492  -15.5836   23.2881 C   0  0  0  0  0  0  0  0  0  0  0  0
   14.4199  -16.4439   23.0913 C   0  0  0  0  0  0  0  0  0  0  0  0
   15.6851  -15.9102   23.2287 O   0  0  0  0  0  0  0  0  0  0  0  0
   14.2989  -17.6554   22.8005 O   0  0  0  0  0  0  0  0  0  0  0  0
  2  1  1  1
  3  2  1  0
  4  2  1  0
  5  4  1  0
  5  6  1  1
  7  5  1  0
  7  8  2  0
 10  9  1  1
 10 12  1  0
 11 10  1  0
 12 13  1  6
 13  7  1  0
 14 12  1  0
 14 16  1  0
 15 14  2  0
 16 17  1  0
 17 18  1  0
 18 20  2  0
 18 19  1  0
M  END
$$$$
