LTG.pdb
     RDKit          3D

 20 19  0  0  1  0  0  0  0  0999 V2000
    7.5819  -11.7369   27.7458 C   0  0  0  0  0  0  0  0  0  0  0  0
    6.6939  -12.8001   27.1487 C   0  0  1  0  0  0  0  0  0  0  0  0
    5.5530  -12.2170   26.3433 C   0  0  0  0  0  0  0  0  0  0  0  0
    7.5511  -13.7096   26.2977 C   0  0  0  0  0  0  0  0  0  0  0  0
    6.6897  -14.7853   25.6690 C   0  0  2  0  0  0  0  0  0  0  0  0
    6.1667  -15.7136   26.6551 N   0  0  0  0  0  0  0  0  0  0  0  0
    7.4696  -15.5682   24.6938 C   0  0  0  0  0  0  0  0  0  0  0  0
    7.9071  -16.6902   25.0362 O   0  0  0  0  0  0  0  0  0  0  0  0
    7.0272  -15.2827   20.6158 C   0  0  0  0  0  0  0  0  0  0  0  0
    8.4498  -15.6516   21.0372 C   0  0  1  0  0  0  0  0  0  0  0  0
    9.3882  -14.8125   20.4917 O   0  0  0  0  0  0  0  0  0  0  0  0
    8.5813  -15.9131   22.4804 C   0  0  2  0  0  0  0  0  0  0  0  0
    7.7815  -15.1799   23.3899 N   0  0  0  0  0  0  0  0  0  0  0  0
   10.0010  -15.6918   22.8675 C   0  0  0  0  0  0  0  0  0  0  0  0
   10.3588  -14.5852   23.3682 O   0  0  0  0  0  0  0  0  0  0  0  0
   11.0246  -16.6631   22.7133 N   0  0  0  0  0  0  0  0  0  0  0  0
   12.3837  -16.3486   23.1551 C   0  0  0  0  0  0  0  0  0  0  0  0
   13.3324  -16.3313   22.0374 C   0  0  0  0  0  0  0  0  0  0  0  0
   14.6795  -16.1743   22.2930 O   0  0  0  0  0  0  0  0  0  0  0  0
   12.9485  -16.4560   20.8525 O   0  0  0  0  0  0  0  0  0  0  0  0
  2  1  1  6
  3  2  1  0
  4  2  1  0
  5  4  1  0
  5  6  1  1
  7  5  1  0
  7  8  2  0
 10  9  1  1
 10 12  1  0
 11 10  1  0
 12 13  1  1
 13  7  1  0
 14 12  1  0
 14 16  1  0
 15 14  2  0
 16 17  1  0
 17 18  1  0
 18 20  2  0
 18 19  1  0
M  END
$$$$
