LTG.pdb
     RDKit          3D

 20 19  0  0  1  0  0  0  0  0999 V2000
    7.3390  -11.9228   20.8481 C   0  0  0  0  0  0  0  0  0  0  0  0
    7.3818  -13.3443   20.3451 C   0  0  1  0  0  0  0  0  0  0  0  0
    7.8986  -13.4414   18.9260 C   0  0  0  0  0  0  0  0  0  0  0  0
    8.2367  -14.1558   21.2919 C   0  0  0  0  0  0  0  0  0  0  0  0
    8.2291  -15.6107   20.8702 C   0  0  2  0  0  0  0  0  0  0  0  0
    6.9367  -16.2361   21.0850 N   0  0  0  0  0  0  0  0  0  0  0  0
    9.2253  -16.3774   21.6396 C   0  0  0  0  0  0  0  0  0  0  0  0
    8.8587  -16.9592   22.6858 O   0  0  0  0  0  0  0  0  0  0  0  0
   10.9798  -19.6719   21.2941 C   0  0  0  0  0  0  0  0  0  0  0  0
   12.0202  -18.5555   21.3851 C   0  0  1  0  0  0  0  0  0  0  0  0
   12.7010  -18.3814   20.2066 O   0  0  0  0  0  0  0  0  0  0  0  0
   11.5065  -17.3296   22.0188 C   0  0  2  0  0  0  0  0  0  0  0  0
   10.5747  -16.5283   21.3159 N   0  0  0  0  0  0  0  0  0  0  0  0
   12.6646  -16.4594   22.3594 C   0  0  0  0  0  0  0  0  0  0  0  0
   12.7916  -15.3256   21.8102 O   0  0  0  0  0  0  0  0  0  0  0  0
   13.6767  -16.8158   23.2886 N   0  0  0  0  0  0  0  0  0  0  0  0
   14.7087  -15.8377   23.6347 C   0  0  0  0  0  0  0  0  0  0  0  0
   15.7643  -16.4263   24.4647 C   0  0  0  0  0  0  0  0  0  0  0  0
   16.8787  -15.6752   24.7788 O   0  0  0  0  0  0  0  0  0  0  0  0
   15.6788  -17.5980   24.8967 O   0  0  0  0  0  0  0  0  0  0  0  0
  2  1  1  1
  3  2  1  0
  4  2  1  0
  5  4  1  0
  5  6  1  1
  7  5  1  0
  7  8  2  0
 10  9  1  6
 10 12  1  0
 11 10  1  0
 12 13  1  6
 13  7  1  0
 14 12  1  0
 14 16  1  0
 15 14  2  0
 16 17  1  0
 17 18  1  0
 18 20  2  0
 18 19  1  0
M  END
$$$$
