FIG.pdb
     RDKit          3D

 24 24  0  0  1  0  0  0  0  0999 V2000
   23.9605  -21.0304   -9.5358 N   0  0  0  0  0  0  0  0  0  0  0  0
   24.2827  -21.1164  -10.9709 C   0  0  1  0  0  0  0  0  0  0  0  0
   23.1671  -20.5520  -11.7817 C   0  0  0  0  0  0  0  0  0  0  0  0
   21.9374  -21.3178  -11.8062 C   0  0  0  0  0  0  0  0  0  0  0  0
   20.8183  -20.8573  -11.1530 C   0  0  0  0  0  0  0  0  0  0  0  0
   19.6222  -21.5563  -11.1485 C   0  0  0  0  0  0  0  0  0  0  0  0
   19.5457  -22.7452  -11.8144 C   0  0  0  0  0  0  0  0  0  0  0  0
   20.6329  -23.2375  -12.4752 C   0  0  0  0  0  0  0  0  0  0  0  0
   21.8271  -22.5192  -12.4678 C   0  0  0  0  0  0  0  0  0  0  0  0
   25.6006  -20.5249  -11.1825 C   0  0  0  0  0  0  0  0  0  0  0  0
   25.9346  -19.4388  -10.6108 O   0  0  0  0  0  0  0  0  0  0  0  0
   29.9530  -22.3815   -9.8908 C   0  0  0  0  0  0  0  0  0  0  0  0
   28.8957  -21.4473  -10.3799 C   0  0  0  0  0  0  0  0  0  0  0  0
   28.9916  -21.2142  -11.8821 C   0  0  2  0  0  0  0  0  0  0  0  0
   30.2852  -20.5001  -12.1490 C   0  0  0  0  0  0  0  0  0  0  0  0
   27.8214  -20.3569  -12.3599 C   0  0  2  0  0  0  0  0  0  0  0  0
   26.6184  -21.0877  -12.0252 N   0  0  0  0  0  0  0  0  0  0  0  0
   27.9213  -20.0303  -13.7834 C   0  0  0  0  0  0  0  0  0  0  0  0
   27.8971  -20.9383  -14.6600 O   0  0  0  0  0  0  0  0  0  0  0  0
   28.0503  -18.6985  -14.2801 N   0  0  0  0  0  0  0  0  0  0  0  0
   28.2176  -18.3844  -15.6658 C   0  0  0  0  0  0  0  0  0  0  0  0
   26.9891  -18.4674  -16.4518 C   0  0  0  0  0  0  0  0  0  0  0  0
   26.5204  -19.5794  -16.7739 O   0  0  0  0  0  0  0  0  0  0  0  0
   26.3261  -17.3266  -16.8517 O   0  0  0  0  0  0  0  0  0  0  0  0
  2 10  1  0
  2  1  1  1
  3  2  1  0
  4  5  2  0
  4  3  1  0
  6  5  1  0
  7  6  2  0
  8  7  1  0
  8  9  2  0
  9  4  1  0
 10 11  2  0
 12 13  1  0
 14 15  1  1
 14 13  1  0
 16 14  1  0
 16 17  1  6
 17 10  1  0
 18 16  1  0
 19 18  2  0
 20 18  1  0
 21 20  1  0
 22 24  1  0
 22 21  1  0
 23 22  2  0
M  END
$$$$
