FIG.pdb
     RDKit          3D

 24 24  0  0  1  0  0  0  0  0999 V2000
   23.9435  -21.1282  -10.1630 N   0  0  0  0  0  0  0  0  0  0  0  0
   23.7458  -21.1754  -11.6224 C   0  0  1  0  0  0  0  0  0  0  0  0
   22.3531  -20.7708  -11.9646 C   0  0  0  0  0  0  0  0  0  0  0  0
   21.2989  -21.6699  -11.5410 C   0  0  0  0  0  0  0  0  0  0  0  0
   21.1119  -22.8727  -12.1809 C   0  0  0  0  0  0  0  0  0  0  0  0
   20.1165  -23.7625  -11.8110 C   0  0  0  0  0  0  0  0  0  0  0  0
   19.2889  -23.4392  -10.7750 C   0  0  0  0  0  0  0  0  0  0  0  0
   19.4405  -22.2558  -10.1136 C   0  0  0  0  0  0  0  0  0  0  0  0
   20.4478  -21.3742  -10.5010 C   0  0  0  0  0  0  0  0  0  0  0  0
   24.8163  -20.4115  -12.2562 C   0  0  0  0  0  0  0  0  0  0  0  0
   25.2003  -19.2960  -11.7804 O   0  0  0  0  0  0  0  0  0  0  0  0
   28.7302  -19.9910  -11.9187 C   0  0  0  0  0  0  0  0  0  0  0  0
   28.2161  -21.1591  -12.6939 C   0  0  0  0  0  0  0  0  0  0  0  0
   27.8048  -20.7683  -14.1077 C   0  0  2  0  0  0  0  0  0  0  0  0
   28.9020  -19.9188  -14.6811 C   0  0  0  0  0  0  0  0  0  0  0  0
   26.5001  -19.9749  -14.0785 C   0  0  2  0  0  0  0  0  0  0  0  0
   25.5209  -20.8253  -13.4373 N   0  0  0  0  0  0  0  0  0  0  0  0
   26.0940  -19.5312  -15.4131 C   0  0  0  0  0  0  0  0  0  0  0  0
   25.7511  -20.3647  -16.2969 O   0  0  0  0  0  0  0  0  0  0  0  0
   26.0541  -18.1610  -15.8108 N   0  0  0  0  0  0  0  0  0  0  0  0
   25.6312  -17.7260  -17.1064 C   0  0  0  0  0  0  0  0  0  0  0  0
   26.5421  -18.0915  -18.1883 C   0  0  0  0  0  0  0  0  0  0  0  0
   26.1692  -18.0197  -19.3782 O   0  0  0  0  0  0  0  0  0  0  0  0
   27.8245  -18.5206  -17.9194 O   0  0  0  0  0  0  0  0  0  0  0  0
  2 10  1  0
  2  1  1  1
  3  2  1  0
  4  5  2  0
  4  3  1  0
  6  5  1  0
  7  6  2  0
  8  7  1  0
  8  9  2  0
  9  4  1  0
 10 11  2  0
 12 13  1  0
 14 15  1  1
 14 13  1  0
 16 14  1  0
 16 17  1  6
 17 10  1  0
 18 16  1  0
 19 18  2  0
 20 18  1  0
 21 20  1  0
 22 24  1  0
 22 21  1  0
 23 22  2  0
M  END
$$$$
