FIG.pdb
     RDKit          3D

 24 24  0  0  1  0  0  0  0  0999 V2000
   26.0848  -21.0119  -13.0353 N   0  0  0  0  0  0  0  0  0  0  0  0
   25.0909  -20.3977  -12.1376 C   0  0  1  0  0  0  0  0  0  0  0  0
   23.7210  -20.5609  -12.7009 C   0  0  0  0  0  0  0  0  0  0  0  0
   23.4795  -19.9520  -13.9932 C   0  0  0  0  0  0  0  0  0  0  0  0
   23.5154  -20.7129  -15.1381 C   0  0  0  0  0  0  0  0  0  0  0  0
   23.2920  -20.1732  -16.3944 C   0  0  0  0  0  0  0  0  0  0  0  0
   23.0261  -18.8392  -16.5059 C   0  0  0  0  0  0  0  0  0  0  0  0
   22.9812  -18.0489  -15.3948 C   0  0  0  0  0  0  0  0  0  0  0  0
   23.2088  -18.6109  -14.1401 C   0  0  0  0  0  0  0  0  0  0  0  0
   25.3035  -20.9193  -10.7907 C   0  0  0  0  0  0  0  0  0  0  0  0
   25.4060  -22.1691  -10.5769 O   0  0  0  0  0  0  0  0  0  0  0  0
   28.3270  -18.5369   -7.1619 C   0  0  0  0  0  0  0  0  0  0  0  0
   27.5683  -19.5879   -7.9031 C   0  0  0  0  0  0  0  0  0  0  0  0
   26.1478  -19.7441   -7.3757 C   0  0  2  0  0  0  0  0  0  0  0  0
   26.2374  -20.3341   -5.9980 C   0  0  0  0  0  0  0  0  0  0  0  0
   25.3461  -20.6744   -8.2838 C   0  0  2  0  0  0  0  0  0  0  0  0
   25.4160  -20.1059   -9.6124 N   0  0  0  0  0  0  0  0  0  0  0  0
   23.9746  -20.8631   -7.8080 C   0  0  0  0  0  0  0  0  0  0  0  0
   23.0632  -20.0463   -8.1169 O   0  0  0  0  0  0  0  0  0  0  0  0
   23.5695  -21.9536   -6.9811 N   0  0  0  0  0  0  0  0  0  0  0  0
   22.3154  -22.0014   -6.2942 C   0  0  0  0  0  0  0  0  0  0  0  0
   21.5395  -23.2131   -6.5467 C   0  0  0  0  0  0  0  0  0  0  0  0
   21.9364  -24.0538   -7.3808 O   0  0  0  0  0  0  0  0  0  0  0  0
   20.3602  -23.4517   -5.8734 O   0  0  0  0  0  0  0  0  0  0  0  0
  2 10  1  0
  2  1  1  6
  3  2  1  0
  4  5  2  0
  4  3  1  0
  6  5  1  0
  7  6  2  0
  8  7  1  0
  8  9  2  0
  9  4  1  0
 10 11  2  0
 12 13  1  0
 14 15  1  1
 14 13  1  0
 16 14  1  0
 16 17  1  6
 17 10  1  0
 18 16  1  0
 19 18  2  0
 20 18  1  0
 21 20  1  0
 22 24  1  0
 22 21  1  0
 23 22  2  0
M  END
$$$$
