FIG.pdb
     RDKit          3D

 24 24  0  0  1  0  0  0  0  0999 V2000
   17.9689   -9.2153  -16.8789 N   0  0  0  0  0  0  0  0  0  0  0  0
   19.3603   -9.0187  -16.4357 C   0  0  1  0  0  0  0  0  0  0  0  0
   20.2653   -9.9589  -17.1550 C   0  0  0  0  0  0  0  0  0  0  0  0
   19.9358  -11.3668  -17.0632 C   0  0  0  0  0  0  0  0  0  0  0  0
   19.3579  -12.0166  -18.1286 C   0  0  0  0  0  0  0  0  0  0  0  0
   19.0248  -13.3607  -18.0852 C   0  0  0  0  0  0  0  0  0  0  0  0
   19.2769  -14.0705  -16.9471 C   0  0  0  0  0  0  0  0  0  0  0  0
   19.8491  -13.4638  -15.8676 C   0  0  0  0  0  0  0  0  0  0  0  0
   20.1767  -12.1108  -15.9311 C   0  0  0  0  0  0  0  0  0  0  0  0
   19.6816   -7.5988  -16.5459 C   0  0  0  0  0  0  0  0  0  0  0  0
   19.0200   -6.8315  -17.3151 O   0  0  0  0  0  0  0  0  0  0  0  0
   19.9621   -2.6773  -13.5923 C   0  0  0  0  0  0  0  0  0  0  0  0
   20.5685   -3.3598  -14.7738 C   0  0  0  0  0  0  0  0  0  0  0  0
   20.4274   -4.8743  -14.6916 C   0  0  2  0  0  0  0  0  0  0  0  0
   21.2056   -5.3384  -13.4943 C   0  0  0  0  0  0  0  0  0  0  0  0
   20.9864   -5.5267  -15.9543 C   0  0  2  0  0  0  0  0  0  0  0  0
   20.7374   -6.9459  -15.8237 N   0  0  0  0  0  0  0  0  0  0  0  0
   22.3994   -5.2052  -16.1625 C   0  0  0  0  0  0  0  0  0  0  0  0
   22.7630   -4.0273  -16.4340 O   0  0  0  0  0  0  0  0  0  0  0  0
   23.4485   -6.1692  -16.0779 N   0  0  0  0  0  0  0  0  0  0  0  0
   24.8261   -5.8607  -16.3105 C   0  0  0  0  0  0  0  0  0  0  0  0
   25.1833   -5.7400  -17.7217 C   0  0  0  0  0  0  0  0  0  0  0  0
   24.3129   -5.8788  -18.6067 O   0  0  0  0  0  0  0  0  0  0  0  0
   26.4809   -5.4720  -18.1032 O   0  0  0  0  0  0  0  0  0  0  0  0
  2 10  1  0
  2  1  1  6
  3  2  1  0
  4  5  2  0
  4  3  1  0
  6  5  1  0
  7  6  2  0
  8  7  1  0
  8  9  2  0
  9  4  1  0
 10 11  2  0
 12 13  1  0
 14 15  1  1
 14 13  1  0
 16 14  1  0
 16 17  1  1
 17 10  1  0
 18 16  1  0
 19 18  2  0
 20 18  1  0
 21 20  1  0
 22 24  1  0
 22 21  1  0
 23 22  2  0
M  END
$$$$
