FIG.pdb
     RDKit          3D

 24 24  0  0  1  0  0  0  0  0999 V2000
   27.9494  -19.9108  -15.1238 N   0  0  0  0  0  0  0  0  0  0  0  0
   27.0929  -19.2021  -14.1567 C   0  0  1  0  0  0  0  0  0  0  0  0
   26.0716  -18.3892  -14.8755 C   0  0  0  0  0  0  0  0  0  0  0  0
   26.5728  -17.3082  -15.6997 C   0  0  0  0  0  0  0  0  0  0  0  0
   26.4930  -17.3844  -17.0705 C   0  0  0  0  0  0  0  0  0  0  0  0
   26.9601  -16.3759  -17.8976 C   0  0  0  0  0  0  0  0  0  0  0  0
   27.5205  -15.2645  -17.3377 C   0  0  0  0  0  0  0  0  0  0  0  0
   27.6188  -15.1493  -15.9819 C   0  0  0  0  0  0  0  0  0  0  0  0
   27.1430  -16.1748  -15.1671 C   0  0  0  0  0  0  0  0  0  0  0  0
   26.5856  -20.1744  -13.1930 C   0  0  0  0  0  0  0  0  0  0  0  0
   26.5790  -21.4193  -13.4547 O   0  0  0  0  0  0  0  0  0  0  0  0
   26.3134  -21.2689   -7.2430 C   0  0  0  0  0  0  0  0  0  0  0  0
   25.7193  -21.5406   -8.5857 C   0  0  0  0  0  0  0  0  0  0  0  0
   26.0992  -20.4730   -9.6037 C   0  0  2  0  0  0  0  0  0  0  0  0
   25.4757  -19.1810   -9.1607 C   0  0  0  0  0  0  0  0  0  0  0  0
   25.5743  -20.8512  -10.9872 C   0  0  2  0  0  0  0  0  0  0  0  0
   26.0624  -19.8388  -11.8983 N   0  0  0  0  0  0  0  0  0  0  0  0
   24.1171  -20.9904  -11.0056 C   0  0  0  0  0  0  0  0  0  0  0  0
   23.5426  -21.8828  -10.3225 O   0  0  0  0  0  0  0  0  0  0  0  0
   23.2543  -20.1531  -11.7748 N   0  0  0  0  0  0  0  0  0  0  0  0
   21.8266  -20.2101  -11.7021 C   0  0  0  0  0  0  0  0  0  0  0  0
   21.2109  -21.0916  -12.6908 C   0  0  0  0  0  0  0  0  0  0  0  0
   21.9226  -21.7698  -13.4612 O   0  0  0  0  0  0  0  0  0  0  0  0
   19.8395  -21.1923  -12.7929 O   0  0  0  0  0  0  0  0  0  0  0  0
  2 10  1  0
  2  1  1  6
  3  2  1  0
  4  5  2  0
  4  3  1  0
  6  5  1  0
  7  6  2  0
  8  7  1  0
  8  9  2  0
  9  4  1  0
 10 11  2  0
 12 13  1  0
 14 15  1  1
 14 13  1  0
 16 14  1  0
 16 17  1  6
 17 10  1  0
 18 16  1  0
 19 18  2  0
 20 18  1  0
 21 20  1  0
 22 24  1  0
 22 21  1  0
 23 22  2  0
M  END
$$$$
