FIG.pdb
     RDKit          3D

 24 24  0  0  1  0  0  0  0  0999 V2000
   26.2935  -19.6968  -18.3729 N   0  0  0  0  0  0  0  0  0  0  0  0
   25.3813  -19.2831  -17.2922 C   0  0  1  0  0  0  0  0  0  0  0  0
   24.0705  -18.8606  -17.8612 C   0  0  0  0  0  0  0  0  0  0  0  0
   24.1140  -17.8452  -18.8938 C   0  0  0  0  0  0  0  0  0  0  0  0
   24.2009  -16.5146  -18.5575 C   0  0  0  0  0  0  0  0  0  0  0  0
   24.2439  -15.5102  -19.5107 C   0  0  0  0  0  0  0  0  0  0  0  0
   24.1988  -15.8473  -20.8325 C   0  0  0  0  0  0  0  0  0  0  0  0
   24.1125  -17.1557  -21.2088 C   0  0  0  0  0  0  0  0  0  0  0  0
   24.0704  -18.1513  -20.2346 C   0  0  0  0  0  0  0  0  0  0  0  0
   25.3408  -20.3463  -16.2925 C   0  0  0  0  0  0  0  0  0  0  0  0
   25.4864  -21.5662  -16.6222 O   0  0  0  0  0  0  0  0  0  0  0  0
   28.4614  -20.4820  -12.2085 C   0  0  0  0  0  0  0  0  0  0  0  0
   27.5077  -20.9000  -13.2788 C   0  0  0  0  0  0  0  0  0  0  0  0
   26.0604  -20.8409  -12.8073 C   0  0  2  0  0  0  0  0  0  0  0  0
   25.9129  -21.8116  -11.6715 C   0  0  0  0  0  0  0  0  0  0  0  0
   25.1178  -21.2304  -13.9442 C   0  0  2  0  0  0  0  0  0  0  0  0
   25.1412  -20.1327  -14.8864 N   0  0  0  0  0  0  0  0  0  0  0  0
   23.7727  -21.5483  -13.4615 C   0  0  0  0  0  0  0  0  0  0  0  0
   23.5611  -22.5791  -12.7644 O   0  0  0  0  0  0  0  0  0  0  0  0
   22.6264  -20.7424  -13.7324 N   0  0  0  0  0  0  0  0  0  0  0  0
   21.3032  -21.0816  -13.3069 C   0  0  0  0  0  0  0  0  0  0  0  0
   20.9182  -20.4987  -12.0241 C   0  0  0  0  0  0  0  0  0  0  0  0
   21.7333  -19.8114  -11.3736 O   0  0  0  0  0  0  0  0  0  0  0  0
   19.6545  -20.6942  -11.5083 O   0  0  0  0  0  0  0  0  0  0  0  0
  2 10  1  0
  2  1  1  6
  3  2  1  0
  4  5  2  0
  4  3  1  0
  6  5  1  0
  7  6  2  0
  8  7  1  0
  8  9  2  0
  9  4  1  0
 10 11  2  0
 12 13  1  0
 14 15  1  1
 14 13  1  0
 16 14  1  0
 16 17  1  6
 17 10  1  0
 18 16  1  0
 19 18  2  0
 20 18  1  0
 21 20  1  0
 22 24  1  0
 22 21  1  0
 23 22  2  0
M  END
$$$$
