FIG.pdb
     RDKit          3D

 24 24  0  0  1  0  0  0  0  0999 V2000
   28.6185  -23.1542  -14.0435 N   0  0  0  0  0  0  0  0  0  0  0  0
   28.3521  -22.2331  -12.9247 C   0  0  1  0  0  0  0  0  0  0  0  0
   29.3314  -21.1101  -12.9406 C   0  0  0  0  0  0  0  0  0  0  0  0
   30.6817  -21.4274  -12.5220 C   0  0  0  0  0  0  0  0  0  0  0  0
   31.6212  -21.8228  -13.4452 C   0  0  0  0  0  0  0  0  0  0  0  0
   32.9230  -22.1370  -13.0903 C   0  0  0  0  0  0  0  0  0  0  0  0
   33.2921  -22.0529  -11.7791 C   0  0  0  0  0  0  0  0  0  0  0  0
   32.3907  -21.6646  -10.8316 C   0  0  0  0  0  0  0  0  0  0  0  0
   31.0860  -21.3528  -11.2089 C   0  0  0  0  0  0  0  0  0  0  0  0
   26.9406  -21.8619  -12.9610 C   0  0  0  0  0  0  0  0  0  0  0  0
   26.1419  -22.3901  -13.7984 O   0  0  0  0  0  0  0  0  0  0  0  0
   26.1419  -19.9700   -8.0232 C   0  0  0  0  0  0  0  0  0  0  0  0
   25.8997  -20.9035   -9.1631 C   0  0  0  0  0  0  0  0  0  0  0  0
   24.9874  -20.2906  -10.2178 C   0  0  2  0  0  0  0  0  0  0  0  0
   23.5925  -20.2828   -9.6622 C   0  0  0  0  0  0  0  0  0  0  0  0
   25.0275  -21.1212  -11.4988 C   0  0  2  0  0  0  0  0  0  0  0  0
   26.3305  -20.8991  -12.0871 N   0  0  0  0  0  0  0  0  0  0  0  0
   23.9229  -20.7956  -12.4027 C   0  0  0  0  0  0  0  0  0  0  0  0
   22.7468  -21.1807  -12.1539 O   0  0  0  0  0  0  0  0  0  0  0  0
   24.0820  -20.0391  -13.6024 N   0  0  0  0  0  0  0  0  0  0  0  0
   23.0088  -19.7514  -14.5036 C   0  0  0  0  0  0  0  0  0  0  0  0
   22.1678  -18.6289  -14.0953 C   0  0  0  0  0  0  0  0  0  0  0  0
   22.4262  -17.9944  -13.0510 O   0  0  0  0  0  0  0  0  0  0  0  0
   21.0781  -18.2494  -14.8501 O   0  0  0  0  0  0  0  0  0  0  0  0
  2 10  1  0
  2  1  1  6
  3  2  1  0
  4  5  2  0
  4  3  1  0
  6  5  1  0
  7  6  2  0
  8  7  1  0
  8  9  2  0
  9  4  1  0
 10 11  2  0
 12 13  1  0
 14 15  1  1
 14 13  1  0
 16 14  1  0
 16 17  1  6
 17 10  1  0
 18 16  1  0
 19 18  2  0
 20 18  1  0
 21 20  1  0
 22 24  1  0
 22 21  1  0
 23 22  2  0
M  END
$$$$
