FIG.pdb
     RDKit          3D

 24 24  0  0  1  0  0  0  0  0999 V2000
   27.5879  -20.4449  -15.4533 N   0  0  0  0  0  0  0  0  0  0  0  0
   27.1131  -19.6648  -14.2970 C   0  0  1  0  0  0  0  0  0  0  0  0
   26.3099  -18.4983  -14.7603 C   0  0  0  0  0  0  0  0  0  0  0  0
   26.9509  -17.6117  -15.7101 C   0  0  0  0  0  0  0  0  0  0  0  0
   26.4140  -17.4292  -16.9629 C   0  0  0  0  0  0  0  0  0  0  0  0
   26.9932  -16.5927  -17.9032 C   0  0  0  0  0  0  0  0  0  0  0  0
   28.1378  -15.9230  -17.5802 C   0  0  0  0  0  0  0  0  0  0  0  0
   28.7029  -16.0760  -16.3481 C   0  0  0  0  0  0  0  0  0  0  0  0
   28.1049  -16.9222  -15.4162 C   0  0  0  0  0  0  0  0  0  0  0  0
   26.4536  -20.5767  -13.3669 C   0  0  0  0  0  0  0  0  0  0  0  0
   26.0092  -21.7041  -13.7534 O   0  0  0  0  0  0  0  0  0  0  0  0
   26.6108  -20.0041   -7.6941 C   0  0  0  0  0  0  0  0  0  0  0  0
   26.0898  -19.9021   -9.0897 C   0  0  0  0  0  0  0  0  0  0  0  0
   26.0777  -21.2528   -9.7938 C   0  0  2  0  0  0  0  0  0  0  0  0
   27.5049  -21.6788   -9.9833 C   0  0  0  0  0  0  0  0  0  0  0  0
   25.3901  -21.1347  -11.1524 C   0  0  2  0  0  0  0  0  0  0  0  0
   26.2474  -20.3057  -11.9716 N   0  0  0  0  0  0  0  0  0  0  0  0
   24.0254  -20.6174  -11.0373 C   0  0  0  0  0  0  0  0  0  0  0  0
   23.7781  -19.3939  -11.2251 O   0  0  0  0  0  0  0  0  0  0  0  0
   22.8982  -21.4307  -10.7133 N   0  0  0  0  0  0  0  0  0  0  0  0
   21.5627  -20.9273  -10.6144 C   0  0  0  0  0  0  0  0  0  0  0  0
   20.7721  -21.0819  -11.8330 C   0  0  0  0  0  0  0  0  0  0  0  0
   21.2701  -21.6210  -12.8437 O   0  0  0  0  0  0  0  0  0  0  0  0
   19.4679  -20.6385  -11.8918 O   0  0  0  0  0  0  0  0  0  0  0  0
  2 10  1  0
  2  1  1  6
  3  2  1  0
  4  5  2  0
  4  3  1  0
  6  5  1  0
  7  6  2  0
  8  7  1  0
  8  9  2  0
  9  4  1  0
 10 11  2  0
 12 13  1  0
 14 15  1  6
 14 13  1  0
 16 14  1  0
 16 17  1  6
 17 10  1  0
 18 16  1  0
 19 18  2  0
 20 18  1  0
 21 20  1  0
 22 24  1  0
 22 21  1  0
 23 22  2  0
M  END
$$$$
