FIG.pdb
     RDKit          3D

 24 24  0  0  1  0  0  0  0  0999 V2000
   25.3617  -20.3179  -17.3147 N   0  0  0  0  0  0  0  0  0  0  0  0
   24.8917  -19.6444  -16.0914 C   0  0  1  0  0  0  0  0  0  0  0  0
   23.4615  -19.2526  -16.2388 C   0  0  0  0  0  0  0  0  0  0  0  0
   23.1547  -18.3272  -17.3105 C   0  0  0  0  0  0  0  0  0  0  0  0
   22.6404  -18.7868  -18.5002 C   0  0  0  0  0  0  0  0  0  0  0  0
   22.3335  -17.9391  -19.5521 C   0  0  0  0  0  0  0  0  0  0  0  0
   22.5469  -16.5988  -19.4083 C   0  0  0  0  0  0  0  0  0  0  0  0
   23.0556  -16.1017  -18.2442 C   0  0  0  0  0  0  0  0  0  0  0  0
   23.3579  -16.9710  -17.1978 C   0  0  0  0  0  0  0  0  0  0  0  0
   25.2166  -20.4906  -14.9469 C   0  0  0  0  0  0  0  0  0  0  0  0
   25.1835  -21.7592  -15.0353 O   0  0  0  0  0  0  0  0  0  0  0  0
   29.6327  -20.0266  -12.3104 C   0  0  0  0  0  0  0  0  0  0  0  0
   28.3663  -20.5996  -12.8559 C   0  0  0  0  0  0  0  0  0  0  0  0
   27.1864  -20.3670  -11.9210 C   0  0  2  0  0  0  0  0  0  0  0  0
   27.4628  -21.1121  -10.6471 C   0  0  0  0  0  0  0  0  0  0  0  0
   25.8988  -20.8893  -12.5549 C   0  0  2  0  0  0  0  0  0  0  0  0
   25.5942  -19.9970  -13.6521 N   0  0  0  0  0  0  0  0  0  0  0  0
   24.8104  -21.0008  -11.5821 C   0  0  0  0  0  0  0  0  0  0  0  0
   24.8576  -21.8521  -10.6513 O   0  0  0  0  0  0  0  0  0  0  0  0
   23.6429  -20.1802  -11.6072 N   0  0  0  0  0  0  0  0  0  0  0  0
   22.5921  -20.2710  -10.6405 C   0  0  0  0  0  0  0  0  0  0  0  0
   21.3966  -20.9615  -11.1179 C   0  0  0  0  0  0  0  0  0  0  0  0
   21.3940  -21.5182  -12.2359 O   0  0  0  0  0  0  0  0  0  0  0  0
   20.2537  -21.0124  -10.3483 O   0  0  0  0  0  0  0  0  0  0  0  0
  2 10  1  0
  2  1  1  6
  3  2  1  0
  4  5  2  0
  4  3  1  0
  6  5  1  0
  7  6  2  0
  8  7  1  0
  8  9  2  0
  9  4  1  0
 10 11  2  0
 12 13  1  0
 14 15  1  1
 14 13  1  0
 16 14  1  0
 16 17  1  6
 17 10  1  0
 18 16  1  0
 19 18  2  0
 20 18  1  0
 21 20  1  0
 22 24  1  0
 22 21  1  0
 23 22  2  0
M  END
$$$$
