FIG.pdb
     RDKit          3D

 24 24  0  0  1  0  0  0  0  0999 V2000
   21.0186  -18.8235  -15.0971 N   0  0  0  0  0  0  0  0  0  0  0  0
   22.2418  -19.4963  -15.5686 C   0  0  1  0  0  0  0  0  0  0  0  0
   22.5746  -19.0465  -16.9497 C   0  0  0  0  0  0  0  0  0  0  0  0
   21.5984  -19.3464  -17.9773 C   0  0  0  0  0  0  0  0  0  0  0  0
   20.9193  -18.3309  -18.6090 C   0  0  0  0  0  0  0  0  0  0  0  0
   19.9769  -18.5709  -19.5958 C   0  0  0  0  0  0  0  0  0  0  0  0
   19.7087  -19.8590  -19.9582 C   0  0  0  0  0  0  0  0  0  0  0  0
   20.3602  -20.8955  -19.3564 C   0  0  0  0  0  0  0  0  0  0  0  0
   21.3047  -20.6333  -18.3659 C   0  0  0  0  0  0  0  0  0  0  0  0
   23.2827  -19.3171  -14.5607 C   0  0  0  0  0  0  0  0  0  0  0  0
   23.5082  -18.1777  -14.0421 O   0  0  0  0  0  0  0  0  0  0  0  0
   23.1803  -21.2200   -9.9563 C   0  0  0  0  0  0  0  0  0  0  0  0
   23.5675  -20.4078  -11.1480 C   0  0  0  0  0  0  0  0  0  0  0  0
   24.7803  -20.9885  -11.8638 C   0  0  2  0  0  0  0  0  0  0  0  0
   25.9203  -21.0026  -10.8868 C   0  0  0  0  0  0  0  0  0  0  0  0
   25.1455  -20.1256  -13.0700 C   0  0  2  0  0  0  0  0  0  0  0  0
   24.1269  -20.3694  -14.0681 N   0  0  0  0  0  0  0  0  0  0  0  0
   26.5016  -20.3952  -13.5512 C   0  0  0  0  0  0  0  0  0  0  0  0
   27.5061  -20.1613  -12.8234 O   0  0  0  0  0  0  0  0  0  0  0  0
   26.7887  -20.9283  -14.8436 N   0  0  0  0  0  0  0  0  0  0  0  0
   28.1067  -21.2697  -15.2829 C   0  0  0  0  0  0  0  0  0  0  0  0
   28.2377  -22.6373  -15.7792 C   0  0  0  0  0  0  0  0  0  0  0  0
   27.2515  -23.4037  -15.7838 O   0  0  0  0  0  0  0  0  0  0  0  0
   29.4456  -23.1071  -16.2497 O   0  0  0  0  0  0  0  0  0  0  0  0
  2 10  1  0
  2  1  1  1
  3  2  1  0
  4  5  2  0
  4  3  1  0
  6  5  1  0
  7  6  2  0
  8  7  1  0
  8  9  2  0
  9  4  1  0
 10 11  2  0
 12 13  1  0
 14 15  1  1
 14 13  1  0
 16 14  1  0
 16 17  1  6
 17 10  1  0
 18 16  1  0
 19 18  2  0
 20 18  1  0
 21 20  1  0
 22 24  1  0
 22 21  1  0
 23 22  2  0
M  END
$$$$
