FIG.pdb
     RDKit          3D

 24 24  0  0  1  0  0  0  0  0999 V2000
   22.9335  -20.6680  -14.2034 N   0  0  0  0  0  0  0  0  0  0  0  0
   22.1529  -20.1589  -13.0621 C   0  0  1  0  0  0  0  0  0  0  0  0
   20.7135  -20.0514  -13.4324 C   0  0  0  0  0  0  0  0  0  0  0  0
   20.3955  -19.1577  -14.5275 C   0  0  0  0  0  0  0  0  0  0  0  0
   20.0421  -19.6627  -15.7570 C   0  0  0  0  0  0  0  0  0  0  0  0
   19.7312  -18.8463  -16.8323 C   0  0  0  0  0  0  0  0  0  0  0  0
   19.7754  -17.4917  -16.6717 C   0  0  0  0  0  0  0  0  0  0  0  0
   20.1212  -16.9500  -15.4684 C   0  0  0  0  0  0  0  0  0  0  0  0
   20.4304  -17.7882  -14.3990 C   0  0  0  0  0  0  0  0  0  0  0  0
   22.4614  -20.9768  -11.8928 C   0  0  0  0  0  0  0  0  0  0  0  0
   22.5295  -22.2443  -11.9750 O   0  0  0  0  0  0  0  0  0  0  0  0
   26.3628  -19.8190   -8.7099 C   0  0  0  0  0  0  0  0  0  0  0  0
   25.2991  -20.5827   -9.4274 C   0  0  0  0  0  0  0  0  0  0  0  0
   24.0217  -20.6910   -8.6046 C   0  0  2  0  0  0  0  0  0  0  0  0
   24.3196  -21.5588   -7.4161 C   0  0  0  0  0  0  0  0  0  0  0  0
   22.9081  -21.3222   -9.4377 C   0  0  2  0  0  0  0  0  0  0  0  0
   22.7116  -20.4544  -10.5785 N   0  0  0  0  0  0  0  0  0  0  0  0
   21.6879  -21.5351   -8.6573 C   0  0  0  0  0  0  0  0  0  0  0  0
   20.8506  -20.6043   -8.4966 O   0  0  0  0  0  0  0  0  0  0  0  0
   21.3566  -22.7755   -8.0340 N   0  0  0  0  0  0  0  0  0  0  0  0
   20.2330  -22.9484   -7.1654 C   0  0  0  0  0  0  0  0  0  0  0  0
   19.0667  -23.5502   -7.8067 C   0  0  0  0  0  0  0  0  0  0  0  0
   19.0044  -23.6341   -9.0513 O   0  0  0  0  0  0  0  0  0  0  0  0
   18.0170  -24.0350   -7.0554 O   0  0  0  0  0  0  0  0  0  0  0  0
  2 10  1  0
  2  1  1  6
  3  2  1  0
  4  5  2  0
  4  3  1  0
  6  5  1  0
  7  6  2  0
  8  7  1  0
  8  9  2  0
  9  4  1  0
 10 11  2  0
 12 13  1  0
 14 15  1  1
 14 13  1  0
 16 14  1  0
 16 17  1  6
 17 10  1  0
 18 16  1  0
 19 18  2  0
 20 18  1  0
 21 20  1  0
 22 24  1  0
 22 21  1  0
 23 22  2  0
M  END
$$$$
