FIG.pdb
     RDKit          3D

 24 24  0  0  1  0  0  0  0  0999 V2000
   18.3212  -10.0170  -18.7693 N   0  0  0  0  0  0  0  0  0  0  0  0
   19.0541   -8.7735  -18.4737 C   0  0  1  0  0  0  0  0  0  0  0  0
   18.1650   -7.5944  -18.6728 C   0  0  0  0  0  0  0  0  0  0  0  0
   17.7224   -7.3435  -20.0294 C   0  0  0  0  0  0  0  0  0  0  0  0
   16.4301   -7.6290  -20.4033 C   0  0  0  0  0  0  0  0  0  0  0  0
   15.9640   -7.4068  -21.6889 C   0  0  0  0  0  0  0  0  0  0  0  0
   16.8130   -6.8860  -22.6220 C   0  0  0  0  0  0  0  0  0  0  0  0
   18.1029   -6.5887  -22.2922 C   0  0  0  0  0  0  0  0  0  0  0  0
   18.5526   -6.8196  -20.9936 C   0  0  0  0  0  0  0  0  0  0  0  0
   19.6701   -8.9049  -17.1566 C   0  0  0  0  0  0  0  0  0  0  0  0
   19.4779   -9.9381  -16.4398 O   0  0  0  0  0  0  0  0  0  0  0  0
   23.7374  -10.8708  -14.3698 C   0  0  0  0  0  0  0  0  0  0  0  0
   22.7888   -9.7308  -14.1958 C   0  0  0  0  0  0  0  0  0  0  0  0
   22.1353   -9.3274  -15.5113 C   0  0  2  0  0  0  0  0  0  0  0  0
   23.2297   -8.9253  -16.4574 C   0  0  0  0  0  0  0  0  0  0  0  0
   21.1861   -8.1513  -15.2912 C   0  0  2  0  0  0  0  0  0  0  0  0
   20.5253   -7.9191  -16.5571 N   0  0  0  0  0  0  0  0  0  0  0  0
   21.8811   -6.9697  -14.7774 C   0  0  0  0  0  0  0  0  0  0  0  0
   22.9192   -6.5303  -15.3455 O   0  0  0  0  0  0  0  0  0  0  0  0
   21.4536   -6.2410  -13.6271 N   0  0  0  0  0  0  0  0  0  0  0  0
   22.0867   -5.0419  -13.1707 C   0  0  0  0  0  0  0  0  0  0  0  0
   21.8651   -3.8824  -14.0310 C   0  0  0  0  0  0  0  0  0  0  0  0
   22.6488   -3.6362  -14.9719 O   0  0  0  0  0  0  0  0  0  0  0  0
   20.7926   -3.0411  -13.8231 O   0  0  0  0  0  0  0  0  0  0  0  0
  2 10  1  0
  2  1  1  1
  3  2  1  0
  4  5  2  0
  4  3  1  0
  6  5  1  0
  7  6  2  0
  8  7  1  0
  8  9  2  0
  9  4  1  0
 10 11  2  0
 12 13  1  0
 14 15  1  6
 14 13  1  0
 16 14  1  0
 16 17  1  6
 17 10  1  0
 18 16  1  0
 19 18  2  0
 20 18  1  0
 21 20  1  0
 22 24  1  0
 22 21  1  0
 23 22  2  0
M  END
$$$$
