FIG.pdb
     RDKit          3D

 24 24  0  0  1  0  0  0  0  0999 V2000
   35.9149  -36.0572  -15.0199 N   0  0  0  0  0  0  0  0  0  0  0  0
   34.4593  -35.8319  -15.0573 C   0  0  1  0  0  0  0  0  0  0  0  0
   33.8689  -36.0680  -13.7096 C   0  0  0  0  0  0  0  0  0  0  0  0
   33.9317  -37.4257  -13.2081 C   0  0  0  0  0  0  0  0  0  0  0  0
   33.0103  -38.3613  -13.6166 C   0  0  0  0  0  0  0  0  0  0  0  0
   33.0311  -39.6700  -13.1626 C   0  0  0  0  0  0  0  0  0  0  0  0
   33.9984  -40.0502  -12.2780 C   0  0  0  0  0  0  0  0  0  0  0  0
   34.9315  -39.1531  -11.8475 C   0  0  0  0  0  0  0  0  0  0  0  0
   34.8935  -37.8412  -12.3161 C   0  0  0  0  0  0  0  0  0  0  0  0
   34.2120  -34.5217  -15.6521 C   0  0  0  0  0  0  0  0  0  0  0  0
   35.1074  -33.6181  -15.6506 O   0  0  0  0  0  0  0  0  0  0  0  0
   34.5047  -32.4532  -19.7084 C   0  0  0  0  0  0  0  0  0  0  0  0
   33.7479  -33.6079  -19.1394 C   0  0  0  0  0  0  0  0  0  0  0  0
   32.4965  -33.1585  -18.3962 C   0  0  2  0  0  0  0  0  0  0  0  0
   31.9893  -31.9167  -19.0707 C   0  0  0  0  0  0  0  0  0  0  0  0
   32.8292  -32.8535  -16.9371 C   0  0  2  0  0  0  0  0  0  0  0  0
   32.9793  -34.1327  -16.2780 N   0  0  0  0  0  0  0  0  0  0  0  0
   31.8231  -31.9951  -16.3093 C   0  0  0  0  0  0  0  0  0  0  0  0
   31.8891  -30.7386  -16.4103 O   0  0  0  0  0  0  0  0  0  0  0  0
   30.7194  -32.4949  -15.5550 N   0  0  0  0  0  0  0  0  0  0  0  0
   29.6109  -31.6879  -15.1467 C   0  0  0  0  0  0  0  0  0  0  0  0
   28.3616  -31.9901  -15.8407 C   0  0  0  0  0  0  0  0  0  0  0  0
   27.2929  -31.4554  -15.4774 O   0  0  0  0  0  0  0  0  0  0  0  0
   28.3370  -32.8667  -16.9048 O   0  0  0  0  0  0  0  0  0  0  0  0
  2 10  1  0
  2  1  1  1
  3  2  1  0
  4  5  2  0
  4  3  1  0
  6  5  1  0
  7  6  2  0
  8  7  1  0
  8  9  2  0
  9  4  1  0
 10 11  2  0
 12 13  1  0
 14 15  1  6
 14 13  1  0
 16 14  1  0
 16 17  1  1
 17 10  1  0
 18 16  1  0
 19 18  2  0
 20 18  1  0
 21 20  1  0
 22 24  1  0
 22 21  1  0
 23 22  2  0
M  END
$$$$
