PAW.pdb
     RDKit          3D

 27 29  0  0  1  0  0  0  0  0999 V2000
    7.5113  -15.9715   20.2294 N   0  0  0  0  0  0  0  0  0  0  0  0
    6.6176  -16.1542   21.3415 C   0  0  0  0  0  0  0  0  0  0  0  0
    6.8938  -15.0064   22.3037 C   0  0  0  0  0  0  0  0  0  0  0  0
    7.9511  -14.1660   21.5901 C   0  0  0  0  0  0  0  0  0  0  0  0
    8.6366  -15.2196   20.7484 C   0  0  1  0  0  0  0  0  0  0  0  0
    9.4285  -16.1234   21.6173 C   0  0  0  0  0  0  0  0  0  0  0  0
    8.9535  -17.2033   22.0381 O   0  0  0  0  0  0  0  0  0  0  0  0
   13.1310  -16.4496   22.2192 C   0  0  0  0  0  0  0  0  0  0  0  0
   11.6721  -16.7985   22.5179 C   0  0  2  0  0  0  0  0  0  0  0  0
   10.7780  -15.7973   22.0139 N   0  0  0  0  0  0  0  0  0  0  0  0
   11.4799  -17.0461   23.9725 C   0  0  0  0  0  0  0  0  0  0  0  0
   12.2186  -17.8919   24.5284 O   0  0  0  0  0  0  0  0  0  0  0  0
   10.5004  -16.3638   24.7383 N   0  0  0  0  0  0  0  0  0  0  0  0
   10.2960  -16.4777   26.1513 C   0  0  1  0  0  0  0  0  0  0  0  0
    9.7777  -15.2136   26.8238 C   0  0  0  0  0  0  0  0  0  0  0  0
    8.3916  -14.9439   26.3954 C   0  0  0  0  0  0  0  0  0  0  0  0
    7.4338  -15.8064   25.9458 C   0  0  0  0  0  0  0  0  0  0  0  0
    6.2918  -15.1101   25.6725 N   0  0  0  0  0  0  0  0  0  0  0  0
    6.4711  -13.8097   25.9307 C   0  0  0  0  0  0  0  0  0  0  0  0
    5.6284  -12.7080   25.8212 C   0  0  0  0  0  0  0  0  0  0  0  0
    6.0817  -11.4674   26.1640 C   0  0  0  0  0  0  0  0  0  0  0  0
    7.3680  -11.3328   26.6123 C   0  0  0  0  0  0  0  0  0  0  0  0
    8.2009  -12.4233   26.7202 C   0  0  0  0  0  0  0  0  0  0  0  0
    7.7734  -13.6864   26.3824 C   0  0  0  0  0  0  0  0  0  0  0  0
    9.5578  -17.6589   26.5941 C   0  0  0  0  0  0  0  0  0  0  0  0
    9.5509  -17.9724   27.9629 O   0  0  0  0  0  0  0  0  0  0  0  0
    8.9200  -18.4268   25.8359 O   0  0  0  0  0  0  0  0  0  0  0  0
  1  2  1  0
  3  2  1  0
  4  5  1  0
  4  3  1  0
  5  6  1  1
  5  1  1  0
  6  7  2  0
  9  8  1  1
  9 11  1  0
 10  9  1  0
 10  6  1  0
 11 13  1  0
 11 12  2  0
 13 14  1  0
 14 25  1  0
 14 15  1  6
 16 15  1  0
 16 17  2  0
 18 17  1  0
 19 18  1  0
 20 19  2  0
 21 20  1  0
 22 21  2  0
 22 23  1  0
 23 24  2  0
 24 19  1  0
 24 16  1  0
 25 27  2  0
 25 26  1  0
M  END
$$$$
