PAW.pdb
     RDKit          3D

 27 29  0  0  1  0  0  0  0  0999 V2000
    7.8619  -15.8587   20.0221 N   0  0  0  0  0  0  0  0  0  0  0  0
    6.6692  -16.5455   20.4400 C   0  0  0  0  0  0  0  0  0  0  0  0
    6.1053  -15.7483   21.6087 C   0  0  0  0  0  0  0  0  0  0  0  0
    7.0486  -14.5537   21.7368 C   0  0  0  0  0  0  0  0  0  0  0  0
    8.3315  -15.1398   21.1899 C   0  0  1  0  0  0  0  0  0  0  0  0
    8.8818  -16.1307   22.1460 C   0  0  0  0  0  0  0  0  0  0  0  0
    8.3707  -16.2972   23.2774 O   0  0  0  0  0  0  0  0  0  0  0  0
   11.7336  -15.1876   21.9182 C   0  0  0  0  0  0  0  0  0  0  0  0
   11.3400  -16.6178   22.2911 C   0  0  2  0  0  0  0  0  0  0  0  0
   10.0278  -16.9437   21.8138 N   0  0  0  0  0  0  0  0  0  0  0  0
   11.4770  -16.8335   23.7569 C   0  0  0  0  0  0  0  0  0  0  0  0
   12.5738  -17.2572   24.1898 O   0  0  0  0  0  0  0  0  0  0  0  0
   10.4193  -16.5778   24.6665 N   0  0  0  0  0  0  0  0  0  0  0  0
   10.5000  -16.6173   26.0960 C   0  0  1  0  0  0  0  0  0  0  0  0
    9.9462  -15.3856   26.7995 C   0  0  0  0  0  0  0  0  0  0  0  0
    8.5174  -15.2152   26.4729 C   0  0  0  0  0  0  0  0  0  0  0  0
    7.5555  -16.1574   26.2475 C   0  0  0  0  0  0  0  0  0  0  0  0
    6.3676  -15.5365   25.9882 N   0  0  0  0  0  0  0  0  0  0  0  0
    6.5207  -14.2083   26.0371 C   0  0  0  0  0  0  0  0  0  0  0  0
    5.6304  -13.1553   25.8516 C   0  0  0  0  0  0  0  0  0  0  0  0
    6.0661  -11.8672   25.9659 C   0  0  0  0  0  0  0  0  0  0  0  0
    7.3823  -11.6372   26.2634 C   0  0  0  0  0  0  0  0  0  0  0  0
    8.2623  -12.6796   26.4467 C   0  0  0  0  0  0  0  0  0  0  0  0
    7.8535  -13.9886   26.3380 C   0  0  0  0  0  0  0  0  0  0  0  0
   10.0285  -17.8490   26.7259 C   0  0  0  0  0  0  0  0  0  0  0  0
   10.2764  -18.0406   28.0948 O   0  0  0  0  0  0  0  0  0  0  0  0
    9.4102  -18.7628   26.1308 O   0  0  0  0  0  0  0  0  0  0  0  0
  1  2  1  0
  3  2  1  0
  4  5  1  0
  4  3  1  0
  5  6  1  1
  5  1  1  0
  6  7  2  0
  9  8  1  1
  9 11  1  0
 10  9  1  0
 10  6  1  0
 11 13  1  0
 11 12  2  0
 13 14  1  0
 14 25  1  0
 14 15  1  1
 16 15  1  0
 16 17  2  0
 18 17  1  0
 19 18  1  0
 20 19  2  0
 21 20  1  0
 22 21  2  0
 22 23  1  0
 23 24  2  0
 24 19  1  0
 24 16  1  0
 25 27  2  0
 25 26  1  0
M  END
$$$$
