PAW.pdb
     RDKit          3D

 27 29  0  0  1  0  0  0  0  0999 V2000
    9.4041  -14.2628   19.0948 N   0  0  0  0  0  0  0  0  0  0  0  0
    8.0913  -14.5764   18.5978 C   0  0  0  0  0  0  0  0  0  0  0  0
    7.1269  -13.6494   19.3259 C   0  0  0  0  0  0  0  0  0  0  0  0
    8.0307  -12.7770   20.1952 C   0  0  0  0  0  0  0  0  0  0  0  0
    9.2015  -13.7084   20.4187 C   0  0  1  0  0  0  0  0  0  0  0  0
    8.8015  -14.8148   21.3213 C   0  0  0  0  0  0  0  0  0  0  0  0
    7.8051  -14.7135   22.0736 O   0  0  0  0  0  0  0  0  0  0  0  0
   10.1068  -18.2964   22.1794 C   0  0  0  0  0  0  0  0  0  0  0  0
    9.3807  -16.9786   22.4542 C   0  0  2  0  0  0  0  0  0  0  0  0
    9.5422  -16.0532   21.3709 N   0  0  0  0  0  0  0  0  0  0  0  0
    9.8132  -16.4038   23.7567 C   0  0  0  0  0  0  0  0  0  0  0  0
   10.6392  -15.4618   23.7393 O   0  0  0  0  0  0  0  0  0  0  0  0
    9.3260  -16.8824   24.9997 N   0  0  0  0  0  0  0  0  0  0  0  0
    9.9229  -16.6708   26.2843 C   0  0  1  0  0  0  0  0  0  0  0  0
    9.0316  -15.9558   27.2908 C   0  0  0  0  0  0  0  0  0  0  0  0
    7.8462  -15.3985   26.6114 C   0  0  0  0  0  0  0  0  0  0  0  0
    6.7908  -16.0408   26.0307 C   0  0  0  0  0  0  0  0  0  0  0  0
    5.9193  -15.1163   25.5312 N   0  0  0  0  0  0  0  0  0  0  0  0
    6.3722  -13.8799   25.7677 C   0  0  0  0  0  0  0  0  0  0  0  0
    5.8605  -12.6214   25.4673 C   0  0  0  0  0  0  0  0  0  0  0  0
    6.5461  -11.5014   25.8382 C   0  0  0  0  0  0  0  0  0  0  0  0
    7.7338  -11.6421   26.5041 C   0  0  0  0  0  0  0  0  0  0  0  0
    8.2392  -12.8876   26.8007 C   0  0  0  0  0  0  0  0  0  0  0  0
    7.5717  -14.0350   26.4401 C   0  0  0  0  0  0  0  0  0  0  0  0
   10.5764  -17.8338   26.8815 C   0  0  0  0  0  0  0  0  0  0  0  0
   11.3195  -17.6552   28.0596 O   0  0  0  0  0  0  0  0  0  0  0  0
   10.5249  -18.9971   26.4174 O   0  0  0  0  0  0  0  0  0  0  0  0
  1  2  1  0
  3  2  1  0
  4  5  1  0
  4  3  1  0
  5  6  1  1
  5  1  1  0
  6  7  2  0
  9  8  1  6
  9 11  1  0
 10  9  1  0
 10  6  1  0
 11 13  1  0
 11 12  2  0
 13 14  1  0
 14 25  1  0
 14 15  1  1
 16 15  1  0
 16 17  2  0
 18 17  1  0
 19 18  1  0
 20 19  2  0
 21 20  1  0
 22 21  2  0
 22 23  1  0
 23 24  2  0
 24 19  1  0
 24 16  1  0
 25 27  2  0
 25 26  1  0
M  END
$$$$
