PAW.pdb
     RDKit          3D

 27 29  0  0  1  0  0  0  0  0999 V2000
    9.1407  -14.5105   18.0981 N   0  0  0  0  0  0  0  0  0  0  0  0
    7.7125  -14.5059   17.9279 C   0  0  0  0  0  0  0  0  0  0  0  0
    7.1830  -13.3729   18.7971 C   0  0  0  0  0  0  0  0  0  0  0  0
    8.4394  -12.7359   19.3879 C   0  0  0  0  0  0  0  0  0  0  0  0
    9.3838  -13.9175   19.3983 C   0  0  1  0  0  0  0  0  0  0  0  0
    8.9609  -14.8930   20.4319 C   0  0  0  0  0  0  0  0  0  0  0  0
    8.3538  -14.5257   21.4642 O   0  0  0  0  0  0  0  0  0  0  0  0
    9.6495  -18.5969   21.0500 C   0  0  0  0  0  0  0  0  0  0  0  0
    9.1618  -17.1939   21.4149 C   0  0  2  0  0  0  0  0  0  0  0  0
    9.2304  -16.3046   20.2923 N   0  0  0  0  0  0  0  0  0  0  0  0
    9.9034  -16.6718   22.5945 C   0  0  0  0  0  0  0  0  0  0  0  0
   10.9988  -16.0973   22.3943 O   0  0  0  0  0  0  0  0  0  0  0  0
    9.4154  -16.8024   23.9198 N   0  0  0  0  0  0  0  0  0  0  0  0
   10.0826  -16.3831   25.1158 C   0  0  1  0  0  0  0  0  0  0  0  0
    9.7864  -14.9515   25.5418 C   0  0  0  0  0  0  0  0  0  0  0  0
    8.3350  -14.7713   25.7376 C   0  0  0  0  0  0  0  0  0  0  0  0
    7.3266  -15.6899   25.6837 C   0  0  0  0  0  0  0  0  0  0  0  0
    6.1375  -15.0701   25.9398 N   0  0  0  0  0  0  0  0  0  0  0  0
    6.3352  -13.7658   26.1620 C   0  0  0  0  0  0  0  0  0  0  0  0
    5.4633  -12.7240   26.4627 C   0  0  0  0  0  0  0  0  0  0  0  0
    5.9482  -11.4617   26.6458 C   0  0  0  0  0  0  0  0  0  0  0  0
    7.2948  -11.2460   26.5285 C   0  0  0  0  0  0  0  0  0  0  0  0
    8.1566  -12.2773   26.2309 C   0  0  0  0  0  0  0  0  0  0  0  0
    7.6983  -13.5603   26.0406 C   0  0  0  0  0  0  0  0  0  0  0  0
    9.9995  -17.3048   26.2471 C   0  0  0  0  0  0  0  0  0  0  0  0
    9.1354  -18.4077   26.1525 O   0  0  0  0  0  0  0  0  0  0  0  0
   10.6492  -17.1863   27.3125 O   0  0  0  0  0  0  0  0  0  0  0  0
  1  2  1  0
  3  2  1  0
  4  5  1  0
  4  3  1  0
  5  6  1  1
  5  1  1  0
  6  7  2  0
  9  8  1  6
  9 11  1  0
 10  9  1  0
 10  6  1  0
 11 13  1  0
 11 12  2  0
 13 14  1  0
 14 25  1  0
 14 15  1  1
 16 15  1  0
 16 17  2  0
 18 17  1  0
 19 18  1  0
 20 19  2  0
 21 20  1  0
 22 21  2  0
 22 23  1  0
 23 24  2  0
 24 19  1  0
 24 16  1  0
 25 27  2  0
 25 26  1  0
M  END
$$$$
