PAW.pdb
     RDKit          3D

 27 29  0  0  1  0  0  0  0  0999 V2000
    8.5395  -14.6099   18.0433 N   0  0  0  0  0  0  0  0  0  0  0  0
    7.3055  -13.9605   18.3961 C   0  0  0  0  0  0  0  0  0  0  0  0
    7.6613  -12.9023   19.4320 C   0  0  0  0  0  0  0  0  0  0  0  0
    9.1814  -12.9933   19.5532 C   0  0  0  0  0  0  0  0  0  0  0  0
    9.4131  -14.4429   19.1879 C   0  0  1  0  0  0  0  0  0  0  0  0
    8.9171  -15.3228   20.2736 C   0  0  0  0  0  0  0  0  0  0  0  0
    8.0365  -14.9344   21.0753 O   0  0  0  0  0  0  0  0  0  0  0  0
    9.6299  -18.8609   21.5134 C   0  0  0  0  0  0  0  0  0  0  0  0
    9.1598  -17.4114   21.6446 C   0  0  2  0  0  0  0  0  0  0  0  0
    9.4275  -16.6615   20.4521 N   0  0  0  0  0  0  0  0  0  0  0  0
    9.7494  -16.7769   22.8545 C   0  0  0  0  0  0  0  0  0  0  0  0
   10.5565  -15.8327   22.6901 O   0  0  0  0  0  0  0  0  0  0  0  0
    9.4304  -17.2018   24.1695 N   0  0  0  0  0  0  0  0  0  0  0  0
    9.9557  -16.6617   25.3876 C   0  0  1  0  0  0  0  0  0  0  0  0
    9.7144  -15.1704   25.5792 C   0  0  0  0  0  0  0  0  0  0  0  0
    8.2965  -14.9245   25.9054 C   0  0  0  0  0  0  0  0  0  0  0  0
    7.2464  -15.7959   25.9448 C   0  0  0  0  0  0  0  0  0  0  0  0
    6.1149  -15.1230   26.3064 N   0  0  0  0  0  0  0  0  0  0  0  0
    6.3914  -13.8296   26.5072 C   0  0  0  0  0  0  0  0  0  0  0  0
    5.5989  -12.7497   26.8836 C   0  0  0  0  0  0  0  0  0  0  0  0
    6.1556  -11.5113   27.0195 C   0  0  0  0  0  0  0  0  0  0  0  0
    7.4945  -11.3571   26.7802 C   0  0  0  0  0  0  0  0  0  0  0  0
    8.2777  -12.4261   26.4079 C   0  0  0  0  0  0  0  0  0  0  0  0
    7.7459  -13.6864   26.2624 C   0  0  0  0  0  0  0  0  0  0  0  0
    9.6457  -17.4130   26.6024 C   0  0  0  0  0  0  0  0  0  0  0  0
   10.3556  -17.1137   27.7765 O   0  0  0  0  0  0  0  0  0  0  0  0
    8.7821  -18.3183   26.6800 O   0  0  0  0  0  0  0  0  0  0  0  0
  1  2  1  0
  3  2  1  0
  4  5  1  0
  4  3  1  0
  5  6  1  1
  5  1  1  0
  6  7  2  0
  9  8  1  6
  9 11  1  0
 10  9  1  0
 10  6  1  0
 11 13  1  0
 11 12  2  0
 13 14  1  0
 14 25  1  0
 14 15  1  1
 16 15  1  0
 16 17  2  0
 18 17  1  0
 19 18  1  0
 20 19  2  0
 21 20  1  0
 22 21  2  0
 22 23  1  0
 23 24  2  0
 24 19  1  0
 24 16  1  0
 25 27  2  0
 25 26  1  0
M  END
$$$$
