PAW.pdb
     RDKit          3D

 27 29  0  0  1  0  0  0  0  0999 V2000
    6.6203  -18.8754   20.3715 N   0  0  0  0  0  0  0  0  0  0  0  0
    6.9423  -19.9967   21.2128 C   0  0  0  0  0  0  0  0  0  0  0  0
    6.3025  -19.7127   22.5654 C   0  0  0  0  0  0  0  0  0  0  0  0
    5.5628  -18.3920   22.3597 C   0  0  0  0  0  0  0  0  0  0  0  0
    6.4004  -17.7596   21.2702 C   0  0  1  0  0  0  0  0  0  0  0  0
    7.7153  -17.3483   21.8186 C   0  0  0  0  0  0  0  0  0  0  0  0
    8.1650  -17.8480   22.8756 O   0  0  0  0  0  0  0  0  0  0  0  0
    7.2173  -14.3498   21.6601 C   0  0  0  0  0  0  0  0  0  0  0  0
    8.5987  -15.0059   21.6353 C   0  0  2  0  0  0  0  0  0  0  0  0
    8.5311  -16.3565   21.1587 N   0  0  0  0  0  0  0  0  0  0  0  0
    9.2480  -14.9106   22.9708 C   0  0  0  0  0  0  0  0  0  0  0  0
    9.7618  -13.8159   23.2989 O   0  0  0  0  0  0  0  0  0  0  0  0
    9.3022  -16.0051   23.8712 N   0  0  0  0  0  0  0  0  0  0  0  0
    9.8839  -16.0003   25.1799 C   0  0  1  0  0  0  0  0  0  0  0  0
    8.9014  -16.2572   26.3146 C   0  0  0  0  0  0  0  0  0  0  0  0
    7.6870  -15.4400   26.1278 C   0  0  0  0  0  0  0  0  0  0  0  0
    6.4409  -15.8112   25.7119 C   0  0  0  0  0  0  0  0  0  0  0  0
    5.6252  -14.7166   25.6977 N   0  0  0  0  0  0  0  0  0  0  0  0
    6.3010  -13.6321   26.0941 C   0  0  0  0  0  0  0  0  0  0  0  0
    5.9277  -12.3010   26.2504 C   0  0  0  0  0  0  0  0  0  0  0  0
    6.8411  -11.3839   26.6828 C   0  0  0  0  0  0  0  0  0  0  0  0
    8.1169  -11.7980   26.9559 C   0  0  0  0  0  0  0  0  0  0  0  0
    8.4853  -13.1152   26.8010 C   0  0  0  0  0  0  0  0  0  0  0  0
    7.5876  -14.0628   26.3668 C   0  0  0  0  0  0  0  0  0  0  0  0
   11.1012  -16.7937   25.3379 C   0  0  0  0  0  0  0  0  0  0  0  0
   11.7461  -16.7929   26.5854 O   0  0  0  0  0  0  0  0  0  0  0  0
   11.6234  -17.4861   24.4328 O   0  0  0  0  0  0  0  0  0  0  0  0
  1  2  1  0
  3  2  1  0
  4  5  1  0
  4  3  1  0
  5  6  1  1
  5  1  1  0
  6  7  2  0
  9  8  1  1
  9 11  1  0
 10  9  1  0
 10  6  1  0
 11 13  1  0
 11 12  2  0
 13 14  1  0
 14 25  1  0
 14 15  1  1
 16 15  1  0
 16 17  2  0
 18 17  1  0
 19 18  1  0
 20 19  2  0
 21 20  1  0
 22 21  2  0
 22 23  1  0
 23 24  2  0
 24 19  1  0
 24 16  1  0
 25 27  2  0
 25 26  1  0
M  END
$$$$
