PAW.pdb
     RDKit          3D

 27 29  0  0  1  0  0  0  0  0999 V2000
    9.3879  -14.3286   18.2592 N   0  0  0  0  0  0  0  0  0  0  0  0
    8.0315  -14.6180   17.8778 C   0  0  0  0  0  0  0  0  0  0  0  0
    7.1569  -13.6149   18.6183 C   0  0  0  0  0  0  0  0  0  0  0  0
    8.1527  -12.7312   19.3674 C   0  0  0  0  0  0  0  0  0  0  0  0
    9.3038  -13.6937   19.5597 C   0  0  1  0  0  0  0  0  0  0  0  0
    8.9339  -14.7316   20.5520 C   0  0  0  0  0  0  0  0  0  0  0  0
    8.2730  -14.4462   21.5770 O   0  0  0  0  0  0  0  0  0  0  0  0
    9.7433  -18.4334   21.0399 C   0  0  0  0  0  0  0  0  0  0  0  0
    9.2161  -17.0579   21.4517 C   0  0  2  0  0  0  0  0  0  0  0  0
    9.3192  -16.1123   20.3788 N   0  0  0  0  0  0  0  0  0  0  0  0
    9.8958  -16.5850   22.6880 C   0  0  0  0  0  0  0  0  0  0  0  0
   10.9278  -15.8857   22.5618 O   0  0  0  0  0  0  0  0  0  0  0  0
    9.4182  -16.8969   23.9865 N   0  0  0  0  0  0  0  0  0  0  0  0
   10.0277  -16.5243   25.2279 C   0  0  1  0  0  0  0  0  0  0  0  0
    9.8128  -15.0720   25.6324 C   0  0  0  0  0  0  0  0  0  0  0  0
    8.3698  -14.7884   25.7541 C   0  0  0  0  0  0  0  0  0  0  0  0
    7.3024  -15.6322   25.6443 C   0  0  0  0  0  0  0  0  0  0  0  0
    6.1490  -14.9290   25.8417 N   0  0  0  0  0  0  0  0  0  0  0  0
    6.4278  -13.6423   26.0795 C   0  0  0  0  0  0  0  0  0  0  0  0
    5.6184  -12.5410   26.3395 C   0  0  0  0  0  0  0  0  0  0  0  0
    6.1823  -11.3168   26.5529 C   0  0  0  0  0  0  0  0  0  0  0  0
    7.5452  -11.1982   26.5059 C   0  0  0  0  0  0  0  0  0  0  0  0
    8.3451  -12.2884   26.2485 C   0  0  0  0  0  0  0  0  0  0  0  0
    7.8067  -13.5351   26.0293 C   0  0  0  0  0  0  0  0  0  0  0  0
    9.7923  -17.4313   26.3496 C   0  0  0  0  0  0  0  0  0  0  0  0
   10.5712  -17.2822   27.5085 O   0  0  0  0  0  0  0  0  0  0  0  0
    8.9360  -18.3467   26.3588 O   0  0  0  0  0  0  0  0  0  0  0  0
  1  2  1  0
  3  2  1  0
  4  5  1  0
  4  3  1  0
  5  6  1  1
  5  1  1  0
  6  7  2  0
  9  8  1  6
  9 11  1  0
 10  9  1  0
 10  6  1  0
 11 13  1  0
 11 12  2  0
 13 14  1  0
 14 25  1  0
 14 15  1  1
 16 15  1  0
 16 17  2  0
 18 17  1  0
 19 18  1  0
 20 19  2  0
 21 20  1  0
 22 21  2  0
 22 23  1  0
 23 24  2  0
 24 19  1  0
 24 16  1  0
 25 27  2  0
 25 26  1  0
M  END
$$$$
