PAW.pdb
     RDKit          3D

 27 29  0  0  1  0  0  0  0  0999 V2000
    6.8189  -18.9224   20.7130 N   0  0  0  0  0  0  0  0  0  0  0  0
    6.3263  -18.6650   19.3863 C   0  0  0  0  0  0  0  0  0  0  0  0
    7.4713  -18.9892   18.4359 C   0  0  0  0  0  0  0  0  0  0  0  0
    8.5835  -19.4999   19.3500 C   0  0  0  0  0  0  0  0  0  0  0  0
    8.2582  -18.7701   20.6346 C   0  0  1  0  0  0  0  0  0  0  0  0
    8.5576  -17.3255   20.4844 C   0  0  0  0  0  0  0  0  0  0  0  0
    9.6174  -16.9330   19.9443 O   0  0  0  0  0  0  0  0  0  0  0  0
    6.8704  -13.9988   21.1898 C   0  0  0  0  0  0  0  0  0  0  0  0
    8.0628  -14.9559   21.1482 C   0  0  2  0  0  0  0  0  0  0  0  0
    7.6418  -16.3126   20.9534 N   0  0  0  0  0  0  0  0  0  0  0  0
    8.9057  -14.7956   22.3639 C   0  0  0  0  0  0  0  0  0  0  0  0
    9.4760  -13.6946   22.5440 O   0  0  0  0  0  0  0  0  0  0  0  0
    9.0810  -15.8360   23.3117 N   0  0  0  0  0  0  0  0  0  0  0  0
    9.9026  -15.7875   24.4839 C   0  0  1  0  0  0  0  0  0  0  0  0
    9.1887  -16.1550   25.7777 C   0  0  0  0  0  0  0  0  0  0  0  0
    7.8985  -15.4439   25.8638 C   0  0  0  0  0  0  0  0  0  0  0  0
    6.6317  -15.9058   25.6505 C   0  0  0  0  0  0  0  0  0  0  0  0
    5.7412  -14.8913   25.8542 N   0  0  0  0  0  0  0  0  0  0  0  0
    6.3879  -13.7714   26.1971 C   0  0  0  0  0  0  0  0  0  0  0  0
    5.9428  -12.4899   26.5060 C   0  0  0  0  0  0  0  0  0  0  0  0
    6.8423  -11.5165   26.8309 C   0  0  0  0  0  0  0  0  0  0  0  0
    8.1758  -11.8254   26.8459 C   0  0  0  0  0  0  0  0  0  0  0  0
    8.6151  -13.0936   26.5401 C   0  0  0  0  0  0  0  0  0  0  0  0
    7.7331  -14.0958   26.2086 C   0  0  0  0  0  0  0  0  0  0  0  0
   11.1982  -16.4562   24.3807 C   0  0  0  0  0  0  0  0  0  0  0  0
   11.4846  -17.1895   23.2179 O   0  0  0  0  0  0  0  0  0  0  0  0
   12.0883  -16.4262   25.2628 O   0  0  0  0  0  0  0  0  0  0  0  0
  1  2  1  0
  3  2  1  0
  4  5  1  0
  4  3  1  0
  5  6  1  6
  5  1  1  0
  6  7  2  0
  9  8  1  1
  9 11  1  0
 10  9  1  0
 10  6  1  0
 11 13  1  0
 11 12  2  0
 13 14  1  0
 14 25  1  0
 14 15  1  1
 16 15  1  0
 16 17  2  0
 18 17  1  0
 19 18  1  0
 20 19  2  0
 21 20  1  0
 22 21  2  0
 22 23  1  0
 23 24  2  0
 24 19  1  0
 24 16  1  0
 25 27  2  0
 25 26  1  0
M  END
$$$$
