PAW.pdb
     RDKit          3D

 27 29  0  0  1  0  0  0  0  0999 V2000
    9.0900  -14.3210   18.1040 N   0  0  0  0  0  0  0  0  0  0  0  0
    7.7026  -14.5580   17.8075 C   0  0  0  0  0  0  0  0  0  0  0  0
    6.9196  -13.4728   18.5346 C   0  0  0  0  0  0  0  0  0  0  0  0
    7.9966  -12.6049   19.1830 C   0  0  0  0  0  0  0  0  0  0  0  0
    9.1067  -13.6154   19.3701 C   0  0  1  0  0  0  0  0  0  0  0  0
    8.7383  -14.5789   20.4353 C   0  0  0  0  0  0  0  0  0  0  0  0
    8.3749  -14.1888   21.5688 O   0  0  0  0  0  0  0  0  0  0  0  0
    8.8856  -18.3733   20.8302 C   0  0  0  0  0  0  0  0  0  0  0  0
    8.6356  -16.9365   21.2910 C   0  0  2  0  0  0  0  0  0  0  0  0
    8.7829  -16.0046   20.2113 N   0  0  0  0  0  0  0  0  0  0  0  0
    9.5056  -16.5992   22.4501 C   0  0  0  0  0  0  0  0  0  0  0  0
   10.6197  -16.0752   22.2173 O   0  0  0  0  0  0  0  0  0  0  0  0
    9.1180  -16.8489   23.7914 N   0  0  0  0  0  0  0  0  0  0  0  0
    9.9065  -16.6071   24.9624 C   0  0  1  0  0  0  0  0  0  0  0  0
    9.7633  -15.2093   25.5491 C   0  0  0  0  0  0  0  0  0  0  0  0
    8.3372  -14.8880   25.7501 C   0  0  0  0  0  0  0  0  0  0  0  0
    7.2407  -15.6972   25.6700 C   0  0  0  0  0  0  0  0  0  0  0  0
    6.1200  -14.9672   25.9438 N   0  0  0  0  0  0  0  0  0  0  0  0
    6.4488  -13.6966   26.2031 C   0  0  0  0  0  0  0  0  0  0  0  0
    5.6865  -12.5805   26.5334 C   0  0  0  0  0  0  0  0  0  0  0  0
    6.2968  -11.3798   26.7524 C   0  0  0  0  0  0  0  0  0  0  0  0
    7.6588  -11.2990   26.6412 C   0  0  0  0  0  0  0  0  0  0  0  0
    8.4120  -12.4038   26.3143 C   0  0  0  0  0  0  0  0  0  0  0  0
    7.8261  -13.6276   26.0875 C   0  0  0  0  0  0  0  0  0  0  0  0
    9.8331  -17.6324   26.0015 C   0  0  0  0  0  0  0  0  0  0  0  0
    8.8458  -18.6255   25.8964 O   0  0  0  0  0  0  0  0  0  0  0  0
   10.5943  -17.6960   26.9954 O   0  0  0  0  0  0  0  0  0  0  0  0
  1  2  1  0
  3  2  1  0
  4  5  1  0
  4  3  1  0
  5  6  1  1
  5  1  1  0
  6  7  2  0
  9  8  1  6
  9 11  1  0
 10  9  1  0
 10  6  1  0
 11 13  1  0
 11 12  2  0
 13 14  1  0
 14 25  1  0
 14 15  1  1
 16 15  1  0
 16 17  2  0
 18 17  1  0
 19 18  1  0
 20 19  2  0
 21 20  1  0
 22 21  2  0
 22 23  1  0
 23 24  2  0
 24 19  1  0
 24 16  1  0
 25 27  2  0
 25 26  1  0
M  END
$$$$
