PAW.pdb
     RDKit          3D

 27 29  0  0  1  0  0  0  0  0999 V2000
    6.5501  -19.1289   20.5994 N   0  0  0  0  0  0  0  0  0  0  0  0
    5.8694  -18.6240   19.4372 C   0  0  0  0  0  0  0  0  0  0  0  0
    6.7619  -18.9472   18.2462 C   0  0  0  0  0  0  0  0  0  0  0  0
    7.9323  -19.7181   18.8538 C   0  0  0  0  0  0  0  0  0  0  0  0
    7.9578  -19.1464   20.2541 C   0  0  1  0  0  0  0  0  0  0  0  0
    8.4371  -17.7436   20.2183 C   0  0  0  0  0  0  0  0  0  0  0  0
    9.5904  -17.4597   19.8203 O   0  0  0  0  0  0  0  0  0  0  0  0
    7.0140  -14.2949   20.9971 C   0  0  0  0  0  0  0  0  0  0  0  0
    8.1276  -15.3315   20.8399 C   0  0  2  0  0  0  0  0  0  0  0  0
    7.5964  -16.6481   20.6397 N   0  0  0  0  0  0  0  0  0  0  0  0
    9.0663  -15.2710   21.9929 C   0  0  0  0  0  0  0  0  0  0  0  0
   10.0368  -14.4817   21.9212 O   0  0  0  0  0  0  0  0  0  0  0  0
    8.8985  -16.0678   23.1541 N   0  0  0  0  0  0  0  0  0  0  0  0
    9.7565  -16.0891   24.3008 C   0  0  1  0  0  0  0  0  0  0  0  0
    9.5918  -14.9032   25.2416 C   0  0  0  0  0  0  0  0  0  0  0  0
    8.1628  -14.6882   25.5403 C   0  0  0  0  0  0  0  0  0  0  0  0
    7.1034  -15.5364   25.3931 C   0  0  0  0  0  0  0  0  0  0  0  0
    5.9632  -14.9106   25.8078 N   0  0  0  0  0  0  0  0  0  0  0  0
    6.2429  -13.6709   26.2255 C   0  0  0  0  0  0  0  0  0  0  0  0
    5.4446  -12.6515   26.7350 C   0  0  0  0  0  0  0  0  0  0  0  0
    6.0067  -11.4605   27.0922 C   0  0  0  0  0  0  0  0  0  0  0  0
    7.3567  -11.2932   26.9400 C   0  0  0  0  0  0  0  0  0  0  0  0
    8.1456  -12.3022   26.4358 C   0  0  0  0  0  0  0  0  0  0  0  0
    7.6086  -13.5137   26.0667 C   0  0  0  0  0  0  0  0  0  0  0  0
    9.8041  -17.3513   25.0362 C   0  0  0  0  0  0  0  0  0  0  0  0
    8.9337  -18.3847   24.6534 O   0  0  0  0  0  0  0  0  0  0  0  0
   10.5732  -17.5879   25.9974 O   0  0  0  0  0  0  0  0  0  0  0  0
  1  2  1  0
  3  2  1  0
  4  5  1  0
  4  3  1  0
  5  6  1  6
  5  1  1  0
  6  7  2  0
  9  8  1  1
  9 11  1  0
 10  9  1  0
 10  6  1  0
 11 13  1  0
 11 12  2  0
 13 14  1  0
 14 25  1  0
 14 15  1  1
 16 15  1  0
 16 17  2  0
 18 17  1  0
 19 18  1  0
 20 19  2  0
 21 20  1  0
 22 21  2  0
 22 23  1  0
 23 24  2  0
 24 19  1  0
 24 16  1  0
 25 27  2  0
 25 26  1  0
M  END
$$$$
