HIQ.pdb
     RDKit          3D

 28 28  0  0  1  0  0  0  0  0999 V2000
    9.5886  -18.4229   16.3957 N   0  0  0  0  0  0  0  0  0  0  0  0
    9.0020  -18.5888   17.7138 C   0  0  1  0  0  0  0  0  0  0  0  0
    9.4597  -19.9135   18.3318 C   0  0  0  0  0  0  0  0  0  0  0  0
    8.7760  -20.9892   17.5985 C   0  0  0  0  0  0  0  0  0  0  0  0
    9.3013  -21.8364   16.6587 C   0  0  0  0  0  0  0  0  0  0  0  0
    8.3469  -22.6768   16.2289 N   0  0  0  0  0  0  0  0  0  0  0  0
    7.2035  -22.3758   16.8886 C   0  0  0  0  0  0  0  0  0  0  0  0
    7.4855  -21.3357   17.7267 N   0  0  0  0  0  0  0  0  0  0  0  0
    9.4689  -17.4776   18.5737 C   0  0  0  0  0  0  0  0  0  0  0  0
   10.6932  -17.1227   18.5885 O   0  0  0  0  0  0  0  0  0  0  0  0
    7.3863  -12.2252   21.1874 C   0  0  0  0  0  0  0  0  0  0  0  0
    8.4064  -13.3206   21.1072 C   0  0  0  0  0  0  0  0  0  0  0  0
    7.9812  -14.5553   20.3725 C   0  0  2  0  0  0  0  0  0  0  0  0
    6.6590  -15.0593   20.9168 C   0  0  0  0  0  0  0  0  0  0  0  0
    8.9989  -15.6225   20.2436 C   0  0  2  0  0  0  0  0  0  0  0  0
    8.6051  -16.7414   19.4271 N   0  0  0  0  0  0  0  0  0  0  0  0
    9.4839  -16.1195   21.5699 C   0  0  0  0  0  0  0  0  0  0  0  0
    8.8907  -17.0804   22.1071 O   0  0  0  0  0  0  0  0  0  0  0  0
   15.5287  -16.8770   22.3878 N   0  0  0  0  0  0  0  0  0  0  0  0
   15.1686  -16.5121   23.7053 C   0  0  0  0  0  0  0  0  0  0  0  0
   16.0709  -16.2336   24.5175 O   0  0  0  0  0  0  0  0  0  0  0  0
   13.7598  -16.4610   24.1163 C   0  0  0  0  0  0  0  0  0  0  0  0
   12.8249  -15.8189   23.1621 C   0  0  0  0  0  0  0  0  0  0  0  0
   11.3993  -16.2457   23.2230 C   0  0  2  0  0  0  0  0  0  0  0  0
   10.5890  -15.5359   22.2299 N   0  0  0  0  0  0  0  0  0  0  0  0
   10.8358  -15.9925   24.5724 C   0  0  0  0  0  0  0  0  0  0  0  0
   11.0091  -16.8291   25.6462 O   0  0  0  0  0  0  0  0  0  0  0  0
   10.1537  -14.9433   24.7446 O   0  0  0  0  0  0  0  0  0  0  0  0
  2  1  1  6
  3  2  1  0
  4  3  1  0
  4  8  1  0
  5  4  2  0
  6  5  1  0
  6  7  1  0
  7  8  2  0
  9  2  1  0
 10  9  2  0
 12 11  1  0
 13 15  1  0
 13 12  1  0
 13 14  1  1
 15 16  1  1
 16  9  1  0
 17 18  2  0
 17 15  1  0
 20 19  1  0
 21 20  2  0
 22 20  1  0
 24 23  1  1
 23 22  1  0
 24 25  1  0
 25 17  1  0
 26 27  1  0
 26 24  1  0
 28 26  2  0
M  END
$$$$
