HIQ.pdb
     RDKit          3D

 28 28  0  0  1  0  0  0  0  0999 V2000
    9.0524  -15.2902   20.2430 N   0  0  0  0  0  0  0  0  0  0  0  0
    8.0162  -15.6082   21.2096 C   0  0  1  0  0  0  0  0  0  0  0  0
    7.7432  -17.1154   21.2134 C   0  0  0  0  0  0  0  0  0  0  0  0
    7.1619  -17.4506   19.9050 C   0  0  0  0  0  0  0  0  0  0  0  0
    6.9985  -16.6315   18.8190 C   0  0  0  0  0  0  0  0  0  0  0  0
    6.4280  -17.3213   17.8187 N   0  0  0  0  0  0  0  0  0  0  0  0
    6.2212  -18.5864   18.2544 C   0  0  0  0  0  0  0  0  0  0  0  0
    6.6784  -18.6483   19.5393 N   0  0  0  0  0  0  0  0  0  0  0  0
    8.4948  -15.2093   22.5526 C   0  0  0  0  0  0  0  0  0  0  0  0
    9.7198  -15.3351   22.8821 O   0  0  0  0  0  0  0  0  0  0  0  0
    5.7135  -11.3492   25.5857 C   0  0  0  0  0  0  0  0  0  0  0  0
    6.7934  -12.1707   24.9485 C   0  0  0  0  0  0  0  0  0  0  0  0
    7.1200  -13.4628   25.6333 C   0  0  2  0  0  0  0  0  0  0  0  0
    7.5570  -13.2025   27.0615 C   0  0  0  0  0  0  0  0  0  0  0  0
    8.0305  -14.3761   24.9065 C   0  0  2  0  0  0  0  0  0  0  0  0
    7.6421  -14.6686   23.5512 N   0  0  0  0  0  0  0  0  0  0  0  0
    8.2710  -15.6567   25.6437 C   0  0  0  0  0  0  0  0  0  0  0  0
    7.2931  -16.3848   25.9219 O   0  0  0  0  0  0  0  0  0  0  0  0
   11.4107  -20.2717   24.4849 N   0  0  0  0  0  0  0  0  0  0  0  0
   11.6603  -20.3970   25.8708 C   0  0  0  0  0  0  0  0  0  0  0  0
   12.0066  -21.5064   26.3190 O   0  0  0  0  0  0  0  0  0  0  0  0
   11.5155  -19.2462   26.7713 C   0  0  0  0  0  0  0  0  0  0  0  0
   11.0761  -17.9778   26.1430 C   0  0  0  0  0  0  0  0  0  0  0  0
    9.8435  -17.3451   26.6896 C   0  0  2  0  0  0  0  0  0  0  0  0
    9.5669  -16.0650   26.0327 N   0  0  0  0  0  0  0  0  0  0  0  0
    9.9777  -17.1166   28.1499 C   0  0  0  0  0  0  0  0  0  0  0  0
   10.3348  -15.9157   28.7094 O   0  0  0  0  0  0  0  0  0  0  0  0
    9.7504  -18.0864   28.9267 O   0  0  0  0  0  0  0  0  0  0  0  0
  2  1  1  6
  3  2  1  0
  4  3  1  0
  4  8  1  0
  5  4  2  0
  6  5  1  0
  6  7  1  0
  7  8  2  0
  9  2  1  0
 10  9  2  0
 12 11  1  0
 13 15  1  0
 13 12  1  0
 13 14  1  1
 15 16  1  6
 16  9  1  0
 17 18  2  0
 17 15  1  0
 20 19  1  0
 21 20  2  0
 22 20  1  0
 24 23  1  6
 23 22  1  0
 24 25  1  0
 25 17  1  0
 26 27  1  0
 26 24  1  0
 28 26  2  0
M  END
$$$$
