HIQ.pdb
     RDKit          3D

 28 28  0  0  1  0  0  0  0  0999 V2000
    9.3421  -12.6188   20.0469 N   0  0  0  0  0  0  0  0  0  0  0  0
    8.4580  -13.6128   20.6295 C   0  0  1  0  0  0  0  0  0  0  0  0
    8.5622  -14.9301   19.8548 C   0  0  0  0  0  0  0  0  0  0  0  0
    8.0282  -14.6802   18.5077 C   0  0  0  0  0  0  0  0  0  0  0  0
    7.6367  -13.4856   17.9629 C   0  0  0  0  0  0  0  0  0  0  0  0
    7.2081  -13.6846   16.7065 N   0  0  0  0  0  0  0  0  0  0  0  0
    7.3210  -15.0064   16.4357 C   0  0  0  0  0  0  0  0  0  0  0  0
    7.8270  -15.6035   17.5543 N   0  0  0  0  0  0  0  0  0  0  0  0
    8.8824  -13.8500   22.0280 C   0  0  0  0  0  0  0  0  0  0  0  0
   10.1132  -13.9840   22.3316 O   0  0  0  0  0  0  0  0  0  0  0  0
    5.5410  -11.8692   25.9918 C   0  0  0  0  0  0  0  0  0  0  0  0
    6.7498  -12.2412   25.1872 C   0  0  0  0  0  0  0  0  0  0  0  0
    7.3240  -13.5977   25.4617 C   0  0  2  0  0  0  0  0  0  0  0  0
    7.7884  -13.6880   26.9022 C   0  0  0  0  0  0  0  0  0  0  0  0
    8.3332  -14.0883   24.4963 C   0  0  2  0  0  0  0  0  0  0  0  0
    7.9685  -13.9436   23.1108 N   0  0  0  0  0  0  0  0  0  0  0  0
    8.7413  -15.5045   24.7590 C   0  0  0  0  0  0  0  0  0  0  0  0
    7.8578  -16.3885   24.8006 O   0  0  0  0  0  0  0  0  0  0  0  0
   11.0799  -14.2604   29.5863 N   0  0  0  0  0  0  0  0  0  0  0  0
   10.9258  -15.6532   29.7735 C   0  0  0  0  0  0  0  0  0  0  0  0
   11.2258  -16.1459   30.8774 O   0  0  0  0  0  0  0  0  0  0  0  0
   10.4232  -16.5095   28.6916 C   0  0  0  0  0  0  0  0  0  0  0  0
   10.1545  -15.8366   27.3987 C   0  0  0  0  0  0  0  0  0  0  0  0
   10.5675  -16.5585   26.1632 C   0  0  2  0  0  0  0  0  0  0  0  0
   10.0916  -15.8697   24.9608 N   0  0  0  0  0  0  0  0  0  0  0  0
   10.0353  -17.9439   26.1655 C   0  0  0  0  0  0  0  0  0  0  0  0
   10.8114  -19.0642   26.3253 O   0  0  0  0  0  0  0  0  0  0  0  0
    8.7919  -18.1034   26.0100 O   0  0  0  0  0  0  0  0  0  0  0  0
  2  1  1  6
  3  2  1  0
  4  3  1  0
  4  8  1  0
  5  4  2  0
  6  5  1  0
  6  7  1  0
  7  8  2  0
  9  2  1  0
 10  9  2  0
 12 11  1  0
 13 15  1  0
 13 12  1  0
 13 14  1  1
 15 16  1  6
 16  9  1  0
 17 18  2  0
 17 15  1  0
 20 19  1  0
 21 20  2  0
 22 20  1  0
 24 23  1  1
 23 22  1  0
 24 25  1  0
 25 17  1  0
 26 27  1  0
 26 24  1  0
 28 26  2  0
M  END
$$$$
