HIQ.pdb
     RDKit          3D

 28 28  0  0  1  0  0  0  0  0999 V2000
    9.3816  -15.7287   13.5766 N   0  0  0  0  0  0  0  0  0  0  0  0
    9.3197  -16.3909   14.8676 C   0  0  1  0  0  0  0  0  0  0  0  0
   10.1250  -17.6934   14.8314 C   0  0  0  0  0  0  0  0  0  0  0  0
    9.7770  -18.3796   13.5783 C   0  0  0  0  0  0  0  0  0  0  0  0
   10.0663  -17.9936   12.2959 C   0  0  0  0  0  0  0  0  0  0  0  0
    9.5718  -18.8958   11.4336 N   0  0  0  0  0  0  0  0  0  0  0  0
    8.9623  -19.8661   12.1549 C   0  0  0  0  0  0  0  0  0  0  0  0
    9.0981  -19.5327   13.4718 N   0  0  0  0  0  0  0  0  0  0  0  0
    9.9173  -15.4916   15.8807 C   0  0  0  0  0  0  0  0  0  0  0  0
   11.0564  -14.9506   15.6945 O   0  0  0  0  0  0  0  0  0  0  0  0
    6.5552  -12.7908   19.5242 C   0  0  0  0  0  0  0  0  0  0  0  0
    7.6635  -13.0808   18.5575 C   0  0  0  0  0  0  0  0  0  0  0  0
    8.8410  -13.8189   19.1176 C   0  0  2  0  0  0  0  0  0  0  0  0
    9.4774  -13.0176   20.2363 C   0  0  0  0  0  0  0  0  0  0  0  0
    9.8255  -14.3225   18.1335 C   0  0  2  0  0  0  0  0  0  0  0  0
    9.2785  -15.1726   17.1081 N   0  0  0  0  0  0  0  0  0  0  0  0
   10.9887  -15.0074   18.7809 C   0  0  0  0  0  0  0  0  0  0  0  0
   10.9200  -16.2372   18.9969 O   0  0  0  0  0  0  0  0  0  0  0  0
   16.5974  -14.2557   17.0077 N   0  0  0  0  0  0  0  0  0  0  0  0
   16.9322  -14.6716   18.3167 C   0  0  0  0  0  0  0  0  0  0  0  0
   18.0919  -15.0664   18.5415 O   0  0  0  0  0  0  0  0  0  0  0  0
   15.9368  -14.6425   19.3960 C   0  0  0  0  0  0  0  0  0  0  0  0
   14.5886  -14.1502   19.0266 C   0  0  0  0  0  0  0  0  0  0  0  0
   13.4260  -14.9687   19.4704 C   0  0  2  0  0  0  0  0  0  0  0  0
   12.1579  -14.3066   19.1538 N   0  0  0  0  0  0  0  0  0  0  0  0
   13.4880  -15.2136   20.9329 C   0  0  0  0  0  0  0  0  0  0  0  0
   14.3364  -16.1149   21.5251 O   0  0  0  0  0  0  0  0  0  0  0  0
   12.7122  -14.5532   21.6797 O   0  0  0  0  0  0  0  0  0  0  0  0
  2  1  1  6
  3  2  1  0
  4  3  1  0
  4  8  1  0
  5  4  2  0
  6  5  1  0
  6  7  1  0
  7  8  2  0
  9  2  1  0
 10  9  2  0
 12 11  1  0
 13 15  1  0
 13 12  1  0
 13 14  1  1
 15 16  1  6
 16  9  1  0
 17 18  2  0
 17 15  1  0
 20 19  1  0
 21 20  2  0
 22 20  1  0
 24 23  1  1
 23 22  1  0
 24 25  1  0
 25 17  1  0
 26 27  1  0
 26 24  1  0
 28 26  2  0
M  END
$$$$
