HIQ.pdb
     RDKit          3D

 28 28  0  0  1  0  0  0  0  0999 V2000
    9.7428  -17.4676   15.5938 N   0  0  0  0  0  0  0  0  0  0  0  0
    8.9645  -17.6744   16.8023 C   0  0  1  0  0  0  0  0  0  0  0  0
    9.1081  -19.1224   17.2808 C   0  0  0  0  0  0  0  0  0  0  0  0
    8.3799  -19.9665   16.3220 C   0  0  0  0  0  0  0  0  0  0  0  0
    7.0248  -20.1201   16.1917 C   0  0  0  0  0  0  0  0  0  0  0  0
    6.7647  -20.9816   15.1957 N   0  0  0  0  0  0  0  0  0  0  0  0
    7.9491  -21.3870   14.6800 C   0  0  0  0  0  0  0  0  0  0  0  0
    8.9318  -20.7530   15.3844 N   0  0  0  0  0  0  0  0  0  0  0  0
    9.4891  -16.7731   17.8532 C   0  0  0  0  0  0  0  0  0  0  0  0
   10.7372  -16.5356   17.9577 O   0  0  0  0  0  0  0  0  0  0  0  0
    7.6739  -11.8613   21.2306 C   0  0  0  0  0  0  0  0  0  0  0  0
    8.6453  -12.9694   20.9559 C   0  0  0  0  0  0  0  0  0  0  0  0
    8.1689  -14.0372   20.0190 C   0  0  2  0  0  0  0  0  0  0  0  0
    6.7797  -14.4986   20.4138 C   0  0  0  0  0  0  0  0  0  0  0  0
    9.1040  -15.1586   19.7757 C   0  0  2  0  0  0  0  0  0  0  0  0
    8.6577  -16.1208   18.8018 N   0  0  0  0  0  0  0  0  0  0  0  0
    9.4932  -15.8679   21.0353 C   0  0  0  0  0  0  0  0  0  0  0  0
    8.7695  -16.7992   21.4508 O   0  0  0  0  0  0  0  0  0  0  0  0
   15.0790  -16.4604   24.2441 N   0  0  0  0  0  0  0  0  0  0  0  0
   14.8665  -16.1534   22.8806 C   0  0  0  0  0  0  0  0  0  0  0  0
   15.8328  -16.2089   22.0966 O   0  0  0  0  0  0  0  0  0  0  0  0
   13.5351  -15.7745   22.3905 C   0  0  0  0  0  0  0  0  0  0  0  0
   12.4467  -15.7706   23.3965 C   0  0  0  0  0  0  0  0  0  0  0  0
   11.1104  -16.2511   22.9472 C   0  0  2  0  0  0  0  0  0  0  0  0
   10.6509  -15.5164   21.7658 N   0  0  0  0  0  0  0  0  0  0  0  0
   10.1080  -16.0943   24.0303 C   0  0  0  0  0  0  0  0  0  0  0  0
    9.9946  -16.9455   25.1006 O   0  0  0  0  0  0  0  0  0  0  0  0
    9.3087  -15.1184   23.9639 O   0  0  0  0  0  0  0  0  0  0  0  0
  2  1  1  6
  3  2  1  0
  4  3  1  0
  4  8  1  0
  5  4  2  0
  6  5  1  0
  6  7  1  0
  7  8  2  0
  9  2  1  0
 10  9  2  0
 12 11  1  0
 13 15  1  0
 13 12  1  0
 13 14  1  1
 15 16  1  6
 16  9  1  0
 17 18  2  0
 17 15  1  0
 20 19  1  0
 21 20  2  0
 22 20  1  0
 24 23  1  1
 23 22  1  0
 24 25  1  0
 25 17  1  0
 26 27  1  0
 26 24  1  0
 28 26  2  0
M  END
$$$$
