HIQ.pdb
     RDKit          3D

 28 28  0  0  1  0  0  0  0  0999 V2000
    9.4442  -13.1485   20.5919 N   0  0  0  0  0  0  0  0  0  0  0  0
    8.3010  -13.8165   21.1885 C   0  0  1  0  0  0  0  0  0  0  0  0
    7.9970  -15.1153   20.4355 C   0  0  0  0  0  0  0  0  0  0  0  0
    7.6507  -14.7418   19.0561 C   0  0  0  0  0  0  0  0  0  0  0  0
    7.1974  -13.5330   18.5972 C   0  0  0  0  0  0  0  0  0  0  0  0
    6.9982  -13.6026   17.2715 N   0  0  0  0  0  0  0  0  0  0  0  0
    7.3215  -14.8546   16.8701 C   0  0  0  0  0  0  0  0  0  0  0  0
    7.7207  -15.5416   17.9802 N   0  0  0  0  0  0  0  0  0  0  0  0
    8.6367  -14.1490   22.5916 C   0  0  0  0  0  0  0  0  0  0  0  0
    9.8086  -14.5295   22.9185 O   0  0  0  0  0  0  0  0  0  0  0  0
    5.7036  -11.4168   26.4615 C   0  0  0  0  0  0  0  0  0  0  0  0
    6.8237  -12.0459   25.6892 C   0  0  0  0  0  0  0  0  0  0  0  0
    7.0716  -13.4976   25.9651 C   0  0  2  0  0  0  0  0  0  0  0  0
    7.4069  -13.7024   27.4294 C   0  0  0  0  0  0  0  0  0  0  0  0
    8.0141  -14.1849   25.0537 C   0  0  2  0  0  0  0  0  0  0  0  0
    7.6974  -14.0699   23.6537 N   0  0  0  0  0  0  0  0  0  0  0  0
    8.2064  -15.6275   25.4045 C   0  0  0  0  0  0  0  0  0  0  0  0
    7.2143  -16.3886   25.3904 O   0  0  0  0  0  0  0  0  0  0  0  0
   13.2523  -19.2161   24.2320 N   0  0  0  0  0  0  0  0  0  0  0  0
   12.6254  -19.9263   25.2815 C   0  0  0  0  0  0  0  0  0  0  0  0
   13.1517  -20.9785   25.6906 O   0  0  0  0  0  0  0  0  0  0  0  0
   11.3771  -19.4396   25.8823 C   0  0  0  0  0  0  0  0  0  0  0  0
   10.9695  -18.0630   25.5143 C   0  0  0  0  0  0  0  0  0  0  0  0
    9.6935  -17.5589   26.0940 C   0  0  2  0  0  0  0  0  0  0  0  0
    9.4724  -16.1520   25.7500 N   0  0  0  0  0  0  0  0  0  0  0  0
    9.7012  -17.6966   27.5717 C   0  0  0  0  0  0  0  0  0  0  0  0
    9.4197  -18.8641   28.2355 O   0  0  0  0  0  0  0  0  0  0  0  0
    9.9831  -16.6771   28.2623 O   0  0  0  0  0  0  0  0  0  0  0  0
  2  1  1  6
  3  2  1  0
  4  3  1  0
  4  8  1  0
  5  4  2  0
  6  5  1  0
  6  7  1  0
  7  8  2  0
  9  2  1  0
 10  9  2  0
 12 11  1  0
 13 15  1  0
 13 12  1  0
 13 14  1  1
 15 16  1  6
 16  9  1  0
 17 18  2  0
 17 15  1  0
 20 19  1  0
 21 20  2  0
 22 20  1  0
 24 23  1  1
 23 22  1  0
 24 25  1  0
 25 17  1  0
 26 27  1  0
 26 24  1  0
 28 26  2  0
M  END
$$$$
