HIQ.pdb
     RDKit          3D

 28 28  0  0  1  0  0  0  0  0999 V2000
    9.8181  -13.5123   20.5917 N   0  0  0  0  0  0  0  0  0  0  0  0
    8.5686  -13.9509   21.1879 C   0  0  1  0  0  0  0  0  0  0  0  0
    8.1246  -15.2782   20.5654 C   0  0  0  0  0  0  0  0  0  0  0  0
    7.7609  -14.9979   19.1685 C   0  0  0  0  0  0  0  0  0  0  0  0
    7.8270  -13.8025   18.5025 C   0  0  0  0  0  0  0  0  0  0  0  0
    7.4035  -13.9685   17.2396 N   0  0  0  0  0  0  0  0  0  0  0  0
    7.0629  -15.2699   17.0857 C   0  0  0  0  0  0  0  0  0  0  0  0
    7.2889  -15.8882   18.2816 N   0  0  0  0  0  0  0  0  0  0  0  0
    8.7920  -14.1575   22.6368 C   0  0  0  0  0  0  0  0  0  0  0  0
    9.9266  -14.5284   23.0844 O   0  0  0  0  0  0  0  0  0  0  0  0
    5.4926  -11.3534   26.1720 C   0  0  0  0  0  0  0  0  0  0  0  0
    6.6558  -11.9902   25.4732 C   0  0  0  0  0  0  0  0  0  0  0  0
    6.9587  -13.4039   25.8666 C   0  0  2  0  0  0  0  0  0  0  0  0
    7.2613  -13.4813   27.3502 C   0  0  0  0  0  0  0  0  0  0  0  0
    7.9554  -14.1150   25.0345 C   0  0  2  0  0  0  0  0  0  0  0  0
    7.7800  -13.9618   23.6135 N   0  0  0  0  0  0  0  0  0  0  0  0
    8.0534  -15.5705   25.3706 C   0  0  0  0  0  0  0  0  0  0  0  0
    7.0872  -16.3176   25.1018 O   0  0  0  0  0  0  0  0  0  0  0  0
   12.9287  -19.2285   24.5665 N   0  0  0  0  0  0  0  0  0  0  0  0
   12.0670  -18.4553   23.7551 C   0  0  0  0  0  0  0  0  0  0  0  0
   12.3772  -18.2645   22.5640 O   0  0  0  0  0  0  0  0  0  0  0  0
   10.8285  -17.8840   24.2992 C   0  0  0  0  0  0  0  0  0  0  0  0
   10.5789  -18.1216   25.7407 C   0  0  0  0  0  0  0  0  0  0  0  0
    9.3319  -17.5435   26.3143 C   0  0  2  0  0  0  0  0  0  0  0  0
    9.2023  -16.1227   25.9810 N   0  0  0  0  0  0  0  0  0  0  0  0
    9.3178  -17.6938   27.7907 C   0  0  0  0  0  0  0  0  0  0  0  0
    9.2589  -18.9017   28.4389 O   0  0  0  0  0  0  0  0  0  0  0  0
    9.3616  -16.6463   28.4954 O   0  0  0  0  0  0  0  0  0  0  0  0
  2  1  1  6
  3  2  1  0
  4  3  1  0
  4  8  1  0
  5  4  2  0
  6  5  1  0
  6  7  1  0
  7  8  2  0
  9  2  1  0
 10  9  2  0
 12 11  1  0
 13 15  1  0
 13 12  1  0
 13 14  1  1
 15 16  1  6
 16  9  1  0
 17 18  2  0
 17 15  1  0
 20 19  1  0
 21 20  2  0
 22 20  1  0
 24 23  1  1
 23 22  1  0
 24 25  1  0
 25 17  1  0
 26 27  1  0
 26 24  1  0
 28 26  2  0
M  END
$$$$
