HIQ.pdb
     RDKit          3D

 28 28  0  0  1  0  0  0  0  0999 V2000
    9.8938  -18.2730   16.8869 N   0  0  0  0  0  0  0  0  0  0  0  0
    8.9523  -18.3679   17.9886 C   0  0  1  0  0  0  0  0  0  0  0  0
    8.9199  -19.7993   18.5329 C   0  0  0  0  0  0  0  0  0  0  0  0
    8.2955  -20.6385   17.4995 C   0  0  0  0  0  0  0  0  0  0  0  0
    7.0165  -21.1284   17.4689 C   0  0  0  0  0  0  0  0  0  0  0  0
    6.8397  -21.8517   16.3519 N   0  0  0  0  0  0  0  0  0  0  0  0
    8.0023  -21.8315   15.6582 C   0  0  0  0  0  0  0  0  0  0  0  0
    8.8865  -21.0810   16.3783 N   0  0  0  0  0  0  0  0  0  0  0  0
    9.4054  -17.4602   19.0670 C   0  0  0  0  0  0  0  0  0  0  0  0
   10.6139  -17.4673   19.4726 O   0  0  0  0  0  0  0  0  0  0  0  0
    6.9532  -12.4811   19.7743 C   0  0  0  0  0  0  0  0  0  0  0  0
    7.9138  -13.6273   19.6715 C   0  0  0  0  0  0  0  0  0  0  0  0
    8.1029  -14.4339   20.9199 C   0  0  2  0  0  0  0  0  0  0  0  0
    8.5465  -13.5381   22.0599 C   0  0  0  0  0  0  0  0  0  0  0  0
    8.9271  -15.6566   20.7900 C   0  0  2  0  0  0  0  0  0  0  0  0
    8.5449  -16.5348   19.7148 N   0  0  0  0  0  0  0  0  0  0  0  0
    9.0071  -16.4358   22.0657 C   0  0  0  0  0  0  0  0  0  0  0  0
    8.2420  -17.4121   22.2246 O   0  0  0  0  0  0  0  0  0  0  0  0
   13.7351  -18.7108   20.9739 N   0  0  0  0  0  0  0  0  0  0  0  0
   13.7873  -19.0778   22.3382 C   0  0  0  0  0  0  0  0  0  0  0  0
   14.7286  -19.7932   22.7302 O   0  0  0  0  0  0  0  0  0  0  0  0
   12.7549  -18.6290   23.2810 C   0  0  0  0  0  0  0  0  0  0  0  0
   11.7787  -17.6436   22.7587 C   0  0  0  0  0  0  0  0  0  0  0  0
   10.8038  -17.0779   23.7322 C   0  0  2  0  0  0  0  0  0  0  0  0
    9.9193  -16.1010   23.0920 N   0  0  0  0  0  0  0  0  0  0  0  0
   11.5124  -16.4192   24.8577 C   0  0  0  0  0  0  0  0  0  0  0  0
   11.5120  -16.8907   26.1463 O   0  0  0  0  0  0  0  0  0  0  0  0
   12.1551  -15.3589   24.6164 O   0  0  0  0  0  0  0  0  0  0  0  0
  2  1  1  6
  3  2  1  0
  4  3  1  0
  4  8  1  0
  5  4  2  0
  6  5  1  0
  6  7  1  0
  7  8  2  0
  9  2  1  0
 10  9  2  0
 12 11  1  0
 13 15  1  0
 13 12  1  0
 13 14  1  1
 15 16  1  6
 16  9  1  0
 17 18  2  0
 17 15  1  0
 20 19  1  0
 21 20  2  0
 22 20  1  0
 24 23  1  6
 23 22  1  0
 24 25  1  0
 25 17  1  0
 26 27  1  0
 26 24  1  0
 28 26  2  0
M  END
$$$$
