HIQ.pdb
     RDKit          3D

 28 28  0  0  1  0  0  0  0  0999 V2000
    9.9379  -13.3293   20.5585 N   0  0  0  0  0  0  0  0  0  0  0  0
    8.6436  -13.7475   21.0676 C   0  0  1  0  0  0  0  0  0  0  0  0
    8.1770  -15.0148   20.3448 C   0  0  0  0  0  0  0  0  0  0  0  0
    7.9481  -14.6487   18.9392 C   0  0  0  0  0  0  0  0  0  0  0  0
    8.2071  -13.4515   18.3256 C   0  0  0  0  0  0  0  0  0  0  0  0
    7.8547  -13.5246   17.0325 N   0  0  0  0  0  0  0  0  0  0  0  0
    7.3675  -14.7675   16.8065 C   0  0  0  0  0  0  0  0  0  0  0  0
    7.4323  -15.4453   17.9898 N   0  0  0  0  0  0  0  0  0  0  0  0
    8.7867  -14.0493   22.5100 C   0  0  0  0  0  0  0  0  0  0  0  0
    9.8714  -14.5252   22.9813 O   0  0  0  0  0  0  0  0  0  0  0  0
    5.6967  -11.0619   26.1289 C   0  0  0  0  0  0  0  0  0  0  0  0
    6.8129  -11.7866   25.4391 C   0  0  0  0  0  0  0  0  0  0  0  0
    6.8841  -13.2625   25.6875 C   0  0  2  0  0  0  0  0  0  0  0  0
    7.0039  -13.5382   27.1735 C   0  0  0  0  0  0  0  0  0  0  0  0
    7.8685  -14.0152   24.8777 C   0  0  2  0  0  0  0  0  0  0  0  0
    7.7479  -13.8351   23.4542 N   0  0  0  0  0  0  0  0  0  0  0  0
    7.8783  -15.4780   25.1961 C   0  0  0  0  0  0  0  0  0  0  0  0
    6.8688  -16.1619   24.9191 O   0  0  0  0  0  0  0  0  0  0  0  0
   11.3205  -19.8694   23.2683 N   0  0  0  0  0  0  0  0  0  0  0  0
   11.8767  -18.6756   23.7822 C   0  0  0  0  0  0  0  0  0  0  0  0
   13.0018  -18.3191   23.3840 O   0  0  0  0  0  0  0  0  0  0  0  0
   11.1484  -17.8663   24.7676 C   0  0  0  0  0  0  0  0  0  0  0  0
    9.7662  -18.3031   25.0767 C   0  0  0  0  0  0  0  0  0  0  0  0
    9.0329  -17.5346   26.1206 C   0  0  2  0  0  0  0  0  0  0  0  0
    8.9920  -16.1059   25.7986 N   0  0  0  0  0  0  0  0  0  0  0  0
    9.6763  -17.7100   27.4465 C   0  0  0  0  0  0  0  0  0  0  0  0
   10.2173  -16.6836   28.1791 O   0  0  0  0  0  0  0  0  0  0  0  0
    9.7311  -18.8752   27.9313 O   0  0  0  0  0  0  0  0  0  0  0  0
  2  1  1  6
  3  2  1  0
  4  3  1  0
  4  8  1  0
  5  4  2  0
  6  5  1  0
  6  7  1  0
  7  8  2  0
  9  2  1  0
 10  9  2  0
 12 11  1  0
 13 15  1  0
 13 12  1  0
 13 14  1  1
 15 16  1  6
 16  9  1  0
 17 18  2  0
 17 15  1  0
 20 19  1  0
 21 20  2  0
 22 20  1  0
 24 23  1  6
 23 22  1  0
 24 25  1  0
 25 17  1  0
 26 27  1  0
 26 24  1  0
 28 26  2  0
M  END
$$$$
