HIQ.pdb
     RDKit          3D

 28 28  0  0  1  0  0  0  0  0999 V2000
    8.5956  -15.7071   20.5230 N   0  0  0  0  0  0  0  0  0  0  0  0
    8.1049  -16.2340   21.7843 C   0  0  1  0  0  0  0  0  0  0  0  0
    8.5369  -17.6943   21.9495 C   0  0  0  0  0  0  0  0  0  0  0  0
    7.8306  -18.4710   20.9199 C   0  0  0  0  0  0  0  0  0  0  0  0
    6.5616  -18.2796   20.4403 C   0  0  0  0  0  0  0  0  0  0  0  0
    6.2915  -19.2037   19.5049 N   0  0  0  0  0  0  0  0  0  0  0  0
    7.3834  -19.9940   19.3772 C   0  0  0  0  0  0  0  0  0  0  0  0
    8.3203  -19.5291   20.2547 N   0  0  0  0  0  0  0  0  0  0  0  0
    8.6964  -15.4369   22.8828 C   0  0  0  0  0  0  0  0  0  0  0  0
    9.9390  -15.1527   22.8984 O   0  0  0  0  0  0  0  0  0  0  0  0
    5.3587  -11.9687   25.6123 C   0  0  0  0  0  0  0  0  0  0  0  0
    6.6376  -12.4331   24.9832 C   0  0  0  0  0  0  0  0  0  0  0  0
    7.4701  -13.3654   25.8095 C   0  0  2  0  0  0  0  0  0  0  0  0
    8.0611  -12.6283   26.9952 C   0  0  0  0  0  0  0  0  0  0  0  0
    8.4680  -14.1759   25.0756 C   0  0  2  0  0  0  0  0  0  0  0  0
    7.9387  -14.9412   23.9767 N   0  0  0  0  0  0  0  0  0  0  0  0
    9.2545  -15.0760   25.9768 C   0  0  0  0  0  0  0  0  0  0  0  0
    8.7767  -16.1906   26.2818 O   0  0  0  0  0  0  0  0  0  0  0  0
    9.4311  -18.5045   29.5185 N   0  0  0  0  0  0  0  0  0  0  0  0
   10.6553  -18.0432   30.0542 C   0  0  0  0  0  0  0  0  0  0  0  0
   11.1985  -18.7024   30.9608 O   0  0  0  0  0  0  0  0  0  0  0  0
   11.2805  -16.8110   29.5573 C   0  0  0  0  0  0  0  0  0  0  0  0
   10.5364  -16.0813   28.5035 C   0  0  0  0  0  0  0  0  0  0  0  0
   11.3263  -15.5754   27.3465 C   0  0  2  0  0  0  0  0  0  0  0  0
   10.5172  -14.7035   26.4910 N   0  0  0  0  0  0  0  0  0  0  0  0
   11.8407  -16.7043   26.5321 C   0  0  0  0  0  0  0  0  0  0  0  0
   11.2160  -17.9214   26.4255 O   0  0  0  0  0  0  0  0  0  0  0  0
   12.9204  -16.5366   25.8982 O   0  0  0  0  0  0  0  0  0  0  0  0
  2  1  1  6
  3  2  1  0
  4  3  1  0
  4  8  1  0
  5  4  2  0
  6  5  1  0
  6  7  1  0
  7  8  2  0
  9  2  1  0
 10  9  2  0
 12 11  1  0
 13 15  1  0
 13 12  1  0
 13 14  1  1
 15 16  1  6
 16  9  1  0
 17 18  2  0
 17 15  1  0
 20 19  1  0
 21 20  2  0
 22 20  1  0
 24 23  1  1
 23 22  1  0
 24 25  1  0
 25 17  1  0
 26 27  1  0
 26 24  1  0
 28 26  2  0
M  END
$$$$
