HIQ.pdb
     RDKit          3D

 28 28  0  0  1  0  0  0  0  0999 V2000
   10.1529  -13.9915   20.8132 N   0  0  0  0  0  0  0  0  0  0  0  0
    8.8059  -14.0005   21.3560 C   0  0  1  0  0  0  0  0  0  0  0  0
    7.9660  -15.0790   20.6650 C   0  0  0  0  0  0  0  0  0  0  0  0
    7.7779  -14.6503   19.2710 C   0  0  0  0  0  0  0  0  0  0  0  0
    8.3071  -13.5515   18.6470 C   0  0  0  0  0  0  0  0  0  0  0  0
    7.8925  -13.5174   17.3707 N   0  0  0  0  0  0  0  0  0  0  0  0
    7.0952  -14.5924   17.1662 C   0  0  0  0  0  0  0  0  0  0  0  0
    7.0357  -15.2781   18.3452 N   0  0  0  0  0  0  0  0  0  0  0  0
    8.8886  -14.3162   22.8002 C   0  0  0  0  0  0  0  0  0  0  0  0
    9.9536  -14.7942   23.3123 O   0  0  0  0  0  0  0  0  0  0  0  0
    5.9147  -11.1498   26.3133 C   0  0  0  0  0  0  0  0  0  0  0  0
    6.9660  -11.9684   25.6264 C   0  0  0  0  0  0  0  0  0  0  0  0
    6.9276  -13.4412   25.8994 C   0  0  2  0  0  0  0  0  0  0  0  0
    6.9855  -13.6987   27.3923 C   0  0  0  0  0  0  0  0  0  0  0  0
    7.8803  -14.2737   25.1308 C   0  0  2  0  0  0  0  0  0  0  0  0
    7.8101  -14.1139   23.7015 N   0  0  0  0  0  0  0  0  0  0  0  0
    7.7831  -15.7274   25.4753 C   0  0  0  0  0  0  0  0  0  0  0  0
    6.8418  -16.3982   24.9980 O   0  0  0  0  0  0  0  0  0  0  0  0
   12.6946  -19.0125   23.4982 N   0  0  0  0  0  0  0  0  0  0  0  0
   11.3059  -18.9205   23.7465 C   0  0  0  0  0  0  0  0  0  0  0  0
   10.5149  -19.3889   22.9061 O   0  0  0  0  0  0  0  0  0  0  0  0
   10.7979  -18.2854   24.9692 C   0  0  0  0  0  0  0  0  0  0  0  0
    9.3501  -18.4539   25.2384 C   0  0  0  0  0  0  0  0  0  0  0  0
    8.8142  -17.8154   26.4726 C   0  0  2  0  0  0  0  0  0  0  0  0
    8.7212  -16.3610   26.3214 N   0  0  0  0  0  0  0  0  0  0  0  0
    9.6805  -18.1228   27.6377 C   0  0  0  0  0  0  0  0  0  0  0  0
    9.8245  -19.3758   28.1780 O   0  0  0  0  0  0  0  0  0  0  0  0
   10.3248  -17.1735   28.1664 O   0  0  0  0  0  0  0  0  0  0  0  0
  2  1  1  6
  3  2  1  0
  4  3  1  0
  4  8  1  0
  5  4  2  0
  6  5  1  0
  6  7  1  0
  7  8  2  0
  9  2  1  0
 10  9  2  0
 12 11  1  0
 13 15  1  0
 13 12  1  0
 13 14  1  1
 15 16  1  6
 16  9  1  0
 17 18  2  0
 17 15  1  0
 20 19  1  0
 21 20  2  0
 22 20  1  0
 24 23  1  6
 23 22  1  0
 24 25  1  0
 25 17  1  0
 26 27  1  0
 26 24  1  0
 28 26  2  0
M  END
$$$$
