HIQ.pdb
     RDKit          3D

 28 28  0  0  1  0  0  0  0  0999 V2000
   10.3576  -15.3251   14.3339 N   0  0  0  0  0  0  0  0  0  0  0  0
    9.9210  -16.0657   15.5043 C   0  0  1  0  0  0  0  0  0  0  0  0
   10.6814  -17.3917   15.6032 C   0  0  0  0  0  0  0  0  0  0  0  0
   10.1742  -18.2595   14.5300 C   0  0  0  0  0  0  0  0  0  0  0  0
   10.7803  -18.5759   13.3427 C   0  0  0  0  0  0  0  0  0  0  0  0
    9.9867  -19.3990   12.6393 N   0  0  0  0  0  0  0  0  0  0  0  0
    8.8670  -19.6167   13.3687 C   0  0  0  0  0  0  0  0  0  0  0  0
    8.9991  -18.9084   14.5283 N   0  0  0  0  0  0  0  0  0  0  0  0
   10.2220  -15.2553   16.7063 C   0  0  0  0  0  0  0  0  0  0  0  0
   11.3741  -14.7396   16.8843 O   0  0  0  0  0  0  0  0  0  0  0  0
    6.1912  -12.4821   19.3860 C   0  0  0  0  0  0  0  0  0  0  0  0
    7.5527  -12.7991   18.8450 C   0  0  0  0  0  0  0  0  0  0  0  0
    8.3692  -13.7594   19.6552 C   0  0  2  0  0  0  0  0  0  0  0  0
    8.6983  -13.1563   21.0067 C   0  0  0  0  0  0  0  0  0  0  0  0
    9.5488  -14.3462   18.9803 C   0  0  2  0  0  0  0  0  0  0  0  0
    9.2691  -14.9986   17.7274 N   0  0  0  0  0  0  0  0  0  0  0  0
   10.3159  -15.2772   19.8668 C   0  0  0  0  0  0  0  0  0  0  0  0
   10.0461  -16.4978   19.8363 O   0  0  0  0  0  0  0  0  0  0  0  0
   15.9934  -14.3355   19.0265 N   0  0  0  0  0  0  0  0  0  0  0  0
   16.1485  -15.2285   20.1114 C   0  0  0  0  0  0  0  0  0  0  0  0
   17.2206  -15.8523   20.2251 O   0  0  0  0  0  0  0  0  0  0  0  0
   15.0705  -15.4230   21.0893 C   0  0  0  0  0  0  0  0  0  0  0  0
   13.7714  -14.7887   20.7627 C   0  0  0  0  0  0  0  0  0  0  0  0
   12.5434  -15.5870   21.0330 C   0  0  2  0  0  0  0  0  0  0  0  0
   11.3327  -14.8177   20.7343 N   0  0  0  0  0  0  0  0  0  0  0  0
   12.5017  -16.0158   22.4532 C   0  0  0  0  0  0  0  0  0  0  0  0
   13.2664  -17.0303   22.9716 O   0  0  0  0  0  0  0  0  0  0  0  0
   11.7137  -15.4114   23.2339 O   0  0  0  0  0  0  0  0  0  0  0  0
  2  1  1  6
  3  2  1  0
  4  3  1  0
  4  8  1  0
  5  4  2  0
  6  5  1  0
  6  7  1  0
  7  8  2  0
  9  2  1  0
 10  9  2  0
 12 11  1  0
 13 15  1  0
 13 12  1  0
 13 14  1  1
 15 16  1  6
 16  9  1  0
 17 18  2  0
 17 15  1  0
 20 19  1  0
 21 20  2  0
 22 20  1  0
 24 23  1  1
 23 22  1  0
 24 25  1  0
 25 17  1  0
 26 27  1  0
 26 24  1  0
 28 26  2  0
M  END
$$$$
