PKT.pdb
     RDKit          3D

 24 24  0  0  1  0  0  0  0  0999 V2000
    8.6373  -14.8226   19.4135 N   0  0  0  0  0  0  0  0  0  0  0  0
    8.4285  -14.2895   18.0803 C   0  0  0  0  0  0  0  0  0  0  0  0
    7.5341  -13.0981   18.2138 C   0  0  0  0  0  0  0  0  0  0  0  0
    7.2042  -13.0069   19.6669 C   0  0  0  0  0  0  0  0  0  0  0  0
    8.3419  -13.7437   20.3284 C   0  0  1  0  0  0  0  0  0  0  0  0
    7.8542  -14.2687   21.6205 C   0  0  0  0  0  0  0  0  0  0  0  0
    7.2911  -13.4956   22.4184 O   0  0  0  0  0  0  0  0  0  0  0  0
    8.0079  -15.6209   21.9769 N   0  0  0  0  0  0  0  0  0  0  0  0
    7.5108  -16.0695   23.2739 C   0  0  1  0  0  0  0  0  0  0  0  0
    7.5336  -17.5816   23.3106 C   0  0  0  0  0  0  0  0  0  0  0  0
    7.1075  -18.1075   24.6450 C   0  0  0  0  0  0  0  0  0  0  0  0
    7.1987  -19.6548   24.6101 C   0  0  0  0  0  0  0  0  0  0  0  0
    6.6458  -20.2271   25.8934 C   0  0  0  0  0  0  0  0  0  0  0  0
    6.8282  -21.6510   25.9014 N   0  0  0  0  0  0  0  0  0  0  0  0
    8.3344  -15.4053   24.2840 C   0  0  0  0  0  0  0  0  0  0  0  0
    9.5731  -15.3222   24.1285 O   0  0  0  0  0  0  0  0  0  0  0  0
    7.5877  -11.9460   25.9277 C   0  0  0  0  0  0  0  0  0  0  0  0
    7.6765  -13.0296   26.9625 C   0  0  1  0  0  0  0  0  0  0  0  0
    6.3879  -13.5501   27.1683 O   0  0  0  0  0  0  0  0  0  0  0  0
    8.5325  -14.2023   26.4871 C   0  0  2  0  0  0  0  0  0  0  0  0
    7.7646  -14.8456   25.4372 N   0  0  0  0  0  0  0  0  0  0  0  0
    8.9125  -15.0873   27.5797 C   0  0  0  0  0  0  0  0  0  0  0  0
    9.7195  -14.6748   28.6271 O   0  0  0  0  0  0  0  0  0  0  0  0
    8.5057  -16.2737   27.5950 O   0  0  0  0  0  0  0  0  0  0  0  0
  1  2  1  0
  2  3  1  0
  4  3  1  0
  5  1  1  0
  5  4  1  0
  5  6  1  1
  7  6  2  0
  8  6  1  0
  9  8  1  0
  9 10  1  6
 10 11  1  0
 11 12  1  0
 12 13  1  0
 13 14  1  0
 15 21  1  0
 15  9  1  0
 16 15  2  0
 18 20  1  0
 18 17  1  6
 19 18  1  0
 20 22  1  0
 20 21  1  6
 22 23  1  0
 24 22  2  0
M  END
$$$$
