PKT.pdb
     RDKit          3D

 24 24  0  0  1  0  0  0  0  0999 V2000
    8.5204  -15.0470   19.4658 N   0  0  0  0  0  0  0  0  0  0  0  0
    8.3238  -14.5786   18.1067 C   0  0  0  0  0  0  0  0  0  0  0  0
    7.6219  -13.2604   18.1888 C   0  0  0  0  0  0  0  0  0  0  0  0
    7.3843  -13.0241   19.6435 C   0  0  0  0  0  0  0  0  0  0  0  0
    8.4341  -13.8775   20.3102 C   0  0  1  0  0  0  0  0  0  0  0  0
    7.9417  -14.2361   21.6563 C   0  0  0  0  0  0  0  0  0  0  0  0
    7.5077  -13.3401   22.4048 O   0  0  0  0  0  0  0  0  0  0  0  0
    7.9490  -15.5647   22.1188 N   0  0  0  0  0  0  0  0  0  0  0  0
    7.3103  -15.8711   23.3950 C   0  0  1  0  0  0  0  0  0  0  0  0
    7.2362  -17.3731   23.5574 C   0  0  0  0  0  0  0  0  0  0  0  0
    6.4523  -18.0094   22.4531 C   0  0  0  0  0  0  0  0  0  0  0  0
    6.4099  -19.5386   22.7048 C   0  0  0  0  0  0  0  0  0  0  0  0
    5.5706  -20.2071   21.6423 C   0  0  0  0  0  0  0  0  0  0  0  0
    5.6113  -21.6305   21.8240 N   0  0  0  0  0  0  0  0  0  0  0  0
    8.0790  -15.1667   24.4210 C   0  0  0  0  0  0  0  0  0  0  0  0
    9.3231  -15.0767   24.3222 O   0  0  0  0  0  0  0  0  0  0  0  0
    6.8795  -11.7543   25.9911 C   0  0  0  0  0  0  0  0  0  0  0  0
    7.1731  -12.7768   27.0500 C   0  0  1  0  0  0  0  0  0  0  0  0
    5.9817  -13.4596   27.3467 O   0  0  0  0  0  0  0  0  0  0  0  0
    8.1553  -13.8390   26.5592 C   0  0  2  0  0  0  0  0  0  0  0  0
    7.4499  -14.5754   25.5267 N   0  0  0  0  0  0  0  0  0  0  0  0
    8.6622  -14.6666   27.6453 C   0  0  0  0  0  0  0  0  0  0  0  0
    9.4283  -14.1531   28.6787 O   0  0  0  0  0  0  0  0  0  0  0  0
    8.4085  -15.8947   27.6678 O   0  0  0  0  0  0  0  0  0  0  0  0
  1  2  1  0
  2  3  1  0
  4  3  1  0
  5  1  1  0
  5  4  1  0
  5  6  1  1
  7  6  2  0
  8  6  1  0
  9  8  1  0
  9 10  1  1
 10 11  1  0
 11 12  1  0
 12 13  1  0
 13 14  1  0
 15 21  1  0
 15  9  1  0
 16 15  2  0
 18 20  1  0
 18 17  1  6
 19 18  1  0
 20 22  1  0
 20 21  1  6
 22 23  1  0
 24 22  2  0
M  END
$$$$
