PKT.pdb
     RDKit          3D

 24 24  0  0  1  0  0  0  0  0999 V2000
    8.3804  -15.1226   19.4981 N   0  0  0  0  0  0  0  0  0  0  0  0
    8.1186  -14.5618   18.1857 C   0  0  0  0  0  0  0  0  0  0  0  0
    7.5231  -13.2056   18.3934 C   0  0  0  0  0  0  0  0  0  0  0  0
    7.4116  -13.0404   19.8729 C   0  0  0  0  0  0  0  0  0  0  0  0
    8.4426  -14.0022   20.4086 C   0  0  1  0  0  0  0  0  0  0  0  0
    8.0262  -14.4054   21.7677 C   0  0  0  0  0  0  0  0  0  0  0  0
    7.7151  -13.5277   22.5948 O   0  0  0  0  0  0  0  0  0  0  0  0
    7.9708  -15.7565   22.1559 N   0  0  0  0  0  0  0  0  0  0  0  0
    7.4416  -16.0905   23.4745 C   0  0  1  0  0  0  0  0  0  0  0  0
    7.1369  -17.5715   23.5190 C   0  0  0  0  0  0  0  0  0  0  0  0
    5.9461  -17.9152   22.6808 C   0  0  0  0  0  0  0  0  0  0  0  0
    5.7672  -19.4551   22.6975 C   0  0  0  0  0  0  0  0  0  0  0  0
    4.6074  -19.8433   21.8118 C   0  0  0  0  0  0  0  0  0  0  0  0
    4.5008  -21.2739   21.7606 N   0  0  0  0  0  0  0  0  0  0  0  0
    8.4304  -15.6244   24.4465 C   0  0  0  0  0  0  0  0  0  0  0  0
    9.6524  -15.7421   24.2046 O   0  0  0  0  0  0  0  0  0  0  0  0
    8.4883  -12.1931   26.0352 C   0  0  0  0  0  0  0  0  0  0  0  0
    8.4404  -13.2176   27.1312 C   0  0  1  0  0  0  0  0  0  0  0  0
    7.0956  -13.4301   27.4781 O   0  0  0  0  0  0  0  0  0  0  0  0
    8.9742  -14.5720   26.6684 C   0  0  2  0  0  0  0  0  0  0  0  0
    8.0408  -15.0350   25.6584 N   0  0  0  0  0  0  0  0  0  0  0  0
    9.1661  -15.4979   27.7764 C   0  0  0  0  0  0  0  0  0  0  0  0
    8.4560  -16.6817   27.8902 O   0  0  0  0  0  0  0  0  0  0  0  0
   10.0010  -15.2350   28.6748 O   0  0  0  0  0  0  0  0  0  0  0  0
  1  2  1  0
  2  3  1  0
  4  3  1  0
  5  1  1  0
  5  4  1  0
  5  6  1  1
  7  6  2  0
  8  6  1  0
  9  8  1  0
  9 10  1  6
 10 11  1  0
 11 12  1  0
 12 13  1  0
 13 14  1  0
 15 21  1  0
 15  9  1  0
 16 15  2  0
 18 20  1  0
 18 17  1  6
 19 18  1  0
 20 22  1  0
 20 21  1  6
 22 23  1  0
 24 22  2  0
M  END
$$$$
