PKT.pdb
     RDKit          3D

 24 24  0  0  1  0  0  0  0  0999 V2000
    8.6187  -15.1239   19.2736 N   0  0  0  0  0  0  0  0  0  0  0  0
    8.4384  -14.6328   17.9202 C   0  0  0  0  0  0  0  0  0  0  0  0
    7.6303  -13.3772   18.0076 C   0  0  0  0  0  0  0  0  0  0  0  0
    7.3178  -13.2033   19.4570 C   0  0  0  0  0  0  0  0  0  0  0  0
    8.4058  -13.9901   20.1440 C   0  0  1  0  0  0  0  0  0  0  0  0
    7.8915  -14.4260   21.4588 C   0  0  0  0  0  0  0  0  0  0  0  0
    7.3859  -13.5838   22.2245 O   0  0  0  0  0  0  0  0  0  0  0  0
    7.9566  -15.7691   21.8721 N   0  0  0  0  0  0  0  0  0  0  0  0
    7.3557  -16.1445   23.1482 C   0  0  1  0  0  0  0  0  0  0  0  0
    7.3761  -17.6517   23.2746 C   0  0  0  0  0  0  0  0  0  0  0  0
    6.3165  -18.2903   22.4332 C   0  0  0  0  0  0  0  0  0  0  0  0
    6.4181  -19.8276   22.6064 C   0  0  0  0  0  0  0  0  0  0  0  0
    5.8638  -20.2267   23.9531 C   0  0  0  0  0  0  0  0  0  0  0  0
    5.9285  -21.6537   24.0947 N   0  0  0  0  0  0  0  0  0  0  0  0
    8.0938  -15.4186   24.1817 C   0  0  0  0  0  0  0  0  0  0  0  0
    9.3120  -15.1764   24.0301 O   0  0  0  0  0  0  0  0  0  0  0  0
    7.6356  -12.2992   27.9441 C   0  0  0  0  0  0  0  0  0  0  0  0
    7.0596  -13.2755   26.9603 C   0  0  1  0  0  0  0  0  0  0  0  0
    6.5496  -12.5531   25.8686 O   0  0  0  0  0  0  0  0  0  0  0  0
    8.1287  -14.2042   26.3872 C   0  0  2  0  0  0  0  0  0  0  0  0
    7.4629  -14.9748   25.3534 N   0  0  0  0  0  0  0  0  0  0  0  0
    8.7693  -15.0108   27.4170 C   0  0  0  0  0  0  0  0  0  0  0  0
    9.7322  -14.5007   28.2720 O   0  0  0  0  0  0  0  0  0  0  0  0
    8.4536  -16.2169   27.5544 O   0  0  0  0  0  0  0  0  0  0  0  0
  1  2  1  0
  2  3  1  0
  4  3  1  0
  5  1  1  0
  5  4  1  0
  5  6  1  1
  7  6  2  0
  8  6  1  0
  9  8  1  0
  9 10  1  1
 10 11  1  0
 11 12  1  0
 12 13  1  0
 13 14  1  0
 15 21  1  0
 15  9  1  0
 16 15  2  0
 18 20  1  0
 18 17  1  1
 19 18  1  0
 20 22  1  0
 20 21  1  6
 22 23  1  0
 24 22  2  0
M  END
$$$$
