PKT.pdb
     RDKit          3D

 24 24  0  0  1  0  0  0  0  0999 V2000
    8.9352  -14.7015   19.5761 N   0  0  0  0  0  0  0  0  0  0  0  0
    8.4977  -14.0835   18.3383 C   0  0  0  0  0  0  0  0  0  0  0  0
    7.6474  -12.9090   18.7049 C   0  0  0  0  0  0  0  0  0  0  0  0
    7.5791  -12.9151   20.1962 C   0  0  0  0  0  0  0  0  0  0  0  0
    8.8115  -13.6865   20.5973 C   0  0  1  0  0  0  0  0  0  0  0  0
    8.5561  -14.2980   21.9180 C   0  0  0  0  0  0  0  0  0  0  0  0
    8.2441  -13.5673   22.8772 O   0  0  0  0  0  0  0  0  0  0  0  0
    8.6554  -15.6860   22.1240 N   0  0  0  0  0  0  0  0  0  0  0  0
    8.2341  -16.2408   23.4067 C   0  0  1  0  0  0  0  0  0  0  0  0
    8.0533  -17.7352   23.2582 C   0  0  0  0  0  0  0  0  0  0  0  0
    9.2788  -18.3863   22.6989 C   0  0  0  0  0  0  0  0  0  0  0  0
    8.9770  -19.8925   22.4890 C   0  0  0  0  0  0  0  0  0  0  0  0
   10.2078  -20.5904   21.9613 C   0  0  0  0  0  0  0  0  0  0  0  0
    9.9309  -21.9888   21.7921 N   0  0  0  0  0  0  0  0  0  0  0  0
    9.2380  -15.8250   24.3861 C   0  0  0  0  0  0  0  0  0  0  0  0
   10.4087  -15.5790   24.0193 O   0  0  0  0  0  0  0  0  0  0  0  0
   10.0507  -13.4899   28.5385 C   0  0  0  0  0  0  0  0  0  0  0  0
    9.1527  -14.1280   27.5189 C   0  0  1  0  0  0  0  0  0  0  0  0
    8.8155  -13.1586   26.5596 O   0  0  0  0  0  0  0  0  0  0  0  0
    9.8613  -15.2457   26.7559 C   0  0  2  0  0  0  0  0  0  0  0  0
    8.9183  -15.6869   25.7450 N   0  0  0  0  0  0  0  0  0  0  0  0
   10.3324  -16.3043   27.6385 C   0  0  0  0  0  0  0  0  0  0  0  0
   11.4806  -16.1814   28.4035 O   0  0  0  0  0  0  0  0  0  0  0  0
    9.6906  -17.3784   27.7264 O   0  0  0  0  0  0  0  0  0  0  0  0
  1  2  1  0
  2  3  1  0
  4  3  1  0
  5  1  1  0
  5  4  1  0
  5  6  1  1
  7  6  2  0
  8  6  1  0
  9  8  1  0
  9 10  1  6
 10 11  1  0
 11 12  1  0
 12 13  1  0
 13 14  1  0
 15 21  1  0
 15  9  1  0
 16 15  2  0
 18 20  1  0
 18 17  1  1
 19 18  1  0
 20 22  1  0
 20 21  1  6
 22 23  1  0
 24 22  2  0
M  END
$$$$
