PKT.pdb
     RDKit          3D

 24 24  0  0  1  0  0  0  0  0999 V2000
    4.9717  -19.1289   20.3897 N   0  0  0  0  0  0  0  0  0  0  0  0
    4.5793  -20.0197   19.3136 C   0  0  0  0  0  0  0  0  0  0  0  0
    5.7806  -20.8335   18.9507 C   0  0  0  0  0  0  0  0  0  0  0  0
    6.8809  -20.3349   19.8280 C   0  0  0  0  0  0  0  0  0  0  0  0
    6.1454  -19.7191   20.9919 C   0  0  1  0  0  0  0  0  0  0  0  0
    7.0140  -18.6788   21.5803 C   0  0  0  0  0  0  0  0  0  0  0  0
    8.1433  -18.9943   22.0002 O   0  0  0  0  0  0  0  0  0  0  0  0
    6.6010  -17.3377   21.6805 N   0  0  0  0  0  0  0  0  0  0  0  0
    7.5209  -16.3567   22.2477 C   0  0  1  0  0  0  0  0  0  0  0  0
    7.2230  -15.0010   21.6464 C   0  0  0  0  0  0  0  0  0  0  0  0
    7.6053  -14.9425   20.2010 C   0  0  0  0  0  0  0  0  0  0  0  0
    7.8034  -13.4555   19.8098 C   0  0  0  0  0  0  0  0  0  0  0  0
    8.2160  -13.3602   18.3603 C   0  0  0  0  0  0  0  0  0  0  0  0
    8.3282  -11.9797   17.9832 N   0  0  0  0  0  0  0  0  0  0  0  0
    7.3737  -16.4442   23.7005 C   0  0  0  0  0  0  0  0  0  0  0  0
    6.2594  -16.2410   24.2319 O   0  0  0  0  0  0  0  0  0  0  0  0
    6.6248  -18.6855   25.5294 C   0  0  0  0  0  0  0  0  0  0  0  0
    7.9437  -18.3825   26.1788 C   0  0  1  0  0  0  0  0  0  0  0  0
    8.9313  -19.1659   25.5586 O   0  0  0  0  0  0  0  0  0  0  0  0
    8.3635  -16.9295   25.9643 C   0  0  2  0  0  0  0  0  0  0  0  0
    8.4627  -16.7600   24.5265 N   0  0  0  0  0  0  0  0  0  0  0  0
    9.5791  -16.5925   26.6926 C   0  0  0  0  0  0  0  0  0  0  0  0
    9.6626  -16.6562   28.0737 O   0  0  0  0  0  0  0  0  0  0  0  0
   10.6032  -16.2278   26.0670 O   0  0  0  0  0  0  0  0  0  0  0  0
  1  2  1  0
  2  3  1  0
  4  3  1  0
  5  1  1  0
  5  4  1  0
  5  6  1  6
  7  6  2  0
  8  6  1  0
  9  8  1  0
  9 10  1  6
 10 11  1  0
 11 12  1  0
 12 13  1  0
 13 14  1  0
 15 21  1  0
 15  9  1  0
 16 15  2  0
 18 20  1  0
 18 17  1  6
 19 18  1  0
 20 22  1  0
 20 21  1  6
 22 23  1  0
 24 22  2  0
M  END
$$$$
