PKT.pdb
     RDKit          3D

 24 24  0  0  1  0  0  0  0  0999 V2000
    8.3533  -15.2144   19.6347 N   0  0  0  0  0  0  0  0  0  0  0  0
    8.0836  -14.7886   18.2740 C   0  0  0  0  0  0  0  0  0  0  0  0
    7.3941  -13.4637   18.3519 C   0  0  0  0  0  0  0  0  0  0  0  0
    7.2389  -13.1791   19.8091 C   0  0  0  0  0  0  0  0  0  0  0  0
    8.3199  -14.0176   20.4440 C   0  0  1  0  0  0  0  0  0  0  0  0
    7.9014  -14.3293   21.8263 C   0  0  0  0  0  0  0  0  0  0  0  0
    7.4967  -13.4095   22.5622 O   0  0  0  0  0  0  0  0  0  0  0  0
    7.9469  -15.6393   22.3372 N   0  0  0  0  0  0  0  0  0  0  0  0
    7.3249  -15.9150   23.6285 C   0  0  1  0  0  0  0  0  0  0  0  0
    7.2230  -17.4129   23.8131 C   0  0  0  0  0  0  0  0  0  0  0  0
    6.3835  -18.0442   22.7476 C   0  0  0  0  0  0  0  0  0  0  0  0
    6.3092  -19.5676   23.0252 C   0  0  0  0  0  0  0  0  0  0  0  0
    5.4711  -20.2391   21.9636 C   0  0  0  0  0  0  0  0  0  0  0  0
    5.4987  -21.6610   22.1589 N   0  0  0  0  0  0  0  0  0  0  0  0
    8.1260  -15.2128   24.6311 C   0  0  0  0  0  0  0  0  0  0  0  0
    9.3754  -15.2532   24.5770 O   0  0  0  0  0  0  0  0  0  0  0  0
    7.6401  -11.5638   25.8804 C   0  0  0  0  0  0  0  0  0  0  0  0
    7.5219  -12.5326   27.0208 C   0  0  1  0  0  0  0  0  0  0  0  0
    6.1681  -12.8783   27.1677 O   0  0  0  0  0  0  0  0  0  0  0  0
    8.2608  -13.8392   26.7370 C   0  0  2  0  0  0  0  0  0  0  0  0
    7.5232  -14.4796   25.6639 N   0  0  0  0  0  0  0  0  0  0  0  0
    8.4130  -14.6584   27.9317 C   0  0  0  0  0  0  0  0  0  0  0  0
    9.1322  -14.2371   29.0379 O   0  0  0  0  0  0  0  0  0  0  0  0
    7.8815  -15.7932   27.9847 O   0  0  0  0  0  0  0  0  0  0  0  0
  1  2  1  0
  2  3  1  0
  4  3  1  0
  5  1  1  0
  5  4  1  0
  5  6  1  1
  7  6  2  0
  8  6  1  0
  9  8  1  0
  9 10  1  1
 10 11  1  0
 11 12  1  0
 12 13  1  0
 13 14  1  0
 15 21  1  0
 15  9  1  0
 16 15  2  0
 18 20  1  0
 18 17  1  6
 19 18  1  0
 20 22  1  0
 20 21  1  6
 22 23  1  0
 24 22  2  0
M  END
$$$$
