PKT.pdb
     RDKit          3D

 24 24  0  0  1  0  0  0  0  0999 V2000
    8.6908  -15.0174   19.5364 N   0  0  0  0  0  0  0  0  0  0  0  0
    8.5674  -14.5975   18.1530 C   0  0  0  0  0  0  0  0  0  0  0  0
    7.6238  -13.4374   18.1237 C   0  0  0  0  0  0  0  0  0  0  0  0
    7.1791  -13.2483   19.5362 C   0  0  0  0  0  0  0  0  0  0  0  0
    8.2873  -13.8844   20.3376 C   0  0  1  0  0  0  0  0  0  0  0  0
    7.7195  -14.3281   21.6275 C   0  0  0  0  0  0  0  0  0  0  0  0
    7.1039  -13.5091   22.3358 O   0  0  0  0  0  0  0  0  0  0  0  0
    7.8544  -15.6532   22.0803 N   0  0  0  0  0  0  0  0  0  0  0  0
    7.3550  -15.9995   23.4074 C   0  0  1  0  0  0  0  0  0  0  0  0
    7.5180  -17.4884   23.6187 C   0  0  0  0  0  0  0  0  0  0  0  0
    7.1452  -17.8922   25.0103 C   0  0  0  0  0  0  0  0  0  0  0  0
    7.2934  -19.4311   25.1269 C   0  0  0  0  0  0  0  0  0  0  0  0
    6.7631  -19.8947   26.4626 C   0  0  0  0  0  0  0  0  0  0  0  0
    6.8270  -21.3270   26.5331 N   0  0  0  0  0  0  0  0  0  0  0  0
    8.0758  -15.1492   24.3547 C   0  0  0  0  0  0  0  0  0  0  0  0
    9.2953  -14.9214   24.1917 O   0  0  0  0  0  0  0  0  0  0  0  0
    6.6930  -11.7387   25.7806 C   0  0  0  0  0  0  0  0  0  0  0  0
    7.0359  -12.7078   26.8744 C   0  0  1  0  0  0  0  0  0  0  0  0
    5.8855  -13.4546   27.1790 O   0  0  0  0  0  0  0  0  0  0  0  0
    8.0887  -13.7209   26.4283 C   0  0  2  0  0  0  0  0  0  0  0  0
    7.4265  -14.5688   25.4544 N   0  0  0  0  0  0  0  0  0  0  0  0
    8.6727  -14.4414   27.5514 C   0  0  0  0  0  0  0  0  0  0  0  0
    9.3931  -13.8076   28.5503 O   0  0  0  0  0  0  0  0  0  0  0  0
    8.5314  -15.6846   27.6395 O   0  0  0  0  0  0  0  0  0  0  0  0
  1  2  1  0
  2  3  1  0
  4  3  1  0
  5  1  1  0
  5  4  1  0
  5  6  1  1
  7  6  2  0
  8  6  1  0
  9  8  1  0
  9 10  1  1
 10 11  1  0
 11 12  1  0
 12 13  1  0
 13 14  1  0
 15 21  1  0
 15  9  1  0
 16 15  2  0
 18 20  1  0
 18 17  1  6
 19 18  1  0
 20 22  1  0
 20 21  1  6
 22 23  1  0
 24 22  2  0
M  END
$$$$
