PKT.pdb
     RDKit          3D

 24 24  0  0  1  0  0  0  0  0999 V2000
    8.6550  -15.0544   19.9492 N   0  0  0  0  0  0  0  0  0  0  0  0
    8.4367  -14.5096   18.6222 C   0  0  0  0  0  0  0  0  0  0  0  0
    7.7085  -13.2138   18.7887 C   0  0  0  0  0  0  0  0  0  0  0  0
    7.4788  -13.0703   20.2568 C   0  0  0  0  0  0  0  0  0  0  0  0
    8.5519  -13.9397   20.8630 C   0  0  1  0  0  0  0  0  0  0  0  0
    8.0790  -14.3888   22.1888 C   0  0  0  0  0  0  0  0  0  0  0  0
    7.6849  -13.5427   23.0135 O   0  0  0  0  0  0  0  0  0  0  0  0
    8.0610  -15.7489   22.5480 N   0  0  0  0  0  0  0  0  0  0  0  0
    7.6728  -16.1147   23.9066 C   0  0  1  0  0  0  0  0  0  0  0  0
    7.2242  -17.5593   23.9154 C   0  0  0  0  0  0  0  0  0  0  0  0
    6.0148  -17.7667   23.0592 C   0  0  0  0  0  0  0  0  0  0  0  0
    5.7112  -19.2861   23.0054 C   0  0  0  0  0  0  0  0  0  0  0  0
    4.5776  -19.5457   22.0423 C   0  0  0  0  0  0  0  0  0  0  0  0
    4.4306  -20.9599   21.8443 N   0  0  0  0  0  0  0  0  0  0  0  0
    8.8206  -15.8094   24.7604 C   0  0  0  0  0  0  0  0  0  0  0  0
    9.9823  -16.0389   24.3563 O   0  0  0  0  0  0  0  0  0  0  0  0
    9.2518  -12.5049   26.7170 C   0  0  0  0  0  0  0  0  0  0  0  0
    9.3503  -13.6683   27.6603 C   0  0  1  0  0  0  0  0  0  0  0  0
    8.0755  -13.9080   28.2000 O   0  0  0  0  0  0  0  0  0  0  0  0
    9.7499  -14.9542   26.9388 C   0  0  2  0  0  0  0  0  0  0  0  0
    8.6528  -15.2528   26.0371 N   0  0  0  0  0  0  0  0  0  0  0  0
   10.0733  -16.0301   27.8659 C   0  0  0  0  0  0  0  0  0  0  0  0
   11.1428  -15.9617   28.7434 O   0  0  0  0  0  0  0  0  0  0  0  0
    9.3708  -17.0689   27.8893 O   0  0  0  0  0  0  0  0  0  0  0  0
  1  2  1  0
  2  3  1  0
  4  3  1  0
  5  1  1  0
  5  4  1  0
  5  6  1  1
  7  6  2  0
  8  6  1  0
  9  8  1  0
  9 10  1  6
 10 11  1  0
 11 12  1  0
 12 13  1  0
 13 14  1  0
 15 21  1  0
 15  9  1  0
 16 15  2  0
 18 20  1  0
 18 17  1  6
 19 18  1  0
 20 22  1  0
 20 21  1  6
 22 23  1  0
 24 22  2  0
M  END
$$$$
