PKT.pdb
     RDKit          3D

 24 24  0  0  1  0  0  0  0  0999 V2000
    8.4990  -14.8861   19.3466 N   0  0  0  0  0  0  0  0  0  0  0  0
    8.2795  -14.3504   18.0161 C   0  0  0  0  0  0  0  0  0  0  0  0
    7.6878  -12.9864   18.1789 C   0  0  0  0  0  0  0  0  0  0  0  0
    7.5343  -12.7905   19.6508 C   0  0  0  0  0  0  0  0  0  0  0  0
    8.5424  -13.7477   20.2358 C   0  0  1  0  0  0  0  0  0  0  0  0
    8.0837  -14.1206   21.5899 C   0  0  0  0  0  0  0  0  0  0  0  0
    7.6862  -13.2303   22.3649 O   0  0  0  0  0  0  0  0  0  0  0  0
    8.0830  -15.4566   22.0308 N   0  0  0  0  0  0  0  0  0  0  0  0
    7.4018  -15.7873   23.2786 C   0  0  1  0  0  0  0  0  0  0  0  0
    7.3083  -17.2921   23.4015 C   0  0  0  0  0  0  0  0  0  0  0  0
    6.3803  -17.8723   22.3813 C   0  0  0  0  0  0  0  0  0  0  0  0
    6.4066  -19.4161   22.5216 C   0  0  0  0  0  0  0  0  0  0  0  0
    5.4770  -20.0363   21.5059 C   0  0  0  0  0  0  0  0  0  0  0  0
    5.5116  -21.4656   21.6339 N   0  0  0  0  0  0  0  0  0  0  0  0
    8.1446  -15.1161   24.3451 C   0  0  0  0  0  0  0  0  0  0  0  0
    9.3958  -15.1183   24.3360 O   0  0  0  0  0  0  0  0  0  0  0  0
    7.0783  -11.5854   25.7940 C   0  0  0  0  0  0  0  0  0  0  0  0
    7.2208  -12.6199   26.8722 C   0  0  1  0  0  0  0  0  0  0  0  0
    5.9672  -13.2206   27.0759 O   0  0  0  0  0  0  0  0  0  0  0  0
    8.1649  -13.7473   26.4584 C   0  0  2  0  0  0  0  0  0  0  0  0
    7.4831  -14.4552   25.3908 N   0  0  0  0  0  0  0  0  0  0  0  0
    8.5489  -14.5874   27.5847 C   0  0  0  0  0  0  0  0  0  0  0  0
    9.2823  -14.1071   28.6570 O   0  0  0  0  0  0  0  0  0  0  0  0
    8.2143  -15.7960   27.6071 O   0  0  0  0  0  0  0  0  0  0  0  0
  1  2  1  0
  2  3  1  0
  4  3  1  0
  5  1  1  0
  5  4  1  0
  5  6  1  1
  7  6  2  0
  8  6  1  0
  9  8  1  0
  9 10  1  1
 10 11  1  0
 11 12  1  0
 12 13  1  0
 13 14  1  0
 15 21  1  0
 15  9  1  0
 16 15  2  0
 18 20  1  0
 18 17  1  6
 19 18  1  0
 20 22  1  0
 20 21  1  6
 22 23  1  0
 24 22  2  0
M  END
$$$$
