PKT.pdb
     RDKit          3D

 24 24  0  0  1  0  0  0  0  0999 V2000
    8.5561  -15.1710   19.5172 N   0  0  0  0  0  0  0  0  0  0  0  0
    8.3336  -14.7036   18.1616 C   0  0  0  0  0  0  0  0  0  0  0  0
    7.5212  -13.4510   18.2518 C   0  0  0  0  0  0  0  0  0  0  0  0
    7.2500  -13.2544   19.7066 C   0  0  0  0  0  0  0  0  0  0  0  0
    8.3621  -14.0239   20.3745 C   0  0  1  0  0  0  0  0  0  0  0  0
    7.8888  -14.4404   21.7108 C   0  0  0  0  0  0  0  0  0  0  0  0
    7.4518  -13.5795   22.4976 O   0  0  0  0  0  0  0  0  0  0  0  0
    7.9177  -15.7856   22.1215 N   0  0  0  0  0  0  0  0  0  0  0  0
    7.4085  -16.1301   23.4453 C   0  0  1  0  0  0  0  0  0  0  0  0
    7.3769  -17.6363   23.5811 C   0  0  0  0  0  0  0  0  0  0  0  0
    7.0149  -18.0575   24.9704 C   0  0  0  0  0  0  0  0  0  0  0  0
    6.9663  -19.6066   25.0123 C   0  0  0  0  0  0  0  0  0  0  0  0
    6.6546  -20.0691   26.4155 C   0  0  0  0  0  0  0  0  0  0  0  0
    6.5430  -21.5002   26.4352 N   0  0  0  0  0  0  0  0  0  0  0  0
    8.2583  -15.4313   24.4094 C   0  0  0  0  0  0  0  0  0  0  0  0
    9.5039  -15.5081   24.3196 O   0  0  0  0  0  0  0  0  0  0  0  0
    7.6597  -11.7496   25.6941 C   0  0  0  0  0  0  0  0  0  0  0  0
    7.7079  -12.7327   26.8273 C   0  0  1  0  0  0  0  0  0  0  0  0
    6.3975  -13.1637   27.0937 O   0  0  0  0  0  0  0  0  0  0  0  0
    8.4965  -13.9881   26.4589 C   0  0  2  0  0  0  0  0  0  0  0  0
    7.7070  -14.6612   25.4443 N   0  0  0  0  0  0  0  0  0  0  0  0
    8.8027  -14.8093   27.6224 C   0  0  0  0  0  0  0  0  0  0  0  0
    9.6242  -14.3719   28.6482 O   0  0  0  0  0  0  0  0  0  0  0  0
    8.3155  -15.9608   27.7219 O   0  0  0  0  0  0  0  0  0  0  0  0
  1  2  1  0
  2  3  1  0
  4  3  1  0
  5  1  1  0
  5  4  1  0
  5  6  1  1
  7  6  2  0
  8  6  1  0
  9  8  1  0
  9 10  1  1
 10 11  1  0
 11 12  1  0
 12 13  1  0
 13 14  1  0
 15 21  1  0
 15  9  1  0
 16 15  2  0
 18 20  1  0
 18 17  1  6
 19 18  1  0
 20 22  1  0
 20 21  1  6
 22 23  1  0
 24 22  2  0
M  END
$$$$
