PKT.pdb
     RDKit          3D

 24 24  0  0  1  0  0  0  0  0999 V2000
    8.1161  -15.0068   19.3431 N   0  0  0  0  0  0  0  0  0  0  0  0
    7.8858  -14.3735   18.0581 C   0  0  0  0  0  0  0  0  0  0  0  0
    7.5945  -12.9301   18.3205 C   0  0  0  0  0  0  0  0  0  0  0  0
    7.6194  -12.7810   19.8057 C   0  0  0  0  0  0  0  0  0  0  0  0
    8.4667  -13.9441   20.2575 C   0  0  1  0  0  0  0  0  0  0  0  0
    8.0699  -14.2869   21.6389 C   0  0  0  0  0  0  0  0  0  0  0  0
    8.1186  -13.4098   22.5219 O   0  0  0  0  0  0  0  0  0  0  0  0
    7.6374  -15.5795   21.9869 N   0  0  0  0  0  0  0  0  0  0  0  0
    7.0639  -15.7989   23.3111 C   0  0  1  0  0  0  0  0  0  0  0  0
    6.3084  -17.1094   23.3064 C   0  0  0  0  0  0  0  0  0  0  0  0
    7.2177  -18.2695   23.0500 C   0  0  0  0  0  0  0  0  0  0  0  0
    6.3596  -19.5599   23.0049 C   0  0  0  0  0  0  0  0  0  0  0  0
    7.2572  -20.7640   22.8477 C   0  0  0  0  0  0  0  0  0  0  0  0
    6.4552  -21.9502   22.7455 N   0  0  0  0  0  0  0  0  0  0  0  0
    8.1740  -15.7186   24.2603 C   0  0  0  0  0  0  0  0  0  0  0  0
    9.3360  -16.0019   23.8928 O   0  0  0  0  0  0  0  0  0  0  0  0
    8.6726  -12.6473   26.3823 C   0  0  0  0  0  0  0  0  0  0  0  0
    8.6927  -13.8382   27.2959 C   0  0  1  0  0  0  0  0  0  0  0  0
    7.3965  -14.0264   27.8042 O   0  0  0  0  0  0  0  0  0  0  0  0
    9.0417  -15.1237   26.5480 C   0  0  2  0  0  0  0  0  0  0  0  0
    7.9697  -15.3213   25.5901 N   0  0  0  0  0  0  0  0  0  0  0  0
    9.2536  -16.2474   27.4503 C   0  0  0  0  0  0  0  0  0  0  0  0
   10.2502  -16.2534   28.4122 O   0  0  0  0  0  0  0  0  0  0  0  0
    8.5179  -17.2603   27.3726 O   0  0  0  0  0  0  0  0  0  0  0  0
  1  2  1  0
  2  3  1  0
  4  3  1  0
  5  1  1  0
  5  4  1  0
  5  6  1  1
  7  6  2  0
  8  6  1  0
  9  8  1  0
  9 10  1  6
 10 11  1  0
 11 12  1  0
 12 13  1  0
 13 14  1  0
 15 21  1  0
 15  9  1  0
 16 15  2  0
 18 20  1  0
 18 17  1  6
 19 18  1  0
 20 22  1  0
 20 21  1  6
 22 23  1  0
 24 22  2  0
M  END
$$$$
