PKT.pdb
     RDKit          3D

 24 24  0  0  1  0  0  0  0  0999 V2000
    7.4011  -15.2084   18.9764 N   0  0  0  0  0  0  0  0  0  0  0  0
    6.8529  -14.7041   17.7311 C   0  0  0  0  0  0  0  0  0  0  0  0
    7.5090  -13.3880   17.4581 C   0  0  0  0  0  0  0  0  0  0  0  0
    8.4123  -13.1429   18.6212 C   0  0  0  0  0  0  0  0  0  0  0  0
    8.6616  -14.5273   19.1653 C   0  0  1  0  0  0  0  0  0  0  0  0
    8.9806  -14.4010   20.6024 C   0  0  0  0  0  0  0  0  0  0  0  0
   10.0937  -13.9573   20.9424 O   0  0  0  0  0  0  0  0  0  0  0  0
    8.0607  -14.7686   21.6012 N   0  0  0  0  0  0  0  0  0  0  0  0
    8.4206  -14.5656   23.0011 C   0  0  1  0  0  0  0  0  0  0  0  0
    7.2742  -13.8751   23.7062 C   0  0  0  0  0  0  0  0  0  0  0  0
    7.5968  -13.5954   25.1402 C   0  0  0  0  0  0  0  0  0  0  0  0
    6.3992  -12.8383   25.7698 C   0  0  0  0  0  0  0  0  0  0  0  0
    6.7117  -12.4947   27.2066 C   0  0  0  0  0  0  0  0  0  0  0  0
    5.5745  -11.8551   27.8052 N   0  0  0  0  0  0  0  0  0  0  0  0
    8.7807  -15.8811   23.5299 C   0  0  0  0  0  0  0  0  0  0  0  0
    7.9415  -16.8092   23.5293 O   0  0  0  0  0  0  0  0  0  0  0  0
   11.2785  -17.8446   22.1379 C   0  0  0  0  0  0  0  0  0  0  0  0
   11.6785  -17.8133   23.5843 C   0  0  1  0  0  0  0  0  0  0  0  0
   12.6360  -16.7995   23.7555 O   0  0  0  0  0  0  0  0  0  0  0  0
   10.5067  -17.4422   24.4913 C   0  0  2  0  0  0  0  0  0  0  0  0
   10.0622  -16.1365   24.0402 N   0  0  0  0  0  0  0  0  0  0  0  0
   10.8610  -17.4999   25.9029 C   0  0  0  0  0  0  0  0  0  0  0  0
   11.1042  -18.6934   26.5623 O   0  0  0  0  0  0  0  0  0  0  0  0
   10.9557  -16.4411   26.5686 O   0  0  0  0  0  0  0  0  0  0  0  0
  1  2  1  0
  2  3  1  0
  4  3  1  0
  5  1  1  0
  5  4  1  0
  5  6  1  1
  7  6  2  0
  8  6  1  0
  9  8  1  0
  9 10  1  1
 10 11  1  0
 11 12  1  0
 12 13  1  0
 13 14  1  0
 15 21  1  0
 15  9  1  0
 16 15  2  0
 18 20  1  0
 18 17  1  6
 19 18  1  0
 20 22  1  0
 20 21  1  6
 22 23  1  0
 24 22  2  0
M  END
$$$$
