PKT.pdb
     RDKit          3D

 24 24  0  0  1  0  0  0  0  0999 V2000
    8.7619  -14.8457   19.5823 N   0  0  0  0  0  0  0  0  0  0  0  0
    8.7241  -14.3742   18.2105 C   0  0  0  0  0  0  0  0  0  0  0  0
    7.8395  -13.1685   18.1798 C   0  0  0  0  0  0  0  0  0  0  0  0
    7.3383  -13.0050   19.5765 C   0  0  0  0  0  0  0  0  0  0  0  0
    8.3758  -13.7215   20.4042 C   0  0  1  0  0  0  0  0  0  0  0  0
    7.7273  -14.1794   21.6503 C   0  0  0  0  0  0  0  0  0  0  0  0
    7.2382  -13.3376   22.4271 O   0  0  0  0  0  0  0  0  0  0  0  0
    7.6461  -15.5432   21.9859 N   0  0  0  0  0  0  0  0  0  0  0  0
    7.1711  -15.9155   23.3149 C   0  0  1  0  0  0  0  0  0  0  0  0
    7.3200  -17.4110   23.4869 C   0  0  0  0  0  0  0  0  0  0  0  0
    6.9999  -17.8402   24.8840 C   0  0  0  0  0  0  0  0  0  0  0  0
    7.2673  -19.3631   24.9987 C   0  0  0  0  0  0  0  0  0  0  0  0
    6.9267  -19.8371   26.3913 C   0  0  0  0  0  0  0  0  0  0  0  0
    7.1941  -21.2434   26.4982 N   0  0  0  0  0  0  0  0  0  0  0  0
    7.9227  -15.0972   24.2663 C   0  0  0  0  0  0  0  0  0  0  0  0
    9.1427  -14.8859   24.0861 O   0  0  0  0  0  0  0  0  0  0  0  0
    6.7585  -11.6918   26.0075 C   0  0  0  0  0  0  0  0  0  0  0  0
    7.0274  -12.7966   26.9874 C   0  0  1  0  0  0  0  0  0  0  0  0
    5.8285  -13.4964   27.2034 O   0  0  0  0  0  0  0  0  0  0  0  0
    8.0176  -13.8199   26.4342 C   0  0  2  0  0  0  0  0  0  0  0  0
    7.3029  -14.5293   25.3894 N   0  0  0  0  0  0  0  0  0  0  0  0
    8.5639  -14.6789   27.4760 C   0  0  0  0  0  0  0  0  0  0  0  0
    9.3580  -14.1937   28.5019 O   0  0  0  0  0  0  0  0  0  0  0  0
    8.3199  -15.9091   27.4652 O   0  0  0  0  0  0  0  0  0  0  0  0
  1  2  1  0
  2  3  1  0
  4  3  1  0
  5  1  1  0
  5  4  1  0
  5  6  1  1
  7  6  2  0
  8  6  1  0
  9  8  1  0
  9 10  1  1
 10 11  1  0
 11 12  1  0
 12 13  1  0
 13 14  1  0
 15 21  1  0
 15  9  1  0
 16 15  2  0
 18 20  1  0
 18 17  1  6
 19 18  1  0
 20 22  1  0
 20 21  1  6
 22 23  1  0
 24 22  2  0
M  END
$$$$
