WQN.pdb
     RDKit          3D

 32 33  0  0  1  0  0  0  0  0999 V2000
   26.2967  -21.9912  -13.3542 N   0  0  0  0  0  0  0  0  0  0  0  0
   26.0084  -21.3392  -12.0905 C   0  0  1  0  0  0  0  0  0  0  0  0
   27.0503  -20.2470  -11.9331 C   0  0  0  0  0  0  0  0  0  0  0  0
   28.4200  -20.8191  -11.9150 C   0  0  0  0  0  0  0  0  0  0  0  0
   29.3236  -20.8827  -12.9819 C   0  0  0  0  0  0  0  0  0  0  0  0
   30.4591  -21.4704  -12.5857 N   0  0  0  0  0  0  0  0  0  0  0  0
   30.3570  -21.8123  -11.2715 C   0  0  0  0  0  0  0  0  0  0  0  0
   31.2484  -22.4299  -10.4241 C   0  0  0  0  0  0  0  0  0  0  0  0
   30.8909  -22.6644   -9.1122 C   0  0  0  0  0  0  0  0  0  0  0  0
   29.6345  -22.2608   -8.7064 C   0  0  0  0  0  0  0  0  0  0  0  0
   28.7447  -21.6426   -9.5580 C   0  0  0  0  0  0  0  0  0  0  0  0
   29.0966  -21.4084  -10.8612 C   0  0  0  0  0  0  0  0  0  0  0  0
   24.6432  -20.7941  -12.1540 C   0  0  0  0  0  0  0  0  0  0  0  0
   24.4573  -19.5591  -12.3096 O   0  0  0  0  0  0  0  0  0  0  0  0
   20.5371  -19.5762  -15.3669 N   0  0  0  0  0  0  0  0  0  0  0  0
   21.8268  -19.0112  -15.2619 C   0  0  0  0  0  0  0  0  0  0  0  0
   22.0312  -17.8586  -15.6922 O   0  0  0  0  0  0  0  0  0  0  0  0
   22.9249  -19.8001  -14.6385 C   0  0  0  0  0  0  0  0  0  0  0  0
   22.4505  -21.1526  -14.2002 C   0  0  0  0  0  0  0  0  0  0  0  0
   22.2292  -21.2635  -12.7305 C   0  0  2  0  0  0  0  0  0  0  0  0
   23.4784  -21.6189  -12.0445 N   0  0  0  0  0  0  0  0  0  0  0  0
   21.2497  -22.2849  -12.3107 C   0  0  0  0  0  0  0  0  0  0  0  0
   21.2859  -23.4252  -12.8268 O   0  0  0  0  0  0  0  0  0  0  0  0
   18.3378  -24.7886   -8.3182 N   0  0  0  0  0  0  0  0  0  0  0  0
   17.7521  -23.8048   -9.1728 C   0  0  0  0  0  0  0  0  0  0  0  0
   16.5435  -23.9652   -9.4637 O   0  0  0  0  0  0  0  0  0  0  0  0
   18.6152  -22.6994   -9.6314 C   0  0  0  0  0  0  0  0  0  0  0  0
   19.2918  -23.0790  -10.9025 C   0  0  2  0  0  0  0  0  0  0  0  0
   20.2462  -22.0623  -11.3409 N   0  0  0  0  0  0  0  0  0  0  0  0
   18.3139  -23.3957  -11.9409 C   0  0  0  0  0  0  0  0  0  0  0  0
   17.8964  -22.4133  -12.6475 O   0  0  0  0  0  0  0  0  0  0  0  0
   17.7898  -24.6180  -12.2507 O   0  0  0  0  0  0  0  0  0  0  0  0
  2  1  1  6
  3  2  1  0
  4  3  1  0
  5  4  2  0
  6  7  1  0
  6  5  1  0
  7 12  2  0
  8  7  1  0
  8  9  2  0
  9 10  1  0
 10 11  2  0
 12  4  1  0
 12 11  1  0
 13  2  1  0
 14 13  2  0
 16 17  2  0
 16 15  1  0
 18 16  1  0
 19 18  1  0
 20 19  1  6
 20 21  1  0
 21 13  1  0
 22 20  1  0
 23 22  2  0
 25 27  1  0
 25 24  1  0
 26 25  2  0
 28 27  1  1
 28 30  1  0
 28 29  1  0
 29 22  1  0
 30 32  1  0
 31 30  2  0
M  END
$$$$
