WQN.pdb
     RDKit          3D

 32 33  0  0  1  0  0  0  0  0999 V2000
   26.7304  -21.9305  -10.0414 N   0  0  0  0  0  0  0  0  0  0  0  0
   25.9589  -20.8077   -9.5423 C   0  0  1  0  0  0  0  0  0  0  0  0
   26.9647  -19.7216   -9.2078 C   0  0  0  0  0  0  0  0  0  0  0  0
   28.0155  -20.2350   -8.2934 C   0  0  0  0  0  0  0  0  0  0  0  0
   28.9276  -21.2655   -8.5480 C   0  0  0  0  0  0  0  0  0  0  0  0
   29.7204  -21.4482   -7.4850 N   0  0  0  0  0  0  0  0  0  0  0  0
   29.3744  -20.5673   -6.5059 C   0  0  0  0  0  0  0  0  0  0  0  0
   29.8878  -20.3667   -5.2447 C   0  0  0  0  0  0  0  0  0  0  0  0
   29.3461  -19.3888   -4.4360 C   0  0  0  0  0  0  0  0  0  0  0  0
   28.2972  -18.6460   -4.9401 C   0  0  0  0  0  0  0  0  0  0  0  0
   27.7859  -18.8498   -6.2035 C   0  0  0  0  0  0  0  0  0  0  0  0
   28.3215  -19.8201   -7.0089 C   0  0  0  0  0  0  0  0  0  0  0  0
   25.0227  -20.3867  -10.5964 C   0  0  0  0  0  0  0  0  0  0  0  0
   24.5319  -19.2278  -10.5863 O   0  0  0  0  0  0  0  0  0  0  0  0
   25.2587  -19.7532  -16.3349 N   0  0  0  0  0  0  0  0  0  0  0  0
   26.2051  -20.0498  -15.3299 C   0  0  0  0  0  0  0  0  0  0  0  0
   27.4081  -19.7798  -15.5177 O   0  0  0  0  0  0  0  0  0  0  0  0
   25.7529  -20.6812  -14.0596 C   0  0  0  0  0  0  0  0  0  0  0  0
   24.2682  -20.8859  -14.0450 C   0  0  0  0  0  0  0  0  0  0  0  0
   23.6654  -20.8093  -12.6842 C   0  0  2  0  0  0  0  0  0  0  0  0
   24.6275  -21.2516  -11.6663 N   0  0  0  0  0  0  0  0  0  0  0  0
   22.4646  -21.6417  -12.4734 C   0  0  0  0  0  0  0  0  0  0  0  0
   22.2035  -22.5652  -13.2777 O   0  0  0  0  0  0  0  0  0  0  0  0
   20.6285  -23.3513   -8.3806 N   0  0  0  0  0  0  0  0  0  0  0  0
   20.0716  -23.3221   -9.6958 C   0  0  0  0  0  0  0  0  0  0  0  0
   20.0963  -24.3987  -10.3374 O   0  0  0  0  0  0  0  0  0  0  0  0
   19.5229  -22.0391  -10.1755 C   0  0  0  0  0  0  0  0  0  0  0  0
   20.1226  -21.6932  -11.4941 C   0  0  2  0  0  0  0  0  0  0  0  0
   21.5635  -21.4666  -11.3989 N   0  0  0  0  0  0  0  0  0  0  0  0
   19.4293  -20.5601  -12.1026 C   0  0  0  0  0  0  0  0  0  0  0  0
   18.1649  -20.6845  -12.2588 O   0  0  0  0  0  0  0  0  0  0  0  0
   19.9691  -19.3795  -12.5259 O   0  0  0  0  0  0  0  0  0  0  0  0
  2  1  1  6
  3  2  1  0
  4  3  1  0
  5  4  2  0
  6  7  1  0
  6  5  1  0
  7 12  2  0
  8  7  1  0
  8  9  2  0
  9 10  1  0
 10 11  2  0
 12  4  1  0
 12 11  1  0
 13  2  1  0
 14 13  2  0
 16 17  2  0
 16 15  1  0
 18 16  1  0
 19 18  1  0
 20 19  1  6
 20 21  1  0
 21 13  1  0
 22 20  1  0
 23 22  2  0
 25 27  1  0
 25 24  1  0
 26 25  2  0
 28 27  1  1
 28 30  1  0
 28 29  1  0
 29 22  1  0
 30 32  1  0
 31 30  2  0
M  END
$$$$
