WQN.pdb
     RDKit          3D

 32 33  0  0  1  0  0  0  0  0999 V2000
   24.5596  -19.3301  -17.3325 N   0  0  0  0  0  0  0  0  0  0  0  0
   23.1786  -19.2795  -16.8903 C   0  0  1  0  0  0  0  0  0  0  0  0
   22.3435  -19.7611  -18.0624 C   0  0  0  0  0  0  0  0  0  0  0  0
   22.3503  -18.7652  -19.1633 C   0  0  0  0  0  0  0  0  0  0  0  0
   22.9587  -18.8953  -20.4169 C   0  0  0  0  0  0  0  0  0  0  0  0
   22.7525  -17.7897  -21.1428 N   0  0  0  0  0  0  0  0  0  0  0  0
   22.0166  -16.9028  -20.4173 C   0  0  0  0  0  0  0  0  0  0  0  0
   21.5545  -15.6434  -20.7247 C   0  0  0  0  0  0  0  0  0  0  0  0
   20.8161  -14.9422  -19.7936 C   0  0  0  0  0  0  0  0  0  0  0  0
   20.5724  -15.5489  -18.5776 C   0  0  0  0  0  0  0  0  0  0  0  0
   21.0368  -16.8102  -18.2734 C   0  0  0  0  0  0  0  0  0  0  0  0
   21.7703  -17.5090  -19.1958 C   0  0  0  0  0  0  0  0  0  0  0  0
   23.0382  -20.1552  -15.7163 C   0  0  0  0  0  0  0  0  0  0  0  0
   23.7812  -21.1620  -15.5804 O   0  0  0  0  0  0  0  0  0  0  0  0
   20.8225  -18.4774  -10.1086 N   0  0  0  0  0  0  0  0  0  0  0  0
   21.1960  -19.8172   -9.8655 C   0  0  0  0  0  0  0  0  0  0  0  0
   21.1577  -20.2660   -8.7025 O   0  0  0  0  0  0  0  0  0  0  0  0
   21.6306  -20.6755  -11.0019 C   0  0  0  0  0  0  0  0  0  0  0  0
   21.6360  -19.9163  -12.2941 C   0  0  0  0  0  0  0  0  0  0  0  0
   22.0391  -20.7374  -13.4707 C   0  0  2  0  0  0  0  0  0  0  0  0
   22.0713  -19.9164  -14.6882 N   0  0  0  0  0  0  0  0  0  0  0  0
   21.1494  -21.8716  -13.7888 C   0  0  0  0  0  0  0  0  0  0  0  0
   21.5333  -23.0414  -13.5606 O   0  0  0  0  0  0  0  0  0  0  0  0
   18.7888  -25.0049  -14.3892 N   0  0  0  0  0  0  0  0  0  0  0  0
   19.0011  -24.6725  -13.0161 C   0  0  0  0  0  0  0  0  0  0  0  0
   19.2006  -25.6309  -12.2333 O   0  0  0  0  0  0  0  0  0  0  0  0
   18.9664  -23.2443  -12.6473 C   0  0  0  0  0  0  0  0  0  0  0  0
   18.6705  -22.4176  -13.8501 C   0  0  2  0  0  0  0  0  0  0  0  0
   19.8594  -21.7280  -14.3478 N   0  0  0  0  0  0  0  0  0  0  0  0
   17.5696  -21.4926  -13.5909 C   0  0  0  0  0  0  0  0  0  0  0  0
   17.6832  -20.7497  -12.5547 O   0  0  0  0  0  0  0  0  0  0  0  0
   16.4298  -21.3236  -14.3237 O   0  0  0  0  0  0  0  0  0  0  0  0
  2  1  1  6
  3  2  1  0
  4  3  1  0
  5  4  2  0
  6  7  1  0
  6  5  1  0
  7 12  2  0
  8  7  1  0
  8  9  2  0
  9 10  1  0
 10 11  2  0
 12  4  1  0
 12 11  1  0
 13  2  1  0
 14 13  2  0
 16 17  2  0
 16 15  1  0
 18 16  1  0
 19 18  1  0
 20 19  1  1
 20 21  1  0
 21 13  1  0
 22 20  1  0
 23 22  2  0
 25 27  1  0
 25 24  1  0
 26 25  2  0
 28 27  1  1
 28 30  1  0
 28 29  1  0
 29 22  1  0
 30 32  1  0
 31 30  2  0
M  END
$$$$
