WQN.pdb
     RDKit          3D

 32 33  0  0  1  0  0  0  0  0999 V2000
   25.5779  -18.3999  -17.5695 N   0  0  0  0  0  0  0  0  0  0  0  0
   25.1092  -18.1389  -16.2214 C   0  0  1  0  0  0  0  0  0  0  0  0
   24.0890  -17.0216  -16.3395 C   0  0  0  0  0  0  0  0  0  0  0  0
   24.7339  -15.7585  -16.7780 C   0  0  0  0  0  0  0  0  0  0  0  0
   24.3701  -14.9572  -17.8662 C   0  0  0  0  0  0  0  0  0  0  0  0
   25.1859  -13.8991  -17.9486 N   0  0  0  0  0  0  0  0  0  0  0  0
   26.1018  -13.9545  -16.9425 C   0  0  0  0  0  0  0  0  0  0  0  0
   27.1348  -13.1081  -16.6099 C   0  0  0  0  0  0  0  0  0  0  0  0
   27.9304  -13.3988  -15.5207 C   0  0  0  0  0  0  0  0  0  0  0  0
   27.6463  -14.5447  -14.8048 C   0  0  0  0  0  0  0  0  0  0  0  0
   26.6110  -15.3898  -15.1410 C   0  0  0  0  0  0  0  0  0  0  0  0
   25.8193  -15.1040  -16.2220 C   0  0  0  0  0  0  0  0  0  0  0  0
   24.5135  -19.3761  -15.6929 C   0  0  0  0  0  0  0  0  0  0  0  0
   24.0283  -20.2341  -16.4756 O   0  0  0  0  0  0  0  0  0  0  0  0
   26.2620  -22.1318  -10.5040 N   0  0  0  0  0  0  0  0  0  0  0  0
   25.3654  -21.0632  -10.2853 C   0  0  0  0  0  0  0  0  0  0  0  0
   25.2591  -20.5722   -9.1438 O   0  0  0  0  0  0  0  0  0  0  0  0
   24.5592  -20.5376  -11.4214 C   0  0  0  0  0  0  0  0  0  0  0  0
   24.6599  -21.4255  -12.6247 C   0  0  0  0  0  0  0  0  0  0  0  0
   23.8912  -20.9304  -13.8016 C   0  0  2  0  0  0  0  0  0  0  0  0
   24.4539  -19.6655  -14.2923 N   0  0  0  0  0  0  0  0  0  0  0  0
   22.4624  -20.6521  -13.5560 C   0  0  0  0  0  0  0  0  0  0  0  0
   22.0404  -19.4754  -13.6282 O   0  0  0  0  0  0  0  0  0  0  0  0
   17.6512  -19.6152  -12.9074 N   0  0  0  0  0  0  0  0  0  0  0  0
   18.1168  -20.3145  -14.0630 C   0  0  0  0  0  0  0  0  0  0  0  0
   17.2409  -20.7110  -14.8671 O   0  0  0  0  0  0  0  0  0  0  0  0
   19.5732  -20.5049  -14.2037 C   0  0  0  0  0  0  0  0  0  0  0  0
   20.0743  -21.3968  -13.1215 C   0  0  2  0  0  0  0  0  0  0  0  0
   21.5100  -21.6461  -13.2368 N   0  0  0  0  0  0  0  0  0  0  0  0
   19.3056  -22.6383  -13.0694 C   0  0  0  0  0  0  0  0  0  0  0  0
   19.7048  -23.5866  -13.8310 O   0  0  0  0  0  0  0  0  0  0  0  0
   18.2089  -22.9107  -12.3028 O   0  0  0  0  0  0  0  0  0  0  0  0
  2  1  1  6
  3  2  1  0
  4  3  1  0
  5  4  2  0
  6  7  1  0
  6  5  1  0
  7 12  2  0
  8  7  1  0
  8  9  2  0
  9 10  1  0
 10 11  2  0
 12  4  1  0
 12 11  1  0
 13  2  1  0
 14 13  2  0
 16 17  2  0
 16 15  1  0
 18 16  1  0
 19 18  1  0
 20 19  1  1
 20 21  1  0
 21 13  1  0
 22 20  1  0
 23 22  2  0
 25 27  1  0
 25 24  1  0
 26 25  2  0
 28 27  1  6
 28 30  1  0
 28 29  1  0
 29 22  1  0
 30 32  1  0
 31 30  2  0
M  END
$$$$
