WQN.pdb
     RDKit          3D

 32 33  0  0  1  0  0  0  0  0999 V2000
   27.9544  -21.9305  -11.4651 N   0  0  0  0  0  0  0  0  0  0  0  0
   26.8000  -21.2030  -10.9718 C   0  0  1  0  0  0  0  0  0  0  0  0
   27.3319  -19.8919  -10.4228 C   0  0  0  0  0  0  0  0  0  0  0  0
   28.2387  -20.1279   -9.2713 C   0  0  0  0  0  0  0  0  0  0  0  0
   29.5484  -20.6194   -9.3137 C   0  0  0  0  0  0  0  0  0  0  0  0
   30.0481  -20.6984   -8.0745 N   0  0  0  0  0  0  0  0  0  0  0  0
   29.1124  -20.2727   -7.1813 C   0  0  0  0  0  0  0  0  0  0  0  0
   29.1508  -20.1678   -5.8095 C   0  0  0  0  0  0  0  0  0  0  0  0
   28.0457  -19.6969   -5.1309 C   0  0  0  0  0  0  0  0  0  0  0  0
   26.9357  -19.3476   -5.8739 C   0  0  0  0  0  0  0  0  0  0  0  0
   26.9011  -19.4540   -7.2474 C   0  0  0  0  0  0  0  0  0  0  0  0
   27.9968  -19.9213   -7.9243 C   0  0  0  0  0  0  0  0  0  0  0  0
   25.8721  -20.9948  -12.0944 C   0  0  0  0  0  0  0  0  0  0  0  0
   26.3116  -20.8419  -13.2638 O   0  0  0  0  0  0  0  0  0  0  0  0
   23.2323  -24.1558  -15.4578 N   0  0  0  0  0  0  0  0  0  0  0  0
   24.4446  -24.2516  -14.7405 C   0  0  0  0  0  0  0  0  0  0  0  0
   25.3832  -24.9290  -15.2048 O   0  0  0  0  0  0  0  0  0  0  0  0
   24.5852  -23.5420  -13.4391 C   0  0  0  0  0  0  0  0  0  0  0  0
   23.3428  -22.7791  -13.0914 C   0  0  0  0  0  0  0  0  0  0  0  0
   23.5438  -21.3040  -13.0236 C   0  0  2  0  0  0  0  0  0  0  0  0
   24.4515  -20.9554  -11.9227 N   0  0  0  0  0  0  0  0  0  0  0  0
   22.3236  -20.5065  -12.7900 C   0  0  0  0  0  0  0  0  0  0  0  0
   21.6897  -20.6456  -11.7192 O   0  0  0  0  0  0  0  0  0  0  0  0
   18.4648  -17.2801  -13.0515 N   0  0  0  0  0  0  0  0  0  0  0  0
   19.1643  -16.9860  -14.2619 C   0  0  0  0  0  0  0  0  0  0  0  0
   18.7064  -16.0503  -14.9590 O   0  0  0  0  0  0  0  0  0  0  0  0
   20.3513  -17.8031  -14.5790 C   0  0  0  0  0  0  0  0  0  0  0  0
   20.5759  -18.8087  -13.5038 C   0  0  2  0  0  0  0  0  0  0  0  0
   21.8053  -19.5710  -13.7138 N   0  0  0  0  0  0  0  0  0  0  0  0
   19.4120  -19.6785  -13.3501 C   0  0  0  0  0  0  0  0  0  0  0  0
   19.3208  -20.6566  -14.1708 O   0  0  0  0  0  0  0  0  0  0  0  0
   18.4061  -19.5742  -12.4326 O   0  0  0  0  0  0  0  0  0  0  0  0
  2  1  1  6
  3  2  1  0
  4  3  1  0
  5  4  2  0
  6  7  1  0
  6  5  1  0
  7 12  2  0
  8  7  1  0
  8  9  2  0
  9 10  1  0
 10 11  2  0
 12  4  1  0
 12 11  1  0
 13  2  1  0
 14 13  2  0
 16 17  2  0
 16 15  1  0
 18 16  1  0
 19 18  1  0
 20 19  1  1
 20 21  1  0
 21 13  1  0
 22 20  1  0
 23 22  2  0
 25 27  1  0
 25 24  1  0
 26 25  2  0
 28 27  1  6
 28 30  1  0
 28 29  1  0
 29 22  1  0
 30 32  1  0
 31 30  2  0
M  END
$$$$
