WQN.pdb
     RDKit          3D

 32 33  0  0  1  0  0  0  0  0999 V2000
   25.3779  -19.8658  -16.9262 N   0  0  0  0  0  0  0  0  0  0  0  0
   25.5572  -19.4166  -15.5583 C   0  0  1  0  0  0  0  0  0  0  0  0
   25.1012  -17.9695  -15.5273 C   0  0  0  0  0  0  0  0  0  0  0  0
   26.0349  -17.1025  -16.2892 C   0  0  0  0  0  0  0  0  0  0  0  0
   25.7061  -15.9938  -17.0774 C   0  0  0  0  0  0  0  0  0  0  0  0
   26.8148  -15.4659  -17.6101 N   0  0  0  0  0  0  0  0  0  0  0  0
   27.8978  -16.1859  -17.2066 C   0  0  0  0  0  0  0  0  0  0  0  0
   29.2380  -16.0386  -17.4829 C   0  0  0  0  0  0  0  0  0  0  0  0
   30.1476  -16.9204  -16.9361 C   0  0  0  0  0  0  0  0  0  0  0  0
   29.6604  -17.9251  -16.1241 C   0  0  0  0  0  0  0  0  0  0  0  0
   28.3177  -18.0694  -15.8497 C   0  0  0  0  0  0  0  0  0  0  0  0
   27.4120  -17.1955  -16.3911 C   0  0  0  0  0  0  0  0  0  0  0  0
   24.7409  -20.2711  -14.6818 C   0  0  0  0  0  0  0  0  0  0  0  0
   23.9059  -21.0742  -15.1736 O   0  0  0  0  0  0  0  0  0  0  0  0
   26.1242  -19.7641   -9.2233 N   0  0  0  0  0  0  0  0  0  0  0  0
   26.7723  -20.7799   -9.9594 C   0  0  0  0  0  0  0  0  0  0  0  0
   27.9987  -20.9565   -9.8174 O   0  0  0  0  0  0  0  0  0  0  0  0
   25.9817  -21.6261  -10.8953 C   0  0  0  0  0  0  0  0  0  0  0  0
   24.5680  -21.1423  -11.0138 C   0  0  0  0  0  0  0  0  0  0  0  0
   24.0510  -21.1369  -12.4115 C   0  0  2  0  0  0  0  0  0  0  0  0
   24.8484  -20.2368  -13.2548 N   0  0  0  0  0  0  0  0  0  0  0  0
   22.6546  -20.6851  -12.5707 C   0  0  0  0  0  0  0  0  0  0  0  0
   22.3507  -19.5041  -12.2864 O   0  0  0  0  0  0  0  0  0  0  0  0
   18.1441  -19.0605  -15.2107 N   0  0  0  0  0  0  0  0  0  0  0  0
   18.5101  -20.3732  -14.7820 C   0  0  0  0  0  0  0  0  0  0  0  0
   17.5703  -21.1772  -14.5788 O   0  0  0  0  0  0  0  0  0  0  0  0
   19.9481  -20.6608  -14.6186 C   0  0  0  0  0  0  0  0  0  0  0  0
   20.2274  -21.0637  -13.2124 C   0  0  2  0  0  0  0  0  0  0  0  0
   21.6070  -21.5127  -13.0342 N   0  0  0  0  0  0  0  0  0  0  0  0
   19.2636  -22.0611  -12.7531 C   0  0  0  0  0  0  0  0  0  0  0  0
   19.5898  -23.2873  -12.9225 O   0  0  0  0  0  0  0  0  0  0  0  0
   18.0522  -21.8427  -12.1620 O   0  0  0  0  0  0  0  0  0  0  0  0
  2  1  1  6
  3  2  1  0
  4  3  1  0
  5  4  2  0
  6  7  1  0
  6  5  1  0
  7 12  2  0
  8  7  1  0
  8  9  2  0
  9 10  1  0
 10 11  2  0
 12  4  1  0
 12 11  1  0
 13  2  1  0
 14 13  2  0
 16 17  2  0
 16 15  1  0
 18 16  1  0
 19 18  1  0
 20 19  1  1
 20 21  1  0
 21 13  1  0
 22 20  1  0
 23 22  2  0
 25 27  1  0
 25 24  1  0
 26 25  2  0
 28 27  1  6
 28 30  1  0
 28 29  1  0
 29 22  1  0
 30 32  1  0
 31 30  2  0
M  END
$$$$
