WQN.pdb
     RDKit          3D

 32 33  0  0  1  0  0  0  0  0999 V2000
   27.9101  -20.3828   -9.5400 N   0  0  0  0  0  0  0  0  0  0  0  0
   26.6410  -21.0749   -9.4160 C   0  0  1  0  0  0  0  0  0  0  0  0
   25.9763  -20.5156   -8.1717 C   0  0  0  0  0  0  0  0  0  0  0  0
   26.9811  -19.9193   -7.2559 C   0  0  0  0  0  0  0  0  0  0  0  0
   27.5025  -18.6214   -7.3030 C   0  0  0  0  0  0  0  0  0  0  0  0
   28.3879  -18.4475   -6.3142 N   0  0  0  0  0  0  0  0  0  0  0  0
   28.4873  -19.5957   -5.5888 C   0  0  0  0  0  0  0  0  0  0  0  0
   29.2529  -19.9092   -4.4889 C   0  0  0  0  0  0  0  0  0  0  0  0
   29.1641  -21.1691   -3.9334 C   0  0  0  0  0  0  0  0  0  0  0  0
   28.2962  -22.0696   -4.5181 C   0  0  0  0  0  0  0  0  0  0  0  0
   27.5312  -21.7520   -5.6195 C   0  0  0  0  0  0  0  0  0  0  0  0
   27.6172  -20.5018   -6.1735 C   0  0  0  0  0  0  0  0  0  0  0  0
   25.8514  -20.8108  -10.6292 C   0  0  0  0  0  0  0  0  0  0  0  0
   25.7777  -19.6458  -11.0998 O   0  0  0  0  0  0  0  0  0  0  0  0
   25.3976  -24.7914  -15.2719 N   0  0  0  0  0  0  0  0  0  0  0  0
   26.1250  -23.5979  -15.4726 C   0  0  0  0  0  0  0  0  0  0  0  0
   26.9880  -23.5463  -16.3715 O   0  0  0  0  0  0  0  0  0  0  0  0
   25.8510  -22.4174  -14.6076 C   0  0  0  0  0  0  0  0  0  0  0  0
   24.8163  -22.7254  -13.5679 C   0  0  0  0  0  0  0  0  0  0  0  0
   24.5399  -21.5908  -12.6420 C   0  0  2  0  0  0  0  0  0  0  0  0
   25.1400  -21.8399  -11.3247 N   0  0  0  0  0  0  0  0  0  0  0  0
   23.1132  -21.3211  -12.3757 C   0  0  0  0  0  0  0  0  0  0  0  0
   22.4654  -22.0952  -11.6348 O   0  0  0  0  0  0  0  0  0  0  0  0
   18.6594  -17.5645  -12.1734 N   0  0  0  0  0  0  0  0  0  0  0  0
   19.0723  -18.5450  -13.1268 C   0  0  0  0  0  0  0  0  0  0  0  0
   18.1603  -19.1800  -13.7066 O   0  0  0  0  0  0  0  0  0  0  0  0
   20.5218  -18.7200  -13.3406 C   0  0  0  0  0  0  0  0  0  0  0  0
   20.9775  -19.9888  -12.7080 C   0  0  2  0  0  0  0  0  0  0  0  0
   22.4063  -20.2210  -12.9115 N   0  0  0  0  0  0  0  0  0  0  0  0
   20.1694  -21.1186  -13.1611 C   0  0  0  0  0  0  0  0  0  0  0  0
   20.4951  -21.6358  -14.2858 O   0  0  0  0  0  0  0  0  0  0  0  0
   19.1048  -21.6923  -12.5270 O   0  0  0  0  0  0  0  0  0  0  0  0
  2  1  1  6
  3  2  1  0
  4  3  1  0
  5  4  2  0
  6  7  1  0
  6  5  1  0
  7 12  2  0
  8  7  1  0
  8  9  2  0
  9 10  1  0
 10 11  2  0
 12  4  1  0
 12 11  1  0
 13  2  1  0
 14 13  2  0
 16 17  2  0
 16 15  1  0
 18 16  1  0
 19 18  1  0
 20 19  1  6
 20 21  1  0
 21 13  1  0
 22 20  1  0
 23 22  2  0
 25 27  1  0
 25 24  1  0
 26 25  2  0
 28 27  1  6
 28 30  1  0
 28 29  1  0
 29 22  1  0
 30 32  1  0
 31 30  2  0
M  END
$$$$
