WQN.pdb
     RDKit          3D

 32 33  0  0  1  0  0  0  0  0999 V2000
   25.0303  -14.5007  -16.7606 N   0  0  0  0  0  0  0  0  0  0  0  0
   25.5442  -15.6274  -16.0046 C   0  0  1  0  0  0  0  0  0  0  0  0
   26.5080  -15.0465  -14.9864 C   0  0  0  0  0  0  0  0  0  0  0  0
   27.6852  -14.4391  -15.6565 C   0  0  0  0  0  0  0  0  0  0  0  0
   28.1197  -13.1120  -15.5627 C   0  0  0  0  0  0  0  0  0  0  0  0
   29.2160  -12.9353  -16.3101 N   0  0  0  0  0  0  0  0  0  0  0  0
   29.5451  -14.1099  -16.9155 C   0  0  0  0  0  0  0  0  0  0  0  0
   30.5757  -14.4318  -17.7689 C   0  0  0  0  0  0  0  0  0  0  0  0
   30.6858  -15.7207  -18.2488 C   0  0  0  0  0  0  0  0  0  0  0  0
   29.7402  -16.6409  -17.8423 C   0  0  0  0  0  0  0  0  0  0  0  0
   28.7096  -16.3147  -16.9876 C   0  0  0  0  0  0  0  0  0  0  0  0
   28.5975  -15.0357  -16.5094 C   0  0  0  0  0  0  0  0  0  0  0  0
   24.4086  -16.3085  -15.3631 C   0  0  0  0  0  0  0  0  0  0  0  0
   23.4429  -15.6433  -14.9060 O   0  0  0  0  0  0  0  0  0  0  0  0
   19.8073  -17.5599  -17.2137 N   0  0  0  0  0  0  0  0  0  0  0  0
   19.5643  -18.3829  -16.0924 C   0  0  0  0  0  0  0  0  0  0  0  0
   18.4293  -18.8703  -15.9205 O   0  0  0  0  0  0  0  0  0  0  0  0
   20.6674  -18.6570  -15.1307 C   0  0  0  0  0  0  0  0  0  0  0  0
   21.9457  -18.0014  -15.5581 C   0  0  0  0  0  0  0  0  0  0  0  0
   23.1244  -18.3903  -14.7332 C   0  0  2  0  0  0  0  0  0  0  0  0
   24.3411  -17.7317  -15.2265 N   0  0  0  0  0  0  0  0  0  0  0  0
   23.4408  -19.8321  -14.7169 C   0  0  0  0  0  0  0  0  0  0  0  0
   22.8273  -20.6084  -15.4843 O   0  0  0  0  0  0  0  0  0  0  0  0
   25.8599  -21.9863  -10.8302 N   0  0  0  0  0  0  0  0  0  0  0  0
   25.5451  -20.6156  -10.5791 C   0  0  0  0  0  0  0  0  0  0  0  0
   26.1305  -20.0758   -9.6111 O   0  0  0  0  0  0  0  0  0  0  0  0
   24.5682  -19.9656  -11.4737 C   0  0  0  0  0  0  0  0  0  0  0  0
   24.1358  -20.9210  -12.5311 C   0  0  2  0  0  0  0  0  0  0  0  0
   24.4137  -20.4155  -13.8742 N   0  0  0  0  0  0  0  0  0  0  0  0
   22.7309  -21.2857  -12.3633 C   0  0  0  0  0  0  0  0  0  0  0  0
   21.8711  -20.3780  -12.6379 O   0  0  0  0  0  0  0  0  0  0  0  0
   22.2221  -22.4829  -11.9480 O   0  0  0  0  0  0  0  0  0  0  0  0
  2  1  1  6
  3  2  1  0
  4  3  1  0
  5  4  2  0
  6  7  1  0
  6  5  1  0
  7 12  2  0
  8  7  1  0
  8  9  2  0
  9 10  1  0
 10 11  2  0
 12  4  1  0
 12 11  1  0
 13  2  1  0
 14 13  2  0
 16 17  2  0
 16 15  1  0
 18 16  1  0
 19 18  1  0
 20 19  1  6
 20 21  1  0
 21 13  1  0
 22 20  1  0
 23 22  2  0
 25 27  1  0
 25 24  1  0
 26 25  2  0
 28 27  1  1
 28 30  1  0
 28 29  1  0
 29 22  1  0
 30 32  1  0
 31 30  2  0
M  END
$$$$
