WQN.pdb
     RDKit          3D

 32 33  0  0  1  0  0  0  0  0999 V2000
   25.8193  -21.1534  -18.2697 N   0  0  0  0  0  0  0  0  0  0  0  0
   25.0737  -20.1301  -17.5612 C   0  0  1  0  0  0  0  0  0  0  0  0
   23.8949  -19.7772  -18.4495 C   0  0  0  0  0  0  0  0  0  0  0  0
   24.3345  -18.9811  -19.6228 C   0  0  0  0  0  0  0  0  0  0  0  0
   25.6350  -18.5551  -19.9159 C   0  0  0  0  0  0  0  0  0  0  0  0
   25.6418  -17.8576  -21.0584 N   0  0  0  0  0  0  0  0  0  0  0  0
   24.3763  -17.7941  -21.5572 C   0  0  0  0  0  0  0  0  0  0  0  0
   23.8790  -17.1970  -22.6932 C   0  0  0  0  0  0  0  0  0  0  0  0
   22.5308  -17.2829  -22.9738 C   0  0  0  0  0  0  0  0  0  0  0  0
   21.7323  -17.9759  -22.0859 C   0  0  0  0  0  0  0  0  0  0  0  0
   22.2340  -18.5725  -20.9495 C   0  0  0  0  0  0  0  0  0  0  0  0
   23.5722  -18.4890  -20.6680 C   0  0  0  0  0  0  0  0  0  0  0  0
   24.6432  -20.6853  -16.2684 C   0  0  0  0  0  0  0  0  0  0  0  0
   24.0578  -21.7983  -16.2166 O   0  0  0  0  0  0  0  0  0  0  0  0
   26.0480  -22.1195  -11.4787 N   0  0  0  0  0  0  0  0  0  0  0  0
   25.0097  -21.4928  -10.7555 C   0  0  0  0  0  0  0  0  0  0  0  0
   24.6096  -21.9994   -9.6884 O   0  0  0  0  0  0  0  0  0  0  0  0
   24.4072  -20.2353  -11.2777 C   0  0  0  0  0  0  0  0  0  0  0  0
   24.9944  -19.8526  -12.6025 C   0  0  0  0  0  0  0  0  0  0  0  0
   24.3907  -20.5754  -13.7576 C   0  0  2  0  0  0  0  0  0  0  0  0
   24.8611  -20.0062  -15.0273 N   0  0  0  0  0  0  0  0  0  0  0  0
   22.9171  -20.5332  -13.8337 C   0  0  0  0  0  0  0  0  0  0  0  0
   22.3433  -19.4572  -14.1179 O   0  0  0  0  0  0  0  0  0  0  0  0
   18.0015  -21.7411  -14.7671 N   0  0  0  0  0  0  0  0  0  0  0  0
   18.5355  -22.7722  -13.9350 C   0  0  0  0  0  0  0  0  0  0  0  0
   17.7045  -23.4796  -13.3184 O   0  0  0  0  0  0  0  0  0  0  0  0
   20.0035  -22.9097  -13.8771 C   0  0  0  0  0  0  0  0  0  0  0  0
   20.6240  -21.5911  -13.5707 C   0  0  2  0  0  0  0  0  0  0  0  0
   22.0841  -21.6512  -13.6027 N   0  0  0  0  0  0  0  0  0  0  0  0
   20.1257  -21.0606  -12.3038 C   0  0  0  0  0  0  0  0  0  0  0  0
   20.7969  -21.3642  -11.2569 O   0  0  0  0  0  0  0  0  0  0  0  0
   19.0265  -20.2763  -12.1006 O   0  0  0  0  0  0  0  0  0  0  0  0
  2  1  1  6
  3  2  1  0
  4  3  1  0
  5  4  2  0
  6  7  1  0
  6  5  1  0
  7 12  2  0
  8  7  1  0
  8  9  2  0
  9 10  1  0
 10 11  2  0
 12  4  1  0
 12 11  1  0
 13  2  1  0
 14 13  2  0
 16 17  2  0
 16 15  1  0
 18 16  1  0
 19 18  1  0
 20 19  1  1
 20 21  1  0
 21 13  1  0
 22 20  1  0
 23 22  2  0
 25 27  1  0
 25 24  1  0
 26 25  2  0
 28 27  1  1
 28 30  1  0
 28 29  1  0
 29 22  1  0
 30 32  1  0
 31 30  2  0
M  END
$$$$
