WQN.pdb
     RDKit          3D

 32 33  0  0  1  0  0  0  0  0999 V2000
   19.1277   -5.2641  -12.8813 N   0  0  0  0  0  0  0  0  0  0  0  0
   19.2391   -6.7023  -13.0363 C   0  0  1  0  0  0  0  0  0  0  0  0
   18.7399   -7.3056  -11.7363 C   0  0  0  0  0  0  0  0  0  0  0  0
   19.7513   -7.1574  -10.6597 C   0  0  0  0  0  0  0  0  0  0  0  0
   19.6763   -6.3229   -9.5387 C   0  0  0  0  0  0  0  0  0  0  0  0
   20.7790   -6.4589   -8.7922 N   0  0  0  0  0  0  0  0  0  0  0  0
   21.6102   -7.3672   -9.3741 C   0  0  0  0  0  0  0  0  0  0  0  0
   22.8451   -7.8401   -8.9925 C   0  0  0  0  0  0  0  0  0  0  0  0
   23.4875   -8.7774   -9.7752 C   0  0  0  0  0  0  0  0  0  0  0  0
   22.8490   -9.2027  -10.9231 C   0  0  0  0  0  0  0  0  0  0  0  0
   21.6124   -8.7268  -11.3018 C   0  0  0  0  0  0  0  0  0  0  0  0
   20.9719   -7.7960  -10.5268 C   0  0  0  0  0  0  0  0  0  0  0  0
   18.4138   -7.1075  -14.1850 C   0  0  0  0  0  0  0  0  0  0  0  0
   17.3910   -6.4448  -14.4994 O   0  0  0  0  0  0  0  0  0  0  0  0
   20.1064   -9.7630  -19.4658 N   0  0  0  0  0  0  0  0  0  0  0  0
   18.7087   -9.9333  -19.5720 C   0  0  0  0  0  0  0  0  0  0  0  0
   18.2104  -10.2688  -20.6649 O   0  0  0  0  0  0  0  0  0  0  0  0
   17.8494   -9.7096  -18.3768 C   0  0  0  0  0  0  0  0  0  0  0  0
   18.6602   -9.2964  -17.1858 C   0  0  0  0  0  0  0  0  0  0  0  0
   17.8592   -8.6432  -16.1121 C   0  0  2  0  0  0  0  0  0  0  0  0
   18.7211   -8.2509  -14.9894 N   0  0  0  0  0  0  0  0  0  0  0  0
   16.7970   -9.4768  -15.5154 C   0  0  0  0  0  0  0  0  0  0  0  0
   17.0942  -10.3288  -14.6472 O   0  0  0  0  0  0  0  0  0  0  0  0
   11.2631  -10.2012  -16.9347 N   0  0  0  0  0  0  0  0  0  0  0  0
   12.5651   -9.6425  -16.7510 C   0  0  0  0  0  0  0  0  0  0  0  0
   13.2037   -9.3590  -17.7916 O   0  0  0  0  0  0  0  0  0  0  0  0
   13.0357   -9.4517  -15.3656 C   0  0  0  0  0  0  0  0  0  0  0  0
   14.3600  -10.1086  -15.1856 C   0  0  2  0  0  0  0  0  0  0  0  0
   15.4307   -9.3795  -15.8630 N   0  0  0  0  0  0  0  0  0  0  0  0
   14.3083  -11.5103  -15.5950 C   0  0  0  0  0  0  0  0  0  0  0  0
   14.9618  -11.8184  -16.6518 O   0  0  0  0  0  0  0  0  0  0  0  0
   13.6452  -12.5356  -14.9838 O   0  0  0  0  0  0  0  0  0  0  0  0
  2  1  1  1
  3  2  1  0
  4  3  1  0
  5  4  2  0
  6  7  1  0
  6  5  1  0
  7 12  2  0
  8  7  1  0
  8  9  2  0
  9 10  1  0
 10 11  2  0
 12  4  1  0
 12 11  1  0
 13  2  1  0
 14 13  2  0
 16 17  2  0
 16 15  1  0
 18 16  1  0
 19 18  1  0
 20 19  1  6
 20 21  1  0
 21 13  1  0
 22 20  1  0
 23 22  2  0
 25 27  1  0
 25 24  1  0
 26 25  2  0
 28 27  1  6
 28 30  1  0
 28 29  1  0
 29 22  1  0
 30 32  1  0
 31 30  2  0
M  END
$$$$
