WQN.pdb
     RDKit          3D

 32 33  0  0  1  0  0  0  0  0999 V2000
   28.1128  -21.5193  -10.2694 N   0  0  0  0  0  0  0  0  0  0  0  0
   26.7400  -21.1969   -9.9281 C   0  0  1  0  0  0  0  0  0  0  0  0
   26.8136  -20.1684   -8.8145 C   0  0  0  0  0  0  0  0  0  0  0  0
   27.9922  -20.4112   -7.9451 C   0  0  0  0  0  0  0  0  0  0  0  0
   29.1776  -21.0690   -8.2926 C   0  0  0  0  0  0  0  0  0  0  0  0
   30.0101  -21.0963   -7.2448 N   0  0  0  0  0  0  0  0  0  0  0  0
   29.4245  -20.4727   -6.1852 C   0  0  0  0  0  0  0  0  0  0  0  0
   29.8750  -20.2468   -4.9045 C   0  0  0  0  0  0  0  0  0  0  0  0
   29.0693  -19.5767   -4.0069 C   0  0  0  0  0  0  0  0  0  0  0  0
   27.8288  -19.1580   -4.4449 C   0  0  0  0  0  0  0  0  0  0  0  0
   27.3812  -19.3860   -5.7282 C   0  0  0  0  0  0  0  0  0  0  0  0
   28.1787  -20.0512   -6.6218 C   0  0  0  0  0  0  0  0  0  0  0  0
   26.0797  -20.6627  -11.1295 C   0  0  0  0  0  0  0  0  0  0  0  0
   26.7573  -20.1177  -12.0394 O   0  0  0  0  0  0  0  0  0  0  0  0
   25.2566  -24.3595  -14.6613 N   0  0  0  0  0  0  0  0  0  0  0  0
   24.2375  -23.5980  -15.2738 C   0  0  0  0  0  0  0  0  0  0  0  0
   23.7006  -24.0153  -16.3193 O   0  0  0  0  0  0  0  0  0  0  0  0
   23.8184  -22.3067  -14.6624 C   0  0  0  0  0  0  0  0  0  0  0  0
   24.5018  -22.0722  -13.3493 C   0  0  0  0  0  0  0  0  0  0  0  0
   24.0861  -20.8107  -12.6734 C   0  0  2  0  0  0  0  0  0  0  0  0
   24.6633  -20.7314  -11.3251 N   0  0  0  0  0  0  0  0  0  0  0  0
   22.6319  -20.6398  -12.4855 C   0  0  0  0  0  0  0  0  0  0  0  0
   22.0125  -21.4127  -11.7194 O   0  0  0  0  0  0  0  0  0  0  0  0
   17.8076  -17.0138  -14.0306 N   0  0  0  0  0  0  0  0  0  0  0  0
   18.5201  -18.0165  -13.3040 C   0  0  0  0  0  0  0  0  0  0  0  0
   17.9123  -18.5516  -12.3472 O   0  0  0  0  0  0  0  0  0  0  0  0
   19.8943  -18.3282  -13.7415 C   0  0  0  0  0  0  0  0  0  0  0  0
   20.4224  -19.4852  -12.9666 C   0  0  2  0  0  0  0  0  0  0  0  0
   21.8673  -19.6385  -13.1258 N   0  0  0  0  0  0  0  0  0  0  0  0
   19.7016  -20.7113  -13.3013 C   0  0  0  0  0  0  0  0  0  0  0  0
   20.1244  -21.3588  -14.3214 O   0  0  0  0  0  0  0  0  0  0  0  0
   18.6277  -21.2526  -12.6545 O   0  0  0  0  0  0  0  0  0  0  0  0
  2  1  1  6
  3  2  1  0
  4  3  1  0
  5  4  2  0
  6  7  1  0
  6  5  1  0
  7 12  2  0
  8  7  1  0
  8  9  2  0
  9 10  1  0
 10 11  2  0
 12  4  1  0
 12 11  1  0
 13  2  1  0
 14 13  2  0
 16 17  2  0
 16 15  1  0
 18 16  1  0
 19 18  1  0
 20 19  1  1
 20 21  1  0
 21 13  1  0
 22 20  1  0
 23 22  2  0
 25 27  1  0
 25 24  1  0
 26 25  2  0
 28 27  1  6
 28 30  1  0
 28 29  1  0
 29 22  1  0
 30 32  1  0
 31 30  2  0
M  END
$$$$
