TEP.pdb
     RDKit          3D

 24 24  0  0  1  0  0  0  0  0999 V2000
    8.9976  -12.9656   20.7634 C   0  0  0  0  0  0  0  0  0  0  0  0
    7.9234  -13.4488   19.8468 C   0  0  1  0  0  0  0  0  0  0  0  0
    8.3154  -13.2847   18.5102 O   0  0  0  0  0  0  0  0  0  0  0  0
    7.6167  -14.9003   20.1514 C   0  0  2  0  0  0  0  0  0  0  0  0
    6.6191  -15.4514   19.2932 N   0  0  0  0  0  0  0  0  0  0  0  0
    7.2734  -14.9809   21.5910 C   0  0  0  0  0  0  0  0  0  0  0  0
    6.0955  -14.6239   21.8882 O   0  0  0  0  0  0  0  0  0  0  0  0
    8.1790  -15.4226   22.5872 N   0  0  0  0  0  0  0  0  0  0  0  0
    7.6604  -15.6733   23.9078 C   0  0  1  0  0  0  0  0  0  0  0  0
    7.5431  -17.1354   24.2144 C   0  0  0  0  0  0  0  0  0  0  0  0
    7.0277  -17.4583   25.5654 C   0  0  0  0  0  0  0  0  0  0  0  0
    6.9194  -18.9299   25.7327 C   0  0  0  0  0  0  0  0  0  0  0  0
    6.4764  -19.4729   26.7701 O   0  0  0  0  0  0  0  0  0  0  0  0
    8.5684  -15.0281   24.8868 C   0  0  0  0  0  0  0  0  0  0  0  0
    9.8086  -15.0121   24.5970 O   0  0  0  0  0  0  0  0  0  0  0  0
    7.3423  -19.7289   24.6577 O   0  0  0  0  0  0  0  0  0  0  0  0
    8.1492  -14.4410   26.0944 N   0  0  0  0  0  0  0  0  0  0  0  0
    6.8427  -14.4260   26.7238 C   0  0  0  0  0  0  0  0  0  0  0  0
    6.8425  -13.2046   27.6518 C   0  0  0  0  0  0  0  0  0  0  0  0
    8.1101  -12.4987   27.2616 C   0  0  0  0  0  0  0  0  0  0  0  0
    9.0528  -13.6733   26.9808 C   0  0  1  0  0  0  0  0  0  0  0  0
    9.3569  -14.4458   28.1986 C   0  0  0  0  0  0  0  0  0  0  0  0
   10.2729  -13.9116   29.0899 O   0  0  0  0  0  0  0  0  0  0  0  0
    8.8413  -15.5565   28.4832 O   0  0  0  0  0  0  0  0  0  0  0  0
  2  1  1  1
  3  2  1  0
  4  5  1  6
  4  2  1  0
  4  6  1  0
  6  7  2  0
  8  6  1  0
  8  9  1  0
  9 14  1  0
  9 10  1  1
 11 10  1  0
 12 11  1  0
 13 12  2  0
 14 17  1  0
 14 15  2  0
 16 12  1  0
 17 21  1  0
 18 17  1  0
 19 18  1  0
 19 20  1  0
 20 21  1  0
 21 22  1  1
 22 24  2  0
 22 23  1  0
M  END
$$$$
