TEP.pdb
     RDKit          3D

 24 24  0  0  1  0  0  0  0  0999 V2000
    8.4566  -12.8959   20.2748 C   0  0  0  0  0  0  0  0  0  0  0  0
    7.9219  -13.9139   19.3233 C   0  0  1  0  0  0  0  0  0  0  0  0
    8.6374  -13.8747   18.1176 O   0  0  0  0  0  0  0  0  0  0  0  0
    7.9982  -15.2864   19.9590 C   0  0  2  0  0  0  0  0  0  0  0  0
    7.4570  -16.3149   19.1315 N   0  0  0  0  0  0  0  0  0  0  0  0
    7.3489  -15.1885   21.2878 C   0  0  0  0  0  0  0  0  0  0  0  0
    6.0966  -15.0024   21.2667 O   0  0  0  0  0  0  0  0  0  0  0  0
    8.0543  -15.2922   22.5122 N   0  0  0  0  0  0  0  0  0  0  0  0
    7.2987  -15.2071   23.7360 C   0  0  1  0  0  0  0  0  0  0  0  0
    6.7841  -16.5388   24.1910 C   0  0  0  0  0  0  0  0  0  0  0  0
    7.8031  -17.6099   24.2896 C   0  0  0  0  0  0  0  0  0  0  0  0
    7.2174  -18.8150   24.9298 C   0  0  0  0  0  0  0  0  0  0  0  0
    6.1545  -19.3512   24.5424 O   0  0  0  0  0  0  0  0  0  0  0  0
    8.1797  -14.6282   24.7791 C   0  0  0  0  0  0  0  0  0  0  0  0
    9.4355  -14.7396   24.5977 O   0  0  0  0  0  0  0  0  0  0  0  0
    7.9112  -19.3601   26.0226 O   0  0  0  0  0  0  0  0  0  0  0  0
    7.7195  -13.9730   25.9357 N   0  0  0  0  0  0  0  0  0  0  0  0
    6.3685  -13.7754   26.4246 C   0  0  0  0  0  0  0  0  0  0  0  0
    6.4352  -12.5513   27.3466 C   0  0  0  0  0  0  0  0  0  0  0  0
    7.8193  -12.0258   27.0910 C   0  0  0  0  0  0  0  0  0  0  0  0
    8.6207  -13.3192   26.9114 C   0  0  1  0  0  0  0  0  0  0  0  0
    8.6908  -14.1072   28.1549 C   0  0  0  0  0  0  0  0  0  0  0  0
    9.5998  -13.7088   29.1212 O   0  0  0  0  0  0  0  0  0  0  0  0
    7.9815  -15.1164   28.3979 O   0  0  0  0  0  0  0  0  0  0  0  0
  2  1  1  1
  3  2  1  0
  4  5  1  6
  4  2  1  0
  4  6  1  0
  6  7  2  0
  8  6  1  0
  8  9  1  0
  9 14  1  0
  9 10  1  1
 11 10  1  0
 12 11  1  0
 13 12  2  0
 14 17  1  0
 14 15  2  0
 16 12  1  0
 17 21  1  0
 18 17  1  0
 19 18  1  0
 19 20  1  0
 20 21  1  0
 21 22  1  1
 22 24  2  0
 22 23  1  0
M  END
$$$$
