TEP.pdb
     RDKit          3D

 24 24  0  0  1  0  0  0  0  0999 V2000
    8.9134  -12.4341   20.3038 C   0  0  0  0  0  0  0  0  0  0  0  0
    8.3697  -13.2145   19.1536 C   0  0  1  0  0  0  0  0  0  0  0  0
    9.0623  -12.8921   17.9774 O   0  0  0  0  0  0  0  0  0  0  0  0
    8.4693  -14.6948   19.4575 C   0  0  2  0  0  0  0  0  0  0  0  0
    7.9727  -15.5154   18.4013 N   0  0  0  0  0  0  0  0  0  0  0  0
    7.7903  -14.9205   20.7556 C   0  0  0  0  0  0  0  0  0  0  0  0
    6.6250  -15.4101   20.6798 O   0  0  0  0  0  0  0  0  0  0  0  0
    8.3791  -14.6193   22.0086 N   0  0  0  0  0  0  0  0  0  0  0  0
    7.6879  -15.0446   23.1990 C   0  0  1  0  0  0  0  0  0  0  0  0
    7.5733  -16.5353   23.2991 C   0  0  0  0  0  0  0  0  0  0  0  0
    8.8491  -17.2773   23.1687 C   0  0  0  0  0  0  0  0  0  0  0  0
    8.6159  -18.7318   23.3566 C   0  0  0  0  0  0  0  0  0  0  0  0
    9.3451  -19.4584   24.0690 O   0  0  0  0  0  0  0  0  0  0  0  0
    8.4292  -14.5200   24.3714 C   0  0  0  0  0  0  0  0  0  0  0  0
    9.6999  -14.4980   24.2855 O   0  0  0  0  0  0  0  0  0  0  0  0
    7.5150  -19.2945   22.6902 O   0  0  0  0  0  0  0  0  0  0  0  0
    7.8236  -14.0514   25.5515 N   0  0  0  0  0  0  0  0  0  0  0  0
    6.4335  -14.0770   25.9640 C   0  0  0  0  0  0  0  0  0  0  0  0
    6.2873  -12.9566   27.0014 C   0  0  0  0  0  0  0  0  0  0  0  0
    7.6020  -12.2376   26.8921 C   0  0  0  0  0  0  0  0  0  0  0  0
    8.5756  -13.3943   26.6444 C   0  0  1  0  0  0  0  0  0  0  0  0
    8.6804  -14.2921   27.8085 C   0  0  0  0  0  0  0  0  0  0  0  0
    9.4927  -13.8957   28.8583 O   0  0  0  0  0  0  0  0  0  0  0  0
    8.0825  -15.3931   27.9133 O   0  0  0  0  0  0  0  0  0  0  0  0
  2  1  1  1
  3  2  1  0
  4  5  1  6
  4  2  1  0
  4  6  1  0
  6  7  2  0
  8  6  1  0
  8  9  1  0
  9 14  1  0
  9 10  1  1
 11 10  1  0
 12 11  1  0
 13 12  2  0
 14 17  1  0
 14 15  2  0
 16 12  1  0
 17 21  1  0
 18 17  1  0
 19 18  1  0
 19 20  1  0
 20 21  1  0
 21 22  1  1
 22 24  2  0
 22 23  1  0
M  END
$$$$
