TEP.pdb
     RDKit          3D

 24 24  0  0  1  0  0  0  0  0999 V2000
    8.6919  -12.5104   20.3754 C   0  0  0  0  0  0  0  0  0  0  0  0
    8.1024  -13.3790   19.3144 C   0  0  1  0  0  0  0  0  0  0  0  0
    8.7862  -13.1982   18.1034 O   0  0  0  0  0  0  0  0  0  0  0  0
    8.1553  -14.8253   19.7606 C   0  0  2  0  0  0  0  0  0  0  0  0
    7.5703  -15.7215   18.8172 N   0  0  0  0  0  0  0  0  0  0  0  0
    7.5360  -14.8900   21.1056 C   0  0  0  0  0  0  0  0  0  0  0  0
    6.2905  -14.6643   21.1403 O   0  0  0  0  0  0  0  0  0  0  0  0
    8.2615  -15.1815   22.2872 N   0  0  0  0  0  0  0  0  0  0  0  0
    7.5252  -15.2981   23.5201 C   0  0  1  0  0  0  0  0  0  0  0  0
    7.2484  -16.7222   23.8951 C   0  0  0  0  0  0  0  0  0  0  0  0
    6.3454  -17.4536   22.9759 C   0  0  0  0  0  0  0  0  0  0  0  0
    6.1599  -18.8501   23.4456 C   0  0  0  0  0  0  0  0  0  0  0  0
    6.6374  -19.2836   24.5186 O   0  0  0  0  0  0  0  0  0  0  0  0
    8.3165  -14.6437   24.5901 C   0  0  0  0  0  0  0  0  0  0  0  0
    9.5774  -14.5856   24.4189 O   0  0  0  0  0  0  0  0  0  0  0  0
    5.4068  -19.7062   22.6254 O   0  0  0  0  0  0  0  0  0  0  0  0
    7.7675  -14.0912   25.7614 N   0  0  0  0  0  0  0  0  0  0  0  0
    6.3862  -13.9949   26.1926 C   0  0  0  0  0  0  0  0  0  0  0  0
    6.3432  -12.8333   27.1934 C   0  0  0  0  0  0  0  0  0  0  0  0
    7.7078  -12.2228   27.0429 C   0  0  0  0  0  0  0  0  0  0  0  0
    8.5850  -13.4593   26.8217 C   0  0  1  0  0  0  0  0  0  0  0  0
    8.6380  -14.3240   28.0140 C   0  0  0  0  0  0  0  0  0  0  0  0
    9.4906  -13.9551   29.0415 O   0  0  0  0  0  0  0  0  0  0  0  0
    7.9620  -15.3737   28.1616 O   0  0  0  0  0  0  0  0  0  0  0  0
  2  1  1  1
  3  2  1  0
  4  5  1  6
  4  2  1  0
  4  6  1  0
  6  7  2  0
  8  6  1  0
  8  9  1  0
  9 14  1  0
  9 10  1  1
 11 10  1  0
 12 11  1  0
 13 12  2  0
 14 17  1  0
 14 15  2  0
 16 12  1  0
 17 21  1  0
 18 17  1  0
 19 18  1  0
 19 20  1  0
 20 21  1  0
 21 22  1  1
 22 24  2  0
 22 23  1  0
M  END
$$$$
