TEP.pdb
     RDKit          3D

 24 24  0  0  1  0  0  0  0  0999 V2000
    8.4813  -12.3993   20.4861 C   0  0  0  0  0  0  0  0  0  0  0  0
    7.8586  -13.2827   19.4569 C   0  0  1  0  0  0  0  0  0  0  0  0
    8.2677  -12.8951   18.1725 O   0  0  0  0  0  0  0  0  0  0  0  0
    8.2320  -14.7234   19.7372 C   0  0  2  0  0  0  0  0  0  0  0  0
    7.6694  -15.6380   18.7978 N   0  0  0  0  0  0  0  0  0  0  0  0
    7.8548  -15.0065   21.1423 C   0  0  0  0  0  0  0  0  0  0  0  0
    6.6149  -15.1557   21.3511 O   0  0  0  0  0  0  0  0  0  0  0  0
    8.7937  -15.1088   22.1984 N   0  0  0  0  0  0  0  0  0  0  0  0
    8.3110  -15.5135   23.4941 C   0  0  1  0  0  0  0  0  0  0  0  0
    8.6863  -16.9234   23.8359 C   0  0  0  0  0  0  0  0  0  0  0  0
    8.3335  -17.9366   22.8140 C   0  0  0  0  0  0  0  0  0  0  0  0
    8.8390  -19.2718   23.2224 C   0  0  0  0  0  0  0  0  0  0  0  0
    9.4422  -19.4784   24.2998 O   0  0  0  0  0  0  0  0  0  0  0  0
    8.8766  -14.5865   24.5040 C   0  0  0  0  0  0  0  0  0  0  0  0
   10.0932  -14.2418   24.3506 O   0  0  0  0  0  0  0  0  0  0  0  0
    8.6156  -20.3388   22.3367 O   0  0  0  0  0  0  0  0  0  0  0  0
    8.1619  -14.0722   25.6010 N   0  0  0  0  0  0  0  0  0  0  0  0
    6.7505  -14.1601   25.9229 C   0  0  0  0  0  0  0  0  0  0  0  0
    6.4627  -12.9772   26.8561 C   0  0  0  0  0  0  0  0  0  0  0  0
    7.7348  -12.1816   26.7757 C   0  0  0  0  0  0  0  0  0  0  0  0
    8.7932  -13.2856   26.6848 C   0  0  1  0  0  0  0  0  0  0  0  0
    8.8715  -14.0841   27.9211 C   0  0  0  0  0  0  0  0  0  0  0  0
    9.5961  -13.5637   28.9808 O   0  0  0  0  0  0  0  0  0  0  0  0
    8.3253  -15.2054   28.0790 O   0  0  0  0  0  0  0  0  0  0  0  0
  2  1  1  1
  3  2  1  0
  4  5  1  6
  4  2  1  0
  4  6  1  0
  6  7  2  0
  8  6  1  0
  8  9  1  0
  9 14  1  0
  9 10  1  1
 11 10  1  0
 12 11  1  0
 13 12  2  0
 14 17  1  0
 14 15  2  0
 16 12  1  0
 17 21  1  0
 18 17  1  0
 19 18  1  0
 19 20  1  0
 20 21  1  0
 21 22  1  1
 22 24  2  0
 22 23  1  0
M  END
$$$$
