TEP.pdb
     RDKit          3D

 24 24  0  0  1  0  0  0  0  0999 V2000
   10.6882  -14.0265   20.7895 C   0  0  0  0  0  0  0  0  0  0  0  0
    9.8324  -13.2176   19.8726 C   0  0  1  0  0  0  0  0  0  0  0  0
   10.4748  -13.0410   18.6384 O   0  0  0  0  0  0  0  0  0  0  0  0
    8.4933  -13.9032   19.6979 C   0  0  2  0  0  0  0  0  0  0  0  0
    7.6027  -13.1793   18.8505 N   0  0  0  0  0  0  0  0  0  0  0  0
    7.9514  -14.1545   21.0544 C   0  0  0  0  0  0  0  0  0  0  0  0
    7.2817  -13.2036   21.5552 O   0  0  0  0  0  0  0  0  0  0  0  0
    8.1524  -15.3636   21.7650 N   0  0  0  0  0  0  0  0  0  0  0  0
    7.5111  -15.5079   23.0470 C   0  0  1  0  0  0  0  0  0  0  0  0
    7.3215  -16.9415   23.4400 C   0  0  0  0  0  0  0  0  0  0  0  0
    6.8018  -17.1575   24.8106 C   0  0  0  0  0  0  0  0  0  0  0  0
    6.6988  -18.6114   25.0948 C   0  0  0  0  0  0  0  0  0  0  0  0
    6.1723  -19.0733   26.1324 O   0  0  0  0  0  0  0  0  0  0  0  0
    8.3482  -14.8183   24.0584 C   0  0  0  0  0  0  0  0  0  0  0  0
    9.6018  -14.7785   23.8366 O   0  0  0  0  0  0  0  0  0  0  0  0
    7.2268  -19.4900   24.1345 O   0  0  0  0  0  0  0  0  0  0  0  0
    7.8492  -14.2143   25.2267 N   0  0  0  0  0  0  0  0  0  0  0  0
    6.4848  -14.0715   25.6970 C   0  0  0  0  0  0  0  0  0  0  0  0
    6.4996  -12.8764   26.6585 C   0  0  0  0  0  0  0  0  0  0  0  0
    7.8721  -12.3034   26.4450 C   0  0  0  0  0  0  0  0  0  0  0  0
    8.7139  -13.5668   26.2389 C   0  0  1  0  0  0  0  0  0  0  0  0
    8.7856  -14.3922   27.4578 C   0  0  0  0  0  0  0  0  0  0  0  0
    9.7036  -14.0298   28.4297 O   0  0  0  0  0  0  0  0  0  0  0  0
    8.0700  -15.4029   27.6751 O   0  0  0  0  0  0  0  0  0  0  0  0
  2  1  1  1
  3  2  1  0
  4  5  1  6
  4  2  1  0
  4  6  1  0
  6  7  2  0
  8  6  1  0
  8  9  1  0
  9 14  1  0
  9 10  1  1
 11 10  1  0
 12 11  1  0
 13 12  2  0
 14 17  1  0
 14 15  2  0
 16 12  1  0
 17 21  1  0
 18 17  1  0
 19 18  1  0
 19 20  1  0
 20 21  1  0
 21 22  1  1
 22 24  2  0
 22 23  1  0
M  END
$$$$
