TEP.pdb
     RDKit          3D

 24 24  0  0  1  0  0  0  0  0999 V2000
    8.6990  -12.8012   20.5159 C   0  0  0  0  0  0  0  0  0  0  0  0
    7.9210  -13.5592   19.4923 C   0  0  1  0  0  0  0  0  0  0  0  0
    8.4784  -13.3686   18.2195 O   0  0  0  0  0  0  0  0  0  0  0  0
    7.8968  -15.0273   19.8635 C   0  0  2  0  0  0  0  0  0  0  0  0
    7.1585  -15.8241   18.9386 N   0  0  0  0  0  0  0  0  0  0  0  0
    7.3984  -15.1171   21.2564 C   0  0  0  0  0  0  0  0  0  0  0  0
    6.1393  -15.1719   21.3790 O   0  0  0  0  0  0  0  0  0  0  0  0
    8.2473  -15.1418   22.3905 N   0  0  0  0  0  0  0  0  0  0  0  0
    7.6526  -15.4191   23.6731 C   0  0  1  0  0  0  0  0  0  0  0  0
    7.6225  -16.8831   23.9916 C   0  0  0  0  0  0  0  0  0  0  0  0
    7.0384  -17.2315   25.3078 C   0  0  0  0  0  0  0  0  0  0  0  0
    7.0527  -18.7040   25.4996 C   0  0  0  0  0  0  0  0  0  0  0  0
    7.0932  -19.5203   24.5513 O   0  0  0  0  0  0  0  0  0  0  0  0
    8.4349  -14.6983   24.7064 C   0  0  0  0  0  0  0  0  0  0  0  0
    9.7035  -14.7403   24.6004 O   0  0  0  0  0  0  0  0  0  0  0  0
    7.0185  -19.1774   26.8216 O   0  0  0  0  0  0  0  0  0  0  0  0
    7.8696  -13.9818   25.7768 N   0  0  0  0  0  0  0  0  0  0  0  0
    6.4838  -13.6634   26.0620 C   0  0  0  0  0  0  0  0  0  0  0  0
    6.5197  -12.4284   26.9710 C   0  0  0  0  0  0  0  0  0  0  0  0
    7.9655  -12.0237   26.9140 C   0  0  0  0  0  0  0  0  0  0  0  0
    8.6726  -13.3820   26.8664 C   0  0  1  0  0  0  0  0  0  0  0  0
    8.4962  -14.1449   28.1150 C   0  0  0  0  0  0  0  0  0  0  0  0
    9.2995  -13.8126   29.1935 O   0  0  0  0  0  0  0  0  0  0  0  0
    7.6662  -15.0767   28.2676 O   0  0  0  0  0  0  0  0  0  0  0  0
  2  1  1  1
  3  2  1  0
  4  5  1  6
  4  2  1  0
  4  6  1  0
  6  7  2  0
  8  6  1  0
  8  9  1  0
  9 14  1  0
  9 10  1  1
 11 10  1  0
 12 11  1  0
 13 12  2  0
 14 17  1  0
 14 15  2  0
 16 12  1  0
 17 21  1  0
 18 17  1  0
 19 18  1  0
 19 20  1  0
 20 21  1  0
 21 22  1  1
 22 24  2  0
 22 23  1  0
M  END
$$$$
