DCT.pdb
     RDKit          3D

 22 21  0  0  1  0  0  0  0  0999 V2000
   28.1294  -22.2996  -16.0980 N   0  0  0  0  0  0  0  0  0  0  0  0
   27.3346  -21.1652  -15.7193 C   0  0  1  0  0  0  0  0  0  0  0  0
   26.5792  -20.5681  -16.8847 C   0  0  0  0  0  0  0  0  0  0  0  0
   27.5611  -20.0258  -17.8346 C   0  0  0  0  0  0  0  0  0  0  0  0
   28.1746  -18.9768  -17.5129 O   0  0  0  0  0  0  0  0  0  0  0  0
   26.3962  -21.5844  -14.6313 C   0  0  0  0  0  0  0  0  0  0  0  0
   25.6637  -22.6107  -14.7540 O   0  0  0  0  0  0  0  0  0  0  0  0
   27.8569  -20.5946  -19.0643 O   0  0  0  0  0  0  0  0  0  0  0  0
   26.2747  -20.8673  -13.4179 N   0  0  0  0  0  0  0  0  0  0  0  0
   25.3699  -21.2753  -12.3479 C   0  0  1  0  0  0  0  0  0  0  0  0
   25.9943  -21.0079  -11.0021 C   0  0  0  0  0  0  0  0  0  0  0  0
   24.8562  -21.2172   -9.6201 S   0  0  0  0  0  0  0  0  0  0  0  0
   24.0675  -20.6426  -12.5632 C   0  0  0  0  0  0  0  0  0  0  0  0
   24.0161  -19.3664  -12.4768 O   0  0  0  0  0  0  0  0  0  0  0  0
   22.0850  -20.0254  -15.3114 C   0  0  0  0  0  0  0  0  0  0  0  0
   21.1004  -20.6855  -14.3656 C   0  0  1  0  0  0  0  0  0  0  0  0
   20.9972  -22.0400  -14.6306 O   0  0  0  0  0  0  0  0  0  0  0  0
   21.6322  -20.4798  -12.9572 C   0  0  2  0  0  0  0  0  0  0  0  0
   22.8536  -21.2861  -12.8588 N   0  0  0  0  0  0  0  0  0  0  0  0
   20.6369  -20.9423  -11.9536 C   0  0  0  0  0  0  0  0  0  0  0  0
   20.8731  -21.9612  -11.2803 O   0  0  0  0  0  0  0  0  0  0  0  0
   19.4516  -20.2548  -11.7584 O   0  0  0  0  0  0  0  0  0  0  0  0
  2  1  1  6
  2  6  1  0
  2  3  1  0
  3  4  1  0
  4  5  2  0
  4  8  1  0
  6  7  2  0
  6  9  1  0
  9 10  1  0
 10 13  1  0
 10 11  1  1
 12 11  1  0
 13 14  2  0
 13 19  1  0
 16 15  1  6
 17 16  1  0
 18 16  1  0
 18 20  1  0
 18 19  1  6
 20 22  1  0
 21 20  2  0
M  END
$$$$
