DCT.pdb
     RDKit          3D

 22 21  0  0  1  0  0  0  0  0999 V2000
   18.5888   -9.0901  -13.3361 N   0  0  0  0  0  0  0  0  0  0  0  0
   17.2207   -9.3929  -13.6505 C   0  0  1  0  0  0  0  0  0  0  0  0
   16.9649  -10.8782  -13.7671 C   0  0  0  0  0  0  0  0  0  0  0  0
   17.6263  -11.3603  -14.9880 C   0  0  0  0  0  0  0  0  0  0  0  0
   17.6698  -12.6013  -15.1834 O   0  0  0  0  0  0  0  0  0  0  0  0
   16.3454   -8.7794  -12.6029 C   0  0  0  0  0  0  0  0  0  0  0  0
   15.0854   -8.9039  -12.6434 O   0  0  0  0  0  0  0  0  0  0  0  0
   18.2067  -10.5366  -15.9408 O   0  0  0  0  0  0  0  0  0  0  0  0
   16.8686   -8.0342  -11.5202 N   0  0  0  0  0  0  0  0  0  0  0  0
   16.0195   -7.3811  -10.5290 C   0  0  1  0  0  0  0  0  0  0  0  0
   16.6331   -7.4934   -9.1566 C   0  0  0  0  0  0  0  0  0  0  0  0
   15.7986   -6.4997   -7.9055 S   0  0  0  0  0  0  0  0  0  0  0  0
   15.7401   -6.0144  -10.9727 C   0  0  0  0  0  0  0  0  0  0  0  0
   16.7279   -5.3291  -11.4125 O   0  0  0  0  0  0  0  0  0  0  0  0
   12.8259   -2.2959  -12.2237 C   0  0  0  0  0  0  0  0  0  0  0  0
   12.9388   -3.6385  -11.5277 C   0  0  1  0  0  0  0  0  0  0  0  0
   12.2564   -4.6156  -12.2312 O   0  0  0  0  0  0  0  0  0  0  0  0
   14.4168   -3.9868  -11.4729 C   0  0  2  0  0  0  0  0  0  0  0  0
   14.4948   -5.3630  -10.9715 N   0  0  0  0  0  0  0  0  0  0  0  0
   15.1329   -3.0685  -10.5479 C   0  0  0  0  0  0  0  0  0  0  0  0
   15.8590   -2.1725  -11.0138 O   0  0  0  0  0  0  0  0  0  0  0  0
   15.0025   -3.1969   -9.1760 O   0  0  0  0  0  0  0  0  0  0  0  0
  2  1  1  1
  2  6  1  0
  2  3  1  0
  3  4  1  0
  4  5  2  0
  4  8  1  0
  6  7  2  0
  6  9  1  0
  9 10  1  0
 10 13  1  0
 10 11  1  1
 12 11  1  0
 13 14  2  0
 13 19  1  0
 16 15  1  6
 17 16  1  0
 18 16  1  0
 18 20  1  0
 18 19  1  1
 20 22  1  0
 21 20  2  0
M  END
$$$$
