DCT.pdb
     RDKit          3D

 22 21  0  0  1  0  0  0  0  0999 V2000
   20.2723  -12.6590  -16.3137 N   0  0  0  0  0  0  0  0  0  0  0  0
   19.6641  -11.3682  -16.4745 C   0  0  1  0  0  0  0  0  0  0  0  0
   18.2230  -11.3425  -16.0185 C   0  0  0  0  0  0  0  0  0  0  0  0
   17.4595  -12.2674  -16.8681 C   0  0  0  0  0  0  0  0  0  0  0  0
   17.6431  -12.2135  -18.1105 O   0  0  0  0  0  0  0  0  0  0  0  0
   20.4806  -10.3616  -15.7260 C   0  0  0  0  0  0  0  0  0  0  0  0
   20.1504   -9.9802  -14.5639 O   0  0  0  0  0  0  0  0  0  0  0  0
   16.5483  -13.1974  -16.3905 O   0  0  0  0  0  0  0  0  0  0  0  0
   21.6539   -9.7851  -16.2667 N   0  0  0  0  0  0  0  0  0  0  0  0
   22.5421   -8.9276  -15.4884 C   0  0  1  0  0  0  0  0  0  0  0  0
   23.9770   -9.1558  -15.8905 C   0  0  0  0  0  0  0  0  0  0  0  0
   24.6580  -10.7148  -15.2945 S   0  0  0  0  0  0  0  0  0  0  0  0
   22.0802   -7.5431  -15.5999 C   0  0  0  0  0  0  0  0  0  0  0  0
   21.7910   -7.1159  -16.7716 O   0  0  0  0  0  0  0  0  0  0  0  0
   20.1552   -3.4111  -13.9178 C   0  0  0  0  0  0  0  0  0  0  0  0
   20.6995   -4.7928  -13.6107 C   0  0  1  0  0  0  0  0  0  0  0  0
   19.6745   -5.6631  -13.2830 O   0  0  0  0  0  0  0  0  0  0  0  0
   21.4028   -5.2816  -14.8659 C   0  0  2  0  0  0  0  0  0  0  0  0
   21.9152   -6.6200  -14.5533 N   0  0  0  0  0  0  0  0  0  0  0  0
   22.5294   -4.3760  -15.2159 C   0  0  0  0  0  0  0  0  0  0  0  0
   22.3702   -3.5109  -16.0954 O   0  0  0  0  0  0  0  0  0  0  0  0
   23.7524   -4.4825  -14.5768 O   0  0  0  0  0  0  0  0  0  0  0  0
  2  1  1  1
  2  6  1  0
  2  3  1  0
  3  4  1  0
  4  5  2  0
  4  8  1  0
  6  7  2  0
  6  9  1  0
  9 10  1  0
 10 13  1  0
 10 11  1  6
 12 11  1  0
 13 14  2  0
 13 19  1  0
 16 15  1  6
 17 16  1  0
 18 16  1  0
 18 20  1  0
 18 19  1  1
 20 22  1  0
 21 20  2  0
M  END
$$$$
