DCT.pdb
     RDKit          3D

 22 21  0  0  1  0  0  0  0  0999 V2000
   19.3285  -26.1365  -14.5051 N   0  0  0  0  0  0  0  0  0  0  0  0
   20.6019  -25.5313  -14.2324 C   0  0  1  0  0  0  0  0  0  0  0  0
   21.7459  -26.2516  -14.9090 C   0  0  0  0  0  0  0  0  0  0  0  0
   21.8710  -27.5829  -14.2988 C   0  0  0  0  0  0  0  0  0  0  0  0
   21.9988  -28.5719  -15.0642 O   0  0  0  0  0  0  0  0  0  0  0  0
   20.5468  -24.0969  -14.6562 C   0  0  0  0  0  0  0  0  0  0  0  0
   20.0498  -23.7594  -15.7716 O   0  0  0  0  0  0  0  0  0  0  0  0
   21.8574  -27.8220  -12.9329 O   0  0  0  0  0  0  0  0  0  0  0  0
   21.0405  -23.0481  -13.8453 N   0  0  0  0  0  0  0  0  0  0  0  0
   21.0604  -21.6558  -14.2824 C   0  0  1  0  0  0  0  0  0  0  0  0
   20.8828  -20.7331  -13.1036 C   0  0  0  0  0  0  0  0  0  0  0  0
   21.1935  -18.9993  -13.4864 S   0  0  0  0  0  0  0  0  0  0  0  0
   22.2710  -21.4256  -15.0724 C   0  0  0  0  0  0  0  0  0  0  0  0
   23.3940  -21.6507  -14.5004 O   0  0  0  0  0  0  0  0  0  0  0  0
   23.7906  -23.1422  -17.7634 C   0  0  0  0  0  0  0  0  0  0  0  0
   23.6586  -21.7139  -18.2558 C   0  0  1  0  0  0  0  0  0  0  0  0
   22.4774  -21.5430  -18.9565 O   0  0  0  0  0  0  0  0  0  0  0  0
   23.6577  -20.8195  -17.0274 C   0  0  2  0  0  0  0  0  0  0  0  0
   22.3399  -20.9814  -16.4039 N   0  0  0  0  0  0  0  0  0  0  0  0
   23.8626  -19.3994  -17.4190 C   0  0  0  0  0  0  0  0  0  0  0  0
   22.9231  -18.5916  -17.3097 O   0  0  0  0  0  0  0  0  0  0  0  0
   25.0840  -18.9644  -17.9032 O   0  0  0  0  0  0  0  0  0  0  0  0
  2  1  1  6
  2  6  1  0
  2  3  1  0
  3  4  1  0
  4  5  2  0
  4  8  1  0
  6  7  2  0
  6  9  1  0
  9 10  1  0
 10 13  1  0
 10 11  1  1
 12 11  1  0
 13 14  2  0
 13 19  1  0
 16 15  1  1
 17 16  1  0
 18 16  1  0
 18 20  1  0
 18 19  1  6
 20 22  1  0
 21 20  2  0
M  END
$$$$
