DCT.pdb
     RDKit          3D

 22 21  0  0  1  0  0  0  0  0999 V2000
   19.9971  -11.3219  -15.5019 N   0  0  0  0  0  0  0  0  0  0  0  0
   19.8269  -10.1148  -16.2607 C   0  0  1  0  0  0  0  0  0  0  0  0
   18.5144  -10.0779  -17.0100 C   0  0  0  0  0  0  0  0  0  0  0  0
   18.4857  -11.2193  -17.9356 C   0  0  0  0  0  0  0  0  0  0  0  0
   19.4048  -11.3091  -18.7885 O   0  0  0  0  0  0  0  0  0  0  0  0
   19.9454   -8.9482  -15.3306 C   0  0  0  0  0  0  0  0  0  0  0  0
   19.2338   -8.8654  -14.2857 O   0  0  0  0  0  0  0  0  0  0  0  0
   17.5111  -12.2059  -17.9314 O   0  0  0  0  0  0  0  0  0  0  0  0
   20.8480   -7.8837  -15.5620 N   0  0  0  0  0  0  0  0  0  0  0  0
   20.9114   -6.7033  -14.7059 C   0  0  1  0  0  0  0  0  0  0  0  0
   22.1630   -6.7309  -13.8661 C   0  0  0  0  0  0  0  0  0  0  0  0
   22.5591   -5.1467  -13.1027 S   0  0  0  0  0  0  0  0  0  0  0  0
   20.7482   -5.5084  -15.5355 C   0  0  0  0  0  0  0  0  0  0  0  0
   21.5696   -5.3532  -16.5051 O   0  0  0  0  0  0  0  0  0  0  0  0
   18.4061   -1.6467  -17.3232 C   0  0  0  0  0  0  0  0  0  0  0  0
   18.4086   -2.7807  -16.3164 C   0  0  1  0  0  0  0  0  0  0  0  0
   17.5206   -3.7735  -16.6922 O   0  0  0  0  0  0  0  0  0  0  0  0
   19.8199   -3.3430  -16.2850 C   0  0  2  0  0  0  0  0  0  0  0  0
   19.7791   -4.5016  -15.3864 N   0  0  0  0  0  0  0  0  0  0  0  0
   20.7719   -2.3277  -15.7610 C   0  0  0  0  0  0  0  0  0  0  0  0
   20.8571   -2.1429  -14.5339 O   0  0  0  0  0  0  0  0  0  0  0  0
   21.5643   -1.5858  -16.6197 O   0  0  0  0  0  0  0  0  0  0  0  0
  2  1  1  1
  2  6  1  0
  2  3  1  0
  3  4  1  0
  4  5  2  0
  4  8  1  0
  6  7  2  0
  6  9  1  0
  9 10  1  0
 10 13  1  0
 10 11  1  6
 12 11  1  0
 13 14  2  0
 13 19  1  0
 16 15  1  6
 17 16  1  0
 18 16  1  0
 18 20  1  0
 18 19  1  1
 20 22  1  0
 21 20  2  0
M  END
$$$$
