DCT.pdb
     RDKit          3D

 22 21  0  0  1  0  0  0  0  0999 V2000
   23.4500  -13.5783  -16.9546 N   0  0  0  0  0  0  0  0  0  0  0  0
   23.2499  -12.2517  -17.4665 C   0  0  1  0  0  0  0  0  0  0  0  0
   22.7313  -12.2474  -18.8865 C   0  0  0  0  0  0  0  0  0  0  0  0
   23.7403  -12.8877  -19.7422 C   0  0  0  0  0  0  0  0  0  0  0  0
   24.7882  -12.2432  -20.0004 O   0  0  0  0  0  0  0  0  0  0  0  0
   22.3133  -11.5258  -16.5522 C   0  0  0  0  0  0  0  0  0  0  0  0
   21.2303  -12.0562  -16.1641 O   0  0  0  0  0  0  0  0  0  0  0  0
   23.6138  -14.1576  -20.2851 O   0  0  0  0  0  0  0  0  0  0  0  0
   22.5804  -10.2213  -16.0745 N   0  0  0  0  0  0  0  0  0  0  0  0
   21.6776   -9.5108  -15.1743 C   0  0  1  0  0  0  0  0  0  0  0  0
   22.3325   -9.3002  -13.8329 C   0  0  0  0  0  0  0  0  0  0  0  0
   23.4648  -10.6218  -13.3633 S   0  0  0  0  0  0  0  0  0  0  0  0
   21.2142   -8.2901  -15.8359 C   0  0  0  0  0  0  0  0  0  0  0  0
   22.0242   -7.7220  -16.6484 O   0  0  0  0  0  0  0  0  0  0  0  0
   17.9176   -5.1914  -17.5456 C   0  0  0  0  0  0  0  0  0  0  0  0
   18.2129   -6.4533  -16.7582 C   0  0  1  0  0  0  0  0  0  0  0  0
   17.9236   -7.5797  -17.5086 O   0  0  0  0  0  0  0  0  0  0  0  0
   19.6946   -6.4302  -16.4224 C   0  0  2  0  0  0  0  0  0  0  0  0
   19.9653   -7.6653  -15.6788 N   0  0  0  0  0  0  0  0  0  0  0  0
   20.0174   -5.2489  -15.5785 C   0  0  0  0  0  0  0  0  0  0  0  0
   19.7638   -5.2774  -14.3611 O   0  0  0  0  0  0  0  0  0  0  0  0
   20.5961   -4.1185  -16.1288 O   0  0  0  0  0  0  0  0  0  0  0  0
  2  1  1  1
  2  6  1  0
  2  3  1  0
  3  4  1  0
  4  5  2  0
  4  8  1  0
  6  7  2  0
  6  9  1  0
  9 10  1  0
 10 13  1  0
 10 11  1  1
 12 11  1  0
 13 14  2  0
 13 19  1  0
 16 15  1  6
 17 16  1  0
 18 16  1  0
 18 20  1  0
 18 19  1  1
 20 22  1  0
 21 20  2  0
M  END
$$$$
