DCT.pdb
     RDKit          3D

 22 21  0  0  1  0  0  0  0  0999 V2000
   18.2978  -14.2811  -14.9692 N   0  0  0  0  0  0  0  0  0  0  0  0
   17.6662  -14.2413  -16.2582 C   0  0  1  0  0  0  0  0  0  0  0  0
   16.2973  -14.8827  -16.2560 C   0  0  0  0  0  0  0  0  0  0  0  0
   15.8105  -14.9135  -14.8694 C   0  0  0  0  0  0  0  0  0  0  0  0
   15.9431  -13.8737  -14.1755 O   0  0  0  0  0  0  0  0  0  0  0  0
   17.5886  -12.8151  -16.7055 C   0  0  0  0  0  0  0  0  0  0  0  0
   16.9211  -12.4826  -17.7296 O   0  0  0  0  0  0  0  0  0  0  0  0
   15.2136  -16.0145  -14.2739 O   0  0  0  0  0  0  0  0  0  0  0  0
   18.2483  -11.7690  -16.0187 N   0  0  0  0  0  0  0  0  0  0  0  0
   18.1058  -10.3659  -16.3945 C   0  0  1  0  0  0  0  0  0  0  0  0
   16.6623   -9.9416  -16.3008 C   0  0  0  0  0  0  0  0  0  0  0  0
   15.8330  -10.5164  -14.8071 S   0  0  0  0  0  0  0  0  0  0  0  0
   19.0394   -9.5664  -15.5996 C   0  0  0  0  0  0  0  0  0  0  0  0
   19.1862   -9.8902  -14.3698 O   0  0  0  0  0  0  0  0  0  0  0  0
   22.5562   -9.4111  -15.5762 C   0  0  0  0  0  0  0  0  0  0  0  0
   22.1185   -7.9688  -15.7433 C   0  0  1  0  0  0  0  0  0  0  0  0
   22.0421   -7.6306  -17.0831 O   0  0  0  0  0  0  0  0  0  0  0  0
   20.7445   -7.8455  -15.1063 C   0  0  2  0  0  0  0  0  0  0  0  0
   19.8025   -8.4717  -16.0402 N   0  0  0  0  0  0  0  0  0  0  0  0
   20.3893   -6.4146  -14.9106 C   0  0  0  0  0  0  0  0  0  0  0  0
   19.5032   -5.9008  -15.6163 O   0  0  0  0  0  0  0  0  0  0  0  0
   21.0310   -5.6469  -13.9543 O   0  0  0  0  0  0  0  0  0  0  0  0
  2  1  1  1
  2  6  1  0
  2  3  1  0
  3  4  1  0
  4  5  2  0
  4  8  1  0
  6  7  2  0
  6  9  1  0
  9 10  1  0
 10 13  1  0
 10 11  1  1
 12 11  1  0
 13 14  2  0
 13 19  1  0
 16 15  1  6
 17 16  1  0
 18 16  1  0
 18 20  1  0
 18 19  1  6
 20 22  1  0
 21 20  2  0
M  END
$$$$
