DCT.pdb
     RDKit          3D

 22 21  0  0  1  0  0  0  0  0999 V2000
   15.3843  -12.1244  -13.5696 N   0  0  0  0  0  0  0  0  0  0  0  0
   16.2369  -11.1244  -12.9908 C   0  0  1  0  0  0  0  0  0  0  0  0
   17.1179  -10.4463  -14.0152 C   0  0  0  0  0  0  0  0  0  0  0  0
   18.0476  -11.4498  -14.5527 C   0  0  0  0  0  0  0  0  0  0  0  0
   17.9613  -12.6257  -14.1169 O   0  0  0  0  0  0  0  0  0  0  0  0
   15.3811  -10.1262  -12.2758 C   0  0  0  0  0  0  0  0  0  0  0  0
   14.2930   -9.7142  -12.7771 O   0  0  0  0  0  0  0  0  0  0  0  0
   19.0156  -11.1862  -15.5101 O   0  0  0  0  0  0  0  0  0  0  0  0
   15.7337   -9.5919  -11.0143 N   0  0  0  0  0  0  0  0  0  0  0  0
   14.8512   -8.7103  -10.2566 C   0  0  1  0  0  0  0  0  0  0  0  0
   14.3044   -9.4272   -9.0486 C   0  0  0  0  0  0  0  0  0  0  0  0
   13.3960   -8.3558   -7.9189 S   0  0  0  0  0  0  0  0  0  0  0  0
   15.5624   -7.4638   -9.9681 C   0  0  0  0  0  0  0  0  0  0  0  0
   16.7455   -7.5631   -9.4892 O   0  0  0  0  0  0  0  0  0  0  0  0
   16.9021   -4.8634  -11.9857 C   0  0  0  0  0  0  0  0  0  0  0  0
   16.0538   -4.1256  -10.9680 C   0  0  1  0  0  0  0  0  0  0  0  0
   14.7944   -3.8610  -11.4773 O   0  0  0  0  0  0  0  0  0  0  0  0
   15.9336   -5.0291   -9.7522 C   0  0  2  0  0  0  0  0  0  0  0  0
   15.0875   -6.1553  -10.1611 N   0  0  0  0  0  0  0  0  0  0  0  0
   15.2963   -4.2993   -8.6239 C   0  0  0  0  0  0  0  0  0  0  0  0
   14.1430   -4.6032   -8.2705 O   0  0  0  0  0  0  0  0  0  0  0  0
   15.9685   -3.2867   -7.9617 O   0  0  0  0  0  0  0  0  0  0  0  0
  2  1  1  6
  2  6  1  0
  2  3  1  0
  3  4  1  0
  4  5  2  0
  4  8  1  0
  6  7  2  0
  6  9  1  0
  9 10  1  0
 10 13  1  0
 10 11  1  1
 12 11  1  0
 13 14  2  0
 13 19  1  0
 16 15  1  6
 17 16  1  0
 18 16  1  0
 18 20  1  0
 18 19  1  6
 20 22  1  0
 21 20  2  0
M  END
$$$$
