DCT.pdb
     RDKit          3D

 22 21  0  0  1  0  0  0  0  0999 V2000
   19.6077  -10.8964  -16.1606 N   0  0  0  0  0  0  0  0  0  0  0  0
   18.6852  -10.6162  -15.0964 C   0  0  1  0  0  0  0  0  0  0  0  0
   18.2360  -11.8642  -14.3712 C   0  0  0  0  0  0  0  0  0  0  0  0
   17.3472  -12.6173  -15.2676 C   0  0  0  0  0  0  0  0  0  0  0  0
   16.7454  -11.9822  -16.1702 O   0  0  0  0  0  0  0  0  0  0  0  0
   19.3289   -9.6503  -14.1516 C   0  0  0  0  0  0  0  0  0  0  0  0
   20.5653   -9.7176  -13.8836 O   0  0  0  0  0  0  0  0  0  0  0  0
   17.1273  -13.9840  -15.1844 O   0  0  0  0  0  0  0  0  0  0  0  0
   18.6026   -8.6190  -13.5111 N   0  0  0  0  0  0  0  0  0  0  0  0
   19.2451   -7.5826  -12.7091 C   0  0  1  0  0  0  0  0  0  0  0  0
   20.3301   -6.9016  -13.5037 C   0  0  0  0  0  0  0  0  0  0  0  0
   21.0094   -5.4390  -12.6983 S   0  0  0  0  0  0  0  0  0  0  0  0
   18.2144   -6.6902  -12.1763 C   0  0  0  0  0  0  0  0  0  0  0  0
   17.4437   -6.1163  -13.0223 O   0  0  0  0  0  0  0  0  0  0  0  0
   15.9558   -7.2868   -8.9426 C   0  0  0  0  0  0  0  0  0  0  0  0
   16.4998   -5.8731   -9.0167 C   0  0  1  0  0  0  0  0  0  0  0  0
   17.6631   -5.7549   -8.2763 O   0  0  0  0  0  0  0  0  0  0  0  0
   16.7942   -5.5871  -10.4797 C   0  0  2  0  0  0  0  0  0  0  0  0
   17.9720   -6.3903  -10.8249 N   0  0  0  0  0  0  0  0  0  0  0  0
   17.0893   -4.1429  -10.6773 C   0  0  0  0  0  0  0  0  0  0  0  0
   16.2020   -3.2999  -10.4554 O   0  0  0  0  0  0  0  0  0  0  0  0
   18.3373   -3.7240  -11.1046 O   0  0  0  0  0  0  0  0  0  0  0  0
  2  1  1  6
  2  6  1  0
  2  3  1  0
  3  4  1  0
  4  5  2  0
  4  8  1  0
  6  7  2  0
  6  9  1  0
  9 10  1  0
 10 13  1  0
 10 11  1  6
 12 11  1  0
 13 14  2  0
 13 19  1  0
 16 15  1  6
 17 16  1  0
 18 16  1  0
 18 20  1  0
 18 19  1  1
 20 22  1  0
 21 20  2  0
M  END
$$$$
