DCT.pdb
     RDKit          3D

 22 21  0  0  1  0  0  0  0  0999 V2000
   26.8288  -34.0931   -5.4560 N   0  0  0  0  0  0  0  0  0  0  0  0
   26.5852  -34.7008   -4.1779 C   0  0  1  0  0  0  0  0  0  0  0  0
   27.5298  -35.8448   -3.8874 C   0  0  0  0  0  0  0  0  0  0  0  0
   27.3151  -36.8830   -4.9055 C   0  0  0  0  0  0  0  0  0  0  0  0
   26.1333  -37.2399   -5.1425 O   0  0  0  0  0  0  0  0  0  0  0  0
   26.6838  -33.6439   -3.1227 C   0  0  0  0  0  0  0  0  0  0  0  0
   27.5897  -32.7592   -3.1608 O   0  0  0  0  0  0  0  0  0  0  0  0
   28.3305  -37.4965   -5.6237 O   0  0  0  0  0  0  0  0  0  0  0  0
   25.7818  -33.5730   -2.0352 N   0  0  0  0  0  0  0  0  0  0  0  0
   25.7700  -32.4595   -1.0917 C   0  0  1  0  0  0  0  0  0  0  0  0
   24.6656  -31.4925   -1.4351 C   0  0  0  0  0  0  0  0  0  0  0  0
   24.3544  -30.2627   -0.1545 S   0  0  0  0  0  0  0  0  0  0  0  0
   25.7240  -32.9943    0.2701 C   0  0  0  0  0  0  0  0  0  0  0  0
   24.7979  -33.8372    0.5362 O   0  0  0  0  0  0  0  0  0  0  0  0
   28.7920  -33.0287    3.0209 C   0  0  0  0  0  0  0  0  0  0  0  0
   27.7136  -34.0884    2.9037 C   0  0  1  0  0  0  0  0  0  0  0  0
   27.5983  -34.8046    4.0824 O   0  0  0  0  0  0  0  0  0  0  0  0
   26.4091  -33.3640    2.6167 C   0  0  2  0  0  0  0  0  0  0  0  0
   26.5929  -32.6839    1.3301 N   0  0  0  0  0  0  0  0  0  0  0  0
   26.1240  -32.3660    3.6818 C   0  0  0  0  0  0  0  0  0  0  0  0
   25.8755  -32.7558    4.8366 O   0  0  0  0  0  0  0  0  0  0  0  0
   26.1315  -31.0097    3.4061 O   0  0  0  0  0  0  0  0  0  0  0  0
  2  1  1  6
  2  6  1  0
  2  3  1  0
  3  4  1  0
  4  5  2  0
  4  8  1  0
  6  7  2  0
  6  9  1  0
  9 10  1  0
 10 13  1  0
 10 11  1  6
 12 11  1  0
 13 14  2  0
 13 19  1  0
 16 15  1  1
 17 16  1  0
 18 16  1  0
 18 20  1  0
 18 19  1  6
 20 22  1  0
 21 20  2  0
M  END
$$$$
