DCT.pdb
     RDKit          3D

 22 21  0  0  1  0  0  0  0  0999 V2000
   20.4302  -11.1854  -17.7479 N   0  0  0  0  0  0  0  0  0  0  0  0
   21.3666  -10.1139  -17.5555 C   0  0  1  0  0  0  0  0  0  0  0  0
   21.7505   -9.4362  -18.8511 C   0  0  0  0  0  0  0  0  0  0  0  0
   22.4039  -10.4333  -19.7109 C   0  0  0  0  0  0  0  0  0  0  0  0
   23.1851  -11.2561  -19.1697 O   0  0  0  0  0  0  0  0  0  0  0  0
   20.7745   -9.1325  -16.5929 C   0  0  0  0  0  0  0  0  0  0  0  0
   19.5537   -8.8008  -16.6596 O   0  0  0  0  0  0  0  0  0  0  0  0
   22.2164  -10.5277  -21.0817 O   0  0  0  0  0  0  0  0  0  0  0  0
   21.5350   -8.5263  -15.5656 N   0  0  0  0  0  0  0  0  0  0  0  0
   20.9375   -7.6838  -14.5344 C   0  0  1  0  0  0  0  0  0  0  0  0
   21.0191   -8.3619  -13.1905 C   0  0  0  0  0  0  0  0  0  0  0  0
   20.3196  -10.0231  -13.1727 S   0  0  0  0  0  0  0  0  0  0  0  0
   21.5490   -6.3553  -14.5962 C   0  0  0  0  0  0  0  0  0  0  0  0
   22.8237   -6.3030  -14.7031 O   0  0  0  0  0  0  0  0  0  0  0  0
   20.5992   -3.2747  -16.7349 C   0  0  0  0  0  0  0  0  0  0  0  0
   20.7881   -2.8479  -15.2920 C   0  0  1  0  0  0  0  0  0  0  0  0
   19.5728   -2.7955  -14.6319 O   0  0  0  0  0  0  0  0  0  0  0  0
   21.6816   -3.8869  -14.6354 C   0  0  2  0  0  0  0  0  0  0  0  0
   20.8865   -5.1168  -14.5522 N   0  0  0  0  0  0  0  0  0  0  0  0
   22.0764   -3.4448  -13.2714 C   0  0  0  0  0  0  0  0  0  0  0  0
   22.8313   -2.4651  -13.1389 O   0  0  0  0  0  0  0  0  0  0  0  0
   21.6157   -4.1084  -12.1475 O   0  0  0  0  0  0  0  0  0  0  0  0
  2  1  1  6
  2  6  1  0
  2  3  1  0
  3  4  1  0
  4  5  2  0
  4  8  1  0
  6  7  2  0
  6  9  1  0
  9 10  1  0
 10 13  1  0
 10 11  1  1
 12 11  1  0
 13 14  2  0
 13 19  1  0
 16 15  1  6
 17 16  1  0
 18 16  1  0
 18 20  1  0
 18 19  1  1
 20 22  1  0
 21 20  2  0
M  END
$$$$
