DCT.pdb
     RDKit          3D

 22 21  0  0  1  0  0  0  0  0999 V2000
   19.8903  -12.6254  -15.7325 N   0  0  0  0  0  0  0  0  0  0  0  0
   18.9898  -11.6358  -16.2540 C   0  0  1  0  0  0  0  0  0  0  0  0
   17.5927  -12.1732  -16.4651 C   0  0  0  0  0  0  0  0  0  0  0  0
   17.6604  -13.2319  -17.4824 C   0  0  0  0  0  0  0  0  0  0  0  0
   18.3761  -13.0299  -18.4959 O   0  0  0  0  0  0  0  0  0  0  0  0
   18.9781  -10.4654  -15.3211 C   0  0  0  0  0  0  0  0  0  0  0  0
   18.7124  -10.6079  -14.0907 O   0  0  0  0  0  0  0  0  0  0  0  0
   16.9865  -14.4411  -17.3994 O   0  0  0  0  0  0  0  0  0  0  0  0
   19.2596   -9.1485  -15.7546 N   0  0  0  0  0  0  0  0  0  0  0  0
   19.4001   -8.0273  -14.8309 C   0  0  1  0  0  0  0  0  0  0  0  0
   20.7734   -8.0287  -14.2090 C   0  0  0  0  0  0  0  0  0  0  0  0
   22.0891   -8.4747  -15.3575 S   0  0  0  0  0  0  0  0  0  0  0  0
   19.0369   -6.7923  -15.5277 C   0  0  0  0  0  0  0  0  0  0  0  0
   19.6101   -6.5637  -16.6494 O   0  0  0  0  0  0  0  0  0  0  0  0
   15.9276   -5.5909  -17.0056 C   0  0  0  0  0  0  0  0  0  0  0  0
   16.3966   -4.4849  -16.0802 C   0  0  1  0  0  0  0  0  0  0  0  0
   15.7980   -4.5972  -14.8374 O   0  0  0  0  0  0  0  0  0  0  0  0
   17.9020   -4.6344  -15.9373 C   0  0  2  0  0  0  0  0  0  0  0  0
   18.1180   -5.8190  -15.0996 N   0  0  0  0  0  0  0  0  0  0  0  0
   18.4828   -3.4343  -15.2784 C   0  0  0  0  0  0  0  0  0  0  0  0
   18.5405   -2.3598  -15.9025 O   0  0  0  0  0  0  0  0  0  0  0  0
   18.9600   -3.4964  -13.9807 O   0  0  0  0  0  0  0  0  0  0  0  0
  2  1  1  1
  2  6  1  0
  2  3  1  0
  3  4  1  0
  4  5  2  0
  4  8  1  0
  6  7  2  0
  6  9  1  0
  9 10  1  0
 10 13  1  0
 10 11  1  6
 12 11  1  0
 13 14  2  0
 13 19  1  0
 16 15  1  6
 17 16  1  0
 18 16  1  0
 18 20  1  0
 18 19  1  1
 20 22  1  0
 21 20  2  0
M  END
$$$$
