FNH.pdb
     RDKit          3D

 30 31  0  0  1  0  0  0  0  0999 V2000
    6.3258  -17.0564   25.8269 N   0  0  0  0  0  0  0  0  0  0  0  0
    6.9796  -16.0124   25.0211 C   0  0  1  0  0  0  0  0  0  0  0  0
    7.9486  -15.3378   25.9813 C   0  0  0  0  0  0  0  0  0  0  0  0
    7.5797  -13.9463   26.3007 C   0  0  0  0  0  0  0  0  0  0  0  0
    6.4179  -13.6473   26.9586 C   0  0  0  0  0  0  0  0  0  0  0  0
    6.1069  -12.3153   27.2483 C   0  0  0  0  0  0  0  0  0  0  0  0
    6.9935  -11.3355   26.8555 C   0  0  0  0  0  0  0  0  0  0  0  0
    8.1603  -11.6184   26.1960 C   0  0  0  0  0  0  0  0  0  0  0  0
    8.4598  -12.9375   25.9139 C   0  0  0  0  0  0  0  0  0  0  0  0
    7.7157  -16.6198   23.8858 C   0  0  0  0  0  0  0  0  0  0  0  0
    8.1755  -17.7859   23.9772 O   0  0  0  0  0  0  0  0  0  0  0  0
    6.8646  -13.8347   20.1577 N   0  0  0  0  0  0  0  0  0  0  0  0
    6.8260  -15.2513   20.2408 C   0  0  0  0  0  0  0  0  0  0  0  0
    5.7150  -15.8044   20.3465 O   0  0  0  0  0  0  0  0  0  0  0  0
    8.0926  -15.9814   20.1976 C   0  0  0  0  0  0  0  0  0  0  0  0
    8.6089  -16.4424   21.5269 C   0  0  2  0  0  0  0  0  0  0  0  0
    7.9206  -15.8983   22.6635 N   0  0  0  0  0  0  0  0  0  0  0  0
   10.0858  -16.3966   21.6536 C   0  0  0  0  0  0  0  0  0  0  0  0
   10.8422  -16.1633   20.6745 O   0  0  0  0  0  0  0  0  0  0  0  0
   10.7739  -16.6173   22.9035 N   0  0  0  0  0  0  0  0  0  0  0  0
   12.2174  -16.5640   22.9826 C   0  0  1  0  0  0  0  0  0  0  0  0
   12.7243  -15.2444   22.4760 C   0  0  0  0  0  0  0  0  0  0  0  0
   12.9827  -15.2215   21.0193 C   0  0  0  0  0  0  0  0  0  0  0  0
   12.8501  -16.2841   20.1471 C   0  0  0  0  0  0  0  0  0  0  0  0
   13.1694  -15.8940   18.9125 N   0  0  0  0  0  0  0  0  0  0  0  0
   13.5043  -14.5969   18.9832 C   0  0  0  0  0  0  0  0  0  0  0  0
   13.3903  -14.1895   20.2645 N   0  0  0  0  0  0  0  0  0  0  0  0
   12.6970  -16.8396   24.3662 C   0  0  0  0  0  0  0  0  0  0  0  0
   14.0273  -16.9454   24.7157 O   0  0  0  0  0  0  0  0  0  0  0  0
   11.8375  -16.9849   25.2722 O   0  0  0  0  0  0  0  0  0  0  0  0
  2  1  1  1
  3  2  1  0
  3  4  1  0
  4  9  1  0
  4  5  2  0
  5  6  1  0
  6  7  2  0
  8  7  1  0
  9  8  2  0
 10  2  1  0
 11 10  2  0
 13 15  1  0
 13 12  1  0
 14 13  2  0
 16 15  1  6
 16 17  1  0
 17 10  1  0
 18 16  1  0
 19 18  2  0
 20 18  1  0
 21 28  1  0
 21 20  1  0
 21 22  1  1
 22 23  1  0
 23 27  1  0
 23 24  2  0
 24 25  1  0
 26 25  1  0
 27 26  2  0
 28 29  1  0
 30 28  2  0
M  END
$$$$
