FNH.pdb
     RDKit          3D

 30 31  0  0  1  0  0  0  0  0999 V2000
    6.2269  -16.8136   25.8633 N   0  0  0  0  0  0  0  0  0  0  0  0
    6.9156  -16.3017   24.6673 C   0  0  1  0  0  0  0  0  0  0  0  0
    7.8825  -15.2545   25.2007 C   0  0  0  0  0  0  0  0  0  0  0  0
    7.2164  -14.0124   25.6341 C   0  0  0  0  0  0  0  0  0  0  0  0
    6.3895  -13.9869   26.7238 C   0  0  0  0  0  0  0  0  0  0  0  0
    5.7812  -12.7875   27.1061 C   0  0  0  0  0  0  0  0  0  0  0  0
    6.0389  -11.6561   26.3617 C   0  0  0  0  0  0  0  0  0  0  0  0
    6.8639  -11.6652   25.2683 C   0  0  0  0  0  0  0  0  0  0  0  0
    7.4610  -12.8549   24.8976 C   0  0  0  0  0  0  0  0  0  0  0  0
    7.6575  -17.3930   23.9903 C   0  0  0  0  0  0  0  0  0  0  0  0
    7.9628  -18.4386   24.6173 O   0  0  0  0  0  0  0  0  0  0  0  0
    8.4143  -21.1754   20.3182 N   0  0  0  0  0  0  0  0  0  0  0  0
    8.1524  -19.8604   19.8517 C   0  0  0  0  0  0  0  0  0  0  0  0
    8.4183  -19.5936   18.6645 O   0  0  0  0  0  0  0  0  0  0  0  0
    7.5854  -18.8935   20.7911 C   0  0  0  0  0  0  0  0  0  0  0  0
    8.5327  -18.3894   21.8374 C   0  0  2  0  0  0  0  0  0  0  0  0
    8.0430  -17.2848   22.6132 N   0  0  0  0  0  0  0  0  0  0  0  0
    9.9236  -18.2033   21.3579 C   0  0  0  0  0  0  0  0  0  0  0  0
   10.8014  -19.0999   21.4629 O   0  0  0  0  0  0  0  0  0  0  0  0
   10.3837  -16.9838   20.7370 N   0  0  0  0  0  0  0  0  0  0  0  0
   10.8561  -15.8712   21.5319 C   0  0  1  0  0  0  0  0  0  0  0  0
    9.7033  -15.1617   22.1821 C   0  0  0  0  0  0  0  0  0  0  0  0
    8.9220  -14.3139   21.2547 C   0  0  0  0  0  0  0  0  0  0  0  0
    9.2154  -14.0649   19.9283 C   0  0  0  0  0  0  0  0  0  0  0  0
    8.2914  -13.2560   19.4083 N   0  0  0  0  0  0  0  0  0  0  0  0
    7.4114  -12.9845   20.3838 C   0  0  0  0  0  0  0  0  0  0  0  0
    7.7960  -13.6282   21.5055 N   0  0  0  0  0  0  0  0  0  0  0  0
   11.8653  -16.3099   22.5364 C   0  0  0  0  0  0  0  0  0  0  0  0
   11.5480  -16.8828   23.7506 O   0  0  0  0  0  0  0  0  0  0  0  0
   13.0817  -16.1488   22.2621 O   0  0  0  0  0  0  0  0  0  0  0  0
  2  1  1  1
  3  2  1  0
  3  4  1  0
  4  9  1  0
  4  5  2  0
  5  6  1  0
  6  7  2  0
  8  7  1  0
  9  8  2  0
 10  2  1  0
 11 10  2  0
 13 15  1  0
 13 12  1  0
 14 13  2  0
 16 15  1  6
 16 17  1  0
 17 10  1  0
 18 16  1  0
 19 18  2  0
 20 18  1  0
 21 28  1  0
 21 20  1  0
 21 22  1  1
 22 23  1  0
 23 27  1  0
 23 24  2  0
 24 25  1  0
 26 25  1  0
 27 26  2  0
 28 29  1  0
 30 28  2  0
M  END
$$$$
