FNH.pdb
     RDKit          3D

 30 31  0  0  1  0  0  0  0  0999 V2000
    6.0187  -15.9695   25.2104 N   0  0  0  0  0  0  0  0  0  0  0  0
    7.1457  -15.9633   24.2635 C   0  0  1  0  0  0  0  0  0  0  0  0
    8.0220  -14.8053   24.7185 C   0  0  0  0  0  0  0  0  0  0  0  0
    7.2582  -13.6983   25.3232 C   0  0  0  0  0  0  0  0  0  0  0  0
    6.7811  -12.6621   24.5678 C   0  0  0  0  0  0  0  0  0  0  0  0
    6.0560  -11.6341   25.1780 C   0  0  0  0  0  0  0  0  0  0  0  0
    5.8440  -11.7006   26.5387 C   0  0  0  0  0  0  0  0  0  0  0  0
    6.3152  -12.7309   27.3087 C   0  0  0  0  0  0  0  0  0  0  0  0
    7.0307  -13.7427   26.6973 C   0  0  0  0  0  0  0  0  0  0  0  0
    7.8951  -17.2407   24.3423 C   0  0  0  0  0  0  0  0  0  0  0  0
    7.2810  -18.3343   24.4234 O   0  0  0  0  0  0  0  0  0  0  0  0
    8.2892  -20.2774   22.4047 N   0  0  0  0  0  0  0  0  0  0  0  0
    8.3263  -18.9477   21.9089 C   0  0  0  0  0  0  0  0  0  0  0  0
    7.2972  -18.4888   21.3782 O   0  0  0  0  0  0  0  0  0  0  0  0
    9.5705  -18.1917   22.0493 C   0  0  0  0  0  0  0  0  0  0  0  0
   10.1017  -18.0912   23.4471 C   0  0  2  0  0  0  0  0  0  0  0  0
    9.3290  -17.2616   24.3283 N   0  0  0  0  0  0  0  0  0  0  0  0
   11.5607  -17.8370   23.5253 C   0  0  0  0  0  0  0  0  0  0  0  0
   12.4147  -18.6599   23.1024 O   0  0  0  0  0  0  0  0  0  0  0  0
   12.1186  -16.6322   24.0923 N   0  0  0  0  0  0  0  0  0  0  0  0
   12.0840  -16.3904   25.5182 C   0  0  1  0  0  0  0  0  0  0  0  0
   10.7023  -15.9926   25.9514 C   0  0  0  0  0  0  0  0  0  0  0  0
   10.6016  -15.6439   27.3859 C   0  0  0  0  0  0  0  0  0  0  0  0
   10.9233  -14.4286   27.9578 C   0  0  0  0  0  0  0  0  0  0  0  0
   10.7075  -14.4804   29.2729 N   0  0  0  0  0  0  0  0  0  0  0  0
   10.2525  -15.7117   29.5495 C   0  0  0  0  0  0  0  0  0  0  0  0
   10.1886  -16.4178   28.4014 N   0  0  0  0  0  0  0  0  0  0  0  0
   12.5785  -17.5702   26.2823 C   0  0  0  0  0  0  0  0  0  0  0  0
   13.6484  -17.5335   27.1523 O   0  0  0  0  0  0  0  0  0  0  0  0
   11.9852  -18.6674   26.1255 O   0  0  0  0  0  0  0  0  0  0  0  0
  2  1  1  1
  3  2  1  0
  3  4  1  0
  4  9  1  0
  4  5  2  0
  5  6  1  0
  6  7  2  0
  8  7  1  0
  9  8  2  0
 10  2  1  0
 11 10  2  0
 13 15  1  0
 13 12  1  0
 14 13  2  0
 16 15  1  6
 16 17  1  0
 17 10  1  0
 18 16  1  0
 19 18  2  0
 20 18  1  0
 21 28  1  0
 21 20  1  0
 21 22  1  1
 22 23  1  0
 23 27  1  0
 23 24  2  0
 24 25  1  0
 26 25  1  0
 27 26  2  0
 28 29  1  0
 30 28  2  0
M  END
$$$$
