FNH.pdb
     RDKit          3D

 30 31  0  0  1  0  0  0  0  0999 V2000
    8.3654  -17.9195   19.9398 N   0  0  0  0  0  0  0  0  0  0  0  0
    9.0085  -16.9568   20.8489 C   0  0  1  0  0  0  0  0  0  0  0  0
    7.8617  -16.1142   21.3881 C   0  0  0  0  0  0  0  0  0  0  0  0
    7.8108  -14.7591   20.8088 C   0  0  0  0  0  0  0  0  0  0  0  0
    8.8770  -13.9056   20.8909 C   0  0  0  0  0  0  0  0  0  0  0  0
    8.7913  -12.6306   20.3234 C   0  0  0  0  0  0  0  0  0  0  0  0
    7.6192  -12.2722   19.6921 C   0  0  0  0  0  0  0  0  0  0  0  0
    6.5431  -13.1150   19.6017 C   0  0  0  0  0  0  0  0  0  0  0  0
    6.6366  -14.3732   20.1652 C   0  0  0  0  0  0  0  0  0  0  0  0
    9.6926  -17.6678   21.9562 C   0  0  0  0  0  0  0  0  0  0  0  0
    9.2338  -18.7526   22.3948 O   0  0  0  0  0  0  0  0  0  0  0  0
   14.6983  -16.5407   22.2387 N   0  0  0  0  0  0  0  0  0  0  0  0
   13.8739  -17.5966   22.7083 C   0  0  0  0  0  0  0  0  0  0  0  0
   13.9449  -18.6989   22.1327 O   0  0  0  0  0  0  0  0  0  0  0  0
   12.9878  -17.3308   23.8412 C   0  0  0  0  0  0  0  0  0  0  0  0
   11.5649  -17.7622   23.6531 C   0  0  2  0  0  0  0  0  0  0  0  0
   10.8864  -17.1406   22.5509 N   0  0  0  0  0  0  0  0  0  0  0  0
   10.7663  -17.7818   24.9026 C   0  0  0  0  0  0  0  0  0  0  0  0
   10.4709  -16.7331   25.5335 O   0  0  0  0  0  0  0  0  0  0  0  0
   10.2670  -18.9993   25.4964 N   0  0  0  0  0  0  0  0  0  0  0  0
    9.6067  -18.9883   26.7836 C   0  0  1  0  0  0  0  0  0  0  0  0
    8.2953  -19.7161   26.7089 C   0  0  0  0  0  0  0  0  0  0  0  0
    7.2781  -19.0338   25.8789 C   0  0  0  0  0  0  0  0  0  0  0  0
    7.3795  -17.7684   25.3350 C   0  0  0  0  0  0  0  0  0  0  0  0
    6.2717  -17.4848   24.6487 N   0  0  0  0  0  0  0  0  0  0  0  0
    5.4638  -18.5513   24.7463 C   0  0  0  0  0  0  0  0  0  0  0  0
    6.0769  -19.4920   25.4944 N   0  0  0  0  0  0  0  0  0  0  0  0
   10.4837  -19.5488   27.8498 C   0  0  0  0  0  0  0  0  0  0  0  0
   11.7509  -20.0458   27.6255 O   0  0  0  0  0  0  0  0  0  0  0  0
   10.0431  -19.5711   29.0271 O   0  0  0  0  0  0  0  0  0  0  0  0
  2  1  1  6
  3  2  1  0
  3  4  1  0
  4  9  1  0
  4  5  2  0
  5  6  1  0
  6  7  2  0
  8  7  1  0
  9  8  2  0
 10  2  1  0
 11 10  2  0
 13 15  1  0
 13 12  1  0
 14 13  2  0
 16 15  1  1
 16 17  1  0
 17 10  1  0
 18 16  1  0
 19 18  2  0
 20 18  1  0
 21 28  1  0
 21 20  1  0
 21 22  1  6
 22 23  1  0
 23 27  1  0
 23 24  2  0
 24 25  1  0
 26 25  1  0
 27 26  2  0
 28 29  1  0
 30 28  2  0
M  END
$$$$
