FNH.pdb
     RDKit          3D

 30 31  0  0  1  0  0  0  0  0999 V2000
    6.7246  -17.9691   19.6825 N   0  0  0  0  0  0  0  0  0  0  0  0
    7.4986  -16.7256   19.8289 C   0  0  1  0  0  0  0  0  0  0  0  0
    6.6028  -15.8115   20.6523 C   0  0  0  0  0  0  0  0  0  0  0  0
    7.2610  -14.5532   21.0498 C   0  0  0  0  0  0  0  0  0  0  0  0
    7.4832  -14.2466   22.3645 C   0  0  0  0  0  0  0  0  0  0  0  0
    8.1159  -13.0458   22.7002 C   0  0  0  0  0  0  0  0  0  0  0  0
    8.4992  -12.2003   21.6810 C   0  0  0  0  0  0  0  0  0  0  0  0
    8.2838  -12.4928   20.3602 C   0  0  0  0  0  0  0  0  0  0  0  0
    7.6580  -13.6817   20.0375 C   0  0  0  0  0  0  0  0  0  0  0  0
    8.7692  -16.9882   20.5474 C   0  0  0  0  0  0  0  0  0  0  0  0
    8.7945  -17.7742   21.5278 O   0  0  0  0  0  0  0  0  0  0  0  0
   12.7454  -13.9337   19.5554 N   0  0  0  0  0  0  0  0  0  0  0  0
   12.3856  -15.2082   19.0440 C   0  0  0  0  0  0  0  0  0  0  0  0
   12.0257  -15.2843   17.8540 O   0  0  0  0  0  0  0  0  0  0  0  0
   12.4577  -16.3596   19.9429 C   0  0  0  0  0  0  0  0  0  0  0  0
   11.2501  -16.5728   20.8046 C   0  0  2  0  0  0  0  0  0  0  0  0
    9.9927  -16.3572   20.1457 N   0  0  0  0  0  0  0  0  0  0  0  0
   11.3352  -15.9307   22.1386 C   0  0  0  0  0  0  0  0  0  0  0  0
   12.3285  -15.2452   22.4977 O   0  0  0  0  0  0  0  0  0  0  0  0
   10.2925  -16.0406   23.1311 N   0  0  0  0  0  0  0  0  0  0  0  0
   10.5236  -15.6530   24.5056 C   0  0  1  0  0  0  0  0  0  0  0  0
    9.2286  -15.2957   25.1767 C   0  0  0  0  0  0  0  0  0  0  0  0
    9.3894  -14.7912   26.5584 C   0  0  0  0  0  0  0  0  0  0  0  0
   10.5839  -14.5561   27.2106 C   0  0  0  0  0  0  0  0  0  0  0  0
   10.3417  -14.1065   28.4426 N   0  0  0  0  0  0  0  0  0  0  0  0
    9.0091  -14.0510   28.5869 C   0  0  0  0  0  0  0  0  0  0  0  0
    8.4316  -14.4674   27.4407 N   0  0  0  0  0  0  0  0  0  0  0  0
   11.2536  -16.7141   25.2548 C   0  0  0  0  0  0  0  0  0  0  0  0
   10.7803  -17.9974   25.4343 O   0  0  0  0  0  0  0  0  0  0  0  0
   12.3699  -16.4236   25.7548 O   0  0  0  0  0  0  0  0  0  0  0  0
  2  1  1  1
  3  2  1  0
  3  4  1  0
  4  9  1  0
  4  5  2  0
  5  6  1  0
  6  7  2  0
  8  7  1  0
  9  8  2  0
 10  2  1  0
 11 10  2  0
 13 15  1  0
 13 12  1  0
 14 13  2  0
 16 15  1  6
 16 17  1  0
 17 10  1  0
 18 16  1  0
 19 18  2  0
 20 18  1  0
 21 28  1  0
 21 20  1  0
 21 22  1  1
 22 23  1  0
 23 27  1  0
 23 24  2  0
 24 25  1  0
 26 25  1  0
 27 26  2  0
 28 29  1  0
 30 28  2  0
M  END
$$$$
