FNH.pdb
     RDKit          3D

 30 31  0  0  1  0  0  0  0  0999 V2000
    4.9836  -16.6426   22.0682 N   0  0  0  0  0  0  0  0  0  0  0  0
    6.4096  -16.7501   22.4175 C   0  0  1  0  0  0  0  0  0  0  0  0
    6.8205  -15.3329   22.7901 C   0  0  0  0  0  0  0  0  0  0  0  0
    7.1983  -14.5099   21.6262 C   0  0  0  0  0  0  0  0  0  0  0  0
    6.9069  -14.9020   20.3482 C   0  0  0  0  0  0  0  0  0  0  0  0
    7.2768  -14.0905   19.2714 C   0  0  0  0  0  0  0  0  0  0  0  0
    7.9316  -12.9069   19.5381 C   0  0  0  0  0  0  0  0  0  0  0  0
    8.2306  -12.5005   20.8116 C   0  0  0  0  0  0  0  0  0  0  0  0
    7.8612  -13.3087   21.8698 C   0  0  0  0  0  0  0  0  0  0  0  0
    6.5923  -17.6619   23.5728 C   0  0  0  0  0  0  0  0  0  0  0  0
    5.6814  -17.7943   24.4286 O   0  0  0  0  0  0  0  0  0  0  0  0
    7.9531  -21.3082   22.5595 N   0  0  0  0  0  0  0  0  0  0  0  0
    6.8129  -21.1506   23.3904 C   0  0  0  0  0  0  0  0  0  0  0  0
    5.7116  -21.5401   22.9581 O   0  0  0  0  0  0  0  0  0  0  0  0
    6.9955  -20.5400   24.7068 C   0  0  0  0  0  0  0  0  0  0  0  0
    7.9815  -19.4124   24.7558 C   0  0  2  0  0  0  0  0  0  0  0  0
    7.8036  -18.4106   23.7426 N   0  0  0  0  0  0  0  0  0  0  0  0
    9.3908  -19.8449   24.9172 C   0  0  0  0  0  0  0  0  0  0  0  0
    9.8787  -20.8143   24.2788 O   0  0  0  0  0  0  0  0  0  0  0  0
   10.3137  -19.1947   25.8172 N   0  0  0  0  0  0  0  0  0  0  0  0
   11.0752  -18.0373   25.4008 C   0  0  1  0  0  0  0  0  0  0  0  0
   10.2029  -17.0774   24.6440 C   0  0  0  0  0  0  0  0  0  0  0  0
   10.7581  -16.6682   23.3349 C   0  0  0  0  0  0  0  0  0  0  0  0
   11.9894  -17.0238   22.8202 C   0  0  0  0  0  0  0  0  0  0  0  0
   12.1507  -16.4688   21.6183 N   0  0  0  0  0  0  0  0  0  0  0  0
   11.0398  -15.7634   21.3577 C   0  0  0  0  0  0  0  0  0  0  0  0
   10.1942  -15.8855   22.4020 N   0  0  0  0  0  0  0  0  0  0  0  0
   11.7385  -17.3766   26.5600 C   0  0  0  0  0  0  0  0  0  0  0  0
   11.1931  -17.3073   27.8252 O   0  0  0  0  0  0  0  0  0  0  0  0
   12.8647  -16.8492   26.3753 O   0  0  0  0  0  0  0  0  0  0  0  0
  2  1  1  1
  3  2  1  0
  3  4  1  0
  4  9  1  0
  4  5  2  0
  5  6  1  0
  6  7  2  0
  8  7  1  0
  9  8  2  0
 10  2  1  0
 11 10  2  0
 13 15  1  0
 13 12  1  0
 14 13  2  0
 16 15  1  6
 16 17  1  0
 17 10  1  0
 18 16  1  0
 19 18  2  0
 20 18  1  0
 21 28  1  0
 21 20  1  0
 21 22  1  1
 22 23  1  0
 23 27  1  0
 23 24  2  0
 24 25  1  0
 26 25  1  0
 27 26  2  0
 28 29  1  0
 30 28  2  0
M  END
$$$$
