FNH.pdb
     RDKit          3D

 30 31  0  0  1  0  0  0  0  0999 V2000
    7.7402  -17.6401   20.4715 N   0  0  0  0  0  0  0  0  0  0  0  0
    8.5170  -16.7616   19.5819 C   0  0  1  0  0  0  0  0  0  0  0  0
    9.0438  -15.6626   20.4933 C   0  0  0  0  0  0  0  0  0  0  0  0
    8.3575  -14.3709   20.3067 C   0  0  0  0  0  0  0  0  0  0  0  0
    7.2098  -14.2708   19.5685 C   0  0  0  0  0  0  0  0  0  0  0  0
    6.5856  -13.0286   19.4202 C   0  0  0  0  0  0  0  0  0  0  0  0
    7.1558  -11.9320   20.0310 C   0  0  0  0  0  0  0  0  0  0  0  0
    8.3042  -12.0157   20.7729 C   0  0  0  0  0  0  0  0  0  0  0  0
    8.9145  -13.2473   20.9144 C   0  0  0  0  0  0  0  0  0  0  0  0
    9.6422  -17.5091   18.9697 C   0  0  0  0  0  0  0  0  0  0  0  0
   10.0323  -18.5937   19.4708 O   0  0  0  0  0  0  0  0  0  0  0  0
   10.9200  -19.2044   14.6081 N   0  0  0  0  0  0  0  0  0  0  0  0
   10.8252  -17.8611   15.0575 C   0  0  0  0  0  0  0  0  0  0  0  0
    9.8429  -17.1871   14.6939 O   0  0  0  0  0  0  0  0  0  0  0  0
   11.8860  -17.3445   15.9217 C   0  0  0  0  0  0  0  0  0  0  0  0
   11.6177  -17.4481   17.3926 C   0  0  2  0  0  0  0  0  0  0  0  0
   10.3095  -17.0179   17.7993 N   0  0  0  0  0  0  0  0  0  0  0  0
   12.7064  -16.9155   18.2472 C   0  0  0  0  0  0  0  0  0  0  0  0
   12.6972  -15.7413   18.7016 O   0  0  0  0  0  0  0  0  0  0  0  0
   13.8617  -17.6951   18.6240 N   0  0  0  0  0  0  0  0  0  0  0  0
   14.9033  -17.1348   19.4571 C   0  0  1  0  0  0  0  0  0  0  0  0
   14.8418  -15.6345   19.4395 C   0  0  0  0  0  0  0  0  0  0  0  0
   15.5316  -15.0204   18.2835 C   0  0  0  0  0  0  0  0  0  0  0  0
   15.9898  -15.6785   17.1590 C   0  0  0  0  0  0  0  0  0  0  0  0
   16.5601  -14.8045   16.3287 N   0  0  0  0  0  0  0  0  0  0  0  0
   16.4729  -13.5970   16.9067 C   0  0  0  0  0  0  0  0  0  0  0  0
   15.8474  -13.7299   18.0949 N   0  0  0  0  0  0  0  0  0  0  0  0
   14.8351  -17.6690   20.8464 C   0  0  0  0  0  0  0  0  0  0  0  0
   15.7566  -17.3794   21.8312 O   0  0  0  0  0  0  0  0  0  0  0  0
   13.8793  -18.4308   21.1410 O   0  0  0  0  0  0  0  0  0  0  0  0
  2  1  1  1
  3  2  1  0
  3  4  1  0
  4  9  1  0
  4  5  2  0
  5  6  1  0
  6  7  2  0
  8  7  1  0
  9  8  2  0
 10  2  1  0
 11 10  2  0
 13 15  1  0
 13 12  1  0
 14 13  2  0
 16 15  1  6
 16 17  1  0
 17 10  1  0
 18 16  1  0
 19 18  2  0
 20 18  1  0
 21 28  1  0
 21 20  1  0
 21 22  1  1
 22 23  1  0
 23 27  1  0
 23 24  2  0
 24 25  1  0
 26 25  1  0
 27 26  2  0
 28 29  1  0
 30 28  2  0
M  END
$$$$
