FNH.pdb
     RDKit          3D

 30 31  0  0  1  0  0  0  0  0999 V2000
   10.0148  -15.5449   17.7452 N   0  0  0  0  0  0  0  0  0  0  0  0
   11.0894  -14.7282   18.3325 C   0  0  1  0  0  0  0  0  0  0  0  0
   10.5340  -14.2714   19.6738 C   0  0  0  0  0  0  0  0  0  0  0  0
    9.2147  -13.6212   19.5680 C   0  0  0  0  0  0  0  0  0  0  0  0
    8.0591  -14.2982   19.8477 C   0  0  0  0  0  0  0  0  0  0  0  0
    6.8279  -13.6442   19.7413 C   0  0  0  0  0  0  0  0  0  0  0  0
    6.8205  -12.3215   19.3524 C   0  0  0  0  0  0  0  0  0  0  0  0
    7.9684  -11.6301   19.0687 C   0  0  0  0  0  0  0  0  0  0  0  0
    9.1808  -12.2842   19.1766 C   0  0  0  0  0  0  0  0  0  0  0  0
   12.3113  -15.5451   18.5303 C   0  0  0  0  0  0  0  0  0  0  0  0
   12.4281  -16.6615   17.9650 O   0  0  0  0  0  0  0  0  0  0  0  0
   17.1190  -13.3747   16.9152 N   0  0  0  0  0  0  0  0  0  0  0  0
   16.4336  -14.5889   17.1818 C   0  0  0  0  0  0  0  0  0  0  0  0
   17.0520  -15.6593   17.0293 O   0  0  0  0  0  0  0  0  0  0  0  0
   15.0402  -14.5146   17.6202 C   0  0  0  0  0  0  0  0  0  0  0  0
   14.7631  -15.1082   18.9682 C   0  0  2  0  0  0  0  0  0  0  0  0
   13.3833  -15.0864   19.3652 N   0  0  0  0  0  0  0  0  0  0  0  0
   15.6909  -14.6559   20.0331 C   0  0  0  0  0  0  0  0  0  0  0  0
   16.9425  -14.6999   19.9038 O   0  0  0  0  0  0  0  0  0  0  0  0
   15.2371  -14.1333   21.3001 N   0  0  0  0  0  0  0  0  0  0  0  0
   14.5874  -14.9857   22.2718 C   0  0  1  0  0  0  0  0  0  0  0  0
   13.4305  -15.7105   21.6464 C   0  0  0  0  0  0  0  0  0  0  0  0
   12.6713  -16.5567   22.5935 C   0  0  0  0  0  0  0  0  0  0  0  0
   11.6177  -17.3932   22.2811 C   0  0  0  0  0  0  0  0  0  0  0  0
   11.1799  -17.9958   23.3874 N   0  0  0  0  0  0  0  0  0  0  0  0
   11.9388  -17.5561   24.4024 C   0  0  0  0  0  0  0  0  0  0  0  0
   12.8450  -16.6813   23.9183 N   0  0  0  0  0  0  0  0  0  0  0  0
   15.5531  -15.9328   22.8967 C   0  0  0  0  0  0  0  0  0  0  0  0
   15.4358  -16.4191   24.1823 O   0  0  0  0  0  0  0  0  0  0  0  0
   16.5361  -16.3133   22.2114 O   0  0  0  0  0  0  0  0  0  0  0  0
  2  1  1  1
  3  2  1  0
  3  4  1  0
  4  9  1  0
  4  5  2  0
  5  6  1  0
  6  7  2  0
  8  7  1  0
  9  8  2  0
 10  2  1  0
 11 10  2  0
 13 15  1  0
 13 12  1  0
 14 13  2  0
 16 15  1  6
 16 17  1  0
 17 10  1  0
 18 16  1  0
 19 18  2  0
 20 18  1  0
 21 28  1  0
 21 20  1  0
 21 22  1  6
 22 23  1  0
 23 27  1  0
 23 24  2  0
 24 25  1  0
 26 25  1  0
 27 26  2  0
 28 29  1  0
 30 28  2  0
M  END
$$$$
