FNH.pdb
     RDKit          3D

 30 31  0  0  1  0  0  0  0  0999 V2000
    5.7455  -16.5170   21.1381 N   0  0  0  0  0  0  0  0  0  0  0  0
    6.6745  -15.7469   21.9810 C   0  0  1  0  0  0  0  0  0  0  0  0
    5.8485  -15.3470   23.1950 C   0  0  0  0  0  0  0  0  0  0  0  0
    6.5895  -14.5066   24.1537 C   0  0  0  0  0  0  0  0  0  0  0  0
    7.4008  -13.4881   23.7338 C   0  0  0  0  0  0  0  0  0  0  0  0
    8.0820  -12.7099   24.6748 C   0  0  0  0  0  0  0  0  0  0  0  0
    7.9106  -12.9997   26.0117 C   0  0  0  0  0  0  0  0  0  0  0  0
    7.1023  -14.0159   26.4479 C   0  0  0  0  0  0  0  0  0  0  0  0
    6.4328  -14.7798   25.5112 C   0  0  0  0  0  0  0  0  0  0  0  0
    7.8221  -16.5917   22.3921 C   0  0  0  0  0  0  0  0  0  0  0  0
    7.6936  -17.8388   22.4817 O   0  0  0  0  0  0  0  0  0  0  0  0
   12.3789  -18.5997   20.7570 N   0  0  0  0  0  0  0  0  0  0  0  0
   12.3458  -17.2514   21.2001 C   0  0  0  0  0  0  0  0  0  0  0  0
   13.4242  -16.7028   21.4958 O   0  0  0  0  0  0  0  0  0  0  0  0
   11.0477  -16.5829   21.2844 C   0  0  0  0  0  0  0  0  0  0  0  0
   10.3386  -16.7294   22.5966 C   0  0  2  0  0  0  0  0  0  0  0  0
    9.0984  -16.0127   22.6958 N   0  0  0  0  0  0  0  0  0  0  0  0
   11.2140  -16.5614   23.7818 C   0  0  0  0  0  0  0  0  0  0  0  0
   12.0846  -15.6549   23.8571 O   0  0  0  0  0  0  0  0  0  0  0  0
   11.1419  -17.4208   24.9396 N   0  0  0  0  0  0  0  0  0  0  0  0
   11.3087  -16.8921   26.2758 C   0  0  1  0  0  0  0  0  0  0  0  0
   10.1989  -15.9359   26.6061 C   0  0  0  0  0  0  0  0  0  0  0  0
   10.3754  -15.2369   27.8982 C   0  0  0  0  0  0  0  0  0  0  0  0
   11.3813  -15.4582   28.8183 C   0  0  0  0  0  0  0  0  0  0  0  0
   11.2199  -14.6460   29.8638 N   0  0  0  0  0  0  0  0  0  0  0  0
   10.1249  -13.9088   29.6247 C   0  0  0  0  0  0  0  0  0  0  0  0
    9.6127  -14.2691   28.4296 N   0  0  0  0  0  0  0  0  0  0  0  0
   11.4083  -17.9842   27.2845 C   0  0  0  0  0  0  0  0  0  0  0  0
   11.2670  -19.3241   26.9886 O   0  0  0  0  0  0  0  0  0  0  0  0
   11.6351  -17.6665   28.4797 O   0  0  0  0  0  0  0  0  0  0  0  0
  2  1  1  6
  3  2  1  0
  3  4  1  0
  4  9  1  0
  4  5  2  0
  5  6  1  0
  6  7  2  0
  8  7  1  0
  9  8  2  0
 10  2  1  0
 11 10  2  0
 13 15  1  0
 13 12  1  0
 14 13  2  0
 16 15  1  6
 16 17  1  0
 17 10  1  0
 18 16  1  0
 19 18  2  0
 20 18  1  0
 21 28  1  0
 21 20  1  0
 21 22  1  1
 22 23  1  0
 23 27  1  0
 23 24  2  0
 24 25  1  0
 26 25  1  0
 27 26  2  0
 28 29  1  0
 30 28  2  0
M  END
$$$$
