FNH.pdb
     RDKit          3D

 30 31  0  0  1  0  0  0  0  0999 V2000
    6.8080  -17.2876   18.8639 N   0  0  0  0  0  0  0  0  0  0  0  0
    7.5581  -16.3297   19.6925 C   0  0  1  0  0  0  0  0  0  0  0  0
    6.4869  -15.5470   20.4380 C   0  0  0  0  0  0  0  0  0  0  0  0
    7.0290  -14.6911   21.5095 C   0  0  0  0  0  0  0  0  0  0  0  0
    6.8511  -15.0000   22.8304 C   0  0  0  0  0  0  0  0  0  0  0  0
    7.3861  -14.1658   23.8168 C   0  0  0  0  0  0  0  0  0  0  0  0
    8.0838  -13.0452   23.4190 C   0  0  0  0  0  0  0  0  0  0  0  0
    8.2703  -12.7223   22.1010 C   0  0  0  0  0  0  0  0  0  0  0  0
    7.7383  -13.5523   21.1328 C   0  0  0  0  0  0  0  0  0  0  0  0
    8.4337  -17.0481   20.6500 C   0  0  0  0  0  0  0  0  0  0  0  0
    7.9519  -17.9068   21.4311 O   0  0  0  0  0  0  0  0  0  0  0  0
   12.0111  -20.1507   20.5492 N   0  0  0  0  0  0  0  0  0  0  0  0
   12.0320  -18.7859   20.1592 C   0  0  0  0  0  0  0  0  0  0  0  0
   12.0288  -18.5219   18.9419 O   0  0  0  0  0  0  0  0  0  0  0  0
   12.0561  -17.7671   21.2082 C   0  0  0  0  0  0  0  0  0  0  0  0
   10.7112  -17.3362   21.7101 C   0  0  2  0  0  0  0  0  0  0  0  0
    9.8420  -16.7841   20.7094 N   0  0  0  0  0  0  0  0  0  0  0  0
   10.7566  -16.5371   22.9585 C   0  0  0  0  0  0  0  0  0  0  0  0
   10.8145  -15.2793   22.9552 O   0  0  0  0  0  0  0  0  0  0  0  0
   10.7411  -17.1330   24.2734 N   0  0  0  0  0  0  0  0  0  0  0  0
   10.8411  -16.3191   25.4652 C   0  0  1  0  0  0  0  0  0  0  0  0
    9.7531  -15.2844   25.4890 C   0  0  0  0  0  0  0  0  0  0  0  0
    9.7865  -14.4076   26.6804 C   0  0  0  0  0  0  0  0  0  0  0  0
   10.6616  -14.5046   27.7445 C   0  0  0  0  0  0  0  0  0  0  0  0
   10.3943  -13.5478   28.6342 N   0  0  0  0  0  0  0  0  0  0  0  0
    9.3605  -12.8406   28.1537 C   0  0  0  0  0  0  0  0  0  0  0  0
    8.9922  -13.3644   26.9660 N   0  0  0  0  0  0  0  0  0  0  0  0
   10.8275  -17.1558   26.6981 C   0  0  0  0  0  0  0  0  0  0  0  0
   10.0949  -18.3165   26.8357 O   0  0  0  0  0  0  0  0  0  0  0  0
   11.5264  -16.7821   27.6742 O   0  0  0  0  0  0  0  0  0  0  0  0
  2  1  1  6
  3  2  1  0
  3  4  1  0
  4  9  1  0
  4  5  2  0
  5  6  1  0
  6  7  2  0
  8  7  1  0
  9  8  2  0
 10  2  1  0
 11 10  2  0
 13 15  1  0
 13 12  1  0
 14 13  2  0
 16 15  1  6
 16 17  1  0
 17 10  1  0
 18 16  1  0
 19 18  2  0
 20 18  1  0
 21 28  1  0
 21 20  1  0
 21 22  1  1
 22 23  1  0
 23 27  1  0
 23 24  2  0
 24 25  1  0
 26 25  1  0
 27 26  2  0
 28 29  1  0
 30 28  2  0
M  END
$$$$
