FNH.pdb
     RDKit          3D

 30 31  0  0  1  0  0  0  0  0999 V2000
    5.6233  -17.7513   24.3864 N   0  0  0  0  0  0  0  0  0  0  0  0
    6.2460  -16.4181   24.3462 C   0  0  1  0  0  0  0  0  0  0  0  0
    6.2870  -15.9704   25.8001 C   0  0  0  0  0  0  0  0  0  0  0  0
    6.6971  -14.5637   25.9661 C   0  0  0  0  0  0  0  0  0  0  0  0
    5.8085  -13.6016   26.3618 C   0  0  0  0  0  0  0  0  0  0  0  0
    6.2380  -12.2797   26.5134 C   0  0  0  0  0  0  0  0  0  0  0  0
    7.5603  -11.9870   26.2552 C   0  0  0  0  0  0  0  0  0  0  0  0
    8.4620  -12.9387   25.8582 C   0  0  0  0  0  0  0  0  0  0  0  0
    8.0289  -14.2426   25.7110 C   0  0  0  0  0  0  0  0  0  0  0  0
    7.6194  -16.5047   23.7932 C   0  0  0  0  0  0  0  0  0  0  0  0
    8.3100  -17.5406   23.9652 O   0  0  0  0  0  0  0  0  0  0  0  0
    7.2710  -13.6148   19.8011 N   0  0  0  0  0  0  0  0  0  0  0  0
    7.9822  -14.8003   20.1237 C   0  0  0  0  0  0  0  0  0  0  0  0
    7.5322  -15.8865   19.7126 O   0  0  0  0  0  0  0  0  0  0  0  0
    9.2027  -14.6794   20.9204 C   0  0  0  0  0  0  0  0  0  0  0  0
    9.2721  -15.5737   22.1211 C   0  0  2  0  0  0  0  0  0  0  0  0
    8.1912  -15.4173   23.0533 N   0  0  0  0  0  0  0  0  0  0  0  0
   10.6063  -15.6207   22.7667 C   0  0  0  0  0  0  0  0  0  0  0  0
   11.5171  -14.7935   22.4995 O   0  0  0  0  0  0  0  0  0  0  0  0
   10.9693  -16.6157   23.7478 N   0  0  0  0  0  0  0  0  0  0  0  0
   11.2788  -16.2444   25.1113 C   0  0  1  0  0  0  0  0  0  0  0  0
   10.1780  -15.4032   25.6908 C   0  0  0  0  0  0  0  0  0  0  0  0
   10.4099  -14.9979   27.0947 C   0  0  0  0  0  0  0  0  0  0  0  0
   11.4902  -15.3482   27.8806 C   0  0  0  0  0  0  0  0  0  0  0  0
   11.3616  -14.8012   29.0901 N   0  0  0  0  0  0  0  0  0  0  0  0
   10.2142  -14.1061   29.0883 C   0  0  0  0  0  0  0  0  0  0  0  0
    9.6368  -14.2266   27.8747 N   0  0  0  0  0  0  0  0  0  0  0  0
   11.5521  -17.4432   25.9530 C   0  0  0  0  0  0  0  0  0  0  0  0
   11.3159  -18.7407   25.5488 O   0  0  0  0  0  0  0  0  0  0  0  0
   12.0275  -17.2626   27.1029 O   0  0  0  0  0  0  0  0  0  0  0  0
  2  1  1  1
  3  2  1  0
  3  4  1  0
  4  9  1  0
  4  5  2  0
  5  6  1  0
  6  7  2  0
  8  7  1  0
  9  8  2  0
 10  2  1  0
 11 10  2  0
 13 15  1  0
 13 12  1  0
 14 13  2  0
 16 15  1  6
 16 17  1  0
 17 10  1  0
 18 16  1  0
 19 18  2  0
 20 18  1  0
 21 28  1  0
 21 20  1  0
 21 22  1  1
 22 23  1  0
 23 27  1  0
 23 24  2  0
 24 25  1  0
 26 25  1  0
 27 26  2  0
 28 29  1  0
 30 28  2  0
M  END
$$$$
