FNH.pdb
     RDKit          3D

 30 31  0  0  1  0  0  0  0  0999 V2000
    5.7986  -15.2578   21.5221 N   0  0  0  0  0  0  0  0  0  0  0  0
    6.6579  -14.7988   22.6256 C   0  0  1  0  0  0  0  0  0  0  0  0
    5.6938  -14.1937   23.6357 C   0  0  0  0  0  0  0  0  0  0  0  0
    6.3696  -13.6002   24.8042 C   0  0  0  0  0  0  0  0  0  0  0  0
    6.1817  -14.0939   26.0663 C   0  0  0  0  0  0  0  0  0  0  0  0
    6.8456  -13.5068   27.1477 C   0  0  0  0  0  0  0  0  0  0  0  0
    7.6780  -12.4357   26.9019 C   0  0  0  0  0  0  0  0  0  0  0  0
    7.8765  -11.9298   25.6445 C   0  0  0  0  0  0  0  0  0  0  0  0
    7.2165  -12.5161   24.5816 C   0  0  0  0  0  0  0  0  0  0  0  0
    7.3848  -15.9434   23.2264 C   0  0  0  0  0  0  0  0  0  0  0  0
    6.7560  -16.9519   23.6354 O   0  0  0  0  0  0  0  0  0  0  0  0
    6.8607  -18.9272   22.5646 N   0  0  0  0  0  0  0  0  0  0  0  0
    7.7885  -18.7797   23.6289 C   0  0  0  0  0  0  0  0  0  0  0  0
    7.3925  -18.9990   24.7892 O   0  0  0  0  0  0  0  0  0  0  0  0
    9.1568  -18.3787   23.3030 C   0  0  0  0  0  0  0  0  0  0  0  0
    9.5762  -17.0447   23.8420 C   0  0  2  0  0  0  0  0  0  0  0  0
    8.8130  -15.9300   23.3554 N   0  0  0  0  0  0  0  0  0  0  0  0
   11.0408  -16.8131   23.8173 C   0  0  0  0  0  0  0  0  0  0  0  0
   11.5449  -15.6610   23.8777 O   0  0  0  0  0  0  0  0  0  0  0  0
   12.0037  -17.8844   23.7197 N   0  0  0  0  0  0  0  0  0  0  0  0
   13.4240  -17.6126   23.6785 C   0  0  1  0  0  0  0  0  0  0  0  0
   13.6778  -16.2052   23.2206 C   0  0  0  0  0  0  0  0  0  0  0  0
   13.3207  -15.9624   21.8054 C   0  0  0  0  0  0  0  0  0  0  0  0
   12.6621  -16.8384   20.9649 C   0  0  0  0  0  0  0  0  0  0  0  0
   12.5139  -16.2810   19.7625 N   0  0  0  0  0  0  0  0  0  0  0  0
   13.0684  -15.0609   19.8226 C   0  0  0  0  0  0  0  0  0  0  0  0
   13.5584  -14.8687   21.0650 N   0  0  0  0  0  0  0  0  0  0  0  0
   14.0683  -17.8844   24.9943 C   0  0  0  0  0  0  0  0  0  0  0  0
   13.5288  -17.5157   26.2092 O   0  0  0  0  0  0  0  0  0  0  0  0
   15.1717  -18.4870   24.9994 O   0  0  0  0  0  0  0  0  0  0  0  0
  2  1  1  6
  3  2  1  0
  3  4  1  0
  4  9  1  0
  4  5  2  0
  5  6  1  0
  6  7  2  0
  8  7  1  0
  9  8  2  0
 10  2  1  0
 11 10  2  0
 13 15  1  0
 13 12  1  0
 14 13  2  0
 16 15  1  6
 16 17  1  0
 17 10  1  0
 18 16  1  0
 19 18  2  0
 20 18  1  0
 21 28  1  0
 21 20  1  0
 21 22  1  1
 22 23  1  0
 23 27  1  0
 23 24  2  0
 24 25  1  0
 26 25  1  0
 27 26  2  0
 28 29  1  0
 30 28  2  0
M  END
$$$$
