FNH.pdb
     RDKit          3D

 30 31  0  0  1  0  0  0  0  0999 V2000
    6.1433  -16.6522   25.1665 N   0  0  0  0  0  0  0  0  0  0  0  0
    7.2549  -15.7788   24.7563 C   0  0  1  0  0  0  0  0  0  0  0  0
    7.5903  -14.9741   26.0038 C   0  0  0  0  0  0  0  0  0  0  0  0
    6.9754  -13.6339   26.0163 C   0  0  0  0  0  0  0  0  0  0  0  0
    5.8230  -13.3821   26.7094 C   0  0  0  0  0  0  0  0  0  0  0  0
    5.2745  -12.0961   26.7013 C   0  0  0  0  0  0  0  0  0  0  0  0
    5.9225  -11.1123   25.9851 C   0  0  0  0  0  0  0  0  0  0  0  0
    7.0766  -11.3484   25.2860 C   0  0  0  0  0  0  0  0  0  0  0  0
    7.6118  -12.6222   25.2996 C   0  0  0  0  0  0  0  0  0  0  0  0
    8.4227  -16.5903   24.3353 C   0  0  0  0  0  0  0  0  0  0  0  0
    8.5998  -17.7420   24.8065 O   0  0  0  0  0  0  0  0  0  0  0  0
   12.1208  -18.3183   20.4834 N   0  0  0  0  0  0  0  0  0  0  0  0
   12.3315  -17.1730   21.2953 C   0  0  0  0  0  0  0  0  0  0  0  0
   13.5005  -16.8861   21.6156 O   0  0  0  0  0  0  0  0  0  0  0  0
   11.1646  -16.3949   21.7098 C   0  0  0  0  0  0  0  0  0  0  0  0
   10.5876  -16.7702   23.0411 C   0  0  2  0  0  0  0  0  0  0  0  0
    9.3732  -16.0865   23.3870 N   0  0  0  0  0  0  0  0  0  0  0  0
   11.5787  -16.8074   24.1436 C   0  0  0  0  0  0  0  0  0  0  0  0
   12.4865  -15.9437   24.2670 O   0  0  0  0  0  0  0  0  0  0  0  0
   11.5855  -17.8334   25.1592 N   0  0  0  0  0  0  0  0  0  0  0  0
   12.6474  -17.9100   26.1387 C   0  0  1  0  0  0  0  0  0  0  0  0
   12.0889  -17.8146   27.5294 C   0  0  0  0  0  0  0  0  0  0  0  0
   11.5379  -16.4826   27.8633 C   0  0  0  0  0  0  0  0  0  0  0  0
   11.5718  -15.3580   27.0624 C   0  0  0  0  0  0  0  0  0  0  0  0
   10.9805  -14.3412   27.6911 N   0  0  0  0  0  0  0  0  0  0  0  0
   10.5690  -14.8003   28.8826 C   0  0  0  0  0  0  0  0  0  0  0  0
   10.9086  -16.1021   28.9858 N   0  0  0  0  0  0  0  0  0  0  0  0
   13.4640  -19.1435   25.9605 C   0  0  0  0  0  0  0  0  0  0  0  0
   13.1802  -20.1313   25.0403 O   0  0  0  0  0  0  0  0  0  0  0  0
   14.4744  -19.2950   26.6932 O   0  0  0  0  0  0  0  0  0  0  0  0
  2  1  1  1
  3  2  1  0
  3  4  1  0
  4  9  1  0
  4  5  2  0
  5  6  1  0
  6  7  2  0
  8  7  1  0
  9  8  2  0
 10  2  1  0
 11 10  2  0
 13 15  1  0
 13 12  1  0
 14 13  2  0
 16 15  1  6
 16 17  1  0
 17 10  1  0
 18 16  1  0
 19 18  2  0
 20 18  1  0
 21 28  1  0
 21 20  1  0
 21 22  1  1
 22 23  1  0
 23 27  1  0
 23 24  2  0
 24 25  1  0
 26 25  1  0
 27 26  2  0
 28 29  1  0
 30 28  2  0
M  END
$$$$
