FNH.pdb
     RDKit          3D

 30 31  0  0  1  0  0  0  0  0999 V2000
    6.3739  -16.3419   25.3595 N   0  0  0  0  0  0  0  0  0  0  0  0
    7.5722  -15.7973   24.7004 C   0  0  1  0  0  0  0  0  0  0  0  0
    8.0892  -14.7366   25.6614 C   0  0  0  0  0  0  0  0  0  0  0  0
    7.2099  -13.5566   25.7559 C   0  0  0  0  0  0  0  0  0  0  0  0
    6.5684  -13.0529   24.6574 C   0  0  0  0  0  0  0  0  0  0  0  0
    5.7381  -11.9357   24.7895 C   0  0  0  0  0  0  0  0  0  0  0  0
    5.5926  -11.3721   26.0392 C   0  0  0  0  0  0  0  0  0  0  0  0
    6.2280  -11.8643   27.1484 C   0  0  0  0  0  0  0  0  0  0  0  0
    7.0466  -12.9687   27.0088 C   0  0  0  0  0  0  0  0  0  0  0  0
    8.5875  -16.8617   24.5106 C   0  0  0  0  0  0  0  0  0  0  0  0
    8.6008  -17.8690   25.2621 O   0  0  0  0  0  0  0  0  0  0  0  0
   11.1920  -15.6183   20.5435 N   0  0  0  0  0  0  0  0  0  0  0  0
   10.9233  -16.9105   21.0663 C   0  0  0  0  0  0  0  0  0  0  0  0
   10.0797  -17.6173   20.4831 O   0  0  0  0  0  0  0  0  0  0  0  0
   11.6521  -17.3389   22.2598 C   0  0  0  0  0  0  0  0  0  0  0  0
   10.8202  -17.4814   23.4983 C   0  0  2  0  0  0  0  0  0  0  0  0
    9.5730  -16.7703   23.4729 N   0  0  0  0  0  0  0  0  0  0  0  0
   11.5763  -17.3019   24.7614 C   0  0  0  0  0  0  0  0  0  0  0  0
   11.7901  -16.1688   25.2671 O   0  0  0  0  0  0  0  0  0  0  0  0
   12.1288  -18.4061   25.5096 N   0  0  0  0  0  0  0  0  0  0  0  0
   12.3121  -18.3223   26.9422 C   0  0  1  0  0  0  0  0  0  0  0  0
   11.0138  -17.9917   27.6207 C   0  0  0  0  0  0  0  0  0  0  0  0
   10.8731  -16.5636   27.9810 C   0  0  0  0  0  0  0  0  0  0  0  0
   11.7729  -15.5549   27.6975 C   0  0  0  0  0  0  0  0  0  0  0  0
   11.3150  -14.3974   28.1761 N   0  0  0  0  0  0  0  0  0  0  0  0
   10.1352  -14.6521   28.7616 C   0  0  0  0  0  0  0  0  0  0  0  0
    9.8679  -15.9693   28.6421 N   0  0  0  0  0  0  0  0  0  0  0  0
   12.9119  -19.5723   27.4880 C   0  0  0  0  0  0  0  0  0  0  0  0
   13.9951  -19.6003   28.3418 O   0  0  0  0  0  0  0  0  0  0  0  0
   12.4005  -20.6701   27.1505 O   0  0  0  0  0  0  0  0  0  0  0  0
  2  1  1  1
  3  2  1  0
  3  4  1  0
  4  9  1  0
  4  5  2  0
  5  6  1  0
  6  7  2  0
  8  7  1  0
  9  8  2  0
 10  2  1  0
 11 10  2  0
 13 15  1  0
 13 12  1  0
 14 13  2  0
 16 15  1  6
 16 17  1  0
 17 10  1  0
 18 16  1  0
 19 18  2  0
 20 18  1  0
 21 28  1  0
 21 20  1  0
 21 22  1  1
 22 23  1  0
 23 27  1  0
 23 24  2  0
 24 25  1  0
 26 25  1  0
 27 26  2  0
 28 29  1  0
 30 28  2  0
M  END
$$$$
