DNW.pdb
     RDKit          3D

 31 32  0  0  1  0  0  0  0  0999 V2000
    8.1779  -17.4565   21.2126 N   0  0  0  0  0  0  0  0  0  0  0  0
    8.8105  -18.7041   21.5696 C   0  0  1  0  0  0  0  0  0  0  0  0
    8.9944  -19.6465   20.4041 C   0  0  0  0  0  0  0  0  0  0  0  0
    8.5031  -19.0976   19.1236 C   0  0  0  0  0  0  0  0  0  0  0  0
    8.8141  -17.9112   18.8444 O   0  0  0  0  0  0  0  0  0  0  0  0
   10.0725  -18.4125   22.2930 C   0  0  0  0  0  0  0  0  0  0  0  0
   10.8731  -19.3623   22.5849 O   0  0  0  0  0  0  0  0  0  0  0  0
    7.7350  -19.8049   18.2348 O   0  0  0  0  0  0  0  0  0  0  0  0
   12.7691  -15.6465   20.2708 N   0  0  0  0  0  0  0  0  0  0  0  0
   13.0042  -16.2606   21.5246 C   0  0  0  0  0  0  0  0  0  0  0  0
   13.7201  -17.3234   21.4508 O   0  0  0  0  0  0  0  0  0  0  0  0
   12.5141  -15.7890   22.8306 C   0  0  0  0  0  0  0  0  0  0  0  0
   11.6197  -16.8075   23.4620 C   0  0  2  0  0  0  0  0  0  0  0  0
   10.4167  -17.0792   22.6759 N   0  0  0  0  0  0  0  0  0  0  0  0
   11.1821  -16.4320   24.8242 C   0  0  0  0  0  0  0  0  0  0  0  0
   11.8381  -15.5822   25.4967 O   0  0  0  0  0  0  0  0  0  0  0  0
   10.0330  -16.9743   25.4629 N   0  0  0  0  0  0  0  0  0  0  0  0
    9.7425  -16.7035   26.8880 C   0  0  1  0  0  0  0  0  0  0  0  0
    8.2950  -16.4321   27.0821 C   0  0  0  0  0  0  0  0  0  0  0  0
    7.7595  -15.4565   26.1297 C   0  0  0  0  0  0  0  0  0  0  0  0
    7.3521  -15.7966   24.8269 C   0  0  0  0  0  0  0  0  0  0  0  0
    6.8748  -14.7098   24.2280 N   0  0  0  0  0  0  0  0  0  0  0  0
    6.9262  -13.6402   25.0309 C   0  0  0  0  0  0  0  0  0  0  0  0
    6.5628  -12.3196   24.8529 C   0  0  0  0  0  0  0  0  0  0  0  0
    6.7494  -11.4178   25.8774 C   0  0  0  0  0  0  0  0  0  0  0  0
    7.2993  -11.8793   27.0529 C   0  0  0  0  0  0  0  0  0  0  0  0
    7.6647  -13.2090   27.2315 C   0  0  0  0  0  0  0  0  0  0  0  0
    7.4803  -14.1112   26.2174 C   0  0  0  0  0  0  0  0  0  0  0  0
   10.2666  -17.7952   27.7059 C   0  0  0  0  0  0  0  0  0  0  0  0
   10.2680  -17.6986   28.9528 O   0  0  0  0  0  0  0  0  0  0  0  0
   10.7856  -18.9821   27.1799 O   0  0  0  0  0  0  0  0  0  0  0  0
  2  1  1  6
  2  3  1  0
  3  4  1  0
  4  5  2  0
  4  8  1  0
  6  2  1  0
  7  6  2  0
  9 10  1  0
 10 11  2  0
 12 10  1  0
 13 12  1  6
 13 14  1  0
 14  6  1  0
 15 13  1  0
 15 17  1  0
 16 15  2  0
 18 19  1  6
 18 29  1  0
 18 17  1  0
 20 19  1  0
 20 21  2  0
 22 21  1  0
 23 28  2  0
 23 22  1  0
 24 23  1  0
 25 26  1  0
 25 24  2  0
 26 27  2  0
 27 28  1  0
 28 20  1  0
 29 31  1  0
 30 29  2  0
M  END
$$$$
