DNW.pdb
     RDKit          3D

 31 32  0  0  1  0  0  0  0  0999 V2000
   11.9975  -15.9392   14.3434 N   0  0  0  0  0  0  0  0  0  0  0  0
   11.0651  -16.4896   15.2982 C   0  0  1  0  0  0  0  0  0  0  0  0
   11.1857  -17.9850   15.4711 C   0  0  0  0  0  0  0  0  0  0  0  0
   11.0115  -18.7365   14.2114 C   0  0  0  0  0  0  0  0  0  0  0  0
   10.7589  -19.9656   14.3001 O   0  0  0  0  0  0  0  0  0  0  0  0
   11.1848  -15.7402   16.5729 C   0  0  0  0  0  0  0  0  0  0  0  0
   12.2403  -15.0667   16.8188 O   0  0  0  0  0  0  0  0  0  0  0  0
   11.1099  -18.1715   12.9659 O   0  0  0  0  0  0  0  0  0  0  0  0
    7.6225  -13.3780   17.3381 N   0  0  0  0  0  0  0  0  0  0  0  0
    8.6643  -13.3095   18.2943 C   0  0  0  0  0  0  0  0  0  0  0  0
    9.3097  -12.2001   18.2736 O   0  0  0  0  0  0  0  0  0  0  0  0
    9.0342  -14.3616   19.2558 C   0  0  0  0  0  0  0  0  0  0  0  0
   10.2823  -15.0623   18.8229 C   0  0  2  0  0  0  0  0  0  0  0  0
   10.1356  -15.7552   17.5433 N   0  0  0  0  0  0  0  0  0  0  0  0
   10.7643  -16.0535   19.8095 C   0  0  0  0  0  0  0  0  0  0  0  0
   10.3337  -17.2445   19.7843 O   0  0  0  0  0  0  0  0  0  0  0  0
   11.7143  -15.7592   20.8261 N   0  0  0  0  0  0  0  0  0  0  0  0
   12.3263  -16.8298   21.6434 C   0  0  1  0  0  0  0  0  0  0  0  0
   12.9100  -17.8814   20.7717 C   0  0  0  0  0  0  0  0  0  0  0  0
   13.9631  -17.3768   19.8873 C   0  0  0  0  0  0  0  0  0  0  0  0
   14.5627  -18.1568   18.8818 C   0  0  0  0  0  0  0  0  0  0  0  0
   15.4443  -17.4086   18.2254 N   0  0  0  0  0  0  0  0  0  0  0  0
   15.4943  -16.1627   18.7118 C   0  0  0  0  0  0  0  0  0  0  0  0
   16.2468  -15.0558   18.3709 C   0  0  0  0  0  0  0  0  0  0  0  0
   16.0899  -13.8823   19.0751 C   0  0  0  0  0  0  0  0  0  0  0  0
   15.1755  -13.8636   20.1049 C   0  0  0  0  0  0  0  0  0  0  0  0
   14.4181  -14.9782   20.4475 C   0  0  0  0  0  0  0  0  0  0  0  0
   14.5681  -16.1477   19.7503 C   0  0  0  0  0  0  0  0  0  0  0  0
   13.2698  -16.2383   22.5897 C   0  0  0  0  0  0  0  0  0  0  0  0
   13.8555  -16.9617   23.4250 O   0  0  0  0  0  0  0  0  0  0  0  0
   13.5777  -14.8752   22.6328 O   0  0  0  0  0  0  0  0  0  0  0  0
  2  1  1  6
  2  3  1  0
  3  4  1  0
  4  5  2  0
  4  8  1  0
  6  2  1  0
  7  6  2  0
  9 10  1  0
 10 11  2  0
 12 10  1  0
 13 12  1  1
 13 14  1  0
 14  6  1  0
 15 13  1  0
 15 17  1  0
 16 15  2  0
 18 19  1  6
 18 29  1  0
 18 17  1  0
 20 19  1  0
 20 21  2  0
 22 21  1  0
 23 28  2  0
 23 22  1  0
 24 23  1  0
 25 26  1  0
 25 24  2  0
 26 27  2  0
 27 28  1  0
 28 20  1  0
 29 31  1  0
 30 29  2  0
M  END
$$$$
