DNW.pdb
     RDKit          3D

 31 32  0  0  1  0  0  0  0  0999 V2000
   10.8622  -17.4317   17.4558 N   0  0  0  0  0  0  0  0  0  0  0  0
    9.4367  -17.4003   17.6822 C   0  0  1  0  0  0  0  0  0  0  0  0
    8.6285  -17.9710   16.5413 C   0  0  0  0  0  0  0  0  0  0  0  0
    9.0279  -17.4452   15.2198 C   0  0  0  0  0  0  0  0  0  0  0  0
    9.9884  -16.6337   15.1853 O   0  0  0  0  0  0  0  0  0  0  0  0
    9.1438  -18.0422   18.9872 C   0  0  0  0  0  0  0  0  0  0  0  0
    8.3847  -19.0666   19.0367 O   0  0  0  0  0  0  0  0  0  0  0  0
    8.4136  -17.7909   14.0437 O   0  0  0  0  0  0  0  0  0  0  0  0
   13.6796  -19.7156   20.5355 N   0  0  0  0  0  0  0  0  0  0  0  0
   13.3571  -18.3848   20.1758 C   0  0  0  0  0  0  0  0  0  0  0  0
   14.3208  -17.5557   20.3538 O   0  0  0  0  0  0  0  0  0  0  0  0
   12.0681  -17.9155   19.6406 C   0  0  0  0  0  0  0  0  0  0  0  0
   11.0009  -17.9872   20.6856 C   0  0  2  0  0  0  0  0  0  0  0  0
    9.6962  -17.5347   20.2038 N   0  0  0  0  0  0  0  0  0  0  0  0
   11.3209  -17.2022   21.8979 C   0  0  0  0  0  0  0  0  0  0  0  0
   12.3823  -17.4335   22.5495 O   0  0  0  0  0  0  0  0  0  0  0  0
   10.4938  -16.1641   22.4085 N   0  0  0  0  0  0  0  0  0  0  0  0
   10.6957  -15.6148   23.7672 C   0  0  1  0  0  0  0  0  0  0  0  0
    9.6374  -14.6239   24.0911 C   0  0  0  0  0  0  0  0  0  0  0  0
    8.5207  -14.6440   23.1433 C   0  0  0  0  0  0  0  0  0  0  0  0
    7.3302  -15.3578   23.3720 C   0  0  0  0  0  0  0  0  0  0  0  0
    6.4987  -15.1437   22.3568 N   0  0  0  0  0  0  0  0  0  0  0  0
    7.0365  -14.3294   21.4409 C   0  0  0  0  0  0  0  0  0  0  0  0
    6.5691  -13.8382   20.2375 C   0  0  0  0  0  0  0  0  0  0  0  0
    7.3702  -13.0100   19.4827 C   0  0  0  0  0  0  0  0  0  0  0  0
    8.6221  -12.7032   19.9680 C   0  0  0  0  0  0  0  0  0  0  0  0
    9.0920  -13.1978   21.1797 C   0  0  0  0  0  0  0  0  0  0  0  0
    8.2998  -14.0206   21.9359 C   0  0  0  0  0  0  0  0  0  0  0  0
   10.8056  -16.7143   24.7235 C   0  0  0  0  0  0  0  0  0  0  0  0
   11.3351  -16.5225   25.8402 O   0  0  0  0  0  0  0  0  0  0  0  0
   10.3469  -18.0114   24.4746 O   0  0  0  0  0  0  0  0  0  0  0  0
  2  1  1  6
  2  3  1  0
  3  4  1  0
  4  5  2  0
  4  8  1  0
  6  2  1  0
  7  6  2  0
  9 10  1  0
 10 11  2  0
 12 10  1  0
 13 12  1  6
 13 14  1  0
 14  6  1  0
 15 13  1  0
 15 17  1  0
 16 15  2  0
 18 19  1  1
 18 29  1  0
 18 17  1  0
 20 19  1  0
 20 21  2  0
 22 21  1  0
 23 28  2  0
 23 22  1  0
 24 23  1  0
 25 26  1  0
 25 24  2  0
 26 27  2  0
 27 28  1  0
 28 20  1  0
 29 31  1  0
 30 29  2  0
M  END
$$$$
