DNW.pdb
     RDKit          3D

 31 32  0  0  1  0  0  0  0  0999 V2000
   10.1678  -19.1517   20.5687 N   0  0  0  0  0  0  0  0  0  0  0  0
   10.7971  -17.9995   19.9683 C   0  0  1  0  0  0  0  0  0  0  0  0
   10.8418  -18.0499   18.4596 C   0  0  0  0  0  0  0  0  0  0  0  0
   11.8293  -19.0151   17.9346 C   0  0  0  0  0  0  0  0  0  0  0  0
   11.8347  -19.2214   16.6938 O   0  0  0  0  0  0  0  0  0  0  0  0
   10.1526  -16.7715   20.4952 C   0  0  0  0  0  0  0  0  0  0  0  0
   10.7406  -15.6448   20.3815 O   0  0  0  0  0  0  0  0  0  0  0  0
   12.7288  -19.6896   18.7195 O   0  0  0  0  0  0  0  0  0  0  0  0
    7.1465  -17.9789   20.4217 N   0  0  0  0  0  0  0  0  0  0  0  0
    6.2968  -16.9317   20.8529 C   0  0  0  0  0  0  0  0  0  0  0  0
    5.0531  -17.1505   20.6230 O   0  0  0  0  0  0  0  0  0  0  0  0
    6.7182  -15.6836   21.5107 C   0  0  0  0  0  0  0  0  0  0  0  0
    8.2093  -15.5980   21.5831 C   0  0  2  0  0  0  0  0  0  0  0  0
    8.8755  -16.8206   21.1352 N   0  0  0  0  0  0  0  0  0  0  0  0
    8.7088  -15.2950   22.9420 C   0  0  0  0  0  0  0  0  0  0  0  0
    8.4503  -14.1807   23.4862 O   0  0  0  0  0  0  0  0  0  0  0  0
    9.4892  -16.1969   23.7167 N   0  0  0  0  0  0  0  0  0  0  0  0
   10.0885  -15.7875   25.0059 C   0  0  1  0  0  0  0  0  0  0  0  0
    9.1344  -16.0184   26.1207 C   0  0  0  0  0  0  0  0  0  0  0  0
    7.9444  -15.1674   26.0453 C   0  0  0  0  0  0  0  0  0  0  0  0
    6.6543  -15.6691   25.7950 C   0  0  0  0  0  0  0  0  0  0  0  0
    5.7867  -14.6622   25.8317 N   0  0  0  0  0  0  0  0  0  0  0  0
    6.3925  -13.4972   26.0901 C   0  0  0  0  0  0  0  0  0  0  0  0
    5.9199  -12.2050   26.2130 C   0  0  0  0  0  0  0  0  0  0  0  0
    6.8015  -11.1795   26.4749 C   0  0  0  0  0  0  0  0  0  0  0  0
    8.1367  -11.4917   26.6043 C   0  0  0  0  0  0  0  0  0  0  0  0
    8.6118  -12.7927   26.4807 C   0  0  0  0  0  0  0  0  0  0  0  0
    7.7403  -13.8174   26.2219 C   0  0  0  0  0  0  0  0  0  0  0  0
   11.3812  -16.4486   25.1714 C   0  0  0  0  0  0  0  0  0  0  0  0
   11.7773  -17.2722   24.3177 O   0  0  0  0  0  0  0  0  0  0  0  0
   12.2391  -16.2214   26.2518 O   0  0  0  0  0  0  0  0  0  0  0  0
  2  1  1  6
  2  3  1  0
  3  4  1  0
  4  5  2  0
  4  8  1  0
  6  2  1  0
  7  6  2  0
  9 10  1  0
 10 11  2  0
 12 10  1  0
 13 12  1  1
 13 14  1  0
 14  6  1  0
 15 13  1  0
 15 17  1  0
 16 15  2  0
 18 19  1  1
 18 29  1  0
 18 17  1  0
 20 19  1  0
 20 21  2  0
 22 21  1  0
 23 28  2  0
 23 22  1  0
 24 23  1  0
 25 26  1  0
 25 24  2  0
 26 27  2  0
 27 28  1  0
 28 20  1  0
 29 31  1  0
 30 29  2  0
M  END
$$$$
