DNW.pdb
     RDKit          3D

 31 32  0  0  1  0  0  0  0  0999 V2000
   10.1732  -15.7634   18.8904 N   0  0  0  0  0  0  0  0  0  0  0  0
    8.9134  -15.8657   19.5879 C   0  0  1  0  0  0  0  0  0  0  0  0
    7.7765  -16.3489   18.7192 C   0  0  0  0  0  0  0  0  0  0  0  0
    7.7771  -15.7521   17.3678 C   0  0  0  0  0  0  0  0  0  0  0  0
    7.1396  -14.6796   17.2079 O   0  0  0  0  0  0  0  0  0  0  0  0
    9.1065  -16.6841   20.8101 C   0  0  0  0  0  0  0  0  0  0  0  0
    8.1218  -16.9040   21.5912 O   0  0  0  0  0  0  0  0  0  0  0  0
    8.4277  -16.2997   16.2922 O   0  0  0  0  0  0  0  0  0  0  0  0
   10.6320  -21.1326   21.1451 N   0  0  0  0  0  0  0  0  0  0  0  0
   11.3922  -19.9388   21.1095 C   0  0  0  0  0  0  0  0  0  0  0  0
   11.8705  -19.6676   19.9496 O   0  0  0  0  0  0  0  0  0  0  0  0
   11.6538  -19.0390   22.2454 C   0  0  0  0  0  0  0  0  0  0  0  0
   10.5775  -18.0080   22.3657 C   0  0  2  0  0  0  0  0  0  0  0  0
   10.3829  -17.2373   21.1380 N   0  0  0  0  0  0  0  0  0  0  0  0
   10.8173  -17.0425   23.4604 C   0  0  0  0  0  0  0  0  0  0  0  0
   11.7301  -16.1702   23.3571 O   0  0  0  0  0  0  0  0  0  0  0  0
   10.0699  -17.0173   24.6700 N   0  0  0  0  0  0  0  0  0  0  0  0
   10.5442  -16.2686   25.8545 C   0  0  1  0  0  0  0  0  0  0  0  0
   10.1358  -14.8430   25.7677 C   0  0  0  0  0  0  0  0  0  0  0  0
    8.6921  -14.6476   25.9213 C   0  0  0  0  0  0  0  0  0  0  0  0
    7.7612  -15.6997   25.8486 C   0  0  0  0  0  0  0  0  0  0  0  0
    6.5440  -15.2130   26.0708 N   0  0  0  0  0  0  0  0  0  0  0  0
    6.5722  -13.8933   26.2915 C   0  0  0  0  0  0  0  0  0  0  0  0
    5.5804  -12.9679   26.5521 C   0  0  0  0  0  0  0  0  0  0  0  0
    5.9141  -11.6428   26.7263 C   0  0  0  0  0  0  0  0  0  0  0  0
    7.2428  -11.2926   26.6310 C   0  0  0  0  0  0  0  0  0  0  0  0
    8.2407  -12.2248   26.3689 C   0  0  0  0  0  0  0  0  0  0  0  0
    7.9159  -13.5443   26.1962 C   0  0  0  0  0  0  0  0  0  0  0  0
   10.1009  -16.9503   27.0688 C   0  0  0  0  0  0  0  0  0  0  0  0
   10.3142  -16.4364   28.1888 O   0  0  0  0  0  0  0  0  0  0  0  0
    9.4324  -18.1782   27.0722 O   0  0  0  0  0  0  0  0  0  0  0  0
  2  1  1  6
  2  3  1  0
  3  4  1  0
  4  5  2  0
  4  8  1  0
  6  2  1  0
  7  6  2  0
  9 10  1  0
 10 11  2  0
 12 10  1  0
 13 12  1  6
 13 14  1  0
 14  6  1  0
 15 13  1  0
 15 17  1  0
 16 15  2  0
 18 19  1  6
 18 29  1  0
 18 17  1  0
 20 19  1  0
 20 21  2  0
 22 21  1  0
 23 28  2  0
 23 22  1  0
 24 23  1  0
 25 26  1  0
 25 24  2  0
 26 27  2  0
 27 28  1  0
 28 20  1  0
 29 31  1  0
 30 29  2  0
M  END
$$$$
