DNW.pdb
     RDKit          3D

 31 32  0  0  1  0  0  0  0  0999 V2000
    9.8571  -19.1220   20.2656 N   0  0  0  0  0  0  0  0  0  0  0  0
   10.8099  -18.2494   19.6216 C   0  0  1  0  0  0  0  0  0  0  0  0
   10.8208  -18.3685   18.1162 C   0  0  0  0  0  0  0  0  0  0  0  0
   11.7569  -19.3962   17.6165 C   0  0  0  0  0  0  0  0  0  0  0  0
   12.9877  -19.1710   17.7463 O   0  0  0  0  0  0  0  0  0  0  0  0
   10.5890  -16.8621   20.0987 C   0  0  0  0  0  0  0  0  0  0  0  0
   11.3916  -15.9335   19.7499 O   0  0  0  0  0  0  0  0  0  0  0  0
   11.3593  -20.5679   17.0255 O   0  0  0  0  0  0  0  0  0  0  0  0
    5.4649  -15.0547   21.5683 N   0  0  0  0  0  0  0  0  0  0  0  0
    6.8142  -15.4579   21.4227 C   0  0  0  0  0  0  0  0  0  0  0  0
    7.0336  -16.6659   21.7972 O   0  0  0  0  0  0  0  0  0  0  0  0
    7.9173  -14.6347   20.8995 C   0  0  0  0  0  0  0  0  0  0  0  0
    9.2383  -15.1574   21.3660 C   0  0  2  0  0  0  0  0  0  0  0  0
    9.4877  -16.5371   20.9496 N   0  0  0  0  0  0  0  0  0  0  0  0
    9.3986  -15.1035   22.8356 C   0  0  0  0  0  0  0  0  0  0  0  0
    9.4142  -13.9893   23.4381 O   0  0  0  0  0  0  0  0  0  0  0  0
    9.5419  -16.2549   23.6579 N   0  0  0  0  0  0  0  0  0  0  0  0
    9.9899  -16.1480   25.0637 C   0  0  1  0  0  0  0  0  0  0  0  0
    8.8801  -16.4863   25.9913 C   0  0  0  0  0  0  0  0  0  0  0  0
    7.7886  -15.5097   25.9632 C   0  0  0  0  0  0  0  0  0  0  0  0
    6.4562  -15.8531   25.6703 C   0  0  0  0  0  0  0  0  0  0  0  0
    5.7002  -14.7636   25.7668 N   0  0  0  0  0  0  0  0  0  0  0  0
    6.4225  -13.6893   26.1062 C   0  0  0  0  0  0  0  0  0  0  0  0
    6.0883  -12.3648   26.3105 C   0  0  0  0  0  0  0  0  0  0  0  0
    7.0699  -11.4586   26.6463 C   0  0  0  0  0  0  0  0  0  0  0  0
    8.3623  -11.9197   26.7651 C   0  0  0  0  0  0  0  0  0  0  0  0
    8.6981  -13.2533   26.5595 C   0  0  0  0  0  0  0  0  0  0  0  0
    7.7266  -14.1599   26.2270 C   0  0  0  0  0  0  0  0  0  0  0  0
   11.1976  -16.9494   25.2503 C   0  0  0  0  0  0  0  0  0  0  0  0
   11.6380  -17.6465   24.3099 O   0  0  0  0  0  0  0  0  0  0  0  0
   11.9235  -16.9972   26.4442 O   0  0  0  0  0  0  0  0  0  0  0  0
  2  1  1  1
  2  3  1  0
  3  4  1  0
  4  5  2  0
  4  8  1  0
  6  2  1  0
  7  6  2  0
  9 10  1  0
 10 11  2  0
 12 10  1  0
 13 12  1  1
 13 14  1  0
 14  6  1  0
 15 13  1  0
 15 17  1  0
 16 15  2  0
 18 19  1  1
 18 29  1  0
 18 17  1  0
 20 19  1  0
 20 21  2  0
 22 21  1  0
 23 28  2  0
 23 22  1  0
 24 23  1  0
 25 26  1  0
 25 24  2  0
 26 27  2  0
 27 28  1  0
 28 20  1  0
 29 31  1  0
 30 29  2  0
M  END
$$$$
