DNW.pdb
     RDKit          3D

 31 32  0  0  1  0  0  0  0  0999 V2000
   10.1295  -14.8216   19.1948 N   0  0  0  0  0  0  0  0  0  0  0  0
    8.8580  -14.5304   19.8133 C   0  0  1  0  0  0  0  0  0  0  0  0
    7.7160  -14.4229   18.8311 C   0  0  0  0  0  0  0  0  0  0  0  0
    8.0660  -13.6773   17.6048 C   0  0  0  0  0  0  0  0  0  0  0  0
    9.2717  -13.3555   17.4467 O   0  0  0  0  0  0  0  0  0  0  0  0
    8.6121  -15.5178   20.8929 C   0  0  0  0  0  0  0  0  0  0  0  0
    7.4731  -15.5640   21.4662 O   0  0  0  0  0  0  0  0  0  0  0  0
    7.1566  -13.3218   16.6421 O   0  0  0  0  0  0  0  0  0  0  0  0
   10.0067  -19.4817   19.5116 N   0  0  0  0  0  0  0  0  0  0  0  0
    9.3502  -19.3143   20.7547 C   0  0  0  0  0  0  0  0  0  0  0  0
    8.1209  -19.6837   20.7413 O   0  0  0  0  0  0  0  0  0  0  0  0
    9.9474  -18.7791   21.9896 C   0  0  0  0  0  0  0  0  0  0  0  0
    9.3630  -17.4449   22.3279 C   0  0  2  0  0  0  0  0  0  0  0  0
    9.6315  -16.4278   21.3118 N   0  0  0  0  0  0  0  0  0  0  0  0
    9.8401  -16.9128   23.6230 C   0  0  0  0  0  0  0  0  0  0  0  0
   10.9212  -16.2557   23.6867 O   0  0  0  0  0  0  0  0  0  0  0  0
    9.1487  -17.0895   24.8531 N   0  0  0  0  0  0  0  0  0  0  0  0
    9.6935  -16.5685   26.1260 C   0  0  1  0  0  0  0  0  0  0  0  0
    8.5925  -16.1551   27.0335 C   0  0  0  0  0  0  0  0  0  0  0  0
    7.6357  -15.2446   26.4000 C   0  0  0  0  0  0  0  0  0  0  0  0
    6.4939  -15.6879   25.7082 C   0  0  0  0  0  0  0  0  0  0  0  0
    5.8068  -14.6294   25.2894 N   0  0  0  0  0  0  0  0  0  0  0  0
    6.3992  -13.4833   25.6455 C   0  0  0  0  0  0  0  0  0  0  0  0
    6.0738  -12.1578   25.4335 C   0  0  0  0  0  0  0  0  0  0  0  0
    6.9002  -11.1677   25.9176 C   0  0  0  0  0  0  0  0  0  0  0  0
    8.0330  -11.5484   26.6022 C   0  0  0  0  0  0  0  0  0  0  0  0
    8.3600  -12.8830   26.8155 C   0  0  0  0  0  0  0  0  0  0  0  0
    7.5417  -13.8724   26.3382 C   0  0  0  0  0  0  0  0  0  0  0  0
   10.6111  -17.5509   26.6992 C   0  0  0  0  0  0  0  0  0  0  0  0
   11.2337  -17.2871   27.7513 O   0  0  0  0  0  0  0  0  0  0  0  0
   10.8539  -18.8088   26.1392 O   0  0  0  0  0  0  0  0  0  0  0  0
  2  1  1  6
  2  3  1  0
  3  4  1  0
  4  5  2  0
  4  8  1  0
  6  2  1  0
  7  6  2  0
  9 10  1  0
 10 11  2  0
 12 10  1  0
 13 12  1  6
 13 14  1  0
 14  6  1  0
 15 13  1  0
 15 17  1  0
 16 15  2  0
 18 19  1  1
 18 29  1  0
 18 17  1  0
 20 19  1  0
 20 21  2  0
 22 21  1  0
 23 28  2  0
 23 22  1  0
 24 23  1  0
 25 26  1  0
 25 24  2  0
 26 27  2  0
 27 28  1  0
 28 20  1  0
 29 31  1  0
 30 29  2  0
M  END
$$$$
