DNW.pdb
     RDKit          3D

 31 32  0  0  1  0  0  0  0  0999 V2000
   10.0206  -15.2425   18.6272 N   0  0  0  0  0  0  0  0  0  0  0  0
    9.2066  -14.4825   19.5458 C   0  0  1  0  0  0  0  0  0  0  0  0
    8.0505  -13.7700   18.8852 C   0  0  0  0  0  0  0  0  0  0  0  0
    8.3347  -13.3545   17.4963 C   0  0  0  0  0  0  0  0  0  0  0  0
    9.4502  -13.6761   17.0122 O   0  0  0  0  0  0  0  0  0  0  0  0
    8.7902  -15.3662   20.6623 C   0  0  0  0  0  0  0  0  0  0  0  0
    7.9401  -14.9520   21.5191 O   0  0  0  0  0  0  0  0  0  0  0  0
    7.4571  -12.6451   16.7173 O   0  0  0  0  0  0  0  0  0  0  0  0
    8.9257  -19.9942   19.4721 N   0  0  0  0  0  0  0  0  0  0  0  0
    8.4735  -19.4925   20.7163 C   0  0  0  0  0  0  0  0  0  0  0  0
    7.1993  -19.5490   20.8616 O   0  0  0  0  0  0  0  0  0  0  0  0
    9.3162  -18.9447   21.7924 C   0  0  0  0  0  0  0  0  0  0  0  0
    9.0429  -17.4883   21.9925 C   0  0  2  0  0  0  0  0  0  0  0  0
    9.3246  -16.6841   20.8037 N   0  0  0  0  0  0  0  0  0  0  0  0
    9.8084  -16.9020   23.1143 C   0  0  0  0  0  0  0  0  0  0  0  0
   10.9671  -16.4280   22.9210 O   0  0  0  0  0  0  0  0  0  0  0  0
    9.3224  -16.8263   24.4487 N   0  0  0  0  0  0  0  0  0  0  0  0
   10.2275  -16.5450   25.5846 C   0  0  1  0  0  0  0  0  0  0  0  0
    9.9820  -15.1817   26.1210 C   0  0  0  0  0  0  0  0  0  0  0  0
    8.5688  -14.7973   26.0913 C   0  0  0  0  0  0  0  0  0  0  0  0
    7.5211  -15.7270   25.9615 C   0  0  0  0  0  0  0  0  0  0  0  0
    6.3616  -15.0783   26.0120 N   0  0  0  0  0  0  0  0  0  0  0  0
    6.5390  -13.7608   26.1673 C   0  0  0  0  0  0  0  0  0  0  0  0
    5.6552  -12.7034   26.2606 C   0  0  0  0  0  0  0  0  0  0  0  0
    6.1393  -11.4219   26.4059 C   0  0  0  0  0  0  0  0  0  0  0  0
    7.5048  -11.2480   26.4521 C   0  0  0  0  0  0  0  0  0  0  0  0
    8.3940  -12.3129   26.3585 C   0  0  0  0  0  0  0  0  0  0  0  0
    7.9192  -13.5898   26.2154 C   0  0  0  0  0  0  0  0  0  0  0  0
   10.1096  -17.6132   26.5748 C   0  0  0  0  0  0  0  0  0  0  0  0
    9.2074  -18.4723   26.4648 O   0  0  0  0  0  0  0  0  0  0  0  0
   10.9603  -17.7516   27.6756 O   0  0  0  0  0  0  0  0  0  0  0  0
  2  1  1  6
  2  3  1  0
  3  4  1  0
  4  5  2  0
  4  8  1  0
  6  2  1  0
  7  6  2  0
  9 10  1  0
 10 11  2  0
 12 10  1  0
 13 12  1  6
 13 14  1  0
 14  6  1  0
 15 13  1  0
 15 17  1  0
 16 15  2  0
 18 19  1  1
 18 29  1  0
 18 17  1  0
 20 19  1  0
 20 21  2  0
 22 21  1  0
 23 28  2  0
 23 22  1  0
 24 23  1  0
 25 26  1  0
 25 24  2  0
 26 27  2  0
 27 28  1  0
 28 20  1  0
 29 31  1  0
 30 29  2  0
M  END
$$$$
