DNW.pdb
     RDKit          3D

 31 32  0  0  1  0  0  0  0  0999 V2000
   10.0734  -13.7027   19.5350 N   0  0  0  0  0  0  0  0  0  0  0  0
    8.7338  -13.7172   20.0730 C   0  0  1  0  0  0  0  0  0  0  0  0
    7.6561  -13.6123   19.0204 C   0  0  0  0  0  0  0  0  0  0  0  0
    7.9968  -14.3066   17.7617 C   0  0  0  0  0  0  0  0  0  0  0  0
    8.3269  -15.5179   17.8393 O   0  0  0  0  0  0  0  0  0  0  0  0
    8.5822  -14.9031   20.9514 C   0  0  0  0  0  0  0  0  0  0  0  0
    7.4926  -15.0880   21.5891 O   0  0  0  0  0  0  0  0  0  0  0  0
    7.9727  -13.7069   16.5288 O   0  0  0  0  0  0  0  0  0  0  0  0
   10.2878  -17.9743   18.9802 N   0  0  0  0  0  0  0  0  0  0  0  0
   10.8618  -17.9877   20.2743 C   0  0  0  0  0  0  0  0  0  0  0  0
   12.1253  -17.7613   20.2793 O   0  0  0  0  0  0  0  0  0  0  0  0
   10.1491  -18.2274   21.5404 C   0  0  0  0  0  0  0  0  0  0  0  0
    9.5220  -16.9669   22.0442 C   0  0  2  0  0  0  0  0  0  0  0  0
    9.6391  -15.8532   21.1034 N   0  0  0  0  0  0  0  0  0  0  0  0
   10.0828  -16.5148   23.3362 C   0  0  0  0  0  0  0  0  0  0  0  0
   11.2112  -15.9408   23.3794 O   0  0  0  0  0  0  0  0  0  0  0  0
    9.4241  -16.6819   24.5855 N   0  0  0  0  0  0  0  0  0  0  0  0
   10.1101  -16.3928   25.8640 C   0  0  1  0  0  0  0  0  0  0  0  0
    9.8800  -14.9830   26.2715 C   0  0  0  0  0  0  0  0  0  0  0  0
    8.4782  -14.5729   26.1592 C   0  0  0  0  0  0  0  0  0  0  0  0
    7.4248  -15.4820   25.9522 C   0  0  0  0  0  0  0  0  0  0  0  0
    6.2758  -14.8131   25.9392 N   0  0  0  0  0  0  0  0  0  0  0  0
    6.4657  -13.5011   26.1229 C   0  0  0  0  0  0  0  0  0  0  0  0
    5.5961  -12.4291   26.1752 C   0  0  0  0  0  0  0  0  0  0  0  0
    6.0922  -11.1585   26.3675 C   0  0  0  0  0  0  0  0  0  0  0  0
    7.4550  -11.0098   26.5008 C   0  0  0  0  0  0  0  0  0  0  0  0
    8.3298  -12.0893   26.4483 C   0  0  0  0  0  0  0  0  0  0  0  0
    7.8430  -13.3556   26.2589 C   0  0  0  0  0  0  0  0  0  0  0  0
    9.7115  -17.3823   26.8628 C   0  0  0  0  0  0  0  0  0  0  0  0
    8.8305  -18.2271   26.5906 O   0  0  0  0  0  0  0  0  0  0  0  0
   10.2610  -17.4578   28.1463 O   0  0  0  0  0  0  0  0  0  0  0  0
  2  1  1  6
  2  3  1  0
  3  4  1  0
  4  5  2  0
  4  8  1  0
  6  2  1  0
  7  6  2  0
  9 10  1  0
 10 11  2  0
 12 10  1  0
 13 12  1  6
 13 14  1  0
 14  6  1  0
 15 13  1  0
 15 17  1  0
 16 15  2  0
 18 19  1  1
 18 29  1  0
 18 17  1  0
 20 19  1  0
 20 21  2  0
 22 21  1  0
 23 28  2  0
 23 22  1  0
 24 23  1  0
 25 26  1  0
 25 24  2  0
 26 27  2  0
 27 28  1  0
 28 20  1  0
 29 31  1  0
 30 29  2  0
M  END
$$$$
