DNW.pdb
     RDKit          3D

 31 32  0  0  1  0  0  0  0  0999 V2000
   11.8387  -16.1136   18.7115 N   0  0  0  0  0  0  0  0  0  0  0  0
   12.3505  -15.0842   19.5847 C   0  0  1  0  0  0  0  0  0  0  0  0
   13.1710  -14.0362   18.8714 C   0  0  0  0  0  0  0  0  0  0  0  0
   14.2121  -14.6058   17.9915 C   0  0  0  0  0  0  0  0  0  0  0  0
   14.3152  -15.8588   17.9520 O   0  0  0  0  0  0  0  0  0  0  0  0
   11.2256  -14.5159   20.3675 C   0  0  0  0  0  0  0  0  0  0  0  0
   11.4208  -13.5042   21.1202 O   0  0  0  0  0  0  0  0  0  0  0  0
   15.0614  -13.8494   17.2257 O   0  0  0  0  0  0  0  0  0  0  0  0
    8.2590  -12.2954   18.5728 N   0  0  0  0  0  0  0  0  0  0  0  0
    8.0377  -13.6570   18.8911 C   0  0  0  0  0  0  0  0  0  0  0  0
    8.2417  -14.4553   17.9068 O   0  0  0  0  0  0  0  0  0  0  0  0
    7.6165  -14.1883   20.1983 C   0  0  0  0  0  0  0  0  0  0  0  0
    8.8034  -14.5007   21.0525 C   0  0  2  0  0  0  0  0  0  0  0  0
    9.9146  -15.0809   20.2990 N   0  0  0  0  0  0  0  0  0  0  0  0
    8.4922  -15.4258   22.1639 C   0  0  0  0  0  0  0  0  0  0  0  0
    7.3347  -15.4435   22.6781 O   0  0  0  0  0  0  0  0  0  0  0  0
    9.4324  -16.3352   22.7222 N   0  0  0  0  0  0  0  0  0  0  0  0
    9.8607  -16.2319   24.1345 C   0  0  1  0  0  0  0  0  0  0  0  0
    9.7731  -14.8253   24.6039 C   0  0  0  0  0  0  0  0  0  0  0  0
    8.4704  -14.4927   25.1854 C   0  0  0  0  0  0  0  0  0  0  0  0
    7.4081  -15.4111   25.2693 C   0  0  0  0  0  0  0  0  0  0  0  0
    6.3828  -14.8278   25.8827 N   0  0  0  0  0  0  0  0  0  0  0  0
    6.6661  -13.5661   26.2275 C   0  0  0  0  0  0  0  0  0  0  0  0
    5.9310  -12.5826   26.8602 C   0  0  0  0  0  0  0  0  0  0  0  0
    6.4932  -11.3432   27.0738 C   0  0  0  0  0  0  0  0  0  0  0  0
    7.7837  -11.1352   26.6399 C   0  0  0  0  0  0  0  0  0  0  0  0
    8.5233  -12.1257   26.0032 C   0  0  0  0  0  0  0  0  0  0  0  0
    7.9708  -13.3608   25.7892 C   0  0  0  0  0  0  0  0  0  0  0  0
    9.1033  -17.1857   24.9420 C   0  0  0  0  0  0  0  0  0  0  0  0
    8.0780  -17.7275   24.4737 O   0  0  0  0  0  0  0  0  0  0  0  0
    9.4514  -17.5509   26.2459 O   0  0  0  0  0  0  0  0  0  0  0  0
  2  1  1  6
  2  3  1  0
  3  4  1  0
  4  5  2  0
  4  8  1  0
  6  2  1  0
  7  6  2  0
  9 10  1  0
 10 11  2  0
 12 10  1  0
 13 12  1  6
 13 14  1  0
 14  6  1  0
 15 13  1  0
 15 17  1  0
 16 15  2  0
 18 19  1  1
 18 29  1  0
 18 17  1  0
 20 19  1  0
 20 21  2  0
 22 21  1  0
 23 28  2  0
 23 22  1  0
 24 23  1  0
 25 26  1  0
 25 24  2  0
 26 27  2  0
 27 28  1  0
 28 20  1  0
 29 31  1  0
 30 29  2  0
M  END
$$$$
