DNW.pdb
     RDKit          3D

 31 32  0  0  1  0  0  0  0  0999 V2000
    9.6771  -17.8446   18.0537 N   0  0  0  0  0  0  0  0  0  0  0  0
    8.8451  -16.6819   18.2533 C   0  0  1  0  0  0  0  0  0  0  0  0
    7.9001  -16.4081   17.1076 C   0  0  0  0  0  0  0  0  0  0  0  0
    8.5071  -16.6355   15.7802 C   0  0  0  0  0  0  0  0  0  0  0  0
    9.7003  -17.0324   15.7492 O   0  0  0  0  0  0  0  0  0  0  0  0
    8.1593  -16.8016   19.5634 C   0  0  0  0  0  0  0  0  0  0  0  0
    7.3363  -15.9005   19.9361 O   0  0  0  0  0  0  0  0  0  0  0  0
    7.8462  -16.4385   14.5951 O   0  0  0  0  0  0  0  0  0  0  0  0
    5.5543  -18.8200   23.9961 N   0  0  0  0  0  0  0  0  0  0  0  0
    6.7794  -19.3323   23.5050 C   0  0  0  0  0  0  0  0  0  0  0  0
    7.5146  -19.8656   24.4121 O   0  0  0  0  0  0  0  0  0  0  0  0
    7.2389  -19.2989   22.1065 C   0  0  0  0  0  0  0  0  0  0  0  0
    7.8235  -17.9642   21.7708 C   0  0  2  0  0  0  0  0  0  0  0  0
    8.4016  -17.9134   20.4283 N   0  0  0  0  0  0  0  0  0  0  0  0
    8.8727  -17.5337   22.7204 C   0  0  0  0  0  0  0  0  0  0  0  0
   10.0770  -17.8869   22.5482 O   0  0  0  0  0  0  0  0  0  0  0  0
    8.6224  -16.7192   23.8591 N   0  0  0  0  0  0  0  0  0  0  0  0
    9.7254  -16.2292   24.7146 C   0  0  1  0  0  0  0  0  0  0  0  0
    9.5624  -14.7796   24.9953 C   0  0  0  0  0  0  0  0  0  0  0  0
    8.2621  -14.4501   25.5840 C   0  0  0  0  0  0  0  0  0  0  0  0
    7.2796  -15.4156   25.8691 C   0  0  0  0  0  0  0  0  0  0  0  0
    6.2372  -14.8145   26.4346 N   0  0  0  0  0  0  0  0  0  0  0  0
    6.4341  -13.4965   26.5584 C   0  0  0  0  0  0  0  0  0  0  0  0
    5.6502  -12.4778   27.0639 C   0  0  0  0  0  0  0  0  0  0  0  0
    6.1214  -11.1835   27.0472 C   0  0  0  0  0  0  0  0  0  0  0  0
    7.3730  -10.9578   26.5184 C   0  0  0  0  0  0  0  0  0  0  0  0
    8.1617  -11.9838   26.0098 C   0  0  0  0  0  0  0  0  0  0  0  0
    7.6999  -13.2733   26.0249 C   0  0  0  0  0  0  0  0  0  0  0  0
    9.8232  -17.0675   25.9075 C   0  0  0  0  0  0  0  0  0  0  0  0
    8.8963  -17.8558   26.1966 O   0  0  0  0  0  0  0  0  0  0  0  0
   10.9144  -17.0536   26.7814 O   0  0  0  0  0  0  0  0  0  0  0  0
  2  1  1  6
  2  3  1  0
  3  4  1  0
  4  5  2  0
  4  8  1  0
  6  2  1  0
  7  6  2  0
  9 10  1  0
 10 11  2  0
 12 10  1  0
 13 12  1  1
 13 14  1  0
 14  6  1  0
 15 13  1  0
 15 17  1  0
 16 15  2  0
 18 19  1  1
 18 29  1  0
 18 17  1  0
 20 19  1  0
 20 21  2  0
 22 21  1  0
 23 28  2  0
 23 22  1  0
 24 23  1  0
 25 26  1  0
 25 24  2  0
 26 27  2  0
 27 28  1  0
 28 20  1  0
 29 31  1  0
 30 29  2  0
M  END
$$$$
