DNW.pdb
     RDKit          3D

 31 32  0  0  1  0  0  0  0  0999 V2000
   10.1436  -14.9787   18.3577 N   0  0  0  0  0  0  0  0  0  0  0  0
    9.1179  -14.2603   19.0760 C   0  0  1  0  0  0  0  0  0  0  0  0
    7.9878  -13.7772   18.1984 C   0  0  0  0  0  0  0  0  0  0  0  0
    8.3945  -13.5364   16.7989 C   0  0  0  0  0  0  0  0  0  0  0  0
    9.1634  -14.3774   16.2661 O   0  0  0  0  0  0  0  0  0  0  0  0
    8.6605  -15.0902   20.2175 C   0  0  0  0  0  0  0  0  0  0  0  0
    7.7142  -14.6762   20.9667 O   0  0  0  0  0  0  0  0  0  0  0  0
    7.9833  -12.4572   16.0597 O   0  0  0  0  0  0  0  0  0  0  0  0
    8.7998  -19.4257   19.0295 N   0  0  0  0  0  0  0  0  0  0  0  0
    8.2442  -19.0446   20.2747 C   0  0  0  0  0  0  0  0  0  0  0  0
    6.9624  -19.1058   20.3065 O   0  0  0  0  0  0  0  0  0  0  0  0
    8.9930  -18.6107   21.4660 C   0  0  0  0  0  0  0  0  0  0  0  0
    8.8572  -17.1358   21.6712 C   0  0  2  0  0  0  0  0  0  0  0  0
    9.2613  -16.3554   20.5021 N   0  0  0  0  0  0  0  0  0  0  0  0
    9.6340  -16.6358   22.8265 C   0  0  0  0  0  0  0  0  0  0  0  0
   10.8010  -16.1717   22.6615 O   0  0  0  0  0  0  0  0  0  0  0  0
    9.1502  -16.6358   24.1638 N   0  0  0  0  0  0  0  0  0  0  0  0
   10.0614  -16.4462   25.3138 C   0  0  1  0  0  0  0  0  0  0  0  0
    9.8319  -15.1223   25.9474 C   0  0  0  0  0  0  0  0  0  0  0  0
    8.4176  -14.7438   25.9937 C   0  0  0  0  0  0  0  0  0  0  0  0
    7.3692  -15.6817   25.9810 C   0  0  0  0  0  0  0  0  0  0  0  0
    6.2118  -15.0344   26.0771 N   0  0  0  0  0  0  0  0  0  0  0  0
    6.3912  -13.7103   26.1544 C   0  0  0  0  0  0  0  0  0  0  0  0
    5.5092  -12.6519   26.2542 C   0  0  0  0  0  0  0  0  0  0  0  0
    5.9942  -11.3635   26.3028 C   0  0  0  0  0  0  0  0  0  0  0  0
    7.3587  -11.1838   26.2484 C   0  0  0  0  0  0  0  0  0  0  0  0
    8.2460  -12.2496   26.1482 C   0  0  0  0  0  0  0  0  0  0  0  0
    7.7705  -13.5334   26.1011 C   0  0  0  0  0  0  0  0  0  0  0  0
    9.9348  -17.5814   26.2253 C   0  0  0  0  0  0  0  0  0  0  0  0
    9.0104  -18.4092   26.0699 O   0  0  0  0  0  0  0  0  0  0  0  0
   10.8008  -17.8197   27.2968 O   0  0  0  0  0  0  0  0  0  0  0  0
  2  1  1  6
  2  3  1  0
  3  4  1  0
  4  5  2  0
  4  8  1  0
  6  2  1  0
  7  6  2  0
  9 10  1  0
 10 11  2  0
 12 10  1  0
 13 12  1  6
 13 14  1  0
 14  6  1  0
 15 13  1  0
 15 17  1  0
 16 15  2  0
 18 19  1  1
 18 29  1  0
 18 17  1  0
 20 19  1  0
 20 21  2  0
 22 21  1  0
 23 28  2  0
 23 22  1  0
 24 23  1  0
 25 26  1  0
 25 24  2  0
 26 27  2  0
 27 28  1  0
 28 20  1  0
 29 31  1  0
 30 29  2  0
M  END
$$$$
