DNW.pdb
     RDKit          3D

 31 32  0  0  1  0  0  0  0  0999 V2000
    9.8772  -15.1424   17.6766 N   0  0  0  0  0  0  0  0  0  0  0  0
    8.8416  -14.2415   18.1240 C   0  0  1  0  0  0  0  0  0  0  0  0
    7.9040  -13.8014   17.0251 C   0  0  0  0  0  0  0  0  0  0  0  0
    8.3801  -14.1549   15.6720 C   0  0  0  0  0  0  0  0  0  0  0  0
    9.5654  -13.8536   15.3779 O   0  0  0  0  0  0  0  0  0  0  0  0
    8.1429  -14.8509   19.2822 C   0  0  0  0  0  0  0  0  0  0  0  0
    7.1753  -14.2329   19.8391 O   0  0  0  0  0  0  0  0  0  0  0  0
    7.6069  -14.7859   14.7317 O   0  0  0  0  0  0  0  0  0  0  0  0
    5.6921  -18.5867   22.7050 N   0  0  0  0  0  0  0  0  0  0  0  0
    6.9663  -18.6448   22.0906 C   0  0  0  0  0  0  0  0  0  0  0  0
    7.8347  -19.3040   22.7680 O   0  0  0  0  0  0  0  0  0  0  0  0
    7.3400  -18.0382   20.8019 C   0  0  0  0  0  0  0  0  0  0  0  0
    7.9154  -16.6730   21.0041 C   0  0  2  0  0  0  0  0  0  0  0  0
    8.5321  -16.1267   19.7956 N   0  0  0  0  0  0  0  0  0  0  0  0
    8.9301  -16.6233   22.0792 C   0  0  0  0  0  0  0  0  0  0  0  0
   10.1220  -16.9880   21.8530 O   0  0  0  0  0  0  0  0  0  0  0  0
    8.6586  -16.1783   23.4024 N   0  0  0  0  0  0  0  0  0  0  0  0
    9.7310  -16.0725   24.4160 C   0  0  1  0  0  0  0  0  0  0  0  0
    9.6488  -14.7712   25.1276 C   0  0  0  0  0  0  0  0  0  0  0  0
    8.2782  -14.3941   25.4812 C   0  0  0  0  0  0  0  0  0  0  0  0
    7.2513  -15.3328   25.6894 C   0  0  0  0  0  0  0  0  0  0  0  0
    6.1425  -14.6871   26.0377 N   0  0  0  0  0  0  0  0  0  0  0  0
    6.3351  -13.3634   26.0830 C   0  0  0  0  0  0  0  0  0  0  0  0
    5.4962  -12.3065   26.3781 C   0  0  0  0  0  0  0  0  0  0  0  0
    5.9810  -11.0180   26.3291 C   0  0  0  0  0  0  0  0  0  0  0  0
    7.3015  -10.8367   25.9821 C   0  0  0  0  0  0  0  0  0  0  0  0
    8.1455  -11.9012   25.6854 C   0  0  0  0  0  0  0  0  0  0  0  0
    7.6703  -13.1850   25.7338 C   0  0  0  0  0  0  0  0  0  0  0  0
    9.6886  -17.2423   25.2909 C   0  0  0  0  0  0  0  0  0  0  0  0
    8.6807  -17.9827   25.2980 O   0  0  0  0  0  0  0  0  0  0  0  0
   10.7276  -17.6087   26.1517 O   0  0  0  0  0  0  0  0  0  0  0  0
  2  1  1  6
  2  3  1  0
  3  4  1  0
  4  5  2  0
  4  8  1  0
  6  2  1  0
  7  6  2  0
  9 10  1  0
 10 11  2  0
 12 10  1  0
 13 12  1  6
 13 14  1  0
 14  6  1  0
 15 13  1  0
 15 17  1  0
 16 15  2  0
 18 19  1  1
 18 29  1  0
 18 17  1  0
 20 19  1  0
 20 21  2  0
 22 21  1  0
 23 28  2  0
 23 22  1  0
 24 23  1  0
 25 26  1  0
 25 24  2  0
 26 27  2  0
 27 28  1  0
 28 20  1  0
 29 31  1  0
 30 29  2  0
M  END
$$$$
