DNW.pdb
     RDKit          3D

 31 32  0  0  1  0  0  0  0  0999 V2000
   10.2448  -15.8559   17.4461 N   0  0  0  0  0  0  0  0  0  0  0  0
   11.2846  -16.7449   16.9850 C   0  0  1  0  0  0  0  0  0  0  0  0
   11.6191  -16.5800   15.5217 C   0  0  0  0  0  0  0  0  0  0  0  0
   10.4570  -16.1951   14.6948 C   0  0  0  0  0  0  0  0  0  0  0  0
    9.3370  -16.1310   15.2636 O   0  0  0  0  0  0  0  0  0  0  0  0
   12.4634  -16.6072   17.8752 C   0  0  0  0  0  0  0  0  0  0  0  0
   13.5039  -17.3162   17.6682 O   0  0  0  0  0  0  0  0  0  0  0  0
   10.5346  -15.9081   13.3562 O   0  0  0  0  0  0  0  0  0  0  0  0
   15.3181  -14.2832   17.1303 N   0  0  0  0  0  0  0  0  0  0  0  0
   15.4183  -14.7395   18.4667 C   0  0  0  0  0  0  0  0  0  0  0  0
   16.4339  -15.4957   18.6775 O   0  0  0  0  0  0  0  0  0  0  0  0
   14.4924  -14.4222   19.5669 C   0  0  0  0  0  0  0  0  0  0  0  0
   13.6096  -15.5898   19.8722 C   0  0  2  0  0  0  0  0  0  0  0  0
   12.4615  -15.6905   18.9718 N   0  0  0  0  0  0  0  0  0  0  0  0
   13.0865  -15.5768   21.2557 C   0  0  0  0  0  0  0  0  0  0  0  0
   13.8696  -15.3986   22.2353 O   0  0  0  0  0  0  0  0  0  0  0  0
   11.7144  -15.7562   21.5837 N   0  0  0  0  0  0  0  0  0  0  0  0
   11.2482  -15.7397   22.9877 C   0  0  1  0  0  0  0  0  0  0  0  0
   10.2184  -14.6870   23.1823 C   0  0  0  0  0  0  0  0  0  0  0  0
    9.1176  -14.7737   22.2197 C   0  0  0  0  0  0  0  0  0  0  0  0
    7.9339  -15.4925   22.4671 C   0  0  0  0  0  0  0  0  0  0  0  0
    7.1161  -15.3445   21.4293 N   0  0  0  0  0  0  0  0  0  0  0  0
    7.6570  -14.5714   20.4802 C   0  0  0  0  0  0  0  0  0  0  0  0
    7.2023  -14.1511   19.2455 C   0  0  0  0  0  0  0  0  0  0  0  0
    8.0037  -13.3515   18.4606 C   0  0  0  0  0  0  0  0  0  0  0  0
    9.2430  -13.0007   18.9485 C   0  0  0  0  0  0  0  0  0  0  0  0
    9.7001  -13.4239   20.1917 C   0  0  0  0  0  0  0  0  0  0  0  0
    8.9076  -14.2179   20.9778 C   0  0  0  0  0  0  0  0  0  0  0  0
   10.8184  -17.0825   23.3718 C   0  0  0  0  0  0  0  0  0  0  0  0
   10.6358  -17.9562   22.4958 O   0  0  0  0  0  0  0  0  0  0  0  0
   10.5877  -17.4779   24.6929 O   0  0  0  0  0  0  0  0  0  0  0  0
  2  1  1  1
  2  3  1  0
  3  4  1  0
  4  5  2  0
  4  8  1  0
  6  2  1  0
  7  6  2  0
  9 10  1  0
 10 11  2  0
 12 10  1  0
 13 12  1  6
 13 14  1  0
 14  6  1  0
 15 13  1  0
 15 17  1  0
 16 15  2  0
 18 19  1  6
 18 29  1  0
 18 17  1  0
 20 19  1  0
 20 21  2  0
 22 21  1  0
 23 28  2  0
 23 22  1  0
 24 23  1  0
 25 26  1  0
 25 24  2  0
 26 27  2  0
 27 28  1  0
 28 20  1  0
 29 31  1  0
 30 29  2  0
M  END
$$$$
