GER.pdb
     RDKit          3D

 25 24  0  0  1  0  0  0  0  0999 V2000
   11.3774  -17.6209   16.1763 N   0  0  0  0  0  0  0  0  0  0  0  0
   12.4227  -18.1588   17.0177 C   0  0  0  0  0  0  0  0  0  0  0  0
   11.8685  -18.3747   18.3770 C   0  0  0  0  0  0  0  0  0  0  0  0
   10.6236  -18.2579   18.5510 O   0  0  0  0  0  0  0  0  0  0  0  0
   12.6710  -18.7069   19.4914 N   0  0  0  0  0  0  0  0  0  0  0  0
   12.0295  -19.0656   20.7884 C   0  0  1  0  0  0  0  0  0  0  0  0
   12.9442  -19.9655   21.5307 C   0  0  0  0  0  0  0  0  0  0  0  0
   12.9902  -21.3686   21.0310 C   0  0  0  0  0  0  0  0  0  0  0  0
   13.9259  -22.2109   21.8347 C   0  0  0  0  0  0  0  0  0  0  0  0
   14.4375  -21.7658   22.8760 O   0  0  0  0  0  0  0  0  0  0  0  0
   11.5461  -17.8636   21.4539 C   0  0  0  0  0  0  0  0  0  0  0  0
   12.3379  -16.8547   21.4679 O   0  0  0  0  0  0  0  0  0  0  0  0
   14.2074  -23.4814   21.4005 O   0  0  0  0  0  0  0  0  0  0  0  0
    7.9003  -13.7026   17.9851 N   0  0  0  0  0  0  0  0  0  0  0  0
    8.0026  -13.1548   19.2909 C   0  0  0  0  0  0  0  0  0  0  0  0
    8.1804  -11.8702   19.4711 N   0  0  0  0  0  0  0  0  0  0  0  0
    7.9055  -14.0430   20.3849 N   0  0  0  0  0  0  0  0  0  0  0  0
    8.0075  -13.5776   21.7436 C   0  0  0  0  0  0  0  0  0  0  0  0
    7.9426  -14.7418   22.7096 C   0  0  0  0  0  0  0  0  0  0  0  0
    8.4840  -16.0065   22.0939 C   0  0  0  0  0  0  0  0  0  0  0  0
    9.8245  -16.4110   22.5864 C   0  0  2  0  0  0  0  0  0  0  0  0
   10.3105  -17.6745   22.0791 N   0  0  0  0  0  0  0  0  0  0  0  0
    9.8899  -16.3328   24.0601 C   0  0  0  0  0  0  0  0  0  0  0  0
    9.8888  -15.1113   24.6830 O   0  0  0  0  0  0  0  0  0  0  0  0
    9.9441  -17.3825   24.7270 O   0  0  0  0  0  0  0  0  0  0  0  0
  2  1  1  0
  3  2  1  0
  4  3  2  0
  5  3  1  0
  6 11  1  0
  6  5  1  0
  6  7  1  1
  8  7  1  0
  9  8  1  0
 10  9  2  0
 11 12  2  0
 13  9  1  0
 15 16  2  0
 15 14  1  0
 17 15  1  0
 18 17  1  0
 19 20  1  0
 19 18  1  0
 21 20  1  1
 22 11  1  0
 22 21  1  0
 23 21  1  0
 23 24  1  0
 25 23  2  0
M  END
$$$$
