GER.pdb
     RDKit          3D

 25 24  0  0  1  0  0  0  0  0999 V2000
   10.3168  -18.8587   16.8536 N   0  0  0  0  0  0  0  0  0  0  0  0
   11.1898  -17.8102   17.3317 C   0  0  0  0  0  0  0  0  0  0  0  0
   11.6321  -18.1557   18.7051 C   0  0  0  0  0  0  0  0  0  0  0  0
   10.7725  -18.5608   19.5362 O   0  0  0  0  0  0  0  0  0  0  0  0
   12.9758  -18.0530   19.1295 N   0  0  0  0  0  0  0  0  0  0  0  0
   13.3131  -18.2104   20.5731 C   0  0  1  0  0  0  0  0  0  0  0  0
   14.7690  -18.4642   20.6893 C   0  0  0  0  0  0  0  0  0  0  0  0
   15.2164  -19.7998   20.2030 C   0  0  0  0  0  0  0  0  0  0  0  0
   16.6824  -19.9997   20.4079 C   0  0  0  0  0  0  0  0  0  0  0  0
   17.1865  -19.8543   21.5343 O   0  0  0  0  0  0  0  0  0  0  0  0
   12.7352  -17.1163   21.3415 C   0  0  0  0  0  0  0  0  0  0  0  0
   12.8322  -15.9421   20.8347 O   0  0  0  0  0  0  0  0  0  0  0  0
   17.4574  -20.3459   19.3302 O   0  0  0  0  0  0  0  0  0  0  0  0
    8.8149  -11.8075   19.4744 N   0  0  0  0  0  0  0  0  0  0  0  0
    8.0342  -12.9199   19.8854 C   0  0  0  0  0  0  0  0  0  0  0  0
    6.8912  -13.1917   19.3076 N   0  0  0  0  0  0  0  0  0  0  0  0
    8.5342  -13.7204   20.9363 N   0  0  0  0  0  0  0  0  0  0  0  0
    7.8616  -14.9240   21.3511 C   0  0  0  0  0  0  0  0  0  0  0  0
    8.6132  -15.5878   22.4857 C   0  0  0  0  0  0  0  0  0  0  0  0
    9.8410  -16.3095   21.9926 C   0  0  0  0  0  0  0  0  0  0  0  0
   10.9595  -16.3664   22.9667 C   0  0  2  0  0  0  0  0  0  0  0  0
   12.0771  -17.1941   22.5721 N   0  0  0  0  0  0  0  0  0  0  0  0
   10.4642  -16.6958   24.3189 C   0  0  0  0  0  0  0  0  0  0  0  0
   10.9497  -17.7956   24.9782 O   0  0  0  0  0  0  0  0  0  0  0  0
    9.6071  -15.9668   24.8512 O   0  0  0  0  0  0  0  0  0  0  0  0
  2  1  1  0
  3  2  1  0
  4  3  2  0
  5  3  1  0
  6 11  1  0
  6  5  1  0
  6  7  1  6
  8  7  1  0
  9  8  1  0
 10  9  2  0
 11 12  2  0
 13  9  1  0
 15 16  2  0
 15 14  1  0
 17 15  1  0
 18 17  1  0
 19 20  1  0
 19 18  1  0
 21 20  1  6
 22 11  1  0
 22 21  1  0
 23 21  1  0
 23 24  1  0
 25 23  2  0
M  END
$$$$
