GER.pdb
     RDKit          3D

 25 24  0  0  1  0  0  0  0  0999 V2000
    7.3439  -17.2206   18.1774 N   0  0  0  0  0  0  0  0  0  0  0  0
    7.8801  -16.2111   19.0625 C   0  0  0  0  0  0  0  0  0  0  0  0
    8.7224  -16.8804   20.0843 C   0  0  0  0  0  0  0  0  0  0  0  0
    8.1612  -17.5940   20.9615 O   0  0  0  0  0  0  0  0  0  0  0  0
   10.1294  -16.7571   20.1226 N   0  0  0  0  0  0  0  0  0  0  0  0
   10.8976  -17.3593   21.2495 C   0  0  1  0  0  0  0  0  0  0  0  0
   12.2899  -17.5913   20.7964 C   0  0  0  0  0  0  0  0  0  0  0  0
   13.1859  -18.2170   21.8094 C   0  0  0  0  0  0  0  0  0  0  0  0
   14.5719  -18.3997   21.2833 C   0  0  0  0  0  0  0  0  0  0  0  0
   15.1562  -19.4887   21.4125 O   0  0  0  0  0  0  0  0  0  0  0  0
   10.6823  -16.5886   22.4665 C   0  0  0  0  0  0  0  0  0  0  0  0
   10.5438  -15.3210   22.3290 O   0  0  0  0  0  0  0  0  0  0  0  0
   15.1836  -17.3435   20.6568 O   0  0  0  0  0  0  0  0  0  0  0  0
    5.2858  -11.8523   25.7670 N   0  0  0  0  0  0  0  0  0  0  0  0
    6.4818  -12.0694   26.5008 C   0  0  0  0  0  0  0  0  0  0  0  0
    7.0696  -11.0880   27.1375 N   0  0  0  0  0  0  0  0  0  0  0  0
    7.0122  -13.3784   26.5191 N   0  0  0  0  0  0  0  0  0  0  0  0
    7.0808  -14.1794   25.3247 C   0  0  0  0  0  0  0  0  0  0  0  0
    7.6286  -15.5555   25.6394 C   0  0  0  0  0  0  0  0  0  0  0  0
    8.4404  -16.1063   24.4951 C   0  0  0  0  0  0  0  0  0  0  0  0
    9.8421  -16.4521   24.8397 C   0  0  2  0  0  0  0  0  0  0  0  0
   10.6023  -17.0696   23.7764 N   0  0  0  0  0  0  0  0  0  0  0  0
    9.8999  -17.2262   26.0966 C   0  0  0  0  0  0  0  0  0  0  0  0
    9.9518  -16.5745   27.3018 O   0  0  0  0  0  0  0  0  0  0  0  0
    9.8993  -18.4701   26.0500 O   0  0  0  0  0  0  0  0  0  0  0  0
  2  1  1  0
  3  2  1  0
  4  3  2  0
  5  3  1  0
  6 11  1  0
  6  5  1  0
  6  7  1  6
  8  7  1  0
  9  8  1  0
 10  9  2  0
 11 12  2  0
 13  9  1  0
 15 16  2  0
 15 14  1  0
 17 15  1  0
 18 17  1  0
 19 20  1  0
 19 18  1  0
 21 20  1  6
 22 11  1  0
 22 21  1  0
 23 21  1  0
 23 24  1  0
 25 23  2  0
M  END
$$$$
