GER.pdb
     RDKit          3D

 25 24  0  0  1  0  0  0  0  0999 V2000
   10.8697  -16.8190   16.2145 N   0  0  0  0  0  0  0  0  0  0  0  0
   11.7074  -16.0311   17.0906 C   0  0  0  0  0  0  0  0  0  0  0  0
   11.6769  -16.6395   18.4436 C   0  0  0  0  0  0  0  0  0  0  0  0
   10.5648  -16.7671   19.0272 O   0  0  0  0  0  0  0  0  0  0  0  0
   12.8384  -17.0855   19.1131 N   0  0  0  0  0  0  0  0  0  0  0  0
   12.7257  -17.7024   20.4656 C   0  0  1  0  0  0  0  0  0  0  0  0
   14.0425  -18.2778   20.8295 C   0  0  0  0  0  0  0  0  0  0  0  0
   14.0777  -18.9941   22.1357 C   0  0  0  0  0  0  0  0  0  0  0  0
   15.4246  -19.5792   22.4088 C   0  0  0  0  0  0  0  0  0  0  0  0
   15.7974  -20.6056   21.8157 O   0  0  0  0  0  0  0  0  0  0  0  0
   12.0972  -16.7671   21.3885 C   0  0  0  0  0  0  0  0  0  0  0  0
   12.7171  -15.6650   21.6031 O   0  0  0  0  0  0  0  0  0  0  0  0
   16.2380  -18.9618   23.3248 O   0  0  0  0  0  0  0  0  0  0  0  0
    8.4950  -11.8639   19.9452 N   0  0  0  0  0  0  0  0  0  0  0  0
    8.1581  -12.9439   19.0873 C   0  0  0  0  0  0  0  0  0  0  0  0
    8.5850  -12.9807   17.8502 N   0  0  0  0  0  0  0  0  0  0  0  0
    7.3487  -13.9739   19.6156 N   0  0  0  0  0  0  0  0  0  0  0  0
    7.4661  -14.3945   20.9876 C   0  0  0  0  0  0  0  0  0  0  0  0
    8.8715  -14.8790   21.2758 C   0  0  0  0  0  0  0  0  0  0  0  0
    8.9873  -15.4567   22.6630 C   0  0  0  0  0  0  0  0  0  0  0  0
   10.3348  -15.9749   23.0079 C   0  0  2  0  0  0  0  0  0  0  0  0
   10.8869  -16.9256   22.0692 N   0  0  0  0  0  0  0  0  0  0  0  0
   10.3679  -16.4720   24.3986 C   0  0  0  0  0  0  0  0  0  0  0  0
   10.7201  -17.7723   24.6541 O   0  0  0  0  0  0  0  0  0  0  0  0
   10.0757  -15.7012   25.3314 O   0  0  0  0  0  0  0  0  0  0  0  0
  2  1  1  0
  3  2  1  0
  4  3  2  0
  5  3  1  0
  6 11  1  0
  6  5  1  0
  6  7  1  1
  8  7  1  0
  9  8  1  0
 10  9  2  0
 11 12  2  0
 13  9  1  0
 15 16  2  0
 15 14  1  0
 17 15  1  0
 18 17  1  0
 19 20  1  0
 19 18  1  0
 21 20  1  6
 22 11  1  0
 22 21  1  0
 23 21  1  0
 23 24  1  0
 25 23  2  0
M  END
$$$$
