GER.pdb
     RDKit          3D

 25 24  0  0  1  0  0  0  0  0999 V2000
    9.0165  -16.7268   16.3796 N   0  0  0  0  0  0  0  0  0  0  0  0
   10.2840  -16.3323   16.9521 C   0  0  0  0  0  0  0  0  0  0  0  0
   10.3945  -16.9280   18.3065 C   0  0  0  0  0  0  0  0  0  0  0  0
    9.3502  -17.3661   18.8644 O   0  0  0  0  0  0  0  0  0  0  0  0
   11.6185  -17.0293   19.0051 N   0  0  0  0  0  0  0  0  0  0  0  0
   11.6676  -17.7296   20.3202 C   0  0  1  0  0  0  0  0  0  0  0  0
   12.9260  -18.5101   20.3889 C   0  0  0  0  0  0  0  0  0  0  0  0
   13.0100  -19.6547   19.4384 C   0  0  0  0  0  0  0  0  0  0  0  0
   14.2958  -20.4006   19.5842 C   0  0  0  0  0  0  0  0  0  0  0  0
   15.1544  -20.0226   20.3992 O   0  0  0  0  0  0  0  0  0  0  0  0
   11.3721  -16.7919   21.3948 C   0  0  0  0  0  0  0  0  0  0  0  0
   12.2542  -15.8918   21.6329 O   0  0  0  0  0  0  0  0  0  0  0  0
   14.5080  -21.5076   18.8022 O   0  0  0  0  0  0  0  0  0  0  0  0
    9.5303  -12.7918   18.6853 N   0  0  0  0  0  0  0  0  0  0  0  0
    8.1712  -12.9539   19.0627 C   0  0  0  0  0  0  0  0  0  0  0  0
    7.2360  -12.1880   18.5601 N   0  0  0  0  0  0  0  0  0  0  0  0
    7.8660  -13.9686   19.9968 N   0  0  0  0  0  0  0  0  0  0  0  0
    8.5162  -14.0306   21.2800 C   0  0  0  0  0  0  0  0  0  0  0  0
    7.9177  -15.1352   22.1252 C   0  0  0  0  0  0  0  0  0  0  0  0
    8.6530  -15.2972   23.4308 C   0  0  0  0  0  0  0  0  0  0  0  0
   10.0285  -15.8402   23.3042 C   0  0  2  0  0  0  0  0  0  0  0  0
   10.2307  -16.7516   22.2004 N   0  0  0  0  0  0  0  0  0  0  0  0
   10.4944  -16.3998   24.5895 C   0  0  0  0  0  0  0  0  0  0  0  0
   10.6571  -15.5795   25.6761 O   0  0  0  0  0  0  0  0  0  0  0  0
   10.7348  -17.6181   24.6755 O   0  0  0  0  0  0  0  0  0  0  0  0
  2  1  1  0
  3  2  1  0
  4  3  2  0
  5  3  1  0
  6 11  1  0
  6  5  1  0
  6  7  1  1
  8  7  1  0
  9  8  1  0
 10  9  2  0
 11 12  2  0
 13  9  1  0
 15 16  2  0
 15 14  1  0
 17 15  1  0
 18 17  1  0
 19 20  1  0
 19 18  1  0
 21 20  1  1
 22 11  1  0
 22 21  1  0
 23 21  1  0
 23 24  1  0
 25 23  2  0
M  END
$$$$
