GER.pdb
     RDKit          3D

 25 24  0  0  1  0  0  0  0  0999 V2000
    6.1850  -20.4348   21.2647 N   0  0  0  0  0  0  0  0  0  0  0  0
    5.5429  -19.1398   21.2859 C   0  0  0  0  0  0  0  0  0  0  0  0
    6.5630  -18.1139   21.6150 C   0  0  0  0  0  0  0  0  0  0  0  0
    7.6717  -18.4895   22.0878 O   0  0  0  0  0  0  0  0  0  0  0  0
    6.3524  -16.7300   21.4232 N   0  0  0  0  0  0  0  0  0  0  0  0
    7.4361  -15.7608   21.7532 C   0  0  1  0  0  0  0  0  0  0  0  0
    7.2214  -14.5288   20.9572 C   0  0  0  0  0  0  0  0  0  0  0  0
    7.7200  -14.5904   19.5543 C   0  0  0  0  0  0  0  0  0  0  0  0
    7.4843  -13.3070   18.8274 C   0  0  0  0  0  0  0  0  0  0  0  0
    6.3622  -12.7734   18.8392 O   0  0  0  0  0  0  0  0  0  0  0  0
    7.5722  -15.6394   23.1983 C   0  0  0  0  0  0  0  0  0  0  0  0
    6.4858  -15.6191   23.8797 O   0  0  0  0  0  0  0  0  0  0  0  0
    8.5291  -12.7323   18.1490 O   0  0  0  0  0  0  0  0  0  0  0  0
    5.5076  -21.2889   27.6431 N   0  0  0  0  0  0  0  0  0  0  0  0
    6.9007  -21.0268   27.5630 C   0  0  0  0  0  0  0  0  0  0  0  0
    7.7747  -21.9992   27.6311 N   0  0  0  0  0  0  0  0  0  0  0  0
    7.3080  -19.6833   27.4071 N   0  0  0  0  0  0  0  0  0  0  0  0
    8.6831  -19.3380   27.1559 C   0  0  0  0  0  0  0  0  0  0  0  0
    8.8331  -17.8398   26.9953 C   0  0  0  0  0  0  0  0  0  0  0  0
    8.7461  -17.4239   25.5493 C   0  0  0  0  0  0  0  0  0  0  0  0
    8.9055  -15.9672   25.3128 C   0  0  2  0  0  0  0  0  0  0  0  0
    8.7546  -15.5473   23.9377 N   0  0  0  0  0  0  0  0  0  0  0  0
   10.1565  -15.4687   25.9201 C   0  0  0  0  0  0  0  0  0  0  0  0
   10.2962  -15.4481   27.2839 O   0  0  0  0  0  0  0  0  0  0  0  0
   11.0783  -15.0714   25.1840 O   0  0  0  0  0  0  0  0  0  0  0  0
  2  1  1  0
  3  2  1  0
  4  3  2  0
  5  3  1  0
  6 11  1  0
  6  5  1  0
  6  7  1  1
  8  7  1  0
  9  8  1  0
 10  9  2  0
 11 12  2  0
 13  9  1  0
 15 16  2  0
 15 14  1  0
 17 15  1  0
 18 17  1  0
 19 20  1  0
 19 18  1  0
 21 20  1  6
 22 11  1  0
 22 21  1  0
 23 21  1  0
 23 24  1  0
 25 23  2  0
M  END
$$$$
