GER.pdb
     RDKit          3D

 25 24  0  0  1  0  0  0  0  0999 V2000
    9.4980  -18.2461   17.5367 N   0  0  0  0  0  0  0  0  0  0  0  0
   10.8058  -17.8261   17.9876 C   0  0  0  0  0  0  0  0  0  0  0  0
   10.9525  -18.1969   19.4167 C   0  0  0  0  0  0  0  0  0  0  0  0
    9.9137  -18.3046   20.1260 O   0  0  0  0  0  0  0  0  0  0  0  0
   12.2051  -18.4369   20.0248 N   0  0  0  0  0  0  0  0  0  0  0  0
   12.2755  -18.7599   21.4785 C   0  0  1  0  0  0  0  0  0  0  0  0
   13.6051  -19.3503   21.7636 C   0  0  0  0  0  0  0  0  0  0  0  0
   13.9069  -20.6087   21.0249 C   0  0  0  0  0  0  0  0  0  0  0  0
   15.2713  -21.1244   21.3467 C   0  0  0  0  0  0  0  0  0  0  0  0
   16.2823  -20.4922   20.9968 O   0  0  0  0  0  0  0  0  0  0  0  0
   11.8416  -17.6131   22.2648 C   0  0  0  0  0  0  0  0  0  0  0  0
   12.4766  -16.5143   22.0800 O   0  0  0  0  0  0  0  0  0  0  0  0
   15.3841  -22.3064   22.0339 O   0  0  0  0  0  0  0  0  0  0  0  0
    6.3700  -13.5736   19.4143 N   0  0  0  0  0  0  0  0  0  0  0  0
    7.7326  -13.5040   19.0212 C   0  0  0  0  0  0  0  0  0  0  0  0
    8.0701  -13.0715   17.8325 N   0  0  0  0  0  0  0  0  0  0  0  0
    8.7074  -13.9166   19.9564 N   0  0  0  0  0  0  0  0  0  0  0  0
    8.3481  -14.6391   21.1489 C   0  0  0  0  0  0  0  0  0  0  0  0
    9.5747  -14.9127   21.9934 C   0  0  0  0  0  0  0  0  0  0  0  0
    9.2263  -15.6606   23.2547 C   0  0  0  0  0  0  0  0  0  0  0  0
   10.3648  -16.3719   23.8880 C   0  0  2  0  0  0  0  0  0  0  0  0
   10.8039  -17.5650   23.1998 N   0  0  0  0  0  0  0  0  0  0  0  0
   10.1037  -16.6124   25.3220 C   0  0  0  0  0  0  0  0  0  0  0  0
   10.3201  -17.8550   25.8596 O   0  0  0  0  0  0  0  0  0  0  0  0
    9.6889  -15.6791   26.0336 O   0  0  0  0  0  0  0  0  0  0  0  0
  2  1  1  0
  3  2  1  0
  4  3  2  0
  5  3  1  0
  6 11  1  0
  6  5  1  0
  6  7  1  1
  8  7  1  0
  9  8  1  0
 10  9  2  0
 11 12  2  0
 13  9  1  0
 15 16  2  0
 15 14  1  0
 17 15  1  0
 18 17  1  0
 19 20  1  0
 19 18  1  0
 21 20  1  6
 22 11  1  0
 22 21  1  0
 23 21  1  0
 23 24  1  0
 25 23  2  0
M  END
$$$$
