GER.pdb
     RDKit          3D

 25 24  0  0  1  0  0  0  0  0999 V2000
   20.3591  -19.2613   24.1266 N   0  0  0  0  0  0  0  0  0  0  0  0
   19.7105  -20.5223   23.8452 C   0  0  0  0  0  0  0  0  0  0  0  0
   18.2432  -20.3320   23.9560 C   0  0  0  0  0  0  0  0  0  0  0  0
   17.8002  -19.1903   24.2627 O   0  0  0  0  0  0  0  0  0  0  0  0
   17.3133  -21.3722   23.7333 N   0  0  0  0  0  0  0  0  0  0  0  0
   15.8533  -21.1065   23.8750 C   0  0  1  0  0  0  0  0  0  0  0  0
   15.1351  -21.8609   22.8202 C   0  0  0  0  0  0  0  0  0  0  0  0
   13.6503  -21.7418   22.8607 C   0  0  0  0  0  0  0  0  0  0  0  0
   13.0022  -22.5411   21.7780 C   0  0  0  0  0  0  0  0  0  0  0  0
   12.8542  -23.7685   21.9038 O   0  0  0  0  0  0  0  0  0  0  0  0
   15.4459  -21.2915   25.2611 C   0  0  0  0  0  0  0  0  0  0  0  0
   15.9976  -22.2572   25.8998 O   0  0  0  0  0  0  0  0  0  0  0  0
   12.5756  -21.8939   20.6462 O   0  0  0  0  0  0  0  0  0  0  0  0
   14.7309  -23.3151   32.7480 N   0  0  0  0  0  0  0  0  0  0  0  0
   15.3354  -22.0367   32.6217 C   0  0  0  0  0  0  0  0  0  0  0  0
   16.4532  -21.7552   33.2425 N   0  0  0  0  0  0  0  0  0  0  0  0
   14.6894  -21.0830   31.8042 N   0  0  0  0  0  0  0  0  0  0  0  0
   15.0488  -20.9109   30.4206 C   0  0  0  0  0  0  0  0  0  0  0  0
   14.0957  -19.9509   29.7403 C   0  0  0  0  0  0  0  0  0  0  0  0
   14.4958  -19.6890   28.3110 C   0  0  0  0  0  0  0  0  0  0  0  0
   14.1501  -20.7763   27.3615 C   0  0  2  0  0  0  0  0  0  0  0  0
   14.5225  -20.5331   25.9860 N   0  0  0  0  0  0  0  0  0  0  0  0
   12.7320  -21.1662   27.5008 C   0  0  0  0  0  0  0  0  0  0  0  0
   12.3741  -22.1453   28.3913 O   0  0  0  0  0  0  0  0  0  0  0  0
   11.8698  -20.5978   26.8058 O   0  0  0  0  0  0  0  0  0  0  0  0
  2  1  1  0
  3  2  1  0
  4  3  2  0
  5  3  1  0
  6 11  1  0
  6  5  1  0
  6  7  1  6
  8  7  1  0
  9  8  1  0
 10  9  2  0
 11 12  2  0
 13  9  1  0
 15 16  2  0
 15 14  1  0
 17 15  1  0
 18 17  1  0
 19 20  1  0
 19 18  1  0
 21 20  1  1
 22 11  1  0
 22 21  1  0
 23 21  1  0
 23 24  1  0
 25 23  2  0
M  END
$$$$
