GER.pdb
     RDKit          3D

 25 24  0  0  1  0  0  0  0  0999 V2000
    0.9429  -21.3151   21.5048 N   0  0  0  0  0  0  0  0  0  0  0  0
    2.1284  -20.5659   21.8561 C   0  0  0  0  0  0  0  0  0  0  0  0
    3.0467  -21.4609   22.6025 C   0  0  0  0  0  0  0  0  0  0  0  0
    2.5649  -22.4614   23.2030 O   0  0  0  0  0  0  0  0  0  0  0  0
    4.4414  -21.2463   22.6736 N   0  0  0  0  0  0  0  0  0  0  0  0
    5.3030  -22.2030   23.4250 C   0  0  1  0  0  0  0  0  0  0  0  0
    6.6649  -22.1659   22.8406 C   0  0  0  0  0  0  0  0  0  0  0  0
    7.6403  -23.1095   23.4559 C   0  0  0  0  0  0  0  0  0  0  0  0
    8.9801  -23.0238   22.8011 C   0  0  0  0  0  0  0  0  0  0  0  0
    9.7736  -22.1177   23.1067 O   0  0  0  0  0  0  0  0  0  0  0  0
    5.1557  -21.9861   24.8577 C   0  0  0  0  0  0  0  0  0  0  0  0
    5.1713  -20.7686   25.2608 O   0  0  0  0  0  0  0  0  0  0  0  0
    9.3145  -23.9631   21.8589 O   0  0  0  0  0  0  0  0  0  0  0  0
   -1.0070  -25.6863   28.6711 N   0  0  0  0  0  0  0  0  0  0  0  0
   -0.0342  -26.6187   28.2237 C   0  0  0  0  0  0  0  0  0  0  0  0
   -0.3233  -27.8900   28.1052 N   0  0  0  0  0  0  0  0  0  0  0  0
    1.2523  -26.1261   27.9116 N   0  0  0  0  0  0  0  0  0  0  0  0
    1.5869  -24.7357   28.0791 C   0  0  0  0  0  0  0  0  0  0  0  0
    3.0045  -24.4717   27.6169 C   0  0  0  0  0  0  0  0  0  0  0  0
    3.3558  -23.0088   27.7075 C   0  0  0  0  0  0  0  0  0  0  0  0
    4.7253  -22.6707   27.2457 C   0  0  2  0  0  0  0  0  0  0  0  0
    4.9921  -22.9533   25.8533 N   0  0  0  0  0  0  0  0  0  0  0  0
    5.7430  -23.2534   28.1440 C   0  0  0  0  0  0  0  0  0  0  0  0
    5.7119  -22.9770   29.4866 O   0  0  0  0  0  0  0  0  0  0  0  0
    6.6235  -23.9957   27.6716 O   0  0  0  0  0  0  0  0  0  0  0  0
  2  1  1  0
  3  2  1  0
  4  3  2  0
  5  3  1  0
  6 11  1  0
  6  5  1  0
  6  7  1  6
  8  7  1  0
  9  8  1  0
 10  9  2  0
 11 12  2  0
 13  9  1  0
 15 16  2  0
 15 14  1  0
 17 15  1  0
 18 17  1  0
 19 20  1  0
 19 18  1  0
 21 20  1  1
 22 11  1  0
 22 21  1  0
 23 21  1  0
 23 24  1  0
 25 23  2  0
M  END
$$$$
