GER.pdb
     RDKit          3D

 25 24  0  0  1  0  0  0  0  0999 V2000
    9.0125  -21.7875   18.3484 N   0  0  0  0  0  0  0  0  0  0  0  0
   10.2339  -21.8992   19.1137 C   0  0  0  0  0  0  0  0  0  0  0  0
   10.0180  -21.2688   20.4394 C   0  0  0  0  0  0  0  0  0  0  0  0
    8.9415  -20.6425   20.6461 O   0  0  0  0  0  0  0  0  0  0  0  0
   10.9639  -21.3364   21.4868 N   0  0  0  0  0  0  0  0  0  0  0  0
   10.6321  -20.7696   22.8252 C   0  0  1  0  0  0  0  0  0  0  0  0
   11.4635  -21.4547   23.8434 C   0  0  0  0  0  0  0  0  0  0  0  0
   11.2242  -21.0199   25.2485 C   0  0  0  0  0  0  0  0  0  0  0  0
   12.1532  -21.6970   26.2022 C   0  0  0  0  0  0  0  0  0  0  0  0
   13.0261  -22.4767   25.7848 O   0  0  0  0  0  0  0  0  0  0  0  0
   10.6598  -19.3144   22.7703 C   0  0  0  0  0  0  0  0  0  0  0  0
   11.6056  -18.7814   22.0874 O   0  0  0  0  0  0  0  0  0  0  0  0
   12.0228  -21.4407   27.5435 O   0  0  0  0  0  0  0  0  0  0  0  0
    8.5575  -14.0374   18.7018 N   0  0  0  0  0  0  0  0  0  0  0  0
    8.3189  -13.0130   19.6555 C   0  0  0  0  0  0  0  0  0  0  0  0
    8.1205  -11.7747   19.2795 N   0  0  0  0  0  0  0  0  0  0  0  0
    8.3028  -13.3774   21.0201 N   0  0  0  0  0  0  0  0  0  0  0  0
    8.3290  -14.7572   21.4309 C   0  0  0  0  0  0  0  0  0  0  0  0
    8.4873  -14.8605   22.9333 C   0  0  0  0  0  0  0  0  0  0  0  0
    8.5052  -16.2956   23.3934 C   0  0  0  0  0  0  0  0  0  0  0  0
    9.8087  -16.9848   23.2231 C   0  0  2  0  0  0  0  0  0  0  0  0
    9.7686  -18.4221   23.3727 N   0  0  0  0  0  0  0  0  0  0  0  0
   10.8491  -16.3595   24.0651 C   0  0  0  0  0  0  0  0  0  0  0  0
   11.6066  -15.3302   23.5683 O   0  0  0  0  0  0  0  0  0  0  0  0
   11.0286  -16.7739   25.2250 O   0  0  0  0  0  0  0  0  0  0  0  0
  2  1  1  0
  3  2  1  0
  4  3  2  0
  5  3  1  0
  6 11  1  0
  6  5  1  0
  6  7  1  1
  8  7  1  0
  9  8  1  0
 10  9  2  0
 11 12  2  0
 13  9  1  0
 15 16  2  0
 15 14  1  0
 17 15  1  0
 18 17  1  0
 19 20  1  0
 19 18  1  0
 21 20  1  1
 22 11  1  0
 22 21  1  0
 23 21  1  0
 23 24  1  0
 25 23  2  0
M  END
$$$$
