GER.pdb
     RDKit          3D

 25 24  0  0  1  0  0  0  0  0999 V2000
    6.6445  -19.7313   18.0937 N   0  0  0  0  0  0  0  0  0  0  0  0
    6.8003  -19.1019   19.3858 C   0  0  0  0  0  0  0  0  0  0  0  0
    7.5821  -17.8531   19.2099 C   0  0  0  0  0  0  0  0  0  0  0  0
    8.6521  -17.8955   18.5413 O   0  0  0  0  0  0  0  0  0  0  0  0
    7.1842  -16.6127   19.7570 N   0  0  0  0  0  0  0  0  0  0  0  0
    8.0431  -15.4085   19.5700 C   0  0  1  0  0  0  0  0  0  0  0  0
    7.1923  -14.2015   19.6995 C   0  0  0  0  0  0  0  0  0  0  0  0
    7.8017  -12.9431   19.1840 C   0  0  0  0  0  0  0  0  0  0  0  0
    8.1431  -13.0484   17.7337 C   0  0  0  0  0  0  0  0  0  0  0  0
    7.3166  -13.5003   16.9232 O   0  0  0  0  0  0  0  0  0  0  0  0
    9.2335  -15.5121   20.4029 C   0  0  0  0  0  0  0  0  0  0  0  0
    9.2129  -16.3981   21.3300 O   0  0  0  0  0  0  0  0  0  0  0  0
    9.3838  -12.6373   17.3171 O   0  0  0  0  0  0  0  0  0  0  0  0
   17.1438  -13.6374   20.5906 N   0  0  0  0  0  0  0  0  0  0  0  0
   17.4179  -14.6603   19.6449 C   0  0  0  0  0  0  0  0  0  0  0  0
   18.5726  -15.2771   19.6346 N   0  0  0  0  0  0  0  0  0  0  0  0
   16.4024  -14.9875   18.7192 N   0  0  0  0  0  0  0  0  0  0  0  0
   15.1141  -14.3456   18.7571 C   0  0  0  0  0  0  0  0  0  0  0  0
   14.1360  -15.1665   19.5708 C   0  0  0  0  0  0  0  0  0  0  0  0
   12.7572  -14.5578   19.5627 C   0  0  0  0  0  0  0  0  0  0  0  0
   11.7456  -15.3043   20.3517 C   0  0  2  0  0  0  0  0  0  0  0  0
   10.4073  -14.7594   20.3083 N   0  0  0  0  0  0  0  0  0  0  0  0
   12.2172  -15.5308   21.7332 C   0  0  0  0  0  0  0  0  0  0  0  0
   13.2886  -16.3543   21.9660 O   0  0  0  0  0  0  0  0  0  0  0  0
   11.6356  -14.9675   22.6786 O   0  0  0  0  0  0  0  0  0  0  0  0
  2  1  1  0
  3  2  1  0
  4  3  2  0
  5  3  1  0
  6 11  1  0
  6  5  1  0
  6  7  1  1
  8  7  1  0
  9  8  1  0
 10  9  2  0
 11 12  2  0
 13  9  1  0
 15 16  2  0
 15 14  1  0
 17 15  1  0
 18 17  1  0
 19 20  1  0
 19 18  1  0
 21 20  1  1
 22 11  1  0
 22 21  1  0
 23 21  1  0
 23 24  1  0
 25 23  2  0
M  END
$$$$
