GER.pdb
     RDKit          3D

 25 24  0  0  1  0  0  0  0  0999 V2000
    9.3514  -18.8164   18.7707 N   0  0  0  0  0  0  0  0  0  0  0  0
   10.6652  -18.2327   18.9226 C   0  0  0  0  0  0  0  0  0  0  0  0
   11.0591  -18.3248   20.3501 C   0  0  0  0  0  0  0  0  0  0  0  0
   10.2237  -18.7749   21.1828 O   0  0  0  0  0  0  0  0  0  0  0  0
   12.3304  -17.9313   20.8246 N   0  0  0  0  0  0  0  0  0  0  0  0
   12.6929  -18.1569   22.2529 C   0  0  1  0  0  0  0  0  0  0  0  0
   14.1695  -18.2404   22.3542 C   0  0  0  0  0  0  0  0  0  0  0  0
   14.6892  -18.5946   23.7051 C   0  0  0  0  0  0  0  0  0  0  0  0
   16.1824  -18.5881   23.7417 C   0  0  0  0  0  0  0  0  0  0  0  0
   16.7886  -17.9211   24.5971 O   0  0  0  0  0  0  0  0  0  0  0  0
   11.9912  -17.2032   23.1012 C   0  0  0  0  0  0  0  0  0  0  0  0
   11.9608  -15.9863   22.6973 O   0  0  0  0  0  0  0  0  0  0  0  0
   16.8677  -19.3313   22.8143 O   0  0  0  0  0  0  0  0  0  0  0  0
    6.2095  -13.3323   20.9377 N   0  0  0  0  0  0  0  0  0  0  0  0
    7.5249  -13.3232   20.4034 C   0  0  0  0  0  0  0  0  0  0  0  0
    7.7996  -12.6762   19.2989 N   0  0  0  0  0  0  0  0  0  0  0  0
    8.5232  -14.0349   21.1050 N   0  0  0  0  0  0  0  0  0  0  0  0
    8.2094  -14.8197   22.2706 C   0  0  0  0  0  0  0  0  0  0  0  0
    9.4589  -15.4734   22.8223 C   0  0  0  0  0  0  0  0  0  0  0  0
    9.1544  -16.3292   24.0250 C   0  0  0  0  0  0  0  0  0  0  0  0
   10.3224  -16.6118   24.8962 C   0  0  2  0  0  0  0  0  0  0  0  0
   11.3367  -17.4585   24.3094 N   0  0  0  0  0  0  0  0  0  0  0  0
    9.8859  -17.0923   26.2231 C   0  0  0  0  0  0  0  0  0  0  0  0
    9.2632  -16.2343   27.0926 O   0  0  0  0  0  0  0  0  0  0  0  0
   10.0868  -18.2790   26.5410 O   0  0  0  0  0  0  0  0  0  0  0  0
  2  1  1  0
  3  2  1  0
  4  3  2  0
  5  3  1  0
  6 11  1  0
  6  5  1  0
  6  7  1  6
  8  7  1  0
  9  8  1  0
 10  9  2  0
 11 12  2  0
 13  9  1  0
 15 16  2  0
 15 14  1  0
 17 15  1  0
 18 17  1  0
 19 20  1  0
 19 18  1  0
 21 20  1  6
 22 11  1  0
 22 21  1  0
 23 21  1  0
 23 24  1  0
 25 23  2  0
M  END
$$$$
