IVS.pdb
     RDKit          3D

 22 21  0  0  1  0  0  0  0  0999 V2000
   27.6240  -14.4182  -15.4378 C   0  0  0  0  0  0  0  0  0  0  0  0
   26.1550  -14.1682  -15.4101 C   0  0  0  0  0  0  0  0  0  0  0  0
   25.7246  -12.8654  -16.0522 C   0  0  2  0  0  0  0  0  0  0  0  0
   26.3810  -11.7530  -15.2253 C   0  0  0  0  0  0  0  0  0  0  0  0
   24.2129  -12.7702  -15.9933 C   0  0  2  0  0  0  0  0  0  0  0  0
   23.6306  -13.9030  -16.7423 N   0  0  0  0  0  0  0  0  0  0  0  0
   23.6775  -11.5326  -16.6057 C   0  0  0  0  0  0  0  0  0  0  0  0
   23.8216  -11.3307  -17.8673 O   0  0  0  0  0  0  0  0  0  0  0  0
   20.6114   -8.2756  -17.7010 C   0  0  0  0  0  0  0  0  0  0  0  0
   21.1588   -9.5272  -17.0688 C   0  0  2  0  0  0  0  0  0  0  0  0
   20.3092   -9.8797  -15.8634 C   0  0  0  0  0  0  0  0  0  0  0  0
   22.5552   -9.2777  -16.5898 C   0  0  2  0  0  0  0  0  0  0  0  0
   22.9975  -10.5143  -15.9167 N   0  0  0  0  0  0  0  0  0  0  0  0
   22.6802   -8.1229  -15.6875 C   0  0  0  0  0  0  0  0  0  0  0  0
   22.4442   -8.2851  -14.4702 O   0  0  0  0  0  0  0  0  0  0  0  0
   23.9122   -3.4462  -15.3500 O   0  0  0  0  0  0  0  0  0  0  0  0
   23.6210   -4.5287  -16.1741 C   0  0  0  0  0  0  0  0  0  0  0  0
   23.2092   -5.6917  -15.2826 C   0  0  2  0  0  0  0  0  0  0  0  0
   23.0526   -6.8480  -16.1347 N   0  0  0  0  0  0  0  0  0  0  0  0
   21.9194   -5.2971  -14.6463 C   0  0  0  0  0  0  0  0  0  0  0  0
   21.9547   -4.9252  -13.4460 O   0  0  0  0  0  0  0  0  0  0  0  0
   20.7714   -5.3616  -15.4027 O   0  0  0  0  0  0  0  0  0  0  0  0
  2  1  1  0
  2  3  1  0
  3  4  1  1
  5  3  1  0
  5  7  1  0
  5  6  1  6
  7  8  2  0
 10  9  1  1
 10 12  1  0
 10 11  1  0
 12 13  1  1
 13  7  1  0
 14 12  1  0
 14 15  2  0
 16 17  1  0
 18 17  1  6
 18 19  1  0
 18 20  1  0
 19 14  1  0
 20 21  2  0
 20 22  1  0
M  END
$$$$
