IVS.pdb
     RDKit          3D

 22 21  0  0  1  0  0  0  0  0999 V2000
   18.5747  -15.2933  -19.1502 C   0  0  0  0  0  0  0  0  0  0  0  0
   19.9906  -15.4110  -18.7000 C   0  0  0  0  0  0  0  0  0  0  0  0
   20.4683  -14.2765  -17.8171 C   0  0  2  0  0  0  0  0  0  0  0  0
   20.3999  -13.0130  -18.6837 C   0  0  0  0  0  0  0  0  0  0  0  0
   21.8917  -14.5644  -17.3826 C   0  0  2  0  0  0  0  0  0  0  0  0
   21.9137  -15.8269  -16.6153 N   0  0  0  0  0  0  0  0  0  0  0  0
   22.4602  -13.5187  -16.5014 C   0  0  0  0  0  0  0  0  0  0  0  0
   22.0052  -13.3732  -15.3078 O   0  0  0  0  0  0  0  0  0  0  0  0
   25.9952  -12.7907  -15.5011 C   0  0  0  0  0  0  0  0  0  0  0  0
   25.4245  -11.5035  -16.0334 C   0  0  2  0  0  0  0  0  0  0  0  0
   25.9028  -10.3579  -15.1627 C   0  0  0  0  0  0  0  0  0  0  0  0
   23.9299  -11.5473  -15.9551 C   0  0  2  0  0  0  0  0  0  0  0  0
   23.4923  -12.6329  -16.8541 N   0  0  0  0  0  0  0  0  0  0  0  0
   23.2751  -10.2804  -16.3148 C   0  0  0  0  0  0  0  0  0  0  0  0
   23.1046  -10.0163  -17.5252 O   0  0  0  0  0  0  0  0  0  0  0  0
   20.0617   -7.3944  -16.5458 O   0  0  0  0  0  0  0  0  0  0  0  0
   20.7553   -8.5552  -16.2181 C   0  0  0  0  0  0  0  0  0  0  0  0
   22.1101   -8.1430  -15.6598 C   0  0  2  0  0  0  0  0  0  0  0  0
   22.8341   -9.3564  -15.3578 N   0  0  0  0  0  0  0  0  0  0  0  0
   21.8329   -7.3458  -14.4303 C   0  0  0  0  0  0  0  0  0  0  0  0
   21.8084   -7.9604  -13.3340 O   0  0  0  0  0  0  0  0  0  0  0  0
   21.6212   -5.9925  -14.5634 O   0  0  0  0  0  0  0  0  0  0  0  0
  2  1  1  0
  2  3  1  0
  3  4  1  6
  5  3  1  0
  5  7  1  0
  5  6  1  1
  7  8  2  0
 10  9  1  1
 10 12  1  0
 10 11  1  0
 12 13  1  6
 13  7  1  0
 14 12  1  0
 14 15  2  0
 16 17  1  0
 18 17  1  1
 18 19  1  0
 18 20  1  0
 19 14  1  0
 20 21  2  0
 20 22  1  0
M  END
$$$$
