IVS.pdb
     RDKit          3D

 22 21  0  0  1  0  0  0  0  0999 V2000
   18.2846  -21.2282  -12.8693 C   0  0  0  0  0  0  0  0  0  0  0  0
   19.4765  -21.4257  -11.9965 C   0  0  0  0  0  0  0  0  0  0  0  0
   20.7410  -20.7567  -12.4944 C   0  0  2  0  0  0  0  0  0  0  0  0
   20.9890  -21.3207  -13.8989 C   0  0  0  0  0  0  0  0  0  0  0  0
   21.8788  -21.1074  -11.5562 C   0  0  2  0  0  0  0  0  0  0  0  0
   21.5890  -20.5482  -10.2196 N   0  0  0  0  0  0  0  0  0  0  0  0
   23.1833  -20.5487  -11.9796 C   0  0  0  0  0  0  0  0  0  0  0  0
   23.3950  -19.2836  -11.8905 O   0  0  0  0  0  0  0  0  0  0  0  0
   26.4571  -21.2616  -10.7555 C   0  0  0  0  0  0  0  0  0  0  0  0
   26.6294  -21.3729  -12.2467 C   0  0  2  0  0  0  0  0  0  0  0  0
   27.9292  -20.6995  -12.6418 C   0  0  0  0  0  0  0  0  0  0  0  0
   25.5113  -20.6538  -12.9357 C   0  0  2  0  0  0  0  0  0  0  0  0
   24.2592  -21.2950  -12.4892 N   0  0  0  0  0  0  0  0  0  0  0  0
   25.6063  -20.6677  -14.4034 C   0  0  0  0  0  0  0  0  0  0  0  0
   25.1729  -21.6640  -15.0227 O   0  0  0  0  0  0  0  0  0  0  0  0
   23.9681  -18.4440  -17.7372 O   0  0  0  0  0  0  0  0  0  0  0  0
   24.3800  -18.6871  -16.4306 C   0  0  0  0  0  0  0  0  0  0  0  0
   25.7878  -19.2629  -16.4886 C   0  0  2  0  0  0  0  0  0  0  0  0
   26.1624  -19.6112  -15.1373 N   0  0  0  0  0  0  0  0  0  0  0  0
   26.6594  -18.1868  -17.0423 C   0  0  0  0  0  0  0  0  0  0  0  0
   27.1328  -17.3499  -16.2325 O   0  0  0  0  0  0  0  0  0  0  0  0
   26.8949  -18.1701  -18.3981 O   0  0  0  0  0  0  0  0  0  0  0  0
  2  1  1  0
  2  3  1  0
  3  4  1  6
  5  3  1  0
  5  7  1  0
  5  6  1  1
  7  8  2  0
 10  9  1  1
 10 12  1  0
 10 11  1  0
 12 13  1  6
 13  7  1  0
 14 12  1  0
 14 15  2  0
 16 17  1  0
 18 17  1  1
 18 19  1  0
 18 20  1  0
 19 14  1  0
 20 21  2  0
 20 22  1  0
M  END
$$$$
