IVS.pdb
     RDKit          3D

 22 21  0  0  1  0  0  0  0  0999 V2000
   17.2156  -14.1774  -17.7107 C   0  0  0  0  0  0  0  0  0  0  0  0
   17.7863  -13.4029  -16.5724 C   0  0  0  0  0  0  0  0  0  0  0  0
   18.0414  -11.9397  -16.8698 C   0  0  2  0  0  0  0  0  0  0  0  0
   19.0931  -11.9154  -17.9858 C   0  0  0  0  0  0  0  0  0  0  0  0
   18.5630  -11.2716  -15.6131 C   0  0  2  0  0  0  0  0  0  0  0  0
   17.6310  -11.5473  -14.5002 N   0  0  0  0  0  0  0  0  0  0  0  0
   18.6658   -9.7988  -15.7296 C   0  0  0  0  0  0  0  0  0  0  0  0
   19.3519   -9.2804  -16.6855 O   0  0  0  0  0  0  0  0  0  0  0  0
   15.9429   -7.2532  -16.0853 C   0  0  0  0  0  0  0  0  0  0  0  0
   16.7969   -6.8514  -14.9126 C   0  0  2  0  0  0  0  0  0  0  0  0
   16.9135   -5.3399  -14.8859 C   0  0  0  0  0  0  0  0  0  0  0  0
   18.1737   -7.4159  -15.0782 C   0  0  2  0  0  0  0  0  0  0  0  0
   18.0612   -8.8718  -14.8640 N   0  0  0  0  0  0  0  0  0  0  0  0
   19.1719   -6.8335  -14.1684 C   0  0  0  0  0  0  0  0  0  0  0  0
   19.0395   -7.0147  -12.9381 O   0  0  0  0  0  0  0  0  0  0  0  0
   22.7735   -6.1433  -15.4855 O   0  0  0  0  0  0  0  0  0  0  0  0
   22.5934   -6.2259  -14.1083 C   0  0  0  0  0  0  0  0  0  0  0  0
   21.2873   -5.5218  -13.7692 C   0  0  2  0  0  0  0  0  0  0  0  0
   20.2655   -6.0837  -14.6223 N   0  0  0  0  0  0  0  0  0  0  0  0
   21.5054   -4.0735  -14.0506 C   0  0  0  0  0  0  0  0  0  0  0  0
   20.9267   -3.5841  -15.0535 O   0  0  0  0  0  0  0  0  0  0  0  0
   22.3216   -3.3593  -13.2035 O   0  0  0  0  0  0  0  0  0  0  0  0
  2  1  1  0
  2  3  1  0
  3  4  1  6
  5  3  1  0
  5  7  1  0
  5  6  1  1
  7  8  2  0
 10  9  1  6
 10 12  1  0
 10 11  1  0
 12 13  1  1
 13  7  1  0
 14 12  1  0
 14 15  2  0
 16 17  1  0
 18 17  1  6
 18 19  1  0
 18 20  1  0
 19 14  1  0
 20 21  2  0
 20 22  1  0
M  END
$$$$
