IVS.pdb
     RDKit          3D

 22 21  0  0  1  0  0  0  0  0999 V2000
   27.9592  -19.6549   -5.5887 C   0  0  0  0  0  0  0  0  0  0  0  0
   26.6144  -19.8225   -6.2089 C   0  0  0  0  0  0  0  0  0  0  0  0
   26.6354  -20.3567   -7.6263 C   0  0  2  0  0  0  0  0  0  0  0  0
   27.4030  -19.3189   -8.4545 C   0  0  0  0  0  0  0  0  0  0  0  0
   25.2073  -20.4972   -8.1145 C   0  0  2  0  0  0  0  0  0  0  0  0
   24.4956  -21.4590   -7.2474 N   0  0  0  0  0  0  0  0  0  0  0  0
   25.1073  -21.0144   -9.4986 C   0  0  0  0  0  0  0  0  0  0  0  0
   25.4340  -22.2323   -9.7500 O   0  0  0  0  0  0  0  0  0  0  0  0
   22.3155  -21.3131  -11.6868 C   0  0  0  0  0  0  0  0  0  0  0  0
   23.3369  -20.6288  -12.5554 C   0  0  2  0  0  0  0  0  0  0  0  0
   23.3138  -21.2633  -13.9323 C   0  0  0  0  0  0  0  0  0  0  0  0
   24.7033  -20.8326  -11.9781 C   0  0  2  0  0  0  0  0  0  0  0  0
   24.6710  -20.2762  -10.6116 N   0  0  0  0  0  0  0  0  0  0  0  0
   25.7824  -20.2153  -12.7642 C   0  0  0  0  0  0  0  0  0  0  0  0
   26.6138  -19.4905  -12.1750 O   0  0  0  0  0  0  0  0  0  0  0  0
   29.0437  -22.0019  -14.9375 O   0  0  0  0  0  0  0  0  0  0  0  0
   27.8054  -21.8582  -14.3195 C   0  0  0  0  0  0  0  0  0  0  0  0
   27.1784  -20.5698  -14.8330 C   0  0  2  0  0  0  0  0  0  0  0  0
   25.9180  -20.4053  -14.1461 N   0  0  0  0  0  0  0  0  0  0  0  0
   26.9867  -20.7517  -16.3007 C   0  0  0  0  0  0  0  0  0  0  0  0
   25.9619  -21.3735  -16.6791 O   0  0  0  0  0  0  0  0  0  0  0  0
   27.9350  -20.2327  -17.1525 O   0  0  0  0  0  0  0  0  0  0  0  0
  2  1  1  0
  2  3  1  0
  3  4  1  6
  5  3  1  0
  5  7  1  0
  5  6  1  1
  7  8  2  0
 10  9  1  1
 10 12  1  0
 10 11  1  0
 12 13  1  1
 13  7  1  0
 14 12  1  0
 14 15  2  0
 16 17  1  0
 18 17  1  1
 18 19  1  0
 18 20  1  0
 19 14  1  0
 20 21  2  0
 20 22  1  0
M  END
$$$$
