IVS.pdb
     RDKit          3D

 22 21  0  0  1  0  0  0  0  0999 V2000
   21.3349  -20.7190   -8.7612 C   0  0  0  0  0  0  0  0  0  0  0  0
   22.7727  -21.0877   -8.8956 C   0  0  0  0  0  0  0  0  0  0  0  0
   23.5120  -20.3540   -9.9955 C   0  0  2  0  0  0  0  0  0  0  0  0
   22.7986  -20.7259  -11.3011 C   0  0  0  0  0  0  0  0  0  0  0  0
   24.9538  -20.8219  -10.0085 C   0  0  2  0  0  0  0  0  0  0  0  0
   25.5840  -20.4723   -8.7186 N   0  0  0  0  0  0  0  0  0  0  0  0
   25.7688  -20.1856  -11.0687 C   0  0  0  0  0  0  0  0  0  0  0  0
   26.2007  -18.9853  -10.9079 O   0  0  0  0  0  0  0  0  0  0  0  0
   28.9809  -21.0092  -12.2348 C   0  0  0  0  0  0  0  0  0  0  0  0
   28.1759  -20.9393  -13.5049 C   0  0  2  0  0  0  0  0  0  0  0  0
   29.0159  -20.2816  -14.5823 C   0  0  0  0  0  0  0  0  0  0  0  0
   26.9636  -20.0890  -13.2841 C   0  0  2  0  0  0  0  0  0  0  0  0
   26.1341  -20.7889  -12.2839 N   0  0  0  0  0  0  0  0  0  0  0  0
   26.1890  -19.8235  -14.5060 C   0  0  0  0  0  0  0  0  0  0  0  0
   25.4789  -20.7391  -14.9762 O   0  0  0  0  0  0  0  0  0  0  0  0
   26.6223  -16.2428  -16.2331 O   0  0  0  0  0  0  0  0  0  0  0  0
   25.3228  -16.7226  -16.3629 C   0  0  0  0  0  0  0  0  0  0  0  0
   25.3813  -18.2421  -16.2952 C   0  0  2  0  0  0  0  0  0  0  0  0
   26.2134  -18.5872  -15.1655 N   0  0  0  0  0  0  0  0  0  0  0  0
   25.9824  -18.6971  -17.5820 C   0  0  0  0  0  0  0  0  0  0  0  0
   27.1455  -19.1725  -17.5428 O   0  0  0  0  0  0  0  0  0  0  0  0
   25.2362  -18.5721  -18.7316 O   0  0  0  0  0  0  0  0  0  0  0  0
  2  1  1  0
  2  3  1  0
  3  4  1  6
  5  3  1  0
  5  7  1  0
  5  6  1  1
  7  8  2  0
 10  9  1  1
 10 12  1  0
 10 11  1  0
 12 13  1  1
 13  7  1  0
 14 12  1  0
 14 15  2  0
 16 17  1  0
 18 17  1  6
 18 19  1  0
 18 20  1  0
 19 14  1  0
 20 21  2  0
 20 22  1  0
M  END
$$$$
