IVS.pdb
     RDKit          3D

 22 21  0  0  1  0  0  0  0  0999 V2000
   15.8341  -12.0388  -15.0064 C   0  0  0  0  0  0  0  0  0  0  0  0
   16.8585  -11.9559  -16.0858 C   0  0  0  0  0  0  0  0  0  0  0  0
   18.0132  -11.0214  -15.7894 C   0  0  2  0  0  0  0  0  0  0  0  0
   17.3942   -9.6277  -15.6274 C   0  0  0  0  0  0  0  0  0  0  0  0
   18.9801  -11.0574  -16.9563 C   0  0  2  0  0  0  0  0  0  0  0  0
   19.5638  -12.4112  -17.0550 N   0  0  0  0  0  0  0  0  0  0  0  0
   20.1120  -10.1135  -16.8112 C   0  0  0  0  0  0  0  0  0  0  0  0
   21.0876  -10.4027  -16.0254 O   0  0  0  0  0  0  0  0  0  0  0  0
   22.4386   -8.8022  -19.3862 C   0  0  0  0  0  0  0  0  0  0  0  0
   21.8536   -7.6110  -18.6757 C   0  0  2  0  0  0  0  0  0  0  0  0
   22.9282   -6.5516  -18.5280 C   0  0  0  0  0  0  0  0  0  0  0  0
   21.4126   -8.0131  -17.3025 C   0  0  2  0  0  0  0  0  0  0  0  0
   20.2320   -8.8815  -17.4761 N   0  0  0  0  0  0  0  0  0  0  0  0
   21.0971   -6.8793  -16.4202 C   0  0  0  0  0  0  0  0  0  0  0  0
   20.1532   -6.1210  -16.7329 O   0  0  0  0  0  0  0  0  0  0  0  0
   21.8710   -4.8827  -12.0893 O   0  0  0  0  0  0  0  0  0  0  0  0
   22.2004   -5.8769  -13.0053 C   0  0  0  0  0  0  0  0  0  0  0  0
   21.4962   -5.5515  -14.3149 C   0  0  2  0  0  0  0  0  0  0  0  0
   21.8102   -6.6131  -15.2434 N   0  0  0  0  0  0  0  0  0  0  0  0
   22.0420   -4.2407  -14.7710 C   0  0  0  0  0  0  0  0  0  0  0  0
   23.1788   -4.2410  -15.3074 O   0  0  0  0  0  0  0  0  0  0  0  0
   21.2767   -3.1128  -14.5808 O   0  0  0  0  0  0  0  0  0  0  0  0
  2  1  1  0
  2  3  1  0
  3  4  1  6
  5  3  1  0
  5  7  1  0
  5  6  1  1
  7  8  2  0
 10  9  1  1
 10 12  1  0
 10 11  1  0
 12 13  1  6
 13  7  1  0
 14 12  1  0
 14 15  2  0
 16 17  1  0
 18 17  1  1
 18 19  1  0
 18 20  1  0
 19 14  1  0
 20 21  2  0
 20 22  1  0
M  END
$$$$
