IVS.pdb
     RDKit          3D

 22 21  0  0  1  0  0  0  0  0999 V2000
   19.6346  -11.4971    5.5359 C   0  0  0  0  0  0  0  0  0  0  0  0
   18.6348  -12.2034    4.6856 C   0  0  0  0  0  0  0  0  0  0  0  0
   18.3275  -13.6219    5.1194 C   0  0  2  0  0  0  0  0  0  0  0  0
   19.6616  -14.3764    5.0625 C   0  0  0  0  0  0  0  0  0  0  0  0
   17.3213  -14.2183    4.1552 C   0  0  2  0  0  0  0  0  0  0  0  0
   16.0150  -13.5569    4.3542 N   0  0  0  0  0  0  0  0  0  0  0  0
   17.1012  -15.6687    4.3578 C   0  0  0  0  0  0  0  0  0  0  0  0
   16.4343  -16.0767    5.3785 O   0  0  0  0  0  0  0  0  0  0  0  0
   15.7540  -18.3729    2.1627 C   0  0  0  0  0  0  0  0  0  0  0  0
   17.0962  -18.8571    2.6423 C   0  0  2  0  0  0  0  0  0  0  0  0
   16.9891  -20.3274    2.9970 C   0  0  0  0  0  0  0  0  0  0  0  0
   17.4843  -18.1124    3.8819 C   0  0  2  0  0  0  0  0  0  0  0  0
   17.5670  -16.6868    3.5088 N   0  0  0  0  0  0  0  0  0  0  0  0
   18.7490  -18.5660    4.4804 C   0  0  0  0  0  0  0  0  0  0  0  0
   19.8036  -17.9645    4.1809 O   0  0  0  0  0  0  0  0  0  0  0  0
   21.1715  -19.0352    8.0279 O   0  0  0  0  0  0  0  0  0  0  0  0
   20.0432  -18.8072    7.2463 C   0  0  0  0  0  0  0  0  0  0  0  0
   19.9534  -19.9313    6.2240 C   0  0  2  0  0  0  0  0  0  0  0  0
   18.8218  -19.6444    5.3726 N   0  0  0  0  0  0  0  0  0  0  0  0
   19.7547  -21.1896    6.9995 C   0  0  0  0  0  0  0  0  0  0  0  0
   18.5998  -21.4256    7.4360 O   0  0  0  0  0  0  0  0  0  0  0  0
   20.8384  -22.0158    7.1924 O   0  0  0  0  0  0  0  0  0  0  0  0
  2  1  1  0
  2  3  1  0
  3  4  1  6
  5  3  1  0
  5  7  1  0
  5  6  1  1
  7  8  2  0
 10  9  1  1
 10 12  1  0
 10 11  1  0
 12 13  1  6
 13  7  1  0
 14 12  1  0
 14 15  2  0
 16 17  1  0
 18 17  1  1
 18 19  1  0
 18 20  1  0
 19 14  1  0
 20 21  2  0
 20 22  1  0
M  END
$$$$
