IVS.pdb
     RDKit          3D

 22 21  0  0  1  0  0  0  0  0999 V2000
   15.9707  -10.4696  -20.3383 C   0  0  0  0  0  0  0  0  0  0  0  0
   17.0614  -11.2542  -19.6931 C   0  0  0  0  0  0  0  0  0  0  0  0
   17.7624  -10.5419  -18.5547 C   0  0  2  0  0  0  0  0  0  0  0  0
   18.4202   -9.3037  -19.1761 C   0  0  0  0  0  0  0  0  0  0  0  0
   18.8017  -11.4741  -17.9642 C   0  0  2  0  0  0  0  0  0  0  0  0
   18.1256  -12.6826  -17.4488 N   0  0  0  0  0  0  0  0  0  0  0  0
   19.5443  -10.8823  -16.8277 C   0  0  0  0  0  0  0  0  0  0  0  0
   18.9512  -10.7049  -15.7009 O   0  0  0  0  0  0  0  0  0  0  0  0
   22.4832  -12.0078  -15.0188 C   0  0  0  0  0  0  0  0  0  0  0  0
   22.8101  -10.6035  -15.4515 C   0  0  2  0  0  0  0  0  0  0  0  0
   23.5596   -9.9074  -14.3323 C   0  0  0  0  0  0  0  0  0  0  0  0
   21.5419   -9.8462  -15.6961 C   0  0  2  0  0  0  0  0  0  0  0  0
   20.8900  -10.4796  -16.8588 N   0  0  0  0  0  0  0  0  0  0  0  0
   21.7406   -8.4081  -15.9325 C   0  0  0  0  0  0  0  0  0  0  0  0
   22.1852   -8.0389  -17.0415 O   0  0  0  0  0  0  0  0  0  0  0  0
   20.3519   -4.0604  -15.5628 O   0  0  0  0  0  0  0  0  0  0  0  0
   20.2159   -5.4325  -15.3771 C   0  0  0  0  0  0  0  0  0  0  0  0
   21.6076   -6.0111  -15.1638 C   0  0  2  0  0  0  0  0  0  0  0  0
   21.4526   -7.4341  -14.9670 N   0  0  0  0  0  0  0  0  0  0  0  0
   22.1586   -5.3433  -13.9494 C   0  0  0  0  0  0  0  0  0  0  0  0
   22.1054   -5.9767  -12.8649 O   0  0  0  0  0  0  0  0  0  0  0  0
   22.6903   -4.0810  -14.0828 O   0  0  0  0  0  0  0  0  0  0  0  0
  2  1  1  0
  2  3  1  0
  3  4  1  6
  5  3  1  0
  5  7  1  0
  5  6  1  1
  7  8  2  0
 10  9  1  1
 10 12  1  0
 10 11  1  0
 12 13  1  6
 13  7  1  0
 14 12  1  0
 14 15  2  0
 16 17  1  0
 18 17  1  1
 18 19  1  0
 18 20  1  0
 19 14  1  0
 20 21  2  0
 20 22  1  0
M  END
$$$$
