IVS.pdb
     RDKit          3D

 22 21  0  0  1  0  0  0  0  0999 V2000
   15.4348  -13.6392  -18.5077 C   0  0  0  0  0  0  0  0  0  0  0  0
   16.8366  -13.7681  -18.0182 C   0  0  0  0  0  0  0  0  0  0  0  0
   17.3407  -12.5784  -17.2275 C   0  0  2  0  0  0  0  0  0  0  0  0
   17.3171  -11.3901  -18.1966 C   0  0  0  0  0  0  0  0  0  0  0  0
   18.7513  -12.8704  -16.7555 C   0  0  2  0  0  0  0  0  0  0  0  0
   18.7258  -14.0501  -15.8662 N   0  0  0  0  0  0  0  0  0  0  0  0
   19.3523  -11.7622  -15.9783 C   0  0  0  0  0  0  0  0  0  0  0  0
   18.8348  -11.4179  -14.8528 O   0  0  0  0  0  0  0  0  0  0  0  0
   22.6540  -11.3622  -14.5015 C   0  0  0  0  0  0  0  0  0  0  0  0
   22.4550  -10.1402  -15.3577 C   0  0  2  0  0  0  0  0  0  0  0  0
   23.0353   -8.9379  -14.6388 C   0  0  0  0  0  0  0  0  0  0  0  0
   20.9904   -9.8970  -15.5517 C   0  0  2  0  0  0  0  0  0  0  0  0
   20.4806  -11.0189  -16.3638 N   0  0  0  0  0  0  0  0  0  0  0  0
   20.6779   -8.6098  -16.1912 C   0  0  0  0  0  0  0  0  0  0  0  0
   20.9441   -8.4629  -17.4042 O   0  0  0  0  0  0  0  0  0  0  0  0
   17.9670   -4.8362  -16.5480 O   0  0  0  0  0  0  0  0  0  0  0  0
   18.2718   -6.1044  -16.0638 C   0  0  0  0  0  0  0  0  0  0  0  0
   19.7864   -6.2545  -16.0800 C   0  0  2  0  0  0  0  0  0  0  0  0
   20.0940   -7.5408  -15.4982 N   0  0  0  0  0  0  0  0  0  0  0  0
   20.3285   -5.1340  -15.2585 C   0  0  0  0  0  0  0  0  0  0  0  0
   20.7197   -5.4045  -14.0949 O   0  0  0  0  0  0  0  0  0  0  0  0
   20.3698   -3.8763  -15.8157 O   0  0  0  0  0  0  0  0  0  0  0  0
  2  1  1  0
  2  3  1  0
  3  4  1  6
  5  3  1  0
  5  7  1  0
  5  6  1  1
  7  8  2  0
 10  9  1  1
 10 12  1  0
 10 11  1  0
 12 13  1  6
 13  7  1  0
 14 12  1  0
 14 15  2  0
 16 17  1  0
 18 17  1  1
 18 19  1  0
 18 20  1  0
 19 14  1  0
 20 21  2  0
 20 22  1  0
M  END
$$$$
