IVS.pdb
     RDKit          3D

 22 21  0  0  1  0  0  0  0  0999 V2000
   29.5002  -20.8660  -10.5989 C   0  0  0  0  0  0  0  0  0  0  0  0
   28.7260  -21.1889  -11.8308 C   0  0  0  0  0  0  0  0  0  0  0  0
   27.3035  -20.6682  -11.8367 C   0  0  2  0  0  0  0  0  0  0  0  0
   26.5905  -21.3823  -10.6819 C   0  0  0  0  0  0  0  0  0  0  0  0
   26.6654  -21.0112  -13.1682 C   0  0  2  0  0  0  0  0  0  0  0  0
   27.4754  -20.4228  -14.2549 N   0  0  0  0  0  0  0  0  0  0  0  0
   25.2936  -20.4737  -13.3185 C   0  0  0  0  0  0  0  0  0  0  0  0
   25.1229  -19.2398  -13.6372 O   0  0  0  0  0  0  0  0  0  0  0  0
   22.9373  -21.1533  -15.7392 C   0  0  0  0  0  0  0  0  0  0  0  0
   22.7809  -20.0398  -14.7383 C   0  0  2  0  0  0  0  0  0  0  0  0
   23.9684  -19.1043  -14.8560 C   0  0  0  0  0  0  0  0  0  0  0  0
   22.7786  -20.6077  -13.3529 C   0  0  2  0  0  0  0  0  0  0  0  0
   24.1096  -21.2091  -13.1415 N   0  0  0  0  0  0  0  0  0  0  0  0
   21.7179  -21.5985  -13.1149 C   0  0  0  0  0  0  0  0  0  0  0  0
   21.8663  -22.7554  -13.5658 O   0  0  0  0  0  0  0  0  0  0  0  0
   18.5903  -20.3771  -11.0157 O   0  0  0  0  0  0  0  0  0  0  0  0
   18.7529  -21.7536  -10.8948 C   0  0  0  0  0  0  0  0  0  0  0  0
   19.4869  -22.2439  -12.1349 C   0  0  2  0  0  0  0  0  0  0  0  0
   20.5476  -21.3004  -12.4037 N   0  0  0  0  0  0  0  0  0  0  0  0
   18.4808  -22.2706  -13.2354 C   0  0  0  0  0  0  0  0  0  0  0  0
   18.6068  -21.4251  -14.1570 O   0  0  0  0  0  0  0  0  0  0  0  0
   17.4784  -23.2120  -13.1811 O   0  0  0  0  0  0  0  0  0  0  0  0
  2  1  1  0
  2  3  1  0
  3  4  1  1
  5  3  1  0
  5  7  1  0
  5  6  1  6
  7  8  2  0
 10  9  1  6
 10 12  1  0
 10 11  1  0
 12 13  1  6
 13  7  1  0
 14 12  1  0
 14 15  2  0
 16 17  1  0
 18 17  1  1
 18 19  1  0
 18 20  1  0
 19 14  1  0
 20 21  2  0
 20 22  1  0
M  END
$$$$
