IVS.pdb
     RDKit          3D

 22 21  0  0  1  0  0  0  0  0999 V2000
   28.5219  -12.7149  -15.9310 C   0  0  0  0  0  0  0  0  0  0  0  0
   27.0763  -13.0749  -15.8890 C   0  0  0  0  0  0  0  0  0  0  0  0
   26.1323  -11.9329  -16.2043 C   0  0  2  0  0  0  0  0  0  0  0  0
   26.2897  -10.9290  -15.0557 C   0  0  0  0  0  0  0  0  0  0  0  0
   24.7178  -12.4741  -16.2668 C   0  0  2  0  0  0  0  0  0  0  0  0
   24.6567  -13.5426  -17.2855 N   0  0  0  0  0  0  0  0  0  0  0  0
   23.7153  -11.4555  -16.6552 C   0  0  0  0  0  0  0  0  0  0  0  0
   23.7867  -10.8981  -17.8116 O   0  0  0  0  0  0  0  0  0  0  0  0
   20.4163  -11.4140  -17.6770 C   0  0  0  0  0  0  0  0  0  0  0  0
   20.3997  -10.5181  -16.4674 C   0  0  2  0  0  0  0  0  0  0  0  0
   19.4216   -9.3852  -16.7097 C   0  0  0  0  0  0  0  0  0  0  0  0
   21.7573   -9.9189  -16.2686 C   0  0  2  0  0  0  0  0  0  0  0  0
   22.6475  -11.0200  -15.8525 N   0  0  0  0  0  0  0  0  0  0  0  0
   21.7899   -8.8258  -15.2850 C   0  0  0  0  0  0  0  0  0  0  0  0
   21.8959   -9.1133  -14.0726 O   0  0  0  0  0  0  0  0  0  0  0  0
   23.2220   -4.7260  -13.8918 O   0  0  0  0  0  0  0  0  0  0  0  0
   23.1365   -5.7424  -14.8382 C   0  0  0  0  0  0  0  0  0  0  0  0
   21.7543   -6.3691  -14.7209 C   0  0  2  0  0  0  0  0  0  0  0  0
   21.7071   -7.4751  -15.6495 N   0  0  0  0  0  0  0  0  0  0  0  0
   20.7772   -5.3025  -15.0838 C   0  0  0  0  0  0  0  0  0  0  0  0
   20.4583   -5.1958  -16.2950 O   0  0  0  0  0  0  0  0  0  0  0  0
   20.2830   -4.5007  -14.0802 O   0  0  0  0  0  0  0  0  0  0  0  0
  2  1  1  0
  2  3  1  0
  3  4  1  1
  5  3  1  0
  5  7  1  0
  5  6  1  6
  7  8  2  0
 10  9  1  6
 10 12  1  0
 10 11  1  0
 12 13  1  1
 13  7  1  0
 14 12  1  0
 14 15  2  0
 16 17  1  0
 18 17  1  6
 18 19  1  0
 18 20  1  0
 19 14  1  0
 20 21  2  0
 20 22  1  0
M  END
$$$$
