IVS.pdb
     RDKit          3D

 22 21  0  0  1  0  0  0  0  0999 V2000
   15.0899  -11.6497  -16.2788 C   0  0  0  0  0  0  0  0  0  0  0  0
   16.1595  -12.3376  -15.5016 C   0  0  0  0  0  0  0  0  0  0  0  0
   17.3552  -11.4691  -15.1686 C   0  0  2  0  0  0  0  0  0  0  0  0
   16.7828  -10.1806  -14.5652 C   0  0  0  0  0  0  0  0  0  0  0  0
   18.1187  -11.1819  -16.4462 C   0  0  2  0  0  0  0  0  0  0  0  0
   18.6072  -12.4568  -17.0110 N   0  0  0  0  0  0  0  0  0  0  0  0
   19.3070  -10.3224  -16.2403 C   0  0  0  0  0  0  0  0  0  0  0  0
   20.2572  -10.7207  -15.4711 O   0  0  0  0  0  0  0  0  0  0  0  0
   20.2782   -7.3257  -18.8071 C   0  0  0  0  0  0  0  0  0  0  0  0
   21.3198   -7.9863  -17.9443 C   0  0  2  0  0  0  0  0  0  0  0  0
   21.7179   -9.3046  -18.5789 C   0  0  0  0  0  0  0  0  0  0  0  0
   20.7401   -8.2817  -16.5958 C   0  0  2  0  0  0  0  0  0  0  0  0
   19.5092   -9.0622  -16.8278 N   0  0  0  0  0  0  0  0  0  0  0  0
   20.4509   -7.0831  -15.7940 C   0  0  0  0  0  0  0  0  0  0  0  0
   19.3875   -6.4609  -16.0083 O   0  0  0  0  0  0  0  0  0  0  0  0
   22.3924   -6.5716  -12.4238 O   0  0  0  0  0  0  0  0  0  0  0  0
   21.2297   -5.8176  -12.5479 C   0  0  0  0  0  0  0  0  0  0  0  0
   21.0896   -5.4200  -14.0105 C   0  0  2  0  0  0  0  0  0  0  0  0
   21.3170   -6.6089  -14.7996 N   0  0  0  0  0  0  0  0  0  0  0  0
   22.1297   -4.3820  -14.2652 C   0  0  0  0  0  0  0  0  0  0  0  0
   21.9991   -3.2752  -13.6837 O   0  0  0  0  0  0  0  0  0  0  0  0
   23.1664   -4.6912  -15.1159 O   0  0  0  0  0  0  0  0  0  0  0  0
  2  1  1  0
  2  3  1  0
  3  4  1  6
  5  3  1  0
  5  7  1  0
  5  6  1  1
  7  8  2  0
 10  9  1  6
 10 12  1  0
 10 11  1  0
 12 13  1  6
 13  7  1  0
 14 12  1  0
 14 15  2  0
 16 17  1  0
 18 17  1  1
 18 19  1  0
 18 20  1  0
 19 14  1  0
 20 21  2  0
 20 22  1  0
M  END
$$$$
