IVS.pdb
     RDKit          3D

 22 21  0  0  1  0  0  0  0  0999 V2000
   15.7964  -12.6165  -14.7362 C   0  0  0  0  0  0  0  0  0  0  0  0
   16.8079  -12.6244  -15.8308 C   0  0  0  0  0  0  0  0  0  0  0  0
   17.9941  -11.7109  -15.6003 C   0  0  2  0  0  0  0  0  0  0  0  0
   17.4219  -10.2898  -15.5292 C   0  0  0  0  0  0  0  0  0  0  0  0
   18.9533  -11.8559  -16.7651 C   0  0  2  0  0  0  0  0  0  0  0  0
   19.5037  -13.2271  -16.7665 N   0  0  0  0  0  0  0  0  0  0  0  0
   20.1084  -10.9317  -16.6939 C   0  0  0  0  0  0  0  0  0  0  0  0
   21.0915  -11.1980  -15.9093 O   0  0  0  0  0  0  0  0  0  0  0  0
   22.6103   -9.7781  -19.1811 C   0  0  0  0  0  0  0  0  0  0  0  0
   21.9255   -8.5552  -18.6321 C   0  0  2  0  0  0  0  0  0  0  0  0
   22.9408   -7.4351  -18.5160 C   0  0  0  0  0  0  0  0  0  0  0  0
   21.4034   -8.8466  -17.2594 C   0  0  2  0  0  0  0  0  0  0  0  0
   20.2437   -9.7431  -17.4309 N   0  0  0  0  0  0  0  0  0  0  0  0
   21.0237   -7.6473  -16.4973 C   0  0  0  0  0  0  0  0  0  0  0  0
   20.0421   -6.9765  -16.8852 O   0  0  0  0  0  0  0  0  0  0  0  0
   21.9340   -4.9358  -12.5865 O   0  0  0  0  0  0  0  0  0  0  0  0
   22.1897   -6.1025  -13.3001 C   0  0  0  0  0  0  0  0  0  0  0  0
   21.4124   -6.0260  -14.6065 C   0  0  2  0  0  0  0  0  0  0  0  0
   21.7158   -7.2245  -15.3544 N   0  0  0  0  0  0  0  0  0  0  0  0
   21.8919   -4.8013  -15.3096 C   0  0  0  0  0  0  0  0  0  0  0  0
   22.9815   -4.8788  -15.9316 O   0  0  0  0  0  0  0  0  0  0  0  0
   21.1208   -3.6636  -15.2387 O   0  0  0  0  0  0  0  0  0  0  0  0
  2  1  1  0
  2  3  1  0
  3  4  1  6
  5  3  1  0
  5  7  1  0
  5  6  1  1
  7  8  2  0
 10  9  1  1
 10 12  1  0
 10 11  1  0
 12 13  1  6
 13  7  1  0
 14 12  1  0
 14 15  2  0
 16 17  1  0
 18 17  1  1
 18 19  1  0
 18 20  1  0
 19 14  1  0
 20 21  2  0
 20 22  1  0
M  END
$$$$
