HYG.pdb
     RDKit          3D

 27 28  0  0  1  0  0  0  0  0999 V2000
   27.8708  -22.8146  -17.2493 N   0  0  0  0  0  0  0  0  0  0  0  0
   27.3548  -21.5282  -16.8527 C   0  0  1  0  0  0  0  0  0  0  0  0
   26.3411  -21.0526  -17.8648 C   0  0  0  0  0  0  0  0  0  0  0  0
   26.9873  -20.6306  -19.1216 C   0  0  0  0  0  0  0  0  0  0  0  0
   26.8607  -21.2114  -20.3632 C   0  0  0  0  0  0  0  0  0  0  0  0
   27.6142  -20.5305  -21.2646 N   0  0  0  0  0  0  0  0  0  0  0  0
   28.2108  -19.5261  -20.5887 C   0  0  0  0  0  0  0  0  0  0  0  0
   27.8253  -19.5945  -19.2910 N   0  0  0  0  0  0  0  0  0  0  0  0
   26.7448  -21.6951  -15.5018 C   0  0  0  0  0  0  0  0  0  0  0  0
   26.1234  -22.7528  -15.1778 O   0  0  0  0  0  0  0  0  0  0  0  0
   24.9467  -20.5266   -6.8550 O   0  0  0  0  0  0  0  0  0  0  0  0
   25.4809  -20.4149   -8.1513 C   0  0  0  0  0  0  0  0  0  0  0  0
   25.6276  -19.2149   -8.7821 C   0  0  0  0  0  0  0  0  0  0  0  0
   26.1634  -19.1825  -10.0634 C   0  0  0  0  0  0  0  0  0  0  0  0
   26.5584  -20.3174  -10.7368 C   0  0  0  0  0  0  0  0  0  0  0  0
   27.1159  -20.2800  -12.0995 C   0  0  0  0  0  0  0  0  0  0  0  0
   26.2555  -20.8418  -13.1694 C   0  0  2  0  0  0  0  0  0  0  0  0
   26.8157  -20.6941  -14.4954 N   0  0  0  0  0  0  0  0  0  0  0  0
   24.9325  -20.1803  -13.1673 C   0  0  0  0  0  0  0  0  0  0  0  0
   24.7778  -18.9360  -13.3314 O   0  0  0  0  0  0  0  0  0  0  0  0
   26.4031  -21.5193  -10.0844 C   0  0  0  0  0  0  0  0  0  0  0  0
   25.8677  -21.5680   -8.7998 C   0  0  0  0  0  0  0  0  0  0  0  0
   23.7306  -20.9187  -12.9767 N   0  0  0  0  0  0  0  0  0  0  0  0
   22.4285  -20.2429  -12.9130 C   0  0  0  0  0  0  0  0  0  0  0  0
   21.3491  -21.2203  -12.7251 C   0  0  0  0  0  0  0  0  0  0  0  0
   21.5909  -22.4694  -12.7535 O   0  0  0  0  0  0  0  0  0  0  0  0
   20.0602  -20.7640  -12.5158 O   0  0  0  0  0  0  0  0  0  0  0  0
  2  9  1  0
  2  1  1  6
  2  3  1  0
  4  3  1  0
  4  8  1  0
  5  4  2  0
  6  5  1  0
  6  7  1  0
  7  8  2  0
  9 18  1  0
 10  9  2  0
 12 11  1  0
 13 12  2  0
 14 13  1  0
 15 21  1  0
 15 14  2  0
 16 15  1  0
 17 16  1  1
 18 17  1  0
 19 23  1  0
 19 17  1  0
 20 19  2  0
 21 22  2  0
 22 12  1  0
 24 23  1  0
 25 24  1  0
 26 25  2  0
 27 25  1  0
M  END
$$$$
