HYG.pdb
     RDKit          3D

 27 28  0  0  1  0  0  0  0  0999 V2000
   24.9566  -33.8141  -12.5423 N   0  0  0  0  0  0  0  0  0  0  0  0
   25.7035  -34.5050  -11.5210 C   0  0  1  0  0  0  0  0  0  0  0  0
   27.0317  -34.9555  -12.0789 C   0  0  0  0  0  0  0  0  0  0  0  0
   26.8674  -36.0558  -13.0472 C   0  0  0  0  0  0  0  0  0  0  0  0
   27.0166  -35.9959  -14.4143 C   0  0  0  0  0  0  0  0  0  0  0  0
   26.7807  -37.2197  -14.9532 N   0  0  0  0  0  0  0  0  0  0  0  0
   26.4845  -38.0434  -13.9258 C   0  0  0  0  0  0  0  0  0  0  0  0
   26.5394  -37.3296  -12.7747 N   0  0  0  0  0  0  0  0  0  0  0  0
   25.8794  -33.5550  -10.3846 C   0  0  0  0  0  0  0  0  0  0  0  0
   26.1393  -32.3280  -10.5764 O   0  0  0  0  0  0  0  0  0  0  0  0
   22.0385  -28.9353  -11.0817 O   0  0  0  0  0  0  0  0  0  0  0  0
   22.6937  -29.7746  -10.1627 C   0  0  0  0  0  0  0  0  0  0  0  0
   23.6027  -29.3052   -9.2612 C   0  0  0  0  0  0  0  0  0  0  0  0
   24.2103  -30.1945   -8.3837 C   0  0  0  0  0  0  0  0  0  0  0  0
   23.9363  -31.5445   -8.3798 C   0  0  0  0  0  0  0  0  0  0  0  0
   24.5906  -32.4859   -7.4553 C   0  0  0  0  0  0  0  0  0  0  0  0
   25.8900  -33.0422   -7.9058 C   0  0  2  0  0  0  0  0  0  0  0  0
   25.7698  -33.9522   -9.0244 N   0  0  0  0  0  0  0  0  0  0  0  0
   26.5470  -33.7756   -6.8020 C   0  0  0  0  0  0  0  0  0  0  0  0
   26.2184  -34.9457   -6.4530 O   0  0  0  0  0  0  0  0  0  0  0  0
   23.0163  -32.0001   -9.2965 C   0  0  0  0  0  0  0  0  0  0  0  0
   22.3988  -31.1209  -10.1824 C   0  0  0  0  0  0  0  0  0  0  0  0
   27.6094  -33.1972   -6.0516 N   0  0  0  0  0  0  0  0  0  0  0  0
   28.1240  -33.8494   -4.8408 C   0  0  0  0  0  0  0  0  0  0  0  0
   29.1361  -34.8549   -5.1875 C   0  0  0  0  0  0  0  0  0  0  0  0
   29.3545  -35.1656   -6.4021 O   0  0  0  0  0  0  0  0  0  0  0  0
   29.8525  -35.4630   -4.1725 O   0  0  0  0  0  0  0  0  0  0  0  0
  2  9  1  0
  2  1  1  6
  2  3  1  0
  4  3  1  0
  4  8  1  0
  5  4  2  0
  6  5  1  0
  6  7  1  0
  7  8  2  0
  9 18  1  0
 10  9  2  0
 12 11  1  0
 13 12  2  0
 14 13  1  0
 15 21  1  0
 15 14  2  0
 16 15  1  0
 17 16  1  1
 18 17  1  0
 19 23  1  0
 19 17  1  0
 20 19  2  0
 21 22  2  0
 22 12  1  0
 24 23  1  0
 25 24  1  0
 26 25  2  0
 27 25  1  0
M  END
$$$$
