HYG.pdb
     RDKit          3D

 27 28  0  0  1  0  0  0  0  0999 V2000
   20.9658  -10.4567  -17.9132 N   0  0  0  0  0  0  0  0  0  0  0  0
   21.6101   -9.3398  -18.5580 C   0  0  1  0  0  0  0  0  0  0  0  0
   20.9336   -9.0541  -19.8766 C   0  0  0  0  0  0  0  0  0  0  0  0
   21.0822  -10.1805  -20.8170 C   0  0  0  0  0  0  0  0  0  0  0  0
   22.2416  -10.6290  -21.4081 C   0  0  0  0  0  0  0  0  0  0  0  0
   21.9644  -11.6887  -22.2106 N   0  0  0  0  0  0  0  0  0  0  0  0
   20.6348  -11.9028  -22.1219 C   0  0  0  0  0  0  0  0  0  0  0  0
   20.1084  -10.9843  -21.2753 N   0  0  0  0  0  0  0  0  0  0  0  0
   21.5129   -8.1776  -17.6281 C   0  0  0  0  0  0  0  0  0  0  0  0
   20.4104   -7.8376  -17.1002 O   0  0  0  0  0  0  0  0  0  0  0  0
   20.2307   -9.5984  -11.2503 O   0  0  0  0  0  0  0  0  0  0  0  0
   20.9564   -8.8244  -12.1737 C   0  0  0  0  0  0  0  0  0  0  0  0
   20.6613   -7.5171  -12.4254 C   0  0  0  0  0  0  0  0  0  0  0  0
   21.4227   -6.8154  -13.3515 C   0  0  0  0  0  0  0  0  0  0  0  0
   22.4743   -7.3826  -14.0371 C   0  0  0  0  0  0  0  0  0  0  0  0
   23.2724   -6.6384  -15.0263 C   0  0  0  0  0  0  0  0  0  0  0  0
   22.5864   -6.3092  -16.2998 C   0  0  2  0  0  0  0  0  0  0  0  0
   22.6338   -7.3796  -17.2724 N   0  0  0  0  0  0  0  0  0  0  0  0
   23.1982   -5.1142  -16.9207 C   0  0  0  0  0  0  0  0  0  0  0  0
   24.2862   -5.1457  -17.5643 O   0  0  0  0  0  0  0  0  0  0  0  0
   22.7575   -8.7027  -13.7700 C   0  0  0  0  0  0  0  0  0  0  0  0
   22.0035   -9.4192  -12.8442 C   0  0  0  0  0  0  0  0  0  0  0  0
   22.5871   -3.8318  -16.8293 N   0  0  0  0  0  0  0  0  0  0  0  0
   23.2130   -2.6497  -17.4353 C   0  0  0  0  0  0  0  0  0  0  0  0
   22.4572   -2.2148  -18.6166 C   0  0  0  0  0  0  0  0  0  0  0  0
   21.4880   -2.9099  -19.0604 O   0  0  0  0  0  0  0  0  0  0  0  0
   22.8137   -1.0346  -19.2437 O   0  0  0  0  0  0  0  0  0  0  0  0
  2  9  1  0
  2  1  1  1
  2  3  1  0
  4  3  1  0
  4  8  1  0
  5  4  2  0
  6  5  1  0
  6  7  1  0
  7  8  2  0
  9 18  1  0
 10  9  2  0
 12 11  1  0
 13 12  2  0
 14 13  1  0
 15 21  1  0
 15 14  2  0
 16 15  1  0
 17 16  1  1
 18 17  1  0
 19 23  1  0
 19 17  1  0
 20 19  2  0
 21 22  2  0
 22 12  1  0
 24 23  1  0
 25 24  1  0
 26 25  2  0
 27 25  1  0
M  END
$$$$
