HYG.pdb
     RDKit          3D

 27 28  0  0  1  0  0  0  0  0999 V2000
   21.7296  -12.2479  -18.0179 N   0  0  0  0  0  0  0  0  0  0  0  0
   21.4409  -10.8556  -18.2560 C   0  0  1  0  0  0  0  0  0  0  0  0
   19.9642  -10.6793  -18.5145 C   0  0  0  0  0  0  0  0  0  0  0  0
   19.5823  -11.1901  -19.8443 C   0  0  0  0  0  0  0  0  0  0  0  0
   18.9924  -10.4890  -20.8716 C   0  0  0  0  0  0  0  0  0  0  0  0
   18.7990  -11.3123  -21.9340 N   0  0  0  0  0  0  0  0  0  0  0  0
   19.2666  -12.5256  -21.5723 C   0  0  0  0  0  0  0  0  0  0  0  0
   19.7393  -12.4422  -20.3045 N   0  0  0  0  0  0  0  0  0  0  0  0
   21.8803  -10.1010  -17.0468 C   0  0  0  0  0  0  0  0  0  0  0  0
   21.8303  -10.6137  -15.8873 O   0  0  0  0  0  0  0  0  0  0  0  0
   27.8423  -12.1044  -16.6000 O   0  0  0  0  0  0  0  0  0  0  0  0
   26.9581  -11.0147  -16.5043 C   0  0  0  0  0  0  0  0  0  0  0  0
   26.4332  -10.3990  -17.6019 C   0  0  0  0  0  0  0  0  0  0  0  0
   25.5657   -9.3277  -17.4295 C   0  0  0  0  0  0  0  0  0  0  0  0
   25.2054   -8.8506  -16.1884 C   0  0  0  0  0  0  0  0  0  0  0  0
   24.2940   -7.7076  -16.0098 C   0  0  0  0  0  0  0  0  0  0  0  0
   22.8474   -8.0321  -15.9551 C   0  0  2  0  0  0  0  0  0  0  0  0
   22.3796   -8.7717  -17.1074 N   0  0  0  0  0  0  0  0  0  0  0  0
   22.0445   -6.7932  -15.8635 C   0  0  0  0  0  0  0  0  0  0  0  0
   21.7397   -6.0871  -16.8673 O   0  0  0  0  0  0  0  0  0  0  0  0
   25.7449   -9.4845  -15.0924 C   0  0  0  0  0  0  0  0  0  0  0  0
   26.6158  -10.5598  -15.2491 C   0  0  0  0  0  0  0  0  0  0  0  0
   21.5572   -6.3118  -14.6157 N   0  0  0  0  0  0  0  0  0  0  0  0
   20.8112   -5.0499  -14.5299 C   0  0  0  0  0  0  0  0  0  0  0  0
   21.7252   -3.9040  -14.6159 C   0  0  0  0  0  0  0  0  0  0  0  0
   22.9799   -4.0611  -14.4733 O   0  0  0  0  0  0  0  0  0  0  0  0
   21.2025   -2.6458  -14.8550 O   0  0  0  0  0  0  0  0  0  0  0  0
  2  9  1  0
  2  1  1  1
  2  3  1  0
  4  3  1  0
  4  8  1  0
  5  4  2  0
  6  5  1  0
  6  7  1  0
  7  8  2  0
  9 18  1  0
 10  9  2  0
 12 11  1  0
 13 12  2  0
 14 13  1  0
 15 21  1  0
 15 14  2  0
 16 15  1  0
 17 16  1  6
 18 17  1  0
 19 23  1  0
 19 17  1  0
 20 19  2  0
 21 22  2  0
 22 12  1  0
 24 23  1  0
 25 24  1  0
 26 25  2  0
 27 25  1  0
M  END
$$$$
