HYG.pdb
     RDKit          3D

 27 28  0  0  1  0  0  0  0  0999 V2000
   28.0273  -20.4004  -15.6657 N   0  0  0  0  0  0  0  0  0  0  0  0
   27.1623  -19.8061  -14.6773 C   0  0  1  0  0  0  0  0  0  0  0  0
   26.3777  -18.6773  -15.3005 C   0  0  0  0  0  0  0  0  0  0  0  0
   27.2679  -17.6394  -15.8534 C   0  0  0  0  0  0  0  0  0  0  0  0
   28.6440  -17.6171  -15.8265 C   0  0  0  0  0  0  0  0  0  0  0  0
   29.0943  -16.4927  -16.4402 N   0  0  0  0  0  0  0  0  0  0  0  0
   28.0027  -15.8130  -16.8501 C   0  0  0  0  0  0  0  0  0  0  0  0
   26.9005  -16.5153  -16.4903 N   0  0  0  0  0  0  0  0  0  0  0  0
   26.2646  -20.8844  -14.1712 C   0  0  0  0  0  0  0  0  0  0  0  0
   26.0572  -21.9449  -14.8362 O   0  0  0  0  0  0  0  0  0  0  0  0
   27.4174  -18.7132   -7.3843 O   0  0  0  0  0  0  0  0  0  0  0  0
   26.9514  -19.6440   -8.3303 C   0  0  0  0  0  0  0  0  0  0  0  0
   27.7630  -20.1936   -9.2783 C   0  0  0  0  0  0  0  0  0  0  0  0
   27.2316  -21.1070  -10.1802 C   0  0  0  0  0  0  0  0  0  0  0  0
   25.9083  -21.4894  -10.1638 C   0  0  0  0  0  0  0  0  0  0  0  0
   25.3463  -22.4499  -11.1286 C   0  0  0  0  0  0  0  0  0  0  0  0
   24.7817  -21.8682  -12.3710 C   0  0  2  0  0  0  0  0  0  0  0  0
   25.5871  -20.8012  -12.9247 N   0  0  0  0  0  0  0  0  0  0  0  0
   23.4306  -21.3223  -12.1168 C   0  0  0  0  0  0  0  0  0  0  0  0
   22.4823  -22.0093  -11.6396 O   0  0  0  0  0  0  0  0  0  0  0  0
   25.1045  -20.9245   -9.2000 C   0  0  0  0  0  0  0  0  0  0  0  0
   25.6225  -20.0076   -8.2889 C   0  0  0  0  0  0  0  0  0  0  0  0
   23.1105  -19.9644  -12.3995 N   0  0  0  0  0  0  0  0  0  0  0  0
   22.0594  -19.6194  -13.3652 C   0  0  0  0  0  0  0  0  0  0  0  0
   20.7641  -20.1576  -12.9314 C   0  0  0  0  0  0  0  0  0  0  0  0
   20.1158  -19.6077  -11.9844 O   0  0  0  0  0  0  0  0  0  0  0  0
   20.2552  -21.2752  -13.5680 O   0  0  0  0  0  0  0  0  0  0  0  0
  2  9  1  0
  2  1  1  6
  2  3  1  0
  4  3  1  0
  4  8  1  0
  5  4  2  0
  6  5  1  0
  6  7  1  0
  7  8  2  0
  9 18  1  0
 10  9  2  0
 12 11  1  0
 13 12  2  0
 14 13  1  0
 15 21  1  0
 15 14  2  0
 16 15  1  0
 17 16  1  1
 18 17  1  0
 19 23  1  0
 19 17  1  0
 20 19  2  0
 21 22  2  0
 22 12  1  0
 24 23  1  0
 25 24  1  0
 26 25  2  0
 27 25  1  0
M  END
$$$$
