HYG.pdb
     RDKit          3D

 27 28  0  0  1  0  0  0  0  0999 V2000
   25.6366  -24.4808  -18.4994 N   0  0  0  0  0  0  0  0  0  0  0  0
   26.3151  -23.3834  -17.8563 C   0  0  1  0  0  0  0  0  0  0  0  0
   27.8062  -23.5289  -18.0403 C   0  0  0  0  0  0  0  0  0  0  0  0
   28.3305  -24.6981  -17.3099 C   0  0  0  0  0  0  0  0  0  0  0  0
   27.6072  -25.6609  -16.6432 C   0  0  0  0  0  0  0  0  0  0  0  0
   28.4537  -26.5722  -16.0986 N   0  0  0  0  0  0  0  0  0  0  0  0
   29.7037  -26.1807  -16.4237 C   0  0  0  0  0  0  0  0  0  0  0  0
   29.6195  -25.0442  -17.1578 N   0  0  0  0  0  0  0  0  0  0  0  0
   25.8058  -22.1259  -18.4761 C   0  0  0  0  0  0  0  0  0  0  0  0
   25.2574  -22.1221  -19.6203 O   0  0  0  0  0  0  0  0  0  0  0  0
   19.4225  -22.1743  -18.1084 O   0  0  0  0  0  0  0  0  0  0  0  0
   20.6179  -21.4474  -17.9638 C   0  0  0  0  0  0  0  0  0  0  0  0
   21.5455  -21.7455  -17.0098 C   0  0  0  0  0  0  0  0  0  0  0  0
   22.7036  -20.9826  -16.9270 C   0  0  0  0  0  0  0  0  0  0  0  0
   22.9641  -19.9261  -17.7717 C   0  0  0  0  0  0  0  0  0  0  0  0
   24.1880  -19.1128  -17.6738 C   0  0  0  0  0  0  0  0  0  0  0  0
   25.3737  -19.6329  -18.3977 C   0  0  2  0  0  0  0  0  0  0  0  0
   25.8978  -20.8597  -17.8372 N   0  0  0  0  0  0  0  0  0  0  0  0
   26.4647  -18.6341  -18.3845 C   0  0  0  0  0  0  0  0  0  0  0  0
   27.3433  -18.5771  -17.4769 O   0  0  0  0  0  0  0  0  0  0  0  0
   22.0167  -19.6401  -18.7283 C   0  0  0  0  0  0  0  0  0  0  0  0
   20.8509  -20.3958  -18.8239 C   0  0  0  0  0  0  0  0  0  0  0  0
   26.5936  -17.6581  -19.4126 N   0  0  0  0  0  0  0  0  0  0  0  0
   27.6929  -16.6845  -19.3990 C   0  0  0  0  0  0  0  0  0  0  0  0
   28.9235  -17.2893  -19.9238 C   0  0  0  0  0  0  0  0  0  0  0  0
   28.9404  -18.5038  -20.3035 O   0  0  0  0  0  0  0  0  0  0  0  0
   30.0695  -16.5186  -20.0007 O   0  0  0  0  0  0  0  0  0  0  0  0
  2  9  1  0
  2  1  1  6
  2  3  1  0
  4  3  1  0
  4  8  1  0
  5  4  2  0
  6  5  1  0
  6  7  1  0
  7  8  2  0
  9 18  1  0
 10  9  2  0
 12 11  1  0
 13 12  2  0
 14 13  1  0
 15 21  1  0
 15 14  2  0
 16 15  1  0
 17 16  1  1
 18 17  1  0
 19 23  1  0
 19 17  1  0
 20 19  2  0
 21 22  2  0
 22 12  1  0
 24 23  1  0
 25 24  1  0
 26 25  2  0
 27 25  1  0
M  END
$$$$
