HYG.pdb
     RDKit          3D

 27 28  0  0  1  0  0  0  0  0999 V2000
   22.5599  -10.3758  -18.6632 N   0  0  0  0  0  0  0  0  0  0  0  0
   22.7229   -8.9733  -18.3718 C   0  0  1  0  0  0  0  0  0  0  0  0
   22.8745   -8.2004  -19.6594 C   0  0  0  0  0  0  0  0  0  0  0  0
   24.1159   -8.5652  -20.3672 C   0  0  0  0  0  0  0  0  0  0  0  0
   24.2736   -9.5312  -21.3351 C   0  0  0  0  0  0  0  0  0  0  0  0
   25.5690   -9.5634  -21.7410 N   0  0  0  0  0  0  0  0  0  0  0  0
   26.2203   -8.6198  -21.0289 C   0  0  0  0  0  0  0  0  0  0  0  0
   25.3320   -8.0200  -20.1990 N   0  0  0  0  0  0  0  0  0  0  0  0
   21.5170   -8.5383  -17.6093 C   0  0  0  0  0  0  0  0  0  0  0  0
   20.3675   -9.0178  -17.8512 O   0  0  0  0  0  0  0  0  0  0  0  0
   18.0196  -13.1463  -15.5410 O   0  0  0  0  0  0  0  0  0  0  0  0
   18.5071  -11.8472  -15.3109 C   0  0  0  0  0  0  0  0  0  0  0  0
   17.7016  -10.7473  -15.3376 C   0  0  0  0  0  0  0  0  0  0  0  0
   18.2544   -9.4950  -15.1007 C   0  0  0  0  0  0  0  0  0  0  0  0
   19.5935   -9.3074  -14.8372 C   0  0  0  0  0  0  0  0  0  0  0  0
   20.1779   -7.9770  -14.5973 C   0  0  0  0  0  0  0  0  0  0  0  0
   20.4194   -7.1462  -15.8024 C   0  0  2  0  0  0  0  0  0  0  0  0
   21.5699   -7.5687  -16.5716 N   0  0  0  0  0  0  0  0  0  0  0  0
   20.6321   -5.7332  -15.4201 C   0  0  0  0  0  0  0  0  0  0  0  0
   21.6839   -5.3175  -14.8544 O   0  0  0  0  0  0  0  0  0  0  0  0
   20.3909  -10.4289  -14.8141 C   0  0  0  0  0  0  0  0  0  0  0  0
   19.8514  -11.6909  -15.0494 C   0  0  0  0  0  0  0  0  0  0  0  0
   19.6467   -4.7371  -15.6709 N   0  0  0  0  0  0  0  0  0  0  0  0
   19.8977   -3.3261  -15.3510 C   0  0  0  0  0  0  0  0  0  0  0  0
   18.7754   -2.4896  -15.7945 C   0  0  0  0  0  0  0  0  0  0  0  0
   17.8068   -2.9942  -16.4477 O   0  0  0  0  0  0  0  0  0  0  0  0
   18.7845   -1.1399  -15.4918 O   0  0  0  0  0  0  0  0  0  0  0  0
  2  9  1  0
  2  1  1  6
  2  3  1  0
  4  3  1  0
  4  8  1  0
  5  4  2  0
  6  5  1  0
  6  7  1  0
  7  8  2  0
  9 18  1  0
 10  9  2  0
 12 11  1  0
 13 12  2  0
 14 13  1  0
 15 21  1  0
 15 14  2  0
 16 15  1  0
 17 16  1  1
 18 17  1  0
 19 23  1  0
 19 17  1  0
 20 19  2  0
 21 22  2  0
 22 12  1  0
 24 23  1  0
 25 24  1  0
 26 25  2  0
 27 25  1  0
M  END
$$$$
