HYG.pdb
     RDKit          3D

 27 28  0  0  1  0  0  0  0  0999 V2000
   21.7445  -20.8722  -12.3534 N   0  0  0  0  0  0  0  0  0  0  0  0
   22.5128  -21.1559  -13.5399 C   0  0  1  0  0  0  0  0  0  0  0  0
   21.7242  -20.7581  -14.7639 C   0  0  0  0  0  0  0  0  0  0  0  0
   20.5116  -21.5831  -14.9188 C   0  0  0  0  0  0  0  0  0  0  0  0
   20.4401  -22.8969  -15.3233 C   0  0  0  0  0  0  0  0  0  0  0  0
   19.1434  -23.2997  -15.3390 N   0  0  0  0  0  0  0  0  0  0  0  0
   18.4053  -22.2405  -14.9454 C   0  0  0  0  0  0  0  0  0  0  0  0
   19.2426  -21.2048  -14.6928 N   0  0  0  0  0  0  0  0  0  0  0  0
   23.7869  -20.3876  -13.4343 C   0  0  0  0  0  0  0  0  0  0  0  0
   23.7943  -19.1309  -13.2600 O   0  0  0  0  0  0  0  0  0  0  0  0
   24.7784  -19.9787   -7.0470 O   0  0  0  0  0  0  0  0  0  0  0  0
   25.3320  -20.2256   -8.3162 C   0  0  0  0  0  0  0  0  0  0  0  0
   25.1958  -21.4228   -8.9545 C   0  0  0  0  0  0  0  0  0  0  0  0
   25.7707  -21.5935  -10.2076 C   0  0  0  0  0  0  0  0  0  0  0  0
   26.4809  -20.6001  -10.8451 C   0  0  0  0  0  0  0  0  0  0  0  0
   27.0983  -20.7884  -12.1689 C   0  0  0  0  0  0  0  0  0  0  0  0
   26.3143  -20.2952  -13.3278 C   0  0  2  0  0  0  0  0  0  0  0  0
   25.0660  -21.0012  -13.5205 N   0  0  0  0  0  0  0  0  0  0  0  0
   27.0992  -20.4273  -14.5746 C   0  0  0  0  0  0  0  0  0  0  0  0
   27.2332  -21.5189  -15.1987 O   0  0  0  0  0  0  0  0  0  0  0  0
   26.6079  -19.3986  -10.1858 C   0  0  0  0  0  0  0  0  0  0  0  0
   26.0371  -19.2123   -8.9294 C   0  0  0  0  0  0  0  0  0  0  0  0
   27.7637  -19.3119  -15.1582 N   0  0  0  0  0  0  0  0  0  0  0  0
   28.6136  -19.4728  -16.3449 C   0  0  0  0  0  0  0  0  0  0  0  0
   27.9086  -19.0168  -17.5494 C   0  0  0  0  0  0  0  0  0  0  0  0
   26.7531  -19.4664  -17.8358 O   0  0  0  0  0  0  0  0  0  0  0  0
   28.5193  -18.0879  -18.3726 O   0  0  0  0  0  0  0  0  0  0  0  0
  2  9  1  0
  2  1  1  1
  2  3  1  0
  4  3  1  0
  4  8  1  0
  5  4  2  0
  6  5  1  0
  6  7  1  0
  7  8  2  0
  9 18  1  0
 10  9  2  0
 12 11  1  0
 13 12  2  0
 14 13  1  0
 15 21  1  0
 15 14  2  0
 16 15  1  0
 17 16  1  1
 18 17  1  0
 19 23  1  0
 19 17  1  0
 20 19  2  0
 21 22  2  0
 22 12  1  0
 24 23  1  0
 25 24  1  0
 26 25  2  0
 27 25  1  0
M  END
$$$$
