HYG.pdb
     RDKit          3D

 27 28  0  0  1  0  0  0  0  0999 V2000
   21.3233   -7.2388  -13.2341 N   0  0  0  0  0  0  0  0  0  0  0  0
   20.0618   -7.8117  -13.6326 C   0  0  1  0  0  0  0  0  0  0  0  0
   20.2898   -9.1798  -14.2281 C   0  0  0  0  0  0  0  0  0  0  0  0
   20.8610   -9.0916  -15.5851 C   0  0  0  0  0  0  0  0  0  0  0  0
   22.1488   -9.3867  -15.9711 C   0  0  0  0  0  0  0  0  0  0  0  0
   22.2842   -9.1785  -17.3061 N   0  0  0  0  0  0  0  0  0  0  0  0
   21.0840   -8.7541  -17.7543 C   0  0  0  0  0  0  0  0  0  0  0  0
   20.2277   -8.7044  -16.7046 N   0  0  0  0  0  0  0  0  0  0  0  0
   19.2037   -7.8796  -12.4144 C   0  0  0  0  0  0  0  0  0  0  0  0
   19.6588   -8.2836  -11.3010 O   0  0  0  0  0  0  0  0  0  0  0  0
   12.4625   -6.5954   -6.7395 O   0  0  0  0  0  0  0  0  0  0  0  0
   13.3424   -6.5311   -7.8349 C   0  0  0  0  0  0  0  0  0  0  0  0
   12.9043   -6.5102   -9.1260 C   0  0  0  0  0  0  0  0  0  0  0  0
   13.8330   -6.4459  -10.1572 C   0  0  0  0  0  0  0  0  0  0  0  0
   15.1921   -6.4020   -9.9367 C   0  0  0  0  0  0  0  0  0  0  0  0
   16.1741   -6.3449  -11.0328 C   0  0  0  0  0  0  0  0  0  0  0  0
   16.9763   -7.5735  -11.2516 C   0  0  2  0  0  0  0  0  0  0  0  0
   17.8338   -7.5014  -12.4149 N   0  0  0  0  0  0  0  0  0  0  0  0
   16.0890   -8.7446  -11.4226 C   0  0  0  0  0  0  0  0  0  0  0  0
   15.4193   -8.9612  -12.4732 O   0  0  0  0  0  0  0  0  0  0  0  0
   15.6157   -6.4237   -8.6273 C   0  0  0  0  0  0  0  0  0  0  0  0
   14.6969   -6.4879   -7.5829 C   0  0  0  0  0  0  0  0  0  0  0  0
   15.9327   -9.7172  -10.3951 N   0  0  0  0  0  0  0  0  0  0  0  0
   15.0391  -10.8690  -10.5721 C   0  0  0  0  0  0  0  0  0  0  0  0
   13.6385  -10.4671  -10.3921 C   0  0  0  0  0  0  0  0  0  0  0  0
   13.3380   -9.2608  -10.1197 O   0  0  0  0  0  0  0  0  0  0  0  0
   12.6451  -11.4207  -10.5228 O   0  0  0  0  0  0  0  0  0  0  0  0
  2  9  1  0
  2  1  1  1
  2  3  1  0
  4  3  1  0
  4  8  1  0
  5  4  2  0
  6  5  1  0
  6  7  1  0
  7  8  2  0
  9 18  1  0
 10  9  2  0
 12 11  1  0
 13 12  2  0
 14 13  1  0
 15 21  1  0
 15 14  2  0
 16 15  1  0
 17 16  1  6
 18 17  1  0
 19 23  1  0
 19 17  1  0
 20 19  2  0
 21 22  2  0
 22 12  1  0
 24 23  1  0
 25 24  1  0
 26 25  2  0
 27 25  1  0
M  END
$$$$
