HYG.pdb
     RDKit          3D

 27 28  0  0  1  0  0  0  0  0999 V2000
   15.6995  -26.3378    1.3392 N   0  0  0  0  0  0  0  0  0  0  0  0
   15.6540  -25.5872    2.5692 C   0  0  1  0  0  0  0  0  0  0  0  0
   16.5680  -26.2239    3.5878 C   0  0  0  0  0  0  0  0  0  0  0  0
   15.9832  -27.4586    4.1435 C   0  0  0  0  0  0  0  0  0  0  0  0
   14.6484  -27.7481    4.3150 C   0  0  0  0  0  0  0  0  0  0  0  0
   14.5159  -28.9862    4.8566 N   0  0  0  0  0  0  0  0  0  0  0  0
   15.7646  -29.4703    5.0235 C   0  0  0  0  0  0  0  0  0  0  0  0
   16.6474  -28.5380    4.5887 N   0  0  0  0  0  0  0  0  0  0  0  0
   16.0748  -24.1922    2.2505 C   0  0  0  0  0  0  0  0  0  0  0  0
   17.1212  -23.9502    1.5748 O   0  0  0  0  0  0  0  0  0  0  0  0
   13.8118  -23.2487   -3.6456 O   0  0  0  0  0  0  0  0  0  0  0  0
   13.9813  -22.7046   -2.3597 C   0  0  0  0  0  0  0  0  0  0  0  0
   12.9652  -22.6385   -1.4527 C   0  0  0  0  0  0  0  0  0  0  0  0
   13.2075  -22.0872   -0.2007 C   0  0  0  0  0  0  0  0  0  0  0  0
   14.4393  -21.5974    0.1740 C   0  0  0  0  0  0  0  0  0  0  0  0
   14.6894  -21.0037    1.4984 C   0  0  0  0  0  0  0  0  0  0  0  0
   15.7019  -21.6900    2.3377 C   0  0  2  0  0  0  0  0  0  0  0  0
   15.3429  -23.0505    2.6755 N   0  0  0  0  0  0  0  0  0  0  0  0
   15.9056  -20.9542    3.6046 C   0  0  0  0  0  0  0  0  0  0  0  0
   15.1990  -21.1395    4.6368 O   0  0  0  0  0  0  0  0  0  0  0  0
   15.4526  -21.6727   -0.7543 C   0  0  0  0  0  0  0  0  0  0  0  0
   15.2253  -22.2228   -2.0132 C   0  0  0  0  0  0  0  0  0  0  0  0
   16.9290  -19.9742    3.7408 N   0  0  0  0  0  0  0  0  0  0  0  0
   17.1635  -19.2973    5.0226 C   0  0  0  0  0  0  0  0  0  0  0  0
   16.5016  -17.9868    5.0420 C   0  0  0  0  0  0  0  0  0  0  0  0
   15.8952  -17.5494    4.0123 O   0  0  0  0  0  0  0  0  0  0  0  0
   16.5457  -17.2304    6.1993 O   0  0  0  0  0  0  0  0  0  0  0  0
  2  9  1  0
  2  1  1  6
  2  3  1  0
  4  3  1  0
  4  8  1  0
  5  4  2  0
  6  5  1  0
  6  7  1  0
  7  8  2  0
  9 18  1  0
 10  9  2  0
 12 11  1  0
 13 12  2  0
 14 13  1  0
 15 21  1  0
 15 14  2  0
 16 15  1  0
 17 16  1  1
 18 17  1  0
 19 23  1  0
 19 17  1  0
 20 19  2  0
 21 22  2  0
 22 12  1  0
 24 23  1  0
 25 24  1  0
 26 25  2  0
 27 25  1  0
M  END
$$$$
