HYG.pdb
     RDKit          3D

 27 28  0  0  1  0  0  0  0  0999 V2000
   19.6733  -14.1194  -18.9944 N   0  0  0  0  0  0  0  0  0  0  0  0
   20.6562  -15.0299  -19.5266 C   0  0  1  0  0  0  0  0  0  0  0  0
   21.0168  -14.6232  -20.9348 C   0  0  0  0  0  0  0  0  0  0  0  0
   19.8614  -14.7377  -21.8443 C   0  0  0  0  0  0  0  0  0  0  0  0
   19.2340  -15.8909  -22.2580 C   0  0  0  0  0  0  0  0  0  0  0  0
   18.2105  -15.5789  -23.0941 N   0  0  0  0  0  0  0  0  0  0  0  0
   18.1976  -14.2337  -23.2033 C   0  0  0  0  0  0  0  0  0  0  0  0
   19.2014  -13.7324  -22.4426 N   0  0  0  0  0  0  0  0  0  0  0  0
   21.8401  -14.9795  -18.6207 C   0  0  0  0  0  0  0  0  0  0  0  0
   22.2460  -13.8888  -18.1152 O   0  0  0  0  0  0  0  0  0  0  0  0
   19.6514  -20.2606  -14.4058 O   0  0  0  0  0  0  0  0  0  0  0  0
   20.5834  -19.2736  -14.7737 C   0  0  0  0  0  0  0  0  0  0  0  0
   21.9265  -19.5078  -14.7993 C   0  0  0  0  0  0  0  0  0  0  0  0
   22.7873  -18.4834  -15.1733 C   0  0  0  0  0  0  0  0  0  0  0  0
   22.3450  -17.2267  -15.5236 C   0  0  0  0  0  0  0  0  0  0  0  0
   23.2614  -16.1401  -15.9090 C   0  0  0  0  0  0  0  0  0  0  0  0
   23.6912  -16.1251  -17.3288 C   0  0  2  0  0  0  0  0  0  0  0  0
   22.5874  -16.1348  -18.2644 N   0  0  0  0  0  0  0  0  0  0  0  0
   24.5369  -17.3023  -17.6237 C   0  0  0  0  0  0  0  0  0  0  0  0
   24.1762  -18.2428  -18.3882 O   0  0  0  0  0  0  0  0  0  0  0  0
   20.9864  -17.0089  -15.4920 C   0  0  0  0  0  0  0  0  0  0  0  0
   20.1110  -18.0258  -15.1195 C   0  0  0  0  0  0  0  0  0  0  0  0
   25.8328  -17.4502  -17.0537 N   0  0  0  0  0  0  0  0  0  0  0  0
   27.0290  -17.5279  -17.9020 C   0  0  0  0  0  0  0  0  0  0  0  0
   27.1183  -18.8436  -18.5477 C   0  0  0  0  0  0  0  0  0  0  0  0
   26.1777  -19.6922  -18.4270 O   0  0  0  0  0  0  0  0  0  0  0  0
   28.2430  -19.1502  -19.2922 O   0  0  0  0  0  0  0  0  0  0  0  0
  2  9  1  0
  2  1  1  1
  2  3  1  0
  4  3  1  0
  4  8  1  0
  5  4  2  0
  6  5  1  0
  6  7  1  0
  7  8  2  0
  9 18  1  0
 10  9  2  0
 12 11  1  0
 13 12  2  0
 14 13  1  0
 15 21  1  0
 15 14  2  0
 16 15  1  0
 17 16  1  1
 18 17  1  0
 19 23  1  0
 19 17  1  0
 20 19  2  0
 21 22  2  0
 22 12  1  0
 24 23  1  0
 25 24  1  0
 26 25  2  0
 27 25  1  0
M  END
$$$$
