HYG.pdb
     RDKit          3D

 27 28  0  0  1  0  0  0  0  0999 V2000
   26.4647  -23.2952  -17.3352 N   0  0  0  0  0  0  0  0  0  0  0  0
   25.6214  -23.7048  -16.2401 C   0  0  1  0  0  0  0  0  0  0  0  0
   26.2316  -24.8987  -15.5469 C   0  0  0  0  0  0  0  0  0  0  0  0
   26.0826  -26.1263  -16.3507 C   0  0  0  0  0  0  0  0  0  0  0  0
   27.0292  -27.1008  -16.5722 C   0  0  0  0  0  0  0  0  0  0  0  0
   26.5078  -28.0715  -17.3657 N   0  0  0  0  0  0  0  0  0  0  0  0
   25.2382  -27.7053  -17.6402 C   0  0  0  0  0  0  0  0  0  0  0  0
   24.9891  -26.5254  -17.0210 N   0  0  0  0  0  0  0  0  0  0  0  0
   25.4984  -22.5387  -15.3182 C   0  0  0  0  0  0  0  0  0  0  0  0
   26.4400  -21.7003  -15.1755 O   0  0  0  0  0  0  0  0  0  0  0  0
   23.1972  -17.6609  -19.1465 O   0  0  0  0  0  0  0  0  0  0  0  0
   23.1485  -18.2786  -17.8838 C   0  0  0  0  0  0  0  0  0  0  0  0
   23.6049  -17.6695  -16.7524 C   0  0  0  0  0  0  0  0  0  0  0  0
   23.5242  -18.3420  -15.5395 C   0  0  0  0  0  0  0  0  0  0  0  0
   22.9994  -19.6103  -15.4221 C   0  0  0  0  0  0  0  0  0  0  0  0
   22.9255  -20.3243  -14.1362 C   0  0  0  0  0  0  0  0  0  0  0  0
   24.1329  -21.0948  -13.7502 C   0  0  2  0  0  0  0  0  0  0  0  0
   24.3329  -22.2876  -14.5446 N   0  0  0  0  0  0  0  0  0  0  0  0
   24.0476  -21.5110  -12.3333 C   0  0  0  0  0  0  0  0  0  0  0  0
   23.2503  -22.4001  -11.9174 O   0  0  0  0  0  0  0  0  0  0  0  0
   22.5436  -20.2091  -16.5745 C   0  0  0  0  0  0  0  0  0  0  0  0
   22.6176  -19.5477  -17.7977 C   0  0  0  0  0  0  0  0  0  0  0  0
   24.8736  -20.9244  -11.3334 N   0  0  0  0  0  0  0  0  0  0  0  0
   24.7743  -21.3411   -9.9288 C   0  0  0  0  0  0  0  0  0  0  0  0
   25.5015  -20.4060   -9.0613 C   0  0  0  0  0  0  0  0  0  0  0  0
   26.1126  -19.4040   -9.5531 O   0  0  0  0  0  0  0  0  0  0  0  0
   25.5139  -20.6293   -7.6962 O   0  0  0  0  0  0  0  0  0  0  0  0
  2  9  1  0
  2  1  1  6
  2  3  1  0
  4  3  1  0
  4  8  1  0
  5  4  2  0
  6  5  1  0
  6  7  1  0
  7  8  2  0
  9 18  1  0
 10  9  2  0
 12 11  1  0
 13 12  2  0
 14 13  1  0
 15 21  1  0
 15 14  2  0
 16 15  1  0
 17 16  1  6
 18 17  1  0
 19 23  1  0
 19 17  1  0
 20 19  2  0
 21 22  2  0
 22 12  1  0
 24 23  1  0
 25 24  1  0
 26 25  2  0
 27 25  1  0
M  END
$$$$
