HYG.pdb
     RDKit          3D

 27 28  0  0  1  0  0  0  0  0999 V2000
   21.2866   -9.6292  -18.1215 N   0  0  0  0  0  0  0  0  0  0  0  0
   21.5294   -8.3733  -18.7865 C   0  0  1  0  0  0  0  0  0  0  0  0
   20.6905   -8.2900  -20.0385 C   0  0  0  0  0  0  0  0  0  0  0  0
   21.1522   -9.2439  -21.0643 C   0  0  0  0  0  0  0  0  0  0  0  0
   20.6353  -10.4892  -21.3414 C   0  0  0  0  0  0  0  0  0  0  0  0
   21.3353  -11.0585  -22.3561 N   0  0  0  0  0  0  0  0  0  0  0  0
   22.2879  -10.1716  -22.7132 C   0  0  0  0  0  0  0  0  0  0  0  0
   22.1695   -9.0750  -21.9251 N   0  0  0  0  0  0  0  0  0  0  0  0
   21.1842   -7.2894  -17.8216 C   0  0  0  0  0  0  0  0  0  0  0  0
   20.0863   -7.2888  -17.1855 O   0  0  0  0  0  0  0  0  0  0  0  0
   21.1260   -9.4635  -11.8438 O   0  0  0  0  0  0  0  0  0  0  0  0
   21.4370   -8.3848  -12.6911 C   0  0  0  0  0  0  0  0  0  0  0  0
   20.7375   -7.2144  -12.6735 C   0  0  0  0  0  0  0  0  0  0  0  0
   21.1028   -6.1920  -13.5403 C   0  0  0  0  0  0  0  0  0  0  0  0
   22.1500   -6.3040  -14.4282 C   0  0  0  0  0  0  0  0  0  0  0  0
   22.5273   -5.2219  -15.3532 C   0  0  0  0  0  0  0  0  0  0  0  0
   21.7438   -5.1384  -16.6101 C   0  0  2  0  0  0  0  0  0  0  0  0
   22.0495   -6.1952  -17.5502 N   0  0  0  0  0  0  0  0  0  0  0  0
   21.9960   -3.8492  -17.2900 C   0  0  0  0  0  0  0  0  0  0  0  0
   23.0199   -3.6256  -17.9975 O   0  0  0  0  0  0  0  0  0  0  0  0
   22.8445   -7.4923  -14.4316 C   0  0  0  0  0  0  0  0  0  0  0  0
   22.4904   -8.5262  -13.5686 C   0  0  0  0  0  0  0  0  0  0  0  0
   21.0836   -2.7615  -17.1866 N   0  0  0  0  0  0  0  0  0  0  0  0
   21.3070   -1.5126  -17.9262 C   0  0  0  0  0  0  0  0  0  0  0  0
   22.0832   -0.5657  -17.1158 C   0  0  0  0  0  0  0  0  0  0  0  0
   22.4314   -0.8597  -15.9277 O   0  0  0  0  0  0  0  0  0  0  0  0
   22.4326    0.6558  -17.6630 O   0  0  0  0  0  0  0  0  0  0  0  0
  2  9  1  0
  2  1  1  1
  2  3  1  0
  4  3  1  0
  4  8  1  0
  5  4  2  0
  6  5  1  0
  6  7  1  0
  7  8  2  0
  9 18  1  0
 10  9  2  0
 12 11  1  0
 13 12  2  0
 14 13  1  0
 15 21  1  0
 15 14  2  0
 16 15  1  0
 17 16  1  1
 18 17  1  0
 19 23  1  0
 19 17  1  0
 20 19  2  0
 21 22  2  0
 22 12  1  0
 24 23  1  0
 25 24  1  0
 26 25  2  0
 27 25  1  0
M  END
$$$$
