HYG.pdb
     RDKit          3D

 27 28  0  0  1  0  0  0  0  0999 V2000
   24.6665   -9.3792  -16.9166 N   0  0  0  0  0  0  0  0  0  0  0  0
   23.2397   -9.5863  -16.9231 C   0  0  1  0  0  0  0  0  0  0  0  0
   22.9078  -10.8638  -16.1910 C   0  0  0  0  0  0  0  0  0  0  0  0
   23.3098  -12.0525  -16.9661 C   0  0  0  0  0  0  0  0  0  0  0  0
   23.9055  -12.0796  -18.2067 C   0  0  0  0  0  0  0  0  0  0  0  0
   24.1186  -13.3669  -18.5827 N   0  0  0  0  0  0  0  0  0  0  0  0
   23.6573  -14.1434  -17.5797 C   0  0  0  0  0  0  0  0  0  0  0  0
   23.1690  -13.3385  -16.6044 N   0  0  0  0  0  0  0  0  0  0  0  0
   22.6189   -8.4000  -16.2658 C   0  0  0  0  0  0  0  0  0  0  0  0
   23.0835   -7.9164  -15.1886 O   0  0  0  0  0  0  0  0  0  0  0  0
   26.5600   -3.7082  -16.3722 O   0  0  0  0  0  0  0  0  0  0  0  0
   25.2047   -4.0824  -16.4124 C   0  0  0  0  0  0  0  0  0  0  0  0
   24.3364   -3.7992  -15.3999 C   0  0  0  0  0  0  0  0  0  0  0  0
   23.0110   -4.2008  -15.5100 C   0  0  0  0  0  0  0  0  0  0  0  0
   22.5248   -4.8800  -16.6054 C   0  0  0  0  0  0  0  0  0  0  0  0
   21.1215   -5.3136  -16.7136 C   0  0  0  0  0  0  0  0  0  0  0  0
   20.8043   -6.6403  -16.1304 C   0  0  2  0  0  0  0  0  0  0  0  0
   21.4782   -7.7362  -16.7929 N   0  0  0  0  0  0  0  0  0  0  0  0
   19.3501   -6.9009  -16.2031 C   0  0  0  0  0  0  0  0  0  0  0  0
   18.7711   -7.3218  -17.2455 O   0  0  0  0  0  0  0  0  0  0  0  0
   23.4156   -5.1568  -17.6173 C   0  0  0  0  0  0  0  0  0  0  0  0
   24.7472   -4.7607  -17.5217 C   0  0  0  0  0  0  0  0  0  0  0  0
   18.4984   -6.6894  -15.0823 N   0  0  0  0  0  0  0  0  0  0  0  0
   17.0429   -6.8473  -15.1967 C   0  0  0  0  0  0  0  0  0  0  0  0
   16.6519   -8.2355  -14.9214 C   0  0  0  0  0  0  0  0  0  0  0  0
   17.5329   -9.1404  -14.7657 O   0  0  0  0  0  0  0  0  0  0  0  0
   15.3074   -8.5484  -14.8329 O   0  0  0  0  0  0  0  0  0  0  0  0
  2  9  1  0
  2  1  1  1
  2  3  1  0
  4  3  1  0
  4  8  1  0
  5  4  2  0
  6  5  1  0
  6  7  1  0
  7  8  2  0
  9 18  1  0
 10  9  2  0
 12 11  1  0
 13 12  2  0
 14 13  1  0
 15 21  1  0
 15 14  2  0
 16 15  1  0
 17 16  1  6
 18 17  1  0
 19 23  1  0
 19 17  1  0
 20 19  2  0
 21 22  2  0
 22 12  1  0
 24 23  1  0
 25 24  1  0
 26 25  2  0
 27 25  1  0
M  END
$$$$
