HYG.pdb
     RDKit          3D

 27 28  0  0  1  0  0  0  0  0999 V2000
   27.5972  -23.0590  -16.2682 N   0  0  0  0  0  0  0  0  0  0  0  0
   26.7854  -21.9555  -16.7171 C   0  0  1  0  0  0  0  0  0  0  0  0
   26.3041  -22.2170  -18.1236 C   0  0  0  0  0  0  0  0  0  0  0  0
   27.4030  -22.1077  -19.1012 C   0  0  0  0  0  0  0  0  0  0  0  0
   27.9168  -23.1066  -19.8970 C   0  0  0  0  0  0  0  0  0  0  0  0
   28.9217  -22.6088  -20.6626 N   0  0  0  0  0  0  0  0  0  0  0  0
   29.0364  -21.3016  -20.3468 C   0  0  0  0  0  0  0  0  0  0  0  0
   28.1123  -21.0068  -19.3999 N   0  0  0  0  0  0  0  0  0  0  0  0
   25.6466  -21.8287  -15.7621 C   0  0  0  0  0  0  0  0  0  0  0  0
   25.2218  -22.8220  -15.0967 O   0  0  0  0  0  0  0  0  0  0  0  0
   27.3625  -21.3211   -9.1129 O   0  0  0  0  0  0  0  0  0  0  0  0
   26.6422  -20.8496  -10.2251 C   0  0  0  0  0  0  0  0  0  0  0  0
   27.2502  -20.4795  -11.3882 C   0  0  0  0  0  0  0  0  0  0  0  0
   26.4730  -20.0230  -12.4453 C   0  0  0  0  0  0  0  0  0  0  0  0
   25.1007  -19.9241  -12.3752 C   0  0  0  0  0  0  0  0  0  0  0  0
   24.2811  -19.4293  -13.4943 C   0  0  0  0  0  0  0  0  0  0  0  0
   23.9326  -20.4267  -14.5356 C   0  0  2  0  0  0  0  0  0  0  0  0
   24.9660  -20.6022  -15.5332 N   0  0  0  0  0  0  0  0  0  0  0  0
   22.6953  -20.0256  -15.2400 C   0  0  0  0  0  0  0  0  0  0  0  0
   22.6378  -19.0494  -16.0416 O   0  0  0  0  0  0  0  0  0  0  0  0
   24.5046  -20.3022  -11.1937 C   0  0  0  0  0  0  0  0  0  0  0  0
   25.2703  -20.7620  -10.1253 C   0  0  0  0  0  0  0  0  0  0  0  0
   21.4712  -20.7280  -15.0543 N   0  0  0  0  0  0  0  0  0  0  0  0
   20.2342  -20.2793  -15.7062 C   0  0  0  0  0  0  0  0  0  0  0  0
   19.4016  -19.5202  -14.7648 C   0  0  0  0  0  0  0  0  0  0  0  0
   19.8942  -18.5614  -14.0883 O   0  0  0  0  0  0  0  0  0  0  0  0
   18.0689  -19.8620  -14.6220 O   0  0  0  0  0  0  0  0  0  0  0  0
  2  9  1  0
  2  1  1  1
  2  3  1  0
  4  3  1  0
  4  8  1  0
  5  4  2  0
  6  5  1  0
  6  7  1  0
  7  8  2  0
  9 18  1  0
 10  9  2  0
 12 11  1  0
 13 12  2  0
 14 13  1  0
 15 21  1  0
 15 14  2  0
 16 15  1  0
 17 16  1  1
 18 17  1  0
 19 23  1  0
 19 17  1  0
 20 19  2  0
 21 22  2  0
 22 12  1  0
 24 23  1  0
 25 24  1  0
 26 25  2  0
 27 25  1  0
M  END
$$$$
