AKM.pdb
     RDKit          3D

 23 22  0  0  1  0  0  0  0  0999 V2000
   18.4671  -19.7295  -12.4210 C   0  0  0  0  0  0  0  0  0  0  0  0
   19.7428  -18.9852  -12.6620 C   0  0  2  0  0  0  0  0  0  0  0  0
   19.7863  -18.2785  -13.9025 N   0  0  0  0  0  0  0  0  0  0  0  0
   20.8665  -19.9834  -12.5550 C   0  0  0  0  0  0  0  0  0  0  0  0
   21.0485  -20.6433  -11.5016 O   0  0  0  0  0  0  0  0  0  0  0  0
   21.7634  -20.2237  -13.6269 N   0  0  0  0  0  0  0  0  0  0  0  0
   22.8687  -21.1442  -13.5201 C   0  0  1  0  0  0  0  0  0  0  0  0
   23.2989  -21.4504  -14.9656 C   0  0  0  0  0  0  0  0  0  0  0  0
   24.4857  -22.3545  -14.9949 C   0  0  0  0  0  0  0  0  0  0  0  0
   24.0356  -23.7899  -15.0066 C   0  0  0  0  0  0  0  0  0  0  0  0
   25.2169  -24.7108  -14.9840 C   0  0  0  0  0  0  0  0  0  0  0  0
   24.8153  -26.1043  -14.8628 N   0  0  0  0  0  0  0  0  0  0  0  0
   24.0530  -20.5280  -12.8699 C   0  0  0  0  0  0  0  0  0  0  0  0
   24.4264  -19.3801  -13.2545 O   0  0  0  0  0  0  0  0  0  0  0  0
   26.8800  -18.7825   -6.6499 C   0  0  0  0  0  0  0  0  0  0  0  0
   27.1388  -20.4252   -7.3548 S   0  0  0  0  0  0  0  0  0  0  0  0
   27.2458  -20.2880   -9.1453 C   0  0  0  0  0  0  0  0  0  0  0  0
   26.0108  -20.7945   -9.8373 C   0  0  0  0  0  0  0  0  0  0  0  0
   26.0300  -20.5569  -11.3312 C   0  0  2  0  0  0  0  0  0  0  0  0
   24.7908  -21.1442  -11.8465 N   0  0  0  0  0  0  0  0  0  0  0  0
   27.1925  -21.2339  -11.9912 C   0  0  0  0  0  0  0  0  0  0  0  0
   27.0771  -22.3813  -12.5212 O   0  0  0  0  0  0  0  0  0  0  0  0
   28.4420  -20.6418  -12.0536 O   0  0  0  0  0  0  0  0  0  0  0  0
  2  1  1  6
  2  3  1  0
  4  2  1  0
  5  4  2  0
  6  4  1  0
  7 13  1  0
  7  6  1  0
  7  8  1  6
  9  8  1  0
 10 11  1  0
 10  9  1  0
 11 12  1  0
 13 14  2  0
 16 17  1  0
 16 15  1  0
 17 18  1  0
 19 21  1  0
 19 18  1  1
 20 19  1  0
 20 13  1  0
 21 23  1  0
 22 21  2  0
M  END
$$$$
