AKM.pdb
     RDKit          3D

 23 22  0  0  1  0  0  0  0  0999 V2000
   23.7382  -16.6182  -16.1702 C   0  0  0  0  0  0  0  0  0  0  0  0
   24.3933  -16.5403  -14.8269 C   0  0  2  0  0  0  0  0  0  0  0  0
   25.4262  -15.5583  -14.7321 N   0  0  0  0  0  0  0  0  0  0  0  0
   24.9098  -17.9186  -14.5040 C   0  0  0  0  0  0  0  0  0  0  0  0
   24.1408  -18.9119  -14.4916 O   0  0  0  0  0  0  0  0  0  0  0  0
   26.2744  -18.1584  -14.2017 N   0  0  0  0  0  0  0  0  0  0  0  0
   26.7951  -19.4837  -13.9717 C   0  0  1  0  0  0  0  0  0  0  0  0
   28.2048  -19.4919  -14.5889 C   0  0  0  0  0  0  0  0  0  0  0  0
   28.2464  -20.3228  -15.8276 C   0  0  0  0  0  0  0  0  0  0  0  0
   28.7085  -21.7152  -15.4947 C   0  0  0  0  0  0  0  0  0  0  0  0
   28.7546  -22.5624  -16.7292 C   0  0  0  0  0  0  0  0  0  0  0  0
   29.1514  -23.9308  -16.4329 N   0  0  0  0  0  0  0  0  0  0  0  0
   26.9867  -19.7698  -12.5272 C   0  0  0  0  0  0  0  0  0  0  0  0
   28.0990  -19.4799  -11.9946 O   0  0  0  0  0  0  0  0  0  0  0  0
   27.7031  -19.1844   -5.4000 C   0  0  0  0  0  0  0  0  0  0  0  0
   27.3442  -18.6316   -7.0816 S   0  0  0  0  0  0  0  0  0  0  0  0
   26.8758  -20.0516   -8.0816 C   0  0  0  0  0  0  0  0  0  0  0  0
   26.7332  -19.7090   -9.5386 C   0  0  0  0  0  0  0  0  0  0  0  0
   26.3250  -20.8928  -10.3877 C   0  0  2  0  0  0  0  0  0  0  0  0
   26.0029  -20.3468  -11.7083 N   0  0  0  0  0  0  0  0  0  0  0  0
   25.1098  -21.5801   -9.8432 C   0  0  0  0  0  0  0  0  0  0  0  0
   23.9769  -21.4648  -10.4035 O   0  0  0  0  0  0  0  0  0  0  0  0
   25.1658  -22.3700   -8.7081 O   0  0  0  0  0  0  0  0  0  0  0  0
  2  1  1  6
  2  3  1  0
  4  2  1  0
  5  4  2  0
  6  4  1  0
  7 13  1  0
  7  6  1  0
  7  8  1  6
  9  8  1  0
 10 11  1  0
 10  9  1  0
 11 12  1  0
 13 14  2  0
 16 17  1  0
 16 15  1  0
 17 18  1  0
 19 21  1  0
 19 18  1  1
 20 19  1  0
 20 13  1  0
 21 23  1  0
 22 21  2  0
M  END
$$$$
