AKM.pdb
     RDKit          3D

 23 22  0  0  1  0  0  0  0  0999 V2000
   19.6687  -15.2574  -15.4760 C   0  0  0  0  0  0  0  0  0  0  0  0
   19.2737  -14.8527  -16.8616 C   0  0  2  0  0  0  0  0  0  0  0  0
   19.7404  -15.7312  -17.8866 N   0  0  0  0  0  0  0  0  0  0  0  0
   19.7696  -13.4455  -17.0717 C   0  0  0  0  0  0  0  0  0  0  0  0
   20.9896  -13.2095  -17.2564 O   0  0  0  0  0  0  0  0  0  0  0  0
   18.8924  -12.3312  -17.0710 N   0  0  0  0  0  0  0  0  0  0  0  0
   19.3489  -10.9863  -17.3221 C   0  0  1  0  0  0  0  0  0  0  0  0
   18.0767  -10.1293  -17.4463 C   0  0  0  0  0  0  0  0  0  0  0  0
   18.4077   -8.7248  -17.8263 C   0  0  0  0  0  0  0  0  0  0  0  0
   17.1420   -7.9353  -18.0208 C   0  0  0  0  0  0  0  0  0  0  0  0
   17.4534   -6.5602  -18.5269 C   0  0  0  0  0  0  0  0  0  0  0  0
   16.2658   -5.7208  -18.5808 N   0  0  0  0  0  0  0  0  0  0  0  0
   20.1020  -10.4241  -16.1724 C   0  0  0  0  0  0  0  0  0  0  0  0
   20.1637  -11.0975  -15.1011 O   0  0  0  0  0  0  0  0  0  0  0  0
   27.0523  -10.6056  -14.6356 C   0  0  0  0  0  0  0  0  0  0  0  0
   25.5232  -10.9261  -15.5419 S   0  0  0  0  0  0  0  0  0  0  0  0
   24.2853   -9.7147  -15.0563 C   0  0  0  0  0  0  0  0  0  0  0  0
   22.9760   -9.9105  -15.7691 C   0  0  0  0  0  0  0  0  0  0  0  0
   21.9214   -8.9076  -15.3560 C   0  0  2  0  0  0  0  0  0  0  0  0
   20.7554   -9.1816  -16.1994 N   0  0  0  0  0  0  0  0  0  0  0  0
   22.3659   -7.4967  -15.5956 C   0  0  0  0  0  0  0  0  0  0  0  0
   22.3322   -6.9793  -16.7540 O   0  0  0  0  0  0  0  0  0  0  0  0
   22.8322   -6.6946  -14.5685 O   0  0  0  0  0  0  0  0  0  0  0  0
  2  1  1  1
  2  3  1  0
  4  2  1  0
  5  4  2  0
  6  4  1  0
  7 13  1  0
  7  6  1  0
  7  8  1  1
  9  8  1  0
 10 11  1  0
 10  9  1  0
 11 12  1  0
 13 14  2  0
 16 17  1  0
 16 15  1  0
 17 18  1  0
 19 21  1  0
 19 18  1  6
 20 19  1  0
 20 13  1  0
 21 23  1  0
 22 21  2  0
M  END
$$$$
