AKM.pdb
     RDKit          3D

 23 22  0  0  1  0  0  0  0  0999 V2000
   21.1525  -15.3541  -19.7812 C   0  0  0  0  0  0  0  0  0  0  0  0
   21.9134  -14.7955  -18.6199 C   0  0  2  0  0  0  0  0  0  0  0  0
   21.6639  -15.4583  -17.3794 N   0  0  0  0  0  0  0  0  0  0  0  0
   21.5844  -13.3273  -18.5380 C   0  0  0  0  0  0  0  0  0  0  0  0
   22.3469  -12.4638  -19.0392 O   0  0  0  0  0  0  0  0  0  0  0  0
   20.4106  -12.8544  -17.8981 N   0  0  0  0  0  0  0  0  0  0  0  0
   20.1424  -11.4495  -17.7125 C   0  0  1  0  0  0  0  0  0  0  0  0
   18.6791  -11.3614  -17.2442 C   0  0  0  0  0  0  0  0  0  0  0  0
   18.2390   -9.9415  -17.1145 C   0  0  0  0  0  0  0  0  0  0  0  0
   16.8012   -9.8894  -16.6749 C   0  0  0  0  0  0  0  0  0  0  0  0
   16.3691   -8.4713  -16.4596 C   0  0  0  0  0  0  0  0  0  0  0  0
   14.9329   -8.3687  -16.2485 N   0  0  0  0  0  0  0  0  0  0  0  0
   20.9521  -10.8625  -16.6147 C   0  0  0  0  0  0  0  0  0  0  0  0
   21.4366  -11.6381  -15.7380 O   0  0  0  0  0  0  0  0  0  0  0  0
   26.4133  -11.3938  -14.1643 C   0  0  0  0  0  0  0  0  0  0  0  0
   26.1885  -10.1713  -15.4747 S   0  0  0  0  0  0  0  0  0  0  0  0
   24.7027   -9.2143  -15.1394 C   0  0  0  0  0  0  0  0  0  0  0  0
   23.5190   -9.6889  -15.9357 C   0  0  0  0  0  0  0  0  0  0  0  0
   22.2334   -8.9846  -15.5620 C   0  0  2  0  0  0  0  0  0  0  0  0
   21.2161   -9.4894  -16.4873 N   0  0  0  0  0  0  0  0  0  0  0  0
   22.3394   -7.4993  -15.7293 C   0  0  0  0  0  0  0  0  0  0  0  0
   21.9667   -6.9248  -16.7979 O   0  0  0  0  0  0  0  0  0  0  0  0
   22.8468   -6.6871  -14.7299 O   0  0  0  0  0  0  0  0  0  0  0  0
  2  1  1  6
  2  3  1  0
  4  2  1  0
  5  4  2  0
  6  4  1  0
  7 13  1  0
  7  6  1  0
  7  8  1  1
  9  8  1  0
 10 11  1  0
 10  9  1  0
 11 12  1  0
 13 14  2  0
 16 17  1  0
 16 15  1  0
 17 18  1  0
 19 21  1  0
 19 18  1  6
 20 19  1  0
 20 13  1  0
 21 23  1  0
 22 21  2  0
M  END
$$$$
