AKM.pdb
     RDKit          3D

 23 22  0  0  1  0  0  0  0  0999 V2000
   26.3850  -15.5575  -16.2398 C   0  0  0  0  0  0  0  0  0  0  0  0
   27.3258  -16.3961  -15.4329 C   0  0  2  0  0  0  0  0  0  0  0  0
   28.3312  -17.0581  -16.2019 N   0  0  0  0  0  0  0  0  0  0  0  0
   26.4893  -17.3783  -14.6544 C   0  0  0  0  0  0  0  0  0  0  0  0
   25.5094  -16.9939  -13.9688 O   0  0  0  0  0  0  0  0  0  0  0  0
   26.7649  -18.7694  -14.6580 N   0  0  0  0  0  0  0  0  0  0  0  0
   25.9776  -19.7167  -13.9076 C   0  0  1  0  0  0  0  0  0  0  0  0
   25.9750  -21.0108  -14.7402 C   0  0  0  0  0  0  0  0  0  0  0  0
   25.1911  -22.0855  -14.0641 C   0  0  0  0  0  0  0  0  0  0  0  0
   25.1998  -23.3323  -14.9058 C   0  0  0  0  0  0  0  0  0  0  0  0
   24.3278  -24.3852  -14.2936 C   0  0  0  0  0  0  0  0  0  0  0  0
   24.2336  -25.5680  -15.1363 N   0  0  0  0  0  0  0  0  0  0  0  0
   26.6105  -20.0729  -12.6123 C   0  0  0  0  0  0  0  0  0  0  0  0
   27.7776  -20.5657  -12.6237 O   0  0  0  0  0  0  0  0  0  0  0  0
   28.8032  -17.8167   -7.2923 C   0  0  0  0  0  0  0  0  0  0  0  0
   27.5103  -18.8624   -6.5873 S   0  0  0  0  0  0  0  0  0  0  0  0
   27.0584  -20.1279   -7.7832 C   0  0  0  0  0  0  0  0  0  0  0  0
   26.7480  -19.5560   -9.1387 C   0  0  0  0  0  0  0  0  0  0  0  0
   26.4415  -20.6169  -10.1726 C   0  0  2  0  0  0  0  0  0  0  0  0
   25.9902  -19.8958  -11.3652 N   0  0  0  0  0  0  0  0  0  0  0  0
   25.3460  -21.5359   -9.7244 C   0  0  0  0  0  0  0  0  0  0  0  0
   24.1303  -21.3039  -10.0056 O   0  0  0  0  0  0  0  0  0  0  0  0
   25.6076  -22.6767   -8.9855 O   0  0  0  0  0  0  0  0  0  0  0  0
  2  1  1  6
  2  3  1  0
  4  2  1  0
  5  4  2  0
  6  4  1  0
  7 13  1  0
  7  6  1  0
  7  8  1  6
  9  8  1  0
 10 11  1  0
 10  9  1  0
 11 12  1  0
 13 14  2  0
 16 17  1  0
 16 15  1  0
 17 18  1  0
 19 21  1  0
 19 18  1  1
 20 19  1  0
 20 13  1  0
 21 23  1  0
 22 21  2  0
M  END
$$$$
