AKM.pdb
     RDKit          3D

 23 22  0  0  1  0  0  0  0  0999 V2000
   16.1535  -22.1887  -12.2906 C   0  0  0  0  0  0  0  0  0  0  0  0
   17.0149  -22.0637  -11.0733 C   0  0  2  0  0  0  0  0  0  0  0  0
   18.3729  -21.7154  -11.3467 N   0  0  0  0  0  0  0  0  0  0  0  0
   16.9187  -23.3681  -10.3251 C   0  0  0  0  0  0  0  0  0  0  0  0
   15.8081  -23.8175   -9.9472 O   0  0  0  0  0  0  0  0  0  0  0  0
   18.0650  -24.1432  -10.0148 N   0  0  0  0  0  0  0  0  0  0  0  0
   17.9822  -25.4029   -9.3173 C   0  0  1  0  0  0  0  0  0  0  0  0
   19.1674  -26.2418   -9.8271 C   0  0  0  0  0  0  0  0  0  0  0  0
   19.1295  -27.6246   -9.2676 C   0  0  0  0  0  0  0  0  0  0  0  0
   20.2151  -28.4589   -9.8910 C   0  0  0  0  0  0  0  0  0  0  0  0
   20.1175  -29.8796   -9.4264 C   0  0  0  0  0  0  0  0  0  0  0  0
   21.1758  -30.7068   -9.9866 N   0  0  0  0  0  0  0  0  0  0  0  0
   18.1957  -25.2516   -7.8556 C   0  0  0  0  0  0  0  0  0  0  0  0
   19.0800  -24.4383   -7.4536 O   0  0  0  0  0  0  0  0  0  0  0  0
   14.5735  -25.4258   -0.9312 C   0  0  0  0  0  0  0  0  0  0  0  0
   14.5225  -25.7670   -2.7041 S   0  0  0  0  0  0  0  0  0  0  0  0
   16.1888  -25.6590   -3.3733 C   0  0  0  0  0  0  0  0  0  0  0  0
   16.2299  -25.8897   -4.8584 C   0  0  0  0  0  0  0  0  0  0  0  0
   17.5999  -25.6559   -5.4560 C   0  0  2  0  0  0  0  0  0  0  0  0
   17.4720  -25.9602   -6.8832 N   0  0  0  0  0  0  0  0  0  0  0  0
   18.6325  -26.5651   -4.8623 C   0  0  0  0  0  0  0  0  0  0  0  0
   18.8441  -27.7243   -5.3338 O   0  0  0  0  0  0  0  0  0  0  0  0
   19.4012  -26.1848   -3.7758 O   0  0  0  0  0  0  0  0  0  0  0  0
  2  1  1  6
  2  3  1  0
  4  2  1  0
  5  4  2  0
  6  4  1  0
  7 13  1  0
  7  6  1  0
  7  8  1  6
  9  8  1  0
 10 11  1  0
 10  9  1  0
 11 12  1  0
 13 14  2  0
 16 17  1  0
 16 15  1  0
 17 18  1  0
 19 21  1  0
 19 18  1  1
 20 19  1  0
 20 13  1  0
 21 23  1  0
 22 21  2  0
M  END
$$$$
