AKM.pdb
     RDKit          3D

 23 22  0  0  1  0  0  0  0  0999 V2000
   35.4749  -28.2006  -18.8433 C   0  0  0  0  0  0  0  0  0  0  0  0
   34.5215  -28.5992  -19.9258 C   0  0  2  0  0  0  0  0  0  0  0  0
   33.5201  -27.6231  -20.2165 N   0  0  0  0  0  0  0  0  0  0  0  0
   33.9095  -29.9140  -19.5168 C   0  0  0  0  0  0  0  0  0  0  0  0
   34.6294  -30.9088  -19.2518 O   0  0  0  0  0  0  0  0  0  0  0  0
   32.5062  -30.0900  -19.4123 N   0  0  0  0  0  0  0  0  0  0  0  0
   31.9099  -31.3458  -19.0280 C   0  0  1  0  0  0  0  0  0  0  0  0
   30.8088  -30.9924  -18.0127 C   0  0  0  0  0  0  0  0  0  0  0  0
   30.1223  -32.2194  -17.5129 C   0  0  0  0  0  0  0  0  0  0  0  0
   29.0487  -31.8406  -16.5295 C   0  0  0  0  0  0  0  0  0  0  0  0
   28.3419  -33.0622  -16.0274 C   0  0  0  0  0  0  0  0  0  0  0  0
   27.3454  -32.7354  -15.0183 N   0  0  0  0  0  0  0  0  0  0  0  0
   31.2150  -32.0085  -20.1607 C   0  0  0  0  0  0  0  0  0  0  0  0
   30.4617  -31.3095  -20.9016 O   0  0  0  0  0  0  0  0  0  0  0  0
   31.8231  -37.7416  -25.4164 C   0  0  0  0  0  0  0  0  0  0  0  0
   32.3415  -37.0699  -23.8219 S   0  0  0  0  0  0  0  0  0  0  0  0
   31.2274  -35.7375  -23.3533 C   0  0  0  0  0  0  0  0  0  0  0  0
   31.5268  -35.1896  -21.9855 C   0  0  0  0  0  0  0  0  0  0  0  0
   30.7123  -33.9599  -21.6493 C   0  0  2  0  0  0  0  0  0  0  0  0
   31.3423  -33.3735  -20.4640 N   0  0  0  0  0  0  0  0  0  0  0  0
   29.2916  -34.3024  -21.3177 C   0  0  0  0  0  0  0  0  0  0  0  0
   28.9582  -34.6932  -20.1572 O   0  0  0  0  0  0  0  0  0  0  0  0
   28.2803  -34.2089  -22.2580 O   0  0  0  0  0  0  0  0  0  0  0  0
  2  1  1  1
  2  3  1  0
  4  2  1  0
  5  4  2  0
  6  4  1  0
  7 13  1  0
  7  6  1  0
  7  8  1  1
  9  8  1  0
 10 11  1  0
 10  9  1  0
 11 12  1  0
 13 14  2  0
 16 17  1  0
 16 15  1  0
 17 18  1  0
 19 21  1  0
 19 18  1  1
 20 19  1  0
 20 13  1  0
 21 23  1  0
 22 21  2  0
M  END
$$$$
