AKM.pdb
     RDKit          3D

 23 22  0  0  1  0  0  0  0  0999 V2000
   28.8208  -18.4094  -14.5357 C   0  0  0  0  0  0  0  0  0  0  0  0
   27.5353  -19.1521  -14.7240 C   0  0  2  0  0  0  0  0  0  0  0  0
   26.7397  -18.6842  -15.8141 N   0  0  0  0  0  0  0  0  0  0  0  0
   26.7843  -19.0778  -13.4198 C   0  0  0  0  0  0  0  0  0  0  0  0
   26.6564  -17.9885  -12.8072 O   0  0  0  0  0  0  0  0  0  0  0  0
   26.1918  -20.2218  -12.8271 N   0  0  0  0  0  0  0  0  0  0  0  0
   25.3820  -20.1451  -11.6361 C   0  0  1  0  0  0  0  0  0  0  0  0
   24.1369  -21.0036  -11.9211 C   0  0  0  0  0  0  0  0  0  0  0  0
   23.0568  -20.1930  -12.5557 C   0  0  0  0  0  0  0  0  0  0  0  0
   22.4726  -20.9422  -13.7221 C   0  0  0  0  0  0  0  0  0  0  0  0
   21.4655  -20.0959  -14.4386 C   0  0  0  0  0  0  0  0  0  0  0  0
   20.8739  -20.7972  -15.5682 N   0  0  0  0  0  0  0  0  0  0  0  0
   26.0439  -20.7730  -10.4644 C   0  0  0  0  0  0  0  0  0  0  0  0
   26.7219  -21.8278  -10.6450 O   0  0  0  0  0  0  0  0  0  0  0  0
   28.4446  -17.8952   -5.3957 C   0  0  0  0  0  0  0  0  0  0  0  0
   28.8675  -19.6046   -4.9941 S   0  0  0  0  0  0  0  0  0  0  0  0
   27.7880  -20.7107   -5.9144 C   0  0  0  0  0  0  0  0  0  0  0  0
   27.3172  -20.1109   -7.2102 C   0  0  0  0  0  0  0  0  0  0  0  0
   26.4242  -21.0401   -8.0026 C   0  0  2  0  0  0  0  0  0  0  0  0
   25.9641  -20.2656   -9.1577 N   0  0  0  0  0  0  0  0  0  0  0  0
   25.2292  -21.4780   -7.2117 C   0  0  0  0  0  0  0  0  0  0  0  0
   24.0700  -21.0228   -7.4563 O   0  0  0  0  0  0  0  0  0  0  0  0
   25.3331  -22.3962   -6.1812 O   0  0  0  0  0  0  0  0  0  0  0  0
  2  1  1  1
  2  3  1  0
  4  2  1  0
  5  4  2  0
  6  4  1  0
  7 13  1  0
  7  6  1  0
  7  8  1  6
  9  8  1  0
 10 11  1  0
 10  9  1  0
 11 12  1  0
 13 14  2  0
 16 17  1  0
 16 15  1  0
 17 18  1  0
 19 21  1  0
 19 18  1  1
 20 19  1  0
 20 13  1  0
 21 23  1  0
 22 21  2  0
M  END
$$$$
