AKM.pdb
     RDKit          3D

 23 22  0  0  1  0  0  0  0  0999 V2000
   27.8105  -18.1220  -15.7561 C   0  0  0  0  0  0  0  0  0  0  0  0
   28.0212  -19.3403  -14.9129 C   0  0  2  0  0  0  0  0  0  0  0  0
   27.7647  -20.5735  -15.5864 N   0  0  0  0  0  0  0  0  0  0  0  0
   27.1554  -19.1885  -13.6889 C   0  0  0  0  0  0  0  0  0  0  0  0
   27.2011  -18.1466  -12.9885 O   0  0  0  0  0  0  0  0  0  0  0  0
   26.2569  -20.2037  -13.2730 N   0  0  0  0  0  0  0  0  0  0  0  0
   25.3506  -20.0290  -12.1646 C   0  0  1  0  0  0  0  0  0  0  0  0
   24.0978  -20.8509  -12.5153 C   0  0  0  0  0  0  0  0  0  0  0  0
   23.1552  -20.0626  -13.3618 C   0  0  0  0  0  0  0  0  0  0  0  0
   21.9007  -20.8561  -13.6063 C   0  0  0  0  0  0  0  0  0  0  0  0
   20.9194  -20.0540  -14.4048 C   0  0  0  0  0  0  0  0  0  0  0  0
   19.6930  -20.7953  -14.6588 N   0  0  0  0  0  0  0  0  0  0  0  0
   25.8791  -20.6177  -10.9079 C   0  0  0  0  0  0  0  0  0  0  0  0
   26.4594  -21.7425  -10.9630 O   0  0  0  0  0  0  0  0  0  0  0  0
   28.7215  -19.5880   -3.7169 C   0  0  0  0  0  0  0  0  0  0  0  0
   28.3041  -18.9115   -5.3388 S   0  0  0  0  0  0  0  0  0  0  0  0
   27.3304  -20.1197   -6.2487 C   0  0  0  0  0  0  0  0  0  0  0  0
   26.9896  -19.6572   -7.6381 C   0  0  0  0  0  0  0  0  0  0  0  0
   26.1954  -20.6777   -8.4233 C   0  0  2  0  0  0  0  0  0  0  0  0
   25.7746  -19.9993   -9.6516 N   0  0  0  0  0  0  0  0  0  0  0  0
   24.9739  -21.1283   -7.6815 C   0  0  0  0  0  0  0  0  0  0  0  0
   23.8145  -20.7314   -8.0116 O   0  0  0  0  0  0  0  0  0  0  0  0
   25.0525  -21.9953   -6.6054 O   0  0  0  0  0  0  0  0  0  0  0  0
  2  1  1  6
  2  3  1  0
  4  2  1  0
  5  4  2  0
  6  4  1  0
  7 13  1  0
  7  6  1  0
  7  8  1  6
  9  8  1  0
 10 11  1  0
 10  9  1  0
 11 12  1  0
 13 14  2  0
 16 17  1  0
 16 15  1  0
 17 18  1  0
 19 21  1  0
 19 18  1  1
 20 19  1  0
 20 13  1  0
 21 23  1  0
 22 21  2  0
M  END
$$$$
