AKM.pdb
     RDKit          3D

 23 22  0  0  1  0  0  0  0  0999 V2000
   24.9608  -15.4140  -16.0643 C   0  0  0  0  0  0  0  0  0  0  0  0
   25.9152  -15.9027  -15.0203 C   0  0  2  0  0  0  0  0  0  0  0  0
   27.2840  -15.9033  -15.4285 N   0  0  0  0  0  0  0  0  0  0  0  0
   25.4597  -17.2797  -14.6116 C   0  0  0  0  0  0  0  0  0  0  0  0
   24.2944  -17.4764  -14.1854 O   0  0  0  0  0  0  0  0  0  0  0  0
   26.3153  -18.4080  -14.6876 N   0  0  0  0  0  0  0  0  0  0  0  0
   25.8815  -19.7345  -14.3234 C   0  0  1  0  0  0  0  0  0  0  0  0
   26.6197  -20.6920  -15.2755 C   0  0  0  0  0  0  0  0  0  0  0  0
   26.2153  -22.1082  -15.0364 C   0  0  0  0  0  0  0  0  0  0  0  0
   26.9708  -23.0200  -15.9643 C   0  0  0  0  0  0  0  0  0  0  0  0
   26.5202  -24.4378  -15.7893 C   0  0  0  0  0  0  0  0  0  0  0  0
   27.2889  -25.3566  -16.6157 N   0  0  0  0  0  0  0  0  0  0  0  0
   26.3172  -20.1128  -12.9551 C   0  0  0  0  0  0  0  0  0  0  0  0
   27.5473  -20.0248  -12.6650 O   0  0  0  0  0  0  0  0  0  0  0  0
   27.9184  -18.8060   -6.0562 C   0  0  0  0  0  0  0  0  0  0  0  0
   27.4001  -18.4285   -7.7447 S   0  0  0  0  0  0  0  0  0  0  0  0
   26.7861  -19.9299   -8.5224 C   0  0  0  0  0  0  0  0  0  0  0  0
   26.4772  -19.7388   -9.9814 C   0  0  0  0  0  0  0  0  0  0  0  0
   25.9313  -20.9870  -10.6391 C   0  0  2  0  0  0  0  0  0  0  0  0
   25.4427  -20.5660  -11.9544 N   0  0  0  0  0  0  0  0  0  0  0  0
   24.7879  -21.5724   -9.8675 C   0  0  0  0  0  0  0  0  0  0  0  0
   23.5829  -21.3183  -10.1741 O   0  0  0  0  0  0  0  0  0  0  0  0
   24.9917  -22.4146   -8.7881 O   0  0  0  0  0  0  0  0  0  0  0  0
  2  1  1  6
  2  3  1  0
  4  2  1  0
  5  4  2  0
  6  4  1  0
  7 13  1  0
  7  6  1  0
  7  8  1  6
  9  8  1  0
 10 11  1  0
 10  9  1  0
 11 12  1  0
 13 14  2  0
 16 17  1  0
 16 15  1  0
 17 18  1  0
 19 21  1  0
 19 18  1  1
 20 19  1  0
 20 13  1  0
 21 23  1  0
 22 21  2  0
M  END
$$$$
