AKM.pdb
     RDKit          3D

 23 22  0  0  1  0  0  0  0  0999 V2000
   29.2747  -18.8371  -17.7991 C   0  0  0  0  0  0  0  0  0  0  0  0
   29.1031  -19.9467  -16.8097 C   0  0  2  0  0  0  0  0  0  0  0  0
   28.7454  -21.2020  -17.3897 N   0  0  0  0  0  0  0  0  0  0  0  0
   28.0781  -19.4904  -15.8039 C   0  0  0  0  0  0  0  0  0  0  0  0
   28.2384  -18.4285  -15.1520 O   0  0  0  0  0  0  0  0  0  0  0  0
   26.8955  -20.2298  -15.5473 N   0  0  0  0  0  0  0  0  0  0  0  0
   25.8955  -19.7887  -14.6061 C   0  0  1  0  0  0  0  0  0  0  0  0
   24.5384  -20.0794  -15.2709 C   0  0  0  0  0  0  0  0  0  0  0  0
   23.4072  -19.6507  -14.3974 C   0  0  0  0  0  0  0  0  0  0  0  0
   22.0971  -20.0162  -15.0402 C   0  0  0  0  0  0  0  0  0  0  0  0
   20.9505  -19.5716  -14.1848 C   0  0  0  0  0  0  0  0  0  0  0  0
   19.6742  -20.0423  -14.7022 N   0  0  0  0  0  0  0  0  0  0  0  0
   25.9098  -20.5879  -13.3546 C   0  0  0  0  0  0  0  0  0  0  0  0
   25.9830  -21.8496  -13.4424 O   0  0  0  0  0  0  0  0  0  0  0  0
   29.0185  -19.7215   -7.6965 C   0  0  0  0  0  0  0  0  0  0  0  0
   27.3003  -19.9049   -7.1708 S   0  0  0  0  0  0  0  0  0  0  0  0
   26.3855  -20.7878   -8.4434 C   0  0  0  0  0  0  0  0  0  0  0  0
   26.5569  -20.1761   -9.8062 C   0  0  0  0  0  0  0  0  0  0  0  0
   25.7288  -20.8613  -10.8708 C   0  0  2  0  0  0  0  0  0  0  0  0
   25.8465  -20.0269  -12.0690 N   0  0  0  0  0  0  0  0  0  0  0  0
   24.2830  -20.9478  -10.4865 C   0  0  0  0  0  0  0  0  0  0  0  0
   23.4329  -20.1074  -10.9130 O   0  0  0  0  0  0  0  0  0  0  0  0
   23.8086  -21.9445   -9.6515 O   0  0  0  0  0  0  0  0  0  0  0  0
  2  1  1  6
  2  3  1  0
  4  2  1  0
  5  4  2  0
  6  4  1  0
  7 13  1  0
  7  6  1  0
  7  8  1  6
  9  8  1  0
 10 11  1  0
 10  9  1  0
 11 12  1  0
 13 14  2  0
 16 17  1  0
 16 15  1  0
 17 18  1  0
 19 21  1  0
 19 18  1  1
 20 19  1  0
 20 13  1  0
 21 23  1  0
 22 21  2  0
M  END
$$$$
