AKM.pdb
     RDKit          3D

 23 22  0  0  1  0  0  0  0  0999 V2000
   16.6066  -14.6117  -14.1923 C   0  0  0  0  0  0  0  0  0  0  0  0
   15.7638  -13.4653  -13.7285 C   0  0  2  0  0  0  0  0  0  0  0  0
   14.5258  -13.3249  -14.4270 N   0  0  0  0  0  0  0  0  0  0  0  0
   16.6060  -12.2209  -13.8407 C   0  0  0  0  0  0  0  0  0  0  0  0
   17.6918  -12.1153  -13.2177 O   0  0  0  0  0  0  0  0  0  0  0  0
   16.2177  -11.1204  -14.6465 N   0  0  0  0  0  0  0  0  0  0  0  0
   16.9837   -9.9000  -14.7114 C   0  0  1  0  0  0  0  0  0  0  0  0
   16.8285   -9.3851  -16.1533 C   0  0  0  0  0  0  0  0  0  0  0  0
   17.6168  -10.2156  -17.1101 C   0  0  0  0  0  0  0  0  0  0  0  0
   17.4464   -9.6865  -18.5081 C   0  0  0  0  0  0  0  0  0  0  0  0
   18.2033  -10.5324  -19.4855 C   0  0  0  0  0  0  0  0  0  0  0  0
   17.9134  -10.1604  -20.8623 N   0  0  0  0  0  0  0  0  0  0  0  0
   16.4210   -8.8360  -13.8416 C   0  0  0  0  0  0  0  0  0  0  0  0
   15.2037   -8.9138  -13.4997 O   0  0  0  0  0  0  0  0  0  0  0  0
   15.2312   -6.2598   -7.2020 C   0  0  0  0  0  0  0  0  0  0  0  0
   15.7568   -7.4330   -8.4707 S   0  0  0  0  0  0  0  0  0  0  0  0
   15.9810   -6.5578  -10.0263 C   0  0  0  0  0  0  0  0  0  0  0  0
   16.3182   -7.4811  -11.1641 C   0  0  0  0  0  0  0  0  0  0  0  0
   16.5764   -6.7498  -12.4630 C   0  0  2  0  0  0  0  0  0  0  0  0
   17.1612   -7.7396  -13.3708 N   0  0  0  0  0  0  0  0  0  0  0  0
   17.5503   -5.6245  -12.2883 C   0  0  0  0  0  0  0  0  0  0  0  0
   18.7635   -5.7375  -12.6433 O   0  0  0  0  0  0  0  0  0  0  0  0
   17.1738   -4.4135  -11.7337 O   0  0  0  0  0  0  0  0  0  0  0  0
  2  1  1  6
  2  3  1  0
  4  2  1  0
  5  4  2  0
  6  4  1  0
  7 13  1  0
  7  6  1  0
  7  8  1  6
  9  8  1  0
 10 11  1  0
 10  9  1  0
 11 12  1  0
 13 14  2  0
 16 17  1  0
 16 15  1  0
 17 18  1  0
 19 21  1  0
 19 18  1  1
 20 19  1  0
 20 13  1  0
 21 23  1  0
 22 21  2  0
M  END
$$$$
