AKM.pdb
     RDKit          3D

 23 22  0  0  1  0  0  0  0  0999 V2000
   12.5406   -9.9063  -17.8353 C   0  0  0  0  0  0  0  0  0  0  0  0
   13.8401  -10.6103  -18.0698 C   0  0  2  0  0  0  0  0  0  0  0  0
   13.7804  -12.0274  -17.9012 N   0  0  0  0  0  0  0  0  0  0  0  0
   14.8560   -9.9864  -17.1482 C   0  0  0  0  0  0  0  0  0  0  0  0
   14.5473   -9.6473  -15.9787 O   0  0  0  0  0  0  0  0  0  0  0  0
   16.1954   -9.7544  -17.5523 N   0  0  0  0  0  0  0  0  0  0  0  0
   17.1917   -9.2170  -16.6586 C   0  0  1  0  0  0  0  0  0  0  0  0
   18.4961   -9.9636  -16.9889 C   0  0  0  0  0  0  0  0  0  0  0  0
   18.4156  -11.3964  -16.5800 C   0  0  0  0  0  0  0  0  0  0  0  0
   19.7487  -12.0629  -16.7848 C   0  0  0  0  0  0  0  0  0  0  0  0
   19.6643  -13.5202  -16.4489 C   0  0  0  0  0  0  0  0  0  0  0  0
   20.9120  -14.2143  -16.7304 N   0  0  0  0  0  0  0  0  0  0  0  0
   17.4707   -7.7829  -16.9244 C   0  0  0  0  0  0  0  0  0  0  0  0
   17.4884   -7.3817  -18.1259 O   0  0  0  0  0  0  0  0  0  0  0  0
   15.3041   -1.1654  -18.3816 C   0  0  0  0  0  0  0  0  0  0  0  0
   15.2374   -2.9544  -18.1428 S   0  0  0  0  0  0  0  0  0  0  0  0
   16.7030   -3.4843  -17.2445 C   0  0  0  0  0  0  0  0  0  0  0  0
   16.7229   -4.9672  -16.9967 C   0  0  0  0  0  0  0  0  0  0  0  0
   17.9450   -5.4228  -16.2302 C   0  0  2  0  0  0  0  0  0  0  0  0
   17.7184   -6.8359  -15.9177 N   0  0  0  0  0  0  0  0  0  0  0  0
   18.1144   -4.6686  -14.9465 C   0  0  0  0  0  0  0  0  0  0  0  0
   17.6875   -5.1321  -13.8448 O   0  0  0  0  0  0  0  0  0  0  0  0
   18.7421   -3.4358  -14.9022 O   0  0  0  0  0  0  0  0  0  0  0  0
  2  1  1  1
  2  3  1  0
  4  2  1  0
  5  4  2  0
  6  4  1  0
  7 13  1  0
  7  6  1  0
  7  8  1  6
  9  8  1  0
 10 11  1  0
 10  9  1  0
 11 12  1  0
 13 14  2  0
 16 17  1  0
 16 15  1  0
 17 18  1  0
 19 21  1  0
 19 18  1  1
 20 19  1  0
 20 13  1  0
 21 23  1  0
 22 21  2  0
M  END
$$$$
