AKM.pdb
     RDKit          3D

 23 22  0  0  1  0  0  0  0  0999 V2000
   24.3212  -16.5356  -21.1685 C   0  0  0  0  0  0  0  0  0  0  0  0
   24.0420  -15.9531  -19.8185 C   0  0  2  0  0  0  0  0  0  0  0  0
   24.9020  -14.8722  -19.4549 N   0  0  0  0  0  0  0  0  0  0  0  0
   24.1210  -17.0813  -18.8229 C   0  0  0  0  0  0  0  0  0  0  0  0
   23.4361  -18.1241  -18.9700 O   0  0  0  0  0  0  0  0  0  0  0  0
   24.9636  -17.0212  -17.6837 N   0  0  0  0  0  0  0  0  0  0  0  0
   25.0940  -18.1198  -16.7584 C   0  0  1  0  0  0  0  0  0  0  0  0
   26.2626  -17.7472  -15.8290 C   0  0  0  0  0  0  0  0  0  0  0  0
   26.7174  -18.9260  -15.0352 C   0  0  0  0  0  0  0  0  0  0  0  0
   26.9363  -20.1030  -15.9463 C   0  0  0  0  0  0  0  0  0  0  0  0
   27.3196  -21.3156  -15.1547 C   0  0  0  0  0  0  0  0  0  0  0  0
   27.5005  -22.4828  -16.0050 N   0  0  0  0  0  0  0  0  0  0  0  0
   23.9069  -18.2566  -15.8768 C   0  0  0  0  0  0  0  0  0  0  0  0
   23.5478  -17.2578  -15.1850 O   0  0  0  0  0  0  0  0  0  0  0  0
   18.6422  -18.3072  -17.6706 C   0  0  0  0  0  0  0  0  0  0  0  0
   18.0589  -19.1072  -16.1600 S   0  0  0  0  0  0  0  0  0  0  0  0
   19.4637  -19.4296  -15.0836 C   0  0  0  0  0  0  0  0  0  0  0  0
   20.7765  -19.3642  -15.8136 C   0  0  0  0  0  0  0  0  0  0  0  0
   21.9712  -19.5095  -14.8969 C   0  0  2  0  0  0  0  0  0  0  0  0
   23.1513  -19.4344  -15.7616 N   0  0  0  0  0  0  0  0  0  0  0  0
   21.9775  -20.8308  -14.1902 C   0  0  0  0  0  0  0  0  0  0  0  0
   22.5067  -21.8591  -14.7131 O   0  0  0  0  0  0  0  0  0  0  0  0
   21.4087  -20.9912  -12.9386 O   0  0  0  0  0  0  0  0  0  0  0  0
  2  1  1  6
  2  3  1  0
  4  2  1  0
  5  4  2  0
  6  4  1  0
  7 13  1  0
  7  6  1  0
  7  8  1  1
  9  8  1  0
 10 11  1  0
 10  9  1  0
 11 12  1  0
 13 14  2  0
 16 17  1  0
 16 15  1  0
 17 18  1  0
 19 21  1  0
 19 18  1  6
 20 19  1  0
 20 13  1  0
 21 23  1  0
 22 21  2  0
M  END
$$$$
