FLP.pdb
     RDKit          3D

 27 28  0  0  1  0  0  0  0  0999 V2000
   24.2633  -20.1520  -19.6629 N   0  0  0  0  0  0  0  0  0  0  0  0
   23.7719  -19.7566  -18.3795 C   0  0  1  0  0  0  0  0  0  0  0  0
   22.4608  -20.4678  -18.1182 C   0  0  0  0  0  0  0  0  0  0  0  0
   21.4011  -19.6785  -18.8065 C   0  0  0  0  0  0  0  0  0  0  0  0
   20.9956  -18.4909  -18.2642 C   0  0  0  0  0  0  0  0  0  0  0  0
   20.0017  -17.7810  -18.9375 C   0  0  0  0  0  0  0  0  0  0  0  0
   19.4687  -18.2859  -20.1041 C   0  0  0  0  0  0  0  0  0  0  0  0
   19.8919  -19.4871  -20.6353 C   0  0  0  0  0  0  0  0  0  0  0  0
   20.8757  -20.1996  -19.9779 C   0  0  0  0  0  0  0  0  0  0  0  0
   24.7704  -20.0103  -17.3083 C   0  0  0  0  0  0  0  0  0  0  0  0
   25.5091  -20.9907  -17.4237 O   0  0  0  0  0  0  0  0  0  0  0  0
   26.3792  -16.5900  -16.6679 C   0  0  0  0  0  0  0  0  0  0  0  0
   26.1034  -16.8860  -15.1691 C   0  0  2  0  0  0  0  0  0  0  0  0
   26.5531  -15.7070  -14.3689 C   0  0  0  0  0  0  0  0  0  0  0  0
   26.7135  -18.2001  -14.8177 C   0  0  0  0  0  0  0  0  0  0  0  0
   25.8213  -19.3697  -15.0986 C   0  0  2  0  0  0  0  0  0  0  0  0
   24.8948  -19.1667  -16.1723 N   0  0  0  0  0  0  0  0  0  0  0  0
   25.1087  -19.9113  -13.9415 C   0  0  0  0  0  0  0  0  0  0  0  0
   23.8260  -19.8141  -13.9778 O   0  0  0  0  0  0  0  0  0  0  0  0
   25.6517  -20.5292  -12.7921 N   0  0  0  0  0  0  0  0  0  0  0  0
   27.0984  -20.4925  -12.4924 C   0  0  0  0  0  0  0  0  0  0  0  0
   27.3335  -21.9248  -12.0647 C   0  0  0  0  0  0  0  0  0  0  0  0
   26.0572  -22.3818  -11.4445 C   0  0  0  0  0  0  0  0  0  0  0  0
   25.0883  -21.2434  -11.6792 C   0  0  1  0  0  0  0  0  0  0  0  0
   25.1131  -20.4097  -10.4136 C   0  0  0  0  0  0  0  0  0  0  0  0
   24.3836  -20.7204   -9.4358 O   0  0  0  0  0  0  0  0  0  0  0  0
   25.9076  -19.2972  -10.2613 O   0  0  0  0  0  0  0  0  0  0  0  0
  2 10  1  0
  2  1  1  6
  3  2  1  0
  4  3  1  0
  4  9  1  0
  5  4  2  0
  6  5  1  0
  6  7  2  0
  7  8  1  0
  8  9  2  0
 10 11  2  0
 13 14  1  1
 13 12  1  0
 15 13  1  0
 16 15  1  1
 17 16  1  0
 17 10  1  0
 18 19  2  0
 18 16  1  0
 20 18  1  0
 21 20  1  0
 22 21  1  0
 23 22  1  0
 23 24  1  0
 24 25  1  1
 24 20  1  0
 25 27  1  0
 26 25  2  0
M  END
$$$$
