FLP.pdb
     RDKit          3D

 27 28  0  0  1  0  0  0  0  0999 V2000
   27.7195  -21.6880  -11.9727 N   0  0  0  0  0  0  0  0  0  0  0  0
   26.3895  -21.4933  -12.4610 C   0  0  1  0  0  0  0  0  0  0  0  0
   25.9018  -20.1296  -12.0191 C   0  0  0  0  0  0  0  0  0  0  0  0
   25.8090  -20.1691  -10.5326 C   0  0  0  0  0  0  0  0  0  0  0  0
   26.5428  -19.2825   -9.7947 C   0  0  0  0  0  0  0  0  0  0  0  0
   26.4293  -19.3506   -8.4063 C   0  0  0  0  0  0  0  0  0  0  0  0
   25.5994  -20.2887   -7.8310 C   0  0  0  0  0  0  0  0  0  0  0  0
   24.8668  -21.1751   -8.5938 C   0  0  0  0  0  0  0  0  0  0  0  0
   24.9705  -21.1178   -9.9699 C   0  0  0  0  0  0  0  0  0  0  0  0
   26.3166  -21.6640  -13.9355 C   0  0  0  0  0  0  0  0  0  0  0  0
   26.8893  -20.8340  -14.6450 O   0  0  0  0  0  0  0  0  0  0  0  0
   28.0913  -24.5014  -16.7292 C   0  0  0  0  0  0  0  0  0  0  0  0
   26.9314  -25.1168  -15.9010 C   0  0  2  0  0  0  0  0  0  0  0  0
   26.9938  -26.6030  -16.0411 C   0  0  0  0  0  0  0  0  0  0  0  0
   25.6531  -24.4638  -16.3035 C   0  0  0  0  0  0  0  0  0  0  0  0
   25.5838  -23.0107  -15.9472 C   0  0  2  0  0  0  0  0  0  0  0  0
   25.6156  -22.7411  -14.5406 N   0  0  0  0  0  0  0  0  0  0  0  0
   24.4842  -22.2637  -16.5576 C   0  0  0  0  0  0  0  0  0  0  0  0
   23.4993  -21.9806  -15.7792 O   0  0  0  0  0  0  0  0  0  0  0  0
   24.3696  -21.8125  -17.8923 N   0  0  0  0  0  0  0  0  0  0  0  0
   25.4302  -22.0506  -18.8935 C   0  0  0  0  0  0  0  0  0  0  0  0
   25.4890  -20.6976  -19.5683 C   0  0  0  0  0  0  0  0  0  0  0  0
   24.1089  -20.1394  -19.4876 C   0  0  0  0  0  0  0  0  0  0  0  0
   23.3456  -21.1275  -18.6327 C   0  0  1  0  0  0  0  0  0  0  0  0
   22.6429  -22.0580  -19.6009 C   0  0  0  0  0  0  0  0  0  0  0  0
   21.5735  -21.7002  -20.1605 O   0  0  0  0  0  0  0  0  0  0  0  0
   23.1146  -23.3110  -19.9164 O   0  0  0  0  0  0  0  0  0  0  0  0
  2 10  1  0
  2  1  1  6
  3  2  1  0
  4  3  1  0
  4  9  1  0
  5  4  2  0
  6  5  1  0
  6  7  2  0
  7  8  1  0
  8  9  2  0
 10 11  2  0
 13 14  1  6
 13 12  1  0
 15 13  1  0
 16 15  1  1
 17 16  1  0
 17 10  1  0
 18 19  2  0
 18 16  1  0
 20 18  1  0
 21 20  1  0
 22 21  1  0
 23 22  1  0
 23 24  1  0
 24 25  1  6
 24 20  1  0
 25 27  1  0
 26 25  2  0
M  END
$$$$
