FLP.pdb
     RDKit          3D

 27 28  0  0  1  0  0  0  0  0999 V2000
   19.5261  -20.6346  -13.9296 N   0  0  0  0  0  0  0  0  0  0  0  0
   20.7666  -21.1800  -14.3864 C   0  0  1  0  0  0  0  0  0  0  0  0
   20.8055  -21.1059  -15.8983 C   0  0  0  0  0  0  0  0  0  0  0  0
   19.8532  -22.1350  -16.4019 C   0  0  0  0  0  0  0  0  0  0  0  0
   20.2087  -23.4541  -16.3519 C   0  0  0  0  0  0  0  0  0  0  0  0
   19.2907  -24.3876  -16.8326 C   0  0  0  0  0  0  0  0  0  0  0  0
   18.0786  -23.9629  -17.3331 C   0  0  0  0  0  0  0  0  0  0  0  0
   17.7387  -22.6262  -17.3749 C   0  0  0  0  0  0  0  0  0  0  0  0
   18.6392  -21.6919  -16.9018 C   0  0  0  0  0  0  0  0  0  0  0  0
   21.9290  -20.4964  -13.7616 C   0  0  0  0  0  0  0  0  0  0  0  0
   21.9649  -19.2645  -13.7955 O   0  0  0  0  0  0  0  0  0  0  0  0
   27.4108  -21.7377  -11.0131 C   0  0  0  0  0  0  0  0  0  0  0  0
   26.3335  -20.7320  -11.5010 C   0  0  2  0  0  0  0  0  0  0  0  0
   26.0753  -19.7532  -10.4019 C   0  0  0  0  0  0  0  0  0  0  0  0
   25.1549  -21.4947  -12.0028 C   0  0  0  0  0  0  0  0  0  0  0  0
   24.3270  -20.7355  -12.9934 C   0  0  2  0  0  0  0  0  0  0  0  0
   22.9838  -21.2130  -13.1360 N   0  0  0  0  0  0  0  0  0  0  0  0
   24.9240  -20.5699  -14.3186 C   0  0  0  0  0  0  0  0  0  0  0  0
   24.3566  -21.2195  -15.2737 O   0  0  0  0  0  0  0  0  0  0  0  0
   26.0422  -19.7849  -14.6809 N   0  0  0  0  0  0  0  0  0  0  0  0
   26.8579  -19.0722  -13.6755 C   0  0  0  0  0  0  0  0  0  0  0  0
   27.0431  -17.7354  -14.3599 C   0  0  0  0  0  0  0  0  0  0  0  0
   27.0394  -18.0205  -15.8232 C   0  0  0  0  0  0  0  0  0  0  0  0
   26.6975  -19.4910  -15.9260 C   0  0  1  0  0  0  0  0  0  0  0  0
   28.0224  -20.2180  -16.0421 C   0  0  0  0  0  0  0  0  0  0  0  0
   28.5250  -20.7837  -15.0360 O   0  0  0  0  0  0  0  0  0  0  0  0
   28.7348  -20.3003  -17.2158 O   0  0  0  0  0  0  0  0  0  0  0  0
  2 10  1  0
  2  1  1  1
  3  2  1  0
  4  3  1  0
  4  9  1  0
  5  4  2  0
  6  5  1  0
  6  7  2  0
  7  8  1  0
  8  9  2  0
 10 11  2  0
 13 14  1  1
 13 12  1  0
 15 13  1  0
 16 15  1  1
 17 16  1  0
 17 10  1  0
 18 19  2  0
 18 16  1  0
 20 18  1  0
 21 20  1  0
 22 21  1  0
 23 22  1  0
 23 24  1  0
 24 25  1  1
 24 20  1  0
 25 27  1  0
 26 25  2  0
M  END
$$$$
