FLP.pdb
     RDKit          3D

 27 28  0  0  1  0  0  0  0  0999 V2000
   21.8708  -20.5414  -17.7619 N   0  0  0  0  0  0  0  0  0  0  0  0
   22.1377  -19.6277  -16.6946 C   0  0  1  0  0  0  0  0  0  0  0  0
   20.8875  -19.4816  -15.8527 C   0  0  0  0  0  0  0  0  0  0  0  0
   19.9819  -18.5551  -16.5883 C   0  0  0  0  0  0  0  0  0  0  0  0
   20.3672  -17.2574  -16.7790 C   0  0  0  0  0  0  0  0  0  0  0  0
   19.4927  -16.4207  -17.4720 C   0  0  0  0  0  0  0  0  0  0  0  0
   18.2920  -16.9151  -17.9345 C   0  0  0  0  0  0  0  0  0  0  0  0
   17.9215  -18.2288  -17.7315 C   0  0  0  0  0  0  0  0  0  0  0  0
   18.7789  -19.0675  -17.0466 C   0  0  0  0  0  0  0  0  0  0  0  0
   23.3101  -20.0551  -15.8875 C   0  0  0  0  0  0  0  0  0  0  0  0
   23.3796  -21.2376  -15.5456 O   0  0  0  0  0  0  0  0  0  0  0  0
   27.8150  -20.1637  -16.3178 C   0  0  0  0  0  0  0  0  0  0  0  0
   27.2701  -18.7205  -16.1439 C   0  0  2  0  0  0  0  0  0  0  0  0
   28.3775  -17.7631  -16.4432 C   0  0  0  0  0  0  0  0  0  0  0  0
   26.6353  -18.6041  -14.8000 C   0  0  0  0  0  0  0  0  0  0  0  0
   25.4263  -19.4717  -14.6308 C   0  0  2  0  0  0  0  0  0  0  0  0
   24.3374  -19.1517  -15.5050 N   0  0  0  0  0  0  0  0  0  0  0  0
   24.9262  -19.5960  -13.2617 C   0  0  0  0  0  0  0  0  0  0  0  0
   23.8621  -18.9247  -12.9910 O   0  0  0  0  0  0  0  0  0  0  0  0
   25.4629  -20.3618  -12.2019 N   0  0  0  0  0  0  0  0  0  0  0  0
   26.7083  -21.1432  -12.3523 C   0  0  0  0  0  0  0  0  0  0  0  0
   26.3155  -22.4334  -11.6664 C   0  0  0  0  0  0  0  0  0  0  0  0
   25.3347  -22.0534  -10.6099 C   0  0  0  0  0  0  0  0  0  0  0  0
   25.0854  -20.5775  -10.8318 C   0  0  1  0  0  0  0  0  0  0  0  0
   26.0137  -19.8519   -9.8785 C   0  0  0  0  0  0  0  0  0  0  0  0
   27.1072  -19.3846  -10.2918 O   0  0  0  0  0  0  0  0  0  0  0  0
   25.7284  -19.6667   -8.5458 O   0  0  0  0  0  0  0  0  0  0  0  0
  2 10  1  0
  2  1  1  6
  3  2  1  0
  4  3  1  0
  4  9  1  0
  5  4  2  0
  6  5  1  0
  6  7  2  0
  7  8  1  0
  8  9  2  0
 10 11  2  0
 13 14  1  1
 13 12  1  0
 15 13  1  0
 16 15  1  1
 17 16  1  0
 17 10  1  0
 18 19  2  0
 18 16  1  0
 20 18  1  0
 21 20  1  0
 22 21  1  0
 23 22  1  0
 23 24  1  0
 24 25  1  1
 24 20  1  0
 25 27  1  0
 26 25  2  0
M  END
$$$$
