FLP.pdb
     RDKit          3D

 27 28  0  0  1  0  0  0  0  0999 V2000
   27.9394  -18.7833  -16.1800 N   0  0  0  0  0  0  0  0  0  0  0  0
   26.8871  -18.3441  -15.3170 C   0  0  1  0  0  0  0  0  0  0  0  0
   26.0000  -17.3821  -16.0790 C   0  0  0  0  0  0  0  0  0  0  0  0
   26.7382  -16.0903  -16.1581 C   0  0  0  0  0  0  0  0  0  0  0  0
   27.1743  -15.6447  -17.3747 C   0  0  0  0  0  0  0  0  0  0  0  0
   27.8614  -14.4315  -17.4081 C   0  0  0  0  0  0  0  0  0  0  0  0
   28.0761  -13.7323  -16.2398 C   0  0  0  0  0  0  0  0  0  0  0  0
   27.6276  -14.1994  -15.0213 C   0  0  0  0  0  0  0  0  0  0  0  0
   26.9458  -15.3997  -14.9750 C   0  0  0  0  0  0  0  0  0  0  0  0
   26.1221  -19.4895  -14.7588 C   0  0  0  0  0  0  0  0  0  0  0  0
   25.8957  -20.4511  -15.4964 O   0  0  0  0  0  0  0  0  0  0  0  0
   26.8410  -21.8227  -11.1641 C   0  0  0  0  0  0  0  0  0  0  0  0
   26.0882  -20.5265  -10.7599 C   0  0  2  0  0  0  0  0  0  0  0  0
   26.1391  -20.4006   -9.2720 C   0  0  0  0  0  0  0  0  0  0  0  0
   24.7326  -20.5438  -11.3800 C   0  0  0  0  0  0  0  0  0  0  0  0
   24.7569  -20.4847  -12.8764 C   0  0  2  0  0  0  0  0  0  0  0  0
   25.6517  -19.5061  -13.4185 N   0  0  0  0  0  0  0  0  0  0  0  0
   23.4512  -20.3565  -13.5234 C   0  0  0  0  0  0  0  0  0  0  0  0
   23.1500  -19.1799  -13.9488 O   0  0  0  0  0  0  0  0  0  0  0  0
   22.4822  -21.3621  -13.7419 N   0  0  0  0  0  0  0  0  0  0  0  0
   22.6279  -22.7242  -13.1875 C   0  0  0  0  0  0  0  0  0  0  0  0
   22.2102  -23.5589  -14.3784 C   0  0  0  0  0  0  0  0  0  0  0  0
   21.2146  -22.7379  -15.1249 C   0  0  0  0  0  0  0  0  0  0  0  0
   21.2142  -21.4001  -14.4178 C   0  0  1  0  0  0  0  0  0  0  0  0
   20.0616  -21.4505  -13.4349 C   0  0  0  0  0  0  0  0  0  0  0  0
   20.2715  -21.7335  -12.2263 O   0  0  0  0  0  0  0  0  0  0  0  0
   18.7571  -21.1998  -13.7919 O   0  0  0  0  0  0  0  0  0  0  0  0
  2 10  1  0
  2  1  1  6
  3  2  1  0
  4  3  1  0
  4  9  1  0
  5  4  2  0
  6  5  1  0
  6  7  2  0
  7  8  1  0
  8  9  2  0
 10 11  2  0
 13 14  1  1
 13 12  1  0
 15 13  1  0
 16 15  1  1
 17 16  1  0
 17 10  1  0
 18 19  2  0
 18 16  1  0
 20 18  1  0
 21 20  1  0
 22 21  1  0
 23 22  1  0
 23 24  1  0
 24 25  1  1
 24 20  1  0
 25 27  1  0
 26 25  2  0
M  END
$$$$
