FLP.pdb
     RDKit          3D

 27 28  0  0  1  0  0  0  0  0999 V2000
   17.9337  -11.6993  -18.3209 N   0  0  0  0  0  0  0  0  0  0  0  0
   19.0132  -10.7621  -18.3577 C   0  0  1  0  0  0  0  0  0  0  0  0
   18.8060   -9.8242  -19.5283 C   0  0  0  0  0  0  0  0  0  0  0  0
   19.1925  -10.5777  -20.7541 C   0  0  0  0  0  0  0  0  0  0  0  0
   20.5171  -10.7938  -21.0143 C   0  0  0  0  0  0  0  0  0  0  0  0
   20.8392  -11.5031  -22.1712 C   0  0  0  0  0  0  0  0  0  0  0  0
   19.8354  -11.9556  -23.0003 C   0  0  0  0  0  0  0  0  0  0  0  0
   18.5038  -11.7269  -22.7197 C   0  0  0  0  0  0  0  0  0  0  0  0
   18.1718  -11.0258  -21.5770 C   0  0  0  0  0  0  0  0  0  0  0  0
   19.1483  -10.0309  -17.0708 C   0  0  0  0  0  0  0  0  0  0  0  0
   18.1189   -9.6568  -16.5049 O   0  0  0  0  0  0  0  0  0  0  0  0
   22.9364   -9.7409  -12.2744 C   0  0  0  0  0  0  0  0  0  0  0  0
   21.6829   -9.1424  -12.9677 C   0  0  2  0  0  0  0  0  0  0  0  0
   20.5563   -9.1516  -11.9863 C   0  0  0  0  0  0  0  0  0  0  0  0
   21.4524   -9.8639  -14.2517 C   0  0  0  0  0  0  0  0  0  0  0  0
   20.6058   -9.1019  -15.2242 C   0  0  2  0  0  0  0  0  0  0  0  0
   20.4123   -9.7556  -16.4841 N   0  0  0  0  0  0  0  0  0  0  0  0
   21.0063   -7.7142  -15.4563 C   0  0  0  0  0  0  0  0  0  0  0  0
   21.9426   -7.5388  -16.3217 O   0  0  0  0  0  0  0  0  0  0  0  0
   20.4927   -6.5441  -14.8523 N   0  0  0  0  0  0  0  0  0  0  0  0
   19.3745   -6.5869  -13.8870 C   0  0  0  0  0  0  0  0  0  0  0  0
   18.5426   -5.4181  -14.3681 C   0  0  0  0  0  0  0  0  0  0  0  0
   19.5074   -4.4387  -14.9447 C   0  0  0  0  0  0  0  0  0  0  0  0
   20.8419   -5.1511  -14.9120 C   0  0  1  0  0  0  0  0  0  0  0  0
   21.5251   -4.6942  -13.6385 C   0  0  0  0  0  0  0  0  0  0  0  0
   21.4113   -5.3684  -12.5815 O   0  0  0  0  0  0  0  0  0  0  0  0
   22.2858   -3.5508  -13.5617 O   0  0  0  0  0  0  0  0  0  0  0  0
  2 10  1  0
  2  1  1  1
  3  2  1  0
  4  3  1  0
  4  9  1  0
  5  4  2  0
  6  5  1  0
  6  7  2  0
  7  8  1  0
  8  9  2  0
 10 11  2  0
 13 14  1  1
 13 12  1  0
 15 13  1  0
 16 15  1  6
 17 16  1  0
 17 10  1  0
 18 19  2  0
 18 16  1  0
 20 18  1  0
 21 20  1  0
 22 21  1  0
 23 22  1  0
 23 24  1  0
 24 25  1  1
 24 20  1  0
 25 27  1  0
 26 25  2  0
M  END
$$$$
