FLP.pdb
     RDKit          3D

 27 28  0  0  1  0  0  0  0  0999 V2000
   27.1309  -18.0741  -18.1895 N   0  0  0  0  0  0  0  0  0  0  0  0
   26.2131  -17.8546  -17.1150 C   0  0  1  0  0  0  0  0  0  0  0  0
   24.8772  -17.4353  -17.6917 C   0  0  0  0  0  0  0  0  0  0  0  0
   24.9471  -15.9626  -17.9066 C   0  0  0  0  0  0  0  0  0  0  0  0
   24.5962  -15.1224  -16.8869 C   0  0  0  0  0  0  0  0  0  0  0  0
   24.6747  -13.7507  -17.1263 C   0  0  0  0  0  0  0  0  0  0  0  0
   25.0943  -13.2918  -18.3565 C   0  0  0  0  0  0  0  0  0  0  0  0
   25.4442  -14.1568  -19.3731 C   0  0  0  0  0  0  0  0  0  0  0  0
   25.3707  -15.5176  -19.1485 C   0  0  0  0  0  0  0  0  0  0  0  0
   26.0957  -19.0512  -16.2414 C   0  0  0  0  0  0  0  0  0  0  0  0
   25.7468  -20.1150  -16.7578 O   0  0  0  0  0  0  0  0  0  0  0  0
   24.9536  -20.5725  -11.1331 C   0  0  0  0  0  0  0  0  0  0  0  0
   26.3679  -20.9853  -11.6225 C   0  0  2  0  0  0  0  0  0  0  0  0
   27.2429  -21.1664  -10.4251 C   0  0  0  0  0  0  0  0  0  0  0  0
   26.8309  -20.0009  -12.6419 C   0  0  0  0  0  0  0  0  0  0  0  0
   26.0377  -20.0348  -13.9119 C   0  0  2  0  0  0  0  0  0  0  0  0
   26.3705  -19.0032  -14.8486 N   0  0  0  0  0  0  0  0  0  0  0  0
   24.5852  -20.0872  -13.7467 C   0  0  0  0  0  0  0  0  0  0  0  0
   23.9974  -18.9524  -13.5954 O   0  0  0  0  0  0  0  0  0  0  0  0
   23.7479  -21.2259  -13.7353 N   0  0  0  0  0  0  0  0  0  0  0  0
   24.2878  -22.5939  -13.5891 C   0  0  0  0  0  0  0  0  0  0  0  0
   23.4773  -23.3294  -14.6338 C   0  0  0  0  0  0  0  0  0  0  0  0
   22.1629  -22.6291  -14.7003 C   0  0  0  0  0  0  0  0  0  0  0  0
   22.3257  -21.4231  -13.8010 C   0  0  1  0  0  0  0  0  0  0  0  0
   21.7581  -21.8291  -12.4555 C   0  0  0  0  0  0  0  0  0  0  0  0
   22.5129  -22.3028  -11.5663 O   0  0  0  0  0  0  0  0  0  0  0  0
   20.4259  -21.7103  -12.1344 O   0  0  0  0  0  0  0  0  0  0  0  0
  2 10  1  0
  2  1  1  6
  3  2  1  0
  4  3  1  0
  4  9  1  0
  5  4  2  0
  6  5  1  0
  6  7  2  0
  7  8  1  0
  8  9  2  0
 10 11  2  0
 13 14  1  1
 13 12  1  0
 15 13  1  0
 16 15  1  1
 17 16  1  0
 17 10  1  0
 18 19  2  0
 18 16  1  0
 20 18  1  0
 21 20  1  0
 22 21  1  0
 23 22  1  0
 23 24  1  0
 24 25  1  1
 24 20  1  0
 25 27  1  0
 26 25  2  0
M  END
$$$$
