FLP.pdb
     RDKit          3D

 27 28  0  0  1  0  0  0  0  0999 V2000
   24.6579  -20.3618  -10.4119 N   0  0  0  0  0  0  0  0  0  0  0  0
   26.0388  -20.4512  -10.0510 C   0  0  1  0  0  0  0  0  0  0  0  0
   26.7984  -19.3418  -10.7476 C   0  0  0  0  0  0  0  0  0  0  0  0
   26.9629  -19.7617  -12.1675 C   0  0  0  0  0  0  0  0  0  0  0  0
   26.4104  -18.9975  -13.1573 C   0  0  0  0  0  0  0  0  0  0  0  0
   26.5858  -19.4232  -14.4738 C   0  0  0  0  0  0  0  0  0  0  0  0
   27.2952  -20.5762  -14.7334 C   0  0  0  0  0  0  0  0  0  0  0  0
   27.8452  -21.3338  -13.7196 C   0  0  0  0  0  0  0  0  0  0  0  0
   27.6785  -20.9229  -12.4116 C   0  0  0  0  0  0  0  0  0  0  0  0
   26.2233  -20.4169   -8.5767 C   0  0  0  0  0  0  0  0  0  0  0  0
   25.4738  -19.6959   -7.9145 O   0  0  0  0  0  0  0  0  0  0  0  0
   30.3053  -20.5456   -5.1887 C   0  0  0  0  0  0  0  0  0  0  0  0
   29.2932  -21.6581   -4.8040 C   0  0  2  0  0  0  0  0  0  0  0  0
   30.0378  -22.7444   -4.0983 C   0  0  0  0  0  0  0  0  0  0  0  0
   28.5303  -22.0568   -6.0212 C   0  0  0  0  0  0  0  0  0  0  0  0
   27.6725  -20.9620   -6.5766 C   0  0  2  0  0  0  0  0  0  0  0  0
   27.2246  -21.1807   -7.9197 N   0  0  0  0  0  0  0  0  0  0  0  0
   28.2232  -19.6114   -6.4648 C   0  0  0  0  0  0  0  0  0  0  0  0
   28.8624  -19.1801   -7.4952 O   0  0  0  0  0  0  0  0  0  0  0  0
   28.1389  -18.7216   -5.3699 N   0  0  0  0  0  0  0  0  0  0  0  0
   27.4616  -19.0921   -4.1096 C   0  0  0  0  0  0  0  0  0  0  0  0
   26.6844  -17.8255   -3.8250 C   0  0  0  0  0  0  0  0  0  0  0  0
   27.4958  -16.7108   -4.3923 C   0  0  0  0  0  0  0  0  0  0  0  0
   28.6337  -17.3959   -5.1171 C   0  0  1  0  0  0  0  0  0  0  0  0
   29.7956  -17.4125   -4.1439 C   0  0  0  0  0  0  0  0  0  0  0  0
   30.0598  -18.4555   -3.4904 O   0  0  0  0  0  0  0  0  0  0  0  0
   30.6056  -16.3233   -3.9211 O   0  0  0  0  0  0  0  0  0  0  0  0
  2 10  1  0
  2  1  1  1
  3  2  1  0
  4  3  1  0
  4  9  1  0
  5  4  2  0
  6  5  1  0
  6  7  2  0
  7  8  1  0
  8  9  2  0
 10 11  2  0
 13 14  1  6
 13 12  1  0
 15 13  1  0
 16 15  1  6
 17 16  1  0
 17 10  1  0
 18 19  2  0
 18 16  1  0
 20 18  1  0
 21 20  1  0
 22 21  1  0
 23 22  1  0
 23 24  1  0
 24 25  1  1
 24 20  1  0
 25 27  1  0
 26 25  2  0
M  END
$$$$
