FLP.pdb
     RDKit          3D

 27 28  0  0  1  0  0  0  0  0999 V2000
   25.4665  -20.7044   -8.1713 N   0  0  0  0  0  0  0  0  0  0  0  0
   26.6873  -20.0926   -8.5961 C   0  0  1  0  0  0  0  0  0  0  0  0
   27.8371  -20.7154   -7.8325 C   0  0  0  0  0  0  0  0  0  0  0  0
   27.9267  -19.9954   -6.5312 C   0  0  0  0  0  0  0  0  0  0  0  0
   27.7862  -20.6999   -5.3681 C   0  0  0  0  0  0  0  0  0  0  0  0
   27.8762  -19.9910   -4.1705 C   0  0  0  0  0  0  0  0  0  0  0  0
   28.0992  -18.6310   -4.1933 C   0  0  0  0  0  0  0  0  0  0  0  0
   28.2383  -17.9380   -5.3785 C   0  0  0  0  0  0  0  0  0  0  0  0
   28.1512  -18.6287   -6.5714 C   0  0  0  0  0  0  0  0  0  0  0  0
   26.8697  -20.1969  -10.0674 C   0  0  0  0  0  0  0  0  0  0  0  0
   27.9408  -19.8202  -10.5477 O   0  0  0  0  0  0  0  0  0  0  0  0
   24.9736  -23.4512  -14.8650 C   0  0  0  0  0  0  0  0  0  0  0  0
   25.8767  -22.2911  -14.3663 C   0  0  2  0  0  0  0  0  0  0  0  0
   27.2466  -22.4897  -14.9288 C   0  0  0  0  0  0  0  0  0  0  0  0
   25.7734  -22.2047  -12.8816 C   0  0  0  0  0  0  0  0  0  0  0  0
   25.9669  -20.8192  -12.3467 C   0  0  2  0  0  0  0  0  0  0  0  0
   25.8585  -20.7109  -10.9223 N   0  0  0  0  0  0  0  0  0  0  0  0
   25.1486  -19.7813  -12.9737 C   0  0  0  0  0  0  0  0  0  0  0  0
   23.9655  -19.6322  -12.4897 O   0  0  0  0  0  0  0  0  0  0  0  0
   25.4951  -18.9217  -14.0409 N   0  0  0  0  0  0  0  0  0  0  0  0
   26.8026  -19.0089  -14.7242 C   0  0  0  0  0  0  0  0  0  0  0  0
   27.1594  -17.5428  -14.8370 C   0  0  0  0  0  0  0  0  0  0  0  0
   25.8642  -16.8139  -14.9536 C   0  0  0  0  0  0  0  0  0  0  0  0
   24.8069  -17.8766  -14.7481 C   0  0  1  0  0  0  0  0  0  0  0  0
   24.3927  -18.3239  -16.1358 C   0  0  0  0  0  0  0  0  0  0  0  0
   24.8803  -19.3713  -16.6357 O   0  0  0  0  0  0  0  0  0  0  0  0
   23.4888  -17.6340  -16.9098 O   0  0  0  0  0  0  0  0  0  0  0  0
  2 10  1  0
  2  1  1  1
  3  2  1  0
  4  3  1  0
  4  9  1  0
  5  4  2  0
  6  5  1  0
  6  7  2  0
  7  8  1  0
  8  9  2  0
 10 11  2  0
 13 14  1  1
 13 12  1  0
 15 13  1  0
 16 15  1  6
 17 16  1  0
 17 10  1  0
 18 19  2  0
 18 16  1  0
 20 18  1  0
 21 20  1  0
 22 21  1  0
 23 22  1  0
 23 24  1  0
 24 25  1  6
 24 20  1  0
 25 27  1  0
 26 25  2  0
M  END
$$$$
