DRV.pdb
     RDKit          3D

 27 26  0  0  1  0  0  0  0  0999 V2000
    6.1284  -16.4312   19.5245 N   0  0  0  0  0  0  0  0  0  0  0  0
    7.3342  -16.1507   20.2764 C   0  0  1  0  0  0  0  0  0  0  0  0
    7.9283  -14.8807   19.7488 C   0  0  0  0  0  0  0  0  0  0  0  0
    8.5021  -15.1435   18.4094 C   0  0  0  0  0  0  0  0  0  0  0  0
    8.6908  -16.3180   18.0324 O   0  0  0  0  0  0  0  0  0  0  0  0
    7.0264  -16.1225   21.7019 C   0  0  0  0  0  0  0  0  0  0  0  0
    5.9941  -15.5253   22.0931 O   0  0  0  0  0  0  0  0  0  0  0  0
    8.8448  -14.1175   17.5397 O   0  0  0  0  0  0  0  0  0  0  0  0
    6.1743  -21.4632   28.1303 N   0  0  0  0  0  0  0  0  0  0  0  0
    6.4278  -21.4808   26.7434 C   0  0  0  0  0  0  0  0  0  0  0  0
    5.9187  -22.4337   26.0223 N   0  0  0  0  0  0  0  0  0  0  0  0
    7.2154  -20.5093   26.0756 N   0  0  0  0  0  0  0  0  0  0  0  0
    7.8228  -19.4071   26.8175 C   0  0  0  0  0  0  0  0  0  0  0  0
    7.4537  -18.0770   26.2082 C   0  0  0  0  0  0  0  0  0  0  0  0
    7.6907  -18.0622   24.7301 C   0  0  0  0  0  0  0  0  0  0  0  0
    7.4630  -16.7087   24.1139 C   0  0  2  0  0  0  0  0  0  0  0  0
    7.8222  -16.7329   22.7100 N   0  0  0  0  0  0  0  0  0  0  0  0
    8.1978  -15.6460   24.8466 C   0  0  0  0  0  0  0  0  0  0  0  0
    9.4735  -15.5921   24.8380 O   0  0  0  0  0  0  0  0  0  0  0  0
    6.1481  -22.5649   25.0158 C   0  0  0  0  0  0  0  0  0  0  0  0
    6.0906  -12.7319   27.1791 C   0  0  1  0  0  0  0  0  0  0  0  0
    7.2654  -12.3619   26.3347 C   0  0  0  0  0  0  0  0  0  0  0  0
    6.9179  -11.8491   24.9825 C   0  0  1  0  0  0  0  0  0  0  0  0
    8.1915  -13.5765   26.2845 N   0  0  0  0  0  0  0  0  0  0  0  0
    7.5421  -14.6413   25.5891 C   0  0  0  0  0  0  0  0  0  0  0  0
    8.7170  -13.9425   27.5977 O   0  0  0  0  0  0  0  0  0  0  0  0
    8.3085  -14.9836   28.1686 O   0  0  0  0  0  0  0  0  0  0  0  0
  2  1  1  6
  2  3  1  0
  4  3  1  0
  4  5  2  0
  6  2  1  0
  7  6  2  0
  8  4  1  0
  9 10  1  0
 10 11  2  0
 10 12  1  0
 12 13  1  0
 13 14  1  0
 16 15  1  1
 15 14  1  0
 16 17  1  0
 17  6  1  0
 18 19  2  0
 18 16  1  0
 21 20  1  1
 21 23  1  0
 22 21  1  0
 23 24  1  6
 24 18  1  0
 25 23  1  0
 26 25  2  0
 27 25  1  0
M  END
$$$$
