DRV.pdb
     RDKit          3D

 27 26  0  0  1  0  0  0  0  0999 V2000
   11.5230  -18.0259   21.3294 N   0  0  0  0  0  0  0  0  0  0  0  0
   12.1524  -17.1113   22.2597 C   0  0  1  0  0  0  0  0  0  0  0  0
   13.4059  -16.5904   21.6260 C   0  0  0  0  0  0  0  0  0  0  0  0
   14.4966  -17.5651   21.8559 C   0  0  0  0  0  0  0  0  0  0  0  0
   14.3218  -18.7705   21.5849 O   0  0  0  0  0  0  0  0  0  0  0  0
   11.2009  -16.0761   22.6475 C   0  0  0  0  0  0  0  0  0  0  0  0
   11.6005  -15.1039   23.3335 O   0  0  0  0  0  0  0  0  0  0  0  0
   15.7286  -17.1854   22.3703 O   0  0  0  0  0  0  0  0  0  0  0  0
    8.0606  -12.3394   18.5899 N   0  0  0  0  0  0  0  0  0  0  0  0
    7.9025  -13.5383   17.8649 C   0  0  0  0  0  0  0  0  0  0  0  0
    8.6236  -13.7310   16.8018 N   0  0  0  0  0  0  0  0  0  0  0  0
    6.9924  -14.5629   18.2282 N   0  0  0  0  0  0  0  0  0  0  0  0
    6.6900  -14.8243   19.6333 C   0  0  0  0  0  0  0  0  0  0  0  0
    7.9334  -14.7218   20.4820 C   0  0  0  0  0  0  0  0  0  0  0  0
    7.6560  -15.0682   21.9118 C   0  0  0  0  0  0  0  0  0  0  0  0
    8.8946  -15.0665   22.7657 C   0  0  2  0  0  0  0  0  0  0  0  0
    9.8215  -16.0796   22.3020 N   0  0  0  0  0  0  0  0  0  0  0  0
    8.5657  -15.2453   24.2031 C   0  0  0  0  0  0  0  0  0  0  0  0
    8.6786  -16.3811   24.7753 O   0  0  0  0  0  0  0  0  0  0  0  0
    8.5934  -14.6131   16.2507 C   0  0  0  0  0  0  0  0  0  0  0  0
    5.8594  -12.6985   26.2442 C   0  0  1  0  0  0  0  0  0  0  0  0
    7.1846  -12.9626   26.8801 C   0  0  0  0  0  0  0  0  0  0  0  0
    8.1880  -11.8815   26.6896 C   0  0  1  0  0  0  0  0  0  0  0  0
    7.6736  -14.3175   26.3695 N   0  0  0  0  0  0  0  0  0  0  0  0
    8.1135  -14.1856   25.0174 C   0  0  0  0  0  0  0  0  0  0  0  0
    6.7046  -15.3887   26.5894 O   0  0  0  0  0  0  0  0  0  0  0  0
    5.8608  -15.6630   25.7008 O   0  0  0  0  0  0  0  0  0  0  0  0
  2  1  1  6
  2  3  1  0
  4  3  1  0
  4  5  2  0
  6  2  1  0
  7  6  2  0
  8  4  1  0
  9 10  1  0
 10 11  2  0
 10 12  1  0
 12 13  1  0
 13 14  1  0
 16 15  1  6
 15 14  1  0
 16 17  1  0
 17  6  1  0
 18 19  2  0
 18 16  1  0
 21 20  1  1
 21 23  1  0
 22 21  1  0
 23 24  1  6
 24 18  1  0
 25 23  1  0
 26 25  2  0
 27 25  1  0
M  END
$$$$
