DRV.pdb
     RDKit          3D

 27 26  0  0  1  0  0  0  0  0999 V2000
   11.0246  -18.1912   21.6249 N   0  0  0  0  0  0  0  0  0  0  0  0
   11.9032  -17.1351   22.0842 C   0  0  1  0  0  0  0  0  0  0  0  0
   12.9487  -16.9086   21.0355 C   0  0  0  0  0  0  0  0  0  0  0  0
   13.9980  -17.9436   21.1775 C   0  0  0  0  0  0  0  0  0  0  0  0
   13.8896  -18.8238   22.0553 O   0  0  0  0  0  0  0  0  0  0  0  0
   11.1159  -15.9518   22.4122 C   0  0  0  0  0  0  0  0  0  0  0  0
   11.6380  -15.0411   23.1002 O   0  0  0  0  0  0  0  0  0  0  0  0
   15.1183  -17.9752   20.3586 O   0  0  0  0  0  0  0  0  0  0  0  0
    9.2662  -13.5192   17.4334 N   0  0  0  0  0  0  0  0  0  0  0  0
    8.0553  -14.2411   17.4587 C   0  0  0  0  0  0  0  0  0  0  0  0
    7.8730  -15.1954   16.5966 N   0  0  0  0  0  0  0  0  0  0  0  0
    7.0077  -13.9875   18.3798 N   0  0  0  0  0  0  0  0  0  0  0  0
    7.1831  -13.0145   19.4553 C   0  0  0  0  0  0  0  0  0  0  0  0
    8.3338  -13.4011   20.3516 C   0  0  0  0  0  0  0  0  0  0  0  0
    7.8929  -14.3141   21.4531 C   0  0  0  0  0  0  0  0  0  0  0  0
    8.9858  -14.6050   22.4453 C   0  0  2  0  0  0  0  0  0  0  0  0
    9.7697  -15.7416   22.0049 N   0  0  0  0  0  0  0  0  0  0  0  0
    8.4403  -14.8150   23.8108 C   0  0  0  0  0  0  0  0  0  0  0  0
    8.4412  -15.9688   24.3575 O   0  0  0  0  0  0  0  0  0  0  0  0
    7.0050  -15.7683   16.5628 C   0  0  0  0  0  0  0  0  0  0  0  0
    7.3800  -11.4971   25.9774 C   0  0  2  0  0  0  0  0  0  0  0  0
    6.4635  -12.6587   26.1794 C   0  0  0  0  0  0  0  0  0  0  0  0
    5.8251  -12.7163   27.5215 C   0  0  2  0  0  0  0  0  0  0  0  0
    7.2518  -13.9249   25.8468 N   0  0  0  0  0  0  0  0  0  0  0  0
    7.8934  -13.7670   24.5809 C   0  0  0  0  0  0  0  0  0  0  0  0
    6.4504  -15.1401   25.9722 O   0  0  0  0  0  0  0  0  0  0  0  0
    6.4659  -15.7935   27.0444 O   0  0  0  0  0  0  0  0  0  0  0  0
  2  1  1  6
  2  3  1  0
  4  3  1  0
  4  5  2  0
  6  2  1  0
  7  6  2  0
  8  4  1  0
  9 10  1  0
 10 11  2  0
 10 12  1  0
 12 13  1  0
 13 14  1  0
 16 15  1  6
 15 14  1  0
 16 17  1  0
 17  6  1  0
 18 19  2  0
 18 16  1  0
 21 20  1  6
 21 23  1  0
 22 21  1  0
 23 24  1  1
 24 18  1  0
 25 23  1  0
 26 25  2  0
 27 25  1  0
M  END
$$$$
