DRV.pdb
     RDKit          3D

 27 26  0  0  1  0  0  0  0  0999 V2000
    9.2179  -15.1133   19.3515 N   0  0  0  0  0  0  0  0  0  0  0  0
    8.4688  -14.0216   19.9391 C   0  0  1  0  0  0  0  0  0  0  0  0
    7.4530  -13.5612   18.9390 C   0  0  0  0  0  0  0  0  0  0  0  0
    7.8975  -13.9680   17.5865 C   0  0  0  0  0  0  0  0  0  0  0  0
    8.5498  -15.0211   17.4360 O   0  0  0  0  0  0  0  0  0  0  0  0
    7.9049  -14.4464   21.2154 C   0  0  0  0  0  0  0  0  0  0  0  0
    7.2529  -13.6216   21.9010 O   0  0  0  0  0  0  0  0  0  0  0  0
    7.6129  -13.2115   16.4581 O   0  0  0  0  0  0  0  0  0  0  0  0
    8.0932  -18.3417   27.6120 N   0  0  0  0  0  0  0  0  0  0  0  0
    7.6080  -19.6313   27.3128 C   0  0  0  0  0  0  0  0  0  0  0  0
    7.8298  -20.5978   28.1519 N   0  0  0  0  0  0  0  0  0  0  0  0
    6.8821  -19.9451   26.1361 N   0  0  0  0  0  0  0  0  0  0  0  0
    7.3739  -19.5264   24.8257 C   0  0  0  0  0  0  0  0  0  0  0  0
    7.1842  -18.0428   24.6260 C   0  0  0  0  0  0  0  0  0  0  0  0
    7.6470  -17.6046   23.2714 C   0  0  0  0  0  0  0  0  0  0  0  0
    7.4917  -16.1247   23.0498 C   0  0  2  0  0  0  0  0  0  0  0  0
    8.0377  -15.7535   21.7596 N   0  0  0  0  0  0  0  0  0  0  0  0
    8.1105  -15.3413   24.1496 C   0  0  0  0  0  0  0  0  0  0  0  0
    9.3740  -15.1692   24.2149 O   0  0  0  0  0  0  0  0  0  0  0  0
    7.4910  -21.5694   27.9972 C   0  0  0  0  0  0  0  0  0  0  0  0
    6.6447  -12.0375   25.2490 C   0  0  1  0  0  0  0  0  0  0  0  0
    6.8776  -12.7920   26.5165 C   0  0  0  0  0  0  0  0  0  0  0  0
    7.2946  -11.9501   27.6694 C   0  0  2  0  0  0  0  0  0  0  0  0
    7.8777  -13.9054   26.2073 N   0  0  0  0  0  0  0  0  0  0  0  0
    7.3519  -14.7451   25.1790 C   0  0  0  0  0  0  0  0  0  0  0  0
    8.3197  -14.6177   27.4039 O   0  0  0  0  0  0  0  0  0  0  0  0
    7.7534  -15.6860   27.7427 O   0  0  0  0  0  0  0  0  0  0  0  0
  2  1  1  6
  2  3  1  0
  4  3  1  0
  4  5  2  0
  6  2  1  0
  7  6  2  0
  8  4  1  0
  9 10  1  0
 10 11  2  0
 10 12  1  0
 12 13  1  0
 13 14  1  0
 16 15  1  1
 15 14  1  0
 16 17  1  0
 17  6  1  0
 18 19  2  0
 18 16  1  0
 21 20  1  1
 21 23  1  0
 22 21  1  0
 23 24  1  6
 24 18  1  0
 25 23  1  0
 26 25  2  0
 27 25  1  0
M  END
$$$$
