DRV.pdb
     RDKit          3D

 27 26  0  0  1  0  0  0  0  0999 V2000
   13.6067  -17.5126   22.5907 N   0  0  0  0  0  0  0  0  0  0  0  0
   12.4041  -17.7519   23.3619 C   0  0  1  0  0  0  0  0  0  0  0  0
   12.8100  -18.1387   24.7511 C   0  0  0  0  0  0  0  0  0  0  0  0
   13.1226  -19.5859   24.7707 C   0  0  0  0  0  0  0  0  0  0  0  0
   13.2562  -20.2085   23.6976 O   0  0  0  0  0  0  0  0  0  0  0  0
   11.5380  -16.5803   23.2938 C   0  0  0  0  0  0  0  0  0  0  0  0
   11.9654  -15.4783   23.7160 O   0  0  0  0  0  0  0  0  0  0  0  0
   13.2760  -20.2912   25.9562 O   0  0  0  0  0  0  0  0  0  0  0  0
    8.1349  -13.1695   17.1772 N   0  0  0  0  0  0  0  0  0  0  0  0
    8.3287  -13.1594   18.5738 C   0  0  0  0  0  0  0  0  0  0  0  0
    9.5261  -13.3373   19.0446 N   0  0  0  0  0  0  0  0  0  0  0  0
    7.2832  -12.9643   19.5113 N   0  0  0  0  0  0  0  0  0  0  0  0
    6.7878  -14.0793   20.3147 C   0  0  0  0  0  0  0  0  0  0  0  0
    7.5489  -14.1903   21.6129 C   0  0  0  0  0  0  0  0  0  0  0  0
    8.4793  -15.3632   21.6086 C   0  0  0  0  0  0  0  0  0  0  0  0
    9.3412  -15.4314   22.8399 C   0  0  2  0  0  0  0  0  0  0  0  0
   10.2143  -16.5863   22.7741 N   0  0  0  0  0  0  0  0  0  0  0  0
    8.5220  -15.4369   24.0788 C   0  0  0  0  0  0  0  0  0  0  0  0
    8.1345  -16.5288   24.6155 O   0  0  0  0  0  0  0  0  0  0  0  0
    9.7182  -13.4971   20.0547 C   0  0  0  0  0  0  0  0  0  0  0  0
    7.9351  -11.8255   25.9155 C   0  0  2  0  0  0  0  0  0  0  0  0
    6.8123  -12.7859   26.1321 C   0  0  0  0  0  0  0  0  0  0  0  0
    6.0969  -12.6189   27.4253 C   0  0  2  0  0  0  0  0  0  0  0  0
    7.3750  -14.1946   25.9473 N   0  0  0  0  0  0  0  0  0  0  0  0
    8.1247  -14.2519   24.7333 C   0  0  0  0  0  0  0  0  0  0  0  0
    6.3559  -15.2332   26.0793 O   0  0  0  0  0  0  0  0  0  0  0  0
    5.6873  -15.5866   25.0769 O   0  0  0  0  0  0  0  0  0  0  0  0
  2  1  1  6
  2  3  1  0
  4  3  1  0
  4  5  2  0
  6  2  1  0
  7  6  2  0
  8  4  1  0
  9 10  1  0
 10 11  2  0
 10 12  1  0
 12 13  1  0
 13 14  1  0
 16 15  1  6
 15 14  1  0
 16 17  1  0
 17  6  1  0
 18 19  2  0
 18 16  1  0
 21 20  1  6
 21 23  1  0
 22 21  1  0
 23 24  1  1
 24 18  1  0
 25 23  1  0
 26 25  2  0
 27 25  1  0
M  END
$$$$
