DRV.pdb
     RDKit          3D

 27 26  0  0  1  0  0  0  0  0999 V2000
   10.4833  -18.2069   20.8074 N   0  0  0  0  0  0  0  0  0  0  0  0
    9.8764  -16.9216   20.5285 C   0  0  1  0  0  0  0  0  0  0  0  0
    9.3403  -16.9524   19.1299 C   0  0  0  0  0  0  0  0  0  0  0  0
   10.4773  -17.0404   18.1856 C   0  0  0  0  0  0  0  0  0  0  0  0
   11.0155  -18.1434   17.9602 O   0  0  0  0  0  0  0  0  0  0  0  0
    8.8775  -16.6207   21.5478 C   0  0  0  0  0  0  0  0  0  0  0  0
    8.2096  -15.5619   21.4560 O   0  0  0  0  0  0  0  0  0  0  0  0
   10.9783  -15.9250   17.5285 O   0  0  0  0  0  0  0  0  0  0  0  0
    7.0164  -22.4146   25.4270 N   0  0  0  0  0  0  0  0  0  0  0  0
    5.7919  -22.2659   24.7441 C   0  0  0  0  0  0  0  0  0  0  0  0
    4.7776  -22.9930   25.1044 N   0  0  0  0  0  0  0  0  0  0  0  0
    5.5942  -21.3591   23.6723 N   0  0  0  0  0  0  0  0  0  0  0  0
    6.5671  -20.3028   23.4035 C   0  0  0  0  0  0  0  0  0  0  0  0
    6.1515  -19.0067   24.0549 C   0  0  0  0  0  0  0  0  0  0  0  0
    7.3320  -18.2470   24.5750 C   0  0  0  0  0  0  0  0  0  0  0  0
    7.6837  -17.0571   23.7242 C   0  0  2  0  0  0  0  0  0  0  0  0
    8.5920  -17.4516   22.6659 N   0  0  0  0  0  0  0  0  0  0  0  0
    8.2452  -15.9505   24.5404 C   0  0  0  0  0  0  0  0  0  0  0  0
    9.5025  -15.8358   24.7310 O   0  0  0  0  0  0  0  0  0  0  0  0
    3.8567  -22.9575   24.6212 C   0  0  0  0  0  0  0  0  0  0  0  0
    6.3891  -12.3880   24.8459 C   0  0  2  0  0  0  0  0  0  0  0  0
    6.7975  -12.8869   26.1929 C   0  0  0  0  0  0  0  0  0  0  0  0
    7.1730  -11.8206   27.1594 C   0  0  2  0  0  0  0  0  0  0  0  0
    7.9128  -13.9101   25.9814 N   0  0  0  0  0  0  0  0  0  0  0  0
    7.4360  -14.9682   25.1495 C   0  0  0  0  0  0  0  0  0  0  0  0
    8.5209  -14.3519   27.2343 O   0  0  0  0  0  0  0  0  0  0  0  0
    9.2292  -13.5583   27.9015 O   0  0  0  0  0  0  0  0  0  0  0  0
  2  1  1  1
  2  3  1  0
  4  3  1  0
  4  5  2  0
  6  2  1  0
  7  6  2  0
  8  4  1  0
  9 10  1  0
 10 11  2  0
 10 12  1  0
 12 13  1  0
 13 14  1  0
 16 15  1  1
 15 14  1  0
 16 17  1  0
 17  6  1  0
 18 19  2  0
 18 16  1  0
 21 20  1  1
 21 23  1  0
 22 21  1  0
 23 24  1  6
 24 18  1  0
 25 23  1  0
 26 25  2  0
 27 25  1  0
M  END
$$$$
