DRV.pdb
     RDKit          3D

 27 26  0  0  1  0  0  0  0  0999 V2000
    8.8037  -17.0084   19.5596 N   0  0  0  0  0  0  0  0  0  0  0  0
    8.4209  -15.6478   19.8763 C   0  0  1  0  0  0  0  0  0  0  0  0
    7.4914  -15.1635   18.8059 C   0  0  0  0  0  0  0  0  0  0  0  0
    8.2066  -15.1822   17.5095 C   0  0  0  0  0  0  0  0  0  0  0  0
    9.3659  -15.6392   17.4446 O   0  0  0  0  0  0  0  0  0  0  0  0
    7.8635  -15.5974   21.2232 C   0  0  0  0  0  0  0  0  0  0  0  0
    7.4272  -14.5062   21.6642 O   0  0  0  0  0  0  0  0  0  0  0  0
    7.6293  -14.7030   16.3418 O   0  0  0  0  0  0  0  0  0  0  0  0
    7.7392  -21.8917   26.6023 N   0  0  0  0  0  0  0  0  0  0  0  0
    7.7572  -20.7686   27.4546 C   0  0  0  0  0  0  0  0  0  0  0  0
    8.3281  -20.8694   28.6170 N   0  0  0  0  0  0  0  0  0  0  0  0
    7.1829  -19.5168   27.1182 N   0  0  0  0  0  0  0  0  0  0  0  0
    6.3162  -19.3869   25.9493 C   0  0  0  0  0  0  0  0  0  0  0  0
    6.4015  -17.9984   25.3649 C   0  0  0  0  0  0  0  0  0  0  0  0
    7.0645  -18.0041   24.0227 C   0  0  0  0  0  0  0  0  0  0  0  0
    7.1585  -16.6333   23.4100 C   0  0  2  0  0  0  0  0  0  0  0  0
    7.7722  -16.7136   22.0995 N   0  0  0  0  0  0  0  0  0  0  0  0
    7.8864  -15.6892   24.2961 C   0  0  0  0  0  0  0  0  0  0  0  0
    9.1583  -15.7225   24.4021 O   0  0  0  0  0  0  0  0  0  0  0  0
    8.4363  -20.0628   29.2653 C   0  0  0  0  0  0  0  0  0  0  0  0
    6.7455  -11.9768   24.9428 C   0  0  1  0  0  0  0  0  0  0  0  0
    6.9782  -12.6280   26.2664 C   0  0  0  0  0  0  0  0  0  0  0  0
    7.5303  -11.7248   27.3111 C   0  0  2  0  0  0  0  0  0  0  0  0
    7.8570  -13.8544   26.0231 N   0  0  0  0  0  0  0  0  0  0  0  0
    7.2277  -14.7083   25.0672 C   0  0  0  0  0  0  0  0  0  0  0  0
    8.2547  -14.5206   27.2611 O   0  0  0  0  0  0  0  0  0  0  0  0
    9.0209  -13.9387   28.0680 O   0  0  0  0  0  0  0  0  0  0  0  0
  2  1  1  6
  2  3  1  0
  4  3  1  0
  4  5  2  0
  6  2  1  0
  7  6  2  0
  8  4  1  0
  9 10  1  0
 10 11  2  0
 10 12  1  0
 12 13  1  0
 13 14  1  0
 16 15  1  1
 15 14  1  0
 16 17  1  0
 17  6  1  0
 18 19  2  0
 18 16  1  0
 21 20  1  1
 21 23  1  0
 22 21  1  0
 23 24  1  6
 24 18  1  0
 25 23  1  0
 26 25  2  0
 27 25  1  0
M  END
$$$$
