DRV.pdb
     RDKit          3D

 27 26  0  0  1  0  0  0  0  0999 V2000
    9.3110  -14.7596   19.1639 N   0  0  0  0  0  0  0  0  0  0  0  0
    8.3923  -13.7177   19.5745 C   0  0  1  0  0  0  0  0  0  0  0  0
    7.3602  -13.5559   18.5008 C   0  0  0  0  0  0  0  0  0  0  0  0
    7.9885  -13.8366   17.1897 C   0  0  0  0  0  0  0  0  0  0  0  0
    9.1910  -14.1651   17.1332 O   0  0  0  0  0  0  0  0  0  0  0  0
    7.8462  -14.0370   20.8887 C   0  0  0  0  0  0  0  0  0  0  0  0
    7.0361  -13.2418   21.4241 O   0  0  0  0  0  0  0  0  0  0  0  0
    7.2811  -13.7476   15.9988 O   0  0  0  0  0  0  0  0  0  0  0  0
   10.9702  -18.5601   21.2790 N   0  0  0  0  0  0  0  0  0  0  0  0
   11.3388  -19.2204   22.4691 C   0  0  0  0  0  0  0  0  0  0  0  0
   12.5696  -19.6075   22.6191 N   0  0  0  0  0  0  0  0  0  0  0  0
   10.4373  -19.4929   23.5288 N   0  0  0  0  0  0  0  0  0  0  0  0
    9.0638  -18.9972   23.4821 C   0  0  0  0  0  0  0  0  0  0  0  0
    9.0344  -17.5094   23.2321 C   0  0  0  0  0  0  0  0  0  0  0  0
    7.6329  -16.9850   23.1865 C   0  0  0  0  0  0  0  0  0  0  0  0
    7.5695  -15.5060   22.9179 C   0  0  2  0  0  0  0  0  0  0  0  0
    8.1661  -15.2067   21.6314 N   0  0  0  0  0  0  0  0  0  0  0  0
    8.2072  -14.7262   24.0094 C   0  0  0  0  0  0  0  0  0  0  0  0
    9.4661  -14.5134   24.0274 O   0  0  0  0  0  0  0  0  0  0  0  0
   12.9276  -20.0231   23.5034 C   0  0  0  0  0  0  0  0  0  0  0  0
    5.8445  -12.8426   27.0538 C   0  0  1  0  0  0  0  0  0  0  0  0
    7.1185  -12.2731   26.5223 C   0  0  0  0  0  0  0  0  0  0  0  0
    6.9465  -11.3240   25.3902 C   0  0  1  0  0  0  0  0  0  0  0  0
    8.0325  -13.4472   26.1736 N   0  0  0  0  0  0  0  0  0  0  0  0
    7.4727  -14.1779   25.0819 C   0  0  0  0  0  0  0  0  0  0  0  0
    8.3747  -14.2631   27.3363 O   0  0  0  0  0  0  0  0  0  0  0  0
    7.9139  -15.4262   27.4436 O   0  0  0  0  0  0  0  0  0  0  0  0
  2  1  1  6
  2  3  1  0
  4  3  1  0
  4  5  2  0
  6  2  1  0
  7  6  2  0
  8  4  1  0
  9 10  1  0
 10 11  2  0
 10 12  1  0
 12 13  1  0
 13 14  1  0
 16 15  1  1
 15 14  1  0
 16 17  1  0
 17  6  1  0
 18 19  2  0
 18 16  1  0
 21 20  1  1
 21 23  1  0
 22 21  1  0
 23 24  1  6
 24 18  1  0
 25 23  1  0
 26 25  2  0
 27 25  1  0
M  END
$$$$
