DRV.pdb
     RDKit          3D

 27 26  0  0  1  0  0  0  0  0999 V2000
   11.1221  -17.7643   20.7717 N   0  0  0  0  0  0  0  0  0  0  0  0
   11.8237  -16.9303   21.7258 C   0  0  1  0  0  0  0  0  0  0  0  0
   13.0036  -16.3201   21.0332 C   0  0  0  0  0  0  0  0  0  0  0  0
   14.1078  -17.3065   21.0147 C   0  0  0  0  0  0  0  0  0  0  0  0
   13.9515  -18.4259   21.5434 O   0  0  0  0  0  0  0  0  0  0  0  0
   10.8984  -15.9609   22.3016 C   0  0  0  0  0  0  0  0  0  0  0  0
   11.3163  -15.1582   23.1713 O   0  0  0  0  0  0  0  0  0  0  0  0
   15.3325  -17.0315   20.4222 O   0  0  0  0  0  0  0  0  0  0  0  0
    7.2794  -15.2933   17.8153 N   0  0  0  0  0  0  0  0  0  0  0  0
    7.8025  -14.0343   17.4556 C   0  0  0  0  0  0  0  0  0  0  0  0
    8.3280  -13.8841   16.2773 N   0  0  0  0  0  0  0  0  0  0  0  0
    7.7910  -12.9043   18.3118 N   0  0  0  0  0  0  0  0  0  0  0  0
    7.5227  -13.0566   19.7398 C   0  0  0  0  0  0  0  0  0  0  0  0
    7.7761  -14.4746   20.1892 C   0  0  0  0  0  0  0  0  0  0  0  0
    7.4368  -14.6644   21.6349 C   0  0  0  0  0  0  0  0  0  0  0  0
    8.6527  -14.8347   22.5043 C   0  0  2  0  0  0  0  0  0  0  0  0
    9.5256  -15.8492   21.9479 N   0  0  0  0  0  0  0  0  0  0  0  0
    8.2796  -15.1464   23.9078 C   0  0  0  0  0  0  0  0  0  0  0  0
    8.2693  -16.3469   24.3427 O   0  0  0  0  0  0  0  0  0  0  0  0
    8.7784  -12.9985   15.9681 C   0  0  0  0  0  0  0  0  0  0  0  0
    5.6209  -12.7453   26.0958 C   0  0  1  0  0  0  0  0  0  0  0  0
    6.9163  -13.0820   26.7580 C   0  0  0  0  0  0  0  0  0  0  0  0
    7.9378  -12.0024   26.7025 C   0  0  1  0  0  0  0  0  0  0  0  0
    7.4115  -14.3940   26.1506 N   0  0  0  0  0  0  0  0  0  0  0  0
    7.9176  -14.1493   24.8380 C   0  0  0  0  0  0  0  0  0  0  0  0
    6.4192  -15.4636   26.2275 O   0  0  0  0  0  0  0  0  0  0  0  0
    5.5959  -15.6234   25.2930 O   0  0  0  0  0  0  0  0  0  0  0  0
  2  1  1  6
  2  3  1  0
  4  3  1  0
  4  5  2  0
  6  2  1  0
  7  6  2  0
  8  4  1  0
  9 10  1  0
 10 11  2  0
 10 12  1  0
 12 13  1  0
 13 14  1  0
 16 15  1  6
 15 14  1  0
 16 17  1  0
 17  6  1  0
 18 19  2  0
 18 16  1  0
 21 20  1  1
 21 23  1  0
 22 21  1  0
 23 24  1  6
 24 18  1  0
 25 23  1  0
 26 25  2  0
 27 25  1  0
M  END
$$$$
