DRV.pdb
     RDKit          3D

 27 26  0  0  1  0  0  0  0  0999 V2000
    7.1565  -16.4839   18.8196 N   0  0  0  0  0  0  0  0  0  0  0  0
    7.8863  -15.5712   19.6756 C   0  0  1  0  0  0  0  0  0  0  0  0
    7.7056  -14.1839   19.1400 C   0  0  0  0  0  0  0  0  0  0  0  0
    8.4012  -14.0819   17.8369 C   0  0  0  0  0  0  0  0  0  0  0  0
    9.5170  -14.6188   17.6831 O   0  0  0  0  0  0  0  0  0  0  0  0
    7.4513  -15.7426   21.0572 C   0  0  0  0  0  0  0  0  0  0  0  0
    6.2468  -15.5430   21.3485 O   0  0  0  0  0  0  0  0  0  0  0  0
    7.8524  -13.4005   16.7593 O   0  0  0  0  0  0  0  0  0  0  0  0
    6.6018  -21.7873   26.5472 N   0  0  0  0  0  0  0  0  0  0  0  0
    6.8936  -21.5831   25.1829 C   0  0  0  0  0  0  0  0  0  0  0  0
    6.3818  -22.3890   24.3021 N   0  0  0  0  0  0  0  0  0  0  0  0
    7.7231  -20.5378   24.7041 N   0  0  0  0  0  0  0  0  0  0  0  0
    8.2992  -19.5638   25.6280 C   0  0  0  0  0  0  0  0  0  0  0  0
    7.8776  -18.1608   25.2662 C   0  0  0  0  0  0  0  0  0  0  0  0
    8.2058  -17.8357   23.8422 C   0  0  0  0  0  0  0  0  0  0  0  0
    7.8062  -16.4383   23.4535 C   0  0  2  0  0  0  0  0  0  0  0  0
    8.3038  -16.1276   22.1282 N   0  0  0  0  0  0  0  0  0  0  0  0
    8.2642  -15.4420   24.4554 C   0  0  0  0  0  0  0  0  0  0  0  0
    9.5055  -15.2087   24.6425 O   0  0  0  0  0  0  0  0  0  0  0  0
    6.5814  -22.3135   23.2836 C   0  0  0  0  0  0  0  0  0  0  0  0
    6.0096  -12.2885   25.4221 C   0  0  1  0  0  0  0  0  0  0  0  0
    6.5375  -12.9259   26.6652 C   0  0  0  0  0  0  0  0  0  0  0  0
    6.8374  -11.9745   27.7683 C   0  0  2  0  0  0  0  0  0  0  0  0
    7.7493  -13.7676   26.2668 N   0  0  0  0  0  0  0  0  0  0  0  0
    7.3689  -14.6995   25.2540 C   0  0  0  0  0  0  0  0  0  0  0  0
    8.4263  -14.3646   27.4157 O   0  0  0  0  0  0  0  0  0  0  0  0
    8.1753  -15.5501   27.7449 O   0  0  0  0  0  0  0  0  0  0  0  0
  2  1  1  6
  2  3  1  0
  4  3  1  0
  4  5  2  0
  6  2  1  0
  7  6  2  0
  8  4  1  0
  9 10  1  0
 10 11  2  0
 10 12  1  0
 12 13  1  0
 13 14  1  0
 16 15  1  1
 15 14  1  0
 16 17  1  0
 17  6  1  0
 18 19  2  0
 18 16  1  0
 21 20  1  1
 21 23  1  0
 22 21  1  0
 23 24  1  6
 24 18  1  0
 25 23  1  0
 26 25  2  0
 27 25  1  0
M  END
$$$$
