DRV.pdb
     RDKit          3D

 27 26  0  0  1  0  0  0  0  0999 V2000
    9.0961  -19.1224   23.7103 N   0  0  0  0  0  0  0  0  0  0  0  0
   10.3903  -18.5195   23.4660 C   0  0  1  0  0  0  0  0  0  0  0  0
   11.1511  -19.4101   22.5319 C   0  0  0  0  0  0  0  0  0  0  0  0
   11.2052  -20.7720   23.1104 C   0  0  0  0  0  0  0  0  0  0  0  0
   12.1612  -21.1001   23.8422 O   0  0  0  0  0  0  0  0  0  0  0  0
   10.2110  -17.1554   22.9819 C   0  0  0  0  0  0  0  0  0  0  0  0
   11.2234  -16.4527   22.7438 O   0  0  0  0  0  0  0  0  0  0  0  0
   10.2174  -21.7163   22.8672 O   0  0  0  0  0  0  0  0  0  0  0  0
    7.2428  -13.2044   16.5590 N   0  0  0  0  0  0  0  0  0  0  0  0
    8.4175  -13.2707   17.3360 C   0  0  0  0  0  0  0  0  0  0  0  0
    9.5703  -13.1953   16.7422 N   0  0  0  0  0  0  0  0  0  0  0  0
    8.4204  -13.4168   18.7462 N   0  0  0  0  0  0  0  0  0  0  0  0
    7.1643  -13.4699   19.4904 C   0  0  0  0  0  0  0  0  0  0  0  0
    7.4190  -13.5959   20.9723 C   0  0  0  0  0  0  0  0  0  0  0  0
    7.6726  -15.0167   21.3699 C   0  0  0  0  0  0  0  0  0  0  0  0
    8.8132  -15.1585   22.3406 C   0  0  2  0  0  0  0  0  0  0  0  0
    8.9489  -16.5415   22.7522 N   0  0  0  0  0  0  0  0  0  0  0  0
    8.6502  -14.2555   23.5086 C   0  0  0  0  0  0  0  0  0  0  0  0
    8.5715  -12.9893   23.3648 O   0  0  0  0  0  0  0  0  0  0  0  0
   10.4744  -13.2807   17.2502 C   0  0  0  0  0  0  0  0  0  0  0  0
    6.9902  -12.5048   24.7127 C   0  0  1  0  0  0  0  0  0  0  0  0
    7.1592  -13.1847   26.0315 C   0  0  0  0  0  0  0  0  0  0  0  0
    7.0183  -12.2897   27.2109 C   0  0  2  0  0  0  0  0  0  0  0  0
    8.5028  -13.9122   26.0007 N   0  0  0  0  0  0  0  0  0  0  0  0
    8.5728  -14.7327   24.8341 C   0  0  0  0  0  0  0  0  0  0  0  0
    8.7977  -14.6097   27.2502 O   0  0  0  0  0  0  0  0  0  0  0  0
    8.7756  -13.9833   28.3382 O   0  0  0  0  0  0  0  0  0  0  0  0
  2  1  1  6
  2  3  1  0
  4  3  1  0
  4  5  2  0
  6  2  1  0
  7  6  2  0
  8  4  1  0
  9 10  1  0
 10 11  2  0
 10 12  1  0
 12 13  1  0
 13 14  1  0
 16 15  1  6
 15 14  1  0
 16 17  1  0
 17  6  1  0
 18 19  2  0
 18 16  1  0
 21 20  1  1
 21 23  1  0
 22 21  1  0
 23 24  1  6
 24 18  1  0
 25 23  1  0
 26 25  2  0
 27 25  1  0
M  END
$$$$
