DRV.pdb
     RDKit          3D

 27 26  0  0  1  0  0  0  0  0999 V2000
   11.0112  -17.8414   20.8703 N   0  0  0  0  0  0  0  0  0  0  0  0
   11.7842  -16.7776   21.4776 C   0  0  1  0  0  0  0  0  0  0  0  0
   12.7273  -16.2385   20.4460 C   0  0  0  0  0  0  0  0  0  0  0  0
   13.8574  -17.1830   20.2937 C   0  0  0  0  0  0  0  0  0  0  0  0
   13.7098  -18.3844   20.5968 O   0  0  0  0  0  0  0  0  0  0  0  0
   10.8831  -15.7814   22.0461 C   0  0  0  0  0  0  0  0  0  0  0  0
   11.3671  -14.7723   22.6143 O   0  0  0  0  0  0  0  0  0  0  0  0
   15.0974  -16.7789   19.8187 O   0  0  0  0  0  0  0  0  0  0  0  0
    8.4876  -15.4059   17.6779 N   0  0  0  0  0  0  0  0  0  0  0  0
    8.3436  -14.0172   17.8752 C   0  0  0  0  0  0  0  0  0  0  0  0
    7.9288  -13.2808   16.8889 N   0  0  0  0  0  0  0  0  0  0  0  0
    8.6274  -13.3635   19.1008 N   0  0  0  0  0  0  0  0  0  0  0  0
    7.6375  -13.3357   20.1749 C   0  0  0  0  0  0  0  0  0  0  0  0
    7.1933  -14.7317   20.5367 C   0  0  0  0  0  0  0  0  0  0  0  0
    7.2199  -14.9531   22.0170 C   0  0  0  0  0  0  0  0  0  0  0  0
    8.6042  -14.8577   22.5987 C   0  0  2  0  0  0  0  0  0  0  0  0
    9.4640  -15.8635   22.0074 N   0  0  0  0  0  0  0  0  0  0  0  0
    8.5811  -14.9624   24.0801 C   0  0  0  0  0  0  0  0  0  0  0  0
    8.8925  -16.0482   24.6753 O   0  0  0  0  0  0  0  0  0  0  0  0
    7.8057  -12.2504   16.9657 C   0  0  0  0  0  0  0  0  0  0  0  0
    6.0238  -12.6302   26.4535 C   0  0  1  0  0  0  0  0  0  0  0  0
    7.4650  -12.6457   26.8444 C   0  0  0  0  0  0  0  0  0  0  0  0
    8.2370  -11.4521   26.4070 C   0  0  1  0  0  0  0  0  0  0  0  0
    8.0628  -13.9550   26.3310 N   0  0  0  0  0  0  0  0  0  0  0  0
    8.2184  -13.8833   24.9134 C   0  0  0  0  0  0  0  0  0  0  0  0
    7.3364  -15.1321   26.8017 O   0  0  0  0  0  0  0  0  0  0  0  0
    6.4242  -15.6294   26.0965 O   0  0  0  0  0  0  0  0  0  0  0  0
  2  1  1  6
  2  3  1  0
  4  3  1  0
  4  5  2  0
  6  2  1  0
  7  6  2  0
  8  4  1  0
  9 10  1  0
 10 11  2  0
 10 12  1  0
 12 13  1  0
 13 14  1  0
 16 15  1  6
 15 14  1  0
 16 17  1  0
 17  6  1  0
 18 19  2  0
 18 16  1  0
 21 20  1  1
 21 23  1  0
 22 21  1  0
 23 24  1  6
 24 18  1  0
 25 23  1  0
 26 25  2  0
 27 25  1  0
M  END
$$$$
