DRV.pdb
     RDKit          3D

 27 26  0  0  1  0  0  0  0  0999 V2000
    5.9681  -19.3674   25.4947 N   0  0  0  0  0  0  0  0  0  0  0  0
    7.3690  -19.7117   25.3645 C   0  0  1  0  0  0  0  0  0  0  0  0
    7.4596  -21.0703   24.7399 C   0  0  0  0  0  0  0  0  0  0  0  0
    6.2167  -21.8168   25.0407 C   0  0  0  0  0  0  0  0  0  0  0  0
    5.7664  -21.8331   26.2043 O   0  0  0  0  0  0  0  0  0  0  0  0
    8.0637  -18.6637   24.6253 C   0  0  0  0  0  0  0  0  0  0  0  0
    9.3081  -18.7399   24.4798 O   0  0  0  0  0  0  0  0  0  0  0  0
    5.5192  -22.5123   24.0628 O   0  0  0  0  0  0  0  0  0  0  0  0
    7.8798  -12.1830   17.4165 N   0  0  0  0  0  0  0  0  0  0  0  0
    7.9472  -13.3999   18.1255 C   0  0  0  0  0  0  0  0  0  0  0  0
    7.9664  -14.5157   17.4607 N   0  0  0  0  0  0  0  0  0  0  0  0
    7.9962  -13.4843   19.5399 N   0  0  0  0  0  0  0  0  0  0  0  0
    8.0686  -14.7831   20.2048 C   0  0  0  0  0  0  0  0  0  0  0  0
    7.9543  -14.6310   21.7017 C   0  0  0  0  0  0  0  0  0  0  0  0
    7.3045  -15.8246   22.3297 C   0  0  0  0  0  0  0  0  0  0  0  0
    8.1648  -16.4759   23.3781 C   0  0  2  0  0  0  0  0  0  0  0  0
    7.4284  -17.5335   24.0412 N   0  0  0  0  0  0  0  0  0  0  0  0
    8.6854  -15.4813   24.3506 C   0  0  0  0  0  0  0  0  0  0  0  0
    9.6119  -14.6620   24.0332 O   0  0  0  0  0  0  0  0  0  0  0  0
    8.0837  -15.4434   17.9170 C   0  0  0  0  0  0  0  0  0  0  0  0
    6.6780  -13.1430   25.8019 C   0  0  1  0  0  0  0  0  0  0  0  0
    7.3834  -13.5704   27.0468 C   0  0  0  0  0  0  0  0  0  0  0  0
    7.7378  -12.4588   27.9691 C   0  0  2  0  0  0  0  0  0  0  0  0
    8.5984  -14.3945   26.6225 N   0  0  0  0  0  0  0  0  0  0  0  0
    8.1961  -15.3793   25.6700 C   0  0  0  0  0  0  0  0  0  0  0  0
    9.3493  -14.9225   27.7592 O   0  0  0  0  0  0  0  0  0  0  0  0
    9.3679  -16.1587   27.9785 O   0  0  0  0  0  0  0  0  0  0  0  0
  2  1  1  6
  2  3  1  0
  4  3  1  0
  4  5  2  0
  6  2  1  0
  7  6  2  0
  8  4  1  0
  9 10  1  0
 10 11  2  0
 10 12  1  0
 12 13  1  0
 13 14  1  0
 16 15  1  6
 15 14  1  0
 16 17  1  0
 17  6  1  0
 18 19  2  0
 18 16  1  0
 21 20  1  1
 21 23  1  0
 22 21  1  0
 23 24  1  6
 24 18  1  0
 25 23  1  0
 26 25  2  0
 27 25  1  0
M  END
$$$$
