AAD.pdb
 OpenBabel07022417593D

 35 34  0  0  1  0  0  0  0  0999 V2000
   -1.2930   -3.4020    0.1960 C   0  0  0  0  0  0  0  0  0  0  0  0
    0.1340   -3.9470    0.3420 C   0  0  2  0  0  0  0  0  0  0  0  0
    0.0360   -5.1080    1.1890 N   0  0  0  0  0  0  0  0  0  0  0  0
    0.9490   -2.8980    1.0520 C   0  0  0  0  0  0  0  0  0  0  0  0
    1.3760   -3.1160    2.2200 O   0  0  0  0  0  0  0  0  0  0  0  0
   -1.5760   -3.2720   -0.8690 H   0  0  0  0  0  0  0  0  0  0  0  0
   -1.3880   -2.3930    0.6750 H   0  0  0  0  0  0  0  0  0  0  0  0
   -2.0430   -4.0720    0.6530 H   0  0  0  0  0  0  0  0  0  0  0  0
    0.5420   -4.1180   -0.6550 H   0  0  0  0  0  0  0  0  0  0  0  0
   -0.4840   -5.8640    0.7200 H   0  0  0  0  0  0  0  0  0  0  0  0
   -0.3670   -4.8040    2.0880 H   0  0  0  0  0  0  0  0  0  0  0  0
    3.4070   -0.4840    0.5240 C   0  0  0  0  0  0  0  0  0  0  0  0
    2.0450   -0.6880    1.1840 C   0  0  2  0  0  0  0  0  0  0  0  0
    1.2660   -1.6600    0.4660 N   0  0  0  0  0  0  0  0  0  0  0  0
    1.3350    0.6160    1.3080 C   0  0  0  0  0  0  0  0  0  0  0  0
    1.9230    1.5360    1.9260 O   0  0  0  0  0  0  0  0  0  0  0  0
    3.3840   -1.0190   -0.4450 H   0  0  0  0  0  0  0  0  0  0  0  0
    4.2310   -0.8940    1.1400 H   0  0  0  0  0  0  0  0  0  0  0  0
    3.6220    0.6010    0.3920 H   0  0  0  0  0  0  0  0  0  0  0  0
    2.2690   -1.0920    2.2120 H   0  0  0  0  0  0  0  0  0  0  0  0
    0.9390   -1.4410   -0.4860 H   0  0  0  0  0  0  0  0  0  0  0  0
    0.0590    0.8740    0.7790 N   0  0  0  0  0  0  0  0  0  0  0  0
   -0.6630    2.1140    0.8740 C   0  0  1  0  0  0  0  0  0  0  0  0
   -1.0030    2.5710   -0.5400 C   0  0  0  0  0  0  0  0  0  0  0  0
    0.2830    2.7480   -1.2550 C   0  0  0  0  0  0  0  0  0  0  0  0
    0.9730    3.7550   -1.0490 O   0  0  0  0  0  0  0  0  0  0  0  0
   -1.9480    1.8430    1.5760 C   0  0  0  0  0  0  0  0  0  0  0  0
   -2.7870    2.7590    1.8050 O   0  0  0  0  0  0  0  0  0  0  0  0
    0.6940    1.7850   -2.1440 O   0  0  0  0  0  0  0  0  0  0  0  0
   -2.2920    0.5640    2.0170 O   0  0  0  0  0  0  0  0  0  0  0  0
   -0.4110    0.0930    0.2690 H   0  0  0  0  0  0  0  0  0  0  0  0
   -0.1360    2.8930    1.4280 H   0  0  0  0  0  0  0  0  0  0  0  0
   -1.6190    1.7560   -0.9850 H   0  0  0  0  0  0  0  0  0  0  0  0
   -1.5910    3.4880   -0.4420 H   0  0  0  0  0  0  0  0  0  0  0  0
    1.6170    1.8020   -2.5550 H   0  0  0  0  0  0  0  0  0  0  0  0
  1  2  1  0  0  0  0
  1  8  1  0  0  0  0
  1  7  1  0  0  0  0
  2  9  1  6  0  0  0
  2  4  1  0  0  0  0
  2  3  1  0  0  0  0
  3 11  1  0  0  0  0
  4  5  2  0  0  0  0
  6  1  1  0  0  0  0
 10  3  1  0  0  0  0
 12 18  1  0  0  0  0
 12 13  1  0  0  0  0
 13 15  1  0  0  0  0
 13 20  1  1  0  0  0
 14  4  1  0  0  0  0
 14 13  1  0  0  0  0
 15 16  2  0  0  0  0
 17 12  1  0  0  0  0
 19 12  1  0  0  0  0
 21 14  1  0  0  0  0
 22 23  1  0  0  0  0
 22 15  1  0  0  0  0
 23 32  1  1  0  0  0
 23 27  1  0  0  0  0
 24 34  1  0  0  0  0
 24 23  1  0  0  0  0
 25 26  2  0  0  0  0
 25 24  1  0  0  0  0
 27 28  2  0  0  0  0
 27 30  1  0  0  0  0
 29 25  1  0  0  0  0
 31 22  1  0  0  0  0
 33 24  1  0  0  0  0
 35 29  1  0  0  0  0
M  END
$$$$
