AAF.pdb
 OpenBabel07022417593D

 42 42  0  0  1  0  0  0  0  0999 V2000
    0.5010   -5.7380    0.1050 C   0  0  0  0  0  0  0  0  0  0  0  0
    0.0330   -4.3640   -0.2880 C   0  0  2  0  0  0  0  0  0  0  0  0
    1.1520   -3.6610   -0.8820 N   0  0  0  0  0  0  0  0  0  0  0  0
   -0.4870   -3.5990    0.8900 C   0  0  0  0  0  0  0  0  0  0  0  0
   -1.4600   -4.0160    1.5670 O   0  0  0  0  0  0  0  0  0  0  0  0
   -0.2300   -6.5300   -0.2090 H   0  0  0  0  0  0  0  0  0  0  0  0
    0.6080   -5.8000    1.2210 H   0  0  0  0  0  0  0  0  0  0  0  0
    1.4650   -6.0130   -0.3530 H   0  0  0  0  0  0  0  0  0  0  0  0
   -0.7820   -4.4600   -1.0310 H   0  0  0  0  0  0  0  0  0  0  0  0
    1.5490   -4.2660   -1.6320 H   0  0  0  0  0  0  0  0  0  0  0  0
    0.9030   -2.7160   -1.1870 H   0  0  0  0  0  0  0  0  0  0  0  0
    0.7100   -1.3800    3.4570 C   0  0  0  0  0  0  0  0  0  0  0  0
   -0.3520   -1.5930    2.4070 C   0  0  2  0  0  0  0  0  0  0  0  0
    0.0990   -2.3660    1.2940 N   0  0  0  0  0  0  0  0  0  0  0  0
   -0.7800   -0.2600    1.9260 C   0  0  0  0  0  0  0  0  0  0  0  0
   -1.2160    0.6270    2.7280 O   0  0  0  0  0  0  0  0  0  0  0  0
    0.6520   -2.2040    4.1990 H   0  0  0  0  0  0  0  0  0  0  0  0
    1.7210   -1.2690    3.0230 H   0  0  0  0  0  0  0  0  0  0  0  0
    0.4480   -0.4430    3.9990 H   0  0  0  0  0  0  0  0  0  0  0  0
   -1.1950   -2.1510    2.8760 H   0  0  0  0  0  0  0  0  0  0  0  0
    0.9080   -2.0230    0.7330 H   0  0  0  0  0  0  0  0  0  0  0  0
   -0.7070    0.0390    0.5530 N   0  0  0  0  0  0  0  0  0  0  0  0
   -1.1150    1.3320    0.0280 C   0  0  1  0  0  0  0  0  0  0  0  0
    0.1090    2.0150   -0.5490 C   0  0  0  0  0  0  0  0  0  0  0  0
    1.1510    2.2100    0.5090 C   0  0  0  0  0  0  0  0  0  0  0  0
    1.1550    3.3680    1.2580 C   0  0  0  0  0  0  0  0  0  0  0  0
    2.0980    3.5800    2.2380 C   0  0  0  0  0  0  0  0  0  0  0  0
    3.0600    2.6370    2.4920 C   0  0  0  0  0  0  0  0  0  0  0  0
    3.0700    1.4750    1.7530 C   0  0  0  0  0  0  0  0  0  0  0  0
    2.1230    1.2670    0.7720 C   0  0  0  0  0  0  0  0  0  0  0  0
   -2.1140    1.1900   -1.0510 C   0  0  0  0  0  0  0  0  0  0  0  0
   -2.4700    0.0060   -1.3620 O   0  0  0  0  0  0  0  0  0  0  0  0
   -2.6520    2.2760   -1.7050 O   0  0  0  0  0  0  0  0  0  0  0  0
   -0.3520   -0.6840   -0.1150 H   0  0  0  0  0  0  0  0  0  0  0  0
   -1.4600    1.9610    0.8700 H   0  0  0  0  0  0  0  0  0  0  0  0
   -0.1420    3.0060   -0.9670 H   0  0  0  0  0  0  0  0  0  0  0  0
    0.5790    1.4220   -1.3580 H   0  0  0  0  0  0  0  0  0  0  0  0
    0.4070    4.1400    1.0850 H   0  0  0  0  0  0  0  0  0  0  0  0
    2.0950    4.5050    2.8310 H   0  0  0  0  0  0  0  0  0  0  0  0
    3.8120    2.8120    3.2780 H   0  0  0  0  0  0  0  0  0  0  0  0
    3.8390    0.7550    1.9780 H   0  0  0  0  0  0  0  0  0  0  0  0
    2.1390    0.3580    0.2010 H   0  0  0  0  0  0  0  0  0  0  0  0
  1  7  1  0  0  0  0
  2  9  1  6  0  0  0
  2  1  1  0  0  0  0
  2  4  1  0  0  0  0
  3  2  1  0  0  0  0
  4 14  1  0  0  0  0
  4  5  2  0  0  0  0
  6  1  1  0  0  0  0
  8  1  1  0  0  0  0
 10  3  1  0  0  0  0
 11  3  1  0  0  0  0
 12 19  1  0  0  0  0
 12 17  1  0  0  0  0
 13 20  1  1  0  0  0
 13 12  1  0  0  0  0
 14 13  1  0  0  0  0
 15 13  1  0  0  0  0
 15 16  2  0  0  0  0
 18 12  1  0  0  0  0
 21 14  1  0  0  0  0
 22 15  1  0  0  0  0
 23 22  1  0  0  0  0
 23 35  1  1  0  0  0
 24 23  1  0  0  0  0
 24 25  1  0  0  0  0
 25 30  2  0  0  0  0
 25 26  1  0  0  0  0
 26 27  2  0  0  0  0
 27 28  1  0  0  0  0
 27 39  1  0  0  0  0
 28 40  1  0  0  0  0
 29 41  1  0  0  0  0
 29 28  2  0  0  0  0
 30 29  1  0  0  0  0
 31 23  1  0  0  0  0
 32 31  1  0  0  0  0
 33 31  2  0  0  0  0
 34 22  1  0  0  0  0
 36 24  1  0  0  0  0
 37 24  1  0  0  0  0
 38 26  1  0  0  0  0
 42 30  1  0  0  0  0
M  END
$$$$
