AAH.pdb
 OpenBabel07022417593D

 39 39  0  0  1  0  0  0  0  0999 V2000
   -0.7130   -3.9380    0.7950 C   0  0  0  0  0  0  0  0  0  0  0  0
    0.5830   -4.1050    1.5590 C   0  0  2  0  0  0  0  0  0  0  0  0
    0.3040   -4.6790    2.8590 N   0  0  0  0  0  0  0  0  0  0  0  0
    1.3090   -2.8480    1.7290 C   0  0  0  0  0  0  0  0  0  0  0  0
    1.5880   -2.4370    2.8820 O   0  0  0  0  0  0  0  0  0  0  0  0
   -1.4360   -4.6620    1.2190 H   0  0  0  0  0  0  0  0  0  0  0  0
   -1.1320   -2.9150    0.9410 H   0  0  0  0  0  0  0  0  0  0  0  0
   -0.5300   -4.1670   -0.2670 H   0  0  0  0  0  0  0  0  0  0  0  0
    1.2220   -4.8190    0.9930 H   0  0  0  0  0  0  0  0  0  0  0  0
    0.6300   -5.6600    2.9040 H   0  0  0  0  0  0  0  0  0  0  0  0
   -0.6960   -4.5710    3.1350 H   0  0  0  0  0  0  0  0  0  0  0  0
    3.7820   -0.8920    0.1570 C   0  0  0  0  0  0  0  0  0  0  0  0
    2.4510   -0.7950    0.8300 C   0  0  2  0  0  0  0  0  0  0  0  0
    1.7380   -2.0290    0.6430 N   0  0  0  0  0  0  0  0  0  0  0  0
    1.6600    0.3720    0.2950 C   0  0  0  0  0  0  0  0  0  0  0  0
    2.1020    1.5360    0.3590 O   0  0  0  0  0  0  0  0  0  0  0  0
    4.6240   -1.0050    0.8970 H   0  0  0  0  0  0  0  0  0  0  0  0
    3.8750   -1.7850   -0.5150 H   0  0  0  0  0  0  0  0  0  0  0  0
    4.0030    0.0400   -0.4010 H   0  0  0  0  0  0  0  0  0  0  0  0
    2.5870   -0.6280    1.9260 H   0  0  0  0  0  0  0  0  0  0  0  0
    1.5020   -2.3780   -0.3210 H   0  0  0  0  0  0  0  0  0  0  0  0
    0.3940    0.1440   -0.2910 N   0  0  0  0  0  0  0  0  0  0  0  0
   -0.4910    1.1120   -0.8250 C   0  0  1  0  0  0  0  0  0  0  0  0
   -0.4260    2.5010   -0.2210 C   0  0  0  0  0  0  0  0  0  0  0  0
   -0.7980    2.4310    1.1920 C   0  0  0  0  0  0  0  0  0  0  0  0
   -2.1380    2.5650    1.5970 C   0  0  0  0  0  0  0  0  0  0  0  0
   -2.1380    2.4540    2.9170 N   0  0  0  0  0  0  0  0  0  0  0  0
   -0.8710    2.2570    3.3550 C   0  0  0  0  0  0  0  0  0  0  0  0
   -0.0710    2.2470    2.2790 N   0  0  0  0  0  0  0  0  0  0  0  0
   -0.6560    1.1420   -2.2750 C   0  0  0  0  0  0  0  0  0  0  0  0
   -0.0320    0.3370   -2.9980 O   0  0  0  0  0  0  0  0  0  0  0  0
   -1.4990    2.0550   -2.8700 O   0  0  0  0  0  0  0  0  0  0  0  0
    0.1000   -0.8910   -0.3180 H   0  0  0  0  0  0  0  0  0  0  0  0
   -1.5320    0.7760   -0.4050 H   0  0  0  0  0  0  0  0  0  0  0  0
   -1.1960    3.0910   -0.8060 H   0  0  0  0  0  0  0  0  0  0  0  0
    0.5090    3.0320   -0.3860 H   0  0  0  0  0  0  0  0  0  0  0  0
   -2.9980    2.7260    0.9790 H   0  0  0  0  0  0  0  0  0  0  0  0
   -2.9600    2.5010    3.5810 H   0  0  0  0  0  0  0  0  0  0  0  0
   -0.5120    2.1260    4.3650 H   0  0  0  0  0  0  0  0  0  0  0  0
  1  7  1  0  0  0  0
  1  6  1  0  0  0  0
  1  2  1  0  0  0  0
  2  9  1  6  0  0  0
  2  4  1  0  0  0  0
  2  3  1  0  0  0  0
  3 10  1  0  0  0  0
  3 11  1  0  0  0  0
  4  5  2  0  0  0  0
  8  1  1  0  0  0  0
 12 13  1  0  0  0  0
 12 17  1  0  0  0  0
 13 20  1  1  0  0  0
 14 13  1  0  0  0  0
 14  4  1  0  0  0  0
 15 16  2  0  0  0  0
 15 13  1  0  0  0  0
 18 12  1  0  0  0  0
 19 12  1  0  0  0  0
 21 14  1  0  0  0  0
 22 15  1  0  0  0  0
 23 34  1  1  0  0  0
 23 22  1  0  0  0  0
 23 24  1  0  0  0  0
 24 25  1  0  0  0  0
 25 26  2  0  0  0  0
 25 29  1  0  0  0  0
 26 27  1  0  0  0  0
 27 28  1  0  0  0  0
 27 38  1  0  0  0  0
 28 39  1  0  0  0  0
 29 28  2  0  0  0  0
 30 23  1  0  0  0  0
 31 30  2  0  0  0  0
 32 30  1  0  0  0  0
 33 22  1  0  0  0  0
 35 24  1  0  0  0  0
 36 24  1  0  0  0  0
 37 26  1  0  0  0  0
M  END
$$$$
