AAI.pdb
 OpenBabel07022417593D

 41 40  0  0  1  0  0  0  0  0999 V2000
    0.3680   -2.4050    3.8700 C   0  0  0  0  0  0  0  0  0  0  0  0
    0.0890   -3.7200    3.1460 C   0  0  2  0  0  0  0  0  0  0  0  0
    0.7440   -4.8120    3.8590 N   0  0  0  0  0  0  0  0  0  0  0  0
    0.5610   -3.6650    1.7430 C   0  0  0  0  0  0  0  0  0  0  0  0
    1.3970   -4.4520    1.2710 O   0  0  0  0  0  0  0  0  0  0  0  0
    0.0130   -1.5750    3.2470 H   0  0  0  0  0  0  0  0  0  0  0  0
    1.4470   -2.2910    4.0890 H   0  0  0  0  0  0  0  0  0  0  0  0
   -0.2130   -2.4010    4.8130 H   0  0  0  0  0  0  0  0  0  0  0  0
   -0.9960   -3.8950    3.2140 H   0  0  0  0  0  0  0  0  0  0  0  0
    0.2840   -4.8570    4.7970 H   0  0  0  0  0  0  0  0  0  0  0  0
    0.5320   -5.6850    3.3010 H   0  0  0  0  0  0  0  0  0  0  0  0
   -0.7820   -2.8120   -1.3710 C   0  0  0  0  0  0  0  0  0  0  0  0
    0.4220   -2.5300   -0.4680 C   0  0  2  0  0  0  0  0  0  0  0  0
    0.0250   -2.6600    0.9040 N   0  0  0  0  0  0  0  0  0  0  0  0
    0.9290   -1.1690   -0.7820 C   0  0  0  0  0  0  0  0  0  0  0  0
    1.3080   -0.9160   -1.9390 O   0  0  0  0  0  0  0  0  0  0  0  0
   -1.6520   -2.2940   -0.8770 H   0  0  0  0  0  0  0  0  0  0  0  0
   -0.9500   -3.9100   -1.4090 H   0  0  0  0  0  0  0  0  0  0  0  0
   -0.5760   -2.4060   -2.3680 H   0  0  0  0  0  0  0  0  0  0  0  0
    1.1820   -3.3170   -0.7320 H   0  0  0  0  0  0  0  0  0  0  0  0
   -0.6840   -1.9770    1.2660 H   0  0  0  0  0  0  0  0  0  0  0  0
   -1.5590    0.9840   -0.5400 C   0  0  0  0  0  0  0  0  0  0  0  0
   -0.7530    2.2240   -0.6140 C   0  0  0  0  0  0  0  0  0  0  0  0
    0.4830    2.2840    0.2060 C   0  0  2  0  0  0  0  0  0  0  0  0
    1.1160    3.6600   -0.0520 C   0  0  0  0  0  0  0  0  0  0  0  0
    1.4720    1.1890   -0.0400 C   0  0  2  0  0  0  0  0  0  0  0  0
    0.9950   -0.1340    0.2070 N   0  0  0  0  0  0  0  0  0  0  0  0
    2.7300    1.3890    0.7230 C   0  0  0  0  0  0  0  0  0  0  0  0
    3.2220    0.4730    1.4540 O   0  0  0  0  0  0  0  0  0  0  0  0
    3.4550    2.5780    0.6970 O   0  0  0  0  0  0  0  0  0  0  0  0
   -2.6470    1.2900   -0.5990 H   0  0  0  0  0  0  0  0  0  0  0  0
   -1.4400    0.3640    0.3460 H   0  0  0  0  0  0  0  0  0  0  0  0
   -1.4380    0.3450   -1.4630 H   0  0  0  0  0  0  0  0  0  0  0  0
   -0.5400    2.4190   -1.7060 H   0  0  0  0  0  0  0  0  0  0  0  0
   -1.3720    3.1220   -0.3160 H   0  0  0  0  0  0  0  0  0  0  0  0
    0.2530    2.2830    1.2930 H   0  0  0  0  0  0  0  0  0  0  0  0
    1.6310    4.0250    0.8610 H   0  0  0  0  0  0  0  0  0  0  0  0
    1.7360    3.6550   -0.9490 H   0  0  0  0  0  0  0  0  0  0  0  0
    0.2770    4.3670   -0.2190 H   0  0  0  0  0  0  0  0  0  0  0  0
    1.7700    1.2280   -1.1250 H   0  0  0  0  0  0  0  0  0  0  0  0
    0.6540   -0.4340    1.1690 H   0  0  0  0  0  0  0  0  0  0  0  0
  1  7  1  0  0  0  0
  1  8  1  0  0  0  0
  2  9  1  1  0  0  0
  2  3  1  0  0  0  0
  2  1  1  0  0  0  0
  3 10  1  0  0  0  0
  4  2  1  0  0  0  0
  5  4  2  0  0  0  0
  6  1  1  0  0  0  0
 11  3  1  0  0  0  0
 12 17  1  0  0  0  0
 12 13  1  0  0  0  0
 13 20  1  6  0  0  0
 13 14  1  0  0  0  0
 14 21  1  0  0  0  0
 14  4  1  0  0  0  0
 15 13  1  0  0  0  0
 15 27  1  0  0  0  0
 16 15  2  0  0  0  0
 18 12  1  0  0  0  0
 19 12  1  0  0  0  0
 22 32  1  0  0  0  0
 23 22  1  0  0  0  0
 23 35  1  0  0  0  0
 23 24  1  0  0  0  0
 24 36  1  1  0  0  0
 25 24  1  0  0  0  0
 25 37  1  0  0  0  0
 26 40  1  6  0  0  0
 26 24  1  0  0  0  0
 26 27  1  0  0  0  0
 26 28  1  0  0  0  0
 27 41  1  0  0  0  0
 28 29  1  0  0  0  0
 30 28  2  0  0  0  0
 31 22  1  0  0  0  0
 33 22  1  0  0  0  0
 34 23  1  0  0  0  0
 38 25  1  0  0  0  0
 39 25  1  0  0  0  0
M  END
$$$$
