AAK.pdb
 OpenBabel07022417593D

 43 42  0  0  1  0  0  0  0  0999 V2000
   -2.2180   -3.1830    3.0440 C   0  0  0  0  0  0  0  0  0  0  0  0
   -0.9090   -3.9120    3.1440 C   0  0  2  0  0  0  0  0  0  0  0  0
   -0.5700   -4.0870    4.5190 N   0  0  0  0  0  0  0  0  0  0  0  0
    0.1680   -3.2660    2.3560 C   0  0  0  0  0  0  0  0  0  0  0  0
    1.2640   -2.9170    2.8770 O   0  0  0  0  0  0  0  0  0  0  0  0
   -2.0780   -2.0780    2.9750 H   0  0  0  0  0  0  0  0  0  0  0  0
   -2.8990   -3.4860    3.8370 H   0  0  0  0  0  0  0  0  0  0  0  0
   -2.6930   -3.4810    2.0730 H   0  0  0  0  0  0  0  0  0  0  0  0
   -1.0620   -4.9320    2.7050 H   0  0  0  0  0  0  0  0  0  0  0  0
    0.2080   -3.4690    4.8410 H   0  0  0  0  0  0  0  0  0  0  0  0
   -1.3880   -4.0730    5.1640 H   0  0  0  0  0  0  0  0  0  0  0  0
    1.5260   -3.1820   -0.9890 C   0  0  0  0  0  0  0  0  0  0  0  0
    1.0850   -2.3650    0.1790 C   0  0  2  0  0  0  0  0  0  0  0  0
    0.0450   -2.9950    0.9660 N   0  0  0  0  0  0  0  0  0  0  0  0
    0.5090   -1.0610   -0.3130 C   0  0  0  0  0  0  0  0  0  0  0  0
   -0.6620   -0.7000   -0.0270 O   0  0  0  0  0  0  0  0  0  0  0  0
    1.9610   -2.4930   -1.7420 H   0  0  0  0  0  0  0  0  0  0  0  0
    2.3520   -3.8690   -0.6950 H   0  0  0  0  0  0  0  0  0  0  0  0
    0.6990   -3.7150   -1.4970 H   0  0  0  0  0  0  0  0  0  0  0  0
    1.9800   -2.1230    0.7880 H   0  0  0  0  0  0  0  0  0  0  0  0
   -0.8300   -3.2510    0.4550 H   0  0  0  0  0  0  0  0  0  0  0  0
    1.2790   -0.1820   -1.1270 N   0  0  0  0  0  0  0  0  0  0  0  0
    0.7900    1.0850   -1.6320 C   0  0  1  0  0  0  0  0  0  0  0  0
    1.7230    2.1850   -1.1730 C   0  0  0  0  0  0  0  0  0  0  0  0
    1.8190    2.2930    0.3140 C   0  0  0  0  0  0  0  0  0  0  0  0
    0.5030    2.5980    0.9700 C   0  0  0  0  0  0  0  0  0  0  0  0
    0.6420    2.6980    2.4750 C   0  0  0  0  0  0  0  0  0  0  0  0
   -0.6820    2.9920    2.9980 N   0  0  0  0  0  0  0  0  0  0  0  0
    0.7340    1.1080   -3.1100 C   0  0  0  0  0  0  0  0  0  0  0  0
    1.0910    0.0970   -3.7530 O   0  0  0  0  0  0  0  0  0  0  0  0
    0.2990    2.2160   -3.8050 O   0  0  0  0  0  0  0  0  0  0  0  0
    2.2460   -0.5050   -1.3500 H   0  0  0  0  0  0  0  0  0  0  0  0
   -0.2170    1.3270   -1.2770 H   0  0  0  0  0  0  0  0  0  0  0  0
    1.3150    3.1730   -1.5390 H   0  0  0  0  0  0  0  0  0  0  0  0
    2.6980    2.0840   -1.6700 H   0  0  0  0  0  0  0  0  0  0  0  0
    2.1820    1.3300    0.7700 H   0  0  0  0  0  0  0  0  0  0  0  0
    2.5740    3.0730    0.5410 H   0  0  0  0  0  0  0  0  0  0  0  0
    0.1880    3.6220    0.6220 H   0  0  0  0  0  0  0  0  0  0  0  0
   -0.3100    1.9190    0.6700 H   0  0  0  0  0  0  0  0  0  0  0  0
    1.2860    3.5490    2.7730 H   0  0  0  0  0  0  0  0  0  0  0  0
    1.0860    1.7890    2.9210 H   0  0  0  0  0  0  0  0  0  0  0  0
   -0.7910    2.6340    3.9750 H   0  0  0  0  0  0  0  0  0  0  0  0
   -1.4460    2.7130    2.3660 H   0  0  0  0  0  0  0  0  0  0  0  0
  1  2  1  0  0  0  0
  1  7  1  0  0  0  0
  2  9  1  6  0  0  0
  2  3  1  0  0  0  0
  3 10  1  0  0  0  0
  3 11  1  0  0  0  0
  4  5  2  0  0  0  0
  4  2  1  0  0  0  0
  6  1  1  0  0  0  0
  8  1  1  0  0  0  0
 12 18  1  0  0  0  0
 12 13  1  0  0  0  0
 13 20  1  1  0  0  0
 13 14  1  0  0  0  0
 14  4  1  0  0  0  0
 15 16  2  0  0  0  0
 15 13  1  0  0  0  0
 17 12  1  0  0  0  0
 19 12  1  0  0  0  0
 21 14  1  0  0  0  0
 22 15  1  0  0  0  0
 23 33  1  1  0  0  0
 23 24  1  0  0  0  0
 23 22  1  0  0  0  0
 24 25  1  0  0  0  0
 25 37  1  0  0  0  0
 25 36  1  0  0  0  0
 25 26  1  0  0  0  0
 26 27  1  0  0  0  0
 27 40  1  0  0  0  0
 27 41  1  0  0  0  0
 27 28  1  0  0  0  0
 28 42  1  0  0  0  0
 29 23  1  0  0  0  0
 30 29  1  0  0  0  0
 31 29  2  0  0  0  0
 32 22  1  0  0  0  0
 34 24  1  0  0  0  0
 35 24  1  0  0  0  0
 38 26  1  0  0  0  0
 39 26  1  0  0  0  0
 43 28  1  0  0  0  0
M  END
$$$$
