AAL.pdb
 OpenBabel07022417593D

 41 40  0  0  1  0  0  0  0  0999 V2000
   -4.6540    0.1450    1.6140 C   0  0  0  0  0  0  0  0  0  0  0  0
   -3.3470   -0.5900    1.5520 C   0  0  2  0  0  0  0  0  0  0  0  0
   -2.5840   -0.2780    2.7200 N   0  0  0  0  0  0  0  0  0  0  0  0
   -2.5960   -0.3350    0.3110 C   0  0  0  0  0  0  0  0  0  0  0  0
   -3.1270   -0.5590   -0.8070 O   0  0  0  0  0  0  0  0  0  0  0  0
   -5.2570    0.0540    0.6970 H   0  0  0  0  0  0  0  0  0  0  0  0
   -4.4980    1.2090    1.9160 H   0  0  0  0  0  0  0  0  0  0  0  0
   -5.2480   -0.3100    2.4600 H   0  0  0  0  0  0  0  0  0  0  0  0
   -3.5980   -1.6910    1.5630 H   0  0  0  0  0  0  0  0  0  0  0  0
   -1.7130   -0.8150    2.8250 H   0  0  0  0  0  0  0  0  0  0  0  0
   -3.1580   -0.1710    3.5610 H   0  0  0  0  0  0  0  0  0  0  0  0
   -0.0930    1.8790   -0.8900 C   0  0  0  0  0  0  0  0  0  0  0  0
   -0.5280    0.4150   -0.9150 C   0  0  2  0  0  0  0  0  0  0  0  0
   -1.2600    0.1660    0.3060 N   0  0  0  0  0  0  0  0  0  0  0  0
    0.6980   -0.4190   -0.9070 C   0  0  0  0  0  0  0  0  0  0  0  0
    1.5130   -0.3440   -1.8830 O   0  0  0  0  0  0  0  0  0  0  0  0
   -0.9710    2.4830   -1.2440 H   0  0  0  0  0  0  0  0  0  0  0  0
    0.7940    2.0490   -1.5000 H   0  0  0  0  0  0  0  0  0  0  0  0
    0.0680    2.1690    0.1620 H   0  0  0  0  0  0  0  0  0  0  0  0
   -1.1560    0.2160   -1.8120 H   0  0  0  0  0  0  0  0  0  0  0  0
   -0.8380    0.3500    1.2310 H   0  0  0  0  0  0  0  0  0  0  0  0
    2.5780    0.5530    1.7650 C   0  0  0  0  0  0  0  0  0  0  0  0
    3.5730   -0.5680    1.6070 C   0  0  0  0  0  0  0  0  0  0  0  0
    4.6180   -0.2440    0.5550 C   0  0  0  0  0  0  0  0  0  0  0  0
    2.9730   -1.9160    1.4320 C   0  0  0  0  0  0  0  0  0  0  0  0
    2.0920   -2.1130    0.2640 C   0  0  2  0  0  0  0  0  0  0  0  0
    0.9360   -1.2850    0.1910 N   0  0  0  0  0  0  0  0  0  0  0  0
    1.7430   -3.5700    0.1980 C   0  0  0  0  0  0  0  0  0  0  0  0
    0.5510   -3.9530    0.0910 O   0  0  0  0  0  0  0  0  0  0  0  0
    2.7150   -4.5570    0.2530 O   0  0  0  0  0  0  0  0  0  0  0  0
    1.6180    0.2040    2.1950 H   0  0  0  0  0  0  0  0  0  0  0  0
    2.9460    1.3320    2.4940 H   0  0  0  0  0  0  0  0  0  0  0  0
    2.4350    1.1330    0.8140 H   0  0  0  0  0  0  0  0  0  0  0  0
    4.1460   -0.6010    2.5830 H   0  0  0  0  0  0  0  0  0  0  0  0
    5.5490    0.1710    0.9960 H   0  0  0  0  0  0  0  0  0  0  0  0
    4.9120   -1.1210   -0.0420 H   0  0  0  0  0  0  0  0  0  0  0  0
    4.2090    0.5920   -0.0840 H   0  0  0  0  0  0  0  0  0  0  0  0
    2.4160   -2.1600    2.3710 H   0  0  0  0  0  0  0  0  0  0  0  0
    3.8030   -2.6490    1.3890 H   0  0  0  0  0  0  0  0  0  0  0  0
    2.7110   -1.9380   -0.6650 H   0  0  0  0  0  0  0  0  0  0  0  0
    0.2520   -1.3140    0.9470 H   0  0  0  0  0  0  0  0  0  0  0  0
  1  7  1  0  0  0  0
  1  8  1  0  0  0  0
  2  9  1  1  0  0  0
  2  1  1  0  0  0  0
  2  3  1  0  0  0  0
  3 10  1  0  0  0  0
  3 11  1  0  0  0  0
  4  2  1  0  0  0  0
  5  4  2  0  0  0  0
  6  1  1  0  0  0  0
 12 19  1  0  0  0  0
 13 20  1  6  0  0  0
 13 15  1  0  0  0  0
 13 12  1  0  0  0  0
 13 14  1  0  0  0  0
 14  4  1  0  0  0  0
 14 21  1  0  0  0  0
 15 27  1  0  0  0  0
 16 15  2  0  0  0  0
 17 12  1  0  0  0  0
 18 12  1  0  0  0  0
 22 31  1  0  0  0  0
 22 32  1  0  0  0  0
 23 22  1  0  0  0  0
 23 34  1  0  0  0  0
 24 35  1  0  0  0  0
 24 23  1  0  0  0  0
 25 23  1  0  0  0  0
 25 38  1  0  0  0  0
 26 40  1  6  0  0  0
 26 25  1  0  0  0  0
 27 26  1  0  0  0  0
 27 41  1  0  0  0  0
 28 30  1  0  0  0  0
 28 26  1  0  0  0  0
 29 28  2  0  0  0  0
 33 22  1  0  0  0  0
 36 24  1  0  0  0  0
 37 24  1  0  0  0  0
 39 25  1  0  0  0  0
M  END
$$$$
