AAM.pdb
 OpenBabel07022417593D

 39 38  0  0  1  0  0  0  0  0999 V2000
   -1.7350   -3.6050    4.1790 C   0  0  0  0  0  0  0  0  0  0  0  0
   -1.4560   -4.5390    3.0230 C   0  0  2  0  0  0  0  0  0  0  0  0
   -0.7630   -5.7220    3.4930 N   0  0  0  0  0  0  0  0  0  0  0  0
   -0.6860   -3.8590    1.9440 C   0  0  0  0  0  0  0  0  0  0  0  0
    0.4100   -4.2850    1.5170 O   0  0  0  0  0  0  0  0  0  0  0  0
   -2.4390   -2.8000    3.8400 H   0  0  0  0  0  0  0  0  0  0  0  0
   -0.8040   -3.1720    4.5630 H   0  0  0  0  0  0  0  0  0  0  0  0
   -2.2520   -4.2040    4.9560 H   0  0  0  0  0  0  0  0  0  0  0  0
   -2.4260   -4.8540    2.6050 H   0  0  0  0  0  0  0  0  0  0  0  0
   -0.2300   -6.1660    2.7140 H   0  0  0  0  0  0  0  0  0  0  0  0
   -1.4800   -6.4100    3.7880 H   0  0  0  0  0  0  0  0  0  0  0  0
   -1.3750   -2.0290   -0.9280 C   0  0  0  0  0  0  0  0  0  0  0  0
   -0.5120   -1.9640    0.3130 C   0  0  2  0  0  0  0  0  0  0  0  0
   -1.1990   -2.6710    1.3560 N   0  0  0  0  0  0  0  0  0  0  0  0
   -0.1700   -0.5770    0.6930 C   0  0  0  0  0  0  0  0  0  0  0  0
   -0.4940   -0.1610    1.8360 O   0  0  0  0  0  0  0  0  0  0  0  0
   -2.4450   -2.2380   -0.6370 H   0  0  0  0  0  0  0  0  0  0  0  0
   -1.0830   -2.8760   -1.5850 H   0  0  0  0  0  0  0  0  0  0  0  0
   -1.4140   -1.0590   -1.4660 H   0  0  0  0  0  0  0  0  0  0  0  0
    0.4290   -2.5160    0.0800 H   0  0  0  0  0  0  0  0  0  0  0  0
   -2.1220   -2.2560    1.6700 H   0  0  0  0  0  0  0  0  0  0  0  0
    3.4540    3.9930   -2.0530 C   0  0  0  0  0  0  0  0  0  0  0  0
    2.4540    4.4040   -0.5990 S   0  0  0  0  0  0  0  0  0  0  0  0
    2.7720    3.2140    0.7180 C   0  0  0  0  0  0  0  0  0  0  0  0
    2.2940    1.8640    0.3480 C   0  0  0  0  0  0  0  0  0  0  0  0
    0.8450    1.7040    0.2300 C   0  0  2  0  0  0  0  0  0  0  0  0
    0.5080    0.3160   -0.1670 N   0  0  0  0  0  0  0  0  0  0  0  0
    0.1260    2.6630   -0.5710 C   0  0  0  0  0  0  0  0  0  0  0  0
   -0.0220    3.8940   -0.3660 O   0  0  0  0  0  0  0  0  0  0  0  0
   -0.5340    2.2500   -1.7690 O   0  0  0  0  0  0  0  0  0  0  0  0
    3.5930    2.9150   -2.1880 H   0  0  0  0  0  0  0  0  0  0  0  0
    2.8870    4.3630   -2.9490 H   0  0  0  0  0  0  0  0  0  0  0  0
    4.4180    4.5400   -1.9850 H   0  0  0  0  0  0  0  0  0  0  0  0
    2.3060    3.5900    1.6760 H   0  0  0  0  0  0  0  0  0  0  0  0
    3.8870    3.1860    0.8730 H   0  0  0  0  0  0  0  0  0  0  0  0
    2.8510    1.5940   -0.6030 H   0  0  0  0  0  0  0  0  0  0  0  0
    2.7470    1.1130    1.0870 H   0  0  0  0  0  0  0  0  0  0  0  0
    0.4300    1.7880    1.2860 H   0  0  0  0  0  0  0  0  0  0  0  0
    0.7740   -0.0330   -1.1120 H   0  0  0  0  0  0  0  0  0  0  0  0
  1  7  1  0  0  0  0
  1  8  1  0  0  0  0
  2  9  1  6  0  0  0
  2  3  1  0  0  0  0
  2  1  1  0  0  0  0
  3 11  1  0  0  0  0
  4  2  1  0  0  0  0
  5  4  2  0  0  0  0
  6  1  1  0  0  0  0
 10  3  1  0  0  0  0
 12 17  1  0  0  0  0
 12 13  1  0  0  0  0
 13 20  1  6  0  0  0
 13 15  1  0  0  0  0
 13 14  1  0  0  0  0
 14 21  1  0  0  0  0
 14  4  1  0  0  0  0
 15 16  2  0  0  0  0
 18 12  1  0  0  0  0
 19 12  1  0  0  0  0
 22 33  1  0  0  0  0
 22 23  1  0  0  0  0
 23 24  1  0  0  0  0
 24 35  1  0  0  0  0
 24 34  1  0  0  0  0
 25 24  1  0  0  0  0
 25 37  1  0  0  0  0
 26 25  1  0  0  0  0
 26 38  1  1  0  0  0
 27 26  1  0  0  0  0
 27 15  1  0  0  0  0
 28 29  1  0  0  0  0
 28 26  1  0  0  0  0
 30 28  2  0  0  0  0
 31 22  1  0  0  0  0
 32 22  1  0  0  0  0
 36 25  1  0  0  0  0
 39 27  1  0  0  0  0
M  END
$$$$
