AAN.pdb
 OpenBabel07022417593D

 36 35  0  0  1  0  0  0  0  0999 V2000
   -2.2980   -2.1200    1.6050 C   0  0  0  0  0  0  0  0  0  0  0  0
   -2.3320   -2.7540    0.2240 C   0  0  2  0  0  0  0  0  0  0  0  0
   -2.7950   -4.1210    0.3610 N   0  0  0  0  0  0  0  0  0  0  0  0
   -1.0180   -2.6730   -0.4720 C   0  0  0  0  0  0  0  0  0  0  0  0
   -0.4720   -3.7390   -0.8410 O   0  0  0  0  0  0  0  0  0  0  0  0
   -2.6070   -1.0370    1.5610 H   0  0  0  0  0  0  0  0  0  0  0  0
   -1.3160   -2.2580    2.0760 H   0  0  0  0  0  0  0  0  0  0  0  0
   -3.0410   -2.6710    2.2410 H   0  0  0  0  0  0  0  0  0  0  0  0
   -3.0310   -2.1410   -0.4090 H   0  0  0  0  0  0  0  0  0  0  0  0
   -1.9710   -4.7500    0.3670 H   0  0  0  0  0  0  0  0  0  0  0  0
   -3.3630   -4.2750    1.2340 H   0  0  0  0  0  0  0  0  0  0  0  0
    0.6150   -0.5320   -2.6500 C   0  0  0  0  0  0  0  0  0  0  0  0
    0.8050   -1.2690   -1.3440 C   0  0  2  0  0  0  0  0  0  0  0  0
   -0.4710   -1.3880   -0.6710 N   0  0  0  0  0  0  0  0  0  0  0  0
    1.8310   -0.5850   -0.4770 C   0  0  0  0  0  0  0  0  0  0  0  0
    3.0040   -0.3930   -0.9060 O   0  0  0  0  0  0  0  0  0  0  0  0
   -0.4510   -0.5680   -2.9920 H   0  0  0  0  0  0  0  0  0  0  0  0
    1.1860   -1.0300   -3.4640 H   0  0  0  0  0  0  0  0  0  0  0  0
    0.8520    0.5480   -2.5840 H   0  0  0  0  0  0  0  0  0  0  0  0
    1.2100   -2.2710   -1.5910 H   0  0  0  0  0  0  0  0  0  0  0  0
   -0.9670   -0.5060   -0.3400 H   0  0  0  0  0  0  0  0  0  0  0  0
    0.2850    3.4120    0.9690 N   0  0  0  0  0  0  0  0  0  0  0  0
    1.5560    2.7820    1.0970 C   0  0  0  0  0  0  0  0  0  0  0  0
    2.4680    3.0680    0.2810 O   0  0  0  0  0  0  0  0  0  0  0  0
    1.7790    1.8170    2.1680 C   0  0  0  0  0  0  0  0  0  0  0  0
    2.3110    0.4790    1.7170 C   0  0  2  0  0  0  0  0  0  0  0  0
    1.4070   -0.1840    0.8100 N   0  0  0  0  0  0  0  0  0  0  0  0
    2.4930   -0.3640    2.9190 C   0  0  0  0  0  0  0  0  0  0  0  0
    3.2310    0.0350    3.8420 O   0  0  0  0  0  0  0  0  0  0  0  0
    1.8670   -1.5920    3.0530 O   0  0  0  0  0  0  0  0  0  0  0  0
    0.0010    3.7510    0.0360 H   0  0  0  0  0  0  0  0  0  0  0  0
   -0.3870    3.5580    1.7540 H   0  0  0  0  0  0  0  0  0  0  0  0
    2.5200    2.2030    2.9180 H   0  0  0  0  0  0  0  0  0  0  0  0
    0.8550    1.5920    2.7580 H   0  0  0  0  0  0  0  0  0  0  0  0
    3.3220    0.6260    1.2670 H   0  0  0  0  0  0  0  0  0  0  0  0
    0.4250   -0.3600    1.1290 H   0  0  0  0  0  0  0  0  0  0  0  0
  1  7  1  0  0  0  0
  1  8  1  0  0  0  0
  2  9  1  6  0  0  0
  2  3  1  0  0  0  0
  2  1  1  0  0  0  0
  3 10  1  0  0  0  0
  3 11  1  0  0  0  0
  4  2  1  0  0  0  0
  5  4  2  0  0  0  0
  6  1  1  0  0  0  0
 12 19  1  0  0  0  0
 12 13  1  0  0  0  0
 13 20  1  6  0  0  0
 13 14  1  0  0  0  0
 13 15  1  0  0  0  0
 14  4  1  0  0  0  0
 14 21  1  0  0  0  0
 15 27  1  0  0  0  0
 16 15  2  0  0  0  0
 17 12  1  0  0  0  0
 18 12  1  0  0  0  0
 22 23  1  0  0  0  0
 22 32  1  0  0  0  0
 23 25  1  0  0  0  0
 24 23  2  0  0  0  0
 25 34  1  0  0  0  0
 25 33  1  0  0  0  0
 26 35  1  6  0  0  0
 26 25  1  0  0  0  0
 26 28  1  0  0  0  0
 27 36  1  0  0  0  0
 27 26  1  0  0  0  0
 28 30  2  0  0  0  0
 28 29  1  0  0  0  0
 31 22  1  0  0  0  0
M  END
$$$$
