AAQ.pdb
 OpenBabel07022417593D

 39 38  0  0  1  0  0  0  0  0999 V2000
   -3.0400   -3.8940    1.8810 C   0  0  0  0  0  0  0  0  0  0  0  0
   -2.4010   -2.5450    1.7760 C   0  0  2  0  0  0  0  0  0  0  0  0
   -3.1950   -1.6610    0.9440 N   0  0  0  0  0  0  0  0  0  0  0  0
   -1.0340   -2.6850    1.2530 C   0  0  0  0  0  0  0  0  0  0  0  0
   -0.2140   -3.4170    1.8540 O   0  0  0  0  0  0  0  0  0  0  0  0
   -3.4900   -4.0110    2.8940 H   0  0  0  0  0  0  0  0  0  0  0  0
   -3.8480   -4.0580    1.1230 H   0  0  0  0  0  0  0  0  0  0  0  0
   -2.2580   -4.6660    1.8060 H   0  0  0  0  0  0  0  0  0  0  0  0
   -2.3300   -2.0820    2.7860 H   0  0  0  0  0  0  0  0  0  0  0  0
   -2.7650   -0.7390    0.8170 H   0  0  0  0  0  0  0  0  0  0  0  0
   -3.3520   -2.1410    0.0110 H   0  0  0  0  0  0  0  0  0  0  0  0
    0.7150   -2.6970   -1.8430 C   0  0  0  0  0  0  0  0  0  0  0  0
    0.7290   -2.1650   -0.4070 C   0  0  2  0  0  0  0  0  0  0  0  0
   -0.6210   -2.0070    0.0790 N   0  0  0  0  0  0  0  0  0  0  0  0
    1.4540   -0.8460   -0.4430 C   0  0  0  0  0  0  0  0  0  0  0  0
    2.6370   -0.9000   -0.8510 O   0  0  0  0  0  0  0  0  0  0  0  0
   -0.3380   -3.0200   -2.0910 H   0  0  0  0  0  0  0  0  0  0  0  0
    0.9540   -1.9000   -2.5620 H   0  0  0  0  0  0  0  0  0  0  0  0
    1.3440   -3.5840   -1.8990 H   0  0  0  0  0  0  0  0  0  0  0  0
    1.3230   -2.8320    0.2250 H   0  0  0  0  0  0  0  0  0  0  0  0
   -1.2880   -1.3960   -0.4330 H   0  0  0  0  0  0  0  0  0  0  0  0
    0.4860    2.4810    4.1040 N   0  0  0  0  0  0  0  0  0  0  0  0
    1.0700    2.5260    2.8190 C   0  0  0  0  0  0  0  0  0  0  0  0
    0.7330    3.4580    2.0600 O   0  0  0  0  0  0  0  0  0  0  0  0
    2.0350    1.5290    2.3710 C   0  0  0  0  0  0  0  0  0  0  0  0
    2.5280    1.6770    0.9710 C   0  0  0  0  0  0  0  0  0  0  0  0
    1.4700    1.5960   -0.0700 C   0  0  2  0  0  0  0  0  0  0  0  0
    0.7840    0.3300   -0.0310 N   0  0  0  0  0  0  0  0  0  0  0  0
    2.0320    1.7800   -1.4570 C   0  0  0  0  0  0  0  0  0  0  0  0
    1.8520    0.9770   -2.3960 O   0  0  0  0  0  0  0  0  0  0  0  0
    2.8000    2.9050   -1.7270 O   0  0  0  0  0  0  0  0  0  0  0  0
    1.0480    2.5550    4.9790 H   0  0  0  0  0  0  0  0  0  0  0  0
   -0.5440    2.3700    4.2100 H   0  0  0  0  0  0  0  0  0  0  0  0
    1.6630    0.4870    2.4950 H   0  0  0  0  0  0  0  0  0  0  0  0
    2.9560    1.5590    3.0290 H   0  0  0  0  0  0  0  0  0  0  0  0
    3.2680    0.8450    0.8090 H   0  0  0  0  0  0  0  0  0  0  0  0
    3.1580    2.6070    0.8660 H   0  0  0  0  0  0  0  0  0  0  0  0
    0.7030    2.4080   -0.0030 H   0  0  0  0  0  0  0  0  0  0  0  0
   -0.2090    0.3070    0.3070 H   0  0  0  0  0  0  0  0  0  0  0  0
  1  6  1  0  0  0  0
  2  1  1  0  0  0  0
  2  9  1  1  0  0  0
  3  2  1  0  0  0  0
  4  2  1  0  0  0  0
  4  5  2  0  0  0  0
  7  1  1  0  0  0  0
  8  1  1  0  0  0  0
 10  3  1  0  0  0  0
 11  3  1  0  0  0  0
 12 13  1  0  0  0  0
 13 14  1  0  0  0  0
 13 20  1  1  0  0  0
 14  4  1  0  0  0  0
 15 13  1  0  0  0  0
 15 28  1  0  0  0  0
 16 15  2  0  0  0  0
 17 12  1  0  0  0  0
 18 12  1  0  0  0  0
 19 12  1  0  0  0  0
 21 14  1  0  0  0  0
 22 33  1  0  0  0  0
 22 32  1  0  0  0  0
 23 22  1  0  0  0  0
 24 23  2  0  0  0  0
 25 34  1  0  0  0  0
 25 23  1  0  0  0  0
 25 35  1  0  0  0  0
 26 25  1  0  0  0  0
 27 28  1  0  0  0  0
 27 38  1  1  0  0  0
 27 26  1  0  0  0  0
 28 39  1  0  0  0  0
 29 27  1  0  0  0  0
 30 29  2  0  0  0  0
 31 29  1  0  0  0  0
 36 26  1  0  0  0  0
 37 26  1  0  0  0  0
M  END
$$$$
