AAR.pdb
 OpenBabel07022417593D

 45 44  0  0  1  0  0  0  0  0999 V2000
   -1.8820   -4.8160   -3.7150 C   0  0  0  0  0  0  0  0  0  0  0  0
   -0.4000   -4.8440   -3.4610 C   0  0  2  0  0  0  0  0  0  0  0  0
   -0.1110   -6.0060   -2.6300 N   0  0  0  0  0  0  0  0  0  0  0  0
    0.0710   -3.6470   -2.7150 C   0  0  0  0  0  0  0  0  0  0  0  0
    0.6260   -3.7440   -1.5700 O   0  0  0  0  0  0  0  0  0  0  0  0
   -2.3420   -4.1160   -2.9670 H   0  0  0  0  0  0  0  0  0  0  0  0
   -2.1290   -4.3710   -4.7150 H   0  0  0  0  0  0  0  0  0  0  0  0
   -2.2930   -5.8150   -3.5780 H   0  0  0  0  0  0  0  0  0  0  0  0
    0.0920   -4.9240   -4.4540 H   0  0  0  0  0  0  0  0  0  0  0  0
    0.8400   -5.8960   -2.1710 H   0  0  0  0  0  0  0  0  0  0  0  0
   -0.8100   -5.9980   -1.8470 H   0  0  0  0  0  0  0  0  0  0  0  0
    1.5550   -0.5380   -3.2480 C   0  0  0  0  0  0  0  0  0  0  0  0
    0.4250   -1.1770   -2.4300 C   0  0  2  0  0  0  0  0  0  0  0  0
   -0.0540   -2.3170   -3.2050 N   0  0  0  0  0  0  0  0  0  0  0  0
   -0.7140   -0.2360   -2.2790 C   0  0  0  0  0  0  0  0  0  0  0  0
   -1.8470   -0.4540   -2.7800 O   0  0  0  0  0  0  0  0  0  0  0  0
    2.4310   -1.2060   -3.1160 H   0  0  0  0  0  0  0  0  0  0  0  0
    1.8160    0.4570   -2.8300 H   0  0  0  0  0  0  0  0  0  0  0  0
    1.3070   -0.5220   -4.3160 H   0  0  0  0  0  0  0  0  0  0  0  0
    0.8680   -1.4780   -1.4810 H   0  0  0  0  0  0  0  0  0  0  0  0
   -0.5010   -2.1890   -4.1360 H   0  0  0  0  0  0  0  0  0  0  0  0
    1.5000    1.9450    3.2750 N   0  0  0  0  0  0  0  0  0  0  0  0
    0.2720    1.2570    2.9970 C   0  0  0  0  0  0  0  0  0  0  0  0
   -0.6010    1.2140    3.9270 N   0  0  0  0  0  0  0  0  0  0  0  0
    0.0880    0.6640    1.7190 N   0  0  0  0  0  0  0  0  0  0  0  0
   -1.2140    0.2410    1.2930 C   0  0  0  0  0  0  0  0  0  0  0  0
   -2.1850    1.3270    1.0380 C   0  0  0  0  0  0  0  0  0  0  0  0
   -1.8690    2.3390    0.0180 C   0  0  0  0  0  0  0  0  0  0  0  0
   -1.6710    1.9220   -1.3820 C   0  0  2  0  0  0  0  0  0  0  0  0
   -0.5760    0.9970   -1.5380 N   0  0  0  0  0  0  0  0  0  0  0  0
   -1.4420    3.1420   -2.2540 C   0  0  0  0  0  0  0  0  0  0  0  0
   -0.4140    3.2290   -2.9640 O   0  0  0  0  0  0  0  0  0  0  0  0
   -2.3760    4.1610   -2.2640 O   0  0  0  0  0  0  0  0  0  0  0  0
    2.2890    1.3640    3.6450 H   0  0  0  0  0  0  0  0  0  0  0  0
    1.6550    2.9570    3.1370 H   0  0  0  0  0  0  0  0  0  0  0  0
   -1.5230    0.7760    3.9170 H   0  0  0  0  0  0  0  0  0  0  0  0
    0.9440    0.5540    1.1160 H   0  0  0  0  0  0  0  0  0  0  0  0
   -1.6250   -0.3470    2.1850 H   0  0  0  0  0  0  0  0  0  0  0  0
   -1.1940   -0.5070    0.4810 H   0  0  0  0  0  0  0  0  0  0  0  0
   -3.1890    0.8730    0.7970 H   0  0  0  0  0  0  0  0  0  0  0  0
   -2.3910    1.8990    1.9970 H   0  0  0  0  0  0  0  0  0  0  0  0
   -1.0180    2.9820    0.4020 H   0  0  0  0  0  0  0  0  0  0  0  0
   -2.7370    3.0760    0.0260 H   0  0  0  0  0  0  0  0  0  0  0  0
   -2.6210    1.4510   -1.7670 H   0  0  0  0  0  0  0  0  0  0  0  0
    0.3720    1.1500   -1.1350 H   0  0  0  0  0  0  0  0  0  0  0  0
  1  8  1  0  0  0  0
  1  2  1  0  0  0  0
  1  6  1  0  0  0  0
  2  9  1  6  0  0  0
  2  4  1  0  0  0  0
  2  3  1  0  0  0  0
  3 10  1  0  0  0  0
  3 11  1  0  0  0  0
  4  5  2  0  0  0  0
  7  1  1  0  0  0  0
 12 17  1  0  0  0  0
 12 18  1  0  0  0  0
 12 13  1  0  0  0  0
 13 15  1  0  0  0  0
 13 20  1  1  0  0  0
 14  4  1  0  0  0  0
 14 13  1  0  0  0  0
 15 30  1  0  0  0  0
 16 15  2  0  0  0  0
 19 12  1  0  0  0  0
 21 14  1  0  0  0  0
 22 34  1  0  0  0  0
 23 22  1  0  0  0  0
 23 24  2  0  0  0  0
 25 23  1  0  0  0  0
 26 25  1  0  0  0  0
 26 38  1  0  0  0  0
 27 26  1  0  0  0  0
 27 41  1  0  0  0  0
 28 43  1  0  0  0  0
 28 42  1  0  0  0  0
 28 27  1  0  0  0  0
 29 44  1  6  0  0  0
 29 28  1  0  0  0  0
 30 29  1  0  0  0  0
 30 45  1  0  0  0  0
 31 29  1  0  0  0  0
 32 31  2  0  0  0  0
 33 31  1  0  0  0  0
 35 22  1  0  0  0  0
 36 24  1  0  0  0  0
 37 25  1  0  0  0  0
 39 26  1  0  0  0  0
 40 27  1  0  0  0  0
M  END
$$$$
