AAY.pdb
 OpenBabel07022417593D

 43 43  0  0  1  0  0  0  0  0999 V2000
    3.0950   -0.8100    1.5180 C   0  0  0  0  0  0  0  0  0  0  0  0
    3.7700   -0.9300    0.1920 C   0  0  2  0  0  0  0  0  0  0  0  0
    4.9630   -0.1170    0.1680 N   0  0  0  0  0  0  0  0  0  0  0  0
    2.9150   -0.5760   -0.9580 C   0  0  0  0  0  0  0  0  0  0  0  0
    3.3090    0.2820   -1.7680 O   0  0  0  0  0  0  0  0  0  0  0  0
    3.0940    0.1860    1.9610 H   0  0  0  0  0  0  0  0  0  0  0  0
    3.6630   -1.4770    2.2260 H   0  0  0  0  0  0  0  0  0  0  0  0
    2.0680   -1.2660    1.4900 H   0  0  0  0  0  0  0  0  0  0  0  0
    4.0790   -1.9920    0.0720 H   0  0  0  0  0  0  0  0  0  0  0  0
    4.6520    0.8690   -0.0600 H   0  0  0  0  0  0  0  0  0  0  0  0
    5.4140   -0.1350    1.1200 H   0  0  0  0  0  0  0  0  0  0  0  0
    0.4910   -1.9970   -3.1730 C   0  0  0  0  0  0  0  0  0  0  0  0
    0.8220   -0.8180   -2.3180 C   0  0  2  0  0  0  0  0  0  0  0  0
    1.6440   -1.1780   -1.1840 N   0  0  0  0  0  0  0  0  0  0  0  0
   -0.4110   -0.0910   -1.8670 C   0  0  0  0  0  0  0  0  0  0  0  0
   -1.2680    0.2940   -2.6990 O   0  0  0  0  0  0  0  0  0  0  0  0
   -0.0910   -1.6170   -4.0590 H   0  0  0  0  0  0  0  0  0  0  0  0
   -0.0470   -2.7940   -2.6380 H   0  0  0  0  0  0  0  0  0  0  0  0
    1.4260   -2.4100   -3.5990 H   0  0  0  0  0  0  0  0  0  0  0  0
    1.3720   -0.0780   -2.9360 H   0  0  0  0  0  0  0  0  0  0  0  0
    1.3400   -1.8920   -0.4860 H   0  0  0  0  0  0  0  0  0  0  0  0
    0.0440   -1.9490    5.6010 O   0  0  0  0  0  0  0  0  0  0  0  0
   -0.6060   -1.4680    4.4470 C   0  0  0  0  0  0  0  0  0  0  0  0
   -0.6310   -2.2070    3.2850 C   0  0  0  0  0  0  0  0  0  0  0  0
   -1.2600   -1.7640    2.1370 C   0  0  0  0  0  0  0  0  0  0  0  0
   -1.8870   -0.5400    2.1460 C   0  0  0  0  0  0  0  0  0  0  0  0
   -2.5690   -0.0060    0.9730 C   0  0  0  0  0  0  0  0  0  0  0  0
   -1.6990    0.8230    0.0690 C   0  0  2  0  0  0  0  0  0  0  0  0
   -0.5710    0.1430   -0.4750 N   0  0  0  0  0  0  0  0  0  0  0  0
   -1.3460    2.1380    0.6760 C   0  0  0  0  0  0  0  0  0  0  0  0
   -0.1510    2.5650    0.6840 O   0  0  0  0  0  0  0  0  0  0  0  0
   -1.8590    0.1930    3.3100 C   0  0  0  0  0  0  0  0  0  0  0  0
   -1.2360   -0.2420    4.4530 C   0  0  0  0  0  0  0  0  0  0  0  0
   -2.2840    2.9660    1.2620 O   0  0  0  0  0  0  0  0  0  0  0  0
    0.9050   -1.4240    5.8250 H   0  0  0  0  0  0  0  0  0  0  0  0
   -0.1360   -3.1710    3.2870 H   0  0  0  0  0  0  0  0  0  0  0  0
   -1.2660   -2.3690    1.2260 H   0  0  0  0  0  0  0  0  0  0  0  0
   -3.4320    0.6610    1.2580 H   0  0  0  0  0  0  0  0  0  0  0  0
   -3.0400   -0.8490    0.4260 H   0  0  0  0  0  0  0  0  0  0  0  0
   -2.3730    1.0950   -0.8010 H   0  0  0  0  0  0  0  0  0  0  0  0
    0.1850   -0.2050    0.1580 H   0  0  0  0  0  0  0  0  0  0  0  0
   -2.3470    1.1670    3.3490 H   0  0  0  0  0  0  0  0  0  0  0  0
   -1.2260    0.3500    5.3610 H   0  0  0  0  0  0  0  0  0  0  0  0
  1  6  1  0  0  0  0
  1  7  1  0  0  0  0
  2  9  1  6  0  0  0
  2  1  1  0  0  0  0
  3  2  1  0  0  0  0
  3 11  1  0  0  0  0
  4  2  1  0  0  0  0
  5  4  2  0  0  0  0
  8  1  1  0  0  0  0
 10  3  1  0  0  0  0
 12 18  1  0  0  0  0
 12 13  1  0  0  0  0
 13 20  1  6  0  0  0
 13 15  1  0  0  0  0
 13 14  1  0  0  0  0
 14  4  1  0  0  0  0
 14 21  1  0  0  0  0
 15 29  1  0  0  0  0
 16 15  2  0  0  0  0
 17 12  1  0  0  0  0
 19 12  1  0  0  0  0
 22 35  1  0  0  0  0
 23 33  1  0  0  0  0
 23 22  1  0  0  0  0
 24 36  1  0  0  0  0
 24 23  2  0  0  0  0
 25 26  2  0  0  0  0
 25 24  1  0  0  0  0
 26 32  1  0  0  0  0
 27 38  1  0  0  0  0
 27 26  1  0  0  0  0
 28 40  1  6  0  0  0
 28 30  1  0  0  0  0
 28 27  1  0  0  0  0
 29 28  1  0  0  0  0
 29 41  1  0  0  0  0
 30 31  2  0  0  0  0
 30 34  1  0  0  0  0
 32 42  1  0  0  0  0
 32 33  2  0  0  0  0
 33 43  1  0  0  0  0
 37 25  1  0  0  0  0
 39 27  1  0  0  0  0
M  END
$$$$
