ACA.pdb
 OpenBabel07022418003D

 33 32  0  0  1  0  0  0  0  0999 V2000
   -1.5860   -3.9440   -1.1810 C   0  0  0  0  0  0  0  0  0  0  0  0
   -2.6580   -3.1290   -0.5260 C   0  0  2  0  0  0  0  0  0  0  0  0
   -3.8570   -3.0730   -1.3420 N   0  0  0  0  0  0  0  0  0  0  0  0
   -2.2020   -1.7720   -0.1450 C   0  0  0  0  0  0  0  0  0  0  0  0
   -2.8140   -0.7350   -0.5080 O   0  0  0  0  0  0  0  0  0  0  0  0
   -0.8080   -3.3230   -1.6750 H   0  0  0  0  0  0  0  0  0  0  0  0
   -1.0820   -4.6340   -0.4580 H   0  0  0  0  0  0  0  0  0  0  0  0
   -2.0780   -4.6050   -1.9240 H   0  0  0  0  0  0  0  0  0  0  0  0
   -2.9500   -3.6760    0.4160 H   0  0  0  0  0  0  0  0  0  0  0  0
   -4.3670   -3.9730   -1.2020 H   0  0  0  0  0  0  0  0  0  0  0  0
   -4.4610   -2.2870   -1.0300 H   0  0  0  0  0  0  0  0  0  0  0  0
   -1.0370   -1.6170    0.6560 N   0  0  0  0  0  0  0  0  0  0  0  0
   -0.5190   -0.3530    1.0750 C   0  0  1  0  0  0  0  0  0  0  0  0
   -0.5590   -0.1690    2.5730 C   0  0  0  0  0  0  0  0  0  0  0  0
   -2.2350   -0.2670    3.2210 S   0  0  0  0  0  0  0  0  0  0  0  0
    0.8250   -0.0650    0.5140 C   0  0  0  0  0  0  0  0  0  0  0  0
    1.4290   -0.8700   -0.2450 O   0  0  0  0  0  0  0  0  0  0  0  0
   -0.5060   -2.4840    0.9720 H   0  0  0  0  0  0  0  0  0  0  0  0
   -1.1960    0.4470    0.6550 H   0  0  0  0  0  0  0  0  0  0  0  0
   -0.1550    0.8290    2.8340 H   0  0  0  0  0  0  0  0  0  0  0  0
    0.1260   -0.9070    3.0730 H   0  0  0  0  0  0  0  0  0  0  0  0
   -2.2690   -1.2850    4.1910 H   0  0  0  0  0  0  0  0  0  0  0  0
    2.6930    2.7840   -0.4960 C   0  0  0  0  0  0  0  0  0  0  0  0
    2.7980    1.4780    0.2970 C   0  0  2  0  0  0  0  0  0  0  0  0
    1.4820    1.1560    0.8260 N   0  0  0  0  0  0  0  0  0  0  0  0
    3.7300    1.7450    1.4140 C   0  0  0  0  0  0  0  0  0  0  0  0
    4.9230    2.0440    1.1450 O   0  0  0  0  0  0  0  0  0  0  0  0
    3.2580    1.6580    2.7120 O   0  0  0  0  0  0  0  0  0  0  0  0
    2.5440    3.5980    0.2530 H   0  0  0  0  0  0  0  0  0  0  0  0
    3.6420    2.9300   -1.0410 H   0  0  0  0  0  0  0  0  0  0  0  0
    1.8630    2.6700   -1.1920 H   0  0  0  0  0  0  0  0  0  0  0  0
    3.1710    0.6530   -0.3620 H   0  0  0  0  0  0  0  0  0  0  0  0
    0.9740    1.8120    1.4540 H   0  0  0  0  0  0  0  0  0  0  0  0
  1  2  1  0  0  0  0
  1  7  1  0  0  0  0
  2  4  1  0  0  0  0
  2  9  1  1  0  0  0
  3 10  1  0  0  0  0
  3 11  1  0  0  0  0
  3  2  1  0  0  0  0
  4 12  1  0  0  0  0
  5  4  2  0  0  0  0
  6  1  1  0  0  0  0
  8  1  1  0  0  0  0
 12 18  1  0  0  0  0
 12 13  1  0  0  0  0
 13 19  1  6  0  0  0
 13 14  1  0  0  0  0
 14 20  1  0  0  0  0
 14 21  1  0  0  0  0
 14 15  1  0  0  0  0
 15 22  1  0  0  0  0
 16 25  1  0  0  0  0
 16 13  1  0  0  0  0
 17 16  2  0  0  0  0
 23 29  1  0  0  0  0
 23 24  1  0  0  0  0
 24 32  1  6  0  0  0
 24 25  1  0  0  0  0
 24 26  1  0  0  0  0
 25 33  1  0  0  0  0
 26 28  1  0  0  0  0
 27 26  2  0  0  0  0
 30 23  1  0  0  0  0
 31 23  1  0  0  0  0
M  END
$$$$
