ACC.pdb
 OpenBabel07022418003D

 34 33  0  0  1  0  0  0  0  0999 V2000
   -0.0080   -2.0060    3.2690 C   0  0  0  0  0  0  0  0  0  0  0  0
    1.3530   -2.4810    2.8150 C   0  0  2  0  0  0  0  0  0  0  0  0
    2.2460   -2.4350    3.9590 N   0  0  0  0  0  0  0  0  0  0  0  0
    1.9290   -1.5980    1.7680 C   0  0  0  0  0  0  0  0  0  0  0  0
    3.0010   -0.9630    1.9310 O   0  0  0  0  0  0  0  0  0  0  0  0
   -0.8070   -2.4630    2.6200 H   0  0  0  0  0  0  0  0  0  0  0  0
   -0.2000   -2.3920    4.2940 H   0  0  0  0  0  0  0  0  0  0  0  0
   -0.1300   -0.9080    3.1910 H   0  0  0  0  0  0  0  0  0  0  0  0
    1.2150   -3.5210    2.4430 H   0  0  0  0  0  0  0  0  0  0  0  0
    3.2190   -2.3260    3.5710 H   0  0  0  0  0  0  0  0  0  0  0  0
    2.2390   -3.4220    4.3580 H   0  0  0  0  0  0  0  0  0  0  0  0
    1.2610   -1.4510    0.5340 N   0  0  0  0  0  0  0  0  0  0  0  0
    1.7020   -0.6390   -0.5510 C   0  0  1  0  0  0  0  0  0  0  0  0
    2.0420   -1.5240   -1.7180 C   0  0  0  0  0  0  0  0  0  0  0  0
    0.6500   -2.4990   -2.2900 S   0  0  0  0  0  0  0  0  0  0  0  0
    0.7720    0.4540   -0.8990 C   0  0  0  0  0  0  0  0  0  0  0  0
    1.0510    1.2420   -1.8410 O   0  0  0  0  0  0  0  0  0  0  0  0
    0.3590   -1.9890    0.4040 H   0  0  0  0  0  0  0  0  0  0  0  0
    2.6630   -0.1520   -0.2330 H   0  0  0  0  0  0  0  0  0  0  0  0
    2.8440   -2.2150   -1.3790 H   0  0  0  0  0  0  0  0  0  0  0  0
    2.4910   -0.9210   -2.5510 H   0  0  0  0  0  0  0  0  0  0  0  0
   -0.5660   -1.8290   -2.2250 H   0  0  0  0  0  0  0  0  0  0  0  0
   -0.4590    0.6930   -0.2250 N   0  0  0  0  0  0  0  0  0  0  0  0
   -1.3630    1.7700   -0.5780 C   0  0  1  0  0  0  0  0  0  0  0  0
   -2.6870    1.2700   -1.0910 C   0  0  0  0  0  0  0  0  0  0  0  0
   -3.5720    0.2610    0.0950 S   0  0  0  0  0  0  0  0  0  0  0  0
   -1.5030    2.7220    0.5280 C   0  0  0  0  0  0  0  0  0  0  0  0
   -2.2250    3.7430    0.4840 O   0  0  0  0  0  0  0  0  0  0  0  0
   -0.7880    2.4850    1.7130 O   0  0  0  0  0  0  0  0  0  0  0  0
   -0.7010    0.0510    0.5530 H   0  0  0  0  0  0  0  0  0  0  0  0
   -0.8770    2.3080   -1.4360 H   0  0  0  0  0  0  0  0  0  0  0  0
   -3.3090    2.1850   -1.2820 H   0  0  0  0  0  0  0  0  0  0  0  0
   -2.5810    0.7750   -2.0690 H   0  0  0  0  0  0  0  0  0  0  0  0
   -4.6870   -0.3070   -0.5590 H   0  0  0  0  0  0  0  0  0  0  0  0
  1  7  1  0  0  0  0
  2  9  1  6  0  0  0
  2  1  1  0  0  0  0
  2  3  1  0  0  0  0
  3 11  1  0  0  0  0
  4  5  2  0  0  0  0
  4  2  1  0  0  0  0
  6  1  1  0  0  0  0
  8  1  1  0  0  0  0
 10  3  1  0  0  0  0
 12  4  1  0  0  0  0
 13 19  1  1  0  0  0
 13 12  1  0  0  0  0
 14 20  1  0  0  0  0
 14 13  1  0  0  0  0
 15 22  1  0  0  0  0
 15 14  1  0  0  0  0
 16 13  1  0  0  0  0
 16 23  1  0  0  0  0
 17 16  2  0  0  0  0
 18 12  1  0  0  0  0
 21 14  1  0  0  0  0
 23 30  1  0  0  0  0
 24 31  1  6  0  0  0
 24 23  1  0  0  0  0
 24 27  1  0  0  0  0
 25 24  1  0  0  0  0
 25 26  1  0  0  0  0
 27 29  1  0  0  0  0
 28 27  2  0  0  0  0
 32 25  1  0  0  0  0
 33 25  1  0  0  0  0
 34 26  1  0  0  0  0
M  END
$$$$
