ACE.pdb
 OpenBabel07022418003D

 39 38  0  0  1  0  0  0  0  0999 V2000
    0.8250   -3.7290    2.4170 C   0  0  0  0  0  0  0  0  0  0  0  0
   -0.5590   -4.0710    1.9190 C   0  0  2  0  0  0  0  0  0  0  0  0
   -0.6210   -5.4440    1.4620 N   0  0  0  0  0  0  0  0  0  0  0  0
   -1.0420   -3.1910    0.8640 C   0  0  0  0  0  0  0  0  0  0  0  0
   -1.4230   -3.6650   -0.2220 O   0  0  0  0  0  0  0  0  0  0  0  0
    1.2020   -4.6160    3.0040 H   0  0  0  0  0  0  0  0  0  0  0  0
    1.5200   -3.6300    1.5640 H   0  0  0  0  0  0  0  0  0  0  0  0
    0.8010   -2.8400    3.0750 H   0  0  0  0  0  0  0  0  0  0  0  0
   -1.2700   -3.9990    2.7800 H   0  0  0  0  0  0  0  0  0  0  0  0
    0.1050   -6.0430    1.9120 H   0  0  0  0  0  0  0  0  0  0  0  0
   -0.5280   -5.4260    0.4180 H   0  0  0  0  0  0  0  0  0  0  0  0
   -1.1010   -1.7620    1.0190 N   0  0  0  0  0  0  0  0  0  0  0  0
   -1.5770   -0.8920   -0.0210 C   0  0  1  0  0  0  0  0  0  0  0  0
   -2.8200   -0.1290    0.3950 C   0  0  0  0  0  0  0  0  0  0  0  0
   -3.3250    0.9270   -0.9840 S   0  0  0  0  0  0  0  0  0  0  0  0
   -0.5110    0.0710   -0.4560 C   0  0  0  0  0  0  0  0  0  0  0  0
   -0.7200    0.9200   -1.3570 O   0  0  0  0  0  0  0  0  0  0  0  0
   -0.7680   -1.4100    1.9520 H   0  0  0  0  0  0  0  0  0  0  0  0
   -1.8610   -1.5210   -0.8900 H   0  0  0  0  0  0  0  0  0  0  0  0
   -2.6380    0.4970    1.2920 H   0  0  0  0  0  0  0  0  0  0  0  0
   -3.6100   -0.8740    0.6160 H   0  0  0  0  0  0  0  0  0  0  0  0
   -3.7920    2.1790   -0.5220 H   0  0  0  0  0  0  0  0  0  0  0  0
    0.7740    0.0460    0.1460 N   0  0  0  0  0  0  0  0  0  0  0  0
    1.8350    0.9530   -0.2400 C   0  0  1  0  0  0  0  0  0  0  0  0
    2.4460    1.6630    0.9170 C   0  0  0  0  0  0  0  0  0  0  0  0
    1.5150    2.5070    1.7190 C   0  0  0  0  0  0  0  0  0  0  0  0
    0.8730    3.5850    0.9810 C   0  0  0  0  0  0  0  0  0  0  0  0
    1.1230    3.7620   -0.2300 O   0  0  0  0  0  0  0  0  0  0  0  0
    2.9230    0.1400   -0.8750 C   0  0  0  0  0  0  0  0  0  0  0  0
    2.8110   -1.0880   -0.9910 O   0  0  0  0  0  0  0  0  0  0  0  0
   -0.0260    4.4430    1.5870 O   0  0  0  0  0  0  0  0  0  0  0  0
    4.0870    0.7460   -1.3520 O   0  0  0  0  0  0  0  0  0  0  0  0
    0.9750   -0.6400    0.8880 H   0  0  0  0  0  0  0  0  0  0  0  0
    1.4610    1.6140   -1.0360 H   0  0  0  0  0  0  0  0  0  0  0  0
    3.2450    2.3370    0.4870 H   0  0  0  0  0  0  0  0  0  0  0  0
    3.0040    0.9250    1.5190 H   0  0  0  0  0  0  0  0  0  0  0  0
    0.7660    1.8170    2.1850 H   0  0  0  0  0  0  0  0  0  0  0  0
    2.0540    2.9590    2.5820 H   0  0  0  0  0  0  0  0  0  0  0  0
   -0.7440    4.8680    0.9800 H   0  0  0  0  0  0  0  0  0  0  0  0
  1  6  1  0  0  0  0
  1  8  1  0  0  0  0
  2  1  1  0  0  0  0
  2  9  1  1  0  0  0
  3 10  1  0  0  0  0
  3  2  1  0  0  0  0
  4 12  1  0  0  0  0
  4  2  1  0  0  0  0
  5  4  2  0  0  0  0
  7  1  1  0  0  0  0
 11  3  1  0  0  0  0
 12 18  1  0  0  0  0
 13 19  1  6  0  0  0
 13 14  1  0  0  0  0
 13 12  1  0  0  0  0
 14 21  1  0  0  0  0
 14 20  1  0  0  0  0
 15 22  1  0  0  0  0
 15 14  1  0  0  0  0
 16 13  1  0  0  0  0
 16 23  1  0  0  0  0
 17 16  2  0  0  0  0
 23 33  1  0  0  0  0
 24 34  1  6  0  0  0
 24 23  1  0  0  0  0
 24 25  1  0  0  0  0
 25 36  1  0  0  0  0
 25 26  1  0  0  0  0
 26 37  1  0  0  0  0
 26 38  1  0  0  0  0
 27 31  1  0  0  0  0
 27 26  1  0  0  0  0
 28 27  2  0  0  0  0
 29 24  1  0  0  0  0
 30 29  1  0  0  0  0
 32 29  2  0  0  0  0
 35 25  1  0  0  0  0
 39 31  1  0  0  0  0
M  END
$$$$
