ACF.pdb
 OpenBabel07022418003D

 43 43  0  0  1  0  0  0  0  0999 V2000
    4.1850   -1.4140    2.0390 C   0  0  0  0  0  0  0  0  0  0  0  0
    4.3300   -1.8370    0.5980 C   0  0  2  0  0  0  0  0  0  0  0  0
    5.6910   -1.6260    0.1700 N   0  0  0  0  0  0  0  0  0  0  0  0
    3.3990   -1.1370   -0.2920 C   0  0  0  0  0  0  0  0  0  0  0  0
    3.8480   -0.4810   -1.2560 O   0  0  0  0  0  0  0  0  0  0  0  0
    5.0280   -1.8300    2.6260 H   0  0  0  0  0  0  0  0  0  0  0  0
    4.1640   -0.3210    2.1480 H   0  0  0  0  0  0  0  0  0  0  0  0
    3.2480   -1.8640    2.4160 H   0  0  0  0  0  0  0  0  0  0  0  0
    4.1040   -2.9340    0.5430 H   0  0  0  0  0  0  0  0  0  0  0  0
    6.1650   -2.5210   -0.0960 H   0  0  0  0  0  0  0  0  0  0  0  0
    6.2570   -1.2200    0.9500 H   0  0  0  0  0  0  0  0  0  0  0  0
    1.9860   -1.1540   -0.1300 N   0  0  0  0  0  0  0  0  0  0  0  0
    1.0620   -0.4740   -0.9930 C   0  0  1  0  0  0  0  0  0  0  0  0
    0.1920   -1.5110   -1.6700 C   0  0  0  0  0  0  0  0  0  0  0  0
   -0.9950   -0.6880   -2.7730 S   0  0  0  0  0  0  0  0  0  0  0  0
    0.1750    0.4700   -0.2850 C   0  0  0  0  0  0  0  0  0  0  0  0
   -0.6630    1.1000   -0.9810 O   0  0  0  0  0  0  0  0  0  0  0  0
    1.6330   -1.7170    0.6930 H   0  0  0  0  0  0  0  0  0  0  0  0
    1.6340    0.0530   -1.7880 H   0  0  0  0  0  0  0  0  0  0  0  0
    0.8000   -2.2410   -2.2430 H   0  0  0  0  0  0  0  0  0  0  0  0
   -0.3150   -2.0730   -0.8830 H   0  0  0  0  0  0  0  0  0  0  0  0
   -1.7580   -1.6520   -3.4350 H   0  0  0  0  0  0  0  0  0  0  0  0
    0.1990    0.7150    1.0950 N   0  0  0  0  0  0  0  0  0  0  0  0
   -0.6550    1.6330    1.8090 C   0  0  1  0  0  0  0  0  0  0  0  0
   -1.5700    0.8420    2.7100 C   0  0  0  0  0  0  0  0  0  0  0  0
   -2.3710   -0.0580    1.8440 C   0  0  0  0  0  0  0  0  0  0  0  0
   -1.9750   -1.3350    1.5100 C   0  0  0  0  0  0  0  0  0  0  0  0
   -2.7290   -2.1600    0.7060 C   0  0  0  0  0  0  0  0  0  0  0  0
   -3.9340   -1.7300    0.1950 C   0  0  0  0  0  0  0  0  0  0  0  0
   -4.3520   -0.4630    0.5120 C   0  0  0  0  0  0  0  0  0  0  0  0
   -3.5930    0.3490    1.3130 C   0  0  0  0  0  0  0  0  0  0  0  0
    0.0600    2.7020    2.4820 C   0  0  0  0  0  0  0  0  0  0  0  0
   -0.5500    3.5730    3.1400 O   0  0  0  0  0  0  0  0  0  0  0  0
    1.4380    2.7760    2.4080 O   0  0  0  0  0  0  0  0  0  0  0  0
    0.9000    0.1840    1.6720 H   0  0  0  0  0  0  0  0  0  0  0  0
   -1.3300    2.0730    1.0130 H   0  0  0  0  0  0  0  0  0  0  0  0
   -0.9190    0.2300    3.3790 H   0  0  0  0  0  0  0  0  0  0  0  0
   -2.2210    1.4920    3.3270 H   0  0  0  0  0  0  0  0  0  0  0  0
   -1.0270   -1.6910    1.9030 H   0  0  0  0  0  0  0  0  0  0  0  0
   -2.4030   -3.1560    0.4560 H   0  0  0  0  0  0  0  0  0  0  0  0
   -4.5370   -2.3890   -0.4470 H   0  0  0  0  0  0  0  0  0  0  0  0
   -5.2870   -0.1110    0.1240 H   0  0  0  0  0  0  0  0  0  0  0  0
   -3.8940    1.3630    1.5860 H   0  0  0  0  0  0  0  0  0  0  0  0
  1  7  1  0  0  0  0
  1  8  1  0  0  0  0
  1  6  1  0  0  0  0
  2  9  1  6  0  0  0
  2  1  1  0  0  0  0
  3  2  1  0  0  0  0
  3 11  1  0  0  0  0
  4 12  1  0  0  0  0
  4  2  1  0  0  0  0
  5  4  2  0  0  0  0
 10  3  1  0  0  0  0
 12 18  1  0  0  0  0
 13 19  1  6  0  0  0
 13 16  1  0  0  0  0
 13 12  1  0  0  0  0
 14 13  1  0  0  0  0
 14 21  1  0  0  0  0
 15 14  1  0  0  0  0
 16 23  1  0  0  0  0
 17 16  2  0  0  0  0
 20 14  1  0  0  0  0
 22 15  1  0  0  0  0
 23 35  1  0  0  0  0
 23 24  1  0  0  0  0
 24 36  1  6  0  0  0
 24 32  1  0  0  0  0
 24 25  1  0  0  0  0
 25 38  1  0  0  0  0
 25 37  1  0  0  0  0
 26 25  1  0  0  0  0
 27 26  1  0  0  0  0
 27 39  1  0  0  0  0
 28 27  2  0  0  0  0
 29 30  2  0  0  0  0
 29 28  1  0  0  0  0
 30 31  1  0  0  0  0
 31 43  1  0  0  0  0
 31 26  2  0  0  0  0
 32 33  1  0  0  0  0
 34 32  2  0  0  0  0
 40 28  1  0  0  0  0
 41 29  1  0  0  0  0
 42 30  1  0  0  0  0
M  END
$$$$
