ACI.pdb
 OpenBabel07022418003D

 42 41  0  0  1  0  0  0  0  0999 V2000
   -3.1780   -3.4370    4.4330 C   0  0  0  0  0  0  0  0  0  0  0  0
   -1.8270   -2.8140    4.1980 C   0  0  2  0  0  0  0  0  0  0  0  0
   -1.6090   -1.8110    5.2130 N   0  0  0  0  0  0  0  0  0  0  0  0
   -1.6940   -2.2610    2.8270 C   0  0  0  0  0  0  0  0  0  0  0  0
   -1.8590   -3.0240    1.8400 O   0  0  0  0  0  0  0  0  0  0  0  0
   -3.6620   -3.6850    3.4480 H   0  0  0  0  0  0  0  0  0  0  0  0
   -3.8650   -2.7540    5.0090 H   0  0  0  0  0  0  0  0  0  0  0  0
   -3.0960   -4.3610    5.0210 H   0  0  0  0  0  0  0  0  0  0  0  0
   -1.0630   -3.6240    4.3810 H   0  0  0  0  0  0  0  0  0  0  0  0
   -2.4510   -1.1760    5.2010 H   0  0  0  0  0  0  0  0  0  0  0  0
   -1.6660   -2.3220    6.1390 H   0  0  0  0  0  0  0  0  0  0  0  0
   -1.3900   -0.9080    2.5460 N   0  0  0  0  0  0  0  0  0  0  0  0
   -1.2650   -0.3880    1.1780 C   0  0  1  0  0  0  0  0  0  0  0  0
   -2.3010    0.6760    0.9450 C   0  0  0  0  0  0  0  0  0  0  0  0
   -2.1940    1.3280   -0.7240 S   0  0  0  0  0  0  0  0  0  0  0  0
    0.0730    0.1610    0.9470 C   0  0  0  0  0  0  0  0  0  0  0  0
    0.8490    0.2470    1.9650 O   0  0  0  0  0  0  0  0  0  0  0  0
   -1.2500   -0.2620    3.3530 H   0  0  0  0  0  0  0  0  0  0  0  0
   -1.4480   -1.2300    0.5010 H   0  0  0  0  0  0  0  0  0  0  0  0
   -3.3320    0.3080    1.1280 H   0  0  0  0  0  0  0  0  0  0  0  0
   -2.0650    1.5300    1.6450 H   0  0  0  0  0  0  0  0  0  0  0  0
   -2.4230    0.3050   -1.6730 H   0  0  0  0  0  0  0  0  0  0  0  0
    3.4340   -2.1170   -1.7040 C   0  0  0  0  0  0  0  0  0  0  0  0
    2.7620   -1.1490   -0.7710 C   0  0  0  0  0  0  0  0  0  0  0  0
    2.7370    0.2580   -1.3200 C   0  0  2  0  0  0  0  0  0  0  0  0
    4.1420    0.7350   -1.5470 C   0  0  0  0  0  0  0  0  0  0  0  0
    1.9750    1.1420   -0.3690 C   0  0  2  0  0  0  0  0  0  0  0  0
    0.6280    0.6090   -0.2620 N   0  0  0  0  0  0  0  0  0  0  0  0
    1.8780    2.5240   -0.8760 C   0  0  0  0  0  0  0  0  0  0  0  0
    0.8060    3.1020   -1.1550 O   0  0  0  0  0  0  0  0  0  0  0  0
    3.0530    3.2470   -1.0630 O   0  0  0  0  0  0  0  0  0  0  0  0
    2.9920   -3.1460   -1.6310 H   0  0  0  0  0  0  0  0  0  0  0  0
    3.3640   -1.8310   -2.7670 H   0  0  0  0  0  0  0  0  0  0  0  0
    4.5020   -2.2310   -1.3980 H   0  0  0  0  0  0  0  0  0  0  0  0
    1.7530   -1.5280   -0.5460 H   0  0  0  0  0  0  0  0  0  0  0  0
    3.3310   -1.0840    0.2020 H   0  0  0  0  0  0  0  0  0  0  0  0
    2.1580    0.2220   -2.2660 H   0  0  0  0  0  0  0  0  0  0  0  0
    4.5070    1.4380   -0.7780 H   0  0  0  0  0  0  0  0  0  0  0  0
    4.8840   -0.0960   -1.6050 H   0  0  0  0  0  0  0  0  0  0  0  0
    4.1250    1.3170   -2.5140 H   0  0  0  0  0  0  0  0  0  0  0  0
    2.4870    1.1440    0.6040 H   0  0  0  0  0  0  0  0  0  0  0  0
    0.0820    0.5560   -1.1260 H   0  0  0  0  0  0  0  0  0  0  0  0
  1  7  1  0  0  0  0
  1  8  1  0  0  0  0
  2  9  1  1  0  0  0
  2  1  1  0  0  0  0
  2  3  1  0  0  0  0
  3 11  1  0  0  0  0
  4  2  1  0  0  0  0
  5  4  2  0  0  0  0
  6  1  1  0  0  0  0
 10  3  1  0  0  0  0
 12  4  1  0  0  0  0
 12 18  1  0  0  0  0
 13 19  1  6  0  0  0
 13 12  1  0  0  0  0
 14 20  1  0  0  0  0
 14 13  1  0  0  0  0
 14 21  1  0  0  0  0
 15 14  1  0  0  0  0
 16 13  1  0  0  0  0
 16 17  2  0  0  0  0
 22 15  1  0  0  0  0
 23 32  1  0  0  0  0
 23 34  1  0  0  0  0
 23 24  1  0  0  0  0
 24 35  1  0  0  0  0
 24 36  1  0  0  0  0
 25 37  1  6  0  0  0
 25 24  1  0  0  0  0
 25 27  1  0  0  0  0
 26 25  1  0  0  0  0
 26 38  1  0  0  0  0
 27 28  1  0  0  0  0
 27 41  1  1  0  0  0
 28 16  1  0  0  0  0
 29 27  1  0  0  0  0
 30 29  2  0  0  0  0
 31 29  1  0  0  0  0
 33 23  1  0  0  0  0
 39 26  1  0  0  0  0
 40 26  1  0  0  0  0
 42 28  1  0  0  0  0
M  END
$$$$
