ACL.pdb
 OpenBabel07022418003D

 42 41  0  0  1  0  0  0  0  0999 V2000
   -0.0850   -3.8940    4.5330 C   0  0  0  0  0  0  0  0  0  0  0  0
    0.8820   -4.7000    3.7050 C   0  0  2  0  0  0  0  0  0  0  0  0
    1.9700   -5.1850    4.5060 N   0  0  0  0  0  0  0  0  0  0  0  0
    1.3950   -3.8720    2.5810 C   0  0  0  0  0  0  0  0  0  0  0  0
    2.6310   -3.6630    2.4110 O   0  0  0  0  0  0  0  0  0  0  0  0
    0.1970   -2.8210    4.4220 H   0  0  0  0  0  0  0  0  0  0  0  0
   -0.1460   -4.2320    5.5700 H   0  0  0  0  0  0  0  0  0  0  0  0
   -1.0860   -3.9880    4.0220 H   0  0  0  0  0  0  0  0  0  0  0  0
    0.3340   -5.6040    3.3150 H   0  0  0  0  0  0  0  0  0  0  0  0
    2.7160   -4.4420    4.5380 H   0  0  0  0  0  0  0  0  0  0  0  0
    1.6020   -5.3870    5.4610 H   0  0  0  0  0  0  0  0  0  0  0  0
    0.5230   -3.2740    1.6430 N   0  0  0  0  0  0  0  0  0  0  0  0
    1.0160   -2.4530    0.5270 C   0  0  1  0  0  0  0  0  0  0  0  0
    0.6210   -3.2700   -0.7130 C   0  0  0  0  0  0  0  0  0  0  0  0
    1.1040   -2.5040   -2.2490 S   0  0  0  0  0  0  0  0  0  0  0  0
    0.3490   -1.1210    0.5300 C   0  0  0  0  0  0  0  0  0  0  0  0
   -0.5040   -0.8990    1.4230 O   0  0  0  0  0  0  0  0  0  0  0  0
   -0.5120   -3.4080    1.7260 H   0  0  0  0  0  0  0  0  0  0  0  0
    2.1070   -2.3910    0.5500 H   0  0  0  0  0  0  0  0  0  0  0  0
   -0.4550   -3.5290   -0.6540 H   0  0  0  0  0  0  0  0  0  0  0  0
    1.1720   -4.2330   -0.6060 H   0  0  0  0  0  0  0  0  0  0  0  0
    0.0610   -2.4170   -3.1890 H   0  0  0  0  0  0  0  0  0  0  0  0
   -0.1330    4.4240   -0.9810 C   0  0  0  0  0  0  0  0  0  0  0  0
    0.5000    3.6460    0.0910 C   0  0  0  0  0  0  0  0  0  0  0  0
   -0.3880    3.7580    1.3590 C   0  0  0  0  0  0  0  0  0  0  0  0
    0.8830    2.2560   -0.0570 C   0  0  0  0  0  0  0  0  0  0  0  0
   -0.0970    1.1830   -0.3170 C   0  0  2  0  0  0  0  0  0  0  0  0
    0.6140   -0.1130   -0.3940 N   0  0  0  0  0  0  0  0  0  0  0  0
   -0.8090    1.3730   -1.5820 C   0  0  0  0  0  0  0  0  0  0  0  0
   -1.6540    2.2530   -1.7450 O   0  0  0  0  0  0  0  0  0  0  0  0
   -0.5520    0.5450   -2.6860 O   0  0  0  0  0  0  0  0  0  0  0  0
    0.1120    4.1610   -2.0180 H   0  0  0  0  0  0  0  0  0  0  0  0
   -1.2110    4.6590   -0.8770 H   0  0  0  0  0  0  0  0  0  0  0  0
    0.3190    5.4910   -0.9020 H   0  0  0  0  0  0  0  0  0  0  0  0
    1.4280    4.2310    0.4280 H   0  0  0  0  0  0  0  0  0  0  0  0
   -0.5760    4.8260    1.5040 H   0  0  0  0  0  0  0  0  0  0  0  0
    0.2150    3.3040    2.1650 H   0  0  0  0  0  0  0  0  0  0  0  0
   -1.2870    3.1570    1.1260 H   0  0  0  0  0  0  0  0  0  0  0  0
    1.5640    2.0050    0.8160 H   0  0  0  0  0  0  0  0  0  0  0  0
    1.6450    2.1960   -0.9240 H   0  0  0  0  0  0  0  0  0  0  0  0
   -0.7790    1.0980    0.5560 H   0  0  0  0  0  0  0  0  0  0  0  0
    1.2990   -0.2260   -1.1470 H   0  0  0  0  0  0  0  0  0  0  0  0
  1  7  1  0  0  0  0
  2  9  1  6  0  0  0
  2  3  1  0  0  0  0
  2  1  1  0  0  0  0
  3 10  1  0  0  0  0
  3 11  1  0  0  0  0
  4  2  1  0  0  0  0
  5  4  2  0  0  0  0
  6  1  1  0  0  0  0
  8  1  1  0  0  0  0
 12 18  1  0  0  0  0
 12  4  1  0  0  0  0
 13 16  1  0  0  0  0
 13 19  1  1  0  0  0
 13 12  1  0  0  0  0
 14 20  1  0  0  0  0
 14 21  1  0  0  0  0
 14 13  1  0  0  0  0
 15 14  1  0  0  0  0
 16 17  2  0  0  0  0
 22 15  1  0  0  0  0
 23 34  1  0  0  0  0
 23 33  1  0  0  0  0
 23 24  1  0  0  0  0
 24 35  1  0  0  0  0
 24 25  1  0  0  0  0
 25 36  1  0  0  0  0
 25 37  1  0  0  0  0
 26 24  1  0  0  0  0
 26 39  1  0  0  0  0
 27 26  1  0  0  0  0
 27 41  1  1  0  0  0
 28 27  1  0  0  0  0
 28 16  1  0  0  0  0
 29 27  1  0  0  0  0
 30 29  1  0  0  0  0
 31 29  2  0  0  0  0
 32 23  1  0  0  0  0
 38 25  1  0  0  0  0
 40 26  1  0  0  0  0
 42 28  1  0  0  0  0
M  END
$$$$
