ACM.pdb
 OpenBabel07022418003D

 40 39  0  0  1  0  0  0  0  0999 V2000
   -0.8440   -3.5320    1.9880 C   0  0  0  0  0  0  0  0  0  0  0  0
    0.4910   -4.1420    1.7010 C   0  0  2  0  0  0  0  0  0  0  0  0
    0.8610   -5.0850    2.7450 N   0  0  0  0  0  0  0  0  0  0  0  0
    1.5610   -3.1540    1.4570 C   0  0  0  0  0  0  0  0  0  0  0  0
    2.6240   -3.2400    2.1170 O   0  0  0  0  0  0  0  0  0  0  0  0
   -0.8460   -2.4130    1.9100 H   0  0  0  0  0  0  0  0  0  0  0  0
   -1.1150   -3.7570    3.0390 H   0  0  0  0  0  0  0  0  0  0  0  0
   -1.6410   -3.9660    1.3520 H   0  0  0  0  0  0  0  0  0  0  0  0
    0.3810   -4.7410    0.7480 H   0  0  0  0  0  0  0  0  0  0  0  0
    1.7330   -4.7820    3.2460 H   0  0  0  0  0  0  0  0  0  0  0  0
    0.0910   -5.2190    3.4400 H   0  0  0  0  0  0  0  0  0  0  0  0
    1.4390   -2.1090    0.5070 N   0  0  0  0  0  0  0  0  0  0  0  0
    2.5620   -1.1790    0.3390 C   0  0  1  0  0  0  0  0  0  0  0  0
    3.0390   -1.3260   -1.0820 C   0  0  0  0  0  0  0  0  0  0  0  0
    4.4330   -0.2370   -1.4510 S   0  0  0  0  0  0  0  0  0  0  0  0
    2.1390    0.2070    0.6760 C   0  0  0  0  0  0  0  0  0  0  0  0
    2.9350    1.1740    0.5830 O   0  0  0  0  0  0  0  0  0  0  0  0
    0.5700   -2.0020   -0.0630 H   0  0  0  0  0  0  0  0  0  0  0  0
    3.4050   -1.4650    1.0020 H   0  0  0  0  0  0  0  0  0  0  0  0
    3.4110   -2.3700   -1.1790 H   0  0  0  0  0  0  0  0  0  0  0  0
    2.2290   -1.2080   -1.8240 H   0  0  0  0  0  0  0  0  0  0  0  0
    4.2840    0.2080   -2.7810 H   0  0  0  0  0  0  0  0  0  0  0  0
   -3.6540    1.5980   -1.0780 C   0  0  0  0  0  0  0  0  0  0  0  0
   -2.3630    2.8060   -1.4270 S   0  0  0  0  0  0  0  0  0  0  0  0
   -0.7540    2.2740   -0.7550 C   0  0  0  0  0  0  0  0  0  0  0  0
   -0.8590    2.2680    0.7420 C   0  0  0  0  0  0  0  0  0  0  0  0
    0.3840    1.8510    1.4520 C   0  0  2  0  0  0  0  0  0  0  0  0
    0.8230    0.5210    1.1190 N   0  0  0  0  0  0  0  0  0  0  0  0
    0.0540    1.8390    2.9190 C   0  0  0  0  0  0  0  0  0  0  0  0
   -0.3630    2.8770    3.4900 O   0  0  0  0  0  0  0  0  0  0  0  0
    0.1930    0.7040    3.7010 O   0  0  0  0  0  0  0  0  0  0  0  0
   -4.0850    1.8060   -0.0570 H   0  0  0  0  0  0  0  0  0  0  0  0
   -4.4630    1.7570   -1.8370 H   0  0  0  0  0  0  0  0  0  0  0  0
   -3.3180    0.5510   -1.1850 H   0  0  0  0  0  0  0  0  0  0  0  0
    0.0090    2.9930   -1.1160 H   0  0  0  0  0  0  0  0  0  0  0  0
   -0.5250    1.3070   -1.1940 H   0  0  0  0  0  0  0  0  0  0  0  0
   -1.0540    3.3390    1.0440 H   0  0  0  0  0  0  0  0  0  0  0  0
   -1.7520    1.7040    1.0650 H   0  0  0  0  0  0  0  0  0  0  0  0
    1.1620    2.6170    1.2930 H   0  0  0  0  0  0  0  0  0  0  0  0
    0.1220   -0.2470    1.2140 H   0  0  0  0  0  0  0  0  0  0  0  0
  1  7  1  0  0  0  0
  2  9  1  6  0  0  0
  2  1  1  0  0  0  0
  2  3  1  0  0  0  0
  3 10  1  0  0  0  0
  3 11  1  0  0  0  0
  4  2  1  0  0  0  0
  4  5  2  0  0  0  0
  6  1  1  0  0  0  0
  8  1  1  0  0  0  0
 12  4  1  0  0  0  0
 13 12  1  0  0  0  0
 13 16  1  0  0  0  0
 13 19  1  1  0  0  0
 14 13  1  0  0  0  0
 15 14  1  0  0  0  0
 16 28  1  0  0  0  0
 17 16  2  0  0  0  0
 18 12  1  0  0  0  0
 20 14  1  0  0  0  0
 21 14  1  0  0  0  0
 22 15  1  0  0  0  0
 23 32  1  0  0  0  0
 24 23  1  0  0  0  0
 24 25  1  0  0  0  0
 25 26  1  0  0  0  0
 26 37  1  0  0  0  0
 26 38  1  0  0  0  0
 26 27  1  0  0  0  0
 27 39  1  6  0  0  0
 27 29  1  0  0  0  0
 28 40  1  0  0  0  0
 28 27  1  0  0  0  0
 29 30  2  0  0  0  0
 29 31  1  0  0  0  0
 33 23  1  0  0  0  0
 34 23  1  0  0  0  0
 35 25  1  0  0  0  0
 36 25  1  0  0  0  0
M  END
$$$$
