ACP.pdb
 OpenBabel07022418003D

 37 37  0  0  1  0  0  0  0  0999 V2000
   -0.0060   -4.0440    3.2680 C   0  0  0  0  0  0  0  0  0  0  0  0
    0.7410   -2.9330    2.5190 C   0  0  2  0  0  0  0  0  0  0  0  0
    0.9230   -1.8240    3.4030 N   0  0  0  0  0  0  0  0  0  0  0  0
   -0.1050   -2.5970    1.3440 C   0  0  0  0  0  0  0  0  0  0  0  0
   -0.3600   -3.4600    0.4740 O   0  0  0  0  0  0  0  0  0  0  0  0
   -0.7960   -3.5280    3.8680 H   0  0  0  0  0  0  0  0  0  0  0  0
    0.6770   -4.6310    3.8970 H   0  0  0  0  0  0  0  0  0  0  0  0
   -0.5140   -4.6780    2.5010 H   0  0  0  0  0  0  0  0  0  0  0  0
    1.7160   -3.3760    2.2290 H   0  0  0  0  0  0  0  0  0  0  0  0
    0.3650   -1.9380    4.2810 H   0  0  0  0  0  0  0  0  0  0  0  0
    1.9320   -1.7790    3.7040 H   0  0  0  0  0  0  0  0  0  0  0  0
   -0.6690   -1.2860    1.1440 N   0  0  0  0  0  0  0  0  0  0  0  0
   -1.4780   -0.9400    0.0340 C   0  0  1  0  0  0  0  0  0  0  0  0
   -2.9180   -0.6310    0.4340 C   0  0  0  0  0  0  0  0  0  0  0  0
   -3.8800   -0.2010   -1.0320 S   0  0  0  0  0  0  0  0  0  0  0  0
   -0.9310    0.0640   -0.8720 C   0  0  0  0  0  0  0  0  0  0  0  0
   -1.7100    0.3560   -1.8640 O   0  0  0  0  0  0  0  0  0  0  0  0
   -0.4260   -0.6160    1.9180 H   0  0  0  0  0  0  0  0  0  0  0  0
   -1.5850   -1.8920   -0.5840 H   0  0  0  0  0  0  0  0  0  0  0  0
   -2.9900    0.0970    1.2400 H   0  0  0  0  0  0  0  0  0  0  0  0
   -3.3300   -1.5930    0.8270 H   0  0  0  0  0  0  0  0  0  0  0  0
   -3.7240   -1.1920   -1.9960 H   0  0  0  0  0  0  0  0  0  0  0  0
    0.2990    0.7190   -0.7840 N   0  0  0  0  0  0  0  0  0  0  0  0
    0.7380    1.7220   -1.7740 C   0  0  0  0  0  0  0  0  0  0  0  0
    2.0860    2.2040   -1.3630 C   0  0  0  0  0  0  0  0  0  0  0  0
    2.6320    1.0090   -0.5740 C   0  0  0  0  0  0  0  0  0  0  0  0
    1.3480    0.6120    0.1710 C   0  0  1  0  0  0  0  0  0  0  0  0
    1.2320    1.6170    1.2700 C   0  0  0  0  0  0  0  0  0  0  0  0
    0.2890    2.4470    1.3010 O   0  0  0  0  0  0  0  0  0  0  0  0
    2.1650    1.6670    2.2940 O   0  0  0  0  0  0  0  0  0  0  0  0
    0.8760    1.1210   -2.7190 H   0  0  0  0  0  0  0  0  0  0  0  0
   -0.0150    2.5000   -1.9260 H   0  0  0  0  0  0  0  0  0  0  0  0
    2.7270    2.4040   -2.2340 H   0  0  0  0  0  0  0  0  0  0  0  0
    2.0670    3.1070   -0.7220 H   0  0  0  0  0  0  0  0  0  0  0  0
    3.3810    1.3880    0.1260 H   0  0  0  0  0  0  0  0  0  0  0  0
    2.9750    0.2160   -1.2490 H   0  0  0  0  0  0  0  0  0  0  0  0
    1.5280   -0.3770    0.6030 H   0  0  0  0  0  0  0  0  0  0  0  0
  1  6  1  0  0  0  0
  1  7  1  0  0  0  0
  2  9  1  6  0  0  0
  2  1  1  0  0  0  0
  2  3  1  0  0  0  0
  3 11  1  0  0  0  0
  3 10  1  0  0  0  0
  4  2  1  0  0  0  0
  5  4  2  0  0  0  0
  8  1  1  0  0  0  0
 12  4  1  0  0  0  0
 12 18  1  0  0  0  0
 13 19  1  6  0  0  0
 13 14  1  0  0  0  0
 13 12  1  0  0  0  0
 14 21  1  0  0  0  0
 14 20  1  0  0  0  0
 15 14  1  0  0  0  0
 16 23  1  0  0  0  0
 16 13  1  0  0  0  0
 17 16  2  0  0  0  0
 22 15  1  0  0  0  0
 23 27  1  0  0  0  0
 24 25  1  0  0  0  0
 24 23  1  0  0  0  0
 25 34  1  0  0  0  0
 25 26  1  0  0  0  0
 26 35  1  0  0  0  0
 26 27  1  0  0  0  0
 27 37  1  1  0  0  0
 27 28  1  0  0  0  0
 28 29  2  0  0  0  0
 28 30  1  0  0  0  0
 31 24  1  0  0  0  0
 32 24  1  0  0  0  0
 33 25  1  0  0  0  0
 36 26  1  0  0  0  0
M  END
$$$$
