ACQ.pdb
 OpenBabel07022418003D

 40 39  0  0  1  0  0  0  0  0999 V2000
   -1.3820   -5.0630    0.2180 C   0  0  0  0  0  0  0  0  0  0  0  0
   -1.1460   -3.7470    0.9230 C   0  0  2  0  0  0  0  0  0  0  0  0
   -2.0800   -2.7860    0.4000 N   0  0  0  0  0  0  0  0  0  0  0  0
    0.2700   -3.3030    0.7270 C   0  0  0  0  0  0  0  0  0  0  0  0
    1.2010   -4.0410    1.1340 O   0  0  0  0  0  0  0  0  0  0  0  0
   -2.2900   -5.5530    0.6120 H   0  0  0  0  0  0  0  0  0  0  0  0
   -1.4780   -4.8190   -0.8760 H   0  0  0  0  0  0  0  0  0  0  0  0
   -0.5110   -5.7390    0.2900 H   0  0  0  0  0  0  0  0  0  0  0  0
   -1.3450   -3.9350    2.0120 H   0  0  0  0  0  0  0  0  0  0  0  0
   -2.8650   -2.6920    1.0810 H   0  0  0  0  0  0  0  0  0  0  0  0
   -2.3920   -3.0850   -0.5410 H   0  0  0  0  0  0  0  0  0  0  0  0
    0.6150   -2.0790    0.0990 N   0  0  0  0  0  0  0  0  0  0  0  0
    1.9860   -1.6470   -0.0920 C   0  0  1  0  0  0  0  0  0  0  0  0
    2.2870   -1.5550   -1.5640 C   0  0  0  0  0  0  0  0  0  0  0  0
    3.9900   -1.0190   -1.8270 S   0  0  0  0  0  0  0  0  0  0  0  0
    2.2820   -0.3990    0.6390 C   0  0  0  0  0  0  0  0  0  0  0  0
    3.4290    0.1090    0.5780 O   0  0  0  0  0  0  0  0  0  0  0  0
   -0.1600   -1.4780   -0.2330 H   0  0  0  0  0  0  0  0  0  0  0  0
    2.6300   -2.4480    0.3410 H   0  0  0  0  0  0  0  0  0  0  0  0
    1.5490   -0.9640   -2.1240 H   0  0  0  0  0  0  0  0  0  0  0  0
    2.2130   -2.6030   -1.9670 H   0  0  0  0  0  0  0  0  0  0  0  0
    3.9660    0.1590   -2.6090 H   0  0  0  0  0  0  0  0  0  0  0  0
   -2.4370    1.8260    0.4860 N   0  0  0  0  0  0  0  0  0  0  0  0
   -1.0330    2.0270    0.4320 C   0  0  0  0  0  0  0  0  0  0  0  0
   -0.3860    1.4230   -0.4520 O   0  0  0  0  0  0  0  0  0  0  0  0
   -0.3810    2.9160    1.3810 C   0  0  0  0  0  0  0  0  0  0  0  0
    1.0750    2.7740    1.5750 C   0  0  0  0  0  0  0  0  0  0  0  0
    1.5960    1.5050    2.1500 C   0  0  2  0  0  0  0  0  0  0  0  0
    1.3150    0.2990    1.4430 N   0  0  0  0  0  0  0  0  0  0  0  0
    1.2400    1.3270    3.5740 C   0  0  0  0  0  0  0  0  0  0  0  0
    0.7720    0.2490    3.9910 O   0  0  0  0  0  0  0  0  0  0  0  0
    1.4240    2.3640    4.4630 O   0  0  0  0  0  0  0  0  0  0  0  0
   -3.0800    2.4270    1.0470 H   0  0  0  0  0  0  0  0  0  0  0  0
   -2.9070    1.0470   -0.0460 H   0  0  0  0  0  0  0  0  0  0  0  0
   -0.5610    4.0050    1.1120 H   0  0  0  0  0  0  0  0  0  0  0  0
   -0.8650    2.8570    2.4080 H   0  0  0  0  0  0  0  0  0  0  0  0
    1.4630    3.6100    2.2320 H   0  0  0  0  0  0  0  0  0  0  0  0
    1.6320    2.9310    0.6070 H   0  0  0  0  0  0  0  0  0  0  0  0
    2.7370    1.6820    2.1770 H   0  0  0  0  0  0  0  0  0  0  0  0
    0.3830   -0.1700    1.4860 H   0  0  0  0  0  0  0  0  0  0  0  0
  1  8  1  0  0  0  0
  1  6  1  0  0  0  0
  1  2  1  0  0  0  0
  2  9  1  1  0  0  0
  3  2  1  0  0  0  0
  3 10  1  0  0  0  0
  4  2  1  0  0  0  0
  4  5  2  0  0  0  0
  7  1  1  0  0  0  0
 11  3  1  0  0  0  0
 12  4  1  0  0  0  0
 13 12  1  0  0  0  0
 13 19  1  1  0  0  0
 13 16  1  0  0  0  0
 14 13  1  0  0  0  0
 15 14  1  0  0  0  0
 16 29  1  0  0  0  0
 17 16  2  0  0  0  0
 18 12  1  0  0  0  0
 20 14  1  0  0  0  0
 21 14  1  0  0  0  0
 22 15  1  0  0  0  0
 23 33  1  0  0  0  0
 24 23  1  0  0  0  0
 24 26  1  0  0  0  0
 25 24  2  0  0  0  0
 26 27  1  0  0  0  0
 26 36  1  0  0  0  0
 27 28  1  0  0  0  0
 27 37  1  0  0  0  0
 28 39  1  6  0  0  0
 28 30  1  0  0  0  0
 29 40  1  0  0  0  0
 29 28  1  0  0  0  0
 30 31  2  0  0  0  0
 30 32  1  0  0  0  0
 34 23  1  0  0  0  0
 35 26  1  0  0  0  0
 38 27  1  0  0  0  0
M  END
$$$$
