ACT.pdb
 OpenBabel07022418003D

 37 36  0  0  1  0  0  0  0  0999 V2000
   -1.5810   -2.9500    3.9350 C   0  0  0  0  0  0  0  0  0  0  0  0
   -0.1440   -3.4920    3.8990 C   0  0  2  0  0  0  0  0  0  0  0  0
    0.3600   -3.4000    5.2340 N   0  0  0  0  0  0  0  0  0  0  0  0
    0.6120   -2.5740    3.0170 C   0  0  0  0  0  0  0  0  0  0  0  0
    1.5310   -1.8850    3.5230 O   0  0  0  0  0  0  0  0  0  0  0  0
   -1.8090   -2.4420    2.9720 H   0  0  0  0  0  0  0  0  0  0  0  0
   -1.6510   -2.1780    4.7390 H   0  0  0  0  0  0  0  0  0  0  0  0
   -2.3030   -3.7370    4.1890 H   0  0  0  0  0  0  0  0  0  0  0  0
   -0.1390   -4.5350    3.5160 H   0  0  0  0  0  0  0  0  0  0  0  0
    1.4000   -3.3270    5.2860 H   0  0  0  0  0  0  0  0  0  0  0  0
   -0.0440   -4.0760    5.8930 H   0  0  0  0  0  0  0  0  0  0  0  0
    0.3670   -2.4220    1.6410 N   0  0  0  0  0  0  0  0  0  0  0  0
    1.1740   -1.4800    0.8380 C   0  0  1  0  0  0  0  0  0  0  0  0
    1.9730   -2.3110   -0.1510 C   0  0  0  0  0  0  0  0  0  0  0  0
    3.0330   -1.3440   -1.2250 S   0  0  0  0  0  0  0  0  0  0  0  0
    0.2940   -0.4910    0.2090 C   0  0  0  0  0  0  0  0  0  0  0  0
   -0.9690   -0.6000    0.3770 O   0  0  0  0  0  0  0  0  0  0  0  0
   -0.3900   -2.9840    1.2030 H   0  0  0  0  0  0  0  0  0  0  0  0
    1.9100   -1.0010    1.5130 H   0  0  0  0  0  0  0  0  0  0  0  0
    1.2590   -2.8760   -0.8190 H   0  0  0  0  0  0  0  0  0  0  0  0
    2.5540   -3.1020    0.3640 H   0  0  0  0  0  0  0  0  0  0  0  0
    3.1240   -1.8840   -2.5240 H   0  0  0  0  0  0  0  0  0  0  0  0
   -0.9440    3.8880   -1.1630 C   0  0  0  0  0  0  0  0  0  0  0  0
    0.0530    2.9210   -0.5800 C   0  0  1  0  0  0  0  0  0  0  0  0
   -0.2230    2.7830    0.7930 O   0  0  0  0  0  0  0  0  0  0  0  0
   -0.1770    1.5570   -1.1940 C   0  0  2  0  0  0  0  0  0  0  0  0
    0.7220    0.5790   -0.5710 N   0  0  0  0  0  0  0  0  0  0  0  0
   -0.0760    1.5430   -2.6500 C   0  0  0  0  0  0  0  0  0  0  0  0
   -0.7690    2.3100   -3.3580 O   0  0  0  0  0  0  0  0  0  0  0  0
    0.7920    0.6780   -3.2960 O   0  0  0  0  0  0  0  0  0  0  0  0
   -1.9180    3.3910   -1.3180 H   0  0  0  0  0  0  0  0  0  0  0  0
   -0.5720    4.2930   -2.1350 H   0  0  0  0  0  0  0  0  0  0  0  0
   -1.0280    4.7610   -0.4520 H   0  0  0  0  0  0  0  0  0  0  0  0
    1.0870    3.2510   -0.6830 H   0  0  0  0  0  0  0  0  0  0  0  0
   -1.1670    3.0230    0.9400 H   0  0  0  0  0  0  0  0  0  0  0  0
   -1.2030    1.2420   -0.9020 H   0  0  0  0  0  0  0  0  0  0  0  0
    1.7320    0.7430   -0.7500 H   0  0  0  0  0  0  0  0  0  0  0  0
  1  8  1  0  0  0  0
  1  7  1  0  0  0  0
  2  9  1  6  0  0  0
  2  1  1  0  0  0  0
  2  3  1  0  0  0  0
  3 10  1  0  0  0  0
  3 11  1  0  0  0  0
  4  5  2  0  0  0  0
  4  2  1  0  0  0  0
  6  1  1  0  0  0  0
 12  4  1  0  0  0  0
 13 19  1  1  0  0  0
 13 12  1  0  0  0  0
 14 21  1  0  0  0  0
 14 13  1  0  0  0  0
 15 14  1  0  0  0  0
 16 17  2  0  0  0  0
 16 13  1  0  0  0  0
 18 12  1  0  0  0  0
 20 14  1  0  0  0  0
 22 15  1  0  0  0  0
 23 24  1  0  0  0  0
 23 33  1  0  0  0  0
 24 34  1  6  0  0  0
 24 25  1  0  0  0  0
 25 35  1  0  0  0  0
 26 36  1  1  0  0  0
 26 24  1  0  0  0  0
 26 27  1  0  0  0  0
 27 16  1  0  0  0  0
 28 26  1  0  0  0  0
 29 28  2  0  0  0  0
 30 28  1  0  0  0  0
 31 23  1  0  0  0  0
 32 23  1  0  0  0  0
 37 27  1  0  0  0  0
M  END
$$$$
