ACV.pdb
 OpenBabel07022418003D

 39 38  0  0  1  0  0  0  0  0999 V2000
    1.2890   -0.0160    3.6860 C   0  0  0  0  0  0  0  0  0  0  0  0
    1.8950   -1.4100    3.7680 C   0  0  2  0  0  0  0  0  0  0  0  0
    3.2620   -1.3420    4.2390 N   0  0  0  0  0  0  0  0  0  0  0  0
    1.9160   -1.9800    2.3950 C   0  0  0  0  0  0  0  0  0  0  0  0
    2.9900   -2.3480    1.8800 O   0  0  0  0  0  0  0  0  0  0  0  0
    0.3730   -0.0080    3.0680 H   0  0  0  0  0  0  0  0  0  0  0  0
    1.9930    0.7310    3.3060 H   0  0  0  0  0  0  0  0  0  0  0  0
    0.9960    0.3420    4.7140 H   0  0  0  0  0  0  0  0  0  0  0  0
    1.2620   -2.0360    4.4440 H   0  0  0  0  0  0  0  0  0  0  0  0
    3.7180   -2.2290    3.9600 H   0  0  0  0  0  0  0  0  0  0  0  0
    3.3670   -1.0860    5.2320 H   0  0  0  0  0  0  0  0  0  0  0  0
    0.7370   -2.1360    1.6090 N   0  0  0  0  0  0  0  0  0  0  0  0
    0.7540   -2.6970    0.2720 C   0  0  1  0  0  0  0  0  0  0  0  0
   -0.1510   -3.8990    0.1600 C   0  0  0  0  0  0  0  0  0  0  0  0
    0.3490   -5.2120    1.3030 S   0  0  0  0  0  0  0  0  0  0  0  0
    0.3550   -1.6160   -0.6630 C   0  0  0  0  0  0  0  0  0  0  0  0
    0.2860   -1.9180   -1.9000 O   0  0  0  0  0  0  0  0  0  0  0  0
   -0.1570   -1.8230    2.0460 H   0  0  0  0  0  0  0  0  0  0  0  0
    1.7950   -3.0560    0.0100 H   0  0  0  0  0  0  0  0  0  0  0  0
   -0.1690   -4.3080   -0.8560 H   0  0  0  0  0  0  0  0  0  0  0  0
   -1.2090   -3.6290    0.4410 H   0  0  0  0  0  0  0  0  0  0  0  0
    1.6330   -4.8690    1.7820 H   0  0  0  0  0  0  0  0  0  0  0  0
   -2.2310    2.2720   -1.9060 C   0  0  0  0  0  0  0  0  0  0  0  0
   -1.7230    1.2120   -0.9790 C   0  0  0  0  0  0  0  0  0  0  0  0
   -1.8610    1.6210    0.4770 C   0  0  0  0  0  0  0  0  0  0  0  0
   -0.3440    0.7370   -1.2820 C   0  0  2  0  0  0  0  0  0  0  0  0
    0.0470   -0.2960   -0.3160 N   0  0  0  0  0  0  0  0  0  0  0  0
    0.6780    1.7980   -1.3700 C   0  0  0  0  0  0  0  0  0  0  0  0
    1.6960    1.6900   -0.6180 O   0  0  0  0  0  0  0  0  0  0  0  0
    0.6290    2.8860   -2.1890 O   0  0  0  0  0  0  0  0  0  0  0  0
   -1.6210    3.1850   -1.7530 H   0  0  0  0  0  0  0  0  0  0  0  0
   -2.2190    1.8840   -2.9340 H   0  0  0  0  0  0  0  0  0  0  0  0
   -3.2760    2.5920   -1.6200 H   0  0  0  0  0  0  0  0  0  0  0  0
   -2.4240    0.3340   -1.1110 H   0  0  0  0  0  0  0  0  0  0  0  0
   -2.3140    0.8100    1.0750 H   0  0  0  0  0  0  0  0  0  0  0  0
   -0.8500    1.9090    0.8320 H   0  0  0  0  0  0  0  0  0  0  0  0
   -2.5270    2.5200    0.5420 H   0  0  0  0  0  0  0  0  0  0  0  0
   -0.3470    0.2230   -2.2710 H   0  0  0  0  0  0  0  0  0  0  0  0
    0.0960   -0.0200    0.6810 H   0  0  0  0  0  0  0  0  0  0  0  0
  1  2  1  0  0  0  0
  1  8  1  0  0  0  0
  2  3  1  0  0  0  0
  2  9  1  1  0  0  0
  3 11  1  0  0  0  0
  4  2  1  0  0  0  0
  5  4  2  0  0  0  0
  6  1  1  0  0  0  0
  7  1  1  0  0  0  0
 10  3  1  0  0  0  0
 12 18  1  0  0  0  0
 12  4  1  0  0  0  0
 13 19  1  6  0  0  0
 13 12  1  0  0  0  0
 14 13  1  0  0  0  0
 14 21  1  0  0  0  0
 14 15  1  0  0  0  0
 15 22  1  0  0  0  0
 16 27  1  0  0  0  0
 16 13  1  0  0  0  0
 17 16  2  0  0  0  0
 20 14  1  0  0  0  0
 23 31  1  0  0  0  0
 23 33  1  0  0  0  0
 23 24  1  0  0  0  0
 24 25  1  0  0  0  0
 25 37  1  0  0  0  0
 25 36  1  0  0  0  0
 25 35  1  0  0  0  0
 26 38  1  6  0  0  0
 26 24  1  0  0  0  0
 26 27  1  0  0  0  0
 27 39  1  0  0  0  0
 28 26  1  0  0  0  0
 28 29  1  0  0  0  0
 30 28  2  0  0  0  0
 32 23  1  0  0  0  0
 34 24  1  0  0  0  0
M  END
$$$$
