ACW.pdb
 OpenBabel07022418003D

 47 48  0  0  1  0  0  0  0  0999 V2000
    2.1940   -5.6320    1.3450 C   0  0  0  0  0  0  0  0  0  0  0  0
    1.1870   -4.6340    0.8250 C   0  0  2  0  0  0  0  0  0  0  0  0
    1.1130   -4.7040   -0.6070 N   0  0  0  0  0  0  0  0  0  0  0  0
    1.5060   -3.2470    1.2950 C   0  0  0  0  0  0  0  0  0  0  0  0
    1.6160   -2.9480    2.4910 O   0  0  0  0  0  0  0  0  0  0  0  0
    2.8080   -5.9770    0.4930 H   0  0  0  0  0  0  0  0  0  0  0  0
    2.8160   -5.0930    2.1080 H   0  0  0  0  0  0  0  0  0  0  0  0
    1.6860   -6.5210    1.7960 H   0  0  0  0  0  0  0  0  0  0  0  0
    0.1850   -4.9420    1.2190 H   0  0  0  0  0  0  0  0  0  0  0  0
    1.5000   -5.6260   -0.9030 H   0  0  0  0  0  0  0  0  0  0  0  0
    0.1540   -4.5380   -0.9870 H   0  0  0  0  0  0  0  0  0  0  0  0
    1.6850   -2.2500    0.3240 N   0  0  0  0  0  0  0  0  0  0  0  0
    1.9970   -0.8660    0.6440 C   0  0  1  0  0  0  0  0  0  0  0  0
    3.3280   -0.5720   -0.0340 C   0  0  0  0  0  0  0  0  0  0  0  0
    4.6340   -1.6600    0.5640 S   0  0  0  0  0  0  0  0  0  0  0  0
    0.9490   -0.0210    0.0320 C   0  0  0  0  0  0  0  0  0  0  0  0
    0.0270   -0.5630   -0.6170 O   0  0  0  0  0  0  0  0  0  0  0  0
    1.5860   -2.5230   -0.6930 H   0  0  0  0  0  0  0  0  0  0  0  0
    2.0670   -0.7070    1.7310 H   0  0  0  0  0  0  0  0  0  0  0  0
    3.6360    0.4780    0.1610 H   0  0  0  0  0  0  0  0  0  0  0  0
    3.2640   -0.6890   -1.1280 H   0  0  0  0  0  0  0  0  0  0  0  0
    4.8250   -1.5520    1.9500 H   0  0  0  0  0  0  0  0  0  0  0  0
    0.9220    1.3960    0.1360 N   0  0  0  0  0  0  0  0  0  0  0  0
   -0.1050    2.2260   -0.4640 C   0  0  1  0  0  0  0  0  0  0  0  0
   -0.8790    2.9310    0.6600 C   0  0  0  0  0  0  0  0  0  0  0  0
   -1.5110    1.9340    1.5610 C   0  0  0  0  0  0  0  0  0  0  0  0
   -1.0900    1.5600    2.8310 C   0  0  0  0  0  0  0  0  0  0  0  0
   -1.9220    0.6310    3.3310 N   0  0  0  0  0  0  0  0  0  0  0  0
   -2.8850    0.3710    2.4350 C   0  0  0  0  0  0  0  0  0  0  0  0
   -3.9650   -0.4860    2.4540 C   0  0  0  0  0  0  0  0  0  0  0  0
   -4.8150   -0.5460    1.3590 C   0  0  0  0  0  0  0  0  0  0  0  0
   -4.5670    0.2510    0.2720 C   0  0  0  0  0  0  0  0  0  0  0  0
   -3.4850    1.1110    0.2530 C   0  0  0  0  0  0  0  0  0  0  0  0
   -2.6400    1.1780    1.3270 C   0  0  0  0  0  0  0  0  0  0  0  0
    0.4500    3.2070   -1.4150 C   0  0  0  0  0  0  0  0  0  0  0  0
   -0.2960    3.9950   -2.0170 O   0  0  0  0  0  0  0  0  0  0  0  0
    1.8280    3.2950   -1.6810 O   0  0  0  0  0  0  0  0  0  0  0  0
    1.6970    1.8330    0.6800 H   0  0  0  0  0  0  0  0  0  0  0  0
   -0.8570    1.6210   -1.0110 H   0  0  0  0  0  0  0  0  0  0  0  0
   -1.6100    3.5940    0.1770 H   0  0  0  0  0  0  0  0  0  0  0  0
   -0.1920    3.5630    1.2620 H   0  0  0  0  0  0  0  0  0  0  0  0
   -0.2320    1.9420    3.3580 H   0  0  0  0  0  0  0  0  0  0  0  0
   -1.8710    0.1560    4.2590 H   0  0  0  0  0  0  0  0  0  0  0  0
   -4.1300   -1.0990    3.3250 H   0  0  0  0  0  0  0  0  0  0  0  0
   -5.6600   -1.2320    1.4020 H   0  0  0  0  0  0  0  0  0  0  0  0
   -5.2170    0.2230   -0.5960 H   0  0  0  0  0  0  0  0  0  0  0  0
   -3.2640    1.7540   -0.5940 H   0  0  0  0  0  0  0  0  0  0  0  0
  1  8  1  0  0  0  0
  1  7  1  0  0  0  0
  2  9  1  1  0  0  0
  2  4  1  0  0  0  0
  2  1  1  0  0  0  0
  3  2  1  0  0  0  0
  4  5  2  0  0  0  0
  6  1  1  0  0  0  0
 10  3  1  0  0  0  0
 11  3  1  0  0  0  0
 12 13  1  0  0  0  0
 12  4  1  0  0  0  0
 13 19  1  1  0  0  0
 14 20  1  0  0  0  0
 14 15  1  0  0  0  0
 14 13  1  0  0  0  0
 15 22  1  0  0  0  0
 16 23  1  0  0  0  0
 16 13  1  0  0  0  0
 17 16  2  0  0  0  0
 18 12  1  0  0  0  0
 21 14  1  0  0  0  0
 23 38  1  0  0  0  0
 24 39  1  6  0  0  0
 24 23  1  0  0  0  0
 24 25  1  0  0  0  0
 25 41  1  0  0  0  0
 25 26  1  0  0  0  0
 26 27  2  0  0  0  0
 27 28  1  0  0  0  0
 27 42  1  0  0  0  0
 28 43  1  0  0  0  0
 29 30  1  0  0  0  0
 29 28  1  0  0  0  0
 30 44  1  0  0  0  0
 31 45  1  0  0  0  0
 31 30  2  0  0  0  0
 32 31  1  0  0  0  0
 33 32  2  0  0  0  0
 33 34  1  0  0  0  0
 34 26  1  0  0  0  0
 34 29  2  0  0  0  0
 35 24  1  0  0  0  0
 36 35  2  0  0  0  0
 37 35  1  0  0  0  0
 40 25  1  0  0  0  0
 46 32  1  0  0  0  0
 47 33  1  0  0  0  0
M  END
$$$$
