ADE.pdb
 OpenBabel07022417593D

 41 40  0  0  1  0  0  0  0  0999 V2000
    2.2570   -4.3830    0.2980 C   0  0  0  0  0  0  0  0  0  0  0  0
    3.2880   -3.5620   -0.3980 C   0  0  2  0  0  0  0  0  0  0  0  0
    4.6040   -3.9450    0.0320 N   0  0  0  0  0  0  0  0  0  0  0  0
    3.0760   -2.1000   -0.3110 C   0  0  0  0  0  0  0  0  0  0  0  0
    4.0400   -1.3960    0.1090 O   0  0  0  0  0  0  0  0  0  0  0  0
    2.7390   -5.3100    0.6810 H   0  0  0  0  0  0  0  0  0  0  0  0
    1.7780   -3.8910    1.1700 H   0  0  0  0  0  0  0  0  0  0  0  0
    1.4480   -4.7310   -0.3840 H   0  0  0  0  0  0  0  0  0  0  0  0
    3.2230   -3.8220   -1.4900 H   0  0  0  0  0  0  0  0  0  0  0  0
    4.6120   -4.9810    0.2320 H   0  0  0  0  0  0  0  0  0  0  0  0
    4.9170   -3.5010    0.9300 H   0  0  0  0  0  0  0  0  0  0  0  0
    1.8820   -1.4510   -0.6620 N   0  0  0  0  0  0  0  0  0  0  0  0
    1.7670   -0.0160   -0.5470 C   0  0  1  0  0  0  0  0  0  0  0  0
    1.4520    0.5360   -1.9510 C   0  0  0  0  0  0  0  0  0  0  0  0
    1.3240    2.0030   -1.9120 C   0  0  0  0  0  0  0  0  0  0  0  0
    2.2480    2.7240   -1.4540 O   0  0  0  0  0  0  0  0  0  0  0  0
    0.6050    0.4040    0.2850 C   0  0  0  0  0  0  0  0  0  0  0  0
    0.4020    1.6520    0.4450 O   0  0  0  0  0  0  0  0  0  0  0  0
    0.1740    2.6800   -2.3770 O   0  0  0  0  0  0  0  0  0  0  0  0
    1.0770   -2.0170   -1.0080 H   0  0  0  0  0  0  0  0  0  0  0  0
    2.7100    0.4050   -0.1890 H   0  0  0  0  0  0  0  0  0  0  0  0
    2.2960    0.2610   -2.6450 H   0  0  0  0  0  0  0  0  0  0  0  0
    0.5400    0.0940   -2.3570 H   0  0  0  0  0  0  0  0  0  0  0  0
   -0.0150    3.6040   -1.9960 H   0  0  0  0  0  0  0  0  0  0  0  0
   -0.3010   -0.4760    0.9170 N   0  0  0  0  0  0  0  0  0  0  0  0
   -1.4390    0.0240    1.7140 C   0  0  1  0  0  0  0  0  0  0  0  0
   -0.9670    0.7350    2.9230 C   0  0  0  0  0  0  0  0  0  0  0  0
   -2.1060    1.2310    3.7630 C   0  0  0  0  0  0  0  0  0  0  0  0
   -2.9240    0.0620    4.1790 C   0  0  0  0  0  0  0  0  0  0  0  0
   -3.7750   -0.5220    3.4950 O   0  0  0  0  0  0  0  0  0  0  0  0
   -2.3210    0.8350    0.8530 C   0  0  0  0  0  0  0  0  0  0  0  0
   -3.3800    1.4010    1.1570 O   0  0  0  0  0  0  0  0  0  0  0  0
   -2.7290   -0.4520    5.4790 O   0  0  0  0  0  0  0  0  0  0  0  0
   -1.9370    1.0050   -0.5010 O   0  0  0  0  0  0  0  0  0  0  0  0
   -0.1610   -1.5010    0.8180 H   0  0  0  0  0  0  0  0  0  0  0  0
   -2.0290   -0.8630    2.0070 H   0  0  0  0  0  0  0  0  0  0  0  0
   -0.3940    0.0220    3.5830 H   0  0  0  0  0  0  0  0  0  0  0  0
   -0.2950    1.6070    2.6680 H   0  0  0  0  0  0  0  0  0  0  0  0
   -1.7160    1.7390    4.6990 H   0  0  0  0  0  0  0  0  0  0  0  0
   -2.7510    1.9220    3.2020 H   0  0  0  0  0  0  0  0  0  0  0  0
   -2.9220   -1.4460    5.6860 H   0  0  0  0  0  0  0  0  0  0  0  0
  1  6  1  0  0  0  0
  1  7  1  0  0  0  0
  2  9  1  6  0  0  0
  2  4  1  0  0  0  0
  2  3  1  0  0  0  0
  2  1  1  0  0  0  0
  3 10  1  0  0  0  0
  3 11  1  0  0  0  0
  4  5  2  0  0  0  0
  8  1  1  0  0  0  0
 12 13  1  0  0  0  0
 12  4  1  0  0  0  0
 13 21  1  1  0  0  0
 13 17  1  0  0  0  0
 14 15  1  0  0  0  0
 14 13  1  0  0  0  0
 15 16  2  0  0  0  0
 17 18  2  0  0  0  0
 17 25  1  0  0  0  0
 19 24  1  0  0  0  0
 19 15  1  0  0  0  0
 20 12  1  0  0  0  0
 22 14  1  0  0  0  0
 23 14  1  0  0  0  0
 25 26  1  0  0  0  0
 26 36  1  1  0  0  0
 26 27  1  0  0  0  0
 27 37  1  0  0  0  0
 27 28  1  0  0  0  0
 28 29  1  0  0  0  0
 28 39  1  0  0  0  0
 29 33  1  0  0  0  0
 30 29  2  0  0  0  0
 31 32  1  0  0  0  0
 31 26  1  0  0  0  0
 33 41  1  0  0  0  0
 34 31  2  0  0  0  0
 35 25  1  0  0  0  0
 38 27  1  0  0  0  0
 40 28  1  0  0  0  0
M  END
$$$$
