ADI.pdb
 OpenBabel07022417593D

 44 43  0  0  1  0  0  0  0  0999 V2000
   -3.2010   -3.6710   -1.4580 C   0  0  0  0  0  0  0  0  0  0  0  0
   -2.4540   -2.9610   -0.3420 C   0  0  2  0  0  0  0  0  0  0  0  0
   -3.1110   -1.7340   -0.0650 N   0  0  0  0  0  0  0  0  0  0  0  0
   -1.0140   -2.8360   -0.6340 C   0  0  0  0  0  0  0  0  0  0  0  0
   -0.3680   -3.8870   -0.8880 O   0  0  0  0  0  0  0  0  0  0  0  0
   -3.4330   -3.0040   -2.2990 H   0  0  0  0  0  0  0  0  0  0  0  0
   -2.5770   -4.5480   -1.7730 H   0  0  0  0  0  0  0  0  0  0  0  0
   -4.1490   -4.0920   -1.0700 H   0  0  0  0  0  0  0  0  0  0  0  0
   -2.5480   -3.6190    0.5520 H   0  0  0  0  0  0  0  0  0  0  0  0
   -3.8430   -1.7700    0.6710 H   0  0  0  0  0  0  0  0  0  0  0  0
   -3.3660   -1.1610   -0.8860 H   0  0  0  0  0  0  0  0  0  0  0  0
   -0.2970   -1.6190   -0.6520 N   0  0  0  0  0  0  0  0  0  0  0  0
    1.1500   -1.5670   -0.9540 C   0  0  1  0  0  0  0  0  0  0  0  0
    1.2590   -0.7250   -2.1940 C   0  0  0  0  0  0  0  0  0  0  0  0
    2.6180   -0.5390   -2.7120 C   0  0  0  0  0  0  0  0  0  0  0  0
    3.6350   -1.0640   -2.2150 O   0  0  0  0  0  0  0  0  0  0  0  0
    1.8560   -0.9630    0.2200 C   0  0  0  0  0  0  0  0  0  0  0  0
    3.0750   -0.7900    0.2820 O   0  0  0  0  0  0  0  0  0  0  0  0
    2.7780    0.2730   -3.8250 O   0  0  0  0  0  0  0  0  0  0  0  0
   -0.8240   -0.7450   -0.4440 H   0  0  0  0  0  0  0  0  0  0  0  0
    1.5170   -2.5850   -1.1610 H   0  0  0  0  0  0  0  0  0  0  0  0
    0.7910    0.2760   -2.0310 H   0  0  0  0  0  0  0  0  0  0  0  0
    0.6610   -1.1730   -3.0370 H   0  0  0  0  0  0  0  0  0  0  0  0
    3.6420    0.3690   -4.3240 H   0  0  0  0  0  0  0  0  0  0  0  0
   -0.3090    2.8840    4.0380 C   0  0  0  0  0  0  0  0  0  0  0  0
   -0.1530    1.5550    3.2890 C   0  0  0  0  0  0  0  0  0  0  0  0
    1.3110    1.3810    2.9680 C   0  0  2  0  0  0  0  0  0  0  0  0
    1.8370    2.5050    2.1040 C   0  0  0  0  0  0  0  0  0  0  0  0
    1.7070    0.0390    2.5290 C   0  0  2  0  0  0  0  0  0  0  0  0
    1.1450   -0.5370    1.3780 N   0  0  0  0  0  0  0  0  0  0  0  0
    1.6020   -0.9030    3.6700 C   0  0  0  0  0  0  0  0  0  0  0  0
    2.0200   -0.6590    4.8300 O   0  0  0  0  0  0  0  0  0  0  0  0
    1.0120   -2.1450    3.4870 O   0  0  0  0  0  0  0  0  0  0  0  0
   -0.7610    3.6590    3.3930 H   0  0  0  0  0  0  0  0  0  0  0  0
    0.6930    3.2060    4.4310 H   0  0  0  0  0  0  0  0  0  0  0  0
   -0.9740    2.7730    4.9200 H   0  0  0  0  0  0  0  0  0  0  0  0
   -0.5280    0.7740    3.9800 H   0  0  0  0  0  0  0  0  0  0  0  0
   -0.8130    1.5660    2.4190 H   0  0  0  0  0  0  0  0  0  0  0  0
    1.7890    1.5500    3.9660 H   0  0  0  0  0  0  0  0  0  0  0  0
    1.5340    3.5040    2.4800 H   0  0  0  0  0  0  0  0  0  0  0  0
    1.3220    2.4130    1.1070 H   0  0  0  0  0  0  0  0  0  0  0  0
    2.9250    2.5180    2.0280 H   0  0  0  0  0  0  0  0  0  0  0  0
    2.8240    0.0890    2.3160 H   0  0  0  0  0  0  0  0  0  0  0  0
    0.1050   -0.6680    1.3630 H   0  0  0  0  0  0  0  0  0  0  0  0
  1  8  1  0  0  0  0
  1  2  1  0  0  0  0
  2  3  1  0  0  0  0
  2  9  1  1  0  0  0
  3 10  1  0  0  0  0
  4  2  1  0  0  0  0
  5  4  2  0  0  0  0
  6  1  1  0  0  0  0
  7  1  1  0  0  0  0
 11  3  1  0  0  0  0
 12  4  1  0  0  0  0
 12 20  1  0  0  0  0
 13 21  1  6  0  0  0
 13 12  1  0  0  0  0
 13 17  1  0  0  0  0
 14 22  1  0  0  0  0
 14 13  1  0  0  0  0
 15 16  2  0  0  0  0
 15 14  1  0  0  0  0
 17 18  2  0  0  0  0
 17 30  1  0  0  0  0
 19 15  1  0  0  0  0
 23 14  1  0  0  0  0
 24 19  1  0  0  0  0
 25 35  1  0  0  0  0
 25 36  1  0  0  0  0
 26 37  1  0  0  0  0
 26 25  1  0  0  0  0
 27 26  1  0  0  0  0
 27 39  1  1  0  0  0
 28 40  1  0  0  0  0
 28 27  1  0  0  0  0
 29 43  1  6  0  0  0
 29 27  1  0  0  0  0
 29 31  1  0  0  0  0
 30 29  1  0  0  0  0
 31 32  1  0  0  0  0
 33 31  2  0  0  0  0
 34 25  1  0  0  0  0
 38 26  1  0  0  0  0
 41 28  1  0  0  0  0
 42 28  1  0  0  0  0
 44 30  1  0  0  0  0
M  END
$$$$
