ADK.pdb
 OpenBabel07022417593D

 46 45  0  0  1  0  0  0  0  0999 V2000
    4.7050   -3.2170   -0.6500 C   0  0  0  0  0  0  0  0  0  0  0  0
    4.2470   -1.9730    0.0990 C   0  0  2  0  0  0  0  0  0  0  0  0
    3.8810   -2.4230    1.4410 N   0  0  0  0  0  0  0  0  0  0  0  0
    3.0280   -1.4820   -0.6280 C   0  0  0  0  0  0  0  0  0  0  0  0
    3.2460   -1.0690   -1.8070 O   0  0  0  0  0  0  0  0  0  0  0  0
    4.8630   -2.9250   -1.7200 H   0  0  0  0  0  0  0  0  0  0  0  0
    5.6180   -3.6480   -0.2230 H   0  0  0  0  0  0  0  0  0  0  0  0
    3.8500   -3.9450   -0.6080 H   0  0  0  0  0  0  0  0  0  0  0  0
    5.0410   -1.2090    0.1270 H   0  0  0  0  0  0  0  0  0  0  0  0
    4.7670   -2.7640    1.8830 H   0  0  0  0  0  0  0  0  0  0  0  0
    3.2550   -3.2480    1.3500 H   0  0  0  0  0  0  0  0  0  0  0  0
    1.7380   -1.4830   -0.0350 N   0  0  0  0  0  0  0  0  0  0  0  0
    0.6410   -0.9860   -0.8350 C   0  0  1  0  0  0  0  0  0  0  0  0
   -0.3690   -2.1140   -1.0710 C   0  0  0  0  0  0  0  0  0  0  0  0
    0.2250   -3.2470   -1.7710 C   0  0  0  0  0  0  0  0  0  0  0  0
    0.8890   -4.0970   -1.1350 O   0  0  0  0  0  0  0  0  0  0  0  0
   -0.1100    0.0950   -0.1670 C   0  0  0  0  0  0  0  0  0  0  0  0
   -1.0850    0.5880   -0.7910 O   0  0  0  0  0  0  0  0  0  0  0  0
    0.0780   -3.4140   -3.1340 O   0  0  0  0  0  0  0  0  0  0  0  0
    1.6570   -1.8360    0.9210 H   0  0  0  0  0  0  0  0  0  0  0  0
    0.9570   -0.6550   -1.8330 H   0  0  0  0  0  0  0  0  0  0  0  0
   -0.6740   -2.4790   -0.0450 H   0  0  0  0  0  0  0  0  0  0  0  0
   -1.2500   -1.7640   -1.6040 H   0  0  0  0  0  0  0  0  0  0  0  0
    0.8060   -3.8610   -3.7120 H   0  0  0  0  0  0  0  0  0  0  0  0
    0.1950    0.6070    1.1240 N   0  0  0  0  0  0  0  0  0  0  0  0
   -0.5740    1.6740    1.7440 C   0  0  1  0  0  0  0  0  0  0  0  0
   -1.0880    1.2360    3.0700 C   0  0  0  0  0  0  0  0  0  0  0  0
   -1.9820    0.0450    3.0350 C   0  0  0  0  0  0  0  0  0  0  0  0
   -3.2180    0.2080    2.2220 C   0  0  0  0  0  0  0  0  0  0  0  0
   -4.0970    1.3430    2.7270 C   0  0  0  0  0  0  0  0  0  0  0  0
   -5.2920    1.4760    1.9140 N   0  0  0  0  0  0  0  0  0  0  0  0
    0.3100    2.8710    1.9870 C   0  0  0  0  0  0  0  0  0  0  0  0
    1.5270    2.8680    1.6670 O   0  0  0  0  0  0  0  0  0  0  0  0
   -0.1890    4.0230    2.5730 O   0  0  0  0  0  0  0  0  0  0  0  0
    1.0110    0.1630    1.5970 H   0  0  0  0  0  0  0  0  0  0  0  0
   -1.3930    2.0260    1.1230 H   0  0  0  0  0  0  0  0  0  0  0  0
   -1.6490    2.1020    3.5220 H   0  0  0  0  0  0  0  0  0  0  0  0
   -0.2530    1.0160    3.7670 H   0  0  0  0  0  0  0  0  0  0  0  0
   -2.2960   -0.1840    4.0830 H   0  0  0  0  0  0  0  0  0  0  0  0
   -1.4250   -0.8500    2.6900 H   0  0  0  0  0  0  0  0  0  0  0  0
   -3.8310   -0.7260    2.3660 H   0  0  0  0  0  0  0  0  0  0  0  0
   -3.0330    0.2770    1.1320 H   0  0  0  0  0  0  0  0  0  0  0  0
   -4.4260    1.0600    3.7420 H   0  0  0  0  0  0  0  0  0  0  0  0
   -3.5820    2.3220    2.6900 H   0  0  0  0  0  0  0  0  0  0  0  0
   -5.1430    2.2280    1.1860 H   0  0  0  0  0  0  0  0  0  0  0  0
   -5.3650    0.5800    1.3480 H   0  0  0  0  0  0  0  0  0  0  0  0
  1  8  1  0  0  0  0
  1  7  1  0  0  0  0
  1  2  1  0  0  0  0
  2  9  1  1  0  0  0
  2  3  1  0  0  0  0
  3 10  1  0  0  0  0
  4 12  1  0  0  0  0
  4  2  1  0  0  0  0
  5  4  2  0  0  0  0
  6  1  1  0  0  0  0
 11  3  1  0  0  0  0
 12 20  1  0  0  0  0
 13 21  1  6  0  0  0
 13 17  1  0  0  0  0
 13 12  1  0  0  0  0
 14 13  1  0  0  0  0
 14 22  1  0  0  0  0
 15 16  2  0  0  0  0
 15 14  1  0  0  0  0
 17 25  1  0  0  0  0
 18 17  2  0  0  0  0
 19 15  1  0  0  0  0
 23 14  1  0  0  0  0
 24 19  1  0  0  0  0
 25 35  1  0  0  0  0
 25 26  1  0  0  0  0
 26 36  1  6  0  0  0
 26 32  1  0  0  0  0
 26 27  1  0  0  0  0
 27 37  1  0  0  0  0
 27 38  1  0  0  0  0
 28 27  1  0  0  0  0
 28 39  1  0  0  0  0
 29 41  1  0  0  0  0
 29 30  1  0  0  0  0
 29 28  1  0  0  0  0
 30 43  1  0  0  0  0
 31 30  1  0  0  0  0
 32 34  1  0  0  0  0
 33 32  2  0  0  0  0
 40 28  1  0  0  0  0
 42 29  1  0  0  0  0
 44 30  1  0  0  0  0
 45 31  1  0  0  0  0
 46 31  1  0  0  0  0
M  END
$$$$
