ADL.pdb
 OpenBabel07022417593D

 44 43  0  0  1  0  0  0  0  0999 V2000
   -1.4260   -4.7030   -2.2530 C   0  0  0  0  0  0  0  0  0  0  0  0
   -1.4970   -3.6290   -1.2060 C   0  0  2  0  0  0  0  0  0  0  0  0
   -2.3680   -2.5580   -1.5820 N   0  0  0  0  0  0  0  0  0  0  0  0
   -0.1400   -3.1760   -0.8120 C   0  0  0  0  0  0  0  0  0  0  0  0
    0.6720   -4.0810   -0.4700 O   0  0  0  0  0  0  0  0  0  0  0  0
   -1.3760   -4.2240   -3.2560 H   0  0  0  0  0  0  0  0  0  0  0  0
   -0.4860   -5.2820   -2.0800 H   0  0  0  0  0  0  0  0  0  0  0  0
   -2.3320   -5.3460   -2.1650 H   0  0  0  0  0  0  0  0  0  0  0  0
   -1.9460   -4.1040   -0.2840 H   0  0  0  0  0  0  0  0  0  0  0  0
   -2.3170   -2.2640   -2.5620 H   0  0  0  0  0  0  0  0  0  0  0  0
   -2.3500   -1.8110   -0.8770 H   0  0  0  0  0  0  0  0  0  0  0  0
    0.2730   -1.8320   -0.8010 N   0  0  0  0  0  0  0  0  0  0  0  0
    1.6120   -1.4590   -0.4070 C   0  0  1  0  0  0  0  0  0  0  0  0
    2.3490   -0.7090   -1.4800 C   0  0  0  0  0  0  0  0  0  0  0  0
    2.5080   -1.4670   -2.7310 C   0  0  0  0  0  0  0  0  0  0  0  0
    2.0460   -2.6210   -2.8200 O   0  0  0  0  0  0  0  0  0  0  0  0
    1.6030   -0.6840    0.8600 C   0  0  0  0  0  0  0  0  0  0  0  0
    2.6990   -0.2960    1.3200 O   0  0  0  0  0  0  0  0  0  0  0  0
    3.1630   -0.9150   -3.8090 O   0  0  0  0  0  0  0  0  0  0  0  0
   -0.4440   -1.1170   -1.0940 H   0  0  0  0  0  0  0  0  0  0  0  0
    2.1830   -2.3900   -0.1880 H   0  0  0  0  0  0  0  0  0  0  0  0
    1.8480    0.2830   -1.6760 H   0  0  0  0  0  0  0  0  0  0  0  0
    3.3640   -0.4450   -1.1210 H   0  0  0  0  0  0  0  0  0  0  0  0
    3.4940   -1.4310   -4.6060 H   0  0  0  0  0  0  0  0  0  0  0  0
    1.1750    2.9940    4.1210 C   0  0  0  0  0  0  0  0  0  0  0  0
   -0.2410    2.5960    3.7290 C   0  0  0  0  0  0  0  0  0  0  0  0
   -0.9080    3.8930    3.2790 C   0  0  0  0  0  0  0  0  0  0  0  0
   -0.2480    1.6840    2.5360 C   0  0  0  0  0  0  0  0  0  0  0  0
    0.5260    0.3910    2.7900 C   0  0  2  0  0  0  0  0  0  0  0  0
    0.4290   -0.3670    1.5670 N   0  0  0  0  0  0  0  0  0  0  0  0
   -0.0160   -0.3770    3.9190 C   0  0  0  0  0  0  0  0  0  0  0  0
   -0.0260    0.0720    5.0850 O   0  0  0  0  0  0  0  0  0  0  0  0
   -0.5340   -1.6370    3.6940 O   0  0  0  0  0  0  0  0  0  0  0  0
    1.8320    2.8650    3.2340 H   0  0  0  0  0  0  0  0  0  0  0  0
    1.2380    4.0740    4.3980 H   0  0  0  0  0  0  0  0  0  0  0  0
    1.5590    2.3450    4.9370 H   0  0  0  0  0  0  0  0  0  0  0  0
   -0.8040    2.1930    4.5720 H   0  0  0  0  0  0  0  0  0  0  0  0
   -1.4240    4.3280    4.1570 H   0  0  0  0  0  0  0  0  0  0  0  0
   -0.1560    4.5980    2.8900 H   0  0  0  0  0  0  0  0  0  0  0  0
   -1.6190    3.6960    2.4590 H   0  0  0  0  0  0  0  0  0  0  0  0
    0.2570    2.2400    1.7090 H   0  0  0  0  0  0  0  0  0  0  0  0
   -1.2520    1.4450    2.1750 H   0  0  0  0  0  0  0  0  0  0  0  0
    1.5950    0.6220    2.9950 H   0  0  0  0  0  0  0  0  0  0  0  0
   -0.5120   -0.6580    1.2420 H   0  0  0  0  0  0  0  0  0  0  0  0
  1  8  1  0  0  0  0
  1  7  1  0  0  0  0
  1  2  1  0  0  0  0
  2  4  1  0  0  0  0
  2  9  1  1  0  0  0
  3  2  1  0  0  0  0
  3 11  1  0  0  0  0
  4 12  1  0  0  0  0
  4  5  2  0  0  0  0
  6  1  1  0  0  0  0
 10  3  1  0  0  0  0
 12 13  1  0  0  0  0
 13 21  1  1  0  0  0
 13 17  1  0  0  0  0
 14 23  1  0  0  0  0
 14 13  1  0  0  0  0
 15 14  1  0  0  0  0
 16 15  2  0  0  0  0
 17 18  2  0  0  0  0
 17 30  1  0  0  0  0
 19 15  1  0  0  0  0
 20 12  1  0  0  0  0
 22 14  1  0  0  0  0
 24 19  1  0  0  0  0
 25 35  1  0  0  0  0
 25 36  1  0  0  0  0
 26 25  1  0  0  0  0
 26 37  1  0  0  0  0
 27 26  1  0  0  0  0
 27 38  1  0  0  0  0
 28 29  1  0  0  0  0
 28 26  1  0  0  0  0
 29 43  1  1  0  0  0
 29 31  1  0  0  0  0
 30 29  1  0  0  0  0
 31 32  1  0  0  0  0
 33 31  2  0  0  0  0
 34 25  1  0  0  0  0
 39 27  1  0  0  0  0
 40 27  1  0  0  0  0
 41 28  1  0  0  0  0
 42 28  1  0  0  0  0
 44 30  1  0  0  0  0
M  END
$$$$
