ADN.pdb
 OpenBabel07022417593D

 39 38  0  0  1  0  0  0  0  0999 V2000
   -2.2010   -2.9810    1.1590 C   0  0  0  0  0  0  0  0  0  0  0  0
   -2.7300   -2.3990   -0.1550 C   0  0  2  0  0  0  0  0  0  0  0  0
   -3.1430   -3.5080   -1.0210 N   0  0  0  0  0  0  0  0  0  0  0  0
   -1.6760   -1.6330   -0.8520 C   0  0  0  0  0  0  0  0  0  0  0  0
   -1.2690   -1.9800   -2.0110 O   0  0  0  0  0  0  0  0  0  0  0  0
   -1.1340   -3.2610    0.9290 H   0  0  0  0  0  0  0  0  0  0  0  0
   -2.2260   -2.2180    1.9510 H   0  0  0  0  0  0  0  0  0  0  0  0
   -2.8120   -3.8560    1.4200 H   0  0  0  0  0  0  0  0  0  0  0  0
   -3.5980   -1.7710    0.0380 H   0  0  0  0  0  0  0  0  0  0  0  0
   -2.3500   -3.9690   -1.4820 H   0  0  0  0  0  0  0  0  0  0  0  0
   -3.7970   -4.1400   -0.5170 H   0  0  0  0  0  0  0  0  0  0  0  0
   -1.0700   -0.4880   -0.2780 N   0  0  0  0  0  0  0  0  0  0  0  0
   -0.0280    0.2460   -1.0010 C   0  0  1  0  0  0  0  0  0  0  0  0
   -0.4940    1.6800   -1.0440 C   0  0  0  0  0  0  0  0  0  0  0  0
    0.4250    2.5570   -1.7690 C   0  0  0  0  0  0  0  0  0  0  0  0
    1.4480    2.1810   -2.3700 O   0  0  0  0  0  0  0  0  0  0  0  0
    1.2160    0.1500   -0.1720 C   0  0  0  0  0  0  0  0  0  0  0  0
    2.2920    0.6660   -0.5240 O   0  0  0  0  0  0  0  0  0  0  0  0
    0.1400    3.9210   -1.7910 O   0  0  0  0  0  0  0  0  0  0  0  0
   -1.3760   -0.1710    0.6640 H   0  0  0  0  0  0  0  0  0  0  0  0
    0.1890   -0.1700   -1.9770 H   0  0  0  0  0  0  0  0  0  0  0  0
   -0.6910    2.0310   -0.0040 H   0  0  0  0  0  0  0  0  0  0  0  0
   -1.4710    1.7150   -1.5990 H   0  0  0  0  0  0  0  0  0  0  0  0
    0.8080    4.6140   -2.1050 H   0  0  0  0  0  0  0  0  0  0  0  0
    2.6840    2.2380    3.7540 N   0  0  0  0  0  0  0  0  0  0  0  0
    1.7760    1.2370    3.3870 C   0  0  0  0  0  0  0  0  0  0  0  0
    0.5960    1.5450    3.1140 O   0  0  0  0  0  0  0  0  0  0  0  0
    2.1690   -0.1830    3.3130 C   0  0  0  0  0  0  0  0  0  0  0  0
    2.3930   -0.6620    1.8990 C   0  0  2  0  0  0  0  0  0  0  0  0
    1.2320   -0.5420    1.0710 N   0  0  0  0  0  0  0  0  0  0  0  0
    2.7760   -2.0900    1.9680 C   0  0  0  0  0  0  0  0  0  0  0  0
    3.7690   -2.5120    2.6270 O   0  0  0  0  0  0  0  0  0  0  0  0
    2.0330   -3.0410    1.2880 O   0  0  0  0  0  0  0  0  0  0  0  0
    2.9630    2.3610    4.7410 H   0  0  0  0  0  0  0  0  0  0  0  0
    3.0840    2.8650    3.0360 H   0  0  0  0  0  0  0  0  0  0  0  0
    1.4500   -0.8290    3.8190 H   0  0  0  0  0  0  0  0  0  0  0  0
    3.1370   -0.2900    3.8560 H   0  0  0  0  0  0  0  0  0  0  0  0
    3.2710   -0.1360    1.4330 H   0  0  0  0  0  0  0  0  0  0  0  0
    0.3390   -0.9820    1.3800 H   0  0  0  0  0  0  0  0  0  0  0  0
  1  8  1  0  0  0  0
  1  7  1  0  0  0  0
  2  9  1  1  0  0  0
  2  1  1  0  0  0  0
  3 11  1  0  0  0  0
  3  2  1  0  0  0  0
  4 12  1  0  0  0  0
  4  2  1  0  0  0  0
  5  4  2  0  0  0  0
  6  1  1  0  0  0  0
 10  3  1  0  0  0  0
 12 20  1  0  0  0  0
 13 21  1  6  0  0  0
 13 12  1  0  0  0  0
 13 17  1  0  0  0  0
 14 13  1  0  0  0  0
 14 22  1  0  0  0  0
 15 14  1  0  0  0  0
 16 15  2  0  0  0  0
 17 30  1  0  0  0  0
 18 17  2  0  0  0  0
 19 15  1  0  0  0  0
 23 14  1  0  0  0  0
 24 19  1  0  0  0  0
 25 34  1  0  0  0  0
 26 25  1  0  0  0  0
 27 26  2  0  0  0  0
 28 26  1  0  0  0  0
 28 36  1  0  0  0  0
 28 37  1  0  0  0  0
 29 38  1  6  0  0  0
 29 31  1  0  0  0  0
 29 28  1  0  0  0  0
 30 39  1  0  0  0  0
 30 29  1  0  0  0  0
 31 32  1  0  0  0  0
 33 31  2  0  0  0  0
 35 25  1  0  0  0  0
M  END
$$$$
