ADP.pdb
 OpenBabel07022418003D

 39 39  0  0  1  0  0  0  0  0999 V2000
    0.1010   -4.8460    1.2960 C   0  0  0  0  0  0  0  0  0  0  0  0
    0.1460   -3.3900    1.7480 C   0  0  2  0  0  0  0  0  0  0  0  0
   -1.2130   -2.9020    1.7490 N   0  0  0  0  0  0  0  0  0  0  0  0
    1.0040   -2.5670    0.8590 C   0  0  0  0  0  0  0  0  0  0  0  0
    2.2220   -2.8370    0.7200 O   0  0  0  0  0  0  0  0  0  0  0  0
    1.1190   -5.2710    1.3100 H   0  0  0  0  0  0  0  0  0  0  0  0
   -0.5710   -5.3630    2.0060 H   0  0  0  0  0  0  0  0  0  0  0  0
   -0.3860   -4.8660    0.3090 H   0  0  0  0  0  0  0  0  0  0  0  0
    0.5690   -3.3860    2.7810 H   0  0  0  0  0  0  0  0  0  0  0  0
   -1.9210   -3.6280    1.6100 H   0  0  0  0  0  0  0  0  0  0  0  0
   -1.4150   -2.1910    2.4620 H   0  0  0  0  0  0  0  0  0  0  0  0
    0.4250   -1.4790    0.1750 N   0  0  0  0  0  0  0  0  0  0  0  0
    1.1950   -0.6100   -0.7250 C   0  0  1  0  0  0  0  0  0  0  0  0
    0.6250   -0.8280   -2.0940 C   0  0  0  0  0  0  0  0  0  0  0  0
    1.2160   -0.1430   -3.2060 C   0  0  0  0  0  0  0  0  0  0  0  0
    2.2650    0.5110   -3.1820 O   0  0  0  0  0  0  0  0  0  0  0  0
    1.2200    0.7820   -0.2690 C   0  0  0  0  0  0  0  0  0  0  0  0
    1.8560    1.6000   -1.0430 O   0  0  0  0  0  0  0  0  0  0  0  0
    0.5760   -0.1930   -4.4710 O   0  0  0  0  0  0  0  0  0  0  0  0
   -0.5770   -1.2810    0.2820 H   0  0  0  0  0  0  0  0  0  0  0  0
    2.2310   -1.0360   -0.7160 H   0  0  0  0  0  0  0  0  0  0  0  0
    0.7010   -1.9430   -2.2840 H   0  0  0  0  0  0  0  0  0  0  0  0
   -0.4910   -0.6410   -1.9950 H   0  0  0  0  0  0  0  0  0  0  0  0
    0.6450    0.6060   -5.1170 H   0  0  0  0  0  0  0  0  0  0  0  0
    0.6400    1.3140    0.8940 N   0  0  0  0  0  0  0  0  0  0  0  0
    0.7000    2.7670    1.2060 C   0  0  0  0  0  0  0  0  0  0  0  0
    1.3050    2.6580    2.6120 C   0  0  0  0  0  0  0  0  0  0  0  0
    0.3700    1.6210    3.1960 C   0  0  0  0  0  0  0  0  0  0  0  0
   -0.0700    0.7670    1.9890 C   0  0  1  0  0  0  0  0  0  0  0  0
   -1.5510    0.9440    1.8500 C   0  0  0  0  0  0  0  0  0  0  0  0
   -2.0210    1.5360    0.8510 O   0  0  0  0  0  0  0  0  0  0  0  0
   -2.4290    0.4670    2.8040 O   0  0  0  0  0  0  0  0  0  0  0  0
   -0.3220    3.1710    1.2880 H   0  0  0  0  0  0  0  0  0  0  0  0
    1.3600    3.3070    0.5240 H   0  0  0  0  0  0  0  0  0  0  0  0
    1.2860    3.6170    3.1440 H   0  0  0  0  0  0  0  0  0  0  0  0
    2.3300    2.2470    2.4770 H   0  0  0  0  0  0  0  0  0  0  0  0
    0.8380    0.9950    3.9610 H   0  0  0  0  0  0  0  0  0  0  0  0
   -0.4930    2.1790    3.6130 H   0  0  0  0  0  0  0  0  0  0  0  0
    0.1210   -0.2990    2.2290 H   0  0  0  0  0  0  0  0  0  0  0  0
  1  6  1  0  0  0  0
  1  2  1  0  0  0  0
  1  7  1  0  0  0  0
  2  3  1  0  0  0  0
  2  9  1  1  0  0  0
  3 11  1  0  0  0  0
  4  2  1  0  0  0  0
  5  4  2  0  0  0  0
  8  1  1  0  0  0  0
 10  3  1  0  0  0  0
 12 20  1  0  0  0  0
 12  4  1  0  0  0  0
 13 21  1  6  0  0  0
 13 17  1  0  0  0  0
 13 12  1  0  0  0  0
 14 23  1  0  0  0  0
 14 13  1  0  0  0  0
 15 16  2  0  0  0  0
 15 14  1  0  0  0  0
 17 25  1  0  0  0  0
 18 17  2  0  0  0  0
 19 15  1  0  0  0  0
 22 14  1  0  0  0  0
 24 19  1  0  0  0  0
 25 26  1  0  0  0  0
 25 29  1  0  0  0  0
 26 33  1  0  0  0  0
 26 27  1  0  0  0  0
 27 35  1  0  0  0  0
 27 28  1  0  0  0  0
 28 38  1  0  0  0  0
 28 37  1  0  0  0  0
 29 39  1  1  0  0  0
 29 28  1  0  0  0  0
 30 29  1  0  0  0  0
 30 32  1  0  0  0  0
 31 30  2  0  0  0  0
 34 26  1  0  0  0  0
 36 27  1  0  0  0  0
M  END
$$$$
