ADS.pdb
 OpenBabel07022418003D

 36 35  0  0  1  0  0  0  0  0999 V2000
   -0.4670   -3.6790    1.7520 C   0  0  0  0  0  0  0  0  0  0  0  0
    1.0010   -3.6210    2.0270 C   0  0  2  0  0  0  0  0  0  0  0  0
    1.2570   -4.0470    3.3750 N   0  0  0  0  0  0  0  0  0  0  0  0
    1.4980   -2.2210    1.8730 C   0  0  0  0  0  0  0  0  0  0  0  0
    2.0500   -1.6320    2.8370 O   0  0  0  0  0  0  0  0  0  0  0  0
   -0.9700   -4.1840    2.5930 H   0  0  0  0  0  0  0  0  0  0  0  0
   -0.8990   -2.6570    1.6830 H   0  0  0  0  0  0  0  0  0  0  0  0
   -0.6460   -4.2630    0.8230 H   0  0  0  0  0  0  0  0  0  0  0  0
    1.5490   -4.2370    1.2760 H   0  0  0  0  0  0  0  0  0  0  0  0
    0.3730   -4.2410    3.9040 H   0  0  0  0  0  0  0  0  0  0  0  0
    1.8310   -3.3510    3.9100 H   0  0  0  0  0  0  0  0  0  0  0  0
    1.3750   -1.5030    0.6540 N   0  0  0  0  0  0  0  0  0  0  0  0
    1.8850   -0.1280    0.5640 C   0  0  1  0  0  0  0  0  0  0  0  0
    2.8520   -0.0860   -0.5710 C   0  0  0  0  0  0  0  0  0  0  0  0
    3.4590    1.2270   -0.8000 C   0  0  0  0  0  0  0  0  0  0  0  0
    4.4230    1.6240   -0.0850 O   0  0  0  0  0  0  0  0  0  0  0  0
    0.7250    0.8090    0.3400 C   0  0  0  0  0  0  0  0  0  0  0  0
    0.9260    2.0440    0.2220 O   0  0  0  0  0  0  0  0  0  0  0  0
    3.0340    2.1130   -1.7930 O   0  0  0  0  0  0  0  0  0  0  0  0
    0.9210   -1.9670   -0.1610 H   0  0  0  0  0  0  0  0  0  0  0  0
    2.3380    0.1890    1.5120 H   0  0  0  0  0  0  0  0  0  0  0  0
    3.6570   -0.8230   -0.3380 H   0  0  0  0  0  0  0  0  0  0  0  0
    2.3500   -0.4930   -1.4900 H   0  0  0  0  0  0  0  0  0  0  0  0
    3.6400    2.7500   -2.2770 H   0  0  0  0  0  0  0  0  0  0  0  0
   -1.6690    0.8300   -2.3040 O   0  0  0  0  0  0  0  0  0  0  0  0
   -2.4870    0.7580   -1.1920 C   0  0  0  0  0  0  0  0  0  0  0  0
   -1.7580    1.2080    0.0420 C   0  0  2  0  0  0  0  0  0  0  0  0
   -0.6120    0.3600    0.2540 N   0  0  0  0  0  0  0  0  0  0  0  0
   -2.6740    1.0910    1.2080 C   0  0  0  0  0  0  0  0  0  0  0  0
   -3.7550    1.7280    1.2890 O   0  0  0  0  0  0  0  0  0  0  0  0
   -2.3500    0.2540    2.2650 O   0  0  0  0  0  0  0  0  0  0  0  0
   -1.7410    1.7160   -2.7410 H   0  0  0  0  0  0  0  0  0  0  0  0
   -2.7800   -0.2940   -1.0310 H   0  0  0  0  0  0  0  0  0  0  0  0
   -3.4150    1.3710   -1.3030 H   0  0  0  0  0  0  0  0  0  0  0  0
   -1.4950    2.2740   -0.0650 H   0  0  0  0  0  0  0  0  0  0  0  0
   -0.7780   -0.6650    0.3530 H   0  0  0  0  0  0  0  0  0  0  0  0
  1  2  1  0  0  0  0
  1  6  1  0  0  0  0
  2  9  1  6  0  0  0
  2  3  1  0  0  0  0
  3 10  1  0  0  0  0
  3 11  1  0  0  0  0
  4  2  1  0  0  0  0
  4  5  2  0  0  0  0
  7  1  1  0  0  0  0
  8  1  1  0  0  0  0
 12  4  1  0  0  0  0
 13 12  1  0  0  0  0
 13 21  1  1  0  0  0
 14 22  1  0  0  0  0
 14 13  1  0  0  0  0
 15 14  1  0  0  0  0
 15 16  2  0  0  0  0
 17 13  1  0  0  0  0
 18 17  2  0  0  0  0
 19 15  1  0  0  0  0
 20 12  1  0  0  0  0
 23 14  1  0  0  0  0
 24 19  1  0  0  0  0
 25 26  1  0  0  0  0
 26 33  1  0  0  0  0
 26 27  1  0  0  0  0
 27 35  1  6  0  0  0
 27 28  1  0  0  0  0
 27 29  1  0  0  0  0
 28 17  1  0  0  0  0
 28 36  1  0  0  0  0
 29 30  2  0  0  0  0
 29 31  1  0  0  0  0
 32 25  1  0  0  0  0
 34 26  1  0  0  0  0
M  END
$$$$
