ADV.pdb
 OpenBabel07022418003D

 41 40  0  0  1  0  0  0  0  0999 V2000
    2.7330   -4.9540    2.5450 C   0  0  0  0  0  0  0  0  0  0  0  0
    2.0890   -3.6000    2.4940 C   0  0  2  0  0  0  0  0  0  0  0  0
    0.7670   -3.5760    3.0650 N   0  0  0  0  0  0  0  0  0  0  0  0
    2.0450   -3.0210    1.1300 C   0  0  0  0  0  0  0  0  0  0  0  0
    3.0340   -3.0480    0.3320 O   0  0  0  0  0  0  0  0  0  0  0  0
    2.0230   -5.7770    2.3330 H   0  0  0  0  0  0  0  0  0  0  0  0
    3.1460   -5.1590    3.5730 H   0  0  0  0  0  0  0  0  0  0  0  0
    3.5750   -5.0240    1.8340 H   0  0  0  0  0  0  0  0  0  0  0  0
    2.7100   -2.9320    3.1650 H   0  0  0  0  0  0  0  0  0  0  0  0
    0.7710   -4.2730    3.8700 H   0  0  0  0  0  0  0  0  0  0  0  0
    0.6060   -2.6500    3.4990 H   0  0  0  0  0  0  0  0  0  0  0  0
    0.8590   -2.3990    0.6630 N   0  0  0  0  0  0  0  0  0  0  0  0
    0.7220   -1.8140   -0.6450 C   0  0  1  0  0  0  0  0  0  0  0  0
   -0.5000   -2.4920   -1.2970 C   0  0  0  0  0  0  0  0  0  0  0  0
   -0.7390   -1.9950   -2.6360 C   0  0  0  0  0  0  0  0  0  0  0  0
    0.2220   -1.8980   -3.4530 O   0  0  0  0  0  0  0  0  0  0  0  0
    0.5410   -0.3590   -0.6110 C   0  0  0  0  0  0  0  0  0  0  0  0
    0.4010    0.2210   -1.7440 O   0  0  0  0  0  0  0  0  0  0  0  0
   -1.9990   -1.6150   -3.0630 O   0  0  0  0  0  0  0  0  0  0  0  0
    0.0410   -2.3700    1.3200 H   0  0  0  0  0  0  0  0  0  0  0  0
    1.6280   -2.0500   -1.2080 H   0  0  0  0  0  0  0  0  0  0  0  0
   -0.2290   -3.5840   -1.3070 H   0  0  0  0  0  0  0  0  0  0  0  0
   -1.3360   -2.3600   -0.5920 H   0  0  0  0  0  0  0  0  0  0  0  0
   -2.2330   -1.0990   -3.8720 H   0  0  0  0  0  0  0  0  0  0  0  0
   -0.8990    3.8440    1.5660 C   0  0  0  0  0  0  0  0  0  0  0  0
   -0.6080    2.3770    1.5370 C   0  0  0  0  0  0  0  0  0  0  0  0
   -1.9140    1.6030    1.5470 C   0  0  0  0  0  0  0  0  0  0  0  0
    0.3140    1.9110    0.4700 C   0  0  2  0  0  0  0  0  0  0  0  0
    0.5090    0.4550    0.5470 N   0  0  0  0  0  0  0  0  0  0  0  0
    1.6540    2.5860    0.5350 C   0  0  0  0  0  0  0  0  0  0  0  0
    2.6560    1.8520    0.6550 O   0  0  0  0  0  0  0  0  0  0  0  0
    1.8040    3.9420    0.4690 O   0  0  0  0  0  0  0  0  0  0  0  0
   -1.4460    4.2270    0.6990 H   0  0  0  0  0  0  0  0  0  0  0  0
    0.0030    4.4210    1.8410 H   0  0  0  0  0  0  0  0  0  0  0  0
   -1.6010    4.0180    2.4400 H   0  0  0  0  0  0  0  0  0  0  0  0
   -0.0980    2.1380    2.5220 H   0  0  0  0  0  0  0  0  0  0  0  0
   -1.7470    0.6000    1.0720 H   0  0  0  0  0  0  0  0  0  0  0  0
   -2.6680    2.1290    0.9460 H   0  0  0  0  0  0  0  0  0  0  0  0
   -2.2380    1.4260    2.5940 H   0  0  0  0  0  0  0  0  0  0  0  0
   -0.0720    2.1390   -0.5280 H   0  0  0  0  0  0  0  0  0  0  0  0
    0.6250   -0.0140    1.4760 H   0  0  0  0  0  0  0  0  0  0  0  0
  1  7  1  0  0  0  0
  2  1  1  0  0  0  0
  2  3  1  0  0  0  0
  2  9  1  1  0  0  0
  3 11  1  0  0  0  0
  3 10  1  0  0  0  0
  4  2  1  0  0  0  0
  5  4  2  0  0  0  0
  6  1  1  0  0  0  0
  8  1  1  0  0  0  0
 12  4  1  0  0  0  0
 12 20  1  0  0  0  0
 13 21  1  6  0  0  0
 13 17  1  0  0  0  0
 13 12  1  0  0  0  0
 14 13  1  0  0  0  0
 14 23  1  0  0  0  0
 15 14  1  0  0  0  0
 16 15  2  0  0  0  0
 17 29  1  0  0  0  0
 18 17  2  0  0  0  0
 19 15  1  0  0  0  0
 22 14  1  0  0  0  0
 24 19  1  0  0  0  0
 25 34  1  0  0  0  0
 25 35  1  0  0  0  0
 26 27  1  0  0  0  0
 26 25  1  0  0  0  0
 26 36  1  0  0  0  0
 27 39  1  0  0  0  0
 28 40  1  6  0  0  0
 28 30  1  0  0  0  0
 28 29  1  0  0  0  0
 28 26  1  0  0  0  0
 29 41  1  0  0  0  0
 30 31  1  0  0  0  0
 32 30  2  0  0  0  0
 33 25  1  0  0  0  0
 37 27  1  0  0  0  0
 38 27  1  0  0  0  0
M  END
$$$$
