ADW.pdb
 OpenBabel07022418003D

 49 50  0  0  1  0  0  0  0  0999 V2000
   -2.9440   -1.3670    2.9290 C   0  0  0  0  0  0  0  0  0  0  0  0
   -3.4910   -0.1530    2.2530 C   0  0  2  0  0  0  0  0  0  0  0  0
   -4.6260   -0.4840    1.4230 N   0  0  0  0  0  0  0  0  0  0  0  0
   -2.4600    0.6080    1.5030 C   0  0  0  0  0  0  0  0  0  0  0  0
   -2.7010    0.8550    0.2860 O   0  0  0  0  0  0  0  0  0  0  0  0
   -1.8580   -1.5310    2.7530 H   0  0  0  0  0  0  0  0  0  0  0  0
   -3.4660   -2.2610    2.5310 H   0  0  0  0  0  0  0  0  0  0  0  0
   -3.1660   -1.3630    4.0340 H   0  0  0  0  0  0  0  0  0  0  0  0
   -3.8730    0.5390    3.0510 H   0  0  0  0  0  0  0  0  0  0  0  0
   -4.6560    0.0750    0.5430 H   0  0  0  0  0  0  0  0  0  0  0  0
   -4.7210   -1.5060    1.2800 H   0  0  0  0  0  0  0  0  0  0  0  0
   -1.2540    1.0520    2.0950 N   0  0  0  0  0  0  0  0  0  0  0  0
   -0.3140    1.7870    1.2870 C   0  0  1  0  0  0  0  0  0  0  0  0
    0.0280    3.1280    1.8730 C   0  0  0  0  0  0  0  0  0  0  0  0
   -1.1660    3.9920    2.0190 C   0  0  0  0  0  0  0  0  0  0  0  0
   -1.0570    5.1600    2.4930 O   0  0  0  0  0  0  0  0  0  0  0  0
    0.9220    0.9800    1.0250 C   0  0  0  0  0  0  0  0  0  0  0  0
    1.8220    1.5060    0.3310 O   0  0  0  0  0  0  0  0  0  0  0  0
   -2.4460    3.6000    1.6590 O   0  0  0  0  0  0  0  0  0  0  0  0
   -1.0560    0.8440    3.1080 H   0  0  0  0  0  0  0  0  0  0  0  0
   -0.7760    1.9520    0.2960 H   0  0  0  0  0  0  0  0  0  0  0  0
    0.4000    2.9270    2.9130 H   0  0  0  0  0  0  0  0  0  0  0  0
    0.7620    3.6850    1.2770 H   0  0  0  0  0  0  0  0  0  0  0  0
   -3.2730    4.0970    1.9500 H   0  0  0  0  0  0  0  0  0  0  0  0
    1.1160   -0.3170    1.5130 N   0  0  0  0  0  0  0  0  0  0  0  0
    2.2450   -1.1710    1.3070 C   0  0  1  0  0  0  0  0  0  0  0  0
    2.9690   -1.0020   -0.0110 C   0  0  0  0  0  0  0  0  0  0  0  0
    2.1500   -1.3000   -1.1990 C   0  0  0  0  0  0  0  0  0  0  0  0
    1.5330   -0.5240   -2.1400 C   0  0  0  0  0  0  0  0  0  0  0  0
    0.8930   -1.2990   -3.0470 N   0  0  0  0  0  0  0  0  0  0  0  0
    1.0750   -2.6080   -2.7230 C   0  0  0  0  0  0  0  0  0  0  0  0
    0.6360   -3.7810   -3.3260 C   0  0  0  0  0  0  0  0  0  0  0  0
    0.9770   -4.9970   -2.7810 C   0  0  0  0  0  0  0  0  0  0  0  0
    1.7520   -5.0290   -1.6420 C   0  0  0  0  0  0  0  0  0  0  0  0
    2.1820   -3.8590   -1.0540 C   0  0  0  0  0  0  0  0  0  0  0  0
    1.8490   -2.6270   -1.5860 C   0  0  0  0  0  0  0  0  0  0  0  0
    3.1810   -1.1630    2.4380 C   0  0  0  0  0  0  0  0  0  0  0  0
    4.2270   -1.8610    2.4180 O   0  0  0  0  0  0  0  0  0  0  0  0
    2.9550   -0.3910    3.5730 O   0  0  0  0  0  0  0  0  0  0  0  0
    0.3060   -0.6890    2.1070 H   0  0  0  0  0  0  0  0  0  0  0  0
    1.8350   -2.2420    1.2350 H   0  0  0  0  0  0  0  0  0  0  0  0
    3.4730   -0.0420   -0.1370 H   0  0  0  0  0  0  0  0  0  0  0  0
    3.8040   -1.7670   -0.0090 H   0  0  0  0  0  0  0  0  0  0  0  0
    1.5740    0.5720   -2.1420 H   0  0  0  0  0  0  0  0  0  0  0  0
    0.3410   -0.9780   -3.8720 H   0  0  0  0  0  0  0  0  0  0  0  0
    0.0330   -3.6810   -4.2140 H   0  0  0  0  0  0  0  0  0  0  0  0
    0.6240   -5.9160   -3.2650 H   0  0  0  0  0  0  0  0  0  0  0  0
    2.0090   -6.0010   -1.2300 H   0  0  0  0  0  0  0  0  0  0  0  0
    2.8020   -3.8610   -0.1580 H   0  0  0  0  0  0  0  0  0  0  0  0
  1  8  1  0  0  0  0
  2  1  1  0  0  0  0
  2  9  1  1  0  0  0
  3  2  1  0  0  0  0
  4 12  1  0  0  0  0
  4  2  1  0  0  0  0
  5  4  2  0  0  0  0
  6  1  1  0  0  0  0
  7  1  1  0  0  0  0
 10  3  1  0  0  0  0
 11  3  1  0  0  0  0
 12 20  1  0  0  0  0
 13 21  1  6  0  0  0
 13 14  1  0  0  0  0
 13 12  1  0  0  0  0
 14 15  1  0  0  0  0
 14 22  1  0  0  0  0
 15 16  2  0  0  0  0
 17 13  1  0  0  0  0
 17 25  1  0  0  0  0
 18 17  2  0  0  0  0
 19 24  1  0  0  0  0
 19 15  1  0  0  0  0
 23 14  1  0  0  0  0
 25 40  1  0  0  0  0
 26 41  1  6  0  0  0
 26 25  1  0  0  0  0
 26 37  1  0  0  0  0
 27 43  1  0  0  0  0
 27 26  1  0  0  0  0
 28 27  1  0  0  0  0
 29 28  2  0  0  0  0
 30 31  1  0  0  0  0
 30 29  1  0  0  0  0
 31 36  1  0  0  0  0
 32 33  1  0  0  0  0
 32 31  2  0  0  0  0
 33 34  2  0  0  0  0
 34 48  1  0  0  0  0
 34 35  1  0  0  0  0
 35 49  1  0  0  0  0
 36 28  1  0  0  0  0
 36 35  2  0  0  0  0
 37 39  1  0  0  0  0
 38 37  2  0  0  0  0
 42 27  1  0  0  0  0
 44 29  1  0  0  0  0
 45 30  1  0  0  0  0
 46 32  1  0  0  0  0
 47 33  1  0  0  0  0
M  END
$$$$
