ADY.pdb
 OpenBabel07022418003D

 46 46  0  0  1  0  0  0  0  0999 V2000
    4.3920   -1.4720    2.7260 C   0  0  0  0  0  0  0  0  0  0  0  0
    3.0050   -0.8930    2.5410 C   0  0  2  0  0  0  0  0  0  0  0  0
    2.0270   -1.9390    2.5760 N   0  0  0  0  0  0  0  0  0  0  0  0
    2.9520   -0.1900    1.2170 C   0  0  0  0  0  0  0  0  0  0  0  0
    3.7210    0.7660    0.9570 O   0  0  0  0  0  0  0  0  0  0  0  0
    4.2950   -2.5210    3.0550 H   0  0  0  0  0  0  0  0  0  0  0  0
    4.9790   -1.4070    1.7710 H   0  0  0  0  0  0  0  0  0  0  0  0
    4.9290   -0.9320    3.5550 H   0  0  0  0  0  0  0  0  0  0  0  0
    2.8330   -0.1290    3.3320 H   0  0  0  0  0  0  0  0  0  0  0  0
    1.0880   -1.5190    2.4910 H   0  0  0  0  0  0  0  0  0  0  0  0
    2.1600   -2.5620    3.3860 H   0  0  0  0  0  0  0  0  0  0  0  0
    2.0270   -0.5770    0.1980 N   0  0  0  0  0  0  0  0  0  0  0  0
    1.9540    0.0840   -1.0870 C   0  0  1  0  0  0  0  0  0  0  0  0
    2.3080   -0.8000   -2.2250 C   0  0  0  0  0  0  0  0  0  0  0  0
    1.4580   -1.9830   -2.3750 C   0  0  0  0  0  0  0  0  0  0  0  0
    0.5110   -2.1820   -1.5690 O   0  0  0  0  0  0  0  0  0  0  0  0
    0.6690    0.7830   -1.2330 C   0  0  0  0  0  0  0  0  0  0  0  0
    0.3270    1.4380   -2.2460 O   0  0  0  0  0  0  0  0  0  0  0  0
    1.6260   -2.9300   -3.3720 O   0  0  0  0  0  0  0  0  0  0  0  0
    1.3960   -1.3730    0.4340 H   0  0  0  0  0  0  0  0  0  0  0  0
    2.7390    0.9000   -1.0670 H   0  0  0  0  0  0  0  0  0  0  0  0
    2.3410   -0.1850   -3.1470 H   0  0  0  0  0  0  0  0  0  0  0  0
    3.3540   -1.1580   -2.0670 H   0  0  0  0  0  0  0  0  0  0  0  0
    1.0670   -3.7960   -3.4000 H   0  0  0  0  0  0  0  0  0  0  0  0
   -2.7040   -2.5980    4.5090 O   0  0  0  0  0  0  0  0  0  0  0  0
   -2.7090   -1.8260    3.3320 C   0  0  0  0  0  0  0  0  0  0  0  0
   -3.3930   -0.6320    3.3290 C   0  0  0  0  0  0  0  0  0  0  0  0
   -3.4040    0.1260    2.1900 C   0  0  0  0  0  0  0  0  0  0  0  0
   -2.7500   -0.2910    1.0770 C   0  0  0  0  0  0  0  0  0  0  0  0
   -2.7060    0.4600   -0.1990 C   0  0  0  0  0  0  0  0  0  0  0  0
   -1.5500    1.4120   -0.2790 C   0  0  2  0  0  0  0  0  0  0  0  0
   -0.2700    0.7300   -0.1660 N   0  0  0  0  0  0  0  0  0  0  0  0
   -1.6830    2.4940    0.7250 C   0  0  0  0  0  0  0  0  0  0  0  0
   -0.7770    2.7530    1.5490 O   0  0  0  0  0  0  0  0  0  0  0  0
   -2.0660   -1.5000    1.1050 C   0  0  0  0  0  0  0  0  0  0  0  0
   -2.0320   -2.2850    2.2230 C   0  0  0  0  0  0  0  0  0  0  0  0
   -2.8400    3.2500    0.7620 O   0  0  0  0  0  0  0  0  0  0  0  0
   -2.9280   -2.1740    5.3980 H   0  0  0  0  0  0  0  0  0  0  0  0
   -3.9120   -0.3210    4.2430 H   0  0  0  0  0  0  0  0  0  0  0  0
   -3.9370    1.0600    2.1810 H   0  0  0  0  0  0  0  0  0  0  0  0
   -2.6350   -0.2550   -1.0420 H   0  0  0  0  0  0  0  0  0  0  0  0
   -3.6360    1.0210   -0.3280 H   0  0  0  0  0  0  0  0  0  0  0  0
   -1.6250    1.9180   -1.2790 H   0  0  0  0  0  0  0  0  0  0  0  0
   -0.0760    0.2110    0.7180 H   0  0  0  0  0  0  0  0  0  0  0  0
   -1.5380   -1.8540    0.2320 H   0  0  0  0  0  0  0  0  0  0  0  0
   -1.4870   -3.2390    2.2310 H   0  0  0  0  0  0  0  0  0  0  0  0
  1  6  1  0  0  0  0
  1  8  1  0  0  0  0
  2  3  1  0  0  0  0
  2  1  1  0  0  0  0
  2  9  1  1  0  0  0
  3 11  1  0  0  0  0
  4  2  1  0  0  0  0
  5  4  2  0  0  0  0
  7  1  1  0  0  0  0
 10  3  1  0  0  0  0
 12 20  1  0  0  0  0
 12  4  1  0  0  0  0
 13 21  1  1  0  0  0
 13 12  1  0  0  0  0
 14 23  1  0  0  0  0
 14 13  1  0  0  0  0
 15 14  1  0  0  0  0
 15 16  2  0  0  0  0
 17 13  1  0  0  0  0
 17 32  1  0  0  0  0
 18 17  2  0  0  0  0
 19 15  1  0  0  0  0
 22 14  1  0  0  0  0
 24 19  1  0  0  0  0
 25 38  1  0  0  0  0
 26 25  1  0  0  0  0
 27 26  1  0  0  0  0
 27 39  1  0  0  0  0
 28 27  2  0  0  0  0
 29 35  2  0  0  0  0
 29 28  1  0  0  0  0
 30 29  1  0  0  0  0
 31 43  1  6  0  0  0
 31 30  1  0  0  0  0
 31 32  1  0  0  0  0
 31 33  1  0  0  0  0
 32 44  1  0  0  0  0
 33 37  2  0  0  0  0
 33 34  1  0  0  0  0
 35 36  1  0  0  0  0
 36 46  1  0  0  0  0
 36 26  2  0  0  0  0
 40 28  1  0  0  0  0
 41 30  1  0  0  0  0
 42 30  1  0  0  0  0
 45 35  1  0  0  0  0
M  END
$$$$
