AEA.pdb
 OpenBabel07022418003D

 38 37  0  0  1  0  0  0  0  0999 V2000
   -1.6530   -2.3730   -1.0380 C   0  0  0  0  0  0  0  0  0  0  0  0
   -0.1870   -2.5740   -1.2990 C   0  0  2  0  0  0  0  0  0  0  0  0
    0.0930   -3.9870   -1.3420 N   0  0  0  0  0  0  0  0  0  0  0  0
    0.6780   -1.8860   -0.3020 C   0  0  0  0  0  0  0  0  0  0  0  0
    1.5020   -2.5700    0.3460 O   0  0  0  0  0  0  0  0  0  0  0  0
   -2.1910   -3.3080   -1.3010 H   0  0  0  0  0  0  0  0  0  0  0  0
   -2.0940   -1.5810   -1.6840 H   0  0  0  0  0  0  0  0  0  0  0  0
   -1.8500   -2.1860    0.0350 H   0  0  0  0  0  0  0  0  0  0  0  0
    0.0120   -2.1780   -2.3330 H   0  0  0  0  0  0  0  0  0  0  0  0
    0.3620   -4.2970   -0.3650 H   0  0  0  0  0  0  0  0  0  0  0  0
   -0.7960   -4.4820   -1.5740 H   0  0  0  0  0  0  0  0  0  0  0  0
    0.6130   -0.4930   -0.0500 N   0  0  0  0  0  0  0  0  0  0  0  0
    1.4820    0.1250    0.9310 C   0  0  1  0  0  0  0  0  0  0  0  0
    2.1390    1.3540    0.3930 C   0  0  0  0  0  0  0  0  0  0  0  0
    3.0020    1.1440   -0.8100 C   0  0  0  0  0  0  0  0  0  0  0  0
    4.1360    0.2240   -0.5980 C   0  0  0  0  0  0  0  0  0  0  0  0
    3.9350   -1.0100   -0.7030 O   0  0  0  0  0  0  0  0  0  0  0  0
    0.6340    0.4980    2.1300 C   0  0  0  0  0  0  0  0  0  0  0  0
    1.1320    1.0530    3.1380 O   0  0  0  0  0  0  0  0  0  0  0  0
    5.4150    0.6640   -0.2890 O   0  0  0  0  0  0  0  0  0  0  0  0
   -0.0650    0.1040   -0.5730 H   0  0  0  0  0  0  0  0  0  0  0  0
    2.2070   -0.6250    1.3030 H   0  0  0  0  0  0  0  0  0  0  0  0
    1.3440    2.0840    0.0800 H   0  0  0  0  0  0  0  0  0  0  0  0
    2.7600    1.8800    1.1520 H   0  0  0  0  0  0  0  0  0  0  0  0
    2.3960    0.8410   -1.7140 H   0  0  0  0  0  0  0  0  0  0  0  0
    3.4000    2.1570   -1.0910 H   0  0  0  0  0  0  0  0  0  0  0  0
    6.2380    0.0910   -0.2890 H   0  0  0  0  0  0  0  0  0  0  0  0
   -2.6920    1.5430    2.8940 C   0  0  0  0  0  0  0  0  0  0  0  0
   -1.6060    0.5610    3.2660 C   0  0  2  0  0  0  0  0  0  0  0  0
   -0.7590    0.2280    2.1530 N   0  0  0  0  0  0  0  0  0  0  0  0
   -2.2050   -0.6700    3.8610 C   0  0  0  0  0  0  0  0  0  0  0  0
   -2.9780   -0.6090    4.8470 O   0  0  0  0  0  0  0  0  0  0  0  0
   -1.9290   -1.9210    3.3480 O   0  0  0  0  0  0  0  0  0  0  0  0
   -3.5780    1.3040    3.5180 H   0  0  0  0  0  0  0  0  0  0  0  0
   -3.0050    1.4510    1.8400 H   0  0  0  0  0  0  0  0  0  0  0  0
   -2.4030    2.5820    3.1790 H   0  0  0  0  0  0  0  0  0  0  0  0
   -1.0030    1.0420    4.0620 H   0  0  0  0  0  0  0  0  0  0  0  0
   -1.1940   -0.2300    1.3300 H   0  0  0  0  0  0  0  0  0  0  0  0
  1  8  1  0  0  0  0
  2  9  1  6  0  0  0
  2  1  1  0  0  0  0
  2  4  1  0  0  0  0
  3  2  1  0  0  0  0
  3 10  1  0  0  0  0
  4 12  1  0  0  0  0
  4  5  2  0  0  0  0
  6  1  1  0  0  0  0
  7  1  1  0  0  0  0
 11  3  1  0  0  0  0
 12 13  1  0  0  0  0
 13 22  1  1  0  0  0
 13 18  1  0  0  0  0
 14 13  1  0  0  0  0
 14 24  1  0  0  0  0
 15 16  1  0  0  0  0
 15 14  1  0  0  0  0
 16 20  1  0  0  0  0
 17 16  2  0  0  0  0
 18 30  1  0  0  0  0
 18 19  2  0  0  0  0
 21 12  1  0  0  0  0
 23 14  1  0  0  0  0
 25 15  1  0  0  0  0
 26 15  1  0  0  0  0
 27 20  1  0  0  0  0
 28 36  1  0  0  0  0
 28 29  1  0  0  0  0
 28 34  1  0  0  0  0
 29 31  1  0  0  0  0
 29 37  1  1  0  0  0
 30 29  1  0  0  0  0
 31 32  1  0  0  0  0
 33 31  2  0  0  0  0
 35 28  1  0  0  0  0
 38 30  1  0  0  0  0
M  END
$$$$
