AEC.pdb
 OpenBabel07022418003D

 39 38  0  0  1  0  0  0  0  0999 V2000
    4.7350   -2.1400    0.0880 C   0  0  0  0  0  0  0  0  0  0  0  0
    3.6650   -1.4820    0.8930 C   0  0  2  0  0  0  0  0  0  0  0  0
    3.1450   -2.3890    1.8670 N   0  0  0  0  0  0  0  0  0  0  0  0
    2.6060   -0.8410    0.0700 C   0  0  0  0  0  0  0  0  0  0  0  0
    2.9440   -0.0230   -0.8240 O   0  0  0  0  0  0  0  0  0  0  0  0
    5.0620   -3.0630    0.6130 H   0  0  0  0  0  0  0  0  0  0  0  0
    4.4000   -2.4660   -0.9170 H   0  0  0  0  0  0  0  0  0  0  0  0
    5.6620   -1.5020    0.0080 H   0  0  0  0  0  0  0  0  0  0  0  0
    4.1560   -0.6370    1.4580 H   0  0  0  0  0  0  0  0  0  0  0  0
    2.7260   -1.9600    2.7000 H   0  0  0  0  0  0  0  0  0  0  0  0
    2.6710   -3.2150    1.4890 H   0  0  0  0  0  0  0  0  0  0  0  0
    1.2370   -1.1000    0.2370 N   0  0  0  0  0  0  0  0  0  0  0  0
    0.1880   -0.4620   -0.5810 C   0  0  1  0  0  0  0  0  0  0  0  0
   -0.5720   -1.6070   -1.1810 C   0  0  0  0  0  0  0  0  0  0  0  0
   -1.7100   -1.2350   -2.0710 C   0  0  0  0  0  0  0  0  0  0  0  0
   -1.3380   -0.4410   -3.2340 C   0  0  0  0  0  0  0  0  0  0  0  0
   -0.1480   -0.1250   -3.4360 O   0  0  0  0  0  0  0  0  0  0  0  0
   -0.7310    0.2940    0.3400 C   0  0  0  0  0  0  0  0  0  0  0  0
   -1.7130    0.9470   -0.0890 O   0  0  0  0  0  0  0  0  0  0  0  0
   -2.2990   -0.0240   -4.1320 O   0  0  0  0  0  0  0  0  0  0  0  0
    0.9400   -1.7780    0.9770 H   0  0  0  0  0  0  0  0  0  0  0  0
    0.6870    0.2010   -1.2860 H   0  0  0  0  0  0  0  0  0  0  0  0
   -0.8960   -2.2590   -0.3390 H   0  0  0  0  0  0  0  0  0  0  0  0
    0.1810   -2.2390   -1.7390 H   0  0  0  0  0  0  0  0  0  0  0  0
   -2.5090   -0.7650   -1.4370 H   0  0  0  0  0  0  0  0  0  0  0  0
   -2.1910   -2.2170   -2.3750 H   0  0  0  0  0  0  0  0  0  0  0  0
   -2.1000    0.6290   -4.8970 H   0  0  0  0  0  0  0  0  0  0  0  0
   -0.5260    0.3000    1.7460 N   0  0  0  0  0  0  0  0  0  0  0  0
   -1.3780    1.0110    2.6800 C   0  0  1  0  0  0  0  0  0  0  0  0
   -1.9520    0.0980    3.7410 C   0  0  0  0  0  0  0  0  0  0  0  0
   -2.9840    1.1150    4.8240 S   0  0  0  0  0  0  0  0  0  0  0  0
   -0.6050    2.1030    3.3570 C   0  0  0  0  0  0  0  0  0  0  0  0
    0.6020    2.2920    3.0800 O   0  0  0  0  0  0  0  0  0  0  0  0
   -1.2770    2.8830    4.2880 O   0  0  0  0  0  0  0  0  0  0  0  0
    0.2800   -0.2310    2.1480 H   0  0  0  0  0  0  0  0  0  0  0  0
   -2.1660    1.5100    2.0810 H   0  0  0  0  0  0  0  0  0  0  0  0
   -1.0950   -0.2580    4.3610 H   0  0  0  0  0  0  0  0  0  0  0  0
   -2.5090   -0.7430    3.3280 H   0  0  0  0  0  0  0  0  0  0  0  0
   -4.2200    0.4860    4.9720 H   0  0  0  0  0  0  0  0  0  0  0  0
  1  6  1  0  0  0  0
  1  2  1  0  0  0  0
  2  9  1  1  0  0  0
  2  3  1  0  0  0  0
  3 10  1  0  0  0  0
  4 12  1  0  0  0  0
  4  2  1  0  0  0  0
  5  4  2  0  0  0  0
  7  1  1  0  0  0  0
  8  1  1  0  0  0  0
 11  3  1  0  0  0  0
 12 21  1  0  0  0  0
 13 22  1  6  0  0  0
 13 12  1  0  0  0  0
 13 18  1  0  0  0  0
 14 13  1  0  0  0  0
 14 23  1  0  0  0  0
 15 25  1  0  0  0  0
 15 14  1  0  0  0  0
 16 15  1  0  0  0  0
 17 16  2  0  0  0  0
 18 28  1  0  0  0  0
 19 18  2  0  0  0  0
 20 16  1  0  0  0  0
 24 14  1  0  0  0  0
 26 15  1  0  0  0  0
 27 20  1  0  0  0  0
 28 35  1  0  0  0  0
 28 29  1  0  0  0  0
 29 36  1  6  0  0  0
 29 32  1  0  0  0  0
 29 30  1  0  0  0  0
 30 37  1  0  0  0  0
 30 31  1  0  0  0  0
 31 39  1  0  0  0  0
 32 34  1  0  0  0  0
 33 32  2  0  0  0  0
 38 30  1  0  0  0  0
M  END
$$$$
