AEE.pdb
 OpenBabel07022418003D

 44 43  0  0  1  0  0  0  0  0999 V2000
    1.4180   -3.7550    1.9620 C   0  0  0  0  0  0  0  0  0  0  0  0
    2.6310   -3.1060    1.3170 C   0  0  2  0  0  0  0  0  0  0  0  0
    3.7750   -3.4730    2.1290 N   0  0  0  0  0  0  0  0  0  0  0  0
    2.4740   -1.6330    1.2310 C   0  0  0  0  0  0  0  0  0  0  0  0
    3.3100   -0.9250    1.8480 O   0  0  0  0  0  0  0  0  0  0  0  0
    1.6810   -4.7380    2.4110 H   0  0  0  0  0  0  0  0  0  0  0  0
    0.6260   -3.9570    1.2060 H   0  0  0  0  0  0  0  0  0  0  0  0
    0.9990   -3.1440    2.7700 H   0  0  0  0  0  0  0  0  0  0  0  0
    2.7210   -3.5500    0.3110 H   0  0  0  0  0  0  0  0  0  0  0  0
    3.4720   -3.6350    3.1160 H   0  0  0  0  0  0  0  0  0  0  0  0
    4.1370   -4.3840    1.7750 H   0  0  0  0  0  0  0  0  0  0  0  0
    1.4520   -0.9960    0.5060 N   0  0  0  0  0  0  0  0  0  0  0  0
    1.3120    0.4520    0.4320 C   0  0  1  0  0  0  0  0  0  0  0  0
    1.3870    0.9670   -0.9620 C   0  0  0  0  0  0  0  0  0  0  0  0
    2.6470    0.6890   -1.6980 C   0  0  0  0  0  0  0  0  0  0  0  0
    3.8710    1.2320   -1.1190 C   0  0  0  0  0  0  0  0  0  0  0  0
    4.9610    0.9930   -1.6980 O   0  0  0  0  0  0  0  0  0  0  0  0
   -0.0300    0.8640    0.9760 C   0  0  0  0  0  0  0  0  0  0  0  0
   -0.3820    2.0660    1.0170 O   0  0  0  0  0  0  0  0  0  0  0  0
    3.8980    1.9960    0.0330 O   0  0  0  0  0  0  0  0  0  0  0  0
    0.7650   -1.6090   -0.0020 H   0  0  0  0  0  0  0  0  0  0  0  0
    2.1290    0.8770    1.0340 H   0  0  0  0  0  0  0  0  0  0  0  0
    1.2230    2.0660   -0.9230 H   0  0  0  0  0  0  0  0  0  0  0  0
    0.5430    0.5470   -1.5660 H   0  0  0  0  0  0  0  0  0  0  0  0
    2.5430    1.1160   -2.7330 H   0  0  0  0  0  0  0  0  0  0  0  0
    2.7640   -0.4050   -1.8580 H   0  0  0  0  0  0  0  0  0  0  0  0
    4.7150    1.9170    0.6320 H   0  0  0  0  0  0  0  0  0  0  0  0
   -0.9320   -0.1200    1.4600 N   0  0  0  0  0  0  0  0  0  0  0  0
   -2.2190    0.3210    1.9780 C   0  0  1  0  0  0  0  0  0  0  0  0
   -3.3510   -0.4030    1.2820 C   0  0  0  0  0  0  0  0  0  0  0  0
   -3.4050   -0.2010   -0.1810 C   0  0  0  0  0  0  0  0  0  0  0  0
   -3.5740    1.1810   -0.6270 C   0  0  0  0  0  0  0  0  0  0  0  0
   -3.6720    2.1340    0.1550 O   0  0  0  0  0  0  0  0  0  0  0  0
   -2.2860   -0.1000    3.4020 C   0  0  0  0  0  0  0  0  0  0  0  0
   -3.2830    0.1350    4.1330 O   0  0  0  0  0  0  0  0  0  0  0  0
   -3.6260    1.4330   -1.9910 O   0  0  0  0  0  0  0  0  0  0  0  0
   -1.2380   -0.7750    3.9770 O   0  0  0  0  0  0  0  0  0  0  0  0
   -0.6750   -1.1470    1.4440 H   0  0  0  0  0  0  0  0  0  0  0  0
   -2.3180    1.4270    1.9130 H   0  0  0  0  0  0  0  0  0  0  0  0
   -3.2490   -1.4770    1.5180 H   0  0  0  0  0  0  0  0  0  0  0  0
   -4.3000   -0.0520    1.7450 H   0  0  0  0  0  0  0  0  0  0  0  0
   -2.5090   -0.6830   -0.6460 H   0  0  0  0  0  0  0  0  0  0  0  0
   -4.2740   -0.7850   -0.5680 H   0  0  0  0  0  0  0  0  0  0  0  0
   -4.1880    2.1990   -2.3830 H   0  0  0  0  0  0  0  0  0  0  0  0
  1  6  1  0  0  0  0
  1  8  1  0  0  0  0
  2  9  1  6  0  0  0
  2  1  1  0  0  0  0
  2  3  1  0  0  0  0
  3 10  1  0  0  0  0
  4  2  1  0  0  0  0
  4  5  2  0  0  0  0
  7  1  1  0  0  0  0
 11  3  1  0  0  0  0
 12  4  1  0  0  0  0
 13 12  1  0  0  0  0
 13 18  1  0  0  0  0
 13 22  1  1  0  0  0
 14 23  1  0  0  0  0
 14 13  1  0  0  0  0
 15 16  1  0  0  0  0
 15 14  1  0  0  0  0
 16 20  1  0  0  0  0
 17 16  2  0  0  0  0
 18 19  2  0  0  0  0
 18 28  1  0  0  0  0
 20 27  1  0  0  0  0
 21 12  1  0  0  0  0
 24 14  1  0  0  0  0
 25 15  1  0  0  0  0
 26 15  1  0  0  0  0
 28 29  1  0  0  0  0
 29 39  1  6  0  0  0
 29 34  1  0  0  0  0
 30 40  1  0  0  0  0
 30 41  1  0  0  0  0
 30 29  1  0  0  0  0
 31 30  1  0  0  0  0
 32 31  1  0  0  0  0
 32 33  2  0  0  0  0
 34 37  2  0  0  0  0
 34 35  1  0  0  0  0
 36 32  1  0  0  0  0
 38 28  1  0  0  0  0
 42 31  1  0  0  0  0
 43 31  1  0  0  0  0
 44 36  1  0  0  0  0
M  END
$$$$
