AEH.pdb
 OpenBabel07022418003D

 45 45  0  0  1  0  0  0  0  0999 V2000
    3.6940   -4.2100    1.6820 C   0  0  0  0  0  0  0  0  0  0  0  0
    3.9660   -3.0310    2.5920 C   0  0  2  0  0  0  0  0  0  0  0  0
    4.1730   -3.4790    3.9540 N   0  0  0  0  0  0  0  0  0  0  0  0
    2.8350   -2.0760    2.5990 C   0  0  0  0  0  0  0  0  0  0  0  0
    2.2550   -1.7990    3.6640 O   0  0  0  0  0  0  0  0  0  0  0  0
    2.5970   -4.2570    1.5000 H   0  0  0  0  0  0  0  0  0  0  0  0
    4.2130   -4.0230    0.7280 H   0  0  0  0  0  0  0  0  0  0  0  0
    4.0290   -5.1180    2.2030 H   0  0  0  0  0  0  0  0  0  0  0  0
    4.9180   -2.5430    2.2760 H   0  0  0  0  0  0  0  0  0  0  0  0
    3.3560   -4.0840    4.2020 H   0  0  0  0  0  0  0  0  0  0  0  0
    4.0830   -2.6240    4.5690 H   0  0  0  0  0  0  0  0  0  0  0  0
    2.3620   -1.4400    1.4170 N   0  0  0  0  0  0  0  0  0  0  0  0
    1.2540   -0.5020    1.4090 C   0  0  1  0  0  0  0  0  0  0  0  0
    1.7110    0.8770    0.9910 C   0  0  0  0  0  0  0  0  0  0  0  0
    2.3100    0.9060   -0.3830 C   0  0  0  0  0  0  0  0  0  0  0  0
    2.7220    2.3000   -0.6900 C   0  0  0  0  0  0  0  0  0  0  0  0
    3.2560    2.5740   -1.7990 O   0  0  0  0  0  0  0  0  0  0  0  0
    0.2230   -1.0500    0.4970 C   0  0  0  0  0  0  0  0  0  0  0  0
    0.3800   -2.1370   -0.1080 O   0  0  0  0  0  0  0  0  0  0  0  0
    2.5470    3.3470    0.1990 O   0  0  0  0  0  0  0  0  0  0  0  0
    2.8580   -1.6820    0.5330 H   0  0  0  0  0  0  0  0  0  0  0  0
    0.8460   -0.3660    2.4500 H   0  0  0  0  0  0  0  0  0  0  0  0
    0.8710    1.5680    1.0520 H   0  0  0  0  0  0  0  0  0  0  0  0
    2.4790    1.1960    1.7140 H   0  0  0  0  0  0  0  0  0  0  0  0
    3.2370    0.2760   -0.3830 H   0  0  0  0  0  0  0  0  0  0  0  0
    1.6590    0.5490   -1.1780 H   0  0  0  0  0  0  0  0  0  0  0  0
    3.0740    4.2270    0.1230 H   0  0  0  0  0  0  0  0  0  0  0  0
   -1.0360   -0.3810    0.2360 N   0  0  0  0  0  0  0  0  0  0  0  0
   -2.0120   -0.9440   -0.6550 C   0  0  1  0  0  0  0  0  0  0  0  0
   -3.2950   -1.1700    0.0710 C   0  0  0  0  0  0  0  0  0  0  0  0
   -3.9320    0.0280    0.6050 C   0  0  0  0  0  0  0  0  0  0  0  0
   -3.6430    1.3650    0.5340 C   0  0  0  0  0  0  0  0  0  0  0  0
   -4.5920    2.0950    1.1910 N   0  0  0  0  0  0  0  0  0  0  0  0
   -5.4730    1.2170    1.6710 C   0  0  0  0  0  0  0  0  0  0  0  0
   -5.0990   -0.0210    1.3330 N   0  0  0  0  0  0  0  0  0  0  0  0
   -2.2190   -0.1670   -1.8910 C   0  0  0  0  0  0  0  0  0  0  0  0
   -1.5430    0.8480   -2.1170 O   0  0  0  0  0  0  0  0  0  0  0  0
   -3.1690   -0.5740   -2.7960 O   0  0  0  0  0  0  0  0  0  0  0  0
   -1.1400    0.5060    0.7510 H   0  0  0  0  0  0  0  0  0  0  0  0
   -1.6600   -1.9570   -1.0290 H   0  0  0  0  0  0  0  0  0  0  0  0
   -3.1200   -1.9170    0.9130 H   0  0  0  0  0  0  0  0  0  0  0  0
   -3.9860   -1.7380   -0.6170 H   0  0  0  0  0  0  0  0  0  0  0  0
   -2.8140    1.8410    0.0370 H   0  0  0  0  0  0  0  0  0  0  0  0
   -4.5700    3.1280    1.2640 H   0  0  0  0  0  0  0  0  0  0  0  0
   -6.3540    1.5240    2.2500 H   0  0  0  0  0  0  0  0  0  0  0  0
  1  8  1  0  0  0  0
  1  2  1  0  0  0  0
  2  9  1  6  0  0  0
  2  4  1  0  0  0  0
  2  3  1  0  0  0  0
  3 10  1  0  0  0  0
  3 11  1  0  0  0  0
  4  5  2  0  0  0  0
  6  1  1  0  0  0  0
  7  1  1  0  0  0  0
 12  4  1  0  0  0  0
 13 12  1  0  0  0  0
 13 22  1  1  0  0  0
 14 23  1  0  0  0  0
 14 13  1  0  0  0  0
 14 24  1  0  0  0  0
 15 14  1  0  0  0  0
 16 15  1  0  0  0  0
 16 20  1  0  0  0  0
 17 16  2  0  0  0  0
 18 13  1  0  0  0  0
 19 18  2  0  0  0  0
 21 12  1  0  0  0  0
 25 15  1  0  0  0  0
 26 15  1  0  0  0  0
 27 20  1  0  0  0  0
 28 18  1  0  0  0  0
 28 39  1  0  0  0  0
 29 40  1  6  0  0  0
 29 30  1  0  0  0  0
 29 28  1  0  0  0  0
 30 31  1  0  0  0  0
 30 41  1  0  0  0  0
 31 35  1  0  0  0  0
 32 31  2  0  0  0  0
 32 33  1  0  0  0  0
 33 44  1  0  0  0  0
 33 34  1  0  0  0  0
 34 45  1  0  0  0  0
 35 34  2  0  0  0  0
 36 29  1  0  0  0  0
 37 36  1  0  0  0  0
 38 36  2  0  0  0  0
 42 30  1  0  0  0  0
 43 32  1  0  0  0  0
M  END
$$$$
