AEI.pdb
 OpenBabel07022418003D

 47 46  0  0  1  0  0  0  0  0999 V2000
    0.0780   -4.5740    1.2380 C   0  0  0  0  0  0  0  0  0  0  0  0
    1.3740   -4.4010    0.4840 C   0  0  2  0  0  0  0  0  0  0  0  0
    2.4440   -5.0280    1.2390 N   0  0  0  0  0  0  0  0  0  0  0  0
    1.7230   -2.9870    0.2600 C   0  0  0  0  0  0  0  0  0  0  0  0
    2.7940   -2.5330    0.6980 O   0  0  0  0  0  0  0  0  0  0  0  0
    0.1340   -5.5310    1.7920 H   0  0  0  0  0  0  0  0  0  0  0  0
   -0.0680   -3.7560    1.9810 H   0  0  0  0  0  0  0  0  0  0  0  0
   -0.7850   -4.6710    0.5450 H   0  0  0  0  0  0  0  0  0  0  0  0
    1.3020   -4.9710   -0.4730 H   0  0  0  0  0  0  0  0  0  0  0  0
    3.3310   -4.5010    1.1460 H   0  0  0  0  0  0  0  0  0  0  0  0
    2.1540   -4.9660    2.2590 H   0  0  0  0  0  0  0  0  0  0  0  0
    0.8700   -2.0890   -0.4530 N   0  0  0  0  0  0  0  0  0  0  0  0
    1.3060   -0.7090   -0.6160 C   0  0  1  0  0  0  0  0  0  0  0  0
    1.2490   -0.4120   -2.0950 C   0  0  0  0  0  0  0  0  0  0  0  0
    1.6730    0.9750   -2.4440 C   0  0  0  0  0  0  0  0  0  0  0  0
    3.0830    1.2640   -2.0210 C   0  0  0  0  0  0  0  0  0  0  0  0
    4.0450    0.5490   -2.4040 O   0  0  0  0  0  0  0  0  0  0  0  0
    0.2930    0.1520    0.0740 C   0  0  0  0  0  0  0  0  0  0  0  0
    0.4590    1.3750    0.0860 O   0  0  0  0  0  0  0  0  0  0  0  0
    3.3930    2.3460   -1.1770 O   0  0  0  0  0  0  0  0  0  0  0  0
   -0.0290   -2.4390   -0.8370 H   0  0  0  0  0  0  0  0  0  0  0  0
    2.3130   -0.5640   -0.1810 H   0  0  0  0  0  0  0  0  0  0  0  0
    1.9120   -1.1170   -2.6540 H   0  0  0  0  0  0  0  0  0  0  0  0
    0.2000   -0.5300   -2.4380 H   0  0  0  0  0  0  0  0  0  0  0  0
    0.9740    1.7330   -2.0790 H   0  0  0  0  0  0  0  0  0  0  0  0
    1.6420    1.0650   -3.5620 H   0  0  0  0  0  0  0  0  0  0  0  0
    4.0340    2.1470   -0.4020 H   0  0  0  0  0  0  0  0  0  0  0  0
   -0.9100    0.9400    4.1470 C   0  0  0  0  0  0  0  0  0  0  0  0
   -0.6220    1.7940    2.9110 C   0  0  0  0  0  0  0  0  0  0  0  0
   -1.7280    1.6360    1.8890 C   0  0  2  0  0  0  0  0  0  0  0  0
   -3.0210    2.0780    2.5380 C   0  0  0  0  0  0  0  0  0  0  0  0
   -1.8830    0.2430    1.4140 C   0  0  2  0  0  0  0  0  0  0  0  0
   -0.8260   -0.3810    0.7000 N   0  0  0  0  0  0  0  0  0  0  0  0
   -3.1400    0.0200    0.7290 C   0  0  0  0  0  0  0  0  0  0  0  0
   -4.2580    0.4220    1.1180 O   0  0  0  0  0  0  0  0  0  0  0  0
   -3.1550   -0.6970   -0.4640 O   0  0  0  0  0  0  0  0  0  0  0  0
   -1.9900    0.7320    4.2570 H   0  0  0  0  0  0  0  0  0  0  0  0
   -0.4480    1.3900    5.0720 H   0  0  0  0  0  0  0  0  0  0  0  0
   -0.3970   -0.0430    4.0150 H   0  0  0  0  0  0  0  0  0  0  0  0
   -0.6470    2.8520    3.2990 H   0  0  0  0  0  0  0  0  0  0  0  0
    0.3790    1.5140    2.5890 H   0  0  0  0  0  0  0  0  0  0  0  0
   -1.5650    2.3790    1.0750 H   0  0  0  0  0  0  0  0  0  0  0  0
   -2.8380    2.9000    3.2790 H   0  0  0  0  0  0  0  0  0  0  0  0
   -3.7440    2.5360    1.8160 H   0  0  0  0  0  0  0  0  0  0  0  0
   -3.5490    1.2980    3.0950 H   0  0  0  0  0  0  0  0  0  0  0  0
   -1.8870   -0.3370    2.4340 H   0  0  0  0  0  0  0  0  0  0  0  0
   -0.9320   -1.4450    0.6460 H   0  0  0  0  0  0  0  0  0  0  0  0
  1  6  1  0  0  0  0
  1  7  1  0  0  0  0
  2  9  1  6  0  0  0
  2  1  1  0  0  0  0
  2  3  1  0  0  0  0
  3 11  1  0  0  0  0
  4  2  1  0  0  0  0
  4  5  2  0  0  0  0
  8  1  1  0  0  0  0
 10  3  1  0  0  0  0
 12  4  1  0  0  0  0
 13 12  1  0  0  0  0
 13 22  1  1  0  0  0
 13 18  1  0  0  0  0
 14 13  1  0  0  0  0
 15 14  1  0  0  0  0
 15 25  1  0  0  0  0
 15 16  1  0  0  0  0
 16 20  1  0  0  0  0
 17 16  2  0  0  0  0
 18 19  2  0  0  0  0
 18 33  1  0  0  0  0
 20 27  1  0  0  0  0
 21 12  1  0  0  0  0
 23 14  1  0  0  0  0
 24 14  1  0  0  0  0
 26 15  1  0  0  0  0
 28 37  1  0  0  0  0
 28 38  1  0  0  0  0
 29 40  1  0  0  0  0
 29 28  1  0  0  0  0
 30 42  1  6  0  0  0
 30 31  1  0  0  0  0
 30 29  1  0  0  0  0
 31 45  1  0  0  0  0
 31 43  1  0  0  0  0
 32 30  1  0  0  0  0
 32 46  1  1  0  0  0
 33 32  1  0  0  0  0
 34 35  1  0  0  0  0
 34 32  1  0  0  0  0
 36 34  2  0  0  0  0
 39 28  1  0  0  0  0
 41 29  1  0  0  0  0
 44 31  1  0  0  0  0
 47 33  1  0  0  0  0
M  END
$$$$
