AEK.pdb
 OpenBabel07022418003D

 49 48  0  0  1  0  0  0  0  0999 V2000
   -0.6020   -4.1620    1.1940 C   0  0  0  0  0  0  0  0  0  0  0  0
    0.6570   -4.4760    0.4400 C   0  0  2  0  0  0  0  0  0  0  0  0
    1.2780   -5.6490    1.0180 N   0  0  0  0  0  0  0  0  0  0  0  0
    1.6000   -3.3270    0.4200 C   0  0  0  0  0  0  0  0  0  0  0  0
    2.7560   -3.5040    0.8710 O   0  0  0  0  0  0  0  0  0  0  0  0
   -1.4880   -4.0430    0.5150 H   0  0  0  0  0  0  0  0  0  0  0  0
   -0.4570   -3.2430    1.8330 H   0  0  0  0  0  0  0  0  0  0  0  0
   -0.8370   -4.9710    1.8900 H   0  0  0  0  0  0  0  0  0  0  0  0
    0.4130   -4.7270   -0.6030 H   0  0  0  0  0  0  0  0  0  0  0  0
    2.2570   -5.7730    0.6300 H   0  0  0  0  0  0  0  0  0  0  0  0
    0.7250   -6.5140    0.8430 H   0  0  0  0  0  0  0  0  0  0  0  0
    1.2450   -2.0540   -0.0830 N   0  0  0  0  0  0  0  0  0  0  0  0
    2.2200   -0.9290   -0.0840 C   0  0  1  0  0  0  0  0  0  0  0  0
    2.5140   -0.5440   -1.4780 C   0  0  0  0  0  0  0  0  0  0  0  0
    3.4450    0.5670   -1.7620 C   0  0  0  0  0  0  0  0  0  0  0  0
    3.0350    1.9190   -1.3410 C   0  0  0  0  0  0  0  0  0  0  0  0
    3.8670    2.7770   -0.9370 O   0  0  0  0  0  0  0  0  0  0  0  0
    1.8120    0.0930    0.8770 C   0  0  0  0  0  0  0  0  0  0  0  0
    2.5610    1.0750    1.2000 O   0  0  0  0  0  0  0  0  0  0  0  0
    1.6980    2.2940   -1.3820 O   0  0  0  0  0  0  0  0  0  0  0  0
    0.2950   -1.9280   -0.4530 H   0  0  0  0  0  0  0  0  0  0  0  0
    3.1700   -1.4090    0.3240 H   0  0  0  0  0  0  0  0  0  0  0  0
    2.9760   -1.4730   -1.9610 H   0  0  0  0  0  0  0  0  0  0  0  0
    1.5710   -0.4150   -2.0970 H   0  0  0  0  0  0  0  0  0  0  0  0
    4.4780    0.3710   -1.3300 H   0  0  0  0  0  0  0  0  0  0  0  0
    3.6680    0.5610   -2.8790 H   0  0  0  0  0  0  0  0  0  0  0  0
    1.4230    3.2560   -1.5900 H   0  0  0  0  0  0  0  0  0  0  0  0
    0.5050   -0.0160    1.4860 N   0  0  0  0  0  0  0  0  0  0  0  0
    0.0700    0.9520    2.4180 C   0  0  1  0  0  0  0  0  0  0  0  0
   -0.9300    1.9580    2.0240 C   0  0  0  0  0  0  0  0  0  0  0  0
   -2.2740    1.5910    1.5830 C   0  0  0  0  0  0  0  0  0  0  0  0
   -2.4490    0.7570    0.3670 C   0  0  0  0  0  0  0  0  0  0  0  0
   -3.9560    0.5380    0.0690 C   0  0  0  0  0  0  0  0  0  0  0  0
   -3.9910   -0.2820   -1.1290 N   0  0  0  0  0  0  0  0  0  0  0  0
   -0.2880    0.3030    3.7210 C   0  0  0  0  0  0  0  0  0  0  0  0
   -0.1950   -0.9390    3.9010 O   0  0  0  0  0  0  0  0  0  0  0  0
   -0.7430    1.0600    4.7950 O   0  0  0  0  0  0  0  0  0  0  0  0
   -0.0500   -0.8410    1.2090 H   0  0  0  0  0  0  0  0  0  0  0  0
    1.0040    1.5640    2.6890 H   0  0  0  0  0  0  0  0  0  0  0  0
   -0.5200    2.7090    1.2800 H   0  0  0  0  0  0  0  0  0  0  0  0
   -1.0690    2.6300    2.9430 H   0  0  0  0  0  0  0  0  0  0  0  0
   -2.9070    1.1760    2.4360 H   0  0  0  0  0  0  0  0  0  0  0  0
   -2.8250    2.5670    1.3660 H   0  0  0  0  0  0  0  0  0  0  0  0
   -2.0970   -0.2750    0.5400 H   0  0  0  0  0  0  0  0  0  0  0  0
   -2.0400    1.2560   -0.5070 H   0  0  0  0  0  0  0  0  0  0  0  0
   -4.3890   -0.0150    0.9420 H   0  0  0  0  0  0  0  0  0  0  0  0
   -4.4680    1.4830   -0.1320 H   0  0  0  0  0  0  0  0  0  0  0  0
   -3.8520   -1.2980   -0.9170 H   0  0  0  0  0  0  0  0  0  0  0  0
   -3.1900   -0.0010   -1.7450 H   0  0  0  0  0  0  0  0  0  0  0  0
  1  7  1  0  0  0  0
  1  8  1  0  0  0  0
  2  9  1  6  0  0  0
  2  3  1  0  0  0  0
  2  1  1  0  0  0  0
  4  2  1  0  0  0  0
  4  5  2  0  0  0  0
  6  1  1  0  0  0  0
 10  3  1  0  0  0  0
 11  3  1  0  0  0  0
 12  4  1  0  0  0  0
 13 12  1  0  0  0  0
 13 22  1  1  0  0  0
 13 18  1  0  0  0  0
 14 13  1  0  0  0  0
 15 14  1  0  0  0  0
 15 16  1  0  0  0  0
 15 25  1  0  0  0  0
 16 17  2  0  0  0  0
 18 19  2  0  0  0  0
 18 28  1  0  0  0  0
 20 16  1  0  0  0  0
 21 12  1  0  0  0  0
 23 14  1  0  0  0  0
 24 14  1  0  0  0  0
 26 15  1  0  0  0  0
 27 20  1  0  0  0  0
 28 29  1  0  0  0  0
 29 39  1  1  0  0  0
 29 35  1  0  0  0  0
 30 29  1  0  0  0  0
 30 41  1  0  0  0  0
 31 30  1  0  0  0  0
 31 42  1  0  0  0  0
 32 44  1  0  0  0  0
 32 31  1  0  0  0  0
 33 32  1  0  0  0  0
 33 46  1  0  0  0  0
 34 48  1  0  0  0  0
 34 33  1  0  0  0  0
 35 36  2  0  0  0  0
 35 37  1  0  0  0  0
 38 28  1  0  0  0  0
 40 30  1  0  0  0  0
 43 31  1  0  0  0  0
 45 32  1  0  0  0  0
 47 33  1  0  0  0  0
 49 34  1  0  0  0  0
M  END
$$$$
