AEL.pdb
 OpenBabel07022418003D

 47 46  0  0  1  0  0  0  0  0999 V2000
    0.0520   -4.6120    0.5440 C   0  0  0  0  0  0  0  0  0  0  0  0
    1.1250   -4.3610   -0.4680 C   0  0  2  0  0  0  0  0  0  0  0  0
    2.3310   -5.0340   -0.0370 N   0  0  0  0  0  0  0  0  0  0  0  0
    1.4390   -2.9260   -0.6470 C   0  0  0  0  0  0  0  0  0  0  0  0
    2.6130   -2.5270   -0.4310 O   0  0  0  0  0  0  0  0  0  0  0  0
    0.2280   -5.6180    0.9800 H   0  0  0  0  0  0  0  0  0  0  0  0
    0.1280   -3.9050    1.4200 H   0  0  0  0  0  0  0  0  0  0  0  0
   -0.9660   -4.6020    0.1560 H   0  0  0  0  0  0  0  0  0  0  0  0
    0.7830   -4.7390   -1.4690 H   0  0  0  0  0  0  0  0  0  0  0  0
    2.4880   -5.9420   -0.5080 H   0  0  0  0  0  0  0  0  0  0  0  0
    2.3660   -5.0910    1.0030 H   0  0  0  0  0  0  0  0  0  0  0  0
    0.5000   -1.9620   -1.0470 N   0  0  0  0  0  0  0  0  0  0  0  0
    0.9210   -0.5510   -1.1960 C   0  0  1  0  0  0  0  0  0  0  0  0
    0.6670   -0.1630   -2.5990 C   0  0  0  0  0  0  0  0  0  0  0  0
    1.0380    1.2470   -2.9310 C   0  0  0  0  0  0  0  0  0  0  0  0
    2.4820    1.4890   -2.7250 C   0  0  0  0  0  0  0  0  0  0  0  0
    3.3040    0.6230   -2.3900 O   0  0  0  0  0  0  0  0  0  0  0  0
    0.2210    0.2700   -0.1660 C   0  0  0  0  0  0  0  0  0  0  0  0
    0.4920    1.4870   -0.0850 O   0  0  0  0  0  0  0  0  0  0  0  0
    3.0090    2.7800   -2.9100 O   0  0  0  0  0  0  0  0  0  0  0  0
   -0.4650   -2.2340   -1.2350 H   0  0  0  0  0  0  0  0  0  0  0  0
    1.9920   -0.4900   -0.9600 H   0  0  0  0  0  0  0  0  0  0  0  0
    1.3460   -0.8100   -3.2360 H   0  0  0  0  0  0  0  0  0  0  0  0
   -0.3710   -0.4150   -2.9400 H   0  0  0  0  0  0  0  0  0  0  0  0
    0.7630    1.4750   -4.0140 H   0  0  0  0  0  0  0  0  0  0  0  0
    0.4700    1.9540   -2.2750 H   0  0  0  0  0  0  0  0  0  0  0  0
    3.8120    3.1080   -2.3580 H   0  0  0  0  0  0  0  0  0  0  0  0
   -2.7520    0.5340    4.4950 C   0  0  0  0  0  0  0  0  0  0  0  0
   -1.4100    1.1400    4.1560 C   0  0  0  0  0  0  0  0  0  0  0  0
   -0.5240    0.8810    5.3880 C   0  0  0  0  0  0  0  0  0  0  0  0
   -0.7500    0.4330    3.0260 C   0  0  0  0  0  0  0  0  0  0  0  0
   -1.4720    0.4070    1.7320 C   0  0  2  0  0  0  0  0  0  0  0  0
   -0.7330   -0.3060    0.7090 N   0  0  0  0  0  0  0  0  0  0  0  0
   -2.0520    1.6810    1.2850 C   0  0  0  0  0  0  0  0  0  0  0  0
   -2.6470    2.4130    2.0990 O   0  0  0  0  0  0  0  0  0  0  0  0
   -1.9540    2.0830   -0.0200 O   0  0  0  0  0  0  0  0  0  0  0  0
   -2.8840   -0.3750    3.8600 H   0  0  0  0  0  0  0  0  0  0  0  0
   -3.5930    1.2430    4.3960 H   0  0  0  0  0  0  0  0  0  0  0  0
   -2.8120    0.1480    5.5420 H   0  0  0  0  0  0  0  0  0  0  0  0
   -1.4440    2.2510    4.0590 H   0  0  0  0  0  0  0  0  0  0  0  0
   -0.7740    1.5650    6.2080 H   0  0  0  0  0  0  0  0  0  0  0  0
    0.5540    0.9190    5.1080 H   0  0  0  0  0  0  0  0  0  0  0  0
   -0.7810   -0.1470    5.7220 H   0  0  0  0  0  0  0  0  0  0  0  0
    0.2700    0.8750    2.8280 H   0  0  0  0  0  0  0  0  0  0  0  0
   -0.5140   -0.6050    3.3970 H   0  0  0  0  0  0  0  0  0  0  0  0
   -2.4030   -0.2590    1.8900 H   0  0  0  0  0  0  0  0  0  0  0  0
   -0.8780   -1.3530    0.5590 H   0  0  0  0  0  0  0  0  0  0  0  0
  1  6  1  0  0  0  0
  1  7  1  0  0  0  0
  2  9  1  6  0  0  0
  2  3  1  0  0  0  0
  2  1  1  0  0  0  0
  3 11  1  0  0  0  0
  4  2  1  0  0  0  0
  4  5  2  0  0  0  0
  8  1  1  0  0  0  0
 10  3  1  0  0  0  0
 12  4  1  0  0  0  0
 13 12  1  0  0  0  0
 13 22  1  1  0  0  0
 13 18  1  0  0  0  0
 14 13  1  0  0  0  0
 15 16  1  0  0  0  0
 15 14  1  0  0  0  0
 15 26  1  0  0  0  0
 16 17  2  0  0  0  0
 18 19  2  0  0  0  0
 18 33  1  0  0  0  0
 20 16  1  0  0  0  0
 20 27  1  0  0  0  0
 21 12  1  0  0  0  0
 23 14  1  0  0  0  0
 24 14  1  0  0  0  0
 25 15  1  0  0  0  0
 28 39  1  0  0  0  0
 29 28  1  0  0  0  0
 29 30  1  0  0  0  0
 30 43  1  0  0  0  0
 30 41  1  0  0  0  0
 31 45  1  0  0  0  0
 31 29  1  0  0  0  0
 32 46  1  1  0  0  0
 32 31  1  0  0  0  0
 33 32  1  0  0  0  0
 34 32  1  0  0  0  0
 34 35  1  0  0  0  0
 36 34  2  0  0  0  0
 37 28  1  0  0  0  0
 38 28  1  0  0  0  0
 40 29  1  0  0  0  0
 42 30  1  0  0  0  0
 44 31  1  0  0  0  0
 47 33  1  0  0  0  0
M  END
$$$$
