AEM.pdb
 OpenBabel07022418003D

 45 44  0  0  1  0  0  0  0  0999 V2000
   -1.1060   -4.1570   -0.6880 C   0  0  0  0  0  0  0  0  0  0  0  0
    0.3010   -4.1260   -1.1770 C   0  0  2  0  0  0  0  0  0  0  0  0
    0.9090   -5.4090   -0.8850 N   0  0  0  0  0  0  0  0  0  0  0  0
    1.1410   -3.0660   -0.6640 C   0  0  0  0  0  0  0  0  0  0  0  0
    2.2070   -3.3510   -0.0640 O   0  0  0  0  0  0  0  0  0  0  0  0
   -1.4640   -5.2090   -0.7140 H   0  0  0  0  0  0  0  0  0  0  0  0
   -1.1240   -3.8570    0.3930 H   0  0  0  0  0  0  0  0  0  0  0  0
   -1.8190   -3.5650   -1.2760 H   0  0  0  0  0  0  0  0  0  0  0  0
    0.2930   -4.0380   -2.3040 H   0  0  0  0  0  0  0  0  0  0  0  0
    0.8540   -6.0690   -1.6850 H   0  0  0  0  0  0  0  0  0  0  0  0
    0.5840   -5.8090    0.0200 H   0  0  0  0  0  0  0  0  0  0  0  0
    0.8310   -1.6750   -0.7980 N   0  0  0  0  0  0  0  0  0  0  0  0
    1.7270   -0.6290   -0.2530 C   0  0  1  0  0  0  0  0  0  0  0  0
    2.1070    0.2130   -1.4320 C   0  0  0  0  0  0  0  0  0  0  0  0
    3.0260    1.3200   -1.0360 C   0  0  0  0  0  0  0  0  0  0  0  0
    4.2970    0.8830   -0.4410 C   0  0  0  0  0  0  0  0  0  0  0  0
    4.6090   -0.3220   -0.3120 O   0  0  0  0  0  0  0  0  0  0  0  0
    0.9770    0.1050    0.7860 C   0  0  0  0  0  0  0  0  0  0  0  0
    1.5100    1.0120    1.4420 O   0  0  0  0  0  0  0  0  0  0  0  0
    5.2410    1.8050    0.0200 O   0  0  0  0  0  0  0  0  0  0  0  0
   -0.0410   -1.4500   -1.2910 H   0  0  0  0  0  0  0  0  0  0  0  0
    2.5620   -1.1900    0.1980 H   0  0  0  0  0  0  0  0  0  0  0  0
    2.5010   -0.4020   -2.2690 H   0  0  0  0  0  0  0  0  0  0  0  0
    1.1550    0.7180   -1.7800 H   0  0  0  0  0  0  0  0  0  0  0  0
    2.5050    1.9910   -0.3250 H   0  0  0  0  0  0  0  0  0  0  0  0
    3.2420    1.9950   -1.9260 H   0  0  0  0  0  0  0  0  0  0  0  0
    5.7720    1.5700    0.8660 H   0  0  0  0  0  0  0  0  0  0  0  0
   -1.1780    3.1800    4.2100 C   0  0  0  0  0  0  0  0  0  0  0  0
   -2.5560    3.3570    3.0940 S   0  0  0  0  0  0  0  0  0  0  0  0
   -3.2510    1.8510    2.4520 C   0  0  0  0  0  0  0  0  0  0  0  0
   -2.3960    1.0540    1.5410 C   0  0  0  0  0  0  0  0  0  0  0  0
   -1.1200    0.5270    2.0980 C   0  0  2  0  0  0  0  0  0  0  0  0
   -0.3890   -0.2200    1.0560 N   0  0  0  0  0  0  0  0  0  0  0  0
   -1.4630   -0.5140    3.1190 C   0  0  0  0  0  0  0  0  0  0  0  0
   -2.1150   -0.2560    4.1600 O   0  0  0  0  0  0  0  0  0  0  0  0
   -1.0760   -1.8460    2.9790 O   0  0  0  0  0  0  0  0  0  0  0  0
   -1.0860    2.1960    4.6670 H   0  0  0  0  0  0  0  0  0  0  0  0
   -1.1720    3.9860    5.0080 H   0  0  0  0  0  0  0  0  0  0  0  0
   -0.2370    3.3900    3.6230 H   0  0  0  0  0  0  0  0  0  0  0  0
   -4.1700    2.1330    1.8550 H   0  0  0  0  0  0  0  0  0  0  0  0
   -3.6610    1.2620    3.3070 H   0  0  0  0  0  0  0  0  0  0  0  0
   -2.1360    1.6460    0.6240 H   0  0  0  0  0  0  0  0  0  0  0  0
   -3.0300    0.2140    1.1330 H   0  0  0  0  0  0  0  0  0  0  0  0
   -0.4750    1.2770    2.5490 H   0  0  0  0  0  0  0  0  0  0  0  0
   -0.8420   -0.9800    0.5110 H   0  0  0  0  0  0  0  0  0  0  0  0
  1  7  1  0  0  0  0
  2  9  1  6  0  0  0
  2  3  1  0  0  0  0
  2  1  1  0  0  0  0
  2  4  1  0  0  0  0
  3 11  1  0  0  0  0
  4  5  2  0  0  0  0
  6  1  1  0  0  0  0
  8  1  1  0  0  0  0
 10  3  1  0  0  0  0
 12  4  1  0  0  0  0
 12 13  1  0  0  0  0
 13 22  1  1  0  0  0
 13 18  1  0  0  0  0
 14 15  1  0  0  0  0
 14 13  1  0  0  0  0
 15 16  1  0  0  0  0
 15 25  1  0  0  0  0
 16 17  2  0  0  0  0
 16 20  1  0  0  0  0
 18 33  1  0  0  0  0
 18 19  2  0  0  0  0
 20 27  1  0  0  0  0
 21 12  1  0  0  0  0
 23 14  1  0  0  0  0
 24 14  1  0  0  0  0
 26 15  1  0  0  0  0
 28 37  1  0  0  0  0
 28 38  1  0  0  0  0
 29 28  1  0  0  0  0
 30 29  1  0  0  0  0
 30 41  1  0  0  0  0
 31 32  1  0  0  0  0
 31 30  1  0  0  0  0
 32 44  1  1  0  0  0
 32 34  1  0  0  0  0
 33 32  1  0  0  0  0
 34 35  1  0  0  0  0
 36 34  2  0  0  0  0
 39 28  1  0  0  0  0
 40 30  1  0  0  0  0
 42 31  1  0  0  0  0
 43 31  1  0  0  0  0
 45 33  1  0  0  0  0
M  END
$$$$
