AEN.pdb
 OpenBabel07022418003D

 42 41  0  0  1  0  0  0  0  0999 V2000
    0.8540   -4.0900    1.2410 C   0  0  0  0  0  0  0  0  0  0  0  0
    2.2600   -3.5900    0.9800 C   0  0  2  0  0  0  0  0  0  0  0  0
    3.1770   -4.1790    1.9300 N   0  0  0  0  0  0  0  0  0  0  0  0
    2.3460   -2.1140    1.1030 C   0  0  0  0  0  0  0  0  0  0  0  0
    3.1680   -1.6450    1.9320 O   0  0  0  0  0  0  0  0  0  0  0  0
    0.9320   -5.1440    1.5380 H   0  0  0  0  0  0  0  0  0  0  0  0
    0.3360   -3.5000    2.0130 H   0  0  0  0  0  0  0  0  0  0  0  0
    0.2900   -4.0370    0.2670 H   0  0  0  0  0  0  0  0  0  0  0  0
    2.5140   -3.8680   -0.0660 H   0  0  0  0  0  0  0  0  0  0  0  0
    3.3740   -5.1700    1.7490 H   0  0  0  0  0  0  0  0  0  0  0  0
    2.8270   -3.9720    2.8890 H   0  0  0  0  0  0  0  0  0  0  0  0
    1.5340   -1.2490    0.3170 N   0  0  0  0  0  0  0  0  0  0  0  0
    1.6500    0.1560    0.4660 C   0  0  1  0  0  0  0  0  0  0  0  0
    2.1040    0.8380   -0.8240 C   0  0  0  0  0  0  0  0  0  0  0  0
    3.4640    0.2960   -1.2410 C   0  0  0  0  0  0  0  0  0  0  0  0
    3.9470    0.9160   -2.4780 C   0  0  0  0  0  0  0  0  0  0  0  0
    3.2530    1.7730   -3.0460 O   0  0  0  0  0  0  0  0  0  0  0  0
    0.4220    0.8060    0.9950 C   0  0  0  0  0  0  0  0  0  0  0  0
    0.4520    2.0520    1.1440 O   0  0  0  0  0  0  0  0  0  0  0  0
    5.1660    0.5710   -3.0380 O   0  0  0  0  0  0  0  0  0  0  0  0
    0.8790   -1.6930   -0.3460 H   0  0  0  0  0  0  0  0  0  0  0  0
    2.4350    0.3860    1.2170 H   0  0  0  0  0  0  0  0  0  0  0  0
    1.3700    0.7300   -1.6290 H   0  0  0  0  0  0  0  0  0  0  0  0
    2.2440    1.9230   -0.6430 H   0  0  0  0  0  0  0  0  0  0  0  0
    3.2840   -0.8010   -1.4450 H   0  0  0  0  0  0  0  0  0  0  0  0
    4.1820    0.3170   -0.4070 H   0  0  0  0  0  0  0  0  0  0  0  0
    5.3340    0.7350   -4.0330 H   0  0  0  0  0  0  0  0  0  0  0  0
   -4.4180    2.0640    2.3780 N   0  0  0  0  0  0  0  0  0  0  0  0
   -4.4080    1.0440    1.4050 C   0  0  0  0  0  0  0  0  0  0  0  0
   -5.4920    0.6630    0.9100 O   0  0  0  0  0  0  0  0  0  0  0  0
   -3.1520    0.4310    0.9650 C   0  0  0  0  0  0  0  0  0  0  0  0
   -1.9710    0.7430    1.8540 C   0  0  2  0  0  0  0  0  0  0  0  0
   -0.7590    0.1270    1.3360 N   0  0  0  0  0  0  0  0  0  0  0  0
   -2.1610    0.1830    3.2170 C   0  0  0  0  0  0  0  0  0  0  0  0
   -1.2980   -0.6500    3.6360 O   0  0  0  0  0  0  0  0  0  0  0  0
   -3.2050    0.5000    4.0620 O   0  0  0  0  0  0  0  0  0  0  0  0
   -3.6470    2.7500    2.4640 H   0  0  0  0  0  0  0  0  0  0  0  0
   -5.2210    2.1370    3.0350 H   0  0  0  0  0  0  0  0  0  0  0  0
   -2.9540    0.7120   -0.0870 H   0  0  0  0  0  0  0  0  0  0  0  0
   -3.3420   -0.6820    0.9240 H   0  0  0  0  0  0  0  0  0  0  0  0
   -1.9000    1.8320    1.9510 H   0  0  0  0  0  0  0  0  0  0  0  0
   -0.7670   -0.9070    1.2080 H   0  0  0  0  0  0  0  0  0  0  0  0
  1  6  1  0  0  0  0
  1  7  1  0  0  0  0
  2  9  1  6  0  0  0
  2  4  1  0  0  0  0
  2  1  1  0  0  0  0
  2  3  1  0  0  0  0
  3 11  1  0  0  0  0
  4  5  2  0  0  0  0
  8  1  1  0  0  0  0
 10  3  1  0  0  0  0
 12 13  1  0  0  0  0
 12  4  1  0  0  0  0
 13 18  1  0  0  0  0
 13 22  1  1  0  0  0
 14 24  1  0  0  0  0
 14 13  1  0  0  0  0
 15 14  1  0  0  0  0
 15 26  1  0  0  0  0
 16 15  1  0  0  0  0
 17 16  2  0  0  0  0
 18 19  2  0  0  0  0
 18 33  1  0  0  0  0
 20 16  1  0  0  0  0
 21 12  1  0  0  0  0
 23 14  1  0  0  0  0
 25 15  1  0  0  0  0
 27 20  1  0  0  0  0
 28 37  1  0  0  0  0
 28 38  1  0  0  0  0
 29 28  1  0  0  0  0
 30 29  2  0  0  0  0
 31 29  1  0  0  0  0
 31 32  1  0  0  0  0
 32 41  1  1  0  0  0
 32 34  1  0  0  0  0
 33 32  1  0  0  0  0
 34 35  2  0  0  0  0
 34 36  1  0  0  0  0
 39 31  1  0  0  0  0
 40 31  1  0  0  0  0
 42 33  1  0  0  0  0
M  END
$$$$
