AEQ.pdb
 OpenBabel07022418003D

 45 44  0  0  1  0  0  0  0  0999 V2000
    1.0180   -0.6040    3.7790 C   0  0  0  0  0  0  0  0  0  0  0  0
    2.3930   -0.0770    3.3970 C   0  0  2  0  0  0  0  0  0  0  0  0
    2.8690    0.7430    4.4920 N   0  0  0  0  0  0  0  0  0  0  0  0
    2.3060    0.7470    2.1880 C   0  0  0  0  0  0  0  0  0  0  0  0
    2.6360    1.9470    2.2160 O   0  0  0  0  0  0  0  0  0  0  0  0
    0.4650    0.1910    4.3110 H   0  0  0  0  0  0  0  0  0  0  0  0
    1.1870   -1.4260    4.5130 H   0  0  0  0  0  0  0  0  0  0  0  0
    0.4860   -1.0340    2.9230 H   0  0  0  0  0  0  0  0  0  0  0  0
    3.1030   -0.9240    3.2940 H   0  0  0  0  0  0  0  0  0  0  0  0
    3.3160    0.0930    5.1950 H   0  0  0  0  0  0  0  0  0  0  0  0
    2.0450    1.1970    4.9570 H   0  0  0  0  0  0  0  0  0  0  0  0
    1.8390    0.2080    0.9340 N   0  0  0  0  0  0  0  0  0  0  0  0
    1.7740    1.0590   -0.2110 C   0  0  1  0  0  0  0  0  0  0  0  0
    2.7070    0.6280   -1.2830 C   0  0  0  0  0  0  0  0  0  0  0  0
    2.5340   -0.7130   -1.8830 C   0  0  0  0  0  0  0  0  0  0  0  0
    2.6890   -1.8050   -0.9290 C   0  0  0  0  0  0  0  0  0  0  0  0
    1.7880   -2.6970   -0.8310 O   0  0  0  0  0  0  0  0  0  0  0  0
    0.3490    0.9930   -0.6860 C   0  0  0  0  0  0  0  0  0  0  0  0
    0.0840    1.6530   -1.7220 O   0  0  0  0  0  0  0  0  0  0  0  0
    3.7920   -1.9340   -0.1000 O   0  0  0  0  0  0  0  0  0  0  0  0
    1.5650   -0.7790    0.9680 H   0  0  0  0  0  0  0  0  0  0  0  0
    1.9940    2.1270    0.0960 H   0  0  0  0  0  0  0  0  0  0  0  0
    3.7480    0.6240   -0.8090 H   0  0  0  0  0  0  0  0  0  0  0  0
    2.8120    1.4250   -2.0870 H   0  0  0  0  0  0  0  0  0  0  0  0
    3.3060   -0.8030   -2.7040 H   0  0  0  0  0  0  0  0  0  0  0  0
    1.5080   -0.7730   -2.3430 H   0  0  0  0  0  0  0  0  0  0  0  0
    4.2280   -2.8590    0.0340 H   0  0  0  0  0  0  0  0  0  0  0  0
   -2.8790   -3.3300    2.1410 N   0  0  0  0  0  0  0  0  0  0  0  0
   -3.1050   -2.2230    1.2310 C   0  0  0  0  0  0  0  0  0  0  0  0
   -3.9310   -1.3990    1.6380 O   0  0  0  0  0  0  0  0  0  0  0  0
   -2.3360   -2.2590    0.0050 C   0  0  0  0  0  0  0  0  0  0  0  0
   -2.4330   -1.1570   -0.9620 C   0  0  0  0  0  0  0  0  0  0  0  0
   -2.0460    0.2100   -0.5320 C   0  0  2  0  0  0  0  0  0  0  0  0
   -0.6690    0.2630   -0.0600 N   0  0  0  0  0  0  0  0  0  0  0  0
   -3.0000    0.9170    0.3420 C   0  0  0  0  0  0  0  0  0  0  0  0
   -2.6980    1.4290    1.4330 O   0  0  0  0  0  0  0  0  0  0  0  0
   -4.3220    1.0080   -0.1090 O   0  0  0  0  0  0  0  0  0  0  0  0
   -3.6060   -4.0310    2.3720 H   0  0  0  0  0  0  0  0  0  0  0  0
   -1.9390   -3.3990    2.5660 H   0  0  0  0  0  0  0  0  0  0  0  0
   -1.2480   -2.4760    0.1680 H   0  0  0  0  0  0  0  0  0  0  0  0
   -2.6830   -3.1900   -0.5530 H   0  0  0  0  0  0  0  0  0  0  0  0
   -1.7500   -1.4340   -1.8240 H   0  0  0  0  0  0  0  0  0  0  0  0
   -3.4400   -1.1010   -1.4710 H   0  0  0  0  0  0  0  0  0  0  0  0
   -2.0810    0.8390   -1.4980 H   0  0  0  0  0  0  0  0  0  0  0  0
   -0.4210   -0.2780    0.8020 H   0  0  0  0  0  0  0  0  0  0  0  0
  1  6  1  0  0  0  0
  1  7  1  0  0  0  0
  2  9  1  6  0  0  0
  2  1  1  0  0  0  0
  2  3  1  0  0  0  0
  3 11  1  0  0  0  0
  3 10  1  0  0  0  0
  4  5  2  0  0  0  0
  4  2  1  0  0  0  0
  8  1  1  0  0  0  0
 12 21  1  0  0  0  0
 12  4  1  0  0  0  0
 13 22  1  1  0  0  0
 13 12  1  0  0  0  0
 14 23  1  0  0  0  0
 14 13  1  0  0  0  0
 15 14  1  0  0  0  0
 15 16  1  0  0  0  0
 16 17  2  0  0  0  0
 16 20  1  0  0  0  0
 18 13  1  0  0  0  0
 18 34  1  0  0  0  0
 19 18  2  0  0  0  0
 20 27  1  0  0  0  0
 24 14  1  0  0  0  0
 25 15  1  0  0  0  0
 26 15  1  0  0  0  0
 28 38  1  0  0  0  0
 28 39  1  0  0  0  0
 29 30  2  0  0  0  0
 29 28  1  0  0  0  0
 31 40  1  0  0  0  0
 31 29  1  0  0  0  0
 32 33  1  0  0  0  0
 32 31  1  0  0  0  0
 33 44  1  6  0  0  0
 33 34  1  0  0  0  0
 33 35  1  0  0  0  0
 34 45  1  0  0  0  0
 35 36  1  0  0  0  0
 37 35  2  0  0  0  0
 41 31  1  0  0  0  0
 42 32  1  0  0  0  0
 43 32  1  0  0  0  0
M  END
$$$$
