AER.pdb
 OpenBabel07022418003D

 51 50  0  0  1  0  0  0  0  0999 V2000
    3.3410   -2.4890    4.3920 C   0  0  0  0  0  0  0  0  0  0  0  0
    2.0730   -2.6570    3.5960 C   0  0  2  0  0  0  0  0  0  0  0  0
    2.2560   -3.7620    2.6930 N   0  0  0  0  0  0  0  0  0  0  0  0
    1.7390   -1.4150    2.8140 C   0  0  0  0  0  0  0  0  0  0  0  0
    1.5280   -0.3270    3.3850 O   0  0  0  0  0  0  0  0  0  0  0  0
    3.9610   -1.6490    4.0820 H   0  0  0  0  0  0  0  0  0  0  0  0
    3.9850   -3.4120    4.3020 H   0  0  0  0  0  0  0  0  0  0  0  0
    3.0500   -2.4710    5.4740 H   0  0  0  0  0  0  0  0  0  0  0  0
    1.1950   -2.8720    4.2210 H   0  0  0  0  0  0  0  0  0  0  0  0
    1.3660   -4.1180    2.2870 H   0  0  0  0  0  0  0  0  0  0  0  0
    2.9200   -4.4780    3.0010 H   0  0  0  0  0  0  0  0  0  0  0  0
    1.6640   -1.4770    1.4150 N   0  0  0  0  0  0  0  0  0  0  0  0
    1.3400   -0.3040    0.5640 C   0  0  1  0  0  0  0  0  0  0  0  0
    2.6000   -0.0500   -0.2250 C   0  0  0  0  0  0  0  0  0  0  0  0
    2.5030    1.1090   -1.1780 C   0  0  0  0  0  0  0  0  0  0  0  0
    3.8480    1.2490   -1.8600 C   0  0  0  0  0  0  0  0  0  0  0  0
    4.0280    2.1500   -2.7090 O   0  0  0  0  0  0  0  0  0  0  0  0
    0.1840   -0.7160   -0.2520 C   0  0  0  0  0  0  0  0  0  0  0  0
   -0.2010   -1.9340   -0.2250 O   0  0  0  0  0  0  0  0  0  0  0  0
    4.8860    0.3870   -1.5540 O   0  0  0  0  0  0  0  0  0  0  0  0
    1.8410   -2.3780    0.9350 H   0  0  0  0  0  0  0  0  0  0  0  0
    1.1650    0.5820    1.1920 H   0  0  0  0  0  0  0  0  0  0  0  0
    2.7980   -0.9940   -0.8110 H   0  0  0  0  0  0  0  0  0  0  0  0
    3.4640    0.0930    0.4580 H   0  0  0  0  0  0  0  0  0  0  0  0
    1.8080    0.8680   -2.0160 H   0  0  0  0  0  0  0  0  0  0  0  0
    2.2440    2.0580   -0.6900 H   0  0  0  0  0  0  0  0  0  0  0  0
    5.8680    0.6000   -1.7880 H   0  0  0  0  0  0  0  0  0  0  0  0
   -3.5550   -0.6000    4.1810 N   0  0  0  0  0  0  0  0  0  0  0  0
   -3.1860   -0.5470    2.8160 C   0  0  0  0  0  0  0  0  0  0  0  0
   -1.9920   -0.1990    2.5000 N   0  0  0  0  0  0  0  0  0  0  0  0
   -4.0890   -0.8640    1.7580 N   0  0  0  0  0  0  0  0  0  0  0  0
   -3.6990   -0.9320    0.3790 C   0  0  0  0  0  0  0  0  0  0  0  0
   -3.3440    0.4290   -0.1350 C   0  0  0  0  0  0  0  0  0  0  0  0
   -2.9260    0.4730   -1.5580 C   0  0  0  0  0  0  0  0  0  0  0  0
   -1.7090   -0.3490   -1.8810 C   0  0  2  0  0  0  0  0  0  0  0  0
   -0.5800    0.1270   -1.0970 N   0  0  0  0  0  0  0  0  0  0  0  0
   -1.4180   -0.2670   -3.3380 C   0  0  0  0  0  0  0  0  0  0  0  0
   -0.3140    0.1710   -3.7530 O   0  0  0  0  0  0  0  0  0  0  0  0
   -2.3420   -0.6650   -4.2920 O   0  0  0  0  0  0  0  0  0  0  0  0
   -4.5280   -0.4510    4.4740 H   0  0  0  0  0  0  0  0  0  0  0  0
   -2.8230   -0.7950    4.8850 H   0  0  0  0  0  0  0  0  0  0  0  0
   -1.3060    0.0400    3.2230 H   0  0  0  0  0  0  0  0  0  0  0  0
   -5.0760   -1.0530    2.0330 H   0  0  0  0  0  0  0  0  0  0  0  0
   -4.5460   -1.3120   -0.2330 H   0  0  0  0  0  0  0  0  0  0  0  0
   -2.8830   -1.6720    0.2370 H   0  0  0  0  0  0  0  0  0  0  0  0
   -2.6150    0.9610    0.5120 H   0  0  0  0  0  0  0  0  0  0  0  0
   -4.2890    1.0440   -0.0490 H   0  0  0  0  0  0  0  0  0  0  0  0
   -3.7290    0.1900   -2.2700 H   0  0  0  0  0  0  0  0  0  0  0  0
   -2.6590    1.5390   -1.8070 H   0  0  0  0  0  0  0  0  0  0  0  0
   -1.9480   -1.4040   -1.6880 H   0  0  0  0  0  0  0  0  0  0  0  0
   -0.3110    1.1310   -1.1290 H   0  0  0  0  0  0  0  0  0  0  0  0
  1  8  1  0  0  0  0
  2  9  1  1  0  0  0
  2  1  1  0  0  0  0
  3 11  1  0  0  0  0
  3  2  1  0  0  0  0
  4  5  2  0  0  0  0
  4  2  1  0  0  0  0
  6  1  1  0  0  0  0
  7  1  1  0  0  0  0
 10  3  1  0  0  0  0
 12  4  1  0  0  0  0
 13 22  1  1  0  0  0
 13 12  1  0  0  0  0
 14 24  1  0  0  0  0
 14 13  1  0  0  0  0
 15 26  1  0  0  0  0
 15 14  1  0  0  0  0
 16 20  1  0  0  0  0
 16 15  1  0  0  0  0
 17 16  2  0  0  0  0
 18 19  2  0  0  0  0
 18 13  1  0  0  0  0
 21 12  1  0  0  0  0
 23 14  1  0  0  0  0
 25 15  1  0  0  0  0
 27 20  1  0  0  0  0
 28 40  1  0  0  0  0
 28 41  1  0  0  0  0
 29 28  1  0  0  0  0
 30 29  2  0  0  0  0
 30 42  1  0  0  0  0
 31 43  1  0  0  0  0
 31 29  1  0  0  0  0
 32 31  1  0  0  0  0
 33 47  1  0  0  0  0
 33 32  1  0  0  0  0
 33 46  1  0  0  0  0
 34 33  1  0  0  0  0
 35 50  1  1  0  0  0
 35 34  1  0  0  0  0
 35 36  1  0  0  0  0
 36 18  1  0  0  0  0
 37 35  1  0  0  0  0
 38 37  1  0  0  0  0
 39 37  2  0  0  0  0
 44 32  1  0  0  0  0
 45 32  1  0  0  0  0
 48 34  1  0  0  0  0
 49 34  1  0  0  0  0
 51 36  1  0  0  0  0
M  END
$$$$
