AES.pdb
 OpenBabel07022418003D

 39 38  0  0  1  0  0  0  0  0999 V2000
    0.6840   -5.3290    1.4890 C   0  0  0  0  0  0  0  0  0  0  0  0
    0.2460   -3.9850    1.9870 C   0  0  2  0  0  0  0  0  0  0  0  0
   -1.1740   -3.8640    1.8960 N   0  0  0  0  0  0  0  0  0  0  0  0
    0.9620   -2.8670    1.3080 C   0  0  0  0  0  0  0  0  0  0  0  0
    2.2260   -2.8110    1.2870 O   0  0  0  0  0  0  0  0  0  0  0  0
   -0.0940   -6.0680    1.7390 H   0  0  0  0  0  0  0  0  0  0  0  0
    0.7890   -5.2940    0.4040 H   0  0  0  0  0  0  0  0  0  0  0  0
    1.6460   -5.5880    1.9880 H   0  0  0  0  0  0  0  0  0  0  0  0
    0.5060   -3.9490    3.0850 H   0  0  0  0  0  0  0  0  0  0  0  0
   -1.5530   -3.0090    2.3480 H   0  0  0  0  0  0  0  0  0  0  0  0
   -1.5730   -4.0570    0.9720 H   0  0  0  0  0  0  0  0  0  0  0  0
    0.1840   -1.8600    0.6800 N   0  0  0  0  0  0  0  0  0  0  0  0
    0.7990   -0.7210   -0.0130 C   0  0  1  0  0  0  0  0  0  0  0  0
    0.3130   -0.7490   -1.4170 C   0  0  0  0  0  0  0  0  0  0  0  0
    0.8000    0.3120   -2.3250 C   0  0  0  0  0  0  0  0  0  0  0  0
    2.2440    0.3700   -2.5180 C   0  0  0  0  0  0  0  0  0  0  0  0
    3.0050   -0.4470   -1.9490 O   0  0  0  0  0  0  0  0  0  0  0  0
    0.3770    0.5590    0.6230 C   0  0  0  0  0  0  0  0  0  0  0  0
    0.8090    1.6530    0.1760 O   0  0  0  0  0  0  0  0  0  0  0  0
    2.8270    1.3240   -3.3340 O   0  0  0  0  0  0  0  0  0  0  0  0
   -0.8500   -1.9620    0.7300 H   0  0  0  0  0  0  0  0  0  0  0  0
    1.8990   -0.8300    0.0550 H   0  0  0  0  0  0  0  0  0  0  0  0
    0.5460   -1.7680   -1.8310 H   0  0  0  0  0  0  0  0  0  0  0  0
   -0.8120   -0.7100   -1.3780 H   0  0  0  0  0  0  0  0  0  0  0  0
    0.3560    0.0930   -3.3460 H   0  0  0  0  0  0  0  0  0  0  0  0
    0.3330    1.3030   -2.0670 H   0  0  0  0  0  0  0  0  0  0  0  0
    3.7990    1.5910   -3.1190 H   0  0  0  0  0  0  0  0  0  0  0  0
   -0.1390    3.5950    3.6250 O   0  0  0  0  0  0  0  0  0  0  0  0
    0.2670    2.4020    2.9900 C   0  0  0  0  0  0  0  0  0  0  0  0
   -0.9430    1.7160    2.3720 C   0  0  2  0  0  0  0  0  0  0  0  0
   -0.5100    0.4980    1.7290 N   0  0  0  0  0  0  0  0  0  0  0  0
   -1.6310    2.5690    1.3840 C   0  0  0  0  0  0  0  0  0  0  0  0
   -1.7590    2.1650    0.2070 O   0  0  0  0  0  0  0  0  0  0  0  0
   -2.1460    3.8290    1.7360 O   0  0  0  0  0  0  0  0  0  0  0  0
    0.6940    4.0470    3.9160 H   0  0  0  0  0  0  0  0  0  0  0  0
    1.0180    2.6980    2.2420 H   0  0  0  0  0  0  0  0  0  0  0  0
    0.7210    1.7020    3.7200 H   0  0  0  0  0  0  0  0  0  0  0  0
   -1.6510    1.4570    3.1970 H   0  0  0  0  0  0  0  0  0  0  0  0
   -0.8480   -0.4350    2.0740 H   0  0  0  0  0  0  0  0  0  0  0  0
  1  6  1  0  0  0  0
  1  2  1  0  0  0  0
  1  8  1  0  0  0  0
  2  9  1  1  0  0  0
  3  2  1  0  0  0  0
  3 10  1  0  0  0  0
  4  2  1  0  0  0  0
  5  4  2  0  0  0  0
  7  1  1  0  0  0  0
 11  3  1  0  0  0  0
 12 21  1  0  0  0  0
 12  4  1  0  0  0  0
 13 22  1  1  0  0  0
 13 18  1  0  0  0  0
 13 12  1  0  0  0  0
 14 24  1  0  0  0  0
 14 13  1  0  0  0  0
 15 26  1  0  0  0  0
 15 14  1  0  0  0  0
 16 15  1  0  0  0  0
 16 17  2  0  0  0  0
 18 31  1  0  0  0  0
 19 18  2  0  0  0  0
 20 27  1  0  0  0  0
 20 16  1  0  0  0  0
 23 14  1  0  0  0  0
 25 15  1  0  0  0  0
 28 35  1  0  0  0  0
 29 28  1  0  0  0  0
 29 37  1  0  0  0  0
 30 29  1  0  0  0  0
 30 38  1  1  0  0  0
 31 39  1  0  0  0  0
 31 30  1  0  0  0  0
 32 34  1  0  0  0  0
 32 30  1  0  0  0  0
 33 32  2  0  0  0  0
 36 29  1  0  0  0  0
M  END
$$$$
