AET.pdb
 OpenBabel07022418003D

 42 41  0  0  1  0  0  0  0  0999 V2000
   -2.4210   -3.0400    0.1130 C   0  0  0  0  0  0  0  0  0  0  0  0
   -1.4690   -3.1990   -1.0340 C   0  0  2  0  0  0  0  0  0  0  0  0
   -1.2720   -4.5980   -1.3600 N   0  0  0  0  0  0  0  0  0  0  0  0
   -0.1420   -2.5840   -0.7540 C   0  0  0  0  0  0  0  0  0  0  0  0
    0.9130   -3.2960   -0.8230 O   0  0  0  0  0  0  0  0  0  0  0  0
   -2.6420   -4.0630    0.5220 H   0  0  0  0  0  0  0  0  0  0  0  0
   -3.3820   -2.6220   -0.2370 H   0  0  0  0  0  0  0  0  0  0  0  0
   -1.9610   -2.4700    0.9330 H   0  0  0  0  0  0  0  0  0  0  0  0
   -1.8770   -2.6800   -1.9370 H   0  0  0  0  0  0  0  0  0  0  0  0
   -0.3230   -4.8070   -1.7270 H   0  0  0  0  0  0  0  0  0  0  0  0
   -1.5200   -5.2310   -0.5780 H   0  0  0  0  0  0  0  0  0  0  0  0
    0.0380   -1.2390   -0.4100 N   0  0  0  0  0  0  0  0  0  0  0  0
    1.3700   -0.6730   -0.1420 C   0  0  1  0  0  0  0  0  0  0  0  0
    1.6000    0.4270   -1.1350 C   0  0  0  0  0  0  0  0  0  0  0  0
    2.8970    1.1390   -1.0370 C   0  0  0  0  0  0  0  0  0  0  0  0
    4.0650    0.2660   -1.2550 C   0  0  0  0  0  0  0  0  0  0  0  0
    3.9280   -0.9370   -1.5540 O   0  0  0  0  0  0  0  0  0  0  0  0
    1.3380   -0.1050    1.2300 C   0  0  0  0  0  0  0  0  0  0  0  0
    2.3710    0.4330    1.6890 O   0  0  0  0  0  0  0  0  0  0  0  0
    5.3770    0.7420   -1.1380 O   0  0  0  0  0  0  0  0  0  0  0  0
   -0.7640   -0.5910   -0.3340 H   0  0  0  0  0  0  0  0  0  0  0  0
    2.1470   -1.4340   -0.2620 H   0  0  0  0  0  0  0  0  0  0  0  0
    0.7610    1.1660   -1.1290 H   0  0  0  0  0  0  0  0  0  0  0  0
    1.5680   -0.0330   -2.1700 H   0  0  0  0  0  0  0  0  0  0  0  0
    3.0010    1.7520   -0.1130 H   0  0  0  0  0  0  0  0  0  0  0  0
    2.9480    1.9140   -1.8640 H   0  0  0  0  0  0  0  0  0  0  0  0
    6.1130    0.2980   -1.6500 H   0  0  0  0  0  0  0  0  0  0  0  0
   -0.2440    2.6640    2.5560 C   0  0  0  0  0  0  0  0  0  0  0  0
   -0.7450    1.5940    3.5180 C   0  0  1  0  0  0  0  0  0  0  0  0
   -2.0310    1.1910    3.2390 O   0  0  0  0  0  0  0  0  0  0  0  0
    0.2040    0.4370    3.4120 C   0  0  2  0  0  0  0  0  0  0  0  0
    0.1900   -0.1390    2.0590 N   0  0  0  0  0  0  0  0  0  0  0  0
   -0.0390   -0.5980    4.4370 C   0  0  0  0  0  0  0  0  0  0  0  0
   -0.0600   -0.2720    5.6300 O   0  0  0  0  0  0  0  0  0  0  0  0
   -0.2440   -1.9200    4.0820 O   0  0  0  0  0  0  0  0  0  0  0  0
   -0.4310    2.2610    1.5300 H   0  0  0  0  0  0  0  0  0  0  0  0
    0.8600    2.7500    2.7240 H   0  0  0  0  0  0  0  0  0  0  0  0
   -0.7680    3.5990    2.7510 H   0  0  0  0  0  0  0  0  0  0  0  0
   -0.6900    1.9770    4.5470 H   0  0  0  0  0  0  0  0  0  0  0  0
   -2.4570    1.7580    2.5410 H   0  0  0  0  0  0  0  0  0  0  0  0
    1.2330    0.8550    3.5770 H   0  0  0  0  0  0  0  0  0  0  0  0
   -0.6860   -0.5860    1.6950 H   0  0  0  0  0  0  0  0  0  0  0  0
  1  6  1  0  0  0  0
  1  8  1  0  0  0  0
  2  9  1  6  0  0  0
  2  4  1  0  0  0  0
  2  1  1  0  0  0  0
  3  2  1  0  0  0  0
  3 11  1  0  0  0  0
  4 12  1  0  0  0  0
  5  4  2  0  0  0  0
  7  1  1  0  0  0  0
 10  3  1  0  0  0  0
 12 21  1  0  0  0  0
 12 13  1  0  0  0  0
 13 22  1  6  0  0  0
 13 18  1  0  0  0  0
 14 23  1  0  0  0  0
 14 15  1  0  0  0  0
 14 13  1  0  0  0  0
 15 25  1  0  0  0  0
 16 20  1  0  0  0  0
 16 15  1  0  0  0  0
 17 16  2  0  0  0  0
 18 19  2  0  0  0  0
 18 32  1  0  0  0  0
 24 14  1  0  0  0  0
 26 15  1  0  0  0  0
 27 20  1  0  0  0  0
 28 37  1  0  0  0  0
 28 38  1  0  0  0  0
 28 29  1  0  0  0  0
 29 39  1  1  0  0  0
 30 29  1  0  0  0  0
 31 29  1  0  0  0  0
 31 41  1  1  0  0  0
 31 33  1  0  0  0  0
 32 31  1  0  0  0  0
 33 34  1  0  0  0  0
 35 33  2  0  0  0  0
 36 28  1  0  0  0  0
 40 30  1  0  0  0  0
 42 32  1  0  0  0  0
M  END
$$$$
