AEY.pdb
 OpenBabel07022418003D

 49 49  0  0  1  0  0  0  0  0999 V2000
    1.2720    0.9130    5.7310 C   0  0  0  0  0  0  0  0  0  0  0  0
    0.3410    0.9490    4.5510 C   0  0  2  0  0  0  0  0  0  0  0  0
   -0.5480   -0.1700    4.4810 N   0  0  0  0  0  0  0  0  0  0  0  0
    1.0650    1.0780    3.2570 C   0  0  0  0  0  0  0  0  0  0  0  0
    1.9140    1.9930    3.0660 O   0  0  0  0  0  0  0  0  0  0  0  0
    1.5020    1.9440    6.0320 H   0  0  0  0  0  0  0  0  0  0  0  0
    0.7740    0.4150    6.5880 H   0  0  0  0  0  0  0  0  0  0  0  0
    2.2100    0.3870    5.5030 H   0  0  0  0  0  0  0  0  0  0  0  0
   -0.3050    1.8650    4.6850 H   0  0  0  0  0  0  0  0  0  0  0  0
   -1.3660   -0.1040    5.1150 H   0  0  0  0  0  0  0  0  0  0  0  0
   -0.0820   -1.0940    4.5250 H   0  0  0  0  0  0  0  0  0  0  0  0
    0.8210    0.1810    2.2140 N   0  0  0  0  0  0  0  0  0  0  0  0
    1.4770    0.2190    0.9030 C   0  0  1  0  0  0  0  0  0  0  0  0
    2.2170   -1.0300    0.6270 C   0  0  0  0  0  0  0  0  0  0  0  0
    2.8970   -0.9900   -0.7090 C   0  0  0  0  0  0  0  0  0  0  0  0
    3.6710   -2.2670   -0.9450 C   0  0  0  0  0  0  0  0  0  0  0  0
    3.7090   -3.1910   -0.1200 O   0  0  0  0  0  0  0  0  0  0  0  0
    0.4620    0.5380   -0.1230 C   0  0  0  0  0  0  0  0  0  0  0  0
    0.7250    0.6980   -1.3190 O   0  0  0  0  0  0  0  0  0  0  0  0
    4.3440   -2.3630   -2.1360 O   0  0  0  0  0  0  0  0  0  0  0  0
    0.1300   -0.5850    2.3370 H   0  0  0  0  0  0  0  0  0  0  0  0
    2.1910    1.0820    0.9430 H   0  0  0  0  0  0  0  0  0  0  0  0
    3.0020   -1.2700    1.3720 H   0  0  0  0  0  0  0  0  0  0  0  0
    1.4560   -1.8550    0.5620 H   0  0  0  0  0  0  0  0  0  0  0  0
    2.1870   -0.9580   -1.5770 H   0  0  0  0  0  0  0  0  0  0  0  0
    3.6070   -0.1640   -0.8400 H   0  0  0  0  0  0  0  0  0  0  0  0
    4.9820   -3.1420   -2.3290 H   0  0  0  0  0  0  0  0  0  0  0  0
    0.2060   -4.7990   -2.3390 O   0  0  0  0  0  0  0  0  0  0  0  0
   -0.5460   -3.6770   -1.9740 C   0  0  0  0  0  0  0  0  0  0  0  0
   -0.7300   -3.3150   -0.6610 C   0  0  0  0  0  0  0  0  0  0  0  0
   -1.4710   -2.2100   -0.2830 C   0  0  0  0  0  0  0  0  0  0  0  0
   -2.0620   -1.4170   -1.2440 C   0  0  0  0  0  0  0  0  0  0  0  0
   -2.8580   -0.2300   -0.8360 C   0  0  0  0  0  0  0  0  0  0  0  0
   -1.9450    0.9970   -0.7540 C   0  0  2  0  0  0  0  0  0  0  0  0
   -0.9280    0.6820    0.2410 N   0  0  0  0  0  0  0  0  0  0  0  0
   -2.6970    2.2010   -0.4000 C   0  0  0  0  0  0  0  0  0  0  0  0
   -3.6120    2.6240   -1.1390 O   0  0  0  0  0  0  0  0  0  0  0  0
   -1.8880   -1.7660   -2.5710 C   0  0  0  0  0  0  0  0  0  0  0  0
   -1.1490   -2.8680   -2.9310 C   0  0  0  0  0  0  0  0  0  0  0  0
   -2.4080    2.8900    0.7600 O   0  0  0  0  0  0  0  0  0  0  0  0
    0.0300   -5.6320   -1.7690 H   0  0  0  0  0  0  0  0  0  0  0  0
   -0.2750   -3.9220    0.1240 H   0  0  0  0  0  0  0  0  0  0  0  0
   -1.6100   -1.9340    0.7440 H   0  0  0  0  0  0  0  0  0  0  0  0
   -3.6850   -0.0220   -1.5250 H   0  0  0  0  0  0  0  0  0  0  0  0
   -3.3070   -0.4340    0.1650 H   0  0  0  0  0  0  0  0  0  0  0  0
   -1.4980    1.0960   -1.7640 H   0  0  0  0  0  0  0  0  0  0  0  0
   -1.1600    0.5500    1.2470 H   0  0  0  0  0  0  0  0  0  0  0  0
   -2.3370   -1.1680   -3.3580 H   0  0  0  0  0  0  0  0  0  0  0  0
   -1.0090   -3.1470   -3.9750 H   0  0  0  0  0  0  0  0  0  0  0  0
  1  6  1  0  0  0  0
  1  7  1  0  0  0  0
  2  9  1  1  0  0  0
  2  1  1  0  0  0  0
  3 11  1  0  0  0  0
  3  2  1  0  0  0  0
  3 10  1  0  0  0  0
  4  2  1  0  0  0  0
  5  4  2  0  0  0  0
  8  1  1  0  0  0  0
 12 21  1  0  0  0  0
 12  4  1  0  0  0  0
 13 22  1  1  0  0  0
 13 12  1  0  0  0  0
 14 13  1  0  0  0  0
 14 23  1  0  0  0  0
 15 14  1  0  0  0  0
 16 15  1  0  0  0  0
 16 17  2  0  0  0  0
 18 35  1  0  0  0  0
 18 13  1  0  0  0  0
 19 18  2  0  0  0  0
 20 16  1  0  0  0  0
 24 14  1  0  0  0  0
 25 15  1  0  0  0  0
 26 15  1  0  0  0  0
 27 20  1  0  0  0  0
 28 29  1  0  0  0  0
 28 41  1  0  0  0  0
 29 30  1  0  0  0  0
 30 31  2  0  0  0  0
 30 42  1  0  0  0  0
 31 43  1  0  0  0  0
 32 33  1  0  0  0  0
 32 31  1  0  0  0  0
 33 34  1  0  0  0  0
 33 45  1  0  0  0  0
 34 46  1  6  0  0  0
 34 36  1  0  0  0  0
 34 35  1  0  0  0  0
 35 47  1  0  0  0  0
 36 40  1  0  0  0  0
 37 36  2  0  0  0  0
 38 32  2  0  0  0  0
 39 38  1  0  0  0  0
 39 29  2  0  0  0  0
 44 33  1  0  0  0  0
 48 38  1  0  0  0  0
 49 39  1  0  0  0  0
M  END
$$$$
