AFA.pdb
 OpenBabel07022418023D

 42 42  0  0  1  0  0  0  0  0999 V2000
   -0.9690   -5.0960   -0.3650 C   0  0  0  0  0  0  0  0  0  0  0  0
   -0.8580   -4.1730    0.8420 C   0  0  2  0  0  0  0  0  0  0  0  0
   -2.1470   -3.6420    1.1880 N   0  0  0  0  0  0  0  0  0  0  0  0
    0.1170   -3.1020    0.4990 C   0  0  0  0  0  0  0  0  0  0  0  0
    1.2990   -3.3780    0.1710 O   0  0  0  0  0  0  0  0  0  0  0  0
   -1.8140   -4.7540   -1.0200 H   0  0  0  0  0  0  0  0  0  0  0  0
   -0.0320   -5.0440   -0.9210 H   0  0  0  0  0  0  0  0  0  0  0  0
   -1.1160   -6.1540   -0.0310 H   0  0  0  0  0  0  0  0  0  0  0  0
   -0.5160   -4.8030    1.6870 H   0  0  0  0  0  0  0  0  0  0  0  0
   -2.1830   -3.3050    2.1750 H   0  0  0  0  0  0  0  0  0  0  0  0
   -2.8340   -4.4360    1.1340 H   0  0  0  0  0  0  0  0  0  0  0  0
   -0.2300   -1.7220    0.5230 N   0  0  0  0  0  0  0  0  0  0  0  0
    0.7150   -0.6630    0.1900 C   0  0  1  0  0  0  0  0  0  0  0  0
    0.2200    0.0840   -1.0170 C   0  0  0  0  0  0  0  0  0  0  0  0
    1.1010    1.1800   -1.4400 C   0  0  0  0  0  0  0  0  0  0  0  0
    2.1340    0.9170   -2.3480 C   0  0  0  0  0  0  0  0  0  0  0  0
    2.9890    1.9080   -2.7820 C   0  0  0  0  0  0  0  0  0  0  0  0
    2.8180    3.1890   -2.3080 C   0  0  0  0  0  0  0  0  0  0  0  0
    1.7980    3.4340   -1.4160 C   0  0  0  0  0  0  0  0  0  0  0  0
    0.9290    2.4630   -0.9650 C   0  0  0  0  0  0  0  0  0  0  0  0
    0.9010    0.1620    1.3920 C   0  0  0  0  0  0  0  0  0  0  0  0
    1.6880    1.1330    1.3390 O   0  0  0  0  0  0  0  0  0  0  0  0
   -1.1950   -1.4340    0.7880 H   0  0  0  0  0  0  0  0  0  0  0  0
    1.7090   -1.0810   -0.0770 H   0  0  0  0  0  0  0  0  0  0  0  0
    0.1880   -0.6540   -1.8520 H   0  0  0  0  0  0  0  0  0  0  0  0
   -0.8230    0.4450   -0.9010 H   0  0  0  0  0  0  0  0  0  0  0  0
    2.2910   -0.0870   -2.7380 H   0  0  0  0  0  0  0  0  0  0  0  0
    3.7960    1.7360   -3.4820 H   0  0  0  0  0  0  0  0  0  0  0  0
    3.4760    4.0110   -2.6270 H   0  0  0  0  0  0  0  0  0  0  0  0
    1.6720    4.4600   -1.0460 H   0  0  0  0  0  0  0  0  0  0  0  0
    0.1310    2.7250   -0.2520 H   0  0  0  0  0  0  0  0  0  0  0  0
   -0.9800    1.2680    4.1510 C   0  0  0  0  0  0  0  0  0  0  0  0
    0.3870    0.6930    3.8080 C   0  0  2  0  0  0  0  0  0  0  0  0
    0.2260   -0.0990    2.6060 N   0  0  0  0  0  0  0  0  0  0  0  0
    0.8910   -0.1400    4.9060 C   0  0  0  0  0  0  0  0  0  0  0  0
    1.0880    0.3950    6.0260 O   0  0  0  0  0  0  0  0  0  0  0  0
    1.1380   -1.4720    4.7030 O   0  0  0  0  0  0  0  0  0  0  0  0
   -1.0930    1.3230    5.2610 H   0  0  0  0  0  0  0  0  0  0  0  0
   -1.0610    2.2600    3.6660 H   0  0  0  0  0  0  0  0  0  0  0  0
   -1.7630    0.6100    3.7260 H   0  0  0  0  0  0  0  0  0  0  0  0
    1.1130    1.4930    3.5650 H   0  0  0  0  0  0  0  0  0  0  0  0
   -0.4250   -0.9020    2.6500 H   0  0  0  0  0  0  0  0  0  0  0  0
  1  8  1  0  0  0  0
  1  2  1  0  0  0  0
  2  3  1  0  0  0  0
  2  9  1  1  0  0  0
  3 10  1  0  0  0  0
  4 12  1  0  0  0  0
  4  2  1  0  0  0  0
  5  4  2  0  0  0  0
  6  1  1  0  0  0  0
  7  1  1  0  0  0  0
 11  3  1  0  0  0  0
 12 23  1  0  0  0  0
 13 24  1  6  0  0  0
 13 12  1  0  0  0  0
 13 21  1  0  0  0  0
 14 26  1  0  0  0  0
 14 13  1  0  0  0  0
 15 14  1  0  0  0  0
 15 20  1  0  0  0  0
 16 15  2  0  0  0  0
 17 16  1  0  0  0  0
 17 18  2  0  0  0  0
 18 19  1  0  0  0  0
 19 30  1  0  0  0  0
 19 20  2  0  0  0  0
 20 31  1  0  0  0  0
 21 34  1  0  0  0  0
 22 21  2  0  0  0  0
 25 14  1  0  0  0  0
 27 16  1  0  0  0  0
 28 17  1  0  0  0  0
 29 18  1  0  0  0  0
 32 38  1  0  0  0  0
 33 41  1  6  0  0  0
 33 32  1  0  0  0  0
 33 35  1  0  0  0  0
 34 42  1  0  0  0  0
 34 33  1  0  0  0  0
 35 36  1  0  0  0  0
 37 35  2  0  0  0  0
 39 32  1  0  0  0  0
 40 32  1  0  0  0  0
M  END
$$$$
