AFC.pdb
 OpenBabel07022418023D

 43 43  0  0  1  0  0  0  0  0999 V2000
   -0.4570   -4.0760    2.6340 C   0  0  0  0  0  0  0  0  0  0  0  0
    0.9980   -3.7290    2.8980 C   0  0  2  0  0  0  0  0  0  0  0  0
    1.2540   -4.0130    4.2960 N   0  0  0  0  0  0  0  0  0  0  0  0
    1.2290   -2.2790    2.6810 C   0  0  0  0  0  0  0  0  0  0  0  0
    1.5790   -1.5420    3.6230 O   0  0  0  0  0  0  0  0  0  0  0  0
   -1.1310   -3.3540    3.1390 H   0  0  0  0  0  0  0  0  0  0  0  0
   -0.6330   -5.0930    3.0340 H   0  0  0  0  0  0  0  0  0  0  0  0
   -0.6580   -4.1280    1.5400 H   0  0  0  0  0  0  0  0  0  0  0  0
    1.6360   -4.3500    2.2390 H   0  0  0  0  0  0  0  0  0  0  0  0
    2.2300   -3.7250    4.5230 H   0  0  0  0  0  0  0  0  0  0  0  0
    0.6120   -3.3750    4.8510 H   0  0  0  0  0  0  0  0  0  0  0  0
    1.0550   -1.6860    1.3830 N   0  0  0  0  0  0  0  0  0  0  0  0
    1.2790   -0.2530    1.1530 C   0  0  1  0  0  0  0  0  0  0  0  0
    2.3360   -0.1560    0.1140 C   0  0  0  0  0  0  0  0  0  0  0  0
    2.7460    1.1750   -0.3030 C   0  0  0  0  0  0  0  0  0  0  0  0
    2.1080    1.7540   -1.3960 C   0  0  0  0  0  0  0  0  0  0  0  0
    2.4430    3.0180   -1.8440 C   0  0  0  0  0  0  0  0  0  0  0  0
    3.4280    3.7370   -1.2070 C   0  0  0  0  0  0  0  0  0  0  0  0
    4.0650    3.1700   -0.1230 C   0  0  0  0  0  0  0  0  0  0  0  0
    3.7230    1.9230    0.3050 C   0  0  0  0  0  0  0  0  0  0  0  0
    0.0400    0.3810    0.6360 C   0  0  0  0  0  0  0  0  0  0  0  0
    0.0240    1.6100    0.4050 O   0  0  0  0  0  0  0  0  0  0  0  0
    0.7610   -2.3370    0.6240 H   0  0  0  0  0  0  0  0  0  0  0  0
    1.5770    0.1600    2.1380 H   0  0  0  0  0  0  0  0  0  0  0  0
    1.9570   -0.7140   -0.7910 H   0  0  0  0  0  0  0  0  0  0  0  0
    3.2410   -0.7070    0.4780 H   0  0  0  0  0  0  0  0  0  0  0  0
    1.3260    1.2600   -1.9610 H   0  0  0  0  0  0  0  0  0  0  0  0
    1.9600    3.4770   -2.6850 H   0  0  0  0  0  0  0  0  0  0  0  0
    3.7250    4.7390   -1.5270 H   0  0  0  0  0  0  0  0  0  0  0  0
    4.8570    3.7380    0.3960 H   0  0  0  0  0  0  0  0  0  0  0  0
    4.2210    1.4790    1.1540 H   0  0  0  0  0  0  0  0  0  0  0  0
   -1.1520   -0.3420    0.3850 N   0  0  0  0  0  0  0  0  0  0  0  0
   -2.3730    0.2500   -0.1180 C   0  0  1  0  0  0  0  0  0  0  0  0
   -2.6830   -0.4280   -1.4360 C   0  0  0  0  0  0  0  0  0  0  0  0
   -2.9040   -2.2110   -1.1910 S   0  0  0  0  0  0  0  0  0  0  0  0
   -3.5090    0.0340    0.8400 C   0  0  0  0  0  0  0  0  0  0  0  0
   -3.3860   -0.5770    1.9150 O   0  0  0  0  0  0  0  0  0  0  0  0
   -4.7440    0.5510    0.4840 O   0  0  0  0  0  0  0  0  0  0  0  0
   -1.1250   -1.3660    0.5820 H   0  0  0  0  0  0  0  0  0  0  0  0
   -2.3020    1.3220   -0.2920 H   0  0  0  0  0  0  0  0  0  0  0  0
   -1.7880   -0.2520   -2.0940 H   0  0  0  0  0  0  0  0  0  0  0  0
   -3.5510   -0.0250   -1.9470 H   0  0  0  0  0  0  0  0  0  0  0  0
   -3.1570   -2.5190    0.1560 H   0  0  0  0  0  0  0  0  0  0  0  0
  1  2  1  0  0  0  0
  1  7  1  0  0  0  0
  1  6  1  0  0  0  0
  2  9  1  6  0  0  0
  2  3  1  0  0  0  0
  3 10  1  0  0  0  0
  3 11  1  0  0  0  0
  4  2  1  0  0  0  0
  4  5  2  0  0  0  0
  8  1  1  0  0  0  0
 12  4  1  0  0  0  0
 13 12  1  0  0  0  0
 13 24  1  1  0  0  0
 14 26  1  0  0  0  0
 14 13  1  0  0  0  0
 15 14  1  0  0  0  0
 15 20  1  0  0  0  0
 16 15  2  0  0  0  0
 17 16  1  0  0  0  0
 17 18  2  0  0  0  0
 18 19  1  0  0  0  0
 19 20  2  0  0  0  0
 19 30  1  0  0  0  0
 20 31  1  0  0  0  0
 21 13  1  0  0  0  0
 22 21  2  0  0  0  0
 23 12  1  0  0  0  0
 25 14  1  0  0  0  0
 27 16  1  0  0  0  0
 28 17  1  0  0  0  0
 29 18  1  0  0  0  0
 32 39  1  0  0  0  0
 32 21  1  0  0  0  0
 33 40  1  6  0  0  0
 33 32  1  0  0  0  0
 33 36  1  0  0  0  0
 34 35  1  0  0  0  0
 34 33  1  0  0  0  0
 35 43  1  0  0  0  0
 36 37  1  0  0  0  0
 38 36  2  0  0  0  0
 41 34  1  0  0  0  0
 42 34  1  0  0  0  0
M  END
$$$$
