AFD.pdb
 OpenBabel07022418023D

 45 45  0  0  1  0  0  0  0  0999 V2000
    3.9320   -5.0010    1.2190 C   0  0  0  0  0  0  0  0  0  0  0  0
    2.6980   -4.6230    0.4560 C   0  0  2  0  0  0  0  0  0  0  0  0
    3.0280   -4.5510   -0.9390 N   0  0  0  0  0  0  0  0  0  0  0  0
    2.0310   -3.4100    0.9610 C   0  0  0  0  0  0  0  0  0  0  0  0
    1.7040   -3.3840    2.1830 O   0  0  0  0  0  0  0  0  0  0  0  0
    4.2030   -6.0450    0.8890 H   0  0  0  0  0  0  0  0  0  0  0  0
    4.8090   -4.3820    0.9980 H   0  0  0  0  0  0  0  0  0  0  0  0
    3.7590   -5.0910    2.3170 H   0  0  0  0  0  0  0  0  0  0  0  0
    1.9710   -5.4750    0.5700 H   0  0  0  0  0  0  0  0  0  0  0  0
    2.1740   -4.2440   -1.4570 H   0  0  0  0  0  0  0  0  0  0  0  0
    3.2510   -5.5130   -1.2710 H   0  0  0  0  0  0  0  0  0  0  0  0
    1.7300   -2.2770    0.1910 N   0  0  0  0  0  0  0  0  0  0  0  0
    1.0550   -1.0760    0.7480 C   0  0  1  0  0  0  0  0  0  0  0  0
    2.0090    0.0820    0.6520 C   0  0  0  0  0  0  0  0  0  0  0  0
    1.5080    1.3570    1.1680 C   0  0  0  0  0  0  0  0  0  0  0  0
    1.5980    1.6380    2.5370 C   0  0  0  0  0  0  0  0  0  0  0  0
    1.1860    2.8410    3.0620 C   0  0  0  0  0  0  0  0  0  0  0  0
    0.6650    3.8190    2.2470 C   0  0  0  0  0  0  0  0  0  0  0  0
    0.5800    3.5350    0.9030 C   0  0  0  0  0  0  0  0  0  0  0  0
    0.9870    2.3350    0.3540 C   0  0  0  0  0  0  0  0  0  0  0  0
   -0.2160   -0.8920    0.0470 C   0  0  0  0  0  0  0  0  0  0  0  0
   -0.4410   -1.6190   -0.9750 O   0  0  0  0  0  0  0  0  0  0  0  0
    1.9830   -2.2610   -0.8150 H   0  0  0  0  0  0  0  0  0  0  0  0
    0.8530   -1.2430    1.8330 H   0  0  0  0  0  0  0  0  0  0  0  0
    2.9920   -0.1930    1.1090 H   0  0  0  0  0  0  0  0  0  0  0  0
    2.2500    0.1710   -0.4500 H   0  0  0  0  0  0  0  0  0  0  0  0
    2.0060    0.8620    3.1590 H   0  0  0  0  0  0  0  0  0  0  0  0
    1.2610    3.0420    4.1180 H   0  0  0  0  0  0  0  0  0  0  0  0
    0.3470    4.7610    2.6840 H   0  0  0  0  0  0  0  0  0  0  0  0
    0.1670    4.3150    0.2600 H   0  0  0  0  0  0  0  0  0  0  0  0
    0.8950    2.1660   -0.7270 H   0  0  0  0  0  0  0  0  0  0  0  0
   -1.2650    0.0140    0.3740 N   0  0  0  0  0  0  0  0  0  0  0  0
   -2.4880    0.0500   -0.4420 C   0  0  1  0  0  0  0  0  0  0  0  0
   -3.6120   -0.5270    0.3990 C   0  0  0  0  0  0  0  0  0  0  0  0
   -3.8060    0.2870    1.6020 C   0  0  0  0  0  0  0  0  0  0  0  0
   -3.1500    1.3260    1.8000 O   0  0  0  0  0  0  0  0  0  0  0  0
   -2.8280    1.4360   -0.7680 C   0  0  0  0  0  0  0  0  0  0  0  0
   -2.1380    2.3950   -0.3710 O   0  0  0  0  0  0  0  0  0  0  0  0
   -4.7390   -0.0850    2.5630 O   0  0  0  0  0  0  0  0  0  0  0  0
   -3.9410    1.7540   -1.5420 O   0  0  0  0  0  0  0  0  0  0  0  0
   -1.0990    0.6110    1.2010 H   0  0  0  0  0  0  0  0  0  0  0  0
   -2.3300   -0.5900   -1.3540 H   0  0  0  0  0  0  0  0  0  0  0  0
   -3.3070   -1.5520    0.7640 H   0  0  0  0  0  0  0  0  0  0  0  0
   -4.5380   -0.6140   -0.2180 H   0  0  0  0  0  0  0  0  0  0  0  0
   -4.6040    0.0950    3.5540 H   0  0  0  0  0  0  0  0  0  0  0  0
  1  8  1  0  0  0  0
  2  9  1  1  0  0  0
  2  4  1  0  0  0  0
  2  1  1  0  0  0  0
  3  2  1  0  0  0  0
  4  5  2  0  0  0  0
  6  1  1  0  0  0  0
  7  1  1  0  0  0  0
 10  3  1  0  0  0  0
 11  3  1  0  0  0  0
 12 13  1  0  0  0  0
 12  4  1  0  0  0  0
 13 24  1  1  0  0  0
 14 13  1  0  0  0  0
 14 25  1  0  0  0  0
 14 15  1  0  0  0  0
 15 16  1  0  0  0  0
 16 17  2  0  0  0  0
 16 27  1  0  0  0  0
 17 28  1  0  0  0  0
 18 29  1  0  0  0  0
 18 17  1  0  0  0  0
 19 18  2  0  0  0  0
 20 19  1  0  0  0  0
 20 15  2  0  0  0  0
 21 32  1  0  0  0  0
 21 13  1  0  0  0  0
 22 21  2  0  0  0  0
 23 12  1  0  0  0  0
 26 14  1  0  0  0  0
 30 19  1  0  0  0  0
 31 20  1  0  0  0  0
 32 41  1  0  0  0  0
 33 42  1  6  0  0  0
 33 32  1  0  0  0  0
 33 34  1  0  0  0  0
 34 43  1  0  0  0  0
 34 35  1  0  0  0  0
 35 36  2  0  0  0  0
 35 39  1  0  0  0  0
 37 33  1  0  0  0  0
 37 38  1  0  0  0  0
 39 45  1  0  0  0  0
 40 37  2  0  0  0  0
 44 34  1  0  0  0  0
M  END
$$$$
