AFF.pdb
 OpenBabel07022418023D

 52 53  0  0  1  0  0  0  0  0999 V2000
    4.0150   -2.7660    3.0440 C   0  0  0  0  0  0  0  0  0  0  0  0
    2.5280   -2.6030    2.8230 C   0  0  2  0  0  0  0  0  0  0  0  0
    2.0730   -3.5900    1.8760 N   0  0  0  0  0  0  0  0  0  0  0  0
    2.2080   -1.2230    2.3970 C   0  0  0  0  0  0  0  0  0  0  0  0
    2.5700   -0.2900    3.1650 O   0  0  0  0  0  0  0  0  0  0  0  0
    4.2370   -3.2740    4.0040 H   0  0  0  0  0  0  0  0  0  0  0  0
    4.5420   -1.7720    3.0040 H   0  0  0  0  0  0  0  0  0  0  0  0
    4.4300   -3.3340    2.1750 H   0  0  0  0  0  0  0  0  0  0  0  0
    2.0310   -2.8520    3.8000 H   0  0  0  0  0  0  0  0  0  0  0  0
    2.4060   -3.3500    0.9240 H   0  0  0  0  0  0  0  0  0  0  0  0
    1.0270   -3.6090    1.8560 H   0  0  0  0  0  0  0  0  0  0  0  0
    1.5380   -0.8900    1.2110 N   0  0  0  0  0  0  0  0  0  0  0  0
    1.2240    0.4680    0.7940 C   0  0  1  0  0  0  0  0  0  0  0  0
    2.0010    0.8070   -0.4570 C   0  0  0  0  0  0  0  0  0  0  0  0
    1.7510    2.1700   -0.9650 C   0  0  0  0  0  0  0  0  0  0  0  0
    0.7450    2.3730   -1.8840 C   0  0  0  0  0  0  0  0  0  0  0  0
    0.4670    3.6310   -2.3950 C   0  0  0  0  0  0  0  0  0  0  0  0
    1.2120    4.7000   -1.9760 C   0  0  0  0  0  0  0  0  0  0  0  0
    2.2280    4.5400   -1.0570 C   0  0  0  0  0  0  0  0  0  0  0  0
    2.4790    3.2700   -0.5660 C   0  0  0  0  0  0  0  0  0  0  0  0
   -0.2180    0.7000    0.6910 C   0  0  0  0  0  0  0  0  0  0  0  0
   -0.7260    1.8000    0.3620 O   0  0  0  0  0  0  0  0  0  0  0  0
    1.2460   -1.6970    0.5850 H   0  0  0  0  0  0  0  0  0  0  0  0
    1.6230    1.1320    1.5980 H   0  0  0  0  0  0  0  0  0  0  0  0
    1.7330    0.0280   -1.2300 H   0  0  0  0  0  0  0  0  0  0  0  0
    3.0900    0.6770   -0.2940 H   0  0  0  0  0  0  0  0  0  0  0  0
    0.1330    1.5420   -2.2390 H   0  0  0  0  0  0  0  0  0  0  0  0
   -0.3320    3.7330   -3.1130 H   0  0  0  0  0  0  0  0  0  0  0  0
    0.9740    5.6680   -2.3900 H   0  0  0  0  0  0  0  0  0  0  0  0
    2.7800    5.4150   -0.7630 H   0  0  0  0  0  0  0  0  0  0  0  0
    3.2790    3.1670    0.1520 H   0  0  0  0  0  0  0  0  0  0  0  0
   -1.1700   -0.3490    0.9710 N   0  0  0  0  0  0  0  0  0  0  0  0
   -2.5790   -0.1530    0.8800 C   0  0  1  0  0  0  0  0  0  0  0  0
   -3.2210   -0.9830   -0.2150 C   0  0  0  0  0  0  0  0  0  0  0  0
   -3.0160   -2.4360   -0.0050 C   0  0  0  0  0  0  0  0  0  0  0  0
   -1.9030   -3.0450   -0.5470 C   0  0  0  0  0  0  0  0  0  0  0  0
   -1.7100   -4.4040   -0.3520 C   0  0  0  0  0  0  0  0  0  0  0  0
   -2.5880   -5.1890    0.3660 C   0  0  0  0  0  0  0  0  0  0  0  0
   -3.6960   -4.5680    0.9020 C   0  0  0  0  0  0  0  0  0  0  0  0
   -3.8970   -3.2170    0.7140 C   0  0  0  0  0  0  0  0  0  0  0  0
   -3.2860   -0.3150    2.1670 C   0  0  0  0  0  0  0  0  0  0  0  0
   -2.6100   -0.6000    3.1850 O   0  0  0  0  0  0  0  0  0  0  0  0
   -4.6510   -0.1780    2.3460 O   0  0  0  0  0  0  0  0  0  0  0  0
   -0.7740   -1.2950    1.2530 H   0  0  0  0  0  0  0  0  0  0  0  0
   -2.7410    0.9180    0.5700 H   0  0  0  0  0  0  0  0  0  0  0  0
   -4.3160   -0.8150   -0.2670 H   0  0  0  0  0  0  0  0  0  0  0  0
   -2.8050   -0.6620   -1.1930 H   0  0  0  0  0  0  0  0  0  0  0  0
   -1.1710   -2.4720   -1.1280 H   0  0  0  0  0  0  0  0  0  0  0  0
   -0.8220   -4.8320   -0.7980 H   0  0  0  0  0  0  0  0  0  0  0  0
   -2.3930   -6.2550    0.4920 H   0  0  0  0  0  0  0  0  0  0  0  0
   -4.3840   -5.1820    1.4650 H   0  0  0  0  0  0  0  0  0  0  0  0
   -4.7900   -2.7610    1.1570 H   0  0  0  0  0  0  0  0  0  0  0  0
  1  6  1  0  0  0  0
  2  1  1  0  0  0  0
  2  9  1  1  0  0  0
  3  2  1  0  0  0  0
  4  2  1  0  0  0  0
  4  5  2  0  0  0  0
  7  1  1  0  0  0  0
  8  1  1  0  0  0  0
 10  3  1  0  0  0  0
 11  3  1  0  0  0  0
 12  4  1  0  0  0  0
 13 12  1  0  0  0  0
 13 24  1  1  0  0  0
 14 26  1  0  0  0  0
 14 13  1  0  0  0  0
 15 20  1  0  0  0  0
 15 14  1  0  0  0  0
 16 15  2  0  0  0  0
 17 18  2  0  0  0  0
 17 16  1  0  0  0  0
 18 19  1  0  0  0  0
 19 30  1  0  0  0  0
 19 20  2  0  0  0  0
 20 31  1  0  0  0  0
 21 13  1  0  0  0  0
 21 32  1  0  0  0  0
 22 21  2  0  0  0  0
 23 12  1  0  0  0  0
 25 14  1  0  0  0  0
 27 16  1  0  0  0  0
 28 17  1  0  0  0  0
 29 18  1  0  0  0  0
 32 44  1  0  0  0  0
 33 45  1  6  0  0  0
 33 32  1  0  0  0  0
 33 41  1  0  0  0  0
 34 35  1  0  0  0  0
 34 33  1  0  0  0  0
 35 40  1  0  0  0  0
 36 37  1  0  0  0  0
 36 35  2  0  0  0  0
 37 38  2  0  0  0  0
 38 50  1  0  0  0  0
 38 39  1  0  0  0  0
 39 51  1  0  0  0  0
 40 39  2  0  0  0  0
 40 52  1  0  0  0  0
 41 43  2  0  0  0  0
 41 42  1  0  0  0  0
 46 34  1  0  0  0  0
 47 34  1  0  0  0  0
 48 36  1  0  0  0  0
 49 37  1  0  0  0  0
M  END
$$$$
