AFG.pdb
 OpenBabel07022418023D

 39 39  0  0  1  0  0  0  0  0999 V2000
    1.6560   -5.0410    1.9800 C   0  0  0  0  0  0  0  0  0  0  0  0
    0.7570   -3.9920    2.5910 C   0  0  2  0  0  0  0  0  0  0  0  0
   -0.5850   -4.2370    2.0990 N   0  0  0  0  0  0  0  0  0  0  0  0
    1.2350   -2.6660    2.1590 C   0  0  0  0  0  0  0  0  0  0  0  0
    2.3690   -2.2370    2.4660 O   0  0  0  0  0  0  0  0  0  0  0  0
    2.6030   -5.1680    2.5250 H   0  0  0  0  0  0  0  0  0  0  0  0
    1.8620   -4.7020    0.9310 H   0  0  0  0  0  0  0  0  0  0  0  0
    1.0780   -5.9990    1.9680 H   0  0  0  0  0  0  0  0  0  0  0  0
    0.7980   -4.0250    3.6990 H   0  0  0  0  0  0  0  0  0  0  0  0
   -1.1820   -4.7580    2.7500 H   0  0  0  0  0  0  0  0  0  0  0  0
   -0.5370   -4.6340    1.1380 H   0  0  0  0  0  0  0  0  0  0  0  0
    0.3890   -1.8490    1.3710 N   0  0  0  0  0  0  0  0  0  0  0  0
    0.8060   -0.5180    0.9090 C   0  0  1  0  0  0  0  0  0  0  0  0
    0.8130   -0.5630   -0.5770 C   0  0  0  0  0  0  0  0  0  0  0  0
    1.2120    0.6970   -1.2430 C   0  0  0  0  0  0  0  0  0  0  0  0
    0.2990    1.6580   -1.6160 C   0  0  0  0  0  0  0  0  0  0  0  0
    0.6560    2.8310   -2.2300 C   0  0  0  0  0  0  0  0  0  0  0  0
    1.9910    3.0770   -2.4930 C   0  0  0  0  0  0  0  0  0  0  0  0
    2.9110    2.1180   -2.1210 C   0  0  0  0  0  0  0  0  0  0  0  0
    2.5420    0.9440   -1.5060 C   0  0  0  0  0  0  0  0  0  0  0  0
   -0.1330    0.4840    1.4530 C   0  0  0  0  0  0  0  0  0  0  0  0
    0.0050    1.7030    1.1950 O   0  0  0  0  0  0  0  0  0  0  0  0
   -0.5620   -2.1510    1.0850 H   0  0  0  0  0  0  0  0  0  0  0  0
    1.8550   -0.3460    1.2910 H   0  0  0  0  0  0  0  0  0  0  0  0
   -0.1650   -0.8710   -0.9990 H   0  0  0  0  0  0  0  0  0  0  0  0
    1.5330   -1.3570   -0.9160 H   0  0  0  0  0  0  0  0  0  0  0  0
   -0.7430    1.4980   -1.4310 H   0  0  0  0  0  0  0  0  0  0  0  0
   -0.0760    3.5770   -2.5180 H   0  0  0  0  0  0  0  0  0  0  0  0
    2.2980    4.0130   -2.9850 H   0  0  0  0  0  0  0  0  0  0  0  0
    3.9550    2.3270   -2.3360 H   0  0  0  0  0  0  0  0  0  0  0  0
    3.3000    0.2090   -1.2270 H   0  0  0  0  0  0  0  0  0  0  0  0
   -1.2280    0.1180    2.2880 N   0  0  0  0  0  0  0  0  0  0  0  0
   -2.1680    1.0680    2.8410 C   0  0  0  0  0  0  0  0  0  0  0  0
   -2.8840    1.8180    1.7750 C   0  0  0  0  0  0  0  0  0  0  0  0
   -2.6020    1.5420    0.5810 O   0  0  0  0  0  0  0  0  0  0  0  0
   -3.8220    2.7790    2.0310 O   0  0  0  0  0  0  0  0  0  0  0  0
   -1.3300   -0.8990    2.4930 H   0  0  0  0  0  0  0  0  0  0  0  0
   -1.6910    1.7510    3.5750 H   0  0  0  0  0  0  0  0  0  0  0  0
   -2.9400    0.5080    3.4000 H   0  0  0  0  0  0  0  0  0  0  0  0
  1  6  1  0  0  0  0
  1  2  1  0  0  0  0
  2  9  1  1  0  0  0
  3  2  1  0  0  0  0
  3 10  1  0  0  0  0
  4  5  2  0  0  0  0
  4  2  1  0  0  0  0
  7  1  1  0  0  0  0
  8  1  1  0  0  0  0
 11  3  1  0  0  0  0
 12  4  1  0  0  0  0
 13 24  1  1  0  0  0
 13 12  1  0  0  0  0
 13 21  1  0  0  0  0
 14 13  1  0  0  0  0
 15 14  1  0  0  0  0
 16 27  1  0  0  0  0
 16 15  2  0  0  0  0
 17 16  1  0  0  0  0
 18 17  2  0  0  0  0
 18 19  1  0  0  0  0
 19 20  2  0  0  0  0
 20 15  1  0  0  0  0
 20 31  1  0  0  0  0
 21 32  1  0  0  0  0
 22 21  2  0  0  0  0
 23 12  1  0  0  0  0
 25 14  1  0  0  0  0
 26 14  1  0  0  0  0
 28 17  1  0  0  0  0
 29 18  1  0  0  0  0
 30 19  1  0  0  0  0
 32 37  1  0  0  0  0
 32 33  1  0  0  0  0
 33 39  1  0  0  0  0
 33 38  1  0  0  0  0
 34 36  1  0  0  0  0
 34 33  1  0  0  0  0
 35 34  2  0  0  0  0
M  END
$$$$
