AFI.pdb
 OpenBabel07022418023D

 51 51  0  0  1  0  0  0  0  0999 V2000
    3.1100   -3.7370    2.5220 C   0  0  0  0  0  0  0  0  0  0  0  0
    2.9220   -2.3870    3.1710 C   0  0  2  0  0  0  0  0  0  0  0  0
    2.7280   -2.5910    4.5920 N   0  0  0  0  0  0  0  0  0  0  0  0
    1.7940   -1.6340    2.6330 C   0  0  0  0  0  0  0  0  0  0  0  0
    0.8610   -1.2780    3.3940 O   0  0  0  0  0  0  0  0  0  0  0  0
    2.1150   -4.1980    2.2970 H   0  0  0  0  0  0  0  0  0  0  0  0
    3.7590   -3.6990    1.6340 H   0  0  0  0  0  0  0  0  0  0  0  0
    3.5950   -4.3970    3.2720 H   0  0  0  0  0  0  0  0  0  0  0  0
    3.8780   -1.8250    3.0550 H   0  0  0  0  0  0  0  0  0  0  0  0
    2.4800   -3.5680    4.8340 H   0  0  0  0  0  0  0  0  0  0  0  0
    2.0690   -1.8810    5.0050 H   0  0  0  0  0  0  0  0  0  0  0  0
    1.6630   -1.2580    1.2630 N   0  0  0  0  0  0  0  0  0  0  0  0
    0.5250   -0.5070    0.7550 C   0  0  1  0  0  0  0  0  0  0  0  0
    0.9870    0.8520    0.2150 C   0  0  0  0  0  0  0  0  0  0  0  0
    1.6310    1.6590    1.2440 C   0  0  0  0  0  0  0  0  0  0  0  0
    2.9890    1.5710    1.4450 C   0  0  0  0  0  0  0  0  0  0  0  0
    3.6290    2.3310    2.4220 C   0  0  0  0  0  0  0  0  0  0  0  0
    2.8890    3.1860    3.2000 C   0  0  0  0  0  0  0  0  0  0  0  0
    1.5290    3.2930    3.0190 C   0  0  0  0  0  0  0  0  0  0  0  0
    0.9040    2.5200    2.0320 C   0  0  0  0  0  0  0  0  0  0  0  0
   -0.0840   -1.2420   -0.3820 C   0  0  0  0  0  0  0  0  0  0  0  0
    0.3750   -2.3430   -0.7870 O   0  0  0  0  0  0  0  0  0  0  0  0
    2.4300   -1.5490    0.6260 H   0  0  0  0  0  0  0  0  0  0  0  0
   -0.2000   -0.2760    1.5550 H   0  0  0  0  0  0  0  0  0  0  0  0
    0.0880    1.3250   -0.2290 H   0  0  0  0  0  0  0  0  0  0  0  0
    1.6670    0.6470   -0.6640 H   0  0  0  0  0  0  0  0  0  0  0  0
    3.5930    0.9180    0.8590 H   0  0  0  0  0  0  0  0  0  0  0  0
    4.6970    2.2180    2.5320 H   0  0  0  0  0  0  0  0  0  0  0  0
    3.3940    3.7820    3.9670 H   0  0  0  0  0  0  0  0  0  0  0  0
    0.9780    3.9740    3.6480 H   0  0  0  0  0  0  0  0  0  0  0  0
   -0.1630    2.6520    1.9420 H   0  0  0  0  0  0  0  0  0  0  0  0
   -4.1060   -0.3240   -0.1420 C   0  0  0  0  0  0  0  0  0  0  0  0
   -4.2570   -0.9550   -1.4910 C   0  0  0  0  0  0  0  0  0  0  0  0
   -3.2090   -1.9300   -1.8790 C   0  0  2  0  0  0  0  0  0  0  0  0
   -3.1720   -3.0650   -0.8710 C   0  0  0  0  0  0  0  0  0  0  0  0
   -1.8510   -1.3950   -2.1700 C   0  0  2  0  0  0  0  0  0  0  0  0
   -1.2380   -0.7020   -1.0610 N   0  0  0  0  0  0  0  0  0  0  0  0
   -1.8100   -0.5480   -3.3750 C   0  0  0  0  0  0  0  0  0  0  0  0
   -1.3020    0.5760   -3.3330 O   0  0  0  0  0  0  0  0  0  0  0  0
   -2.3470   -1.0240   -4.5530 O   0  0  0  0  0  0  0  0  0  0  0  0
   -3.3380   -0.8410    0.4570 H   0  0  0  0  0  0  0  0  0  0  0  0
   -3.8100    0.7520   -0.2170 H   0  0  0  0  0  0  0  0  0  0  0  0
   -5.0600   -0.3840    0.4570 H   0  0  0  0  0  0  0  0  0  0  0  0
   -4.3850   -0.1440   -2.2420 H   0  0  0  0  0  0  0  0  0  0  0  0
   -5.2430   -1.5100   -1.4780 H   0  0  0  0  0  0  0  0  0  0  0  0
   -3.5710   -2.4030   -2.8570 H   0  0  0  0  0  0  0  0  0  0  0  0
   -4.1750   -3.2730   -0.4840 H   0  0  0  0  0  0  0  0  0  0  0  0
   -2.7880   -4.0060   -1.3540 H   0  0  0  0  0  0  0  0  0  0  0  0
   -2.4370   -2.7850   -0.0920 H   0  0  0  0  0  0  0  0  0  0  0  0
   -1.1820   -2.2860   -2.4000 H   0  0  0  0  0  0  0  0  0  0  0  0
   -1.5590    0.2140   -0.6840 H   0  0  0  0  0  0  0  0  0  0  0  0
  1  2  1  0  0  0  0
  1  8  1  0  0  0  0
  2  9  1  6  0  0  0
  2  3  1  0  0  0  0
  3 10  1  0  0  0  0
  3 11  1  0  0  0  0
  4  2  1  0  0  0  0
  4  5  2  0  0  0  0
  6  1  1  0  0  0  0
  7  1  1  0  0  0  0
 12  4  1  0  0  0  0
 13 12  1  0  0  0  0
 13 24  1  1  0  0  0
 14 13  1  0  0  0  0
 14 15  1  0  0  0  0
 15 16  2  0  0  0  0
 15 20  1  0  0  0  0
 16 17  1  0  0  0  0
 17 28  1  0  0  0  0
 17 18  2  0  0  0  0
 18 29  1  0  0  0  0
 19 18  1  0  0  0  0
 19 30  1  0  0  0  0
 20 19  2  0  0  0  0
 21 13  1  0  0  0  0
 22 21  2  0  0  0  0
 23 12  1  0  0  0  0
 25 14  1  0  0  0  0
 26 14  1  0  0  0  0
 27 16  1  0  0  0  0
 31 20  1  0  0  0  0
 32 43  1  0  0  0  0
 32 41  1  0  0  0  0
 33 45  1  0  0  0  0
 33 32  1  0  0  0  0
 34 46  1  6  0  0  0
 34 33  1  0  0  0  0
 34 35  1  0  0  0  0
 35 47  1  0  0  0  0
 35 49  1  0  0  0  0
 36 50  1  6  0  0  0
 36 34  1  0  0  0  0
 36 37  1  0  0  0  0
 37 51  1  0  0  0  0
 37 21  1  0  0  0  0
 38 39  1  0  0  0  0
 38 36  1  0  0  0  0
 40 38  2  0  0  0  0
 42 32  1  0  0  0  0
 44 33  1  0  0  0  0
 48 35  1  0  0  0  0
M  END
$$$$
