AFL.pdb
 OpenBabel07022418023D

 51 51  0  0  1  0  0  0  0  0999 V2000
    3.1980   -3.8620    2.1710 C   0  0  0  0  0  0  0  0  0  0  0  0
    3.1590   -2.5190    2.8520 C   0  0  2  0  0  0  0  0  0  0  0  0
    3.0920   -2.7400    4.2800 N   0  0  0  0  0  0  0  0  0  0  0  0
    2.0240   -1.6870    2.4530 C   0  0  0  0  0  0  0  0  0  0  0  0
    1.2030   -1.3000    3.3180 O   0  0  0  0  0  0  0  0  0  0  0  0
    2.1890   -4.2740    1.9620 H   0  0  0  0  0  0  0  0  0  0  0  0
    3.8340   -3.8430    1.2560 H   0  0  0  0  0  0  0  0  0  0  0  0
    3.6920   -4.5730    2.8660 H   0  0  0  0  0  0  0  0  0  0  0  0
    4.1160   -1.9920    2.6210 H   0  0  0  0  0  0  0  0  0  0  0  0
    2.1680   -3.0270    4.6130 H   0  0  0  0  0  0  0  0  0  0  0  0
    3.8940   -3.2680    4.6570 H   0  0  0  0  0  0  0  0  0  0  0  0
    1.7680   -1.2680    1.1110 N   0  0  0  0  0  0  0  0  0  0  0  0
    0.6620   -0.4550    0.7080 C   0  0  1  0  0  0  0  0  0  0  0  0
    1.1140    0.8500    0.0520 C   0  0  0  0  0  0  0  0  0  0  0  0
    1.9340    1.6610    0.9750 C   0  0  0  0  0  0  0  0  0  0  0  0
    3.2980    1.4660    0.9750 C   0  0  0  0  0  0  0  0  0  0  0  0
    4.1080    2.1990    1.8200 C   0  0  0  0  0  0  0  0  0  0  0  0
    3.5730    3.1280    2.6670 C   0  0  0  0  0  0  0  0  0  0  0  0
    2.2100    3.3490    2.6930 C   0  0  0  0  0  0  0  0  0  0  0  0
    1.4220    2.6040    1.8400 C   0  0  0  0  0  0  0  0  0  0  0  0
   -0.0980   -1.1910   -0.3540 C   0  0  0  0  0  0  0  0  0  0  0  0
    0.2660   -2.3250   -0.7460 O   0  0  0  0  0  0  0  0  0  0  0  0
    2.4570   -1.5970    0.4010 H   0  0  0  0  0  0  0  0  0  0  0  0
   -0.0040   -0.1620    1.5320 H   0  0  0  0  0  0  0  0  0  0  0  0
    0.1840    1.4160   -0.1680 H   0  0  0  0  0  0  0  0  0  0  0  0
    1.6020    0.6590   -0.9200 H   0  0  0  0  0  0  0  0  0  0  0  0
    3.7320    0.7450    0.3200 H   0  0  0  0  0  0  0  0  0  0  0  0
    5.1880    2.0170    1.7920 H   0  0  0  0  0  0  0  0  0  0  0  0
    4.2340    3.6850    3.3150 H   0  0  0  0  0  0  0  0  0  0  0  0
    1.7930    4.0860    3.3680 H   0  0  0  0  0  0  0  0  0  0  0  0
    0.3440    2.7700    1.8520 H   0  0  0  0  0  0  0  0  0  0  0  0
   -3.7540   -0.4790    0.4130 C   0  0  0  0  0  0  0  0  0  0  0  0
   -4.2300   -1.2090   -0.7910 C   0  0  0  0  0  0  0  0  0  0  0  0
   -5.3860   -2.1290   -0.3530 C   0  0  0  0  0  0  0  0  0  0  0  0
   -3.1800   -2.0240   -1.4320 C   0  0  0  0  0  0  0  0  0  0  0  0
   -1.9910   -1.3160   -1.9640 C   0  0  2  0  0  0  0  0  0  0  0  0
   -1.2750   -0.6010   -0.9510 N   0  0  0  0  0  0  0  0  0  0  0  0
   -2.3690   -0.4450   -3.1080 C   0  0  0  0  0  0  0  0  0  0  0  0
   -2.0920    0.7720   -3.1740 O   0  0  0  0  0  0  0  0  0  0  0  0
   -3.0680   -1.0180   -4.1580 O   0  0  0  0  0  0  0  0  0  0  0  0
   -2.8220   -0.8980    0.8290 H   0  0  0  0  0  0  0  0  0  0  0  0
   -3.6560    0.6080    0.2220 H   0  0  0  0  0  0  0  0  0  0  0  0
   -4.5450   -0.5390    1.2290 H   0  0  0  0  0  0  0  0  0  0  0  0
   -4.6740   -0.5140   -1.5510 H   0  0  0  0  0  0  0  0  0  0  0  0
   -4.9500   -3.0630    0.0240 H   0  0  0  0  0  0  0  0  0  0  0  0
   -6.0610   -2.2910   -1.2090 H   0  0  0  0  0  0  0  0  0  0  0  0
   -5.9610   -1.5730    0.4290 H   0  0  0  0  0  0  0  0  0  0  0  0
   -2.8380   -2.8500   -0.7420 H   0  0  0  0  0  0  0  0  0  0  0  0
   -3.6330   -2.5910   -2.3050 H   0  0  0  0  0  0  0  0  0  0  0  0
   -1.3010   -2.1370   -2.3390 H   0  0  0  0  0  0  0  0  0  0  0  0
   -1.5180    0.3620   -0.6050 H   0  0  0  0  0  0  0  0  0  0  0  0
  1  2  1  0  0  0  0
  1  8  1  0  0  0  0
  2  9  1  6  0  0  0
  2  3  1  0  0  0  0
  3 10  1  0  0  0  0
  3 11  1  0  0  0  0
  4  2  1  0  0  0  0
  4  5  2  0  0  0  0
  6  1  1  0  0  0  0
  7  1  1  0  0  0  0
 12  4  1  0  0  0  0
 13 12  1  0  0  0  0
 13 24  1  1  0  0  0
 14 13  1  0  0  0  0
 14 15  1  0  0  0  0
 15 20  1  0  0  0  0
 16 15  2  0  0  0  0
 16 17  1  0  0  0  0
 17 18  2  0  0  0  0
 18 19  1  0  0  0  0
 18 29  1  0  0  0  0
 19 30  1  0  0  0  0
 20 31  1  0  0  0  0
 20 19  2  0  0  0  0
 21 13  1  0  0  0  0
 22 21  2  0  0  0  0
 23 12  1  0  0  0  0
 25 14  1  0  0  0  0
 26 14  1  0  0  0  0
 27 16  1  0  0  0  0
 28 17  1  0  0  0  0
 32 41  1  0  0  0  0
 32 43  1  0  0  0  0
 33 34  1  0  0  0  0
 33 32  1  0  0  0  0
 34 45  1  0  0  0  0
 34 47  1  0  0  0  0
 35 33  1  0  0  0  0
 35 48  1  0  0  0  0
 36 50  1  6  0  0  0
 36 35  1  0  0  0  0
 36 37  1  0  0  0  0
 37 51  1  0  0  0  0
 37 21  1  0  0  0  0
 38 36  1  0  0  0  0
 39 38  1  0  0  0  0
 40 38  2  0  0  0  0
 42 32  1  0  0  0  0
 44 33  1  0  0  0  0
 46 34  1  0  0  0  0
 49 35  1  0  0  0  0
M  END
$$$$
