AFM.pdb
 OpenBabel07022418023D

 49 49  0  0  1  0  0  0  0  0999 V2000
    2.4040   -4.0940    2.1940 C   0  0  0  0  0  0  0  0  0  0  0  0
    2.5680   -2.7600    2.8750 C   0  0  2  0  0  0  0  0  0  0  0  0
    2.4060   -2.8710    4.2940 N   0  0  0  0  0  0  0  0  0  0  0  0
    1.6290   -1.7430    2.3600 C   0  0  0  0  0  0  0  0  0  0  0  0
    0.8680   -1.1490    3.1480 O   0  0  0  0  0  0  0  0  0  0  0  0
    1.5070   -4.1310    1.5360 H   0  0  0  0  0  0  0  0  0  0  0  0
    3.2890   -4.3960    1.6220 H   0  0  0  0  0  0  0  0  0  0  0  0
    2.2450   -4.8560    2.9840 H   0  0  0  0  0  0  0  0  0  0  0  0
    3.6110   -2.4320    2.6820 H   0  0  0  0  0  0  0  0  0  0  0  0
    1.4330   -2.6750    4.6190 H   0  0  0  0  0  0  0  0  0  0  0  0
    2.7870   -3.7580    4.6930 H   0  0  0  0  0  0  0  0  0  0  0  0
    1.5350   -1.3900    0.9850 N   0  0  0  0  0  0  0  0  0  0  0  0
    0.6180   -0.3950    0.4640 C   0  0  1  0  0  0  0  0  0  0  0  0
    1.3810    0.7720   -0.1650 C   0  0  0  0  0  0  0  0  0  0  0  0
    2.2250    1.3680    0.9030 C   0  0  0  0  0  0  0  0  0  0  0  0
    3.4910    0.8960    1.0900 C   0  0  0  0  0  0  0  0  0  0  0  0
    4.2930    1.4320    2.0740 C   0  0  0  0  0  0  0  0  0  0  0  0
    3.8250    2.4630    2.8910 C   0  0  0  0  0  0  0  0  0  0  0  0
    2.5540    2.9400    2.7070 C   0  0  0  0  0  0  0  0  0  0  0  0
    1.7630    2.3940    1.7190 C   0  0  0  0  0  0  0  0  0  0  0  0
   -0.2320   -1.0730   -0.5550 C   0  0  0  0  0  0  0  0  0  0  0  0
   -0.0910   -2.3080   -0.8380 O   0  0  0  0  0  0  0  0  0  0  0  0
    2.1670   -1.8840    0.3250 H   0  0  0  0  0  0  0  0  0  0  0  0
    0.0020    0.0590    1.2730 H   0  0  0  0  0  0  0  0  0  0  0  0
    1.9700    0.4590   -1.0320 H   0  0  0  0  0  0  0  0  0  0  0  0
    0.6030    1.5400   -0.4200 H   0  0  0  0  0  0  0  0  0  0  0  0
    3.8590    0.1000    0.4620 H   0  0  0  0  0  0  0  0  0  0  0  0
    5.2830    1.0220    2.1770 H   0  0  0  0  0  0  0  0  0  0  0  0
    4.4770    2.8540    3.6440 H   0  0  0  0  0  0  0  0  0  0  0  0
    2.2230    3.7420    3.3600 H   0  0  0  0  0  0  0  0  0  0  0  0
    0.7730    2.7780    1.5890 H   0  0  0  0  0  0  0  0  0  0  0  0
   -5.6780   -0.0500    0.7700 C   0  0  0  0  0  0  0  0  0  0  0  0
   -5.1800   -1.7330    0.3210 S   0  0  0  0  0  0  0  0  0  0  0  0
   -3.5120   -1.7380   -0.4110 C   0  0  0  0  0  0  0  0  0  0  0  0
   -3.5070   -1.0130   -1.7350 C   0  0  0  0  0  0  0  0  0  0  0  0
   -2.0820   -1.0660   -2.2730 C   0  0  2  0  0  0  0  0  0  0  0  0
   -1.2520   -0.3970   -1.2750 N   0  0  0  0  0  0  0  0  0  0  0  0
   -1.9630   -0.4190   -3.5980 C   0  0  0  0  0  0  0  0  0  0  0  0
   -2.6440   -0.9210   -4.5330 O   0  0  0  0  0  0  0  0  0  0  0  0
   -1.1780    0.6700   -3.8790 O   0  0  0  0  0  0  0  0  0  0  0  0
   -4.8060    0.5460    1.1240 H   0  0  0  0  0  0  0  0  0  0  0  0
   -6.0700    0.4510   -0.1430 H   0  0  0  0  0  0  0  0  0  0  0  0
   -6.4570   -0.0550    1.5590 H   0  0  0  0  0  0  0  0  0  0  0  0
   -2.8510   -1.1680    0.2920 H   0  0  0  0  0  0  0  0  0  0  0  0
   -3.1210   -2.7650   -0.4650 H   0  0  0  0  0  0  0  0  0  0  0  0
   -4.2280   -1.4560   -2.4300 H   0  0  0  0  0  0  0  0  0  0  0  0
   -3.7380    0.0600   -1.5130 H   0  0  0  0  0  0  0  0  0  0  0  0
   -1.8210   -2.1200   -2.3880 H   0  0  0  0  0  0  0  0  0  0  0  0
   -1.4070    0.6150   -1.0790 H   0  0  0  0  0  0  0  0  0  0  0  0
  1  2  1  0  0  0  0
  1  8  1  0  0  0  0
  2  9  1  6  0  0  0
  2  3  1  0  0  0  0
  3 10  1  0  0  0  0
  3 11  1  0  0  0  0
  4  2  1  0  0  0  0
  4  5  2  0  0  0  0
  6  1  1  0  0  0  0
  7  1  1  0  0  0  0
 12  4  1  0  0  0  0
 13 12  1  0  0  0  0
 13 24  1  1  0  0  0
 14 13  1  0  0  0  0
 14 15  1  0  0  0  0
 15 16  2  0  0  0  0
 15 20  1  0  0  0  0
 16 17  1  0  0  0  0
 17 28  1  0  0  0  0
 17 18  2  0  0  0  0
 18 29  1  0  0  0  0
 19 18  1  0  0  0  0
 19 30  1  0  0  0  0
 20 19  2  0  0  0  0
 21 13  1  0  0  0  0
 22 21  2  0  0  0  0
 23 12  1  0  0  0  0
 25 14  1  0  0  0  0
 26 14  1  0  0  0  0
 27 16  1  0  0  0  0
 31 20  1  0  0  0  0
 32 41  1  0  0  0  0
 32 43  1  0  0  0  0
 33 32  1  0  0  0  0
 34 44  1  0  0  0  0
 34 33  1  0  0  0  0
 35 47  1  0  0  0  0
 35 34  1  0  0  0  0
 36 48  1  6  0  0  0
 36 35  1  0  0  0  0
 36 37  1  0  0  0  0
 37 49  1  0  0  0  0
 37 21  1  0  0  0  0
 38 36  1  0  0  0  0
 39 38  2  0  0  0  0
 40 38  1  0  0  0  0
 42 32  1  0  0  0  0
 45 34  1  0  0  0  0
 46 35  1  0  0  0  0
M  END
$$$$
