AFN.pdb
 OpenBabel07022418023D

 46 46  0  0  1  0  0  0  0  0999 V2000
    3.8930   -3.0540    0.0340 C   0  0  0  0  0  0  0  0  0  0  0  0
    3.3450   -3.3590    1.4130 C   0  0  2  0  0  0  0  0  0  0  0  0
    3.3970   -4.7740    1.6840 N   0  0  0  0  0  0  0  0  0  0  0  0
    1.9410   -2.9010    1.5040 C   0  0  0  0  0  0  0  0  0  0  0  0
    1.0360   -3.7270    1.7730 O   0  0  0  0  0  0  0  0  0  0  0  0
    4.2890   -3.9960   -0.3910 H   0  0  0  0  0  0  0  0  0  0  0  0
    3.0620   -2.7150   -0.6350 H   0  0  0  0  0  0  0  0  0  0  0  0
    4.6720   -2.2890    0.1150 H   0  0  0  0  0  0  0  0  0  0  0  0
    3.9580   -2.8160    2.1840 H   0  0  0  0  0  0  0  0  0  0  0  0
    2.4480   -5.1740    1.5900 H   0  0  0  0  0  0  0  0  0  0  0  0
    4.0680   -5.2790    1.0850 H   0  0  0  0  0  0  0  0  0  0  0  0
    1.5760   -1.5590    1.2980 N   0  0  0  0  0  0  0  0  0  0  0  0
    0.2270   -1.1170    1.3840 C   0  0  1  0  0  0  0  0  0  0  0  0
    0.0710   -0.1210    2.5210 C   0  0  0  0  0  0  0  0  0  0  0  0
    0.9570    1.0300    2.2960 C   0  0  0  0  0  0  0  0  0  0  0  0
    2.2280    0.9750    2.8230 C   0  0  0  0  0  0  0  0  0  0  0  0
    3.1090    2.0300    2.6410 C   0  0  0  0  0  0  0  0  0  0  0  0
    2.7460    3.1590    1.9340 C   0  0  0  0  0  0  0  0  0  0  0  0
    1.4720    3.2080    1.4100 C   0  0  0  0  0  0  0  0  0  0  0  0
    0.5850    2.1430    1.5940 C   0  0  0  0  0  0  0  0  0  0  0  0
   -0.3390   -0.5210    0.1600 C   0  0  0  0  0  0  0  0  0  0  0  0
    0.2960   -0.3050   -0.8970 O   0  0  0  0  0  0  0  0  0  0  0  0
    2.3210   -0.8660    1.0740 H   0  0  0  0  0  0  0  0  0  0  0  0
   -0.4170   -2.0080    1.6200 H   0  0  0  0  0  0  0  0  0  0  0  0
    0.3100   -0.6490    3.4880 H   0  0  0  0  0  0  0  0  0  0  0  0
   -0.9870    0.2010    2.6210 H   0  0  0  0  0  0  0  0  0  0  0  0
    2.5440    0.1120    3.3780 H   0  0  0  0  0  0  0  0  0  0  0  0
    4.1120    1.9470    3.0770 H   0  0  0  0  0  0  0  0  0  0  0  0
    3.4480    3.9910    1.7940 H   0  0  0  0  0  0  0  0  0  0  0  0
    1.1260    4.0690    0.8430 H   0  0  0  0  0  0  0  0  0  0  0  0
   -0.4140    2.1680    1.1880 H   0  0  0  0  0  0  0  0  0  0  0  0
   -4.4770   -2.0070    0.2630 N   0  0  0  0  0  0  0  0  0  0  0  0
   -4.4710   -0.7680   -0.4240 C   0  0  0  0  0  0  0  0  0  0  0  0
   -5.3350    0.1100   -0.1050 O   0  0  0  0  0  0  0  0  0  0  0  0
   -3.4790   -0.4940   -1.4960 C   0  0  0  0  0  0  0  0  0  0  0  0
   -2.4010    0.4150   -0.9280 C   0  0  2  0  0  0  0  0  0  0  0  0
   -1.7180   -0.1670    0.1820 N   0  0  0  0  0  0  0  0  0  0  0  0
   -3.1160    1.6290   -0.4920 C   0  0  0  0  0  0  0  0  0  0  0  0
   -3.0730    1.9620    0.7140 O   0  0  0  0  0  0  0  0  0  0  0  0
   -3.8460    2.4380   -1.3500 O   0  0  0  0  0  0  0  0  0  0  0  0
   -5.0290   -2.1420    1.1160 H   0  0  0  0  0  0  0  0  0  0  0  0
   -3.9110   -2.8050   -0.0960 H   0  0  0  0  0  0  0  0  0  0  0  0
   -4.0090    0.1030   -2.2750 H   0  0  0  0  0  0  0  0  0  0  0  0
   -3.0900   -1.3850   -1.9730 H   0  0  0  0  0  0  0  0  0  0  0  0
   -1.6500    0.6710   -1.7130 H   0  0  0  0  0  0  0  0  0  0  0  0
   -2.2970   -0.3340    1.0610 H   0  0  0  0  0  0  0  0  0  0  0  0
  1  8  1  0  0  0  0
  1  2  1  0  0  0  0
  2  4  1  0  0  0  0
  2  3  1  0  0  0  0
  2  9  1  1  0  0  0
  4  5  2  0  0  0  0
  6  1  1  0  0  0  0
  7  1  1  0  0  0  0
 10  3  1  0  0  0  0
 11  3  1  0  0  0  0
 12 13  1  0  0  0  0
 12  4  1  0  0  0  0
 13 24  1  1  0  0  0
 13 14  1  0  0  0  0
 14 26  1  0  0  0  0
 14 25  1  0  0  0  0
 15 14  1  0  0  0  0
 15 16  1  0  0  0  0
 16 27  1  0  0  0  0
 17 16  2  0  0  0  0
 17 28  1  0  0  0  0
 18 17  1  0  0  0  0
 19 20  1  0  0  0  0
 19 18  2  0  0  0  0
 20 15  2  0  0  0  0
 21 37  1  0  0  0  0
 21 13  1  0  0  0  0
 22 21  2  0  0  0  0
 23 12  1  0  0  0  0
 29 18  1  0  0  0  0
 30 19  1  0  0  0  0
 31 20  1  0  0  0  0
 32 41  1  0  0  0  0
 33 34  2  0  0  0  0
 33 32  1  0  0  0  0
 35 36  1  0  0  0  0
 35 33  1  0  0  0  0
 36 45  1  6  0  0  0
 36 38  1  0  0  0  0
 36 37  1  0  0  0  0
 37 46  1  0  0  0  0
 38 39  1  0  0  0  0
 40 38  2  0  0  0  0
 42 32  1  0  0  0  0
 43 35  1  0  0  0  0
 44 35  1  0  0  0  0
M  END
$$$$
