AFS.pdb
 OpenBabel07022418023D

 43 43  0  0  1  0  0  0  0  0999 V2000
   -2.7780   -3.2360    0.1990 C   0  0  0  0  0  0  0  0  0  0  0  0
   -1.5660   -3.6780   -0.5830 C   0  0  2  0  0  0  0  0  0  0  0  0
   -1.3640   -5.0710   -0.3500 N   0  0  0  0  0  0  0  0  0  0  0  0
   -0.3470   -2.9090   -0.2320 C   0  0  0  0  0  0  0  0  0  0  0  0
    0.6690   -3.5330    0.2070 O   0  0  0  0  0  0  0  0  0  0  0  0
   -2.6580   -2.1830    0.4890 H   0  0  0  0  0  0  0  0  0  0  0  0
   -2.7620   -3.8320    1.1550 H   0  0  0  0  0  0  0  0  0  0  0  0
   -3.7220   -3.4300   -0.3170 H   0  0  0  0  0  0  0  0  0  0  0  0
   -1.7090   -3.5380   -1.6890 H   0  0  0  0  0  0  0  0  0  0  0  0
   -0.5440   -5.3050    0.2310 H   0  0  0  0  0  0  0  0  0  0  0  0
   -2.2050   -5.6310   -0.1980 H   0  0  0  0  0  0  0  0  0  0  0  0
   -0.2430   -1.4990   -0.3570 N   0  0  0  0  0  0  0  0  0  0  0  0
    1.0000   -0.7860    0.0100 C   0  0  1  0  0  0  0  0  0  0  0  0
    1.6230   -0.1420   -1.1730 C   0  0  0  0  0  0  0  0  0  0  0  0
    2.8560    0.5560   -0.7610 C   0  0  0  0  0  0  0  0  0  0  0  0
    4.0460   -0.1640   -0.7100 C   0  0  0  0  0  0  0  0  0  0  0  0
    5.2420    0.4180   -0.3550 C   0  0  0  0  0  0  0  0  0  0  0  0
    5.3030    1.7520   -0.0360 C   0  0  0  0  0  0  0  0  0  0  0  0
    4.1390    2.4870   -0.0790 C   0  0  0  0  0  0  0  0  0  0  0  0
    2.9460    1.8920   -0.4360 C   0  0  0  0  0  0  0  0  0  0  0  0
    0.7060    0.1350    1.1290 C   0  0  0  0  0  0  0  0  0  0  0  0
    1.6150    0.8090    1.6510 O   0  0  0  0  0  0  0  0  0  0  0  0
   -1.0780   -0.9900   -0.7170 H   0  0  0  0  0  0  0  0  0  0  0  0
    1.7010   -1.5870    0.3530 H   0  0  0  0  0  0  0  0  0  0  0  0
    1.9100   -0.9500   -1.8860 H   0  0  0  0  0  0  0  0  0  0  0  0
    0.9400    0.5360   -1.7270 H   0  0  0  0  0  0  0  0  0  0  0  0
    4.0030   -1.2180   -0.9610 H   0  0  0  0  0  0  0  0  0  0  0  0
    6.1340   -0.1870   -0.3320 H   0  0  0  0  0  0  0  0  0  0  0  0
    6.2420    2.2430    0.2500 H   0  0  0  0  0  0  0  0  0  0  0  0
    4.1950    3.5480    0.1770 H   0  0  0  0  0  0  0  0  0  0  0  0
    2.0300    2.4800   -0.4710 H   0  0  0  0  0  0  0  0  0  0  0  0
   -2.3170    2.9780    3.3950 O   0  0  0  0  0  0  0  0  0  0  0  0
   -2.0060    2.1780    2.2980 C   0  0  0  0  0  0  0  0  0  0  0  0
   -0.9810    1.1510    2.7200 C   0  0  2  0  0  0  0  0  0  0  0  0
   -0.6040    0.2780    1.6340 N   0  0  0  0  0  0  0  0  0  0  0  0
   -1.5380    0.3490    3.8320 C   0  0  0  0  0  0  0  0  0  0  0  0
   -1.9390    0.8800    4.8970 O   0  0  0  0  0  0  0  0  0  0  0  0
   -1.6390   -1.0350    3.7440 O   0  0  0  0  0  0  0  0  0  0  0  0
   -1.5010    3.1080    3.9510 H   0  0  0  0  0  0  0  0  0  0  0  0
   -2.9360    1.7390    1.9170 H   0  0  0  0  0  0  0  0  0  0  0  0
   -1.5980    2.8540    1.5160 H   0  0  0  0  0  0  0  0  0  0  0  0
   -0.1180    1.7140    3.1300 H   0  0  0  0  0  0  0  0  0  0  0  0
   -1.3470   -0.2970    1.1800 H   0  0  0  0  0  0  0  0  0  0  0  0
  1  6  1  0  0  0  0
  1  7  1  0  0  0  0
  2  9  1  6  0  0  0
  2  3  1  0  0  0  0
  2  4  1  0  0  0  0
  2  1  1  0  0  0  0
  3 11  1  0  0  0  0
  3 10  1  0  0  0  0
  4  5  2  0  0  0  0
  8  1  1  0  0  0  0
 12  4  1  0  0  0  0
 12 13  1  0  0  0  0
 13 24  1  1  0  0  0
 13 21  1  0  0  0  0
 14 15  1  0  0  0  0
 14 13  1  0  0  0  0
 15 16  2  0  0  0  0
 15 20  1  0  0  0  0
 16 17  1  0  0  0  0
 17 28  1  0  0  0  0
 17 18  2  0  0  0  0
 18 29  1  0  0  0  0
 19 18  1  0  0  0  0
 19 30  1  0  0  0  0
 20 19  2  0  0  0  0
 21 35  1  0  0  0  0
 21 22  2  0  0  0  0
 23 12  1  0  0  0  0
 25 14  1  0  0  0  0
 26 14  1  0  0  0  0
 27 16  1  0  0  0  0
 31 20  1  0  0  0  0
 32 39  1  0  0  0  0
 33 34  1  0  0  0  0
 33 32  1  0  0  0  0
 34 42  1  1  0  0  0
 34 36  1  0  0  0  0
 35 34  1  0  0  0  0
 36 37  1  0  0  0  0
 38 36  2  0  0  0  0
 40 33  1  0  0  0  0
 41 33  1  0  0  0  0
 43 35  1  0  0  0  0
M  END
$$$$
