AFV.pdb
 OpenBabel07022418023D

 48 48  0  0  1  0  0  0  0  0999 V2000
    3.5930   -3.5250    1.9420 C   0  0  0  0  0  0  0  0  0  0  0  0
    3.0460   -2.9080    3.2260 C   0  0  2  0  0  0  0  0  0  0  0  0
    2.9640   -3.9840    4.1970 N   0  0  0  0  0  0  0  0  0  0  0  0
    1.6710   -2.3810    3.0290 C   0  0  0  0  0  0  0  0  0  0  0  0
    0.6800   -2.8510    3.6420 O   0  0  0  0  0  0  0  0  0  0  0  0
    4.2980   -4.3480    2.2260 H   0  0  0  0  0  0  0  0  0  0  0  0
    4.0650   -2.7820    1.2970 H   0  0  0  0  0  0  0  0  0  0  0  0
    2.7310   -4.0190    1.4470 H   0  0  0  0  0  0  0  0  0  0  0  0
    3.7410   -2.1080    3.5560 H   0  0  0  0  0  0  0  0  0  0  0  0
    2.8360   -3.5070    5.1350 H   0  0  0  0  0  0  0  0  0  0  0  0
    2.0370   -4.4680    4.0290 H   0  0  0  0  0  0  0  0  0  0  0  0
    1.4140   -1.3110    2.1300 N   0  0  0  0  0  0  0  0  0  0  0  0
    0.1090   -0.7510    1.8900 C   0  0  1  0  0  0  0  0  0  0  0  0
   -0.0330    0.6680    2.2930 C   0  0  0  0  0  0  0  0  0  0  0  0
    0.8810    1.6060    1.6250 C   0  0  0  0  0  0  0  0  0  0  0  0
    0.6560    2.2780    0.4690 C   0  0  0  0  0  0  0  0  0  0  0  0
    1.6160    3.1340   -0.0440 C   0  0  0  0  0  0  0  0  0  0  0  0
    2.8170    3.3220    0.6030 C   0  0  0  0  0  0  0  0  0  0  0  0
    3.0630    2.6480    1.7780 C   0  0  0  0  0  0  0  0  0  0  0  0
    2.1070    1.8140    2.2630 C   0  0  0  0  0  0  0  0  0  0  0  0
   -0.3290   -0.9850    0.5140 C   0  0  0  0  0  0  0  0  0  0  0  0
    0.4580   -1.5910   -0.2920 O   0  0  0  0  0  0  0  0  0  0  0  0
    2.2380   -0.9200    1.6190 H   0  0  0  0  0  0  0  0  0  0  0  0
   -0.5950   -1.3400    2.5520 H   0  0  0  0  0  0  0  0  0  0  0  0
   -1.0690    0.9910    2.0550 H   0  0  0  0  0  0  0  0  0  0  0  0
    0.0740    0.7690    3.3890 H   0  0  0  0  0  0  0  0  0  0  0  0
   -0.2790    2.1270   -0.0270 H   0  0  0  0  0  0  0  0  0  0  0  0
    1.4280    3.6700   -0.9730 H   0  0  0  0  0  0  0  0  0  0  0  0
    3.5660    4.0020    0.1840 H   0  0  0  0  0  0  0  0  0  0  0  0
    4.0140    2.7870    2.3040 H   0  0  0  0  0  0  0  0  0  0  0  0
    2.3460    1.2950    3.2050 H   0  0  0  0  0  0  0  0  0  0  0  0
   -4.2720   -1.3540   -0.7180 C   0  0  0  0  0  0  0  0  0  0  0  0
   -3.0580   -1.9090   -1.4230 C   0  0  0  0  0  0  0  0  0  0  0  0
   -3.4540   -2.2160   -2.8520 C   0  0  0  0  0  0  0  0  0  0  0  0
   -1.9090   -0.8890   -1.4310 C   0  0  2  0  0  0  0  0  0  0  0  0
   -1.5810   -0.5950   -0.0340 N   0  0  0  0  0  0  0  0  0  0  0  0
   -2.4580    0.3270   -2.0430 C   0  0  0  0  0  0  0  0  0  0  0  0
   -2.7970    0.3150   -3.2460 O   0  0  0  0  0  0  0  0  0  0  0  0
   -2.6030    1.4780   -1.3080 O   0  0  0  0  0  0  0  0  0  0  0  0
   -4.1720   -0.2730   -0.5020 H   0  0  0  0  0  0  0  0  0  0  0  0
   -4.3220   -1.8710    0.2790 H   0  0  0  0  0  0  0  0  0  0  0  0
   -5.2200   -1.5990   -1.2360 H   0  0  0  0  0  0  0  0  0  0  0  0
   -2.6450   -2.8130   -0.9090 H   0  0  0  0  0  0  0  0  0  0  0  0
   -2.6580   -1.9960   -3.5790 H   0  0  0  0  0  0  0  0  0  0  0  0
   -4.3930   -1.6530   -3.1230 H   0  0  0  0  0  0  0  0  0  0  0  0
   -3.7470   -3.2880   -2.8780 H   0  0  0  0  0  0  0  0  0  0  0  0
   -1.0700   -1.3560   -1.9540 H   0  0  0  0  0  0  0  0  0  0  0  0
   -2.2370   -0.1020    0.5970 H   0  0  0  0  0  0  0  0  0  0  0  0
  1  6  1  0  0  0  0
  1  2  1  0  0  0  0
  2  9  1  1  0  0  0
  2  3  1  0  0  0  0
  3 10  1  0  0  0  0
  4  2  1  0  0  0  0
  4  5  2  0  0  0  0
  7  1  1  0  0  0  0
  8  1  1  0  0  0  0
 11  3  1  0  0  0  0
 12  4  1  0  0  0  0
 13 12  1  0  0  0  0
 13 14  1  0  0  0  0
 13 24  1  1  0  0  0
 14 26  1  0  0  0  0
 15 20  1  0  0  0  0
 15 14  1  0  0  0  0
 16 15  2  0  0  0  0
 17 16  1  0  0  0  0
 17 18  2  0  0  0  0
 18 19  1  0  0  0  0
 19 20  2  0  0  0  0
 19 30  1  0  0  0  0
 20 31  1  0  0  0  0
 21 13  1  0  0  0  0
 22 21  2  0  0  0  0
 23 12  1  0  0  0  0
 25 14  1  0  0  0  0
 27 16  1  0  0  0  0
 28 17  1  0  0  0  0
 29 18  1  0  0  0  0
 32 40  1  0  0  0  0
 32 41  1  0  0  0  0
 33 43  1  0  0  0  0
 33 32  1  0  0  0  0
 34 33  1  0  0  0  0
 35 47  1  6  0  0  0
 35 33  1  0  0  0  0
 35 36  1  0  0  0  0
 36 21  1  0  0  0  0
 36 48  1  0  0  0  0
 37 35  1  0  0  0  0
 37 39  1  0  0  0  0
 38 37  2  0  0  0  0
 42 32  1  0  0  0  0
 44 34  1  0  0  0  0
 45 34  1  0  0  0  0
 46 34  1  0  0  0  0
M  END
$$$$
