AGC.pdb
 OpenBabel07022418003D

 30 29  0  0  1  0  0  0  0  0999 V2000
   -1.8660   -4.2800    1.0070 C   0  0  0  0  0  0  0  0  0  0  0  0
   -1.5030   -3.5770    2.2830 C   0  0  2  0  0  0  0  0  0  0  0  0
   -2.6670   -3.0760    2.9740 N   0  0  0  0  0  0  0  0  0  0  0  0
   -0.5300   -2.4550    2.0370 C   0  0  0  0  0  0  0  0  0  0  0  0
   -0.8370   -1.3100    2.4380 O   0  0  0  0  0  0  0  0  0  0  0  0
   -2.8920   -3.9320    0.7050 H   0  0  0  0  0  0  0  0  0  0  0  0
   -1.8880   -5.3860    1.1930 H   0  0  0  0  0  0  0  0  0  0  0  0
   -1.1730   -4.0500    0.1770 H   0  0  0  0  0  0  0  0  0  0  0  0
   -0.9730   -4.2860    2.9800 H   0  0  0  0  0  0  0  0  0  0  0  0
   -2.6670   -3.2340    3.9850 H   0  0  0  0  0  0  0  0  0  0  0  0
   -2.8260   -2.0830    2.6940 H   0  0  0  0  0  0  0  0  0  0  0  0
    0.6920   -2.6530    1.3830 N   0  0  0  0  0  0  0  0  0  0  0  0
    1.5860   -1.5400    1.1730 C   0  0  0  0  0  0  0  0  0  0  0  0
    0.9360   -0.5040    0.3570 C   0  0  0  0  0  0  0  0  0  0  0  0
   -0.2420   -0.6960   -0.0390 O   0  0  0  0  0  0  0  0  0  0  0  0
    0.9410   -3.6100    1.0530 H   0  0  0  0  0  0  0  0  0  0  0  0
    1.9690   -1.1450    2.1370 H   0  0  0  0  0  0  0  0  0  0  0  0
    2.4950   -1.8760    0.5940 H   0  0  0  0  0  0  0  0  0  0  0  0
    1.5910    0.7160   -0.0050 N   0  0  0  0  0  0  0  0  0  0  0  0
    0.8860    1.6820   -0.8080 C   0  0  1  0  0  0  0  0  0  0  0  0
    0.7030    2.9770   -0.0410 C   0  0  0  0  0  0  0  0  0  0  0  0
   -0.2400    2.7270    1.4760 S   0  0  0  0  0  0  0  0  0  0  0  0
    1.6540    1.9920   -2.0490 C   0  0  0  0  0  0  0  0  0  0  0  0
    1.1930    2.8190   -2.8760 O   0  0  0  0  0  0  0  0  0  0  0  0
    2.8760    1.4070   -2.3500 O   0  0  0  0  0  0  0  0  0  0  0  0
    2.5570    0.8360    0.3400 H   0  0  0  0  0  0  0  0  0  0  0  0
   -0.1240    1.2990   -1.0340 H   0  0  0  0  0  0  0  0  0  0  0  0
    1.6900    3.4390    0.1710 H   0  0  0  0  0  0  0  0  0  0  0  0
    0.1360    3.6950   -0.6680 H   0  0  0  0  0  0  0  0  0  0  0  0
    0.0520    3.6600    2.4650 H   0  0  0  0  0  0  0  0  0  0  0  0
  1  7  1  0  0  0  0
  1  2  1  0  0  0  0
  2  3  1  0  0  0  0
  2  9  1  1  0  0  0
  3 10  1  0  0  0  0
  4  2  1  0  0  0  0
  4  5  2  0  0  0  0
  6  1  1  0  0  0  0
  8  1  1  0  0  0  0
 11  3  1  0  0  0  0
 12  4  1  0  0  0  0
 13 12  1  0  0  0  0
 13 17  1  0  0  0  0
 14 13  1  0  0  0  0
 15 14  2  0  0  0  0
 16 12  1  0  0  0  0
 18 13  1  0  0  0  0
 19 26  1  0  0  0  0
 19 14  1  0  0  0  0
 20 27  1  6  0  0  0
 20 21  1  0  0  0  0
 20 19  1  0  0  0  0
 21 28  1  0  0  0  0
 21 22  1  0  0  0  0
 22 30  1  0  0  0  0
 23 20  1  0  0  0  0
 24 23  2  0  0  0  0
 25 23  1  0  0  0  0
 29 21  1  0  0  0  0
M  END
$$$$
