AGD.pdb
 OpenBabel07022418003D

 32 31  0  0  1  0  0  0  0  0999 V2000
   -1.5220   -3.0390    2.4710 C   0  0  0  0  0  0  0  0  0  0  0  0
   -0.0070   -3.1900    2.5410 C   0  0  2  0  0  0  0  0  0  0  0  0
    0.4560   -2.5760    3.7660 N   0  0  0  0  0  0  0  0  0  0  0  0
    0.6340   -2.4560    1.3920 C   0  0  0  0  0  0  0  0  0  0  0  0
    1.4180   -1.4980    1.5960 O   0  0  0  0  0  0  0  0  0  0  0  0
   -1.8450   -3.2650    1.4360 H   0  0  0  0  0  0  0  0  0  0  0  0
   -1.9550   -3.7290    3.2090 H   0  0  0  0  0  0  0  0  0  0  0  0
   -1.7720   -1.9890    2.7500 H   0  0  0  0  0  0  0  0  0  0  0  0
    0.2470   -4.2710    2.5070 H   0  0  0  0  0  0  0  0  0  0  0  0
    0.0170   -3.0090    4.5910 H   0  0  0  0  0  0  0  0  0  0  0  0
    0.1440   -1.5730    3.7240 H   0  0  0  0  0  0  0  0  0  0  0  0
    0.3560   -2.8440    0.0570 N   0  0  0  0  0  0  0  0  0  0  0  0
    0.9620   -2.1330   -1.0350 C   0  0  0  0  0  0  0  0  0  0  0  0
    0.5940   -0.7160   -1.1500 C   0  0  0  0  0  0  0  0  0  0  0  0
    1.1360   -0.0280   -2.0900 O   0  0  0  0  0  0  0  0  0  0  0  0
   -0.3050   -3.6640   -0.1040 H   0  0  0  0  0  0  0  0  0  0  0  0
    0.6230   -2.6330   -1.9810 H   0  0  0  0  0  0  0  0  0  0  0  0
    2.0690   -2.2210   -0.9910 H   0  0  0  0  0  0  0  0  0  0  0  0
   -0.3130   -0.0090   -0.3250 N   0  0  0  0  0  0  0  0  0  0  0  0
   -0.5780    1.3820   -0.5630 C   0  0  1  0  0  0  0  0  0  0  0  0
    0.5580    2.3140   -0.3710 C   0  0  0  0  0  0  0  0  0  0  0  0
    1.1530    2.3540    0.9680 C   0  0  0  0  0  0  0  0  0  0  0  0
    2.0240    1.5060    1.2740 O   0  0  0  0  0  0  0  0  0  0  0  0
   -1.1200    1.5580   -1.9420 C   0  0  0  0  0  0  0  0  0  0  0  0
   -1.3980    2.7200   -2.3580 O   0  0  0  0  0  0  0  0  0  0  0  0
    0.7940    3.2920    1.9210 O   0  0  0  0  0  0  0  0  0  0  0  0
   -1.3250    0.4910   -2.7700 O   0  0  0  0  0  0  0  0  0  0  0  0
   -0.7920   -0.5420    0.4550 H   0  0  0  0  0  0  0  0  0  0  0  0
   -1.4030    1.6760    0.1340 H   0  0  0  0  0  0  0  0  0  0  0  0
    0.1710    3.3410   -0.6480 H   0  0  0  0  0  0  0  0  0  0  0  0
    1.3160    2.1070   -1.1720 H   0  0  0  0  0  0  0  0  0  0  0  0
    0.7620    3.0620    2.9230 H   0  0  0  0  0  0  0  0  0  0  0  0
  1  2  1  0  0  0  0
  1  8  1  0  0  0  0
  1  7  1  0  0  0  0
  2  9  1  6  0  0  0
  2  3  1  0  0  0  0
  3 10  1  0  0  0  0
  4  5  2  0  0  0  0
  4  2  1  0  0  0  0
  6  1  1  0  0  0  0
 11  3  1  0  0  0  0
 12  4  1  0  0  0  0
 13 18  1  0  0  0  0
 13 12  1  0  0  0  0
 14 13  1  0  0  0  0
 14 19  1  0  0  0  0
 15 14  2  0  0  0  0
 16 12  1  0  0  0  0
 17 13  1  0  0  0  0
 19 28  1  0  0  0  0
 20 21  1  0  0  0  0
 20 19  1  0  0  0  0
 20 29  1  1  0  0  0
 21 22  1  0  0  0  0
 22 23  2  0  0  0  0
 22 26  1  0  0  0  0
 24 20  1  0  0  0  0
 25 24  1  0  0  0  0
 26 32  1  0  0  0  0
 27 24  2  0  0  0  0
 30 21  1  0  0  0  0
 31 21  1  0  0  0  0
M  END
$$$$
