AGE.pdb
 OpenBabel07022418003D

 35 34  0  0  1  0  0  0  0  0999 V2000
    2.1750   -0.8300    4.4480 C   0  0  0  0  0  0  0  0  0  0  0  0
    1.0460   -0.6600    3.4360 C   0  0  2  0  0  0  0  0  0  0  0  0
   -0.1360   -1.3530    3.8950 N   0  0  0  0  0  0  0  0  0  0  0  0
    1.4540   -1.2370    2.1110 C   0  0  0  0  0  0  0  0  0  0  0  0
    2.4530   -0.6970    1.5520 O   0  0  0  0  0  0  0  0  0  0  0  0
    2.2590    0.0940    5.0580 H   0  0  0  0  0  0  0  0  0  0  0  0
    3.1000   -0.9830    3.8960 H   0  0  0  0  0  0  0  0  0  0  0  0
    1.9160   -1.7080    5.0710 H   0  0  0  0  0  0  0  0  0  0  0  0
    0.8180    0.4090    3.3380 H   0  0  0  0  0  0  0  0  0  0  0  0
    0.0910   -2.3450    4.1020 H   0  0  0  0  0  0  0  0  0  0  0  0
   -0.8950   -1.2600    3.1960 H   0  0  0  0  0  0  0  0  0  0  0  0
    0.7630   -2.3170    1.5240 N   0  0  0  0  0  0  0  0  0  0  0  0
    1.1850   -2.8190    0.2510 C   0  0  0  0  0  0  0  0  0  0  0  0
    1.0730   -1.8640   -0.8640 C   0  0  0  0  0  0  0  0  0  0  0  0
    1.4720   -2.2510   -1.9930 O   0  0  0  0  0  0  0  0  0  0  0  0
   -0.0450   -2.7170    2.0520 H   0  0  0  0  0  0  0  0  0  0  0  0
    0.6730   -3.7700   -0.0100 H   0  0  0  0  0  0  0  0  0  0  0  0
    2.2740   -3.0680    0.3390 H   0  0  0  0  0  0  0  0  0  0  0  0
    0.5580   -0.5670   -0.7740 N   0  0  0  0  0  0  0  0  0  0  0  0
    0.4380    0.3750   -1.8290 C   0  0  1  0  0  0  0  0  0  0  0  0
   -0.9060    0.4550   -2.4350 C   0  0  0  0  0  0  0  0  0  0  0  0
   -2.0900    0.7990   -1.6480 C   0  0  0  0  0  0  0  0  0  0  0  0
   -2.5120   -0.1450   -0.5890 C   0  0  0  0  0  0  0  0  0  0  0  0
   -2.0600   -1.3090   -0.4330 O   0  0  0  0  0  0  0  0  0  0  0  0
    1.1280    1.6550   -1.5980 C   0  0  0  0  0  0  0  0  0  0  0  0
    1.0930    2.5790   -2.4520 O   0  0  0  0  0  0  0  0  0  0  0  0
   -3.4920    0.2180    0.3560 O   0  0  0  0  0  0  0  0  0  0  0  0
    1.8600    1.9540   -0.4530 O   0  0  0  0  0  0  0  0  0  0  0  0
    0.2260   -0.2260    0.1860 H   0  0  0  0  0  0  0  0  0  0  0  0
    1.0720   -0.1080   -2.6680 H   0  0  0  0  0  0  0  0  0  0  0  0
   -0.8980    1.1240   -3.3610 H   0  0  0  0  0  0  0  0  0  0  0  0
   -1.1320   -0.5550   -2.9240 H   0  0  0  0  0  0  0  0  0  0  0  0
   -2.9740    0.7930   -2.3700 H   0  0  0  0  0  0  0  0  0  0  0  0
   -2.1240    1.8600   -1.2880 H   0  0  0  0  0  0  0  0  0  0  0  0
   -3.9100   -0.4980    0.9160 H   0  0  0  0  0  0  0  0  0  0  0  0
  1  6  1  0  0  0  0
  1  8  1  0  0  0  0
  2  9  1  6  0  0  0
  2  3  1  0  0  0  0
  2  1  1  0  0  0  0
  3 10  1  0  0  0  0
  4  2  1  0  0  0  0
  5  4  2  0  0  0  0
  7  1  1  0  0  0  0
 11  3  1  0  0  0  0
 12 16  1  0  0  0  0
 12  4  1  0  0  0  0
 13 18  1  0  0  0  0
 13 12  1  0  0  0  0
 14 19  1  0  0  0  0
 14 13  1  0  0  0  0
 15 14  2  0  0  0  0
 17 13  1  0  0  0  0
 19 29  1  0  0  0  0
 20 30  1  6  0  0  0
 20 25  1  0  0  0  0
 20 19  1  0  0  0  0
 21 20  1  0  0  0  0
 21 22  1  0  0  0  0
 22 34  1  0  0  0  0
 22 23  1  0  0  0  0
 23 24  2  0  0  0  0
 23 27  1  0  0  0  0
 25 28  1  0  0  0  0
 26 25  2  0  0  0  0
 27 35  1  0  0  0  0
 31 21  1  0  0  0  0
 32 21  1  0  0  0  0
 33 22  1  0  0  0  0
M  END
$$$$
