AGF.pdb
 OpenBabel07022418003D

 39 39  0  0  1  0  0  0  0  0999 V2000
   -0.4460   -4.5310    1.0370 C   0  0  0  0  0  0  0  0  0  0  0  0
    0.6780   -4.0550    1.9240 C   0  0  2  0  0  0  0  0  0  0  0  0
    0.1370   -3.7670    3.2380 N   0  0  0  0  0  0  0  0  0  0  0  0
    1.2430   -2.8280    1.3550 C   0  0  0  0  0  0  0  0  0  0  0  0
    1.2050   -1.7530    2.0010 O   0  0  0  0  0  0  0  0  0  0  0  0
   -0.0250   -5.3300    0.3900 H   0  0  0  0  0  0  0  0  0  0  0  0
   -0.8150   -3.6890    0.4520 H   0  0  0  0  0  0  0  0  0  0  0  0
   -1.2480   -4.9290    1.6730 H   0  0  0  0  0  0  0  0  0  0  0  0
    1.4950   -4.8100    1.9790 H   0  0  0  0  0  0  0  0  0  0  0  0
   -0.8690   -3.5280    3.1330 H   0  0  0  0  0  0  0  0  0  0  0  0
    0.6180   -2.9300    3.6280 H   0  0  0  0  0  0  0  0  0  0  0  0
    1.8410   -2.8390    0.0640 N   0  0  0  0  0  0  0  0  0  0  0  0
    2.4080   -1.7090   -0.5760 C   0  0  0  0  0  0  0  0  0  0  0  0
    1.5170   -0.5910   -0.8650 C   0  0  0  0  0  0  0  0  0  0  0  0
    2.0190    0.4230   -1.4080 O   0  0  0  0  0  0  0  0  0  0  0  0
    1.8520   -3.7670   -0.4330 H   0  0  0  0  0  0  0  0  0  0  0  0
    2.9080   -2.0280   -1.5380 H   0  0  0  0  0  0  0  0  0  0  0  0
    3.2470   -1.3050    0.0460 H   0  0  0  0  0  0  0  0  0  0  0  0
    0.1320   -0.5110   -0.6050 N   0  0  0  0  0  0  0  0  0  0  0  0
   -0.6690    0.6000   -0.8910 C   0  0  1  0  0  0  0  0  0  0  0  0
   -0.1510    1.9810   -0.6130 C   0  0  0  0  0  0  0  0  0  0  0  0
    0.1240    2.1680    0.8510 C   0  0  0  0  0  0  0  0  0  0  0  0
    1.3050    1.9720    1.4720 C   0  0  0  0  0  0  0  0  0  0  0  0
    1.4400    2.1650    2.8540 C   0  0  0  0  0  0  0  0  0  0  0  0
    0.3760    2.5620    3.6320 C   0  0  0  0  0  0  0  0  0  0  0  0
   -0.8330    2.7630    2.9990 C   0  0  0  0  0  0  0  0  0  0  0  0
   -0.9600    2.5720    1.6400 C   0  0  0  0  0  0  0  0  0  0  0  0
   -1.3560    0.6060   -2.1970 C   0  0  0  0  0  0  0  0  0  0  0  0
   -1.2340   -0.3420   -3.0250 O   0  0  0  0  0  0  0  0  0  0  0  0
   -2.1710    1.6670   -2.5660 O   0  0  0  0  0  0  0  0  0  0  0  0
   -0.3370   -1.3670   -0.1720 H   0  0  0  0  0  0  0  0  0  0  0  0
   -1.5220    0.5440   -0.1070 H   0  0  0  0  0  0  0  0  0  0  0  0
   -0.9860    2.6740   -0.8450 H   0  0  0  0  0  0  0  0  0  0  0  0
    0.6820    2.3110   -1.2430 H   0  0  0  0  0  0  0  0  0  0  0  0
    2.1610    1.6710    0.9120 H   0  0  0  0  0  0  0  0  0  0  0  0
    2.4210    1.9880    3.2850 H   0  0  0  0  0  0  0  0  0  0  0  0
    0.5280    2.6970    4.6860 H   0  0  0  0  0  0  0  0  0  0  0  0
   -1.6710    3.0750    3.6060 H   0  0  0  0  0  0  0  0  0  0  0  0
   -1.9120    2.7340    1.1640 H   0  0  0  0  0  0  0  0  0  0  0  0
  1  8  1  0  0  0  0
  1  2  1  0  0  0  0
  2  9  1  1  0  0  0
  2  3  1  0  0  0  0
  3 11  1  0  0  0  0
  4  2  1  0  0  0  0
  4  5  2  0  0  0  0
  6  1  1  0  0  0  0
  7  1  1  0  0  0  0
 10  3  1  0  0  0  0
 12  4  1  0  0  0  0
 13 18  1  0  0  0  0
 13 12  1  0  0  0  0
 14 19  1  0  0  0  0
 14 13  1  0  0  0  0
 15 14  2  0  0  0  0
 16 12  1  0  0  0  0
 17 13  1  0  0  0  0
 19 31  1  0  0  0  0
 20 21  1  0  0  0  0
 20 19  1  0  0  0  0
 20 32  1  1  0  0  0
 21 22  1  0  0  0  0
 22 23  2  0  0  0  0
 22 27  1  0  0  0  0
 23 24  1  0  0  0  0
 24 36  1  0  0  0  0
 24 25  2  0  0  0  0
 25 37  1  0  0  0  0
 26 38  1  0  0  0  0
 26 25  1  0  0  0  0
 27 26  2  0  0  0  0
 28 20  1  0  0  0  0
 29 28  2  0  0  0  0
 30 28  1  0  0  0  0
 33 21  1  0  0  0  0
 34 21  1  0  0  0  0
 35 23  1  0  0  0  0
 39 27  1  0  0  0  0
M  END
$$$$
