AGG.pdb
 OpenBabel07022418003D

 26 25  0  0  1  0  0  0  0  0999 V2000
   -0.1050   -1.7760    4.0990 C   0  0  0  0  0  0  0  0  0  0  0  0
   -0.6490   -1.9040    2.7000 C   0  0  2  0  0  0  0  0  0  0  0  0
   -1.1890   -3.1940    2.4060 N   0  0  0  0  0  0  0  0  0  0  0  0
    0.3980   -1.5560    1.6830 C   0  0  0  0  0  0  0  0  0  0  0  0
    0.6610   -2.3710    0.7620 O   0  0  0  0  0  0  0  0  0  0  0  0
    0.7450   -2.4270    4.3120 H   0  0  0  0  0  0  0  0  0  0  0  0
    0.1830   -0.7030    4.2330 H   0  0  0  0  0  0  0  0  0  0  0  0
   -0.9640   -1.9340    4.7910 H   0  0  0  0  0  0  0  0  0  0  0  0
   -1.4870   -1.1620    2.6180 H   0  0  0  0  0  0  0  0  0  0  0  0
   -1.1760   -3.3040    1.3500 H   0  0  0  0  0  0  0  0  0  0  0  0
   -2.1870   -3.2200    2.7010 H   0  0  0  0  0  0  0  0  0  0  0  0
    1.1130   -0.3400    1.7090 N   0  0  0  0  0  0  0  0  0  0  0  0
    2.1190    0.0430    0.7480 C   0  0  0  0  0  0  0  0  0  0  0  0
    1.5300    0.1850   -0.5820 C   0  0  0  0  0  0  0  0  0  0  0  0
    2.2770    0.4560   -1.5550 O   0  0  0  0  0  0  0  0  0  0  0  0
    0.8970    0.3300    2.4830 H   0  0  0  0  0  0  0  0  0  0  0  0
    2.9180   -0.7660    0.7040 H   0  0  0  0  0  0  0  0  0  0  0  0
    2.6690    0.9590    1.0780 H   0  0  0  0  0  0  0  0  0  0  0  0
    0.1490    0.0320   -0.8180 N   0  0  0  0  0  0  0  0  0  0  0  0
   -0.4200    0.1720   -2.1630 C   0  0  0  0  0  0  0  0  0  0  0  0
   -0.1700    1.5010   -2.7210 C   0  0  0  0  0  0  0  0  0  0  0  0
   -0.5700    1.8340   -3.8620 O   0  0  0  0  0  0  0  0  0  0  0  0
    0.5330    2.4290   -1.9700 O   0  0  0  0  0  0  0  0  0  0  0  0
   -0.5310   -0.1620   -0.0720 H   0  0  0  0  0  0  0  0  0  0  0  0
   -1.5010   -0.0450   -2.1220 H   0  0  0  0  0  0  0  0  0  0  0  0
    0.0590   -0.6250   -2.7680 H   0  0  0  0  0  0  0  0  0  0  0  0
  1  7  1  0  0  0  0
  1  6  1  0  0  0  0
  1  8  1  0  0  0  0
  2  9  1  6  0  0  0
  2  1  1  0  0  0  0
  3  2  1  0  0  0  0
  3 11  1  0  0  0  0
  4 12  1  0  0  0  0
  4  2  1  0  0  0  0
  5  4  2  0  0  0  0
 10  3  1  0  0  0  0
 12 16  1  0  0  0  0
 13 18  1  0  0  0  0
 13 12  1  0  0  0  0
 14 13  1  0  0  0  0
 15 14  2  0  0  0  0
 17 13  1  0  0  0  0
 19 14  1  0  0  0  0
 19 24  1  0  0  0  0
 20 25  1  0  0  0  0
 20 19  1  0  0  0  0
 21 20  1  0  0  0  0
 21 23  1  0  0  0  0
 22 21  2  0  0  0  0
 26 20  1  0  0  0  0
M  END
$$$$
