AGH.pdb
 OpenBabel07022418003D

 36 36  0  0  1  0  0  0  0  0999 V2000
    1.0670   -2.4230    4.4820 C   0  0  0  0  0  0  0  0  0  0  0  0
    0.1510   -2.6180    3.2900 C   0  0  2  0  0  0  0  0  0  0  0  0
   -0.3030   -3.9550    3.1420 N   0  0  0  0  0  0  0  0  0  0  0  0
    0.7870   -2.1190    2.0510 C   0  0  0  0  0  0  0  0  0  0  0  0
    1.2290   -0.9430    2.0650 O   0  0  0  0  0  0  0  0  0  0  0  0
    1.6140   -3.3730    4.6650 H   0  0  0  0  0  0  0  0  0  0  0  0
    0.4490   -2.1850    5.3850 H   0  0  0  0  0  0  0  0  0  0  0  0
    1.7420   -1.5770    4.2310 H   0  0  0  0  0  0  0  0  0  0  0  0
   -0.7380   -1.9680    3.4740 H   0  0  0  0  0  0  0  0  0  0  0  0
   -1.2840   -4.0840    2.8910 H   0  0  0  0  0  0  0  0  0  0  0  0
    0.3680   -4.6390    2.7980 H   0  0  0  0  0  0  0  0  0  0  0  0
    0.9220   -2.8820    0.8740 N   0  0  0  0  0  0  0  0  0  0  0  0
    1.5250   -2.4190   -0.3480 C   0  0  0  0  0  0  0  0  0  0  0  0
    0.7850   -1.2880   -0.9590 C   0  0  0  0  0  0  0  0  0  0  0  0
    1.3310   -0.8180   -2.0190 O   0  0  0  0  0  0  0  0  0  0  0  0
    0.5430   -3.8590    0.9210 H   0  0  0  0  0  0  0  0  0  0  0  0
    2.5830   -2.1230   -0.1660 H   0  0  0  0  0  0  0  0  0  0  0  0
    1.5770   -3.2710   -1.0800 H   0  0  0  0  0  0  0  0  0  0  0  0
   -0.4130   -0.7800   -0.4210 N   0  0  0  0  0  0  0  0  0  0  0  0
   -1.1270    0.3130   -0.9700 C   0  0  1  0  0  0  0  0  0  0  0  0
   -0.2990    1.3790   -1.6650 C   0  0  0  0  0  0  0  0  0  0  0  0
    0.6610    2.0550   -0.7820 C   0  0  0  0  0  0  0  0  0  0  0  0
    0.3540    3.2070   -0.0410 C   0  0  0  0  0  0  0  0  0  0  0  0
    1.4690    3.5060    0.6260 N   0  0  0  0  0  0  0  0  0  0  0  0
    2.4260    2.6140    0.3390 C   0  0  0  0  0  0  0  0  0  0  0  0
    1.9200    1.7310   -0.5230 N   0  0  0  0  0  0  0  0  0  0  0  0
   -2.2820   -0.1460   -1.7470 C   0  0  0  0  0  0  0  0  0  0  0  0
   -3.0680    0.6380   -2.3310 O   0  0  0  0  0  0  0  0  0  0  0  0
   -2.5350   -1.4980   -1.8560 O   0  0  0  0  0  0  0  0  0  0  0  0
   -0.8440   -1.2400    0.4450 H   0  0  0  0  0  0  0  0  0  0  0  0
   -1.5600    0.8920   -0.0560 H   0  0  0  0  0  0  0  0  0  0  0  0
    0.1120    0.9970   -2.6120 H   0  0  0  0  0  0  0  0  0  0  0  0
   -1.0530    2.1610   -2.0000 H   0  0  0  0  0  0  0  0  0  0  0  0
   -0.5960    3.7380   -0.0220 H   0  0  0  0  0  0  0  0  0  0  0  0
    1.6130    4.3070    1.2820 H   0  0  0  0  0  0  0  0  0  0  0  0
    3.4440    2.6380    0.7620 H   0  0  0  0  0  0  0  0  0  0  0  0
  1  6  1  0  0  0  0
  1  7  1  0  0  0  0
  2  9  1  1  0  0  0
  2  1  1  0  0  0  0
  3  2  1  0  0  0  0
  4  5  2  0  0  0  0
  4  2  1  0  0  0  0
  8  1  1  0  0  0  0
 10  3  1  0  0  0  0
 11  3  1  0  0  0  0
 12 16  1  0  0  0  0
 12  4  1  0  0  0  0
 13 17  1  0  0  0  0
 13 12  1  0  0  0  0
 14 19  1  0  0  0  0
 14 13  1  0  0  0  0
 15 14  2  0  0  0  0
 18 13  1  0  0  0  0
 19 30  1  0  0  0  0
 20 19  1  0  0  0  0
 20 31  1  1  0  0  0
 21 20  1  0  0  0  0
 21 22  1  0  0  0  0
 22 26  1  0  0  0  0
 22 23  2  0  0  0  0
 23 34  1  0  0  0  0
 23 24  1  0  0  0  0
 24 35  1  0  0  0  0
 25 24  1  0  0  0  0
 25 36  1  0  0  0  0
 26 25  2  0  0  0  0
 27 20  1  0  0  0  0
 28 27  2  0  0  0  0
 29 27  1  0  0  0  0
 32 21  1  0  0  0  0
 33 21  1  0  0  0  0
M  END
$$$$
