AGI.pdb
 OpenBabel07022418003D

 38 37  0  0  1  0  0  0  0  0999 V2000
   -0.2570   -2.6640    4.1510 C   0  0  0  0  0  0  0  0  0  0  0  0
   -0.5640   -3.5940    3.0230 C   0  0  2  0  0  0  0  0  0  0  0  0
    0.5890   -4.4250    2.7470 N   0  0  0  0  0  0  0  0  0  0  0  0
   -0.9790   -2.8310    1.8030 C   0  0  0  0  0  0  0  0  0  0  0  0
   -0.3230   -2.9810    0.7250 O   0  0  0  0  0  0  0  0  0  0  0  0
    0.2010   -1.7300    3.7690 H   0  0  0  0  0  0  0  0  0  0  0  0
   -1.1950   -2.4840    4.7160 H   0  0  0  0  0  0  0  0  0  0  0  0
    0.5280   -3.1280    4.8090 H   0  0  0  0  0  0  0  0  0  0  0  0
   -1.4050   -4.2820    3.2460 H   0  0  0  0  0  0  0  0  0  0  0  0
    1.4190   -4.0550    3.2740 H   0  0  0  0  0  0  0  0  0  0  0  0
    0.8720   -4.3930    1.7340 H   0  0  0  0  0  0  0  0  0  0  0  0
   -2.0960   -1.9560    1.8750 N   0  0  0  0  0  0  0  0  0  0  0  0
   -2.5550   -1.1870    0.7760 C   0  0  0  0  0  0  0  0  0  0  0  0
   -1.6140   -0.1730    0.2510 C   0  0  0  0  0  0  0  0  0  0  0  0
   -1.9350    0.5170   -0.7590 O   0  0  0  0  0  0  0  0  0  0  0  0
   -2.5920   -1.8940    2.8070 H   0  0  0  0  0  0  0  0  0  0  0  0
   -3.5390   -0.6970    1.0160 H   0  0  0  0  0  0  0  0  0  0  0  0
   -2.7980   -1.8610   -0.0830 H   0  0  0  0  0  0  0  0  0  0  0  0
    2.1480   -0.2170   -1.9410 C   0  0  0  0  0  0  0  0  0  0  0  0
    0.8130    0.5130   -2.0000 C   0  0  0  0  0  0  0  0  0  0  0  0
    0.6690    1.5020   -0.8890 C   0  0  2  0  0  0  0  0  0  0  0  0
    1.8060    2.4890   -1.0350 C   0  0  0  0  0  0  0  0  0  0  0  0
    0.6760    0.9400    0.4910 C   0  0  2  0  0  0  0  0  0  0  0  0
   -0.3780    0.0460    0.8460 N   0  0  0  0  0  0  0  0  0  0  0  0
    0.9550    1.9430    1.5020 C   0  0  0  0  0  0  0  0  0  0  0  0
    0.1900    1.9210    2.5400 O   0  0  0  0  0  0  0  0  0  0  0  0
    1.9470    2.9070    1.4630 O   0  0  0  0  0  0  0  0  0  0  0  0
    2.9590    0.5320   -1.9010 H   0  0  0  0  0  0  0  0  0  0  0  0
    2.1920   -0.9690   -1.1530 H   0  0  0  0  0  0  0  0  0  0  0  0
    2.2560   -0.7460   -2.9160 H   0  0  0  0  0  0  0  0  0  0  0  0
    0.0430   -0.2230   -2.1540 H   0  0  0  0  0  0  0  0  0  0  0  0
    0.8660    1.1250   -2.9490 H   0  0  0  0  0  0  0  0  0  0  0  0
   -0.2610    2.0900   -1.1130 H   0  0  0  0  0  0  0  0  0  0  0  0
    2.7380    2.1800   -0.5400 H   0  0  0  0  0  0  0  0  0  0  0  0
    1.4400    3.4710   -0.6770 H   0  0  0  0  0  0  0  0  0  0  0  0
    1.9820    2.6570   -2.1360 H   0  0  0  0  0  0  0  0  0  0  0  0
    1.6000    0.2300    0.4270 H   0  0  0  0  0  0  0  0  0  0  0  0
   -0.1700   -0.5240    1.7270 H   0  0  0  0  0  0  0  0  0  0  0  0
  1  7  1  0  0  0  0
  1  8  1  0  0  0  0
  2  9  1  1  0  0  0
  2  1  1  0  0  0  0
  3  2  1  0  0  0  0
  3 10  1  0  0  0  0
  4 12  1  0  0  0  0
  4  2  1  0  0  0  0
  5  4  2  0  0  0  0
  6  1  1  0  0  0  0
 11  3  1  0  0  0  0
 12 16  1  0  0  0  0
 13 17  1  0  0  0  0
 13 12  1  0  0  0  0
 14 13  1  0  0  0  0
 14 24  1  0  0  0  0
 15 14  2  0  0  0  0
 18 13  1  0  0  0  0
 19 28  1  0  0  0  0
 19 29  1  0  0  0  0
 20 19  1  0  0  0  0
 20 21  1  0  0  0  0
 21 33  1  6  0  0  0
 21 23  1  0  0  0  0
 22 21  1  0  0  0  0
 22 35  1  0  0  0  0
 22 34  1  0  0  0  0
 23 37  1  1  0  0  0
 23 24  1  0  0  0  0
 23 25  1  0  0  0  0
 24 38  1  0  0  0  0
 25 26  1  0  0  0  0
 27 25  2  0  0  0  0
 30 19  1  0  0  0  0
 31 20  1  0  0  0  0
 32 20  1  0  0  0  0
 36 22  1  0  0  0  0
M  END
$$$$
