AGK.pdb
 OpenBabel07022418003D

 40 39  0  0  1  0  0  0  0  0999 V2000
   -0.7790   -2.2820    4.7070 C   0  0  0  0  0  0  0  0  0  0  0  0
   -1.0850   -2.5180    3.2320 C   0  0  2  0  0  0  0  0  0  0  0  0
   -1.2540   -3.9330    3.0050 N   0  0  0  0  0  0  0  0  0  0  0  0
    0.0540   -1.9770    2.4360 C   0  0  0  0  0  0  0  0  0  0  0  0
    0.3250   -0.7610    2.5280 O   0  0  0  0  0  0  0  0  0  0  0  0
    0.1670   -2.7600    4.9870 H   0  0  0  0  0  0  0  0  0  0  0  0
   -1.6200   -2.7370    5.3030 H   0  0  0  0  0  0  0  0  0  0  0  0
   -0.7720   -1.2030    4.9180 H   0  0  0  0  0  0  0  0  0  0  0  0
   -2.0340   -2.0150    3.0250 H   0  0  0  0  0  0  0  0  0  0  0  0
   -0.3840   -4.4370    3.2420 H   0  0  0  0  0  0  0  0  0  0  0  0
   -1.6360   -4.1320    2.0660 H   0  0  0  0  0  0  0  0  0  0  0  0
    0.8390   -2.7730    1.5840 N   0  0  0  0  0  0  0  0  0  0  0  0
    1.9340   -2.3640    0.7690 C   0  0  0  0  0  0  0  0  0  0  0  0
    1.5030   -1.4380   -0.2900 C   0  0  0  0  0  0  0  0  0  0  0  0
    2.4010   -0.9700   -1.0830 O   0  0  0  0  0  0  0  0  0  0  0  0
    0.5720   -3.8030    1.5550 H   0  0  0  0  0  0  0  0  0  0  0  0
    2.4400   -3.2350    0.2810 H   0  0  0  0  0  0  0  0  0  0  0  0
    2.7260   -1.8650    1.4250 H   0  0  0  0  0  0  0  0  0  0  0  0
    0.1860   -1.0320   -0.5050 N   0  0  0  0  0  0  0  0  0  0  0  0
   -0.2400   -0.1780   -1.5340 C   0  0  1  0  0  0  0  0  0  0  0  0
   -0.4230    1.2540   -1.3680 C   0  0  0  0  0  0  0  0  0  0  0  0
    0.6500    2.1650   -0.9920 C   0  0  0  0  0  0  0  0  0  0  0  0
    1.3300    2.0810    0.3070 C   0  0  0  0  0  0  0  0  0  0  0  0
    0.4150    2.2880    1.4980 C   0  0  0  0  0  0  0  0  0  0  0  0
    1.2430    2.1980    2.6850 N   0  0  0  0  0  0  0  0  0  0  0  0
    0.3520   -0.5280   -2.9000 C   0  0  0  0  0  0  0  0  0  0  0  0
    0.2040    0.2160   -3.8720 O   0  0  0  0  0  0  0  0  0  0  0  0
    1.0480   -1.7060   -2.9910 O   0  0  0  0  0  0  0  0  0  0  0  0
   -0.5670   -1.4110    0.1540 H   0  0  0  0  0  0  0  0  0  0  0  0
   -1.3320   -0.5720   -1.7780 H   0  0  0  0  0  0  0  0  0  0  0  0
   -0.8150    1.6390   -2.3780 H   0  0  0  0  0  0  0  0  0  0  0  0
   -1.3310    1.4380   -0.7160 H   0  0  0  0  0  0  0  0  0  0  0  0
    1.4490    2.2270   -1.7830 H   0  0  0  0  0  0  0  0  0  0  0  0
    0.2030    3.2180   -1.0440 H   0  0  0  0  0  0  0  0  0  0  0  0
    2.0450    1.2520    0.4470 H   0  0  0  0  0  0  0  0  0  0  0  0
    2.0130    2.9980    0.3540 H   0  0  0  0  0  0  0  0  0  0  0  0
   -0.4690    1.6580    1.5020 H   0  0  0  0  0  0  0  0  0  0  0  0
    0.0410    3.3540    1.4610 H   0  0  0  0  0  0  0  0  0  0  0  0
    1.9790    1.4670    2.6040 H   0  0  0  0  0  0  0  0  0  0  0  0
    0.7050    2.1300    3.5620 H   0  0  0  0  0  0  0  0  0  0  0  0
  1  8  1  0  0  0  0
  1  6  1  0  0  0  0
  1  7  1  0  0  0  0
  2  9  1  6  0  0  0
  2  1  1  0  0  0  0
  3  2  1  0  0  0  0
  3 10  1  0  0  0  0
  4  5  2  0  0  0  0
  4  2  1  0  0  0  0
 11  3  1  0  0  0  0
 12  4  1  0  0  0  0
 13 18  1  0  0  0  0
 13 12  1  0  0  0  0
 14 13  1  0  0  0  0
 15 14  2  0  0  0  0
 16 12  1  0  0  0  0
 17 13  1  0  0  0  0
 19 14  1  0  0  0  0
 19 29  1  0  0  0  0
 20 30  1  6  0  0  0
 20 21  1  0  0  0  0
 20 19  1  0  0  0  0
 21 22  1  0  0  0  0
 21 32  1  0  0  0  0
 22 23  1  0  0  0  0
 23 36  1  0  0  0  0
 23 35  1  0  0  0  0
 23 24  1  0  0  0  0
 24 37  1  0  0  0  0
 24 25  1  0  0  0  0
 25 40  1  0  0  0  0
 26 20  1  0  0  0  0
 27 26  2  0  0  0  0
 28 26  1  0  0  0  0
 31 21  1  0  0  0  0
 33 22  1  0  0  0  0
 34 22  1  0  0  0  0
 38 24  1  0  0  0  0
 39 25  1  0  0  0  0
M  END
$$$$
