AGL.pdb
 OpenBabel07022418003D

 38 37  0  0  1  0  0  0  0  0999 V2000
   -1.3320   -3.3320    2.4610 C   0  0  0  0  0  0  0  0  0  0  0  0
    0.0320   -3.3890    3.0600 C   0  0  2  0  0  0  0  0  0  0  0  0
    0.0110   -2.9960    4.4560 N   0  0  0  0  0  0  0  0  0  0  0  0
    1.0710   -2.6710    2.3380 C   0  0  0  0  0  0  0  0  0  0  0  0
    1.7850   -1.8480    2.9650 O   0  0  0  0  0  0  0  0  0  0  0  0
   -1.8520   -2.4410    2.8960 H   0  0  0  0  0  0  0  0  0  0  0  0
   -1.3770   -3.2480    1.3830 H   0  0  0  0  0  0  0  0  0  0  0  0
   -1.9450   -4.2060    2.7620 H   0  0  0  0  0  0  0  0  0  0  0  0
    0.3320   -4.4800    3.0690 H   0  0  0  0  0  0  0  0  0  0  0  0
    0.9750   -2.7120    4.7600 H   0  0  0  0  0  0  0  0  0  0  0  0
   -0.6850   -2.2400    4.5950 H   0  0  0  0  0  0  0  0  0  0  0  0
    1.3350   -2.8450    0.9520 N   0  0  0  0  0  0  0  0  0  0  0  0
    2.3290   -2.1630    0.2010 C   0  0  0  0  0  0  0  0  0  0  0  0
    2.1640   -0.6960    0.1120 C   0  0  0  0  0  0  0  0  0  0  0  0
    3.0290    0.0100   -0.5090 O   0  0  0  0  0  0  0  0  0  0  0  0
    0.7140   -3.5480    0.4870 H   0  0  0  0  0  0  0  0  0  0  0  0
    3.3560   -2.4000    0.5840 H   0  0  0  0  0  0  0  0  0  0  0  0
    2.3170   -2.5510   -0.8590 H   0  0  0  0  0  0  0  0  0  0  0  0
   -0.5870    0.0270   -1.7000 C   0  0  0  0  0  0  0  0  0  0  0  0
   -0.4680    1.5030   -1.4930 C   0  0  0  0  0  0  0  0  0  0  0  0
   -1.7260    2.1540   -2.0870 C   0  0  0  0  0  0  0  0  0  0  0  0
   -0.2500    1.9630   -0.1000 C   0  0  0  0  0  0  0  0  0  0  0  0
    0.9930    1.4680    0.5520 C   0  0  2  0  0  0  0  0  0  0  0  0
    1.0790    0.0380    0.6780 N   0  0  0  0  0  0  0  0  0  0  0  0
    1.0750    2.0720    1.9130 C   0  0  0  0  0  0  0  0  0  0  0  0
    1.0150    3.3250    1.9830 O   0  0  0  0  0  0  0  0  0  0  0  0
    1.2110    1.2840    3.0230 O   0  0  0  0  0  0  0  0  0  0  0  0
    0.3810   -0.3840   -2.0920 H   0  0  0  0  0  0  0  0  0  0  0  0
   -0.8650   -0.5460   -0.8140 H   0  0  0  0  0  0  0  0  0  0  0  0
   -1.3930   -0.1790   -2.4760 H   0  0  0  0  0  0  0  0  0  0  0  0
    0.3750    1.8880   -2.1200 H   0  0  0  0  0  0  0  0  0  0  0  0
   -1.5810    2.2160   -3.1960 H   0  0  0  0  0  0  0  0  0  0  0  0
   -2.5790    1.4710   -1.9310 H   0  0  0  0  0  0  0  0  0  0  0  0
   -1.8940    3.1610   -1.6550 H   0  0  0  0  0  0  0  0  0  0  0  0
   -0.3510    3.0730   -0.0290 H   0  0  0  0  0  0  0  0  0  0  0  0
   -1.1200    1.5680    0.5100 H   0  0  0  0  0  0  0  0  0  0  0  0
    1.8700    1.8640   -0.0310 H   0  0  0  0  0  0  0  0  0  0  0  0
    0.3250   -0.4880    1.1990 H   0  0  0  0  0  0  0  0  0  0  0  0
  1  8  1  0  0  0  0
  1  6  1  0  0  0  0
  1  2  1  0  0  0  0
  2  9  1  6  0  0  0
  2  3  1  0  0  0  0
  3 11  1  0  0  0  0
  3 10  1  0  0  0  0
  4  5  2  0  0  0  0
  4  2  1  0  0  0  0
  7  1  1  0  0  0  0
 12  4  1  0  0  0  0
 13 17  1  0  0  0  0
 13 12  1  0  0  0  0
 14 13  1  0  0  0  0
 14 24  1  0  0  0  0
 15 14  2  0  0  0  0
 16 12  1  0  0  0  0
 18 13  1  0  0  0  0
 19 20  1  0  0  0  0
 19 29  1  0  0  0  0
 20 22  1  0  0  0  0
 21 33  1  0  0  0  0
 21 34  1  0  0  0  0
 21 20  1  0  0  0  0
 22 35  1  0  0  0  0
 22 36  1  0  0  0  0
 22 23  1  0  0  0  0
 23 37  1  6  0  0  0
 23 24  1  0  0  0  0
 23 25  1  0  0  0  0
 24 38  1  0  0  0  0
 25 26  2  0  0  0  0
 25 27  1  0  0  0  0
 28 19  1  0  0  0  0
 30 19  1  0  0  0  0
 31 20  1  0  0  0  0
 32 21  1  0  0  0  0
M  END
$$$$
