AGM.pdb
 OpenBabel07022418003D

 36 35  0  0  1  0  0  0  0  0999 V2000
    0.0160   -2.7630    4.6260 C   0  0  0  0  0  0  0  0  0  0  0  0
   -0.7080   -3.5680    3.5700 C   0  0  2  0  0  0  0  0  0  0  0  0
    0.0640   -4.7110    3.1750 N   0  0  0  0  0  0  0  0  0  0  0  0
   -0.9280   -2.6440    2.4130 C   0  0  0  0  0  0  0  0  0  0  0  0
   -0.4650   -2.9220    1.2720 O   0  0  0  0  0  0  0  0  0  0  0  0
    0.4560   -1.8220    4.2030 H   0  0  0  0  0  0  0  0  0  0  0  0
   -0.6790   -2.4310    5.4220 H   0  0  0  0  0  0  0  0  0  0  0  0
    0.8430   -3.3990    5.0290 H   0  0  0  0  0  0  0  0  0  0  0  0
   -1.6680   -3.9090    3.9970 H   0  0  0  0  0  0  0  0  0  0  0  0
    0.8740   -4.8080    3.8510 H   0  0  0  0  0  0  0  0  0  0  0  0
    0.4650   -4.6220    2.2270 H   0  0  0  0  0  0  0  0  0  0  0  0
   -1.6700   -1.4440    2.6270 N   0  0  0  0  0  0  0  0  0  0  0  0
   -1.9260   -0.5080    1.5820 C   0  0  0  0  0  0  0  0  0  0  0  0
   -0.6890    0.0480    0.9830 C   0  0  0  0  0  0  0  0  0  0  0  0
    0.4180   -0.3390    1.4320 O   0  0  0  0  0  0  0  0  0  0  0  0
   -2.0250   -1.2720    3.5930 H   0  0  0  0  0  0  0  0  0  0  0  0
   -2.5740    0.3020    1.9490 H   0  0  0  0  0  0  0  0  0  0  0  0
   -2.5210   -1.0190    0.7690 H   0  0  0  0  0  0  0  0  0  0  0  0
    3.3900   -0.7800   -2.6310 C   0  0  0  0  0  0  0  0  0  0  0  0
    1.7770   -1.1810   -1.9590 S   0  0  0  0  0  0  0  0  0  0  0  0
    0.4730   -0.1140   -2.5460 C   0  0  0  0  0  0  0  0  0  0  0  0
    0.5810    1.3080   -2.1040 C   0  0  0  0  0  0  0  0  0  0  0  0
    0.5620    1.5090   -0.6240 C   0  0  2  0  0  0  0  0  0  0  0  0
   -0.6900    0.9930   -0.0700 N   0  0  0  0  0  0  0  0  0  0  0  0
    0.6520    2.9790   -0.3860 C   0  0  0  0  0  0  0  0  0  0  0  0
   -0.2880    3.5400    0.2140 O   0  0  0  0  0  0  0  0  0  0  0  0
    1.7180    3.7410   -0.7940 O   0  0  0  0  0  0  0  0  0  0  0  0
    3.9860   -0.1130   -1.9900 H   0  0  0  0  0  0  0  0  0  0  0  0
    3.9230   -1.7570   -2.8120 H   0  0  0  0  0  0  0  0  0  0  0  0
    3.2890   -0.3090   -3.6320 H   0  0  0  0  0  0  0  0  0  0  0  0
    0.4550   -0.1020   -3.6740 H   0  0  0  0  0  0  0  0  0  0  0  0
   -0.5060   -0.5400   -2.2520 H   0  0  0  0  0  0  0  0  0  0  0  0
    1.5060    1.7790   -2.4950 H   0  0  0  0  0  0  0  0  0  0  0  0
   -0.2790    1.8620   -2.5330 H   0  0  0  0  0  0  0  0  0  0  0  0
    1.4370    1.0650   -0.1110 H   0  0  0  0  0  0  0  0  0  0  0  0
   -1.5950    1.3080   -0.4350 H   0  0  0  0  0  0  0  0  0  0  0  0
  1  8  1  0  0  0  0
  1  7  1  0  0  0  0
  2  9  1  1  0  0  0
  2  1  1  0  0  0  0
  3  2  1  0  0  0  0
  3 10  1  0  0  0  0
  4 12  1  0  0  0  0
  4  2  1  0  0  0  0
  5  4  2  0  0  0  0
  6  1  1  0  0  0  0
 11  3  1  0  0  0  0
 12 16  1  0  0  0  0
 13 17  1  0  0  0  0
 13 12  1  0  0  0  0
 14 15  2  0  0  0  0
 14 13  1  0  0  0  0
 18 13  1  0  0  0  0
 19 28  1  0  0  0  0
 19 20  1  0  0  0  0
 21 32  1  0  0  0  0
 21 22  1  0  0  0  0
 21 20  1  0  0  0  0
 22 23  1  0  0  0  0
 23 25  1  0  0  0  0
 23 35  1  1  0  0  0
 23 24  1  0  0  0  0
 24 14  1  0  0  0  0
 25 26  1  0  0  0  0
 27 25  2  0  0  0  0
 29 19  1  0  0  0  0
 30 19  1  0  0  0  0
 31 21  1  0  0  0  0
 33 22  1  0  0  0  0
 34 22  1  0  0  0  0
 36 24  1  0  0  0  0
M  END
$$$$
