AGN.pdb
 OpenBabel07022418003D

 33 32  0  0  1  0  0  0  0  0999 V2000
   -0.3730   -1.7140    4.9360 C   0  0  0  0  0  0  0  0  0  0  0  0
   -0.7800   -2.9350    4.1060 C   0  0  2  0  0  0  0  0  0  0  0  0
   -0.2500   -4.1330    4.7290 N   0  0  0  0  0  0  0  0  0  0  0  0
   -0.1940   -2.7900    2.7770 C   0  0  0  0  0  0  0  0  0  0  0  0
    0.6370   -3.6510    2.3570 O   0  0  0  0  0  0  0  0  0  0  0  0
    0.6830   -1.5100    4.7040 H   0  0  0  0  0  0  0  0  0  0  0  0
   -0.5460   -1.9640    6.0060 H   0  0  0  0  0  0  0  0  0  0  0  0
   -0.9940   -0.8690    4.5930 H   0  0  0  0  0  0  0  0  0  0  0  0
   -1.8910   -3.0210    4.0680 H   0  0  0  0  0  0  0  0  0  0  0  0
   -0.0560   -4.8160    3.9390 H   0  0  0  0  0  0  0  0  0  0  0  0
    0.7040   -3.8930    5.1300 H   0  0  0  0  0  0  0  0  0  0  0  0
   -0.5620   -1.6750    1.9610 N   0  0  0  0  0  0  0  0  0  0  0  0
    0.0320   -1.5640    0.6700 C   0  0  0  0  0  0  0  0  0  0  0  0
   -0.4760   -0.3480   -0.0200 C   0  0  0  0  0  0  0  0  0  0  0  0
   -1.3200    0.4000    0.5770 O   0  0  0  0  0  0  0  0  0  0  0  0
   -1.2420   -0.9570    2.2850 H   0  0  0  0  0  0  0  0  0  0  0  0
   -0.3610   -2.4300    0.0600 H   0  0  0  0  0  0  0  0  0  0  0  0
    1.1350   -1.6190    0.6570 H   0  0  0  0  0  0  0  0  0  0  0  0
    2.7050    2.2580   -1.0450 N   0  0  0  0  0  0  0  0  0  0  0  0
    1.4080    2.6310   -1.3950 C   0  0  0  0  0  0  0  0  0  0  0  0
    0.8750    3.5610   -0.7210 O   0  0  0  0  0  0  0  0  0  0  0  0
    0.5870    2.0600   -2.4650 C   0  0  0  0  0  0  0  0  0  0  0  0
   -0.4750    1.1070   -2.0220 C   0  0  2  0  0  0  0  0  0  0  0  0
   -0.0110   -0.0460   -1.3320 N   0  0  0  0  0  0  0  0  0  0  0  0
   -1.2450    0.7370   -3.2370 C   0  0  0  0  0  0  0  0  0  0  0  0
   -1.7570    1.5800   -4.0110 O   0  0  0  0  0  0  0  0  0  0  0  0
   -1.4010   -0.6100   -3.5230 O   0  0  0  0  0  0  0  0  0  0  0  0
    3.1290    2.5470   -0.1380 H   0  0  0  0  0  0  0  0  0  0  0  0
    3.2820    1.6690   -1.7030 H   0  0  0  0  0  0  0  0  0  0  0  0
    0.0950    2.8980   -2.9980 H   0  0  0  0  0  0  0  0  0  0  0  0
    1.2760    1.5930   -3.2010 H   0  0  0  0  0  0  0  0  0  0  0  0
   -1.2080    1.6400   -1.3600 H   0  0  0  0  0  0  0  0  0  0  0  0
    0.6780   -0.7140   -1.7410 H   0  0  0  0  0  0  0  0  0  0  0  0
  1  7  1  0  0  0  0
  2  9  1  6  0  0  0
  2  3  1  0  0  0  0
  2  1  1  0  0  0  0
  3 11  1  0  0  0  0
  4  2  1  0  0  0  0
  5  4  2  0  0  0  0
  6  1  1  0  0  0  0
  8  1  1  0  0  0  0
 10  3  1  0  0  0  0
 12 16  1  0  0  0  0
 12  4  1  0  0  0  0
 13 12  1  0  0  0  0
 14 15  2  0  0  0  0
 14 13  1  0  0  0  0
 17 13  1  0  0  0  0
 18 13  1  0  0  0  0
 19 28  1  0  0  0  0
 20 19  1  0  0  0  0
 20 21  2  0  0  0  0
 22 23  1  0  0  0  0
 22 20  1  0  0  0  0
 23 32  1  1  0  0  0
 23 24  1  0  0  0  0
 24 14  1  0  0  0  0
 25 23  1  0  0  0  0
 26 25  2  0  0  0  0
 27 25  1  0  0  0  0
 29 19  1  0  0  0  0
 30 22  1  0  0  0  0
 31 22  1  0  0  0  0
 33 24  1  0  0  0  0
M  END
$$$$
