AGR.pdb
 OpenBabel07022418003D

 42 41  0  0  1  0  0  0  0  0999 V2000
   -0.1650   -3.5980   -0.4240 C   0  0  0  0  0  0  0  0  0  0  0  0
    0.2990   -4.1040    0.8960 C   0  0  2  0  0  0  0  0  0  0  0  0
   -0.8540   -4.5090    1.6760 N   0  0  0  0  0  0  0  0  0  0  0  0
    1.1480   -3.1530    1.6530 C   0  0  0  0  0  0  0  0  0  0  0  0
    0.8060   -2.8770    2.8430 O   0  0  0  0  0  0  0  0  0  0  0  0
   -0.2220   -4.4480   -1.1550 H   0  0  0  0  0  0  0  0  0  0  0  0
    0.5080   -2.8290   -0.8410 H   0  0  0  0  0  0  0  0  0  0  0  0
   -1.1680   -3.1590   -0.2840 H   0  0  0  0  0  0  0  0  0  0  0  0
    0.9360   -5.0230    0.7010 H   0  0  0  0  0  0  0  0  0  0  0  0
   -0.7280   -5.4750    1.9910 H   0  0  0  0  0  0  0  0  0  0  0  0
   -1.7350   -4.4260    1.1370 H   0  0  0  0  0  0  0  0  0  0  0  0
    2.3090   -2.5680    1.0730 N   0  0  0  0  0  0  0  0  0  0  0  0
    3.1190   -1.6630    1.8210 C   0  0  0  0  0  0  0  0  0  0  0  0
    2.4660   -0.4190    2.2550 C   0  0  0  0  0  0  0  0  0  0  0  0
    3.1020    0.4200    2.9890 O   0  0  0  0  0  0  0  0  0  0  0  0
    2.5300   -2.8340    0.0870 H   0  0  0  0  0  0  0  0  0  0  0  0
    4.0800   -1.4390    1.2550 H   0  0  0  0  0  0  0  0  0  0  0  0
    3.4380   -2.2070    2.7420 H   0  0  0  0  0  0  0  0  0  0  0  0
   -1.1760   -0.8390   -1.8380 N   0  0  0  0  0  0  0  0  0  0  0  0
   -0.8870    0.3430   -1.1250 C   0  0  0  0  0  0  0  0  0  0  0  0
   -1.8550    1.0650   -0.6850 N   0  0  0  0  0  0  0  0  0  0  0  0
    0.4750    0.7120   -0.9110 N   0  0  0  0  0  0  0  0  0  0  0  0
    0.8340    2.0770   -0.7830 C   0  0  0  0  0  0  0  0  0  0  0  0
    0.3770    2.8230    0.4130 C   0  0  0  0  0  0  0  0  0  0  0  0
    0.8270    2.4820    1.7440 C   0  0  0  0  0  0  0  0  0  0  0  0
    0.6180    1.2180    2.4440 C   0  0  2  0  0  0  0  0  0  0  0  0
    1.1350   -0.0060    1.9390 N   0  0  0  0  0  0  0  0  0  0  0  0
   -0.8180    1.0800    2.8090 C   0  0  0  0  0  0  0  0  0  0  0  0
   -1.3930   -0.0250    2.6470 O   0  0  0  0  0  0  0  0  0  0  0  0
   -1.5290    2.1420    3.3210 O   0  0  0  0  0  0  0  0  0  0  0  0
   -0.5010   -1.3110   -2.4420 H   0  0  0  0  0  0  0  0  0  0  0  0
   -2.1400   -1.2780   -1.7570 H   0  0  0  0  0  0  0  0  0  0  0  0
   -2.8290    0.7940   -0.8450 H   0  0  0  0  0  0  0  0  0  0  0  0
    1.1770   -0.0470   -0.8600 H   0  0  0  0  0  0  0  0  0  0  0  0
    0.4820    2.6100   -1.7210 H   0  0  0  0  0  0  0  0  0  0  0  0
    1.9620    2.1790   -0.8690 H   0  0  0  0  0  0  0  0  0  0  0  0
    0.6750    3.9200    0.1940 H   0  0  0  0  0  0  0  0  0  0  0  0
   -0.7690    2.9450    0.3550 H   0  0  0  0  0  0  0  0  0  0  0  0
    1.9250    2.8270    1.8210 H   0  0  0  0  0  0  0  0  0  0  0  0
    0.3610    3.2830    2.4490 H   0  0  0  0  0  0  0  0  0  0  0  0
    1.1350    1.4060    3.4900 H   0  0  0  0  0  0  0  0  0  0  0  0
    0.5750   -0.6390    1.3580 H   0  0  0  0  0  0  0  0  0  0  0  0
  1  8  1  0  0  0  0
  1  2  1  0  0  0  0
  2  9  1  6  0  0  0
  2  4  1  0  0  0  0
  2  3  1  0  0  0  0
  3 10  1  0  0  0  0
  4  5  2  0  0  0  0
  6  1  1  0  0  0  0
  7  1  1  0  0  0  0
 11  3  1  0  0  0  0
 12  4  1  0  0  0  0
 12 13  1  0  0  0  0
 13 14  1  0  0  0  0
 13 18  1  0  0  0  0
 14 15  2  0  0  0  0
 16 12  1  0  0  0  0
 17 13  1  0  0  0  0
 19 32  1  0  0  0  0
 19 20  1  0  0  0  0
 20 22  1  0  0  0  0
 20 21  2  0  0  0  0
 22 34  1  0  0  0  0
 22 23  1  0  0  0  0
 23 24  1  0  0  0  0
 24 25  1  0  0  0  0
 25 39  1  0  0  0  0
 25 26  1  0  0  0  0
 25 40  1  0  0  0  0
 26 28  1  0  0  0  0
 26 41  1  1  0  0  0
 27 14  1  0  0  0  0
 27 26  1  0  0  0  0
 28 30  1  0  0  0  0
 29 28  2  0  0  0  0
 31 19  1  0  0  0  0
 33 21  1  0  0  0  0
 35 23  1  0  0  0  0
 36 23  1  0  0  0  0
 37 24  1  0  0  0  0
 38 24  1  0  0  0  0
 42 27  1  0  0  0  0
M  END
$$$$
