AGS.pdb
 OpenBabel07022418003D

 30 29  0  0  1  0  0  0  0  0999 V2000
   -2.4720   -0.9320    2.0820 C   0  0  0  0  0  0  0  0  0  0  0  0
   -1.4440   -1.0490    3.1630 C   0  0  2  0  0  0  0  0  0  0  0  0
   -1.3580    0.1850    3.9000 N   0  0  0  0  0  0  0  0  0  0  0  0
   -0.1130   -1.3700    2.5740 C   0  0  0  0  0  0  0  0  0  0  0  0
    0.8440   -0.5900    2.7750 O   0  0  0  0  0  0  0  0  0  0  0  0
   -3.3310   -0.3160    2.4790 H   0  0  0  0  0  0  0  0  0  0  0  0
   -2.1190   -0.4470    1.1620 H   0  0  0  0  0  0  0  0  0  0  0  0
   -2.8930   -1.9470    1.8570 H   0  0  0  0  0  0  0  0  0  0  0  0
   -1.7760   -1.8520    3.8540 H   0  0  0  0  0  0  0  0  0  0  0  0
   -1.0860    0.9670    3.2530 H   0  0  0  0  0  0  0  0  0  0  0  0
   -0.5820    0.1180    4.5980 H   0  0  0  0  0  0  0  0  0  0  0  0
    0.0840   -2.5530    1.7850 N   0  0  0  0  0  0  0  0  0  0  0  0
    1.3570   -2.8790    1.1960 C   0  0  0  0  0  0  0  0  0  0  0  0
    1.8220   -1.9000    0.1960 C   0  0  0  0  0  0  0  0  0  0  0  0
    2.9450   -2.0210   -0.3730 O   0  0  0  0  0  0  0  0  0  0  0  0
   -0.7540   -3.1620    1.6650 H   0  0  0  0  0  0  0  0  0  0  0  0
    1.2080   -3.8400    0.6180 H   0  0  0  0  0  0  0  0  0  0  0  0
    2.1280   -3.0790    1.9740 H   0  0  0  0  0  0  0  0  0  0  0  0
    0.6340   -1.2310   -2.8510 O   0  0  0  0  0  0  0  0  0  0  0  0
    0.5180    0.0390   -2.3330 C   0  0  0  0  0  0  0  0  0  0  0  0
    1.4440    0.1980   -1.1380 C   0  0  2  0  0  0  0  0  0  0  0  0
    1.0280   -0.7990   -0.1610 N   0  0  0  0  0  0  0  0  0  0  0  0
    1.4370    1.5520   -0.6080 C   0  0  0  0  0  0  0  0  0  0  0  0
    1.0980    1.7660    0.5720 O   0  0  0  0  0  0  0  0  0  0  0  0
    1.8040    2.6140   -1.4030 O   0  0  0  0  0  0  0  0  0  0  0  0
   -0.1580   -1.7720   -2.6040 H   0  0  0  0  0  0  0  0  0  0  0  0
    0.7050    0.8460   -3.0630 H   0  0  0  0  0  0  0  0  0  0  0  0
   -0.5240    0.1910   -1.9550 H   0  0  0  0  0  0  0  0  0  0  0  0
    2.4580   -0.1140   -1.4920 H   0  0  0  0  0  0  0  0  0  0  0  0
    0.0870   -0.6370    0.2370 H   0  0  0  0  0  0  0  0  0  0  0  0
  1  6  1  0  0  0  0
  1  2  1  0  0  0  0
  2  9  1  1  0  0  0
  2  3  1  0  0  0  0
  3 11  1  0  0  0  0
  4  5  2  0  0  0  0
  4  2  1  0  0  0  0
  7  1  1  0  0  0  0
  8  1  1  0  0  0  0
 10  3  1  0  0  0  0
 12  4  1  0  0  0  0
 13 12  1  0  0  0  0
 13 18  1  0  0  0  0
 14 13  1  0  0  0  0
 15 14  2  0  0  0  0
 16 12  1  0  0  0  0
 17 13  1  0  0  0  0
 19 26  1  0  0  0  0
 19 20  1  0  0  0  0
 20 28  1  0  0  0  0
 20 21  1  0  0  0  0
 21 29  1  6  0  0  0
 21 23  1  0  0  0  0
 21 22  1  0  0  0  0
 22 14  1  0  0  0  0
 22 30  1  0  0  0  0
 23 24  1  0  0  0  0
 25 23  2  0  0  0  0
 27 20  1  0  0  0  0
M  END
$$$$
