AGT.pdb
 OpenBabel07022418003D

 33 32  0  0  1  0  0  0  0  0999 V2000
   -3.3510   -4.1820    2.0570 C   0  0  0  0  0  0  0  0  0  0  0  0
   -2.0290   -3.5560    2.3990 C   0  0  2  0  0  0  0  0  0  0  0  0
   -1.9940   -3.3250    3.8280 N   0  0  0  0  0  0  0  0  0  0  0  0
   -1.7560   -2.3080    1.7010 C   0  0  0  0  0  0  0  0  0  0  0  0
   -1.5400   -1.2640    2.3620 O   0  0  0  0  0  0  0  0  0  0  0  0
   -3.4030   -5.1550    2.6080 H   0  0  0  0  0  0  0  0  0  0  0  0
   -4.1870   -3.5690    2.4430 H   0  0  0  0  0  0  0  0  0  0  0  0
   -3.4460   -4.4400    0.9870 H   0  0  0  0  0  0  0  0  0  0  0  0
   -1.2270   -4.3140    2.1830 H   0  0  0  0  0  0  0  0  0  0  0  0
   -2.9020   -2.8720    4.0860 H   0  0  0  0  0  0  0  0  0  0  0  0
   -1.2460   -2.6280    4.0460 H   0  0  0  0  0  0  0  0  0  0  0  0
   -1.7130   -2.1700    0.2840 N   0  0  0  0  0  0  0  0  0  0  0  0
   -1.4360   -0.8980   -0.3550 C   0  0  0  0  0  0  0  0  0  0  0  0
   -0.0830   -0.3860    0.0560 C   0  0  0  0  0  0  0  0  0  0  0  0
    0.6650   -1.0120    0.8480 O   0  0  0  0  0  0  0  0  0  0  0  0
   -1.8940   -3.0470   -0.2630 H   0  0  0  0  0  0  0  0  0  0  0  0
   -2.2240   -0.1470   -0.1550 H   0  0  0  0  0  0  0  0  0  0  0  0
   -1.4000   -1.0620   -1.4480 H   0  0  0  0  0  0  0  0  0  0  0  0
    3.9450    1.8240   -1.0260 C   0  0  0  0  0  0  0  0  0  0  0  0
    2.5390    1.3940   -1.3310 C   0  0  1  0  0  0  0  0  0  0  0  0
    2.6030    0.0910   -1.8710 O   0  0  0  0  0  0  0  0  0  0  0  0
    1.6950    1.3320   -0.0500 C   0  0  2  0  0  0  0  0  0  0  0  0
    0.3930    0.8510   -0.4540 N   0  0  0  0  0  0  0  0  0  0  0  0
    1.6440    2.6770    0.5440 C   0  0  0  0  0  0  0  0  0  0  0  0
    2.6890    3.2370    0.9460 O   0  0  0  0  0  0  0  0  0  0  0  0
    0.4470    3.3560    0.6730 O   0  0  0  0  0  0  0  0  0  0  0  0
    4.6800    1.2490   -1.6480 H   0  0  0  0  0  0  0  0  0  0  0  0
    4.0670    2.9160   -1.2280 H   0  0  0  0  0  0  0  0  0  0  0  0
    4.1770    1.6050    0.0350 H   0  0  0  0  0  0  0  0  0  0  0  0
    2.0690    2.0610   -2.0750 H   0  0  0  0  0  0  0  0  0  0  0  0
    1.8590   -0.0750   -2.5040 H   0  0  0  0  0  0  0  0  0  0  0  0
    2.2080    0.6620    0.6410 H   0  0  0  0  0  0  0  0  0  0  0  0
   -0.1880    1.4120   -1.1160 H   0  0  0  0  0  0  0  0  0  0  0  0
  1  2  1  0  0  0  0
  1  7  1  0  0  0  0
  1  6  1  0  0  0  0
  2  9  1  6  0  0  0
  2  3  1  0  0  0  0
  3 11  1  0  0  0  0
  3 10  1  0  0  0  0
  4  5  2  0  0  0  0
  4  2  1  0  0  0  0
  8  1  1  0  0  0  0
 12  4  1  0  0  0  0
 13 17  1  0  0  0  0
 13 14  1  0  0  0  0
 13 12  1  0  0  0  0
 14 15  2  0  0  0  0
 16 12  1  0  0  0  0
 18 13  1  0  0  0  0
 19 29  1  0  0  0  0
 20 30  1  6  0  0  0
 20 19  1  0  0  0  0
 20 22  1  0  0  0  0
 21 20  1  0  0  0  0
 22 24  1  0  0  0  0
 22 32  1  1  0  0  0
 23 22  1  0  0  0  0
 23 14  1  0  0  0  0
 24 26  2  0  0  0  0
 24 25  1  0  0  0  0
 27 19  1  0  0  0  0
 28 19  1  0  0  0  0
 31 21  1  0  0  0  0
 33 23  1  0  0  0  0
M  END
$$$$
