AGY.pdb
 OpenBabel07022418003D

 40 40  0  0  1  0  0  0  0  0999 V2000
    0.3400   -4.6090   -1.5210 C   0  0  0  0  0  0  0  0  0  0  0  0
    0.7320   -4.2430   -0.1290 C   0  0  2  0  0  0  0  0  0  0  0  0
    0.3390   -5.2920    0.7960 N   0  0  0  0  0  0  0  0  0  0  0  0
    0.1410   -2.9690    0.3420 C   0  0  0  0  0  0  0  0  0  0  0  0
    0.3760   -1.9380   -0.3420 O   0  0  0  0  0  0  0  0  0  0  0  0
    0.3740   -3.6880   -2.1570 H   0  0  0  0  0  0  0  0  0  0  0  0
    1.1330   -5.3120   -1.9110 H   0  0  0  0  0  0  0  0  0  0  0  0
   -0.6400   -5.0940   -1.5060 H   0  0  0  0  0  0  0  0  0  0  0  0
    1.8480   -4.1130   -0.0450 H   0  0  0  0  0  0  0  0  0  0  0  0
    0.7420   -6.2090    0.5100 H   0  0  0  0  0  0  0  0  0  0  0  0
    0.6730   -5.0860    1.7640 H   0  0  0  0  0  0  0  0  0  0  0  0
   -0.6550   -2.8460    1.4910 N   0  0  0  0  0  0  0  0  0  0  0  0
   -1.2220   -1.5890    1.9310 C   0  0  0  0  0  0  0  0  0  0  0  0
   -0.1710   -0.5810    2.2160 C   0  0  0  0  0  0  0  0  0  0  0  0
    1.0360   -0.8840    2.0600 O   0  0  0  0  0  0  0  0  0  0  0  0
   -0.8560   -3.6900    2.0650 H   0  0  0  0  0  0  0  0  0  0  0  0
   -1.8470   -1.2130    1.0710 H   0  0  0  0  0  0  0  0  0  0  0  0
   -1.9350   -1.7230    2.7650 H   0  0  0  0  0  0  0  0  0  0  0  0
    1.0650    0.4670   -3.2600 O   0  0  0  0  0  0  0  0  0  0  0  0
    0.9300    1.0410   -1.9930 C   0  0  0  0  0  0  0  0  0  0  0  0
   -0.3080    1.2160   -1.4110 C   0  0  0  0  0  0  0  0  0  0  0  0
   -0.4250    1.7840   -0.1580 C   0  0  0  0  0  0  0  0  0  0  0  0
    0.6890    2.2000    0.5650 C   0  0  0  0  0  0  0  0  0  0  0  0
    0.5450    2.8100    1.9130 C   0  0  0  0  0  0  0  0  0  0  0  0
    0.6030    1.6540    2.9170 C   0  0  2  0  0  0  0  0  0  0  0  0
   -0.4650    0.7270    2.6600 N   0  0  0  0  0  0  0  0  0  0  0  0
    0.6200    2.1480    4.3020 C   0  0  0  0  0  0  0  0  0  0  0  0
    1.4960    2.9650    4.6730 O   0  0  0  0  0  0  0  0  0  0  0  0
    1.9270    2.0240   -0.0170 C   0  0  0  0  0  0  0  0  0  0  0  0
    2.0320    1.4540   -1.2730 C   0  0  0  0  0  0  0  0  0  0  0  0
   -0.3130    1.7420    5.2420 O   0  0  0  0  0  0  0  0  0  0  0  0
    0.3450    0.5690   -3.9730 H   0  0  0  0  0  0  0  0  0  0  0  0
   -1.1840    0.8950   -1.9680 H   0  0  0  0  0  0  0  0  0  0  0  0
   -1.3880    1.9330    0.3200 H   0  0  0  0  0  0  0  0  0  0  0  0
   -0.4050    3.3560    1.9770 H   0  0  0  0  0  0  0  0  0  0  0  0
    1.4390    3.4350    2.1210 H   0  0  0  0  0  0  0  0  0  0  0  0
    1.5650    1.1490    2.7060 H   0  0  0  0  0  0  0  0  0  0  0  0
   -1.4400    1.0390    2.8070 H   0  0  0  0  0  0  0  0  0  0  0  0
    2.8020    2.3440    0.5360 H   0  0  0  0  0  0  0  0  0  0  0  0
    3.0020    1.3070   -1.7480 H   0  0  0  0  0  0  0  0  0  0  0  0
  1  8  1  0  0  0  0
  1  2  1  0  0  0  0
  2  9  1  1  0  0  0
  2  4  1  0  0  0  0
  2  3  1  0  0  0  0
  3 11  1  0  0  0  0
  4 12  1  0  0  0  0
  5  4  2  0  0  0  0
  6  1  1  0  0  0  0
  7  1  1  0  0  0  0
 10  3  1  0  0  0  0
 12 13  1  0  0  0  0
 12 16  1  0  0  0  0
 13 14  1  0  0  0  0
 13 18  1  0  0  0  0
 14 26  1  0  0  0  0
 15 14  2  0  0  0  0
 17 13  1  0  0  0  0
 19 20  1  0  0  0  0
 20 21  2  0  0  0  0
 20 30  1  0  0  0  0
 21 22  1  0  0  0  0
 22 34  1  0  0  0  0
 22 23  2  0  0  0  0
 23 24  1  0  0  0  0
 24 35  1  0  0  0  0
 24 36  1  0  0  0  0
 24 25  1  0  0  0  0
 25 37  1  6  0  0  0
 25 27  1  0  0  0  0
 26 38  1  0  0  0  0
 26 25  1  0  0  0  0
 27 28  2  0  0  0  0
 27 31  1  0  0  0  0
 29 39  1  0  0  0  0
 29 23  1  0  0  0  0
 30 29  2  0  0  0  0
 32 19  1  0  0  0  0
 33 21  1  0  0  0  0
 40 30  1  0  0  0  0
M  END
$$$$
