AHA.pdb
 OpenBabel07022418003D

 39 39  0  0  1  0  0  0  0  0999 V2000
    0.1140   -3.7530    0.7650 C   0  0  0  0  0  0  0  0  0  0  0  0
    0.9480   -3.4810    1.9730 C   0  0  2  0  0  0  0  0  0  0  0  0
    0.7360   -4.4880    2.9810 N   0  0  0  0  0  0  0  0  0  0  0  0
    0.7460   -2.1130    2.5220 C   0  0  0  0  0  0  0  0  0  0  0  0
    0.4310   -2.0100    3.7350 O   0  0  0  0  0  0  0  0  0  0  0  0
    0.7210   -4.2010   -0.0680 H   0  0  0  0  0  0  0  0  0  0  0  0
   -0.4500   -2.8610    0.4150 H   0  0  0  0  0  0  0  0  0  0  0  0
   -0.6470   -4.5150    1.0310 H   0  0  0  0  0  0  0  0  0  0  0  0
    2.0250   -3.5290    1.6660 H   0  0  0  0  0  0  0  0  0  0  0  0
    0.6720   -4.0690    3.9200 H   0  0  0  0  0  0  0  0  0  0  0  0
   -0.0860   -5.0640    2.7150 H   0  0  0  0  0  0  0  0  0  0  0  0
    0.8960   -0.9480    1.7300 N   0  0  0  0  0  0  0  0  0  0  0  0
    0.7040    0.3950    2.2460 C   0  0  1  0  0  0  0  0  0  0  0  0
    2.0460    1.1190    2.1120 C   0  0  0  0  0  0  0  0  0  0  0  0
    2.4890    1.1820    0.7110 C   0  0  0  0  0  0  0  0  0  0  0  0
    3.2690    0.2300    0.0930 C   0  0  0  0  0  0  0  0  0  0  0  0
    3.4520    0.6480   -1.1660 N   0  0  0  0  0  0  0  0  0  0  0  0
    2.8290    1.8160   -1.3820 C   0  0  0  0  0  0  0  0  0  0  0  0
    2.2450    2.1230   -0.2150 N   0  0  0  0  0  0  0  0  0  0  0  0
   -0.3590    1.1240    1.5070 C   0  0  0  0  0  0  0  0  0  0  0  0
   -0.6280    2.2880    1.8450 O   0  0  0  0  0  0  0  0  0  0  0  0
    1.1610   -1.1100    0.7210 H   0  0  0  0  0  0  0  0  0  0  0  0
    0.4330    0.3130    3.3170 H   0  0  0  0  0  0  0  0  0  0  0  0
    1.9000    2.1650    2.5080 H   0  0  0  0  0  0  0  0  0  0  0  0
    2.8000    0.6610    2.7830 H   0  0  0  0  0  0  0  0  0  0  0  0
    3.6590   -0.6920    0.5600 H   0  0  0  0  0  0  0  0  0  0  0  0
    4.0210    0.1070   -1.8820 H   0  0  0  0  0  0  0  0  0  0  0  0
    2.8420    2.3370   -2.3250 H   0  0  0  0  0  0  0  0  0  0  0  0
   -1.7140    1.2240   -1.7610 C   0  0  0  0  0  0  0  0  0  0  0  0
   -2.1250    1.2570   -0.2960 C   0  0  2  0  0  0  0  0  0  0  0  0
   -1.0850    0.5560    0.4330 N   0  0  0  0  0  0  0  0  0  0  0  0
   -3.4320    0.5440   -0.1870 C   0  0  0  0  0  0  0  0  0  0  0  0
   -4.4610    0.9930   -0.7510 O   0  0  0  0  0  0  0  0  0  0  0  0
   -3.5620   -0.6390    0.5380 O   0  0  0  0  0  0  0  0  0  0  0  0
   -2.2240    2.0110   -2.3530 H   0  0  0  0  0  0  0  0  0  0  0  0
   -1.9630    0.1920   -2.1240 H   0  0  0  0  0  0  0  0  0  0  0  0
   -0.6090    1.3190   -1.8760 H   0  0  0  0  0  0  0  0  0  0  0  0
   -2.2880    2.2750    0.0740 H   0  0  0  0  0  0  0  0  0  0  0  0
   -0.8690   -0.4200    0.1390 H   0  0  0  0  0  0  0  0  0  0  0  0
  1  8  1  0  0  0  0
  1  2  1  0  0  0  0
  2  9  1  6  0  0  0
  2  4  1  0  0  0  0
  2  3  1  0  0  0  0
  3 10  1  0  0  0  0
  4  5  2  0  0  0  0
  6  1  1  0  0  0  0
  7  1  1  0  0  0  0
 11  3  1  0  0  0  0
 12 13  1  0  0  0  0
 12  4  1  0  0  0  0
 13 23  1  1  0  0  0
 14 13  1  0  0  0  0
 14 24  1  0  0  0  0
 14 25  1  0  0  0  0
 15 14  1  0  0  0  0
 16 26  1  0  0  0  0
 16 15  2  0  0  0  0
 17 16  1  0  0  0  0
 18 17  1  0  0  0  0
 18 19  2  0  0  0  0
 19 15  1  0  0  0  0
 20 21  2  0  0  0  0
 20 13  1  0  0  0  0
 22 12  1  0  0  0  0
 27 17  1  0  0  0  0
 28 18  1  0  0  0  0
 29 30  1  0  0  0  0
 30 32  1  0  0  0  0
 30 38  1  1  0  0  0
 30 31  1  0  0  0  0
 31 20  1  0  0  0  0
 32 34  1  0  0  0  0
 33 32  2  0  0  0  0
 35 29  1  0  0  0  0
 36 29  1  0  0  0  0
 37 29  1  0  0  0  0
 39 31  1  0  0  0  0
M  END
$$$$
