AHC.pdb
 OpenBabel07022418013D

 40 40  0  0  1  0  0  0  0  0999 V2000
   -0.8790   -3.5890    0.4010 C   0  0  0  0  0  0  0  0  0  0  0  0
    0.5490   -3.8790    0.0860 C   0  0  2  0  0  0  0  0  0  0  0  0
    0.9060   -5.2240    0.4900 N   0  0  0  0  0  0  0  0  0  0  0  0
    1.4920   -2.8790    0.6640 C   0  0  0  0  0  0  0  0  0  0  0  0
    2.4510   -3.2340    1.3990 O   0  0  0  0  0  0  0  0  0  0  0  0
   -1.4870   -3.3400   -0.4960 H   0  0  0  0  0  0  0  0  0  0  0  0
   -1.3370   -4.4850    0.8670 H   0  0  0  0  0  0  0  0  0  0  0  0
   -0.9520   -2.7790    1.1710 H   0  0  0  0  0  0  0  0  0  0  0  0
    0.6970   -3.8370   -1.0200 H   0  0  0  0  0  0  0  0  0  0  0  0
    0.0470   -5.8150    0.3010 H   0  0  0  0  0  0  0  0  0  0  0  0
    1.1810   -5.2580    1.4830 H   0  0  0  0  0  0  0  0  0  0  0  0
    1.3550   -1.4870    0.4140 N   0  0  0  0  0  0  0  0  0  0  0  0
    2.2460   -0.4860    0.9540 C   0  0  1  0  0  0  0  0  0  0  0  0
    2.9740    0.2600   -0.1610 C   0  0  0  0  0  0  0  0  0  0  0  0
    1.9800    0.9490   -1.0640 C   0  0  0  0  0  0  0  0  0  0  0  0
    1.3850    0.4400   -2.1870 C   0  0  0  0  0  0  0  0  0  0  0  0
    0.5760    1.3790   -2.6840 N   0  0  0  0  0  0  0  0  0  0  0  0
    0.6610    2.4570   -1.8890 C   0  0  0  0  0  0  0  0  0  0  0  0
    1.5200    2.1930   -0.8980 N   0  0  0  0  0  0  0  0  0  0  0  0
    1.5070    0.4810    1.8260 C   0  0  0  0  0  0  0  0  0  0  0  0
    2.0910    1.4350    2.3990 O   0  0  0  0  0  0  0  0  0  0  0  0
    0.5740   -1.1430   -0.1900 H   0  0  0  0  0  0  0  0  0  0  0  0
    3.0440   -0.9320    1.5820 H   0  0  0  0  0  0  0  0  0  0  0  0
    3.6230    1.0570    0.2510 H   0  0  0  0  0  0  0  0  0  0  0  0
    3.6220   -0.4310   -0.7320 H   0  0  0  0  0  0  0  0  0  0  0  0
    1.5400   -0.5400   -2.5970 H   0  0  0  0  0  0  0  0  0  0  0  0
   -0.0440    1.3400   -3.5440 H   0  0  0  0  0  0  0  0  0  0  0  0
    0.1250    3.4110   -2.0080 H   0  0  0  0  0  0  0  0  0  0  0  0
    0.0970    0.3670    2.0510 N   0  0  0  0  0  0  0  0  0  0  0  0
   -0.6130    1.3080    2.8990 C   0  0  1  0  0  0  0  0  0  0  0  0
   -1.7380    1.9940    2.1630 C   0  0  0  0  0  0  0  0  0  0  0  0
   -2.9330    0.7700    1.5700 S   0  0  0  0  0  0  0  0  0  0  0  0
   -1.1600    0.5450    4.0480 C   0  0  0  0  0  0  0  0  0  0  0  0
   -0.9830   -0.6780    4.1660 O   0  0  0  0  0  0  0  0  0  0  0  0
   -1.9050    1.1700    5.0580 O   0  0  0  0  0  0  0  0  0  0  0  0
   -0.4040   -0.4190    1.5840 H   0  0  0  0  0  0  0  0  0  0  0  0
    0.0620    2.0770    3.3160 H   0  0  0  0  0  0  0  0  0  0  0  0
   -1.3910    2.6720    1.3770 H   0  0  0  0  0  0  0  0  0  0  0  0
   -2.2730    2.6230    2.9120 H   0  0  0  0  0  0  0  0  0  0  0  0
   -2.3260   -0.2060    0.7870 H   0  0  0  0  0  0  0  0  0  0  0  0
  1  7  1  0  0  0  0
  1  8  1  0  0  0  0
  2  9  1  6  0  0  0
  2  1  1  0  0  0  0
  2  3  1  0  0  0  0
  2  4  1  0  0  0  0
  3 11  1  0  0  0  0
  4  5  2  0  0  0  0
  6  1  1  0  0  0  0
 10  3  1  0  0  0  0
 12  4  1  0  0  0  0
 12 13  1  0  0  0  0
 13 23  1  1  0  0  0
 13 20  1  0  0  0  0
 14 24  1  0  0  0  0
 14 13  1  0  0  0  0
 15 19  1  0  0  0  0
 15 14  1  0  0  0  0
 16 15  2  0  0  0  0
 17 16  1  0  0  0  0
 17 18  1  0  0  0  0
 18 19  2  0  0  0  0
 20 29  1  0  0  0  0
 20 21  2  0  0  0  0
 22 12  1  0  0  0  0
 25 14  1  0  0  0  0
 26 16  1  0  0  0  0
 27 17  1  0  0  0  0
 28 18  1  0  0  0  0
 29 30  1  0  0  0  0
 30 37  1  1  0  0  0
 30 33  1  0  0  0  0
 31 30  1  0  0  0  0
 31 39  1  0  0  0  0
 32 31  1  0  0  0  0
 33 34  2  0  0  0  0
 33 35  1  0  0  0  0
 36 29  1  0  0  0  0
 38 31  1  0  0  0  0
 40 32  1  0  0  0  0
M  END
$$$$
