AHD.pdb
 OpenBabel07022418003D

 42 42  0  0  1  0  0  0  0  0999 V2000
    2.2240   -3.9650    2.2780 C   0  0  0  0  0  0  0  0  0  0  0  0
    2.9510   -2.8570    2.9980 C   0  0  2  0  0  0  0  0  0  0  0  0
    3.1710   -3.2790    4.3660 N   0  0  0  0  0  0  0  0  0  0  0  0
    2.1730   -1.6050    2.9900 C   0  0  0  0  0  0  0  0  0  0  0  0
    1.8170   -1.0880    4.0800 O   0  0  0  0  0  0  0  0  0  0  0  0
    1.9790   -4.8270    2.9310 H   0  0  0  0  0  0  0  0  0  0  0  0
    2.8230   -4.3840    1.4260 H   0  0  0  0  0  0  0  0  0  0  0  0
    1.2550   -3.6190    1.8420 H   0  0  0  0  0  0  0  0  0  0  0  0
    3.9510   -2.7480    2.5300 H   0  0  0  0  0  0  0  0  0  0  0  0
    3.2590   -4.3100    4.4570 H   0  0  0  0  0  0  0  0  0  0  0  0
    2.4740   -2.8680    5.0250 H   0  0  0  0  0  0  0  0  0  0  0  0
    1.7900   -0.9270    1.8050 N   0  0  0  0  0  0  0  0  0  0  0  0
    1.0280    0.2940    1.8650 C   0  0  1  0  0  0  0  0  0  0  0  0
    1.7780    1.4260    1.2370 C   0  0  0  0  0  0  0  0  0  0  0  0
    2.0910    1.1770   -0.1950 C   0  0  0  0  0  0  0  0  0  0  0  0
    3.2190    0.5680   -0.7160 C   0  0  0  0  0  0  0  0  0  0  0  0
    3.0920    0.5510   -2.0520 N   0  0  0  0  0  0  0  0  0  0  0  0
    1.9280    1.1260   -2.3910 C   0  0  0  0  0  0  0  0  0  0  0  0
    1.3240    1.5050   -1.2510 N   0  0  0  0  0  0  0  0  0  0  0  0
   -0.3020    0.0470    1.2750 C   0  0  0  0  0  0  0  0  0  0  0  0
   -0.5330   -1.1110    0.8440 O   0  0  0  0  0  0  0  0  0  0  0  0
    2.0780   -1.3430    0.8980 H   0  0  0  0  0  0  0  0  0  0  0  0
    0.8510    0.5240    2.9360 H   0  0  0  0  0  0  0  0  0  0  0  0
    2.7510    1.5070    1.7680 H   0  0  0  0  0  0  0  0  0  0  0  0
    1.2910    2.3950    1.3100 H   0  0  0  0  0  0  0  0  0  0  0  0
    4.0670    0.1670   -0.1790 H   0  0  0  0  0  0  0  0  0  0  0  0
    3.7860    0.1530   -2.7500 H   0  0  0  0  0  0  0  0  0  0  0  0
    1.5890    1.2360   -3.4190 H   0  0  0  0  0  0  0  0  0  0  0  0
   -1.3110    1.0120    1.1690 N   0  0  0  0  0  0  0  0  0  0  0  0
   -2.6430    0.7720    0.5860 C   0  0  1  0  0  0  0  0  0  0  0  0
   -2.4150    0.5750   -0.8710 C   0  0  0  0  0  0  0  0  0  0  0  0
   -3.6070    0.3470   -1.6980 C   0  0  0  0  0  0  0  0  0  0  0  0
   -4.7610    0.3960   -1.2390 O   0  0  0  0  0  0  0  0  0  0  0  0
   -3.2960   -0.3510    1.2710 C   0  0  0  0  0  0  0  0  0  0  0  0
   -4.4230   -0.7790    0.9670 O   0  0  0  0  0  0  0  0  0  0  0  0
   -3.4620    0.0650   -3.0470 O   0  0  0  0  0  0  0  0  0  0  0  0
   -2.6480   -0.9860    2.3180 O   0  0  0  0  0  0  0  0  0  0  0  0
   -1.1130    1.9600    1.5220 H   0  0  0  0  0  0  0  0  0  0  0  0
   -3.2930    1.6560    0.7420 H   0  0  0  0  0  0  0  0  0  0  0  0
   -1.8200    1.4630   -1.2500 H   0  0  0  0  0  0  0  0  0  0  0  0
   -1.7630   -0.3470   -0.9630 H   0  0  0  0  0  0  0  0  0  0  0  0
   -4.1730   -0.4570   -3.5720 H   0  0  0  0  0  0  0  0  0  0  0  0
  1  6  1  0  0  0  0
  1  2  1  0  0  0  0
  2  9  1  6  0  0  0
  2  3  1  0  0  0  0
  3 10  1  0  0  0  0
  3 11  1  0  0  0  0
  4  2  1  0  0  0  0
  4  5  2  0  0  0  0
  7  1  1  0  0  0  0
  8  1  1  0  0  0  0
 12 13  1  0  0  0  0
 12  4  1  0  0  0  0
 13 23  1  1  0  0  0
 14 25  1  0  0  0  0
 14 24  1  0  0  0  0
 14 13  1  0  0  0  0
 15 14  1  0  0  0  0
 16 15  2  0  0  0  0
 16 26  1  0  0  0  0
 17 16  1  0  0  0  0
 18 17  1  0  0  0  0
 18 19  2  0  0  0  0
 19 15  1  0  0  0  0
 20 13  1  0  0  0  0
 21 20  2  0  0  0  0
 22 12  1  0  0  0  0
 27 17  1  0  0  0  0
 28 18  1  0  0  0  0
 29 20  1  0  0  0  0
 29 38  1  0  0  0  0
 30 39  1  1  0  0  0
 30 29  1  0  0  0  0
 30 34  1  0  0  0  0
 31 30  1  0  0  0  0
 32 33  2  0  0  0  0
 32 31  1  0  0  0  0
 34 37  1  0  0  0  0
 35 34  2  0  0  0  0
 36 32  1  0  0  0  0
 40 31  1  0  0  0  0
 41 31  1  0  0  0  0
 42 36  1  0  0  0  0
M  END
$$$$
