AHE.pdb
 OpenBabel07022418003D

 45 45  0  0  1  0  0  0  0  0999 V2000
    4.1280   -3.5730    2.4020 C   0  0  0  0  0  0  0  0  0  0  0  0
    2.7160   -3.1480    2.1010 C   0  0  2  0  0  0  0  0  0  0  0  0
    2.4250   -3.2750    0.7090 N   0  0  0  0  0  0  0  0  0  0  0  0
    2.4200   -1.7610    2.5500 C   0  0  0  0  0  0  0  0  0  0  0  0
    2.6470   -1.4310    3.7440 O   0  0  0  0  0  0  0  0  0  0  0  0
    4.1400   -4.6880    2.4870 H   0  0  0  0  0  0  0  0  0  0  0  0
    4.8390   -3.3030    1.5980 H   0  0  0  0  0  0  0  0  0  0  0  0
    4.5060   -3.1940    3.3730 H   0  0  0  0  0  0  0  0  0  0  0  0
    2.0290   -3.8170    2.6990 H   0  0  0  0  0  0  0  0  0  0  0  0
    1.5620   -3.7800    0.4890 H   0  0  0  0  0  0  0  0  0  0  0  0
    3.2630   -3.6440    0.2170 H   0  0  0  0  0  0  0  0  0  0  0  0
    1.8880   -0.7720    1.6910 N   0  0  0  0  0  0  0  0  0  0  0  0
    1.5820    0.5800    2.0630 C   0  0  1  0  0  0  0  0  0  0  0  0
    2.4060    1.5120    1.2110 C   0  0  0  0  0  0  0  0  0  0  0  0
    2.1080    1.3190   -0.2480 C   0  0  0  0  0  0  0  0  0  0  0  0
    2.7820    0.4360   -1.0540 C   0  0  0  0  0  0  0  0  0  0  0  0
    2.2600    0.5260   -2.2860 N   0  0  0  0  0  0  0  0  0  0  0  0
    1.2830    1.4460   -2.2410 C   0  0  0  0  0  0  0  0  0  0  0  0
    1.1910    1.9300   -0.9970 N   0  0  0  0  0  0  0  0  0  0  0  0
    0.1510    0.9320    1.8530 C   0  0  0  0  0  0  0  0  0  0  0  0
   -0.2100    2.1120    2.1200 O   0  0  0  0  0  0  0  0  0  0  0  0
    1.6990   -1.0470    0.6950 H   0  0  0  0  0  0  0  0  0  0  0  0
    1.8730    0.7180    3.1290 H   0  0  0  0  0  0  0  0  0  0  0  0
    2.1340    2.5560    1.5070 H   0  0  0  0  0  0  0  0  0  0  0  0
    3.4820    1.3690    1.3400 H   0  0  0  0  0  0  0  0  0  0  0  0
    3.6040   -0.2390   -0.7800 H   0  0  0  0  0  0  0  0  0  0  0  0
    2.5210    0.0040   -3.1600 H   0  0  0  0  0  0  0  0  0  0  0  0
    0.6670    1.7410   -3.1060 H   0  0  0  0  0  0  0  0  0  0  0  0
   -0.8180    0.0480    1.3820 N   0  0  0  0  0  0  0  0  0  0  0  0
   -2.2300    0.5130    1.2120 C   0  0  1  0  0  0  0  0  0  0  0  0
   -2.4540    0.3320   -0.2530 C   0  0  0  0  0  0  0  0  0  0  0  0
   -3.7370    0.6810   -0.8650 C   0  0  0  0  0  0  0  0  0  0  0  0
   -4.8570   -0.1260   -0.4130 C   0  0  0  0  0  0  0  0  0  0  0  0
   -5.9970    0.3350   -0.1050 O   0  0  0  0  0  0  0  0  0  0  0  0
   -3.0920   -0.3040    2.0430 C   0  0  0  0  0  0  0  0  0  0  0  0
   -4.2890   -0.0770    2.2850 O   0  0  0  0  0  0  0  0  0  0  0  0
   -4.6550   -1.5150   -0.3160 O   0  0  0  0  0  0  0  0  0  0  0  0
   -2.5630   -1.4580    2.6430 O   0  0  0  0  0  0  0  0  0  0  0  0
   -0.5920   -0.9220    1.1460 H   0  0  0  0  0  0  0  0  0  0  0  0
   -2.2570    1.5970    1.4660 H   0  0  0  0  0  0  0  0  0  0  0  0
   -2.1680   -0.7500   -0.5160 H   0  0  0  0  0  0  0  0  0  0  0  0
   -1.6040    0.9120   -0.7660 H   0  0  0  0  0  0  0  0  0  0  0  0
   -3.9410    1.7850   -0.7890 H   0  0  0  0  0  0  0  0  0  0  0  0
   -3.6480    0.4850   -1.9860 H   0  0  0  0  0  0  0  0  0  0  0  0
   -5.1910   -2.0920    0.3300 H   0  0  0  0  0  0  0  0  0  0  0  0
  1  6  1  0  0  0  0
  1  8  1  0  0  0  0
  2  1  1  0  0  0  0
  2  4  1  0  0  0  0
  2  9  1  1  0  0  0
  3  2  1  0  0  0  0
  4  5  2  0  0  0  0
  7  1  1  0  0  0  0
 10  3  1  0  0  0  0
 11  3  1  0  0  0  0
 12 13  1  0  0  0  0
 12  4  1  0  0  0  0
 13 23  1  1  0  0  0
 14 25  1  0  0  0  0
 14 24  1  0  0  0  0
 14 13  1  0  0  0  0
 15 14  1  0  0  0  0
 16 26  1  0  0  0  0
 16 15  2  0  0  0  0
 17 18  1  0  0  0  0
 17 16  1  0  0  0  0
 18 19  2  0  0  0  0
 19 15  1  0  0  0  0
 20 13  1  0  0  0  0
 20 21  2  0  0  0  0
 22 12  1  0  0  0  0
 27 17  1  0  0  0  0
 28 18  1  0  0  0  0
 29 20  1  0  0  0  0
 30 29  1  0  0  0  0
 30 40  1  1  0  0  0
 30 35  1  0  0  0  0
 31 30  1  0  0  0  0
 32 43  1  0  0  0  0
 32 33  1  0  0  0  0
 32 31  1  0  0  0  0
 33 37  1  0  0  0  0
 33 34  2  0  0  0  0
 35 36  2  0  0  0  0
 35 38  1  0  0  0  0
 37 45  1  0  0  0  0
 39 29  1  0  0  0  0
 41 31  1  0  0  0  0
 42 31  1  0  0  0  0
 44 32  1  0  0  0  0
M  END
$$$$
