AHG.pdb
 OpenBabel07022418013D

 36 36  0  0  1  0  0  0  0  0999 V2000
   -0.4530   -3.5860    1.6250 C   0  0  0  0  0  0  0  0  0  0  0  0
    0.8830   -3.2350    2.2240 C   0  0  2  0  0  0  0  0  0  0  0  0
    1.0710   -3.8640    3.4980 N   0  0  0  0  0  0  0  0  0  0  0  0
    1.0920   -1.7730    2.3270 C   0  0  0  0  0  0  0  0  0  0  0  0
    1.3920   -1.2760    3.4410 O   0  0  0  0  0  0  0  0  0  0  0  0
   -0.3000   -4.0660    0.6400 H   0  0  0  0  0  0  0  0  0  0  0  0
   -1.0880   -2.6710    1.5460 H   0  0  0  0  0  0  0  0  0  0  0  0
   -0.9390   -4.3260    2.2910 H   0  0  0  0  0  0  0  0  0  0  0  0
    1.7100   -3.6150    1.5550 H   0  0  0  0  0  0  0  0  0  0  0  0
    1.6140   -3.2950    4.1810 H   0  0  0  0  0  0  0  0  0  0  0  0
    0.1770   -4.2260    3.9110 H   0  0  0  0  0  0  0  0  0  0  0  0
    0.9760   -0.8810    1.2350 N   0  0  0  0  0  0  0  0  0  0  0  0
    1.1880    0.5470    1.3700 C   0  0  1  0  0  0  0  0  0  0  0  0
    2.3770    1.0210    0.5860 C   0  0  0  0  0  0  0  0  0  0  0  0
    2.2660    0.7630   -0.8640 C   0  0  0  0  0  0  0  0  0  0  0  0
    2.6910   -0.3660   -1.5180 C   0  0  0  0  0  0  0  0  0  0  0  0
    2.4070   -0.2030   -2.8160 N   0  0  0  0  0  0  0  0  0  0  0  0
    1.8180    0.9910   -3.0030 C   0  0  0  0  0  0  0  0  0  0  0  0
    1.7390    1.5710   -1.7950 N   0  0  0  0  0  0  0  0  0  0  0  0
   -0.0440    1.3130    1.0860 C   0  0  0  0  0  0  0  0  0  0  0  0
   -0.0590    2.5680    1.1510 O   0  0  0  0  0  0  0  0  0  0  0  0
    0.7290   -1.2870    0.3100 H   0  0  0  0  0  0  0  0  0  0  0  0
    1.4380    0.7230    2.4470 H   0  0  0  0  0  0  0  0  0  0  0  0
    2.5530    2.1040    0.7320 H   0  0  0  0  0  0  0  0  0  0  0  0
    3.2710    0.5050    0.9930 H   0  0  0  0  0  0  0  0  0  0  0  0
    3.1680   -1.2460   -1.1070 H   0  0  0  0  0  0  0  0  0  0  0  0
    2.6010   -0.8870   -3.6080 H   0  0  0  0  0  0  0  0  0  0  0  0
    1.4800    1.3900   -3.9480 H   0  0  0  0  0  0  0  0  0  0  0  0
   -1.2720    0.6990    0.7270 N   0  0  0  0  0  0  0  0  0  0  0  0
   -2.4780    1.4540    0.4490 C   0  0  0  0  0  0  0  0  0  0  0  0
   -3.6090    0.5620    0.1000 C   0  0  0  0  0  0  0  0  0  0  0  0
   -4.7450    1.0140   -0.1760 O   0  0  0  0  0  0  0  0  0  0  0  0
   -3.4230   -0.8050    0.0740 O   0  0  0  0  0  0  0  0  0  0  0  0
   -1.3420   -0.3380    0.6510 H   0  0  0  0  0  0  0  0  0  0  0  0
   -2.7810    2.0950    1.3100 H   0  0  0  0  0  0  0  0  0  0  0  0
   -2.3460    2.1480   -0.4070 H   0  0  0  0  0  0  0  0  0  0  0  0
  1  2  1  0  0  0  0
  1  8  1  0  0  0  0
  2  9  1  6  0  0  0
  2  4  1  0  0  0  0
  2  3  1  0  0  0  0
  3 11  1  0  0  0  0
  3 10  1  0  0  0  0
  4  5  2  0  0  0  0
  6  1  1  0  0  0  0
  7  1  1  0  0  0  0
 12 13  1  0  0  0  0
 12  4  1  0  0  0  0
 13 23  1  1  0  0  0
 14 24  1  0  0  0  0
 14 25  1  0  0  0  0
 14 13  1  0  0  0  0
 15 14  1  0  0  0  0
 16 26  1  0  0  0  0
 16 15  2  0  0  0  0
 17 16  1  0  0  0  0
 18 17  1  0  0  0  0
 18 19  2  0  0  0  0
 19 15  1  0  0  0  0
 20 21  2  0  0  0  0
 20 13  1  0  0  0  0
 22 12  1  0  0  0  0
 27 17  1  0  0  0  0
 28 18  1  0  0  0  0
 29 20  1  0  0  0  0
 30 29  1  0  0  0  0
 30 35  1  0  0  0  0
 31 30  1  0  0  0  0
 32 31  2  0  0  0  0
 33 31  1  0  0  0  0
 34 29  1  0  0  0  0
 36 30  1  0  0  0  0
M  END
$$$$
