AHI.pdb
 OpenBabel07022418013D

 48 48  0  0  1  0  0  0  0  0999 V2000
    2.3260   -1.7310    2.7350 C   0  0  0  0  0  0  0  0  0  0  0  0
    3.0840   -0.6940    1.9390 C   0  0  2  0  0  0  0  0  0  0  0  0
    3.9500    0.0330    2.8390 N   0  0  0  0  0  0  0  0  0  0  0  0
    2.2140    0.2450    1.2350 C   0  0  0  0  0  0  0  0  0  0  0  0
    2.3110    1.4750    1.4740 O   0  0  0  0  0  0  0  0  0  0  0  0
    1.8320   -1.2670    3.6020 H   0  0  0  0  0  0  0  0  0  0  0  0
    1.6550   -2.3350    2.1070 H   0  0  0  0  0  0  0  0  0  0  0  0
    3.0900   -2.4390    3.1430 H   0  0  0  0  0  0  0  0  0  0  0  0
    3.7320   -1.2380    1.2190 H   0  0  0  0  0  0  0  0  0  0  0  0
    3.4770    0.8750    3.2580 H   0  0  0  0  0  0  0  0  0  0  0  0
    4.2610   -0.5460    3.6430 H   0  0  0  0  0  0  0  0  0  0  0  0
    1.2410   -0.1550    0.2730 N   0  0  0  0  0  0  0  0  0  0  0  0
    0.3990    0.7880   -0.4080 C   0  0  1  0  0  0  0  0  0  0  0  0
    0.5280    0.5810   -1.8890 C   0  0  0  0  0  0  0  0  0  0  0  0
    1.9450    0.7910   -2.2800 C   0  0  0  0  0  0  0  0  0  0  0  0
    2.4330    0.6800   -3.5920 C   0  0  0  0  0  0  0  0  0  0  0  0
    3.7520    0.9390   -3.5520 N   0  0  0  0  0  0  0  0  0  0  0  0
    4.1260    1.2060   -2.2960 C   0  0  0  0  0  0  0  0  0  0  0  0
    3.0190    1.1120   -1.5420 N   0  0  0  0  0  0  0  0  0  0  0  0
   -1.0240    0.6680    0.0380 C   0  0  0  0  0  0  0  0  0  0  0  0
   -1.8980    1.4220   -0.4600 O   0  0  0  0  0  0  0  0  0  0  0  0
    1.1600   -1.1640    0.0800 H   0  0  0  0  0  0  0  0  0  0  0  0
    0.7190    1.8210   -0.1570 H   0  0  0  0  0  0  0  0  0  0  0  0
   -0.1510    1.2950   -2.4190 H   0  0  0  0  0  0  0  0  0  0  0  0
    0.2570   -0.4380   -2.2100 H   0  0  0  0  0  0  0  0  0  0  0  0
    1.8380    0.4310   -4.4580 H   0  0  0  0  0  0  0  0  0  0  0  0
    4.4130    0.9360   -4.3810 H   0  0  0  0  0  0  0  0  0  0  0  0
    5.1370    1.4450   -2.0050 H   0  0  0  0  0  0  0  0  0  0  0  0
   -2.5300   -3.0550    3.1580 C   0  0  0  0  0  0  0  0  0  0  0  0
   -2.5690   -2.9630    1.6670 C   0  0  0  0  0  0  0  0  0  0  0  0
   -3.3230   -1.7970    1.1260 C   0  0  2  0  0  0  0  0  0  0  0  0
   -3.2420   -1.8900   -0.4040 C   0  0  0  0  0  0  0  0  0  0  0  0
   -2.7500   -0.4610    1.4960 C   0  0  2  0  0  0  0  0  0  0  0  0
   -1.3910   -0.2920    1.0200 N   0  0  0  0  0  0  0  0  0  0  0  0
   -2.8960   -0.1120    2.9180 C   0  0  0  0  0  0  0  0  0  0  0  0
   -1.9110    0.2770    3.5690 O   0  0  0  0  0  0  0  0  0  0  0  0
   -4.1220   -0.2160    3.5260 O   0  0  0  0  0  0  0  0  0  0  0  0
   -1.7480   -2.4650    3.6410 H   0  0  0  0  0  0  0  0  0  0  0  0
   -3.5480   -2.9020    3.6000 H   0  0  0  0  0  0  0  0  0  0  0  0
   -2.2910   -4.1320    3.4050 H   0  0  0  0  0  0  0  0  0  0  0  0
   -3.0880   -3.8850    1.2960 H   0  0  0  0  0  0  0  0  0  0  0  0
   -1.5320   -3.0400    1.2810 H   0  0  0  0  0  0  0  0  0  0  0  0
   -4.3580   -1.8460    1.4770 H   0  0  0  0  0  0  0  0  0  0  0  0
   -2.1910   -1.6400   -0.6590 H   0  0  0  0  0  0  0  0  0  0  0  0
   -3.8780   -1.1300   -0.8900 H   0  0  0  0  0  0  0  0  0  0  0  0
   -3.5160   -2.9300   -0.6550 H   0  0  0  0  0  0  0  0  0  0  0  0
   -3.3670    0.3010    0.9300 H   0  0  0  0  0  0  0  0  0  0  0  0
   -0.6170   -0.8890    1.3950 H   0  0  0  0  0  0  0  0  0  0  0  0
  1  8  1  0  0  0  0
  1  6  1  0  0  0  0
  2  9  1  6  0  0  0
  2  1  1  0  0  0  0
  2  3  1  0  0  0  0
  3 10  1  0  0  0  0
  3 11  1  0  0  0  0
  4  5  2  0  0  0  0
  4  2  1  0  0  0  0
  7  1  1  0  0  0  0
 12  4  1  0  0  0  0
 13 23  1  1  0  0  0
 13 20  1  0  0  0  0
 13 12  1  0  0  0  0
 14 13  1  0  0  0  0
 15 14  1  0  0  0  0
 15 19  1  0  0  0  0
 16 17  1  0  0  0  0
 16 15  2  0  0  0  0
 17 18  1  0  0  0  0
 18 28  1  0  0  0  0
 18 19  2  0  0  0  0
 20 34  1  0  0  0  0
 21 20  2  0  0  0  0
 22 12  1  0  0  0  0
 24 14  1  0  0  0  0
 25 14  1  0  0  0  0
 26 16  1  0  0  0  0
 27 17  1  0  0  0  0
 29 40  1  0  0  0  0
 29 39  1  0  0  0  0
 29 38  1  0  0  0  0
 30 29  1  0  0  0  0
 31 43  1  1  0  0  0
 31 33  1  0  0  0  0
 31 30  1  0  0  0  0
 32 31  1  0  0  0  0
 33 47  1  6  0  0  0
 33 35  1  0  0  0  0
 34 48  1  0  0  0  0
 34 33  1  0  0  0  0
 35 37  2  0  0  0  0
 35 36  1  0  0  0  0
 41 30  1  0  0  0  0
 42 30  1  0  0  0  0
 44 32  1  0  0  0  0
 45 32  1  0  0  0  0
 46 32  1  0  0  0  0
M  END
$$$$
