AHP.pdb
 OpenBabel07022418013D

 43 44  0  0  1  0  0  0  0  0999 V2000
    0.1820   -3.7220    1.5390 C   0  0  0  0  0  0  0  0  0  0  0  0
    1.1570   -3.4140    0.4440 C   0  0  2  0  0  0  0  0  0  0  0  0
    2.3450   -4.2230    0.6320 N   0  0  0  0  0  0  0  0  0  0  0  0
    1.4710   -1.9910    0.2810 C   0  0  0  0  0  0  0  0  0  0  0  0
    2.6670   -1.6180    0.3190 O   0  0  0  0  0  0  0  0  0  0  0  0
   -0.0410   -4.8220    1.4610 H   0  0  0  0  0  0  0  0  0  0  0  0
    0.6060   -3.5790    2.5480 H   0  0  0  0  0  0  0  0  0  0  0  0
   -0.7750   -3.1770    1.4340 H   0  0  0  0  0  0  0  0  0  0  0  0
    0.7230   -3.7570   -0.5370 H   0  0  0  0  0  0  0  0  0  0  0  0
    3.2150   -3.7450    0.3000 H   0  0  0  0  0  0  0  0  0  0  0  0
    2.2420   -5.1930    0.2850 H   0  0  0  0  0  0  0  0  0  0  0  0
    0.4830   -0.9630    0.0740 N   0  0  0  0  0  0  0  0  0  0  0  0
    0.8490    0.4140   -0.0890 C   0  0  1  0  0  0  0  0  0  0  0  0
    0.5230    0.8700   -1.5230 C   0  0  0  0  0  0  0  0  0  0  0  0
    1.2590    0.0680   -2.5150 C   0  0  0  0  0  0  0  0  0  0  0  0
    2.4930    0.2880   -3.0590 C   0  0  0  0  0  0  0  0  0  0  0  0
    2.7660   -0.7020   -3.9210 N   0  0  0  0  0  0  0  0  0  0  0  0
    1.7150   -1.5500   -3.9300 C   0  0  0  0  0  0  0  0  0  0  0  0
    0.8010   -1.0800   -3.0740 N   0  0  0  0  0  0  0  0  0  0  0  0
    0.1970    1.3350    0.8470 C   0  0  0  0  0  0  0  0  0  0  0  0
    0.4220    2.6080    0.7020 O   0  0  0  0  0  0  0  0  0  0  0  0
   -0.5040   -1.2790    0.0360 H   0  0  0  0  0  0  0  0  0  0  0  0
    1.9650    0.5300   -0.0170 H   0  0  0  0  0  0  0  0  0  0  0  0
   -0.5630    0.7210   -1.6670 H   0  0  0  0  0  0  0  0  0  0  0  0
    0.7750    1.9450   -1.6090 H   0  0  0  0  0  0  0  0  0  0  0  0
    3.1650    1.1170   -2.8480 H   0  0  0  0  0  0  0  0  0  0  0  0
    3.6290   -0.8190   -4.4950 H   0  0  0  0  0  0  0  0  0  0  0  0
    1.6290   -2.4500   -4.5240 H   0  0  0  0  0  0  0  0  0  0  0  0
   -0.6680    1.0170    1.9170 N   0  0  0  0  0  0  0  0  0  0  0  0
   -1.0680   -0.2980    2.3410 C   0  0  0  0  0  0  0  0  0  0  0  0
   -1.5370   -0.0330    3.7840 C   0  0  0  0  0  0  0  0  0  0  0  0
   -2.3840    1.2180    3.5220 C   0  0  0  0  0  0  0  0  0  0  0  0
   -1.3210    2.0320    2.7720 C   0  0  1  0  0  0  0  0  0  0  0  0
   -0.3520    2.5740    3.7450 C   0  0  0  0  0  0  0  0  0  0  0  0
    0.8500    2.2140    3.8240 O   0  0  0  0  0  0  0  0  0  0  0  0
   -0.7930    3.5390    4.6290 O   0  0  0  0  0  0  0  0  0  0  0  0
   -0.2240   -1.0170    2.3600 H   0  0  0  0  0  0  0  0  0  0  0  0
   -1.9520   -0.6620    1.7930 H   0  0  0  0  0  0  0  0  0  0  0  0
   -0.6660    0.2560    4.3740 H   0  0  0  0  0  0  0  0  0  0  0  0
   -2.1270   -0.8640    4.1710 H   0  0  0  0  0  0  0  0  0  0  0  0
   -2.6990    1.7000    4.4380 H   0  0  0  0  0  0  0  0  0  0  0  0
   -3.1570    0.9560    2.8030 H   0  0  0  0  0  0  0  0  0  0  0  0
   -1.7620    2.7910    2.1210 H   0  0  0  0  0  0  0  0  0  0  0  0
  1  7  1  0  0  0  0
  2  9  1  6  0  0  0
  2  3  1  0  0  0  0
  2  1  1  0  0  0  0
  4  5  2  0  0  0  0
  4  2  1  0  0  0  0
  6  1  1  0  0  0  0
  8  1  1  0  0  0  0
 10  3  1  0  0  0  0
 11  3  1  0  0  0  0
 12  4  1  0  0  0  0
 13 23  1  1  0  0  0
 13 12  1  0  0  0  0
 13 20  1  0  0  0  0
 14 13  1  0  0  0  0
 15 14  1  0  0  0  0
 16 26  1  0  0  0  0
 16 15  2  0  0  0  0
 17 16  1  0  0  0  0
 18 17  1  0  0  0  0
 18 19  2  0  0  0  0
 19 15  1  0  0  0  0
 20 29  1  0  0  0  0
 21 20  2  0  0  0  0
 22 12  1  0  0  0  0
 24 14  1  0  0  0  0
 25 14  1  0  0  0  0
 27 17  1  0  0  0  0
 28 18  1  0  0  0  0
 29 30  1  0  0  0  0
 29 33  1  0  0  0  0
 30 37  1  0  0  0  0
 30 31  1  0  0  0  0
 31 40  1  0  0  0  0
 31 39  1  0  0  0  0
 32 31  1  0  0  0  0
 32 41  1  0  0  0  0
 33 43  1  6  0  0  0
 33 32  1  0  0  0  0
 33 34  1  0  0  0  0
 34 35  2  0  0  0  0
 34 36  1  0  0  0  0
 38 30  1  0  0  0  0
 42 32  1  0  0  0  0
M  END
$$$$
