AHQ.pdb
 OpenBabel07022418013D

 46 46  0  0  1  0  0  0  0  0999 V2000
    0.6730   -1.2880    6.0840 C   0  0  0  0  0  0  0  0  0  0  0  0
    1.1500   -0.1280    5.2570 C   0  0  2  0  0  0  0  0  0  0  0  0
    0.2730    0.9890    5.4110 N   0  0  0  0  0  0  0  0  0  0  0  0
    1.2500   -0.5030    3.7980 C   0  0  0  0  0  0  0  0  0  0  0  0
    1.9750   -1.4600    3.4740 O   0  0  0  0  0  0  0  0  0  0  0  0
   -0.4390   -1.1990    6.2020 H   0  0  0  0  0  0  0  0  0  0  0  0
    0.9370   -2.2750    5.6560 H   0  0  0  0  0  0  0  0  0  0  0  0
    1.1630   -1.1950    7.0830 H   0  0  0  0  0  0  0  0  0  0  0  0
    2.1720    0.1950    5.5780 H   0  0  0  0  0  0  0  0  0  0  0  0
    0.7350    1.8350    5.8150 H   0  0  0  0  0  0  0  0  0  0  0  0
   -0.6440    0.7820    5.8250 H   0  0  0  0  0  0  0  0  0  0  0  0
    0.5300    0.2220    2.8130 N   0  0  0  0  0  0  0  0  0  0  0  0
    0.5460   -0.0230    1.4010 C   0  0  1  0  0  0  0  0  0  0  0  0
    1.9210   -0.3760    0.8750 C   0  0  0  0  0  0  0  0  0  0  0  0
    2.8260    0.7680    1.1190 C   0  0  0  0  0  0  0  0  0  0  0  0
    3.6610    1.0360    2.1670 C   0  0  0  0  0  0  0  0  0  0  0  0
    4.3200    2.2070    1.9400 N   0  0  0  0  0  0  0  0  0  0  0  0
    3.9070    2.6790    0.7590 C   0  0  0  0  0  0  0  0  0  0  0  0
    3.0130    1.8170    0.2680 N   0  0  0  0  0  0  0  0  0  0  0  0
   -0.5310   -0.8780    0.9130 C   0  0  0  0  0  0  0  0  0  0  0  0
   -1.3620   -1.3110    1.7830 O   0  0  0  0  0  0  0  0  0  0  0  0
   -0.0640    1.0160    3.2290 H   0  0  0  0  0  0  0  0  0  0  0  0
    0.4080    1.0360    0.9440 H   0  0  0  0  0  0  0  0  0  0  0  0
    2.3280   -1.3130    1.2470 H   0  0  0  0  0  0  0  0  0  0  0  0
    1.8320   -0.4460   -0.2590 H   0  0  0  0  0  0  0  0  0  0  0  0
    3.8230    0.4390    3.0610 H   0  0  0  0  0  0  0  0  0  0  0  0
    5.0170    2.6380    2.5870 H   0  0  0  0  0  0  0  0  0  0  0  0
    4.2410    3.5880    0.2980 H   0  0  0  0  0  0  0  0  0  0  0  0
   -2.7350    0.0950   -5.1860 N   0  0  0  0  0  0  0  0  0  0  0  0
   -3.0980   -0.3850   -3.9030 C   0  0  0  0  0  0  0  0  0  0  0  0
   -4.2860   -0.2390   -3.5260 O   0  0  0  0  0  0  0  0  0  0  0  0
   -2.1130   -1.0450   -3.0170 C   0  0  0  0  0  0  0  0  0  0  0  0
   -2.7940   -1.4380   -1.7380 C   0  0  0  0  0  0  0  0  0  0  0  0
   -1.8480   -2.1220   -0.7760 C   0  0  2  0  0  0  0  0  0  0  0  0
   -0.7380   -1.2670   -0.4150 N   0  0  0  0  0  0  0  0  0  0  0  0
   -1.3780   -3.4130   -1.3530 C   0  0  0  0  0  0  0  0  0  0  0  0
   -0.1830   -3.7160   -1.5050 O   0  0  0  0  0  0  0  0  0  0  0  0
   -2.3440   -4.3300   -1.7430 O   0  0  0  0  0  0  0  0  0  0  0  0
   -1.8570   -0.2920   -5.6110 H   0  0  0  0  0  0  0  0  0  0  0  0
   -3.2620    0.7870   -5.7260 H   0  0  0  0  0  0  0  0  0  0  0  0
   -1.2790   -0.3200   -2.8440 H   0  0  0  0  0  0  0  0  0  0  0  0
   -1.6940   -1.9160   -3.5590 H   0  0  0  0  0  0  0  0  0  0  0  0
   -3.2300   -0.5650   -1.2290 H   0  0  0  0  0  0  0  0  0  0  0  0
   -3.6380   -2.1050   -2.0050 H   0  0  0  0  0  0  0  0  0  0  0  0
   -2.4250   -2.3660    0.1380 H   0  0  0  0  0  0  0  0  0  0  0  0
   -0.0500   -0.9070   -1.1310 H   0  0  0  0  0  0  0  0  0  0  0  0
  1  6  1  0  0  0  0
  1  8  1  0  0  0  0
  2  3  1  0  0  0  0
  2  9  1  1  0  0  0
  2  1  1  0  0  0  0
  3 10  1  0  0  0  0
  3 11  1  0  0  0  0
  4  2  1  0  0  0  0
  5  4  2  0  0  0  0
  7  1  1  0  0  0  0
 12 22  1  0  0  0  0
 12  4  1  0  0  0  0
 13 23  1  6  0  0  0
 13 12  1  0  0  0  0
 14 15  1  0  0  0  0
 14 24  1  0  0  0  0
 14 13  1  0  0  0  0
 15 16  2  0  0  0  0
 16 26  1  0  0  0  0
 17 16  1  0  0  0  0
 17 27  1  0  0  0  0
 18 17  1  0  0  0  0
 19 18  2  0  0  0  0
 19 15  1  0  0  0  0
 20 13  1  0  0  0  0
 20 21  2  0  0  0  0
 25 14  1  0  0  0  0
 28 18  1  0  0  0  0
 29 30  1  0  0  0  0
 30 31  2  0  0  0  0
 30 32  1  0  0  0  0
 32 41  1  0  0  0  0
 32 33  1  0  0  0  0
 33 43  1  0  0  0  0
 33 34  1  0  0  0  0
 34 35  1  0  0  0  0
 34 45  1  1  0  0  0
 35 20  1  0  0  0  0
 36 34  1  0  0  0  0
 37 36  1  0  0  0  0
 38 36  2  0  0  0  0
 39 29  1  0  0  0  0
 40 29  1  0  0  0  0
 42 32  1  0  0  0  0
 44 33  1  0  0  0  0
 46 35  1  0  0  0  0
M  END
$$$$
