AHR.pdb
 OpenBabel07022418003D

 52 52  0  0  1  0  0  0  0  0999 V2000
   -1.4150    0.1470    5.1710 C   0  0  0  0  0  0  0  0  0  0  0  0
   -0.7820    1.3600    4.5250 C   0  0  2  0  0  0  0  0  0  0  0  0
   -1.6330    2.5150    4.5930 N   0  0  0  0  0  0  0  0  0  0  0  0
   -0.4240    1.0280    3.1170 C   0  0  0  0  0  0  0  0  0  0  0  0
   -0.8860    1.7780    2.2060 O   0  0  0  0  0  0  0  0  0  0  0  0
   -0.6290   -0.4290    5.7030 H   0  0  0  0  0  0  0  0  0  0  0  0
   -2.2140    0.4330    5.9030 H   0  0  0  0  0  0  0  0  0  0  0  0
   -1.8790   -0.4560    4.3680 H   0  0  0  0  0  0  0  0  0  0  0  0
    0.1910    1.5670    5.0560 H   0  0  0  0  0  0  0  0  0  0  0  0
   -1.9550    2.8470    3.6520 H   0  0  0  0  0  0  0  0  0  0  0  0
   -2.4410    2.3910    5.2620 H   0  0  0  0  0  0  0  0  0  0  0  0
    0.4040   -0.0930    2.8710 N   0  0  0  0  0  0  0  0  0  0  0  0
    0.7650   -0.4300    1.5170 C   0  0  1  0  0  0  0  0  0  0  0  0
    2.2480   -0.4930    1.3610 C   0  0  0  0  0  0  0  0  0  0  0  0
    2.8250    0.8320    1.6980 C   0  0  0  0  0  0  0  0  0  0  0  0
    4.1950    1.1150    1.6530 C   0  0  0  0  0  0  0  0  0  0  0  0
    4.3190    2.3960    2.0190 N   0  0  0  0  0  0  0  0  0  0  0  0
    3.1420    2.9410    2.2910 C   0  0  0  0  0  0  0  0  0  0  0  0
    2.2290    1.9760    2.0920 N   0  0  0  0  0  0  0  0  0  0  0  0
    0.1090   -1.7240    1.1620 C   0  0  0  0  0  0  0  0  0  0  0  0
   -0.6190   -2.3030    2.0050 O   0  0  0  0  0  0  0  0  0  0  0  0
    0.7420   -0.6620    3.6890 H   0  0  0  0  0  0  0  0  0  0  0  0
    0.3840    0.3920    0.8540 H   0  0  0  0  0  0  0  0  0  0  0  0
    2.6580   -1.2030    2.1340 H   0  0  0  0  0  0  0  0  0  0  0  0
    2.5760   -0.8590    0.3750 H   0  0  0  0  0  0  0  0  0  0  0  0
    4.9550    0.4010    1.3700 H   0  0  0  0  0  0  0  0  0  0  0  0
    5.2310    2.9060    2.0830 H   0  0  0  0  0  0  0  0  0  0  0  0
    2.9430    3.9500    2.6070 H   0  0  0  0  0  0  0  0  0  0  0  0
   -0.7040    0.0220   -4.3480 N   0  0  0  0  0  0  0  0  0  0  0  0
   -1.8330   -0.2480   -3.5340 C   0  0  0  0  0  0  0  0  0  0  0  0
   -2.3240    0.6690   -2.7600 N   0  0  0  0  0  0  0  0  0  0  0  0
   -2.4040   -1.5460   -3.5910 N   0  0  0  0  0  0  0  0  0  0  0  0
   -3.1900   -2.0500   -2.5000 C   0  0  0  0  0  0  0  0  0  0  0  0
   -2.3260   -2.2890   -1.2740 C   0  0  0  0  0  0  0  0  0  0  0  0
   -1.2710   -3.3000   -1.6540 C   0  0  0  0  0  0  0  0  0  0  0  0
   -0.3560   -3.6010   -0.4750 C   0  0  2  0  0  0  0  0  0  0  0  0
    0.2680   -2.3440   -0.0980 N   0  0  0  0  0  0  0  0  0  0  0  0
    0.6340   -4.6390   -0.8030 C   0  0  0  0  0  0  0  0  0  0  0  0
    0.2410   -5.7770   -1.1480 O   0  0  0  0  0  0  0  0  0  0  0  0
    1.9980   -4.4180   -0.7470 O   0  0  0  0  0  0  0  0  0  0  0  0
    0.1810   -0.5290   -4.2750 H   0  0  0  0  0  0  0  0  0  0  0  0
   -0.7600    0.7880   -5.0340 H   0  0  0  0  0  0  0  0  0  0  0  0
   -3.1360    0.5470   -2.1440 H   0  0  0  0  0  0  0  0  0  0  0  0
   -2.2610   -2.1530   -4.4270 H   0  0  0  0  0  0  0  0  0  0  0  0
   -3.9640   -1.3110   -2.2320 H   0  0  0  0  0  0  0  0  0  0  0  0
   -3.7140   -2.9980   -2.7700 H   0  0  0  0  0  0  0  0  0  0  0  0
   -2.9130   -2.7010   -0.4500 H   0  0  0  0  0  0  0  0  0  0  0  0
   -1.7920   -1.3550   -1.0080 H   0  0  0  0  0  0  0  0  0  0  0  0
   -0.6950   -2.8490   -2.5020 H   0  0  0  0  0  0  0  0  0  0  0  0
   -1.7090   -4.2390   -2.0590 H   0  0  0  0  0  0  0  0  0  0  0  0
   -0.9930   -4.0050    0.3310 H   0  0  0  0  0  0  0  0  0  0  0  0
    0.8720   -1.8690   -0.8040 H   0  0  0  0  0  0  0  0  0  0  0  0
  1  6  1  0  0  0  0
  1  7  1  0  0  0  0
  2  3  1  0  0  0  0
  2  9  1  1  0  0  0
  2  1  1  0  0  0  0
  3 11  1  0  0  0  0
  4  2  1  0  0  0  0
  5  4  2  0  0  0  0
  8  1  1  0  0  0  0
 10  3  1  0  0  0  0
 12  4  1  0  0  0  0
 12 22  1  0  0  0  0
 13 23  1  6  0  0  0
 13 12  1  0  0  0  0
 14 13  1  0  0  0  0
 14 15  1  0  0  0  0
 14 24  1  0  0  0  0
 15 19  1  0  0  0  0
 16 15  2  0  0  0  0
 16 17  1  0  0  0  0
 17 27  1  0  0  0  0
 17 18  1  0  0  0  0
 18 28  1  0  0  0  0
 19 18  2  0  0  0  0
 20 13  1  0  0  0  0
 20 21  2  0  0  0  0
 25 14  1  0  0  0  0
 26 16  1  0  0  0  0
 29 41  1  0  0  0  0
 29 30  1  0  0  0  0
 30 31  2  0  0  0  0
 31 43  1  0  0  0  0
 32 30  1  0  0  0  0
 32 33  1  0  0  0  0
 33 45  1  0  0  0  0
 33 34  1  0  0  0  0
 34 48  1  0  0  0  0
 34 47  1  0  0  0  0
 35 34  1  0  0  0  0
 35 36  1  0  0  0  0
 36 37  1  0  0  0  0
 36 51  1  1  0  0  0
 37 20  1  0  0  0  0
 38 40  1  0  0  0  0
 38 36  1  0  0  0  0
 39 38  2  0  0  0  0
 42 29  1  0  0  0  0
 44 32  1  0  0  0  0
 46 33  1  0  0  0  0
 49 35  1  0  0  0  0
 50 35  1  0  0  0  0
 52 37  1  0  0  0  0
M  END
$$$$
