AHS.pdb
 OpenBabel07022418013D

 40 40  0  0  1  0  0  0  0  0999 V2000
    1.7990   -1.2540   -3.6960 C   0  0  0  0  0  0  0  0  0  0  0  0
    0.8720   -2.0200   -2.7750 C   0  0  2  0  0  0  0  0  0  0  0  0
   -0.4760   -1.7560   -3.1850 N   0  0  0  0  0  0  0  0  0  0  0  0
    1.1480   -1.5930   -1.3860 C   0  0  0  0  0  0  0  0  0  0  0  0
    2.3070   -1.7790   -0.9310 O   0  0  0  0  0  0  0  0  0  0  0  0
    1.3250   -0.3170   -4.0790 H   0  0  0  0  0  0  0  0  0  0  0  0
    2.7820   -1.0420   -3.2100 H   0  0  0  0  0  0  0  0  0  0  0  0
    2.0270   -1.9080   -4.5750 H   0  0  0  0  0  0  0  0  0  0  0  0
    1.0620   -3.1000   -2.9210 H   0  0  0  0  0  0  0  0  0  0  0  0
   -0.5740   -2.1090   -4.1680 H   0  0  0  0  0  0  0  0  0  0  0  0
   -0.6600   -0.7200   -3.2360 H   0  0  0  0  0  0  0  0  0  0  0  0
    0.1710   -0.9860   -0.5470 N   0  0  0  0  0  0  0  0  0  0  0  0
    0.4660   -0.5810    0.7970 C   0  0  1  0  0  0  0  0  0  0  0  0
    0.2680    0.9160    0.9900 C   0  0  0  0  0  0  0  0  0  0  0  0
    1.1560    1.6990    0.0830 C   0  0  0  0  0  0  0  0  0  0  0  0
    2.4410    2.1380    0.3610 C   0  0  0  0  0  0  0  0  0  0  0  0
    2.9290    2.8190   -0.7110 N   0  0  0  0  0  0  0  0  0  0  0  0
    1.9510    2.7990   -1.6410 C   0  0  0  0  0  0  0  0  0  0  0  0
    0.9030    2.1340   -1.1650 N   0  0  0  0  0  0  0  0  0  0  0  0
   -0.4370   -1.2440    1.7920 C   0  0  0  0  0  0  0  0  0  0  0  0
   -1.3220   -2.0460    1.4050 O   0  0  0  0  0  0  0  0  0  0  0  0
   -0.7860   -0.8550   -0.9840 H   0  0  0  0  0  0  0  0  0  0  0  0
    1.5210   -0.8230    1.0090 H   0  0  0  0  0  0  0  0  0  0  0  0
    0.5070    1.1350    2.0650 H   0  0  0  0  0  0  0  0  0  0  0  0
   -0.7980    1.1990    0.8670 H   0  0  0  0  0  0  0  0  0  0  0  0
    2.9800    1.9780    1.2640 H   0  0  0  0  0  0  0  0  0  0  0  0
    3.8730    3.2670   -0.7940 H   0  0  0  0  0  0  0  0  0  0  0  0
    2.0950    3.2850   -2.6100 H   0  0  0  0  0  0  0  0  0  0  0  0
   -1.3540   -2.9660    6.0700 O   0  0  0  0  0  0  0  0  0  0  0  0
   -0.4180   -2.4650    5.1580 C   0  0  0  0  0  0  0  0  0  0  0  0
   -1.1720   -1.6040    4.1830 C   0  0  2  0  0  0  0  0  0  0  0  0
   -0.3490   -1.0120    3.1770 N   0  0  0  0  0  0  0  0  0  0  0  0
   -1.9980   -0.6020    4.9090 C   0  0  0  0  0  0  0  0  0  0  0  0
   -1.9040    0.5930    4.5920 O   0  0  0  0  0  0  0  0  0  0  0  0
   -2.8670   -0.9650    5.9260 O   0  0  0  0  0  0  0  0  0  0  0  0
   -0.9840   -2.9960    6.9970 H   0  0  0  0  0  0  0  0  0  0  0  0
    0.3130   -1.8790    5.7310 H   0  0  0  0  0  0  0  0  0  0  0  0
    0.0060   -3.3390    4.6370 H   0  0  0  0  0  0  0  0  0  0  0  0
   -1.8960   -2.2810    3.6600 H   0  0  0  0  0  0  0  0  0  0  0  0
    0.3990   -0.3350    3.4960 H   0  0  0  0  0  0  0  0  0  0  0  0
  1  7  1  0  0  0  0
  1  2  1  0  0  0  0
  2  9  1  6  0  0  0
  2  4  1  0  0  0  0
  3  2  1  0  0  0  0
  4  5  2  0  0  0  0
  4 12  1  0  0  0  0
  6  1  1  0  0  0  0
  8  1  1  0  0  0  0
 10  3  1  0  0  0  0
 11  3  1  0  0  0  0
 12 13  1  0  0  0  0
 13 14  1  0  0  0  0
 13 23  1  1  0  0  0
 13 20  1  0  0  0  0
 14 24  1  0  0  0  0
 15 16  2  0  0  0  0
 15 14  1  0  0  0  0
 16 26  1  0  0  0  0
 17 16  1  0  0  0  0
 18 19  2  0  0  0  0
 18 17  1  0  0  0  0
 19 15  1  0  0  0  0
 20 32  1  0  0  0  0
 21 20  2  0  0  0  0
 22 12  1  0  0  0  0
 25 14  1  0  0  0  0
 27 17  1  0  0  0  0
 28 18  1  0  0  0  0
 29 36  1  0  0  0  0
 30 37  1  0  0  0  0
 30 29  1  0  0  0  0
 31 39  1  6  0  0  0
 31 33  1  0  0  0  0
 31 30  1  0  0  0  0
 32 40  1  0  0  0  0
 32 31  1  0  0  0  0
 33 35  1  0  0  0  0
 34 33  2  0  0  0  0
 38 30  1  0  0  0  0
M  END
$$$$
