AHY.pdb
 OpenBabel07022418013D

 50 51  0  0  1  0  0  0  0  0999 V2000
    4.1770   -1.6200    0.7780 C   0  0  0  0  0  0  0  0  0  0  0  0
    2.7470   -2.0920    0.6130 C   0  0  2  0  0  0  0  0  0  0  0  0
    2.5230   -2.3150   -0.8000 N   0  0  0  0  0  0  0  0  0  0  0  0
    1.7780   -1.0860    1.1140 C   0  0  0  0  0  0  0  0  0  0  0  0
    0.9580   -0.6020    0.3020 O   0  0  0  0  0  0  0  0  0  0  0  0
    4.2480   -0.5220    0.9230 H   0  0  0  0  0  0  0  0  0  0  0  0
    4.6330   -2.1420    1.6630 H   0  0  0  0  0  0  0  0  0  0  0  0
    4.7770   -1.9180   -0.1060 H   0  0  0  0  0  0  0  0  0  0  0  0
    2.6040   -3.0160    1.2100 H   0  0  0  0  0  0  0  0  0  0  0  0
    1.7280   -1.7100   -1.1370 H   0  0  0  0  0  0  0  0  0  0  0  0
    3.3570   -2.1160   -1.3690 H   0  0  0  0  0  0  0  0  0  0  0  0
    1.7700   -0.6740    2.4720 N   0  0  0  0  0  0  0  0  0  0  0  0
    0.8470    0.2880    2.9940 C   0  0  1  0  0  0  0  0  0  0  0  0
    1.1950    1.7260    2.7530 C   0  0  0  0  0  0  0  0  0  0  0  0
    1.3270    2.1290    1.3430 C   0  0  0  0  0  0  0  0  0  0  0  0
    2.5210    2.1270    0.6350 C   0  0  0  0  0  0  0  0  0  0  0  0
    2.3070    2.5710   -0.6100 N   0  0  0  0  0  0  0  0  0  0  0  0
    1.0000    2.8420   -0.6700 C   0  0  0  0  0  0  0  0  0  0  0  0
    0.3950    2.5830    0.4920 N   0  0  0  0  0  0  0  0  0  0  0  0
   -0.5830   -0.0260    2.7830 C   0  0  0  0  0  0  0  0  0  0  0  0
   -1.4260    0.8980    3.0720 O   0  0  0  0  0  0  0  0  0  0  0  0
    2.4980   -1.1180    3.1180 H   0  0  0  0  0  0  0  0  0  0  0  0
    0.9340    0.2120    4.1650 H   0  0  0  0  0  0  0  0  0  0  0  0
    2.1480    1.9970    3.2700 H   0  0  0  0  0  0  0  0  0  0  0  0
    0.4220    2.3890    3.2160 H   0  0  0  0  0  0  0  0  0  0  0  0
    3.4730    1.8100    1.0480 H   0  0  0  0  0  0  0  0  0  0  0  0
    3.0020    2.6890   -1.3900 H   0  0  0  0  0  0  0  0  0  0  0  0
    0.4820    3.2290   -1.5580 H   0  0  0  0  0  0  0  0  0  0  0  0
   -1.5510   -0.3890   -4.1880 O   0  0  0  0  0  0  0  0  0  0  0  0
   -1.9450   -0.7890   -2.9160 C   0  0  0  0  0  0  0  0  0  0  0  0
   -3.0770   -0.3240   -2.2990 C   0  0  0  0  0  0  0  0  0  0  0  0
   -3.4250   -0.7520   -1.0350 C   0  0  0  0  0  0  0  0  0  0  0  0
   -2.6460   -1.6630   -0.3500 C   0  0  0  0  0  0  0  0  0  0  0  0
   -2.9710   -2.1670    0.9690 C   0  0  0  0  0  0  0  0  0  0  0  0
   -2.5340   -1.4230    2.1590 C   0  0  2  0  0  0  0  0  0  0  0  0
   -1.0940   -1.2440    2.3050 N   0  0  0  0  0  0  0  0  0  0  0  0
   -2.9240   -2.2850    3.3460 C   0  0  0  0  0  0  0  0  0  0  0  0
   -4.1220   -2.6250    3.5140 O   0  0  0  0  0  0  0  0  0  0  0  0
   -1.5150   -2.1150   -0.9890 C   0  0  0  0  0  0  0  0  0  0  0  0
   -1.1560   -1.6920   -2.2570 C   0  0  0  0  0  0  0  0  0  0  0  0
   -2.0000   -2.7220    4.2740 O   0  0  0  0  0  0  0  0  0  0  0  0
   -1.2320   -1.0690   -4.8830 H   0  0  0  0  0  0  0  0  0  0  0  0
   -3.6960    0.3850   -2.8170 H   0  0  0  0  0  0  0  0  0  0  0  0
   -4.3280   -0.3590   -0.5840 H   0  0  0  0  0  0  0  0  0  0  0  0
   -4.0820   -2.3100    1.0380 H   0  0  0  0  0  0  0  0  0  0  0  0
   -2.5370   -3.2130    1.0660 H   0  0  0  0  0  0  0  0  0  0  0  0
   -3.0320   -0.4370    2.3280 H   0  0  0  0  0  0  0  0  0  0  0  0
   -0.4510   -2.0150    2.0690 H   0  0  0  0  0  0  0  0  0  0  0  0
   -0.8460   -2.8420   -0.5040 H   0  0  0  0  0  0  0  0  0  0  0  0
   -0.2480   -2.0850   -2.7160 H   0  0  0  0  0  0  0  0  0  0  0  0
  1  6  1  0  0  0  0
  1  7  1  0  0  0  0
  2  1  1  0  0  0  0
  2  4  1  0  0  0  0
  2  9  1  1  0  0  0
  3  2  1  0  0  0  0
  4 12  1  0  0  0  0
  5  4  2  0  0  0  0
  8  1  1  0  0  0  0
 10  3  1  0  0  0  0
 11  3  1  0  0  0  0
 12 13  1  0  0  0  0
 12 22  1  0  0  0  0
 13 23  1  1  0  0  0
 14 13  1  0  0  0  0
 14 25  1  0  0  0  0
 14 24  1  0  0  0  0
 15 14  1  0  0  0  0
 16 26  1  0  0  0  0
 16 15  2  0  0  0  0
 17 16  1  0  0  0  0
 18 17  1  0  0  0  0
 18 19  2  0  0  0  0
 19 15  1  0  0  0  0
 20 13  1  0  0  0  0
 20 21  2  0  0  0  0
 27 17  1  0  0  0  0
 28 18  1  0  0  0  0
 29 30  1  0  0  0  0
 30 31  2  0  0  0  0
 30 40  1  0  0  0  0
 31 32  1  0  0  0  0
 32 44  1  0  0  0  0
 32 33  2  0  0  0  0
 33 34  1  0  0  0  0
 34 45  1  0  0  0  0
 34 46  1  0  0  0  0
 34 35  1  0  0  0  0
 35 36  1  0  0  0  0
 35 47  1  1  0  0  0
 35 37  1  0  0  0  0
 36 20  1  0  0  0  0
 37 38  2  0  0  0  0
 37 41  1  0  0  0  0
 39 49  1  0  0  0  0
 39 33  1  0  0  0  0
 40 39  2  0  0  0  0
 42 29  1  0  0  0  0
 43 31  1  0  0  0  0
 48 36  1  0  0  0  0
 50 40  1  0  0  0  0
M  END
$$$$
