AIA.pdb
 OpenBabel07022418013D

 41 40  0  0  1  0  0  0  0  0999 V2000
   -0.1220   -4.7980    1.5410 C   0  0  0  0  0  0  0  0  0  0  0  0
    0.3960   -3.6990    2.4690 C   0  0  2  0  0  0  0  0  0  0  0  0
   -0.4450   -3.6710    3.6330 N   0  0  0  0  0  0  0  0  0  0  0  0
    0.3390   -2.3750    1.7890 C   0  0  0  0  0  0  0  0  0  0  0  0
   -0.3890   -1.4920    2.3030 O   0  0  0  0  0  0  0  0  0  0  0  0
    0.6070   -4.9600    0.6980 H   0  0  0  0  0  0  0  0  0  0  0  0
   -1.0500   -4.4190    1.0620 H   0  0  0  0  0  0  0  0  0  0  0  0
   -0.3000   -5.7120    2.1210 H   0  0  0  0  0  0  0  0  0  0  0  0
    1.4490   -3.9300    2.7310 H   0  0  0  0  0  0  0  0  0  0  0  0
    0.0400   -3.3810    4.4960 H   0  0  0  0  0  0  0  0  0  0  0  0
   -0.9390   -4.5680    3.8050 H   0  0  0  0  0  0  0  0  0  0  0  0
   -2.1970   -1.6350   -1.9390 C   0  0  0  0  0  0  0  0  0  0  0  0
   -0.7790   -1.7430   -1.4740 C   0  0  0  0  0  0  0  0  0  0  0  0
   -0.4160   -0.6410   -0.4830 C   0  0  2  0  0  0  0  0  0  0  0  0
   -0.6200    0.6850   -1.2120 C   0  0  0  0  0  0  0  0  0  0  0  0
    0.9840   -0.7890   -0.0240 C   0  0  2  0  0  0  0  0  0  0  0  0
    1.0770   -2.1170    0.6070 N   0  0  0  0  0  0  0  0  0  0  0  0
    1.5150    0.1730    0.9200 C   0  0  0  0  0  0  0  0  0  0  0  0
    1.8800   -0.2540    2.0750 O   0  0  0  0  0  0  0  0  0  0  0  0
   -2.5520   -2.6540   -2.2000 H   0  0  0  0  0  0  0  0  0  0  0  0
   -2.2660   -1.0500   -2.9020 H   0  0  0  0  0  0  0  0  0  0  0  0
   -2.8600   -1.1950   -1.1660 H   0  0  0  0  0  0  0  0  0  0  0  0
   -0.1270   -1.7080   -2.3700 H   0  0  0  0  0  0  0  0  0  0  0  0
   -0.6420   -2.7380   -1.0020 H   0  0  0  0  0  0  0  0  0  0  0  0
   -1.1710   -0.6680    0.3030 H   0  0  0  0  0  0  0  0  0  0  0  0
    0.2210    0.9410   -1.8830 H   0  0  0  0  0  0  0  0  0  0  0  0
   -1.5010    0.5930   -1.9190 H   0  0  0  0  0  0  0  0  0  0  0  0
   -0.8370    1.5230   -0.5280 H   0  0  0  0  0  0  0  0  0  0  0  0
    1.6750   -0.8220   -0.8990 H   0  0  0  0  0  0  0  0  0  0  0  0
    1.6620   -2.8740    0.2190 H   0  0  0  0  0  0  0  0  0  0  0  0
    3.5130    3.0830    1.4030 C   0  0  0  0  0  0  0  0  0  0  0  0
    2.2410    2.3800    1.8010 C   0  0  2  0  0  0  0  0  0  0  0  0
    1.6960    1.5690    0.7390 N   0  0  0  0  0  0  0  0  0  0  0  0
    1.2600    3.4370    2.2250 C   0  0  0  0  0  0  0  0  0  0  0  0
    1.5640    4.2400    3.1420 O   0  0  0  0  0  0  0  0  0  0  0  0
    0.0310    3.5110    1.5940 O   0  0  0  0  0  0  0  0  0  0  0  0
    4.4010    2.4190    1.4480 H   0  0  0  0  0  0  0  0  0  0  0  0
    3.6900    3.8830    2.1770 H   0  0  0  0  0  0  0  0  0  0  0  0
    3.4620    3.5610    0.4240 H   0  0  0  0  0  0  0  0  0  0  0  0
    2.4730    1.7780    2.7030 H   0  0  0  0  0  0  0  0  0  0  0  0
    1.4380    1.9770   -0.1610 H   0  0  0  0  0  0  0  0  0  0  0  0
  1  8  1  0  0  0  0
  1  2  1  0  0  0  0
  2  9  1  1  0  0  0
  2  3  1  0  0  0  0
  3 11  1  0  0  0  0
  3 10  1  0  0  0  0
  4  5  2  0  0  0  0
  4  2  1  0  0  0  0
  6  1  1  0  0  0  0
  7  1  1  0  0  0  0
 12 13  1  0  0  0  0
 12 22  1  0  0  0  0
 13 24  1  0  0  0  0
 13 14  1  0  0  0  0
 14 16  1  0  0  0  0
 14 25  1  1  0  0  0
 15 28  1  0  0  0  0
 15 14  1  0  0  0  0
 16 29  1  6  0  0  0
 16 17  1  0  0  0  0
 16 18  1  0  0  0  0
 17  4  1  0  0  0  0
 18 19  2  0  0  0  0
 20 12  1  0  0  0  0
 21 12  1  0  0  0  0
 23 13  1  0  0  0  0
 26 15  1  0  0  0  0
 27 15  1  0  0  0  0
 30 17  1  0  0  0  0
 31 37  1  0  0  0  0
 31 32  1  0  0  0  0
 31 38  1  0  0  0  0
 32 34  1  0  0  0  0
 32 40  1  1  0  0  0
 33 18  1  0  0  0  0
 33 32  1  0  0  0  0
 34 35  1  0  0  0  0
 36 34  2  0  0  0  0
 39 31  1  0  0  0  0
 41 33  1  0  0  0  0
M  END
$$$$
