AIC.pdb
 OpenBabel07022418013D

 42 41  0  0  1  0  0  0  0  0999 V2000
   -0.5810   -3.9690    2.0740 C   0  0  0  0  0  0  0  0  0  0  0  0
   -1.3770   -2.7520    1.6400 C   0  0  2  0  0  0  0  0  0  0  0  0
   -2.5860   -3.1810    1.0130 N   0  0  0  0  0  0  0  0  0  0  0  0
   -0.5600   -1.8790    0.7410 C   0  0  0  0  0  0  0  0  0  0  0  0
   -0.9490   -1.6020   -0.4040 O   0  0  0  0  0  0  0  0  0  0  0  0
   -0.5250   -4.6600    1.2100 H   0  0  0  0  0  0  0  0  0  0  0  0
   -1.1640   -4.4810    2.8550 H   0  0  0  0  0  0  0  0  0  0  0  0
    0.4070   -3.7030    2.4840 H   0  0  0  0  0  0  0  0  0  0  0  0
   -1.6310   -2.1330    2.5220 H   0  0  0  0  0  0  0  0  0  0  0  0
   -2.7110   -2.7950    0.0470 H   0  0  0  0  0  0  0  0  0  0  0  0
   -3.4370   -3.0350    1.6010 H   0  0  0  0  0  0  0  0  0  0  0  0
    1.8580   -3.4150   -0.4930 C   0  0  0  0  0  0  0  0  0  0  0  0
    2.5140   -2.2290   -1.0940 C   0  0  0  0  0  0  0  0  0  0  0  0
    1.8290   -0.9100   -0.9680 C   0  0  2  0  0  0  0  0  0  0  0  0
    2.7210    0.1030   -1.6730 C   0  0  0  0  0  0  0  0  0  0  0  0
    1.5620   -0.5130    0.4480 C   0  0  2  0  0  0  0  0  0  0  0  0
    0.6900   -1.3490    1.1940 N   0  0  0  0  0  0  0  0  0  0  0  0
    1.3130    0.9290    0.6340 C   0  0  0  0  0  0  0  0  0  0  0  0
    2.0060    1.7930    0.0400 O   0  0  0  0  0  0  0  0  0  0  0  0
    2.5510   -4.3120   -0.6760 H   0  0  0  0  0  0  0  0  0  0  0  0
    1.8460   -3.3300    0.5960 H   0  0  0  0  0  0  0  0  0  0  0  0
    0.8780   -3.6150   -0.9270 H   0  0  0  0  0  0  0  0  0  0  0  0
    2.6740   -2.4870   -2.1910 H   0  0  0  0  0  0  0  0  0  0  0  0
    3.5630   -2.0830   -0.6830 H   0  0  0  0  0  0  0  0  0  0  0  0
    0.9150   -0.9610   -1.5980 H   0  0  0  0  0  0  0  0  0  0  0  0
    3.1790   -0.4250   -2.5620 H   0  0  0  0  0  0  0  0  0  0  0  0
    2.0900    0.8950   -2.1130 H   0  0  0  0  0  0  0  0  0  0  0  0
    3.5570    0.4450   -1.0670 H   0  0  0  0  0  0  0  0  0  0  0  0
    2.6040   -0.6940    0.9310 H   0  0  0  0  0  0  0  0  0  0  0  0
    0.9310   -1.6450    2.1920 H   0  0  0  0  0  0  0  0  0  0  0  0
    0.2830    1.4470    1.4870 N   0  0  0  0  0  0  0  0  0  0  0  0
    0.0330    2.8360    1.6740 C   0  0  1  0  0  0  0  0  0  0  0  0
   -1.3600    3.2740    1.3340 C   0  0  0  0  0  0  0  0  0  0  0  0
   -2.5090    2.3680    2.3920 S   0  0  0  0  0  0  0  0  0  0  0  0
    0.2770    3.1770    3.0980 C   0  0  0  0  0  0  0  0  0  0  0  0
    0.1310    4.3520    3.5530 O   0  0  0  0  0  0  0  0  0  0  0  0
    0.6810    2.2040    3.9990 O   0  0  0  0  0  0  0  0  0  0  0  0
   -0.3320    0.7750    2.0110 H   0  0  0  0  0  0  0  0  0  0  0  0
    0.7280    3.4890    1.0820 H   0  0  0  0  0  0  0  0  0  0  0  0
   -1.4390    4.3470    1.6110 H   0  0  0  0  0  0  0  0  0  0  0  0
   -1.6060    3.2110    0.2640 H   0  0  0  0  0  0  0  0  0  0  0  0
   -3.5590    1.8040    1.6170 H   0  0  0  0  0  0  0  0  0  0  0  0
  1  8  1  0  0  0  0
  1  7  1  0  0  0  0
  2  1  1  0  0  0  0
  2  9  1  1  0  0  0
  3 11  1  0  0  0  0
  3  2  1  0  0  0  0
  4 17  1  0  0  0  0
  4  2  1  0  0  0  0
  5  4  2  0  0  0  0
  6  1  1  0  0  0  0
 10  3  1  0  0  0  0
 12 21  1  0  0  0  0
 13 14  1  0  0  0  0
 13 24  1  0  0  0  0
 13 12  1  0  0  0  0
 14 25  1  6  0  0  0
 14 16  1  0  0  0  0
 15 28  1  0  0  0  0
 15 14  1  0  0  0  0
 16 18  1  0  0  0  0
 16 29  1  1  0  0  0
 16 17  1  0  0  0  0
 17 30  1  0  0  0  0
 18 31  1  0  0  0  0
 19 18  2  0  0  0  0
 20 12  1  0  0  0  0
 22 12  1  0  0  0  0
 23 13  1  0  0  0  0
 26 15  1  0  0  0  0
 27 15  1  0  0  0  0
 31 32  1  0  0  0  0
 31 38  1  0  0  0  0
 32 39  1  6  0  0  0
 32 35  1  0  0  0  0
 33 40  1  0  0  0  0
 33 32  1  0  0  0  0
 33 34  1  0  0  0  0
 35 36  2  0  0  0  0
 35 37  1  0  0  0  0
 41 33  1  0  0  0  0
 42 34  1  0  0  0  0
M  END
$$$$
