AID.pdb
 OpenBabel07022418013D

 44 43  0  0  1  0  0  0  0  0999 V2000
    0.9350   -3.9190    3.5640 C   0  0  0  0  0  0  0  0  0  0  0  0
    2.2270   -3.5250    2.8830 C   0  0  2  0  0  0  0  0  0  0  0  0
    3.2910   -3.4350    3.8640 N   0  0  0  0  0  0  0  0  0  0  0  0
    2.1160   -2.1850    2.2320 C   0  0  0  0  0  0  0  0  0  0  0  0
    2.8670   -1.2260    2.5390 O   0  0  0  0  0  0  0  0  0  0  0  0
    0.1680   -4.0280    2.7540 H   0  0  0  0  0  0  0  0  0  0  0  0
    1.1070   -4.8910    4.0490 H   0  0  0  0  0  0  0  0  0  0  0  0
    0.6350   -3.1120    4.2590 H   0  0  0  0  0  0  0  0  0  0  0  0
    2.4840   -4.3070    2.1120 H   0  0  0  0  0  0  0  0  0  0  0  0
    3.9280   -2.6600    3.6120 H   0  0  0  0  0  0  0  0  0  0  0  0
    3.8510   -4.3290    3.8920 H   0  0  0  0  0  0  0  0  0  0  0  0
    0.8240   -2.9580   -1.6250 C   0  0  0  0  0  0  0  0  0  0  0  0
    0.6230   -1.4910   -1.7880 C   0  0  0  0  0  0  0  0  0  0  0  0
    1.3810   -0.6140   -0.8630 C   0  0  2  0  0  0  0  0  0  0  0  0
    2.8590   -0.8770   -1.0560 C   0  0  0  0  0  0  0  0  0  0  0  0
    1.0160   -0.6530    0.5810 C   0  0  2  0  0  0  0  0  0  0  0  0
    1.1520   -1.9170    1.2250 N   0  0  0  0  0  0  0  0  0  0  0  0
   -0.2780    0.0140    0.8570 C   0  0  0  0  0  0  0  0  0  0  0  0
   -1.1330   -0.5480    1.5870 O   0  0  0  0  0  0  0  0  0  0  0  0
   -0.0520   -3.5040   -1.2140 H   0  0  0  0  0  0  0  0  0  0  0  0
    1.7050   -3.2230   -1.0410 H   0  0  0  0  0  0  0  0  0  0  0  0
    0.9910   -3.4540   -2.6300 H   0  0  0  0  0  0  0  0  0  0  0  0
    0.9920   -1.2230   -2.8250 H   0  0  0  0  0  0  0  0  0  0  0  0
   -0.4730   -1.2160   -1.8510 H   0  0  0  0  0  0  0  0  0  0  0  0
    1.2220    0.4370   -1.2090 H   0  0  0  0  0  0  0  0  0  0  0  0
    3.4400    0.0060   -0.7040 H   0  0  0  0  0  0  0  0  0  0  0  0
    3.1110   -0.9940   -2.1300 H   0  0  0  0  0  0  0  0  0  0  0  0
    3.2000   -1.7740   -0.5120 H   0  0  0  0  0  0  0  0  0  0  0  0
    1.7860    0.0220    1.0750 H   0  0  0  0  0  0  0  0  0  0  0  0
    0.5100   -2.6890    0.9510 H   0  0  0  0  0  0  0  0  0  0  0  0
   -0.6320    1.2820    0.3420 N   0  0  0  0  0  0  0  0  0  0  0  0
   -1.9550    1.9030    0.6580 C   0  0  1  0  0  0  0  0  0  0  0  0
   -1.7030    3.1510    1.4680 C   0  0  0  0  0  0  0  0  0  0  0  0
   -2.8990    3.8540    1.8870 C   0  0  0  0  0  0  0  0  0  0  0  0
   -4.0420    3.4060    1.6790 O   0  0  0  0  0  0  0  0  0  0  0  0
   -2.6810    2.1280   -0.5970 C   0  0  0  0  0  0  0  0  0  0  0  0
   -2.1060    1.8070   -1.6920 O   0  0  0  0  0  0  0  0  0  0  0  0
   -2.8430    5.0870    2.5540 O   0  0  0  0  0  0  0  0  0  0  0  0
   -3.9400    2.6560   -0.7270 O   0  0  0  0  0  0  0  0  0  0  0  0
    0.0440    1.7880   -0.2680 H   0  0  0  0  0  0  0  0  0  0  0  0
   -2.4810    1.1800    1.3020 H   0  0  0  0  0  0  0  0  0  0  0  0
   -0.9820    3.8400    0.9280 H   0  0  0  0  0  0  0  0  0  0  0  0
   -1.1800    2.7830    2.4030 H   0  0  0  0  0  0  0  0  0  0  0  0
   -3.6330    5.7160    2.6040 H   0  0  0  0  0  0  0  0  0  0  0  0
  1  7  1  0  0  0  0
  1  8  1  0  0  0  0
  2  9  1  6  0  0  0
  2  1  1  0  0  0  0
  2  3  1  0  0  0  0
  3 11  1  0  0  0  0
  4  5  2  0  0  0  0
  4  2  1  0  0  0  0
  6  1  1  0  0  0  0
 10  3  1  0  0  0  0
 12 20  1  0  0  0  0
 12 21  1  0  0  0  0
 13 12  1  0  0  0  0
 13 14  1  0  0  0  0
 14 25  1  6  0  0  0
 14 16  1  0  0  0  0
 15 14  1  0  0  0  0
 15 26  1  0  0  0  0
 15 28  1  0  0  0  0
 16 18  1  0  0  0  0
 16 29  1  1  0  0  0
 16 17  1  0  0  0  0
 17  4  1  0  0  0  0
 18 19  2  0  0  0  0
 22 12  1  0  0  0  0
 23 13  1  0  0  0  0
 24 13  1  0  0  0  0
 27 15  1  0  0  0  0
 30 17  1  0  0  0  0
 31 32  1  0  0  0  0
 31 18  1  0  0  0  0
 32 41  1  1  0  0  0
 32 33  1  0  0  0  0
 33 34  1  0  0  0  0
 33 43  1  0  0  0  0
 34 38  1  0  0  0  0
 35 34  2  0  0  0  0
 36 32  1  0  0  0  0
 37 36  2  0  0  0  0
 38 44  1  0  0  0  0
 39 36  1  0  0  0  0
 40 31  1  0  0  0  0
 42 33  1  0  0  0  0
M  END
$$$$
