AIE.pdb
 OpenBabel07022418013D

 47 46  0  0  1  0  0  0  0  0999 V2000
    0.2010   -1.4320    4.0420 C   0  0  0  0  0  0  0  0  0  0  0  0
    1.6630   -1.0160    3.9140 C   0  0  2  0  0  0  0  0  0  0  0  0
    2.0540   -0.4760    5.2020 N   0  0  0  0  0  0  0  0  0  0  0  0
    1.8400    0.0170    2.8600 C   0  0  0  0  0  0  0  0  0  0  0  0
    2.2690    1.1720    3.1060 O   0  0  0  0  0  0  0  0  0  0  0  0
    0.1400   -2.3630    4.6190 H   0  0  0  0  0  0  0  0  0  0  0  0
   -0.4020   -0.6620    4.5480 H   0  0  0  0  0  0  0  0  0  0  0  0
   -0.2150   -1.6770    3.0230 H   0  0  0  0  0  0  0  0  0  0  0  0
    2.2340   -1.9460    3.6710 H   0  0  0  0  0  0  0  0  0  0  0  0
    3.0170   -0.0720    5.0920 H   0  0  0  0  0  0  0  0  0  0  0  0
    1.3430    0.2490    5.4460 H   0  0  0  0  0  0  0  0  0  0  0  0
    0.9980   -1.3300   -1.9170 C   0  0  0  0  0  0  0  0  0  0  0  0
    2.3360   -1.1220   -1.3060 C   0  0  0  0  0  0  0  0  0  0  0  0
    2.5890    0.1650   -0.6270 C   0  0  2  0  0  0  0  0  0  0  0  0
    4.0320    0.1050   -0.1010 C   0  0  0  0  0  0  0  0  0  0  0  0
    1.6380    0.5900    0.4260 C   0  0  2  0  0  0  0  0  0  0  0  0
    1.5140   -0.3100    1.5290 N   0  0  0  0  0  0  0  0  0  0  0  0
    0.3250    0.9290   -0.1680 C   0  0  0  0  0  0  0  0  0  0  0  0
    0.1990    1.7020   -1.1520 O   0  0  0  0  0  0  0  0  0  0  0  0
    1.1080   -2.2460   -2.5800 H   0  0  0  0  0  0  0  0  0  0  0  0
    0.7240   -0.5290   -2.6340 H   0  0  0  0  0  0  0  0  0  0  0  0
    0.2020   -1.6150   -1.2160 H   0  0  0  0  0  0  0  0  0  0  0  0
    3.0850   -1.1920   -2.1520 H   0  0  0  0  0  0  0  0  0  0  0  0
    2.6050   -2.0010   -0.6620 H   0  0  0  0  0  0  0  0  0  0  0  0
    2.6310    0.9650   -1.4250 H   0  0  0  0  0  0  0  0  0  0  0  0
    4.0480   -0.1440    0.9700 H   0  0  0  0  0  0  0  0  0  0  0  0
    4.6230   -0.6600   -0.6610 H   0  0  0  0  0  0  0  0  0  0  0  0
    4.5540    1.0680   -0.2520 H   0  0  0  0  0  0  0  0  0  0  0  0
    2.0350    1.5790    0.8250 H   0  0  0  0  0  0  0  0  0  0  0  0
    1.1540   -1.2800    1.3230 H   0  0  0  0  0  0  0  0  0  0  0  0
   -0.9140    0.3970    0.3420 N   0  0  0  0  0  0  0  0  0  0  0  0
   -2.1950    0.7280   -0.2360 C   0  0  1  0  0  0  0  0  0  0  0  0
   -2.7520   -0.5380   -0.8630 C   0  0  0  0  0  0  0  0  0  0  0  0
   -2.9250   -1.6180    0.1690 C   0  0  0  0  0  0  0  0  0  0  0  0
   -3.4800   -2.8160   -0.5220 C   0  0  0  0  0  0  0  0  0  0  0  0
   -3.7240   -2.8200   -1.7510 O   0  0  0  0  0  0  0  0  0  0  0  0
   -3.1200    1.3340    0.7220 C   0  0  0  0  0  0  0  0  0  0  0  0
   -2.7660    1.5150    1.9050 O   0  0  0  0  0  0  0  0  0  0  0  0
   -3.7390   -3.9710    0.2060 O   0  0  0  0  0  0  0  0  0  0  0  0
   -4.3770    1.7020    0.3200 O   0  0  0  0  0  0  0  0  0  0  0  0
   -0.8450   -0.2420    1.1570 H   0  0  0  0  0  0  0  0  0  0  0  0
   -2.0820    1.4620   -1.0790 H   0  0  0  0  0  0  0  0  0  0  0  0
   -2.0590   -0.9320   -1.6340 H   0  0  0  0  0  0  0  0  0  0  0  0
   -3.7000   -0.3180   -1.4030 H   0  0  0  0  0  0  0  0  0  0  0  0
   -1.8970   -1.8540    0.5670 H   0  0  0  0  0  0  0  0  0  0  0  0
   -3.6010   -1.2720    0.9720 H   0  0  0  0  0  0  0  0  0  0  0  0
   -4.5590   -4.5500   -0.0210 H   0  0  0  0  0  0  0  0  0  0  0  0
  1  7  1  0  0  0  0
  1  6  1  0  0  0  0
  2  9  1  6  0  0  0
  2  1  1  0  0  0  0
  2  3  1  0  0  0  0
  3 11  1  0  0  0  0
  4  5  2  0  0  0  0
  4  2  1  0  0  0  0
  8  1  1  0  0  0  0
 10  3  1  0  0  0  0
 12 13  1  0  0  0  0
 12 22  1  0  0  0  0
 13 24  1  0  0  0  0
 13 14  1  0  0  0  0
 14 25  1  6  0  0  0
 14 15  1  0  0  0  0
 14 16  1  0  0  0  0
 15 26  1  0  0  0  0
 16 29  1  1  0  0  0
 16 17  1  0  0  0  0
 17  4  1  0  0  0  0
 18 31  1  0  0  0  0
 18 16  1  0  0  0  0
 19 18  2  0  0  0  0
 20 12  1  0  0  0  0
 21 12  1  0  0  0  0
 23 13  1  0  0  0  0
 27 15  1  0  0  0  0
 28 15  1  0  0  0  0
 30 17  1  0  0  0  0
 31 41  1  0  0  0  0
 32 42  1  6  0  0  0
 32 31  1  0  0  0  0
 32 37  1  0  0  0  0
 33 32  1  0  0  0  0
 33 34  1  0  0  0  0
 34 45  1  0  0  0  0
 34 46  1  0  0  0  0
 35 34  1  0  0  0  0
 35 39  1  0  0  0  0
 36 35  2  0  0  0  0
 37 38  1  0  0  0  0
 40 37  2  0  0  0  0
 43 33  1  0  0  0  0
 44 33  1  0  0  0  0
 47 39  1  0  0  0  0
M  END
$$$$
