AIG.pdb
 OpenBabel07022418013D

 38 37  0  0  1  0  0  0  0  0999 V2000
    1.0470   -3.9070    0.8620 C   0  0  0  0  0  0  0  0  0  0  0  0
    0.6750   -2.9830    2.0140 C   0  0  2  0  0  0  0  0  0  0  0  0
   -0.2700   -3.6650    2.8390 N   0  0  0  0  0  0  0  0  0  0  0  0
    0.0740   -1.7630    1.3570 C   0  0  0  0  0  0  0  0  0  0  0  0
   -1.1170   -1.5460    1.6280 O   0  0  0  0  0  0  0  0  0  0  0  0
    1.4840   -4.8420    1.2130 H   0  0  0  0  0  0  0  0  0  0  0  0
    0.1300   -4.1690    0.2670 H   0  0  0  0  0  0  0  0  0  0  0  0
    1.7140   -3.3750    0.1240 H   0  0  0  0  0  0  0  0  0  0  0  0
    1.5950   -2.7330    2.5560 H   0  0  0  0  0  0  0  0  0  0  0  0
   -0.3000   -4.7040    2.6310 H   0  0  0  0  0  0  0  0  0  0  0  0
   -0.0170   -3.4960    3.8410 H   0  0  0  0  0  0  0  0  0  0  0  0
   -3.0000   -0.8700   -1.5840 C   0  0  0  0  0  0  0  0  0  0  0  0
   -1.4980   -0.8810   -1.3460 C   0  0  0  0  0  0  0  0  0  0  0  0
   -1.0660    0.2580   -0.4860 C   0  0  2  0  0  0  0  0  0  0  0  0
   -1.4500    1.5360   -1.2290 C   0  0  0  0  0  0  0  0  0  0  0  0
    0.4150    0.2320   -0.2100 C   0  0  2  0  0  0  0  0  0  0  0  0
    0.8320   -0.9440    0.5010 N   0  0  0  0  0  0  0  0  0  0  0  0
    0.9310    1.4260    0.4690 C   0  0  0  0  0  0  0  0  0  0  0  0
    0.7220    2.6030    0.0700 O   0  0  0  0  0  0  0  0  0  0  0  0
   -3.4510   -0.3930   -0.6900 H   0  0  0  0  0  0  0  0  0  0  0  0
   -3.2690   -0.3250   -2.5190 H   0  0  0  0  0  0  0  0  0  0  0  0
   -3.3600   -1.9150   -1.6110 H   0  0  0  0  0  0  0  0  0  0  0  0
   -1.0300   -0.8200   -2.3750 H   0  0  0  0  0  0  0  0  0  0  0  0
   -1.2320   -1.8600   -0.9410 H   0  0  0  0  0  0  0  0  0  0  0  0
   -1.6220    0.2400    0.4610 H   0  0  0  0  0  0  0  0  0  0  0  0
   -1.7360    2.3000   -0.4520 H   0  0  0  0  0  0  0  0  0  0  0  0
   -0.5760    1.9260   -1.7730 H   0  0  0  0  0  0  0  0  0  0  0  0
   -2.3320    1.3500   -1.8390 H   0  0  0  0  0  0  0  0  0  0  0  0
    0.9000    0.2220   -1.2560 H   0  0  0  0  0  0  0  0  0  0  0  0
    1.8480   -1.2910    0.4040 H   0  0  0  0  0  0  0  0  0  0  0  0
    1.7150    1.2690    1.6510 N   0  0  0  0  0  0  0  0  0  0  0  0
    2.2520    2.4010    2.3670 C   0  0  0  0  0  0  0  0  0  0  0  0
    3.0200    1.9560    3.5450 C   0  0  0  0  0  0  0  0  0  0  0  0
    3.5680    2.8030    4.2990 O   0  0  0  0  0  0  0  0  0  0  0  0
    3.1690    0.6260    3.8670 O   0  0  0  0  0  0  0  0  0  0  0  0
    1.9110    0.3170    2.0140 H   0  0  0  0  0  0  0  0  0  0  0  0
    2.9490    2.9720    1.6920 H   0  0  0  0  0  0  0  0  0  0  0  0
    1.4110    3.0650    2.6230 H   0  0  0  0  0  0  0  0  0  0  0  0
  1  6  1  0  0  0  0
  1  2  1  0  0  0  0
  2  9  1  1  0  0  0
  2  3  1  0  0  0  0
  3 11  1  0  0  0  0
  4  5  2  0  0  0  0
  4  2  1  0  0  0  0
  7  1  1  0  0  0  0
  8  1  1  0  0  0  0
 10  3  1  0  0  0  0
 12 13  1  0  0  0  0
 12 20  1  0  0  0  0
 13 24  1  0  0  0  0
 13 14  1  0  0  0  0
 14 16  1  0  0  0  0
 14 25  1  1  0  0  0
 15 14  1  0  0  0  0
 15 26  1  0  0  0  0
 16 29  1  6  0  0  0
 16 18  1  0  0  0  0
 16 17  1  0  0  0  0
 17  4  1  0  0  0  0
 18 31  1  0  0  0  0
 19 18  2  0  0  0  0
 21 12  1  0  0  0  0
 22 12  1  0  0  0  0
 23 13  1  0  0  0  0
 27 15  1  0  0  0  0
 28 15  1  0  0  0  0
 30 17  1  0  0  0  0
 31 36  1  0  0  0  0
 31 32  1  0  0  0  0
 32 38  1  0  0  0  0
 32 33  1  0  0  0  0
 33 35  2  0  0  0  0
 33 34  1  0  0  0  0
 37 32  1  0  0  0  0
M  END
$$$$
