AIK.pdb
 OpenBabel07022418013D

 52 51  0  0  1  0  0  0  0  0999 V2000
    3.1750   -4.4990   -0.8300 C   0  0  0  0  0  0  0  0  0  0  0  0
    4.0090   -3.3020   -0.4340 C   0  0  2  0  0  0  0  0  0  0  0  0
    5.2380   -3.7850    0.1260 N   0  0  0  0  0  0  0  0  0  0  0  0
    3.2480   -2.4780    0.5790 C   0  0  0  0  0  0  0  0  0  0  0  0
    3.6980   -2.2980    1.7140 O   0  0  0  0  0  0  0  0  0  0  0  0
    3.8690   -5.3040   -1.1530 H   0  0  0  0  0  0  0  0  0  0  0  0
    2.6010   -4.9100    0.0410 H   0  0  0  0  0  0  0  0  0  0  0  0
    2.4590   -4.2650   -1.6340 H   0  0  0  0  0  0  0  0  0  0  0  0
    4.2340   -2.7180   -1.3380 H   0  0  0  0  0  0  0  0  0  0  0  0
    5.7600   -3.0740    0.6830 H   0  0  0  0  0  0  0  0  0  0  0  0
    5.0980   -4.6780    0.6470 H   0  0  0  0  0  0  0  0  0  0  0  0
    2.1140   -1.8050    4.5040 C   0  0  0  0  0  0  0  0  0  0  0  0
    1.3910   -2.0560    3.2270 C   0  0  0  0  0  0  0  0  0  0  0  0
    1.3840   -0.8540    2.3100 C   0  0  2  0  0  0  0  0  0  0  0  0
    0.6590    0.2670    2.9840 C   0  0  0  0  0  0  0  0  0  0  0  0
    1.0690   -1.1450    0.8910 C   0  0  2  0  0  0  0  0  0  0  0  0
    2.0260   -1.9390    0.1700 N   0  0  0  0  0  0  0  0  0  0  0  0
    0.5450   -0.0450    0.0770 C   0  0  0  0  0  0  0  0  0  0  0  0
    1.1750    0.2710   -1.0100 O   0  0  0  0  0  0  0  0  0  0  0  0
    3.1210   -1.3940    4.2630 H   0  0  0  0  0  0  0  0  0  0  0  0
    2.2920   -2.7700    5.0340 H   0  0  0  0  0  0  0  0  0  0  0  0
    1.5340   -1.0990    5.1310 H   0  0  0  0  0  0  0  0  0  0  0  0
    1.5680   -2.9670    2.6890 H   0  0  0  0  0  0  0  0  0  0  0  0
    0.2670   -2.1070    3.5850 H   0  0  0  0  0  0  0  0  0  0  0  0
    2.5160   -0.5280    2.3720 H   0  0  0  0  0  0  0  0  0  0  0  0
   -0.3670    0.0480    3.3040 H   0  0  0  0  0  0  0  0  0  0  0  0
    1.1900    0.5290    3.9600 H   0  0  0  0  0  0  0  0  0  0  0  0
    0.6520    1.2180    2.4040 H   0  0  0  0  0  0  0  0  0  0  0  0
    0.1930   -1.9180    1.0210 H   0  0  0  0  0  0  0  0  0  0  0  0
    1.7000   -2.1220   -0.8560 H   0  0  0  0  0  0  0  0  0  0  0  0
   -0.6070    0.7350    0.3450 N   0  0  0  0  0  0  0  0  0  0  0  0
   -1.0070    1.8190   -0.5600 C   0  0  1  0  0  0  0  0  0  0  0  0
   -2.3320    1.4260   -1.1600 C   0  0  0  0  0  0  0  0  0  0  0  0
   -3.3330    1.2640   -0.0510 C   0  0  0  0  0  0  0  0  0  0  0  0
   -4.7040    0.8830   -0.5840 C   0  0  0  0  0  0  0  0  0  0  0  0
   -4.6760   -0.4120   -1.3410 C   0  0  0  0  0  0  0  0  0  0  0  0
   -6.0260   -0.6780   -1.8020 N   0  0  0  0  0  0  0  0  0  0  0  0
   -1.2020    3.0520    0.2190 C   0  0  0  0  0  0  0  0  0  0  0  0
   -1.0510    3.1570    1.4540 O   0  0  0  0  0  0  0  0  0  0  0  0
   -1.5880    4.2070   -0.4710 O   0  0  0  0  0  0  0  0  0  0  0  0
   -1.1490    0.4900    1.1860 H   0  0  0  0  0  0  0  0  0  0  0  0
   -0.2310    1.9320   -1.3580 H   0  0  0  0  0  0  0  0  0  0  0  0
   -2.1540    0.4770   -1.7120 H   0  0  0  0  0  0  0  0  0  0  0  0
   -2.6830    2.1720   -1.9090 H   0  0  0  0  0  0  0  0  0  0  0  0
   -3.0550    0.4880    0.6900 H   0  0  0  0  0  0  0  0  0  0  0  0
   -3.4380    2.2190    0.4980 H   0  0  0  0  0  0  0  0  0  0  0  0
   -5.4020    0.7550    0.2670 H   0  0  0  0  0  0  0  0  0  0  0  0
   -5.1020    1.6690   -1.2490 H   0  0  0  0  0  0  0  0  0  0  0  0
   -4.4090   -1.2160   -0.6250 H   0  0  0  0  0  0  0  0  0  0  0  0
   -4.0080   -0.3890   -2.2220 H   0  0  0  0  0  0  0  0  0  0  0  0
   -6.5060   -1.3370   -1.1770 H   0  0  0  0  0  0  0  0  0  0  0  0
   -6.0280   -0.9330   -2.8060 H   0  0  0  0  0  0  0  0  0  0  0  0
  1  2  1  0  0  0  0
  1  7  1  0  0  0  0
  2  9  1  6  0  0  0
  2  3  1  0  0  0  0
  2  4  1  0  0  0  0
  3 11  1  0  0  0  0
  3 10  1  0  0  0  0
  4  5  2  0  0  0  0
  6  1  1  0  0  0  0
  8  1  1  0  0  0  0
 12 21  1  0  0  0  0
 12 22  1  0  0  0  0
 13 24  1  0  0  0  0
 13 12  1  0  0  0  0
 14 25  1  6  0  0  0
 14 15  1  0  0  0  0
 14 13  1  0  0  0  0
 15 26  1  0  0  0  0
 15 27  1  0  0  0  0
 16 29  1  1  0  0  0
 16 14  1  0  0  0  0
 17  4  1  0  0  0  0
 17 16  1  0  0  0  0
 18 31  1  0  0  0  0
 18 16  1  0  0  0  0
 19 18  2  0  0  0  0
 20 12  1  0  0  0  0
 23 13  1  0  0  0  0
 28 15  1  0  0  0  0
 30 17  1  0  0  0  0
 31 41  1  0  0  0  0
 32 42  1  6  0  0  0
 32 38  1  0  0  0  0
 32 31  1  0  0  0  0
 33 32  1  0  0  0  0
 33 34  1  0  0  0  0
 34 46  1  0  0  0  0
 34 45  1  0  0  0  0
 35 34  1  0  0  0  0
 35 47  1  0  0  0  0
 36 49  1  0  0  0  0
 36 35  1  0  0  0  0
 37 36  1  0  0  0  0
 37 51  1  0  0  0  0
 38 39  1  0  0  0  0
 40 38  2  0  0  0  0
 43 33  1  0  0  0  0
 44 33  1  0  0  0  0
 48 35  1  0  0  0  0
 50 36  1  0  0  0  0
 52 37  1  0  0  0  0
M  END
$$$$
