AIL.pdb
 OpenBabel07022418013D

 50 49  0  0  1  0  0  0  0  0999 V2000
    0.7620   -4.3450    1.8580 C   0  0  0  0  0  0  0  0  0  0  0  0
    2.1370   -3.8900    1.4250 C   0  0  2  0  0  0  0  0  0  0  0  0
    3.0620   -4.1950    2.4870 N   0  0  0  0  0  0  0  0  0  0  0  0
    2.1840   -2.4380    1.1470 C   0  0  0  0  0  0  0  0  0  0  0  0
    2.9650   -1.6730    1.8120 O   0  0  0  0  0  0  0  0  0  0  0  0
    0.0190   -4.3080    1.0390 H   0  0  0  0  0  0  0  0  0  0  0  0
    0.8840   -5.3750    2.2660 H   0  0  0  0  0  0  0  0  0  0  0  0
    0.3570   -3.7260    2.6940 H   0  0  0  0  0  0  0  0  0  0  0  0
    2.3700   -4.4200    0.4800 H   0  0  0  0  0  0  0  0  0  0  0  0
    3.2730   -3.3360    3.0660 H   0  0  0  0  0  0  0  0  0  0  0  0
    2.6670   -4.8870    3.1850 H   0  0  0  0  0  0  0  0  0  0  0  0
   -0.3450   -0.5370   -2.9130 C   0  0  0  0  0  0  0  0  0  0  0  0
    1.0900   -0.8000   -2.7330 C   0  0  0  0  0  0  0  0  0  0  0  0
    1.7850   -0.2190   -1.5850 C   0  0  2  0  0  0  0  0  0  0  0  0
    3.2620   -0.6470   -1.6400 C   0  0  0  0  0  0  0  0  0  0  0  0
    1.3160   -0.5390   -0.2160 C   0  0  2  0  0  0  0  0  0  0  0  0
    1.3420   -1.9210    0.1260 N   0  0  0  0  0  0  0  0  0  0  0  0
    0.0300    0.1330    0.1350 C   0  0  0  0  0  0  0  0  0  0  0  0
   -0.1220    1.3310   -0.1230 O   0  0  0  0  0  0  0  0  0  0  0  0
   -0.9660   -0.4550   -2.0300 H   0  0  0  0  0  0  0  0  0  0  0  0
   -0.8220   -1.3260   -3.5670 H   0  0  0  0  0  0  0  0  0  0  0  0
   -0.5050    0.4150   -3.5020 H   0  0  0  0  0  0  0  0  0  0  0  0
    1.2440   -1.9200   -2.7540 H   0  0  0  0  0  0  0  0  0  0  0  0
    1.6260   -0.4550   -3.6660 H   0  0  0  0  0  0  0  0  0  0  0  0
    1.8330    0.9080   -1.6640 H   0  0  0  0  0  0  0  0  0  0  0  0
    3.7010   -0.5390   -0.6360 H   0  0  0  0  0  0  0  0  0  0  0  0
    3.2990   -1.6890   -2.0280 H   0  0  0  0  0  0  0  0  0  0  0  0
    3.7920   -0.0170   -2.3960 H   0  0  0  0  0  0  0  0  0  0  0  0
    2.0650   -0.0280    0.4730 H   0  0  0  0  0  0  0  0  0  0  0  0
    0.7190   -2.5780   -0.3940 H   0  0  0  0  0  0  0  0  0  0  0  0
   -0.1810    1.4590    3.0320 C   0  0  0  0  0  0  0  0  0  0  0  0
   -1.6380    1.6230    2.9350 C   0  0  0  0  0  0  0  0  0  0  0  0
   -1.9290    3.0970    3.3000 C   0  0  0  0  0  0  0  0  0  0  0  0
   -2.3610    1.3040    1.6990 C   0  0  0  0  0  0  0  0  0  0  0  0
   -2.2780   -0.0960    1.1700 C   0  0  2  0  0  0  0  0  0  0  0  0
   -1.0260   -0.5940    0.7670 N   0  0  0  0  0  0  0  0  0  0  0  0
   -3.4220   -0.3540    0.2810 C   0  0  0  0  0  0  0  0  0  0  0  0
   -3.3560   -0.9940   -0.8090 O   0  0  0  0  0  0  0  0  0  0  0  0
   -4.7030    0.1120    0.6020 O   0  0  0  0  0  0  0  0  0  0  0  0
    0.1170    1.7780    4.0860 H   0  0  0  0  0  0  0  0  0  0  0  0
    0.2020    0.4220    2.9770 H   0  0  0  0  0  0  0  0  0  0  0  0
    0.3620    2.1880    2.4020 H   0  0  0  0  0  0  0  0  0  0  0  0
   -2.0790    1.0770    3.8360 H   0  0  0  0  0  0  0  0  0  0  0  0
   -1.7470    3.2810    4.3660 H   0  0  0  0  0  0  0  0  0  0  0  0
   -3.0010    3.2840    3.0790 H   0  0  0  0  0  0  0  0  0  0  0  0
   -1.2710    3.7130    2.6320 H   0  0  0  0  0  0  0  0  0  0  0  0
   -2.1440    2.0640    0.9020 H   0  0  0  0  0  0  0  0  0  0  0  0
   -3.4610    1.4690    1.9160 H   0  0  0  0  0  0  0  0  0  0  0  0
   -2.5200   -0.6990    2.1410 H   0  0  0  0  0  0  0  0  0  0  0  0
   -0.8120   -1.6050    0.9300 H   0  0  0  0  0  0  0  0  0  0  0  0
  1  7  1  0  0  0  0
  1  8  1  0  0  0  0
  2  9  1  6  0  0  0
  2  1  1  0  0  0  0
  2  3  1  0  0  0  0
  3 10  1  0  0  0  0
  3 11  1  0  0  0  0
  4  2  1  0  0  0  0
  4  5  2  0  0  0  0
  6  1  1  0  0  0  0
 12 13  1  0  0  0  0
 12 20  1  0  0  0  0
 13 14  1  0  0  0  0
 14 25  1  6  0  0  0
 14 16  1  0  0  0  0
 15 14  1  0  0  0  0
 15 26  1  0  0  0  0
 16 17  1  0  0  0  0
 16 18  1  0  0  0  0
 16 29  1  1  0  0  0
 17  4  1  0  0  0  0
 18 36  1  0  0  0  0
 19 18  2  0  0  0  0
 21 12  1  0  0  0  0
 22 12  1  0  0  0  0
 23 13  1  0  0  0  0
 24 13  1  0  0  0  0
 27 15  1  0  0  0  0
 28 15  1  0  0  0  0
 30 17  1  0  0  0  0
 31 40  1  0  0  0  0
 32 31  1  0  0  0  0
 32 33  1  0  0  0  0
 32 43  1  0  0  0  0
 33 44  1  0  0  0  0
 34 48  1  0  0  0  0
 34 32  1  0  0  0  0
 35 34  1  0  0  0  0
 35 49  1  1  0  0  0
 36 50  1  0  0  0  0
 36 35  1  0  0  0  0
 37 39  1  0  0  0  0
 37 35  1  0  0  0  0
 38 37  2  0  0  0  0
 41 31  1  0  0  0  0
 42 31  1  0  0  0  0
 45 33  1  0  0  0  0
 46 33  1  0  0  0  0
 47 34  1  0  0  0  0
M  END
$$$$
