AIM.pdb
 OpenBabel07022418013D

 48 47  0  0  1  0  0  0  0  0999 V2000
    3.3240   -1.1920   -3.5070 C   0  0  0  0  0  0  0  0  0  0  0  0
    1.8850   -1.2420   -3.9360 C   0  0  2  0  0  0  0  0  0  0  0  0
    1.7420   -0.4260   -5.1220 N   0  0  0  0  0  0  0  0  0  0  0  0
    0.9380   -0.8270   -2.9040 C   0  0  0  0  0  0  0  0  0  0  0  0
    0.1580    0.1380   -3.1560 O   0  0  0  0  0  0  0  0  0  0  0  0
    3.9480   -0.6460   -4.2330 H   0  0  0  0  0  0  0  0  0  0  0  0
    3.4760   -0.7100   -2.5250 H   0  0  0  0  0  0  0  0  0  0  0  0
    3.7550   -2.2130   -3.4290 H   0  0  0  0  0  0  0  0  0  0  0  0
    1.6640   -2.2970   -4.2650 H   0  0  0  0  0  0  0  0  0  0  0  0
    2.4690   -0.7010   -5.8050 H   0  0  0  0  0  0  0  0  0  0  0  0
    0.8230   -0.6630   -5.5450 H   0  0  0  0  0  0  0  0  0  0  0  0
   -3.2300   -3.0310    0.3180 C   0  0  0  0  0  0  0  0  0  0  0  0
   -2.2140   -1.9090    0.5270 C   0  0  0  0  0  0  0  0  0  0  0  0
   -1.1190   -2.1260   -0.4750 C   0  0  2  0  0  0  0  0  0  0  0  0
   -0.4290   -3.4490   -0.2880 C   0  0  0  0  0  0  0  0  0  0  0  0
   -0.1640   -0.9580   -0.6180 C   0  0  2  0  0  0  0  0  0  0  0  0
    0.8040   -1.4060   -1.6300 N   0  0  0  0  0  0  0  0  0  0  0  0
    0.5180   -0.5800    0.6280 C   0  0  0  0  0  0  0  0  0  0  0  0
    1.7780   -0.7790    0.7900 O   0  0  0  0  0  0  0  0  0  0  0  0
   -3.0240   -3.8070    1.0610 H   0  0  0  0  0  0  0  0  0  0  0  0
   -3.1980   -3.4180   -0.7150 H   0  0  0  0  0  0  0  0  0  0  0  0
   -4.2450   -2.5830    0.4870 H   0  0  0  0  0  0  0  0  0  0  0  0
   -1.8010   -1.9700    1.5590 H   0  0  0  0  0  0  0  0  0  0  0  0
   -2.6750   -0.9250    0.3410 H   0  0  0  0  0  0  0  0  0  0  0  0
   -1.6710   -2.2330   -1.4720 H   0  0  0  0  0  0  0  0  0  0  0  0
   -0.1980   -3.8980   -1.2580 H   0  0  0  0  0  0  0  0  0  0  0  0
   -1.1340   -4.1340    0.2400 H   0  0  0  0  0  0  0  0  0  0  0  0
    0.4540   -3.3650    0.3790 H   0  0  0  0  0  0  0  0  0  0  0  0
   -0.7620   -0.1070   -0.9850 H   0  0  0  0  0  0  0  0  0  0  0  0
    1.4190   -2.2000   -1.3720 H   0  0  0  0  0  0  0  0  0  0  0  0
   -0.7880    2.1940    6.4220 C   0  0  0  0  0  0  0  0  0  0  0  0
   -1.5530    1.7050    4.8500 S   0  0  0  0  0  0  0  0  0  0  0  0
   -0.7180    2.4540    3.4400 C   0  0  0  0  0  0  0  0  0  0  0  0
    0.6400    1.8290    3.2680 C   0  0  0  0  0  0  0  0  0  0  0  0
    0.6350    0.3790    2.9630 C   0  0  2  0  0  0  0  0  0  0  0  0
   -0.0800    0.0280    1.7610 N   0  0  0  0  0  0  0  0  0  0  0  0
    0.1160   -0.4010    4.0880 C   0  0  0  0  0  0  0  0  0  0  0  0
   -0.8960   -1.1710    4.0110 O   0  0  0  0  0  0  0  0  0  0  0  0
    0.6980   -0.3710    5.3670 O   0  0  0  0  0  0  0  0  0  0  0  0
   -1.1680    3.2360    6.6370 H   0  0  0  0  0  0  0  0  0  0  0  0
   -1.1850    1.5080    7.2010 H   0  0  0  0  0  0  0  0  0  0  0  0
    0.3040    2.1770    6.3340 H   0  0  0  0  0  0  0  0  0  0  0  0
   -0.5560    3.5500    3.6380 H   0  0  0  0  0  0  0  0  0  0  0  0
   -1.3390    2.3670    2.5210 H   0  0  0  0  0  0  0  0  0  0  0  0
    1.1330    1.9280    4.2860 H   0  0  0  0  0  0  0  0  0  0  0  0
    1.3040    2.4310    2.6100 H   0  0  0  0  0  0  0  0  0  0  0  0
    1.7130    0.0740    2.8470 H   0  0  0  0  0  0  0  0  0  0  0  0
   -1.0970    0.2450    1.7200 H   0  0  0  0  0  0  0  0  0  0  0  0
  1  8  1  0  0  0  0
  1  7  1  0  0  0  0
  2  9  1  6  0  0  0
  2  1  1  0  0  0  0
  2  4  1  0  0  0  0
  3  2  1  0  0  0  0
  4 17  1  0  0  0  0
  5  4  2  0  0  0  0
  6  1  1  0  0  0  0
 10  3  1  0  0  0  0
 11  3  1  0  0  0  0
 12 22  1  0  0  0  0
 12 13  1  0  0  0  0
 12 20  1  0  0  0  0
 13 23  1  0  0  0  0
 14 25  1  6  0  0  0
 14 15  1  0  0  0  0
 14 13  1  0  0  0  0
 15 27  1  0  0  0  0
 15 28  1  0  0  0  0
 16 29  1  6  0  0  0
 16 14  1  0  0  0  0
 16 18  1  0  0  0  0
 17 30  1  0  0  0  0
 17 16  1  0  0  0  0
 18 19  2  0  0  0  0
 18 36  1  0  0  0  0
 21 12  1  0  0  0  0
 24 13  1  0  0  0  0
 26 15  1  0  0  0  0
 31 40  1  0  0  0  0
 31 41  1  0  0  0  0
 32 31  1  0  0  0  0
 33 43  1  0  0  0  0
 33 32  1  0  0  0  0
 34 33  1  0  0  0  0
 34 45  1  0  0  0  0
 35 47  1  6  0  0  0
 35 34  1  0  0  0  0
 35 37  1  0  0  0  0
 36 35  1  0  0  0  0
 37 39  1  0  0  0  0
 38 37  2  0  0  0  0
 42 31  1  0  0  0  0
 44 33  1  0  0  0  0
 46 34  1  0  0  0  0
 48 36  1  0  0  0  0
M  END
$$$$
