AIN.pdb
 OpenBabel07022418013D

 45 44  0  0  1  0  0  0  0  0999 V2000
   -1.8020   -3.0850    0.1010 C   0  0  0  0  0  0  0  0  0  0  0  0
   -0.4480   -3.6940   -0.2120 C   0  0  2  0  0  0  0  0  0  0  0  0
   -0.4860   -5.0690    0.1870 N   0  0  0  0  0  0  0  0  0  0  0  0
    0.6300   -2.9470    0.5130 C   0  0  0  0  0  0  0  0  0  0  0  0
    1.3290   -3.5820    1.3350 O   0  0  0  0  0  0  0  0  0  0  0  0
   -2.0180   -2.3020   -0.6510 H   0  0  0  0  0  0  0  0  0  0  0  0
   -2.5580   -3.8770    0.1480 H   0  0  0  0  0  0  0  0  0  0  0  0
   -1.6950   -2.5940    1.1000 H   0  0  0  0  0  0  0  0  0  0  0  0
   -0.1970   -3.6360   -1.2900 H   0  0  0  0  0  0  0  0  0  0  0  0
   -1.0430   -5.1630    1.0520 H   0  0  0  0  0  0  0  0  0  0  0  0
    0.4650   -5.4870    0.3310 H   0  0  0  0  0  0  0  0  0  0  0  0
    1.7630    0.1400   -2.0800 C   0  0  0  0  0  0  0  0  0  0  0  0
    2.5590    0.6720   -0.9440 C   0  0  0  0  0  0  0  0  0  0  0  0
    2.9530   -0.3060    0.1030 C   0  0  2  0  0  0  0  0  0  0  0  0
    3.7960   -1.4470   -0.4050 C   0  0  0  0  0  0  0  0  0  0  0  0
    1.8540   -0.8560    0.9470 C   0  0  2  0  0  0  0  0  0  0  0  0
    0.8280   -1.5650    0.2560 N   0  0  0  0  0  0  0  0  0  0  0  0
    1.2850    0.1880    1.8730 C   0  0  0  0  0  0  0  0  0  0  0  0
    2.0970    0.8720    2.5310 O   0  0  0  0  0  0  0  0  0  0  0  0
    0.7230    0.5410   -2.0760 H   0  0  0  0  0  0  0  0  0  0  0  0
    1.8010   -0.9500   -2.2050 H   0  0  0  0  0  0  0  0  0  0  0  0
    2.1940    0.5530   -3.0390 H   0  0  0  0  0  0  0  0  0  0  0  0
    2.0130    1.4990   -0.4410 H   0  0  0  0  0  0  0  0  0  0  0  0
    3.5140    1.1080   -1.3530 H   0  0  0  0  0  0  0  0  0  0  0  0
    3.6300    0.2580    0.8170 H   0  0  0  0  0  0  0  0  0  0  0  0
    4.5430   -1.0460   -1.1160 H   0  0  0  0  0  0  0  0  0  0  0  0
    3.1950   -2.2410   -0.8890 H   0  0  0  0  0  0  0  0  0  0  0  0
    4.3100   -1.9020    0.4590 H   0  0  0  0  0  0  0  0  0  0  0  0
    2.3450   -1.5830    1.6580 H   0  0  0  0  0  0  0  0  0  0  0  0
    0.1840   -1.1220   -0.4530 H   0  0  0  0  0  0  0  0  0  0  0  0
   -3.2930    2.9340    0.6130 N   0  0  0  0  0  0  0  0  0  0  0  0
   -2.5340    1.9900    1.3440 C   0  0  0  0  0  0  0  0  0  0  0  0
   -2.8510    0.7770    1.2610 O   0  0  0  0  0  0  0  0  0  0  0  0
   -1.4160    2.4920    2.1600 C   0  0  0  0  0  0  0  0  0  0  0  0
   -0.6740    1.4050    2.8940 C   0  0  2  0  0  0  0  0  0  0  0  0
   -0.0950    0.4240    2.0270 N   0  0  0  0  0  0  0  0  0  0  0  0
   -1.5000    0.8240    3.9690 C   0  0  0  0  0  0  0  0  0  0  0  0
   -2.0520    1.5970    4.7840 O   0  0  0  0  0  0  0  0  0  0  0  0
   -1.6890   -0.5360    4.1160 O   0  0  0  0  0  0  0  0  0  0  0  0
   -4.2580    3.1700    0.9080 H   0  0  0  0  0  0  0  0  0  0  0  0
   -2.8810    3.3910   -0.2200 H   0  0  0  0  0  0  0  0  0  0  0  0
   -0.6760    3.0790    1.5640 H   0  0  0  0  0  0  0  0  0  0  0  0
   -1.8360    3.2040    2.8990 H   0  0  0  0  0  0  0  0  0  0  0  0
    0.1890    1.9250    3.4080 H   0  0  0  0  0  0  0  0  0  0  0  0
   -0.7330   -0.1910    1.4390 H   0  0  0  0  0  0  0  0  0  0  0  0
  1  7  1  0  0  0  0
  1  8  1  0  0  0  0
  2  9  1  6  0  0  0
  2  1  1  0  0  0  0
  2  3  1  0  0  0  0
  2  4  1  0  0  0  0
  3 11  1  0  0  0  0
  3 10  1  0  0  0  0
  4  5  2  0  0  0  0
  6  1  1  0  0  0  0
 12 20  1  0  0  0  0
 12 13  1  0  0  0  0
 13 23  1  0  0  0  0
 13 14  1  0  0  0  0
 14 25  1  1  0  0  0
 14 16  1  0  0  0  0
 15 14  1  0  0  0  0
 15 28  1  0  0  0  0
 16 29  1  1  0  0  0
 16 18  1  0  0  0  0
 17  4  1  0  0  0  0
 17 16  1  0  0  0  0
 18 36  1  0  0  0  0
 18 19  2  0  0  0  0
 21 12  1  0  0  0  0
 22 12  1  0  0  0  0
 24 13  1  0  0  0  0
 26 15  1  0  0  0  0
 27 15  1  0  0  0  0
 30 17  1  0  0  0  0
 31 40  1  0  0  0  0
 31 32  1  0  0  0  0
 32 34  1  0  0  0  0
 33 32  2  0  0  0  0
 34 35  1  0  0  0  0
 34 43  1  0  0  0  0
 35 44  1  1  0  0  0
 35 37  1  0  0  0  0
 36 35  1  0  0  0  0
 37 39  2  0  0  0  0
 37 38  1  0  0  0  0
 41 31  1  0  0  0  0
 42 34  1  0  0  0  0
 45 36  1  0  0  0  0
M  END
$$$$
