AIP.pdb
 OpenBabel07022418013D

 45 45  0  0  1  0  0  0  0  0999 V2000
   -2.0610   -5.0900   -0.3280 C   0  0  0  0  0  0  0  0  0  0  0  0
   -1.9220   -3.7760   -1.0800 C   0  0  2  0  0  0  0  0  0  0  0  0
   -1.0950   -3.9140   -2.2570 N   0  0  0  0  0  0  0  0  0  0  0  0
   -1.4130   -2.7700   -0.1360 C   0  0  0  0  0  0  0  0  0  0  0  0
   -2.0700   -2.5790    0.9200 O   0  0  0  0  0  0  0  0  0  0  0  0
   -2.3470   -5.9140   -1.0140 H   0  0  0  0  0  0  0  0  0  0  0  0
   -1.1070   -5.2870    0.1970 H   0  0  0  0  0  0  0  0  0  0  0  0
   -2.8340   -4.9220    0.4580 H   0  0  0  0  0  0  0  0  0  0  0  0
   -2.9520   -3.4750   -1.3750 H   0  0  0  0  0  0  0  0  0  0  0  0
   -1.6920   -4.4270   -2.9710 H   0  0  0  0  0  0  0  0  0  0  0  0
   -0.2660   -4.5220   -2.0960 H   0  0  0  0  0  0  0  0  0  0  0  0
    1.4250   -0.7550    3.4700 C   0  0  0  0  0  0  0  0  0  0  0  0
    2.2420   -0.7840    2.2070 C   0  0  0  0  0  0  0  0  0  0  0  0
    1.5660   -1.5880    1.1420 C   0  0  2  0  0  0  0  0  0  0  0  0
    2.5160   -1.5640   -0.0630 C   0  0  0  0  0  0  0  0  0  0  0  0
    0.2150   -0.9940    0.6790 C   0  0  2  0  0  0  0  0  0  0  0  0
   -0.2470   -2.0040   -0.3250 N   0  0  0  0  0  0  0  0  0  0  0  0
    0.3790    0.2870   -0.0350 C   0  0  0  0  0  0  0  0  0  0  0  0
    0.5010    0.2360   -1.3420 O   0  0  0  0  0  0  0  0  0  0  0  0
    1.4020   -1.8020    3.8570 H   0  0  0  0  0  0  0  0  0  0  0  0
    1.9480   -0.0810    4.1810 H   0  0  0  0  0  0  0  0  0  0  0  0
    0.4100   -0.3940    3.2950 H   0  0  0  0  0  0  0  0  0  0  0  0
    3.2230   -1.3020    2.4440 H   0  0  0  0  0  0  0  0  0  0  0  0
    2.4950    0.1980    1.7870 H   0  0  0  0  0  0  0  0  0  0  0  0
    1.4030   -2.6450    1.4010 H   0  0  0  0  0  0  0  0  0  0  0  0
    2.2970   -2.3490   -0.7860 H   0  0  0  0  0  0  0  0  0  0  0  0
    2.5610   -0.5410   -0.4710 H   0  0  0  0  0  0  0  0  0  0  0  0
    3.5330   -1.7850    0.3540 H   0  0  0  0  0  0  0  0  0  0  0  0
   -0.4170   -0.9130    1.5330 H   0  0  0  0  0  0  0  0  0  0  0  0
    0.3090   -2.1440   -1.1860 H   0  0  0  0  0  0  0  0  0  0  0  0
    0.4240    1.6030    0.4590 N   0  0  0  0  0  0  0  0  0  0  0  0
    0.6680    2.7980   -0.3880 C   0  0  0  0  0  0  0  0  0  0  0  0
    1.2450    3.7790    0.6000 C   0  0  0  0  0  0  0  0  0  0  0  0
    0.2340    3.6090    1.7400 C   0  0  0  0  0  0  0  0  0  0  0  0
    0.1950    2.0710    1.7850 C   0  0  1  0  0  0  0  0  0  0  0  0
   -1.1990    1.7710    2.2550 C   0  0  0  0  0  0  0  0  0  0  0  0
   -2.0150    1.2620    1.4660 O   0  0  0  0  0  0  0  0  0  0  0  0
   -1.5540    2.0610    3.5410 O   0  0  0  0  0  0  0  0  0  0  0  0
   -0.3240    3.1790   -0.6970 H   0  0  0  0  0  0  0  0  0  0  0  0
    1.3400    2.5560   -1.2150 H   0  0  0  0  0  0  0  0  0  0  0  0
    1.1770    4.8170    0.2340 H   0  0  0  0  0  0  0  0  0  0  0  0
    2.2330    3.5040    0.9810 H   0  0  0  0  0  0  0  0  0  0  0  0
    0.6570    4.0090    2.6800 H   0  0  0  0  0  0  0  0  0  0  0  0
   -0.7480    4.0210    1.5010 H   0  0  0  0  0  0  0  0  0  0  0  0
    0.9680    1.7910    2.4980 H   0  0  0  0  0  0  0  0  0  0  0  0
  1  7  1  0  0  0  0
  1  8  1  0  0  0  0
  2  9  1  6  0  0  0
  2  1  1  0  0  0  0
  2  4  1  0  0  0  0
  3 11  1  0  0  0  0
  3  2  1  0  0  0  0
  4  5  2  0  0  0  0
  6  1  1  0  0  0  0
 10  3  1  0  0  0  0
 12 20  1  0  0  0  0
 12 21  1  0  0  0  0
 13 23  1  0  0  0  0
 13 12  1  0  0  0  0
 14 25  1  1  0  0  0
 14 13  1  0  0  0  0
 15 28  1  0  0  0  0
 15 14  1  0  0  0  0
 16 14  1  0  0  0  0
 16 29  1  1  0  0  0
 17  4  1  0  0  0  0
 17 16  1  0  0  0  0
 18 31  1  0  0  0  0
 18 16  1  0  0  0  0
 19 18  2  0  0  0  0
 22 12  1  0  0  0  0
 24 13  1  0  0  0  0
 26 15  1  0  0  0  0
 27 15  1  0  0  0  0
 30 17  1  0  0  0  0
 31 35  1  0  0  0  0
 32 31  1  0  0  0  0
 32 33  1  0  0  0  0
 33 42  1  0  0  0  0
 33 34  1  0  0  0  0
 34 35  1  0  0  0  0
 34 43  1  0  0  0  0
 35 36  1  0  0  0  0
 35 45  1  1  0  0  0
 36 38  1  0  0  0  0
 37 36  2  0  0  0  0
 39 32  1  0  0  0  0
 40 32  1  0  0  0  0
 41 33  1  0  0  0  0
 44 34  1  0  0  0  0
M  END
$$$$
