AIQ.pdb
 OpenBabel07022418013D

 48 47  0  0  1  0  0  0  0  0999 V2000
    0.5490   -3.5440    2.5370 C   0  0  0  0  0  0  0  0  0  0  0  0
    1.8610   -2.9850    2.0530 C   0  0  2  0  0  0  0  0  0  0  0  0
    2.7300   -2.8660    3.2260 N   0  0  0  0  0  0  0  0  0  0  0  0
    1.7470   -1.6270    1.4650 C   0  0  0  0  0  0  0  0  0  0  0  0
    2.3270   -0.6530    1.9840 O   0  0  0  0  0  0  0  0  0  0  0  0
    0.4190   -3.2400    3.5950 H   0  0  0  0  0  0  0  0  0  0  0  0
    0.6810   -4.6580    2.5650 H   0  0  0  0  0  0  0  0  0  0  0  0
   -0.3160   -3.2560    1.9260 H   0  0  0  0  0  0  0  0  0  0  0  0
    2.2990   -3.7070    1.3180 H   0  0  0  0  0  0  0  0  0  0  0  0
    2.5490   -3.6260    3.9220 H   0  0  0  0  0  0  0  0  0  0  0  0
    2.5490   -1.9610    3.7150 H   0  0  0  0  0  0  0  0  0  0  0  0
    3.8140    0.7400   -0.8890 C   0  0  0  0  0  0  0  0  0  0  0  0
    2.9930   -0.2870   -1.6020 C   0  0  0  0  0  0  0  0  0  0  0  0
    1.5230    0.0500   -1.6360 C   0  0  2  0  0  0  0  0  0  0  0  0
    1.3430    1.3460   -2.3350 C   0  0  0  0  0  0  0  0  0  0  0  0
    0.8770   -0.0370   -0.2860 C   0  0  2  0  0  0  0  0  0  0  0  0
    0.9760   -1.3630    0.2820 N   0  0  0  0  0  0  0  0  0  0  0  0
   -0.5220    0.4120   -0.2670 C   0  0  0  0  0  0  0  0  0  0  0  0
   -0.9040    1.5180   -0.7160 O   0  0  0  0  0  0  0  0  0  0  0  0
    3.3440    1.7430   -0.8650 H   0  0  0  0  0  0  0  0  0  0  0  0
    4.0830    0.3910    0.1460 H   0  0  0  0  0  0  0  0  0  0  0  0
    4.7880    0.8700   -1.4060 H   0  0  0  0  0  0  0  0  0  0  0  0
    3.1830   -1.2640   -1.0940 H   0  0  0  0  0  0  0  0  0  0  0  0
    3.4030   -0.4130   -2.6260 H   0  0  0  0  0  0  0  0  0  0  0  0
    1.0410   -0.7480   -2.2710 H   0  0  0  0  0  0  0  0  0  0  0  0
    0.4070    1.3940   -2.9580 H   0  0  0  0  0  0  0  0  0  0  0  0
    1.4370    2.2390   -1.6740 H   0  0  0  0  0  0  0  0  0  0  0  0
    2.1730    1.4460   -3.0790 H   0  0  0  0  0  0  0  0  0  0  0  0
    1.4630    0.6800    0.3640 H   0  0  0  0  0  0  0  0  0  0  0  0
    0.5000   -2.1970   -0.1260 H   0  0  0  0  0  0  0  0  0  0  0  0
   -1.6580   -1.4900    4.2330 N   0  0  0  0  0  0  0  0  0  0  0  0
   -1.9770   -0.4690    3.2650 C   0  0  0  0  0  0  0  0  0  0  0  0
   -1.0100    0.2070    2.8390 O   0  0  0  0  0  0  0  0  0  0  0  0
   -3.3650   -0.2530    2.8240 C   0  0  0  0  0  0  0  0  0  0  0  0
   -3.4540    0.5080    1.5420 C   0  0  0  0  0  0  0  0  0  0  0  0
   -2.8880   -0.1250    0.3410 C   0  0  2  0  0  0  0  0  0  0  0  0
   -1.5070   -0.4510    0.2910 N   0  0  0  0  0  0  0  0  0  0  0  0
   -3.4400    0.4600   -0.9300 C   0  0  0  0  0  0  0  0  0  0  0  0
   -4.6100    0.8850   -0.8920 O   0  0  0  0  0  0  0  0  0  0  0  0
   -2.7130    0.5250   -2.0730 O   0  0  0  0  0  0  0  0  0  0  0  0
   -1.0730   -1.2230    5.0510 H   0  0  0  0  0  0  0  0  0  0  0  0
   -1.9830   -2.4690    4.1520 H   0  0  0  0  0  0  0  0  0  0  0  0
   -3.7900   -1.2690    2.6140 H   0  0  0  0  0  0  0  0  0  0  0  0
   -3.9760    0.2330    3.6330 H   0  0  0  0  0  0  0  0  0  0  0  0
   -3.0360    1.5250    1.7570 H   0  0  0  0  0  0  0  0  0  0  0  0
   -4.5460    0.7010    1.3410 H   0  0  0  0  0  0  0  0  0  0  0  0
   -3.4160   -1.1760    0.2890 H   0  0  0  0  0  0  0  0  0  0  0  0
   -1.1920   -1.4060    0.6910 H   0  0  0  0  0  0  0  0  0  0  0  0
  1  7  1  0  0  0  0
  1  6  1  0  0  0  0
  2  9  1  6  0  0  0
  2  1  1  0  0  0  0
  2  3  1  0  0  0  0
  3 11  1  0  0  0  0
  3 10  1  0  0  0  0
  4  5  2  0  0  0  0
  4  2  1  0  0  0  0
  8  1  1  0  0  0  0
 12 20  1  0  0  0  0
 12 21  1  0  0  0  0
 13 23  1  0  0  0  0
 13 12  1  0  0  0  0
 14 25  1  6  0  0  0
 14 13  1  0  0  0  0
 14 16  1  0  0  0  0
 15 27  1  0  0  0  0
 15 14  1  0  0  0  0
 16 18  1  0  0  0  0
 16 17  1  0  0  0  0
 16 29  1  1  0  0  0
 17  4  1  0  0  0  0
 18 37  1  0  0  0  0
 19 18  2  0  0  0  0
 22 12  1  0  0  0  0
 24 13  1  0  0  0  0
 26 15  1  0  0  0  0
 28 15  1  0  0  0  0
 30 17  1  0  0  0  0
 31 41  1  0  0  0  0
 32 31  1  0  0  0  0
 33 32  2  0  0  0  0
 34 32  1  0  0  0  0
 34 44  1  0  0  0  0
 35 45  1  0  0  0  0
 35 34  1  0  0  0  0
 36 47  1  1  0  0  0
 36 35  1  0  0  0  0
 37 36  1  0  0  0  0
 37 48  1  0  0  0  0
 38 39  1  0  0  0  0
 38 36  1  0  0  0  0
 40 38  2  0  0  0  0
 42 31  1  0  0  0  0
 43 34  1  0  0  0  0
 46 35  1  0  0  0  0
M  END
$$$$
