AIS.pdb
 OpenBabel07022418013D

 42 41  0  0  1  0  0  0  0  0999 V2000
    0.6830   -4.5070    1.7310 C   0  0  0  0  0  0  0  0  0  0  0  0
    0.2010   -3.3350    2.5590 C   0  0  2  0  0  0  0  0  0  0  0  0
   -0.9400   -3.7670    3.3050 N   0  0  0  0  0  0  0  0  0  0  0  0
   -0.1030   -2.2040    1.6470 C   0  0  0  0  0  0  0  0  0  0  0  0
   -1.2730   -1.7720    1.6320 O   0  0  0  0  0  0  0  0  0  0  0  0
   -0.1650   -4.8170    1.0850 H   0  0  0  0  0  0  0  0  0  0  0  0
    1.5430   -4.1860    1.1120 H   0  0  0  0  0  0  0  0  0  0  0  0
    0.9570   -5.3610    2.3830 H   0  0  0  0  0  0  0  0  0  0  0  0
    0.9930   -3.0580    3.3030 H   0  0  0  0  0  0  0  0  0  0  0  0
   -1.7980   -3.7130    2.7410 H   0  0  0  0  0  0  0  0  0  0  0  0
   -0.7610   -4.7370    3.6480 H   0  0  0  0  0  0  0  0  0  0  0  0
   -0.4620   -3.1440   -1.2960 C   0  0  0  0  0  0  0  0  0  0  0  0
   -0.5770   -1.7860   -1.8890 C   0  0  0  0  0  0  0  0  0  0  0  0
   -0.5820   -0.6190   -0.9590 C   0  0  2  0  0  0  0  0  0  0  0  0
   -0.7120    0.6230   -1.8300 C   0  0  0  0  0  0  0  0  0  0  0  0
    0.6560   -0.5140   -0.0950 C   0  0  2  0  0  0  0  0  0  0  0  0
    0.8690   -1.5990    0.8020 N   0  0  0  0  0  0  0  0  0  0  0  0
    0.8760    0.8060    0.4940 C   0  0  0  0  0  0  0  0  0  0  0  0
    0.7310    1.8270   -0.2110 O   0  0  0  0  0  0  0  0  0  0  0  0
   -0.5850   -3.9100   -2.1280 H   0  0  0  0  0  0  0  0  0  0  0  0
    0.5350   -3.2810   -0.8790 H   0  0  0  0  0  0  0  0  0  0  0  0
   -1.3170   -3.3270   -0.6290 H   0  0  0  0  0  0  0  0  0  0  0  0
   -1.5280   -1.6880   -2.5100 H   0  0  0  0  0  0  0  0  0  0  0  0
    0.2790   -1.6060   -2.6170 H   0  0  0  0  0  0  0  0  0  0  0  0
   -1.5200   -0.6220   -0.3430 H   0  0  0  0  0  0  0  0  0  0  0  0
   -1.2540    1.4420   -1.3370 H   0  0  0  0  0  0  0  0  0  0  0  0
   -1.3700    0.3180   -2.6970 H   0  0  0  0  0  0  0  0  0  0  0  0
    0.2510    0.8830   -2.2820 H   0  0  0  0  0  0  0  0  0  0  0  0
    1.4900   -0.6390   -0.8900 H   0  0  0  0  0  0  0  0  0  0  0  0
    1.8330   -2.0530    0.9030 H   0  0  0  0  0  0  0  0  0  0  0  0
    2.7450    4.2270    2.4870 O   0  0  0  0  0  0  0  0  0  0  0  0
    2.6920    2.9680    1.8900 C   0  0  0  0  0  0  0  0  0  0  0  0
    1.4500    2.2910    2.3880 C   0  0  2  0  0  0  0  0  0  0  0  0
    1.2520    0.9620    1.8540 N   0  0  0  0  0  0  0  0  0  0  0  0
    0.2650    3.1830    2.1660 C   0  0  0  0  0  0  0  0  0  0  0  0
   -0.7930    2.7950    1.6210 O   0  0  0  0  0  0  0  0  0  0  0  0
    0.3030    4.5100    2.5710 O   0  0  0  0  0  0  0  0  0  0  0  0
    2.6220    4.2070    3.4580 H   0  0  0  0  0  0  0  0  0  0  0  0
    3.5910    2.3760    2.0560 H   0  0  0  0  0  0  0  0  0  0  0  0
    2.5520    3.1440    0.7840 H   0  0  0  0  0  0  0  0  0  0  0  0
    1.5050    2.1920    3.5100 H   0  0  0  0  0  0  0  0  0  0  0  0
    1.3870    0.1050    2.4770 H   0  0  0  0  0  0  0  0  0  0  0  0
  1  8  1  0  0  0  0
  1  2  1  0  0  0  0
  2  9  1  1  0  0  0
  2  3  1  0  0  0  0
  3 11  1  0  0  0  0
  4  2  1  0  0  0  0
  5  4  2  0  0  0  0
  6  1  1  0  0  0  0
  7  1  1  0  0  0  0
 10  3  1  0  0  0  0
 12 21  1  0  0  0  0
 12 22  1  0  0  0  0
 13 12  1  0  0  0  0
 13 14  1  0  0  0  0
 14 25  1  1  0  0  0
 14 16  1  0  0  0  0
 15 26  1  0  0  0  0
 15 14  1  0  0  0  0
 16 29  1  6  0  0  0
 16 18  1  0  0  0  0
 16 17  1  0  0  0  0
 17 30  1  0  0  0  0
 17  4  1  0  0  0  0
 18 34  1  0  0  0  0
 19 18  2  0  0  0  0
 20 12  1  0  0  0  0
 23 13  1  0  0  0  0
 24 13  1  0  0  0  0
 27 15  1  0  0  0  0
 28 15  1  0  0  0  0
 31 38  1  0  0  0  0
 32 39  1  0  0  0  0
 32 33  1  0  0  0  0
 32 31  1  0  0  0  0
 33 41  1  1  0  0  0
 34 33  1  0  0  0  0
 34 42  1  0  0  0  0
 35 33  1  0  0  0  0
 35 37  1  0  0  0  0
 36 35  2  0  0  0  0
 40 32  1  0  0  0  0
M  END
$$$$
