AIT.pdb
 OpenBabel07022418013D

 45 44  0  0  1  0  0  0  0  0999 V2000
   -1.9040   -4.3780    3.2770 C   0  0  0  0  0  0  0  0  0  0  0  0
   -1.5250   -2.9360    3.5400 C   0  0  2  0  0  0  0  0  0  0  0  0
   -2.7540   -2.1530    3.4400 N   0  0  0  0  0  0  0  0  0  0  0  0
   -0.5640   -2.5350    2.4790 C   0  0  0  0  0  0  0  0  0  0  0  0
    0.5390   -3.1220    2.4400 O   0  0  0  0  0  0  0  0  0  0  0  0
   -2.8250   -4.4640    2.6660 H   0  0  0  0  0  0  0  0  0  0  0  0
   -1.0290   -4.8720    2.8180 H   0  0  0  0  0  0  0  0  0  0  0  0
   -2.0380   -4.8690    4.2820 H   0  0  0  0  0  0  0  0  0  0  0  0
   -1.0810   -2.8390    4.5550 H   0  0  0  0  0  0  0  0  0  0  0  0
   -3.2530   -2.2400    4.3350 H   0  0  0  0  0  0  0  0  0  0  0  0
   -3.3230   -2.6010    2.6860 H   0  0  0  0  0  0  0  0  0  0  0  0
   -1.7950   -3.4740   -0.2560 C   0  0  0  0  0  0  0  0  0  0  0  0
   -0.9520   -2.7180   -1.2040 C   0  0  0  0  0  0  0  0  0  0  0  0
   -0.5530   -1.3290   -0.8580 C   0  0  2  0  0  0  0  0  0  0  0  0
    0.2830   -0.8180   -2.0200 C   0  0  0  0  0  0  0  0  0  0  0  0
    0.0980   -1.1230    0.4710 C   0  0  2  0  0  0  0  0  0  0  0  0
   -0.8460   -1.5320    1.5310 N   0  0  0  0  0  0  0  0  0  0  0  0
    0.4500    0.3020    0.7560 C   0  0  0  0  0  0  0  0  0  0  0  0
   -0.1690    0.9410    1.6810 O   0  0  0  0  0  0  0  0  0  0  0  0
   -1.2190   -4.2480    0.3220 H   0  0  0  0  0  0  0  0  0  0  0  0
   -2.4920   -2.8920    0.3650 H   0  0  0  0  0  0  0  0  0  0  0  0
   -2.4880   -4.1350   -0.8860 H   0  0  0  0  0  0  0  0  0  0  0  0
   -1.5030   -2.6610   -2.1990 H   0  0  0  0  0  0  0  0  0  0  0  0
   -0.0450   -3.3280   -1.4500 H   0  0  0  0  0  0  0  0  0  0  0  0
   -1.5050   -0.7110   -0.9190 H   0  0  0  0  0  0  0  0  0  0  0  0
   -0.1220   -1.2580   -2.9880 H   0  0  0  0  0  0  0  0  0  0  0  0
    0.2510    0.2530   -2.1720 H   0  0  0  0  0  0  0  0  0  0  0  0
    1.3250   -1.1790   -1.9920 H   0  0  0  0  0  0  0  0  0  0  0  0
    0.9920   -1.7760    0.5280 H   0  0  0  0  0  0  0  0  0  0  0  0
   -1.7760   -1.0490    1.5990 H   0  0  0  0  0  0  0  0  0  0  0  0
    3.5680    3.8790    1.3330 C   0  0  0  0  0  0  0  0  0  0  0  0
    3.1580    2.4780    0.9220 C   0  0  1  0  0  0  0  0  0  0  0  0
    3.3170    1.6600    2.0330 O   0  0  0  0  0  0  0  0  0  0  0  0
    1.7110    2.4580    0.4340 C   0  0  2  0  0  0  0  0  0  0  0  0
    1.4300    1.0540    0.0930 N   0  0  0  0  0  0  0  0  0  0  0  0
    1.5240    3.3340   -0.7340 C   0  0  0  0  0  0  0  0  0  0  0  0
    1.1680    2.8610   -1.8490 O   0  0  0  0  0  0  0  0  0  0  0  0
    1.7280    4.7030   -0.6690 O   0  0  0  0  0  0  0  0  0  0  0  0
    2.6850    4.3470    1.8210 H   0  0  0  0  0  0  0  0  0  0  0  0
    3.9080    4.4480    0.4570 H   0  0  0  0  0  0  0  0  0  0  0  0
    4.3880    3.7680    2.0730 H   0  0  0  0  0  0  0  0  0  0  0  0
    3.8600    2.1430    0.1500 H   0  0  0  0  0  0  0  0  0  0  0  0
    3.7030    0.7830    1.8350 H   0  0  0  0  0  0  0  0  0  0  0  0
    1.0690    2.8170    1.2460 H   0  0  0  0  0  0  0  0  0  0  0  0
    2.0000    0.6230   -0.6580 H   0  0  0  0  0  0  0  0  0  0  0  0
  1  2  1  0  0  0  0
  1  8  1  0  0  0  0
  2  9  1  1  0  0  0
  3  2  1  0  0  0  0
  3 10  1  0  0  0  0
  4  2  1  0  0  0  0
  5  4  2  0  0  0  0
  6  1  1  0  0  0  0
  7  1  1  0  0  0  0
 11  3  1  0  0  0  0
 12 20  1  0  0  0  0
 12 21  1  0  0  0  0
 13 14  1  0  0  0  0
 13 12  1  0  0  0  0
 14 25  1  1  0  0  0
 14 16  1  0  0  0  0
 15 28  1  0  0  0  0
 15 14  1  0  0  0  0
 16 29  1  1  0  0  0
 16 18  1  0  0  0  0
 16 17  1  0  0  0  0
 17 30  1  0  0  0  0
 17  4  1  0  0  0  0
 18 19  2  0  0  0  0
 22 12  1  0  0  0  0
 23 13  1  0  0  0  0
 24 13  1  0  0  0  0
 26 15  1  0  0  0  0
 27 15  1  0  0  0  0
 31 39  1  0  0  0  0
 31 41  1  0  0  0  0
 32 42  1  6  0  0  0
 32 31  1  0  0  0  0
 32 33  1  0  0  0  0
 34 32  1  0  0  0  0
 34 44  1  1  0  0  0
 35 34  1  0  0  0  0
 35 18  1  0  0  0  0
 36 38  1  0  0  0  0
 36 34  1  0  0  0  0
 37 36  2  0  0  0  0
 40 31  1  0  0  0  0
 43 33  1  0  0  0  0
 45 35  1  0  0  0  0
M  END
$$$$
