AIV.pdb
 OpenBabel07022418013D

 47 46  0  0  1  0  0  0  0  0999 V2000
    0.3700   -3.7420   -2.6020 C   0  0  0  0  0  0  0  0  0  0  0  0
   -0.5320   -2.8410   -1.7920 C   0  0  2  0  0  0  0  0  0  0  0  0
   -0.7970   -1.6290   -2.5070 N   0  0  0  0  0  0  0  0  0  0  0  0
    0.1240   -2.6050   -0.4810 C   0  0  0  0  0  0  0  0  0  0  0  0
    0.4060   -3.5960    0.2390 O   0  0  0  0  0  0  0  0  0  0  0  0
   -0.2280   -4.5900   -2.9970 H   0  0  0  0  0  0  0  0  0  0  0  0
    0.7880   -3.1490   -3.4310 H   0  0  0  0  0  0  0  0  0  0  0  0
    1.1950   -4.1400   -1.9790 H   0  0  0  0  0  0  0  0  0  0  0  0
   -1.5290   -3.3360   -1.6190 H   0  0  0  0  0  0  0  0  0  0  0  0
   -1.5870   -1.0820   -2.1250 H   0  0  0  0  0  0  0  0  0  0  0  0
    0.0500   -1.0560   -2.6900 H   0  0  0  0  0  0  0  0  0  0  0  0
    3.5760   -2.5260    0.9420 C   0  0  0  0  0  0  0  0  0  0  0  0
    3.3310   -1.1970    0.2760 C   0  0  0  0  0  0  0  0  0  0  0  0
    2.3980   -0.3450    1.1070 C   0  0  2  0  0  0  0  0  0  0  0  0
    3.0500   -0.1340    2.4550 C   0  0  0  0  0  0  0  0  0  0  0  0
    1.0840   -1.0510    1.2620 C   0  0  2  0  0  0  0  0  0  0  0  0
    0.4450   -1.3050   -0.0090 N   0  0  0  0  0  0  0  0  0  0  0  0
    0.1470   -0.2720    2.1270 C   0  0  0  0  0  0  0  0  0  0  0  0
    0.4460    0.0870    3.2910 O   0  0  0  0  0  0  0  0  0  0  0  0
    4.6700   -2.7560    1.0170 H   0  0  0  0  0  0  0  0  0  0  0  0
    3.2370   -2.4980    2.0160 H   0  0  0  0  0  0  0  0  0  0  0  0
    3.1330   -3.3540    0.3720 H   0  0  0  0  0  0  0  0  0  0  0  0
    2.9100   -1.3210   -0.7460 H   0  0  0  0  0  0  0  0  0  0  0  0
    4.3330   -0.6880    0.1910 H   0  0  0  0  0  0  0  0  0  0  0  0
    2.2790    0.6510    0.6230 H   0  0  0  0  0  0  0  0  0  0  0  0
    2.7010   -0.8640    3.2130 H   0  0  0  0  0  0  0  0  0  0  0  0
    2.8780    0.9170    2.8220 H   0  0  0  0  0  0  0  0  0  0  0  0
    4.1560   -0.2460    2.4040 H   0  0  0  0  0  0  0  0  0  0  0  0
    1.2770   -2.0420    1.7210 H   0  0  0  0  0  0  0  0  0  0  0  0
    0.2160   -0.4770   -0.5960 H   0  0  0  0  0  0  0  0  0  0  0  0
   -1.1320    3.0210    1.7390 C   0  0  0  0  0  0  0  0  0  0  0  0
   -2.3900    2.1910    1.8530 C   0  0  0  0  0  0  0  0  0  0  0  0
   -3.0780    2.1440    0.5400 C   0  0  0  0  0  0  0  0  0  0  0  0
   -2.0640    0.8310    2.4300 C   0  0  2  0  0  0  0  0  0  0  0  0
   -1.1370    0.0870    1.6350 N   0  0  0  0  0  0  0  0  0  0  0  0
   -3.3150    0.1010    2.7200 C   0  0  0  0  0  0  0  0  0  0  0  0
   -4.1930    0.6760    3.4130 O   0  0  0  0  0  0  0  0  0  0  0  0
   -3.6050   -1.1820    2.2830 O   0  0  0  0  0  0  0  0  0  0  0  0
   -1.3680    3.9940    1.3050 H   0  0  0  0  0  0  0  0  0  0  0  0
   -0.4090    2.4300    1.1290 H   0  0  0  0  0  0  0  0  0  0  0  0
   -0.6560    3.1990    2.7240 H   0  0  0  0  0  0  0  0  0  0  0  0
   -3.0390    2.7020    2.5920 H   0  0  0  0  0  0  0  0  0  0  0  0
   -4.1460    2.4120    0.6750 H   0  0  0  0  0  0  0  0  0  0  0  0
   -3.0760    1.1420    0.0620 H   0  0  0  0  0  0  0  0  0  0  0  0
   -2.6670    2.9240   -0.1660 H   0  0  0  0  0  0  0  0  0  0  0  0
   -1.5870    1.0360    3.4140 H   0  0  0  0  0  0  0  0  0  0  0  0
   -1.3890   -0.2200    0.6450 H   0  0  0  0  0  0  0  0  0  0  0  0
  1  8  1  0  0  0  0
  1  2  1  0  0  0  0
  2  9  1  1  0  0  0
  2  4  1  0  0  0  0
  3 10  1  0  0  0  0
  3  2  1  0  0  0  0
  4 17  1  0  0  0  0
  4  5  2  0  0  0  0
  6  1  1  0  0  0  0
  7  1  1  0  0  0  0
 11  3  1  0  0  0  0
 12 20  1  0  0  0  0
 12 21  1  0  0  0  0
 13 12  1  0  0  0  0
 13 14  1  0  0  0  0
 14 25  1  6  0  0  0
 14 16  1  0  0  0  0
 14 15  1  0  0  0  0
 15 27  1  0  0  0  0
 15 26  1  0  0  0  0
 16 29  1  1  0  0  0
 16 18  1  0  0  0  0
 17 16  1  0  0  0  0
 18 19  2  0  0  0  0
 22 12  1  0  0  0  0
 23 13  1  0  0  0  0
 24 13  1  0  0  0  0
 28 15  1  0  0  0  0
 30 17  1  0  0  0  0
 31 32  1  0  0  0  0
 31 41  1  0  0  0  0
 32 34  1  0  0  0  0
 32 42  1  0  0  0  0
 33 43  1  0  0  0  0
 33 32  1  0  0  0  0
 34 36  1  0  0  0  0
 34 46  1  1  0  0  0
 35 18  1  0  0  0  0
 35 34  1  0  0  0  0
 36 37  1  0  0  0  0
 38 36  2  0  0  0  0
 39 31  1  0  0  0  0
 40 31  1  0  0  0  0
 44 33  1  0  0  0  0
 45 33  1  0  0  0  0
 47 35  1  0  0  0  0
M  END
$$$$
