AIW.pdb
 OpenBabel07022418013D

 55 56  0  0  1  0  0  0  0  0999 V2000
   -1.2400    3.3240    1.6730 C   0  0  0  0  0  0  0  0  0  0  0  0
    0.1250    3.8470    2.0950 C   0  0  2  0  0  0  0  0  0  0  0  0
    0.3280    5.1920    1.5960 N   0  0  0  0  0  0  0  0  0  0  0  0
    1.1890    2.9740    1.5500 C   0  0  0  0  0  0  0  0  0  0  0  0
    2.0730    3.4790    0.7980 O   0  0  0  0  0  0  0  0  0  0  0  0
   -2.0260    3.7500    2.3650 H   0  0  0  0  0  0  0  0  0  0  0  0
   -1.3170    2.2360    1.7760 H   0  0  0  0  0  0  0  0  0  0  0  0
   -1.4490    3.6370    0.6300 H   0  0  0  0  0  0  0  0  0  0  0  0
    0.2070    3.8240    3.2200 H   0  0  0  0  0  0  0  0  0  0  0  0
   -0.5140    5.7610    1.7870 H   0  0  0  0  0  0  0  0  0  0  0  0
    0.4420    5.1450    0.5570 H   0  0  0  0  0  0  0  0  0  0  0  0
    3.8450   -2.0960    1.9820 C   0  0  0  0  0  0  0  0  0  0  0  0
    4.1810   -0.6590    2.2010 C   0  0  0  0  0  0  0  0  0  0  0  0
    3.0420    0.2490    2.4870 C   0  0  2  0  0  0  0  0  0  0  0  0
    2.2320   -0.1510    3.7220 C   0  0  0  0  0  0  0  0  0  0  0  0
    2.2330    0.7470    1.3530 C   0  0  2  0  0  0  0  0  0  0  0  0
    1.1770    1.6050    1.8930 N   0  0  0  0  0  0  0  0  0  0  0  0
    1.6910   -0.2410    0.4150 C   0  0  0  0  0  0  0  0  0  0  0  0
    2.4250   -1.0210   -0.2350 O   0  0  0  0  0  0  0  0  0  0  0  0
    4.3360   -2.7530    2.7750 H   0  0  0  0  0  0  0  0  0  0  0  0
    4.3210   -2.4400    1.0480 H   0  0  0  0  0  0  0  0  0  0  0  0
    2.7770   -2.3490    2.0740 H   0  0  0  0  0  0  0  0  0  0  0  0
    4.9570   -0.6180    3.0240 H   0  0  0  0  0  0  0  0  0  0  0  0
    4.7360   -0.2210    1.3210 H   0  0  0  0  0  0  0  0  0  0  0  0
    3.5680    1.2120    2.8890 H   0  0  0  0  0  0  0  0  0  0  0  0
    2.9370   -0.6260    4.4290 H   0  0  0  0  0  0  0  0  0  0  0  0
    1.3740   -0.7920    3.4580 H   0  0  0  0  0  0  0  0  0  0  0  0
    1.8180    0.7410    4.2300 H   0  0  0  0  0  0  0  0  0  0  0  0
    2.8890    1.4330    0.7380 H   0  0  0  0  0  0  0  0  0  0  0  0
    0.4780    1.1330    2.5040 H   0  0  0  0  0  0  0  0  0  0  0  0
    0.2800   -0.3940    0.1700 N   0  0  0  0  0  0  0  0  0  0  0  0
   -0.2630   -1.3740   -0.7600 C   0  0  1  0  0  0  0  0  0  0  0  0
   -0.9780   -2.4430    0.0210 C   0  0  0  0  0  0  0  0  0  0  0  0
   -1.6090   -3.4900   -0.7430 C   0  0  0  0  0  0  0  0  0  0  0  0
   -1.0330   -4.7220   -1.0500 C   0  0  0  0  0  0  0  0  0  0  0  0
   -1.9070   -5.4110   -1.7950 N   0  0  0  0  0  0  0  0  0  0  0  0
   -3.0310   -4.6870   -1.9890 C   0  0  0  0  0  0  0  0  0  0  0  0
   -4.2120   -4.9530   -2.6640 C   0  0  0  0  0  0  0  0  0  0  0  0
   -5.2190   -4.0230   -2.6880 C   0  0  0  0  0  0  0  0  0  0  0  0
   -5.0460   -2.8250   -2.0360 C   0  0  0  0  0  0  0  0  0  0  0  0
   -3.8950   -2.5520   -1.3730 C   0  0  0  0  0  0  0  0  0  0  0  0
   -2.8500   -3.4710   -1.3270 C   0  0  0  0  0  0  0  0  0  0  0  0
   -0.9530   -0.7910   -1.8880 C   0  0  0  0  0  0  0  0  0  0  0  0
   -1.1550    0.4510   -1.9250 O   0  0  0  0  0  0  0  0  0  0  0  0
   -1.4180   -1.5200   -2.9670 O   0  0  0  0  0  0  0  0  0  0  0  0
   -0.3380    0.2530    0.7080 H   0  0  0  0  0  0  0  0  0  0  0  0
    0.6550   -1.9100   -1.1710 H   0  0  0  0  0  0  0  0  0  0  0  0
   -1.6950   -1.9480    0.7350 H   0  0  0  0  0  0  0  0  0  0  0  0
   -0.1770   -2.8980    0.6850 H   0  0  0  0  0  0  0  0  0  0  0  0
   -0.0560   -5.0880   -0.7560 H   0  0  0  0  0  0  0  0  0  0  0  0
   -1.7890   -6.3730   -2.1940 H   0  0  0  0  0  0  0  0  0  0  0  0
   -4.3380   -5.9070   -3.1770 H   0  0  0  0  0  0  0  0  0  0  0  0
   -6.1380   -4.2400   -3.2180 H   0  0  0  0  0  0  0  0  0  0  0  0
   -5.8450   -2.0860   -2.0540 H   0  0  0  0  0  0  0  0  0  0  0  0
   -3.7750   -1.6010   -0.8640 H   0  0  0  0  0  0  0  0  0  0  0  0
  1  7  1  0  0  0  0
  1  2  1  0  0  0  0
  1  6  1  0  0  0  0
  2  9  1  1  0  0  0
  3 10  1  0  0  0  0
  3  2  1  0  0  0  0
  4 17  1  0  0  0  0
  4  2  1  0  0  0  0
  5  4  2  0  0  0  0
  8  1  1  0  0  0  0
 11  3  1  0  0  0  0
 12 22  1  0  0  0  0
 12 13  1  0  0  0  0
 12 20  1  0  0  0  0
 13 14  1  0  0  0  0
 13 23  1  0  0  0  0
 14 25  1  1  0  0  0
 14 15  1  0  0  0  0
 15 28  1  0  0  0  0
 15 26  1  0  0  0  0
 16 29  1  6  0  0  0
 16 17  1  0  0  0  0
 16 14  1  0  0  0  0
 17 30  1  0  0  0  0
 18 16  1  0  0  0  0
 19 18  2  0  0  0  0
 21 12  1  0  0  0  0
 24 13  1  0  0  0  0
 27 15  1  0  0  0  0
 31 18  1  0  0  0  0
 31 46  1  0  0  0  0
 32 47  1  6  0  0  0
 32 33  1  0  0  0  0
 32 31  1  0  0  0  0
 33 49  1  0  0  0  0
 33 48  1  0  0  0  0
 34 33  1  0  0  0  0
 35 50  1  0  0  0  0
 35 34  2  0  0  0  0
 36 35  1  0  0  0  0
 37 36  1  0  0  0  0
 37 42  1  0  0  0  0
 38 37  2  0  0  0  0
 39 38  1  0  0  0  0
 39 40  2  0  0  0  0
 40 41  1  0  0  0  0
 41 42  2  0  0  0  0
 41 55  1  0  0  0  0
 42 34  1  0  0  0  0
 43 32  1  0  0  0  0
 44 43  1  0  0  0  0
 45 43  2  0  0  0  0
 51 36  1  0  0  0  0
 52 38  1  0  0  0  0
 53 39  1  0  0  0  0
 54 40  1  0  0  0  0
M  END
$$$$
