AKA.pdb
 OpenBabel07022418013D

 43 42  0  0  1  0  0  0  0  0999 V2000
    1.5000   -5.1140   -0.5310 C   0  0  0  0  0  0  0  0  0  0  0  0
    0.9730   -4.4110    0.7020 C   0  0  2  0  0  0  0  0  0  0  0  0
   -0.4480   -4.5300    0.7120 N   0  0  0  0  0  0  0  0  0  0  0  0
    1.4510   -3.0130    0.7960 C   0  0  0  0  0  0  0  0  0  0  0  0
    2.6880   -2.7830    0.7960 O   0  0  0  0  0  0  0  0  0  0  0  0
    0.7610   -5.9110   -0.8340 H   0  0  0  0  0  0  0  0  0  0  0  0
    1.6450   -4.4340   -1.3790 H   0  0  0  0  0  0  0  0  0  0  0  0
    2.4600   -5.6400   -0.3410 H   0  0  0  0  0  0  0  0  0  0  0  0
    1.3730   -4.9580    1.5810 H   0  0  0  0  0  0  0  0  0  0  0  0
   -0.8880   -4.2790    1.6240 H   0  0  0  0  0  0  0  0  0  0  0  0
   -0.9150   -4.1150   -0.1100 H   0  0  0  0  0  0  0  0  0  0  0  0
    0.5860   -1.8880    0.8870 N   0  0  0  0  0  0  0  0  0  0  0  0
    1.0540   -0.5230    0.9780 C   0  0  1  0  0  0  0  0  0  0  0  0
    0.5160    0.3420   -0.1330 C   0  0  0  0  0  0  0  0  0  0  0  0
    0.9180   -0.1510   -1.4980 C   0  0  0  0  0  0  0  0  0  0  0  0
    0.3490    0.7570   -2.5470 C   0  0  0  0  0  0  0  0  0  0  0  0
   -1.1420    0.8410   -2.5290 C   0  0  0  0  0  0  0  0  0  0  0  0
   -1.7700   -0.4520   -2.7470 N   0  0  0  0  0  0  0  0  0  0  0  0
    0.5750    0.0420    2.2560 C   0  0  0  0  0  0  0  0  0  0  0  0
   -0.1100   -0.6720    3.0210 O   0  0  0  0  0  0  0  0  0  0  0  0
   -0.4530   -2.0970    0.8860 H   0  0  0  0  0  0  0  0  0  0  0  0
    2.1640   -0.5490    0.9620 H   0  0  0  0  0  0  0  0  0  0  0  0
   -0.5850    0.3040   -0.0720 H   0  0  0  0  0  0  0  0  0  0  0  0
    0.9320    1.3550    0.0270 H   0  0  0  0  0  0  0  0  0  0  0  0
    2.0050   -0.2390   -1.6380 H   0  0  0  0  0  0  0  0  0  0  0  0
    0.4790   -1.1690   -1.6370 H   0  0  0  0  0  0  0  0  0  0  0  0
    0.6590    0.4530   -3.5680 H   0  0  0  0  0  0  0  0  0  0  0  0
    0.7510    1.7750   -2.3870 H   0  0  0  0  0  0  0  0  0  0  0  0
   -1.4540    1.4830   -3.3790 H   0  0  0  0  0  0  0  0  0  0  0  0
   -1.5460    1.3360   -1.6160 H   0  0  0  0  0  0  0  0  0  0  0  0
   -2.1330   -0.7890   -1.8160 H   0  0  0  0  0  0  0  0  0  0  0  0
   -2.5870   -0.3790   -3.4080 H   0  0  0  0  0  0  0  0  0  0  0  0
    1.5810    2.3340    4.7410 C   0  0  0  0  0  0  0  0  0  0  0  0
    0.3620    1.9040    3.9500 C   0  0  2  0  0  0  0  0  0  0  0  0
    0.8490    1.3730    2.6810 N   0  0  0  0  0  0  0  0  0  0  0  0
   -0.4530    3.1200    3.6460 C   0  0  0  0  0  0  0  0  0  0  0  0
   -0.6270    3.5300    2.4720 O   0  0  0  0  0  0  0  0  0  0  0  0
   -1.0540    3.8460    4.6690 O   0  0  0  0  0  0  0  0  0  0  0  0
    1.3200    2.6720    5.7580 H   0  0  0  0  0  0  0  0  0  0  0  0
    2.0770    3.1260    4.1400 H   0  0  0  0  0  0  0  0  0  0  0  0
    2.2770    1.4610    4.7370 H   0  0  0  0  0  0  0  0  0  0  0  0
   -0.2050    1.1190    4.4480 H   0  0  0  0  0  0  0  0  0  0  0  0
    1.4210    1.9510    2.0280 H   0  0  0  0  0  0  0  0  0  0  0  0
  1  8  1  0  0  0  0
  1  2  1  0  0  0  0
  2  3  1  0  0  0  0
  2  4  1  0  0  0  0
  2  9  1  1  0  0  0
  3 10  1  0  0  0  0
  4 12  1  0  0  0  0
  5  4  2  0  0  0  0
  6  1  1  0  0  0  0
  7  1  1  0  0  0  0
 11  3  1  0  0  0  0
 12 13  1  0  0  0  0
 13 22  1  6  0  0  0
 13 19  1  0  0  0  0
 14 23  1  0  0  0  0
 14 24  1  0  0  0  0
 14 13  1  0  0  0  0
 15 14  1  0  0  0  0
 16 17  1  0  0  0  0
 16 28  1  0  0  0  0
 16 15  1  0  0  0  0
 17 30  1  0  0  0  0
 18 17  1  0  0  0  0
 18 31  1  0  0  0  0
 19 35  1  0  0  0  0
 19 20  2  0  0  0  0
 21 12  1  0  0  0  0
 25 15  1  0  0  0  0
 26 15  1  0  0  0  0
 27 16  1  0  0  0  0
 29 17  1  0  0  0  0
 32 18  1  0  0  0  0
 33 39  1  0  0  0  0
 34 42  1  1  0  0  0
 34 33  1  0  0  0  0
 35 34  1  0  0  0  0
 36 34  1  0  0  0  0
 36 38  1  0  0  0  0
 37 36  2  0  0  0  0
 40 33  1  0  0  0  0
 41 33  1  0  0  0  0
 43 35  1  0  0  0  0
M  END
$$$$
