AKC.pdb
 OpenBabel07022418013D

 44 43  0  0  1  0  0  0  0  0999 V2000
    1.2690   -4.4870    2.8760 C   0  0  0  0  0  0  0  0  0  0  0  0
    0.0360   -3.6380    2.5470 C   0  0  2  0  0  0  0  0  0  0  0  0
   -0.4440   -4.0730    1.2740 N   0  0  0  0  0  0  0  0  0  0  0  0
    0.4110   -2.1880    2.5400 C   0  0  0  0  0  0  0  0  0  0  0  0
    0.8510   -1.6530    3.5870 O   0  0  0  0  0  0  0  0  0  0  0  0
    0.8880   -5.5240    3.0280 H   0  0  0  0  0  0  0  0  0  0  0  0
    1.9080   -4.5100    1.9700 H   0  0  0  0  0  0  0  0  0  0  0  0
    1.7650   -4.0930    3.7670 H   0  0  0  0  0  0  0  0  0  0  0  0
   -0.7450   -3.7890    3.3100 H   0  0  0  0  0  0  0  0  0  0  0  0
   -1.3090   -4.6330    1.2950 H   0  0  0  0  0  0  0  0  0  0  0  0
    0.2740   -4.3740    0.6050 H   0  0  0  0  0  0  0  0  0  0  0  0
    0.2850   -1.3850    1.3800 N   0  0  0  0  0  0  0  0  0  0  0  0
    0.6570    0.0420    1.3830 C   0  0  1  0  0  0  0  0  0  0  0  0
    1.7100    0.2010    0.3140 C   0  0  0  0  0  0  0  0  0  0  0  0
    2.2340    1.5830    0.1510 C   0  0  0  0  0  0  0  0  0  0  0  0
    3.2900    1.6850   -0.9250 C   0  0  0  0  0  0  0  0  0  0  0  0
    4.4970    0.8170   -0.6520 C   0  0  0  0  0  0  0  0  0  0  0  0
    5.1360    1.1660    0.5770 N   0  0  0  0  0  0  0  0  0  0  0  0
   -0.5470    0.8230    1.0230 C   0  0  0  0  0  0  0  0  0  0  0  0
   -0.5610    2.0800    0.9540 O   0  0  0  0  0  0  0  0  0  0  0  0
   -0.0770   -1.8310    0.5110 H   0  0  0  0  0  0  0  0  0  0  0  0
    1.0560    0.3260    2.3780 H   0  0  0  0  0  0  0  0  0  0  0  0
    1.3220   -0.1740   -0.6710 H   0  0  0  0  0  0  0  0  0  0  0  0
    2.5870   -0.4660    0.5320 H   0  0  0  0  0  0  0  0  0  0  0  0
    2.5770    1.9740    1.1100 H   0  0  0  0  0  0  0  0  0  0  0  0
    1.4160    2.2800   -0.1890 H   0  0  0  0  0  0  0  0  0  0  0  0
    3.6430    2.7300   -0.9490 H   0  0  0  0  0  0  0  0  0  0  0  0
    2.8440    1.3760   -1.8790 H   0  0  0  0  0  0  0  0  0  0  0  0
    5.2200    0.9320   -1.4830 H   0  0  0  0  0  0  0  0  0  0  0  0
    4.2200   -0.2600   -0.6530 H   0  0  0  0  0  0  0  0  0  0  0  0
    4.6070    1.8120    1.1750 H   0  0  0  0  0  0  0  0  0  0  0  0
    6.1000    1.4870    0.3890 H   0  0  0  0  0  0  0  0  0  0  0  0
   -1.7640    0.1720    0.7340 N   0  0  0  0  0  0  0  0  0  0  0  0
   -2.9790    0.8780    0.3740 C   0  0  1  0  0  0  0  0  0  0  0  0
   -3.3290    0.3820   -1.0380 C   0  0  0  0  0  0  0  0  0  0  0  0
   -4.8240    1.1570   -1.6570 S   0  0  0  0  0  0  0  0  0  0  0  0
   -4.0290    0.4960    1.3280 C   0  0  0  0  0  0  0  0  0  0  0  0
   -5.1700    0.9830    1.2140 O   0  0  0  0  0  0  0  0  0  0  0  0
   -3.7650   -0.3900    2.3410 O   0  0  0  0  0  0  0  0  0  0  0  0
   -1.8320   -0.8650    0.7710 H   0  0  0  0  0  0  0  0  0  0  0  0
   -2.8270    1.9790    0.3570 H   0  0  0  0  0  0  0  0  0  0  0  0
   -2.4360    0.5610   -1.6590 H   0  0  0  0  0  0  0  0  0  0  0  0
   -3.5030   -0.7190   -0.9570 H   0  0  0  0  0  0  0  0  0  0  0  0
   -5.4640    0.2460   -2.5310 H   0  0  0  0  0  0  0  0  0  0  0  0
  1  6  1  0  0  0  0
  1  8  1  0  0  0  0
  2  1  1  0  0  0  0
  2  9  1  1  0  0  0
  3 10  1  0  0  0  0
  3  2  1  0  0  0  0
  4  2  1  0  0  0  0
  4  5  2  0  0  0  0
  7  1  1  0  0  0  0
 11  3  1  0  0  0  0
 12 13  1  0  0  0  0
 12  4  1  0  0  0  0
 13 22  1  1  0  0  0
 14 24  1  0  0  0  0
 14 13  1  0  0  0  0
 15 14  1  0  0  0  0
 15 25  1  0  0  0  0
 16 17  1  0  0  0  0
 16 15  1  0  0  0  0
 17 18  1  0  0  0  0
 18 31  1  0  0  0  0
 19 13  1  0  0  0  0
 20 19  2  0  0  0  0
 21 12  1  0  0  0  0
 23 14  1  0  0  0  0
 26 15  1  0  0  0  0
 27 16  1  0  0  0  0
 28 16  1  0  0  0  0
 29 17  1  0  0  0  0
 30 17  1  0  0  0  0
 32 18  1  0  0  0  0
 33 40  1  0  0  0  0
 33 19  1  0  0  0  0
 34 41  1  1  0  0  0
 34 33  1  0  0  0  0
 34 37  1  0  0  0  0
 35 43  1  0  0  0  0
 35 34  1  0  0  0  0
 36 35  1  0  0  0  0
 37 39  1  0  0  0  0
 38 37  2  0  0  0  0
 42 35  1  0  0  0  0
 44 36  1  0  0  0  0
M  END
$$$$
