AKE.pdb
 OpenBabel07022418013D

 49 48  0  0  1  0  0  0  0  0999 V2000
   -1.0640   -3.2860    3.4620 C   0  0  0  0  0  0  0  0  0  0  0  0
    0.4230   -3.4290    3.1830 C   0  0  2  0  0  0  0  0  0  0  0  0
    1.0800   -3.5890    4.4650 N   0  0  0  0  0  0  0  0  0  0  0  0
    0.9760   -2.2590    2.4920 C   0  0  0  0  0  0  0  0  0  0  0  0
    1.8830   -1.5720    3.0290 O   0  0  0  0  0  0  0  0  0  0  0  0
   -1.3710   -4.0440    4.2120 H   0  0  0  0  0  0  0  0  0  0  0  0
   -1.2930   -2.2930    3.9080 H   0  0  0  0  0  0  0  0  0  0  0  0
   -1.6150   -3.4870    2.5370 H   0  0  0  0  0  0  0  0  0  0  0  0
    0.5710   -4.3580    2.6000 H   0  0  0  0  0  0  0  0  0  0  0  0
    0.5550   -2.9700    5.1410 H   0  0  0  0  0  0  0  0  0  0  0  0
    2.0380   -3.1560    4.3680 H   0  0  0  0  0  0  0  0  0  0  0  0
    0.5360   -1.8350    1.2070 N   0  0  0  0  0  0  0  0  0  0  0  0
    1.0870   -0.6750    0.5290 C   0  0  1  0  0  0  0  0  0  0  0  0
    1.6430   -1.1410   -0.7820 C   0  0  0  0  0  0  0  0  0  0  0  0
    2.2520   -0.0930   -1.6220 C   0  0  0  0  0  0  0  0  0  0  0  0
    3.4010    0.6530   -1.0540 C   0  0  0  0  0  0  0  0  0  0  0  0
    4.5940   -0.2050   -0.6960 C   0  0  0  0  0  0  0  0  0  0  0  0
    4.3240   -1.2140    0.2790 N   0  0  0  0  0  0  0  0  0  0  0  0
    0.0410    0.3650    0.3880 C   0  0  0  0  0  0  0  0  0  0  0  0
    0.2830    1.4660   -0.1690 O   0  0  0  0  0  0  0  0  0  0  0  0
   -0.2290   -2.4070    0.7440 H   0  0  0  0  0  0  0  0  0  0  0  0
    1.8590   -0.2580    1.2040 H   0  0  0  0  0  0  0  0  0  0  0  0
    0.7570   -1.5430   -1.3610 H   0  0  0  0  0  0  0  0  0  0  0  0
    2.2830   -2.0120   -0.6190 H   0  0  0  0  0  0  0  0  0  0  0  0
    1.5010    0.6300   -1.9770 H   0  0  0  0  0  0  0  0  0  0  0  0
    2.6270   -0.5980   -2.5620 H   0  0  0  0  0  0  0  0  0  0  0  0
    3.7740    1.3400   -1.8730 H   0  0  0  0  0  0  0  0  0  0  0  0
    3.1330    1.3420   -0.2260 H   0  0  0  0  0  0  0  0  0  0  0  0
    5.3800    0.4650   -0.2680 H   0  0  0  0  0  0  0  0  0  0  0  0
    4.9960   -0.6750   -1.6190 H   0  0  0  0  0  0  0  0  0  0  0  0
    4.5160   -0.9470    1.2560 H   0  0  0  0  0  0  0  0  0  0  0  0
    4.6020   -2.1720    0.0150 H   0  0  0  0  0  0  0  0  0  0  0  0
   -1.2640    0.1200    0.8890 N   0  0  0  0  0  0  0  0  0  0  0  0
   -2.3400    1.0880    0.7880 C   0  0  1  0  0  0  0  0  0  0  0  0
   -3.4780    0.4250    0.0880 C   0  0  0  0  0  0  0  0  0  0  0  0
   -3.1160   -0.0400   -1.2780 C   0  0  0  0  0  0  0  0  0  0  0  0
   -2.6970    1.0240   -2.2120 C   0  0  0  0  0  0  0  0  0  0  0  0
   -2.6980    2.2150   -1.8620 O   0  0  0  0  0  0  0  0  0  0  0  0
   -2.7390    1.5230    2.1620 C   0  0  0  0  0  0  0  0  0  0  0  0
   -2.1490    1.0410    3.1530 O   0  0  0  0  0  0  0  0  0  0  0  0
   -2.2960    0.6680   -3.5110 O   0  0  0  0  0  0  0  0  0  0  0  0
   -3.7490    2.4500    2.3610 O   0  0  0  0  0  0  0  0  0  0  0  0
   -1.4830   -0.7930    1.3550 H   0  0  0  0  0  0  0  0  0  0  0  0
   -1.9330    1.9720    0.2790 H   0  0  0  0  0  0  0  0  0  0  0  0
   -4.3240    1.1580    0.0760 H   0  0  0  0  0  0  0  0  0  0  0  0
   -3.8310   -0.4580    0.6590 H   0  0  0  0  0  0  0  0  0  0  0  0
   -2.2870   -0.7750   -1.1900 H   0  0  0  0  0  0  0  0  0  0  0  0
   -3.9750   -0.6170   -1.7230 H   0  0  0  0  0  0  0  0  0  0  0  0
   -2.4610    1.3210   -4.2740 H   0  0  0  0  0  0  0  0  0  0  0  0
  1  7  1  0  0  0  0
  1  6  1  0  0  0  0
  2  9  1  6  0  0  0
  2  1  1  0  0  0  0
  2  3  1  0  0  0  0
  3 10  1  0  0  0  0
  4  5  2  0  0  0  0
  4  2  1  0  0  0  0
  8  1  1  0  0  0  0
 11  3  1  0  0  0  0
 12  4  1  0  0  0  0
 13 22  1  1  0  0  0
 13 12  1  0  0  0  0
 14 24  1  0  0  0  0
 14 13  1  0  0  0  0
 15 16  1  0  0  0  0
 15 14  1  0  0  0  0
 16 17  1  0  0  0  0
 16 28  1  0  0  0  0
 17 29  1  0  0  0  0
 17 18  1  0  0  0  0
 18 31  1  0  0  0  0
 19 13  1  0  0  0  0
 19 33  1  0  0  0  0
 20 19  2  0  0  0  0
 21 12  1  0  0  0  0
 23 14  1  0  0  0  0
 25 15  1  0  0  0  0
 26 15  1  0  0  0  0
 27 16  1  0  0  0  0
 30 17  1  0  0  0  0
 32 18  1  0  0  0  0
 33 43  1  0  0  0  0
 34 44  1  6  0  0  0
 34 33  1  0  0  0  0
 34 39  1  0  0  0  0
 35 46  1  0  0  0  0
 35 34  1  0  0  0  0
 36 47  1  0  0  0  0
 36 35  1  0  0  0  0
 37 38  2  0  0  0  0
 37 36  1  0  0  0  0
 39 42  2  0  0  0  0
 39 40  1  0  0  0  0
 41 37  1  0  0  0  0
 45 35  1  0  0  0  0
 48 36  1  0  0  0  0
 49 41  1  0  0  0  0
M  END
$$$$
