AKF.pdb
 OpenBabel07022418013D

 53 53  0  0  1  0  0  0  0  0999 V2000
    3.5070   -4.3180    3.2690 C   0  0  0  0  0  0  0  0  0  0  0  0
    2.2750   -3.9980    2.4500 C   0  0  2  0  0  0  0  0  0  0  0  0
    2.6840   -3.7650    1.0920 N   0  0  0  0  0  0  0  0  0  0  0  0
    1.5420   -2.8310    2.9900 C   0  0  0  0  0  0  0  0  0  0  0  0
    1.0940   -2.8060    4.1510 O   0  0  0  0  0  0  0  0  0  0  0  0
    3.9250   -5.3040    2.9820 H   0  0  0  0  0  0  0  0  0  0  0  0
    4.2940   -3.5730    3.1670 H   0  0  0  0  0  0  0  0  0  0  0  0
    3.1500   -4.4490    4.3320 H   0  0  0  0  0  0  0  0  0  0  0  0
    1.5700   -4.8520    2.4410 H   0  0  0  0  0  0  0  0  0  0  0  0
    1.8950   -3.7450    0.4110 H   0  0  0  0  0  0  0  0  0  0  0  0
    3.4880   -4.3430    0.7900 H   0  0  0  0  0  0  0  0  0  0  0  0
    1.3400   -1.7060    2.1670 N   0  0  0  0  0  0  0  0  0  0  0  0
    0.6250   -0.5010    2.6160 C   0  0  1  0  0  0  0  0  0  0  0  0
    1.6150    0.6220    2.4400 C   0  0  0  0  0  0  0  0  0  0  0  0
    1.0760    1.9420    2.8550 C   0  0  0  0  0  0  0  0  0  0  0  0
    2.1110    3.0360    2.6720 C   0  0  0  0  0  0  0  0  0  0  0  0
    2.5450    3.1520    1.2260 C   0  0  0  0  0  0  0  0  0  0  0  0
    1.4580    3.4610    0.3470 N   0  0  0  0  0  0  0  0  0  0  0  0
   -0.5420   -0.3710    1.7180 C   0  0  0  0  0  0  0  0  0  0  0  0
   -1.3370    0.5800    1.9090 O   0  0  0  0  0  0  0  0  0  0  0  0
    1.6990   -1.6750    1.1890 H   0  0  0  0  0  0  0  0  0  0  0  0
    0.3250   -0.6060    3.6800 H   0  0  0  0  0  0  0  0  0  0  0  0
    1.8650    0.6260    1.3370 H   0  0  0  0  0  0  0  0  0  0  0  0
    2.5280    0.3780    3.0220 H   0  0  0  0  0  0  0  0  0  0  0  0
    0.8890    1.8940    3.9650 H   0  0  0  0  0  0  0  0  0  0  0  0
    0.1370    2.2410    2.3960 H   0  0  0  0  0  0  0  0  0  0  0  0
    2.9910    2.7730    3.2700 H   0  0  0  0  0  0  0  0  0  0  0  0
    1.7080    3.9980    2.9880 H   0  0  0  0  0  0  0  0  0  0  0  0
    3.1230    2.2560    0.9060 H   0  0  0  0  0  0  0  0  0  0  0  0
    3.2610    4.0030    1.1820 H   0  0  0  0  0  0  0  0  0  0  0  0
    1.0490    2.5590    0.0140 H   0  0  0  0  0  0  0  0  0  0  0  0
    1.7500    3.9870   -0.5070 H   0  0  0  0  0  0  0  0  0  0  0  0
   -0.8020   -1.2600    0.6630 N   0  0  0  0  0  0  0  0  0  0  0  0
   -1.9540   -1.1310   -0.2240 C   0  0  1  0  0  0  0  0  0  0  0  0
   -1.5200   -0.8760   -1.6440 C   0  0  0  0  0  0  0  0  0  0  0  0
   -2.6410   -0.7360   -2.5990 C   0  0  0  0  0  0  0  0  0  0  0  0
   -3.1280   -1.8220   -3.2690 C   0  0  0  0  0  0  0  0  0  0  0  0
   -4.1790   -1.7420   -4.1730 C   0  0  0  0  0  0  0  0  0  0  0  0
   -4.7700   -0.5220   -4.4180 C   0  0  0  0  0  0  0  0  0  0  0  0
   -4.3040    0.5970   -3.7580 C   0  0  0  0  0  0  0  0  0  0  0  0
   -3.2580    0.4850   -2.8660 C   0  0  0  0  0  0  0  0  0  0  0  0
   -2.8710   -2.2830   -0.0760 C   0  0  0  0  0  0  0  0  0  0  0  0
   -3.9470   -2.3980   -0.7120 O   0  0  0  0  0  0  0  0  0  0  0  0
   -2.5920   -3.3410    0.8020 O   0  0  0  0  0  0  0  0  0  0  0  0
   -0.1540   -2.0560    0.4920 H   0  0  0  0  0  0  0  0  0  0  0  0
   -2.5120   -0.2330    0.1140 H   0  0  0  0  0  0  0  0  0  0  0  0
   -0.7980   -1.6770   -1.9850 H   0  0  0  0  0  0  0  0  0  0  0  0
   -0.9350    0.0640   -1.7140 H   0  0  0  0  0  0  0  0  0  0  0  0
   -2.7020   -2.7930   -3.1170 H   0  0  0  0  0  0  0  0  0  0  0  0
   -4.5500   -2.6140   -4.6930 H   0  0  0  0  0  0  0  0  0  0  0  0
   -5.6020   -0.4740   -5.1360 H   0  0  0  0  0  0  0  0  0  0  0  0
   -4.7800    1.5440   -3.9640 H   0  0  0  0  0  0  0  0  0  0  0  0
   -2.8820    1.3500   -2.3430 H   0  0  0  0  0  0  0  0  0  0  0  0
  1  8  1  0  0  0  0
  2  9  1  1  0  0  0
  2  4  1  0  0  0  0
  2  1  1  0  0  0  0
  3  2  1  0  0  0  0
  4  5  2  0  0  0  0
  6  1  1  0  0  0  0
  7  1  1  0  0  0  0
 10  3  1  0  0  0  0
 11  3  1  0  0  0  0
 12 13  1  0  0  0  0
 12  4  1  0  0  0  0
 13 22  1  1  0  0  0
 14 13  1  0  0  0  0
 14 15  1  0  0  0  0
 14 24  1  0  0  0  0
 15 25  1  0  0  0  0
 16 15  1  0  0  0  0
 16 28  1  0  0  0  0
 16 27  1  0  0  0  0
 17 16  1  0  0  0  0
 18 17  1  0  0  0  0
 19 20  2  0  0  0  0
 19 13  1  0  0  0  0
 21 12  1  0  0  0  0
 23 14  1  0  0  0  0
 26 15  1  0  0  0  0
 29 17  1  0  0  0  0
 30 17  1  0  0  0  0
 31 18  1  0  0  0  0
 32 18  1  0  0  0  0
 33 19  1  0  0  0  0
 34 42  1  0  0  0  0
 34 46  1  1  0  0  0
 34 33  1  0  0  0  0
 35 34  1  0  0  0  0
 36 35  1  0  0  0  0
 37 49  1  0  0  0  0
 37 36  2  0  0  0  0
 38 37  1  0  0  0  0
 39 38  2  0  0  0  0
 39 40  1  0  0  0  0
 40 41  2  0  0  0  0
 41 36  1  0  0  0  0
 41 53  1  0  0  0  0
 42 44  1  0  0  0  0
 43 42  2  0  0  0  0
 45 33  1  0  0  0  0
 47 35  1  0  0  0  0
 48 35  1  0  0  0  0
 50 38  1  0  0  0  0
 51 39  1  0  0  0  0
 52 40  1  0  0  0  0
M  END
$$$$
