AKG.pdb
 OpenBabel07022418013D

 40 39  0  0  1  0  0  0  0  0999 V2000
   -1.6550   -3.7110    2.6560 C   0  0  0  0  0  0  0  0  0  0  0  0
   -0.7010   -3.8890    1.5080 C   0  0  2  0  0  0  0  0  0  0  0  0
    0.0540   -5.0950    1.6940 N   0  0  0  0  0  0  0  0  0  0  0  0
    0.1960   -2.7100    1.3540 C   0  0  0  0  0  0  0  0  0  0  0  0
    1.4520   -2.8130    1.3900 O   0  0  0  0  0  0  0  0  0  0  0  0
   -2.7120   -3.8930    2.3720 H   0  0  0  0  0  0  0  0  0  0  0  0
   -1.6020   -2.6720    3.0800 H   0  0  0  0  0  0  0  0  0  0  0  0
   -1.4310   -4.3890    3.5070 H   0  0  0  0  0  0  0  0  0  0  0  0
   -1.3270   -4.0170    0.5780 H   0  0  0  0  0  0  0  0  0  0  0  0
    0.6910   -5.2710    0.8950 H   0  0  0  0  0  0  0  0  0  0  0  0
   -0.5930   -5.8840    1.8470 H   0  0  0  0  0  0  0  0  0  0  0  0
   -0.3920   -1.4480    1.1630 N   0  0  0  0  0  0  0  0  0  0  0  0
    0.3420   -0.2210    0.9990 C   0  0  1  0  0  0  0  0  0  0  0  0
   -0.0560    0.4050   -0.3080 C   0  0  0  0  0  0  0  0  0  0  0  0
    0.2100   -0.4260   -1.5080 C   0  0  0  0  0  0  0  0  0  0  0  0
    1.6320   -0.7930   -1.7360 C   0  0  0  0  0  0  0  0  0  0  0  0
    2.5630    0.3660   -1.9140 C   0  0  0  0  0  0  0  0  0  0  0  0
    3.9040   -0.1920   -2.1240 N   0  0  0  0  0  0  0  0  0  0  0  0
    0.1060    0.7410    2.0880 C   0  0  0  0  0  0  0  0  0  0  0  0
   -0.6650    0.4710    3.0400 O   0  0  0  0  0  0  0  0  0  0  0  0
   -1.4460   -1.3690    1.1350 H   0  0  0  0  0  0  0  0  0  0  0  0
    1.4270   -0.4960    1.0380 H   0  0  0  0  0  0  0  0  0  0  0  0
    0.3500    1.4350   -0.4290 H   0  0  0  0  0  0  0  0  0  0  0  0
   -1.1720    0.5490   -0.2490 H   0  0  0  0  0  0  0  0  0  0  0  0
   -0.3770   -1.3660   -1.4160 H   0  0  0  0  0  0  0  0  0  0  0  0
   -0.2080    0.1040   -2.3880 H   0  0  0  0  0  0  0  0  0  0  0  0
    1.9990   -1.4810   -0.9480 H   0  0  0  0  0  0  0  0  0  0  0  0
    1.6730   -1.3870   -2.6860 H   0  0  0  0  0  0  0  0  0  0  0  0
    2.6130    1.0600   -1.0840 H   0  0  0  0  0  0  0  0  0  0  0  0
    2.3360    0.9370   -2.8380 H   0  0  0  0  0  0  0  0  0  0  0  0
    4.2450   -0.6980   -1.2830 H   0  0  0  0  0  0  0  0  0  0  0  0
    4.5590    0.4880   -2.5250 H   0  0  0  0  0  0  0  0  0  0  0  0
    0.7400    2.0130    2.1070 N   0  0  0  0  0  0  0  0  0  0  0  0
    0.4860    2.9310    3.1890 C   0  0  0  0  0  0  0  0  0  0  0  0
   -0.9540    3.2480    3.2110 C   0  0  0  0  0  0  0  0  0  0  0  0
   -1.4020    4.0220    4.0820 O   0  0  0  0  0  0  0  0  0  0  0  0
   -1.8120    2.7020    2.2850 O   0  0  0  0  0  0  0  0  0  0  0  0
    1.4030    2.3190    1.3490 H   0  0  0  0  0  0  0  0  0  0  0  0
    1.0390    3.8940    3.0020 H   0  0  0  0  0  0  0  0  0  0  0  0
    0.8500    2.5420    4.1640 H   0  0  0  0  0  0  0  0  0  0  0  0
  1  7  1  0  0  0  0
  1  8  1  0  0  0  0
  2  9  1  6  0  0  0
  2  3  1  0  0  0  0
  2  1  1  0  0  0  0
  3 11  1  0  0  0  0
  4  5  2  0  0  0  0
  4  2  1  0  0  0  0
  6  1  1  0  0  0  0
 10  3  1  0  0  0  0
 12  4  1  0  0  0  0
 13 22  1  6  0  0  0
 13 12  1  0  0  0  0
 13 19  1  0  0  0  0
 14 24  1  0  0  0  0
 14 13  1  0  0  0  0
 15 25  1  0  0  0  0
 15 14  1  0  0  0  0
 16 15  1  0  0  0  0
 16 27  1  0  0  0  0
 17 16  1  0  0  0  0
 17 29  1  0  0  0  0
 18 17  1  0  0  0  0
 18 31  1  0  0  0  0
 19 33  1  0  0  0  0
 19 20  2  0  0  0  0
 21 12  1  0  0  0  0
 23 14  1  0  0  0  0
 26 15  1  0  0  0  0
 28 16  1  0  0  0  0
 30 17  1  0  0  0  0
 32 18  1  0  0  0  0
 33 34  1  0  0  0  0
 34 35  1  0  0  0  0
 34 40  1  0  0  0  0
 35 36  1  0  0  0  0
 37 35  2  0  0  0  0
 38 33  1  0  0  0  0
 39 34  1  0  0  0  0
M  END
$$$$
