AKH.pdb
 OpenBabel07022418013D

 50 50  0  0  1  0  0  0  0  0999 V2000
    2.8950   -4.0000   -1.7490 C   0  0  0  0  0  0  0  0  0  0  0  0
    1.5310   -3.6790   -1.1760 C   0  0  2  0  0  0  0  0  0  0  0  0
    0.6520   -3.1060   -2.1630 N   0  0  0  0  0  0  0  0  0  0  0  0
    1.7390   -2.7320   -0.0470 C   0  0  0  0  0  0  0  0  0  0  0  0
    2.4860   -3.0790    0.9080 O   0  0  0  0  0  0  0  0  0  0  0  0
    2.9690   -5.0550   -2.0800 H   0  0  0  0  0  0  0  0  0  0  0  0
    3.1790   -3.2960   -2.5460 H   0  0  0  0  0  0  0  0  0  0  0  0
    3.6570   -3.8890   -0.9300 H   0  0  0  0  0  0  0  0  0  0  0  0
    1.0800   -4.6340   -0.8440 H   0  0  0  0  0  0  0  0  0  0  0  0
    0.5700   -3.7760   -2.9590 H   0  0  0  0  0  0  0  0  0  0  0  0
   -0.2640   -2.9290   -1.6940 H   0  0  0  0  0  0  0  0  0  0  0  0
    1.1390   -1.4540    0.0140 N   0  0  0  0  0  0  0  0  0  0  0  0
    1.3990   -0.5810    1.1680 C   0  0  1  0  0  0  0  0  0  0  0  0
    2.0230    0.6940    0.7400 C   0  0  0  0  0  0  0  0  0  0  0  0
    2.3020    1.5890    1.9120 C   0  0  0  0  0  0  0  0  0  0  0  0
    2.9940    2.8820    1.4460 C   0  0  0  0  0  0  0  0  0  0  0  0
    3.2640    3.7670    2.6510 C   0  0  0  0  0  0  0  0  0  0  0  0
    2.0440    4.1230    3.3350 N   0  0  0  0  0  0  0  0  0  0  0  0
    0.1340   -0.3790    1.8670 C   0  0  0  0  0  0  0  0  0  0  0  0
    0.1220    0.2760    2.9510 O   0  0  0  0  0  0  0  0  0  0  0  0
    0.5280   -1.1750   -0.7840 H   0  0  0  0  0  0  0  0  0  0  0  0
    2.1490   -1.1200    1.7980 H   0  0  0  0  0  0  0  0  0  0  0  0
    1.3830    1.2360   -0.0140 H   0  0  0  0  0  0  0  0  0  0  0  0
    3.0030    0.5370    0.2070 H   0  0  0  0  0  0  0  0  0  0  0  0
    2.8680    1.0840    2.7020 H   0  0  0  0  0  0  0  0  0  0  0  0
    1.3610    1.9940    2.3940 H   0  0  0  0  0  0  0  0  0  0  0  0
    2.3920    3.3700    0.6830 H   0  0  0  0  0  0  0  0  0  0  0  0
    3.9710    2.5720    1.0280 H   0  0  0  0  0  0  0  0  0  0  0  0
    3.8580    3.1500    3.3860 H   0  0  0  0  0  0  0  0  0  0  0  0
    3.9070    4.6210    2.4030 H   0  0  0  0  0  0  0  0  0  0  0  0
    1.2170    4.0860    2.7080 H   0  0  0  0  0  0  0  0  0  0  0  0
    1.8630    3.5140    4.1820 H   0  0  0  0  0  0  0  0  0  0  0  0
   -1.0770   -0.9120    1.3400 N   0  0  0  0  0  0  0  0  0  0  0  0
   -2.3410   -0.7090    2.0400 C   0  0  1  0  0  0  0  0  0  0  0  0
   -3.2420    0.0470    1.0600 C   0  0  0  0  0  0  0  0  0  0  0  0
   -3.4420   -0.7540   -0.1730 C   0  0  0  0  0  0  0  0  0  0  0  0
   -4.4750   -1.6610   -0.3320 C   0  0  0  0  0  0  0  0  0  0  0  0
   -4.3480   -2.1960   -1.5560 N   0  0  0  0  0  0  0  0  0  0  0  0
   -3.2860   -1.6710   -2.1760 C   0  0  0  0  0  0  0  0  0  0  0  0
   -2.7470   -0.7910   -1.3110 N   0  0  0  0  0  0  0  0  0  0  0  0
   -2.9670   -2.0080    2.3900 C   0  0  0  0  0  0  0  0  0  0  0  0
   -2.4320   -3.1050    2.0940 O   0  0  0  0  0  0  0  0  0  0  0  0
   -4.1780   -2.0440    3.0610 O   0  0  0  0  0  0  0  0  0  0  0  0
   -1.0220   -1.4450    0.4520 H   0  0  0  0  0  0  0  0  0  0  0  0
   -2.1500   -0.1280    2.9410 H   0  0  0  0  0  0  0  0  0  0  0  0
   -4.2050    0.1990    1.5970 H   0  0  0  0  0  0  0  0  0  0  0  0
   -2.7290    0.9810    0.8160 H   0  0  0  0  0  0  0  0  0  0  0  0
   -5.2350   -1.8820    0.4100 H   0  0  0  0  0  0  0  0  0  0  0  0
   -4.9750   -2.9110   -1.9670 H   0  0  0  0  0  0  0  0  0  0  0  0
   -2.9650   -1.9320   -3.1700 H   0  0  0  0  0  0  0  0  0  0  0  0
  1  2  1  0  0  0  0
  1  8  1  0  0  0  0
  2  9  1  1  0  0  0
  2  4  1  0  0  0  0
  3 11  1  0  0  0  0
  3  2  1  0  0  0  0
  4 12  1  0  0  0  0
  4  5  2  0  0  0  0
  6  1  1  0  0  0  0
  7  1  1  0  0  0  0
 10  3  1  0  0  0  0
 12 13  1  0  0  0  0
 13 22  1  1  0  0  0
 13 19  1  0  0  0  0
 14 13  1  0  0  0  0
 14 15  1  0  0  0  0
 15 26  1  0  0  0  0
 15 25  1  0  0  0  0
 16 15  1  0  0  0  0
 16 17  1  0  0  0  0
 17 18  1  0  0  0  0
 17 29  1  0  0  0  0
 18 32  1  0  0  0  0
 19 20  2  0  0  0  0
 21 12  1  0  0  0  0
 23 14  1  0  0  0  0
 24 14  1  0  0  0  0
 27 16  1  0  0  0  0
 28 16  1  0  0  0  0
 30 17  1  0  0  0  0
 31 18  1  0  0  0  0
 33 19  1  0  0  0  0
 33 34  1  0  0  0  0
 34 41  1  0  0  0  0
 34 45  1  1  0  0  0
 35 46  1  0  0  0  0
 35 34  1  0  0  0  0
 36 35  1  0  0  0  0
 37 36  2  0  0  0  0
 37 48  1  0  0  0  0
 38 37  1  0  0  0  0
 39 38  1  0  0  0  0
 39 40  2  0  0  0  0
 40 36  1  0  0  0  0
 41 43  1  0  0  0  0
 42 41  2  0  0  0  0
 44 33  1  0  0  0  0
 47 35  1  0  0  0  0
 49 38  1  0  0  0  0
 50 39  1  0  0  0  0
M  END
$$$$
