AKI.pdb
 OpenBabel07022418013D

 52 51  0  0  1  0  0  0  0  0999 V2000
   -0.7890   -3.4250    3.2700 C   0  0  0  0  0  0  0  0  0  0  0  0
    0.7330   -3.4720    3.1090 C   0  0  2  0  0  0  0  0  0  0  0  0
    1.2840   -3.5060    4.4450 N   0  0  0  0  0  0  0  0  0  0  0  0
    1.2090   -2.2440    2.4360 C   0  0  0  0  0  0  0  0  0  0  0  0
    1.9690   -1.4700    3.0820 O   0  0  0  0  0  0  0  0  0  0  0  0
   -1.0720   -4.4290    3.6830 H   0  0  0  0  0  0  0  0  0  0  0  0
   -1.0710   -2.6790    4.0310 H   0  0  0  0  0  0  0  0  0  0  0  0
   -1.2800   -3.2160    2.3080 H   0  0  0  0  0  0  0  0  0  0  0  0
    0.9590   -4.3910    2.5360 H   0  0  0  0  0  0  0  0  0  0  0  0
    2.3340   -3.4930    4.3970 H   0  0  0  0  0  0  0  0  0  0  0  0
    1.0070   -2.6160    4.9190 H   0  0  0  0  0  0  0  0  0  0  0  0
    0.8500   -1.9110    1.1130 N   0  0  0  0  0  0  0  0  0  0  0  0
    1.3750   -0.6570    0.5140 C   0  0  1  0  0  0  0  0  0  0  0  0
    2.0080   -0.9790   -0.7940 C   0  0  0  0  0  0  0  0  0  0  0  0
    2.5940    0.0620   -1.6320 C   0  0  0  0  0  0  0  0  0  0  0  0
    3.7310    0.8880   -1.2370 C   0  0  0  0  0  0  0  0  0  0  0  0
    3.6180    1.7800   -0.0550 C   0  0  0  0  0  0  0  0  0  0  0  0
    4.8800    2.5680    0.0980 N   0  0  0  0  0  0  0  0  0  0  0  0
    0.1760    0.2000    0.2220 C   0  0  0  0  0  0  0  0  0  0  0  0
    0.2810    1.3410   -0.2880 O   0  0  0  0  0  0  0  0  0  0  0  0
    0.2340   -2.5440    0.5930 H   0  0  0  0  0  0  0  0  0  0  0  0
    1.9930   -0.2270    1.2830 H   0  0  0  0  0  0  0  0  0  0  0  0
    1.2620   -1.5450   -1.4620 H   0  0  0  0  0  0  0  0  0  0  0  0
    2.8150   -1.7750   -0.6090 H   0  0  0  0  0  0  0  0  0  0  0  0
    1.7350    0.7500   -1.9970 H   0  0  0  0  0  0  0  0  0  0  0  0
    2.8250   -0.4580   -2.6430 H   0  0  0  0  0  0  0  0  0  0  0  0
    4.6700    0.2440   -1.1440 H   0  0  0  0  0  0  0  0  0  0  0  0
    3.9360    1.5940   -2.1180 H   0  0  0  0  0  0  0  0  0  0  0  0
    2.7970    2.5160   -0.1190 H   0  0  0  0  0  0  0  0  0  0  0  0
    3.4970    1.2270    0.8970 H   0  0  0  0  0  0  0  0  0  0  0  0
    4.6640    3.3520    0.7670 H   0  0  0  0  0  0  0  0  0  0  0  0
    5.5470    1.8910    0.5090 H   0  0  0  0  0  0  0  0  0  0  0  0
   -4.4420   -1.7040    0.7040 C   0  0  0  0  0  0  0  0  0  0  0  0
   -3.5340   -1.5730   -0.4660 C   0  0  0  0  0  0  0  0  0  0  0  0
   -3.1220   -0.1840   -0.8060 C   0  0  2  0  0  0  0  0  0  0  0  0
   -2.2000   -0.2760   -2.0280 C   0  0  0  0  0  0  0  0  0  0  0  0
   -2.3210    0.5010    0.2660 C   0  0  2  0  0  0  0  0  0  0  0  0
   -1.1120   -0.2570    0.5140 N   0  0  0  0  0  0  0  0  0  0  0  0
   -3.0660    0.8320    1.4680 C   0  0  0  0  0  0  0  0  0  0  0  0
   -2.6530    0.4680    2.5820 O   0  0  0  0  0  0  0  0  0  0  0  0
   -4.2340    1.5480    1.3970 O   0  0  0  0  0  0  0  0  0  0  0  0
   -4.9980   -2.6800    0.5840 H   0  0  0  0  0  0  0  0  0  0  0  0
   -3.9220   -1.7970    1.6790 H   0  0  0  0  0  0  0  0  0  0  0  0
   -5.2230   -0.9300    0.7380 H   0  0  0  0  0  0  0  0  0  0  0  0
   -4.0540   -1.9960   -1.3530 H   0  0  0  0  0  0  0  0  0  0  0  0
   -2.6200   -2.1820   -0.3200 H   0  0  0  0  0  0  0  0  0  0  0  0
   -3.9450    0.4710   -1.0920 H   0  0  0  0  0  0  0  0  0  0  0  0
   -2.7130   -0.6520   -2.9090 H   0  0  0  0  0  0  0  0  0  0  0  0
   -1.3580   -0.9370   -1.7380 H   0  0  0  0  0  0  0  0  0  0  0  0
   -1.7260    0.7340   -2.1970 H   0  0  0  0  0  0  0  0  0  0  0  0
   -1.9740    1.4770   -0.1890 H   0  0  0  0  0  0  0  0  0  0  0  0
   -1.2520   -1.2020    0.9410 H   0  0  0  0  0  0  0  0  0  0  0  0
  1  6  1  0  0  0  0
  1  7  1  0  0  0  0
  2  9  1  6  0  0  0
  2  1  1  0  0  0  0
  2  3  1  0  0  0  0
  3 11  1  0  0  0  0
  4  5  2  0  0  0  0
  4  2  1  0  0  0  0
  8  1  1  0  0  0  0
 10  3  1  0  0  0  0
 12  4  1  0  0  0  0
 13 12  1  0  0  0  0
 13 22  1  1  0  0  0
 14 24  1  0  0  0  0
 14 13  1  0  0  0  0
 15 16  1  0  0  0  0
 15 14  1  0  0  0  0
 16 27  1  0  0  0  0
 16 17  1  0  0  0  0
 17 18  1  0  0  0  0
 17 30  1  0  0  0  0
 18 32  1  0  0  0  0
 18 31  1  0  0  0  0
 19 13  1  0  0  0  0
 19 38  1  0  0  0  0
 20 19  2  0  0  0  0
 21 12  1  0  0  0  0
 23 14  1  0  0  0  0
 25 15  1  0  0  0  0
 26 15  1  0  0  0  0
 28 16  1  0  0  0  0
 29 17  1  0  0  0  0
 33 44  1  0  0  0  0
 33 43  1  0  0  0  0
 34 46  1  0  0  0  0
 34 33  1  0  0  0  0
 35 47  1  6  0  0  0
 35 34  1  0  0  0  0
 35 37  1  0  0  0  0
 36 49  1  0  0  0  0
 36 35  1  0  0  0  0
 37 51  1  6  0  0  0
 37 38  1  0  0  0  0
 37 39  1  0  0  0  0
 38 52  1  0  0  0  0
 39 40  1  0  0  0  0
 41 39  2  0  0  0  0
 42 33  1  0  0  0  0
 45 34  1  0  0  0  0
 48 36  1  0  0  0  0
 50 36  1  0  0  0  0
M  END
$$$$
