AKK.pdb
 OpenBabel07022418013D

 54 53  0  0  1  0  0  0  0  0999 V2000
    0.2420   -2.8610    3.0440 C   0  0  0  0  0  0  0  0  0  0  0  0
    1.4660   -2.0150    3.3620 C   0  0  2  0  0  0  0  0  0  0  0  0
    1.7970   -2.1350    4.7470 N   0  0  0  0  0  0  0  0  0  0  0  0
    1.2850   -0.6110    2.9290 C   0  0  0  0  0  0  0  0  0  0  0  0
    1.4240    0.3150    3.7460 O   0  0  0  0  0  0  0  0  0  0  0  0
    0.3410   -3.8260    3.5820 H   0  0  0  0  0  0  0  0  0  0  0  0
    0.1730   -3.0780    1.9570 H   0  0  0  0  0  0  0  0  0  0  0  0
   -0.6980   -2.3710    3.3740 H   0  0  0  0  0  0  0  0  0  0  0  0
    2.3090   -2.4820    2.7820 H   0  0  0  0  0  0  0  0  0  0  0  0
    1.0480   -2.6090    5.3030 H   0  0  0  0  0  0  0  0  0  0  0  0
    2.7390   -2.5170    4.9300 H   0  0  0  0  0  0  0  0  0  0  0  0
    0.9510   -0.3000    1.5780 N   0  0  0  0  0  0  0  0  0  0  0  0
    0.7650    1.0400    1.1070 C   0  0  1  0  0  0  0  0  0  0  0  0
    1.5090    1.3130   -0.1430 C   0  0  0  0  0  0  0  0  0  0  0  0
    2.9800    1.1730   -0.1330 C   0  0  0  0  0  0  0  0  0  0  0  0
    3.5550   -0.1650    0.1350 C   0  0  0  0  0  0  0  0  0  0  0  0
    3.1400   -1.1930   -0.9270 C   0  0  0  0  0  0  0  0  0  0  0  0
    3.7340   -2.4400   -0.5680 N   0  0  0  0  0  0  0  0  0  0  0  0
   -0.6980    1.2980    0.8100 C   0  0  0  0  0  0  0  0  0  0  0  0
   -1.0720    2.4140    0.3860 O   0  0  0  0  0  0  0  0  0  0  0  0
    0.8420   -1.1210    0.9480 H   0  0  0  0  0  0  0  0  0  0  0  0
    0.9820    1.7970    1.9170 H   0  0  0  0  0  0  0  0  0  0  0  0
    1.2970    2.3620   -0.5270 H   0  0  0  0  0  0  0  0  0  0  0  0
    1.1140    0.6800   -1.0000 H   0  0  0  0  0  0  0  0  0  0  0  0
    3.4610    1.9400    0.5430 H   0  0  0  0  0  0  0  0  0  0  0  0
    3.3330    1.4660   -1.1710 H   0  0  0  0  0  0  0  0  0  0  0  0
    4.6760   -0.0620   -0.0490 H   0  0  0  0  0  0  0  0  0  0  0  0
    3.4860   -0.5580    1.1430 H   0  0  0  0  0  0  0  0  0  0  0  0
    3.5050   -0.8250   -1.9360 H   0  0  0  0  0  0  0  0  0  0  0  0
    2.0670   -1.2990   -1.0350 H   0  0  0  0  0  0  0  0  0  0  0  0
    3.1020   -3.2380   -0.4970 H   0  0  0  0  0  0  0  0  0  0  0  0
    4.5150   -2.3970    0.0880 H   0  0  0  0  0  0  0  0  0  0  0  0
   -1.6880    0.2870    1.0020 N   0  0  0  0  0  0  0  0  0  0  0  0
   -3.0850    0.5340    0.7180 C   0  0  1  0  0  0  0  0  0  0  0  0
   -3.6890   -0.6230    0.0220 C   0  0  0  0  0  0  0  0  0  0  0  0
   -3.1380   -1.0400   -1.2800 C   0  0  0  0  0  0  0  0  0  0  0  0
   -1.7240   -1.4810   -1.3330 C   0  0  0  0  0  0  0  0  0  0  0  0
   -1.4480   -1.8620   -2.8030 C   0  0  0  0  0  0  0  0  0  0  0  0
   -1.6560   -0.7380   -3.6780 N   0  0  0  0  0  0  0  0  0  0  0  0
   -3.7980    0.8000    2.0260 C   0  0  0  0  0  0  0  0  0  0  0  0
   -3.1470    0.7750    3.0820 O   0  0  0  0  0  0  0  0  0  0  0  0
   -5.1430    1.0650    2.0420 O   0  0  0  0  0  0  0  0  0  0  0  0
   -1.3610   -0.6370    1.3550 H   0  0  0  0  0  0  0  0  0  0  0  0
   -3.2220    1.4950    0.1630 H   0  0  0  0  0  0  0  0  0  0  0  0
   -4.7780   -0.3470   -0.1660 H   0  0  0  0  0  0  0  0  0  0  0  0
   -3.7790   -1.5280    0.6950 H   0  0  0  0  0  0  0  0  0  0  0  0
   -3.7650   -1.9220   -1.6240 H   0  0  0  0  0  0  0  0  0  0  0  0
   -3.3300   -0.2780   -2.0780 H   0  0  0  0  0  0  0  0  0  0  0  0
   -1.5250   -2.4020   -0.7490 H   0  0  0  0  0  0  0  0  0  0  0  0
   -0.9570   -0.7590   -1.0830 H   0  0  0  0  0  0  0  0  0  0  0  0
   -2.1350   -2.6700   -3.1150 H   0  0  0  0  0  0  0  0  0  0  0  0
   -0.4050   -2.2260   -2.9220 H   0  0  0  0  0  0  0  0  0  0  0  0
   -2.5410   -0.7790   -4.2110 H   0  0  0  0  0  0  0  0  0  0  0  0
   -1.5010    0.1710   -3.1930 H   0  0  0  0  0  0  0  0  0  0  0  0
  1  2  1  0  0  0  0
  1  8  1  0  0  0  0
  1  6  1  0  0  0  0
  2  9  1  6  0  0  0
  2  3  1  0  0  0  0
  3 11  1  0  0  0  0
  3 10  1  0  0  0  0
  4  2  1  0  0  0  0
  4  5  2  0  0  0  0
  7  1  1  0  0  0  0
 12  4  1  0  0  0  0
 13 12  1  0  0  0  0
 13 22  1  1  0  0  0
 14 15  1  0  0  0  0
 14 13  1  0  0  0  0
 15 16  1  0  0  0  0
 15 25  1  0  0  0  0
 16 28  1  0  0  0  0
 17 18  1  0  0  0  0
 17 16  1  0  0  0  0
 18 31  1  0  0  0  0
 18 32  1  0  0  0  0
 19 33  1  0  0  0  0
 19 13  1  0  0  0  0
 20 19  2  0  0  0  0
 21 12  1  0  0  0  0
 23 14  1  0  0  0  0
 24 14  1  0  0  0  0
 26 15  1  0  0  0  0
 27 16  1  0  0  0  0
 29 17  1  0  0  0  0
 30 17  1  0  0  0  0
 33 43  1  0  0  0  0
 34 44  1  6  0  0  0
 34 33  1  0  0  0  0
 34 40  1  0  0  0  0
 35 46  1  0  0  0  0
 35 34  1  0  0  0  0
 36 35  1  0  0  0  0
 37 36  1  0  0  0  0
 37 50  1  0  0  0  0
 37 49  1  0  0  0  0
 38 37  1  0  0  0  0
 39 54  1  0  0  0  0
 39 38  1  0  0  0  0
 40 42  2  0  0  0  0
 40 41  1  0  0  0  0
 45 35  1  0  0  0  0
 47 36  1  0  0  0  0
 48 36  1  0  0  0  0
 51 38  1  0  0  0  0
 52 38  1  0  0  0  0
 53 39  1  0  0  0  0
M  END
$$$$
