AKL.pdb
 OpenBabel07022418013D

 52 51  0  0  1  0  0  0  0  0999 V2000
    1.3800   -4.0650   -0.6470 C   0  0  0  0  0  0  0  0  0  0  0  0
    2.5610   -3.2560   -0.1070 C   0  0  2  0  0  0  0  0  0  0  0  0
    3.3690   -4.1810    0.6590 N   0  0  0  0  0  0  0  0  0  0  0  0
    2.0270   -2.2180    0.7830 C   0  0  0  0  0  0  0  0  0  0  0  0
    2.3110   -2.2510    2.0080 O   0  0  0  0  0  0  0  0  0  0  0  0
    1.6940   -5.0910   -0.8940 H   0  0  0  0  0  0  0  0  0  0  0  0
    0.6020   -4.0460    0.1340 H   0  0  0  0  0  0  0  0  0  0  0  0
    0.9700   -3.5200   -1.5280 H   0  0  0  0  0  0  0  0  0  0  0  0
    3.1270   -2.8410   -0.9680 H   0  0  0  0  0  0  0  0  0  0  0  0
    4.2500   -3.7100    0.9670 H   0  0  0  0  0  0  0  0  0  0  0  0
    2.8290   -4.3710    1.5460 H   0  0  0  0  0  0  0  0  0  0  0  0
    1.1860   -1.1590    0.3000 N   0  0  0  0  0  0  0  0  0  0  0  0
    0.7130   -0.1910    1.2450 C   0  0  1  0  0  0  0  0  0  0  0  0
    1.0830    1.2130    0.8830 C   0  0  0  0  0  0  0  0  0  0  0  0
    2.5350    1.4930    0.7780 C   0  0  0  0  0  0  0  0  0  0  0  0
    3.3250    1.2630    2.0210 C   0  0  0  0  0  0  0  0  0  0  0  0
    2.8410    2.1340    3.1780 C   0  0  0  0  0  0  0  0  0  0  0  0
    3.6780    1.8230    4.3180 N   0  0  0  0  0  0  0  0  0  0  0  0
   -0.7670   -0.2460    1.3840 C   0  0  0  0  0  0  0  0  0  0  0  0
   -1.3580    0.5230    2.1620 O   0  0  0  0  0  0  0  0  0  0  0  0
    0.9680   -1.1550   -0.7080 H   0  0  0  0  0  0  0  0  0  0  0  0
    1.1070   -0.3970    2.2620 H   0  0  0  0  0  0  0  0  0  0  0  0
    0.6060    1.5090   -0.0780 H   0  0  0  0  0  0  0  0  0  0  0  0
    0.6420    1.8840    1.6530 H   0  0  0  0  0  0  0  0  0  0  0  0
    2.6320    2.5900    0.5310 H   0  0  0  0  0  0  0  0  0  0  0  0
    2.9850    0.9440   -0.0550 H   0  0  0  0  0  0  0  0  0  0  0  0
    3.4430    0.2270    2.3290 H   0  0  0  0  0  0  0  0  0  0  0  0
    4.3700    1.6400    1.8080 H   0  0  0  0  0  0  0  0  0  0  0  0
    2.9230    3.1910    2.9040 H   0  0  0  0  0  0  0  0  0  0  0  0
    1.7860    1.8940    3.4330 H   0  0  0  0  0  0  0  0  0  0  0  0
    4.6110    1.4770    4.0090 H   0  0  0  0  0  0  0  0  0  0  0  0
    3.2500    1.0580    4.8840 H   0  0  0  0  0  0  0  0  0  0  0  0
   -2.3250    0.4870   -1.6650 C   0  0  0  0  0  0  0  0  0  0  0  0
   -3.6860    0.1550   -1.1820 C   0  0  0  0  0  0  0  0  0  0  0  0
   -4.6590    0.2750   -2.3330 C   0  0  0  0  0  0  0  0  0  0  0  0
   -3.8220   -1.1680   -0.4610 C   0  0  0  0  0  0  0  0  0  0  0  0
   -2.9920   -1.2620    0.7400 C   0  0  2  0  0  0  0  0  0  0  0  0
   -1.5930   -1.1470    0.6670 N   0  0  0  0  0  0  0  0  0  0  0  0
   -3.2930   -2.5640    1.4500 C   0  0  0  0  0  0  0  0  0  0  0  0
   -2.4030   -3.3270    1.8570 O   0  0  0  0  0  0  0  0  0  0  0  0
   -4.6150   -2.9230    1.6550 O   0  0  0  0  0  0  0  0  0  0  0  0
   -2.4140    1.0670   -2.6080 H   0  0  0  0  0  0  0  0  0  0  0  0
   -1.7610    1.1310   -0.9480 H   0  0  0  0  0  0  0  0  0  0  0  0
   -1.7480   -0.4350   -1.8350 H   0  0  0  0  0  0  0  0  0  0  0  0
   -3.9820    0.9350   -0.4380 H   0  0  0  0  0  0  0  0  0  0  0  0
   -5.5090   -0.4460   -2.2350 H   0  0  0  0  0  0  0  0  0  0  0  0
   -5.1340    1.2840   -2.3480 H   0  0  0  0  0  0  0  0  0  0  0  0
   -4.1280    0.1630   -3.2950 H   0  0  0  0  0  0  0  0  0  0  0  0
   -4.9080   -1.1800   -0.1290 H   0  0  0  0  0  0  0  0  0  0  0  0
   -3.7710   -2.0280   -1.1590 H   0  0  0  0  0  0  0  0  0  0  0  0
   -3.3600   -0.4860    1.4780 H   0  0  0  0  0  0  0  0  0  0  0  0
   -1.0720   -1.8010    0.0060 H   0  0  0  0  0  0  0  0  0  0  0  0
  1  2  1  0  0  0  0
  1  7  1  0  0  0  0
  2  9  1  6  0  0  0
  2  3  1  0  0  0  0
  2  4  1  0  0  0  0
  3 10  1  0  0  0  0
  3 11  1  0  0  0  0
  4  5  2  0  0  0  0
  6  1  1  0  0  0  0
  8  1  1  0  0  0  0
 12  4  1  0  0  0  0
 12 13  1  0  0  0  0
 13 19  1  0  0  0  0
 13 22  1  1  0  0  0
 14 13  1  0  0  0  0
 14 24  1  0  0  0  0
 15 14  1  0  0  0  0
 15 16  1  0  0  0  0
 16 27  1  0  0  0  0
 16 17  1  0  0  0  0
 17 30  1  0  0  0  0
 17 18  1  0  0  0  0
 18 32  1  0  0  0  0
 19 20  2  0  0  0  0
 21 12  1  0  0  0  0
 23 14  1  0  0  0  0
 25 15  1  0  0  0  0
 26 15  1  0  0  0  0
 28 16  1  0  0  0  0
 29 17  1  0  0  0  0
 31 18  1  0  0  0  0
 33 34  1  0  0  0  0
 33 43  1  0  0  0  0
 34 36  1  0  0  0  0
 34 45  1  0  0  0  0
 35 46  1  0  0  0  0
 35 34  1  0  0  0  0
 36 49  1  0  0  0  0
 36 37  1  0  0  0  0
 37 39  1  0  0  0  0
 37 51  1  1  0  0  0
 38 37  1  0  0  0  0
 38 19  1  0  0  0  0
 39 41  2  0  0  0  0
 39 40  1  0  0  0  0
 42 33  1  0  0  0  0
 44 33  1  0  0  0  0
 47 35  1  0  0  0  0
 48 35  1  0  0  0  0
 50 36  1  0  0  0  0
 52 38  1  0  0  0  0
M  END
$$$$
