AKM.pdb
 OpenBabel07022418013D

 50 49  0  0  1  0  0  0  0  0999 V2000
   -4.5760    1.5780    1.7600 C   0  0  0  0  0  0  0  0  0  0  0  0
   -3.7020    0.5060    2.3750 C   0  0  2  0  0  0  0  0  0  0  0  0
   -2.8490    1.1230    3.3500 N   0  0  0  0  0  0  0  0  0  0  0  0
   -2.9390   -0.1650    1.2950 C   0  0  0  0  0  0  0  0  0  0  0  0
   -3.5570   -0.7420    0.3600 O   0  0  0  0  0  0  0  0  0  0  0  0
   -5.6370    1.4930    2.1040 H   0  0  0  0  0  0  0  0  0  0  0  0
   -4.2390    2.6030    2.0230 H   0  0  0  0  0  0  0  0  0  0  0  0
   -4.5690    1.5290    0.6380 H   0  0  0  0  0  0  0  0  0  0  0  0
   -4.3800   -0.1930    2.9180 H   0  0  0  0  0  0  0  0  0  0  0  0
   -2.2900    0.3920    3.8700 H   0  0  0  0  0  0  0  0  0  0  0  0
   -3.4170    1.6120    4.0750 H   0  0  0  0  0  0  0  0  0  0  0  0
   -1.5220   -0.2040    1.2390 N   0  0  0  0  0  0  0  0  0  0  0  0
   -0.8190   -0.8680    0.1710 C   0  0  1  0  0  0  0  0  0  0  0  0
    0.0570    0.0600   -0.6490 C   0  0  0  0  0  0  0  0  0  0  0  0
   -0.7210    1.1450   -1.3030 C   0  0  0  0  0  0  0  0  0  0  0  0
    0.1480    2.0220   -2.1420 C   0  0  0  0  0  0  0  0  0  0  0  0
    1.2560    2.7360   -1.4660 C   0  0  0  0  0  0  0  0  0  0  0  0
    2.2610    1.9040   -0.8510 N   0  0  0  0  0  0  0  0  0  0  0  0
   -0.0420   -1.9880    0.7530 C   0  0  0  0  0  0  0  0  0  0  0  0
   -0.0820   -2.2470    1.9850 O   0  0  0  0  0  0  0  0  0  0  0  0
   -0.9910    0.2580    1.9890 H   0  0  0  0  0  0  0  0  0  0  0  0
   -1.6120   -1.2860   -0.5360 H   0  0  0  0  0  0  0  0  0  0  0  0
    0.7170    0.5670    0.1220 H   0  0  0  0  0  0  0  0  0  0  0  0
    0.6580   -0.5200   -1.3410 H   0  0  0  0  0  0  0  0  0  0  0  0
   -1.2590    1.7490   -0.5300 H   0  0  0  0  0  0  0  0  0  0  0  0
   -1.5010    0.6980   -1.9740 H   0  0  0  0  0  0  0  0  0  0  0  0
   -0.4820    2.7690   -2.7250 H   0  0  0  0  0  0  0  0  0  0  0  0
    0.6300    1.4330   -2.9870 H   0  0  0  0  0  0  0  0  0  0  0  0
    1.8160    3.3500   -2.2300 H   0  0  0  0  0  0  0  0  0  0  0  0
    0.8940    3.4490   -0.6830 H   0  0  0  0  0  0  0  0  0  0  0  0
    3.1890    2.4110   -0.7960 H   0  0  0  0  0  0  0  0  0  0  0  0
    2.4770    1.0530   -1.4310 H   0  0  0  0  0  0  0  0  0  0  0  0
    2.3820   -0.2630    2.5130 C   0  0  0  0  0  0  0  0  0  0  0  0
    3.0270   -1.0510    1.0110 S   0  0  0  0  0  0  0  0  0  0  0  0
    3.5650   -2.7230    1.2960 C   0  0  0  0  0  0  0  0  0  0  0  0
    2.4880   -3.7350    1.5580 C   0  0  0  0  0  0  0  0  0  0  0  0
    1.5570   -3.9430    0.4000 C   0  0  2  0  0  0  0  0  0  0  0  0
    0.7910   -2.8390   -0.0550 N   0  0  0  0  0  0  0  0  0  0  0  0
    0.7500   -5.1850    0.5530 C   0  0  0  0  0  0  0  0  0  0  0  0
   -0.4720   -5.1320    0.2770 O   0  0  0  0  0  0  0  0  0  0  0  0
    1.2970   -6.3690    0.9800 O   0  0  0  0  0  0  0  0  0  0  0  0
    2.9730    0.6480    2.7530 H   0  0  0  0  0  0  0  0  0  0  0  0
    2.4150   -1.0190    3.3110 H   0  0  0  0  0  0  0  0  0  0  0  0
    1.3590    0.0470    2.3360 H   0  0  0  0  0  0  0  0  0  0  0  0
    4.3790   -2.7910    2.0770 H   0  0  0  0  0  0  0  0  0  0  0  0
    4.1190   -3.0430    0.3560 H   0  0  0  0  0  0  0  0  0  0  0  0
    2.9520   -4.6920    1.8950 H   0  0  0  0  0  0  0  0  0  0  0  0
    1.9100   -3.3610    2.4490 H   0  0  0  0  0  0  0  0  0  0  0  0
    2.2860   -4.1650   -0.4680 H   0  0  0  0  0  0  0  0  0  0  0  0
    0.7710   -2.5380   -1.0870 H   0  0  0  0  0  0  0  0  0  0  0  0
  1  7  1  0  0  0  0
  1  6  1  0  0  0  0
  1  2  1  0  0  0  0
  2  9  1  1  0  0  0
  2  3  1  0  0  0  0
  3 10  1  0  0  0  0
  3 11  1  0  0  0  0
  4  2  1  0  0  0  0
  5  4  2  0  0  0  0
  8  1  1  0  0  0  0
 12  4  1  0  0  0  0
 12 21  1  0  0  0  0
 13 22  1  6  0  0  0
 13 19  1  0  0  0  0
 13 12  1  0  0  0  0
 14 23  1  0  0  0  0
 14 13  1  0  0  0  0
 15 14  1  0  0  0  0
 15 25  1  0  0  0  0
 16 17  1  0  0  0  0
 16 15  1  0  0  0  0
 17 18  1  0  0  0  0
 17 30  1  0  0  0  0
 18 31  1  0  0  0  0
 19 20  2  0  0  0  0
 24 14  1  0  0  0  0
 26 15  1  0  0  0  0
 27 16  1  0  0  0  0
 28 16  1  0  0  0  0
 29 17  1  0  0  0  0
 32 18  1  0  0  0  0
 33 42  1  0  0  0  0
 33 43  1  0  0  0  0
 34 35  1  0  0  0  0
 34 33  1  0  0  0  0
 35 36  1  0  0  0  0
 35 45  1  0  0  0  0
 36 47  1  0  0  0  0
 36 48  1  0  0  0  0
 37 49  1  6  0  0  0
 37 39  1  0  0  0  0
 37 36  1  0  0  0  0
 38 37  1  0  0  0  0
 38 19  1  0  0  0  0
 39 41  1  0  0  0  0
 40 39  2  0  0  0  0
 44 33  1  0  0  0  0
 46 35  1  0  0  0  0
 50 38  1  0  0  0  0
M  END
$$$$
