AKN.pdb
 OpenBabel07022418013D

 47 46  0  0  1  0  0  0  0  0999 V2000
   -1.6340   -0.6140   -3.1050 C   0  0  0  0  0  0  0  0  0  0  0  0
   -0.1640   -0.9210   -3.2160 C   0  0  2  0  0  0  0  0  0  0  0  0
   -0.0350   -2.0960   -4.0610 N   0  0  0  0  0  0  0  0  0  0  0  0
    0.4340   -1.2710   -1.9020 C   0  0  0  0  0  0  0  0  0  0  0  0
    0.9160   -2.4030   -1.6860 O   0  0  0  0  0  0  0  0  0  0  0  0
   -2.2180   -1.4990   -3.3640 H   0  0  0  0  0  0  0  0  0  0  0  0
   -1.8410   -0.4090   -2.0270 H   0  0  0  0  0  0  0  0  0  0  0  0
   -1.9230    0.2900   -3.6770 H   0  0  0  0  0  0  0  0  0  0  0  0
    0.3920   -0.0840   -3.7030 H   0  0  0  0  0  0  0  0  0  0  0  0
    0.9470   -2.4650   -3.8850 H   0  0  0  0  0  0  0  0  0  0  0  0
   -0.6740   -2.8200   -3.6580 H   0  0  0  0  0  0  0  0  0  0  0  0
    0.4900   -0.3280   -0.8140 N   0  0  0  0  0  0  0  0  0  0  0  0
    1.0800   -0.6750    0.4750 C   0  0  1  0  0  0  0  0  0  0  0  0
    2.3010    0.1730    0.7460 C   0  0  0  0  0  0  0  0  0  0  0  0
    2.9690   -0.1160    2.0460 C   0  0  0  0  0  0  0  0  0  0  0  0
    3.4420   -1.5480    2.1600 C   0  0  0  0  0  0  0  0  0  0  0  0
    4.1110   -1.7930    3.4950 C   0  0  0  0  0  0  0  0  0  0  0  0
    4.5330   -3.1770    3.5270 N   0  0  0  0  0  0  0  0  0  0  0  0
    0.0500   -0.5870    1.5380 C   0  0  0  0  0  0  0  0  0  0  0  0
    0.3500   -0.8750    2.7150 O   0  0  0  0  0  0  0  0  0  0  0  0
    0.0820    0.6050   -1.0190 H   0  0  0  0  0  0  0  0  0  0  0  0
    1.4380   -1.7260    0.4690 H   0  0  0  0  0  0  0  0  0  0  0  0
    3.0300   -0.0670   -0.0610 H   0  0  0  0  0  0  0  0  0  0  0  0
    2.0700    1.2530    0.6950 H   0  0  0  0  0  0  0  0  0  0  0  0
    3.8780    0.5600    2.0820 H   0  0  0  0  0  0  0  0  0  0  0  0
    2.4100    0.1310    2.9510 H   0  0  0  0  0  0  0  0  0  0  0  0
    2.6450   -2.2770    2.0410 H   0  0  0  0  0  0  0  0  0  0  0  0
    4.1990   -1.7350    1.3720 H   0  0  0  0  0  0  0  0  0  0  0  0
    5.0010   -1.1140    3.6110 H   0  0  0  0  0  0  0  0  0  0  0  0
    3.4390   -1.5930    4.3430 H   0  0  0  0  0  0  0  0  0  0  0  0
    4.5980   -3.5790    2.5690 H   0  0  0  0  0  0  0  0  0  0  0  0
    3.8080   -3.7120    4.0460 H   0  0  0  0  0  0  0  0  0  0  0  0
   -3.8870    3.2090    1.4110 N   0  0  0  0  0  0  0  0  0  0  0  0
   -3.3880    1.8790    1.3430 C   0  0  0  0  0  0  0  0  0  0  0  0
   -3.5080    1.2790    0.2480 O   0  0  0  0  0  0  0  0  0  0  0  0
   -2.7750    1.3100    2.5490 C   0  0  0  0  0  0  0  0  0  0  0  0
   -2.2880   -0.1050    2.3450 C   0  0  2  0  0  0  0  0  0  0  0  0
   -1.2910   -0.1870    1.2990 N   0  0  0  0  0  0  0  0  0  0  0  0
   -3.3950   -1.0570    2.1410 C   0  0  0  0  0  0  0  0  0  0  0  0
   -4.3260   -1.0910    2.9780 O   0  0  0  0  0  0  0  0  0  0  0  0
   -3.4360   -1.9110    1.0560 O   0  0  0  0  0  0  0  0  0  0  0  0
   -4.7260    3.4890    0.8380 H   0  0  0  0  0  0  0  0  0  0  0  0
   -3.4710    3.9580    2.0070 H   0  0  0  0  0  0  0  0  0  0  0  0
   -1.8610    1.9190    2.7810 H   0  0  0  0  0  0  0  0  0  0  0  0
   -3.4470    1.4060    3.4100 H   0  0  0  0  0  0  0  0  0  0  0  0
   -1.7810   -0.4070    3.2960 H   0  0  0  0  0  0  0  0  0  0  0  0
   -1.5190    0.0530    0.2950 H   0  0  0  0  0  0  0  0  0  0  0  0
  1  7  1  0  0  0  0
  2  9  1  6  0  0  0
  2  1  1  0  0  0  0
  2  4  1  0  0  0  0
  3 10  1  0  0  0  0
  3 11  1  0  0  0  0
  3  2  1  0  0  0  0
  4  5  2  0  0  0  0
  4 12  1  0  0  0  0
  6  1  1  0  0  0  0
  8  1  1  0  0  0  0
 12 13  1  0  0  0  0
 13 22  1  6  0  0  0
 13 14  1  0  0  0  0
 13 19  1  0  0  0  0
 14 15  1  0  0  0  0
 15 25  1  0  0  0  0
 15 16  1  0  0  0  0
 15 26  1  0  0  0  0
 16 17  1  0  0  0  0
 17 18  1  0  0  0  0
 17 29  1  0  0  0  0
 17 30  1  0  0  0  0
 18 32  1  0  0  0  0
 19 20  2  0  0  0  0
 21 12  1  0  0  0  0
 23 14  1  0  0  0  0
 24 14  1  0  0  0  0
 27 16  1  0  0  0  0
 28 16  1  0  0  0  0
 31 18  1  0  0  0  0
 33 43  1  0  0  0  0
 34 33  1  0  0  0  0
 34 36  1  0  0  0  0
 35 34  2  0  0  0  0
 36 44  1  0  0  0  0
 36 45  1  0  0  0  0
 37 36  1  0  0  0  0
 37 46  1  1  0  0  0
 38 19  1  0  0  0  0
 38 37  1  0  0  0  0
 39 37  1  0  0  0  0
 39 40  1  0  0  0  0
 41 39  2  0  0  0  0
 42 33  1  0  0  0  0
 47 38  1  0  0  0  0
M  END
$$$$
