AKQ.pdb
 OpenBabel07022418013D

 50 49  0  0  1  0  0  0  0  0999 V2000
    0.7450   -4.1160    0.4380 C   0  0  0  0  0  0  0  0  0  0  0  0
    1.5830   -3.6610    1.5840 C   0  0  2  0  0  0  0  0  0  0  0  0
    1.4910   -4.6640    2.6280 N   0  0  0  0  0  0  0  0  0  0  0  0
    1.2640   -2.3650    2.1440 C   0  0  0  0  0  0  0  0  0  0  0  0
    0.9690   -2.2610    3.3600 O   0  0  0  0  0  0  0  0  0  0  0  0
   -0.2040   -4.6010    0.7750 H   0  0  0  0  0  0  0  0  0  0  0  0
    0.4830   -3.3550   -0.2900 H   0  0  0  0  0  0  0  0  0  0  0  0
    1.3050   -4.9210   -0.0950 H   0  0  0  0  0  0  0  0  0  0  0  0
    2.6740   -3.6490    1.2880 H   0  0  0  0  0  0  0  0  0  0  0  0
    1.9880   -5.5450    2.3670 H   0  0  0  0  0  0  0  0  0  0  0  0
    0.5150   -4.8990    2.8880 H   0  0  0  0  0  0  0  0  0  0  0  0
    1.2640   -1.1430    1.3640 N   0  0  0  0  0  0  0  0  0  0  0  0
    0.9450    0.1200    1.9460 C   0  0  1  0  0  0  0  0  0  0  0  0
    1.8680    1.2480    1.6570 C   0  0  0  0  0  0  0  0  0  0  0  0
    3.2830    1.1050    2.0790 C   0  0  0  0  0  0  0  0  0  0  0  0
    4.0470   -0.0140    1.4530 C   0  0  0  0  0  0  0  0  0  0  0  0
    4.1100    0.1100   -0.0560 C   0  0  0  0  0  0  0  0  0  0  0  0
    4.8630   -1.0130   -0.5760 N   0  0  0  0  0  0  0  0  0  0  0  0
   -0.4600    0.5380    1.5410 C   0  0  0  0  0  0  0  0  0  0  0  0
   -0.8990    1.6280    1.9680 O   0  0  0  0  0  0  0  0  0  0  0  0
    1.5150   -1.2980    0.3680 H   0  0  0  0  0  0  0  0  0  0  0  0
    0.9070   -0.0130    3.0690 H   0  0  0  0  0  0  0  0  0  0  0  0
    1.4930    2.2200    2.0950 H   0  0  0  0  0  0  0  0  0  0  0  0
    1.8470    1.4370    0.5520 H   0  0  0  0  0  0  0  0  0  0  0  0
    3.8500    2.0770    2.0110 H   0  0  0  0  0  0  0  0  0  0  0  0
    3.2820    0.8860    3.1920 H   0  0  0  0  0  0  0  0  0  0  0  0
    5.1160    0.0940    1.8260 H   0  0  0  0  0  0  0  0  0  0  0  0
    3.6820   -0.9790    1.7890 H   0  0  0  0  0  0  0  0  0  0  0  0
    4.7190    1.0320   -0.2790 H   0  0  0  0  0  0  0  0  0  0  0  0
    3.1230    0.2400   -0.4950 H   0  0  0  0  0  0  0  0  0  0  0  0
    5.8330   -0.9270   -0.2010 H   0  0  0  0  0  0  0  0  0  0  0  0
    4.4040   -1.9110   -0.2870 H   0  0  0  0  0  0  0  0  0  0  0  0
   -5.8470    2.4190   -1.3890 N   0  0  0  0  0  0  0  0  0  0  0  0
   -4.5170    1.9730   -1.1550 C   0  0  0  0  0  0  0  0  0  0  0  0
   -3.7770    2.7620   -0.5230 O   0  0  0  0  0  0  0  0  0  0  0  0
   -4.0700    0.6480   -1.6470 C   0  0  0  0  0  0  0  0  0  0  0  0
   -2.7110    0.2410   -1.1720 C   0  0  0  0  0  0  0  0  0  0  0  0
   -2.6440    0.1540    0.3140 C   0  0  2  0  0  0  0  0  0  0  0  0
   -1.2670   -0.2420    0.7190 N   0  0  0  0  0  0  0  0  0  0  0  0
   -3.5240   -0.9050    0.8160 C   0  0  0  0  0  0  0  0  0  0  0  0
   -4.7610   -0.8320    0.7180 O   0  0  0  0  0  0  0  0  0  0  0  0
   -2.9860   -2.0200    1.4160 O   0  0  0  0  0  0  0  0  0  0  0  0
   -6.6670    1.8020   -1.2610 H   0  0  0  0  0  0  0  0  0  0  0  0
   -5.9830    3.3990   -1.6980 H   0  0  0  0  0  0  0  0  0  0  0  0
   -4.0750    0.6900   -2.7880 H   0  0  0  0  0  0  0  0  0  0  0  0
   -4.8110   -0.1190   -1.3750 H   0  0  0  0  0  0  0  0  0  0  0  0
   -2.3880   -0.7030   -1.6720 H   0  0  0  0  0  0  0  0  0  0  0  0
   -1.9890    1.0260   -1.5510 H   0  0  0  0  0  0  0  0  0  0  0  0
   -2.8780    1.1370    0.7730 H   0  0  0  0  0  0  0  0  0  0  0  0
   -0.9360   -1.1490    0.3490 H   0  0  0  0  0  0  0  0  0  0  0  0
  1  6  1  0  0  0  0
  1  2  1  0  0  0  0
  2  9  1  6  0  0  0
  2  4  1  0  0  0  0
  2  3  1  0  0  0  0
  3 11  1  0  0  0  0
  4  5  2  0  0  0  0
  7  1  1  0  0  0  0
  8  1  1  0  0  0  0
 10  3  1  0  0  0  0
 12 13  1  0  0  0  0
 12  4  1  0  0  0  0
 13 22  1  1  0  0  0
 14 13  1  0  0  0  0
 14 15  1  0  0  0  0
 14 23  1  0  0  0  0
 15 26  1  0  0  0  0
 16 28  1  0  0  0  0
 16 27  1  0  0  0  0
 16 15  1  0  0  0  0
 17 16  1  0  0  0  0
 18 32  1  0  0  0  0
 18 31  1  0  0  0  0
 18 17  1  0  0  0  0
 19 13  1  0  0  0  0
 19 20  2  0  0  0  0
 21 12  1  0  0  0  0
 24 14  1  0  0  0  0
 25 15  1  0  0  0  0
 29 17  1  0  0  0  0
 30 17  1  0  0  0  0
 33 43  1  0  0  0  0
 33 34  1  0  0  0  0
 34 35  2  0  0  0  0
 36 46  1  0  0  0  0
 36 37  1  0  0  0  0
 36 34  1  0  0  0  0
 37 38  1  0  0  0  0
 38 39  1  0  0  0  0
 38 49  1  1  0  0  0
 38 40  1  0  0  0  0
 39 19  1  0  0  0  0
 40 42  1  0  0  0  0
 41 40  2  0  0  0  0
 44 33  1  0  0  0  0
 45 36  1  0  0  0  0
 47 37  1  0  0  0  0
 48 37  1  0  0  0  0
 50 39  1  0  0  0  0
M  END
$$$$
