AKR.pdb
 OpenBabel07022418013D

 56 55  0  0  1  0  0  0  0  0999 V2000
    1.3020   -3.2890    4.6570 C   0  0  0  0  0  0  0  0  0  0  0  0
    0.6070   -3.1970    3.3250 C   0  0  2  0  0  0  0  0  0  0  0  0
    1.2490   -4.1260    2.4140 N   0  0  0  0  0  0  0  0  0  0  0  0
    0.6010   -1.8500    2.7450 C   0  0  0  0  0  0  0  0  0  0  0  0
    0.0860   -0.8800    3.3870 O   0  0  0  0  0  0  0  0  0  0  0  0
    2.2620   -3.8700    4.5660 H   0  0  0  0  0  0  0  0  0  0  0  0
    1.4950   -2.2680    5.0040 H   0  0  0  0  0  0  0  0  0  0  0  0
    0.7040   -3.8250    5.4180 H   0  0  0  0  0  0  0  0  0  0  0  0
   -0.4350   -3.5480    3.4720 H   0  0  0  0  0  0  0  0  0  0  0  0
    0.7220   -4.0860    1.5150 H   0  0  0  0  0  0  0  0  0  0  0  0
    2.2150   -3.7910    2.2180 H   0  0  0  0  0  0  0  0  0  0  0  0
    1.1490   -1.5370    1.4680 N   0  0  0  0  0  0  0  0  0  0  0  0
    1.1090   -0.1660    0.9460 C   0  0  1  0  0  0  0  0  0  0  0  0
    2.4700    0.2780    0.5370 C   0  0  0  0  0  0  0  0  0  0  0  0
    2.4780    1.6660    0.0210 C   0  0  0  0  0  0  0  0  0  0  0  0
    3.8950    2.1210   -0.3560 C   0  0  0  0  0  0  0  0  0  0  0  0
    4.4880    1.2430   -1.4250 C   0  0  0  0  0  0  0  0  0  0  0  0
    3.6880    1.2650   -2.6310 N   0  0  0  0  0  0  0  0  0  0  0  0
    0.1610   -0.1810   -0.2250 C   0  0  0  0  0  0  0  0  0  0  0  0
   -0.1310    0.8950   -0.7870 O   0  0  0  0  0  0  0  0  0  0  0  0
    1.5780   -2.3300    0.9460 H   0  0  0  0  0  0  0  0  0  0  0  0
    0.6980    0.4680    1.7220 H   0  0  0  0  0  0  0  0  0  0  0  0
    3.1230    0.2550    1.4500 H   0  0  0  0  0  0  0  0  0  0  0  0
    2.9240   -0.4470   -0.2130 H   0  0  0  0  0  0  0  0  0  0  0  0
    2.1250    2.3610    0.7920 H   0  0  0  0  0  0  0  0  0  0  0  0
    1.8350    1.7950   -0.8730 H   0  0  0  0  0  0  0  0  0  0  0  0
    4.5140    2.0710    0.5430 H   0  0  0  0  0  0  0  0  0  0  0  0
    3.7730    3.1450   -0.7650 H   0  0  0  0  0  0  0  0  0  0  0  0
    4.6390    0.2120   -1.0790 H   0  0  0  0  0  0  0  0  0  0  0  0
    5.4970    1.6640   -1.6680 H   0  0  0  0  0  0  0  0  0  0  0  0
    3.1020    0.4260   -2.6790 H   0  0  0  0  0  0  0  0  0  0  0  0
    3.1850    2.1620   -2.7810 H   0  0  0  0  0  0  0  0  0  0  0  0
   -5.3770   -0.6310    3.0330 N   0  0  0  0  0  0  0  0  0  0  0  0
   -4.4870   -0.6420    1.8960 C   0  0  0  0  0  0  0  0  0  0  0  0
   -3.2230   -0.5200    2.0820 N   0  0  0  0  0  0  0  0  0  0  0  0
   -4.9820   -0.7870    0.5740 N   0  0  0  0  0  0  0  0  0  0  0  0
   -4.1050   -1.1130   -0.5130 C   0  0  0  0  0  0  0  0  0  0  0  0
   -3.1380   -0.0060   -0.8710 C   0  0  0  0  0  0  0  0  0  0  0  0
   -2.2360   -0.3370   -1.9970 C   0  0  0  0  0  0  0  0  0  0  0  0
   -1.3270   -1.5240   -1.7940 C   0  0  2  0  0  0  0  0  0  0  0  0
   -0.4070   -1.3900   -0.7020 N   0  0  0  0  0  0  0  0  0  0  0  0
   -0.6290   -1.9200   -3.0280 C   0  0  0  0  0  0  0  0  0  0  0  0
    0.6200   -2.0870   -2.9750 O   0  0  0  0  0  0  0  0  0  0  0  0
   -1.2950   -2.1120   -4.2370 O   0  0  0  0  0  0  0  0  0  0  0  0
   -5.9780    0.1520    3.2920 H   0  0  0  0  0  0  0  0  0  0  0  0
   -5.3820   -1.4990    3.6080 H   0  0  0  0  0  0  0  0  0  0  0  0
   -2.7630   -0.4100    2.9940 H   0  0  0  0  0  0  0  0  0  0  0  0
   -6.0290   -0.6420    0.4370 H   0  0  0  0  0  0  0  0  0  0  0  0
   -3.6130   -2.0970   -0.3930 H   0  0  0  0  0  0  0  0  0  0  0  0
   -4.7570   -1.2420   -1.4320 H   0  0  0  0  0  0  0  0  0  0  0  0
   -2.5810    0.3640   -0.0050 H   0  0  0  0  0  0  0  0  0  0  0  0
   -3.7440    0.8890   -1.2100 H   0  0  0  0  0  0  0  0  0  0  0  0
   -1.7160    0.5580   -2.3500 H   0  0  0  0  0  0  0  0  0  0  0  0
   -2.9050   -0.6320   -2.8780 H   0  0  0  0  0  0  0  0  0  0  0  0
   -1.9750   -2.4130   -1.5000 H   0  0  0  0  0  0  0  0  0  0  0  0
   -0.0890   -2.2590   -0.1620 H   0  0  0  0  0  0  0  0  0  0  0  0
  1  7  1  0  0  0  0
  1  8  1  0  0  0  0
  2  9  1  1  0  0  0
  2  1  1  0  0  0  0
  3  2  1  0  0  0  0
  4  2  1  0  0  0  0
  4  5  2  0  0  0  0
  6  1  1  0  0  0  0
 10  3  1  0  0  0  0
 11  3  1  0  0  0  0
 12  4  1  0  0  0  0
 13 12  1  0  0  0  0
 13 22  1  1  0  0  0
 14 13  1  0  0  0  0
 14 23  1  0  0  0  0
 15 14  1  0  0  0  0
 15 25  1  0  0  0  0
 16 15  1  0  0  0  0
 16 27  1  0  0  0  0
 17 29  1  0  0  0  0
 17 16  1  0  0  0  0
 18 17  1  0  0  0  0
 19 13  1  0  0  0  0
 20 19  2  0  0  0  0
 21 12  1  0  0  0  0
 24 14  1  0  0  0  0
 26 15  1  0  0  0  0
 28 16  1  0  0  0  0
 30 17  1  0  0  0  0
 31 18  1  0  0  0  0
 32 18  1  0  0  0  0
 33 45  1  0  0  0  0
 33 46  1  0  0  0  0
 34 35  2  0  0  0  0
 34 33  1  0  0  0  0
 35 47  1  0  0  0  0
 36 34  1  0  0  0  0
 37 49  1  0  0  0  0
 37 36  1  0  0  0  0
 38 37  1  0  0  0  0
 38 51  1  0  0  0  0
 39 40  1  0  0  0  0
 39 38  1  0  0  0  0
 40 55  1  1  0  0  0
 40 41  1  0  0  0  0
 41 19  1  0  0  0  0
 41 56  1  0  0  0  0
 42 43  1  0  0  0  0
 42 40  1  0  0  0  0
 44 42  2  0  0  0  0
 48 36  1  0  0  0  0
 50 37  1  0  0  0  0
 52 38  1  0  0  0  0
 53 39  1  0  0  0  0
 54 39  1  0  0  0  0
M  END
$$$$
