AKV.pdb
 OpenBabel07022418013D

 49 48  0  0  1  0  0  0  0  0999 V2000
   -0.9620   -2.9000   -2.6990 C   0  0  0  0  0  0  0  0  0  0  0  0
    0.5490   -2.8160   -2.7190 C   0  0  2  0  0  0  0  0  0  0  0  0
    1.0990   -4.1360   -2.9510 N   0  0  0  0  0  0  0  0  0  0  0  0
    1.1070   -2.3080   -1.4450 C   0  0  0  0  0  0  0  0  0  0  0  0
    1.8940   -3.0470   -0.7830 O   0  0  0  0  0  0  0  0  0  0  0  0
   -1.3010   -3.0410   -1.6730 H   0  0  0  0  0  0  0  0  0  0  0  0
   -1.2390   -3.8020   -3.2880 H   0  0  0  0  0  0  0  0  0  0  0  0
   -1.4130   -2.0380   -3.2020 H   0  0  0  0  0  0  0  0  0  0  0  0
    0.8090   -2.0960   -3.5200 H   0  0  0  0  0  0  0  0  0  0  0  0
    1.9090   -4.3340   -2.3010 H   0  0  0  0  0  0  0  0  0  0  0  0
    0.4060   -4.8920   -2.9400 H   0  0  0  0  0  0  0  0  0  0  0  0
    0.8210   -1.0320   -0.9000 N   0  0  0  0  0  0  0  0  0  0  0  0
    1.4210   -0.5840    0.3940 C   0  0  1  0  0  0  0  0  0  0  0  0
    2.1540    0.6670    0.1110 C   0  0  0  0  0  0  0  0  0  0  0  0
    2.8550    1.2700    1.2580 C   0  0  0  0  0  0  0  0  0  0  0  0
    3.9920    0.6120    1.9020 C   0  0  0  0  0  0  0  0  0  0  0  0
    3.9000   -0.6910    2.5670 C   0  0  0  0  0  0  0  0  0  0  0  0
    2.9750   -0.7850    3.6750 N   0  0  0  0  0  0  0  0  0  0  0  0
    0.2180   -0.3460    1.2680 C   0  0  0  0  0  0  0  0  0  0  0  0
    0.3360    0.0550    2.4610 O   0  0  0  0  0  0  0  0  0  0  0  0
    0.1830   -0.4190   -1.4430 H   0  0  0  0  0  0  0  0  0  0  0  0
    2.0360   -1.3950    0.7260 H   0  0  0  0  0  0  0  0  0  0  0  0
    2.8930    0.4510   -0.7170 H   0  0  0  0  0  0  0  0  0  0  0  0
    1.4380    1.4690   -0.2820 H   0  0  0  0  0  0  0  0  0  0  0  0
    3.2330    2.3000    0.9090 H   0  0  0  0  0  0  0  0  0  0  0  0
    2.0460    1.5700    1.9990 H   0  0  0  0  0  0  0  0  0  0  0  0
    4.4820    1.3310    2.6390 H   0  0  0  0  0  0  0  0  0  0  0  0
    4.8190    0.5100    1.1230 H   0  0  0  0  0  0  0  0  0  0  0  0
    3.8960   -1.5990    1.9450 H   0  0  0  0  0  0  0  0  0  0  0  0
    4.9320   -0.8100    3.1060 H   0  0  0  0  0  0  0  0  0  0  0  0
    2.3030   -1.5490    3.5620 H   0  0  0  0  0  0  0  0  0  0  0  0
    2.6120    0.1150    4.0100 H   0  0  0  0  0  0  0  0  0  0  0  0
   -2.0170    2.1320    1.5330 C   0  0  0  0  0  0  0  0  0  0  0  0
   -2.9540    0.9680    1.2910 C   0  0  0  0  0  0  0  0  0  0  0  0
   -4.1060    1.1110    2.2630 C   0  0  0  0  0  0  0  0  0  0  0  0
   -2.2770   -0.3480    1.6160 C   0  0  2  0  0  0  0  0  0  0  0  0
   -1.0920   -0.5570    0.8090 N   0  0  0  0  0  0  0  0  0  0  0  0
   -3.2380   -1.4180    1.4000 C   0  0  0  0  0  0  0  0  0  0  0  0
   -4.3440   -1.5140    1.9810 O   0  0  0  0  0  0  0  0  0  0  0  0
   -2.9370   -2.4310    0.4820 O   0  0  0  0  0  0  0  0  0  0  0  0
   -2.4710    3.1170    1.3430 H   0  0  0  0  0  0  0  0  0  0  0  0
   -1.5460    2.1030    2.5120 H   0  0  0  0  0  0  0  0  0  0  0  0
   -1.1800    2.0420    0.7720 H   0  0  0  0  0  0  0  0  0  0  0  0
   -3.3810    0.9670    0.2740 H   0  0  0  0  0  0  0  0  0  0  0  0
   -4.2130    2.1890    2.5200 H   0  0  0  0  0  0  0  0  0  0  0  0
   -3.8390    0.6180    3.2440 H   0  0  0  0  0  0  0  0  0  0  0  0
   -5.0500    0.7150    1.8850 H   0  0  0  0  0  0  0  0  0  0  0  0
   -1.9550   -0.2640    2.6660 H   0  0  0  0  0  0  0  0  0  0  0  0
   -1.2520   -0.8830   -0.1590 H   0  0  0  0  0  0  0  0  0  0  0  0
  1  6  1  0  0  0  0
  2  9  1  6  0  0  0
  2  1  1  0  0  0  0
  2  4  1  0  0  0  0
  3 11  1  0  0  0  0
  3  2  1  0  0  0  0
  3 10  1  0  0  0  0
  4 12  1  0  0  0  0
  4  5  2  0  0  0  0
  7  1  1  0  0  0  0
  8  1  1  0  0  0  0
 12 13  1  0  0  0  0
 13 22  1  1  0  0  0
 13 19  1  0  0  0  0
 14 13  1  0  0  0  0
 14 15  1  0  0  0  0
 15 16  1  0  0  0  0
 15 26  1  0  0  0  0
 16 17  1  0  0  0  0
 16 27  1  0  0  0  0
 17 30  1  0  0  0  0
 17 18  1  0  0  0  0
 18 32  1  0  0  0  0
 19 20  2  0  0  0  0
 21 12  1  0  0  0  0
 23 14  1  0  0  0  0
 24 14  1  0  0  0  0
 25 15  1  0  0  0  0
 28 16  1  0  0  0  0
 29 17  1  0  0  0  0
 31 18  1  0  0  0  0
 33 42  1  0  0  0  0
 34 33  1  0  0  0  0
 34 36  1  0  0  0  0
 34 35  1  0  0  0  0
 35 45  1  0  0  0  0
 35 46  1  0  0  0  0
 36 48  1  1  0  0  0
 37 19  1  0  0  0  0
 37 36  1  0  0  0  0
 38 36  1  0  0  0  0
 38 39  1  0  0  0  0
 40 38  2  0  0  0  0
 41 33  1  0  0  0  0
 43 33  1  0  0  0  0
 44 34  1  0  0  0  0
 47 35  1  0  0  0  0
 49 37  1  0  0  0  0
M  END
$$$$
