AKW.pdb
 OpenBabel07022418013D

 57 58  0  0  1  0  0  0  0  0999 V2000
    2.8830   -2.7440    1.6880 C   0  0  0  0  0  0  0  0  0  0  0  0
    3.4030   -2.1970    0.3520 C   0  0  2  0  0  0  0  0  0  0  0  0
    4.8280   -2.0190    0.5230 N   0  0  0  0  0  0  0  0  0  0  0  0
    2.7750   -0.8740    0.1760 C   0  0  0  0  0  0  0  0  0  0  0  0
    3.4990    0.1460    0.1960 O   0  0  0  0  0  0  0  0  0  0  0  0
    3.5980   -3.4610    2.1120 H   0  0  0  0  0  0  0  0  0  0  0  0
    1.8640   -3.1620    1.5660 H   0  0  0  0  0  0  0  0  0  0  0  0
    2.8770   -1.8600    2.3750 H   0  0  0  0  0  0  0  0  0  0  0  0
    3.1630   -2.8980   -0.4740 H   0  0  0  0  0  0  0  0  0  0  0  0
    4.9640   -1.4670    1.3980 H   0  0  0  0  0  0  0  0  0  0  0  0
    5.2620   -2.9720    0.6870 H   0  0  0  0  0  0  0  0  0  0  0  0
    1.3710   -0.6760   -0.0180 N   0  0  0  0  0  0  0  0  0  0  0  0
    0.7900    0.6260   -0.1870 C   0  0  1  0  0  0  0  0  0  0  0  0
   -0.2470    0.7640   -1.2350 C   0  0  0  0  0  0  0  0  0  0  0  0
    0.1330    0.4560   -2.6330 C   0  0  0  0  0  0  0  0  0  0  0  0
    0.5990   -0.9390   -2.9060 C   0  0  0  0  0  0  0  0  0  0  0  0
    0.9210   -1.0320   -4.3880 C   0  0  0  0  0  0  0  0  0  0  0  0
    1.3800   -2.3180   -4.7840 N   0  0  0  0  0  0  0  0  0  0  0  0
    0.1300    1.0700    1.1090 C   0  0  0  0  0  0  0  0  0  0  0  0
   -0.4600    2.1780    1.1500 O   0  0  0  0  0  0  0  0  0  0  0  0
    0.7780   -1.5300   -0.0340 H   0  0  0  0  0  0  0  0  0  0  0  0
    1.6460    1.3470   -0.2790 H   0  0  0  0  0  0  0  0  0  0  0  0
   -0.5710    1.8480   -1.2180 H   0  0  0  0  0  0  0  0  0  0  0  0
   -1.1270    0.1450   -0.9480 H   0  0  0  0  0  0  0  0  0  0  0  0
    0.8640    1.2240   -3.0040 H   0  0  0  0  0  0  0  0  0  0  0  0
   -0.7820    0.6570   -3.2670 H   0  0  0  0  0  0  0  0  0  0  0  0
    1.5480   -1.1100   -2.3700 H   0  0  0  0  0  0  0  0  0  0  0  0
   -0.1430   -1.6990   -2.6190 H   0  0  0  0  0  0  0  0  0  0  0  0
    1.6700   -0.2730   -4.6270 H   0  0  0  0  0  0  0  0  0  0  0  0
   -0.0240   -0.8170   -4.9450 H   0  0  0  0  0  0  0  0  0  0  0  0
    2.1900   -2.3090   -5.4380 H   0  0  0  0  0  0  0  0  0  0  0  0
    0.6320   -2.9820   -5.0670 H   0  0  0  0  0  0  0  0  0  0  0  0
    0.1680    0.2660    2.2710 N   0  0  0  0  0  0  0  0  0  0  0  0
   -0.4240    0.6140    3.5180 C   0  0  1  0  0  0  0  0  0  0  0  0
   -1.5350   -0.3010    3.8800 C   0  0  0  0  0  0  0  0  0  0  0  0
   -2.6370   -0.2970    2.8780 C   0  0  0  0  0  0  0  0  0  0  0  0
   -3.8080    0.4570    2.9870 C   0  0  0  0  0  0  0  0  0  0  0  0
   -4.5420    0.2340    1.9060 N   0  0  0  0  0  0  0  0  0  0  0  0
   -3.9410   -0.6250    1.0730 C   0  0  0  0  0  0  0  0  0  0  0  0
   -4.2890   -1.1640   -0.1360 C   0  0  0  0  0  0  0  0  0  0  0  0
   -3.4700   -2.0550   -0.7870 C   0  0  0  0  0  0  0  0  0  0  0  0
   -2.2890   -2.3780   -0.1710 C   0  0  0  0  0  0  0  0  0  0  0  0
   -1.9000   -1.8600    1.0410 C   0  0  0  0  0  0  0  0  0  0  0  0
   -2.7420   -0.9650    1.6750 C   0  0  0  0  0  0  0  0  0  0  0  0
    0.5770    0.7670    4.6080 C   0  0  0  0  0  0  0  0  0  0  0  0
    1.8080    0.6020    4.4260 O   0  0  0  0  0  0  0  0  0  0  0  0
    0.1560    1.1050    5.8860 O   0  0  0  0  0  0  0  0  0  0  0  0
    0.6750   -0.6500    2.2200 H   0  0  0  0  0  0  0  0  0  0  0  0
   -0.8940    1.6400    3.3870 H   0  0  0  0  0  0  0  0  0  0  0  0
   -1.9780   -0.0500    4.8850 H   0  0  0  0  0  0  0  0  0  0  0  0
   -1.2160   -1.3600    3.9760 H   0  0  0  0  0  0  0  0  0  0  0  0
   -4.0180    1.0920    3.8320 H   0  0  0  0  0  0  0  0  0  0  0  0
   -5.4890    0.6540    1.6800 H   0  0  0  0  0  0  0  0  0  0  0  0
   -5.2350   -0.8860   -0.5980 H   0  0  0  0  0  0  0  0  0  0  0  0
   -3.7730   -2.4630   -1.7400 H   0  0  0  0  0  0  0  0  0  0  0  0
   -1.6430   -3.0830   -0.6890 H   0  0  0  0  0  0  0  0  0  0  0  0
   -0.9690   -2.1520    1.4880 H   0  0  0  0  0  0  0  0  0  0  0  0
  1  6  1  0  0  0  0
  1  8  1  0  0  0  0
  2  9  1  6  0  0  0
  2  3  1  0  0  0  0
  2  1  1  0  0  0  0
  3 11  1  0  0  0  0
  3 10  1  0  0  0  0
  4  5  2  0  0  0  0
  4  2  1  0  0  0  0
  7  1  1  0  0  0  0
 12  4  1  0  0  0  0
 13 22  1  6  0  0  0
 13 12  1  0  0  0  0
 13 19  1  0  0  0  0
 14 23  1  0  0  0  0
 14 24  1  0  0  0  0
 14 13  1  0  0  0  0
 15 14  1  0  0  0  0
 16 15  1  0  0  0  0
 16 28  1  0  0  0  0
 16 27  1  0  0  0  0
 17 16  1  0  0  0  0
 18 17  1  0  0  0  0
 19 20  2  0  0  0  0
 19 33  1  0  0  0  0
 21 12  1  0  0  0  0
 25 15  1  0  0  0  0
 26 15  1  0  0  0  0
 29 17  1  0  0  0  0
 30 17  1  0  0  0  0
 31 18  1  0  0  0  0
 32 18  1  0  0  0  0
 33 34  1  0  0  0  0
 34 49  1  6  0  0  0
 34 35  1  0  0  0  0
 34 45  1  0  0  0  0
 35 51  1  0  0  0  0
 35 50  1  0  0  0  0
 36 37  2  0  0  0  0
 36 35  1  0  0  0  0
 37 52  1  0  0  0  0
 38 37  1  0  0  0  0
 39 44  1  0  0  0  0
 39 38  1  0  0  0  0
 40 39  2  0  0  0  0
 41 42  2  0  0  0  0
 41 40  1  0  0  0  0
 42 43  1  0  0  0  0
 43 57  1  0  0  0  0
 43 44  2  0  0  0  0
 44 36  1  0  0  0  0
 45 47  1  0  0  0  0
 46 45  2  0  0  0  0
 48 33  1  0  0  0  0
 53 38  1  0  0  0  0
 54 40  1  0  0  0  0
 55 41  1  0  0  0  0
 56 42  1  0  0  0  0
M  END
$$$$
