AKY.pdb
 OpenBabel07022418013D

 54 54  0  0  1  0  0  0  0  0999 V2000
    0.2960   -4.5340    1.5050 C   0  0  0  0  0  0  0  0  0  0  0  0
   -0.2510   -3.7060    2.6760 C   0  0  2  0  0  0  0  0  0  0  0  0
   -1.6950   -3.7570    2.5830 N   0  0  0  0  0  0  0  0  0  0  0  0
    0.2350   -2.2880    2.4580 C   0  0  0  0  0  0  0  0  0  0  0  0
    1.4830   -2.1160    2.5150 O   0  0  0  0  0  0  0  0  0  0  0  0
    1.4110   -4.4160    1.5600 H   0  0  0  0  0  0  0  0  0  0  0  0
    0.0660   -5.5990    1.6350 H   0  0  0  0  0  0  0  0  0  0  0  0
   -0.0210   -4.1060    0.5440 H   0  0  0  0  0  0  0  0  0  0  0  0
    0.1450   -4.0610    3.6250 H   0  0  0  0  0  0  0  0  0  0  0  0
   -2.0230   -3.9630    1.6130 H   0  0  0  0  0  0  0  0  0  0  0  0
   -2.0080   -4.5720    3.1770 H   0  0  0  0  0  0  0  0  0  0  0  0
   -0.6580   -1.2360    2.2090 N   0  0  0  0  0  0  0  0  0  0  0  0
   -0.1670    0.1320    2.0030 C   0  0  1  0  0  0  0  0  0  0  0  0
    0.5160    0.6100    3.2160 C   0  0  0  0  0  0  0  0  0  0  0  0
    1.1200    1.9520    3.2760 C   0  0  0  0  0  0  0  0  0  0  0  0
    0.3160    3.1710    3.1790 C   0  0  0  0  0  0  0  0  0  0  0  0
   -0.4730    3.5100    1.9800 C   0  0  0  0  0  0  0  0  0  0  0  0
   -1.0850    4.8550    2.2610 N   0  0  0  0  0  0  0  0  0  0  0  0
    0.6820    0.1850    0.7750 C   0  0  0  0  0  0  0  0  0  0  0  0
    1.3060    1.2440    0.5130 O   0  0  0  0  0  0  0  0  0  0  0  0
   -1.6710   -1.4080    2.1680 H   0  0  0  0  0  0  0  0  0  0  0  0
   -1.0710    0.7530    1.7340 H   0  0  0  0  0  0  0  0  0  0  0  0
   -0.2670    0.5800    4.0710 H   0  0  0  0  0  0  0  0  0  0  0  0
    1.2610   -0.1450    3.6150 H   0  0  0  0  0  0  0  0  0  0  0  0
    2.0390    2.0070    2.5650 H   0  0  0  0  0  0  0  0  0  0  0  0
    1.6930    2.0100    4.2900 H   0  0  0  0  0  0  0  0  0  0  0  0
    0.9390    4.1020    3.4400 H   0  0  0  0  0  0  0  0  0  0  0  0
   -0.3960    3.1750    4.0920 H   0  0  0  0  0  0  0  0  0  0  0  0
   -1.3250    2.8510    1.7490 H   0  0  0  0  0  0  0  0  0  0  0  0
    0.1710    3.6580    1.0950 H   0  0  0  0  0  0  0  0  0  0  0  0
   -1.9670    4.6560    2.7690 H   0  0  0  0  0  0  0  0  0  0  0  0
   -1.2460    5.3260    1.3600 H   0  0  0  0  0  0  0  0  0  0  0  0
   -3.7840   -3.6400   -3.3920 O   0  0  0  0  0  0  0  0  0  0  0  0
   -2.6570   -2.8530   -3.1700 C   0  0  0  0  0  0  0  0  0  0  0  0
   -1.4360   -3.1300   -3.7480 C   0  0  0  0  0  0  0  0  0  0  0  0
   -0.3060   -2.3670   -3.5440 C   0  0  0  0  0  0  0  0  0  0  0  0
   -0.3790   -1.2660   -2.7250 C   0  0  0  0  0  0  0  0  0  0  0  0
    0.8510   -0.4300   -2.4990 C   0  0  0  0  0  0  0  0  0  0  0  0
    1.6280   -0.9390   -1.3100 C   0  0  2  0  0  0  0  0  0  0  0  0
    0.8250   -0.8890   -0.1160 N   0  0  0  0  0  0  0  0  0  0  0  0
    2.9740   -0.3640   -1.1800 C   0  0  0  0  0  0  0  0  0  0  0  0
    3.6860   -0.2970   -2.2110 O   0  0  0  0  0  0  0  0  0  0  0  0
   -1.5730   -0.9550   -2.1300 C   0  0  0  0  0  0  0  0  0  0  0  0
   -2.6810   -1.7340   -2.3520 C   0  0  0  0  0  0  0  0  0  0  0  0
    3.4820    0.0970    0.0050 O   0  0  0  0  0  0  0  0  0  0  0  0
   -4.6280   -3.3920   -2.9090 H   0  0  0  0  0  0  0  0  0  0  0  0
   -1.4040   -4.0080   -4.3940 H   0  0  0  0  0  0  0  0  0  0  0  0
    0.6370   -2.6460   -4.0380 H   0  0  0  0  0  0  0  0  0  0  0  0
    1.4340   -0.5080   -3.4390 H   0  0  0  0  0  0  0  0  0  0  0  0
    0.5720    0.6310   -2.3940 H   0  0  0  0  0  0  0  0  0  0  0  0
    1.8550   -2.0470   -1.5540 H   0  0  0  0  0  0  0  0  0  0  0  0
    0.2540   -1.7590    0.1230 H   0  0  0  0  0  0  0  0  0  0  0  0
   -1.6010   -0.0700   -1.4810 H   0  0  0  0  0  0  0  0  0  0  0  0
   -3.6320   -1.4960   -1.8850 H   0  0  0  0  0  0  0  0  0  0  0  0
  1  6  1  0  0  0  0
  1  7  1  0  0  0  0
  1  2  1  0  0  0  0
  2  9  1  1  0  0  0
  3  2  1  0  0  0  0
  3 11  1  0  0  0  0
  4  5  2  0  0  0  0
  4  2  1  0  0  0  0
  8  1  1  0  0  0  0
 10  3  1  0  0  0  0
 12  4  1  0  0  0  0
 13 22  1  6  0  0  0
 13 12  1  0  0  0  0
 13 14  1  0  0  0  0
 14 15  1  0  0  0  0
 14 24  1  0  0  0  0
 14 23  1  0  0  0  0
 15 26  1  0  0  0  0
 16 15  1  0  0  0  0
 16 27  1  0  0  0  0
 16 28  1  0  0  0  0
 17 18  1  0  0  0  0
 17 16  1  0  0  0  0
 18 31  1  0  0  0  0
 19 13  1  0  0  0  0
 20 19  2  0  0  0  0
 21 12  1  0  0  0  0
 25 15  1  0  0  0  0
 29 17  1  0  0  0  0
 30 17  1  0  0  0  0
 32 18  1  0  0  0  0
 33 34  1  0  0  0  0
 33 46  1  0  0  0  0
 34 44  1  0  0  0  0
 35 36  1  0  0  0  0
 35 34  2  0  0  0  0
 36 37  2  0  0  0  0
 37 38  1  0  0  0  0
 37 43  1  0  0  0  0
 38 50  1  0  0  0  0
 38 39  1  0  0  0  0
 39 51  1  6  0  0  0
 39 41  1  0  0  0  0
 39 40  1  0  0  0  0
 40 52  1  0  0  0  0
 40 19  1  0  0  0  0
 41 45  1  0  0  0  0
 42 41  2  0  0  0  0
 43 53  1  0  0  0  0
 44 43  2  0  0  0  0
 44 54  1  0  0  0  0
 47 35  1  0  0  0  0
 48 36  1  0  0  0  0
 49 38  1  0  0  0  0
M  END
$$$$
