ALC.pdb
 OpenBabel07022418013D

 42 41  0  0  1  0  0  0  0  0999 V2000
    0.6570   -5.1110    1.4990 C   0  0  0  0  0  0  0  0  0  0  0  0
   -0.1010   -3.8430    1.8230 C   0  0  2  0  0  0  0  0  0  0  0  0
   -1.0570   -3.6040    0.7710 N   0  0  0  0  0  0  0  0  0  0  0  0
    0.8760   -2.7330    1.8880 C   0  0  0  0  0  0  0  0  0  0  0  0
    1.7920   -2.7930    2.7730 O   0  0  0  0  0  0  0  0  0  0  0  0
    1.7120   -5.0340    1.8570 H   0  0  0  0  0  0  0  0  0  0  0  0
    0.1470   -5.9670    2.0160 H   0  0  0  0  0  0  0  0  0  0  0  0
    0.6570   -5.2270    0.3960 H   0  0  0  0  0  0  0  0  0  0  0  0
   -0.6020   -3.9200    2.8110 H   0  0  0  0  0  0  0  0  0  0  0  0
   -2.0280   -3.6990    1.1220 H   0  0  0  0  0  0  0  0  0  0  0  0
   -0.9540   -4.2690   -0.0250 H   0  0  0  0  0  0  0  0  0  0  0  0
    1.2660   -1.2600   -1.9890 C   0  0  0  0  0  0  0  0  0  0  0  0
    2.1520   -0.1640   -1.4430 C   0  0  0  0  0  0  0  0  0  0  0  0
    1.5550    1.2000   -1.7170 C   0  0  0  0  0  0  0  0  0  0  0  0
    2.6770   -0.3770   -0.0860 C   0  0  0  0  0  0  0  0  0  0  0  0
    1.7630   -0.5370    1.0550 C   0  0  2  0  0  0  0  0  0  0  0  0
    0.8340   -1.6180    1.0130 N   0  0  0  0  0  0  0  0  0  0  0  0
    1.1030    0.7200    1.4970 C   0  0  0  0  0  0  0  0  0  0  0  0
    1.7420    1.7960    1.5910 O   0  0  0  0  0  0  0  0  0  0  0  0
    1.4530   -1.4140   -3.0970 H   0  0  0  0  0  0  0  0  0  0  0  0
    1.4340   -2.2380   -1.5430 H   0  0  0  0  0  0  0  0  0  0  0  0
    0.2160   -0.8940   -1.9660 H   0  0  0  0  0  0  0  0  0  0  0  0
    3.0650   -0.1960   -2.1250 H   0  0  0  0  0  0  0  0  0  0  0  0
    0.4420    1.1490   -1.6700 H   0  0  0  0  0  0  0  0  0  0  0  0
    1.7530    1.5080   -2.7900 H   0  0  0  0  0  0  0  0  0  0  0  0
    1.9850    2.0030   -1.1190 H   0  0  0  0  0  0  0  0  0  0  0  0
    3.3420    0.5090    0.1440 H   0  0  0  0  0  0  0  0  0  0  0  0
    3.4200   -1.2270   -0.1440 H   0  0  0  0  0  0  0  0  0  0  0  0
    2.4610   -0.7670    1.9470 H   0  0  0  0  0  0  0  0  0  0  0  0
    0.0740   -1.5980    0.3070 H   0  0  0  0  0  0  0  0  0  0  0  0
   -0.2730    0.7480    1.8310 N   0  0  0  0  0  0  0  0  0  0  0  0
   -0.8750    1.9660    2.2590 C   0  0  1  0  0  0  0  0  0  0  0  0
   -2.0720    2.4180    1.4950 C   0  0  0  0  0  0  0  0  0  0  0  0
   -1.6590    2.6810   -0.2250 S   0  0  0  0  0  0  0  0  0  0  0  0
   -1.2070    1.9000    3.7280 C   0  0  0  0  0  0  0  0  0  0  0  0
   -0.9300    0.8590    4.3380 O   0  0  0  0  0  0  0  0  0  0  0  0
   -1.8010    2.9700    4.3690 O   0  0  0  0  0  0  0  0  0  0  0  0
   -0.8430   -0.1380    1.7590 H   0  0  0  0  0  0  0  0  0  0  0  0
   -0.1170    2.8030    2.2050 H   0  0  0  0  0  0  0  0  0  0  0  0
   -2.9650    1.7790    1.6430 H   0  0  0  0  0  0  0  0  0  0  0  0
   -2.3610    3.4190    1.9260 H   0  0  0  0  0  0  0  0  0  0  0  0
   -0.3090    3.0280   -0.3820 H   0  0  0  0  0  0  0  0  0  0  0  0
  1  2  1  0  0  0  0
  1  6  1  0  0  0  0
  1  7  1  0  0  0  0
  2  4  1  0  0  0  0
  2  9  1  1  0  0  0
  3 10  1  0  0  0  0
  3  2  1  0  0  0  0
  4  5  2  0  0  0  0
  8  1  1  0  0  0  0
 11  3  1  0  0  0  0
 12 22  1  0  0  0  0
 12 21  1  0  0  0  0
 12 13  1  0  0  0  0
 13 15  1  0  0  0  0
 14 24  1  0  0  0  0
 14 13  1  0  0  0  0
 14 26  1  0  0  0  0
 15 27  1  0  0  0  0
 15 16  1  0  0  0  0
 16 18  1  0  0  0  0
 16 29  1  1  0  0  0
 17 16  1  0  0  0  0
 17  4  1  0  0  0  0
 18 19  2  0  0  0  0
 18 31  1  0  0  0  0
 20 12  1  0  0  0  0
 23 13  1  0  0  0  0
 25 14  1  0  0  0  0
 28 15  1  0  0  0  0
 30 17  1  0  0  0  0
 31 32  1  0  0  0  0
 32 39  1  6  0  0  0
 32 35  1  0  0  0  0
 33 40  1  0  0  0  0
 33 41  1  0  0  0  0
 33 32  1  0  0  0  0
 34 33  1  0  0  0  0
 35 36  2  0  0  0  0
 35 37  1  0  0  0  0
 38 31  1  0  0  0  0
 42 34  1  0  0  0  0
M  END
$$$$
