ALD.pdb
 OpenBabel07022418013D

 44 43  0  0  1  0  0  0  0  0999 V2000
   -0.9010   -3.7860    1.8910 C   0  0  0  0  0  0  0  0  0  0  0  0
    0.5980   -4.0990    1.8800 C   0  0  2  0  0  0  0  0  0  0  0  0
    0.8890   -5.0200    2.9610 N   0  0  0  0  0  0  0  0  0  0  0  0
    1.4010   -2.8660    1.9560 C   0  0  0  0  0  0  0  0  0  0  0  0
    2.2150   -2.7280    2.8910 O   0  0  0  0  0  0  0  0  0  0  0  0
   -1.1600   -3.3660    0.9070 H   0  0  0  0  0  0  0  0  0  0  0  0
   -1.4270   -4.7600    1.9770 H   0  0  0  0  0  0  0  0  0  0  0  0
   -1.1700   -3.1390    2.7380 H   0  0  0  0  0  0  0  0  0  0  0  0
    0.7680   -4.6630    0.9320 H   0  0  0  0  0  0  0  0  0  0  0  0
    1.9280   -5.0720    3.0800 H   0  0  0  0  0  0  0  0  0  0  0  0
    0.3880   -4.7960    3.8370 H   0  0  0  0  0  0  0  0  0  0  0  0
    1.8250   -1.7320   -2.0490 C   0  0  0  0  0  0  0  0  0  0  0  0
    2.4920   -0.5270   -1.5330 C   0  0  0  0  0  0  0  0  0  0  0  0
    1.5920    0.6770   -1.8550 C   0  0  0  0  0  0  0  0  0  0  0  0
    2.9420   -0.4730   -0.1480 C   0  0  0  0  0  0  0  0  0  0  0  0
    1.9810   -0.6200    0.9680 C   0  0  2  0  0  0  0  0  0  0  0  0
    1.2520   -1.8680    0.9980 N   0  0  0  0  0  0  0  0  0  0  0  0
    1.1170    0.5550    1.1890 C   0  0  0  0  0  0  0  0  0  0  0  0
    1.6270    1.7000    1.1870 O   0  0  0  0  0  0  0  0  0  0  0  0
    0.7250   -1.6920   -2.1240 H   0  0  0  0  0  0  0  0  0  0  0  0
    2.0580   -2.6770   -1.5050 H   0  0  0  0  0  0  0  0  0  0  0  0
    2.1550   -1.9610   -3.1100 H   0  0  0  0  0  0  0  0  0  0  0  0
    3.4070   -0.3460   -2.1770 H   0  0  0  0  0  0  0  0  0  0  0  0
    0.6720    0.6630   -1.2340 H   0  0  0  0  0  0  0  0  0  0  0  0
    2.1490    1.6260   -1.7960 H   0  0  0  0  0  0  0  0  0  0  0  0
    1.2270    0.6100   -2.9170 H   0  0  0  0  0  0  0  0  0  0  0  0
    3.4490    0.5270    0.0060 H   0  0  0  0  0  0  0  0  0  0  0  0
    3.7810   -1.2070    0.0490 H   0  0  0  0  0  0  0  0  0  0  0  0
    2.6280   -0.6740    1.9020 H   0  0  0  0  0  0  0  0  0  0  0  0
    0.5570   -2.0220    0.2350 H   0  0  0  0  0  0  0  0  0  0  0  0
   -0.2840    0.4850    1.4090 N   0  0  0  0  0  0  0  0  0  0  0  0
   -1.0920    1.7020    1.6240 C   0  0  1  0  0  0  0  0  0  0  0  0
   -2.0520    1.8860    0.4740 C   0  0  0  0  0  0  0  0  0  0  0  0
   -2.9090    3.0810    0.5910 C   0  0  0  0  0  0  0  0  0  0  0  0
   -4.0290    3.0880    1.1620 O   0  0  0  0  0  0  0  0  0  0  0  0
   -1.8190    1.6380    2.8890 C   0  0  0  0  0  0  0  0  0  0  0  0
   -1.7140    0.6020    3.6030 O   0  0  0  0  0  0  0  0  0  0  0  0
   -2.4930    4.3080    0.0490 O   0  0  0  0  0  0  0  0  0  0  0  0
   -2.6060    2.6960    3.2970 O   0  0  0  0  0  0  0  0  0  0  0  0
   -0.7510   -0.4490    1.4190 H   0  0  0  0  0  0  0  0  0  0  0  0
   -0.3790    2.5710    1.5700 H   0  0  0  0  0  0  0  0  0  0  0  0
   -2.7520    1.0060    0.3910 H   0  0  0  0  0  0  0  0  0  0  0  0
   -1.4630    1.9440   -0.4780 H   0  0  0  0  0  0  0  0  0  0  0  0
   -2.7300    5.1930    0.5170 H   0  0  0  0  0  0  0  0  0  0  0  0
  1  7  1  0  0  0  0
  1  8  1  0  0  0  0
  2  9  1  6  0  0  0
  2  1  1  0  0  0  0
  2  4  1  0  0  0  0
  2  3  1  0  0  0  0
  3 10  1  0  0  0  0
  3 11  1  0  0  0  0
  4  5  2  0  0  0  0
  6  1  1  0  0  0  0
 12 13  1  0  0  0  0
 12 21  1  0  0  0  0
 13 15  1  0  0  0  0
 14 25  1  0  0  0  0
 14 13  1  0  0  0  0
 14 24  1  0  0  0  0
 15 27  1  0  0  0  0
 15 28  1  0  0  0  0
 15 16  1  0  0  0  0
 16 17  1  0  0  0  0
 16 18  1  0  0  0  0
 16 29  1  1  0  0  0
 17  4  1  0  0  0  0
 18 31  1  0  0  0  0
 19 18  2  0  0  0  0
 20 12  1  0  0  0  0
 22 12  1  0  0  0  0
 23 13  1  0  0  0  0
 26 14  1  0  0  0  0
 30 17  1  0  0  0  0
 31 40  1  0  0  0  0
 31 32  1  0  0  0  0
 32 41  1  1  0  0  0
 32 36  1  0  0  0  0
 33 34  1  0  0  0  0
 33 32  1  0  0  0  0
 34 35  2  0  0  0  0
 36 39  2  0  0  0  0
 36 37  1  0  0  0  0
 38 44  1  0  0  0  0
 38 34  1  0  0  0  0
 42 33  1  0  0  0  0
 43 33  1  0  0  0  0
M  END
$$$$
