ALG.pdb
 OpenBabel07022418013D

 38 37  0  0  1  0  0  0  0  0999 V2000
    1.1490   -2.7830    3.1440 C   0  0  0  0  0  0  0  0  0  0  0  0
    1.6180   -3.3070    1.8050 C   0  0  2  0  0  0  0  0  0  0  0  0
    2.7980   -4.1110    2.0510 N   0  0  0  0  0  0  0  0  0  0  0  0
    1.8740   -2.2210    0.8360 C   0  0  0  0  0  0  0  0  0  0  0  0
    3.0220   -2.0730    0.3210 O   0  0  0  0  0  0  0  0  0  0  0  0
    0.0670   -2.5920    3.1780 H   0  0  0  0  0  0  0  0  0  0  0  0
    1.6470   -1.8020    3.3980 H   0  0  0  0  0  0  0  0  0  0  0  0
    1.3870   -3.4850    3.9700 H   0  0  0  0  0  0  0  0  0  0  0  0
    0.8040   -3.9430    1.3870 H   0  0  0  0  0  0  0  0  0  0  0  0
    2.4730   -4.9670    2.5580 H   0  0  0  0  0  0  0  0  0  0  0  0
    3.4430   -3.5610    2.6470 H   0  0  0  0  0  0  0  0  0  0  0  0
   -2.0970   -0.5840   -2.7640 C   0  0  0  0  0  0  0  0  0  0  0  0
   -1.3900   -0.4590   -1.4030 C   0  0  0  0  0  0  0  0  0  0  0  0
   -2.0000    0.7100   -0.6760 C   0  0  0  0  0  0  0  0  0  0  0  0
    0.0720   -0.3790   -1.6320 C   0  0  0  0  0  0  0  0  0  0  0  0
    0.9430   -0.2590   -0.4340 C   0  0  2  0  0  0  0  0  0  0  0  0
    0.8190   -1.3480    0.4910 N   0  0  0  0  0  0  0  0  0  0  0  0
    0.7960    1.0670    0.1870 C   0  0  0  0  0  0  0  0  0  0  0  0
    0.8710    2.1330   -0.4740 O   0  0  0  0  0  0  0  0  0  0  0  0
   -3.1020   -1.0120   -2.5960 H   0  0  0  0  0  0  0  0  0  0  0  0
   -2.0990    0.3710   -3.3040 H   0  0  0  0  0  0  0  0  0  0  0  0
   -1.4910   -1.3590   -3.3170 H   0  0  0  0  0  0  0  0  0  0  0  0
   -1.7020   -1.3730   -0.8430 H   0  0  0  0  0  0  0  0  0  0  0  0
   -1.8650    0.6210    0.4010 H   0  0  0  0  0  0  0  0  0  0  0  0
   -3.1190    0.6000   -0.8340 H   0  0  0  0  0  0  0  0  0  0  0  0
   -1.7410    1.6930   -1.1150 H   0  0  0  0  0  0  0  0  0  0  0  0
    0.3890   -1.3000   -2.2060 H   0  0  0  0  0  0  0  0  0  0  0  0
    0.2450    0.4500   -2.3740 H   0  0  0  0  0  0  0  0  0  0  0  0
    2.0300   -0.2840   -0.7890 H   0  0  0  0  0  0  0  0  0  0  0  0
   -0.1020   -1.5110    0.9410 H   0  0  0  0  0  0  0  0  0  0  0  0
    0.5570    1.2480    1.5970 N   0  0  0  0  0  0  0  0  0  0  0  0
    0.4180    2.5610    2.1810 C   0  0  0  0  0  0  0  0  0  0  0  0
    0.1830    2.4050    3.6340 C   0  0  0  0  0  0  0  0  0  0  0  0
    0.0220    3.3830    4.4160 O   0  0  0  0  0  0  0  0  0  0  0  0
    0.1300    1.1440    4.2040 O   0  0  0  0  0  0  0  0  0  0  0  0
    0.4860    0.4090    2.1890 H   0  0  0  0  0  0  0  0  0  0  0  0
   -0.4890    3.0930    1.7730 H   0  0  0  0  0  0  0  0  0  0  0  0
    1.3170    3.1940    1.9810 H   0  0  0  0  0  0  0  0  0  0  0  0
  1  6  1  0  0  0  0
  1  7  1  0  0  0  0
  1  8  1  0  0  0  0
  2  9  1  6  0  0  0
  2  3  1  0  0  0  0
  2  1  1  0  0  0  0
  3 10  1  0  0  0  0
  3 11  1  0  0  0  0
  4  2  1  0  0  0  0
  5  4  2  0  0  0  0
 12 20  1  0  0  0  0
 12 13  1  0  0  0  0
 13 23  1  0  0  0  0
 13 14  1  0  0  0  0
 14 24  1  0  0  0  0
 15 13  1  0  0  0  0
 15 16  1  0  0  0  0
 16 29  1  6  0  0  0
 16 18  1  0  0  0  0
 16 17  1  0  0  0  0
 17  4  1  0  0  0  0
 17 30  1  0  0  0  0
 18 31  1  0  0  0  0
 19 18  2  0  0  0  0
 21 12  1  0  0  0  0
 22 12  1  0  0  0  0
 25 14  1  0  0  0  0
 26 14  1  0  0  0  0
 27 15  1  0  0  0  0
 28 15  1  0  0  0  0
 31 32  1  0  0  0  0
 31 36  1  0  0  0  0
 32 33  1  0  0  0  0
 33 35  2  0  0  0  0
 33 34  1  0  0  0  0
 37 32  1  0  0  0  0
 38 32  1  0  0  0  0
M  END
$$$$
