ALI.pdb
 OpenBabel07022418013D

 50 49  0  0  1  0  0  0  0  0999 V2000
    1.2790   -5.2320    0.1320 C   0  0  0  0  0  0  0  0  0  0  0  0
    0.1870   -4.2850    0.5850 C   0  0  2  0  0  0  0  0  0  0  0  0
   -1.0040   -4.6180   -0.1750 N   0  0  0  0  0  0  0  0  0  0  0  0
    0.5550   -2.8560    0.2600 C   0  0  0  0  0  0  0  0  0  0  0  0
   -0.1400   -2.1910   -0.5460 O   0  0  0  0  0  0  0  0  0  0  0  0
    0.8710   -6.2190   -0.1180 H   0  0  0  0  0  0  0  0  0  0  0  0
    2.1010   -5.3010    0.8810 H   0  0  0  0  0  0  0  0  0  0  0  0
    1.7600   -4.8430   -0.7970 H   0  0  0  0  0  0  0  0  0  0  0  0
    0.0300   -4.4080    1.6700 H   0  0  0  0  0  0  0  0  0  0  0  0
   -1.8720   -4.3040    0.3250 H   0  0  0  0  0  0  0  0  0  0  0  0
   -1.0100   -4.1360   -1.1010 H   0  0  0  0  0  0  0  0  0  0  0  0
    1.8720    1.5330   -1.8160 C   0  0  0  0  0  0  0  0  0  0  0  0
    2.8500    0.4460   -1.5930 C   0  0  0  0  0  0  0  0  0  0  0  0
    3.3090   -0.0220   -3.0000 C   0  0  0  0  0  0  0  0  0  0  0  0
    2.4560   -0.7670   -0.8860 C   0  0  0  0  0  0  0  0  0  0  0  0
    2.0010   -0.8270    0.4960 C   0  0  2  0  0  0  0  0  0  0  0  0
    1.6800   -2.2340    0.8480 N   0  0  0  0  0  0  0  0  0  0  0  0
    1.0570    0.0950    1.0610 C   0  0  0  0  0  0  0  0  0  0  0  0
    1.1880    1.3250    0.9330 O   0  0  0  0  0  0  0  0  0  0  0  0
    0.8160    1.3020   -1.6800 H   0  0  0  0  0  0  0  0  0  0  0  0
    1.9480    1.8790   -2.9110 H   0  0  0  0  0  0  0  0  0  0  0  0
    2.1100    2.4640   -1.2540 H   0  0  0  0  0  0  0  0  0  0  0  0
    3.8060    0.9100   -1.2030 H   0  0  0  0  0  0  0  0  0  0  0  0
    2.5770   -0.7910   -3.3480 H   0  0  0  0  0  0  0  0  0  0  0  0
    3.2390    0.8280   -3.6960 H   0  0  0  0  0  0  0  0  0  0  0  0
    4.3250   -0.4300   -2.9570 H   0  0  0  0  0  0  0  0  0  0  0  0
    1.6650   -1.2720   -1.5430 H   0  0  0  0  0  0  0  0  0  0  0  0
    3.3250   -1.5120   -1.0530 H   0  0  0  0  0  0  0  0  0  0  0  0
    2.9580   -0.6680    1.1320 H   0  0  0  0  0  0  0  0  0  0  0  0
    2.2590   -2.7860    1.5180 H   0  0  0  0  0  0  0  0  0  0  0  0
   -2.8100    2.9490    2.0960 C   0  0  0  0  0  0  0  0  0  0  0  0
   -3.3210    1.5440    2.2900 C   0  0  0  0  0  0  0  0  0  0  0  0
   -2.3670    0.5100    1.7470 C   0  0  2  0  0  0  0  0  0  0  0  0
   -2.9630   -0.8570    1.9870 C   0  0  0  0  0  0  0  0  0  0  0  0
   -1.0130    0.6750    2.3530 C   0  0  2  0  0  0  0  0  0  0  0  0
   -0.0820   -0.3380    1.8030 N   0  0  0  0  0  0  0  0  0  0  0  0
   -0.9790    0.6170    3.8320 C   0  0  0  0  0  0  0  0  0  0  0  0
   -0.2380   -0.2460    4.4000 O   0  0  0  0  0  0  0  0  0  0  0  0
   -1.6970    1.4370    4.6740 O   0  0  0  0  0  0  0  0  0  0  0  0
   -3.6120    3.6160    1.6620 H   0  0  0  0  0  0  0  0  0  0  0  0
   -2.5110    3.4560    3.0250 H   0  0  0  0  0  0  0  0  0  0  0  0
   -1.9940    2.9970    1.3160 H   0  0  0  0  0  0  0  0  0  0  0  0
   -3.5630    1.4040    3.3550 H   0  0  0  0  0  0  0  0  0  0  0  0
   -4.2900    1.5020    1.6890 H   0  0  0  0  0  0  0  0  0  0  0  0
   -2.2490    0.7210    0.6530 H   0  0  0  0  0  0  0  0  0  0  0  0
   -2.2820   -1.5360    2.5370 H   0  0  0  0  0  0  0  0  0  0  0  0
   -3.9720   -0.7950    2.4690 H   0  0  0  0  0  0  0  0  0  0  0  0
   -3.1340   -1.3200    0.9930 H   0  0  0  0  0  0  0  0  0  0  0  0
   -0.6420    1.6810    2.0760 H   0  0  0  0  0  0  0  0  0  0  0  0
   -0.3120   -1.3330    2.0000 H   0  0  0  0  0  0  0  0  0  0  0  0
  1  2  1  0  0  0  0
  1  7  1  0  0  0  0
  2  9  1  1  0  0  0
  3 10  1  0  0  0  0
  3  2  1  0  0  0  0
  4  2  1  0  0  0  0
  4 17  1  0  0  0  0
  5  4  2  0  0  0  0
  6  1  1  0  0  0  0
  8  1  1  0  0  0  0
 11  3  1  0  0  0  0
 12 20  1  0  0  0  0
 12 13  1  0  0  0  0
 12 22  1  0  0  0  0
 13 23  1  0  0  0  0
 13 15  1  0  0  0  0
 14 26  1  0  0  0  0
 14 13  1  0  0  0  0
 15 16  1  0  0  0  0
 16 17  1  0  0  0  0
 16 18  1  0  0  0  0
 16 29  1  1  0  0  0
 17 30  1  0  0  0  0
 18 36  1  0  0  0  0
 19 18  2  0  0  0  0
 21 12  1  0  0  0  0
 24 14  1  0  0  0  0
 25 14  1  0  0  0  0
 27 15  1  0  0  0  0
 28 15  1  0  0  0  0
 31 32  1  0  0  0  0
 31 41  1  0  0  0  0
 32 43  1  0  0  0  0
 33 45  1  6  0  0  0
 33 34  1  0  0  0  0
 33 32  1  0  0  0  0
 33 35  1  0  0  0  0
 34 47  1  0  0  0  0
 34 46  1  0  0  0  0
 35 49  1  6  0  0  0
 35 37  1  0  0  0  0
 36 50  1  0  0  0  0
 36 35  1  0  0  0  0
 37 38  2  0  0  0  0
 37 39  1  0  0  0  0
 40 31  1  0  0  0  0
 42 31  1  0  0  0  0
 44 32  1  0  0  0  0
 48 34  1  0  0  0  0
M  END
$$$$
