ALL.pdb
 OpenBabel07022418013D

 50 49  0  0  1  0  0  0  0  0999 V2000
    0.3680   -4.6580    1.5700 C   0  0  0  0  0  0  0  0  0  0  0  0
    1.7630   -4.2080    1.1970 C   0  0  2  0  0  0  0  0  0  0  0  0
    2.6460   -4.5500    2.2930 N   0  0  0  0  0  0  0  0  0  0  0  0
    1.8470   -2.7700    0.9310 C   0  0  0  0  0  0  0  0  0  0  0  0
    2.6260   -2.0520    1.6410 O   0  0  0  0  0  0  0  0  0  0  0  0
   -0.3370   -4.6380    0.7260 H   0  0  0  0  0  0  0  0  0  0  0  0
    0.4400   -5.7290    1.8910 H   0  0  0  0  0  0  0  0  0  0  0  0
    0.0400   -4.0840    2.4420 H   0  0  0  0  0  0  0  0  0  0  0  0
    2.1440   -4.7460    0.3000 H   0  0  0  0  0  0  0  0  0  0  0  0
    3.0030   -3.7230    2.8080 H   0  0  0  0  0  0  0  0  0  0  0  0
    2.1900   -5.1760    2.9930 H   0  0  0  0  0  0  0  0  0  0  0  0
    0.7510    1.7870   -2.4880 C   0  0  0  0  0  0  0  0  0  0  0  0
    1.7960    0.7620   -2.3980 C   0  0  0  0  0  0  0  0  0  0  0  0
    3.1050    1.3980   -1.8510 C   0  0  0  0  0  0  0  0  0  0  0  0
    1.5720   -0.5100   -1.7260 C   0  0  0  0  0  0  0  0  0  0  0  0
    1.2430   -0.6280   -0.2990 C   0  0  2  0  0  0  0  0  0  0  0  0
    1.1240   -2.0950   -0.0660 N   0  0  0  0  0  0  0  0  0  0  0  0
   -0.0450   -0.0490    0.1180 C   0  0  0  0  0  0  0  0  0  0  0  0
   -0.2410    1.2060    0.1560 O   0  0  0  0  0  0  0  0  0  0  0  0
   -0.2890    1.4180   -2.4950 H   0  0  0  0  0  0  0  0  0  0  0  0
    0.8530    2.2760   -3.5200 H   0  0  0  0  0  0  0  0  0  0  0  0
    0.8090    2.6470   -1.7970 H   0  0  0  0  0  0  0  0  0  0  0  0
    2.1190    0.5050   -3.4660 H   0  0  0  0  0  0  0  0  0  0  0  0
    3.2240    2.3240   -2.4440 H   0  0  0  0  0  0  0  0  0  0  0  0
    3.0080    1.5700   -0.7700 H   0  0  0  0  0  0  0  0  0  0  0  0
    3.9460    0.7290   -2.1240 H   0  0  0  0  0  0  0  0  0  0  0  0
    0.7880   -1.1390   -2.2790 H   0  0  0  0  0  0  0  0  0  0  0  0
    2.5000   -1.1640   -1.8860 H   0  0  0  0  0  0  0  0  0  0  0  0
    2.0710   -0.3270    0.3920 H   0  0  0  0  0  0  0  0  0  0  0  0
    0.4920   -2.6200   -0.6720 H   0  0  0  0  0  0  0  0  0  0  0  0
   -0.2990    0.1000    3.1820 C   0  0  0  0  0  0  0  0  0  0  0  0
   -1.7350    0.5050    3.1880 C   0  0  0  0  0  0  0  0  0  0  0  0
   -1.7990    1.8320    3.9710 C   0  0  0  0  0  0  0  0  0  0  0  0
   -2.3900    0.7610    1.8860 C   0  0  0  0  0  0  0  0  0  0  0  0
   -2.4140   -0.4170    0.9240 C   0  0  2  0  0  0  0  0  0  0  0  0
   -1.1360   -0.8870    0.5010 N   0  0  0  0  0  0  0  0  0  0  0  0
   -3.4010   -0.2250   -0.1520 C   0  0  0  0  0  0  0  0  0  0  0  0
   -3.1800   -0.4470   -1.3710 O   0  0  0  0  0  0  0  0  0  0  0  0
   -4.6660    0.2310    0.1860 O   0  0  0  0  0  0  0  0  0  0  0  0
   -0.0100    0.0360    4.2870 H   0  0  0  0  0  0  0  0  0  0  0  0
   -0.1200   -0.9410    2.8130 H   0  0  0  0  0  0  0  0  0  0  0  0
    0.4060    0.8450    2.7880 H   0  0  0  0  0  0  0  0  0  0  0  0
   -2.2910   -0.2510    3.8020 H   0  0  0  0  0  0  0  0  0  0  0  0
   -2.8440    2.1680    3.9730 H   0  0  0  0  0  0  0  0  0  0  0  0
   -1.3380    1.7370    4.9580 H   0  0  0  0  0  0  0  0  0  0  0  0
   -1.2130    2.5720    3.3590 H   0  0  0  0  0  0  0  0  0  0  0  0
   -3.4930    0.9260    2.1250 H   0  0  0  0  0  0  0  0  0  0  0  0
   -2.0840    1.7080    1.4230 H   0  0  0  0  0  0  0  0  0  0  0  0
   -2.8350   -1.2460    1.6130 H   0  0  0  0  0  0  0  0  0  0  0  0
   -0.9770   -1.9300    0.4670 H   0  0  0  0  0  0  0  0  0  0  0  0
  1  7  1  0  0  0  0
  1  8  1  0  0  0  0
  2  9  1  6  0  0  0
  2  1  1  0  0  0  0
  2  3  1  0  0  0  0
  3 10  1  0  0  0  0
  3 11  1  0  0  0  0
  4  2  1  0  0  0  0
  4  5  2  0  0  0  0
  6  1  1  0  0  0  0
 12 13  1  0  0  0  0
 12 22  1  0  0  0  0
 13 14  1  0  0  0  0
 13 15  1  0  0  0  0
 14 25  1  0  0  0  0
 15 16  1  0  0  0  0
 16 17  1  0  0  0  0
 16 18  1  0  0  0  0
 16 29  1  1  0  0  0
 17  4  1  0  0  0  0
 18 19  2  0  0  0  0
 18 36  1  0  0  0  0
 20 12  1  0  0  0  0
 21 12  1  0  0  0  0
 23 13  1  0  0  0  0
 24 14  1  0  0  0  0
 26 14  1  0  0  0  0
 27 15  1  0  0  0  0
 28 15  1  0  0  0  0
 30 17  1  0  0  0  0
 31 32  1  0  0  0  0
 31 40  1  0  0  0  0
 32 43  1  0  0  0  0
 32 33  1  0  0  0  0
 33 44  1  0  0  0  0
 33 45  1  0  0  0  0
 34 47  1  0  0  0  0
 34 32  1  0  0  0  0
 35 49  1  1  0  0  0
 35 34  1  0  0  0  0
 36 35  1  0  0  0  0
 37 39  1  0  0  0  0
 37 35  1  0  0  0  0
 38 37  2  0  0  0  0
 41 31  1  0  0  0  0
 42 31  1  0  0  0  0
 46 33  1  0  0  0  0
 48 34  1  0  0  0  0
 50 36  1  0  0  0  0
M  END
$$$$
