ALM.pdb
 OpenBabel07022418013D

 48 47  0  0  1  0  0  0  0  0999 V2000
    0.7310   -5.6150    0.8360 C   0  0  0  0  0  0  0  0  0  0  0  0
    1.9950   -4.8550    0.5770 C   0  0  2  0  0  0  0  0  0  0  0  0
    2.9770   -5.2370    1.5660 N   0  0  0  0  0  0  0  0  0  0  0  0
    1.8070   -3.3820    0.6120 C   0  0  0  0  0  0  0  0  0  0  0  0
    2.4410   -2.6490    1.4090 O   0  0  0  0  0  0  0  0  0  0  0  0
    0.1480   -5.7960   -0.0920 H   0  0  0  0  0  0  0  0  0  0  0  0
    1.0380   -6.6350    1.2000 H   0  0  0  0  0  0  0  0  0  0  0  0
    0.0910   -5.1780    1.6060 H   0  0  0  0  0  0  0  0  0  0  0  0
    2.3860   -5.1830   -0.4090 H   0  0  0  0  0  0  0  0  0  0  0  0
    3.2610   -4.4340    2.1440 H   0  0  0  0  0  0  0  0  0  0  0  0
    2.5940   -5.9630    2.2260 H   0  0  0  0  0  0  0  0  0  0  0  0
   -0.0060    1.3590   -1.9580 C   0  0  0  0  0  0  0  0  0  0  0  0
    1.2340    0.5680   -1.9230 C   0  0  0  0  0  0  0  0  0  0  0  0
    2.2710    1.3740   -1.1270 C   0  0  0  0  0  0  0  0  0  0  0  0
    1.1940   -0.8390   -1.5250 C   0  0  0  0  0  0  0  0  0  0  0  0
    0.7410   -1.2750   -0.1900 C   0  0  2  0  0  0  0  0  0  0  0  0
    0.8890   -2.7750   -0.2730 N   0  0  0  0  0  0  0  0  0  0  0  0
   -0.6710   -1.1090    0.1690 C   0  0  0  0  0  0  0  0  0  0  0  0
   -1.5260   -2.0640    0.0400 O   0  0  0  0  0  0  0  0  0  0  0  0
   -0.0260    1.9560   -2.9230 H   0  0  0  0  0  0  0  0  0  0  0  0
   -0.9520    0.7800   -2.0040 H   0  0  0  0  0  0  0  0  0  0  0  0
    0.0130    2.1470   -1.1810 H   0  0  0  0  0  0  0  0  0  0  0  0
    1.6770    0.5850   -2.9770 H   0  0  0  0  0  0  0  0  0  0  0  0
    2.0780    2.4410   -1.3550 H   0  0  0  0  0  0  0  0  0  0  0  0
    2.1370    1.2420   -0.0460 H   0  0  0  0  0  0  0  0  0  0  0  0
    3.2950    1.1410   -1.4840 H   0  0  0  0  0  0  0  0  0  0  0  0
    0.6980   -1.4910   -2.3270 H   0  0  0  0  0  0  0  0  0  0  0  0
    2.2730   -1.2170   -1.6050 H   0  0  0  0  0  0  0  0  0  0  0  0
    1.4090   -0.8800    0.5870 H   0  0  0  0  0  0  0  0  0  0  0  0
    0.3030   -3.2530   -0.9770 H   0  0  0  0  0  0  0  0  0  0  0  0
    0.4790    2.6020    4.2640 C   0  0  0  0  0  0  0  0  0  0  0  0
   -0.2570    1.3050    3.2680 S   0  0  0  0  0  0  0  0  0  0  0  0
   -2.0430    1.3060    3.3350 C   0  0  0  0  0  0  0  0  0  0  0  0
   -2.7260    0.2650    2.5390 C   0  0  0  0  0  0  0  0  0  0  0  0
   -2.4800    0.3030    1.0460 C   0  0  2  0  0  0  0  0  0  0  0  0
   -1.1110    0.1510    0.6880 N   0  0  0  0  0  0  0  0  0  0  0  0
   -3.1610    1.4880    0.4950 C   0  0  0  0  0  0  0  0  0  0  0  0
   -2.5310    2.2910   -0.2180 O   0  0  0  0  0  0  0  0  0  0  0  0
   -4.4990    1.7480    0.7450 O   0  0  0  0  0  0  0  0  0  0  0  0
   -0.2880    3.1480    4.8820 H   0  0  0  0  0  0  0  0  0  0  0  0
    1.2740    2.2040    4.8960 H   0  0  0  0  0  0  0  0  0  0  0  0
    0.9400    3.4130    3.6290 H   0  0  0  0  0  0  0  0  0  0  0  0
   -2.3250    1.1140    4.4140 H   0  0  0  0  0  0  0  0  0  0  0  0
   -2.4660    2.3300    3.1480 H   0  0  0  0  0  0  0  0  0  0  0  0
   -2.4370   -0.7420    2.9530 H   0  0  0  0  0  0  0  0  0  0  0  0
   -3.8160    0.3460    2.7240 H   0  0  0  0  0  0  0  0  0  0  0  0
   -3.0480   -0.6040    0.6610 H   0  0  0  0  0  0  0  0  0  0  0  0
   -0.4250    0.9220    0.8010 H   0  0  0  0  0  0  0  0  0  0  0  0
  1  7  1  0  0  0  0
  1  8  1  0  0  0  0
  2  9  1  6  0  0  0
  2  4  1  0  0  0  0
  2  1  1  0  0  0  0
  2  3  1  0  0  0  0
  3 10  1  0  0  0  0
  3 11  1  0  0  0  0
  4  5  2  0  0  0  0
  6  1  1  0  0  0  0
 12 13  1  0  0  0  0
 12 22  1  0  0  0  0
 13 15  1  0  0  0  0
 13 14  1  0  0  0  0
 14 25  1  0  0  0  0
 15 16  1  0  0  0  0
 16 18  1  0  0  0  0
 16 29  1  1  0  0  0
 17 16  1  0  0  0  0
 17  4  1  0  0  0  0
 18 36  1  0  0  0  0
 19 18  2  0  0  0  0
 20 12  1  0  0  0  0
 21 12  1  0  0  0  0
 23 13  1  0  0  0  0
 24 14  1  0  0  0  0
 26 14  1  0  0  0  0
 27 15  1  0  0  0  0
 28 15  1  0  0  0  0
 30 17  1  0  0  0  0
 31 40  1  0  0  0  0
 31 41  1  0  0  0  0
 32 33  1  0  0  0  0
 32 31  1  0  0  0  0
 33 43  1  0  0  0  0
 34 46  1  0  0  0  0
 34 45  1  0  0  0  0
 34 33  1  0  0  0  0
 35 47  1  6  0  0  0
 35 34  1  0  0  0  0
 36 48  1  0  0  0  0
 36 35  1  0  0  0  0
 37 39  1  0  0  0  0
 37 35  1  0  0  0  0
 38 37  2  0  0  0  0
 42 31  1  0  0  0  0
 44 33  1  0  0  0  0
M  END
$$$$
