ALP.pdb
 OpenBabel07022418013D

 45 45  0  0  1  0  0  0  0  0999 V2000
    0.8290   -5.0540    1.0010 C   0  0  0  0  0  0  0  0  0  0  0  0
    0.4470   -3.7310    1.6370 C   0  0  2  0  0  0  0  0  0  0  0  0
   -0.9140   -3.4340    1.2710 N   0  0  0  0  0  0  0  0  0  0  0  0
    1.3270   -2.6320    1.1760 C   0  0  0  0  0  0  0  0  0  0  0  0
    2.5730   -2.6650    1.3830 O   0  0  0  0  0  0  0  0  0  0  0  0
    0.8110   -4.9470   -0.0940 H   0  0  0  0  0  0  0  0  0  0  0  0
    0.0270   -5.7770    1.2760 H   0  0  0  0  0  0  0  0  0  0  0  0
    1.7900   -5.4450    1.3910 H   0  0  0  0  0  0  0  0  0  0  0  0
    0.4900   -3.8640    2.7390 H   0  0  0  0  0  0  0  0  0  0  0  0
   -1.4270   -4.2590    0.9030 H   0  0  0  0  0  0  0  0  0  0  0  0
   -1.4260   -2.8710    1.9580 H   0  0  0  0  0  0  0  0  0  0  0  0
   -0.4620   -1.1600   -2.2270 C   0  0  0  0  0  0  0  0  0  0  0  0
    0.5850   -0.0970   -2.2850 C   0  0  0  0  0  0  0  0  0  0  0  0
   -0.0320    1.2890   -2.1080 C   0  0  0  0  0  0  0  0  0  0  0  0
    1.7930   -0.3010   -1.4660 C   0  0  0  0  0  0  0  0  0  0  0  0
    1.6160   -0.4160    0.0230 C   0  0  2  0  0  0  0  0  0  0  0  0
    0.8010   -1.4800    0.4750 N   0  0  0  0  0  0  0  0  0  0  0  0
    1.3910    0.9100    0.6080 C   0  0  0  0  0  0  0  0  0  0  0  0
    2.1000    1.8350    0.1110 O   0  0  0  0  0  0  0  0  0  0  0  0
   -0.0760   -2.1500   -1.9360 H   0  0  0  0  0  0  0  0  0  0  0  0
   -1.3360   -0.8090   -1.6290 H   0  0  0  0  0  0  0  0  0  0  0  0
   -0.9230   -1.3470   -3.2500 H   0  0  0  0  0  0  0  0  0  0  0  0
    0.9390   -0.0850   -3.3620 H   0  0  0  0  0  0  0  0  0  0  0  0
   -0.7860    1.3780   -2.9380 H   0  0  0  0  0  0  0  0  0  0  0  0
   -0.5250    1.4030   -1.1440 H   0  0  0  0  0  0  0  0  0  0  0  0
    0.7410    2.0430   -2.3330 H   0  0  0  0  0  0  0  0  0  0  0  0
    2.4730    0.5640   -1.6380 H   0  0  0  0  0  0  0  0  0  0  0  0
    2.3470   -1.1850   -1.8730 H   0  0  0  0  0  0  0  0  0  0  0  0
    2.6790   -0.6870    0.3790 H   0  0  0  0  0  0  0  0  0  0  0  0
   -0.2480   -1.5380    0.3430 H   0  0  0  0  0  0  0  0  0  0  0  0
    0.4950    1.2740    1.6400 N   0  0  0  0  0  0  0  0  0  0  0  0
    0.3260    2.6670    2.1330 C   0  0  0  0  0  0  0  0  0  0  0  0
    0.4810    2.4370    3.6200 C   0  0  0  0  0  0  0  0  0  0  0  0
   -0.2010    1.1040    3.8420 C   0  0  0  0  0  0  0  0  0  0  0  0
   -0.4110    0.5210    2.4420 C   0  0  1  0  0  0  0  0  0  0  0  0
   -1.8320    0.6920    2.1000 C   0  0  0  0  0  0  0  0  0  0  0  0
   -2.1630    1.4140    1.1390 O   0  0  0  0  0  0  0  0  0  0  0  0
   -2.8020    0.0560    2.8380 O   0  0  0  0  0  0  0  0  0  0  0  0
    1.1140    3.3150    1.7120 H   0  0  0  0  0  0  0  0  0  0  0  0
   -0.6890    3.0040    1.9250 H   0  0  0  0  0  0  0  0  0  0  0  0
    0.0670    3.2460    4.2340 H   0  0  0  0  0  0  0  0  0  0  0  0
    1.5920    2.3360    3.7950 H   0  0  0  0  0  0  0  0  0  0  0  0
    0.4480    0.4070    4.4220 H   0  0  0  0  0  0  0  0  0  0  0  0
   -1.1730    1.2460    4.3520 H   0  0  0  0  0  0  0  0  0  0  0  0
   -0.1890   -0.5710    2.4580 H   0  0  0  0  0  0  0  0  0  0  0  0
  1  7  1  0  0  0  0
  1  8  1  0  0  0  0
  1  2  1  0  0  0  0
  2  9  1  1  0  0  0
  3  2  1  0  0  0  0
  3 11  1  0  0  0  0
  4  5  2  0  0  0  0
  4  2  1  0  0  0  0
  6  1  1  0  0  0  0
 10  3  1  0  0  0  0
 12 20  1  0  0  0  0
 12 21  1  0  0  0  0
 13 12  1  0  0  0  0
 13 14  1  0  0  0  0
 13 15  1  0  0  0  0
 14 25  1  0  0  0  0
 15 16  1  0  0  0  0
 16 29  1  1  0  0  0
 16 17  1  0  0  0  0
 16 18  1  0  0  0  0
 17  4  1  0  0  0  0
 18 31  1  0  0  0  0
 19 18  2  0  0  0  0
 22 12  1  0  0  0  0
 23 13  1  0  0  0  0
 24 14  1  0  0  0  0
 26 14  1  0  0  0  0
 27 15  1  0  0  0  0
 28 15  1  0  0  0  0
 30 17  1  0  0  0  0
 31 32  1  0  0  0  0
 31 35  1  0  0  0  0
 32 33  1  0  0  0  0
 33 42  1  0  0  0  0
 33 34  1  0  0  0  0
 33 41  1  0  0  0  0
 34 44  1  0  0  0  0
 34 43  1  0  0  0  0
 35 45  1  6  0  0  0
 35 34  1  0  0  0  0
 36 35  1  0  0  0  0
 36 38  1  0  0  0  0
 37 36  2  0  0  0  0
 39 32  1  0  0  0  0
 40 32  1  0  0  0  0
M  END
$$$$
