ALQ.pdb
 OpenBabel07022418013D

 48 47  0  0  1  0  0  0  0  0999 V2000
    1.6740   -4.3630    2.4970 C   0  0  0  0  0  0  0  0  0  0  0  0
    2.7610   -3.3200    2.3390 C   0  0  2  0  0  0  0  0  0  0  0  0
    3.4310   -3.2160    3.6210 N   0  0  0  0  0  0  0  0  0  0  0  0
    2.2100   -1.9890    2.0090 C   0  0  0  0  0  0  0  0  0  0  0  0
    2.3590   -0.9920    2.7930 O   0  0  0  0  0  0  0  0  0  0  0  0
    1.6650   -5.0370    1.6150 H   0  0  0  0  0  0  0  0  0  0  0  0
    1.8960   -5.0440    3.3710 H   0  0  0  0  0  0  0  0  0  0  0  0
    0.6850   -3.9380    2.7010 H   0  0  0  0  0  0  0  0  0  0  0  0
    3.5280   -3.6670    1.6030 H   0  0  0  0  0  0  0  0  0  0  0  0
    3.3050   -4.0670    4.2070 H   0  0  0  0  0  0  0  0  0  0  0  0
    3.0800   -2.4100    4.1860 H   0  0  0  0  0  0  0  0  0  0  0  0
    0.0840   -0.7650   -2.4400 C   0  0  0  0  0  0  0  0  0  0  0  0
    1.4920   -0.5370   -1.9510 C   0  0  0  0  0  0  0  0  0  0  0  0
    2.1820    0.3170   -3.0260 C   0  0  0  0  0  0  0  0  0  0  0  0
    1.5980    0.2160   -0.6770 C   0  0  0  0  0  0  0  0  0  0  0  0
    0.9470   -0.3800    0.5170 C   0  0  2  0  0  0  0  0  0  0  0  0
    1.4850   -1.7170    0.8180 N   0  0  0  0  0  0  0  0  0  0  0  0
   -0.5250   -0.4080    0.5200 C   0  0  0  0  0  0  0  0  0  0  0  0
   -1.1510   -1.4960    0.7010 O   0  0  0  0  0  0  0  0  0  0  0  0
    0.0790   -1.0640   -3.5270 H   0  0  0  0  0  0  0  0  0  0  0  0
   -0.4350   -1.5910   -1.9290 H   0  0  0  0  0  0  0  0  0  0  0  0
   -0.4310    0.2040   -2.4040 H   0  0  0  0  0  0  0  0  0  0  0  0
    2.0790   -1.4950   -1.9370 H   0  0  0  0  0  0  0  0  0  0  0  0
    3.1830    0.6340   -2.6860 H   0  0  0  0  0  0  0  0  0  0  0  0
    1.5680    1.2470   -3.0840 H   0  0  0  0  0  0  0  0  0  0  0  0
    2.1750   -0.1800   -4.0080 H   0  0  0  0  0  0  0  0  0  0  0  0
    2.6760    0.3840   -0.4100 H   0  0  0  0  0  0  0  0  0  0  0  0
    1.1550    1.2210   -0.8470 H   0  0  0  0  0  0  0  0  0  0  0  0
    1.2270    0.3130    1.3810 H   0  0  0  0  0  0  0  0  0  0  0  0
    1.3370   -2.4980    0.1460 H   0  0  0  0  0  0  0  0  0  0  0  0
   -0.8290   -0.2300    3.9650 N   0  0  0  0  0  0  0  0  0  0  0  0
   -1.5000    0.7480    3.1810 C   0  0  0  0  0  0  0  0  0  0  0  0
   -0.8410    1.7430    2.8070 O   0  0  0  0  0  0  0  0  0  0  0  0
   -2.9090    0.6180    2.8210 C   0  0  0  0  0  0  0  0  0  0  0  0
   -3.3760    1.2560    1.5760 C   0  0  0  0  0  0  0  0  0  0  0  0
   -2.7730    0.6600    0.3540 C   0  0  2  0  0  0  0  0  0  0  0  0
   -1.3420    0.7650    0.3280 N   0  0  0  0  0  0  0  0  0  0  0  0
   -3.3940    1.1650   -0.8870 C   0  0  0  0  0  0  0  0  0  0  0  0
   -4.6310    1.1020   -1.0180 O   0  0  0  0  0  0  0  0  0  0  0  0
   -2.6170    1.6970   -1.8780 O   0  0  0  0  0  0  0  0  0  0  0  0
   -0.8440   -0.2120    5.0180 H   0  0  0  0  0  0  0  0  0  0  0  0
   -0.2960   -1.0010    3.5120 H   0  0  0  0  0  0  0  0  0  0  0  0
   -3.1920   -0.4750    2.7870 H   0  0  0  0  0  0  0  0  0  0  0  0
   -3.5800    0.9990    3.6630 H   0  0  0  0  0  0  0  0  0  0  0  0
   -3.2340    2.3600    1.6450 H   0  0  0  0  0  0  0  0  0  0  0  0
   -4.4920    1.0670    1.5120 H   0  0  0  0  0  0  0  0  0  0  0  0
   -3.0480   -0.4400    0.3870 H   0  0  0  0  0  0  0  0  0  0  0  0
   -0.8640    1.6960    0.1510 H   0  0  0  0  0  0  0  0  0  0  0  0
  1  8  1  0  0  0  0
  1  7  1  0  0  0  0
  2  9  1  6  0  0  0
  2  1  1  0  0  0  0
  2  3  1  0  0  0  0
  3 11  1  0  0  0  0
  3 10  1  0  0  0  0
  4  2  1  0  0  0  0
  4  5  2  0  0  0  0
  6  1  1  0  0  0  0
 12 22  1  0  0  0  0
 12 13  1  0  0  0  0
 12 21  1  0  0  0  0
 13 23  1  0  0  0  0
 13 15  1  0  0  0  0
 14 24  1  0  0  0  0
 14 13  1  0  0  0  0
 15 27  1  0  0  0  0
 15 16  1  0  0  0  0
 16 18  1  0  0  0  0
 16 17  1  0  0  0  0
 16 29  1  1  0  0  0
 17  4  1  0  0  0  0
 18 19  2  0  0  0  0
 20 12  1  0  0  0  0
 25 14  1  0  0  0  0
 26 14  1  0  0  0  0
 28 15  1  0  0  0  0
 30 17  1  0  0  0  0
 31 41  1  0  0  0  0
 32 31  1  0  0  0  0
 33 32  2  0  0  0  0
 34 32  1  0  0  0  0
 34 44  1  0  0  0  0
 35 45  1  0  0  0  0
 35 34  1  0  0  0  0
 36 47  1  1  0  0  0
 36 35  1  0  0  0  0
 37 36  1  0  0  0  0
 37 18  1  0  0  0  0
 38 36  1  0  0  0  0
 39 38  1  0  0  0  0
 40 38  2  0  0  0  0
 42 31  1  0  0  0  0
 43 34  1  0  0  0  0
 46 35  1  0  0  0  0
 48 37  1  0  0  0  0
M  END
$$$$
