ALR.pdb
 OpenBabel07022418013D

 54 53  0  0  1  0  0  0  0  0999 V2000
    2.2300   -4.8380    0.0600 C   0  0  0  0  0  0  0  0  0  0  0  0
    3.3900   -4.0750    0.6490 C   0  0  2  0  0  0  0  0  0  0  0  0
    4.0380   -4.8790    1.6650 N   0  0  0  0  0  0  0  0  0  0  0  0
    3.0170   -2.7820    1.2120 C   0  0  0  0  0  0  0  0  0  0  0  0
    3.2730   -2.5110    2.4300 O   0  0  0  0  0  0  0  0  0  0  0  0
    1.2680   -4.5720    0.5080 H   0  0  0  0  0  0  0  0  0  0  0  0
    2.2380   -4.7280   -1.0510 H   0  0  0  0  0  0  0  0  0  0  0  0
    2.4100   -5.9160    0.2550 H   0  0  0  0  0  0  0  0  0  0  0  0
    4.1410   -3.9040   -0.1480 H   0  0  0  0  0  0  0  0  0  0  0  0
    4.6760   -4.3280    2.2580 H   0  0  0  0  0  0  0  0  0  0  0  0
    3.3480   -5.3460    2.2780 H   0  0  0  0  0  0  0  0  0  0  0  0
    1.1420    2.6590    0.5660 C   0  0  0  0  0  0  0  0  0  0  0  0
    2.4720    2.0120    0.5730 C   0  0  0  0  0  0  0  0  0  0  0  0
    3.1410    2.4120    1.8880 C   0  0  0  0  0  0  0  0  0  0  0  0
    2.6150    0.5970    0.2530 C   0  0  0  0  0  0  0  0  0  0  0  0
    1.9920   -0.4750    1.0380 C   0  0  2  0  0  0  0  0  0  0  0  0
    2.3620   -1.7870    0.4400 N   0  0  0  0  0  0  0  0  0  0  0  0
    0.5180   -0.4760    1.0790 C   0  0  0  0  0  0  0  0  0  0  0  0
   -0.2040    0.4010    1.6200 O   0  0  0  0  0  0  0  0  0  0  0  0
    0.7050    2.8800    1.5690 H   0  0  0  0  0  0  0  0  0  0  0  0
    0.4110    2.2660   -0.1720 H   0  0  0  0  0  0  0  0  0  0  0  0
    1.3120    3.7260    0.1650 H   0  0  0  0  0  0  0  0  0  0  0  0
    3.1140    2.5630   -0.1990 H   0  0  0  0  0  0  0  0  0  0  0  0
    4.2180    2.1160    1.8270 H   0  0  0  0  0  0  0  0  0  0  0  0
    2.6300    2.0090    2.7620 H   0  0  0  0  0  0  0  0  0  0  0  0
    3.1340    3.5230    1.9200 H   0  0  0  0  0  0  0  0  0  0  0  0
    3.7220    0.3930    0.1240 H   0  0  0  0  0  0  0  0  0  0  0  0
    2.2440    0.4700   -0.8190 H   0  0  0  0  0  0  0  0  0  0  0  0
    2.3310   -0.4480    2.0920 H   0  0  0  0  0  0  0  0  0  0  0  0
    2.1600   -2.0160   -0.5520 H   0  0  0  0  0  0  0  0  0  0  0  0
   -3.8220    3.4050   -0.2550 N   0  0  0  0  0  0  0  0  0  0  0  0
   -4.4790    2.1710   -0.0250 C   0  0  0  0  0  0  0  0  0  0  0  0
   -5.5130    2.1330    0.7300 N   0  0  0  0  0  0  0  0  0  0  0  0
   -3.9860    0.9940   -0.6320 N   0  0  0  0  0  0  0  0  0  0  0  0
   -4.3840   -0.3010   -0.1890 C   0  0  0  0  0  0  0  0  0  0  0  0
   -3.7370   -1.4180   -0.9780 C   0  0  0  0  0  0  0  0  0  0  0  0
   -2.2540   -1.4100   -0.9020 C   0  0  0  0  0  0  0  0  0  0  0  0
   -1.7080   -1.5540    0.5000 C   0  0  2  0  0  0  0  0  0  0  0  0
   -0.2580   -1.5350    0.4710 N   0  0  0  0  0  0  0  0  0  0  0  0
   -2.1360   -2.8010    1.1460 C   0  0  0  0  0  0  0  0  0  0  0  0
   -3.3510   -3.0330    1.2880 O   0  0  0  0  0  0  0  0  0  0  0  0
   -1.2160   -3.7130    1.5960 O   0  0  0  0  0  0  0  0  0  0  0  0
   -2.9380    3.6660    0.2360 H   0  0  0  0  0  0  0  0  0  0  0  0
   -4.2000    4.1050   -0.9300 H   0  0  0  0  0  0  0  0  0  0  0  0
   -5.8570    2.9990    1.1640 H   0  0  0  0  0  0  0  0  0  0  0  0
   -3.3160    1.0900   -1.4210 H   0  0  0  0  0  0  0  0  0  0  0  0
   -4.1320   -0.4260    0.8990 H   0  0  0  0  0  0  0  0  0  0  0  0
   -5.4900   -0.3720   -0.2390 H   0  0  0  0  0  0  0  0  0  0  0  0
   -3.9970   -1.2000   -2.0570 H   0  0  0  0  0  0  0  0  0  0  0  0
   -4.2270   -2.3880   -0.7710 H   0  0  0  0  0  0  0  0  0  0  0  0
   -1.8850   -0.4920   -1.4000 H   0  0  0  0  0  0  0  0  0  0  0  0
   -1.8690   -2.2610   -1.4860 H   0  0  0  0  0  0  0  0  0  0  0  0
   -2.0730   -0.6430    1.0510 H   0  0  0  0  0  0  0  0  0  0  0  0
    0.2330   -2.3000    0.0040 H   0  0  0  0  0  0  0  0  0  0  0  0
  1  8  1  0  0  0  0
  1  6  1  0  0  0  0
  1  2  1  0  0  0  0
  2  9  1  6  0  0  0
  2  4  1  0  0  0  0
  2  3  1  0  0  0  0
  3 10  1  0  0  0  0
  3 11  1  0  0  0  0
  4  5  2  0  0  0  0
  7  1  1  0  0  0  0
 12 13  1  0  0  0  0
 12 20  1  0  0  0  0
 13 14  1  0  0  0  0
 14 26  1  0  0  0  0
 14 25  1  0  0  0  0
 15 13  1  0  0  0  0
 15 16  1  0  0  0  0
 16 18  1  0  0  0  0
 16 29  1  1  0  0  0
 17 16  1  0  0  0  0
 17  4  1  0  0  0  0
 18 19  2  0  0  0  0
 21 12  1  0  0  0  0
 22 12  1  0  0  0  0
 23 13  1  0  0  0  0
 24 14  1  0  0  0  0
 27 15  1  0  0  0  0
 28 15  1  0  0  0  0
 30 17  1  0  0  0  0
 31 32  1  0  0  0  0
 31 43  1  0  0  0  0
 32 33  2  0  0  0  0
 33 45  1  0  0  0  0
 34 35  1  0  0  0  0
 34 32  1  0  0  0  0
 35 47  1  0  0  0  0
 36 37  1  0  0  0  0
 36 50  1  0  0  0  0
 36 35  1  0  0  0  0
 37 38  1  0  0  0  0
 38 53  1  1  0  0  0
 38 40  1  0  0  0  0
 39 38  1  0  0  0  0
 39 18  1  0  0  0  0
 40 41  2  0  0  0  0
 40 42  1  0  0  0  0
 44 31  1  0  0  0  0
 46 34  1  0  0  0  0
 48 35  1  0  0  0  0
 49 36  1  0  0  0  0
 51 37  1  0  0  0  0
 52 37  1  0  0  0  0
 54 39  1  0  0  0  0
M  END
$$$$
