ALS.pdb
 OpenBabel07022418013D

 42 41  0  0  1  0  0  0  0  0999 V2000
    0.0600   -4.9990    2.2210 C   0  0  0  0  0  0  0  0  0  0  0  0
   -0.5750   -3.6220    2.0480 C   0  0  2  0  0  0  0  0  0  0  0  0
   -1.1200   -3.5130    0.7300 N   0  0  0  0  0  0  0  0  0  0  0  0
    0.4600   -2.5960    2.3260 C   0  0  0  0  0  0  0  0  0  0  0  0
    1.0270   -2.5770    3.4580 O   0  0  0  0  0  0  0  0  0  0  0  0
   -0.3950   -5.6640    1.4860 H   0  0  0  0  0  0  0  0  0  0  0  0
    1.1460   -4.9300    2.0340 H   0  0  0  0  0  0  0  0  0  0  0  0
   -0.1120   -5.3940    3.2490 H   0  0  0  0  0  0  0  0  0  0  0  0
   -1.3980   -3.5860    2.8180 H   0  0  0  0  0  0  0  0  0  0  0  0
   -0.5610   -4.1440    0.0850 H   0  0  0  0  0  0  0  0  0  0  0  0
   -2.1090   -3.8940    0.7660 H   0  0  0  0  0  0  0  0  0  0  0  0
    1.9940   -1.6500   -1.5520 C   0  0  0  0  0  0  0  0  0  0  0  0
    2.7870   -0.6100   -0.8630 C   0  0  0  0  0  0  0  0  0  0  0  0
    2.2070    0.7540   -1.2780 C   0  0  0  0  0  0  0  0  0  0  0  0
    2.9310   -0.6920    0.5920 C   0  0  0  0  0  0  0  0  0  0  0  0
    1.7500   -0.6530    1.4670 C   0  0  2  0  0  0  0  0  0  0  0  0
    0.7720   -1.6720    1.2960 N   0  0  0  0  0  0  0  0  0  0  0  0
    1.1100    0.7110    1.4980 C   0  0  0  0  0  0  0  0  0  0  0  0
    1.7920    1.7580    1.6380 O   0  0  0  0  0  0  0  0  0  0  0  0
    2.4770   -1.8980   -2.5240 H   0  0  0  0  0  0  0  0  0  0  0  0
    1.9860   -2.6390   -1.0030 H   0  0  0  0  0  0  0  0  0  0  0  0
    0.9690   -1.3290   -1.8360 H   0  0  0  0  0  0  0  0  0  0  0  0
    3.8130   -0.5880   -1.3450 H   0  0  0  0  0  0  0  0  0  0  0  0
    2.2360    0.8130   -2.4060 H   0  0  0  0  0  0  0  0  0  0  0  0
    2.8220    1.5850   -0.9000 H   0  0  0  0  0  0  0  0  0  0  0  0
    1.1390    0.8350   -1.0220 H   0  0  0  0  0  0  0  0  0  0  0  0
    3.5990    0.1660    0.9140 H   0  0  0  0  0  0  0  0  0  0  0  0
    3.5740   -1.5950    0.8300 H   0  0  0  0  0  0  0  0  0  0  0  0
    2.1390   -0.7630    2.5290 H   0  0  0  0  0  0  0  0  0  0  0  0
    0.2550   -1.7630    0.4010 H   0  0  0  0  0  0  0  0  0  0  0  0
   -2.1660    3.8190    0.3260 O   0  0  0  0  0  0  0  0  0  0  0  0
   -1.6650    2.5150    0.1380 C   0  0  0  0  0  0  0  0  0  0  0  0
   -0.8820    2.1940    1.4050 C   0  0  2  0  0  0  0  0  0  0  0  0
   -0.3000    0.8820    1.3710 N   0  0  0  0  0  0  0  0  0  0  0  0
   -1.8420    2.2850    2.5330 C   0  0  0  0  0  0  0  0  0  0  0  0
   -2.0220    1.2920    3.2680 O   0  0  0  0  0  0  0  0  0  0  0  0
   -2.5520    3.4500    2.8000 O   0  0  0  0  0  0  0  0  0  0  0  0
   -1.6580    4.4820   -0.1900 H   0  0  0  0  0  0  0  0  0  0  0  0
   -0.9390    2.5330   -0.7020 H   0  0  0  0  0  0  0  0  0  0  0  0
   -2.4700    1.8020   -0.0460 H   0  0  0  0  0  0  0  0  0  0  0  0
   -0.1540    3.0010    1.5320 H   0  0  0  0  0  0  0  0  0  0  0  0
   -0.9100    0.0450    1.2530 H   0  0  0  0  0  0  0  0  0  0  0  0
  1  8  1  0  0  0  0
  2  1  1  0  0  0  0
  2  4  1  0  0  0  0
  2  9  1  1  0  0  0
  3 11  1  0  0  0  0
  3  2  1  0  0  0  0
  4  5  2  0  0  0  0
  6  1  1  0  0  0  0
  7  1  1  0  0  0  0
 10  3  1  0  0  0  0
 12 21  1  0  0  0  0
 12 13  1  0  0  0  0
 13 15  1  0  0  0  0
 14 26  1  0  0  0  0
 14 25  1  0  0  0  0
 14 13  1  0  0  0  0
 15 28  1  0  0  0  0
 15 27  1  0  0  0  0
 15 16  1  0  0  0  0
 16 18  1  0  0  0  0
 16 29  1  1  0  0  0
 17 16  1  0  0  0  0
 17  4  1  0  0  0  0
 18 19  2  0  0  0  0
 20 12  1  0  0  0  0
 22 12  1  0  0  0  0
 23 13  1  0  0  0  0
 24 14  1  0  0  0  0
 30 17  1  0  0  0  0
 32 31  1  0  0  0  0
 32 33  1  0  0  0  0
 33 41  1  1  0  0  0
 33 35  1  0  0  0  0
 34 33  1  0  0  0  0
 34 18  1  0  0  0  0
 35 37  2  0  0  0  0
 35 36  1  0  0  0  0
 38 31  1  0  0  0  0
 39 32  1  0  0  0  0
 40 32  1  0  0  0  0
 42 34  1  0  0  0  0
M  END
$$$$
