ALT.pdb
 OpenBabel07022418013D

 45 44  0  0  1  0  0  0  0  0999 V2000
   -0.7500   -5.5270    0.1780 C   0  0  0  0  0  0  0  0  0  0  0  0
   -1.0170   -4.2980    1.0200 C   0  0  2  0  0  0  0  0  0  0  0  0
   -2.3460   -3.8190    0.7930 N   0  0  0  0  0  0  0  0  0  0  0  0
    0.0140   -3.2450    0.7280 C   0  0  0  0  0  0  0  0  0  0  0  0
    1.2230   -3.5530    0.8920 O   0  0  0  0  0  0  0  0  0  0  0  0
   -1.1970   -6.4230    0.6850 H   0  0  0  0  0  0  0  0  0  0  0  0
   -1.2460   -5.4750   -0.8180 H   0  0  0  0  0  0  0  0  0  0  0  0
    0.3230   -5.7160    0.0200 H   0  0  0  0  0  0  0  0  0  0  0  0
   -0.9260   -4.6020    2.0820 H   0  0  0  0  0  0  0  0  0  0  0  0
   -2.5160   -2.9840    1.4020 H   0  0  0  0  0  0  0  0  0  0  0  0
   -2.4760   -3.5430   -0.2070 H   0  0  0  0  0  0  0  0  0  0  0  0
    2.9140   -0.0520   -1.7300 C   0  0  0  0  0  0  0  0  0  0  0  0
    1.4840    0.4440   -1.9290 C   0  0  0  0  0  0  0  0  0  0  0  0
    1.3220    0.5920   -3.4480 C   0  0  0  0  0  0  0  0  0  0  0  0
    0.5140   -0.5880   -1.4570 C   0  0  0  0  0  0  0  0  0  0  0  0
    0.6670   -0.9310    0.0030 C   0  0  2  0  0  0  0  0  0  0  0  0
   -0.3530   -1.9460    0.2830 N   0  0  0  0  0  0  0  0  0  0  0  0
    0.5290    0.2290    0.8980 C   0  0  0  0  0  0  0  0  0  0  0  0
    1.3150    1.1890    0.8040 O   0  0  0  0  0  0  0  0  0  0  0  0
    3.0800   -0.9580   -2.3290 H   0  0  0  0  0  0  0  0  0  0  0  0
    3.6220    0.7320   -2.0650 H   0  0  0  0  0  0  0  0  0  0  0  0
    3.1330   -0.2900   -0.6790 H   0  0  0  0  0  0  0  0  0  0  0  0
    1.3560    1.4420   -1.5150 H   0  0  0  0  0  0  0  0  0  0  0  0
    1.5080   -0.3950   -3.9470 H   0  0  0  0  0  0  0  0  0  0  0  0
    1.9880    1.3890   -3.8330 H   0  0  0  0  0  0  0  0  0  0  0  0
    0.2810    0.8800   -3.6850 H   0  0  0  0  0  0  0  0  0  0  0  0
    0.7150   -1.5240   -2.0260 H   0  0  0  0  0  0  0  0  0  0  0  0
   -0.5200   -0.2860   -1.6940 H   0  0  0  0  0  0  0  0  0  0  0  0
    1.6550   -1.3930    0.2060 H   0  0  0  0  0  0  0  0  0  0  0  0
   -1.3720   -1.7580    0.1680 H   0  0  0  0  0  0  0  0  0  0  0  0
    0.1660    2.4110    4.8690 C   0  0  0  0  0  0  0  0  0  0  0  0
    0.3080    1.3200    3.8380 C   0  0  1  0  0  0  0  0  0  0  0  0
    0.2740    0.1050    4.5240 O   0  0  0  0  0  0  0  0  0  0  0  0
   -0.7390    1.3330    2.7900 C   0  0  2  0  0  0  0  0  0  0  0  0
   -0.4980    0.2530    1.8650 N   0  0  0  0  0  0  0  0  0  0  0  0
   -0.8740    2.5970    2.0520 C   0  0  0  0  0  0  0  0  0  0  0  0
   -0.8320    2.5800    0.8050 O   0  0  0  0  0  0  0  0  0  0  0  0
   -1.0490    3.8340    2.6500 O   0  0  0  0  0  0  0  0  0  0  0  0
    0.6950    2.0630    5.7820 H   0  0  0  0  0  0  0  0  0  0  0  0
   -0.8680    2.6270    5.1510 H   0  0  0  0  0  0  0  0  0  0  0  0
    0.7290    3.3370    4.5510 H   0  0  0  0  0  0  0  0  0  0  0  0
    1.3320    1.4070    3.4210 H   0  0  0  0  0  0  0  0  0  0  0  0
    0.8530    0.2400    5.3350 H   0  0  0  0  0  0  0  0  0  0  0  0
   -1.7720    1.1820    3.2510 H   0  0  0  0  0  0  0  0  0  0  0  0
   -1.1620   -0.5790    1.9410 H   0  0  0  0  0  0  0  0  0  0  0  0
  1  6  1  0  0  0  0
  1  2  1  0  0  0  0
  2  9  1  1  0  0  0
  3  2  1  0  0  0  0
  3 10  1  0  0  0  0
  4  5  2  0  0  0  0
  4  2  1  0  0  0  0
  7  1  1  0  0  0  0
  8  1  1  0  0  0  0
 11  3  1  0  0  0  0
 12 22  1  0  0  0  0
 13 12  1  0  0  0  0
 13 23  1  0  0  0  0
 13 15  1  0  0  0  0
 14 13  1  0  0  0  0
 15 16  1  0  0  0  0
 16 29  1  1  0  0  0
 16 17  1  0  0  0  0
 16 18  1  0  0  0  0
 17  4  1  0  0  0  0
 18 35  1  0  0  0  0
 19 18  2  0  0  0  0
 20 12  1  0  0  0  0
 21 12  1  0  0  0  0
 24 14  1  0  0  0  0
 25 14  1  0  0  0  0
 26 14  1  0  0  0  0
 27 15  1  0  0  0  0
 28 15  1  0  0  0  0
 30 17  1  0  0  0  0
 31 40  1  0  0  0  0
 31 39  1  0  0  0  0
 32 42  1  6  0  0  0
 32 33  1  0  0  0  0
 32 31  1  0  0  0  0
 33 43  1  0  0  0  0
 34 44  1  1  0  0  0
 34 32  1  0  0  0  0
 35 45  1  0  0  0  0
 35 34  1  0  0  0  0
 36 38  1  0  0  0  0
 36 34  1  0  0  0  0
 37 36  2  0  0  0  0
 41 31  1  0  0  0  0
M  END
$$$$
