ALV.pdb
 OpenBabel07022418013D

 47 46  0  0  1  0  0  0  0  0999 V2000
    3.2390   -0.7180    2.1770 C   0  0  0  0  0  0  0  0  0  0  0  0
    3.2870   -1.9680    1.3170 C   0  0  2  0  0  0  0  0  0  0  0  0
    4.6380   -2.0500    0.8010 N   0  0  0  0  0  0  0  0  0  0  0  0
    2.3620   -1.8800    0.1680 C   0  0  0  0  0  0  0  0  0  0  0  0
    2.8310   -1.8730   -0.9930 O   0  0  0  0  0  0  0  0  0  0  0  0
    3.7190   -0.9630    3.1350 H   0  0  0  0  0  0  0  0  0  0  0  0
    2.1930   -0.4440    2.3980 H   0  0  0  0  0  0  0  0  0  0  0  0
    3.8140    0.0820    1.6970 H   0  0  0  0  0  0  0  0  0  0  0  0
    3.1240   -2.8820    1.9250 H   0  0  0  0  0  0  0  0  0  0  0  0
    4.6550   -2.8090    0.0820 H   0  0  0  0  0  0  0  0  0  0  0  0
    4.8360   -1.1560    0.3300 H   0  0  0  0  0  0  0  0  0  0  0  0
   -1.2570   -3.6790    1.3010 C   0  0  0  0  0  0  0  0  0  0  0  0
   -1.8060   -3.2770   -0.0140 C   0  0  0  0  0  0  0  0  0  0  0  0
   -2.9440   -2.2720    0.1760 C   0  0  0  0  0  0  0  0  0  0  0  0
   -0.8530   -2.8600   -1.0470 C   0  0  0  0  0  0  0  0  0  0  0  0
    0.0410   -1.7140   -0.8200 C   0  0  2  0  0  0  0  0  0  0  0  0
    0.9530   -1.8020    0.2930 N   0  0  0  0  0  0  0  0  0  0  0  0
   -0.6090   -0.3830   -0.8170 C   0  0  0  0  0  0  0  0  0  0  0  0
   -1.4880   -0.1010   -1.6540 O   0  0  0  0  0  0  0  0  0  0  0  0
   -0.2190   -4.0490    1.1640 H   0  0  0  0  0  0  0  0  0  0  0  0
   -1.3660   -2.9130    2.0960 H   0  0  0  0  0  0  0  0  0  0  0  0
   -1.8250   -4.5570    1.6790 H   0  0  0  0  0  0  0  0  0  0  0  0
   -2.3500   -4.1870   -0.4320 H   0  0  0  0  0  0  0  0  0  0  0  0
   -3.8180   -2.7890    0.6680 H   0  0  0  0  0  0  0  0  0  0  0  0
   -2.6550   -1.4580    0.8370 H   0  0  0  0  0  0  0  0  0  0  0  0
   -3.3350   -1.9520   -0.8150 H   0  0  0  0  0  0  0  0  0  0  0  0
   -1.4620   -2.6000   -1.9680 H   0  0  0  0  0  0  0  0  0  0  0  0
   -0.2390   -3.7280   -1.4070 H   0  0  0  0  0  0  0  0  0  0  0  0
    0.6850   -1.6740   -1.7720 H   0  0  0  0  0  0  0  0  0  0  0  0
    0.5870   -1.8070    1.2690 H   0  0  0  0  0  0  0  0  0  0  0  0
   -2.3540    1.3540    2.0510 C   0  0  0  0  0  0  0  0  0  0  0  0
   -1.2870    2.3020    1.5930 C   0  0  0  0  0  0  0  0  0  0  0  0
   -0.2050    2.3120    2.6320 C   0  0  0  0  0  0  0  0  0  0  0  0
   -0.8020    1.9280    0.2300 C   0  0  2  0  0  0  0  0  0  0  0  0
   -0.2360    0.5960    0.1400 N   0  0  0  0  0  0  0  0  0  0  0  0
    0.1400    2.9460   -0.3010 C   0  0  0  0  0  0  0  0  0  0  0  0
    1.2440    2.5890   -0.7450 O   0  0  0  0  0  0  0  0  0  0  0  0
   -0.2190    4.2670   -0.2950 O   0  0  0  0  0  0  0  0  0  0  0  0
   -3.2120    1.3630    1.3500 H   0  0  0  0  0  0  0  0  0  0  0  0
   -2.6780    1.7070    3.0760 H   0  0  0  0  0  0  0  0  0  0  0  0
   -1.9010    0.3420    2.1760 H   0  0  0  0  0  0  0  0  0  0  0  0
   -1.6960    3.3380    1.5230 H   0  0  0  0  0  0  0  0  0  0  0  0
    0.7690    2.6620    2.2580 H   0  0  0  0  0  0  0  0  0  0  0  0
   -0.5200    3.0560    3.4140 H   0  0  0  0  0  0  0  0  0  0  0  0
   -0.1430    1.3460    3.1750 H   0  0  0  0  0  0  0  0  0  0  0  0
   -1.6770    1.9550   -0.4700 H   0  0  0  0  0  0  0  0  0  0  0  0
    0.5150    0.3250    0.8390 H   0  0  0  0  0  0  0  0  0  0  0  0
  1  7  1  0  0  0  0
  1  6  1  0  0  0  0
  2  9  1  1  0  0  0
  2  1  1  0  0  0  0
  3  2  1  0  0  0  0
  4 17  1  0  0  0  0
  4  2  1  0  0  0  0
  5  4  2  0  0  0  0
  8  1  1  0  0  0  0
 10  3  1  0  0  0  0
 11  3  1  0  0  0  0
 12 22  1  0  0  0  0
 12 21  1  0  0  0  0
 13 14  1  0  0  0  0
 13 12  1  0  0  0  0
 14 24  1  0  0  0  0
 14 25  1  0  0  0  0
 15 16  1  0  0  0  0
 15 13  1  0  0  0  0
 16 29  1  6  0  0  0
 16 18  1  0  0  0  0
 16 17  1  0  0  0  0
 17 30  1  0  0  0  0
 18 35  1  0  0  0  0
 19 18  2  0  0  0  0
 20 12  1  0  0  0  0
 23 13  1  0  0  0  0
 26 14  1  0  0  0  0
 27 15  1  0  0  0  0
 28 15  1  0  0  0  0
 31 41  1  0  0  0  0
 31 40  1  0  0  0  0
 32 31  1  0  0  0  0
 32 33  1  0  0  0  0
 33 45  1  0  0  0  0
 33 44  1  0  0  0  0
 34 46  1  6  0  0  0
 34 32  1  0  0  0  0
 35 34  1  0  0  0  0
 35 47  1  0  0  0  0
 36 38  1  0  0  0  0
 36 34  1  0  0  0  0
 37 36  2  0  0  0  0
 39 31  1  0  0  0  0
 42 32  1  0  0  0  0
 43 33  1  0  0  0  0
M  END
$$$$
