ALW.pdb
 OpenBabel07022418013D

 55 56  0  0  1  0  0  0  0  0999 V2000
   -1.3570   -0.0680    3.3410 C   0  0  0  0  0  0  0  0  0  0  0  0
   -0.7040    1.2870    3.5440 C   0  0  2  0  0  0  0  0  0  0  0  0
   -1.6800    2.3000    3.8540 N   0  0  0  0  0  0  0  0  0  0  0  0
   -0.0060    1.6450    2.2600 C   0  0  0  0  0  0  0  0  0  0  0  0
   -0.3810    2.6620    1.6620 O   0  0  0  0  0  0  0  0  0  0  0  0
   -1.9120   -0.3890    4.2440 H   0  0  0  0  0  0  0  0  0  0  0  0
   -0.5810   -0.8290    3.1570 H   0  0  0  0  0  0  0  0  0  0  0  0
   -2.0090   -0.0480    2.4530 H   0  0  0  0  0  0  0  0  0  0  0  0
    0.0700    1.1760    4.3460 H   0  0  0  0  0  0  0  0  0  0  0  0
   -2.5820    2.1080    3.3700 H   0  0  0  0  0  0  0  0  0  0  0  0
   -1.8070    2.4290    4.8840 H   0  0  0  0  0  0  0  0  0  0  0  0
    4.2800   -0.7300    0.7960 C   0  0  0  0  0  0  0  0  0  0  0  0
    4.1150    0.6220    1.4500 C   0  0  0  0  0  0  0  0  0  0  0  0
    3.9680    0.4710    2.9260 C   0  0  0  0  0  0  0  0  0  0  0  0
    3.1640    1.5170    0.7640 C   0  0  0  0  0  0  0  0  0  0  0  0
    1.7540    1.0670    0.6070 C   0  0  2  0  0  0  0  0  0  0  0  0
    1.0430    0.7980    1.8080 N   0  0  0  0  0  0  0  0  0  0  0  0
    1.6080   -0.0180   -0.4100 C   0  0  0  0  0  0  0  0  0  0  0  0
    2.2910    0.1120   -1.4440 O   0  0  0  0  0  0  0  0  0  0  0  0
    4.9980   -1.2940    1.4620 H   0  0  0  0  0  0  0  0  0  0  0  0
    4.7750   -0.6470   -0.1770 H   0  0  0  0  0  0  0  0  0  0  0  0
    3.3580   -1.3310    0.8000 H   0  0  0  0  0  0  0  0  0  0  0  0
    5.1390    1.1100    1.3000 H   0  0  0  0  0  0  0  0  0  0  0  0
    3.4340   -0.4740    3.2300 H   0  0  0  0  0  0  0  0  0  0  0  0
    3.5890    1.3490    3.4440 H   0  0  0  0  0  0  0  0  0  0  0  0
    5.0020    0.3060    3.3620 H   0  0  0  0  0  0  0  0  0  0  0  0
    3.5630    1.7020   -0.2720 H   0  0  0  0  0  0  0  0  0  0  0  0
    3.2030    2.5100    1.2650 H   0  0  0  0  0  0  0  0  0  0  0  0
    1.2290    1.9540    0.1150 H   0  0  0  0  0  0  0  0  0  0  0  0
    1.2690   -0.0300    2.3890 H   0  0  0  0  0  0  0  0  0  0  0  0
    0.7720   -1.1260   -0.2520 N   0  0  0  0  0  0  0  0  0  0  0  0
    0.5380   -2.2420   -1.0790 C   0  0  1  0  0  0  0  0  0  0  0  0
   -0.7320   -2.3190   -1.8350 C   0  0  0  0  0  0  0  0  0  0  0  0
   -1.9630   -2.3420   -1.0440 C   0  0  0  0  0  0  0  0  0  0  0  0
   -2.1200   -2.5210    0.3100 C   0  0  0  0  0  0  0  0  0  0  0  0
   -3.4660   -2.4710    0.5320 N   0  0  0  0  0  0  0  0  0  0  0  0
   -4.1280   -2.2730   -0.6200 C   0  0  0  0  0  0  0  0  0  0  0  0
   -5.4780   -2.1580   -0.9200 C   0  0  0  0  0  0  0  0  0  0  0  0
   -5.9080   -1.9610   -2.2110 C   0  0  0  0  0  0  0  0  0  0  0  0
   -4.9930   -1.8700   -3.2630 C   0  0  0  0  0  0  0  0  0  0  0  0
   -3.6450   -1.9850   -2.9560 C   0  0  0  0  0  0  0  0  0  0  0  0
   -3.2300   -2.1830   -1.6560 C   0  0  0  0  0  0  0  0  0  0  0  0
    1.6350   -2.6210   -2.0200 C   0  0  0  0  0  0  0  0  0  0  0  0
    2.7440   -2.1550   -2.1570 O   0  0  0  0  0  0  0  0  0  0  0  0
    1.2950   -3.6970   -2.8760 O   0  0  0  0  0  0  0  0  0  0  0  0
    0.2230   -1.0900    0.6840 H   0  0  0  0  0  0  0  0  0  0  0  0
    0.5660   -3.1760   -0.3760 H   0  0  0  0  0  0  0  0  0  0  0  0
   -0.7310   -3.2870   -2.4180 H   0  0  0  0  0  0  0  0  0  0  0  0
   -0.7820   -1.5410   -2.6450 H   0  0  0  0  0  0  0  0  0  0  0  0
   -1.3680   -2.6840    1.0700 H   0  0  0  0  0  0  0  0  0  0  0  0
   -3.8840   -2.5790    1.4960 H   0  0  0  0  0  0  0  0  0  0  0  0
   -6.2010   -2.2270   -0.1240 H   0  0  0  0  0  0  0  0  0  0  0  0
   -6.9720   -1.8720   -2.4740 H   0  0  0  0  0  0  0  0  0  0  0  0
   -5.3790   -1.7190   -4.2590 H   0  0  0  0  0  0  0  0  0  0  0  0
   -2.9340   -1.9170   -3.7430 H   0  0  0  0  0  0  0  0  0  0  0  0
  1  2  1  0  0  0  0
  1  6  1  0  0  0  0
  2  3  1  0  0  0  0
  2  9  1  1  0  0  0
  3 11  1  0  0  0  0
  4  2  1  0  0  0  0
  5  4  2  0  0  0  0
  7  1  1  0  0  0  0
  8  1  1  0  0  0  0
 10  3  1  0  0  0  0
 12 22  1  0  0  0  0
 12 13  1  0  0  0  0
 12 20  1  0  0  0  0
 13 14  1  0  0  0  0
 14 24  1  0  0  0  0
 14 26  1  0  0  0  0
 14 25  1  0  0  0  0
 15 28  1  0  0  0  0
 15 13  1  0  0  0  0
 16 29  1  6  0  0  0
 16 15  1  0  0  0  0
 16 17  1  0  0  0  0
 17  4  1  0  0  0  0
 17 30  1  0  0  0  0
 18 31  1  0  0  0  0
 18 16  1  0  0  0  0
 19 18  2  0  0  0  0
 21 12  1  0  0  0  0
 23 13  1  0  0  0  0
 27 15  1  0  0  0  0
 31 46  1  0  0  0  0
 32 47  1  1  0  0  0
 32 31  1  0  0  0  0
 33 32  1  0  0  0  0
 33 34  1  0  0  0  0
 34 35  2  0  0  0  0
 35 36  1  0  0  0  0
 35 50  1  0  0  0  0
 36 51  1  0  0  0  0
 37 36  1  0  0  0  0
 38 37  1  0  0  0  0
 38 52  1  0  0  0  0
 39 38  2  0  0  0  0
 40 41  2  0  0  0  0
 40 39  1  0  0  0  0
 41 42  1  0  0  0  0
 42 34  1  0  0  0  0
 42 37  2  0  0  0  0
 43 32  1  0  0  0  0
 44 43  1  0  0  0  0
 45 43  2  0  0  0  0
 48 33  1  0  0  0  0
 49 33  1  0  0  0  0
 53 39  1  0  0  0  0
 54 40  1  0  0  0  0
 55 41  1  0  0  0  0
M  END
$$$$
