ALY.pdb
 OpenBabel07022418013D

 52 52  0  0  1  0  0  0  0  0999 V2000
    1.9620   -0.5530    3.4660 C   0  0  0  0  0  0  0  0  0  0  0  0
    0.8890   -1.3180    2.7430 C   0  0  2  0  0  0  0  0  0  0  0  0
    0.9090   -2.6980    3.1870 N   0  0  0  0  0  0  0  0  0  0  0  0
    1.0990   -1.2340    1.2620 C   0  0  0  0  0  0  0  0  0  0  0  0
    1.2550   -2.2920    0.6170 O   0  0  0  0  0  0  0  0  0  0  0  0
    1.7000   -0.5430    4.5540 H   0  0  0  0  0  0  0  0  0  0  0  0
    1.9930    0.5070    3.1540 H   0  0  0  0  0  0  0  0  0  0  0  0
    2.9610   -1.0260    3.4060 H   0  0  0  0  0  0  0  0  0  0  0  0
   -0.0870   -0.8870    3.0130 H   0  0  0  0  0  0  0  0  0  0  0  0
    1.1710   -3.3470    2.4180 H   0  0  0  0  0  0  0  0  0  0  0  0
    1.4640   -2.7990    4.0490 H   0  0  0  0  0  0  0  0  0  0  0  0
    4.8770   -0.8910   -1.5930 C   0  0  0  0  0  0  0  0  0  0  0  0
    3.7550   -0.1140   -0.8850 C   0  0  0  0  0  0  0  0  0  0  0  0
    3.9370   -0.1980    0.5990 C   0  0  0  0  0  0  0  0  0  0  0  0
    2.4210   -0.5000   -1.4300 C   0  0  0  0  0  0  0  0  0  0  0  0
    1.3090    0.2360   -0.7830 C   0  0  2  0  0  0  0  0  0  0  0  0
    1.1200    0.0290    0.6010 N   0  0  0  0  0  0  0  0  0  0  0  0
    0.0620    0.2620   -1.5650 C   0  0  0  0  0  0  0  0  0  0  0  0
    0.0210    0.4280   -2.8080 O   0  0  0  0  0  0  0  0  0  0  0  0
    5.8220   -0.3020   -1.5520 H   0  0  0  0  0  0  0  0  0  0  0  0
    4.9870   -1.8870   -1.1210 H   0  0  0  0  0  0  0  0  0  0  0  0
    4.5740   -0.9700   -2.6470 H   0  0  0  0  0  0  0  0  0  0  0  0
    4.0080    0.9670   -1.1430 H   0  0  0  0  0  0  0  0  0  0  0  0
    3.3320    0.5300    1.1640 H   0  0  0  0  0  0  0  0  0  0  0  0
    3.8810   -1.2270    1.0050 H   0  0  0  0  0  0  0  0  0  0  0  0
    5.0140    0.1670    0.7820 H   0  0  0  0  0  0  0  0  0  0  0  0
    2.2970   -1.6110   -1.2840 H   0  0  0  0  0  0  0  0  0  0  0  0
    2.4080   -0.3560   -2.5470 H   0  0  0  0  0  0  0  0  0  0  0  0
    1.6860    1.3420   -0.8560 H   0  0  0  0  0  0  0  0  0  0  0  0
    0.9690    0.8500    1.2680 H   0  0  0  0  0  0  0  0  0  0  0  0
   -4.0160   -1.8760    4.4050 O   0  0  0  0  0  0  0  0  0  0  0  0
   -3.7690   -1.7270    3.0340 C   0  0  0  0  0  0  0  0  0  0  0  0
   -4.7180   -1.1070    2.2600 C   0  0  0  0  0  0  0  0  0  0  0  0
   -4.5010   -0.9470    0.9070 C   0  0  0  0  0  0  0  0  0  0  0  0
   -3.3460   -1.3900    0.2680 C   0  0  0  0  0  0  0  0  0  0  0  0
   -3.1380   -1.2080   -1.1890 C   0  0  0  0  0  0  0  0  0  0  0  0
   -2.4500    0.0970   -1.5240 C   0  0  2  0  0  0  0  0  0  0  0  0
   -1.1590    0.0880   -0.8660 N   0  0  0  0  0  0  0  0  0  0  0  0
   -3.2350    1.2250   -0.9640 C   0  0  0  0  0  0  0  0  0  0  0  0
   -2.7470    1.9340   -0.0670 O   0  0  0  0  0  0  0  0  0  0  0  0
   -2.4110   -2.0130    1.0890 C   0  0  0  0  0  0  0  0  0  0  0  0
   -2.6120   -2.1800    2.4410 C   0  0  0  0  0  0  0  0  0  0  0  0
   -4.5220    1.5140   -1.4230 O   0  0  0  0  0  0  0  0  0  0  0  0
   -4.4050   -1.0840    4.9130 H   0  0  0  0  0  0  0  0  0  0  0  0
   -5.6400   -0.7430    2.7210 H   0  0  0  0  0  0  0  0  0  0  0  0
   -5.2720   -0.4550    0.3240 H   0  0  0  0  0  0  0  0  0  0  0  0
   -2.5020   -2.0690   -1.5200 H   0  0  0  0  0  0  0  0  0  0  0  0
   -4.1250   -1.2660   -1.7180 H   0  0  0  0  0  0  0  0  0  0  0  0
   -2.3390    0.2350   -2.6160 H   0  0  0  0  0  0  0  0  0  0  0  0
   -1.1360   -0.0500    0.1530 H   0  0  0  0  0  0  0  0  0  0  0  0
   -1.4930   -2.3820    0.6660 H   0  0  0  0  0  0  0  0  0  0  0  0
   -1.8870   -2.6650    3.0900 H   0  0  0  0  0  0  0  0  0  0  0  0
  1  6  1  0  0  0  0
  2  9  1  1  0  0  0
  2  3  1  0  0  0  0
  2  1  1  0  0  0  0
  3 11  1  0  0  0  0
  4  2  1  0  0  0  0
  5  4  2  0  0  0  0
  7  1  1  0  0  0  0
  8  1  1  0  0  0  0
 10  3  1  0  0  0  0
 12 20  1  0  0  0  0
 12 21  1  0  0  0  0
 12 13  1  0  0  0  0
 13 14  1  0  0  0  0
 14 26  1  0  0  0  0
 14 25  1  0  0  0  0
 14 24  1  0  0  0  0
 15 27  1  0  0  0  0
 15 13  1  0  0  0  0
 15 16  1  0  0  0  0
 16 29  1  6  0  0  0
 16 17  1  0  0  0  0
 17  4  1  0  0  0  0
 17 30  1  0  0  0  0
 18 38  1  0  0  0  0
 18 16  1  0  0  0  0
 19 18  2  0  0  0  0
 22 12  1  0  0  0  0
 23 13  1  0  0  0  0
 28 15  1  0  0  0  0
 31 44  1  0  0  0  0
 32 31  1  0  0  0  0
 33 45  1  0  0  0  0
 33 32  2  0  0  0  0
 34 33  1  0  0  0  0
 35 34  2  0  0  0  0
 35 41  1  0  0  0  0
 36 35  1  0  0  0  0
 37 49  1  6  0  0  0
 37 36  1  0  0  0  0
 37 39  1  0  0  0  0
 37 38  1  0  0  0  0
 38 50  1  0  0  0  0
 39 40  1  0  0  0  0
 41 42  2  0  0  0  0
 42 32  1  0  0  0  0
 42 52  1  0  0  0  0
 43 39  2  0  0  0  0
 46 34  1  0  0  0  0
 47 36  1  0  0  0  0
 48 36  1  0  0  0  0
 51 41  1  0  0  0  0
M  END
$$$$
