AMA.pdb
 OpenBabel07022418013D

 39 38  0  0  1  0  0  0  0  0999 V2000
   -0.7870   -1.7080    4.0270 C   0  0  0  0  0  0  0  0  0  0  0  0
   -0.3410   -2.4510    2.7860 C   0  0  2  0  0  0  0  0  0  0  0  0
    1.1010   -2.6540    2.7730 N   0  0  0  0  0  0  0  0  0  0  0  0
   -0.7880   -1.7250    1.5480 C   0  0  0  0  0  0  0  0  0  0  0  0
   -2.0200   -1.5050    1.4700 O   0  0  0  0  0  0  0  0  0  0  0  0
   -1.5860   -0.9840    3.7300 H   0  0  0  0  0  0  0  0  0  0  0  0
    0.0370   -1.1090    4.4650 H   0  0  0  0  0  0  0  0  0  0  0  0
   -1.2640   -2.3830    4.7710 H   0  0  0  0  0  0  0  0  0  0  0  0
   -0.7890   -3.4740    2.7570 H   0  0  0  0  0  0  0  0  0  0  0  0
    1.5980   -1.7640    3.0060 H   0  0  0  0  0  0  0  0  0  0  0  0
    1.3460   -3.4270    3.4070 H   0  0  0  0  0  0  0  0  0  0  0  0
    0.8660   -3.4150   -2.2340 C   0  0  0  0  0  0  0  0  0  0  0  0
   -0.8100   -3.0670   -2.7360 S   0  0  0  0  0  0  0  0  0  0  0  0
   -1.8320   -2.2890   -1.4930 C   0  0  0  0  0  0  0  0  0  0  0  0
   -1.5160   -0.8900   -1.1480 C   0  0  0  0  0  0  0  0  0  0  0  0
   -0.1330   -0.6910   -0.6020 C   0  0  2  0  0  0  0  0  0  0  0  0
    0.1850   -1.3620    0.6030 N   0  0  0  0  0  0  0  0  0  0  0  0
    0.2770    0.7330   -0.5480 C   0  0  0  0  0  0  0  0  0  0  0  0
    0.0740    1.4960   -1.5360 O   0  0  0  0  0  0  0  0  0  0  0  0
    1.0380   -3.4390   -1.1370 H   0  0  0  0  0  0  0  0  0  0  0  0
    1.1340   -4.4690   -2.5710 H   0  0  0  0  0  0  0  0  0  0  0  0
    1.6180   -2.7860   -2.7430 H   0  0  0  0  0  0  0  0  0  0  0  0
   -2.8900   -2.2710   -1.9260 H   0  0  0  0  0  0  0  0  0  0  0  0
   -1.9330   -3.0050   -0.6470 H   0  0  0  0  0  0  0  0  0  0  0  0
   -2.3250   -0.4530   -0.5440 H   0  0  0  0  0  0  0  0  0  0  0  0
   -1.5480   -0.3110   -2.1260 H   0  0  0  0  0  0  0  0  0  0  0  0
    0.5310   -1.1540   -1.4300 H   0  0  0  0  0  0  0  0  0  0  0  0
    1.2010   -1.5920    0.7840 H   0  0  0  0  0  0  0  0  0  0  0  0
    0.5110    3.3250    1.8060 C   0  0  0  0  0  0  0  0  0  0  0  0
    1.3130    2.6920    0.6610 C   0  0  2  0  0  0  0  0  0  0  0  0
    0.9080    1.3000    0.5980 N   0  0  0  0  0  0  0  0  0  0  0  0
    2.7420    2.8280    1.0420 C   0  0  0  0  0  0  0  0  0  0  0  0
    3.3940    1.7760    1.2530 O   0  0  0  0  0  0  0  0  0  0  0  0
    3.3720    4.0460    1.1710 O   0  0  0  0  0  0  0  0  0  0  0  0
    0.7720    2.7190    2.7070 H   0  0  0  0  0  0  0  0  0  0  0  0
   -0.5780    3.2090    1.6080 H   0  0  0  0  0  0  0  0  0  0  0  0
    0.7910    4.3780    1.9610 H   0  0  0  0  0  0  0  0  0  0  0  0
    1.0830    3.2410   -0.2530 H   0  0  0  0  0  0  0  0  0  0  0  0
    1.0660    0.6550    1.4020 H   0  0  0  0  0  0  0  0  0  0  0  0
  1  7  1  0  0  0  0
  1  8  1  0  0  0  0
  2  9  1  1  0  0  0
  2  1  1  0  0  0  0
  3  2  1  0  0  0  0
  3 10  1  0  0  0  0
  3 11  1  0  0  0  0
  4  2  1  0  0  0  0
  5  4  2  0  0  0  0
  6  1  1  0  0  0  0
 12 20  1  0  0  0  0
 13 12  1  0  0  0  0
 13 14  1  0  0  0  0
 14 15  1  0  0  0  0
 14 24  1  0  0  0  0
 15 16  1  0  0  0  0
 15 25  1  0  0  0  0
 16 27  1  6  0  0  0
 16 18  1  0  0  0  0
 16 17  1  0  0  0  0
 17 28  1  0  0  0  0
 17  4  1  0  0  0  0
 18 31  1  0  0  0  0
 19 18  2  0  0  0  0
 21 12  1  0  0  0  0
 22 12  1  0  0  0  0
 23 14  1  0  0  0  0
 26 15  1  0  0  0  0
 29 37  1  0  0  0  0
 29 35  1  0  0  0  0
 30 38  1  6  0  0  0
 30 32  1  0  0  0  0
 30 29  1  0  0  0  0
 31 30  1  0  0  0  0
 31 39  1  0  0  0  0
 32 34  2  0  0  0  0
 32 33  1  0  0  0  0
 36 29  1  0  0  0  0
M  END
$$$$
