AME.pdb
 OpenBabel07022418013D

 45 44  0  0  1  0  0  0  0  0999 V2000
    0.9570   -2.7870    3.4000 C   0  0  0  0  0  0  0  0  0  0  0  0
    2.3530   -2.7640    2.8280 C   0  0  2  0  0  0  0  0  0  0  0  0
    3.3270   -3.1610    3.8260 N   0  0  0  0  0  0  0  0  0  0  0  0
    2.7280   -1.4530    2.2530 C   0  0  0  0  0  0  0  0  0  0  0  0
    3.7780   -0.8910    2.6030 O   0  0  0  0  0  0  0  0  0  0  0  0
    0.9320   -3.4490    4.3020 H   0  0  0  0  0  0  0  0  0  0  0  0
    0.5920   -1.8010    3.7160 H   0  0  0  0  0  0  0  0  0  0  0  0
    0.2360   -3.2500    2.6720 H   0  0  0  0  0  0  0  0  0  0  0  0
    2.4010   -3.5320    2.0090 H   0  0  0  0  0  0  0  0  0  0  0  0
    4.1460   -2.5480    3.7530 H   0  0  0  0  0  0  0  0  0  0  0  0
    2.8690   -3.1580    4.7560 H   0  0  0  0  0  0  0  0  0  0  0  0
    0.8390   -2.6420   -1.2130 C   0  0  0  0  0  0  0  0  0  0  0  0
    2.2680   -1.9000   -1.9280 S   0  0  0  0  0  0  0  0  0  0  0  0
    2.5320   -0.1730   -1.7810 C   0  0  0  0  0  0  0  0  0  0  0  0
    2.9810    0.4630   -0.5360 C   0  0  0  0  0  0  0  0  0  0  0  0
    2.1770    0.4300    0.6930 C   0  0  2  0  0  0  0  0  0  0  0  0
    1.8800   -0.8160    1.2810 N   0  0  0  0  0  0  0  0  0  0  0  0
    0.9880    1.3020    0.4860 C   0  0  0  0  0  0  0  0  0  0  0  0
    1.1530    2.4340   -0.0380 O   0  0  0  0  0  0  0  0  0  0  0  0
    0.0190   -1.9120   -0.9950 H   0  0  0  0  0  0  0  0  0  0  0  0
    0.3740   -3.3720   -1.9250 H   0  0  0  0  0  0  0  0  0  0  0  0
    1.0380   -3.2620   -0.2910 H   0  0  0  0  0  0  0  0  0  0  0  0
    3.2970    0.1060   -2.6150 H   0  0  0  0  0  0  0  0  0  0  0  0
    1.5690    0.3470   -2.1590 H   0  0  0  0  0  0  0  0  0  0  0  0
    3.0590    1.5930   -0.7990 H   0  0  0  0  0  0  0  0  0  0  0  0
    4.0680    0.1460   -0.3210 H   0  0  0  0  0  0  0  0  0  0  0  0
    2.8640    0.9580    1.4720 H   0  0  0  0  0  0  0  0  0  0  0  0
    1.0050   -1.3290    1.0830 H   0  0  0  0  0  0  0  0  0  0  0  0
   -0.3420    0.9530    0.8380 N   0  0  0  0  0  0  0  0  0  0  0  0
   -1.4570    1.8450    0.6110 C   0  0  1  0  0  0  0  0  0  0  0  0
   -2.3870    1.1790   -0.3770 C   0  0  0  0  0  0  0  0  0  0  0  0
   -2.8710   -0.1210    0.2010 C   0  0  0  0  0  0  0  0  0  0  0  0
   -3.8130   -0.7970   -0.7570 C   0  0  0  0  0  0  0  0  0  0  0  0
   -4.0510   -0.2160   -1.8410 O   0  0  0  0  0  0  0  0  0  0  0  0
   -2.2340    2.1030    1.8350 C   0  0  0  0  0  0  0  0  0  0  0  0
   -1.9890    1.6230    2.9630 O   0  0  0  0  0  0  0  0  0  0  0  0
   -4.3700   -2.0140   -0.4090 O   0  0  0  0  0  0  0  0  0  0  0  0
   -3.3290    2.9480    1.7280 O   0  0  0  0  0  0  0  0  0  0  0  0
   -0.4830    0.0320    1.2760 H   0  0  0  0  0  0  0  0  0  0  0  0
   -1.1150    2.8360    0.2250 H   0  0  0  0  0  0  0  0  0  0  0  0
   -1.7890    0.9230   -1.3010 H   0  0  0  0  0  0  0  0  0  0  0  0
   -3.2180    1.8430   -0.6800 H   0  0  0  0  0  0  0  0  0  0  0  0
   -2.0310   -0.8230    0.4020 H   0  0  0  0  0  0  0  0  0  0  0  0
   -3.3690    0.0990    1.1620 H   0  0  0  0  0  0  0  0  0  0  0  0
   -5.0060   -2.5000   -1.0450 H   0  0  0  0  0  0  0  0  0  0  0  0
  1  7  1  0  0  0  0
  1  6  1  0  0  0  0
  2  9  1  6  0  0  0
  2  1  1  0  0  0  0
  2  3  1  0  0  0  0
  3 11  1  0  0  0  0
  4  5  2  0  0  0  0
  4  2  1  0  0  0  0
  8  1  1  0  0  0  0
 10  3  1  0  0  0  0
 12 20  1  0  0  0  0
 12 22  1  0  0  0  0
 13 14  1  0  0  0  0
 13 12  1  0  0  0  0
 14 15  1  0  0  0  0
 15 26  1  0  0  0  0
 15 16  1  0  0  0  0
 16 17  1  0  0  0  0
 16 27  1  1  0  0  0
 17  4  1  0  0  0  0
 18 16  1  0  0  0  0
 18 29  1  0  0  0  0
 19 18  2  0  0  0  0
 21 12  1  0  0  0  0
 23 14  1  0  0  0  0
 24 14  1  0  0  0  0
 25 15  1  0  0  0  0
 28 17  1  0  0  0  0
 29 39  1  0  0  0  0
 30 40  1  6  0  0  0
 30 29  1  0  0  0  0
 30 35  1  0  0  0  0
 31 32  1  0  0  0  0
 31 30  1  0  0  0  0
 32 43  1  0  0  0  0
 32 44  1  0  0  0  0
 33 37  1  0  0  0  0
 33 32  1  0  0  0  0
 34 33  2  0  0  0  0
 35 36  1  0  0  0  0
 38 35  2  0  0  0  0
 41 31  1  0  0  0  0
 42 31  1  0  0  0  0
 45 37  1  0  0  0  0
M  END
$$$$
