AMF.pdb
 OpenBabel07022418013D

 49 49  0  0  1  0  0  0  0  0999 V2000
    4.9510   -2.6630   -1.0370 C   0  0  0  0  0  0  0  0  0  0  0  0
    3.4540   -2.6710   -1.0470 C   0  0  2  0  0  0  0  0  0  0  0  0
    2.9310   -1.7020   -2.0160 N   0  0  0  0  0  0  0  0  0  0  0  0
    2.9590   -2.3340    0.3220 C   0  0  0  0  0  0  0  0  0  0  0  0
    3.2650   -3.1470    1.2630 O   0  0  0  0  0  0  0  0  0  0  0  0
    5.2850   -1.8680   -1.7660 H   0  0  0  0  0  0  0  0  0  0  0  0
    5.3070   -2.4450   -0.0160 H   0  0  0  0  0  0  0  0  0  0  0  0
    5.2920   -3.6660   -1.3800 H   0  0  0  0  0  0  0  0  0  0  0  0
    3.0210   -3.6490   -1.3450 H   0  0  0  0  0  0  0  0  0  0  0  0
    3.1450   -2.0480   -2.9830 H   0  0  0  0  0  0  0  0  0  0  0  0
    1.8890   -1.6280   -1.9370 H   0  0  0  0  0  0  0  0  0  0  0  0
    3.9470    3.3210    2.1880 C   0  0  0  0  0  0  0  0  0  0  0  0
    4.3210    1.9790    3.3460 S   0  0  0  0  0  0  0  0  0  0  0  0
    3.7880    0.3660    2.6510 C   0  0  0  0  0  0  0  0  0  0  0  0
    2.3070    0.3310    2.5420 C   0  0  0  0  0  0  0  0  0  0  0  0
    1.7490   -0.9270    1.9500 C   0  0  2  0  0  0  0  0  0  0  0  0
    2.1940   -1.1940    0.6200 N   0  0  0  0  0  0  0  0  0  0  0  0
    0.2610   -0.9190    1.9470 C   0  0  0  0  0  0  0  0  0  0  0  0
   -0.3410   -0.7160    3.0580 O   0  0  0  0  0  0  0  0  0  0  0  0
    3.5760    2.9040    1.2240 H   0  0  0  0  0  0  0  0  0  0  0  0
    4.8600    3.9340    2.0490 H   0  0  0  0  0  0  0  0  0  0  0  0
    3.1720    3.9760    2.6360 H   0  0  0  0  0  0  0  0  0  0  0  0
    4.1270   -0.3840    3.4300 H   0  0  0  0  0  0  0  0  0  0  0  0
    4.3530    0.1510    1.7500 H   0  0  0  0  0  0  0  0  0  0  0  0
    1.8590    0.5080    3.5420 H   0  0  0  0  0  0  0  0  0  0  0  0
    1.9850    1.1810    1.9060 H   0  0  0  0  0  0  0  0  0  0  0  0
    2.0740   -1.7680    2.6090 H   0  0  0  0  0  0  0  0  0  0  0  0
    1.9560   -0.5450   -0.1460 H   0  0  0  0  0  0  0  0  0  0  0  0
   -0.5450   -1.1180    0.8090 N   0  0  0  0  0  0  0  0  0  0  0  0
   -2.0060   -1.1100    0.8100 C   0  0  1  0  0  0  0  0  0  0  0  0
   -2.5040    0.1730    0.1570 C   0  0  0  0  0  0  0  0  0  0  0  0
   -3.9770    0.1740    0.1580 C   0  0  0  0  0  0  0  0  0  0  0  0
   -4.6680    0.6670    1.2510 C   0  0  0  0  0  0  0  0  0  0  0  0
   -6.0360    0.6950    1.2460 C   0  0  0  0  0  0  0  0  0  0  0  0
   -6.7290    0.2320    0.1530 C   0  0  0  0  0  0  0  0  0  0  0  0
   -6.0530   -0.2590   -0.9360 C   0  0  0  0  0  0  0  0  0  0  0  0
   -4.6860   -0.2910   -0.9410 C   0  0  0  0  0  0  0  0  0  0  0  0
   -2.4710   -2.3140    0.1240 C   0  0  0  0  0  0  0  0  0  0  0  0
   -3.6850   -2.5910    0.0710 O   0  0  0  0  0  0  0  0  0  0  0  0
   -1.5670   -3.1680   -0.4800 O   0  0  0  0  0  0  0  0  0  0  0  0
   -0.0550   -1.2880   -0.1070 H   0  0  0  0  0  0  0  0  0  0  0  0
   -2.4140   -1.0880    1.8330 H   0  0  0  0  0  0  0  0  0  0  0  0
   -2.1230    0.1810   -0.8980 H   0  0  0  0  0  0  0  0  0  0  0  0
   -2.1660    1.0620    0.7310 H   0  0  0  0  0  0  0  0  0  0  0  0
   -4.1640    1.0480    2.1360 H   0  0  0  0  0  0  0  0  0  0  0  0
   -6.5630    1.0870    2.1070 H   0  0  0  0  0  0  0  0  0  0  0  0
   -7.8230    0.2440    0.1240 H   0  0  0  0  0  0  0  0  0  0  0  0
   -6.6040   -0.6320   -1.8120 H   0  0  0  0  0  0  0  0  0  0  0  0
   -4.1690   -0.6800   -1.8090 H   0  0  0  0  0  0  0  0  0  0  0  0
  1  7  1  0  0  0  0
  2  9  1  6  0  0  0
  2  1  1  0  0  0  0
  2  4  1  0  0  0  0
  3 11  1  0  0  0  0
  3  2  1  0  0  0  0
  4 17  1  0  0  0  0
  4  5  2  0  0  0  0
  6  1  1  0  0  0  0
  8  1  1  0  0  0  0
 10  3  1  0  0  0  0
 12 22  1  0  0  0  0
 12 13  1  0  0  0  0
 14 13  1  0  0  0  0
 14 23  1  0  0  0  0
 15 14  1  0  0  0  0
 15 25  1  0  0  0  0
 16 15  1  0  0  0  0
 16 27  1  1  0  0  0
 17 16  1  0  0  0  0
 18 16  1  0  0  0  0
 18 19  2  0  0  0  0
 20 12  1  0  0  0  0
 21 12  1  0  0  0  0
 24 14  1  0  0  0  0
 26 15  1  0  0  0  0
 28 17  1  0  0  0  0
 29 30  1  0  0  0  0
 29 18  1  0  0  0  0
 30 42  1  1  0  0  0
 31 32  1  0  0  0  0
 31 44  1  0  0  0  0
 31 30  1  0  0  0  0
 32 33  1  0  0  0  0
 33 45  1  0  0  0  0
 34 33  2  0  0  0  0
 34 46  1  0  0  0  0
 35 34  1  0  0  0  0
 36 35  2  0  0  0  0
 37 36  1  0  0  0  0
 37 32  2  0  0  0  0
 38 30  1  0  0  0  0
 39 38  1  0  0  0  0
 40 38  2  0  0  0  0
 41 29  1  0  0  0  0
 43 31  1  0  0  0  0
 47 35  1  0  0  0  0
 48 36  1  0  0  0  0
 49 37  1  0  0  0  0
M  END
$$$$
