AMI.pdb
 OpenBabel07022418013D

 48 47  0  0  1  0  0  0  0  0999 V2000
    0.7710   -4.5690    0.6090 C   0  0  0  0  0  0  0  0  0  0  0  0
    1.9510   -4.1760   -0.2280 C   0  0  2  0  0  0  0  0  0  0  0  0
    3.0880   -4.9750    0.1740 N   0  0  0  0  0  0  0  0  0  0  0  0
    2.2570   -2.7470   -0.1270 C   0  0  0  0  0  0  0  0  0  0  0  0
    3.3990   -2.3850    0.2630 O   0  0  0  0  0  0  0  0  0  0  0  0
   -0.1700   -4.6090    0.0210 H   0  0  0  0  0  0  0  0  0  0  0  0
    0.9380   -5.5920    1.0000 H   0  0  0  0  0  0  0  0  0  0  0  0
    0.6960   -3.9100    1.5000 H   0  0  0  0  0  0  0  0  0  0  0  0
    1.7180   -4.4450   -1.2900 H   0  0  0  0  0  0  0  0  0  0  0  0
    3.9220   -4.3480    0.3250 H   0  0  0  0  0  0  0  0  0  0  0  0
    2.8650   -5.5140    1.0560 H   0  0  0  0  0  0  0  0  0  0  0  0
   -0.9890   -1.7130   -3.0190 C   0  0  0  0  0  0  0  0  0  0  0  0
    0.3650   -0.7750   -3.7000 S   0  0  0  0  0  0  0  0  0  0  0  0
    1.0160    0.5480   -2.7330 C   0  0  0  0  0  0  0  0  0  0  0  0
    1.8880    0.3400   -1.5930 C   0  0  0  0  0  0  0  0  0  0  0  0
    1.5630   -0.3940   -0.3690 C   0  0  2  0  0  0  0  0  0  0  0  0
    1.2640   -1.7640   -0.4680 N   0  0  0  0  0  0  0  0  0  0  0  0
    0.5540    0.3340    0.4910 C   0  0  0  0  0  0  0  0  0  0  0  0
    0.6950    1.5420    0.6290 O   0  0  0  0  0  0  0  0  0  0  0  0
   -1.3750   -1.2450   -2.0750 H   0  0  0  0  0  0  0  0  0  0  0  0
   -0.7170   -2.7650   -2.7500 H   0  0  0  0  0  0  0  0  0  0  0  0
   -1.8860   -1.7230   -3.7090 H   0  0  0  0  0  0  0  0  0  0  0  0
    1.5720    1.2960   -3.4340 H   0  0  0  0  0  0  0  0  0  0  0  0
    0.0830    1.1670   -2.3960 H   0  0  0  0  0  0  0  0  0  0  0  0
    2.3360    1.3810   -1.3080 H   0  0  0  0  0  0  0  0  0  0  0  0
    2.8620   -0.1390   -1.9960 H   0  0  0  0  0  0  0  0  0  0  0  0
    2.5260   -0.3090    0.2950 H   0  0  0  0  0  0  0  0  0  0  0  0
    0.3570   -2.1460   -0.7480 H   0  0  0  0  0  0  0  0  0  0  0  0
   -0.0020    2.9200    4.0270 C   0  0  0  0  0  0  0  0  0  0  0  0
   -0.2070    1.5470    3.4410 C   0  0  0  0  0  0  0  0  0  0  0  0
   -1.4060    1.4710    2.5250 C   0  0  2  0  0  0  0  0  0  0  0  0
   -2.6330    1.8070    3.3310 C   0  0  0  0  0  0  0  0  0  0  0  0
   -1.5280    0.1040    1.9540 C   0  0  2  0  0  0  0  0  0  0  0  0
   -0.4920   -0.3650    1.0980 N   0  0  0  0  0  0  0  0  0  0  0  0
   -2.8750   -0.3180    1.5410 C   0  0  0  0  0  0  0  0  0  0  0  0
   -3.0060   -1.0270    0.4860 O   0  0  0  0  0  0  0  0  0  0  0  0
   -4.0570   -0.0270    2.1870 O   0  0  0  0  0  0  0  0  0  0  0  0
   -0.3310    3.6640    3.2680 H   0  0  0  0  0  0  0  0  0  0  0  0
   -0.6670    3.0420    4.8900 H   0  0  0  0  0  0  0  0  0  0  0  0
    1.0660    3.0690    4.3080 H   0  0  0  0  0  0  0  0  0  0  0  0
   -0.4600    0.9050    4.3750 H   0  0  0  0  0  0  0  0  0  0  0  0
    0.7140    1.1140    3.1000 H   0  0  0  0  0  0  0  0  0  0  0  0
   -1.3550    2.2680    1.7380 H   0  0  0  0  0  0  0  0  0  0  0  0
   -3.4940    2.1490    2.6930 H   0  0  0  0  0  0  0  0  0  0  0  0
   -2.4550    2.6880    4.0050 H   0  0  0  0  0  0  0  0  0  0  0  0
   -3.0020    0.9970    3.9620 H   0  0  0  0  0  0  0  0  0  0  0  0
   -1.3140   -0.5150    2.9340 H   0  0  0  0  0  0  0  0  0  0  0  0
   -0.5270   -1.4140    0.8980 H   0  0  0  0  0  0  0  0  0  0  0  0
  1  7  1  0  0  0  0
  1  8  1  0  0  0  0
  2  9  1  6  0  0  0
  2  4  1  0  0  0  0
  2  3  1  0  0  0  0
  2  1  1  0  0  0  0
  3 10  1  0  0  0  0
  3 11  1  0  0  0  0
  4  5  2  0  0  0  0
  6  1  1  0  0  0  0
 12 21  1  0  0  0  0
 12 20  1  0  0  0  0
 13 12  1  0  0  0  0
 13 14  1  0  0  0  0
 14 24  1  0  0  0  0
 14 15  1  0  0  0  0
 15 25  1  0  0  0  0
 15 16  1  0  0  0  0
 16 27  1  1  0  0  0
 16 18  1  0  0  0  0
 17 16  1  0  0  0  0
 17  4  1  0  0  0  0
 18 19  2  0  0  0  0
 18 34  1  0  0  0  0
 22 12  1  0  0  0  0
 23 14  1  0  0  0  0
 26 15  1  0  0  0  0
 28 17  1  0  0  0  0
 29 40  1  0  0  0  0
 29 39  1  0  0  0  0
 30 29  1  0  0  0  0
 30 41  1  0  0  0  0
 31 43  1  6  0  0  0
 31 32  1  0  0  0  0
 31 30  1  0  0  0  0
 32 46  1  0  0  0  0
 32 45  1  0  0  0  0
 33 31  1  0  0  0  0
 33 47  1  1  0  0  0
 34 33  1  0  0  0  0
 35 33  1  0  0  0  0
 35 37  1  0  0  0  0
 36 35  2  0  0  0  0
 38 29  1  0  0  0  0
 42 30  1  0  0  0  0
 44 32  1  0  0  0  0
 48 34  1  0  0  0  0
M  END
$$$$
