AMK.pdb
 OpenBabel07022418013D

 50 49  0  0  1  0  0  0  0  0999 V2000
    2.1410   -3.1550    3.0490 C   0  0  0  0  0  0  0  0  0  0  0  0
    3.4600   -2.6610    2.5280 C   0  0  2  0  0  0  0  0  0  0  0  0
    4.4570   -2.8410    3.5670 N   0  0  0  0  0  0  0  0  0  0  0  0
    3.3980   -1.2260    2.1940 C   0  0  0  0  0  0  0  0  0  0  0  0
    4.1030   -0.3440    2.7400 O   0  0  0  0  0  0  0  0  0  0  0  0
    1.5750   -2.3470    3.5830 H   0  0  0  0  0  0  0  0  0  0  0  0
    2.3090   -3.9640    3.7970 H   0  0  0  0  0  0  0  0  0  0  0  0
    1.5110   -3.6050    2.2450 H   0  0  0  0  0  0  0  0  0  0  0  0
    3.7190   -3.2930    1.6500 H   0  0  0  0  0  0  0  0  0  0  0  0
    4.6440   -3.8520    3.7590 H   0  0  0  0  0  0  0  0  0  0  0  0
    4.2210   -2.2970    4.4160 H   0  0  0  0  0  0  0  0  0  0  0  0
    0.7950   -2.0700   -1.5490 C   0  0  0  0  0  0  0  0  0  0  0  0
    2.1210   -1.1140   -2.2240 S   0  0  0  0  0  0  0  0  0  0  0  0
    2.3140    0.5570   -1.7420 C   0  0  0  0  0  0  0  0  0  0  0  0
    2.9060    0.9920   -0.4880 C   0  0  0  0  0  0  0  0  0  0  0  0
    2.4010    0.6200    0.8380 C   0  0  2  0  0  0  0  0  0  0  0  0
    2.4620   -0.7610    1.1610 N   0  0  0  0  0  0  0  0  0  0  0  0
    0.9960    1.1500    0.9640 C   0  0  0  0  0  0  0  0  0  0  0  0
    0.7650    2.3610    0.7200 O   0  0  0  0  0  0  0  0  0  0  0  0
    0.1450   -1.5120   -0.8140 H   0  0  0  0  0  0  0  0  0  0  0  0
    0.0770   -2.4420   -2.3330 H   0  0  0  0  0  0  0  0  0  0  0  0
    1.2080   -2.9440   -0.9790 H   0  0  0  0  0  0  0  0  0  0  0  0
    2.9660    1.0530   -2.5760 H   0  0  0  0  0  0  0  0  0  0  0  0
    1.3380    1.1670   -1.9500 H   0  0  0  0  0  0  0  0  0  0  0  0
    4.0440    0.7860   -0.5400 H   0  0  0  0  0  0  0  0  0  0  0  0
    2.9590    2.1580   -0.4620 H   0  0  0  0  0  0  0  0  0  0  0  0
    3.0000    1.2070    1.6030 H   0  0  0  0  0  0  0  0  0  0  0  0
    1.9030   -1.5000    0.7620 H   0  0  0  0  0  0  0  0  0  0  0  0
   -0.0800    0.3300    1.3500 N   0  0  0  0  0  0  0  0  0  0  0  0
   -1.4270    0.8900    1.4580 C   0  0  1  0  0  0  0  0  0  0  0  0
   -2.2820    0.0140    0.5530 C   0  0  0  0  0  0  0  0  0  0  0  0
   -3.7100    0.3980    0.4920 C   0  0  0  0  0  0  0  0  0  0  0  0
   -4.4850   -0.5390   -0.3830 C   0  0  0  0  0  0  0  0  0  0  0  0
   -4.0900   -0.6490   -1.8020 C   0  0  0  0  0  0  0  0  0  0  0  0
   -2.7560   -1.1420   -2.0310 N   0  0  0  0  0  0  0  0  0  0  0  0
   -1.8500    0.6640    2.8590 C   0  0  0  0  0  0  0  0  0  0  0  0
   -1.1060    0.0470    3.6980 O   0  0  0  0  0  0  0  0  0  0  0  0
   -3.0710    1.1000    3.3670 O   0  0  0  0  0  0  0  0  0  0  0  0
    0.0460   -0.6700    1.5630 H   0  0  0  0  0  0  0  0  0  0  0  0
   -1.4850    1.9460    1.2130 H   0  0  0  0  0  0  0  0  0  0  0  0
   -1.8620    0.1920   -0.4850 H   0  0  0  0  0  0  0  0  0  0  0  0
   -2.1740   -1.0410    0.7860 H   0  0  0  0  0  0  0  0  0  0  0  0
   -3.8450    1.4530    0.0930 H   0  0  0  0  0  0  0  0  0  0  0  0
   -4.2020    0.3990    1.5080 H   0  0  0  0  0  0  0  0  0  0  0  0
   -4.4250   -1.5940    0.0460 H   0  0  0  0  0  0  0  0  0  0  0  0
   -5.6030   -0.3330   -0.2930 H   0  0  0  0  0  0  0  0  0  0  0  0
   -4.7690   -1.4380   -2.2560 H   0  0  0  0  0  0  0  0  0  0  0  0
   -4.2420    0.2990   -2.3800 H   0  0  0  0  0  0  0  0  0  0  0  0
   -2.6870   -2.1700   -1.8690 H   0  0  0  0  0  0  0  0  0  0  0  0
   -2.4270   -0.9070   -2.9800 H   0  0  0  0  0  0  0  0  0  0  0  0
  1  6  1  0  0  0  0
  1  7  1  0  0  0  0
  2  9  1  6  0  0  0
  2  1  1  0  0  0  0
  2  3  1  0  0  0  0
  3 10  1  0  0  0  0
  3 11  1  0  0  0  0
  4  2  1  0  0  0  0
  4  5  2  0  0  0  0
  8  1  1  0  0  0  0
 12 22  1  0  0  0  0
 12 20  1  0  0  0  0
 13 14  1  0  0  0  0
 13 12  1  0  0  0  0
 14 15  1  0  0  0  0
 15 26  1  0  0  0  0
 15 16  1  0  0  0  0
 16 18  1  0  0  0  0
 16 17  1  0  0  0  0
 16 27  1  1  0  0  0
 17  4  1  0  0  0  0
 18 29  1  0  0  0  0
 19 18  2  0  0  0  0
 21 12  1  0  0  0  0
 23 14  1  0  0  0  0
 24 14  1  0  0  0  0
 25 15  1  0  0  0  0
 28 17  1  0  0  0  0
 29 30  1  0  0  0  0
 29 39  1  0  0  0  0
 30 40  1  6  0  0  0
 30 36  1  0  0  0  0
 31 42  1  0  0  0  0
 31 30  1  0  0  0  0
 32 31  1  0  0  0  0
 32 44  1  0  0  0  0
 33 46  1  0  0  0  0
 33 45  1  0  0  0  0
 33 32  1  0  0  0  0
 34 33  1  0  0  0  0
 35 49  1  0  0  0  0
 35 34  1  0  0  0  0
 36 38  2  0  0  0  0
 36 37  1  0  0  0  0
 41 31  1  0  0  0  0
 43 32  1  0  0  0  0
 47 34  1  0  0  0  0
 48 34  1  0  0  0  0
 50 35  1  0  0  0  0
M  END
$$$$
