AMR.pdb
 OpenBabel07022418013D

 52 51  0  0  1  0  0  0  0  0999 V2000
    3.2850   -2.3670    2.7810 C   0  0  0  0  0  0  0  0  0  0  0  0
    3.8440   -0.9420    2.6900 C   0  0  2  0  0  0  0  0  0  0  0  0
    4.0590   -0.5090    4.0530 N   0  0  0  0  0  0  0  0  0  0  0  0
    2.7990   -0.1110    2.0740 C   0  0  0  0  0  0  0  0  0  0  0  0
    2.2620    0.7950    2.7370 O   0  0  0  0  0  0  0  0  0  0  0  0
    2.2020   -2.2520    2.9980 H   0  0  0  0  0  0  0  0  0  0  0  0
    3.4420   -2.8640    1.7970 H   0  0  0  0  0  0  0  0  0  0  0  0
    3.7300   -2.9250    3.6180 H   0  0  0  0  0  0  0  0  0  0  0  0
    4.7980   -0.9310    2.1270 H   0  0  0  0  0  0  0  0  0  0  0  0
    3.1360   -0.4110    4.5280 H   0  0  0  0  0  0  0  0  0  0  0  0
    4.6410   -1.2030    4.5700 H   0  0  0  0  0  0  0  0  0  0  0  0
    1.7850   -1.5550   -4.0470 C   0  0  0  0  0  0  0  0  0  0  0  0
    1.1640   -0.5160   -2.7170 S   0  0  0  0  0  0  0  0  0  0  0  0
    2.4620    0.5680   -2.0750 C   0  0  0  0  0  0  0  0  0  0  0  0
    1.8640    1.4060   -0.9650 C   0  0  0  0  0  0  0  0  0  0  0  0
    1.3260    0.5470    0.1550 C   0  0  2  0  0  0  0  0  0  0  0  0
    2.3490   -0.2760    0.7370 N   0  0  0  0  0  0  0  0  0  0  0  0
    0.0940   -0.1960   -0.2150 C   0  0  0  0  0  0  0  0  0  0  0  0
   -0.0040   -1.4430   -0.0660 O   0  0  0  0  0  0  0  0  0  0  0  0
    2.6400   -1.0770   -4.5480 H   0  0  0  0  0  0  0  0  0  0  0  0
    2.1240   -2.5140   -3.6070 H   0  0  0  0  0  0  0  0  0  0  0  0
    0.9540   -1.7280   -4.7610 H   0  0  0  0  0  0  0  0  0  0  0  0
    2.7940    1.2200   -2.9080 H   0  0  0  0  0  0  0  0  0  0  0  0
    3.3400    0.0140   -1.7350 H   0  0  0  0  0  0  0  0  0  0  0  0
    2.6770    2.0280   -0.5390 H   0  0  0  0  0  0  0  0  0  0  0  0
    1.0880    2.0850   -1.3170 H   0  0  0  0  0  0  0  0  0  0  0  0
    1.0080    1.2810    0.9540 H   0  0  0  0  0  0  0  0  0  0  0  0
    2.7750   -1.0230    0.1560 H   0  0  0  0  0  0  0  0  0  0  0  0
   -3.0850   -2.3800    5.2830 N   0  0  0  0  0  0  0  0  0  0  0  0
   -2.9570   -2.4160    3.8710 C   0  0  0  0  0  0  0  0  0  0  0  0
   -2.7380   -3.5210    3.2620 N   0  0  0  0  0  0  0  0  0  0  0  0
   -3.0670   -1.2280    3.0920 N   0  0  0  0  0  0  0  0  0  0  0  0
   -3.1860   -1.2410    1.6450 C   0  0  0  0  0  0  0  0  0  0  0  0
   -3.2810    0.1670    1.1620 C   0  0  0  0  0  0  0  0  0  0  0  0
   -3.4080    0.3470   -0.3060 C   0  0  0  0  0  0  0  0  0  0  0  0
   -2.2550   -0.1860   -1.1250 C   0  0  2  0  0  0  0  0  0  0  0  0
   -1.0330    0.4770   -0.7540 N   0  0  0  0  0  0  0  0  0  0  0  0
   -2.6090   -0.0120   -2.5380 C   0  0  0  0  0  0  0  0  0  0  0  0
   -1.8900    0.6700   -3.2890 O   0  0  0  0  0  0  0  0  0  0  0  0
   -3.7450   -0.6080   -3.0370 O   0  0  0  0  0  0  0  0  0  0  0  0
   -3.5320   -3.1640    5.8110 H   0  0  0  0  0  0  0  0  0  0  0  0
   -2.7170   -1.5400    5.7830 H   0  0  0  0  0  0  0  0  0  0  0  0
   -2.6390   -3.5900    2.2330 H   0  0  0  0  0  0  0  0  0  0  0  0
   -3.0590   -0.3330    3.6080 H   0  0  0  0  0  0  0  0  0  0  0  0
   -4.1090   -1.8250    1.4050 H   0  0  0  0  0  0  0  0  0  0  0  0
   -2.3420   -1.8190    1.2670 H   0  0  0  0  0  0  0  0  0  0  0  0
   -4.1730    0.6230    1.6550 H   0  0  0  0  0  0  0  0  0  0  0  0
   -2.3820    0.7070    1.5670 H   0  0  0  0  0  0  0  0  0  0  0  0
   -4.3190   -0.1750   -0.6770 H   0  0  0  0  0  0  0  0  0  0  0  0
   -3.5010    1.4240   -0.5320 H   0  0  0  0  0  0  0  0  0  0  0  0
   -2.1310   -1.2630   -0.8810 H   0  0  0  0  0  0  0  0  0  0  0  0
   -0.9620    1.5310   -0.8890 H   0  0  0  0  0  0  0  0  0  0  0  0
  1  6  1  0  0  0  0
  1  8  1  0  0  0  0
  2  9  1  6  0  0  0
  2  1  1  0  0  0  0
  2  3  1  0  0  0  0
  3 10  1  0  0  0  0
  3 11  1  0  0  0  0
  4  2  1  0  0  0  0
  4  5  2  0  0  0  0
  7  1  1  0  0  0  0
 12 21  1  0  0  0  0
 12 13  1  0  0  0  0
 13 14  1  0  0  0  0
 14 24  1  0  0  0  0
 14 15  1  0  0  0  0
 15 25  1  0  0  0  0
 15 16  1  0  0  0  0
 16 17  1  0  0  0  0
 16 27  1  1  0  0  0
 17  4  1  0  0  0  0
 18 19  2  0  0  0  0
 18 16  1  0  0  0  0
 20 12  1  0  0  0  0
 22 12  1  0  0  0  0
 23 14  1  0  0  0  0
 26 15  1  0  0  0  0
 28 17  1  0  0  0  0
 29 42  1  0  0  0  0
 29 41  1  0  0  0  0
 30 29  1  0  0  0  0
 31 30  2  0  0  0  0
 32 44  1  0  0  0  0
 32 30  1  0  0  0  0
 33 32  1  0  0  0  0
 34 48  1  0  0  0  0
 34 33  1  0  0  0  0
 34 47  1  0  0  0  0
 35 34  1  0  0  0  0
 36 51  1  1  0  0  0
 36 37  1  0  0  0  0
 36 35  1  0  0  0  0
 37 18  1  0  0  0  0
 38 36  1  0  0  0  0
 39 38  2  0  0  0  0
 40 38  1  0  0  0  0
 43 31  1  0  0  0  0
 45 33  1  0  0  0  0
 46 33  1  0  0  0  0
 49 35  1  0  0  0  0
 50 35  1  0  0  0  0
 52 37  1  0  0  0  0
M  END
$$$$
