AMS.pdb
 OpenBabel07022418013D

 40 39  0  0  1  0  0  0  0  0999 V2000
   -3.2690   -1.9160    1.2370 C   0  0  0  0  0  0  0  0  0  0  0  0
   -2.1580   -2.4460    0.3560 C   0  0  2  0  0  0  0  0  0  0  0  0
   -1.3230   -3.2900    1.1640 N   0  0  0  0  0  0  0  0  0  0  0  0
   -1.3230   -1.3480   -0.1960 C   0  0  0  0  0  0  0  0  0  0  0  0
   -1.8720   -0.5160   -0.9210 O   0  0  0  0  0  0  0  0  0  0  0  0
   -4.2080   -2.4790    1.0150 H   0  0  0  0  0  0  0  0  0  0  0  0
   -3.4550   -0.8400    1.1120 H   0  0  0  0  0  0  0  0  0  0  0  0
   -3.0510   -2.0970    2.3120 H   0  0  0  0  0  0  0  0  0  0  0  0
   -2.5690   -3.0510   -0.4860 H   0  0  0  0  0  0  0  0  0  0  0  0
   -1.2210   -4.2590    0.7900 H   0  0  0  0  0  0  0  0  0  0  0  0
   -1.5050   -3.2350    2.1730 H   0  0  0  0  0  0  0  0  0  0  0  0
    2.6880   -2.6670   -1.9070 C   0  0  0  0  0  0  0  0  0  0  0  0
    2.1970   -1.4250   -3.0610 S   0  0  0  0  0  0  0  0  0  0  0  0
    0.6260   -0.6070   -2.7960 C   0  0  0  0  0  0  0  0  0  0  0  0
    0.6640    0.3640   -1.6850 C   0  0  0  0  0  0  0  0  0  0  0  0
    0.9790   -0.2750   -0.3730 C   0  0  2  0  0  0  0  0  0  0  0  0
    0.0590   -1.2520    0.0950 N   0  0  0  0  0  0  0  0  0  0  0  0
    1.4120    0.6960    0.6610 C   0  0  0  0  0  0  0  0  0  0  0  0
    2.2300    1.6000    0.3480 O   0  0  0  0  0  0  0  0  0  0  0  0
    1.8750   -3.0920   -1.2600 H   0  0  0  0  0  0  0  0  0  0  0  0
    3.5470   -2.4040   -1.2400 H   0  0  0  0  0  0  0  0  0  0  0  0
    3.0980   -3.5890   -2.4540 H   0  0  0  0  0  0  0  0  0  0  0  0
   -0.0990   -1.4530   -2.5380 H   0  0  0  0  0  0  0  0  0  0  0  0
    0.2370   -0.1510   -3.7530 H   0  0  0  0  0  0  0  0  0  0  0  0
    1.5140    1.0760   -1.9040 H   0  0  0  0  0  0  0  0  0  0  0  0
   -0.2240    1.0360   -1.6410 H   0  0  0  0  0  0  0  0  0  0  0  0
    1.9230   -0.8540   -0.6360 H   0  0  0  0  0  0  0  0  0  0  0  0
    0.4260   -2.0160    0.7450 H   0  0  0  0  0  0  0  0  0  0  0  0
    0.7720    3.2550    4.5850 O   0  0  0  0  0  0  0  0  0  0  0  0
    0.2410    2.3540    3.6580 C   0  0  0  0  0  0  0  0  0  0  0  0
    1.4070    1.6550    3.0010 C   0  0  2  0  0  0  0  0  0  0  0  0
    0.9650    0.6880    2.0090 N   0  0  0  0  0  0  0  0  0  0  0  0
    2.1050    0.8780    4.0570 C   0  0  0  0  0  0  0  0  0  0  0  0
    2.5750    1.5270    5.0250 O   0  0  0  0  0  0  0  0  0  0  0  0
    2.2570   -0.4840    4.0250 O   0  0  0  0  0  0  0  0  0  0  0  0
    1.6400    3.6510    4.2620 H   0  0  0  0  0  0  0  0  0  0  0  0
   -0.3730    1.6360    4.2310 H   0  0  0  0  0  0  0  0  0  0  0  0
   -0.3640    2.9490    2.9530 H   0  0  0  0  0  0  0  0  0  0  0  0
    2.1180    2.3680    2.5630 H   0  0  0  0  0  0  0  0  0  0  0  0
    0.2910   -0.0500    2.2850 H   0  0  0  0  0  0  0  0  0  0  0  0
  1  8  1  0  0  0  0
  2  9  1  6  0  0  0
  2  3  1  0  0  0  0
  2  1  1  0  0  0  0
  3 11  1  0  0  0  0
  4 17  1  0  0  0  0
  4  2  1  0  0  0  0
  5  4  2  0  0  0  0
  6  1  1  0  0  0  0
  7  1  1  0  0  0  0
 10  3  1  0  0  0  0
 12 20  1  0  0  0  0
 12 21  1  0  0  0  0
 13 14  1  0  0  0  0
 13 12  1  0  0  0  0
 14 23  1  0  0  0  0
 14 15  1  0  0  0  0
 15 26  1  0  0  0  0
 15 16  1  0  0  0  0
 16 27  1  6  0  0  0
 16 17  1  0  0  0  0
 16 18  1  0  0  0  0
 17 28  1  0  0  0  0
 18 32  1  0  0  0  0
 19 18  2  0  0  0  0
 22 12  1  0  0  0  0
 24 14  1  0  0  0  0
 25 15  1  0  0  0  0
 30 37  1  0  0  0  0
 30 29  1  0  0  0  0
 31 39  1  6  0  0  0
 31 30  1  0  0  0  0
 31 33  1  0  0  0  0
 32 40  1  0  0  0  0
 32 31  1  0  0  0  0
 33 34  1  0  0  0  0
 35 33  2  0  0  0  0
 36 29  1  0  0  0  0
 38 30  1  0  0  0  0
M  END
$$$$
