AMV.pdb
 OpenBabel07022418023D

 45 44  0  0  1  0  0  0  0  0999 V2000
   -0.1880   -5.1360   -1.0100 C   0  0  0  0  0  0  0  0  0  0  0  0
   -0.5150   -4.1410    0.0580 C   0  0  2  0  0  0  0  0  0  0  0  0
   -1.9010   -3.7890    0.0460 N   0  0  0  0  0  0  0  0  0  0  0  0
    0.3650   -2.9300   -0.0960 C   0  0  0  0  0  0  0  0  0  0  0  0
    1.6140   -3.0530   -0.1100 O   0  0  0  0  0  0  0  0  0  0  0  0
   -0.6390   -6.1140   -0.6950 H   0  0  0  0  0  0  0  0  0  0  0  0
   -0.6680   -4.8610   -1.9830 H   0  0  0  0  0  0  0  0  0  0  0  0
    0.8910   -5.3180   -1.0970 H   0  0  0  0  0  0  0  0  0  0  0  0
   -0.2200   -4.5830    1.0420 H   0  0  0  0  0  0  0  0  0  0  0  0
   -2.2220   -3.5710    1.0160 H   0  0  0  0  0  0  0  0  0  0  0  0
   -2.4890   -4.5720   -0.3120 H   0  0  0  0  0  0  0  0  0  0  0  0
    3.4150    0.2870   -3.3610 C   0  0  0  0  0  0  0  0  0  0  0  0
    2.7450    1.3050   -2.0610 S   0  0  0  0  0  0  0  0  0  0  0  0
    0.9720    1.4170   -2.0340 C   0  0  0  0  0  0  0  0  0  0  0  0
    0.2560    0.1540   -1.7120 C   0  0  0  0  0  0  0  0  0  0  0  0
    0.5750   -0.4350   -0.3780 C   0  0  2  0  0  0  0  0  0  0  0  0
   -0.1990   -1.6480   -0.2260 N   0  0  0  0  0  0  0  0  0  0  0  0
    0.2920    0.4490    0.7580 C   0  0  0  0  0  0  0  0  0  0  0  0
    0.8080    1.5900    0.8970 O   0  0  0  0  0  0  0  0  0  0  0  0
    4.4140    0.7210   -3.6570 H   0  0  0  0  0  0  0  0  0  0  0  0
    3.6700   -0.7210   -2.9370 H   0  0  0  0  0  0  0  0  0  0  0  0
    2.8050    0.2360   -4.2660 H   0  0  0  0  0  0  0  0  0  0  0  0
    0.6180    1.7390   -3.0540 H   0  0  0  0  0  0  0  0  0  0  0  0
    0.6650    2.2320   -1.3470 H   0  0  0  0  0  0  0  0  0  0  0  0
   -0.8350    0.3480   -1.7520 H   0  0  0  0  0  0  0  0  0  0  0  0
    0.4740   -0.5960   -2.4880 H   0  0  0  0  0  0  0  0  0  0  0  0
    1.6570   -0.7520   -0.4030 H   0  0  0  0  0  0  0  0  0  0  0  0
   -1.2610   -1.6100   -0.2100 H   0  0  0  0  0  0  0  0  0  0  0  0
    0.0300    1.8780    4.9860 C   0  0  0  0  0  0  0  0  0  0  0  0
    0.2790    1.0310    3.7490 C   0  0  0  0  0  0  0  0  0  0  0  0
    0.7820   -0.3180    4.2570 C   0  0  0  0  0  0  0  0  0  0  0  0
   -0.9380    0.8350    2.9140 C   0  0  2  0  0  0  0  0  0  0  0  0
   -0.6070    0.0200    1.7680 N   0  0  0  0  0  0  0  0  0  0  0  0
   -1.4820    2.1420    2.4620 C   0  0  0  0  0  0  0  0  0  0  0  0
   -1.6250    2.3800    1.2450 O   0  0  0  0  0  0  0  0  0  0  0  0
   -1.8540    3.1490    3.3370 O   0  0  0  0  0  0  0  0  0  0  0  0
   -0.8650    1.5160    5.5260 H   0  0  0  0  0  0  0  0  0  0  0  0
    0.9650    1.7510    5.6090 H   0  0  0  0  0  0  0  0  0  0  0  0
   -0.0440    2.9460    4.7840 H   0  0  0  0  0  0  0  0  0  0  0  0
    1.0840    1.5280    3.1790 H   0  0  0  0  0  0  0  0  0  0  0  0
    0.1250   -1.1400    3.8620 H   0  0  0  0  0  0  0  0  0  0  0  0
    1.8260   -0.4900    3.9310 H   0  0  0  0  0  0  0  0  0  0  0  0
    0.7220   -0.3980    5.3610 H   0  0  0  0  0  0  0  0  0  0  0  0
   -1.7190    0.3000    3.5170 H   0  0  0  0  0  0  0  0  0  0  0  0
   -1.0650   -0.9440    1.6930 H   0  0  0  0  0  0  0  0  0  0  0  0
  1  6  1  0  0  0  0
  1  2  1  0  0  0  0
  2  9  1  1  0  0  0
  3  2  1  0  0  0  0
  3 10  1  0  0  0  0
  4  2  1  0  0  0  0
  5  4  2  0  0  0  0
  7  1  1  0  0  0  0
  8  1  1  0  0  0  0
 11  3  1  0  0  0  0
 12 21  1  0  0  0  0
 12 13  1  0  0  0  0
 13 14  1  0  0  0  0
 14 15  1  0  0  0  0
 14 24  1  0  0  0  0
 15 16  1  0  0  0  0
 16 27  1  1  0  0  0
 16 17  1  0  0  0  0
 16 18  1  0  0  0  0
 17 28  1  0  0  0  0
 17  4  1  0  0  0  0
 18 19  2  0  0  0  0
 18 33  1  0  0  0  0
 20 12  1  0  0  0  0
 22 12  1  0  0  0  0
 23 14  1  0  0  0  0
 25 15  1  0  0  0  0
 26 15  1  0  0  0  0
 29 37  1  0  0  0  0
 29 38  1  0  0  0  0
 30 31  1  0  0  0  0
 30 29  1  0  0  0  0
 31 43  1  0  0  0  0
 32 44  1  1  0  0  0
 32 30  1  0  0  0  0
 33 32  1  0  0  0  0
 34 32  1  0  0  0  0
 34 36  1  0  0  0  0
 35 34  2  0  0  0  0
 39 29  1  0  0  0  0
 40 30  1  0  0  0  0
 41 31  1  0  0  0  0
 42 31  1  0  0  0  0
 45 33  1  0  0  0  0
M  END
$$$$
