ANA.pdb
 OpenBabel07022417593D

 36 35  0  0  1  0  0  0  0  0999 V2000
   -2.0790   -3.2460   -1.8590 C   0  0  0  0  0  0  0  0  0  0  0  0
   -1.5180   -3.9980   -0.6480 C   0  0  2  0  0  0  0  0  0  0  0  0
   -2.6270   -4.7770   -0.1020 N   0  0  0  0  0  0  0  0  0  0  0  0
   -1.1190   -3.0280    0.4150 C   0  0  0  0  0  0  0  0  0  0  0  0
   -1.6880   -2.9670    1.5340 O   0  0  0  0  0  0  0  0  0  0  0  0
   -1.3600   -3.3120   -2.7270 H   0  0  0  0  0  0  0  0  0  0  0  0
   -2.1770   -2.1780   -1.5720 H   0  0  0  0  0  0  0  0  0  0  0  0
   -3.0760   -3.6330   -2.1520 H   0  0  0  0  0  0  0  0  0  0  0  0
   -0.7000   -4.6440   -0.9740 H   0  0  0  0  0  0  0  0  0  0  0  0
   -2.2610   -5.6280    0.4190 H   0  0  0  0  0  0  0  0  0  0  0  0
   -3.2630   -4.2070    0.4660 H   0  0  0  0  0  0  0  0  0  0  0  0
    4.1040   -1.4310    0.8550 N   0  0  0  0  0  0  0  0  0  0  0  0
    2.7270   -1.2300    0.5760 C   0  0  0  0  0  0  0  0  0  0  0  0
    2.4130   -0.9300   -0.5990 O   0  0  0  0  0  0  0  0  0  0  0  0
    1.7690   -1.3910    1.6970 C   0  0  0  0  0  0  0  0  0  0  0  0
    0.3390   -1.1570    1.2450 C   0  0  2  0  0  0  0  0  0  0  0  0
   -0.0440   -2.0970    0.2100 N   0  0  0  0  0  0  0  0  0  0  0  0
    0.1590    0.2160    0.7090 C   0  0  0  0  0  0  0  0  0  0  0  0
   -0.2660    0.4160   -0.4740 O   0  0  0  0  0  0  0  0  0  0  0  0
    4.6010   -0.6870    1.3890 H   0  0  0  0  0  0  0  0  0  0  0  0
    4.6480   -2.2690    0.5620 H   0  0  0  0  0  0  0  0  0  0  0  0
    2.0760   -0.7100    2.4900 H   0  0  0  0  0  0  0  0  0  0  0  0
    1.8400   -2.4250    2.1180 H   0  0  0  0  0  0  0  0  0  0  0  0
   -0.2940   -1.2650    2.1520 H   0  0  0  0  0  0  0  0  0  0  0  0
    0.4320   -2.1390   -0.7120 H   0  0  0  0  0  0  0  0  0  0  0  0
   -0.7640    3.5020    1.7160 C   0  0  0  0  0  0  0  0  0  0  0  0
    0.2650    2.7330    0.9310 C   0  0  2  0  0  0  0  0  0  0  0  0
    0.4450    1.3820    1.4680 N   0  0  0  0  0  0  0  0  0  0  0  0
    1.5580    3.4350    0.8630 C   0  0  0  0  0  0  0  0  0  0  0  0
    1.6060    4.6020    0.4310 O   0  0  0  0  0  0  0  0  0  0  0  0
    2.7080    2.8070    1.2750 O   0  0  0  0  0  0  0  0  0  0  0  0
   -0.3380    4.4190    2.1870 H   0  0  0  0  0  0  0  0  0  0  0  0
   -1.1290    2.8510    2.5190 H   0  0  0  0  0  0  0  0  0  0  0  0
   -1.6230    3.8360    1.1150 H   0  0  0  0  0  0  0  0  0  0  0  0
   -0.1100    2.6200   -0.1010 H   0  0  0  0  0  0  0  0  0  0  0  0
    0.7950    1.2470    2.4400 H   0  0  0  0  0  0  0  0  0  0  0  0
  1  7  1  0  0  0  0
  1  2  1  0  0  0  0
  2  9  1  6  0  0  0
  2  3  1  0  0  0  0
  2  4  1  0  0  0  0
  3 10  1  0  0  0  0
  3 11  1  0  0  0  0
  4  5  2  0  0  0  0
  6  1  1  0  0  0  0
  8  1  1  0  0  0  0
 12 20  1  0  0  0  0
 13 12  1  0  0  0  0
 13 15  1  0  0  0  0
 14 13  2  0  0  0  0
 15 23  1  0  0  0  0
 15 22  1  0  0  0  0
 16 15  1  0  0  0  0
 16 24  1  1  0  0  0
 17  4  1  0  0  0  0
 17 16  1  0  0  0  0
 18 16  1  0  0  0  0
 18 28  1  0  0  0  0
 19 18  2  0  0  0  0
 21 12  1  0  0  0  0
 25 17  1  0  0  0  0
 26 32  1  0  0  0  0
 26 33  1  0  0  0  0
 27 35  1  6  0  0  0
 27 28  1  0  0  0  0
 27 26  1  0  0  0  0
 28 36  1  0  0  0  0
 29 27  1  0  0  0  0
 29 31  1  0  0  0  0
 30 29  2  0  0  0  0
 34 26  1  0  0  0  0
M  END
$$$$
