AND.pdb
 OpenBabel07022417593D

 39 38  0  0  1  0  0  0  0  0999 V2000
    2.7180   -3.2070   -2.1320 C   0  0  0  0  0  0  0  0  0  0  0  0
    2.4000   -2.0370   -1.2450 C   0  0  2  0  0  0  0  0  0  0  0  0
    2.4530   -2.5500    0.1320 N   0  0  0  0  0  0  0  0  0  0  0  0
    1.0950   -1.4130   -1.5030 C   0  0  0  0  0  0  0  0  0  0  0  0
    0.7710   -0.8850   -2.5920 O   0  0  0  0  0  0  0  0  0  0  0  0
    2.8880   -2.9340   -3.1700 H   0  0  0  0  0  0  0  0  0  0  0  0
    3.5980   -3.7250   -1.6620 H   0  0  0  0  0  0  0  0  0  0  0  0
    1.8800   -3.9380   -2.0130 H   0  0  0  0  0  0  0  0  0  0  0  0
    3.2280   -1.3090   -1.3340 H   0  0  0  0  0  0  0  0  0  0  0  0
    1.9650   -3.4550    0.1640 H   0  0  0  0  0  0  0  0  0  0  0  0
    3.4130   -2.5350    0.5210 H   0  0  0  0  0  0  0  0  0  0  0  0
   -1.5570   -2.1880    2.1100 N   0  0  0  0  0  0  0  0  0  0  0  0
   -2.4890   -2.2730    1.0430 C   0  0  0  0  0  0  0  0  0  0  0  0
   -3.5180   -2.9910    1.3200 O   0  0  0  0  0  0  0  0  0  0  0  0
   -2.3610   -1.6360   -0.2730 C   0  0  0  0  0  0  0  0  0  0  0  0
   -1.1710   -0.8320   -0.5360 C   0  0  2  0  0  0  0  0  0  0  0  0
    0.1240   -1.3880   -0.4770 N   0  0  0  0  0  0  0  0  0  0  0  0
   -1.1820    0.3840    0.3580 C   0  0  0  0  0  0  0  0  0  0  0  0
   -2.2500    0.9830    0.6440 O   0  0  0  0  0  0  0  0  0  0  0  0
   -1.5820   -1.4090    2.8180 H   0  0  0  0  0  0  0  0  0  0  0  0
   -0.8210   -2.9260    2.1990 H   0  0  0  0  0  0  0  0  0  0  0  0
   -3.2360   -0.9020   -0.3210 H   0  0  0  0  0  0  0  0  0  0  0  0
   -2.6420   -2.3430   -1.1050 H   0  0  0  0  0  0  0  0  0  0  0  0
   -1.3120   -0.4110   -1.5990 H   0  0  0  0  0  0  0  0  0  0  0  0
    0.3950   -1.8400    0.4510 H   0  0  0  0  0  0  0  0  0  0  0  0
    0.0190    0.9160    0.9170 N   0  0  0  0  0  0  0  0  0  0  0  0
    0.0130    2.0870    1.7760 C   0  0  1  0  0  0  0  0  0  0  0  0
    0.9450    1.8830    2.9100 C   0  0  0  0  0  0  0  0  0  0  0  0
    0.6410    0.7300    3.7720 C   0  0  0  0  0  0  0  0  0  0  0  0
    0.8700   -0.4240    3.3470 O   0  0  0  0  0  0  0  0  0  0  0  0
    0.3600    3.3070    0.9820 C   0  0  0  0  0  0  0  0  0  0  0  0
    0.6000    3.1680   -0.2360 O   0  0  0  0  0  0  0  0  0  0  0  0
    0.1110    0.8810    5.0360 O   0  0  0  0  0  0  0  0  0  0  0  0
    0.4050    4.5400    1.6050 O   0  0  0  0  0  0  0  0  0  0  0  0
    0.9000    0.4260    0.6810 H   0  0  0  0  0  0  0  0  0  0  0  0
   -1.0390    2.1880    2.1370 H   0  0  0  0  0  0  0  0  0  0  0  0
    2.0010    1.7520    2.5700 H   0  0  0  0  0  0  0  0  0  0  0  0
    0.9490    2.8160    3.5380 H   0  0  0  0  0  0  0  0  0  0  0  0
    0.3360    0.2260    5.8020 H   0  0  0  0  0  0  0  0  0  0  0  0
  1  8  1  0  0  0  0
  1  7  1  0  0  0  0
  1  2  1  0  0  0  0
  2  9  1  6  0  0  0
  2  3  1  0  0  0  0
  3 10  1  0  0  0  0
  3 11  1  0  0  0  0
  4  2  1  0  0  0  0
  4 17  1  0  0  0  0
  5  4  2  0  0  0  0
  6  1  1  0  0  0  0
 12 21  1  0  0  0  0
 12 20  1  0  0  0  0
 13 14  2  0  0  0  0
 13 12  1  0  0  0  0
 15 13  1  0  0  0  0
 16 24  1  6  0  0  0
 16 17  1  0  0  0  0
 16 15  1  0  0  0  0
 16 18  1  0  0  0  0
 17 25  1  0  0  0  0
 18 19  2  0  0  0  0
 18 26  1  0  0  0  0
 22 15  1  0  0  0  0
 23 15  1  0  0  0  0
 26 27  1  0  0  0  0
 27 36  1  1  0  0  0
 27 28  1  0  0  0  0
 28 38  1  0  0  0  0
 28 29  1  0  0  0  0
 29 33  1  0  0  0  0
 30 29  2  0  0  0  0
 31 34  1  0  0  0  0
 31 27  1  0  0  0  0
 32 31  2  0  0  0  0
 33 39  1  0  0  0  0
 35 26  1  0  0  0  0
 37 28  1  0  0  0  0
M  END
$$$$
