ANE.pdb
 OpenBabel07022417593D

 42 41  0  0  1  0  0  0  0  0999 V2000
    0.6050   -4.9390   -0.5490 C   0  0  0  0  0  0  0  0  0  0  0  0
    1.3450   -3.7200   -0.0010 C   0  0  2  0  0  0  0  0  0  0  0  0
    0.7750   -3.5010    1.3260 N   0  0  0  0  0  0  0  0  0  0  0  0
    1.0650   -2.5260   -0.8450 C   0  0  0  0  0  0  0  0  0  0  0  0
    1.5700   -2.4260   -1.9960 O   0  0  0  0  0  0  0  0  0  0  0  0
    1.0990   -5.8240   -0.1090 H   0  0  0  0  0  0  0  0  0  0  0  0
   -0.4350   -4.9330   -0.1570 H   0  0  0  0  0  0  0  0  0  0  0  0
    0.6760   -4.9480   -1.6370 H   0  0  0  0  0  0  0  0  0  0  0  0
    2.4030   -3.9350    0.1140 H   0  0  0  0  0  0  0  0  0  0  0  0
    1.4770   -3.6280    2.0730 H   0  0  0  0  0  0  0  0  0  0  0  0
   -0.1170   -3.9930    1.4710 H   0  0  0  0  0  0  0  0  0  0  0  0
   -3.5260   -1.1750   -0.3700 N   0  0  0  0  0  0  0  0  0  0  0  0
   -2.5520   -0.1710   -0.5450 C   0  0  0  0  0  0  0  0  0  0  0  0
   -2.5980    0.8220    0.2620 O   0  0  0  0  0  0  0  0  0  0  0  0
   -1.5110   -0.1840   -1.5670 C   0  0  0  0  0  0  0  0  0  0  0  0
   -0.1030   -0.3040   -1.0970 C   0  0  2  0  0  0  0  0  0  0  0  0
    0.2160   -1.4810   -0.3550 N   0  0  0  0  0  0  0  0  0  0  0  0
    0.4450    0.8880   -0.4240 C   0  0  0  0  0  0  0  0  0  0  0  0
    0.2120    1.9970   -0.9470 O   0  0  0  0  0  0  0  0  0  0  0  0
   -3.4230   -2.0740   -0.8650 H   0  0  0  0  0  0  0  0  0  0  0  0
   -4.3350   -1.0180    0.2450 H   0  0  0  0  0  0  0  0  0  0  0  0
   -1.5870    0.7380   -2.1740 H   0  0  0  0  0  0  0  0  0  0  0  0
   -1.6870   -1.0280   -2.2910 H   0  0  0  0  0  0  0  0  0  0  0  0
    0.5120   -0.3910   -2.0600 H   0  0  0  0  0  0  0  0  0  0  0  0
   -0.1750   -1.6190    0.5980 H   0  0  0  0  0  0  0  0  0  0  0  0
    1.2140    0.8570    0.7630 N   0  0  0  0  0  0  0  0  0  0  0  0
    1.7590    1.9870    1.4230 C   0  0  1  0  0  0  0  0  0  0  0  0
    0.9890    2.4550    2.5830 C   0  0  0  0  0  0  0  0  0  0  0  0
    0.7310    1.6040    3.7440 C   0  0  0  0  0  0  0  0  0  0  0  0
   -0.0890    0.4200    3.6130 C   0  0  0  0  0  0  0  0  0  0  0  0
   -0.7350    0.1440    2.5910 O   0  0  0  0  0  0  0  0  0  0  0  0
    3.2150    1.9210    1.6310 C   0  0  0  0  0  0  0  0  0  0  0  0
    3.8550    0.9240    1.2440 O   0  0  0  0  0  0  0  0  0  0  0  0
   -0.1850   -0.4830    4.6700 O   0  0  0  0  0  0  0  0  0  0  0  0
    3.8930    2.9400    2.2470 O   0  0  0  0  0  0  0  0  0  0  0  0
    1.4160   -0.0990    1.1630 H   0  0  0  0  0  0  0  0  0  0  0  0
    1.6380    2.8410    0.6500 H   0  0  0  0  0  0  0  0  0  0  0  0
    1.4690    3.4100    2.9500 H   0  0  0  0  0  0  0  0  0  0  0  0
   -0.0040    2.8430    2.1730 H   0  0  0  0  0  0  0  0  0  0  0  0
    1.7150    1.3450    4.2670 H   0  0  0  0  0  0  0  0  0  0  0  0
    0.2660    2.2860    4.5390 H   0  0  0  0  0  0  0  0  0  0  0  0
   -0.4190   -1.4560    4.4450 H   0  0  0  0  0  0  0  0  0  0  0  0
  1  7  1  0  0  0  0
  1  6  1  0  0  0  0
  1  2  1  0  0  0  0
  2  9  1  1  0  0  0
  2  3  1  0  0  0  0
  3 11  1  0  0  0  0
  3 10  1  0  0  0  0
  4 17  1  0  0  0  0
  4  2  1  0  0  0  0
  5  4  2  0  0  0  0
  8  1  1  0  0  0  0
 12 21  1  0  0  0  0
 13 12  1  0  0  0  0
 13 14  2  0  0  0  0
 15 16  1  0  0  0  0
 15 13  1  0  0  0  0
 16 24  1  6  0  0  0
 16 18  1  0  0  0  0
 16 17  1  0  0  0  0
 17 25  1  0  0  0  0
 18 26  1  0  0  0  0
 19 18  2  0  0  0  0
 20 12  1  0  0  0  0
 22 15  1  0  0  0  0
 23 15  1  0  0  0  0
 26 36  1  0  0  0  0
 26 27  1  0  0  0  0
 27 37  1  6  0  0  0
 27 32  1  0  0  0  0
 27 28  1  0  0  0  0
 28 38  1  0  0  0  0
 28 29  1  0  0  0  0
 29 40  1  0  0  0  0
 29 41  1  0  0  0  0
 30 29  1  0  0  0  0
 30 34  1  0  0  0  0
 31 30  2  0  0  0  0
 32 35  1  0  0  0  0
 33 32  2  0  0  0  0
 39 28  1  0  0  0  0
 42 34  1  0  0  0  0
M  END
$$$$
