ANF.pdb
 OpenBabel07022417593D

 46 46  0  0  1  0  0  0  0  0999 V2000
    1.6690   -3.4050    2.6300 C   0  0  0  0  0  0  0  0  0  0  0  0
    1.7470   -2.3670    3.7260 C   0  0  2  0  0  0  0  0  0  0  0  0
    0.9850   -2.8520    4.8550 N   0  0  0  0  0  0  0  0  0  0  0  0
    1.1980   -1.0620    3.2950 C   0  0  0  0  0  0  0  0  0  0  0  0
    0.2330   -0.5660    3.8900 O   0  0  0  0  0  0  0  0  0  0  0  0
    0.6000   -3.4390    2.2990 H   0  0  0  0  0  0  0  0  0  0  0  0
    2.3550   -3.1850    1.7900 H   0  0  0  0  0  0  0  0  0  0  0  0
    1.8990   -4.3870    3.0670 H   0  0  0  0  0  0  0  0  0  0  0  0
    2.7940   -2.2420    4.0710 H   0  0  0  0  0  0  0  0  0  0  0  0
   -0.0380   -2.8070    4.6530 H   0  0  0  0  0  0  0  0  0  0  0  0
    1.1610   -2.3150    5.7190 H   0  0  0  0  0  0  0  0  0  0  0  0
    1.1480    4.2220    2.4040 N   0  0  0  0  0  0  0  0  0  0  0  0
    1.7070    3.3490    1.4230 C   0  0  0  0  0  0  0  0  0  0  0  0
    1.7350    3.7660    0.2470 O   0  0  0  0  0  0  0  0  0  0  0  0
    2.2070    2.0430    1.8320 C   0  0  0  0  0  0  0  0  0  0  0  0
    1.1970    0.9510    1.7820 C   0  0  2  0  0  0  0  0  0  0  0  0
    1.7410   -0.3290    2.1990 N   0  0  0  0  0  0  0  0  0  0  0  0
    0.6640    0.8130    0.3780 C   0  0  0  0  0  0  0  0  0  0  0  0
    0.1240    1.7830   -0.2070 O   0  0  0  0  0  0  0  0  0  0  0  0
    1.7040    4.9740    2.8650 H   0  0  0  0  0  0  0  0  0  0  0  0
    0.1530    4.1200    2.6810 H   0  0  0  0  0  0  0  0  0  0  0  0
    2.5530    2.1310    2.9050 H   0  0  0  0  0  0  0  0  0  0  0  0
    3.0720    1.7520    1.1950 H   0  0  0  0  0  0  0  0  0  0  0  0
    0.3650    1.2070    2.4700 H   0  0  0  0  0  0  0  0  0  0  0  0
    2.5550   -0.7520    1.7060 H   0  0  0  0  0  0  0  0  0  0  0  0
    0.7530   -0.4190   -0.3330 N   0  0  0  0  0  0  0  0  0  0  0  0
    0.2830   -0.6780   -1.6540 C   0  0  1  0  0  0  0  0  0  0  0  0
   -1.1450   -0.2380   -1.9320 C   0  0  0  0  0  0  0  0  0  0  0  0
   -2.1370   -0.9020   -1.0650 C   0  0  0  0  0  0  0  0  0  0  0  0
   -2.6840   -2.1330   -1.4640 C   0  0  0  0  0  0  0  0  0  0  0  0
   -3.6180   -2.7740   -0.6810 C   0  0  0  0  0  0  0  0  0  0  0  0
   -4.0630   -2.2600    0.5160 C   0  0  0  0  0  0  0  0  0  0  0  0
   -3.5300   -1.0540    0.9120 C   0  0  0  0  0  0  0  0  0  0  0  0
   -2.5860   -0.3970    0.1290 C   0  0  0  0  0  0  0  0  0  0  0  0
    1.2030   -0.2250   -2.7220 C   0  0  0  0  0  0  0  0  0  0  0  0
    2.2760    0.3280   -2.3670 O   0  0  0  0  0  0  0  0  0  0  0  0
    0.9590   -0.3690   -4.0590 O   0  0  0  0  0  0  0  0  0  0  0  0
    1.2340   -1.1940    0.2370 H   0  0  0  0  0  0  0  0  0  0  0  0
    0.2150   -1.8240   -1.7170 H   0  0  0  0  0  0  0  0  0  0  0  0
   -1.3820   -0.4520   -3.0080 H   0  0  0  0  0  0  0  0  0  0  0  0
   -1.1950    0.8510   -1.7870 H   0  0  0  0  0  0  0  0  0  0  0  0
   -2.3300   -2.5320   -2.4060 H   0  0  0  0  0  0  0  0  0  0  0  0
   -4.0360   -3.7200   -0.9920 H   0  0  0  0  0  0  0  0  0  0  0  0
   -4.7970   -2.8050    1.0920 H   0  0  0  0  0  0  0  0  0  0  0  0
   -3.8650   -0.6340    1.8450 H   0  0  0  0  0  0  0  0  0  0  0  0
   -2.1970    0.5480    0.4720 H   0  0  0  0  0  0  0  0  0  0  0  0
  1  8  1  0  0  0  0
  1  2  1  0  0  0  0
  2  9  1  1  0  0  0
  2  3  1  0  0  0  0
  3 11  1  0  0  0  0
  4  2  1  0  0  0  0
  4  5  2  0  0  0  0
  6  1  1  0  0  0  0
  7  1  1  0  0  0  0
 10  3  1  0  0  0  0
 12 21  1  0  0  0  0
 12 20  1  0  0  0  0
 13 15  1  0  0  0  0
 13 12  1  0  0  0  0
 14 13  2  0  0  0  0
 15 22  1  0  0  0  0
 16 15  1  0  0  0  0
 16 17  1  0  0  0  0
 16 24  1  1  0  0  0
 17  4  1  0  0  0  0
 18 16  1  0  0  0  0
 19 18  2  0  0  0  0
 23 15  1  0  0  0  0
 25 17  1  0  0  0  0
 26 38  1  0  0  0  0
 26 18  1  0  0  0  0
 27 39  1  6  0  0  0
 27 26  1  0  0  0  0
 28 41  1  0  0  0  0
 28 27  1  0  0  0  0
 28 29  1  0  0  0  0
 29 34  1  0  0  0  0
 30 29  2  0  0  0  0
 30 31  1  0  0  0  0
 31 32  2  0  0  0  0
 32 33  1  0  0  0  0
 32 44  1  0  0  0  0
 33 45  1  0  0  0  0
 34 46  1  0  0  0  0
 34 33  2  0  0  0  0
 35 36  1  0  0  0  0
 35 27  1  0  0  0  0
 37 35  2  0  0  0  0
 40 28  1  0  0  0  0
 42 30  1  0  0  0  0
 43 31  1  0  0  0  0
M  END
$$$$
