ANG.pdb
 OpenBabel07022417593D

 33 32  0  0  1  0  0  0  0  0999 V2000
   -0.7880   -0.8090    3.3050 C   0  0  0  0  0  0  0  0  0  0  0  0
    0.2140   -1.8590    2.8790 C   0  0  2  0  0  0  0  0  0  0  0  0
    1.1500   -2.0610    3.9560 N   0  0  0  0  0  0  0  0  0  0  0  0
    0.8970   -1.4060    1.6400 C   0  0  0  0  0  0  0  0  0  0  0  0
    2.1450   -1.2530    1.6560 O   0  0  0  0  0  0  0  0  0  0  0  0
   -0.2960    0.1500    3.5290 H   0  0  0  0  0  0  0  0  0  0  0  0
   -1.5190   -0.6930    2.4780 H   0  0  0  0  0  0  0  0  0  0  0  0
   -1.3620   -1.2230    4.1640 H   0  0  0  0  0  0  0  0  0  0  0  0
   -0.3090   -2.8090    2.6950 H   0  0  0  0  0  0  0  0  0  0  0  0
    1.7750   -2.8750    3.8190 H   0  0  0  0  0  0  0  0  0  0  0  0
    1.7000   -1.1850    4.1010 H   0  0  0  0  0  0  0  0  0  0  0  0
    0.7450   -3.9700   -2.6470 N   0  0  0  0  0  0  0  0  0  0  0  0
    0.9430   -2.9750   -1.6210 C   0  0  0  0  0  0  0  0  0  0  0  0
    1.5330   -3.2990   -0.5650 O   0  0  0  0  0  0  0  0  0  0  0  0
    0.4170   -1.6220   -1.9120 C   0  0  0  0  0  0  0  0  0  0  0  0
    0.7090   -0.7220   -0.7470 C   0  0  2  0  0  0  0  0  0  0  0  0
    0.1210   -1.1580    0.4770 N   0  0  0  0  0  0  0  0  0  0  0  0
    0.3550    0.6920   -1.0160 C   0  0  0  0  0  0  0  0  0  0  0  0
    0.7290    1.3440   -2.0210 O   0  0  0  0  0  0  0  0  0  0  0  0
    0.5900   -4.9670   -2.3600 H   0  0  0  0  0  0  0  0  0  0  0  0
    0.7590   -3.6970   -3.6400 H   0  0  0  0  0  0  0  0  0  0  0  0
   -0.6580   -1.6850   -2.1570 H   0  0  0  0  0  0  0  0  0  0  0  0
    0.9250   -1.2770   -2.8360 H   0  0  0  0  0  0  0  0  0  0  0  0
    1.8320   -0.7030   -0.6200 H   0  0  0  0  0  0  0  0  0  0  0  0
   -0.9280   -1.3020    0.5230 H   0  0  0  0  0  0  0  0  0  0  0  0
   -0.4660    1.3570   -0.0710 N   0  0  0  0  0  0  0  0  0  0  0  0
   -0.8660    2.7450   -0.2490 C   0  0  0  0  0  0  0  0  0  0  0  0
   -1.7130    3.2090    0.8610 C   0  0  0  0  0  0  0  0  0  0  0  0
   -2.1430    4.3750    0.8650 O   0  0  0  0  0  0  0  0  0  0  0  0
   -2.0260    2.3530    1.8890 O   0  0  0  0  0  0  0  0  0  0  0  0
   -0.8140    0.8690    0.7930 H   0  0  0  0  0  0  0  0  0  0  0  0
    0.0310    3.4090   -0.2850 H   0  0  0  0  0  0  0  0  0  0  0  0
   -1.3660    2.8220   -1.2440 H   0  0  0  0  0  0  0  0  0  0  0  0
  1  6  1  0  0  0  0
  1  8  1  0  0  0  0
  2  9  1  6  0  0  0
  2  1  1  0  0  0  0
  2  3  1  0  0  0  0
  3 11  1  0  0  0  0
  4  5  2  0  0  0  0
  4  2  1  0  0  0  0
  7  1  1  0  0  0  0
 10  3  1  0  0  0  0
 12 20  1  0  0  0  0
 12 13  1  0  0  0  0
 13 14  2  0  0  0  0
 15 13  1  0  0  0  0
 15 16  1  0  0  0  0
 16 24  1  1  0  0  0
 16 17  1  0  0  0  0
 17 25  1  0  0  0  0
 17  4  1  0  0  0  0
 18 16  1  0  0  0  0
 18 26  1  0  0  0  0
 19 18  2  0  0  0  0
 21 12  1  0  0  0  0
 22 15  1  0  0  0  0
 23 15  1  0  0  0  0
 26 31  1  0  0  0  0
 27 26  1  0  0  0  0
 27 28  1  0  0  0  0
 28 29  2  0  0  0  0
 28 30  1  0  0  0  0
 32 27  1  0  0  0  0
 33 27  1  0  0  0  0
M  END
$$$$
