ANH.pdb
 OpenBabel07022417593D

 43 43  0  0  1  0  0  0  0  0999 V2000
    3.4050   -2.0910    2.0560 C   0  0  0  0  0  0  0  0  0  0  0  0
    3.8930   -2.1650    0.6280 C   0  0  2  0  0  0  0  0  0  0  0  0
    5.3230   -2.0950    0.6070 N   0  0  0  0  0  0  0  0  0  0  0  0
    3.2400   -1.1470   -0.2010 C   0  0  0  0  0  0  0  0  0  0  0  0
    3.9360   -0.3610   -0.8780 O   0  0  0  0  0  0  0  0  0  0  0  0
    3.6200   -1.0800    2.4520 H   0  0  0  0  0  0  0  0  0  0  0  0
    2.3290   -2.3420    2.0880 H   0  0  0  0  0  0  0  0  0  0  0  0
    3.9870   -2.8140    2.6430 H   0  0  0  0  0  0  0  0  0  0  0  0
    3.6120   -3.1990    0.2710 H   0  0  0  0  0  0  0  0  0  0  0  0
    5.7110   -2.4940    1.5080 H   0  0  0  0  0  0  0  0  0  0  0  0
    5.7230   -1.1670    0.4320 H   0  0  0  0  0  0  0  0  0  0  0  0
   -1.7660   -2.1900   -2.3230 N   0  0  0  0  0  0  0  0  0  0  0  0
   -0.8020   -1.5830   -1.4460 C   0  0  0  0  0  0  0  0  0  0  0  0
   -0.8990   -1.8190   -0.2350 O   0  0  0  0  0  0  0  0  0  0  0  0
    0.2330   -0.7260   -2.0430 C   0  0  0  0  0  0  0  0  0  0  0  0
    1.1410   -0.0500   -1.0510 C   0  0  2  0  0  0  0  0  0  0  0  0
    1.8070   -1.0470   -0.2390 N   0  0  0  0  0  0  0  0  0  0  0  0
    0.3950    0.8740   -0.1850 C   0  0  0  0  0  0  0  0  0  0  0  0
   -0.1810    1.8550   -0.6880 O   0  0  0  0  0  0  0  0  0  0  0  0
   -1.7400   -3.1910   -2.5490 H   0  0  0  0  0  0  0  0  0  0  0  0
   -2.5190   -1.6050   -2.7470 H   0  0  0  0  0  0  0  0  0  0  0  0
    0.8550   -1.3540   -2.7370 H   0  0  0  0  0  0  0  0  0  0  0  0
   -0.2440    0.0580   -2.7050 H   0  0  0  0  0  0  0  0  0  0  0  0
    1.9470    0.5260   -1.6220 H   0  0  0  0  0  0  0  0  0  0  0  0
    1.3070   -1.7300    0.3480 H   0  0  0  0  0  0  0  0  0  0  0  0
    0.3250    0.6700    1.2010 N   0  0  0  0  0  0  0  0  0  0  0  0
   -0.3240    1.4710    2.1780 C   0  0  1  0  0  0  0  0  0  0  0  0
   -1.3980    0.7460    2.8840 C   0  0  0  0  0  0  0  0  0  0  0  0
   -2.4660    0.3460    1.9420 C   0  0  0  0  0  0  0  0  0  0  0  0
   -3.6280   -0.3820    2.2850 C   0  0  0  0  0  0  0  0  0  0  0  0
   -4.3730   -0.5660    1.1930 N   0  0  0  0  0  0  0  0  0  0  0  0
   -3.7530    0.0080    0.1580 C   0  0  0  0  0  0  0  0  0  0  0  0
   -2.6190    0.5450    0.6290 N   0  0  0  0  0  0  0  0  0  0  0  0
    0.6190    2.1770    3.0760 C   0  0  0  0  0  0  0  0  0  0  0  0
    0.1580    2.9030    3.9730 O   0  0  0  0  0  0  0  0  0  0  0  0
    1.9780    2.0490    2.9420 O   0  0  0  0  0  0  0  0  0  0  0  0
    0.8220   -0.1940    1.5770 H   0  0  0  0  0  0  0  0  0  0  0  0
   -0.8400    2.3050    1.5940 H   0  0  0  0  0  0  0  0  0  0  0  0
   -1.8200    1.3380    3.7460 H   0  0  0  0  0  0  0  0  0  0  0  0
   -1.0220   -0.1920    3.3890 H   0  0  0  0  0  0  0  0  0  0  0  0
   -3.8680   -0.7290    3.2610 H   0  0  0  0  0  0  0  0  0  0  0  0
   -5.2890   -1.0610    1.0980 H   0  0  0  0  0  0  0  0  0  0  0  0
   -4.0650    0.0550   -0.8750 H   0  0  0  0  0  0  0  0  0  0  0  0
  1  7  1  0  0  0  0
  1  6  1  0  0  0  0
  1  8  1  0  0  0  0
  2  9  1  6  0  0  0
  2  1  1  0  0  0  0
  3  2  1  0  0  0  0
  3 10  1  0  0  0  0
  4  2  1  0  0  0  0
  5  4  2  0  0  0  0
 11  3  1  0  0  0  0
 12 13  1  0  0  0  0
 13 14  2  0  0  0  0
 15 13  1  0  0  0  0
 15 16  1  0  0  0  0
 16 24  1  6  0  0  0
 16 17  1  0  0  0  0
 16 18  1  0  0  0  0
 17  4  1  0  0  0  0
 17 25  1  0  0  0  0
 18 26  1  0  0  0  0
 19 18  2  0  0  0  0
 20 12  1  0  0  0  0
 21 12  1  0  0  0  0
 22 15  1  0  0  0  0
 23 15  1  0  0  0  0
 26 37  1  0  0  0  0
 26 27  1  0  0  0  0
 27 38  1  6  0  0  0
 27 28  1  0  0  0  0
 27 34  1  0  0  0  0
 28 40  1  0  0  0  0
 28 39  1  0  0  0  0
 29 30  2  0  0  0  0
 29 28  1  0  0  0  0
 30 41  1  0  0  0  0
 31 30  1  0  0  0  0
 32 33  2  0  0  0  0
 32 31  1  0  0  0  0
 33 29  1  0  0  0  0
 34 35  1  0  0  0  0
 36 34  2  0  0  0  0
 42 31  1  0  0  0  0
 43 32  1  0  0  0  0
M  END
$$$$
