ANI.pdb
 OpenBabel07022417593D

 45 44  0  0  1  0  0  0  0  0999 V2000
    1.9870   -5.4000   -1.0000 C   0  0  0  0  0  0  0  0  0  0  0  0
    0.7360   -4.7120   -0.4650 C   0  0  2  0  0  0  0  0  0  0  0  0
   -0.3040   -4.6540   -1.4500 N   0  0  0  0  0  0  0  0  0  0  0  0
    1.0640   -3.3270   -0.0290 C   0  0  0  0  0  0  0  0  0  0  0  0
    1.9480   -3.1510    0.8280 O   0  0  0  0  0  0  0  0  0  0  0  0
    2.0850   -5.0830   -2.0710 H   0  0  0  0  0  0  0  0  0  0  0  0
    1.7840   -6.5020   -1.0510 H   0  0  0  0  0  0  0  0  0  0  0  0
    2.8650   -5.1800   -0.3970 H   0  0  0  0  0  0  0  0  0  0  0  0
    0.3940   -5.2970    0.3900 H   0  0  0  0  0  0  0  0  0  0  0  0
   -1.2440   -4.6670   -0.9530 H   0  0  0  0  0  0  0  0  0  0  0  0
   -0.3330   -5.4870   -2.0840 H   0  0  0  0  0  0  0  0  0  0  0  0
    2.8550   -1.6200   -1.7250 N   0  0  0  0  0  0  0  0  0  0  0  0
    2.1080   -0.4900   -2.1560 C   0  0  0  0  0  0  0  0  0  0  0  0
    2.5150    0.1010   -3.2150 O   0  0  0  0  0  0  0  0  0  0  0  0
    0.9100    0.0070   -1.4390 C   0  0  0  0  0  0  0  0  0  0  0  0
    0.6240   -0.8460   -0.2290 C   0  0  2  0  0  0  0  0  0  0  0  0
    0.3810   -2.2090   -0.5780 N   0  0  0  0  0  0  0  0  0  0  0  0
   -0.4830   -0.2630    0.5840 C   0  0  0  0  0  0  0  0  0  0  0  0
   -1.4520   -0.9950    0.8560 O   0  0  0  0  0  0  0  0  0  0  0  0
    3.4380   -1.5490   -0.8490 H   0  0  0  0  0  0  0  0  0  0  0  0
    2.8640   -2.5240   -2.2260 H   0  0  0  0  0  0  0  0  0  0  0  0
    0.0470   -0.0540   -2.1660 H   0  0  0  0  0  0  0  0  0  0  0  0
    1.0740    1.0750   -1.1580 H   0  0  0  0  0  0  0  0  0  0  0  0
    1.5350   -0.8280    0.4220 H   0  0  0  0  0  0  0  0  0  0  0  0
   -0.3540   -2.4120   -1.2910 H   0  0  0  0  0  0  0  0  0  0  0  0
    1.2170    2.4700    3.1450 C   0  0  0  0  0  0  0  0  0  0  0  0
   -0.1780    2.8750    3.4690 C   0  0  0  0  0  0  0  0  0  0  0  0
   -1.2350    1.8550    3.2550 C   0  0  2  0  0  0  0  0  0  0  0  0
   -1.0520    0.5910    4.0570 C   0  0  0  0  0  0  0  0  0  0  0  0
   -1.5830    1.5540    1.8290 C   0  0  2  0  0  0  0  0  0  0  0  0
   -0.4910    1.0620    1.0560 N   0  0  0  0  0  0  0  0  0  0  0  0
   -2.2980    2.6820    1.1830 C   0  0  0  0  0  0  0  0  0  0  0  0
   -1.9960    3.1770    0.0710 O   0  0  0  0  0  0  0  0  0  0  0  0
   -3.3780    3.2380    1.8490 O   0  0  0  0  0  0  0  0  0  0  0  0
    1.6770    3.0330    2.2950 H   0  0  0  0  0  0  0  0  0  0  0  0
    1.3720    1.4000    2.9540 H   0  0  0  0  0  0  0  0  0  0  0  0
    1.9200    2.7040    4.0030 H   0  0  0  0  0  0  0  0  0  0  0  0
   -0.4970    3.8080    2.9570 H   0  0  0  0  0  0  0  0  0  0  0  0
   -0.2140    3.1420    4.5660 H   0  0  0  0  0  0  0  0  0  0  0  0
   -2.1820    2.3170    3.6890 H   0  0  0  0  0  0  0  0  0  0  0  0
   -1.8350   -0.1170    3.7810 H   0  0  0  0  0  0  0  0  0  0  0  0
   -0.0590    0.1420    3.9530 H   0  0  0  0  0  0  0  0  0  0  0  0
   -1.1970    0.8550    5.1340 H   0  0  0  0  0  0  0  0  0  0  0  0
   -2.3550    0.7260    1.8880 H   0  0  0  0  0  0  0  0  0  0  0  0
    0.3110    1.7240    0.8450 H   0  0  0  0  0  0  0  0  0  0  0  0
  1  2  1  0  0  0  0
  1  8  1  0  0  0  0
  2  4  1  0  0  0  0
  2  9  1  1  0  0  0
  3 10  1  0  0  0  0
  3  2  1  0  0  0  0
  4  5  2  0  0  0  0
  6  1  1  0  0  0  0
  7  1  1  0  0  0  0
 11  3  1  0  0  0  0
 12 20  1  0  0  0  0
 13 12  1  0  0  0  0
 13 15  1  0  0  0  0
 14 13  2  0  0  0  0
 15 23  1  0  0  0  0
 15 16  1  0  0  0  0
 16 24  1  1  0  0  0
 16 18  1  0  0  0  0
 17 16  1  0  0  0  0
 17  4  1  0  0  0  0
 18 19  2  0  0  0  0
 18 31  1  0  0  0  0
 21 12  1  0  0  0  0
 22 15  1  0  0  0  0
 25 17  1  0  0  0  0
 26 27  1  0  0  0  0
 26 37  1  0  0  0  0
 27 39  1  0  0  0  0
 28 27  1  0  0  0  0
 28 40  1  1  0  0  0
 28 29  1  0  0  0  0
 29 43  1  0  0  0  0
 30 44  1  1  0  0  0
 30 28  1  0  0  0  0
 31 30  1  0  0  0  0
 32 30  1  0  0  0  0
 32 34  1  0  0  0  0
 33 32  2  0  0  0  0
 35 26  1  0  0  0  0
 36 26  1  0  0  0  0
 38 27  1  0  0  0  0
 41 29  1  0  0  0  0
 42 29  1  0  0  0  0
 45 31  1  0  0  0  0
M  END
$$$$
