ANL.pdb
 OpenBabel07022417593D

 45 44  0  0  1  0  0  0  0  0999 V2000
    1.6050   -4.7740   -3.1640 C   0  0  0  0  0  0  0  0  0  0  0  0
    2.0290   -3.7870   -2.1150 C   0  0  2  0  0  0  0  0  0  0  0  0
    2.3910   -4.5410   -0.9170 N   0  0  0  0  0  0  0  0  0  0  0  0
    0.9460   -2.8330   -1.7800 C   0  0  0  0  0  0  0  0  0  0  0  0
    0.4780   -2.0840   -2.6600 O   0  0  0  0  0  0  0  0  0  0  0  0
    1.2530   -4.1850   -4.0500 H   0  0  0  0  0  0  0  0  0  0  0  0
    2.5000   -5.3720   -3.4460 H   0  0  0  0  0  0  0  0  0  0  0  0
    0.8450   -5.4740   -2.8020 H   0  0  0  0  0  0  0  0  0  0  0  0
    2.9530   -3.3010   -2.4640 H   0  0  0  0  0  0  0  0  0  0  0  0
    1.5800   -5.1880   -0.7400 H   0  0  0  0  0  0  0  0  0  0  0  0
    3.2220   -5.1300   -1.0610 H   0  0  0  0  0  0  0  0  0  0  0  0
   -0.8000   -3.4650    2.2220 N   0  0  0  0  0  0  0  0  0  0  0  0
   -1.9280   -3.1960    1.4220 C   0  0  0  0  0  0  0  0  0  0  0  0
   -3.0180   -3.7140    1.7880 O   0  0  0  0  0  0  0  0  0  0  0  0
   -1.9470   -2.3730    0.2120 C   0  0  0  0  0  0  0  0  0  0  0  0
   -0.6600   -1.7740   -0.2040 C   0  0  2  0  0  0  0  0  0  0  0  0
    0.3890   -2.7110   -0.4900 N   0  0  0  0  0  0  0  0  0  0  0  0
   -0.1280   -0.7290    0.6770 C   0  0  0  0  0  0  0  0  0  0  0  0
    1.0750   -0.8190    1.0150 O   0  0  0  0  0  0  0  0  0  0  0  0
   -0.2470   -4.3350    2.2260 H   0  0  0  0  0  0  0  0  0  0  0  0
   -0.4780   -2.7050    2.8910 H   0  0  0  0  0  0  0  0  0  0  0  0
   -2.3340   -2.9770   -0.6350 H   0  0  0  0  0  0  0  0  0  0  0  0
   -2.6800   -1.5530    0.3650 H   0  0  0  0  0  0  0  0  0  0  0  0
   -0.8790   -1.2450   -1.1710 H   0  0  0  0  0  0  0  0  0  0  0  0
    0.7360   -3.3090    0.2930 H   0  0  0  0  0  0  0  0  0  0  0  0
    0.4040    5.0870    1.7200 C   0  0  0  0  0  0  0  0  0  0  0  0
    0.4780    3.6910    2.3860 C   0  0  0  0  0  0  0  0  0  0  0  0
    1.9290    3.4170    2.6220 C   0  0  0  0  0  0  0  0  0  0  0  0
   -0.2050    2.7010    1.5210 C   0  0  0  0  0  0  0  0  0  0  0  0
   -0.1880    1.3250    2.0420 C   0  0  2  0  0  0  0  0  0  0  0  0
   -0.8550    0.3660    1.1750 N   0  0  0  0  0  0  0  0  0  0  0  0
   -0.8190    1.2670    3.3860 C   0  0  0  0  0  0  0  0  0  0  0  0
   -0.4500    1.9180    4.3880 O   0  0  0  0  0  0  0  0  0  0  0  0
   -1.9290    0.4260    3.6090 O   0  0  0  0  0  0  0  0  0  0  0  0
    0.9570    4.9960    0.7650 H   0  0  0  0  0  0  0  0  0  0  0  0
   -0.6370    5.3980    1.5950 H   0  0  0  0  0  0  0  0  0  0  0  0
    1.0060    5.7540    2.3670 H   0  0  0  0  0  0  0  0  0  0  0  0
   -0.0010    3.8610    3.3830 H   0  0  0  0  0  0  0  0  0  0  0  0
    2.3200    4.2760    3.2440 H   0  0  0  0  0  0  0  0  0  0  0  0
    2.5380    3.4300    1.7010 H   0  0  0  0  0  0  0  0  0  0  0  0
    2.1070    2.5150    3.2470 H   0  0  0  0  0  0  0  0  0  0  0  0
    0.2020    2.8200    0.4960 H   0  0  0  0  0  0  0  0  0  0  0  0
   -1.2790    3.0430    1.4200 H   0  0  0  0  0  0  0  0  0  0  0  0
    0.8670    1.0230    2.1920 H   0  0  0  0  0  0  0  0  0  0  0  0
   -1.8570    0.4880    0.9250 H   0  0  0  0  0  0  0  0  0  0  0  0
  1  8  1  0  0  0  0
  1  2  1  0  0  0  0
  2  9  1  6  0  0  0
  2  4  1  0  0  0  0
  2  3  1  0  0  0  0
  3 10  1  0  0  0  0
  4 17  1  0  0  0  0
  5  4  2  0  0  0  0
  6  1  1  0  0  0  0
  7  1  1  0  0  0  0
 11  3  1  0  0  0  0
 12 20  1  0  0  0  0
 12 21  1  0  0  0  0
 13 14  2  0  0  0  0
 13 12  1  0  0  0  0
 15 23  1  0  0  0  0
 15 13  1  0  0  0  0
 16 24  1  6  0  0  0
 16 15  1  0  0  0  0
 16 18  1  0  0  0  0
 17 16  1  0  0  0  0
 17 25  1  0  0  0  0
 18 19  2  0  0  0  0
 18 31  1  0  0  0  0
 22 15  1  0  0  0  0
 26 37  1  0  0  0  0
 26 27  1  0  0  0  0
 27 28  1  0  0  0  0
 27 38  1  0  0  0  0
 28 39  1  0  0  0  0
 28 41  1  0  0  0  0
 29 30  1  0  0  0  0
 29 27  1  0  0  0  0
 30 44  1  1  0  0  0
 30 32  1  0  0  0  0
 31 30  1  0  0  0  0
 32 34  2  0  0  0  0
 32 33  1  0  0  0  0
 35 26  1  0  0  0  0
 36 26  1  0  0  0  0
 40 28  1  0  0  0  0
 42 29  1  0  0  0  0
 43 29  1  0  0  0  0
 45 31  1  0  0  0  0
M  END
$$$$
