ANN.pdb
 OpenBabel07022417593D

 40 39  0  0  1  0  0  0  0  0999 V2000
    2.0230   -4.2280   -2.6730 C   0  0  0  0  0  0  0  0  0  0  0  0
    2.3910   -3.4370   -1.4260 C   0  0  2  0  0  0  0  0  0  0  0  0
    2.3930   -4.3270   -0.3110 N   0  0  0  0  0  0  0  0  0  0  0  0
    1.4770   -2.2880   -1.2750 C   0  0  0  0  0  0  0  0  0  0  0  0
    1.3840   -1.4500   -2.2050 O   0  0  0  0  0  0  0  0  0  0  0  0
    1.6480   -3.5530   -3.4470 H   0  0  0  0  0  0  0  0  0  0  0  0
    2.9480   -4.7620   -3.0430 H   0  0  0  0  0  0  0  0  0  0  0  0
    1.2640   -4.9790   -2.4320 H   0  0  0  0  0  0  0  0  0  0  0  0
    3.4350   -3.0870   -1.5720 H   0  0  0  0  0  0  0  0  0  0  0  0
    2.9520   -3.9960    0.5010 H   0  0  0  0  0  0  0  0  0  0  0  0
    1.4440   -4.6760   -0.0520 H   0  0  0  0  0  0  0  0  0  0  0  0
   -3.1230   -2.7530    1.5650 N   0  0  0  0  0  0  0  0  0  0  0  0
   -1.8340   -2.1870    1.3080 C   0  0  0  0  0  0  0  0  0  0  0  0
   -0.9220   -2.4010    2.1400 O   0  0  0  0  0  0  0  0  0  0  0  0
   -1.6310   -1.3770    0.0810 C   0  0  0  0  0  0  0  0  0  0  0  0
   -0.2030   -0.9100   -0.0380 C   0  0  2  0  0  0  0  0  0  0  0  0
    0.6770   -2.0680   -0.1110 N   0  0  0  0  0  0  0  0  0  0  0  0
    0.2220   -0.1130    1.1410 C   0  0  0  0  0  0  0  0  0  0  0  0
    1.1640   -0.4900    1.8510 O   0  0  0  0  0  0  0  0  0  0  0  0
   -3.9980   -2.1890    1.5160 H   0  0  0  0  0  0  0  0  0  0  0  0
   -3.2290   -3.7610    1.8110 H   0  0  0  0  0  0  0  0  0  0  0  0
   -2.3390   -0.5220    0.0470 H   0  0  0  0  0  0  0  0  0  0  0  0
   -1.8210   -2.0260   -0.7930 H   0  0  0  0  0  0  0  0  0  0  0  0
   -0.0780   -0.3230   -0.9840 H   0  0  0  0  0  0  0  0  0  0  0  0
    0.7740   -2.7790    0.6420 H   0  0  0  0  0  0  0  0  0  0  0  0
    2.8400    3.9330    1.6880 N   0  0  0  0  0  0  0  0  0  0  0  0
    1.5970    3.2990    1.4140 C   0  0  0  0  0  0  0  0  0  0  0  0
    1.4680    2.7090    0.3170 O   0  0  0  0  0  0  0  0  0  0  0  0
    0.4460    3.2900    2.3490 C   0  0  0  0  0  0  0  0  0  0  0  0
   -0.0080    1.8820    2.6560 C   0  0  2  0  0  0  0  0  0  0  0  0
   -0.4220    1.1190    1.5180 N   0  0  0  0  0  0  0  0  0  0  0  0
   -1.1110    1.9210    3.6470 C   0  0  0  0  0  0  0  0  0  0  0  0
   -2.1930    1.3440    3.3820 O   0  0  0  0  0  0  0  0  0  0  0  0
   -1.0360    2.5630    4.8740 O   0  0  0  0  0  0  0  0  0  0  0  0
    3.2380    4.5460    0.9410 H   0  0  0  0  0  0  0  0  0  0  0  0
    3.3700    3.8340    2.5630 H   0  0  0  0  0  0  0  0  0  0  0  0
   -0.3720    3.9470    2.0470 H   0  0  0  0  0  0  0  0  0  0  0  0
    0.8390    3.7170    3.3050 H   0  0  0  0  0  0  0  0  0  0  0  0
    0.8560    1.4120    3.1960 H   0  0  0  0  0  0  0  0  0  0  0  0
   -1.2050    1.4040    0.8960 H   0  0  0  0  0  0  0  0  0  0  0  0
  1  8  1  0  0  0  0
  1  2  1  0  0  0  0
  2  9  1  6  0  0  0
  2  4  1  0  0  0  0
  2  3  1  0  0  0  0
  3 11  1  0  0  0  0
  3 10  1  0  0  0  0
  4 17  1  0  0  0  0
  5  4  2  0  0  0  0
  6  1  1  0  0  0  0
  7  1  1  0  0  0  0
 12 21  1  0  0  0  0
 13 12  1  0  0  0  0
 13 14  2  0  0  0  0
 15 13  1  0  0  0  0
 16 24  1  6  0  0  0
 16 15  1  0  0  0  0
 16 18  1  0  0  0  0
 17 16  1  0  0  0  0
 17 25  1  0  0  0  0
 18 31  1  0  0  0  0
 18 19  2  0  0  0  0
 20 12  1  0  0  0  0
 22 15  1  0  0  0  0
 23 15  1  0  0  0  0
 26 36  1  0  0  0  0
 27 26  1  0  0  0  0
 27 29  1  0  0  0  0
 28 27  2  0  0  0  0
 29 30  1  0  0  0  0
 29 38  1  0  0  0  0
 30 39  1  1  0  0  0
 30 32  1  0  0  0  0
 31 30  1  0  0  0  0
 32 34  1  0  0  0  0
 33 32  2  0  0  0  0
 35 26  1  0  0  0  0
 37 29  1  0  0  0  0
 40 31  1  0  0  0  0
M  END
$$$$
