ANP.pdb
 OpenBabel07022417593D

 40 40  0  0  1  0  0  0  0  0999 V2000
   -0.9200   -5.4740    1.5210 C   0  0  0  0  0  0  0  0  0  0  0  0
   -1.6630   -4.2370    1.0900 C   0  0  2  0  0  0  0  0  0  0  0  0
   -1.9680   -4.3610   -0.3120 N   0  0  0  0  0  0  0  0  0  0  0  0
   -0.8110   -3.0660    1.3840 C   0  0  0  0  0  0  0  0  0  0  0  0
   -0.4780   -2.8560    2.5820 O   0  0  0  0  0  0  0  0  0  0  0  0
   -1.3320   -5.8750    2.4780 H   0  0  0  0  0  0  0  0  0  0  0  0
   -1.0100   -6.2920    0.7590 H   0  0  0  0  0  0  0  0  0  0  0  0
    0.1600   -5.2910    1.6970 H   0  0  0  0  0  0  0  0  0  0  0  0
   -2.6330   -4.1770    1.6320 H   0  0  0  0  0  0  0  0  0  0  0  0
   -2.9850   -4.3840   -0.5240 H   0  0  0  0  0  0  0  0  0  0  0  0
   -1.5240   -5.2050   -0.7450 H   0  0  0  0  0  0  0  0  0  0  0  0
    3.7890   -0.5150    1.0250 N   0  0  0  0  0  0  0  0  0  0  0  0
    2.8400   -0.4610   -0.0330 C   0  0  0  0  0  0  0  0  0  0  0  0
    2.9100    0.4210   -0.9370 O   0  0  0  0  0  0  0  0  0  0  0  0
    1.7640   -1.4250   -0.0950 C   0  0  0  0  0  0  0  0  0  0  0  0
    0.4620   -1.0340    0.5960 C   0  0  2  0  0  0  0  0  0  0  0  0
   -0.3940   -2.2190    0.3350 N   0  0  0  0  0  0  0  0  0  0  0  0
   -0.1900    0.1400    0.0240 C   0  0  0  0  0  0  0  0  0  0  0  0
   -1.1220   -0.0860   -0.8400 O   0  0  0  0  0  0  0  0  0  0  0  0
    4.8030   -0.4800    0.8000 H   0  0  0  0  0  0  0  0  0  0  0  0
    3.4120   -0.5900    2.0050 H   0  0  0  0  0  0  0  0  0  0  0  0
    2.0960   -2.3610    0.4430 H   0  0  0  0  0  0  0  0  0  0  0  0
    1.5540   -1.7710   -1.1340 H   0  0  0  0  0  0  0  0  0  0  0  0
    0.6400   -1.0260    1.6750 H   0  0  0  0  0  0  0  0  0  0  0  0
   -0.6920   -2.4300   -0.6300 H   0  0  0  0  0  0  0  0  0  0  0  0
    0.1060    1.5000    0.3350 N   0  0  0  0  0  0  0  0  0  0  0  0
   -0.6090    2.5630   -0.4100 C   0  0  0  0  0  0  0  0  0  0  0  0
    0.3040    3.7630   -0.2840 C   0  0  0  0  0  0  0  0  0  0  0  0
    0.7120    3.6120    1.1560 C   0  0  0  0  0  0  0  0  0  0  0  0
    0.9490    2.1280    1.2750 C   0  0  1  0  0  0  0  0  0  0  0  0
    0.6090    1.7870    2.6920 C   0  0  0  0  0  0  0  0  0  0  0  0
   -0.3730    1.1080    2.9770 O   0  0  0  0  0  0  0  0  0  0  0  0
    1.4430    2.2660    3.6820 O   0  0  0  0  0  0  0  0  0  0  0  0
   -0.8500    2.2730   -1.4270 H   0  0  0  0  0  0  0  0  0  0  0  0
   -1.5290    2.7850    0.1650 H   0  0  0  0  0  0  0  0  0  0  0  0
   -0.2000    4.7020   -0.5030 H   0  0  0  0  0  0  0  0  0  0  0  0
    1.2040    3.5940   -0.9080 H   0  0  0  0  0  0  0  0  0  0  0  0
    1.6430    4.1970    1.3770 H   0  0  0  0  0  0  0  0  0  0  0  0
   -0.0990    3.9000    1.8580 H   0  0  0  0  0  0  0  0  0  0  0  0
    2.0460    1.9210    1.1590 H   0  0  0  0  0  0  0  0  0  0  0  0
  1  8  1  0  0  0  0
  1  6  1  0  0  0  0
  2  4  1  0  0  0  0
  2  1  1  0  0  0  0
  2  9  1  1  0  0  0
  3  2  1  0  0  0  0
  4  5  2  0  0  0  0
  7  1  1  0  0  0  0
 10  3  1  0  0  0  0
 11  3  1  0  0  0  0
 12 21  1  0  0  0  0
 13 12  1  0  0  0  0
 14 13  2  0  0  0  0
 15 13  1  0  0  0  0
 15 22  1  0  0  0  0
 15 16  1  0  0  0  0
 16 24  1  1  0  0  0
 17 16  1  0  0  0  0
 17  4  1  0  0  0  0
 18 26  1  0  0  0  0
 18 16  1  0  0  0  0
 19 18  2  0  0  0  0
 20 12  1  0  0  0  0
 23 15  1  0  0  0  0
 25 17  1  0  0  0  0
 26 30  1  0  0  0  0
 27 28  1  0  0  0  0
 27 35  1  0  0  0  0
 27 26  1  0  0  0  0
 28 29  1  0  0  0  0
 29 30  1  0  0  0  0
 29 38  1  0  0  0  0
 29 39  1  0  0  0  0
 30 40  1  6  0  0  0
 30 31  1  0  0  0  0
 31 32  2  0  0  0  0
 31 33  1  0  0  0  0
 34 27  1  0  0  0  0
 36 28  1  0  0  0  0
 37 28  1  0  0  0  0
M  END
$$$$
