ANR.pdb
 OpenBabel07022417593D

 49 48  0  0  1  0  0  0  0  0999 V2000
    1.3240   -1.4990    3.1630 C   0  0  0  0  0  0  0  0  0  0  0  0
    2.7800   -1.6350    2.8210 C   0  0  2  0  0  0  0  0  0  0  0  0
    3.6770   -1.0290    3.7550 N   0  0  0  0  0  0  0  0  0  0  0  0
    3.0890   -1.1360    1.4590 C   0  0  0  0  0  0  0  0  0  0  0  0
    4.0400   -0.3330    1.2770 O   0  0  0  0  0  0  0  0  0  0  0  0
    0.9580   -0.4760    2.9890 H   0  0  0  0  0  0  0  0  0  0  0  0
    0.7740   -2.2290    2.5150 H   0  0  0  0  0  0  0  0  0  0  0  0
    1.1930   -1.8200    4.2100 H   0  0  0  0  0  0  0  0  0  0  0  0
    3.0350   -2.7300    2.8070 H   0  0  0  0  0  0  0  0  0  0  0  0
    3.2770   -0.1820    4.2200 H   0  0  0  0  0  0  0  0  0  0  0  0
    4.1050   -1.6930    4.4250 H   0  0  0  0  0  0  0  0  0  0  0  0
    3.6480   -0.4960   -3.7370 N   0  0  0  0  0  0  0  0  0  0  0  0
    3.1990   -1.7840   -3.3670 C   0  0  0  0  0  0  0  0  0  0  0  0
    3.1000   -2.6190   -4.3220 O   0  0  0  0  0  0  0  0  0  0  0  0
    2.8610   -2.1760   -1.9850 C   0  0  0  0  0  0  0  0  0  0  0  0
    2.6510   -1.0320   -1.0410 C   0  0  2  0  0  0  0  0  0  0  0  0
    2.3550   -1.5190    0.3090 N   0  0  0  0  0  0  0  0  0  0  0  0
    1.4740   -0.2180   -1.5140 C   0  0  0  0  0  0  0  0  0  0  0  0
    1.4570    0.3370   -2.6240 O   0  0  0  0  0  0  0  0  0  0  0  0
    3.2870   -0.0770   -4.6170 H   0  0  0  0  0  0  0  0  0  0  0  0
    4.3230    0.0750   -3.1920 H   0  0  0  0  0  0  0  0  0  0  0  0
    1.8900   -2.7530   -2.0750 H   0  0  0  0  0  0  0  0  0  0  0  0
    3.6220   -2.8990   -1.6160 H   0  0  0  0  0  0  0  0  0  0  0  0
    3.5260   -0.3690   -1.0830 H   0  0  0  0  0  0  0  0  0  0  0  0
    1.5630   -2.1820    0.4400 H   0  0  0  0  0  0  0  0  0  0  0  0
   -4.5270   -1.1260    4.4100 N   0  0  0  0  0  0  0  0  0  0  0  0
   -3.8420   -0.3050    3.4740 C   0  0  0  0  0  0  0  0  0  0  0  0
   -3.5930    0.9120    3.7600 N   0  0  0  0  0  0  0  0  0  0  0  0
   -3.4420   -0.8390    2.2360 N   0  0  0  0  0  0  0  0  0  0  0  0
   -2.9400    0.0040    1.1490 C   0  0  0  0  0  0  0  0  0  0  0  0
   -2.5910   -0.8340   -0.0550 C   0  0  0  0  0  0  0  0  0  0  0  0
   -2.0860   -0.0830   -1.2230 C   0  0  0  0  0  0  0  0  0  0  0  0
   -0.8400    0.7030   -1.0630 C   0  0  2  0  0  0  0  0  0  0  0  0
    0.3280   -0.0640   -0.6800 N   0  0  0  0  0  0  0  0  0  0  0  0
   -0.9710    1.8840   -0.1810 C   0  0  0  0  0  0  0  0  0  0  0  0
   -0.1080    2.1560    0.7230 O   0  0  0  0  0  0  0  0  0  0  0  0
   -2.0280    2.7780   -0.2680 O   0  0  0  0  0  0  0  0  0  0  0  0
   -5.4480   -0.8440    4.7930 H   0  0  0  0  0  0  0  0  0  0  0  0
   -4.1290   -2.0390    4.7430 H   0  0  0  0  0  0  0  0  0  0  0  0
   -3.8720    1.3420    4.6610 H   0  0  0  0  0  0  0  0  0  0  0  0
   -3.4970   -1.8560    2.0730 H   0  0  0  0  0  0  0  0  0  0  0  0
   -2.0560    0.4970    1.5470 H   0  0  0  0  0  0  0  0  0  0  0  0
   -3.6800    0.7760    0.8970 H   0  0  0  0  0  0  0  0  0  0  0  0
   -3.5690   -1.3060   -0.3700 H   0  0  0  0  0  0  0  0  0  0  0  0
   -1.9600   -1.7010    0.2390 H   0  0  0  0  0  0  0  0  0  0  0  0
   -2.9040    0.6420   -1.5210 H   0  0  0  0  0  0  0  0  0  0  0  0
   -2.0220   -0.8060   -2.0910 H   0  0  0  0  0  0  0  0  0  0  0  0
   -0.6310    1.1450   -2.1000 H   0  0  0  0  0  0  0  0  0  0  0  0
    0.3690   -0.5410    0.2450 H   0  0  0  0  0  0  0  0  0  0  0  0
  1  8  1  0  0  0  0
  2  9  1  6  0  0  0
  2  1  1  0  0  0  0
  2  3  1  0  0  0  0
  3 10  1  0  0  0  0
  3 11  1  0  0  0  0
  4  2  1  0  0  0  0
  5  4  2  0  0  0  0
  6  1  1  0  0  0  0
  7  1  1  0  0  0  0
 12 13  1  0  0  0  0
 12 21  1  0  0  0  0
 13 15  1  0  0  0  0
 14 13  2  0  0  0  0
 15 23  1  0  0  0  0
 15 16  1  0  0  0  0
 16 24  1  1  0  0  0
 16 17  1  0  0  0  0
 17 25  1  0  0  0  0
 17  4  1  0  0  0  0
 18 16  1  0  0  0  0
 18 34  1  0  0  0  0
 19 18  2  0  0  0  0
 20 12  1  0  0  0  0
 22 15  1  0  0  0  0
 26 39  1  0  0  0  0
 26 38  1  0  0  0  0
 27 28  2  0  0  0  0
 27 26  1  0  0  0  0
 28 40  1  0  0  0  0
 29 27  1  0  0  0  0
 30 42  1  0  0  0  0
 30 29  1  0  0  0  0
 31 45  1  0  0  0  0
 31 30  1  0  0  0  0
 32 33  1  0  0  0  0
 32 31  1  0  0  0  0
 33 48  1  6  0  0  0
 33 34  1  0  0  0  0
 33 35  1  0  0  0  0
 34 49  1  0  0  0  0
 35 36  1  0  0  0  0
 37 35  2  0  0  0  0
 41 29  1  0  0  0  0
 43 30  1  0  0  0  0
 44 31  1  0  0  0  0
 46 32  1  0  0  0  0
 47 32  1  0  0  0  0
M  END
$$$$
