ANT.pdb
 OpenBabel07022417593D

 40 39  0  0  1  0  0  0  0  0999 V2000
   -1.4640   -4.6190   -2.3560 C   0  0  0  0  0  0  0  0  0  0  0  0
   -1.8910   -3.2110   -2.0140 C   0  0  2  0  0  0  0  0  0  0  0  0
   -1.4030   -2.3100   -3.0480 N   0  0  0  0  0  0  0  0  0  0  0  0
   -1.1670   -2.8060   -0.7530 C   0  0  0  0  0  0  0  0  0  0  0  0
   -1.5310   -3.4110    0.2840 O   0  0  0  0  0  0  0  0  0  0  0  0
   -2.2910   -5.1840   -2.8630 H   0  0  0  0  0  0  0  0  0  0  0  0
   -0.6270   -4.5480   -3.0900 H   0  0  0  0  0  0  0  0  0  0  0  0
   -1.0740   -5.1690   -1.4880 H   0  0  0  0  0  0  0  0  0  0  0  0
   -2.9810   -3.1160   -1.8840 H   0  0  0  0  0  0  0  0  0  0  0  0
   -2.0200   -2.2590   -3.8680 H   0  0  0  0  0  0  0  0  0  0  0  0
   -0.4170   -2.5320   -3.2630 H   0  0  0  0  0  0  0  0  0  0  0  0
    4.1600   -2.2430    1.5070 N   0  0  0  0  0  0  0  0  0  0  0  0
    2.7560   -1.8640    1.6050 C   0  0  0  0  0  0  0  0  0  0  0  0
    2.4300   -1.4270    2.7100 O   0  0  0  0  0  0  0  0  0  0  0  0
    1.8880   -2.0240    0.4450 C   0  0  0  0  0  0  0  0  0  0  0  0
    0.4790   -1.5080    0.5720 C   0  0  2  0  0  0  0  0  0  0  0  0
   -0.1750   -1.8400   -0.7400 N   0  0  0  0  0  0  0  0  0  0  0  0
    0.3690   -0.0390    0.6880 C   0  0  0  0  0  0  0  0  0  0  0  0
    0.1460    0.6510   -0.3750 O   0  0  0  0  0  0  0  0  0  0  0  0
    4.7180   -2.0680    0.6620 H   0  0  0  0  0  0  0  0  0  0  0  0
    4.5720   -2.7010    2.3290 H   0  0  0  0  0  0  0  0  0  0  0  0
    1.8450   -3.1290    0.2320 H   0  0  0  0  0  0  0  0  0  0  0  0
    2.4050   -1.5540   -0.4380 H   0  0  0  0  0  0  0  0  0  0  0  0
   -0.0230   -2.0430    1.3800 H   0  0  0  0  0  0  0  0  0  0  0  0
    0.1520   -1.3310   -1.5550 H   0  0  0  0  0  0  0  0  0  0  0  0
   -0.4640    2.2950    4.2570 C   0  0  0  0  0  0  0  0  0  0  0  0
   -0.6820    2.6610    2.8100 C   0  0  1  0  0  0  0  0  0  0  0  0
   -0.6600    4.0660    2.7410 O   0  0  0  0  0  0  0  0  0  0  0  0
    0.3720    2.1610    1.8910 C   0  0  2  0  0  0  0  0  0  0  0  0
    0.4770    0.7090    1.8510 N   0  0  0  0  0  0  0  0  0  0  0  0
    1.6850    2.6640    2.3760 C   0  0  0  0  0  0  0  0  0  0  0  0
    2.6420    1.9070    2.6650 O   0  0  0  0  0  0  0  0  0  0  0  0
    1.9160    4.0420    2.5350 O   0  0  0  0  0  0  0  0  0  0  0  0
   -0.9540    3.0570    4.9150 H   0  0  0  0  0  0  0  0  0  0  0  0
    0.6030    2.2780    4.5420 H   0  0  0  0  0  0  0  0  0  0  0  0
   -0.9170    1.3270    4.5180 H   0  0  0  0  0  0  0  0  0  0  0  0
   -1.7150    2.3720    2.5270 H   0  0  0  0  0  0  0  0  0  0  0  0
   -1.1260    4.4520    3.5510 H   0  0  0  0  0  0  0  0  0  0  0  0
    0.1710    2.5400    0.8840 H   0  0  0  0  0  0  0  0  0  0  0  0
    0.6090    0.2700    2.7810 H   0  0  0  0  0  0  0  0  0  0  0  0
  1  2  1  0  0  0  0
  1  8  1  0  0  0  0
  2  9  1  1  0  0  0
  2  4  1  0  0  0  0
  3  2  1  0  0  0  0
  4 17  1  0  0  0  0
  4  5  2  0  0  0  0
  6  1  1  0  0  0  0
  7  1  1  0  0  0  0
 10  3  1  0  0  0  0
 11  3  1  0  0  0  0
 12 13  1  0  0  0  0
 12 21  1  0  0  0  0
 13 14  2  0  0  0  0
 15 16  1  0  0  0  0
 15 13  1  0  0  0  0
 16 18  1  0  0  0  0
 16 24  1  1  0  0  0
 17 16  1  0  0  0  0
 18 30  1  0  0  0  0
 19 18  2  0  0  0  0
 20 12  1  0  0  0  0
 22 15  1  0  0  0  0
 23 15  1  0  0  0  0
 25 17  1  0  0  0  0
 26 36  1  0  0  0  0
 26 35  1  0  0  0  0
 26 34  1  0  0  0  0
 27 37  1  6  0  0  0
 27 26  1  0  0  0  0
 28 27  1  0  0  0  0
 28 38  1  0  0  0  0
 29 39  1  6  0  0  0
 29 31  1  0  0  0  0
 29 27  1  0  0  0  0
 30 29  1  0  0  0  0
 30 40  1  0  0  0  0
 31 33  2  0  0  0  0
 31 32  1  0  0  0  0
M  END
$$$$
