ANW.pdb
 OpenBabel07022417593D

 50 51  0  0  1  0  0  0  0  0999 V2000
    0.0340    4.2250    0.9170 C   0  0  0  0  0  0  0  0  0  0  0  0
    0.9910    3.6260   -0.1190 C   0  0  2  0  0  0  0  0  0  0  0  0
    0.3710    3.6690   -1.4080 N   0  0  0  0  0  0  0  0  0  0  0  0
    1.2980    2.2310    0.2810 C   0  0  0  0  0  0  0  0  0  0  0  0
    1.8430    2.0220    1.3720 O   0  0  0  0  0  0  0  0  0  0  0  0
   -0.2360    5.2610    0.6290 H   0  0  0  0  0  0  0  0  0  0  0  0
    0.4810    4.2720    1.9160 H   0  0  0  0  0  0  0  0  0  0  0  0
   -0.9350    3.6500    0.9060 H   0  0  0  0  0  0  0  0  0  0  0  0
    1.9000    4.2320   -0.1310 H   0  0  0  0  0  0  0  0  0  0  0  0
   -0.4540    3.0730   -1.5280 H   0  0  0  0  0  0  0  0  0  0  0  0
    0.0920    4.6600   -1.6180 H   0  0  0  0  0  0  0  0  0  0  0  0
    4.6830   -0.8850   -1.6640 N   0  0  0  0  0  0  0  0  0  0  0  0
    3.3230   -0.5310   -1.4400 C   0  0  0  0  0  0  0  0  0  0  0  0
    2.6710   -0.1440   -2.4350 O   0  0  0  0  0  0  0  0  0  0  0  0
    2.7200   -0.6270   -0.0640 C   0  0  0  0  0  0  0  0  0  0  0  0
    1.3110   -0.2090   -0.0870 C   0  0  2  0  0  0  0  0  0  0  0  0
    1.0080    1.1020   -0.5090 N   0  0  0  0  0  0  0  0  0  0  0  0
    0.5850   -0.4340    1.2210 C   0  0  0  0  0  0  0  0  0  0  0  0
   -0.1500    0.4490    1.7410 O   0  0  0  0  0  0  0  0  0  0  0  0
    5.2790   -0.4550   -2.3960 H   0  0  0  0  0  0  0  0  0  0  0  0
    5.0760   -1.6340   -1.0250 H   0  0  0  0  0  0  0  0  0  0  0  0
    2.7550   -1.7170    0.1520 H   0  0  0  0  0  0  0  0  0  0  0  0
    3.3590   -0.1580    0.6920 H   0  0  0  0  0  0  0  0  0  0  0  0
    0.7560   -0.9290   -0.7700 H   0  0  0  0  0  0  0  0  0  0  0  0
    0.5540    1.2340   -1.4400 H   0  0  0  0  0  0  0  0  0  0  0  0
    0.7590   -1.7010    1.8620 N   0  0  0  0  0  0  0  0  0  0  0  0
    0.0970   -1.9790    3.1090 C   0  0  1  0  0  0  0  0  0  0  0  0
   -0.9600   -3.0580    3.0170 C   0  0  0  0  0  0  0  0  0  0  0  0
   -2.0510   -2.7440    2.0790 C   0  0  0  0  0  0  0  0  0  0  0  0
   -3.2870   -2.2660    2.4530 C   0  0  0  0  0  0  0  0  0  0  0  0
   -4.0580   -2.0610    1.3660 N   0  0  0  0  0  0  0  0  0  0  0  0
   -3.3450   -2.3990    0.2800 C   0  0  0  0  0  0  0  0  0  0  0  0
   -3.6720   -2.3790   -1.0690 C   0  0  0  0  0  0  0  0  0  0  0  0
   -2.7390   -2.7910   -1.9820 C   0  0  0  0  0  0  0  0  0  0  0  0
   -1.4820   -3.2240   -1.5880 C   0  0  0  0  0  0  0  0  0  0  0  0
   -1.1900   -3.2310   -0.2420 C   0  0  0  0  0  0  0  0  0  0  0  0
   -2.0990   -2.8250    0.7110 C   0  0  0  0  0  0  0  0  0  0  0  0
    1.0640   -2.2440    4.1930 C   0  0  0  0  0  0  0  0  0  0  0  0
    2.2850   -2.2120    3.9660 O   0  0  0  0  0  0  0  0  0  0  0  0
    0.6360   -2.5320    5.4800 O   0  0  0  0  0  0  0  0  0  0  0  0
    1.3680   -2.4150    1.4160 H   0  0  0  0  0  0  0  0  0  0  0  0
   -0.4730   -1.0570    3.4270 H   0  0  0  0  0  0  0  0  0  0  0  0
   -0.4120   -3.9790    2.6860 H   0  0  0  0  0  0  0  0  0  0  0  0
   -1.3520   -3.2870    4.0280 H   0  0  0  0  0  0  0  0  0  0  0  0
   -3.6170   -2.0730    3.4760 H   0  0  0  0  0  0  0  0  0  0  0  0
   -5.0430   -1.6990    1.3810 H   0  0  0  0  0  0  0  0  0  0  0  0
   -4.6450   -2.0430   -1.3530 H   0  0  0  0  0  0  0  0  0  0  0  0
   -3.0240   -2.7650   -3.0340 H   0  0  0  0  0  0  0  0  0  0  0  0
   -0.8000   -3.5330   -2.3580 H   0  0  0  0  0  0  0  0  0  0  0  0
   -0.2170   -3.5730    0.0690 H   0  0  0  0  0  0  0  0  0  0  0  0
  1  7  1  0  0  0  0
  2  9  1  6  0  0  0
  2  4  1  0  0  0  0
  2  1  1  0  0  0  0
  3  2  1  0  0  0  0
  4  5  2  0  0  0  0
  6  1  1  0  0  0  0
  8  1  1  0  0  0  0
 10  3  1  0  0  0  0
 11  3  1  0  0  0  0
 12 13  1  0  0  0  0
 12 21  1  0  0  0  0
 13 15  1  0  0  0  0
 14 13  2  0  0  0  0
 15 22  1  0  0  0  0
 15 23  1  0  0  0  0
 16 24  1  6  0  0  0
 16 15  1  0  0  0  0
 16 18  1  0  0  0  0
 17 16  1  0  0  0  0
 17  4  1  0  0  0  0
 18 19  2  0  0  0  0
 18 26  1  0  0  0  0
 20 12  1  0  0  0  0
 25 17  1  0  0  0  0
 26 27  1  0  0  0  0
 27 42  1  1  0  0  0
 27 38  1  0  0  0  0
 28 27  1  0  0  0  0
 28 44  1  0  0  0  0
 29 30  2  0  0  0  0
 29 28  1  0  0  0  0
 30 45  1  0  0  0  0
 31 46  1  0  0  0  0
 31 30  1  0  0  0  0
 32 37  1  0  0  0  0
 32 31  1  0  0  0  0
 33 32  2  0  0  0  0
 34 35  2  0  0  0  0
 34 33  1  0  0  0  0
 35 36  1  0  0  0  0
 36 50  1  0  0  0  0
 36 37  2  0  0  0  0
 37 29  1  0  0  0  0
 38 40  1  0  0  0  0
 39 38  2  0  0  0  0
 41 26  1  0  0  0  0
 43 28  1  0  0  0  0
 47 33  1  0  0  0  0
 48 34  1  0  0  0  0
 49 35  1  0  0  0  0
M  END
$$$$
