ANY.pdb
 OpenBabel07022417593D

 47 47  0  0  1  0  0  0  0  0999 V2000
    4.5350   -0.2970    2.6920 C   0  0  0  0  0  0  0  0  0  0  0  0
    3.0650   -0.0240    2.4540 C   0  0  2  0  0  0  0  0  0  0  0  0
    2.3620   -1.2790    2.5870 N   0  0  0  0  0  0  0  0  0  0  0  0
    2.8390    0.6230    1.1520 C   0  0  0  0  0  0  0  0  0  0  0  0
    3.4070    1.7180    0.9180 O   0  0  0  0  0  0  0  0  0  0  0  0
    5.0700   -0.3690    1.7140 H   0  0  0  0  0  0  0  0  0  0  0  0
    4.9860    0.5040    3.3220 H   0  0  0  0  0  0  0  0  0  0  0  0
    4.6690   -1.2790    3.2170 H   0  0  0  0  0  0  0  0  0  0  0  0
    2.7390    0.7140    3.2360 H   0  0  0  0  0  0  0  0  0  0  0  0
    1.3470   -1.2140    2.4760 H   0  0  0  0  0  0  0  0  0  0  0  0
    2.5730   -1.6640    3.5270 H   0  0  0  0  0  0  0  0  0  0  0  0
    0.3330   -1.8940   -2.9360 N   0  0  0  0  0  0  0  0  0  0  0  0
    1.4490   -1.5790   -2.1170 C   0  0  0  0  0  0  0  0  0  0  0  0
    1.7700   -2.4840   -1.2730 O   0  0  0  0  0  0  0  0  0  0  0  0
    2.2010   -0.3220   -2.2030 C   0  0  0  0  0  0  0  0  0  0  0  0
    1.7720    0.6760   -1.1380 C   0  0  2  0  0  0  0  0  0  0  0  0
    2.0110    0.0670    0.1470 N   0  0  0  0  0  0  0  0  0  0  0  0
    0.2980    0.9080   -1.2570 C   0  0  0  0  0  0  0  0  0  0  0  0
   -0.1590    1.4390   -2.3120 O   0  0  0  0  0  0  0  0  0  0  0  0
   -0.1850   -1.1000   -3.3670 H   0  0  0  0  0  0  0  0  0  0  0  0
    0.0070   -2.8640   -3.1270 H   0  0  0  0  0  0  0  0  0  0  0  0
    3.2770   -0.5760   -1.9670 H   0  0  0  0  0  0  0  0  0  0  0  0
    2.1840    0.1440   -3.1920 H   0  0  0  0  0  0  0  0  0  0  0  0
    2.3080    1.6390   -1.2570 H   0  0  0  0  0  0  0  0  0  0  0  0
    1.5510   -0.8370    0.3610 H   0  0  0  0  0  0  0  0  0  0  0  0
   -2.1600   -3.3320    4.4940 O   0  0  0  0  0  0  0  0  0  0  0  0
   -2.2980   -2.6470    3.2810 C   0  0  0  0  0  0  0  0  0  0  0  0
   -1.4530   -2.8780    2.2160 C   0  0  0  0  0  0  0  0  0  0  0  0
   -1.6140   -2.1950    1.0480 C   0  0  0  0  0  0  0  0  0  0  0  0
   -2.6210   -1.2670    0.9190 C   0  0  0  0  0  0  0  0  0  0  0  0
   -2.8270   -0.5120   -0.3190 C   0  0  0  0  0  0  0  0  0  0  0  0
   -2.0510    0.7870   -0.3570 C   0  0  2  0  0  0  0  0  0  0  0  0
   -0.6280    0.5640   -0.2450 N   0  0  0  0  0  0  0  0  0  0  0  0
   -2.5270    1.7450    0.6880 C   0  0  0  0  0  0  0  0  0  0  0  0
   -1.7150    2.2370    1.5140 O   0  0  0  0  0  0  0  0  0  0  0  0
   -3.4510   -1.0540    1.9950 C   0  0  0  0  0  0  0  0  0  0  0  0
   -3.3200   -1.7270    3.1960 C   0  0  0  0  0  0  0  0  0  0  0  0
   -3.8540    2.1220    0.7860 O   0  0  0  0  0  0  0  0  0  0  0  0
   -2.2600   -2.8510    5.3800 H   0  0  0  0  0  0  0  0  0  0  0  0
   -0.6660   -3.6230    2.3620 H   0  0  0  0  0  0  0  0  0  0  0  0
   -0.9170   -2.4140    0.2330 H   0  0  0  0  0  0  0  0  0  0  0  0
   -3.8900   -0.2720   -0.5200 H   0  0  0  0  0  0  0  0  0  0  0  0
   -2.4770   -1.1140   -1.1840 H   0  0  0  0  0  0  0  0  0  0  0  0
   -2.3160    1.2650   -1.3400 H   0  0  0  0  0  0  0  0  0  0  0  0
   -0.2610    0.1300    0.6160 H   0  0  0  0  0  0  0  0  0  0  0  0
   -4.2700   -0.3300    1.9520 H   0  0  0  0  0  0  0  0  0  0  0  0
   -3.9980   -1.5350    4.0370 H   0  0  0  0  0  0  0  0  0  0  0  0
  1  8  1  0  0  0  0
  1  7  1  0  0  0  0
  2  3  1  0  0  0  0
  2  1  1  0  0  0  0
  2  9  1  1  0  0  0
  3 11  1  0  0  0  0
  4  2  1  0  0  0  0
  5  4  2  0  0  0  0
  6  1  1  0  0  0  0
 10  3  1  0  0  0  0
 12 13  1  0  0  0  0
 13 14  2  0  0  0  0
 15 13  1  0  0  0  0
 15 22  1  0  0  0  0
 15 16  1  0  0  0  0
 16 24  1  6  0  0  0
 16 17  1  0  0  0  0
 17 25  1  0  0  0  0
 17  4  1  0  0  0  0
 18 16  1  0  0  0  0
 18 33  1  0  0  0  0
 19 18  2  0  0  0  0
 20 12  1  0  0  0  0
 21 12  1  0  0  0  0
 23 15  1  0  0  0  0
 26 39  1  0  0  0  0
 27 26  1  0  0  0  0
 28 40  1  0  0  0  0
 28 27  2  0  0  0  0
 29 28  1  0  0  0  0
 30 29  2  0  0  0  0
 30 36  1  0  0  0  0
 31 30  1  0  0  0  0
 32 44  1  6  0  0  0
 32 31  1  0  0  0  0
 32 33  1  0  0  0  0
 32 34  1  0  0  0  0
 33 45  1  0  0  0  0
 34 38  2  0  0  0  0
 34 35  1  0  0  0  0
 36 37  2  0  0  0  0
 37 27  1  0  0  0  0
 37 47  1  0  0  0  0
 41 29  1  0  0  0  0
 42 31  1  0  0  0  0
 43 31  1  0  0  0  0
 46 36  1  0  0  0  0
M  END
$$$$
