APA.pdb
 OpenBabel07022418023D

 36 36  0  0  1  0  0  0  0  0999 V2000
   -0.1900   -3.8010    2.7990 C   0  0  0  0  0  0  0  0  0  0  0  0
   -0.1410   -4.0600    1.2950 C   0  0  2  0  0  0  0  0  0  0  0  0
    0.9310   -5.0470    1.1080 N   0  0  0  0  0  0  0  0  0  0  0  0
    0.1390   -2.8400    0.5350 C   0  0  0  0  0  0  0  0  0  0  0  0
    1.2090   -2.7250   -0.0990 O   0  0  0  0  0  0  0  0  0  0  0  0
    0.6250   -4.3520    3.3450 H   0  0  0  0  0  0  0  0  0  0  0  0
   -1.1240   -4.1590    3.2610 H   0  0  0  0  0  0  0  0  0  0  0  0
    0.0300   -2.7280    3.0000 H   0  0  0  0  0  0  0  0  0  0  0  0
   -1.0900   -4.5640    1.0210 H   0  0  0  0  0  0  0  0  0  0  0  0
    0.8590   -5.8290    1.7650 H   0  0  0  0  0  0  0  0  0  0  0  0
    1.0230   -5.3150    0.1050 H   0  0  0  0  0  0  0  0  0  0  0  0
   -0.7890   -1.7450    0.4890 N   0  0  0  0  0  0  0  0  0  0  0  0
   -2.0770   -1.7210    1.1480 C   0  0  0  0  0  0  0  0  0  0  0  0
   -2.2720   -0.2690    1.4850 C   0  0  0  0  0  0  0  0  0  0  0  0
   -1.7730    0.4070    0.2120 C   0  0  0  0  0  0  0  0  0  0  0  0
   -0.6260   -0.4950   -0.2050 C   0  0  1  0  0  0  0  0  0  0  0  0
    0.6810    0.1510    0.1220 C   0  0  0  0  0  0  0  0  0  0  0  0
    1.4510   -0.3570    0.9440 O   0  0  0  0  0  0  0  0  0  0  0  0
   -2.1260   -2.3680    2.0370 H   0  0  0  0  0  0  0  0  0  0  0  0
   -2.8550   -1.9790    0.3950 H   0  0  0  0  0  0  0  0  0  0  0  0
   -1.5700    0.0430    2.2920 H   0  0  0  0  0  0  0  0  0  0  0  0
   -3.3030    0.0140    1.7020 H   0  0  0  0  0  0  0  0  0  0  0  0
   -1.4760    1.4430    0.3740 H   0  0  0  0  0  0  0  0  0  0  0  0
   -2.6060    0.3970   -0.5220 H   0  0  0  0  0  0  0  0  0  0  0  0
   -0.7260   -0.6670   -1.2800 H   0  0  0  0  0  0  0  0  0  0  0  0
    3.2060    1.9440   -1.4280 C   0  0  0  0  0  0  0  0  0  0  0  0
    2.3650    1.9780   -0.1610 C   0  0  2  0  0  0  0  0  0  0  0  0
    1.0900    1.3680   -0.4950 N   0  0  0  0  0  0  0  0  0  0  0  0
    2.2200    3.3960    0.2330 C   0  0  0  0  0  0  0  0  0  0  0  0
    3.2210    4.0840    0.5560 O   0  0  0  0  0  0  0  0  0  0  0  0
    0.9930    4.0420    0.2700 O   0  0  0  0  0  0  0  0  0  0  0  0
    2.9050    1.0660   -2.0220 H   0  0  0  0  0  0  0  0  0  0  0  0
    4.2800    1.9160   -1.1310 H   0  0  0  0  0  0  0  0  0  0  0  0
    2.9870    2.8580   -2.0350 H   0  0  0  0  0  0  0  0  0  0  0  0
    2.9220    1.3870    0.5930 H   0  0  0  0  0  0  0  0  0  0  0  0
    0.4370    1.7920   -1.1880 H   0  0  0  0  0  0  0  0  0  0  0  0
  1  8  1  0  0  0  0
  1  7  1  0  0  0  0
  1  6  1  0  0  0  0
  2  9  1  6  0  0  0
  2  1  1  0  0  0  0
  3  2  1  0  0  0  0
  3 10  1  0  0  0  0
  4  2  1  0  0  0  0
  5  4  2  0  0  0  0
 11  3  1  0  0  0  0
 12  4  1  0  0  0  0
 12 13  1  0  0  0  0
 13 14  1  0  0  0  0
 13 19  1  0  0  0  0
 14 22  1  0  0  0  0
 14 21  1  0  0  0  0
 15 23  1  0  0  0  0
 15 14  1  0  0  0  0
 16 25  1  6  0  0  0
 16 17  1  0  0  0  0
 16 15  1  0  0  0  0
 16 12  1  0  0  0  0
 17 18  2  0  0  0  0
 20 13  1  0  0  0  0
 24 15  1  0  0  0  0
 26 33  1  0  0  0  0
 26 27  1  0  0  0  0
 27 29  1  0  0  0  0
 27 35  1  1  0  0  0
 28 27  1  0  0  0  0
 28 17  1  0  0  0  0
 29 31  2  0  0  0  0
 29 30  1  0  0  0  0
 32 26  1  0  0  0  0
 34 26  1  0  0  0  0
 36 28  1  0  0  0  0
M  END
$$$$
