APH.pdb
 OpenBabel07022418023D

 43 44  0  0  1  0  0  0  0  0999 V2000
    1.9660   -2.6680    2.8430 C   0  0  0  0  0  0  0  0  0  0  0  0
    3.0520   -2.3680    1.8730 C   0  0  2  0  0  0  0  0  0  0  0  0
    4.2440   -2.0010    2.5970 N   0  0  0  0  0  0  0  0  0  0  0  0
    2.6930   -1.4260    0.8000 C   0  0  0  0  0  0  0  0  0  0  0  0
    3.4860   -0.4420    0.6940 O   0  0  0  0  0  0  0  0  0  0  0  0
    2.4540   -3.0230    3.7850 H   0  0  0  0  0  0  0  0  0  0  0  0
    1.3210   -3.5440    2.5380 H   0  0  0  0  0  0  0  0  0  0  0  0
    1.3640   -1.7900    3.1320 H   0  0  0  0  0  0  0  0  0  0  0  0
    3.3040   -3.3420    1.3560 H   0  0  0  0  0  0  0  0  0  0  0  0
    4.6600   -1.1060    2.3190 H   0  0  0  0  0  0  0  0  0  0  0  0
    4.1850   -2.1770    3.6130 H   0  0  0  0  0  0  0  0  0  0  0  0
    1.5780   -1.5650   -0.0590 N   0  0  0  0  0  0  0  0  0  0  0  0
    0.5980   -2.6060   -0.0670 C   0  0  0  0  0  0  0  0  0  0  0  0
   -0.2860   -2.4340   -1.2550 C   0  0  0  0  0  0  0  0  0  0  0  0
    0.3360   -1.3630   -2.0630 C   0  0  0  0  0  0  0  0  0  0  0  0
    1.2440   -0.6300   -1.1170 C   0  0  1  0  0  0  0  0  0  0  0  0
    0.6690    0.6270   -0.6290 C   0  0  0  0  0  0  0  0  0  0  0  0
    0.3520    1.4890   -1.4890 O   0  0  0  0  0  0  0  0  0  0  0  0
   -0.0620   -2.5980    0.8280 H   0  0  0  0  0  0  0  0  0  0  0  0
    1.0900   -3.6060   -0.1540 H   0  0  0  0  0  0  0  0  0  0  0  0
   -0.4090   -3.3920   -1.8180 H   0  0  0  0  0  0  0  0  0  0  0  0
   -1.3220   -2.1200   -0.9420 H   0  0  0  0  0  0  0  0  0  0  0  0
   -0.4200   -0.6280   -2.4300 H   0  0  0  0  0  0  0  0  0  0  0  0
    0.8760   -1.7830   -2.9380 H   0  0  0  0  0  0  0  0  0  0  0  0
    2.1870   -0.4140   -1.7030 H   0  0  0  0  0  0  0  0  0  0  0  0
    0.4830    0.8480    0.7620 N   0  0  0  0  0  0  0  0  0  0  0  0
   -0.0850    2.0930    1.2420 C   0  0  1  0  0  0  0  0  0  0  0  0
   -1.4340    1.8310    1.9180 C   0  0  0  0  0  0  0  0  0  0  0  0
   -2.3830    1.2180    0.9650 C   0  0  0  0  0  0  0  0  0  0  0  0
   -2.5850   -0.1110    0.7180 C   0  0  0  0  0  0  0  0  0  0  0  0
   -3.5450   -0.2520   -0.2260 N   0  0  0  0  0  0  0  0  0  0  0  0
   -3.9400    0.9870   -0.5660 C   0  0  0  0  0  0  0  0  0  0  0  0
   -3.2350    1.8770    0.1560 N   0  0  0  0  0  0  0  0  0  0  0  0
    0.8370    2.7870    2.1730 C   0  0  0  0  0  0  0  0  0  0  0  0
    0.5060    3.8840    2.6840 O   0  0  0  0  0  0  0  0  0  0  0  0
    2.0680    2.2460    2.4940 O   0  0  0  0  0  0  0  0  0  0  0  0
    0.7670    0.0910    1.4200 H   0  0  0  0  0  0  0  0  0  0  0  0
   -0.3150    2.7430    0.3640 H   0  0  0  0  0  0  0  0  0  0  0  0
   -1.3010    1.2010    2.8120 H   0  0  0  0  0  0  0  0  0  0  0  0
   -1.8270    2.8250    2.2150 H   0  0  0  0  0  0  0  0  0  0  0  0
   -2.0540   -0.9030    1.2100 H   0  0  0  0  0  0  0  0  0  0  0  0
   -3.8900   -1.1770   -0.5980 H   0  0  0  0  0  0  0  0  0  0  0  0
   -4.6980    1.2180   -1.3000 H   0  0  0  0  0  0  0  0  0  0  0  0
  1  8  1  0  0  0  0
  1  6  1  0  0  0  0
  2  9  1  6  0  0  0
  2  3  1  0  0  0  0
  2  1  1  0  0  0  0
  3 11  1  0  0  0  0
  4  2  1  0  0  0  0
  5  4  2  0  0  0  0
  7  1  1  0  0  0  0
 10  3  1  0  0  0  0
 12  4  1  0  0  0  0
 13 12  1  0  0  0  0
 13 19  1  0  0  0  0
 14 22  1  0  0  0  0
 14 13  1  0  0  0  0
 15 14  1  0  0  0  0
 15 16  1  0  0  0  0
 16 25  1  6  0  0  0
 16 17  1  0  0  0  0
 16 12  1  0  0  0  0
 17 26  1  0  0  0  0
 18 17  2  0  0  0  0
 20 13  1  0  0  0  0
 21 14  1  0  0  0  0
 23 15  1  0  0  0  0
 24 15  1  0  0  0  0
 26 27  1  0  0  0  0
 26 37  1  0  0  0  0
 27 38  1  6  0  0  0
 27 28  1  0  0  0  0
 27 34  1  0  0  0  0
 28 40  1  0  0  0  0
 28 39  1  0  0  0  0
 29 28  1  0  0  0  0
 30 29  2  0  0  0  0
 30 41  1  0  0  0  0
 31 30  1  0  0  0  0
 32 31  1  0  0  0  0
 32 33  2  0  0  0  0
 33 29  1  0  0  0  0
 34 36  2  0  0  0  0
 34 35  1  0  0  0  0
 42 31  1  0  0  0  0
 43 32  1  0  0  0  0
M  END
$$$$
