APK.pdb
 OpenBabel07022418023D

 47 47  0  0  1  0  0  0  0  0999 V2000
    2.9200   -3.1620    1.2200 C   0  0  0  0  0  0  0  0  0  0  0  0
    3.3620   -2.6940   -0.1180 C   0  0  2  0  0  0  0  0  0  0  0  0
    4.7850   -2.3810   -0.0360 N   0  0  0  0  0  0  0  0  0  0  0  0
    2.5970   -1.5440   -0.6560 C   0  0  0  0  0  0  0  0  0  0  0  0
    3.2290   -0.4660   -0.9110 O   0  0  0  0  0  0  0  0  0  0  0  0
    2.4540   -4.1660    1.2390 H   0  0  0  0  0  0  0  0  0  0  0  0
    3.8010   -3.2670    1.9210 H   0  0  0  0  0  0  0  0  0  0  0  0
    2.2440   -2.4610    1.7610 H   0  0  0  0  0  0  0  0  0  0  0  0
    3.2770   -3.5360   -0.8350 H   0  0  0  0  0  0  0  0  0  0  0  0
    5.0270   -1.8610    0.8260 H   0  0  0  0  0  0  0  0  0  0  0  0
    5.2730   -3.3230    0.0170 H   0  0  0  0  0  0  0  0  0  0  0  0
    1.2120   -1.5480   -0.9100 N   0  0  0  0  0  0  0  0  0  0  0  0
    0.3650   -2.6980   -0.6730 C   0  0  0  0  0  0  0  0  0  0  0  0
   -1.0650   -2.1560   -0.8430 C   0  0  0  0  0  0  0  0  0  0  0  0
   -0.8100   -1.1560   -1.9440 C   0  0  0  0  0  0  0  0  0  0  0  0
    0.4250   -0.4590   -1.4300 C   0  0  1  0  0  0  0  0  0  0  0  0
   -0.0090    0.5190   -0.4090 C   0  0  0  0  0  0  0  0  0  0  0  0
   -0.7020    1.4940   -0.7820 O   0  0  0  0  0  0  0  0  0  0  0  0
    0.4960   -3.1760    0.2960 H   0  0  0  0  0  0  0  0  0  0  0  0
    0.4540   -3.4350   -1.5270 H   0  0  0  0  0  0  0  0  0  0  0  0
   -1.3920   -1.6770    0.0760 H   0  0  0  0  0  0  0  0  0  0  0  0
   -1.7410   -2.9760   -1.1750 H   0  0  0  0  0  0  0  0  0  0  0  0
   -0.6060   -1.6780   -2.9000 H   0  0  0  0  0  0  0  0  0  0  0  0
   -1.6530   -0.4440   -2.0290 H   0  0  0  0  0  0  0  0  0  0  0  0
    0.9350    0.0470   -2.2890 H   0  0  0  0  0  0  0  0  0  0  0  0
    0.3150    0.4170    0.9630 N   0  0  0  0  0  0  0  0  0  0  0  0
   -0.1840    1.4730    1.8520 C   0  0  1  0  0  0  0  0  0  0  0  0
   -0.7550    0.9040    3.0870 C   0  0  0  0  0  0  0  0  0  0  0  0
   -1.8630   -0.0220    2.9420 C   0  0  0  0  0  0  0  0  0  0  0  0
   -3.1760    0.3080    2.4030 C   0  0  0  0  0  0  0  0  0  0  0  0
   -3.3250    0.7970    1.0050 C   0  0  0  0  0  0  0  0  0  0  0  0
   -4.7820    0.9580    0.7560 N   0  0  0  0  0  0  0  0  0  0  0  0
    1.0270    2.3510    2.2070 C   0  0  0  0  0  0  0  0  0  0  0  0
    0.8210    3.3110    2.9590 O   0  0  0  0  0  0  0  0  0  0  0  0
    2.2760    2.0830    1.7160 O   0  0  0  0  0  0  0  0  0  0  0  0
    0.8850   -0.3770    1.3310 H   0  0  0  0  0  0  0  0  0  0  0  0
   -0.8390    2.1830    1.3560 H   0  0  0  0  0  0  0  0  0  0  0  0
    0.1160    0.3520    3.6010 H   0  0  0  0  0  0  0  0  0  0  0  0
   -0.9930    1.7580    3.7970 H   0  0  0  0  0  0  0  0  0  0  0  0
   -1.4820   -0.9050    2.3210 H   0  0  0  0  0  0  0  0  0  0  0  0
   -1.9730   -0.5590    3.9710 H   0  0  0  0  0  0  0  0  0  0  0  0
   -3.7590    1.0200    3.1000 H   0  0  0  0  0  0  0  0  0  0  0  0
   -3.7930   -0.6590    2.4480 H   0  0  0  0  0  0  0  0  0  0  0  0
   -2.8730    1.8130    0.8440 H   0  0  0  0  0  0  0  0  0  0  0  0
   -2.9270    0.1420    0.2180 H   0  0  0  0  0  0  0  0  0  0  0  0
   -4.8710    1.0950   -0.2740 H   0  0  0  0  0  0  0  0  0  0  0  0
   -5.0400    1.8630    1.2340 H   0  0  0  0  0  0  0  0  0  0  0  0
  1  6  1  0  0  0  0
  1  8  1  0  0  0  0
  1  7  1  0  0  0  0
  2  9  1  6  0  0  0
  2  3  1  0  0  0  0
  2  1  1  0  0  0  0
  3 11  1  0  0  0  0
  3 10  1  0  0  0  0
  4  2  1  0  0  0  0
  5  4  2  0  0  0  0
 12 13  1  0  0  0  0
 12  4  1  0  0  0  0
 13 19  1  0  0  0  0
 14 13  1  0  0  0  0
 14 21  1  0  0  0  0
 15 16  1  0  0  0  0
 15 14  1  0  0  0  0
 16 25  1  6  0  0  0
 16 12  1  0  0  0  0
 16 17  1  0  0  0  0
 17 26  1  0  0  0  0
 18 17  2  0  0  0  0
 20 13  1  0  0  0  0
 22 14  1  0  0  0  0
 23 15  1  0  0  0  0
 24 15  1  0  0  0  0
 26 36  1  0  0  0  0
 26 27  1  0  0  0  0
 27 37  1  6  0  0  0
 27 33  1  0  0  0  0
 27 28  1  0  0  0  0
 28 38  1  0  0  0  0
 28 39  1  0  0  0  0
 29 28  1  0  0  0  0
 29 41  1  0  0  0  0
 30 43  1  0  0  0  0
 30 29  1  0  0  0  0
 30 42  1  0  0  0  0
 31 30  1  0  0  0  0
 32 31  1  0  0  0  0
 32 47  1  0  0  0  0
 33 34  1  0  0  0  0
 35 33  2  0  0  0  0
 40 29  1  0  0  0  0
 44 31  1  0  0  0  0
 45 31  1  0  0  0  0
 46 32  1  0  0  0  0
M  END
$$$$
