APL.pdb
 OpenBabel07022418023D

 45 45  0  0  1  0  0  0  0  0999 V2000
    1.5340   -4.8650    1.9870 C   0  0  0  0  0  0  0  0  0  0  0  0
    0.4160   -3.8570    1.8010 C   0  0  2  0  0  0  0  0  0  0  0  0
   -0.7280   -4.4210    1.1580 N   0  0  0  0  0  0  0  0  0  0  0  0
    0.9630   -2.7270    1.0330 C   0  0  0  0  0  0  0  0  0  0  0  0
    2.0430   -2.2030    1.4650 O   0  0  0  0  0  0  0  0  0  0  0  0
    1.1390   -5.8820    2.1220 H   0  0  0  0  0  0  0  0  0  0  0  0
    2.2530   -4.7910    1.1490 H   0  0  0  0  0  0  0  0  0  0  0  0
    2.0820   -4.5690    2.9060 H   0  0  0  0  0  0  0  0  0  0  0  0
    0.0730   -3.4980    2.8080 H   0  0  0  0  0  0  0  0  0  0  0  0
   -1.6040   -4.3650    1.7270 H   0  0  0  0  0  0  0  0  0  0  0  0
   -0.5590   -5.4120    0.8790 H   0  0  0  0  0  0  0  0  0  0  0  0
    0.3160   -2.2460   -0.1360 N   0  0  0  0  0  0  0  0  0  0  0  0
   -0.8960   -2.6960   -0.7370 C   0  0  0  0  0  0  0  0  0  0  0  0
   -1.1610   -1.7460   -1.8640 C   0  0  0  0  0  0  0  0  0  0  0  0
    0.2350   -1.3890   -2.3160 C   0  0  0  0  0  0  0  0  0  0  0  0
    0.8670   -1.1750   -0.9220 C   0  0  1  0  0  0  0  0  0  0  0  0
    0.4600    0.1720   -0.5010 C   0  0  0  0  0  0  0  0  0  0  0  0
    0.9350    1.1270   -1.1930 O   0  0  0  0  0  0  0  0  0  0  0  0
   -1.7550   -2.7230   -0.0170 H   0  0  0  0  0  0  0  0  0  0  0  0
   -0.7780   -3.7120   -1.2220 H   0  0  0  0  0  0  0  0  0  0  0  0
   -1.6070   -0.8080   -1.4720 H   0  0  0  0  0  0  0  0  0  0  0  0
   -1.7670   -2.1900   -2.6780 H   0  0  0  0  0  0  0  0  0  0  0  0
    0.6950   -2.2780   -2.7450 H   0  0  0  0  0  0  0  0  0  0  0  0
    0.2860   -0.4830   -2.9200 H   0  0  0  0  0  0  0  0  0  0  0  0
    1.9570   -1.2430   -0.9520 H   0  0  0  0  0  0  0  0  0  0  0  0
    2.1750    1.3320    1.8330 C   0  0  0  0  0  0  0  0  0  0  0  0
    1.3740    2.5770    2.0240 C   0  0  0  0  0  0  0  0  0  0  0  0
    0.9080    2.5780    3.4720 C   0  0  0  0  0  0  0  0  0  0  0  0
    0.2820    2.8050    1.0620 C   0  0  0  0  0  0  0  0  0  0  0  0
   -0.7920    1.7650    0.9990 C   0  0  2  0  0  0  0  0  0  0  0  0
   -0.4050    0.4580    0.5970 N   0  0  0  0  0  0  0  0  0  0  0  0
   -1.9830    2.2800    0.2830 C   0  0  0  0  0  0  0  0  0  0  0  0
   -2.5900    1.6040   -0.6030 O   0  0  0  0  0  0  0  0  0  0  0  0
   -2.5100    3.5380    0.5400 O   0  0  0  0  0  0  0  0  0  0  0  0
    2.9870    1.3710    2.6210 H   0  0  0  0  0  0  0  0  0  0  0  0
    1.5850    0.4280    2.0820 H   0  0  0  0  0  0  0  0  0  0  0  0
    2.6980    1.2970    0.8670 H   0  0  0  0  0  0  0  0  0  0  0  0
    2.1150    3.4370    1.9740 H   0  0  0  0  0  0  0  0  0  0  0  0
    0.5130    1.5630    3.6980 H   0  0  0  0  0  0  0  0  0  0  0  0
    0.2040    3.3870    3.6920 H   0  0  0  0  0  0  0  0  0  0  0  0
    1.8130    2.7280    4.0950 H   0  0  0  0  0  0  0  0  0  0  0  0
   -0.2420    3.7560    1.3680 H   0  0  0  0  0  0  0  0  0  0  0  0
    0.7280    3.0570    0.0790 H   0  0  0  0  0  0  0  0  0  0  0  0
   -1.0890    1.6670    2.1160 H   0  0  0  0  0  0  0  0  0  0  0  0
   -0.7580   -0.3760    1.1130 H   0  0  0  0  0  0  0  0  0  0  0  0
  1  6  1  0  0  0  0
  1  8  1  0  0  0  0
  2  1  1  0  0  0  0
  2  9  1  1  0  0  0
  3 10  1  0  0  0  0
  3  2  1  0  0  0  0
  4  5  2  0  0  0  0
  4  2  1  0  0  0  0
  7  1  1  0  0  0  0
 11  3  1  0  0  0  0
 12  4  1  0  0  0  0
 13 12  1  0  0  0  0
 13 19  1  0  0  0  0
 14 21  1  0  0  0  0
 14 13  1  0  0  0  0
 15 14  1  0  0  0  0
 15 16  1  0  0  0  0
 16 25  1  6  0  0  0
 16 17  1  0  0  0  0
 16 12  1  0  0  0  0
 17 31  1  0  0  0  0
 18 17  2  0  0  0  0
 20 13  1  0  0  0  0
 22 14  1  0  0  0  0
 23 15  1  0  0  0  0
 24 15  1  0  0  0  0
 26 27  1  0  0  0  0
 26 36  1  0  0  0  0
 26 35  1  0  0  0  0
 27 28  1  0  0  0  0
 28 40  1  0  0  0  0
 28 39  1  0  0  0  0
 28 41  1  0  0  0  0
 29 42  1  0  0  0  0
 29 27  1  0  0  0  0
 30 29  1  0  0  0  0
 30 44  1  1  0  0  0
 31 30  1  0  0  0  0
 31 45  1  0  0  0  0
 32 34  1  0  0  0  0
 32 30  1  0  0  0  0
 33 32  2  0  0  0  0
 37 26  1  0  0  0  0
 38 27  1  0  0  0  0
 43 29  1  0  0  0  0
M  END
$$$$
