APM.pdb
 OpenBabel07022418023D

 43 43  0  0  1  0  0  0  0  0999 V2000
    1.1840   -4.4750    2.1410 C   0  0  0  0  0  0  0  0  0  0  0  0
    0.0340   -3.5900    1.6800 C   0  0  2  0  0  0  0  0  0  0  0  0
   -0.9990   -4.3410    1.0330 N   0  0  0  0  0  0  0  0  0  0  0  0
    0.5440   -2.4320    0.9130 C   0  0  0  0  0  0  0  0  0  0  0  0
    1.5060   -1.8030    1.4840 O   0  0  0  0  0  0  0  0  0  0  0  0
    0.7240   -5.2780    2.7590 H   0  0  0  0  0  0  0  0  0  0  0  0
    1.7250   -4.9410    1.3200 H   0  0  0  0  0  0  0  0  0  0  0  0
    1.8800   -3.8350    2.7080 H   0  0  0  0  0  0  0  0  0  0  0  0
   -0.4210   -3.2160    2.6470 H   0  0  0  0  0  0  0  0  0  0  0  0
   -1.9230   -4.2950    1.5170 H   0  0  0  0  0  0  0  0  0  0  0  0
   -0.7880   -5.3370    0.8760 H   0  0  0  0  0  0  0  0  0  0  0  0
    0.0650   -1.9940   -0.3480 N   0  0  0  0  0  0  0  0  0  0  0  0
   -0.9860   -2.5000   -1.1880 C   0  0  0  0  0  0  0  0  0  0  0  0
   -1.4510   -1.2460   -1.8980 C   0  0  0  0  0  0  0  0  0  0  0  0
   -0.0710   -0.7580   -2.3670 C   0  0  0  0  0  0  0  0  0  0  0  0
    0.6570   -0.8570   -1.0340 C   0  0  1  0  0  0  0  0  0  0  0  0
    0.3780    0.4390   -0.3540 C   0  0  0  0  0  0  0  0  0  0  0  0
    0.8750    1.4460   -0.9200 O   0  0  0  0  0  0  0  0  0  0  0  0
   -0.5610   -3.1670   -1.9960 H   0  0  0  0  0  0  0  0  0  0  0  0
   -1.8170   -2.9990   -0.6600 H   0  0  0  0  0  0  0  0  0  0  0  0
   -1.8430   -0.5590   -1.1430 H   0  0  0  0  0  0  0  0  0  0  0  0
   -2.1200   -1.4450   -2.7400 H   0  0  0  0  0  0  0  0  0  0  0  0
    0.3410   -1.5150   -3.0490 H   0  0  0  0  0  0  0  0  0  0  0  0
   -0.1060    0.2590   -2.7590 H   0  0  0  0  0  0  0  0  0  0  0  0
    1.7440   -1.0000   -1.1400 H   0  0  0  0  0  0  0  0  0  0  0  0
    4.0400    2.2870    2.6450 C   0  0  0  0  0  0  0  0  0  0  0  0
    2.6820    2.3320    3.8560 S   0  0  0  0  0  0  0  0  0  0  0  0
    1.1830    1.6270    3.1240 C   0  0  0  0  0  0  0  0  0  0  0  0
    0.6670    2.4740    1.9980 C   0  0  0  0  0  0  0  0  0  0  0  0
   -0.5740    1.9210    1.3700 C   0  0  2  0  0  0  0  0  0  0  0  0
   -0.3660    0.6020    0.8160 N   0  0  0  0  0  0  0  0  0  0  0  0
   -1.1150    2.8920    0.3630 C   0  0  0  0  0  0  0  0  0  0  0  0
   -1.2780    4.0660    0.7650 O   0  0  0  0  0  0  0  0  0  0  0  0
   -1.4350    2.5810   -0.9340 O   0  0  0  0  0  0  0  0  0  0  0  0
    4.1390    1.2600    2.2480 H   0  0  0  0  0  0  0  0  0  0  0  0
    4.9640    2.5480    3.1960 H   0  0  0  0  0  0  0  0  0  0  0  0
    3.9140    3.0540    1.8580 H   0  0  0  0  0  0  0  0  0  0  0  0
    0.4210    1.4850    3.9270 H   0  0  0  0  0  0  0  0  0  0  0  0
    1.4540    0.6460    2.7060 H   0  0  0  0  0  0  0  0  0  0  0  0
    0.5020    3.5040    2.3620 H   0  0  0  0  0  0  0  0  0  0  0  0
    1.4940    2.5330    1.2440 H   0  0  0  0  0  0  0  0  0  0  0  0
   -1.3740    1.8960    2.1590 H   0  0  0  0  0  0  0  0  0  0  0  0
   -0.7580   -0.2660    1.2600 H   0  0  0  0  0  0  0  0  0  0  0  0
  1  8  1  0  0  0  0
  1  6  1  0  0  0  0
  2  1  1  0  0  0  0
  2  9  1  1  0  0  0
  3 10  1  0  0  0  0
  3  2  1  0  0  0  0
  4  5  2  0  0  0  0
  4  2  1  0  0  0  0
  7  1  1  0  0  0  0
 11  3  1  0  0  0  0
 12  4  1  0  0  0  0
 13 20  1  0  0  0  0
 13 12  1  0  0  0  0
 14 13  1  0  0  0  0
 14 21  1  0  0  0  0
 15 14  1  0  0  0  0
 15 16  1  0  0  0  0
 16 25  1  6  0  0  0
 16 17  1  0  0  0  0
 16 12  1  0  0  0  0
 17 31  1  0  0  0  0
 18 17  2  0  0  0  0
 19 13  1  0  0  0  0
 22 14  1  0  0  0  0
 23 15  1  0  0  0  0
 24 15  1  0  0  0  0
 26 36  1  0  0  0  0
 26 27  1  0  0  0  0
 28 27  1  0  0  0  0
 28 38  1  0  0  0  0
 29 40  1  0  0  0  0
 29 28  1  0  0  0  0
 30 29  1  0  0  0  0
 30 42  1  1  0  0  0
 31 43  1  0  0  0  0
 31 30  1  0  0  0  0
 32 33  1  0  0  0  0
 32 30  1  0  0  0  0
 34 32  2  0  0  0  0
 35 26  1  0  0  0  0
 37 26  1  0  0  0  0
 39 28  1  0  0  0  0
 41 29  1  0  0  0  0
M  END
$$$$
