APP.pdb
 OpenBabel07022418023D

 40 41  0  0  1  0  0  0  0  0999 V2000
    1.6180   -5.4650    1.4890 C   0  0  0  0  0  0  0  0  0  0  0  0
    0.4750   -4.4690    1.4290 C   0  0  2  0  0  0  0  0  0  0  0  0
   -0.3180   -4.7790    0.2690 N   0  0  0  0  0  0  0  0  0  0  0  0
    0.9210   -3.0840    1.5280 C   0  0  0  0  0  0  0  0  0  0  0  0
    1.5740   -2.7350    2.5430 O   0  0  0  0  0  0  0  0  0  0  0  0
    2.0790   -5.4810    2.5010 H   0  0  0  0  0  0  0  0  0  0  0  0
    1.2120   -6.4800    1.3020 H   0  0  0  0  0  0  0  0  0  0  0  0
    2.4210   -5.2110    0.7780 H   0  0  0  0  0  0  0  0  0  0  0  0
   -0.1600   -4.7030    2.3230 H   0  0  0  0  0  0  0  0  0  0  0  0
   -1.2800   -5.1190    0.5110 H   0  0  0  0  0  0  0  0  0  0  0  0
    0.1660   -5.4370   -0.3800 H   0  0  0  0  0  0  0  0  0  0  0  0
    0.6760   -2.0560    0.5470 N   0  0  0  0  0  0  0  0  0  0  0  0
   -0.0370   -2.3350   -0.6540 C   0  0  0  0  0  0  0  0  0  0  0  0
    0.0540   -1.1190   -1.5160 C   0  0  0  0  0  0  0  0  0  0  0  0
    1.1630   -0.3260   -0.8690 C   0  0  0  0  0  0  0  0  0  0  0  0
    1.0580   -0.6900    0.5980 C   0  0  1  0  0  0  0  0  0  0  0  0
    0.0420    0.1900    1.2220 C   0  0  0  0  0  0  0  0  0  0  0  0
   -1.0290   -0.3610    1.5800 O   0  0  0  0  0  0  0  0  0  0  0  0
    0.5260   -3.1540   -1.1800 H   0  0  0  0  0  0  0  0  0  0  0  0
   -1.0920   -2.6530   -0.4690 H   0  0  0  0  0  0  0  0  0  0  0  0
   -0.9210   -0.5630   -1.4500 H   0  0  0  0  0  0  0  0  0  0  0  0
    0.2840   -1.3500   -2.5790 H   0  0  0  0  0  0  0  0  0  0  0  0
    2.1200   -0.6540   -1.3240 H   0  0  0  0  0  0  0  0  0  0  0  0
    0.9750    0.7490   -1.0610 H   0  0  0  0  0  0  0  0  0  0  0  0
    2.0660   -0.5800    1.0690 H   0  0  0  0  0  0  0  0  0  0  0  0
    0.1970    1.5650    1.4330 N   0  0  0  0  0  0  0  0  0  0  0  0
    1.3690    2.3270    1.0750 C   0  0  0  0  0  0  0  0  0  0  0  0
    1.4260    3.3750    2.1690 C   0  0  0  0  0  0  0  0  0  0  0  0
   -0.0450    3.7620    2.2800 C   0  0  0  0  0  0  0  0  0  0  0  0
   -0.7630    2.4500    2.0370 C   0  0  1  0  0  0  0  0  0  0  0  0
   -1.8870    2.7190    1.0940 C   0  0  0  0  0  0  0  0  0  0  0  0
   -2.8460    3.4670    1.4080 O   0  0  0  0  0  0  0  0  0  0  0  0
   -1.8770    2.1290   -0.1630 O   0  0  0  0  0  0  0  0  0  0  0  0
    1.2680    2.8280    0.0740 H   0  0  0  0  0  0  0  0  0  0  0  0
    2.2810    1.7150    1.0920 H   0  0  0  0  0  0  0  0  0  0  0  0
    1.7790    2.8980    3.0960 H   0  0  0  0  0  0  0  0  0  0  0  0
    1.9880    4.2680    1.8830 H   0  0  0  0  0  0  0  0  0  0  0  0
   -0.2990    4.5280    1.5220 H   0  0  0  0  0  0  0  0  0  0  0  0
   -0.1930    4.1210    3.3190 H   0  0  0  0  0  0  0  0  0  0  0  0
   -1.1060    2.0210    2.9930 H   0  0  0  0  0  0  0  0  0  0  0  0
  1  6  1  0  0  0  0
  2  1  1  0  0  0  0
  2  4  1  0  0  0  0
  2  9  1  1  0  0  0
  3 10  1  0  0  0  0
  3  2  1  0  0  0  0
  4  5  2  0  0  0  0
  7  1  1  0  0  0  0
  8  1  1  0  0  0  0
 11  3  1  0  0  0  0
 12 16  1  0  0  0  0
 12  4  1  0  0  0  0
 13 20  1  0  0  0  0
 13 12  1  0  0  0  0
 14 21  1  0  0  0  0
 14 15  1  0  0  0  0
 14 13  1  0  0  0  0
 15 16  1  0  0  0  0
 16 25  1  1  0  0  0
 16 17  1  0  0  0  0
 17 26  1  0  0  0  0
 17 18  2  0  0  0  0
 19 13  1  0  0  0  0
 22 14  1  0  0  0  0
 23 15  1  0  0  0  0
 24 15  1  0  0  0  0
 26 30  1  0  0  0  0
 27 35  1  0  0  0  0
 27 26  1  0  0  0  0
 27 28  1  0  0  0  0
 28 29  1  0  0  0  0
 28 36  1  0  0  0  0
 29 39  1  0  0  0  0
 30 29  1  0  0  0  0
 30 40  1  1  0  0  0
 31 32  1  0  0  0  0
 31 30  1  0  0  0  0
 33 31  2  0  0  0  0
 34 27  1  0  0  0  0
 37 28  1  0  0  0  0
 38 29  1  0  0  0  0
M  END
$$$$
