APR.pdb
 OpenBabel07022418023D

 49 49  0  0  1  0  0  0  0  0999 V2000
   -0.5120   -4.2560    1.8410 C   0  0  0  0  0  0  0  0  0  0  0  0
    0.9390   -3.8770    1.6740 C   0  0  2  0  0  0  0  0  0  0  0  0
    1.2380   -2.6030    2.2880 N   0  0  0  0  0  0  0  0  0  0  0  0
    1.3940   -3.9340    0.2770 C   0  0  0  0  0  0  0  0  0  0  0  0
    1.1370   -5.0360   -0.3230 O   0  0  0  0  0  0  0  0  0  0  0  0
   -1.0540   -3.3140    2.1030 H   0  0  0  0  0  0  0  0  0  0  0  0
   -0.6700   -4.9360    2.7160 H   0  0  0  0  0  0  0  0  0  0  0  0
   -0.9380   -4.7560    0.9680 H   0  0  0  0  0  0  0  0  0  0  0  0
    1.5220   -4.6510    2.2320 H   0  0  0  0  0  0  0  0  0  0  0  0
    2.0330   -2.6840    2.9510 H   0  0  0  0  0  0  0  0  0  0  0  0
    0.4160   -2.2320    2.8270 H   0  0  0  0  0  0  0  0  0  0  0  0
    2.0620   -2.9390   -0.4550 N   0  0  0  0  0  0  0  0  0  0  0  0
    2.4730   -3.0670   -1.8350 C   0  0  0  0  0  0  0  0  0  0  0  0
    2.9230   -1.6840   -2.2660 C   0  0  0  0  0  0  0  0  0  0  0  0
    3.5040   -1.1700   -0.9670 C   0  0  0  0  0  0  0  0  0  0  0  0
    2.4490   -1.6430    0.0250 C   0  0  1  0  0  0  0  0  0  0  0  0
    1.3340   -0.6460   -0.0730 C   0  0  0  0  0  0  0  0  0  0  0  0
    1.5630    0.5250    0.3170 O   0  0  0  0  0  0  0  0  0  0  0  0
    1.6600   -3.3900   -2.4990 H   0  0  0  0  0  0  0  0  0  0  0  0
    3.3480   -3.7350   -1.9670 H   0  0  0  0  0  0  0  0  0  0  0  0
    3.6790   -1.7090   -3.0530 H   0  0  0  0  0  0  0  0  0  0  0  0
    2.0300   -1.0860   -2.4930 H   0  0  0  0  0  0  0  0  0  0  0  0
    3.5830   -0.0800   -0.9300 H   0  0  0  0  0  0  0  0  0  0  0  0
    4.4700   -1.6790   -0.7510 H   0  0  0  0  0  0  0  0  0  0  0  0
    2.9520   -1.6310    1.0050 H   0  0  0  0  0  0  0  0  0  0  0  0
   -3.4090    4.6090    3.1540 N   0  0  0  0  0  0  0  0  0  0  0  0
   -2.2630    3.7640    3.2680 C   0  0  0  0  0  0  0  0  0  0  0  0
   -1.3400    4.0510    4.1370 N   0  0  0  0  0  0  0  0  0  0  0  0
   -2.1390    2.6260    2.4380 N   0  0  0  0  0  0  0  0  0  0  0  0
   -1.0380    1.7370    2.5810 C   0  0  0  0  0  0  0  0  0  0  0  0
   -1.0730    0.5790    1.6100 C   0  0  0  0  0  0  0  0  0  0  0  0
   -1.0530    1.0080    0.1860 C   0  0  0  0  0  0  0  0  0  0  0  0
   -1.0490   -0.2210   -0.7190 C   0  0  2  0  0  0  0  0  0  0  0  0
    0.1010   -1.0540   -0.5870 N   0  0  0  0  0  0  0  0  0  0  0  0
   -1.4610    0.0120   -2.0810 C   0  0  0  0  0  0  0  0  0  0  0  0
   -2.4450    0.7160   -2.3920 O   0  0  0  0  0  0  0  0  0  0  0  0
   -0.7380   -0.5680   -3.1310 O   0  0  0  0  0  0  0  0  0  0  0  0
   -4.1580    4.6630    3.8760 H   0  0  0  0  0  0  0  0  0  0  0  0
   -3.5160    5.2100    2.3100 H   0  0  0  0  0  0  0  0  0  0  0  0
   -1.3970    4.8660    4.7540 H   0  0  0  0  0  0  0  0  0  0  0  0
   -2.8680    2.4520    1.7220 H   0  0  0  0  0  0  0  0  0  0  0  0
   -0.9780    1.2920    3.6000 H   0  0  0  0  0  0  0  0  0  0  0  0
   -0.0480    2.2450    2.4160 H   0  0  0  0  0  0  0  0  0  0  0  0
   -0.3180   -0.1470    1.8990 H   0  0  0  0  0  0  0  0  0  0  0  0
   -2.0630    0.0300    1.8140 H   0  0  0  0  0  0  0  0  0  0  0  0
   -2.0670    1.4840   -0.0320 H   0  0  0  0  0  0  0  0  0  0  0  0
   -0.3120    1.7430   -0.1010 H   0  0  0  0  0  0  0  0  0  0  0  0
   -1.9060   -0.8280   -0.1990 H   0  0  0  0  0  0  0  0  0  0  0  0
    0.0270   -2.0830   -0.9040 H   0  0  0  0  0  0  0  0  0  0  0  0
  1  6  1  0  0  0  0
  1  7  1  0  0  0  0
  2  1  1  0  0  0  0
  2  9  1  1  0  0  0
  2  3  1  0  0  0  0
  3 11  1  0  0  0  0
  3 10  1  0  0  0  0
  4  2  1  0  0  0  0
  5  4  2  0  0  0  0
  8  1  1  0  0  0  0
 12 16  1  0  0  0  0
 12  4  1  0  0  0  0
 13 12  1  0  0  0  0
 14 13  1  0  0  0  0
 14 15  1  0  0  0  0
 15 23  1  0  0  0  0
 15 24  1  0  0  0  0
 15 16  1  0  0  0  0
 16 25  1  1  0  0  0
 17 16  1  0  0  0  0
 17 18  2  0  0  0  0
 19 13  1  0  0  0  0
 20 13  1  0  0  0  0
 21 14  1  0  0  0  0
 22 14  1  0  0  0  0
 26 27  1  0  0  0  0
 26 38  1  0  0  0  0
 27 28  2  0  0  0  0
 28 40  1  0  0  0  0
 29 30  1  0  0  0  0
 29 27  1  0  0  0  0
 30 42  1  0  0  0  0
 31 45  1  0  0  0  0
 31 44  1  0  0  0  0
 31 30  1  0  0  0  0
 32 31  1  0  0  0  0
 33 34  1  0  0  0  0
 33 48  1  1  0  0  0
 33 32  1  0  0  0  0
 34 17  1  0  0  0  0
 35 33  1  0  0  0  0
 36 35  1  0  0  0  0
 37 35  2  0  0  0  0
 39 26  1  0  0  0  0
 41 29  1  0  0  0  0
 43 30  1  0  0  0  0
 46 32  1  0  0  0  0
 47 32  1  0  0  0  0
 49 34  1  0  0  0  0
M  END
$$$$
