APS.pdb
 OpenBabel07022418023D

 37 37  0  0  1  0  0  0  0  0999 V2000
    0.5930   -3.8610    2.8050 C   0  0  0  0  0  0  0  0  0  0  0  0
    1.7500   -3.5800    1.8800 C   0  0  2  0  0  0  0  0  0  0  0  0
    2.9690   -3.5300    2.6820 N   0  0  0  0  0  0  0  0  0  0  0  0
    1.5300   -2.2640    1.2320 C   0  0  0  0  0  0  0  0  0  0  0  0
    2.2870   -1.3080    1.5100 O   0  0  0  0  0  0  0  0  0  0  0  0
   -0.2070   -3.0870    2.7400 H   0  0  0  0  0  0  0  0  0  0  0  0
    0.9760   -3.9290    3.8600 H   0  0  0  0  0  0  0  0  0  0  0  0
    0.1340   -4.8530    2.6200 H   0  0  0  0  0  0  0  0  0  0  0  0
    1.8230   -4.3900    1.1550 H   0  0  0  0  0  0  0  0  0  0  0  0
    3.6450   -4.2470    2.4030 H   0  0  0  0  0  0  0  0  0  0  0  0
    2.7380   -3.4870    3.6800 H   0  0  0  0  0  0  0  0  0  0  0  0
    0.4800   -2.0180    0.2870 N   0  0  0  0  0  0  0  0  0  0  0  0
   -0.4310   -3.0490   -0.1280 C   0  0  0  0  0  0  0  0  0  0  0  0
   -1.7530   -2.2800   -0.2170 C   0  0  0  0  0  0  0  0  0  0  0  0
   -1.2450   -1.0340   -0.9260 C   0  0  0  0  0  0  0  0  0  0  0  0
    0.1440   -0.8060   -0.3930 C   0  0  1  0  0  0  0  0  0  0  0  0
    0.1270    0.4010    0.4730 C   0  0  0  0  0  0  0  0  0  0  0  0
    0.3190    0.3580    1.7040 O   0  0  0  0  0  0  0  0  0  0  0  0
   -0.5070   -3.9140    0.5240 H   0  0  0  0  0  0  0  0  0  0  0  0
   -0.1640   -3.3490   -1.1770 H   0  0  0  0  0  0  0  0  0  0  0  0
   -2.0980   -2.0220    0.7910 H   0  0  0  0  0  0  0  0  0  0  0  0
   -2.4890   -2.7920   -0.8420 H   0  0  0  0  0  0  0  0  0  0  0  0
   -1.9020   -0.1760   -0.6780 H   0  0  0  0  0  0  0  0  0  0  0  0
   -1.1780   -1.2170   -2.0120 H   0  0  0  0  0  0  0  0  0  0  0  0
    0.8620   -0.6890   -1.2340 H   0  0  0  0  0  0  0  0  0  0  0  0
    2.1850    2.9780    0.3720 O   0  0  0  0  0  0  0  0  0  0  0  0
    1.0140    3.7200    0.1940 C   0  0  0  0  0  0  0  0  0  0  0  0
   -0.1440    2.8550    0.6760 C   0  0  2  0  0  0  0  0  0  0  0  0
   -0.1230    1.6480   -0.1550 N   0  0  0  0  0  0  0  0  0  0  0  0
   -1.4010    3.6140    0.4440 C   0  0  0  0  0  0  0  0  0  0  0  0
   -2.2480    3.1710   -0.3810 O   0  0  0  0  0  0  0  0  0  0  0  0
   -1.6690    4.7900    1.1050 O   0  0  0  0  0  0  0  0  0  0  0  0
    2.4680    2.5380   -0.4690 H   0  0  0  0  0  0  0  0  0  0  0  0
    1.0270    4.6740    0.7550 H   0  0  0  0  0  0  0  0  0  0  0  0
    0.8430    3.8670   -0.9000 H   0  0  0  0  0  0  0  0  0  0  0  0
    0.0430    2.6060    1.7180 H   0  0  0  0  0  0  0  0  0  0  0  0
   -0.2900    1.7130   -1.1960 H   0  0  0  0  0  0  0  0  0  0  0  0
  1  7  1  0  0  0  0
  2  9  1  6  0  0  0
  2  3  1  0  0  0  0
  2  1  1  0  0  0  0
  3 11  1  0  0  0  0
  4  5  2  0  0  0  0
  4  2  1  0  0  0  0
  6  1  1  0  0  0  0
  8  1  1  0  0  0  0
 10  3  1  0  0  0  0
 12  4  1  0  0  0  0
 13 12  1  0  0  0  0
 13 19  1  0  0  0  0
 14 13  1  0  0  0  0
 14 21  1  0  0  0  0
 15 23  1  0  0  0  0
 15 16  1  0  0  0  0
 15 14  1  0  0  0  0
 16 25  1  6  0  0  0
 16 12  1  0  0  0  0
 16 17  1  0  0  0  0
 17 18  2  0  0  0  0
 20 13  1  0  0  0  0
 22 14  1  0  0  0  0
 24 15  1  0  0  0  0
 27 26  1  0  0  0  0
 27 28  1  0  0  0  0
 27 34  1  0  0  0  0
 28 36  1  1  0  0  0
 29 17  1  0  0  0  0
 29 28  1  0  0  0  0
 30 28  1  0  0  0  0
 30 32  1  0  0  0  0
 31 30  2  0  0  0  0
 33 26  1  0  0  0  0
 35 27  1  0  0  0  0
 37 29  1  0  0  0  0
M  END
$$$$
