APT.pdb
 OpenBabel07022418023D

 40 40  0  0  1  0  0  0  0  0999 V2000
   -1.8140   -2.7640    0.8550 C   0  0  0  0  0  0  0  0  0  0  0  0
   -0.6000   -3.4740    1.4060 C   0  0  2  0  0  0  0  0  0  0  0  0
   -0.9400   -3.9200    2.7570 N   0  0  0  0  0  0  0  0  0  0  0  0
    0.5940   -2.6060    1.4370 C   0  0  0  0  0  0  0  0  0  0  0  0
    1.1190   -2.3430    2.5340 O   0  0  0  0  0  0  0  0  0  0  0  0
   -1.6720   -1.6660    0.7750 H   0  0  0  0  0  0  0  0  0  0  0  0
   -2.6600   -2.9060    1.5550 H   0  0  0  0  0  0  0  0  0  0  0  0
   -2.1670   -3.2040   -0.1090 H   0  0  0  0  0  0  0  0  0  0  0  0
   -0.4560   -4.3720    0.7690 H   0  0  0  0  0  0  0  0  0  0  0  0
   -1.7470   -4.6000    2.6570 H   0  0  0  0  0  0  0  0  0  0  0  0
   -1.3700   -3.0750    3.2240 H   0  0  0  0  0  0  0  0  0  0  0  0
    1.1930   -2.0370    0.2390 N   0  0  0  0  0  0  0  0  0  0  0  0
    0.7210   -2.2360   -1.1020 C   0  0  0  0  0  0  0  0  0  0  0  0
    1.5200   -1.3070   -1.9630 C   0  0  0  0  0  0  0  0  0  0  0  0
    2.8260   -1.1440   -1.1610 C   0  0  0  0  0  0  0  0  0  0  0  0
    2.3560   -1.1910    0.2280 C   0  0  1  0  0  0  0  0  0  0  0  0
    2.0850    0.1160    0.8520 C   0  0  0  0  0  0  0  0  0  0  0  0
    3.0390    0.9480    0.9220 O   0  0  0  0  0  0  0  0  0  0  0  0
    0.9350   -3.3120   -1.4020 H   0  0  0  0  0  0  0  0  0  0  0  0
   -0.3750   -2.0590   -1.2000 H   0  0  0  0  0  0  0  0  0  0  0  0
    0.9720   -0.3240   -1.9780 H   0  0  0  0  0  0  0  0  0  0  0  0
    1.7040   -1.6940   -2.9660 H   0  0  0  0  0  0  0  0  0  0  0  0
    3.2740   -0.2210   -1.5140 H   0  0  0  0  0  0  0  0  0  0  0  0
    3.4600   -1.9990   -1.4350 H   0  0  0  0  0  0  0  0  0  0  0  0
    3.1400   -1.7220    0.8420 H   0  0  0  0  0  0  0  0  0  0  0  0
    0.0440    2.9190   -0.1810 C   0  0  0  0  0  0  0  0  0  0  0  0
   -0.4390    2.6240    1.2210 C   0  0  1  0  0  0  0  0  0  0  0  0
   -1.6500    1.9280    1.2100 O   0  0  0  0  0  0  0  0  0  0  0  0
    0.6310    1.8410    1.9940 C   0  0  2  0  0  0  0  0  0  0  0  0
    0.8590    0.5530    1.3900 N   0  0  0  0  0  0  0  0  0  0  0  0
    0.1770    1.6000    3.3890 C   0  0  0  0  0  0  0  0  0  0  0  0
   -0.0860    2.5890    4.1200 O   0  0  0  0  0  0  0  0  0  0  0  0
    0.0240    0.3390    3.9370 O   0  0  0  0  0  0  0  0  0  0  0  0
   -0.4230    3.8080   -0.6220 H   0  0  0  0  0  0  0  0  0  0  0  0
   -0.0880    2.0250   -0.8300 H   0  0  0  0  0  0  0  0  0  0  0  0
    1.1510    3.1200   -0.1400 H   0  0  0  0  0  0  0  0  0  0  0  0
   -0.5280    3.5970    1.7450 H   0  0  0  0  0  0  0  0  0  0  0  0
   -2.3620    2.5790    0.9790 H   0  0  0  0  0  0  0  0  0  0  0  0
    1.5180    2.4870    2.0080 H   0  0  0  0  0  0  0  0  0  0  0  0
    0.0610   -0.1090    1.3440 H   0  0  0  0  0  0  0  0  0  0  0  0
  1  2  1  0  0  0  0
  1  7  1  0  0  0  0
  2  9  1  6  0  0  0
  2  4  1  0  0  0  0
  2  3  1  0  0  0  0
  3 11  1  0  0  0  0
  4  5  2  0  0  0  0
  6  1  1  0  0  0  0
  8  1  1  0  0  0  0
 10  3  1  0  0  0  0
 12  4  1  0  0  0  0
 13 12  1  0  0  0  0
 14 15  1  0  0  0  0
 14 13  1  0  0  0  0
 15 16  1  0  0  0  0
 16 12  1  0  0  0  0
 16 25  1  1  0  0  0
 16 17  1  0  0  0  0
 17 18  2  0  0  0  0
 17 30  1  0  0  0  0
 19 13  1  0  0  0  0
 20 13  1  0  0  0  0
 21 14  1  0  0  0  0
 22 14  1  0  0  0  0
 23 15  1  0  0  0  0
 24 15  1  0  0  0  0
 26 36  1  0  0  0  0
 26 27  1  0  0  0  0
 27 37  1  1  0  0  0
 27 29  1  0  0  0  0
 28 27  1  0  0  0  0
 29 39  1  1  0  0  0
 29 31  1  0  0  0  0
 30 29  1  0  0  0  0
 31 33  2  0  0  0  0
 31 32  1  0  0  0  0
 34 26  1  0  0  0  0
 35 26  1  0  0  0  0
 38 28  1  0  0  0  0
 40 30  1  0  0  0  0
M  END
$$$$
