AQD.pdb
 OpenBabel07022418003D

 42 41  0  0  1  0  0  0  0  0999 V2000
    1.0970   -4.6530    1.5630 C   0  0  0  0  0  0  0  0  0  0  0  0
    2.4190   -4.0060    1.1370 C   0  0  2  0  0  0  0  0  0  0  0  0
    3.4180   -4.4870    2.0690 N   0  0  0  0  0  0  0  0  0  0  0  0
    2.3060   -2.5310    1.3380 C   0  0  0  0  0  0  0  0  0  0  0  0
    2.9960   -1.9100    2.1890 O   0  0  0  0  0  0  0  0  0  0  0  0
    1.3240   -5.7360    1.7500 H   0  0  0  0  0  0  0  0  0  0  0  0
    0.7660   -4.2400    2.5340 H   0  0  0  0  0  0  0  0  0  0  0  0
    0.3310   -4.5720    0.7820 H   0  0  0  0  0  0  0  0  0  0  0  0
    2.6450   -4.2650    0.1000 H   0  0  0  0  0  0  0  0  0  0  0  0
    3.1730   -5.4710    2.3560 H   0  0  0  0  0  0  0  0  0  0  0  0
    3.4750   -3.8360    2.8790 H   0  0  0  0  0  0  0  0  0  0  0  0
    1.1110   -1.1600   -3.5570 N   0  0  0  0  0  0  0  0  0  0  0  0
    1.8100   -0.8580   -2.3610 C   0  0  0  0  0  0  0  0  0  0  0  0
    2.6280   -1.6970   -1.9310 O   0  0  0  0  0  0  0  0  0  0  0  0
    1.5720    0.3970   -1.6740 C   0  0  0  0  0  0  0  0  0  0  0  0
    1.9610    0.5090   -0.2580 C   0  0  0  0  0  0  0  0  0  0  0  0
    1.2880   -0.3380    0.7500 C   0  0  2  0  0  0  0  0  0  0  0  0
    1.3980   -1.7620    0.5580 N   0  0  0  0  0  0  0  0  0  0  0  0
   -0.1080    0.0280    1.0340 C   0  0  0  0  0  0  0  0  0  0  0  0
   -0.9540   -0.8990    1.0640 O   0  0  0  0  0  0  0  0  0  0  0  0
    0.1740   -1.6040   -3.4940 H   0  0  0  0  0  0  0  0  0  0  0  0
    1.5130   -0.9490   -4.4770 H   0  0  0  0  0  0  0  0  0  0  0  0
    2.1350    1.2150   -2.2260 H   0  0  0  0  0  0  0  0  0  0  0  0
    0.5010    0.7520   -1.7760 H   0  0  0  0  0  0  0  0  0  0  0  0
    1.9410    1.5730    0.0560 H   0  0  0  0  0  0  0  0  0  0  0  0
    3.0650    0.2480   -0.2040 H   0  0  0  0  0  0  0  0  0  0  0  0
    1.8340   -0.0750    1.7340 H   0  0  0  0  0  0  0  0  0  0  0  0
    0.8180   -2.2920   -0.1260 H   0  0  0  0  0  0  0  0  0  0  0  0
   -0.5670    1.3340    1.2730 N   0  0  0  0  0  0  0  0  0  0  0  0
   -1.9110    1.7150    1.5490 C   0  0  1  0  0  0  0  0  0  0  0  0
   -2.1040    2.3740    2.8890 C   0  0  0  0  0  0  0  0  0  0  0  0
   -1.6850    1.4300    3.9350 C   0  0  0  0  0  0  0  0  0  0  0  0
   -0.4770    1.2970    4.2060 O   0  0  0  0  0  0  0  0  0  0  0  0
   -2.4280    2.6400    0.5150 C   0  0  0  0  0  0  0  0  0  0  0  0
   -1.6840    2.9720   -0.4320 O   0  0  0  0  0  0  0  0  0  0  0  0
   -2.6250    0.6920    4.6150 O   0  0  0  0  0  0  0  0  0  0  0  0
   -3.7050    3.1290    0.5930 O   0  0  0  0  0  0  0  0  0  0  0  0
    0.1620    2.1040    1.2430 H   0  0  0  0  0  0  0  0  0  0  0  0
   -2.5410    0.8010    1.5450 H   0  0  0  0  0  0  0  0  0  0  0  0
   -3.1850    2.5800    3.0230 H   0  0  0  0  0  0  0  0  0  0  0  0
   -1.6030    3.3580    2.9600 H   0  0  0  0  0  0  0  0  0  0  0  0
   -2.3630   -0.1870    5.0360 H   0  0  0  0  0  0  0  0  0  0  0  0
  1  6  1  0  0  0  0
  1  7  1  0  0  0  0
  2  9  1  6  0  0  0
  2  4  1  0  0  0  0
  2  1  1  0  0  0  0
  2  3  1  0  0  0  0
  3 10  1  0  0  0  0
  3 11  1  0  0  0  0
  4  5  2  0  0  0  0
  8  1  1  0  0  0  0
 12 21  1  0  0  0  0
 12 13  1  0  0  0  0
 13 14  2  0  0  0  0
 13 15  1  0  0  0  0
 15 16  1  0  0  0  0
 16 26  1  0  0  0  0
 16 25  1  0  0  0  0
 16 17  1  0  0  0  0
 17 19  1  0  0  0  0
 17 27  1  1  0  0  0
 18 17  1  0  0  0  0
 18  4  1  0  0  0  0
 19 20  2  0  0  0  0
 19 29  1  0  0  0  0
 22 12  1  0  0  0  0
 23 15  1  0  0  0  0
 24 15  1  0  0  0  0
 28 18  1  0  0  0  0
 29 30  1  0  0  0  0
 30 39  1  6  0  0  0
 30 31  1  0  0  0  0
 31 41  1  0  0  0  0
 31 40  1  0  0  0  0
 31 32  1  0  0  0  0
 32 33  2  0  0  0  0
 32 36  1  0  0  0  0
 34 37  1  0  0  0  0
 34 30  1  0  0  0  0
 35 34  2  0  0  0  0
 36 42  1  0  0  0  0
 38 29  1  0  0  0  0
M  END
$$$$
