AQE.pdb
 OpenBabel07022418003D

 45 44  0  0  1  0  0  0  0  0999 V2000
    3.0700   -4.5330    1.7670 C   0  0  0  0  0  0  0  0  0  0  0  0
    2.2090   -3.3440    2.1370 C   0  0  2  0  0  0  0  0  0  0  0  0
    0.8580   -3.6460    1.7200 N   0  0  0  0  0  0  0  0  0  0  0  0
    2.7100   -2.0850    1.5840 C   0  0  0  0  0  0  0  0  0  0  0  0
    3.8410   -1.5930    1.7860 O   0  0  0  0  0  0  0  0  0  0  0  0
    3.2640   -5.2040    2.6290 H   0  0  0  0  0  0  0  0  0  0  0  0
    2.6290   -5.1450    0.9660 H   0  0  0  0  0  0  0  0  0  0  0  0
    4.0600   -4.1760    1.4030 H   0  0  0  0  0  0  0  0  0  0  0  0
    2.2030   -3.2690    3.2570 H   0  0  0  0  0  0  0  0  0  0  0  0
    0.8260   -3.7750    0.6720 H   0  0  0  0  0  0  0  0  0  0  0  0
    0.6240   -4.5830    2.1230 H   0  0  0  0  0  0  0  0  0  0  0  0
   -0.3000   -2.0770   -2.8600 N   0  0  0  0  0  0  0  0  0  0  0  0
    0.9440   -1.6720   -2.2840 C   0  0  0  0  0  0  0  0  0  0  0  0
    1.6740   -2.5700   -1.8100 O   0  0  0  0  0  0  0  0  0  0  0  0
    1.3480   -0.2710   -2.2520 C   0  0  0  0  0  0  0  0  0  0  0  0
    2.4500    0.0780   -1.2930 C   0  0  0  0  0  0  0  0  0  0  0  0
    2.2030   -0.0990    0.1300 C   0  0  2  0  0  0  0  0  0  0  0  0
    1.8690   -1.3120    0.7300 N   0  0  0  0  0  0  0  0  0  0  0  0
    1.2230    0.9520    0.5710 C   0  0  0  0  0  0  0  0  0  0  0  0
    1.3270    2.1470    0.1510 O   0  0  0  0  0  0  0  0  0  0  0  0
   -0.6430   -1.7310   -3.7830 H   0  0  0  0  0  0  0  0  0  0  0  0
   -0.8750   -2.7570   -2.3040 H   0  0  0  0  0  0  0  0  0  0  0  0
    1.6320   -0.0100   -3.3160 H   0  0  0  0  0  0  0  0  0  0  0  0
    0.4290    0.3300   -2.0820 H   0  0  0  0  0  0  0  0  0  0  0  0
    2.5900    1.2000   -1.4420 H   0  0  0  0  0  0  0  0  0  0  0  0
    3.4170   -0.3200   -1.6810 H   0  0  0  0  0  0  0  0  0  0  0  0
    3.1770    0.2250    0.6580 H   0  0  0  0  0  0  0  0  0  0  0  0
    0.8840   -1.6840    0.5480 H   0  0  0  0  0  0  0  0  0  0  0  0
    0.1580    0.6810    1.4550 N   0  0  0  0  0  0  0  0  0  0  0  0
   -0.7690    1.7630    1.8470 C   0  0  1  0  0  0  0  0  0  0  0  0
   -2.1250    1.2670    1.4080 C   0  0  0  0  0  0  0  0  0  0  0  0
   -3.2580    2.1890    1.6870 C   0  0  0  0  0  0  0  0  0  0  0  0
   -4.5220    1.5720    1.1920 C   0  0  0  0  0  0  0  0  0  0  0  0
   -4.4880    0.4460    0.6470 O   0  0  0  0  0  0  0  0  0  0  0  0
   -0.7560    1.8550    3.3290 C   0  0  0  0  0  0  0  0  0  0  0  0
   -1.4100    2.6850    3.9910 O   0  0  0  0  0  0  0  0  0  0  0  0
   -5.7530    2.2360    1.3290 O   0  0  0  0  0  0  0  0  0  0  0  0
    0.0310    0.9720    4.0940 O   0  0  0  0  0  0  0  0  0  0  0  0
    0.0180   -0.2610    1.8300 H   0  0  0  0  0  0  0  0  0  0  0  0
   -0.4790    2.7050    1.3590 H   0  0  0  0  0  0  0  0  0  0  0  0
   -2.3120    0.3320    2.0170 H   0  0  0  0  0  0  0  0  0  0  0  0
   -2.1160    0.9030    0.3570 H   0  0  0  0  0  0  0  0  0  0  0  0
   -3.3300    2.3970    2.7640 H   0  0  0  0  0  0  0  0  0  0  0  0
   -3.0550    3.1430    1.1280 H   0  0  0  0  0  0  0  0  0  0  0  0
   -6.4830    2.1000    0.6230 H   0  0  0  0  0  0  0  0  0  0  0  0
  1  2  1  0  0  0  0
  1  6  1  0  0  0  0
  2  9  1  1  0  0  0
  3 11  1  0  0  0  0
  3  2  1  0  0  0  0
  4  5  2  0  0  0  0
  4  2  1  0  0  0  0
  7  1  1  0  0  0  0
  8  1  1  0  0  0  0
 10  3  1  0  0  0  0
 12 22  1  0  0  0  0
 12 13  1  0  0  0  0
 13 15  1  0  0  0  0
 13 14  2  0  0  0  0
 15 24  1  0  0  0  0
 15 16  1  0  0  0  0
 16 17  1  0  0  0  0
 17 19  1  0  0  0  0
 17 27  1  1  0  0  0
 17 18  1  0  0  0  0
 18  4  1  0  0  0  0
 19 29  1  0  0  0  0
 20 19  2  0  0  0  0
 21 12  1  0  0  0  0
 23 15  1  0  0  0  0
 25 16  1  0  0  0  0
 26 16  1  0  0  0  0
 28 18  1  0  0  0  0
 29 39  1  0  0  0  0
 29 30  1  0  0  0  0
 30 40  1  6  0  0  0
 30 35  1  0  0  0  0
 31 32  1  0  0  0  0
 31 30  1  0  0  0  0
 31 41  1  0  0  0  0
 32 43  1  0  0  0  0
 33 37  1  0  0  0  0
 33 32  1  0  0  0  0
 34 33  2  0  0  0  0
 35 36  2  0  0  0  0
 35 38  1  0  0  0  0
 42 31  1  0  0  0  0
 44 32  1  0  0  0  0
 45 37  1  0  0  0  0
M  END
$$$$
