AQF.pdb
 OpenBabel07022418003D

 49 49  0  0  1  0  0  0  0  0999 V2000
   -0.3050   -0.2680    5.5900 C   0  0  0  0  0  0  0  0  0  0  0  0
   -0.7290    0.2450    4.2060 C   0  0  2  0  0  0  0  0  0  0  0  0
   -1.7680   -0.5920    3.6520 N   0  0  0  0  0  0  0  0  0  0  0  0
    0.4960    0.2460    3.3810 C   0  0  0  0  0  0  0  0  0  0  0  0
    1.4290    1.0190    3.7850 O   0  0  0  0  0  0  0  0  0  0  0  0
   -0.0240   -1.3420    5.5040 H   0  0  0  0  0  0  0  0  0  0  0  0
    0.6170    0.2860    5.8560 H   0  0  0  0  0  0  0  0  0  0  0  0
   -1.1150   -0.1220    6.3280 H   0  0  0  0  0  0  0  0  0  0  0  0
   -1.1640    1.2500    4.3750 H   0  0  0  0  0  0  0  0  0  0  0  0
   -1.9280   -1.3770    4.3200 H   0  0  0  0  0  0  0  0  0  0  0  0
   -2.6860   -0.0890    3.5630 H   0  0  0  0  0  0  0  0  0  0  0  0
    4.9370   -1.7930   -1.4270 N   0  0  0  0  0  0  0  0  0  0  0  0
    3.8490   -2.0910   -0.5700 C   0  0  0  0  0  0  0  0  0  0  0  0
    2.7660   -2.4590   -1.1300 O   0  0  0  0  0  0  0  0  0  0  0  0
    3.9110   -2.0050    0.8960 C   0  0  0  0  0  0  0  0  0  0  0  0
    2.6460   -1.7570    1.6060 C   0  0  0  0  0  0  0  0  0  0  0  0
    1.9510   -0.4640    1.4460 C   0  0  2  0  0  0  0  0  0  0  0  0
    0.7050   -0.5150    2.2230 N   0  0  0  0  0  0  0  0  0  0  0  0
    1.7130    0.0810    0.1220 C   0  0  0  0  0  0  0  0  0  0  0  0
    2.6260    0.4040   -0.6770 O   0  0  0  0  0  0  0  0  0  0  0  0
    5.1650   -0.8480   -1.7800 H   0  0  0  0  0  0  0  0  0  0  0  0
    5.5440   -2.5960   -1.7150 H   0  0  0  0  0  0  0  0  0  0  0  0
    4.7490   -1.3310    1.2380 H   0  0  0  0  0  0  0  0  0  0  0  0
    4.2810   -3.0240    1.2330 H   0  0  0  0  0  0  0  0  0  0  0  0
    1.9760   -2.6420    1.4300 H   0  0  0  0  0  0  0  0  0  0  0  0
    2.8740   -1.8560    2.7180 H   0  0  0  0  0  0  0  0  0  0  0  0
    2.5970    0.3050    1.9800 H   0  0  0  0  0  0  0  0  0  0  0  0
   -0.0610   -1.1470    1.9040 H   0  0  0  0  0  0  0  0  0  0  0  0
    0.3760    0.2690   -0.3140 N   0  0  0  0  0  0  0  0  0  0  0  0
    0.0690    0.8030   -1.6090 C   0  0  1  0  0  0  0  0  0  0  0  0
   -0.5690   -0.2650   -2.4710 C   0  0  0  0  0  0  0  0  0  0  0  0
   -1.8080   -0.8040   -1.9050 C   0  0  0  0  0  0  0  0  0  0  0  0
   -1.8040   -1.9140   -1.0640 C   0  0  0  0  0  0  0  0  0  0  0  0
   -2.9580   -2.4310   -0.5210 C   0  0  0  0  0  0  0  0  0  0  0  0
   -4.1510   -1.8060   -0.8380 C   0  0  0  0  0  0  0  0  0  0  0  0
   -4.1820   -0.7090   -1.6650 C   0  0  0  0  0  0  0  0  0  0  0  0
   -3.0130   -0.2100   -2.1970 C   0  0  0  0  0  0  0  0  0  0  0  0
   -0.7920    2.0010   -1.5150 C   0  0  0  0  0  0  0  0  0  0  0  0
   -1.1470    2.6000   -2.5850 O   0  0  0  0  0  0  0  0  0  0  0  0
   -1.1930    2.4460   -0.2610 O   0  0  0  0  0  0  0  0  0  0  0  0
   -0.4580    0.0240    0.2960 H   0  0  0  0  0  0  0  0  0  0  0  0
    1.0250    1.0610   -2.1320 H   0  0  0  0  0  0  0  0  0  0  0  0
    0.1480   -1.1030   -2.5710 H   0  0  0  0  0  0  0  0  0  0  0  0
   -0.7750    0.1460   -3.4730 H   0  0  0  0  0  0  0  0  0  0  0  0
   -0.8590   -2.3920   -0.8280 H   0  0  0  0  0  0  0  0  0  0  0  0
   -2.9210   -3.2940    0.1250 H   0  0  0  0  0  0  0  0  0  0  0  0
   -5.0730   -2.2210   -0.4030 H   0  0  0  0  0  0  0  0  0  0  0  0
   -5.1140   -0.2120   -1.9190 H   0  0  0  0  0  0  0  0  0  0  0  0
   -3.0690    0.6710   -2.8600 H   0  0  0  0  0  0  0  0  0  0  0  0
  1  7  1  0  0  0  0
  1  8  1  0  0  0  0
  2  9  1  1  0  0  0
  2  1  1  0  0  0  0
  3  2  1  0  0  0  0
  3 10  1  0  0  0  0
  4  5  2  0  0  0  0
  4  2  1  0  0  0  0
  6  1  1  0  0  0  0
 11  3  1  0  0  0  0
 12 13  1  0  0  0  0
 13 15  1  0  0  0  0
 14 13  2  0  0  0  0
 15 24  1  0  0  0  0
 15 23  1  0  0  0  0
 15 16  1  0  0  0  0
 16 26  1  0  0  0  0
 17 16  1  0  0  0  0
 17 27  1  1  0  0  0
 17 18  1  0  0  0  0
 18  4  1  0  0  0  0
 19 17  1  0  0  0  0
 20 19  2  0  0  0  0
 21 12  1  0  0  0  0
 22 12  1  0  0  0  0
 25 16  1  0  0  0  0
 28 18  1  0  0  0  0
 29 19  1  0  0  0  0
 29 41  1  0  0  0  0
 30 42  1  6  0  0  0
 30 38  1  0  0  0  0
 30 29  1  0  0  0  0
 31 32  1  0  0  0  0
 31 30  1  0  0  0  0
 32 33  1  0  0  0  0
 33 45  1  0  0  0  0
 33 34  2  0  0  0  0
 34 46  1  0  0  0  0
 35 34  1  0  0  0  0
 35 47  1  0  0  0  0
 36 35  2  0  0  0  0
 37 32  2  0  0  0  0
 37 36  1  0  0  0  0
 38 40  1  0  0  0  0
 39 38  2  0  0  0  0
 43 31  1  0  0  0  0
 44 31  1  0  0  0  0
 48 36  1  0  0  0  0
 49 37  1  0  0  0  0
M  END
$$$$
