AQK.pdb
 OpenBabel07022418003D

 50 49  0  0  1  0  0  0  0  0999 V2000
    4.3070   -1.9590    4.6570 C   0  0  0  0  0  0  0  0  0  0  0  0
    3.0830   -1.1160    4.2890 C   0  0  2  0  0  0  0  0  0  0  0  0
    1.9260   -1.8990    4.6350 N   0  0  0  0  0  0  0  0  0  0  0  0
    3.1800   -0.8430    2.8430 C   0  0  0  0  0  0  0  0  0  0  0  0
    4.1590   -0.1650    2.4430 O   0  0  0  0  0  0  0  0  0  0  0  0
    4.0510   -2.6410    5.5040 H   0  0  0  0  0  0  0  0  0  0  0  0
    4.5880   -2.6330    3.8120 H   0  0  0  0  0  0  0  0  0  0  0  0
    5.1310   -1.2760    4.8940 H   0  0  0  0  0  0  0  0  0  0  0  0
    3.0690   -0.1720    4.8400 H   0  0  0  0  0  0  0  0  0  0  0  0
    2.1140   -2.9210    4.7110 H   0  0  0  0  0  0  0  0  0  0  0  0
    1.3960   -1.5200    5.4380 H   0  0  0  0  0  0  0  0  0  0  0  0
    0.4660   -5.4400   -0.8110 N   0  0  0  0  0  0  0  0  0  0  0  0
    1.4900   -4.4680   -0.8780 C   0  0  0  0  0  0  0  0  0  0  0  0
    2.5040   -4.6740   -1.5790 O   0  0  0  0  0  0  0  0  0  0  0  0
    1.3550   -3.2210   -0.1230 C   0  0  0  0  0  0  0  0  0  0  0  0
    2.5620   -2.3030   -0.3270 C   0  0  0  0  0  0  0  0  0  0  0  0
    2.3560   -1.0200    0.4890 C   0  0  2  0  0  0  0  0  0  0  0  0
    2.2250   -1.3080    1.8860 N   0  0  0  0  0  0  0  0  0  0  0  0
    1.2310   -0.2340   -0.0530 C   0  0  0  0  0  0  0  0  0  0  0  0
    1.2710    0.0610   -1.2770 O   0  0  0  0  0  0  0  0  0  0  0  0
    0.0110   -5.7970   -1.6920 H   0  0  0  0  0  0  0  0  0  0  0  0
    0.1020   -5.8560    0.0750 H   0  0  0  0  0  0  0  0  0  0  0  0
    1.3420   -3.4840    0.9700 H   0  0  0  0  0  0  0  0  0  0  0  0
    0.4580   -2.6750   -0.4270 H   0  0  0  0  0  0  0  0  0  0  0  0
    2.6770   -2.0610   -1.4020 H   0  0  0  0  0  0  0  0  0  0  0  0
    3.4940   -2.8100   -0.0090 H   0  0  0  0  0  0  0  0  0  0  0  0
    3.2750   -0.4170    0.3440 H   0  0  0  0  0  0  0  0  0  0  0  0
    1.4300   -1.8700    2.2900 H   0  0  0  0  0  0  0  0  0  0  0  0
    0.1300    0.2040    0.6930 N   0  0  0  0  0  0  0  0  0  0  0  0
   -0.9370    0.9690    0.1030 C   0  0  1  0  0  0  0  0  0  0  0  0
   -2.1850    0.1430    0.1780 C   0  0  0  0  0  0  0  0  0  0  0  0
   -3.3990    0.7830   -0.3910 C   0  0  0  0  0  0  0  0  0  0  0  0
   -3.2620    1.1240   -1.8580 C   0  0  0  0  0  0  0  0  0  0  0  0
   -4.5680    1.7740   -2.3270 C   0  0  0  0  0  0  0  0  0  0  0  0
   -4.8690    2.9720   -1.6050 N   0  0  0  0  0  0  0  0  0  0  0  0
   -1.0780    2.3110    0.7030 C   0  0  0  0  0  0  0  0  0  0  0  0
   -0.3290    2.7130    1.6350 O   0  0  0  0  0  0  0  0  0  0  0  0
   -2.0500    3.1960    0.2620 O   0  0  0  0  0  0  0  0  0  0  0  0
    0.0680   -0.0230    1.7010 H   0  0  0  0  0  0  0  0  0  0  0  0
   -0.6960    1.1100   -0.9700 H   0  0  0  0  0  0  0  0  0  0  0  0
   -2.3850   -0.0750    1.2500 H   0  0  0  0  0  0  0  0  0  0  0  0
   -2.0110   -0.8190   -0.3160 H   0  0  0  0  0  0  0  0  0  0  0  0
   -4.2170    0.0030   -0.3470 H   0  0  0  0  0  0  0  0  0  0  0  0
   -3.7890    1.6440    0.1490 H   0  0  0  0  0  0  0  0  0  0  0  0
   -3.1230    0.2230   -2.4910 H   0  0  0  0  0  0  0  0  0  0  0  0
   -2.4220    1.8000   -2.0770 H   0  0  0  0  0  0  0  0  0  0  0  0
   -5.4170    1.0730   -2.2090 H   0  0  0  0  0  0  0  0  0  0  0  0
   -4.4980    2.0370   -3.4020 H   0  0  0  0  0  0  0  0  0  0  0  0
   -5.2340    2.8400   -0.6540 H   0  0  0  0  0  0  0  0  0  0  0  0
   -4.2070    3.7430   -1.7230 H   0  0  0  0  0  0  0  0  0  0  0  0
  1  8  1  0  0  0  0
  1  6  1  0  0  0  0
  2  3  1  0  0  0  0
  2  1  1  0  0  0  0
  2  9  1  1  0  0  0
  3 10  1  0  0  0  0
  3 11  1  0  0  0  0
  4  2  1  0  0  0  0
  5  4  2  0  0  0  0
  7  1  1  0  0  0  0
 12 22  1  0  0  0  0
 13 12  1  0  0  0  0
 13 15  1  0  0  0  0
 14 13  2  0  0  0  0
 15 23  1  0  0  0  0
 16 15  1  0  0  0  0
 16 26  1  0  0  0  0
 16 17  1  0  0  0  0
 17 27  1  6  0  0  0
 17 18  1  0  0  0  0
 18 28  1  0  0  0  0
 18  4  1  0  0  0  0
 19 17  1  0  0  0  0
 19 29  1  0  0  0  0
 20 19  2  0  0  0  0
 21 12  1  0  0  0  0
 24 15  1  0  0  0  0
 25 16  1  0  0  0  0
 29 39  1  0  0  0  0
 30 40  1  6  0  0  0
 30 31  1  0  0  0  0
 30 29  1  0  0  0  0
 30 36  1  0  0  0  0
 31 41  1  0  0  0  0
 32 43  1  0  0  0  0
 32 44  1  0  0  0  0
 32 31  1  0  0  0  0
 33 32  1  0  0  0  0
 34 47  1  0  0  0  0
 34 33  1  0  0  0  0
 34 35  1  0  0  0  0
 35 49  1  0  0  0  0
 36 37  1  0  0  0  0
 38 36  2  0  0  0  0
 42 31  1  0  0  0  0
 45 33  1  0  0  0  0
 46 33  1  0  0  0  0
 48 34  1  0  0  0  0
 50 35  1  0  0  0  0
M  END
$$$$
