AQL.pdb
 OpenBabel07022418003D

 48 47  0  0  1  0  0  0  0  0999 V2000
    2.9390   -4.6710    2.2480 C   0  0  0  0  0  0  0  0  0  0  0  0
    2.0150   -3.5280    2.6630 C   0  0  2  0  0  0  0  0  0  0  0  0
    0.6920   -4.0970    2.8350 N   0  0  0  0  0  0  0  0  0  0  0  0
    1.9260   -2.5580    1.5290 C   0  0  0  0  0  0  0  0  0  0  0  0
    2.9310   -1.8990    1.1400 O   0  0  0  0  0  0  0  0  0  0  0  0
    3.8820   -4.6660    2.8330 H   0  0  0  0  0  0  0  0  0  0  0  0
    2.4600   -5.6610    2.4550 H   0  0  0  0  0  0  0  0  0  0  0  0
    3.1440   -4.6550    1.1650 H   0  0  0  0  0  0  0  0  0  0  0  0
    2.3860   -3.0430    3.5880 H   0  0  0  0  0  0  0  0  0  0  0  0
    0.6140   -4.6080    3.7380 H   0  0  0  0  0  0  0  0  0  0  0  0
    0.5930   -4.8370    2.0820 H   0  0  0  0  0  0  0  0  0  0  0  0
   -0.4970   -1.3440   -5.1810 N   0  0  0  0  0  0  0  0  0  0  0  0
   -0.3300   -1.9140   -3.9180 C   0  0  0  0  0  0  0  0  0  0  0  0
   -0.5760   -3.1380   -3.7740 O   0  0  0  0  0  0  0  0  0  0  0  0
    0.1340   -1.1120   -2.7240 C   0  0  0  0  0  0  0  0  0  0  0  0
    0.2100   -2.0020   -1.5370 C   0  0  0  0  0  0  0  0  0  0  0  0
    0.6670   -1.3800   -0.2640 C   0  0  2  0  0  0  0  0  0  0  0  0
    0.7130   -2.3290    0.8320 N   0  0  0  0  0  0  0  0  0  0  0  0
   -0.2090   -0.2420    0.1960 C   0  0  0  0  0  0  0  0  0  0  0  0
   -0.3940    0.7330   -0.5480 O   0  0  0  0  0  0  0  0  0  0  0  0
   -1.3910   -1.4490   -5.6880 H   0  0  0  0  0  0  0  0  0  0  0  0
    0.2710   -0.8110   -5.6220 H   0  0  0  0  0  0  0  0  0  0  0  0
   -0.5680   -0.2600   -2.5890 H   0  0  0  0  0  0  0  0  0  0  0  0
    1.1100   -0.6760   -3.0190 H   0  0  0  0  0  0  0  0  0  0  0  0
   -0.7900   -2.5160   -1.4160 H   0  0  0  0  0  0  0  0  0  0  0  0
    0.8940   -2.8500   -1.8120 H   0  0  0  0  0  0  0  0  0  0  0  0
    1.6680   -0.9670   -0.4020 H   0  0  0  0  0  0  0  0  0  0  0  0
   -0.1700   -2.8420    1.0950 H   0  0  0  0  0  0  0  0  0  0  0  0
    0.0530    2.6560    3.2980 C   0  0  0  0  0  0  0  0  0  0  0  0
   -0.1450    2.6390    1.7630 C   0  0  0  0  0  0  0  0  0  0  0  0
    0.0530    4.0640    1.2850 C   0  0  0  0  0  0  0  0  0  0  0  0
   -1.5310    2.1400    1.4930 C   0  0  0  0  0  0  0  0  0  0  0  0
   -1.6640    0.7420    2.0480 C   0  0  2  0  0  0  0  0  0  0  0  0
   -0.8360   -0.2520    1.4700 N   0  0  0  0  0  0  0  0  0  0  0  0
   -3.0450    0.2960    2.1660 C   0  0  0  0  0  0  0  0  0  0  0  0
   -3.8970    1.0920    2.6700 O   0  0  0  0  0  0  0  0  0  0  0  0
   -3.5270   -0.9460    1.7710 O   0  0  0  0  0  0  0  0  0  0  0  0
   -0.9390    2.7760    3.7500 H   0  0  0  0  0  0  0  0  0  0  0  0
    0.5160    1.6900    3.6340 H   0  0  0  0  0  0  0  0  0  0  0  0
    0.7180    3.4960    3.5110 H   0  0  0  0  0  0  0  0  0  0  0  0
    0.6660    1.9790    1.4220 H   0  0  0  0  0  0  0  0  0  0  0  0
    1.1300    4.3080    1.4310 H   0  0  0  0  0  0  0  0  0  0  0  0
   -0.2740    4.1860    0.2460 H   0  0  0  0  0  0  0  0  0  0  0  0
   -0.5060    4.7760    1.9320 H   0  0  0  0  0  0  0  0  0  0  0  0
   -2.2240    2.7720    2.1150 H   0  0  0  0  0  0  0  0  0  0  0  0
   -1.8600    2.2440    0.4650 H   0  0  0  0  0  0  0  0  0  0  0  0
   -1.2530    0.8370    3.1350 H   0  0  0  0  0  0  0  0  0  0  0  0
   -0.6550   -1.1170    2.0520 H   0  0  0  0  0  0  0  0  0  0  0  0
  1  7  1  0  0  0  0
  1  2  1  0  0  0  0
  1  6  1  0  0  0  0
  2  3  1  0  0  0  0
  2  9  1  1  0  0  0
  3 10  1  0  0  0  0
  4  2  1  0  0  0  0
  5  4  2  0  0  0  0
  8  1  1  0  0  0  0
 11  3  1  0  0  0  0
 12 13  1  0  0  0  0
 13 14  2  0  0  0  0
 13 15  1  0  0  0  0
 15 23  1  0  0  0  0
 15 16  1  0  0  0  0
 16 25  1  0  0  0  0
 16 17  1  0  0  0  0
 17 27  1  6  0  0  0
 17 19  1  0  0  0  0
 17 18  1  0  0  0  0
 18 28  1  0  0  0  0
 18  4  1  0  0  0  0
 19 34  1  0  0  0  0
 20 19  2  0  0  0  0
 21 12  1  0  0  0  0
 22 12  1  0  0  0  0
 24 15  1  0  0  0  0
 26 16  1  0  0  0  0
 29 40  1  0  0  0  0
 29 39  1  0  0  0  0
 29 38  1  0  0  0  0
 30 29  1  0  0  0  0
 31 42  1  0  0  0  0
 31 30  1  0  0  0  0
 31 44  1  0  0  0  0
 32 30  1  0  0  0  0
 32 33  1  0  0  0  0
 32 45  1  0  0  0  0
 33 35  1  0  0  0  0
 33 47  1  1  0  0  0
 34 33  1  0  0  0  0
 34 48  1  0  0  0  0
 35 36  1  0  0  0  0
 37 35  2  0  0  0  0
 41 30  1  0  0  0  0
 43 31  1  0  0  0  0
 46 32  1  0  0  0  0
M  END
$$$$
