AQN.pdb
 OpenBabel07022418003D

 43 42  0  0  1  0  0  0  0  0999 V2000
    0.7950   -5.1430   -0.2660 C   0  0  0  0  0  0  0  0  0  0  0  0
   -0.0340   -4.1010    0.4480 C   0  0  2  0  0  0  0  0  0  0  0  0
   -0.7340   -3.3240   -0.5560 N   0  0  0  0  0  0  0  0  0  0  0  0
    0.9170   -3.2280    1.1860 C   0  0  0  0  0  0  0  0  0  0  0  0
    1.6560   -3.6590    2.1060 O   0  0  0  0  0  0  0  0  0  0  0  0
    0.3050   -6.1340   -0.1400 H   0  0  0  0  0  0  0  0  0  0  0  0
    0.7850   -4.9180   -1.3450 H   0  0  0  0  0  0  0  0  0  0  0  0
    1.8270   -5.1860    0.1380 H   0  0  0  0  0  0  0  0  0  0  0  0
   -0.7490   -4.5820    1.1530 H   0  0  0  0  0  0  0  0  0  0  0  0
   -1.1290   -3.8720   -1.3250 H   0  0  0  0  0  0  0  0  0  0  0  0
   -1.3600   -2.6310   -0.1160 H   0  0  0  0  0  0  0  0  0  0  0  0
    1.8000    0.3680   -2.7590 N   0  0  0  0  0  0  0  0  0  0  0  0
    2.3130   -0.3600   -1.6440 C   0  0  0  0  0  0  0  0  0  0  0  0
    2.3130   -1.6020   -1.6730 O   0  0  0  0  0  0  0  0  0  0  0  0
    2.8240    0.3950   -0.5080 C   0  0  0  0  0  0  0  0  0  0  0  0
    3.0090   -0.3410    0.7700 C   0  0  0  0  0  0  0  0  0  0  0  0
    1.8440   -0.9030    1.4440 C   0  0  2  0  0  0  0  0  0  0  0  0
    1.0010   -1.8480    0.8430 N   0  0  0  0  0  0  0  0  0  0  0  0
    1.0310    0.2200    2.0100 C   0  0  0  0  0  0  0  0  0  0  0  0
    1.6290    1.1800    2.5990 O   0  0  0  0  0  0  0  0  0  0  0  0
    0.8090    0.1830   -3.0130 H   0  0  0  0  0  0  0  0  0  0  0  0
    2.4380    1.0260   -3.2380 H   0  0  0  0  0  0  0  0  0  0  0  0
    2.2220    1.3080   -0.2970 H   0  0  0  0  0  0  0  0  0  0  0  0
    3.8350    0.7940   -0.8320 H   0  0  0  0  0  0  0  0  0  0  0  0
    3.8750   -1.0240    0.6310 H   0  0  0  0  0  0  0  0  0  0  0  0
    3.4370    0.4290    1.4920 H   0  0  0  0  0  0  0  0  0  0  0  0
    2.2600   -1.4240    2.3850 H   0  0  0  0  0  0  0  0  0  0  0  0
    0.3570   -1.5150    0.0900 H   0  0  0  0  0  0  0  0  0  0  0  0
   -0.6320    4.0580    0.5630 N   0  0  0  0  0  0  0  0  0  0  0  0
   -1.0010    2.6940    0.4720 C   0  0  0  0  0  0  0  0  0  0  0  0
   -0.5240    1.9510   -0.4190 O   0  0  0  0  0  0  0  0  0  0  0  0
   -1.9610    2.1020    1.4290 C   0  0  0  0  0  0  0  0  0  0  0  0
   -1.1750    1.3460    2.4640 C   0  0  2  0  0  0  0  0  0  0  0  0
   -0.3720    0.2860    1.9320 N   0  0  0  0  0  0  0  0  0  0  0  0
   -2.0340    0.8670    3.5900 C   0  0  0  0  0  0  0  0  0  0  0  0
   -1.9500   -0.3360    3.9130 O   0  0  0  0  0  0  0  0  0  0  0  0
   -2.8930    1.7070    4.2560 O   0  0  0  0  0  0  0  0  0  0  0  0
   -1.3200    4.7620    0.9030 H   0  0  0  0  0  0  0  0  0  0  0  0
    0.3210    4.3880    0.2980 H   0  0  0  0  0  0  0  0  0  0  0  0
   -2.7470    1.5050    0.9490 H   0  0  0  0  0  0  0  0  0  0  0  0
   -2.4780    2.9320    1.9610 H   0  0  0  0  0  0  0  0  0  0  0  0
   -0.4930    2.1100    2.9430 H   0  0  0  0  0  0  0  0  0  0  0  0
   -0.8580   -0.5120    1.4420 H   0  0  0  0  0  0  0  0  0  0  0  0
  1  6  1  0  0  0  0
  1  8  1  0  0  0  0
  1  2  1  0  0  0  0
  2  9  1  1  0  0  0
  2  4  1  0  0  0  0
  3 11  1  0  0  0  0
  3  2  1  0  0  0  0
  4  5  2  0  0  0  0
  7  1  1  0  0  0  0
 10  3  1  0  0  0  0
 12 13  1  0  0  0  0
 13 15  1  0  0  0  0
 14 13  2  0  0  0  0
 15 23  1  0  0  0  0
 15 16  1  0  0  0  0
 16 17  1  0  0  0  0
 16 26  1  0  0  0  0
 17 19  1  0  0  0  0
 17 27  1  1  0  0  0
 18  4  1  0  0  0  0
 18 17  1  0  0  0  0
 19 20  2  0  0  0  0
 21 12  1  0  0  0  0
 22 12  1  0  0  0  0
 24 15  1  0  0  0  0
 25 16  1  0  0  0  0
 28 18  1  0  0  0  0
 29 38  1  0  0  0  0
 30 29  1  0  0  0  0
 30 32  1  0  0  0  0
 31 30  2  0  0  0  0
 32 41  1  0  0  0  0
 32 33  1  0  0  0  0
 33 42  1  1  0  0  0
 33 35  1  0  0  0  0
 34 19  1  0  0  0  0
 34 33  1  0  0  0  0
 35 36  2  0  0  0  0
 35 37  1  0  0  0  0
 39 29  1  0  0  0  0
 40 32  1  0  0  0  0
 43 34  1  0  0  0  0
M  END
$$$$
