AQS.pdb
 OpenBabel07022418003D

 40 39  0  0  1  0  0  0  0  0999 V2000
   -1.8260   -3.6260    0.2990 C   0  0  0  0  0  0  0  0  0  0  0  0
   -2.1170   -2.3010   -0.3290 C   0  0  2  0  0  0  0  0  0  0  0  0
   -2.8510   -2.5150   -1.5410 N   0  0  0  0  0  0  0  0  0  0  0  0
   -0.8790   -1.4900   -0.5570 C   0  0  0  0  0  0  0  0  0  0  0  0
   -0.6670   -1.1250   -1.7360 O   0  0  0  0  0  0  0  0  0  0  0  0
   -0.7590   -3.8400    0.4370 H   0  0  0  0  0  0  0  0  0  0  0  0
   -2.2910   -3.6410    1.3070 H   0  0  0  0  0  0  0  0  0  0  0  0
   -2.2530   -4.4790   -0.2800 H   0  0  0  0  0  0  0  0  0  0  0  0
   -2.7600   -1.6590    0.3410 H   0  0  0  0  0  0  0  0  0  0  0  0
   -3.7450   -2.0220   -1.6120 H   0  0  0  0  0  0  0  0  0  0  0  0
   -2.2810   -2.5520   -2.3910 H   0  0  0  0  0  0  0  0  0  0  0  0
    3.7090   -3.4500   -0.8040 N   0  0  0  0  0  0  0  0  0  0  0  0
    3.3720   -2.0790   -0.6790 C   0  0  0  0  0  0  0  0  0  0  0  0
    4.0020   -1.3630    0.1060 O   0  0  0  0  0  0  0  0  0  0  0  0
    2.2450   -1.5080   -1.5160 C   0  0  0  0  0  0  0  0  0  0  0  0
    1.8210   -0.2360   -0.9070 C   0  0  0  0  0  0  0  0  0  0  0  0
    1.2060   -0.4300    0.4620 C   0  0  2  0  0  0  0  0  0  0  0  0
   -0.0220   -1.1690    0.4950 N   0  0  0  0  0  0  0  0  0  0  0  0
    1.3160    0.6960    1.3660 C   0  0  0  0  0  0  0  0  0  0  0  0
    2.3620    1.3950    1.3980 O   0  0  0  0  0  0  0  0  0  0  0  0
    4.4720   -3.8710   -0.2360 H   0  0  0  0  0  0  0  0  0  0  0  0
    3.2090   -4.0980   -1.4680 H   0  0  0  0  0  0  0  0  0  0  0  0
    2.6290   -1.3330   -2.5620 H   0  0  0  0  0  0  0  0  0  0  0  0
    1.5450   -2.3320   -1.5980 H   0  0  0  0  0  0  0  0  0  0  0  0
    2.7570    0.3650   -0.7100 H   0  0  0  0  0  0  0  0  0  0  0  0
    1.2040    0.4160   -1.5550 H   0  0  0  0  0  0  0  0  0  0  0  0
    1.9460   -1.2420    0.8730 H   0  0  0  0  0  0  0  0  0  0  0  0
   -0.3060   -1.5130    1.4590 H   0  0  0  0  0  0  0  0  0  0  0  0
   -0.6710    3.7840    1.6780 O   0  0  0  0  0  0  0  0  0  0  0  0
   -0.6670    3.2670    2.9700 C   0  0  0  0  0  0  0  0  0  0  0  0
    0.4190    2.2360    3.1690 C   0  0  2  0  0  0  0  0  0  0  0  0
    0.2820    1.1080    2.2790 N   0  0  0  0  0  0  0  0  0  0  0  0
    0.2970    1.7300    4.5560 C   0  0  0  0  0  0  0  0  0  0  0  0
    0.3870    2.5580    5.4910 O   0  0  0  0  0  0  0  0  0  0  0  0
    0.0880    0.4030    4.8760 O   0  0  0  0  0  0  0  0  0  0  0  0
    0.0780    4.4120    1.5370 H   0  0  0  0  0  0  0  0  0  0  0  0
   -0.4320    4.1120    3.6520 H   0  0  0  0  0  0  0  0  0  0  0  0
   -1.6700    2.9070    3.2020 H   0  0  0  0  0  0  0  0  0  0  0  0
    1.3780    2.7450    3.0850 H   0  0  0  0  0  0  0  0  0  0  0  0
   -0.5860    0.5340    2.2570 H   0  0  0  0  0  0  0  0  0  0  0  0
  1  6  1  0  0  0  0
  1  7  1  0  0  0  0
  2  1  1  0  0  0  0
  2  9  1  1  0  0  0
  3  2  1  0  0  0  0
  4  2  1  0  0  0  0
  4 18  1  0  0  0  0
  5  4  2  0  0  0  0
  8  1  1  0  0  0  0
 10  3  1  0  0  0  0
 11  3  1  0  0  0  0
 12 13  1  0  0  0  0
 12 21  1  0  0  0  0
 13 14  2  0  0  0  0
 15 16  1  0  0  0  0
 15 13  1  0  0  0  0
 16 25  1  0  0  0  0
 16 17  1  0  0  0  0
 17 18  1  0  0  0  0
 17 27  1  1  0  0  0
 17 19  1  0  0  0  0
 18 28  1  0  0  0  0
 19 20  2  0  0  0  0
 19 32  1  0  0  0  0
 22 12  1  0  0  0  0
 23 15  1  0  0  0  0
 24 15  1  0  0  0  0
 26 16  1  0  0  0  0
 29 30  1  0  0  0  0
 30 31  1  0  0  0  0
 30 38  1  0  0  0  0
 30 37  1  0  0  0  0
 31 39  1  6  0  0  0
 31 33  1  0  0  0  0
 32 31  1  0  0  0  0
 33 35  2  0  0  0  0
 33 34  1  0  0  0  0
 36 29  1  0  0  0  0
 40 32  1  0  0  0  0
M  END
$$$$
