AQT.pdb
 OpenBabel07022418003D

 43 42  0  0  1  0  0  0  0  0999 V2000
    4.7550   -3.5570    1.2910 C   0  0  0  0  0  0  0  0  0  0  0  0
    3.2870   -3.6390    1.0220 C   0  0  2  0  0  0  0  0  0  0  0  0
    2.9510   -3.8480   -0.3540 N   0  0  0  0  0  0  0  0  0  0  0  0
    2.6750   -2.3450    1.4760 C   0  0  0  0  0  0  0  0  0  0  0  0
    2.8310   -1.9350    2.6650 O   0  0  0  0  0  0  0  0  0  0  0  0
    5.2700   -3.0110    0.4810 H   0  0  0  0  0  0  0  0  0  0  0  0
    5.1490   -4.5980    1.4130 H   0  0  0  0  0  0  0  0  0  0  0  0
    4.8840   -3.0430    2.2760 H   0  0  0  0  0  0  0  0  0  0  0  0
    2.8560   -4.4880    1.6200 H   0  0  0  0  0  0  0  0  0  0  0  0
    1.9390   -4.1340   -0.3900 H   0  0  0  0  0  0  0  0  0  0  0  0
    3.5470   -4.5980   -0.7420 H   0  0  0  0  0  0  0  0  0  0  0  0
    0.9270    1.0150   -3.4190 N   0  0  0  0  0  0  0  0  0  0  0  0
    0.8490    0.9510   -2.0000 C   0  0  0  0  0  0  0  0  0  0  0  0
   -0.2890    0.9430   -1.5020 O   0  0  0  0  0  0  0  0  0  0  0  0
    2.0430    0.8970   -1.1720 C   0  0  0  0  0  0  0  0  0  0  0  0
    1.9570    0.8200    0.2790 C   0  0  0  0  0  0  0  0  0  0  0  0
    1.2910   -0.2820    0.9810 C   0  0  2  0  0  0  0  0  0  0  0  0
    1.9150   -1.5490    0.6100 N   0  0  0  0  0  0  0  0  0  0  0  0
   -0.1680   -0.3440    1.0230 C   0  0  0  0  0  0  0  0  0  0  0  0
   -0.7350   -1.4050    0.6560 O   0  0  0  0  0  0  0  0  0  0  0  0
    1.7210    0.5050   -3.8660 H   0  0  0  0  0  0  0  0  0  0  0  0
    0.2730    1.5140   -4.0250 H   0  0  0  0  0  0  0  0  0  0  0  0
    2.6660    0.0270   -1.5820 H   0  0  0  0  0  0  0  0  0  0  0  0
    2.7580    1.7490   -1.4430 H   0  0  0  0  0  0  0  0  0  0  0  0
    3.0190    0.8710    0.6780 H   0  0  0  0  0  0  0  0  0  0  0  0
    1.5350    1.8010    0.6690 H   0  0  0  0  0  0  0  0  0  0  0  0
    1.6050   -0.1890    2.0850 H   0  0  0  0  0  0  0  0  0  0  0  0
    1.7750   -1.8720   -0.3800 H   0  0  0  0  0  0  0  0  0  0  0  0
   -4.3920    0.6110    3.0990 C   0  0  0  0  0  0  0  0  0  0  0  0
   -2.9070    0.6220    2.9250 C   0  0  1  0  0  0  0  0  0  0  0  0
   -2.3130   -0.4420    3.5850 O   0  0  0  0  0  0  0  0  0  0  0  0
   -2.4770    0.5790    1.4740 C   0  0  2  0  0  0  0  0  0  0  0  0
   -1.0440    0.6890    1.4470 N   0  0  0  0  0  0  0  0  0  0  0  0
   -3.1730    1.5580    0.6430 C   0  0  0  0  0  0  0  0  0  0  0  0
   -4.4290    1.5210    0.6180 O   0  0  0  0  0  0  0  0  0  0  0  0
   -2.5650    2.5360   -0.1290 O   0  0  0  0  0  0  0  0  0  0  0  0
   -4.8520   -0.1350    2.4230 H   0  0  0  0  0  0  0  0  0  0  0  0
   -4.7930    1.6280    2.9530 H   0  0  0  0  0  0  0  0  0  0  0  0
   -4.6000    0.3200    4.1680 H   0  0  0  0  0  0  0  0  0  0  0  0
   -2.5250    1.5750    3.3620 H   0  0  0  0  0  0  0  0  0  0  0  0
   -1.3550   -0.3060    3.7800 H   0  0  0  0  0  0  0  0  0  0  0  0
   -2.7590   -0.4430    1.1050 H   0  0  0  0  0  0  0  0  0  0  0  0
   -0.5810    1.5870    1.7580 H   0  0  0  0  0  0  0  0  0  0  0  0
  1  7  1  0  0  0  0
  1  8  1  0  0  0  0
  2  1  1  0  0  0  0
  2  4  1  0  0  0  0
  2  9  1  1  0  0  0
  3  2  1  0  0  0  0
  4  5  2  0  0  0  0
  6  1  1  0  0  0  0
 10  3  1  0  0  0  0
 11  3  1  0  0  0  0
 12 13  1  0  0  0  0
 13 14  2  0  0  0  0
 13 15  1  0  0  0  0
 15 16  1  0  0  0  0
 16 26  1  0  0  0  0
 16 25  1  0  0  0  0
 16 17  1  0  0  0  0
 17 19  1  0  0  0  0
 17 27  1  1  0  0  0
 18 17  1  0  0  0  0
 18  4  1  0  0  0  0
 19 33  1  0  0  0  0
 20 19  2  0  0  0  0
 21 12  1  0  0  0  0
 22 12  1  0  0  0  0
 23 15  1  0  0  0  0
 24 15  1  0  0  0  0
 28 18  1  0  0  0  0
 29 39  1  0  0  0  0
 30 29  1  0  0  0  0
 30 40  1  1  0  0  0
 30 31  1  0  0  0  0
 31 41  1  0  0  0  0
 32 42  1  6  0  0  0
 32 30  1  0  0  0  0
 33 32  1  0  0  0  0
 33 43  1  0  0  0  0
 34 32  1  0  0  0  0
 35 34  1  0  0  0  0
 36 34  2  0  0  0  0
 37 29  1  0  0  0  0
 38 29  1  0  0  0  0
M  END
$$$$
