AQV.pdb
 OpenBabel07022418003D

 45 44  0  0  1  0  0  0  0  0999 V2000
    3.1260   -4.1890    0.3420 C   0  0  0  0  0  0  0  0  0  0  0  0
    3.6630   -2.8100    0.1080 C   0  0  2  0  0  0  0  0  0  0  0  0
    4.5380   -2.4550    1.1950 N   0  0  0  0  0  0  0  0  0  0  0  0
    2.5010   -1.8370    0.1280 C   0  0  0  0  0  0  0  0  0  0  0  0
    1.6090   -1.9760   -0.7550 O   0  0  0  0  0  0  0  0  0  0  0  0
    2.1570   -4.2990   -0.2160 H   0  0  0  0  0  0  0  0  0  0  0  0
    3.8320   -4.9000   -0.1730 H   0  0  0  0  0  0  0  0  0  0  0  0
    3.0130   -4.4500    1.3930 H   0  0  0  0  0  0  0  0  0  0  0  0
    4.2370   -2.7170   -0.8340 H   0  0  0  0  0  0  0  0  0  0  0  0
    4.0570   -2.6600    2.1220 H   0  0  0  0  0  0  0  0  0  0  0  0
    5.4030   -3.0530    1.1540 H   0  0  0  0  0  0  0  0  0  0  0  0
    1.2080    1.0320   -3.3310 N   0  0  0  0  0  0  0  0  0  0  0  0
    0.9230    0.9270   -1.9380 C   0  0  0  0  0  0  0  0  0  0  0  0
   -0.1640    0.4080   -1.6320 O   0  0  0  0  0  0  0  0  0  0  0  0
    1.8780    1.4110   -0.9760 C   0  0  0  0  0  0  0  0  0  0  0  0
    1.6060    1.3790    0.4610 C   0  0  0  0  0  0  0  0  0  0  0  0
    1.3460    0.1470    1.1920 C   0  0  2  0  0  0  0  0  0  0  0  0
    2.4250   -0.8100    1.1010 N   0  0  0  0  0  0  0  0  0  0  0  0
    0.0580   -0.5130    1.1580 C   0  0  0  0  0  0  0  0  0  0  0  0
   -0.0700   -1.7410    1.0440 O   0  0  0  0  0  0  0  0  0  0  0  0
    0.7860    0.3850   -4.0310 H   0  0  0  0  0  0  0  0  0  0  0  0
    1.8540    1.7630   -3.7260 H   0  0  0  0  0  0  0  0  0  0  0  0
    2.1500    2.4690   -1.3120 H   0  0  0  0  0  0  0  0  0  0  0  0
    2.8910    0.9030   -1.1440 H   0  0  0  0  0  0  0  0  0  0  0  0
    0.7490    2.1120    0.6380 H   0  0  0  0  0  0  0  0  0  0  0  0
    2.4370    1.9370    1.0080 H   0  0  0  0  0  0  0  0  0  0  0  0
    1.4420    0.4680    2.3330 H   0  0  0  0  0  0  0  0  0  0  0  0
    3.2430   -0.7980    1.7730 H   0  0  0  0  0  0  0  0  0  0  0  0
   -3.4180    1.1400    2.9240 C   0  0  0  0  0  0  0  0  0  0  0  0
   -3.1780   -0.3090    2.5740 C   0  0  0  0  0  0  0  0  0  0  0  0
   -2.4250   -0.9810    3.6810 C   0  0  0  0  0  0  0  0  0  0  0  0
   -2.4690   -0.4490    1.2340 C   0  0  2  0  0  0  0  0  0  0  0  0
   -1.1810    0.2200    1.2610 N   0  0  0  0  0  0  0  0  0  0  0  0
   -3.3090    0.1580    0.1790 C   0  0  0  0  0  0  0  0  0  0  0  0
   -2.9570    1.1060   -0.5510 O   0  0  0  0  0  0  0  0  0  0  0  0
   -4.6050   -0.3390   -0.0520 O   0  0  0  0  0  0  0  0  0  0  0  0
   -4.2190    1.4970    2.2130 H   0  0  0  0  0  0  0  0  0  0  0  0
   -2.5030    1.7560    2.8350 H   0  0  0  0  0  0  0  0  0  0  0  0
   -3.8780    1.1630    3.9240 H   0  0  0  0  0  0  0  0  0  0  0  0
   -4.1740   -0.7930    2.4970 H   0  0  0  0  0  0  0  0  0  0  0  0
   -2.6290   -2.0510    3.7450 H   0  0  0  0  0  0  0  0  0  0  0  0
   -1.3410   -0.7410    3.6590 H   0  0  0  0  0  0  0  0  0  0  0  0
   -2.7980   -0.5340    4.6460 H   0  0  0  0  0  0  0  0  0  0  0  0
   -2.3850   -1.5230    1.0450 H   0  0  0  0  0  0  0  0  0  0  0  0
   -1.1790    1.2530    1.3590 H   0  0  0  0  0  0  0  0  0  0  0  0
  1  8  1  0  0  0  0
  2  9  1  6  0  0  0
  2  4  1  0  0  0  0
  2  1  1  0  0  0  0
  2  3  1  0  0  0  0
  3 10  1  0  0  0  0
  4 18  1  0  0  0  0
  5  4  2  0  0  0  0
  6  1  1  0  0  0  0
  7  1  1  0  0  0  0
 11  3  1  0  0  0  0
 12 13  1  0  0  0  0
 13 14  2  0  0  0  0
 13 15  1  0  0  0  0
 15 16  1  0  0  0  0
 16 25  1  0  0  0  0
 16 26  1  0  0  0  0
 16 17  1  0  0  0  0
 17 27  1  1  0  0  0
 18 17  1  0  0  0  0
 18 28  1  0  0  0  0
 19 17  1  0  0  0  0
 19 33  1  0  0  0  0
 20 19  2  0  0  0  0
 21 12  1  0  0  0  0
 22 12  1  0  0  0  0
 23 15  1  0  0  0  0
 24 15  1  0  0  0  0
 29 39  1  0  0  0  0
 30 29  1  0  0  0  0
 30 31  1  0  0  0  0
 31 41  1  0  0  0  0
 31 43  1  0  0  0  0
 32 44  1  6  0  0  0
 32 33  1  0  0  0  0
 32 30  1  0  0  0  0
 33 45  1  0  0  0  0
 34 32  1  0  0  0  0
 35 34  2  0  0  0  0
 36 34  1  0  0  0  0
 37 29  1  0  0  0  0
 38 29  1  0  0  0  0
 40 30  1  0  0  0  0
 42 31  1  0  0  0  0
M  END
$$$$
