AQW.pdb
 OpenBabel07022418003D

 53 54  0  0  1  0  0  0  0  0999 V2000
   -0.3780   -1.7300    5.4460 C   0  0  0  0  0  0  0  0  0  0  0  0
    0.8900   -0.9040    5.2100 C   0  0  2  0  0  0  0  0  0  0  0  0
    0.7000    0.3620    5.8470 N   0  0  0  0  0  0  0  0  0  0  0  0
    1.1840   -0.7770    3.7570 C   0  0  0  0  0  0  0  0  0  0  0  0
    1.3820   -1.8070    3.0650 O   0  0  0  0  0  0  0  0  0  0  0  0
   -0.3340   -2.0310    6.5270 H   0  0  0  0  0  0  0  0  0  0  0  0
   -1.2910   -1.1060    5.2980 H   0  0  0  0  0  0  0  0  0  0  0  0
   -0.4370   -2.5990    4.7910 H   0  0  0  0  0  0  0  0  0  0  0  0
    1.7210   -1.4460    5.6870 H   0  0  0  0  0  0  0  0  0  0  0  0
   -0.1290    0.8730    5.4820 H   0  0  0  0  0  0  0  0  0  0  0  0
    1.5770    0.9290    5.8320 H   0  0  0  0  0  0  0  0  0  0  0  0
    6.5420    1.0280    2.1180 N   0  0  0  0  0  0  0  0  0  0  0  0
    5.3550    0.4870    1.6170 C   0  0  0  0  0  0  0  0  0  0  0  0
    5.4190   -0.4560    0.7770 O   0  0  0  0  0  0  0  0  0  0  0  0
    3.9960    0.9430    2.0050 C   0  0  0  0  0  0  0  0  0  0  0  0
    2.9160    0.1780    1.3090 C   0  0  0  0  0  0  0  0  0  0  0  0
    1.5350    0.6210    1.6840 C   0  0  2  0  0  0  0  0  0  0  0  0
    1.2520    0.4800    3.0980 N   0  0  0  0  0  0  0  0  0  0  0  0
    0.4820   -0.1210    0.9400 C   0  0  0  0  0  0  0  0  0  0  0  0
   -0.4430   -0.7100    1.5510 O   0  0  0  0  0  0  0  0  0  0  0  0
    7.4350    0.5180    2.0210 H   0  0  0  0  0  0  0  0  0  0  0  0
    6.5380    1.9470    2.5900 H   0  0  0  0  0  0  0  0  0  0  0  0
    3.9170    2.0110    1.6600 H   0  0  0  0  0  0  0  0  0  0  0  0
    3.8610    0.9770    3.1010 H   0  0  0  0  0  0  0  0  0  0  0  0
    3.0140    0.2050    0.2220 H   0  0  0  0  0  0  0  0  0  0  0  0
    3.0110   -0.8950    1.6440 H   0  0  0  0  0  0  0  0  0  0  0  0
    1.4530    1.7100    1.4440 H   0  0  0  0  0  0  0  0  0  0  0  0
    1.0810    1.3290    3.7170 H   0  0  0  0  0  0  0  0  0  0  0  0
    0.4590   -0.2100   -0.4790 N   0  0  0  0  0  0  0  0  0  0  0  0
   -0.5450   -0.9220   -1.2460 C   0  0  1  0  0  0  0  0  0  0  0  0
   -1.2390   -0.0630   -2.2450 C   0  0  0  0  0  0  0  0  0  0  0  0
   -2.2520   -0.8360   -2.9980 C   0  0  0  0  0  0  0  0  0  0  0  0
   -2.1960   -1.3030   -4.3080 C   0  0  0  0  0  0  0  0  0  0  0  0
   -3.3400   -1.9530   -4.5980 N   0  0  0  0  0  0  0  0  0  0  0  0
   -4.1650   -1.9480   -3.5510 C   0  0  0  0  0  0  0  0  0  0  0  0
   -5.4230   -2.4330   -3.2600 C   0  0  0  0  0  0  0  0  0  0  0  0
   -6.0400   -2.2630   -2.0370 C   0  0  0  0  0  0  0  0  0  0  0  0
   -5.3720   -1.5740   -1.0460 C   0  0  0  0  0  0  0  0  0  0  0  0
   -4.1090   -1.0840   -1.3290 C   0  0  0  0  0  0  0  0  0  0  0  0
   -3.5050   -1.2560   -2.5440 C   0  0  0  0  0  0  0  0  0  0  0  0
    0.1790   -1.9980   -1.9680 C   0  0  0  0  0  0  0  0  0  0  0  0
    1.4110   -2.1820   -1.9070 O   0  0  0  0  0  0  0  0  0  0  0  0
   -0.5660   -2.8530   -2.7590 O   0  0  0  0  0  0  0  0  0  0  0  0
    1.2320    0.2830   -0.9760 H   0  0  0  0  0  0  0  0  0  0  0  0
   -1.3030   -1.4030   -0.6130 H   0  0  0  0  0  0  0  0  0  0  0  0
   -1.6790    0.8580   -1.8000 H   0  0  0  0  0  0  0  0  0  0  0  0
   -0.4740    0.2650   -3.0010 H   0  0  0  0  0  0  0  0  0  0  0  0
   -1.3420   -1.1440   -4.9550 H   0  0  0  0  0  0  0  0  0  0  0  0
   -3.5750   -2.4080   -5.5090 H   0  0  0  0  0  0  0  0  0  0  0  0
   -5.9670   -2.9760   -4.0160 H   0  0  0  0  0  0  0  0  0  0  0  0
   -7.0470   -2.6730   -1.8590 H   0  0  0  0  0  0  0  0  0  0  0  0
   -5.7970   -1.4060   -0.0670 H   0  0  0  0  0  0  0  0  0  0  0  0
   -3.5370   -0.5270   -0.5690 H   0  0  0  0  0  0  0  0  0  0  0  0
  1  6  1  0  0  0  0
  2  1  1  0  0  0  0
  2  9  1  1  0  0  0
  2  3  1  0  0  0  0
  4  2  1  0  0  0  0
  5  4  2  0  0  0  0
  7  1  1  0  0  0  0
  8  1  1  0  0  0  0
 10  3  1  0  0  0  0
 11  3  1  0  0  0  0
 12 22  1  0  0  0  0
 13 15  1  0  0  0  0
 13 12  1  0  0  0  0
 14 13  2  0  0  0  0
 15 24  1  0  0  0  0
 16 26  1  0  0  0  0
 16 17  1  0  0  0  0
 16 15  1  0  0  0  0
 17 27  1  6  0  0  0
 17 18  1  0  0  0  0
 18 28  1  0  0  0  0
 18  4  1  0  0  0  0
 19 20  2  0  0  0  0
 19 17  1  0  0  0  0
 21 12  1  0  0  0  0
 23 15  1  0  0  0  0
 25 16  1  0  0  0  0
 29 19  1  0  0  0  0
 30 45  1  1  0  0  0
 30 29  1  0  0  0  0
 31 46  1  0  0  0  0
 31 30  1  0  0  0  0
 32 40  1  0  0  0  0
 32 31  1  0  0  0  0
 33 32  2  0  0  0  0
 34 33  1  0  0  0  0
 34 35  1  0  0  0  0
 35 36  2  0  0  0  0
 35 40  1  0  0  0  0
 36 37  1  0  0  0  0
 37 51  1  0  0  0  0
 37 38  2  0  0  0  0
 38 52  1  0  0  0  0
 39 38  1  0  0  0  0
 39 53  1  0  0  0  0
 40 39  2  0  0  0  0
 41 42  1  0  0  0  0
 41 30  1  0  0  0  0
 43 41  2  0  0  0  0
 44 29  1  0  0  0  0
 47 31  1  0  0  0  0
 48 33  1  0  0  0  0
 49 34  1  0  0  0  0
 50 36  1  0  0  0  0
M  END
$$$$
