AQY.pdb
 OpenBabel07022418003D

 50 50  0  0  1  0  0  0  0  0999 V2000
    1.0360    2.7020    5.1750 C   0  0  0  0  0  0  0  0  0  0  0  0
    0.1780    1.4570    5.4070 C   0  0  2  0  0  0  0  0  0  0  0  0
    0.6180    0.8830    6.6560 N   0  0  0  0  0  0  0  0  0  0  0  0
    0.4150    0.4530    4.3210 C   0  0  0  0  0  0  0  0  0  0  0  0
    0.9100   -0.6500    4.5720 O   0  0  0  0  0  0  0  0  0  0  0  0
    2.0830    2.4210    4.9340 H   0  0  0  0  0  0  0  0  0  0  0  0
    1.0820    3.2210    6.1680 H   0  0  0  0  0  0  0  0  0  0  0  0
    0.5810    3.3980    4.4680 H   0  0  0  0  0  0  0  0  0  0  0  0
   -0.8750    1.8030    5.4280 H   0  0  0  0  0  0  0  0  0  0  0  0
   -0.2160    0.4610    7.1310 H   0  0  0  0  0  0  0  0  0  0  0  0
    1.3000    0.1130    6.5250 H   0  0  0  0  0  0  0  0  0  0  0  0
    4.5520    0.4520    1.0520 N   0  0  0  0  0  0  0  0  0  0  0  0
    3.2250   -0.0020    0.8910 C   0  0  0  0  0  0  0  0  0  0  0  0
    2.5880    0.3390   -0.1150 O   0  0  0  0  0  0  0  0  0  0  0  0
    2.6360   -0.8670    1.9150 C   0  0  0  0  0  0  0  0  0  0  0  0
    1.1880   -1.1560    1.7620 C   0  0  0  0  0  0  0  0  0  0  0  0
    0.2290   -0.0290    1.8210 C   0  0  2  0  0  0  0  0  0  0  0  0
    0.0800    0.7380    2.9810 N   0  0  0  0  0  0  0  0  0  0  0  0
   -1.0720   -0.4250    1.2700 C   0  0  0  0  0  0  0  0  0  0  0  0
   -2.1180   -0.0650    1.9130 O   0  0  0  0  0  0  0  0  0  0  0  0
    4.8670    0.7260    2.0050 H   0  0  0  0  0  0  0  0  0  0  0  0
    5.2440    0.5350    0.2800 H   0  0  0  0  0  0  0  0  0  0  0  0
    3.2510   -1.8310    1.8560 H   0  0  0  0  0  0  0  0  0  0  0  0
    2.8570   -0.5180    2.9410 H   0  0  0  0  0  0  0  0  0  0  0  0
    1.0750   -1.6190    0.7490 H   0  0  0  0  0  0  0  0  0  0  0  0
    0.8440   -1.9850    2.4510 H   0  0  0  0  0  0  0  0  0  0  0  0
    0.6820    0.7170    1.0440 H   0  0  0  0  0  0  0  0  0  0  0  0
   -0.3620    1.7030    2.8450 H   0  0  0  0  0  0  0  0  0  0  0  0
    1.2100   -2.4130   -5.4640 O   0  0  0  0  0  0  0  0  0  0  0  0
    0.2120   -2.0600   -4.5680 C   0  0  0  0  0  0  0  0  0  0  0  0
   -0.9890   -2.7310   -4.4660 C   0  0  0  0  0  0  0  0  0  0  0  0
   -1.9560   -2.3470   -3.5600 C   0  0  0  0  0  0  0  0  0  0  0  0
   -1.7770   -1.2760   -2.7110 C   0  0  0  0  0  0  0  0  0  0  0  0
   -2.8030   -0.8430   -1.7260 C   0  0  0  0  0  0  0  0  0  0  0  0
   -2.6320   -1.5240   -0.3870 C   0  0  2  0  0  0  0  0  0  0  0  0
   -1.3040   -1.1660    0.0990 N   0  0  0  0  0  0  0  0  0  0  0  0
   -2.7350   -2.9850   -0.5930 C   0  0  0  0  0  0  0  0  0  0  0  0
   -1.7740   -3.7690   -0.3710 O   0  0  0  0  0  0  0  0  0  0  0  0
   -0.5670   -0.5980   -2.8130 C   0  0  0  0  0  0  0  0  0  0  0  0
    0.3950   -0.9880   -3.7210 C   0  0  0  0  0  0  0  0  0  0  0  0
   -3.9140   -3.5330   -1.0420 O   0  0  0  0  0  0  0  0  0  0  0  0
    1.7720   -3.2260   -5.2120 H   0  0  0  0  0  0  0  0  0  0  0  0
   -1.1660   -3.5850   -5.1220 H   0  0  0  0  0  0  0  0  0  0  0  0
   -2.8890   -2.8970   -3.5060 H   0  0  0  0  0  0  0  0  0  0  0  0
   -3.8240   -1.1040   -2.1010 H   0  0  0  0  0  0  0  0  0  0  0  0
   -2.7070    0.2420   -1.5900 H   0  0  0  0  0  0  0  0  0  0  0  0
   -3.4210   -1.1360    0.2880 H   0  0  0  0  0  0  0  0  0  0  0  0
   -0.4980   -1.4870   -0.4750 H   0  0  0  0  0  0  0  0  0  0  0  0
   -0.4200    0.2440   -2.1510 H   0  0  0  0  0  0  0  0  0  0  0  0
    1.3290   -0.4400   -3.7790 H   0  0  0  0  0  0  0  0  0  0  0  0
  1  2  1  0  0  0  0
  1  7  1  0  0  0  0
  2  9  1  1  0  0  0
  2  3  1  0  0  0  0
  3 10  1  0  0  0  0
  4  5  2  0  0  0  0
  4  2  1  0  0  0  0
  6  1  1  0  0  0  0
  8  1  1  0  0  0  0
 11  3  1  0  0  0  0
 12 21  1  0  0  0  0
 13 12  1  0  0  0  0
 13 15  1  0  0  0  0
 14 13  2  0  0  0  0
 15 24  1  0  0  0  0
 16 17  1  0  0  0  0
 16 15  1  0  0  0  0
 16 26  1  0  0  0  0
 17 27  1  6  0  0  0
 17 18  1  0  0  0  0
 18  4  1  0  0  0  0
 19 17  1  0  0  0  0
 19 20  2  0  0  0  0
 22 12  1  0  0  0  0
 23 15  1  0  0  0  0
 25 16  1  0  0  0  0
 28 18  1  0  0  0  0
 29 42  1  0  0  0  0
 29 30  1  0  0  0  0
 30 31  2  0  0  0  0
 30 40  1  0  0  0  0
 31 32  1  0  0  0  0
 32 44  1  0  0  0  0
 32 33  2  0  0  0  0
 33 34  1  0  0  0  0
 34 46  1  0  0  0  0
 34 35  1  0  0  0  0
 35 36  1  0  0  0  0
 35 47  1  1  0  0  0
 36 19  1  0  0  0  0
 37 35  1  0  0  0  0
 37 38  1  0  0  0  0
 39 33  1  0  0  0  0
 39 49  1  0  0  0  0
 40 39  2  0  0  0  0
 41 37  2  0  0  0  0
 43 31  1  0  0  0  0
 45 34  1  0  0  0  0
 48 36  1  0  0  0  0
 50 40  1  0  0  0  0
M  END
$$$$
