ARA.pdb
 OpenBabel07022417593D

 45 44  0  0  1  0  0  0  0  0999 V2000
   -4.9940   -1.9590    0.8420 C   0  0  0  0  0  0  0  0  0  0  0  0
   -4.3240   -1.4970    2.1210 C   0  0  2  0  0  0  0  0  0  0  0  0
   -5.1870   -0.6220    2.8920 N   0  0  0  0  0  0  0  0  0  0  0  0
   -3.0660   -0.7520    1.8520 C   0  0  0  0  0  0  0  0  0  0  0  0
   -2.8840    0.4340    2.2660 O   0  0  0  0  0  0  0  0  0  0  0  0
   -4.9020   -1.1440    0.0810 H   0  0  0  0  0  0  0  0  0  0  0  0
   -4.4910   -2.8840    0.5290 H   0  0  0  0  0  0  0  0  0  0  0  0
   -6.0610   -2.0920    1.0520 H   0  0  0  0  0  0  0  0  0  0  0  0
   -4.0640   -2.4110    2.6910 H   0  0  0  0  0  0  0  0  0  0  0  0
   -4.5640   -0.0610    3.5150 H   0  0  0  0  0  0  0  0  0  0  0  0
   -5.6870   -0.0110    2.2090 H   0  0  0  0  0  0  0  0  0  0  0  0
    5.6910    0.2460    3.1770 N   0  0  0  0  0  0  0  0  0  0  0  0
    4.3000   -0.0920    3.0360 C   0  0  0  0  0  0  0  0  0  0  0  0
    3.4320    0.7570    3.4470 N   0  0  0  0  0  0  0  0  0  0  0  0
    3.8950   -1.3270    2.4600 N   0  0  0  0  0  0  0  0  0  0  0  0
    2.5110   -1.7480    2.4710 C   0  0  0  0  0  0  0  0  0  0  0  0
    1.6710   -0.8320    1.5550 C   0  0  0  0  0  0  0  0  0  0  0  0
    0.2820   -1.3300    1.6240 C   0  0  0  0  0  0  0  0  0  0  0  0
   -0.7590   -0.6010    0.8470 C   0  0  2  0  0  0  0  0  0  0  0  0
   -2.0120   -1.3440    1.1150 N   0  0  0  0  0  0  0  0  0  0  0  0
   -0.5270   -0.4630   -0.5860 C   0  0  0  0  0  0  0  0  0  0  0  0
   -1.2610   -1.0450   -1.4340 O   0  0  0  0  0  0  0  0  0  0  0  0
    6.2670    0.6160    2.4100 H   0  0  0  0  0  0  0  0  0  0  0  0
    6.1020    0.0930    4.1240 H   0  0  0  0  0  0  0  0  0  0  0  0
    3.7200    1.6620    3.8700 H   0  0  0  0  0  0  0  0  0  0  0  0
    4.6350   -1.9190    2.0270 H   0  0  0  0  0  0  0  0  0  0  0  0
    2.4460   -2.7860    2.0850 H   0  0  0  0  0  0  0  0  0  0  0  0
    2.0730   -1.7740    3.4910 H   0  0  0  0  0  0  0  0  0  0  0  0
    1.8450    0.2200    1.7420 H   0  0  0  0  0  0  0  0  0  0  0  0
    2.0600   -1.0510    0.5100 H   0  0  0  0  0  0  0  0  0  0  0  0
    0.2940   -2.4160    1.3170 H   0  0  0  0  0  0  0  0  0  0  0  0
   -0.0160   -1.3620    2.7070 H   0  0  0  0  0  0  0  0  0  0  0  0
   -0.8930    0.3920    1.3130 H   0  0  0  0  0  0  0  0  0  0  0  0
   -2.1400   -2.3160    0.7660 H   0  0  0  0  0  0  0  0  0  0  0  0
    0.5410    1.9330   -2.8760 C   0  0  0  0  0  0  0  0  0  0  0  0
    0.7790    0.4810   -2.5240 C   0  0  2  0  0  0  0  0  0  0  0  0
    0.5260    0.3290   -1.1020 N   0  0  0  0  0  0  0  0  0  0  0  0
    2.0940   -0.0190   -2.9240 C   0  0  0  0  0  0  0  0  0  0  0  0
    2.4410    0.0640   -4.1280 O   0  0  0  0  0  0  0  0  0  0  0  0
    2.9860   -0.5870   -2.0300 O   0  0  0  0  0  0  0  0  0  0  0  0
    1.3990    2.5180   -2.5140 H   0  0  0  0  0  0  0  0  0  0  0  0
    0.3700    2.0470   -3.9690 H   0  0  0  0  0  0  0  0  0  0  0  0
   -0.3840    2.2440   -2.3090 H   0  0  0  0  0  0  0  0  0  0  0  0
    0.0060   -0.1140   -3.0940 H   0  0  0  0  0  0  0  0  0  0  0  0
    1.1680    0.8570   -0.4770 H   0  0  0  0  0  0  0  0  0  0  0  0
  1  8  1  0  0  0  0
  1  2  1  0  0  0  0
  2  9  1  1  0  0  0
  2  3  1  0  0  0  0
  3 10  1  0  0  0  0
  4  2  1  0  0  0  0
  4  5  2  0  0  0  0
  6  1  1  0  0  0  0
  7  1  1  0  0  0  0
 11  3  1  0  0  0  0
 12 24  1  0  0  0  0
 13 12  1  0  0  0  0
 13 14  2  0  0  0  0
 14 25  1  0  0  0  0
 15 16  1  0  0  0  0
 15 13  1  0  0  0  0
 16 28  1  0  0  0  0
 17 18  1  0  0  0  0
 17 29  1  0  0  0  0
 17 16  1  0  0  0  0
 18 32  1  0  0  0  0
 19 20  1  0  0  0  0
 19 33  1  1  0  0  0
 19 18  1  0  0  0  0
 20  4  1  0  0  0  0
 21 19  1  0  0  0  0
 22 21  2  0  0  0  0
 23 12  1  0  0  0  0
 26 15  1  0  0  0  0
 27 16  1  0  0  0  0
 30 17  1  0  0  0  0
 31 18  1  0  0  0  0
 34 20  1  0  0  0  0
 35 36  1  0  0  0  0
 35 41  1  0  0  0  0
 35 43  1  0  0  0  0
 36 44  1  6  0  0  0
 36 37  1  0  0  0  0
 37 21  1  0  0  0  0
 37 45  1  0  0  0  0
 38 36  1  0  0  0  0
 38 40  1  0  0  0  0
 39 38  2  0  0  0  0
 42 35  1  0  0  0  0
M  END
$$$$
