ARC.pdb
 OpenBabel07022417593D

 46 45  0  0  1  0  0  0  0  0999 V2000
    0.0410   -4.1100    1.8540 C   0  0  0  0  0  0  0  0  0  0  0  0
    1.0970   -3.1690    2.4310 C   0  0  2  0  0  0  0  0  0  0  0  0
    0.5900   -2.7400    3.7220 N   0  0  0  0  0  0  0  0  0  0  0  0
    1.2090   -2.0050    1.4820 C   0  0  0  0  0  0  0  0  0  0  0  0
    1.6550   -2.2750    0.3650 O   0  0  0  0  0  0  0  0  0  0  0  0
    0.1960   -5.1330    2.2140 H   0  0  0  0  0  0  0  0  0  0  0  0
   -0.9500   -3.7050    2.1370 H   0  0  0  0  0  0  0  0  0  0  0  0
    0.1400   -4.0330    0.7330 H   0  0  0  0  0  0  0  0  0  0  0  0
    2.0530   -3.6740    2.5910 H   0  0  0  0  0  0  0  0  0  0  0  0
    0.9290   -3.4320    4.4250 H   0  0  0  0  0  0  0  0  0  0  0  0
   -0.4540   -2.7350    3.7820 H   0  0  0  0  0  0  0  0  0  0  0  0
    1.2300   -2.5070   -3.2150 N   0  0  0  0  0  0  0  0  0  0  0  0
    2.1990   -1.5920   -2.7440 C   0  0  0  0  0  0  0  0  0  0  0  0
    3.3610   -2.0050   -2.3190 N   0  0  0  0  0  0  0  0  0  0  0  0
    1.9490   -0.1840   -2.7150 N   0  0  0  0  0  0  0  0  0  0  0  0
    2.8500    0.7300   -2.0510 C   0  0  0  0  0  0  0  0  0  0  0  0
    2.7300    0.4390   -0.5340 C   0  0  0  0  0  0  0  0  0  0  0  0
    1.3230    0.6920   -0.1950 C   0  0  0  0  0  0  0  0  0  0  0  0
    0.8440    0.5260    1.1970 C   0  0  2  0  0  0  0  0  0  0  0  0
    0.8320   -0.7140    1.8490 N   0  0  0  0  0  0  0  0  0  0  0  0
   -0.3340    1.3940    1.3810 C   0  0  0  0  0  0  0  0  0  0  0  0
   -0.3260    2.5250    0.8380 O   0  0  0  0  0  0  0  0  0  0  0  0
    0.4320   -2.8680   -2.6220 H   0  0  0  0  0  0  0  0  0  0  0  0
    1.2520   -2.8830   -4.1920 H   0  0  0  0  0  0  0  0  0  0  0  0
    3.6170   -3.0140   -2.3100 H   0  0  0  0  0  0  0  0  0  0  0  0
    1.0790    0.1190   -3.2030 H   0  0  0  0  0  0  0  0  0  0  0  0
    2.4230    1.7520   -2.1900 H   0  0  0  0  0  0  0  0  0  0  0  0
    3.8840    0.6320   -2.3810 H   0  0  0  0  0  0  0  0  0  0  0  0
    3.1860   -0.5180   -0.3970 H   0  0  0  0  0  0  0  0  0  0  0  0
    3.4340    1.1950   -0.0670 H   0  0  0  0  0  0  0  0  0  0  0  0
    0.6910    0.1470   -0.9430 H   0  0  0  0  0  0  0  0  0  0  0  0
    1.1220    1.7810   -0.4580 H   0  0  0  0  0  0  0  0  0  0  0  0
    1.7100    1.1080    1.7680 H   0  0  0  0  0  0  0  0  0  0  0  0
    0.4550   -0.6950    2.8870 H   0  0  0  0  0  0  0  0  0  0  0  0
   -1.4300    0.9490    2.1470 N   0  0  0  0  0  0  0  0  0  0  0  0
   -2.6240    1.7650    2.3650 C   0  0  1  0  0  0  0  0  0  0  0  0
   -3.8540    1.0710    1.8190 C   0  0  0  0  0  0  0  0  0  0  0  0
   -5.3400    2.0710    2.0860 S   0  0  0  0  0  0  0  0  0  0  0  0
   -2.8420    1.9840    3.8120 C   0  0  0  0  0  0  0  0  0  0  0  0
   -3.8230    2.6680    4.1980 O   0  0  0  0  0  0  0  0  0  0  0  0
   -1.9420    1.4180    4.7080 O   0  0  0  0  0  0  0  0  0  0  0  0
   -1.3720   -0.0010    2.5620 H   0  0  0  0  0  0  0  0  0  0  0  0
   -2.4670    2.6990    1.8090 H   0  0  0  0  0  0  0  0  0  0  0  0
   -3.7370    0.9460    0.7060 H   0  0  0  0  0  0  0  0  0  0  0  0
   -4.0280    0.0780    2.2200 H   0  0  0  0  0  0  0  0  0  0  0  0
   -6.1160    2.2170    0.9330 H   0  0  0  0  0  0  0  0  0  0  0  0
  1  7  1  0  0  0  0
  1  6  1  0  0  0  0
  1  2  1  0  0  0  0
  2  9  1  1  0  0  0
  2  3  1  0  0  0  0
  3 11  1  0  0  0  0
  3 10  1  0  0  0  0
  4 20  1  0  0  0  0
  4  2  1  0  0  0  0
  5  4  2  0  0  0  0
  8  1  1  0  0  0  0
 12 13  1  0  0  0  0
 12 23  1  0  0  0  0
 13 15  1  0  0  0  0
 13 14  2  0  0  0  0
 14 25  1  0  0  0  0
 15 16  1  0  0  0  0
 16 17  1  0  0  0  0
 17 29  1  0  0  0  0
 17 18  1  0  0  0  0
 17 30  1  0  0  0  0
 18 19  1  0  0  0  0
 19 21  1  0  0  0  0
 19 33  1  1  0  0  0
 19 20  1  0  0  0  0
 20 34  1  0  0  0  0
 21 35  1  0  0  0  0
 22 21  2  0  0  0  0
 24 12  1  0  0  0  0
 26 15  1  0  0  0  0
 27 16  1  0  0  0  0
 28 16  1  0  0  0  0
 31 18  1  0  0  0  0
 32 18  1  0  0  0  0
 35 36  1  0  0  0  0
 35 42  1  0  0  0  0
 36 43  1  6  0  0  0
 36 39  1  0  0  0  0
 37 38  1  0  0  0  0
 37 45  1  0  0  0  0
 37 36  1  0  0  0  0
 39 40  2  0  0  0  0
 39 41  1  0  0  0  0
 44 37  1  0  0  0  0
 46 38  1  0  0  0  0
M  END
$$$$
