ARD.pdb
 OpenBabel07022417593D

 48 47  0  0  1  0  0  0  0  0999 V2000
    2.4610   -1.4960    4.3460 C   0  0  0  0  0  0  0  0  0  0  0  0
    1.0510   -1.0820    3.9830 C   0  0  2  0  0  0  0  0  0  0  0  0
    0.4420   -2.2490    3.3480 N   0  0  0  0  0  0  0  0  0  0  0  0
    1.0430    0.0150    2.9840 C   0  0  0  0  0  0  0  0  0  0  0  0
    1.5090    1.1290    3.3220 O   0  0  0  0  0  0  0  0  0  0  0  0
    2.4590   -2.5180    4.7880 H   0  0  0  0  0  0  0  0  0  0  0  0
    3.1030   -1.5520    3.4420 H   0  0  0  0  0  0  0  0  0  0  0  0
    2.9290   -0.8320    5.0790 H   0  0  0  0  0  0  0  0  0  0  0  0
    0.4940   -0.7970    4.8810 H   0  0  0  0  0  0  0  0  0  0  0  0
   -0.5790   -2.2240    3.4370 H   0  0  0  0  0  0  0  0  0  0  0  0
    0.9170   -3.1240    3.5870 H   0  0  0  0  0  0  0  0  0  0  0  0
    1.5980   -2.6650   -2.2040 N   0  0  0  0  0  0  0  0  0  0  0  0
    2.1170   -2.4100   -0.9060 C   0  0  0  0  0  0  0  0  0  0  0  0
    1.5490   -2.8810    0.1820 N   0  0  0  0  0  0  0  0  0  0  0  0
    3.2720   -1.6580   -0.6870 N   0  0  0  0  0  0  0  0  0  0  0  0
    3.4390   -0.4970    0.1360 C   0  0  0  0  0  0  0  0  0  0  0  0
    2.7870    0.7030   -0.4380 C   0  0  0  0  0  0  0  0  0  0  0  0
    1.3330    0.7440   -0.5440 C   0  0  0  0  0  0  0  0  0  0  0  0
    0.4880    0.8270    0.6660 C   0  0  2  0  0  0  0  0  0  0  0  0
    0.5180   -0.1800    1.6550 N   0  0  0  0  0  0  0  0  0  0  0  0
   -0.9260    1.0610    0.1570 C   0  0  0  0  0  0  0  0  0  0  0  0
   -1.1390    1.9220   -0.7340 O   0  0  0  0  0  0  0  0  0  0  0  0
    0.8120   -2.0860   -2.5500 H   0  0  0  0  0  0  0  0  0  0  0  0
    1.9970   -3.4240   -2.8020 H   0  0  0  0  0  0  0  0  0  0  0  0
    0.7010   -3.4470    0.0310 H   0  0  0  0  0  0  0  0  0  0  0  0
    4.1570   -1.9730   -1.2130 H   0  0  0  0  0  0  0  0  0  0  0  0
    4.5400   -0.2860    0.3120 H   0  0  0  0  0  0  0  0  0  0  0  0
    3.0750   -0.7150    1.1760 H   0  0  0  0  0  0  0  0  0  0  0  0
    3.1790    0.7700   -1.5210 H   0  0  0  0  0  0  0  0  0  0  0  0
    3.2260    1.6580   -0.0050 H   0  0  0  0  0  0  0  0  0  0  0  0
    0.9920   -0.1820   -1.1010 H   0  0  0  0  0  0  0  0  0  0  0  0
    0.9870    1.5800   -1.2380 H   0  0  0  0  0  0  0  0  0  0  0  0
    0.8130    1.7860    1.1890 H   0  0  0  0  0  0  0  0  0  0  0  0
    0.1250   -1.1220    1.4770 H   0  0  0  0  0  0  0  0  0  0  0  0
   -2.0370    0.3330    0.6550 N   0  0  0  0  0  0  0  0  0  0  0  0
   -3.3680    0.5940    0.1280 C   0  0  1  0  0  0  0  0  0  0  0  0
   -3.9190   -0.7220   -0.3670 C   0  0  0  0  0  0  0  0  0  0  0  0
   -3.1060   -1.3290   -1.4160 C   0  0  0  0  0  0  0  0  0  0  0  0
   -2.0450   -0.8000   -1.8520 O   0  0  0  0  0  0  0  0  0  0  0  0
   -4.2560    1.1780    1.1550 C   0  0  0  0  0  0  0  0  0  0  0  0
   -3.8140    1.3790    2.3070 O   0  0  0  0  0  0  0  0  0  0  0  0
   -3.4720   -2.5470   -2.0010 O   0  0  0  0  0  0  0  0  0  0  0  0
   -5.5650    1.5060    0.8760 O   0  0  0  0  0  0  0  0  0  0  0  0
   -1.9070   -0.3870    1.3960 H   0  0  0  0  0  0  0  0  0  0  0  0
   -3.3450    1.3250   -0.6990 H   0  0  0  0  0  0  0  0  0  0  0  0
   -4.9720   -0.5660   -0.7190 H   0  0  0  0  0  0  0  0  0  0  0  0
   -4.0130   -1.4490    0.4930 H   0  0  0  0  0  0  0  0  0  0  0  0
   -2.7830   -3.1000   -2.5250 H   0  0  0  0  0  0  0  0  0  0  0  0
  1  6  1  0  0  0  0
  1  8  1  0  0  0  0
  2  1  1  0  0  0  0
  2  9  1  1  0  0  0
  3 10  1  0  0  0  0
  3 11  1  0  0  0  0
  3  2  1  0  0  0  0
  4  5  2  0  0  0  0
  4  2  1  0  0  0  0
  7  1  1  0  0  0  0
 12 13  1  0  0  0  0
 13 15  1  0  0  0  0
 13 14  2  0  0  0  0
 15 16  1  0  0  0  0
 16 27  1  0  0  0  0
 16 28  1  0  0  0  0
 17 30  1  0  0  0  0
 17 16  1  0  0  0  0
 18 17  1  0  0  0  0
 18 19  1  0  0  0  0
 19 33  1  1  0  0  0
 19 20  1  0  0  0  0
 20  4  1  0  0  0  0
 21 35  1  0  0  0  0
 21 19  1  0  0  0  0
 22 21  2  0  0  0  0
 23 12  1  0  0  0  0
 24 12  1  0  0  0  0
 25 14  1  0  0  0  0
 26 15  1  0  0  0  0
 29 17  1  0  0  0  0
 31 18  1  0  0  0  0
 32 18  1  0  0  0  0
 34 20  1  0  0  0  0
 35 44  1  0  0  0  0
 36 45  1  6  0  0  0
 36 35  1  0  0  0  0
 36 40  1  0  0  0  0
 37 36  1  0  0  0  0
 37 47  1  0  0  0  0
 38 37  1  0  0  0  0
 39 38  2  0  0  0  0
 40 41  1  0  0  0  0
 42 38  1  0  0  0  0
 43 40  2  0  0  0  0
 46 37  1  0  0  0  0
 48 42  1  0  0  0  0
M  END
$$$$
