ARE.pdb
 OpenBabel07022417593D

 51 50  0  0  1  0  0  0  0  0999 V2000
    1.0070    2.0640    4.1780 C   0  0  0  0  0  0  0  0  0  0  0  0
    0.2700    0.7530    4.2640 C   0  0  2  0  0  0  0  0  0  0  0  0
    0.8160    0.0610    5.4450 N   0  0  0  0  0  0  0  0  0  0  0  0
    0.6230   -0.0510    3.0480 C   0  0  0  0  0  0  0  0  0  0  0  0
    1.3190   -1.1250    3.1770 O   0  0  0  0  0  0  0  0  0  0  0  0
    1.8830    1.9270    3.5120 H   0  0  0  0  0  0  0  0  0  0  0  0
    0.3780    2.8750    3.7470 H   0  0  0  0  0  0  0  0  0  0  0  0
    1.4190    2.3880    5.1720 H   0  0  0  0  0  0  0  0  0  0  0  0
   -0.8350    0.9000    4.3700 H   0  0  0  0  0  0  0  0  0  0  0  0
    0.8400   -0.9710    5.2000 H   0  0  0  0  0  0  0  0  0  0  0  0
    1.8130    0.3630    5.6140 H   0  0  0  0  0  0  0  0  0  0  0  0
    3.5660   -1.9270   -3.1400 N   0  0  0  0  0  0  0  0  0  0  0  0
    4.1600   -1.8150   -1.8580 C   0  0  0  0  0  0  0  0  0  0  0  0
    5.1170   -0.9660   -1.5890 N   0  0  0  0  0  0  0  0  0  0  0  0
    3.7280   -2.6310   -0.7520 N   0  0  0  0  0  0  0  0  0  0  0  0
    3.9240   -2.1980    0.6160 C   0  0  0  0  0  0  0  0  0  0  0  0
    3.0060   -0.9710    0.7610 C   0  0  0  0  0  0  0  0  0  0  0  0
    1.6060   -1.4620    0.4820 C   0  0  0  0  0  0  0  0  0  0  0  0
    0.5470   -0.4130    0.5470 C   0  0  2  0  0  0  0  0  0  0  0  0
    0.2540    0.2630    1.7300 N   0  0  0  0  0  0  0  0  0  0  0  0
   -0.6120   -0.7490   -0.2460 C   0  0  0  0  0  0  0  0  0  0  0  0
   -0.5350   -1.6790   -1.0900 O   0  0  0  0  0  0  0  0  0  0  0  0
    2.5600   -2.1470   -3.2480 H   0  0  0  0  0  0  0  0  0  0  0  0
    4.1370   -1.7870   -3.9920 H   0  0  0  0  0  0  0  0  0  0  0  0
    5.4370   -0.3540   -2.3870 H   0  0  0  0  0  0  0  0  0  0  0  0
    3.2770   -3.5320   -0.9930 H   0  0  0  0  0  0  0  0  0  0  0  0
    4.9650   -1.9390    0.8110 H   0  0  0  0  0  0  0  0  0  0  0  0
    3.5430   -3.0110    1.2740 H   0  0  0  0  0  0  0  0  0  0  0  0
    3.3360   -0.3230   -0.1340 H   0  0  0  0  0  0  0  0  0  0  0  0
    3.1900   -0.3610    1.6120 H   0  0  0  0  0  0  0  0  0  0  0  0
    1.3670   -2.3880    1.0570 H   0  0  0  0  0  0  0  0  0  0  0  0
    1.6410   -1.8060   -0.5870 H   0  0  0  0  0  0  0  0  0  0  0  0
    1.0880    0.4340   -0.1220 H   0  0  0  0  0  0  0  0  0  0  0  0
   -0.3320    1.1450    1.6430 H   0  0  0  0  0  0  0  0  0  0  0  0
   -1.8610   -0.0910   -0.1470 N   0  0  0  0  0  0  0  0  0  0  0  0
   -3.0050   -0.4800   -0.9530 C   0  0  1  0  0  0  0  0  0  0  0  0
   -4.3140   -0.1200   -0.3660 C   0  0  0  0  0  0  0  0  0  0  0  0
   -4.6400   -0.6530    0.9770 C   0  0  0  0  0  0  0  0  0  0  0  0
   -4.6680   -2.1180    1.1090 C   0  0  0  0  0  0  0  0  0  0  0  0
   -4.9200   -2.5570    2.2690 O   0  0  0  0  0  0  0  0  0  0  0  0
   -2.8940    0.2160   -2.3110 C   0  0  0  0  0  0  0  0  0  0  0  0
   -1.9300    0.9200   -2.5440 O   0  0  0  0  0  0  0  0  0  0  0  0
   -4.4420   -3.0040    0.0840 O   0  0  0  0  0  0  0  0  0  0  0  0
   -3.9110   -0.0060   -3.1920 O   0  0  0  0  0  0  0  0  0  0  0  0
   -1.9560    0.7000    0.5230 H   0  0  0  0  0  0  0  0  0  0  0  0
   -2.9230   -1.5310   -1.2140 H   0  0  0  0  0  0  0  0  0  0  0  0
   -4.3890    1.0000   -0.3400 H   0  0  0  0  0  0  0  0  0  0  0  0
   -5.1450   -0.4460   -1.0650 H   0  0  0  0  0  0  0  0  0  0  0  0
   -3.9820   -0.2740    1.7920 H   0  0  0  0  0  0  0  0  0  0  0  0
   -5.6640   -0.2410    1.2370 H   0  0  0  0  0  0  0  0  0  0  0  0
   -4.6140   -4.0210    0.1890 H   0  0  0  0  0  0  0  0  0  0  0  0
  1  2  1  0  0  0  0
  1  8  1  0  0  0  0
  2  9  1  1  0  0  0
  2  3  1  0  0  0  0
  3 11  1  0  0  0  0
  4  5  2  0  0  0  0
  4  2  1  0  0  0  0
  6  1  1  0  0  0  0
  7  1  1  0  0  0  0
 10  3  1  0  0  0  0
 12 13  1  0  0  0  0
 13 14  2  0  0  0  0
 13 15  1  0  0  0  0
 15 16  1  0  0  0  0
 16 17  1  0  0  0  0
 16 27  1  0  0  0  0
 16 28  1  0  0  0  0
 17 30  1  0  0  0  0
 18 19  1  0  0  0  0
 18 17  1  0  0  0  0
 18 31  1  0  0  0  0
 19 33  1  6  0  0  0
 19 20  1  0  0  0  0
 20  4  1  0  0  0  0
 21 35  1  0  0  0  0
 21 19  1  0  0  0  0
 22 21  2  0  0  0  0
 23 12  1  0  0  0  0
 24 12  1  0  0  0  0
 25 14  1  0  0  0  0
 26 15  1  0  0  0  0
 29 17  1  0  0  0  0
 32 18  1  0  0  0  0
 34 20  1  0  0  0  0
 35 45  1  0  0  0  0
 36 46  1  6  0  0  0
 36 37  1  0  0  0  0
 36 35  1  0  0  0  0
 37 47  1  0  0  0  0
 37 38  1  0  0  0  0
 38 39  1  0  0  0  0
 38 50  1  0  0  0  0
 38 49  1  0  0  0  0
 39 40  2  0  0  0  0
 41 36  1  0  0  0  0
 42 41  1  0  0  0  0
 43 51  1  0  0  0  0
 43 39  1  0  0  0  0
 44 41  2  0  0  0  0
 48 37  1  0  0  0  0
M  END
$$$$
