ARF.pdb
 OpenBabel07022417593D

 55 55  0  0  1  0  0  0  0  0999 V2000
    2.1620   -2.1270    5.1250 C   0  0  0  0  0  0  0  0  0  0  0  0
    0.8930   -2.0810    4.3060 C   0  0  2  0  0  0  0  0  0  0  0  0
    0.9810   -3.1980    3.3630 N   0  0  0  0  0  0  0  0  0  0  0  0
    0.8070   -0.8020    3.5290 C   0  0  0  0  0  0  0  0  0  0  0  0
    0.6730    0.3110    4.0840 O   0  0  0  0  0  0  0  0  0  0  0  0
    1.9130   -2.5650    6.1050 H   0  0  0  0  0  0  0  0  0  0  0  0
    2.6020   -1.1260    5.3060 H   0  0  0  0  0  0  0  0  0  0  0  0
    2.9280   -2.8190    4.6820 H   0  0  0  0  0  0  0  0  0  0  0  0
    0.0280   -2.1760    4.9580 H   0  0  0  0  0  0  0  0  0  0  0  0
    1.8330   -3.0820    2.7720 H   0  0  0  0  0  0  0  0  0  0  0  0
    0.1370   -3.1130    2.7470 H   0  0  0  0  0  0  0  0  0  0  0  0
    5.6130    1.1320    1.4180 N   0  0  0  0  0  0  0  0  0  0  0  0
    4.9600    1.0730    0.1660 C   0  0  0  0  0  0  0  0  0  0  0  0
    4.9210   -0.0370   -0.4780 N   0  0  0  0  0  0  0  0  0  0  0  0
    4.3520    2.2380   -0.3850 N   0  0  0  0  0  0  0  0  0  0  0  0
    3.1320    2.2030   -1.1040 C   0  0  0  0  0  0  0  0  0  0  0  0
    1.9480    1.9240   -0.2070 C   0  0  0  0  0  0  0  0  0  0  0  0
    1.9900    0.6300    0.5280 C   0  0  0  0  0  0  0  0  0  0  0  0
    0.7870    0.4380    1.3930 C   0  0  2  0  0  0  0  0  0  0  0  0
    0.8760   -0.8300    2.1210 N   0  0  0  0  0  0  0  0  0  0  0  0
   -0.4400    0.3270    0.5800 C   0  0  0  0  0  0  0  0  0  0  0  0
   -0.8160    1.3050   -0.1110 O   0  0  0  0  0  0  0  0  0  0  0  0
    5.0450    0.9330    2.2680 H   0  0  0  0  0  0  0  0  0  0  0  0
    6.6270    1.3690    1.4420 H   0  0  0  0  0  0  0  0  0  0  0  0
    5.3720   -0.8720   -0.0630 H   0  0  0  0  0  0  0  0  0  0  0  0
    4.8240    3.1680   -0.2540 H   0  0  0  0  0  0  0  0  0  0  0  0
    3.1490    1.5120   -1.9800 H   0  0  0  0  0  0  0  0  0  0  0  0
    2.8930    3.2040   -1.5760 H   0  0  0  0  0  0  0  0  0  0  0  0
    1.0580    2.0110   -0.8880 H   0  0  0  0  0  0  0  0  0  0  0  0
    1.8400    2.8040    0.5020 H   0  0  0  0  0  0  0  0  0  0  0  0
    2.8780    0.6230    1.2380 H   0  0  0  0  0  0  0  0  0  0  0  0
    2.1250   -0.1770   -0.2100 H   0  0  0  0  0  0  0  0  0  0  0  0
    0.7090    1.2710    2.1020 H   0  0  0  0  0  0  0  0  0  0  0  0
    0.9960   -1.6840    1.5480 H   0  0  0  0  0  0  0  0  0  0  0  0
   -1.2350   -0.8580    0.5400 N   0  0  0  0  0  0  0  0  0  0  0  0
   -2.4520   -0.9390   -0.2840 C   0  0  1  0  0  0  0  0  0  0  0  0
   -2.3830   -2.0970   -1.2200 C   0  0  0  0  0  0  0  0  0  0  0  0
   -3.5940   -2.2000   -2.0520 C   0  0  0  0  0  0  0  0  0  0  0  0
   -3.7170   -1.5050   -3.2500 C   0  0  0  0  0  0  0  0  0  0  0  0
   -4.8270   -1.5970   -4.0580 C   0  0  0  0  0  0  0  0  0  0  0  0
   -5.8850   -2.4080   -3.6850 C   0  0  0  0  0  0  0  0  0  0  0  0
   -5.7910   -3.1060   -2.5050 C   0  0  0  0  0  0  0  0  0  0  0  0
   -4.6690   -3.0000   -1.7120 C   0  0  0  0  0  0  0  0  0  0  0  0
   -3.6260   -1.0050    0.5890 C   0  0  0  0  0  0  0  0  0  0  0  0
   -3.4340   -1.0480    1.8500 O   0  0  0  0  0  0  0  0  0  0  0  0
   -4.9220   -1.0210    0.1310 O   0  0  0  0  0  0  0  0  0  0  0  0
   -0.9440   -1.6670    1.1070 H   0  0  0  0  0  0  0  0  0  0  0  0
   -2.5090    0.0320   -0.8250 H   0  0  0  0  0  0  0  0  0  0  0  0
   -2.2900   -3.0400   -0.6080 H   0  0  0  0  0  0  0  0  0  0  0  0
   -1.4720   -2.0890   -1.8550 H   0  0  0  0  0  0  0  0  0  0  0  0
   -2.9060   -0.8740   -3.5490 H   0  0  0  0  0  0  0  0  0  0  0  0
   -4.8900   -1.0320   -5.0000 H   0  0  0  0  0  0  0  0  0  0  0  0
   -6.7670   -2.4770   -4.3320 H   0  0  0  0  0  0  0  0  0  0  0  0
   -6.5840   -3.7470   -2.1730 H   0  0  0  0  0  0  0  0  0  0  0  0
   -4.6110   -3.5710   -0.7700 H   0  0  0  0  0  0  0  0  0  0  0  0
  1  7  1  0  0  0  0
  1  6  1  0  0  0  0
  2  9  1  1  0  0  0
  2  1  1  0  0  0  0
  3  2  1  0  0  0  0
  4  5  2  0  0  0  0
  4  2  1  0  0  0  0
  8  1  1  0  0  0  0
 10  3  1  0  0  0  0
 11  3  1  0  0  0  0
 12 24  1  0  0  0  0
 12 23  1  0  0  0  0
 13 12  1  0  0  0  0
 14 25  1  0  0  0  0
 14 13  2  0  0  0  0
 15 26  1  0  0  0  0
 15 13  1  0  0  0  0
 16 15  1  0  0  0  0
 16 17  1  0  0  0  0
 17 30  1  0  0  0  0
 17 18  1  0  0  0  0
 18 31  1  0  0  0  0
 18 19  1  0  0  0  0
 19 33  1  1  0  0  0
 19 20  1  0  0  0  0
 20  4  1  0  0  0  0
 21 19  1  0  0  0  0
 22 21  2  0  0  0  0
 27 16  1  0  0  0  0
 28 16  1  0  0  0  0
 29 17  1  0  0  0  0
 32 18  1  0  0  0  0
 34 20  1  0  0  0  0
 35 21  1  0  0  0  0
 35 47  1  0  0  0  0
 36 48  1  6  0  0  0
 36 35  1  0  0  0  0
 36 44  1  0  0  0  0
 37 49  1  0  0  0  0
 37 36  1  0  0  0  0
 38 43  1  0  0  0  0
 38 37  1  0  0  0  0
 39 38  2  0  0  0  0
 40 41  2  0  0  0  0
 40 39  1  0  0  0  0
 41 42  1  0  0  0  0
 42 54  1  0  0  0  0
 42 43  2  0  0  0  0
 43 55  1  0  0  0  0
 44 45  1  0  0  0  0
 46 44  2  0  0  0  0
 50 37  1  0  0  0  0
 51 39  1  0  0  0  0
 52 40  1  0  0  0  0
 53 41  1  0  0  0  0
M  END
$$$$
