ARG.pdb
 OpenBabel07022417593D

 42 41  0  0  1  0  0  0  0  0999 V2000
    0.8570   -2.7820    4.2580 C   0  0  0  0  0  0  0  0  0  0  0  0
   -0.2030   -1.7160    3.9620 C   0  0  2  0  0  0  0  0  0  0  0  0
   -1.2850   -2.4410    3.3030 N   0  0  0  0  0  0  0  0  0  0  0  0
    0.3780   -0.6980    3.0580 C   0  0  0  0  0  0  0  0  0  0  0  0
    1.2780    0.0490    3.4630 O   0  0  0  0  0  0  0  0  0  0  0  0
    0.3260   -3.5870    4.8200 H   0  0  0  0  0  0  0  0  0  0  0  0
    1.2300   -3.1450    3.2600 H   0  0  0  0  0  0  0  0  0  0  0  0
    1.7230   -2.3710    4.7850 H   0  0  0  0  0  0  0  0  0  0  0  0
   -0.5040   -1.2210    4.8910 H   0  0  0  0  0  0  0  0  0  0  0  0
   -1.8560   -2.9480    4.0170 H   0  0  0  0  0  0  0  0  0  0  0  0
   -0.8560   -3.0800    2.5990 H   0  0  0  0  0  0  0  0  0  0  0  0
    4.3650   -2.4080   -0.1960 N   0  0  0  0  0  0  0  0  0  0  0  0
    3.5190   -1.9960   -1.2580 C   0  0  0  0  0  0  0  0  0  0  0  0
    2.5440   -2.7640   -1.6030 N   0  0  0  0  0  0  0  0  0  0  0  0
    3.7470   -0.7510   -1.9320 N   0  0  0  0  0  0  0  0  0  0  0  0
    2.6540    0.0650   -2.3530 C   0  0  0  0  0  0  0  0  0  0  0  0
    1.8750    0.7240   -1.2320 C   0  0  0  0  0  0  0  0  0  0  0  0
    1.2560   -0.2150   -0.2720 C   0  0  0  0  0  0  0  0  0  0  0  0
    0.4880    0.4350    0.8430 C   0  0  2  0  0  0  0  0  0  0  0  0
   -0.0750   -0.5590    1.7330 N   0  0  0  0  0  0  0  0  0  0  0  0
   -0.6180    1.3080    0.4270 C   0  0  0  0  0  0  0  0  0  0  0  0
   -0.4300    2.2740   -0.3280 O   0  0  0  0  0  0  0  0  0  0  0  0
    5.3480   -2.7090   -0.3570 H   0  0  0  0  0  0  0  0  0  0  0  0
    3.9580   -2.3990    0.7730 H   0  0  0  0  0  0  0  0  0  0  0  0
    2.4130   -3.6540   -1.0920 H   0  0  0  0  0  0  0  0  0  0  0  0
    4.7350   -0.4860   -2.0890 H   0  0  0  0  0  0  0  0  0  0  0  0
    3.0230    0.8660   -3.0600 H   0  0  0  0  0  0  0  0  0  0  0  0
    1.9740   -0.5470   -3.0070 H   0  0  0  0  0  0  0  0  0  0  0  0
    1.1620    1.4610   -1.6890 H   0  0  0  0  0  0  0  0  0  0  0  0
    2.6350    1.4040   -0.7340 H   0  0  0  0  0  0  0  0  0  0  0  0
    2.1060   -0.7420    0.2450 H   0  0  0  0  0  0  0  0  0  0  0  0
    0.6020   -0.9090   -0.8270 H   0  0  0  0  0  0  0  0  0  0  0  0
    1.2300    1.0160    1.4310 H   0  0  0  0  0  0  0  0  0  0  0  0
   -0.8290   -1.1660    1.3410 H   0  0  0  0  0  0  0  0  0  0  0  0
   -1.9710    1.1030    0.8610 N   0  0  0  0  0  0  0  0  0  0  0  0
   -3.0050    1.9980    0.4100 C   0  0  0  0  0  0  0  0  0  0  0  0
   -4.3280    1.6610    0.9430 C   0  0  0  0  0  0  0  0  0  0  0  0
   -5.2980    2.4040    0.5920 O   0  0  0  0  0  0  0  0  0  0  0  0
   -4.6210    0.6160    1.7890 O   0  0  0  0  0  0  0  0  0  0  0  0
   -2.1960    0.3250    1.4870 H   0  0  0  0  0  0  0  0  0  0  0  0
   -3.0650    1.8570   -0.7120 H   0  0  0  0  0  0  0  0  0  0  0  0
   -2.7340    3.0770    0.5250 H   0  0  0  0  0  0  0  0  0  0  0  0
  1  8  1  0  0  0  0
  1  6  1  0  0  0  0
  2  1  1  0  0  0  0
  2  9  1  1  0  0  0
  3  2  1  0  0  0  0
  3 10  1  0  0  0  0
  4  5  2  0  0  0  0
  4  2  1  0  0  0  0
  7  1  1  0  0  0  0
 11  3  1  0  0  0  0
 12 24  1  0  0  0  0
 13 12  1  0  0  0  0
 14 13  2  0  0  0  0
 14 25  1  0  0  0  0
 15 13  1  0  0  0  0
 16 15  1  0  0  0  0
 16 17  1  0  0  0  0
 17 30  1  0  0  0  0
 17 18  1  0  0  0  0
 18 31  1  0  0  0  0
 18 19  1  0  0  0  0
 19 33  1  1  0  0  0
 19 20  1  0  0  0  0
 20  4  1  0  0  0  0
 21 19  1  0  0  0  0
 21 35  1  0  0  0  0
 22 21  2  0  0  0  0
 23 12  1  0  0  0  0
 26 15  1  0  0  0  0
 27 16  1  0  0  0  0
 28 16  1  0  0  0  0
 29 17  1  0  0  0  0
 32 18  1  0  0  0  0
 34 20  1  0  0  0  0
 35 40  1  0  0  0  0
 36 42  1  0  0  0  0
 36 35  1  0  0  0  0
 36 37  1  0  0  0  0
 37 39  1  0  0  0  0
 38 37  2  0  0  0  0
 41 36  1  0  0  0  0
M  END
$$$$
