ARH.pdb
 OpenBabel07022417593D

 52 52  0  0  1  0  0  0  0  0999 V2000
   -0.5020   -1.9060    5.2350 C   0  0  0  0  0  0  0  0  0  0  0  0
   -1.5440   -1.4550    4.2060 C   0  0  2  0  0  0  0  0  0  0  0  0
   -2.0000   -2.6360    3.5400 N   0  0  0  0  0  0  0  0  0  0  0  0
   -0.7940   -0.5660    3.2540 C   0  0  0  0  0  0  0  0  0  0  0  0
   -0.3350    0.5460    3.6170 O   0  0  0  0  0  0  0  0  0  0  0  0
    0.0400   -1.0510    5.6740 H   0  0  0  0  0  0  0  0  0  0  0  0
   -0.9700   -2.4940    6.0530 H   0  0  0  0  0  0  0  0  0  0  0  0
    0.2560   -2.5670    4.7660 H   0  0  0  0  0  0  0  0  0  0  0  0
   -2.3120   -0.8910    4.7260 H   0  0  0  0  0  0  0  0  0  0  0  0
   -2.6570   -2.4320    2.7690 H   0  0  0  0  0  0  0  0  0  0  0  0
   -1.2410   -3.2940    3.3030 H   0  0  0  0  0  0  0  0  0  0  0  0
    5.5480   -0.2140    2.1360 N   0  0  0  0  0  0  0  0  0  0  0  0
    4.8340    0.4270    1.0870 C   0  0  0  0  0  0  0  0  0  0  0  0
    5.2840    0.4790   -0.1260 N   0  0  0  0  0  0  0  0  0  0  0  0
    3.5610    1.0580    1.3190 N   0  0  0  0  0  0  0  0  0  0  0  0
    2.7320    1.3900    0.2030 C   0  0  0  0  0  0  0  0  0  0  0  0
    2.1910    0.1400   -0.4980 C   0  0  0  0  0  0  0  0  0  0  0  0
    1.3710   -0.6950    0.4170 C   0  0  0  0  0  0  0  0  0  0  0  0
    0.1700   -0.0310    1.0120 C   0  0  2  0  0  0  0  0  0  0  0  0
   -0.5670   -0.9370    1.8970 N   0  0  0  0  0  0  0  0  0  0  0  0
   -0.7400    0.3540   -0.0810 C   0  0  0  0  0  0  0  0  0  0  0  0
   -0.3980    1.1430   -1.0140 O   0  0  0  0  0  0  0  0  0  0  0  0
    5.1820   -1.0070    2.6920 H   0  0  0  0  0  0  0  0  0  0  0  0
    6.5080    0.1550    2.3490 H   0  0  0  0  0  0  0  0  0  0  0  0
    6.2130    0.0210   -0.3050 H   0  0  0  0  0  0  0  0  0  0  0  0
    3.2840    1.2530    2.3030 H   0  0  0  0  0  0  0  0  0  0  0  0
    1.8550    1.9630    0.5560 H   0  0  0  0  0  0  0  0  0  0  0  0
    3.2350    2.0280   -0.5520 H   0  0  0  0  0  0  0  0  0  0  0  0
    1.7440    0.4350   -1.4430 H   0  0  0  0  0  0  0  0  0  0  0  0
    3.1340   -0.4260   -0.7830 H   0  0  0  0  0  0  0  0  0  0  0  0
    2.0170   -1.0200    1.2800 H   0  0  0  0  0  0  0  0  0  0  0  0
    1.1250   -1.6450   -0.1030 H   0  0  0  0  0  0  0  0  0  0  0  0
    0.4640    0.8900    1.5800 H   0  0  0  0  0  0  0  0  0  0  0  0
   -0.9240   -1.8520    1.5460 H   0  0  0  0  0  0  0  0  0  0  0  0
   -2.0570   -0.1730   -0.1010 N   0  0  0  0  0  0  0  0  0  0  0  0
   -3.0110    0.1680   -1.1610 C   0  0  1  0  0  0  0  0  0  0  0  0
   -3.4960   -1.1370   -1.7520 C   0  0  0  0  0  0  0  0  0  0  0  0
   -2.3550   -1.9140   -2.3160 C   0  0  0  0  0  0  0  0  0  0  0  0
   -1.8650   -1.8500   -3.6010 C   0  0  0  0  0  0  0  0  0  0  0  0
   -0.8290   -2.6960   -3.7410 N   0  0  0  0  0  0  0  0  0  0  0  0
   -0.6710   -3.2890   -2.5450 C   0  0  0  0  0  0  0  0  0  0  0  0
   -1.5860   -2.8260   -1.6750 N   0  0  0  0  0  0  0  0  0  0  0  0
   -4.1710    0.8230   -0.5050 C   0  0  0  0  0  0  0  0  0  0  0  0
   -5.1590    1.2270   -1.1870 O   0  0  0  0  0  0  0  0  0  0  0  0
   -4.2260    1.0200    0.8650 O   0  0  0  0  0  0  0  0  0  0  0  0
   -2.4150   -0.8300    0.6370 H   0  0  0  0  0  0  0  0  0  0  0  0
   -2.5760    0.8380   -1.8990 H   0  0  0  0  0  0  0  0  0  0  0  0
   -4.1680   -0.8810   -2.5960 H   0  0  0  0  0  0  0  0  0  0  0  0
   -4.0480   -1.7260   -1.0180 H   0  0  0  0  0  0  0  0  0  0  0  0
   -2.2360   -1.2190   -4.4130 H   0  0  0  0  0  0  0  0  0  0  0  0
   -0.2910   -2.8270   -4.6220 H   0  0  0  0  0  0  0  0  0  0  0  0
    0.0740   -4.0340   -2.2870 H   0  0  0  0  0  0  0  0  0  0  0  0
  1  6  1  0  0  0  0
  1  7  1  0  0  0  0
  2  9  1  1  0  0  0
  2  1  1  0  0  0  0
  3  2  1  0  0  0  0
  4  5  2  0  0  0  0
  4  2  1  0  0  0  0
  8  1  1  0  0  0  0
 10  3  1  0  0  0  0
 11  3  1  0  0  0  0
 12 24  1  0  0  0  0
 12 23  1  0  0  0  0
 13 15  1  0  0  0  0
 13 12  1  0  0  0  0
 14 13  2  0  0  0  0
 15 26  1  0  0  0  0
 16 27  1  0  0  0  0
 16 15  1  0  0  0  0
 17 16  1  0  0  0  0
 17 18  1  0  0  0  0
 18 19  1  0  0  0  0
 18 31  1  0  0  0  0
 19 33  1  1  0  0  0
 19 20  1  0  0  0  0
 20  4  1  0  0  0  0
 21 19  1  0  0  0  0
 22 21  2  0  0  0  0
 25 14  1  0  0  0  0
 28 16  1  0  0  0  0
 29 17  1  0  0  0  0
 30 17  1  0  0  0  0
 32 18  1  0  0  0  0
 34 20  1  0  0  0  0
 35 21  1  0  0  0  0
 35 46  1  0  0  0  0
 36 47  1  6  0  0  0
 36 43  1  0  0  0  0
 36 35  1  0  0  0  0
 37 36  1  0  0  0  0
 37 49  1  0  0  0  0
 38 37  1  0  0  0  0
 38 42  1  0  0  0  0
 39 38  2  0  0  0  0
 40 39  1  0  0  0  0
 40 41  1  0  0  0  0
 41 52  1  0  0  0  0
 41 42  2  0  0  0  0
 43 45  1  0  0  0  0
 44 43  2  0  0  0  0
 48 37  1  0  0  0  0
 50 39  1  0  0  0  0
 51 40  1  0  0  0  0
M  END
$$$$
