ARI.pdb
 OpenBabel07022417593D

 54 53  0  0  1  0  0  0  0  0999 V2000
    2.4960   -3.2020    4.6460 C   0  0  0  0  0  0  0  0  0  0  0  0
    1.1740   -2.5840    4.1710 C   0  0  2  0  0  0  0  0  0  0  0  0
    0.6330   -3.5320    3.2000 N   0  0  0  0  0  0  0  0  0  0  0  0
    1.4870   -1.3340    3.4280 C   0  0  0  0  0  0  0  0  0  0  0  0
    1.9790   -0.3900    4.1420 O   0  0  0  0  0  0  0  0  0  0  0  0
    2.9150   -3.8280    3.8310 H   0  0  0  0  0  0  0  0  0  0  0  0
    3.1990   -2.3580    4.7770 H   0  0  0  0  0  0  0  0  0  0  0  0
    2.3470   -3.7800    5.5740 H   0  0  0  0  0  0  0  0  0  0  0  0
    0.5160   -2.4300    5.0250 H   0  0  0  0  0  0  0  0  0  0  0  0
    0.4540   -4.4680    3.6280 H   0  0  0  0  0  0  0  0  0  0  0  0
   -0.2890   -3.2050    2.8200 H   0  0  0  0  0  0  0  0  0  0  0  0
    0.6560    1.7290   -3.7230 N   0  0  0  0  0  0  0  0  0  0  0  0
    1.5680    1.0550   -2.8720 C   0  0  0  0  0  0  0  0  0  0  0  0
    2.2950    1.7660   -2.0840 N   0  0  0  0  0  0  0  0  0  0  0  0
    1.7590   -0.3390   -2.8350 N   0  0  0  0  0  0  0  0  0  0  0  0
    1.6940   -1.2090   -1.7290 C   0  0  0  0  0  0  0  0  0  0  0  0
    2.6230   -1.1920   -0.6180 C   0  0  0  0  0  0  0  0  0  0  0  0
    2.7420   -0.1780    0.4090 C   0  0  0  0  0  0  0  0  0  0  0  0
    1.5710    0.0260    1.3350 C   0  0  2  0  0  0  0  0  0  0  0  0
    1.2600   -1.2030    2.0560 N   0  0  0  0  0  0  0  0  0  0  0  0
    0.3920    0.6890    0.8300 C   0  0  0  0  0  0  0  0  0  0  0  0
    0.4620    1.8040    0.2750 O   0  0  0  0  0  0  0  0  0  0  0  0
    0.8910    1.8610   -4.7160 H   0  0  0  0  0  0  0  0  0  0  0  0
   -0.2290    2.0780   -3.3420 H   0  0  0  0  0  0  0  0  0  0  0  0
    2.2430    2.7820   -2.0460 H   0  0  0  0  0  0  0  0  0  0  0  0
    1.9720   -0.7350   -3.8430 H   0  0  0  0  0  0  0  0  0  0  0  0
    0.6050   -1.2320   -1.4020 H   0  0  0  0  0  0  0  0  0  0  0  0
    1.7520   -2.2760   -2.1980 H   0  0  0  0  0  0  0  0  0  0  0  0
    3.6780   -1.2660   -1.0970 H   0  0  0  0  0  0  0  0  0  0  0  0
    2.6040   -2.2450   -0.1240 H   0  0  0  0  0  0  0  0  0  0  0  0
    3.5880   -0.5710    1.1170 H   0  0  0  0  0  0  0  0  0  0  0  0
    3.1470    0.7960    0.1340 H   0  0  0  0  0  0  0  0  0  0  0  0
    1.9890    0.7220    2.1340 H   0  0  0  0  0  0  0  0  0  0  0  0
    0.8640   -1.9770    1.5080 H   0  0  0  0  0  0  0  0  0  0  0  0
   -4.0940   -1.5440    0.9480 C   0  0  0  0  0  0  0  0  0  0  0  0
   -3.2450   -1.4230   -0.2680 C   0  0  0  0  0  0  0  0  0  0  0  0
   -2.8340   -0.0320   -0.6290 C   0  0  2  0  0  0  0  0  0  0  0  0
   -2.0000   -0.1220   -1.8810 C   0  0  0  0  0  0  0  0  0  0  0  0
   -2.1260    0.7310    0.4620 C   0  0  2  0  0  0  0  0  0  0  0  0
   -0.9230    0.1170    0.9350 N   0  0  0  0  0  0  0  0  0  0  0  0
   -2.9710    1.0890    1.6140 C   0  0  0  0  0  0  0  0  0  0  0  0
   -2.5620    0.8380    2.7700 O   0  0  0  0  0  0  0  0  0  0  0  0
   -4.2120    1.6970    1.4930 O   0  0  0  0  0  0  0  0  0  0  0  0
   -4.9450   -0.8380    0.8570 H   0  0  0  0  0  0  0  0  0  0  0  0
   -4.5590   -2.5830    0.9050 H   0  0  0  0  0  0  0  0  0  0  0  0
   -3.5560   -1.5180    1.8930 H   0  0  0  0  0  0  0  0  0  0  0  0
   -2.3260   -2.0570   -0.2240 H   0  0  0  0  0  0  0  0  0  0  0  0
   -3.7850   -1.8200   -1.1800 H   0  0  0  0  0  0  0  0  0  0  0  0
   -3.7890    0.5060   -0.9070 H   0  0  0  0  0  0  0  0  0  0  0  0
   -1.0530    0.4500   -1.7970 H   0  0  0  0  0  0  0  0  0  0  0  0
   -2.5740    0.3160   -2.7180 H   0  0  0  0  0  0  0  0  0  0  0  0
   -1.8030   -1.1870   -2.1930 H   0  0  0  0  0  0  0  0  0  0  0  0
   -1.8680    1.7370   -0.0420 H   0  0  0  0  0  0  0  0  0  0  0  0
   -0.9770   -0.8130    1.3920 H   0  0  0  0  0  0  0  0  0  0  0  0
  1  7  1  0  0  0  0
  1  8  1  0  0  0  0
  2  1  1  0  0  0  0
  2  9  1  1  0  0  0
  3 10  1  0  0  0  0
  3  2  1  0  0  0  0
  4  5  2  0  0  0  0
  4  2  1  0  0  0  0
  6  1  1  0  0  0  0
 11  3  1  0  0  0  0
 12 24  1  0  0  0  0
 12 13  1  0  0  0  0
 13 15  1  0  0  0  0
 13 14  2  0  0  0  0
 14 25  1  0  0  0  0
 15 16  1  0  0  0  0
 16 27  1  0  0  0  0
 16 17  1  0  0  0  0
 17 30  1  0  0  0  0
 17 18  1  0  0  0  0
 18 31  1  0  0  0  0
 18 19  1  0  0  0  0
 19 20  1  0  0  0  0
 19 33  1  1  0  0  0
 20  4  1  0  0  0  0
 21 40  1  0  0  0  0
 21 19  1  0  0  0  0
 22 21  2  0  0  0  0
 23 12  1  0  0  0  0
 26 15  1  0  0  0  0
 28 16  1  0  0  0  0
 29 17  1  0  0  0  0
 32 18  1  0  0  0  0
 34 20  1  0  0  0  0
 35 46  1  0  0  0  0
 36 47  1  0  0  0  0
 36 35  1  0  0  0  0
 37 49  1  6  0  0  0
 37 36  1  0  0  0  0
 37 39  1  0  0  0  0
 38 50  1  0  0  0  0
 38 37  1  0  0  0  0
 39 53  1  6  0  0  0
 39 40  1  0  0  0  0
 39 41  1  0  0  0  0
 40 54  1  0  0  0  0
 41 42  1  0  0  0  0
 43 41  2  0  0  0  0
 44 35  1  0  0  0  0
 45 35  1  0  0  0  0
 48 36  1  0  0  0  0
 51 38  1  0  0  0  0
 52 38  1  0  0  0  0
M  END
$$$$
