ARM.pdb
 OpenBabel07022417593D

 52 51  0  0  1  0  0  0  0  0999 V2000
    2.2970   -3.3470    5.1450 C   0  0  0  0  0  0  0  0  0  0  0  0
    1.0230   -3.1070    4.3640 C   0  0  2  0  0  0  0  0  0  0  0  0
    0.6750   -4.2310    3.5470 N   0  0  0  0  0  0  0  0  0  0  0  0
    1.2000   -1.8860    3.5450 C   0  0  0  0  0  0  0  0  0  0  0  0
    1.5340   -0.8170    4.1180 O   0  0  0  0  0  0  0  0  0  0  0  0
    2.7780   -4.3040    4.8770 H   0  0  0  0  0  0  0  0  0  0  0  0
    3.0550   -2.5540    4.9310 H   0  0  0  0  0  0  0  0  0  0  0  0
    2.1030   -3.2630    6.2500 H   0  0  0  0  0  0  0  0  0  0  0  0
    0.1810   -2.9810    5.1040 H   0  0  0  0  0  0  0  0  0  0  0  0
    1.2690   -5.0490    3.7300 H   0  0  0  0  0  0  0  0  0  0  0  0
   -0.3150   -4.4760    3.6120 H   0  0  0  0  0  0  0  0  0  0  0  0
    2.9160    2.8290   -4.2850 N   0  0  0  0  0  0  0  0  0  0  0  0
    2.6610    1.7380   -3.4240 C   0  0  0  0  0  0  0  0  0  0  0  0
    1.5190    1.1390   -3.4270 N   0  0  0  0  0  0  0  0  0  0  0  0
    3.6310    1.2280   -2.5070 N   0  0  0  0  0  0  0  0  0  0  0  0
    3.3630    0.1230   -1.6500 C   0  0  0  0  0  0  0  0  0  0  0  0
    2.3320    0.4300   -0.5690 C   0  0  0  0  0  0  0  0  0  0  0  0
    2.1600   -0.8220    0.2450 C   0  0  0  0  0  0  0  0  0  0  0  0
    1.1920   -0.6310    1.3390 C   0  0  2  0  0  0  0  0  0  0  0  0
    1.0190   -1.8300    2.1530 N   0  0  0  0  0  0  0  0  0  0  0  0
   -0.1850   -0.2740    0.9100 C   0  0  0  0  0  0  0  0  0  0  0  0
   -0.4570    0.7470    0.2220 O   0  0  0  0  0  0  0  0  0  0  0  0
    3.8770    3.1090   -4.5310 H   0  0  0  0  0  0  0  0  0  0  0  0
    2.1170    3.3560   -4.6740 H   0  0  0  0  0  0  0  0  0  0  0  0
    0.7500    1.4500   -4.0720 H   0  0  0  0  0  0  0  0  0  0  0  0
    4.5550    1.7130   -2.4970 H   0  0  0  0  0  0  0  0  0  0  0  0
    4.2850   -0.1890   -1.1180 H   0  0  0  0  0  0  0  0  0  0  0  0
    2.9960   -0.7850   -2.1770 H   0  0  0  0  0  0  0  0  0  0  0  0
    1.4250    0.8580   -0.9870 H   0  0  0  0  0  0  0  0  0  0  0  0
    2.8020    1.2290    0.0580 H   0  0  0  0  0  0  0  0  0  0  0  0
    3.1410   -1.0850    0.6950 H   0  0  0  0  0  0  0  0  0  0  0  0
    1.7840   -1.6570   -0.4090 H   0  0  0  0  0  0  0  0  0  0  0  0
    1.5230    0.1740    2.0370 H   0  0  0  0  0  0  0  0  0  0  0  0
    0.7410   -2.6900    1.6420 H   0  0  0  0  0  0  0  0  0  0  0  0
   -4.3170    1.5560   -0.9060 C   0  0  0  0  0  0  0  0  0  0  0  0
   -4.6940   -0.0250   -1.6060 S   0  0  0  0  0  0  0  0  0  0  0  0
   -4.6470   -1.4370   -0.5240 C   0  0  0  0  0  0  0  0  0  0  0  0
   -3.2820   -1.7810   -0.0160 C   0  0  0  0  0  0  0  0  0  0  0  0
   -2.6890   -0.7020    0.8150 C   0  0  2  0  0  0  0  0  0  0  0  0
   -1.3300   -1.0720    1.2470 N   0  0  0  0  0  0  0  0  0  0  0  0
   -3.4590   -0.4710    2.0630 C   0  0  0  0  0  0  0  0  0  0  0  0
   -2.8520   -0.6350    3.1820 O   0  0  0  0  0  0  0  0  0  0  0  0
   -4.7830   -0.0910    2.1310 O   0  0  0  0  0  0  0  0  0  0  0  0
   -3.2920    1.9270   -1.2090 H   0  0  0  0  0  0  0  0  0  0  0  0
   -5.0040    2.3340   -1.3830 H   0  0  0  0  0  0  0  0  0  0  0  0
   -4.4590    1.6830    0.1620 H   0  0  0  0  0  0  0  0  0  0  0  0
   -5.0820   -2.3470   -1.0770 H   0  0  0  0  0  0  0  0  0  0  0  0
   -5.3500   -1.2560    0.3190 H   0  0  0  0  0  0  0  0  0  0  0  0
   -3.3790   -2.7350    0.5750 H   0  0  0  0  0  0  0  0  0  0  0  0
   -2.5840   -2.0250   -0.8530 H   0  0  0  0  0  0  0  0  0  0  0  0
   -2.5970    0.2160    0.2600 H   0  0  0  0  0  0  0  0  0  0  0  0
   -1.1590   -1.9240    1.8110 H   0  0  0  0  0  0  0  0  0  0  0  0
  1  8  1  0  0  0  0
  2  9  1  1  0  0  0
  2  1  1  0  0  0  0
  3 11  1  0  0  0  0
  3 10  1  0  0  0  0
  3  2  1  0  0  0  0
  4  5  2  0  0  0  0
  4  2  1  0  0  0  0
  6  1  1  0  0  0  0
  7  1  1  0  0  0  0
 12 13  1  0  0  0  0
 13 15  1  0  0  0  0
 14 13  2  0  0  0  0
 15 26  1  0  0  0  0
 15 16  1  0  0  0  0
 16 27  1  0  0  0  0
 16 17  1  0  0  0  0
 17 30  1  0  0  0  0
 17 18  1  0  0  0  0
 18 31  1  0  0  0  0
 18 19  1  0  0  0  0
 19 33  1  1  0  0  0
 19 20  1  0  0  0  0
 20  4  1  0  0  0  0
 21 40  1  0  0  0  0
 21 19  1  0  0  0  0
 22 21  2  0  0  0  0
 23 12  1  0  0  0  0
 24 12  1  0  0  0  0
 25 14  1  0  0  0  0
 28 16  1  0  0  0  0
 29 17  1  0  0  0  0
 32 18  1  0  0  0  0
 34 20  1  0  0  0  0
 35 46  1  0  0  0  0
 36 35  1  0  0  0  0
 36 37  1  0  0  0  0
 37 38  1  0  0  0  0
 37 48  1  0  0  0  0
 38 49  1  0  0  0  0
 38 39  1  0  0  0  0
 39 51  1  6  0  0  0
 39 40  1  0  0  0  0
 39 41  1  0  0  0  0
 40 52  1  0  0  0  0
 41 43  2  0  0  0  0
 41 42  1  0  0  0  0
 44 35  1  0  0  0  0
 45 35  1  0  0  0  0
 47 37  1  0  0  0  0
 50 38  1  0  0  0  0
M  END
$$$$
