ARN.pdb
 OpenBabel07022417593D

 49 48  0  0  1  0  0  0  0  0999 V2000
    0.3450   -4.2790    4.5510 C   0  0  0  0  0  0  0  0  0  0  0  0
    0.9050   -2.9210    4.9060 C   0  0  2  0  0  0  0  0  0  0  0  0
   -0.0520   -2.2540    5.7870 N   0  0  0  0  0  0  0  0  0  0  0  0
    0.9860   -2.1630    3.5990 C   0  0  0  0  0  0  0  0  0  0  0  0
    1.7480   -2.5970    2.6970 O   0  0  0  0  0  0  0  0  0  0  0  0
   -0.4240   -4.1970    3.7440 H   0  0  0  0  0  0  0  0  0  0  0  0
    1.1170   -4.9820    4.1730 H   0  0  0  0  0  0  0  0  0  0  0  0
   -0.1690   -4.7730    5.4070 H   0  0  0  0  0  0  0  0  0  0  0  0
    1.8950   -3.0000    5.3860 H   0  0  0  0  0  0  0  0  0  0  0  0
   -0.9830   -2.2680    5.2950 H   0  0  0  0  0  0  0  0  0  0  0  0
   -0.2030   -2.8700    6.6400 H   0  0  0  0  0  0  0  0  0  0  0  0
    2.1100    2.5810   -3.4670 N   0  0  0  0  0  0  0  0  0  0  0  0
    1.8710    2.0180   -2.1930 C   0  0  0  0  0  0  0  0  0  0  0  0
    0.7780    2.3630   -1.6040 N   0  0  0  0  0  0  0  0  0  0  0  0
    2.7350    1.1200   -1.5450 N   0  0  0  0  0  0  0  0  0  0  0  0
    2.3310    0.3390   -0.3940 C   0  0  0  0  0  0  0  0  0  0  0  0
    2.0920    1.1440    0.8250 C   0  0  0  0  0  0  0  0  0  0  0  0
    1.6450    0.3690    1.9970 C   0  0  0  0  0  0  0  0  0  0  0  0
    0.3050   -0.2410    2.0910 C   0  0  2  0  0  0  0  0  0  0  0  0
    0.2300   -0.9980    3.3860 N   0  0  0  0  0  0  0  0  0  0  0  0
   -0.2820   -1.0400    1.0460 C   0  0  0  0  0  0  0  0  0  0  0  0
   -0.3730   -2.3060    1.2370 O   0  0  0  0  0  0  0  0  0  0  0  0
    2.9360    3.1450   -3.6450 H   0  0  0  0  0  0  0  0  0  0  0  0
    1.4190    2.4030   -4.2230 H   0  0  0  0  0  0  0  0  0  0  0  0
    0.0730    3.0320   -2.0220 H   0  0  0  0  0  0  0  0  0  0  0  0
    3.7010    1.0470   -1.9500 H   0  0  0  0  0  0  0  0  0  0  0  0
    3.3070   -0.2560   -0.1230 H   0  0  0  0  0  0  0  0  0  0  0  0
    1.6480   -0.4740   -0.5830 H   0  0  0  0  0  0  0  0  0  0  0  0
    1.4230    2.0300    0.6420 H   0  0  0  0  0  0  0  0  0  0  0  0
    3.0650    1.6590    1.1330 H   0  0  0  0  0  0  0  0  0  0  0  0
    2.3900   -0.5050    2.0940 H   0  0  0  0  0  0  0  0  0  0  0  0
    1.8010    0.9920    2.9530 H   0  0  0  0  0  0  0  0  0  0  0  0
   -0.3870    0.6500    2.3370 H   0  0  0  0  0  0  0  0  0  0  0  0
   -0.3830   -0.6830    4.1620 H   0  0  0  0  0  0  0  0  0  0  0  0
   -3.6890    1.0620   -0.7050 N   0  0  0  0  0  0  0  0  0  0  0  0
   -3.2020    0.1030   -1.6360 C   0  0  0  0  0  0  0  0  0  0  0  0
   -3.0380    0.4790   -2.8340 O   0  0  0  0  0  0  0  0  0  0  0  0
   -2.8970   -1.2870   -1.2200 C   0  0  0  0  0  0  0  0  0  0  0  0
   -1.3900   -1.5240   -1.1560 C   0  0  2  0  0  0  0  0  0  0  0  0
   -0.8090   -0.6140   -0.2060 N   0  0  0  0  0  0  0  0  0  0  0  0
   -0.8130   -1.4410   -2.5160 C   0  0  0  0  0  0  0  0  0  0  0  0
    0.1060   -0.6260   -2.8200 O   0  0  0  0  0  0  0  0  0  0  0  0
   -1.2680   -2.2770   -3.5410 O   0  0  0  0  0  0  0  0  0  0  0  0
   -3.4900    2.0690   -0.8660 H   0  0  0  0  0  0  0  0  0  0  0  0
   -4.2420    0.8120    0.1430 H   0  0  0  0  0  0  0  0  0  0  0  0
   -3.2810   -1.4220   -0.1920 H   0  0  0  0  0  0  0  0  0  0  0  0
   -3.3280   -1.9930   -1.9540 H   0  0  0  0  0  0  0  0  0  0  0  0
   -1.2050   -2.5770   -0.7820 H   0  0  0  0  0  0  0  0  0  0  0  0
   -0.7600    0.3910   -0.4130 H   0  0  0  0  0  0  0  0  0  0  0  0
  1  2  1  0  0  0  0
  1  8  1  0  0  0  0
  2  9  1  1  0  0  0
  2  3  1  0  0  0  0
  3 11  1  0  0  0  0
  4  2  1  0  0  0  0
  5  4  2  0  0  0  0
  6  1  1  0  0  0  0
  7  1  1  0  0  0  0
 10  3  1  0  0  0  0
 12 13  1  0  0  0  0
 13 14  2  0  0  0  0
 13 15  1  0  0  0  0
 15 16  1  0  0  0  0
 16 27  1  0  0  0  0
 16 17  1  0  0  0  0
 17 30  1  0  0  0  0
 17 18  1  0  0  0  0
 18 19  1  0  0  0  0
 18 31  1  0  0  0  0
 18 32  1  0  0  0  0
 19 33  1  1  0  0  0
 19 20  1  0  0  0  0
 20  4  1  0  0  0  0
 20 34  1  0  0  0  0
 21 22  2  0  0  0  0
 21 19  1  0  0  0  0
 23 12  1  0  0  0  0
 24 12  1  0  0  0  0
 25 14  1  0  0  0  0
 26 15  1  0  0  0  0
 28 16  1  0  0  0  0
 29 17  1  0  0  0  0
 35 45  1  0  0  0  0
 36 38  1  0  0  0  0
 36 35  1  0  0  0  0
 37 36  2  0  0  0  0
 38 39  1  0  0  0  0
 38 46  1  0  0  0  0
 39 48  1  1  0  0  0
 39 40  1  0  0  0  0
 40 21  1  0  0  0  0
 41 39  1  0  0  0  0
 42 41  1  0  0  0  0
 43 41  2  0  0  0  0
 44 35  1  0  0  0  0
 47 38  1  0  0  0  0
 49 40  1  0  0  0  0
M  END
$$$$
