ARQ.pdb
 OpenBabel07022417593D

 52 51  0  0  1  0  0  0  0  0999 V2000
    2.6450    1.7500    5.1120 C   0  0  0  0  0  0  0  0  0  0  0  0
    2.1590    0.3330    5.0700 C   0  0  2  0  0  0  0  0  0  0  0  0
    3.1420   -0.4980    5.7330 N   0  0  0  0  0  0  0  0  0  0  0  0
    1.9060   -0.1420    3.6800 C   0  0  0  0  0  0  0  0  0  0  0  0
    2.5380   -1.1520    3.3050 O   0  0  0  0  0  0  0  0  0  0  0  0
    3.2410    1.9030    6.0370 H   0  0  0  0  0  0  0  0  0  0  0  0
    3.2970    2.0030    4.2600 H   0  0  0  0  0  0  0  0  0  0  0  0
    1.7800    2.4610    5.2040 H   0  0  0  0  0  0  0  0  0  0  0  0
    1.2350    0.2770    5.6960 H   0  0  0  0  0  0  0  0  0  0  0  0
    3.7010   -1.0310    5.0090 H   0  0  0  0  0  0  0  0  0  0  0  0
    2.7340   -1.1440    6.4350 H   0  0  0  0  0  0  0  0  0  0  0  0
    1.1700   -2.1640   -2.7890 N   0  0  0  0  0  0  0  0  0  0  0  0
    2.0410   -2.5410   -1.7350 C   0  0  0  0  0  0  0  0  0  0  0  0
    1.7580   -3.5540   -0.9520 N   0  0  0  0  0  0  0  0  0  0  0  0
    3.2520   -1.8630   -1.4630 N   0  0  0  0  0  0  0  0  0  0  0  0
    3.7520   -1.5480   -0.1710 C   0  0  0  0  0  0  0  0  0  0  0  0
    2.9340   -0.4750    0.5060 C   0  0  0  0  0  0  0  0  0  0  0  0
    1.5140   -0.8510    0.7270 C   0  0  0  0  0  0  0  0  0  0  0  0
    0.6810    0.1710    1.4610 C   0  0  2  0  0  0  0  0  0  0  0  0
    1.0200    0.4690    2.7950 N   0  0  0  0  0  0  0  0  0  0  0  0
   -0.7390   -0.0600    1.2150 C   0  0  0  0  0  0  0  0  0  0  0  0
   -1.5700   -0.0370    2.1990 O   0  0  0  0  0  0  0  0  0  0  0  0
    1.5830   -1.7000   -3.6530 H   0  0  0  0  0  0  0  0  0  0  0  0
    0.1360   -2.3160   -2.7650 H   0  0  0  0  0  0  0  0  0  0  0  0
    0.9000   -4.1140   -1.0670 H   0  0  0  0  0  0  0  0  0  0  0  0
    3.8080   -1.5750   -2.3130 H   0  0  0  0  0  0  0  0  0  0  0  0
    4.8220   -1.2100   -0.2610 H   0  0  0  0  0  0  0  0  0  0  0  0
    3.8030   -2.4630    0.4720 H   0  0  0  0  0  0  0  0  0  0  0  0
    3.4640    0.0470    1.3080 H   0  0  0  0  0  0  0  0  0  0  0  0
    2.9470    0.3650   -0.3210 H   0  0  0  0  0  0  0  0  0  0  0  0
    1.4850   -1.8440    1.2020 H   0  0  0  0  0  0  0  0  0  0  0  0
    1.0280   -0.9540   -0.2600 H   0  0  0  0  0  0  0  0  0  0  0  0
    0.9710    1.1250    0.8540 H   0  0  0  0  0  0  0  0  0  0  0  0
    0.5080    1.3170    3.2150 H   0  0  0  0  0  0  0  0  0  0  0  0
   -6.3480   -1.3230   -2.3520 N   0  0  0  0  0  0  0  0  0  0  0  0
   -5.0690   -0.7190   -2.3460 C   0  0  0  0  0  0  0  0  0  0  0  0
   -4.2060   -1.2060   -3.1590 O   0  0  0  0  0  0  0  0  0  0  0  0
   -4.6720    0.4130   -1.4900 C   0  0  0  0  0  0  0  0  0  0  0  0
   -3.2460    0.5250   -1.1520 C   0  0  0  0  0  0  0  0  0  0  0  0
   -2.7300   -0.5420   -0.2590 C   0  0  2  0  0  0  0  0  0  0  0  0
   -1.2740   -0.3120   -0.0540 N   0  0  0  0  0  0  0  0  0  0  0  0
   -2.9070   -1.9370   -0.6140 C   0  0  0  0  0  0  0  0  0  0  0  0
   -1.8830   -2.6280   -0.9310 O   0  0  0  0  0  0  0  0  0  0  0  0
   -4.1000   -2.6430   -0.6440 O   0  0  0  0  0  0  0  0  0  0  0  0
   -7.1880   -0.7460   -2.4290 H   0  0  0  0  0  0  0  0  0  0  0  0
   -6.4420   -2.3550   -2.2780 H   0  0  0  0  0  0  0  0  0  0  0  0
   -5.3020    0.3900   -0.5480 H   0  0  0  0  0  0  0  0  0  0  0  0
   -4.9730    1.3850   -1.9900 H   0  0  0  0  0  0  0  0  0  0  0  0
   -2.6100    0.6440   -2.0680 H   0  0  0  0  0  0  0  0  0  0  0  0
   -3.1110    1.5090   -0.5950 H   0  0  0  0  0  0  0  0  0  0  0  0
   -3.1610   -0.4400    0.7840 H   0  0  0  0  0  0  0  0  0  0  0  0
   -0.7310   -0.3520   -0.9190 H   0  0  0  0  0  0  0  0  0  0  0  0
  1  8  1  0  0  0  0
  1  6  1  0  0  0  0
  2  1  1  0  0  0  0
  2  9  1  1  0  0  0
  2  3  1  0  0  0  0
  3 11  1  0  0  0  0
  4  2  1  0  0  0  0
  5  4  2  0  0  0  0
  7  1  1  0  0  0  0
 10  3  1  0  0  0  0
 12 24  1  0  0  0  0
 12 13  1  0  0  0  0
 13 15  1  0  0  0  0
 13 14  2  0  0  0  0
 15 16  1  0  0  0  0
 16 28  1  0  0  0  0
 16 17  1  0  0  0  0
 17 18  1  0  0  0  0
 17 29  1  0  0  0  0
 18 31  1  0  0  0  0
 18 19  1  0  0  0  0
 19 33  1  6  0  0  0
 19 20  1  0  0  0  0
 20 34  1  0  0  0  0
 20  4  1  0  0  0  0
 21 19  1  0  0  0  0
 21 22  2  0  0  0  0
 23 12  1  0  0  0  0
 25 14  1  0  0  0  0
 26 15  1  0  0  0  0
 27 16  1  0  0  0  0
 30 17  1  0  0  0  0
 32 18  1  0  0  0  0
 35 36  1  0  0  0  0
 35 46  1  0  0  0  0
 36 38  1  0  0  0  0
 37 36  2  0  0  0  0
 38 39  1  0  0  0  0
 38 47  1  0  0  0  0
 39 50  1  0  0  0  0
 39 40  1  0  0  0  0
 40 41  1  0  0  0  0
 40 51  1  1  0  0  0
 41 21  1  0  0  0  0
 42 40  1  0  0  0  0
 43 42  2  0  0  0  0
 44 42  1  0  0  0  0
 45 35  1  0  0  0  0
 48 38  1  0  0  0  0
 49 39  1  0  0  0  0
 52 41  1  0  0  0  0
M  END
$$$$
