ARR.pdb
 OpenBabel07022417593D

 58 57  0  0  1  0  0  0  0  0999 V2000
   -1.7050   -1.4550    3.1850 C   0  0  0  0  0  0  0  0  0  0  0  0
   -1.1550   -0.0730    3.4500 C   0  0  2  0  0  0  0  0  0  0  0  0
   -2.1350    0.7540    4.1250 N   0  0  0  0  0  0  0  0  0  0  0  0
   -0.6770    0.6020    2.2490 C   0  0  0  0  0  0  0  0  0  0  0  0
   -1.1300    1.7080    1.9320 O   0  0  0  0  0  0  0  0  0  0  0  0
   -2.6060   -1.4170    2.5400 H   0  0  0  0  0  0  0  0  0  0  0  0
   -0.8970   -2.0940    2.7770 H   0  0  0  0  0  0  0  0  0  0  0  0
   -1.9960   -1.8770    4.1760 H   0  0  0  0  0  0  0  0  0  0  0  0
   -0.2960   -0.1970    4.1490 H   0  0  0  0  0  0  0  0  0  0  0  0
   -2.2700    0.3520    5.0750 H   0  0  0  0  0  0  0  0  0  0  0  0
   -3.0190    0.8670    3.5870 H   0  0  0  0  0  0  0  0  0  0  0  0
    6.6850   -1.1250    3.3870 N   0  0  0  0  0  0  0  0  0  0  0  0
    5.3120   -0.9020    3.1390 C   0  0  0  0  0  0  0  0  0  0  0  0
    4.4690   -1.2850    4.0530 N   0  0  0  0  0  0  0  0  0  0  0  0
    4.8770   -0.2820    1.9370 N   0  0  0  0  0  0  0  0  0  0  0  0
    3.5260    0.2510    1.8510 C   0  0  0  0  0  0  0  0  0  0  0  0
    3.3380    0.8350    0.5040 C   0  0  0  0  0  0  0  0  0  0  0  0
    2.0350    1.4780    0.1830 C   0  0  0  0  0  0  0  0  0  0  0  0
    0.7920    0.7060    0.2010 C   0  0  2  0  0  0  0  0  0  0  0  0
    0.3230    0.0610    1.3660 N   0  0  0  0  0  0  0  0  0  0  0  0
    0.5850   -0.1220   -1.0380 C   0  0  0  0  0  0  0  0  0  0  0  0
    0.9310    0.2730   -2.1720 O   0  0  0  0  0  0  0  0  0  0  0  0
    7.0460   -1.1430    4.3630 H   0  0  0  0  0  0  0  0  0  0  0  0
    7.3630   -1.2770    2.6040 H   0  0  0  0  0  0  0  0  0  0  0  0
    3.4690   -1.1280    3.8830 H   0  0  0  0  0  0  0  0  0  0  0  0
    5.5220   -0.2190    1.1440 H   0  0  0  0  0  0  0  0  0  0  0  0
    2.8560   -0.6110    1.9890 H   0  0  0  0  0  0  0  0  0  0  0  0
    3.3820    1.0080    2.6680 H   0  0  0  0  0  0  0  0  0  0  0  0
    3.6250    0.0400   -0.2290 H   0  0  0  0  0  0  0  0  0  0  0  0
    4.1960    1.5780    0.3810 H   0  0  0  0  0  0  0  0  0  0  0  0
    2.0030    2.4320    0.7740 H   0  0  0  0  0  0  0  0  0  0  0  0
    2.2190    1.9200   -0.8600 H   0  0  0  0  0  0  0  0  0  0  0  0
   -0.0140    1.5280    0.0350 H   0  0  0  0  0  0  0  0  0  0  0  0
    0.6440   -0.8830    1.6790 H   0  0  0  0  0  0  0  0  0  0  0  0
   -6.2950   -1.5990   -0.4570 N   0  0  0  0  0  0  0  0  0  0  0  0
   -4.8840   -1.4350   -0.4770 C   0  0  0  0  0  0  0  0  0  0  0  0
   -4.1220   -2.2010    0.2290 N   0  0  0  0  0  0  0  0  0  0  0  0
   -4.2530   -0.4440   -1.2530 N   0  0  0  0  0  0  0  0  0  0  0  0
   -2.8640   -0.6300   -1.6380 C   0  0  0  0  0  0  0  0  0  0  0  0
   -2.7110   -1.7600   -2.6160 C   0  0  0  0  0  0  0  0  0  0  0  0
   -1.3000   -1.9260   -3.0330 C   0  0  0  0  0  0  0  0  0  0  0  0
   -0.2720   -2.2760   -2.0500 C   0  0  2  0  0  0  0  0  0  0  0  0
   -0.0220   -1.3980   -0.9460 N   0  0  0  0  0  0  0  0  0  0  0  0
    1.0380   -2.5600   -2.7780 C   0  0  0  0  0  0  0  0  0  0  0  0
    1.0140   -3.2990   -3.7760 O   0  0  0  0  0  0  0  0  0  0  0  0
    2.2030   -2.0110   -2.3330 O   0  0  0  0  0  0  0  0  0  0  0  0
   -6.7180   -2.3320    0.1240 H   0  0  0  0  0  0  0  0  0  0  0  0
   -6.9070   -0.9810   -1.0280 H   0  0  0  0  0  0  0  0  0  0  0  0
   -4.5780   -2.9360    0.8070 H   0  0  0  0  0  0  0  0  0  0  0  0
   -4.7560    0.3970   -1.5470 H   0  0  0  0  0  0  0  0  0  0  0  0
   -2.2560   -0.8600   -0.7480 H   0  0  0  0  0  0  0  0  0  0  0  0
   -2.4730    0.2900   -2.1530 H   0  0  0  0  0  0  0  0  0  0  0  0
   -3.3210   -1.4830   -3.5250 H   0  0  0  0  0  0  0  0  0  0  0  0
   -3.1590   -2.7030   -2.2050 H   0  0  0  0  0  0  0  0  0  0  0  0
   -1.0360   -1.0340   -3.6680 H   0  0  0  0  0  0  0  0  0  0  0  0
   -1.2950   -2.7680   -3.8110 H   0  0  0  0  0  0  0  0  0  0  0  0
   -0.5080   -3.2970   -1.6270 H   0  0  0  0  0  0  0  0  0  0  0  0
   -0.2820   -1.7030    0.0420 H   0  0  0  0  0  0  0  0  0  0  0  0
  1  2  1  0  0  0  0
  1  8  1  0  0  0  0
  2  3  1  0  0  0  0
  2  9  1  1  0  0  0
  3 10  1  0  0  0  0
  4  2  1  0  0  0  0
  5  4  2  0  0  0  0
  6  1  1  0  0  0  0
  7  1  1  0  0  0  0
 11  3  1  0  0  0  0
 12 23  1  0  0  0  0
 13 12  1  0  0  0  0
 13 14  2  0  0  0  0
 15 13  1  0  0  0  0
 16 15  1  0  0  0  0
 16 27  1  0  0  0  0
 16 28  1  0  0  0  0
 17 16  1  0  0  0  0
 18 19  1  0  0  0  0
 18 17  1  0  0  0  0
 18 31  1  0  0  0  0
 19 33  1  6  0  0  0
 19 20  1  0  0  0  0
 20 34  1  0  0  0  0
 20  4  1  0  0  0  0
 21 43  1  0  0  0  0
 21 19  1  0  0  0  0
 22 21  2  0  0  0  0
 24 12  1  0  0  0  0
 25 14  1  0  0  0  0
 26 15  1  0  0  0  0
 29 17  1  0  0  0  0
 30 17  1  0  0  0  0
 32 18  1  0  0  0  0
 35 47  1  0  0  0  0
 36 35  1  0  0  0  0
 36 37  2  0  0  0  0
 37 49  1  0  0  0  0
 38 36  1  0  0  0  0
 39 38  1  0  0  0  0
 39 51  1  0  0  0  0
 40 54  1  0  0  0  0
 40 39  1  0  0  0  0
 41 40  1  0  0  0  0
 41 42  1  0  0  0  0
 42 57  1  1  0  0  0
 42 43  1  0  0  0  0
 43 58  1  0  0  0  0
 44 46  1  0  0  0  0
 44 42  1  0  0  0  0
 45 44  2  0  0  0  0
 48 35  1  0  0  0  0
 50 38  1  0  0  0  0
 52 39  1  0  0  0  0
 53 40  1  0  0  0  0
 55 41  1  0  0  0  0
 56 41  1  0  0  0  0
M  END
$$$$
