ARS.pdb
 OpenBabel07022417593D

 46 45  0  0  1  0  0  0  0  0999 V2000
   -0.0920   -3.5680    2.9930 C   0  0  0  0  0  0  0  0  0  0  0  0
    1.3510   -3.1520    2.8410 C   0  0  2  0  0  0  0  0  0  0  0  0
    2.0410   -3.4360    4.0660 N   0  0  0  0  0  0  0  0  0  0  0  0
    1.3650   -1.6790    2.5860 C   0  0  0  0  0  0  0  0  0  0  0  0
    1.9530   -0.9070    3.3820 O   0  0  0  0  0  0  0  0  0  0  0  0
   -0.1510   -4.4850    3.6160 H   0  0  0  0  0  0  0  0  0  0  0  0
   -0.6390   -2.7700    3.5740 H   0  0  0  0  0  0  0  0  0  0  0  0
   -0.5790   -3.7400    2.0050 H   0  0  0  0  0  0  0  0  0  0  0  0
    1.7880   -3.6910    1.9740 H   0  0  0  0  0  0  0  0  0  0  0  0
    2.2730   -4.4320    4.1290 H   0  0  0  0  0  0  0  0  0  0  0  0
    2.8450   -2.7940    4.1830 H   0  0  0  0  0  0  0  0  0  0  0  0
    0.7210   -0.4630   -3.5360 N   0  0  0  0  0  0  0  0  0  0  0  0
    1.7320    0.3810   -3.0350 C   0  0  0  0  0  0  0  0  0  0  0  0
    1.6080    1.6900   -3.0330 N   0  0  0  0  0  0  0  0  0  0  0  0
    2.9520   -0.0940   -2.4980 N   0  0  0  0  0  0  0  0  0  0  0  0
    3.6200    0.4560   -1.3470 C   0  0  0  0  0  0  0  0  0  0  0  0
    2.8550    0.1460   -0.1010 C   0  0  0  0  0  0  0  0  0  0  0  0
    1.4670    0.6700   -0.0350 C   0  0  0  0  0  0  0  0  0  0  0  0
    0.7910    0.3350    1.2910 C   0  0  2  0  0  0  0  0  0  0  0  0
    0.7320   -1.0930    1.4650 N   0  0  0  0  0  0  0  0  0  0  0  0
   -0.5490    0.9670    1.3820 C   0  0  0  0  0  0  0  0  0  0  0  0
   -0.5940    2.2200    1.2280 O   0  0  0  0  0  0  0  0  0  0  0  0
    0.0020   -0.0430   -4.1690 H   0  0  0  0  0  0  0  0  0  0  0  0
    0.6330   -1.4710   -3.3280 H   0  0  0  0  0  0  0  0  0  0  0  0
    0.7180    2.0910   -3.4230 H   0  0  0  0  0  0  0  0  0  0  0  0
    3.3770   -0.9300   -3.0140 H   0  0  0  0  0  0  0  0  0  0  0  0
    3.6680    1.5620   -1.4700 H   0  0  0  0  0  0  0  0  0  0  0  0
    4.6540    0.0540   -1.2420 H   0  0  0  0  0  0  0  0  0  0  0  0
    3.4450    0.3560    0.8210 H   0  0  0  0  0  0  0  0  0  0  0  0
    2.7580   -0.9880   -0.0890 H   0  0  0  0  0  0  0  0  0  0  0  0
    1.4570    1.7450   -0.1600 H   0  0  0  0  0  0  0  0  0  0  0  0
    0.8000    0.2340   -0.8370 H   0  0  0  0  0  0  0  0  0  0  0  0
    1.3960    0.8070    2.0960 H   0  0  0  0  0  0  0  0  0  0  0  0
    0.2290   -1.6630    0.7680 H   0  0  0  0  0  0  0  0  0  0  0  0
   -5.2380    0.8950    0.8980 O   0  0  0  0  0  0  0  0  0  0  0  0
   -4.0120    0.2450    0.7380 C   0  0  0  0  0  0  0  0  0  0  0  0
   -3.0440    0.8610    1.7190 C   0  0  2  0  0  0  0  0  0  0  0  0
   -1.7340    0.2490    1.6280 N   0  0  0  0  0  0  0  0  0  0  0  0
   -3.5710    0.6050    3.0830 C   0  0  0  0  0  0  0  0  0  0  0  0
   -4.6900    1.0180    3.4430 O   0  0  0  0  0  0  0  0  0  0  0  0
   -2.8180   -0.1170    4.0190 O   0  0  0  0  0  0  0  0  0  0  0  0
   -5.1590    1.8720    0.7640 H   0  0  0  0  0  0  0  0  0  0  0  0
   -4.1430   -0.8160    0.9900 H   0  0  0  0  0  0  0  0  0  0  0  0
   -3.7030    0.3770   -0.3070 H   0  0  0  0  0  0  0  0  0  0  0  0
   -2.9790    1.9560    1.5400 H   0  0  0  0  0  0  0  0  0  0  0  0
   -1.6820   -0.7850    1.7530 H   0  0  0  0  0  0  0  0  0  0  0  0
  1  7  1  0  0  0  0
  1  6  1  0  0  0  0
  2  9  1  6  0  0  0
  2  1  1  0  0  0  0
  2  3  1  0  0  0  0
  3 10  1  0  0  0  0
  3 11  1  0  0  0  0
  4  2  1  0  0  0  0
  4  5  2  0  0  0  0
  8  1  1  0  0  0  0
 12 24  1  0  0  0  0
 12 13  1  0  0  0  0
 13 14  2  0  0  0  0
 13 15  1  0  0  0  0
 15 16  1  0  0  0  0
 16 28  1  0  0  0  0
 16 17  1  0  0  0  0
 17 30  1  0  0  0  0
 17 18  1  0  0  0  0
 17 29  1  0  0  0  0
 18 19  1  0  0  0  0
 19 21  1  0  0  0  0
 19 20  1  0  0  0  0
 19 33  1  1  0  0  0
 20  4  1  0  0  0  0
 21 38  1  0  0  0  0
 22 21  2  0  0  0  0
 23 12  1  0  0  0  0
 25 14  1  0  0  0  0
 26 15  1  0  0  0  0
 27 16  1  0  0  0  0
 31 18  1  0  0  0  0
 32 18  1  0  0  0  0
 34 20  1  0  0  0  0
 36 35  1  0  0  0  0
 36 43  1  0  0  0  0
 36 37  1  0  0  0  0
 37 45  1  6  0  0  0
 37 39  1  0  0  0  0
 38 37  1  0  0  0  0
 38 46  1  0  0  0  0
 39 40  2  0  0  0  0
 39 41  1  0  0  0  0
 42 35  1  0  0  0  0
 44 36  1  0  0  0  0
M  END
$$$$
