ART.pdb
 OpenBabel07022417593D

 49 48  0  0  1  0  0  0  0  0999 V2000
    3.3490   -0.2620    4.7250 C   0  0  0  0  0  0  0  0  0  0  0  0
    1.9150   -0.1580    4.2580 C   0  0  2  0  0  0  0  0  0  0  0  0
    1.2830   -1.4380    4.3860 N   0  0  0  0  0  0  0  0  0  0  0  0
    1.9090    0.3580    2.8760 C   0  0  0  0  0  0  0  0  0  0  0  0
    2.5210    1.4270    2.5890 O   0  0  0  0  0  0  0  0  0  0  0  0
    3.9820   -0.7770    3.9790 H   0  0  0  0  0  0  0  0  0  0  0  0
    3.4160   -0.8030    5.6970 H   0  0  0  0  0  0  0  0  0  0  0  0
    3.7790    0.7620    4.8410 H   0  0  0  0  0  0  0  0  0  0  0  0
    1.3740    0.5260    4.9600 H   0  0  0  0  0  0  0  0  0  0  0  0
    0.3250   -1.3990    4.0160 H   0  0  0  0  0  0  0  0  0  0  0  0
    1.7980   -2.1590    3.8400 H   0  0  0  0  0  0  0  0  0  0  0  0
    0.2870   -4.4260   -3.5490 N   0  0  0  0  0  0  0  0  0  0  0  0
    0.7080   -3.1480   -3.1200 C   0  0  0  0  0  0  0  0  0  0  0  0
   -0.0770   -2.1410   -3.2910 N   0  0  0  0  0  0  0  0  0  0  0  0
    1.9680   -2.9080   -2.5000 N   0  0  0  0  0  0  0  0  0  0  0  0
    2.6680   -1.6700   -2.5940 C   0  0  0  0  0  0  0  0  0  0  0  0
    1.9860   -0.5160   -1.8580 C   0  0  0  0  0  0  0  0  0  0  0  0
    1.8710   -0.8250   -0.4040 C   0  0  0  0  0  0  0  0  0  0  0  0
    1.2270    0.2110    0.4390 C   0  0  2  0  0  0  0  0  0  0  0  0
    1.2320   -0.3020    1.8170 N   0  0  0  0  0  0  0  0  0  0  0  0
   -0.1120    0.6290    0.0440 C   0  0  0  0  0  0  0  0  0  0  0  0
   -0.3120    1.0890   -1.1000 O   0  0  0  0  0  0  0  0  0  0  0  0
   -0.7010   -4.7590   -3.5530 H   0  0  0  0  0  0  0  0  0  0  0  0
    0.9890   -5.1350   -3.9020 H   0  0  0  0  0  0  0  0  0  0  0  0
   -1.0210   -2.1920   -3.7320 H   0  0  0  0  0  0  0  0  0  0  0  0
    2.3910   -3.7060   -1.9450 H   0  0  0  0  0  0  0  0  0  0  0  0
    2.7510   -1.4000   -3.6860 H   0  0  0  0  0  0  0  0  0  0  0  0
    3.7010   -1.7830   -2.2340 H   0  0  0  0  0  0  0  0  0  0  0  0
    1.0560   -0.2670   -2.3710 H   0  0  0  0  0  0  0  0  0  0  0  0
    2.6720    0.3650   -2.0310 H   0  0  0  0  0  0  0  0  0  0  0  0
    1.3810   -1.8220   -0.2800 H   0  0  0  0  0  0  0  0  0  0  0  0
    2.9050   -0.9810   -0.0040 H   0  0  0  0  0  0  0  0  0  0  0  0
    1.8890    1.1230    0.4610 H   0  0  0  0  0  0  0  0  0  0  0  0
    0.7180   -1.1860    2.0240 H   0  0  0  0  0  0  0  0  0  0  0  0
   -3.7060   -0.6320    2.0350 C   0  0  0  0  0  0  0  0  0  0  0  0
   -3.5540   -0.1670    0.5940 C   0  0  1  0  0  0  0  0  0  0  0  0
   -4.8240    0.2240    0.1810 O   0  0  0  0  0  0  0  0  0  0  0  0
   -2.5570    0.9640    0.4860 C   0  0  2  0  0  0  0  0  0  0  0  0
   -1.2270    0.5390    0.9120 N   0  0  0  0  0  0  0  0  0  0  0  0
   -2.9990    2.1680    1.2110 C   0  0  0  0  0  0  0  0  0  0  0  0
   -4.1150    2.6810    0.9930 O   0  0  0  0  0  0  0  0  0  0  0  0
   -2.1710    2.7470    2.1490 O   0  0  0  0  0  0  0  0  0  0  0  0
   -2.9700   -1.3940    2.2800 H   0  0  0  0  0  0  0  0  0  0  0  0
   -3.6640    0.2720    2.6920 H   0  0  0  0  0  0  0  0  0  0  0  0
   -4.7160   -1.0700    2.1990 H   0  0  0  0  0  0  0  0  0  0  0  0
   -3.2670   -1.0530   -0.0000 H   0  0  0  0  0  0  0  0  0  0  0  0
   -5.3010    0.5930    0.9470 H   0  0  0  0  0  0  0  0  0  0  0  0
   -2.4960    1.2510   -0.5870 H   0  0  0  0  0  0  0  0  0  0  0  0
   -1.1580    0.1700    1.8900 H   0  0  0  0  0  0  0  0  0  0  0  0
  1  8  1  0  0  0  0
  1  7  1  0  0  0  0
  2  3  1  0  0  0  0
  2  1  1  0  0  0  0
  2  9  1  1  0  0  0
  4  2  1  0  0  0  0
  5  4  2  0  0  0  0
  6  1  1  0  0  0  0
 10  3  1  0  0  0  0
 11  3  1  0  0  0  0
 12 13  1  0  0  0  0
 13 15  1  0  0  0  0
 14 13  2  0  0  0  0
 15 26  1  0  0  0  0
 16 15  1  0  0  0  0
 16 28  1  0  0  0  0
 16 17  1  0  0  0  0
 17 18  1  0  0  0  0
 18 31  1  0  0  0  0
 18 32  1  0  0  0  0
 18 19  1  0  0  0  0
 19 33  1  6  0  0  0
 19 20  1  0  0  0  0
 20 34  1  0  0  0  0
 20  4  1  0  0  0  0
 21 19  1  0  0  0  0
 21 39  1  0  0  0  0
 22 21  2  0  0  0  0
 23 12  1  0  0  0  0
 24 12  1  0  0  0  0
 25 14  1  0  0  0  0
 27 16  1  0  0  0  0
 29 17  1  0  0  0  0
 30 17  1  0  0  0  0
 35 45  1  0  0  0  0
 35 43  1  0  0  0  0
 35 44  1  0  0  0  0
 36 46  1  6  0  0  0
 36 35  1  0  0  0  0
 37 36  1  0  0  0  0
 37 47  1  0  0  0  0
 38 48  1  6  0  0  0
 38 36  1  0  0  0  0
 38 39  1  0  0  0  0
 38 40  1  0  0  0  0
 39 49  1  0  0  0  0
 40 42  1  0  0  0  0
 41 40  2  0  0  0  0
M  END
$$$$
