ARV.pdb
 OpenBabel07022417593D

 51 50  0  0  1  0  0  0  0  0999 V2000
   -0.8640   -1.8490    4.3710 C   0  0  0  0  0  0  0  0  0  0  0  0
    0.2970   -0.9730    4.7460 C   0  0  2  0  0  0  0  0  0  0  0  0
    0.1150   -0.5160    6.0940 N   0  0  0  0  0  0  0  0  0  0  0  0
    0.4230    0.1880    3.8130 C   0  0  0  0  0  0  0  0  0  0  0  0
    0.3620    1.3480    4.2740 O   0  0  0  0  0  0  0  0  0  0  0  0
   -1.0240   -2.5830    5.1830 H   0  0  0  0  0  0  0  0  0  0  0  0
   -1.8070   -1.2450    4.2650 H   0  0  0  0  0  0  0  0  0  0  0  0
   -0.6660   -2.4250    3.4240 H   0  0  0  0  0  0  0  0  0  0  0  0
    1.2150   -1.5980    4.7060 H   0  0  0  0  0  0  0  0  0  0  0  0
    0.8680   -0.8330    6.7400 H   0  0  0  0  0  0  0  0  0  0  0  0
   -0.8300   -0.6550    6.4740 H   0  0  0  0  0  0  0  0  0  0  0  0
    4.0390   -2.4800   -3.5030 N   0  0  0  0  0  0  0  0  0  0  0  0
    3.4450   -1.6000   -2.5630 C   0  0  0  0  0  0  0  0  0  0  0  0
    2.2710   -1.0660   -2.7850 N   0  0  0  0  0  0  0  0  0  0  0  0
    4.0770   -1.2460   -1.3420 N   0  0  0  0  0  0  0  0  0  0  0  0
    3.7330   -0.0760   -0.5810 C   0  0  0  0  0  0  0  0  0  0  0  0
    2.3720   -0.1240    0.0580 C   0  0  0  0  0  0  0  0  0  0  0  0
    2.0770    1.1320    0.8450 C   0  0  0  0  0  0  0  0  0  0  0  0
    0.7370    1.1220    1.4900 C   0  0  2  0  0  0  0  0  0  0  0  0
    0.6110    0.0160    2.4170 N   0  0  0  0  0  0  0  0  0  0  0  0
   -0.3820    1.1000    0.5200 C   0  0  0  0  0  0  0  0  0  0  0  0
   -0.4990    1.9520   -0.4040 O   0  0  0  0  0  0  0  0  0  0  0  0
    4.0380   -3.4940   -3.3370 H   0  0  0  0  0  0  0  0  0  0  0  0
    4.4710   -2.0910   -4.3510 H   0  0  0  0  0  0  0  0  0  0  0  0
    1.7360   -1.2660   -3.6500 H   0  0  0  0  0  0  0  0  0  0  0  0
    4.8380   -1.8880   -0.9880 H   0  0  0  0  0  0  0  0  0  0  0  0
    3.8050    0.7870   -1.3080 H   0  0  0  0  0  0  0  0  0  0  0  0
    4.5200    0.1340    0.1760 H   0  0  0  0  0  0  0  0  0  0  0  0
    2.3600   -1.0110    0.7260 H   0  0  0  0  0  0  0  0  0  0  0  0
    1.5950   -0.1930   -0.7250 H   0  0  0  0  0  0  0  0  0  0  0  0
    2.8380    1.1770    1.6580 H   0  0  0  0  0  0  0  0  0  0  0  0
    2.2170    2.0420    0.2400 H   0  0  0  0  0  0  0  0  0  0  0  0
    0.6510    2.0610    2.0860 H   0  0  0  0  0  0  0  0  0  0  0  0
    0.6590   -0.9540    2.0490 H   0  0  0  0  0  0  0  0  0  0  0  0
   -2.5370   -2.4690   -0.2530 C   0  0  0  0  0  0  0  0  0  0  0  0
   -2.4480   -1.2370   -1.0980 C   0  0  0  0  0  0  0  0  0  0  0  0
   -3.4820   -1.2760   -2.1940 C   0  0  0  0  0  0  0  0  0  0  0  0
   -2.4850    0.0440   -0.3320 C   0  0  2  0  0  0  0  0  0  0  0  0
   -1.3690    0.1030    0.6040 N   0  0  0  0  0  0  0  0  0  0  0  0
   -3.7770    0.3080    0.3410 C   0  0  0  0  0  0  0  0  0  0  0  0
   -3.9120    0.5410    1.5630 O   0  0  0  0  0  0  0  0  0  0  0  0
   -4.9200    0.2980   -0.4440 O   0  0  0  0  0  0  0  0  0  0  0  0
   -1.5570   -2.9990   -0.1350 H   0  0  0  0  0  0  0  0  0  0  0  0
   -2.9580   -2.3130    0.7380 H   0  0  0  0  0  0  0  0  0  0  0  0
   -3.2000   -3.2120   -0.7700 H   0  0  0  0  0  0  0  0  0  0  0  0
   -1.4460   -1.2740   -1.6120 H   0  0  0  0  0  0  0  0  0  0  0  0
   -3.2330   -2.0990   -2.9280 H   0  0  0  0  0  0  0  0  0  0  0  0
   -4.4760   -1.5500   -1.7880 H   0  0  0  0  0  0  0  0  0  0  0  0
   -3.5970   -0.3060   -2.7100 H   0  0  0  0  0  0  0  0  0  0  0  0
   -2.3430    0.8740   -1.0540 H   0  0  0  0  0  0  0  0  0  0  0  0
   -1.3440   -0.6430    1.3460 H   0  0  0  0  0  0  0  0  0  0  0  0
  1  2  1  0  0  0  0
  1  6  1  0  0  0  0
  2  9  1  6  0  0  0
  2  3  1  0  0  0  0
  3 11  1  0  0  0  0
  3 10  1  0  0  0  0
  4  5  2  0  0  0  0
  4  2  1  0  0  0  0
  7  1  1  0  0  0  0
  8  1  1  0  0  0  0
 12 23  1  0  0  0  0
 12 13  1  0  0  0  0
 13 15  1  0  0  0  0
 14 13  2  0  0  0  0
 15 26  1  0  0  0  0
 15 16  1  0  0  0  0
 16 17  1  0  0  0  0
 16 28  1  0  0  0  0
 17 29  1  0  0  0  0
 17 18  1  0  0  0  0
 18 19  1  0  0  0  0
 18 31  1  0  0  0  0
 19 33  1  1  0  0  0
 19 20  1  0  0  0  0
 20  4  1  0  0  0  0
 21 39  1  0  0  0  0
 21 19  1  0  0  0  0
 22 21  2  0  0  0  0
 24 12  1  0  0  0  0
 25 14  1  0  0  0  0
 27 16  1  0  0  0  0
 30 17  1  0  0  0  0
 32 18  1  0  0  0  0
 34 20  1  0  0  0  0
 35 43  1  0  0  0  0
 35 44  1  0  0  0  0
 36 38  1  0  0  0  0
 36 35  1  0  0  0  0
 37 48  1  0  0  0  0
 37 36  1  0  0  0  0
 38 50  1  6  0  0  0
 38 40  1  0  0  0  0
 38 39  1  0  0  0  0
 39 51  1  0  0  0  0
 40 41  1  0  0  0  0
 42 40  2  0  0  0  0
 45 35  1  0  0  0  0
 46 36  1  0  0  0  0
 47 37  1  0  0  0  0
 49 37  1  0  0  0  0
M  END
$$$$
