ARW.pdb
 OpenBabel07022417593D

 59 60  0  0  1  0  0  0  0  0999 V2000
    2.2030   -2.5960    5.0780 C   0  0  0  0  0  0  0  0  0  0  0  0
    1.3840   -3.0460    3.8870 C   0  0  2  0  0  0  0  0  0  0  0  0
    2.2210   -3.2810    2.7390 N   0  0  0  0  0  0  0  0  0  0  0  0
    0.3780   -2.0090    3.5580 C   0  0  0  0  0  0  0  0  0  0  0  0
   -0.4670   -1.6340    4.4170 O   0  0  0  0  0  0  0  0  0  0  0  0
    1.9730   -3.2370    5.9590 H   0  0  0  0  0  0  0  0  0  0  0  0
    1.9560   -1.5280    5.3000 H   0  0  0  0  0  0  0  0  0  0  0  0
    3.2780   -2.7200    4.8220 H   0  0  0  0  0  0  0  0  0  0  0  0
    0.8460   -3.9800    4.1670 H   0  0  0  0  0  0  0  0  0  0  0  0
    3.1770   -2.8720    2.9620 H   0  0  0  0  0  0  0  0  0  0  0  0
    2.3980   -4.3050    2.5680 H   0  0  0  0  0  0  0  0  0  0  0  0
    2.4500    2.8890    3.9790 N   0  0  0  0  0  0  0  0  0  0  0  0
    2.0040    3.1200    2.6600 C   0  0  0  0  0  0  0  0  0  0  0  0
    0.9450    3.8610    2.4430 N   0  0  0  0  0  0  0  0  0  0  0  0
    2.6660    2.5740    1.5340 N   0  0  0  0  0  0  0  0  0  0  0  0
    1.9560    2.0640    0.3870 C   0  0  0  0  0  0  0  0  0  0  0  0
    1.1910    0.8020    0.6300 C   0  0  0  0  0  0  0  0  0  0  0  0
    0.1330    0.8790    1.6740 C   0  0  0  0  0  0  0  0  0  0  0  0
   -0.6150   -0.3950    1.8930 C   0  0  2  0  0  0  0  0  0  0  0  0
    0.3370   -1.4160    2.2890 N   0  0  0  0  0  0  0  0  0  0  0  0
   -1.4540   -0.8530    0.7710 C   0  0  0  0  0  0  0  0  0  0  0  0
   -1.2530   -2.0020    0.3430 O   0  0  0  0  0  0  0  0  0  0  0  0
    3.2710    2.3000    4.2050 H   0  0  0  0  0  0  0  0  0  0  0  0
    1.9400    3.3240    4.7650 H   0  0  0  0  0  0  0  0  0  0  0  0
    0.4320    4.2790    3.2380 H   0  0  0  0  0  0  0  0  0  0  0  0
    3.7050    2.5410    1.5430 H   0  0  0  0  0  0  0  0  0  0  0  0
    1.2790    2.8740   -0.0010 H   0  0  0  0  0  0  0  0  0  0  0  0
    2.6610    1.8750   -0.4710 H   0  0  0  0  0  0  0  0  0  0  0  0
    1.9370   -0.0190    0.8420 H   0  0  0  0  0  0  0  0  0  0  0  0
    0.7220    0.5010   -0.3260 H   0  0  0  0  0  0  0  0  0  0  0  0
    0.6310    1.1010    2.6660 H   0  0  0  0  0  0  0  0  0  0  0  0
   -0.5760    1.7240    1.5150 H   0  0  0  0  0  0  0  0  0  0  0  0
   -1.2560   -0.2130    2.8150 H   0  0  0  0  0  0  0  0  0  0  0  0
    1.0330   -1.7030    1.5330 H   0  0  0  0  0  0  0  0  0  0  0  0
   -2.4670   -0.0650    0.1680 N   0  0  0  0  0  0  0  0  0  0  0  0
   -3.3390   -0.4820   -0.9090 C   0  0  1  0  0  0  0  0  0  0  0  0
   -2.9140   -0.1780   -2.2720 C   0  0  0  0  0  0  0  0  0  0  0  0
   -1.6400   -0.6720   -2.7840 C   0  0  0  0  0  0  0  0  0  0  0  0
   -0.4600    0.0780   -2.8760 C   0  0  0  0  0  0  0  0  0  0  0  0
    0.4680   -0.7200   -3.3710 N   0  0  0  0  0  0  0  0  0  0  0  0
   -0.0080   -1.9460   -3.6150 C   0  0  0  0  0  0  0  0  0  0  0  0
    0.5680   -3.1080   -4.1310 C   0  0  0  0  0  0  0  0  0  0  0  0
   -0.1900   -4.2500   -4.2810 C   0  0  0  0  0  0  0  0  0  0  0  0
   -1.5190   -4.2390   -3.9190 C   0  0  0  0  0  0  0  0  0  0  0  0
   -2.0880   -3.0970   -3.4110 C   0  0  0  0  0  0  0  0  0  0  0  0
   -1.3320   -1.9240   -3.2490 C   0  0  0  0  0  0  0  0  0  0  0  0
   -4.0230   -1.7530   -0.6270 C   0  0  0  0  0  0  0  0  0  0  0  0
   -4.8720   -2.3120   -1.3620 O   0  0  0  0  0  0  0  0  0  0  0  0
   -3.7300   -2.4220    0.5500 O   0  0  0  0  0  0  0  0  0  0  0  0
   -2.5310    0.9150    0.5990 H   0  0  0  0  0  0  0  0  0  0  0  0
   -4.2550    0.2630   -0.7570 H   0  0  0  0  0  0  0  0  0  0  0  0
   -2.8940    0.9520   -2.3850 H   0  0  0  0  0  0  0  0  0  0  0  0
   -3.6910   -0.4770   -3.0430 H   0  0  0  0  0  0  0  0  0  0  0  0
   -0.3620    1.1250   -2.5840 H   0  0  0  0  0  0  0  0  0  0  0  0
    1.4850   -0.4870   -3.5760 H   0  0  0  0  0  0  0  0  0  0  0  0
    1.6240   -3.0830   -4.4090 H   0  0  0  0  0  0  0  0  0  0  0  0
    0.2880   -5.1490   -4.6880 H   0  0  0  0  0  0  0  0  0  0  0  0
   -2.0940   -5.1450   -4.0450 H   0  0  0  0  0  0  0  0  0  0  0  0
   -3.1300   -3.0500   -3.1280 H   0  0  0  0  0  0  0  0  0  0  0  0
  1  7  1  0  0  0  0
  1  6  1  0  0  0  0
  2  9  1  1  0  0  0
  2  1  1  0  0  0  0
  3 10  1  0  0  0  0
  3  2  1  0  0  0  0
  4  2  1  0  0  0  0
  4  5  2  0  0  0  0
  8  1  1  0  0  0  0
 11  3  1  0  0  0  0
 12 23  1  0  0  0  0
 12 24  1  0  0  0  0
 13 12  1  0  0  0  0
 14 13  2  0  0  0  0
 14 25  1  0  0  0  0
 15 26  1  0  0  0  0
 15 13  1  0  0  0  0
 16 17  1  0  0  0  0
 16 15  1  0  0  0  0
 17 29  1  0  0  0  0
 17 18  1  0  0  0  0
 18 19  1  0  0  0  0
 18 31  1  0  0  0  0
 19 20  1  0  0  0  0
 19 33  1  1  0  0  0
 20  4  1  0  0  0  0
 21 19  1  0  0  0  0
 22 21  2  0  0  0  0
 27 16  1  0  0  0  0
 28 16  1  0  0  0  0
 30 17  1  0  0  0  0
 32 18  1  0  0  0  0
 34 20  1  0  0  0  0
 35 50  1  0  0  0  0
 35 21  1  0  0  0  0
 36 51  1  1  0  0  0
 36 47  1  0  0  0  0
 36 35  1  0  0  0  0
 37 36  1  0  0  0  0
 38 37  1  0  0  0  0
 39 38  2  0  0  0  0
 39 54  1  0  0  0  0
 40 39  1  0  0  0  0
 41 40  1  0  0  0  0
 41 46  1  0  0  0  0
 42 41  2  0  0  0  0
 43 42  1  0  0  0  0
 43 44  2  0  0  0  0
 44 45  1  0  0  0  0
 45 46  2  0  0  0  0
 45 59  1  0  0  0  0
 46 38  1  0  0  0  0
 47 49  1  0  0  0  0
 48 47  2  0  0  0  0
 52 37  1  0  0  0  0
 53 37  1  0  0  0  0
 55 40  1  0  0  0  0
 56 42  1  0  0  0  0
 57 43  1  0  0  0  0
 58 44  1  0  0  0  0
M  END
$$$$
