ASA.pdb
 OpenBabel07022418023D

 33 32  0  0  1  0  0  0  0  0999 V2000
   -1.3340   -1.1970    3.1870 C   0  0  0  0  0  0  0  0  0  0  0  0
    0.0480   -1.7010    3.5170 C   0  0  2  0  0  0  0  0  0  0  0  0
    0.3760   -1.2910    4.8600 N   0  0  0  0  0  0  0  0  0  0  0  0
    1.0510   -1.1250    2.5750 C   0  0  0  0  0  0  0  0  0  0  0  0
    2.0100   -0.4030    2.9540 O   0  0  0  0  0  0  0  0  0  0  0  0
   -1.2330   -0.1620    2.7840 H   0  0  0  0  0  0  0  0  0  0  0  0
   -2.0220   -1.2130    4.0420 H   0  0  0  0  0  0  0  0  0  0  0  0
   -1.7830   -1.8210    2.3630 H   0  0  0  0  0  0  0  0  0  0  0  0
    0.0840   -2.8090    3.4380 H   0  0  0  0  0  0  0  0  0  0  0  0
    0.6010   -2.0960    5.4820 H   0  0  0  0  0  0  0  0  0  0  0  0
   -0.3140   -0.6370    5.2810 H   0  0  0  0  0  0  0  0  0  0  0  0
    1.5810   -2.6540   -1.1340 O   0  0  0  0  0  0  0  0  0  0  0  0
    2.6000   -1.9760   -0.4490 C   0  0  0  0  0  0  0  0  0  0  0  0
    1.9420   -0.8110    0.2650 C   0  0  2  0  0  0  0  0  0  0  0  0
    0.9550   -1.3800    1.1710 N   0  0  0  0  0  0  0  0  0  0  0  0
    1.2790    0.0130   -0.7920 C   0  0  0  0  0  0  0  0  0  0  0  0
    1.9260    0.6010   -1.6870 O   0  0  0  0  0  0  0  0  0  0  0  0
    1.2180   -3.4120   -0.6090 H   0  0  0  0  0  0  0  0  0  0  0  0
    3.3660   -1.6350   -1.1610 H   0  0  0  0  0  0  0  0  0  0  0  0
    3.0650   -2.6780    0.3000 H   0  0  0  0  0  0  0  0  0  0  0  0
    2.6910   -0.2210    0.8140 H   0  0  0  0  0  0  0  0  0  0  0  0
    0.1690   -1.9770    0.8350 H   0  0  0  0  0  0  0  0  0  0  0  0
   -1.9230    0.1160   -2.4760 C   0  0  0  0  0  0  0  0  0  0  0  0
   -0.8650    0.9010   -1.7490 C   0  0  2  0  0  0  0  0  0  0  0  0
   -0.1250    0.1460   -0.7990 N   0  0  0  0  0  0  0  0  0  0  0  0
   -1.5400    2.0300   -1.0640 C   0  0  0  0  0  0  0  0  0  0  0  0
   -1.3990    2.1840    0.1630 O   0  0  0  0  0  0  0  0  0  0  0  0
   -2.3460    2.9480   -1.7580 O   0  0  0  0  0  0  0  0  0  0  0  0
   -2.9300    0.2220   -1.9760 H   0  0  0  0  0  0  0  0  0  0  0  0
   -2.0420    0.5550   -3.4830 H   0  0  0  0  0  0  0  0  0  0  0  0
   -1.7310   -0.9520   -2.5460 H   0  0  0  0  0  0  0  0  0  0  0  0
   -0.1540    1.3610   -2.4780 H   0  0  0  0  0  0  0  0  0  0  0  0
   -0.6850   -0.3490   -0.0410 H   0  0  0  0  0  0  0  0  0  0  0  0
  1  2  1  0  0  0  0
  1  7  1  0  0  0  0
  2  9  1  6  0  0  0
  2  3  1  0  0  0  0
  3 11  1  0  0  0  0
  3 10  1  0  0  0  0
  4  5  2  0  0  0  0
  4  2  1  0  0  0  0
  6  1  1  0  0  0  0
  8  1  1  0  0  0  0
 12 18  1  0  0  0  0
 12 13  1  0  0  0  0
 13 14  1  0  0  0  0
 13 20  1  0  0  0  0
 14 21  1  1  0  0  0
 14 15  1  0  0  0  0
 15  4  1  0  0  0  0
 16 14  1  0  0  0  0
 17 16  2  0  0  0  0
 19 13  1  0  0  0  0
 22 15  1  0  0  0  0
 23 29  1  0  0  0  0
 23 24  1  0  0  0  0
 24 32  1  6  0  0  0
 24 26  1  0  0  0  0
 24 25  1  0  0  0  0
 25 16  1  0  0  0  0
 25 33  1  0  0  0  0
 26 27  1  0  0  0  0
 28 26  2  0  0  0  0
 30 23  1  0  0  0  0
 31 23  1  0  0  0  0
M  END
$$$$
