ASC.pdb
 OpenBabel07022418023D

 34 33  0  0  1  0  0  0  0  0999 V2000
   -0.0340   -0.8340    3.3430 C   0  0  0  0  0  0  0  0  0  0  0  0
    0.2800   -2.2820    2.9970 C   0  0  2  0  0  0  0  0  0  0  0  0
    1.1020   -2.8710    4.0050 N   0  0  0  0  0  0  0  0  0  0  0  0
    0.8720   -2.3410    1.6390 C   0  0  0  0  0  0  0  0  0  0  0  0
    1.9710   -2.8450    1.3670 O   0  0  0  0  0  0  0  0  0  0  0  0
    0.8390   -0.1870    3.1720 H   0  0  0  0  0  0  0  0  0  0  0  0
   -0.3610   -0.7560    4.3930 H   0  0  0  0  0  0  0  0  0  0  0  0
   -0.8610   -0.4370    2.7200 H   0  0  0  0  0  0  0  0  0  0  0  0
   -0.6890   -2.8190    2.9510 H   0  0  0  0  0  0  0  0  0  0  0  0
    0.6820   -3.7000    4.4420 H   0  0  0  0  0  0  0  0  0  0  0  0
    2.1000   -2.9250    3.7810 H   0  0  0  0  0  0  0  0  0  0  0  0
   -0.4000   -3.8960   -1.0690 O   0  0  0  0  0  0  0  0  0  0  0  0
   -0.4190   -2.6130   -1.5940 C   0  0  0  0  0  0  0  0  0  0  0  0
    0.5580   -1.7560   -0.7930 C   0  0  2  0  0  0  0  0  0  0  0  0
    0.1050   -1.7700    0.5780 N   0  0  0  0  0  0  0  0  0  0  0  0
    0.5750   -0.3600   -1.2950 C   0  0  0  0  0  0  0  0  0  0  0  0
    0.9380   -0.1000   -2.4740 O   0  0  0  0  0  0  0  0  0  0  0  0
   -0.9530   -3.9710   -0.2500 H   0  0  0  0  0  0  0  0  0  0  0  0
   -1.4510   -2.2100   -1.4640 H   0  0  0  0  0  0  0  0  0  0  0  0
   -0.1310   -2.6820   -2.6550 H   0  0  0  0  0  0  0  0  0  0  0  0
    1.5590   -2.2410   -0.9030 H   0  0  0  0  0  0  0  0  0  0  0  0
   -0.8240   -1.3360    0.7700 H   0  0  0  0  0  0  0  0  0  0  0  0
    0.1910    0.7590   -0.4960 N   0  0  0  0  0  0  0  0  0  0  0  0
    0.2080    2.1220   -0.9900 C   0  0  1  0  0  0  0  0  0  0  0  0
   -1.2320    2.6150   -0.9870 C   0  0  0  0  0  0  0  0  0  0  0  0
   -1.9270    2.5690    0.6930 S   0  0  0  0  0  0  0  0  0  0  0  0
    1.0680    2.9850   -0.1400 C   0  0  0  0  0  0  0  0  0  0  0  0
    1.2420    4.1960   -0.3610 O   0  0  0  0  0  0  0  0  0  0  0  0
    1.7010    2.3990    0.9520 O   0  0  0  0  0  0  0  0  0  0  0  0
   -0.1100    0.5520    0.4790 H   0  0  0  0  0  0  0  0  0  0  0  0
    0.5490    2.1570   -2.0300 H   0  0  0  0  0  0  0  0  0  0  0  0
   -1.8580    1.9380   -1.6020 H   0  0  0  0  0  0  0  0  0  0  0  0
   -1.3170    3.6340   -1.4030 H   0  0  0  0  0  0  0  0  0  0  0  0
   -2.6400    1.3640    0.9030 H   0  0  0  0  0  0  0  0  0  0  0  0
  1  7  1  0  0  0  0
  2  9  1  6  0  0  0
  2  1  1  0  0  0  0
  2  3  1  0  0  0  0
  3 10  1  0  0  0  0
  4  2  1  0  0  0  0
  5  4  2  0  0  0  0
  6  1  1  0  0  0  0
  8  1  1  0  0  0  0
 11  3  1  0  0  0  0
 12 18  1  0  0  0  0
 13 19  1  0  0  0  0
 13 12  1  0  0  0  0
 13 14  1  0  0  0  0
 14 21  1  6  0  0  0
 14 15  1  0  0  0  0
 15 22  1  0  0  0  0
 15  4  1  0  0  0  0
 16 14  1  0  0  0  0
 16 23  1  0  0  0  0
 17 16  2  0  0  0  0
 20 13  1  0  0  0  0
 23 30  1  0  0  0  0
 24 31  1  6  0  0  0
 24 25  1  0  0  0  0
 24 23  1  0  0  0  0
 24 27  1  0  0  0  0
 25 26  1  0  0  0  0
 26 34  1  0  0  0  0
 27 29  1  0  0  0  0
 28 27  2  0  0  0  0
 32 25  1  0  0  0  0
 33 25  1  0  0  0  0
M  END
$$$$
