ASD.pdb
 OpenBabel07022418023D

 36 35  0  0  1  0  0  0  0  0999 V2000
   -1.3210   -2.4850    2.7350 C   0  0  0  0  0  0  0  0  0  0  0  0
   -0.3240   -1.9770    3.7420 C   0  0  2  0  0  0  0  0  0  0  0  0
   -0.9720   -1.8520    5.0190 N   0  0  0  0  0  0  0  0  0  0  0  0
    0.3350   -0.7190    3.3130 C   0  0  0  0  0  0  0  0  0  0  0  0
    0.3160    0.3180    3.9990 O   0  0  0  0  0  0  0  0  0  0  0  0
   -0.8610   -3.1890    2.0000 H   0  0  0  0  0  0  0  0  0  0  0  0
   -2.0870   -3.0710    3.2910 H   0  0  0  0  0  0  0  0  0  0  0  0
   -1.8790   -1.6630    2.2320 H   0  0  0  0  0  0  0  0  0  0  0  0
    0.4650   -2.7600    3.8400 H   0  0  0  0  0  0  0  0  0  0  0  0
   -0.8710   -0.9250    5.4530 H   0  0  0  0  0  0  0  0  0  0  0  0
   -1.9630   -2.1600    4.9810 H   0  0  0  0  0  0  0  0  0  0  0  0
    3.9110    1.0930    0.8650 O   0  0  0  0  0  0  0  0  0  0  0  0
    3.1520    0.0510    1.3880 C   0  0  0  0  0  0  0  0  0  0  0  0
    1.6920    0.4300    1.5250 C   0  0  2  0  0  0  0  0  0  0  0  0
    1.0090   -0.7150    2.0700 N   0  0  0  0  0  0  0  0  0  0  0  0
    1.1460    0.8210    0.1940 C   0  0  0  0  0  0  0  0  0  0  0  0
    1.6180    1.8010   -0.4380 O   0  0  0  0  0  0  0  0  0  0  0  0
    4.2610    0.8760   -0.0570 H   0  0  0  0  0  0  0  0  0  0  0  0
    3.5140   -0.2790    2.3840 H   0  0  0  0  0  0  0  0  0  0  0  0
    3.2480   -0.8120    0.6970 H   0  0  0  0  0  0  0  0  0  0  0  0
    1.6130    1.3000    2.2180 H   0  0  0  0  0  0  0  0  0  0  0  0
    1.0270   -1.5970    1.4820 H   0  0  0  0  0  0  0  0  0  0  0  0
    0.0770    0.1180   -0.4240 N   0  0  0  0  0  0  0  0  0  0  0  0
   -0.4690    0.4840   -1.7210 C   0  0  1  0  0  0  0  0  0  0  0  0
   -0.3930   -0.7420   -2.5990 C   0  0  0  0  0  0  0  0  0  0  0  0
    1.0000   -1.2210   -2.7690 C   0  0  0  0  0  0  0  0  0  0  0  0
    2.0010   -0.6820   -2.2510 O   0  0  0  0  0  0  0  0  0  0  0  0
   -1.9340    0.7550   -1.5130 C   0  0  0  0  0  0  0  0  0  0  0  0
   -2.4810    0.6520   -0.3850 O   0  0  0  0  0  0  0  0  0  0  0  0
    1.2230   -2.3440   -3.5540 O   0  0  0  0  0  0  0  0  0  0  0  0
   -2.7450    1.1330   -2.5740 O   0  0  0  0  0  0  0  0  0  0  0  0
   -0.3200   -0.6980    0.0960 H   0  0  0  0  0  0  0  0  0  0  0  0
    0.0500    1.3440   -2.1360 H   0  0  0  0  0  0  0  0  0  0  0  0
   -0.7610   -0.4650   -3.6220 H   0  0  0  0  0  0  0  0  0  0  0  0
   -1.0800   -1.5260   -2.2240 H   0  0  0  0  0  0  0  0  0  0  0  0
    1.9420   -3.0220   -3.3660 H   0  0  0  0  0  0  0  0  0  0  0  0
  1  7  1  0  0  0  0
  1  2  1  0  0  0  0
  2  9  1  1  0  0  0
  2  3  1  0  0  0  0
  3 10  1  0  0  0  0
  4  2  1  0  0  0  0
  4  5  2  0  0  0  0
  6  1  1  0  0  0  0
  8  1  1  0  0  0  0
 11  3  1  0  0  0  0
 12 13  1  0  0  0  0
 13 14  1  0  0  0  0
 13 19  1  0  0  0  0
 14 15  1  0  0  0  0
 14 21  1  1  0  0  0
 15  4  1  0  0  0  0
 16 14  1  0  0  0  0
 17 16  2  0  0  0  0
 18 12  1  0  0  0  0
 20 13  1  0  0  0  0
 22 15  1  0  0  0  0
 23 32  1  0  0  0  0
 23 16  1  0  0  0  0
 24 33  1  6  0  0  0
 24 28  1  0  0  0  0
 24 23  1  0  0  0  0
 25 35  1  0  0  0  0
 25 24  1  0  0  0  0
 26 25  1  0  0  0  0
 26 27  2  0  0  0  0
 28 29  1  0  0  0  0
 30 36  1  0  0  0  0
 30 26  1  0  0  0  0
 31 28  2  0  0  0  0
 34 25  1  0  0  0  0
M  END
$$$$
