ASG.pdb
 OpenBabel07022418023D

 30 29  0  0  1  0  0  0  0  0999 V2000
   -2.9460   -3.0410    1.7030 C   0  0  0  0  0  0  0  0  0  0  0  0
   -1.8320   -2.9730    2.7200 C   0  0  2  0  0  0  0  0  0  0  0  0
   -2.4220   -2.7720    4.0120 N   0  0  0  0  0  0  0  0  0  0  0  0
   -0.8670   -1.8910    2.4280 C   0  0  0  0  0  0  0  0  0  0  0  0
   -0.6750   -0.9660    3.2880 O   0  0  0  0  0  0  0  0  0  0  0  0
   -3.5020   -2.0800    1.7280 H   0  0  0  0  0  0  0  0  0  0  0  0
   -2.5930   -3.2890    0.6920 H   0  0  0  0  0  0  0  0  0  0  0  0
   -3.6580   -3.8210    2.0690 H   0  0  0  0  0  0  0  0  0  0  0  0
   -1.3420   -3.9840    2.7390 H   0  0  0  0  0  0  0  0  0  0  0  0
   -3.4440   -2.5990    3.9720 H   0  0  0  0  0  0  0  0  0  0  0  0
   -1.9060   -2.0290    4.5420 H   0  0  0  0  0  0  0  0  0  0  0  0
    3.2030   -0.4190    0.6690 O   0  0  0  0  0  0  0  0  0  0  0  0
    2.2140   -1.3550    0.9090 C   0  0  0  0  0  0  0  0  0  0  0  0
    0.8330   -0.7100    0.9790 C   0  0  2  0  0  0  0  0  0  0  0  0
   -0.1180   -1.7990    1.2380 N   0  0  0  0  0  0  0  0  0  0  0  0
    0.5040   -0.0250   -0.2910 C   0  0  0  0  0  0  0  0  0  0  0  0
   -0.4660   -0.4010   -1.0010 O   0  0  0  0  0  0  0  0  0  0  0  0
    3.9170   -0.8050    0.1150 H   0  0  0  0  0  0  0  0  0  0  0  0
    2.4180   -1.9380    1.8290 H   0  0  0  0  0  0  0  0  0  0  0  0
    2.2590   -2.0890    0.0670 H   0  0  0  0  0  0  0  0  0  0  0  0
    0.8590   -0.0090    1.8370 H   0  0  0  0  0  0  0  0  0  0  0  0
   -0.2490   -2.5370    0.5140 H   0  0  0  0  0  0  0  0  0  0  0  0
    1.2430    1.0810   -0.7890 N   0  0  0  0  0  0  0  0  0  0  0  0
    0.9250    1.7510   -2.0270 C   0  0  0  0  0  0  0  0  0  0  0  0
    1.8920    2.8490   -2.2350 C   0  0  0  0  0  0  0  0  0  0  0  0
    1.8390    3.6010   -3.2540 O   0  0  0  0  0  0  0  0  0  0  0  0
    2.8870    3.0770   -1.3030 O   0  0  0  0  0  0  0  0  0  0  0  0
    2.0470    1.3990   -0.2020 H   0  0  0  0  0  0  0  0  0  0  0  0
   -0.0940    2.2110   -1.8750 H   0  0  0  0  0  0  0  0  0  0  0  0
    0.8950    1.0530   -2.8930 H   0  0  0  0  0  0  0  0  0  0  0  0
  1  6  1  0  0  0  0
  1  8  1  0  0  0  0
  1  2  1  0  0  0  0
  2  9  1  1  0  0  0
  2  3  1  0  0  0  0
  3 11  1  0  0  0  0
  4  2  1  0  0  0  0
  4  5  2  0  0  0  0
  7  1  1  0  0  0  0
 10  3  1  0  0  0  0
 12 13  1  0  0  0  0
 13 14  1  0  0  0  0
 13 19  1  0  0  0  0
 14 15  1  0  0  0  0
 14 21  1  1  0  0  0
 15  4  1  0  0  0  0
 16 14  1  0  0  0  0
 17 16  2  0  0  0  0
 18 12  1  0  0  0  0
 20 13  1  0  0  0  0
 22 15  1  0  0  0  0
 23 16  1  0  0  0  0
 23 28  1  0  0  0  0
 24 29  1  0  0  0  0
 24 23  1  0  0  0  0
 25 24  1  0  0  0  0
 25 27  1  0  0  0  0
 26 25  2  0  0  0  0
 30 24  1  0  0  0  0
M  END
$$$$
