ASK.pdb
 OpenBabel07022418023D

 44 43  0  0  1  0  0  0  0  0999 V2000
   -2.6260   -5.1660   -1.4360 C   0  0  0  0  0  0  0  0  0  0  0  0
   -2.5550   -3.8060   -0.7550 C   0  0  2  0  0  0  0  0  0  0  0  0
   -2.4630   -2.7750   -1.7480 N   0  0  0  0  0  0  0  0  0  0  0  0
   -1.3280   -3.8340    0.1160 C   0  0  0  0  0  0  0  0  0  0  0  0
   -1.2320   -4.6760    1.0450 O   0  0  0  0  0  0  0  0  0  0  0  0
   -3.6590   -5.5710   -1.4190 H   0  0  0  0  0  0  0  0  0  0  0  0
   -2.2330   -5.0430   -2.4700 H   0  0  0  0  0  0  0  0  0  0  0  0
   -1.9810   -5.9060   -0.9190 H   0  0  0  0  0  0  0  0  0  0  0  0
   -3.4790   -3.7150   -0.1520 H   0  0  0  0  0  0  0  0  0  0  0  0
   -2.5670   -1.8570   -1.2870 H   0  0  0  0  0  0  0  0  0  0  0  0
   -1.5760   -2.8920   -2.2810 H   0  0  0  0  0  0  0  0  0  0  0  0
    3.2790   -3.4120    0.8190 O   0  0  0  0  0  0  0  0  0  0  0  0
    2.1590   -3.3530   -0.0020 C   0  0  0  0  0  0  0  0  0  0  0  0
    0.9100   -2.9920    0.7900 C   0  0  2  0  0  0  0  0  0  0  0  0
   -0.2510   -2.9320   -0.0690 N   0  0  0  0  0  0  0  0  0  0  0  0
    1.1030   -1.7360    1.5540 C   0  0  0  0  0  0  0  0  0  0  0  0
    2.0780   -1.6740    2.3300 O   0  0  0  0  0  0  0  0  0  0  0  0
    3.2130   -4.2230    1.3860 H   0  0  0  0  0  0  0  0  0  0  0  0
    2.3580   -2.6460   -0.8190 H   0  0  0  0  0  0  0  0  0  0  0  0
    1.9830   -4.3780   -0.3950 H   0  0  0  0  0  0  0  0  0  0  0  0
    0.7850   -3.8070    1.5400 H   0  0  0  0  0  0  0  0  0  0  0  0
   -0.2980   -2.2240   -0.8270 H   0  0  0  0  0  0  0  0  0  0  0  0
    0.2490   -0.6110    1.4520 N   0  0  0  0  0  0  0  0  0  0  0  0
    0.4340    0.6260    2.2000 C   0  0  1  0  0  0  0  0  0  0  0  0
    0.5740    1.8110    1.3400 C   0  0  0  0  0  0  0  0  0  0  0  0
    0.7760    3.0760    2.1150 C   0  0  0  0  0  0  0  0  0  0  0  0
    0.9560    4.2770    1.1960 C   0  0  0  0  0  0  0  0  0  0  0  0
    2.1290    4.1510    0.2890 C   0  0  0  0  0  0  0  0  0  0  0  0
    3.3870    4.0120    0.9950 N   0  0  0  0  0  0  0  0  0  0  0  0
   -0.7250    0.7840    3.0990 C   0  0  0  0  0  0  0  0  0  0  0  0
   -1.6650   -0.0850    2.9870 O   0  0  0  0  0  0  0  0  0  0  0  0
   -0.8980    1.7690    4.0490 O   0  0  0  0  0  0  0  0  0  0  0  0
   -0.5530   -0.7030    0.7930 H   0  0  0  0  0  0  0  0  0  0  0  0
    1.3370    0.5560    2.8580 H   0  0  0  0  0  0  0  0  0  0  0  0
   -0.3760    1.9030    0.7300 H   0  0  0  0  0  0  0  0  0  0  0  0
    1.3740    1.7620    0.5800 H   0  0  0  0  0  0  0  0  0  0  0  0
    1.5860    2.9970    2.8510 H   0  0  0  0  0  0  0  0  0  0  0  0
   -0.1520    3.3540    2.7010 H   0  0  0  0  0  0  0  0  0  0  0  0
    1.0880    5.1540    1.8380 H   0  0  0  0  0  0  0  0  0  0  0  0
    0.0490    4.4090    0.6110 H   0  0  0  0  0  0  0  0  0  0  0  0
    1.9530    3.3990   -0.4780 H   0  0  0  0  0  0  0  0  0  0  0  0
    2.2140    5.1330   -0.2640 H   0  0  0  0  0  0  0  0  0  0  0  0
    3.2980    3.9990    2.0170 H   0  0  0  0  0  0  0  0  0  0  0  0
    3.9850    3.2820    0.5840 H   0  0  0  0  0  0  0  0  0  0  0  0
  1  6  1  0  0  0  0
  1  8  1  0  0  0  0
  1  2  1  0  0  0  0
  2  9  1  1  0  0  0
  2  4  1  0  0  0  0
  3 10  1  0  0  0  0
  3  2  1  0  0  0  0
  4  5  2  0  0  0  0
  7  1  1  0  0  0  0
 11  3  1  0  0  0  0
 12 18  1  0  0  0  0
 13 14  1  0  0  0  0
 13 12  1  0  0  0  0
 14 21  1  1  0  0  0
 14 16  1  0  0  0  0
 15  4  1  0  0  0  0
 15 14  1  0  0  0  0
 16 17  2  0  0  0  0
 19 13  1  0  0  0  0
 20 13  1  0  0  0  0
 22 15  1  0  0  0  0
 23 16  1  0  0  0  0
 23 24  1  0  0  0  0
 24 34  1  1  0  0  0
 24 30  1  0  0  0  0
 25 26  1  0  0  0  0
 25 24  1  0  0  0  0
 26 38  1  0  0  0  0
 26 37  1  0  0  0  0
 27 39  1  0  0  0  0
 27 26  1  0  0  0  0
 28 29  1  0  0  0  0
 28 27  1  0  0  0  0
 29 43  1  0  0  0  0
 30 32  1  0  0  0  0
 31 30  2  0  0  0  0
 33 23  1  0  0  0  0
 35 25  1  0  0  0  0
 36 25  1  0  0  0  0
 40 27  1  0  0  0  0
 41 28  1  0  0  0  0
 42 28  1  0  0  0  0
 44 29  1  0  0  0  0
M  END
$$$$
