ASM.pdb
 OpenBabel07022418023D

 40 39  0  0  1  0  0  0  0  0999 V2000
   -2.4680   -4.5860    1.6940 C   0  0  0  0  0  0  0  0  0  0  0  0
   -2.0940   -3.1900    1.3200 C   0  0  2  0  0  0  0  0  0  0  0  0
   -1.6900   -3.1570   -0.0870 N   0  0  0  0  0  0  0  0  0  0  0  0
   -0.9200   -2.7500    2.1270 C   0  0  0  0  0  0  0  0  0  0  0  0
   -1.0300   -2.6990    3.3790 O   0  0  0  0  0  0  0  0  0  0  0  0
   -1.5520   -5.1610    1.9400 H   0  0  0  0  0  0  0  0  0  0  0  0
   -2.9110   -5.1040    0.7940 H   0  0  0  0  0  0  0  0  0  0  0  0
   -3.2410   -4.6550    2.4820 H   0  0  0  0  0  0  0  0  0  0  0  0
   -2.9720   -2.5420    1.4970 H   0  0  0  0  0  0  0  0  0  0  0  0
   -0.9120   -3.8270   -0.2520 H   0  0  0  0  0  0  0  0  0  0  0  0
   -1.4060   -2.1940   -0.3300 H   0  0  0  0  0  0  0  0  0  0  0  0
    3.6450   -2.4610    3.0830 O   0  0  0  0  0  0  0  0  0  0  0  0
    2.6060   -2.8750    2.2690 C   0  0  0  0  0  0  0  0  0  0  0  0
    1.3990   -1.9720    2.3930 C   0  0  2  0  0  0  0  0  0  0  0  0
    0.3130   -2.3860    1.5570 N   0  0  0  0  0  0  0  0  0  0  0  0
    1.7780   -0.5370    2.1310 C   0  0  0  0  0  0  0  0  0  0  0  0
    2.7150   -0.0130    2.7810 O   0  0  0  0  0  0  0  0  0  0  0  0
    4.3840   -3.1170    2.9590 H   0  0  0  0  0  0  0  0  0  0  0  0
    2.3160   -3.8930    2.5990 H   0  0  0  0  0  0  0  0  0  0  0  0
    2.9780   -2.9670    1.2430 H   0  0  0  0  0  0  0  0  0  0  0  0
    1.0750   -2.0110    3.4480 H   0  0  0  0  0  0  0  0  0  0  0  0
    0.4330   -2.4180    0.5340 H   0  0  0  0  0  0  0  0  0  0  0  0
   -0.4170    4.0770   -1.9920 C   0  0  0  0  0  0  0  0  0  0  0  0
   -0.5710    2.3390   -1.6020 S   0  0  0  0  0  0  0  0  0  0  0  0
    0.9780    1.4570   -1.5850 C   0  0  0  0  0  0  0  0  0  0  0  0
    1.9330    1.8330   -0.5130 C   0  0  0  0  0  0  0  0  0  0  0  0
    1.4430    1.6340    0.8880 C   0  0  2  0  0  0  0  0  0  0  0  0
    1.1050    0.2490    1.1650 N   0  0  0  0  0  0  0  0  0  0  0  0
    0.2970    2.4940    1.2620 C   0  0  0  0  0  0  0  0  0  0  0  0
    0.2910    3.7460    1.1490 O   0  0  0  0  0  0  0  0  0  0  0  0
   -0.8530    1.9120    1.7720 O   0  0  0  0  0  0  0  0  0  0  0  0
    0.3950    4.5910   -1.4670 H   0  0  0  0  0  0  0  0  0  0  0  0
   -1.4000    4.5690   -1.7370 H   0  0  0  0  0  0  0  0  0  0  0  0
   -0.3020    4.1890   -3.0900 H   0  0  0  0  0  0  0  0  0  0  0  0
    1.4890    1.6310   -2.5620 H   0  0  0  0  0  0  0  0  0  0  0  0
    0.7840    0.3620   -1.5520 H   0  0  0  0  0  0  0  0  0  0  0  0
    2.8560    1.2620   -0.6390 H   0  0  0  0  0  0  0  0  0  0  0  0
    2.1680    2.9260   -0.6190 H   0  0  0  0  0  0  0  0  0  0  0  0
    2.2980    1.9520    1.5560 H   0  0  0  0  0  0  0  0  0  0  0  0
    0.3310   -0.2200    0.6430 H   0  0  0  0  0  0  0  0  0  0  0  0
  1  6  1  0  0  0  0
  1  8  1  0  0  0  0
  2  9  1  1  0  0  0
  2  1  1  0  0  0  0
  2  4  1  0  0  0  0
  3  2  1  0  0  0  0
  4  5  2  0  0  0  0
  7  1  1  0  0  0  0
 10  3  1  0  0  0  0
 11  3  1  0  0  0  0
 13 14  1  0  0  0  0
 13 19  1  0  0  0  0
 13 12  1  0  0  0  0
 14 21  1  1  0  0  0
 15  4  1  0  0  0  0
 15 14  1  0  0  0  0
 16 14  1  0  0  0  0
 16 17  2  0  0  0  0
 18 12  1  0  0  0  0
 20 13  1  0  0  0  0
 22 15  1  0  0  0  0
 23 33  1  0  0  0  0
 23 24  1  0  0  0  0
 23 32  1  0  0  0  0
 24 25  1  0  0  0  0
 25 36  1  0  0  0  0
 25 26  1  0  0  0  0
 26 27  1  0  0  0  0
 27 28  1  0  0  0  0
 27 29  1  0  0  0  0
 27 39  1  1  0  0  0
 28 16  1  0  0  0  0
 29 31  1  0  0  0  0
 30 29  2  0  0  0  0
 34 23  1  0  0  0  0
 35 25  1  0  0  0  0
 37 26  1  0  0  0  0
 38 26  1  0  0  0  0
 40 28  1  0  0  0  0
M  END
$$$$
