ASN.pdb
 OpenBabel07022418023D

 37 36  0  0  1  0  0  0  0  0999 V2000
   -1.3880   -3.8510    0.1860 C   0  0  0  0  0  0  0  0  0  0  0  0
   -0.3930   -4.3520    1.1760 C   0  0  2  0  0  0  0  0  0  0  0  0
   -1.0040   -5.2740    2.1430 N   0  0  0  0  0  0  0  0  0  0  0  0
    0.3840   -3.3080    1.8690 C   0  0  0  0  0  0  0  0  0  0  0  0
    0.4350   -3.3730    3.1430 O   0  0  0  0  0  0  0  0  0  0  0  0
   -1.1570   -4.2500   -0.8250 H   0  0  0  0  0  0  0  0  0  0  0  0
   -2.4010   -4.2200    0.5240 H   0  0  0  0  0  0  0  0  0  0  0  0
   -1.3820   -2.7470    0.1430 H   0  0  0  0  0  0  0  0  0  0  0  0
    0.3530   -4.9960    0.6350 H   0  0  0  0  0  0  0  0  0  0  0  0
   -0.8240   -4.9880    3.1280 H   0  0  0  0  0  0  0  0  0  0  0  0
   -2.0370   -5.2540    1.9780 H   0  0  0  0  0  0  0  0  0  0  0  0
    3.9880   -0.5370    2.4630 O   0  0  0  0  0  0  0  0  0  0  0  0
    3.2990   -1.4630    1.7160 C   0  0  0  0  0  0  0  0  0  0  0  0
    1.7990   -1.2940    1.9740 C   0  0  2  0  0  0  0  0  0  0  0  0
    1.0600   -2.2610    1.1970 N   0  0  0  0  0  0  0  0  0  0  0  0
    1.3880    0.1110    1.6990 C   0  0  0  0  0  0  0  0  0  0  0  0
    1.9650    1.0440    2.3360 O   0  0  0  0  0  0  0  0  0  0  0  0
    4.2030    0.2990    1.9450 H   0  0  0  0  0  0  0  0  0  0  0  0
    3.5510   -2.4760    2.0640 H   0  0  0  0  0  0  0  0  0  0  0  0
    3.5150   -1.4320    0.6310 H   0  0  0  0  0  0  0  0  0  0  0  0
    1.6570   -1.5290    3.0440 H   0  0  0  0  0  0  0  0  0  0  0  0
    1.0120   -2.2090    0.1620 H   0  0  0  0  0  0  0  0  0  0  0  0
   -1.1480    3.9720   -2.2500 N   0  0  0  0  0  0  0  0  0  0  0  0
   -0.2210    3.6180   -1.2380 C   0  0  0  0  0  0  0  0  0  0  0  0
    0.2860    4.5380   -0.5520 O   0  0  0  0  0  0  0  0  0  0  0  0
    0.1700    2.2150   -0.9570 C   0  0  0  0  0  0  0  0  0  0  0  0
    0.0070    1.8470    0.5040 C   0  0  2  0  0  0  0  0  0  0  0  0
    0.3890    0.4830    0.7640 N   0  0  0  0  0  0  0  0  0  0  0  0
   -1.4250    2.0440    0.8240 C   0  0  0  0  0  0  0  0  0  0  0  0
   -2.0870    1.0770    1.2670 O   0  0  0  0  0  0  0  0  0  0  0  0
   -2.0220    3.3130    0.6250 O   0  0  0  0  0  0  0  0  0  0  0  0
   -1.3290    3.3290   -3.0400 H   0  0  0  0  0  0  0  0  0  0  0  0
   -1.6550    4.8710   -2.2120 H   0  0  0  0  0  0  0  0  0  0  0  0
    1.2920    2.1870   -1.1390 H   0  0  0  0  0  0  0  0  0  0  0  0
   -0.2820    1.5290   -1.6620 H   0  0  0  0  0  0  0  0  0  0  0  0
    0.5880    2.5540    1.1320 H   0  0  0  0  0  0  0  0  0  0  0  0
   -0.0750   -0.3020    0.2560 H   0  0  0  0  0  0  0  0  0  0  0  0
  1  7  1  0  0  0  0
  1  2  1  0  0  0  0
  2  9  1  6  0  0  0
  2  4  1  0  0  0  0
  2  3  1  0  0  0  0
  3 10  1  0  0  0  0
  4  5  2  0  0  0  0
  6  1  1  0  0  0  0
  8  1  1  0  0  0  0
 11  3  1  0  0  0  0
 13 14  1  0  0  0  0
 13 19  1  0  0  0  0
 13 12  1  0  0  0  0
 14 21  1  1  0  0  0
 15  4  1  0  0  0  0
 15 14  1  0  0  0  0
 16 14  1  0  0  0  0
 16 17  2  0  0  0  0
 18 12  1  0  0  0  0
 20 13  1  0  0  0  0
 22 15  1  0  0  0  0
 23 33  1  0  0  0  0
 23 24  1  0  0  0  0
 24 26  1  0  0  0  0
 24 25  2  0  0  0  0
 26 27  1  0  0  0  0
 27 28  1  0  0  0  0
 27 29  1  0  0  0  0
 27 36  1  1  0  0  0
 28 16  1  0  0  0  0
 29 30  1  0  0  0  0
 31 29  2  0  0  0  0
 32 23  1  0  0  0  0
 34 26  1  0  0  0  0
 35 26  1  0  0  0  0
 37 28  1  0  0  0  0
M  END
$$$$
