ASP.pdb
 OpenBabel07022418023D

 37 37  0  0  1  0  0  0  0  0999 V2000
   -1.1430   -1.3290    3.2720 C   0  0  0  0  0  0  0  0  0  0  0  0
   -0.3410   -2.5560    3.0260 C   0  0  2  0  0  0  0  0  0  0  0  0
    0.2670   -3.0880    4.2340 N   0  0  0  0  0  0  0  0  0  0  0  0
    0.6870   -2.3860    1.9990 C   0  0  0  0  0  0  0  0  0  0  0  0
    1.8960   -2.6960    2.2360 O   0  0  0  0  0  0  0  0  0  0  0  0
   -0.5390   -0.4940    3.7140 H   0  0  0  0  0  0  0  0  0  0  0  0
   -1.6170   -0.9690    2.3400 H   0  0  0  0  0  0  0  0  0  0  0  0
   -1.9770   -1.5200    3.9810 H   0  0  0  0  0  0  0  0  0  0  0  0
   -1.0610   -3.3540    2.6760 H   0  0  0  0  0  0  0  0  0  0  0  0
   -0.3980   -3.5670    4.8500 H   0  0  0  0  0  0  0  0  0  0  0  0
    1.1460   -3.6020    4.0390 H   0  0  0  0  0  0  0  0  0  0  0  0
   -0.0800   -2.6130   -1.9200 O   0  0  0  0  0  0  0  0  0  0  0  0
    1.1670   -2.8180   -1.3710 C   0  0  0  0  0  0  0  0  0  0  0  0
    1.4280   -1.7400   -0.2970 C   0  0  2  0  0  0  0  0  0  0  0  0
    0.4180   -1.8760    0.6860 N   0  0  0  0  0  0  0  0  0  0  0  0
    1.5770   -0.4380   -0.8970 C   0  0  0  0  0  0  0  0  0  0  0  0
    2.3870   -0.3320   -1.8940 O   0  0  0  0  0  0  0  0  0  0  0  0
   -0.4310   -3.5010   -2.2020 H   0  0  0  0  0  0  0  0  0  0  0  0
    1.9890   -2.8270   -2.1040 H   0  0  0  0  0  0  0  0  0  0  0  0
    1.1530   -3.7850   -0.8280 H   0  0  0  0  0  0  0  0  0  0  0  0
    2.4430   -2.0290    0.1420 H   0  0  0  0  0  0  0  0  0  0  0  0
   -0.5790   -1.6190    0.4780 H   0  0  0  0  0  0  0  0  0  0  0  0
    0.9220    0.7480   -0.5050 N   0  0  0  0  0  0  0  0  0  0  0  0
    1.0810    2.0290   -1.2330 C   0  0  0  0  0  0  0  0  0  0  0  0
    0.5310    3.1070   -0.3480 C   0  0  0  0  0  0  0  0  0  0  0  0
    0.5150    2.4490    1.0110 C   0  0  0  0  0  0  0  0  0  0  0  0
    0.0380    1.0430    0.5930 C   0  0  1  0  0  0  0  0  0  0  0  0
   -1.3360    1.1430    0.0840 C   0  0  0  0  0  0  0  0  0  0  0  0
   -1.6010    0.9780   -1.1460 O   0  0  0  0  0  0  0  0  0  0  0  0
   -2.4340    1.4210    0.8990 O   0  0  0  0  0  0  0  0  0  0  0  0
    2.1330    2.2190   -1.4770 H   0  0  0  0  0  0  0  0  0  0  0  0
    0.4340    1.9800   -2.1350 H   0  0  0  0  0  0  0  0  0  0  0  0
    1.1530    4.0270   -0.3620 H   0  0  0  0  0  0  0  0  0  0  0  0
   -0.5350    3.3650   -0.5840 H   0  0  0  0  0  0  0  0  0  0  0  0
   -0.1890    2.9190    1.7090 H   0  0  0  0  0  0  0  0  0  0  0  0
    1.5460    2.3740    1.3660 H   0  0  0  0  0  0  0  0  0  0  0  0
    0.1750    0.3540    1.4480 H   0  0  0  0  0  0  0  0  0  0  0  0
  1  6  1  0  0  0  0
  1  8  1  0  0  0  0
  2  9  1  6  0  0  0
  2  1  1  0  0  0  0
  2  3  1  0  0  0  0
  3 10  1  0  0  0  0
  4  5  2  0  0  0  0
  4  2  1  0  0  0  0
  7  1  1  0  0  0  0
 11  3  1  0  0  0  0
 12 13  1  0  0  0  0
 13 20  1  0  0  0  0
 13 14  1  0  0  0  0
 14 21  1  1  0  0  0
 14 15  1  0  0  0  0
 15  4  1  0  0  0  0
 16 23  1  0  0  0  0
 16 14  1  0  0  0  0
 17 16  2  0  0  0  0
 18 12  1  0  0  0  0
 19 13  1  0  0  0  0
 22 15  1  0  0  0  0
 23 27  1  0  0  0  0
 24 23  1  0  0  0  0
 24 25  1  0  0  0  0
 25 26  1  0  0  0  0
 26 36  1  0  0  0  0
 26 35  1  0  0  0  0
 27 26  1  0  0  0  0
 27 37  1  1  0  0  0
 28 27  1  0  0  0  0
 28 30  1  0  0  0  0
 29 28  2  0  0  0  0
 31 24  1  0  0  0  0
 32 24  1  0  0  0  0
 33 25  1  0  0  0  0
 34 25  1  0  0  0  0
M  END
$$$$
