ASR.pdb
 OpenBabel07022418023D

 46 45  0  0  1  0  0  0  0  0999 V2000
    3.6100   -1.1340   -2.8810 C   0  0  0  0  0  0  0  0  0  0  0  0
    2.6540   -0.4780   -1.9110 C   0  0  2  0  0  0  0  0  0  0  0  0
    3.0730   -0.6430   -0.5380 N   0  0  0  0  0  0  0  0  0  0  0  0
    1.2640   -0.9900   -2.0830 C   0  0  0  0  0  0  0  0  0  0  0  0
    0.6690   -0.9930   -3.1890 O   0  0  0  0  0  0  0  0  0  0  0  0
    4.5860   -0.6240   -2.9050 H   0  0  0  0  0  0  0  0  0  0  0  0
    3.8100   -2.1970   -2.6070 H   0  0  0  0  0  0  0  0  0  0  0  0
    3.1900   -1.1420   -3.9040 H   0  0  0  0  0  0  0  0  0  0  0  0
    2.6490    0.6120   -2.1440 H   0  0  0  0  0  0  0  0  0  0  0  0
    3.8260    0.0350   -0.2530 H   0  0  0  0  0  0  0  0  0  0  0  0
    3.5000   -1.6030   -0.4250 H   0  0  0  0  0  0  0  0  0  0  0  0
   -0.5520   -3.7110    0.6890 O   0  0  0  0  0  0  0  0  0  0  0  0
   -0.9600   -3.4400   -0.6030 C   0  0  0  0  0  0  0  0  0  0  0  0
   -0.7970   -2.0250   -1.0210 C   0  0  2  0  0  0  0  0  0  0  0  0
    0.5270   -1.5090   -0.9910 N   0  0  0  0  0  0  0  0  0  0  0  0
   -1.7680   -1.1480   -0.2890 C   0  0  0  0  0  0  0  0  0  0  0  0
   -2.9800   -1.4350   -0.1700 O   0  0  0  0  0  0  0  0  0  0  0  0
   -1.1990   -3.4980    1.3760 H   0  0  0  0  0  0  0  0  0  0  0  0
   -2.0560   -3.6730   -0.6410 H   0  0  0  0  0  0  0  0  0  0  0  0
   -0.4960   -4.1110   -1.3550 H   0  0  0  0  0  0  0  0  0  0  0  0
   -1.1460   -1.9570   -2.0940 H   0  0  0  0  0  0  0  0  0  0  0  0
    1.0260   -1.5080   -0.0520 H   0  0  0  0  0  0  0  0  0  0  0  0
    1.2240   -2.1680    4.7740 N   0  0  0  0  0  0  0  0  0  0  0  0
    0.7610   -0.8580    4.4780 C   0  0  0  0  0  0  0  0  0  0  0  0
    0.3650   -0.0720    5.4300 N   0  0  0  0  0  0  0  0  0  0  0  0
    0.7400   -0.4220    3.1190 N   0  0  0  0  0  0  0  0  0  0  0  0
    0.5640    0.9690    2.7520 C   0  0  0  0  0  0  0  0  0  0  0  0
   -0.7600    1.5380    3.0230 C   0  0  0  0  0  0  0  0  0  0  0  0
   -1.9850    1.0210    2.4650 C   0  0  0  0  0  0  0  0  0  0  0  0
   -2.2710    0.9350    1.0310 C   0  0  2  0  0  0  0  0  0  0  0  0
   -1.3490    0.0940    0.3260 N   0  0  0  0  0  0  0  0  0  0  0  0
   -2.5000    2.2310    0.3510 C   0  0  0  0  0  0  0  0  0  0  0  0
   -1.8950    2.4650   -0.7280 O   0  0  0  0  0  0  0  0  0  0  0  0
   -3.3450    3.1620    0.8720 O   0  0  0  0  0  0  0  0  0  0  0  0
    1.2220   -2.5330    5.7490 H   0  0  0  0  0  0  0  0  0  0  0  0
    1.5770   -2.8010    4.0280 H   0  0  0  0  0  0  0  0  0  0  0  0
    0.3980   -0.4290    6.4010 H   0  0  0  0  0  0  0  0  0  0  0  0
    0.8590   -1.1530    2.3900 H   0  0  0  0  0  0  0  0  0  0  0  0
    1.2780    1.4930    3.4930 H   0  0  0  0  0  0  0  0  0  0  0  0
    1.0520    1.1990    1.7940 H   0  0  0  0  0  0  0  0  0  0  0  0
   -0.6960    2.6580    2.8310 H   0  0  0  0  0  0  0  0  0  0  0  0
   -0.8730    1.5340    4.1570 H   0  0  0  0  0  0  0  0  0  0  0  0
   -2.8520    1.6000    2.9240 H   0  0  0  0  0  0  0  0  0  0  0  0
   -2.1970   -0.0200    2.8810 H   0  0  0  0  0  0  0  0  0  0  0  0
   -3.2860    0.4280    0.9520 H   0  0  0  0  0  0  0  0  0  0  0  0
   -0.3310    0.2870    0.1840 H   0  0  0  0  0  0  0  0  0  0  0  0
  1  7  1  0  0  0  0
  1  2  1  0  0  0  0
  2  9  1  6  0  0  0
  2  3  1  0  0  0  0
  3 11  1  0  0  0  0
  3 10  1  0  0  0  0
  4  2  1  0  0  0  0
  4 15  1  0  0  0  0
  5  4  2  0  0  0  0
  6  1  1  0  0  0  0
  8  1  1  0  0  0  0
 12 18  1  0  0  0  0
 13 12  1  0  0  0  0
 14 21  1  6  0  0  0
 14 15  1  0  0  0  0
 14 13  1  0  0  0  0
 14 16  1  0  0  0  0
 15 22  1  0  0  0  0
 16 17  2  0  0  0  0
 16 31  1  0  0  0  0
 19 13  1  0  0  0  0
 20 13  1  0  0  0  0
 23 35  1  0  0  0  0
 24 23  1  0  0  0  0
 24 25  2  0  0  0  0
 25 37  1  0  0  0  0
 26 24  1  0  0  0  0
 27 28  1  0  0  0  0
 27 26  1  0  0  0  0
 27 39  1  0  0  0  0
 28 42  1  0  0  0  0
 29 44  1  0  0  0  0
 29 43  1  0  0  0  0
 29 28  1  0  0  0  0
 30 45  1  6  0  0  0
 30 29  1  0  0  0  0
 31 30  1  0  0  0  0
 32 34  1  0  0  0  0
 32 30  1  0  0  0  0
 33 32  2  0  0  0  0
 36 23  1  0  0  0  0
 38 26  1  0  0  0  0
 40 27  1  0  0  0  0
 41 28  1  0  0  0  0
 46 31  1  0  0  0  0
M  END
$$$$
