ASV.pdb
 OpenBabel07022418023D

 39 38  0  0  1  0  0  0  0  0999 V2000
   -2.1780   -2.2890    1.2190 C   0  0  0  0  0  0  0  0  0  0  0  0
   -1.4200   -3.4960    0.7090 C   0  0  2  0  0  0  0  0  0  0  0  0
   -1.8060   -4.6240    1.5080 N   0  0  0  0  0  0  0  0  0  0  0  0
    0.0260   -3.1990    0.7810 C   0  0  0  0  0  0  0  0  0  0  0  0
    0.8410   -3.8730    1.4770 O   0  0  0  0  0  0  0  0  0  0  0  0
   -2.5780   -1.6810    0.3850 H   0  0  0  0  0  0  0  0  0  0  0  0
   -3.0760   -2.5990    1.8190 H   0  0  0  0  0  0  0  0  0  0  0  0
   -1.5660   -1.6750    1.9060 H   0  0  0  0  0  0  0  0  0  0  0  0
   -1.7070   -3.7090   -0.3460 H   0  0  0  0  0  0  0  0  0  0  0  0
   -2.2810   -4.3720    2.3960 H   0  0  0  0  0  0  0  0  0  0  0  0
   -1.0950   -5.3640    1.5890 H   0  0  0  0  0  0  0  0  0  0  0  0
    2.4610   -3.1270   -1.7770 O   0  0  0  0  0  0  0  0  0  0  0  0
    2.5200   -1.8180   -1.3600 C   0  0  0  0  0  0  0  0  0  0  0  0
    1.8940   -1.6970    0.0020 C   0  0  2  0  0  0  0  0  0  0  0  0
    0.5150   -2.0990    0.0260 N   0  0  0  0  0  0  0  0  0  0  0  0
    2.0640   -0.3320    0.5660 C   0  0  0  0  0  0  0  0  0  0  0  0
    3.1780    0.2370    0.6510 O   0  0  0  0  0  0  0  0  0  0  0  0
    1.5910   -3.5600   -1.5050 H   0  0  0  0  0  0  0  0  0  0  0  0
    3.6130   -1.5730   -1.2220 H   0  0  0  0  0  0  0  0  0  0  0  0
    2.1320   -1.0850   -2.0690 H   0  0  0  0  0  0  0  0  0  0  0  0
    2.4510   -2.4090    0.6720 H   0  0  0  0  0  0  0  0  0  0  0  0
   -0.1520   -1.5290   -0.5580 H   0  0  0  0  0  0  0  0  0  0  0  0
   -1.1050    2.5150    0.6580 C   0  0  0  0  0  0  0  0  0  0  0  0
    0.3750    2.7600    0.7600 C   0  0  0  0  0  0  0  0  0  0  0  0
    0.9410    2.8410   -0.6360 C   0  0  0  0  0  0  0  0  0  0  0  0
    1.0830    1.7010    1.5820 C   0  0  2  0  0  0  0  0  0  0  0  0
    0.9320    0.3840    1.0360 N   0  0  0  0  0  0  0  0  0  0  0  0
    0.7000    1.7810    3.0160 C   0  0  0  0  0  0  0  0  0  0  0  0
    0.7690    2.8580    3.6620 O   0  0  0  0  0  0  0  0  0  0  0  0
    0.2430    0.6800    3.7390 O   0  0  0  0  0  0  0  0  0  0  0  0
   -1.5050    1.9650    1.5300 H   0  0  0  0  0  0  0  0  0  0  0  0
   -1.3340    2.0220   -0.3130 H   0  0  0  0  0  0  0  0  0  0  0  0
   -1.6660    3.4900    0.6370 H   0  0  0  0  0  0  0  0  0  0  0  0
    0.5050    3.7640    1.2140 H   0  0  0  0  0  0  0  0  0  0  0  0
    0.9950    1.8500   -1.1320 H   0  0  0  0  0  0  0  0  0  0  0  0
    0.2830    3.4670   -1.2690 H   0  0  0  0  0  0  0  0  0  0  0  0
    1.9320    3.3270   -0.5910 H   0  0  0  0  0  0  0  0  0  0  0  0
    2.1600    1.9610    1.5420 H   0  0  0  0  0  0  0  0  0  0  0  0
   -0.0290   -0.0860    0.9710 H   0  0  0  0  0  0  0  0  0  0  0  0
  1  7  1  0  0  0  0
  1  8  1  0  0  0  0
  2  9  1  6  0  0  0
  2  4  1  0  0  0  0
  2  1  1  0  0  0  0
  2  3  1  0  0  0  0
  3 11  1  0  0  0  0
  3 10  1  0  0  0  0
  4  5  2  0  0  0  0
  6  1  1  0  0  0  0
 12 18  1  0  0  0  0
 12 13  1  0  0  0  0
 13 19  1  0  0  0  0
 13 14  1  0  0  0  0
 14 15  1  0  0  0  0
 14 16  1  0  0  0  0
 14 21  1  1  0  0  0
 15  4  1  0  0  0  0
 16 17  2  0  0  0  0
 16 27  1  0  0  0  0
 20 13  1  0  0  0  0
 22 15  1  0  0  0  0
 23 24  1  0  0  0  0
 23 31  1  0  0  0  0
 24 34  1  0  0  0  0
 24 26  1  0  0  0  0
 25 37  1  0  0  0  0
 25 24  1  0  0  0  0
 26 38  1  6  0  0  0
 26 28  1  0  0  0  0
 27 26  1  0  0  0  0
 28 29  2  0  0  0  0
 28 30  1  0  0  0  0
 32 23  1  0  0  0  0
 33 23  1  0  0  0  0
 35 25  1  0  0  0  0
 36 25  1  0  0  0  0
 39 27  1  0  0  0  0
M  END
$$$$
