ASW.pdb
 OpenBabel07022418023D

 47 48  0  0  1  0  0  0  0  0999 V2000
    5.6290   -4.0200    2.1560 C   0  0  0  0  0  0  0  0  0  0  0  0
    4.1640   -4.2040    1.9350 C   0  0  2  0  0  0  0  0  0  0  0  0
    3.9220   -5.2880    1.0260 N   0  0  0  0  0  0  0  0  0  0  0  0
    3.4760   -2.9880    1.4270 C   0  0  0  0  0  0  0  0  0  0  0  0
    2.8080   -3.0450    0.3640 O   0  0  0  0  0  0  0  0  0  0  0  0
    6.2550   -4.2220    1.2640 H   0  0  0  0  0  0  0  0  0  0  0  0
    5.8550   -3.0190    2.6040 H   0  0  0  0  0  0  0  0  0  0  0  0
    5.9560   -4.7700    2.9190 H   0  0  0  0  0  0  0  0  0  0  0  0
    3.7210   -4.5310    2.9230 H   0  0  0  0  0  0  0  0  0  0  0  0
    3.0990   -5.8590    1.2320 H   0  0  0  0  0  0  0  0  0  0  0  0
    4.7820   -5.8270    0.7830 H   0  0  0  0  0  0  0  0  0  0  0  0
    3.8210   -0.4210   -0.5450 O   0  0  0  0  0  0  0  0  0  0  0  0
    3.6180    0.2510    0.6370 C   0  0  0  0  0  0  0  0  0  0  0  0
    2.8900   -0.5180    1.6740 C   0  0  2  0  0  0  0  0  0  0  0  0
    3.5290   -1.7370    2.0860 N   0  0  0  0  0  0  0  0  0  0  0  0
    1.4370   -0.7140    1.3860 C   0  0  0  0  0  0  0  0  0  0  0  0
    0.9510   -1.8440    1.6040 O   0  0  0  0  0  0  0  0  0  0  0  0
    3.9550    0.2580   -1.2580 H   0  0  0  0  0  0  0  0  0  0  0  0
    3.1130    1.2100    0.4250 H   0  0  0  0  0  0  0  0  0  0  0  0
    4.6270    0.5040    1.0720 H   0  0  0  0  0  0  0  0  0  0  0  0
    2.8520    0.1430    2.6090 H   0  0  0  0  0  0  0  0  0  0  0  0
    4.1140   -1.7350    2.9750 H   0  0  0  0  0  0  0  0  0  0  0  0
    0.5940    0.2850    0.8900 N   0  0  0  0  0  0  0  0  0  0  0  0
   -0.8370    0.0690    0.6140 C   0  0  1  0  0  0  0  0  0  0  0  0
   -1.6810    0.9550    1.4340 C   0  0  0  0  0  0  0  0  0  0  0  0
   -3.1230    0.8230    1.1820 C   0  0  0  0  0  0  0  0  0  0  0  0
   -3.9960   -0.0650    1.8370 C   0  0  0  0  0  0  0  0  0  0  0  0
   -5.2340    0.0470    1.3320 N   0  0  0  0  0  0  0  0  0  0  0  0
   -5.2250    0.9690    0.3700 C   0  0  0  0  0  0  0  0  0  0  0  0
   -6.2360    1.4740   -0.4450 C   0  0  0  0  0  0  0  0  0  0  0  0
   -5.9360    2.4600   -1.3510 C   0  0  0  0  0  0  0  0  0  0  0  0
   -4.6470    2.9820   -1.4890 C   0  0  0  0  0  0  0  0  0  0  0  0
   -3.6660    2.4660   -0.6730 C   0  0  0  0  0  0  0  0  0  0  0  0
   -3.9330    1.4700    0.2520 C   0  0  0  0  0  0  0  0  0  0  0  0
   -1.1060    0.1920   -0.8120 C   0  0  0  0  0  0  0  0  0  0  0  0
   -0.1650    0.6620   -1.5480 O   0  0  0  0  0  0  0  0  0  0  0  0
   -2.3070   -0.1730   -1.4140 O   0  0  0  0  0  0  0  0  0  0  0  0
    1.0000    1.2250    0.7080 H   0  0  0  0  0  0  0  0  0  0  0  0
   -1.0860   -1.0110    0.8740 H   0  0  0  0  0  0  0  0  0  0  0  0
   -1.5220    0.8570    2.5330 H   0  0  0  0  0  0  0  0  0  0  0  0
   -1.4320    2.0500    1.2450 H   0  0  0  0  0  0  0  0  0  0  0  0
   -3.6810   -0.7290    2.6310 H   0  0  0  0  0  0  0  0  0  0  0  0
   -6.0550   -0.5080    1.6540 H   0  0  0  0  0  0  0  0  0  0  0  0
   -7.2450    1.0650   -0.3370 H   0  0  0  0  0  0  0  0  0  0  0  0
   -6.7030    2.8760   -2.0020 H   0  0  0  0  0  0  0  0  0  0  0  0
   -4.4700    3.7520   -2.2130 H   0  0  0  0  0  0  0  0  0  0  0  0
   -2.6530    2.8270   -0.7320 H   0  0  0  0  0  0  0  0  0  0  0  0
  1  7  1  0  0  0  0
  1  8  1  0  0  0  0
  2  1  1  0  0  0  0
  2  9  1  1  0  0  0
  3 10  1  0  0  0  0
  3  2  1  0  0  0  0
  4  2  1  0  0  0  0
  4 15  1  0  0  0  0
  5  4  2  0  0  0  0
  6  1  1  0  0  0  0
 11  3  1  0  0  0  0
 12 13  1  0  0  0  0
 13 20  1  0  0  0  0
 13 14  1  0  0  0  0
 14 15  1  0  0  0  0
 14 21  1  1  0  0  0
 15 22  1  0  0  0  0
 16 17  2  0  0  0  0
 16 14  1  0  0  0  0
 18 12  1  0  0  0  0
 19 13  1  0  0  0  0
 23 16  1  0  0  0  0
 24 39  1  1  0  0  0
 24 23  1  0  0  0  0
 24 25  1  0  0  0  0
 25 40  1  0  0  0  0
 26 25  1  0  0  0  0
 26 27  2  0  0  0  0
 27 42  1  0  0  0  0
 28 43  1  0  0  0  0
 28 27  1  0  0  0  0
 29 28  1  0  0  0  0
 30 44  1  0  0  0  0
 30 29  2  0  0  0  0
 31 30  1  0  0  0  0
 32 31  2  0  0  0  0
 32 33  1  0  0  0  0
 33 34  2  0  0  0  0
 34 29  1  0  0  0  0
 34 26  1  0  0  0  0
 35 24  1  0  0  0  0
 36 35  2  0  0  0  0
 37 35  1  0  0  0  0
 38 23  1  0  0  0  0
 41 25  1  0  0  0  0
 45 31  1  0  0  0  0
 46 32  1  0  0  0  0
 47 33  1  0  0  0  0
M  END
$$$$
