ATA.pdb
 OpenBabel07022418023D

 36 35  0  0  1  0  0  0  0  0999 V2000
    1.2400   -4.1440    2.5980 C   0  0  0  0  0  0  0  0  0  0  0  0
    0.2630   -4.4110    1.4560 C   0  0  2  0  0  0  0  0  0  0  0  0
    0.8070   -5.5120    0.6980 N   0  0  0  0  0  0  0  0  0  0  0  0
    0.2360   -3.2080    0.6170 C   0  0  0  0  0  0  0  0  0  0  0  0
    0.6510   -3.2650   -0.5580 O   0  0  0  0  0  0  0  0  0  0  0  0
    1.7270   -5.0980    2.8660 H   0  0  0  0  0  0  0  0  0  0  0  0
    0.6980   -3.7600    3.4670 H   0  0  0  0  0  0  0  0  0  0  0  0
    1.9950   -3.4080    2.2510 H   0  0  0  0  0  0  0  0  0  0  0  0
   -0.7080   -4.6420    1.9320 H   0  0  0  0  0  0  0  0  0  0  0  0
    0.5290   -5.3700   -0.3030 H   0  0  0  0  0  0  0  0  0  0  0  0
    1.8580   -5.4050    0.7170 H   0  0  0  0  0  0  0  0  0  0  0  0
   -2.4240   -1.4050   -0.7890 C   0  0  0  0  0  0  0  0  0  0  0  0
   -1.6480   -0.3200   -0.0950 C   0  0  1  0  0  0  0  0  0  0  0  0
   -2.2510    0.0760    1.0800 O   0  0  0  0  0  0  0  0  0  0  0  0
   -0.2360   -0.8270    0.1870 C   0  0  2  0  0  0  0  0  0  0  0  0
   -0.2500   -1.9440    1.0810 N   0  0  0  0  0  0  0  0  0  0  0  0
    0.5610    0.3170    0.7310 C   0  0  0  0  0  0  0  0  0  0  0  0
    1.1270    0.2400    1.8490 O   0  0  0  0  0  0  0  0  0  0  0  0
   -2.1410   -2.4240   -0.4360 H   0  0  0  0  0  0  0  0  0  0  0  0
   -3.5080   -1.2260   -0.5920 H   0  0  0  0  0  0  0  0  0  0  0  0
   -2.2630   -1.2940   -1.8920 H   0  0  0  0  0  0  0  0  0  0  0  0
   -1.5240    0.5570   -0.7650 H   0  0  0  0  0  0  0  0  0  0  0  0
   -3.2250   -0.1420    1.0700 H   0  0  0  0  0  0  0  0  0  0  0  0
    0.1760   -1.1180   -0.8000 H   0  0  0  0  0  0  0  0  0  0  0  0
   -0.6060   -1.8530    2.0570 H   0  0  0  0  0  0  0  0  0  0  0  0
    2.7230    2.7390   -0.3230 C   0  0  0  0  0  0  0  0  0  0  0  0
    1.4760    2.5940    0.5600 C   0  0  2  0  0  0  0  0  0  0  0  0
    0.7060    1.5260    0.0060 N   0  0  0  0  0  0  0  0  0  0  0  0
    0.7470    3.8690    0.6500 C   0  0  0  0  0  0  0  0  0  0  0  0
   -0.4360    3.9300    0.2550 O   0  0  0  0  0  0  0  0  0  0  0  0
    1.3290    5.0090    1.1580 O   0  0  0  0  0  0  0  0  0  0  0  0
    2.9890    1.7500   -0.6950 H   0  0  0  0  0  0  0  0  0  0  0  0
    3.5690    3.1520    0.2650 H   0  0  0  0  0  0  0  0  0  0  0  0
    2.4890    3.4230   -1.1830 H   0  0  0  0  0  0  0  0  0  0  0  0
    1.8870    2.3020    1.5650 H   0  0  0  0  0  0  0  0  0  0  0  0
    0.2490    1.6220   -0.9270 H   0  0  0  0  0  0  0  0  0  0  0  0
  1  6  1  0  0  0  0
  1  7  1  0  0  0  0
  2  9  1  1  0  0  0
  2  1  1  0  0  0  0
  3 11  1  0  0  0  0
  3  2  1  0  0  0  0
  4 16  1  0  0  0  0
  4  2  1  0  0  0  0
  5  4  2  0  0  0  0
  8  1  1  0  0  0  0
 10  3  1  0  0  0  0
 12 20  1  0  0  0  0
 12 19  1  0  0  0  0
 12 13  1  0  0  0  0
 13 22  1  6  0  0  0
 13 15  1  0  0  0  0
 13 14  1  0  0  0  0
 15 24  1  6  0  0  0
 15 17  1  0  0  0  0
 15 16  1  0  0  0  0
 16 25  1  0  0  0  0
 17 18  2  0  0  0  0
 21 12  1  0  0  0  0
 23 14  1  0  0  0  0
 26 33  1  0  0  0  0
 26 27  1  0  0  0  0
 27 29  1  0  0  0  0
 27 35  1  1  0  0  0
 28 27  1  0  0  0  0
 28 17  1  0  0  0  0
 29 31  1  0  0  0  0
 30 29  2  0  0  0  0
 32 26  1  0  0  0  0
 34 26  1  0  0  0  0
 36 28  1  0  0  0  0
M  END
$$$$
