ATC.pdb
 OpenBabel07022418023D

 37 36  0  0  1  0  0  0  0  0999 V2000
   -2.0040   -5.0200   -0.1830 C   0  0  0  0  0  0  0  0  0  0  0  0
   -0.9540   -4.0650   -0.7150 C   0  0  2  0  0  0  0  0  0  0  0  0
    0.3790   -4.5350   -0.3890 N   0  0  0  0  0  0  0  0  0  0  0  0
   -1.1840   -2.6970   -0.1960 C   0  0  0  0  0  0  0  0  0  0  0  0
   -2.3020   -2.1650   -0.4080 O   0  0  0  0  0  0  0  0  0  0  0  0
   -2.9890   -4.5280   -0.0830 H   0  0  0  0  0  0  0  0  0  0  0  0
   -1.6870   -5.4570    0.8030 H   0  0  0  0  0  0  0  0  0  0  0  0
   -2.0830   -5.8550   -0.9070 H   0  0  0  0  0  0  0  0  0  0  0  0
   -1.0250   -4.0350   -1.8230 H   0  0  0  0  0  0  0  0  0  0  0  0
    0.3450   -4.8290    0.6220 H   0  0  0  0  0  0  0  0  0  0  0  0
    0.5740   -5.3780   -0.9590 H   0  0  0  0  0  0  0  0  0  0  0  0
    0.8480   -1.0620    3.0670 C   0  0  0  0  0  0  0  0  0  0  0  0
   -0.4790   -0.6120    2.5150 C   0  0  1  0  0  0  0  0  0  0  0  0
   -0.7770    0.6620    2.9190 O   0  0  0  0  0  0  0  0  0  0  0  0
   -0.5070   -0.6480    0.9930 C   0  0  2  0  0  0  0  0  0  0  0  0
   -0.2070   -1.9860    0.5160 N   0  0  0  0  0  0  0  0  0  0  0  0
    0.5070    0.3250    0.5140 C   0  0  0  0  0  0  0  0  0  0  0  0
    1.4950   -0.1290   -0.1520 O   0  0  0  0  0  0  0  0  0  0  0  0
    1.2490   -1.9630    2.6020 H   0  0  0  0  0  0  0  0  0  0  0  0
    1.5890   -0.2320    3.1050 H   0  0  0  0  0  0  0  0  0  0  0  0
    0.6620   -1.3240    4.1490 H   0  0  0  0  0  0  0  0  0  0  0  0
   -1.2870   -1.2860    2.8850 H   0  0  0  0  0  0  0  0  0  0  0  0
   -0.0910    1.0830    3.4900 H   0  0  0  0  0  0  0  0  0  0  0  0
   -1.5380   -0.4010    0.6870 H   0  0  0  0  0  0  0  0  0  0  0  0
    0.7250   -2.4420    0.6870 H   0  0  0  0  0  0  0  0  0  0  0  0
    0.4920    1.7110    0.7180 N   0  0  0  0  0  0  0  0  0  0  0  0
    1.5180    2.6130    0.2240 C   0  0  1  0  0  0  0  0  0  0  0  0
    0.9200    3.6470   -0.7250 C   0  0  0  0  0  0  0  0  0  0  0  0
    0.1470    2.8320   -2.1490 S   0  0  0  0  0  0  0  0  0  0  0  0
    2.1370    3.2730    1.4000 C   0  0  0  0  0  0  0  0  0  0  0  0
    1.7740    3.0340    2.5870 O   0  0  0  0  0  0  0  0  0  0  0  0
    3.1640    4.2030    1.2530 O   0  0  0  0  0  0  0  0  0  0  0  0
   -0.3020    2.1290    1.2480 H   0  0  0  0  0  0  0  0  0  0  0  0
    2.3150    2.0970   -0.3290 H   0  0  0  0  0  0  0  0  0  0  0  0
    0.2030    4.3150   -0.2140 H   0  0  0  0  0  0  0  0  0  0  0  0
    1.7420    4.2810   -1.1110 H   0  0  0  0  0  0  0  0  0  0  0  0
    0.8310    1.6420   -2.4680 H   0  0  0  0  0  0  0  0  0  0  0  0
  1  6  1  0  0  0  0
  1  7  1  0  0  0  0
  2  9  1  6  0  0  0
  2  3  1  0  0  0  0
  2  4  1  0  0  0  0
  2  1  1  0  0  0  0
  3 10  1  0  0  0  0
  4 16  1  0  0  0  0
  5  4  2  0  0  0  0
  8  1  1  0  0  0  0
 11  3  1  0  0  0  0
 12 20  1  0  0  0  0
 12 21  1  0  0  0  0
 13 22  1  1  0  0  0
 13 14  1  0  0  0  0
 13 12  1  0  0  0  0
 14 23  1  0  0  0  0
 15 24  1  6  0  0  0
 15 13  1  0  0  0  0
 16 25  1  0  0  0  0
 16 15  1  0  0  0  0
 17 26  1  0  0  0  0
 17 15  1  0  0  0  0
 18 17  2  0  0  0  0
 19 12  1  0  0  0  0
 26 33  1  0  0  0  0
 27 34  1  6  0  0  0
 27 26  1  0  0  0  0
 27 30  1  0  0  0  0
 28 35  1  0  0  0  0
 28 27  1  0  0  0  0
 29 28  1  0  0  0  0
 30 31  1  0  0  0  0
 32 30  2  0  0  0  0
 36 28  1  0  0  0  0
 37 29  1  0  0  0  0
M  END
$$$$
