ATD.pdb
 OpenBabel07022418023D

 39 38  0  0  1  0  0  0  0  0999 V2000
    2.1600   -3.2760    1.7030 C   0  0  0  0  0  0  0  0  0  0  0  0
    1.4070   -3.7870    0.4970 C   0  0  2  0  0  0  0  0  0  0  0  0
    2.2810   -4.7430   -0.1540 N   0  0  0  0  0  0  0  0  0  0  0  0
    1.0310   -2.6890   -0.4440 C   0  0  0  0  0  0  0  0  0  0  0  0
    1.5400   -2.7390   -1.5970 O   0  0  0  0  0  0  0  0  0  0  0  0
    3.2730   -3.4360    1.5960 H   0  0  0  0  0  0  0  0  0  0  0  0
    1.8430   -3.8970    2.5760 H   0  0  0  0  0  0  0  0  0  0  0  0
    1.9470   -2.2420    1.9680 H   0  0  0  0  0  0  0  0  0  0  0  0
    0.5150   -4.3500    0.8300 H   0  0  0  0  0  0  0  0  0  0  0  0
    2.1590   -4.7760   -1.1690 H   0  0  0  0  0  0  0  0  0  0  0  0
    2.2410   -5.6900    0.3100 H   0  0  0  0  0  0  0  0  0  0  0  0
   -2.5660   -0.3710   -0.0740 C   0  0  0  0  0  0  0  0  0  0  0  0
   -1.6990   -0.6090   -1.2700 C   0  0  1  0  0  0  0  0  0  0  0  0
   -1.8950    0.4660   -2.1610 O   0  0  0  0  0  0  0  0  0  0  0  0
   -0.2130   -0.6040   -0.9460 C   0  0  2  0  0  0  0  0  0  0  0  0
    0.1490   -1.6570   -0.0460 N   0  0  0  0  0  0  0  0  0  0  0  0
    0.0860    0.7400   -0.3750 C   0  0  0  0  0  0  0  0  0  0  0  0
   -0.1910    1.7650   -1.0390 O   0  0  0  0  0  0  0  0  0  0  0  0
   -2.0490    0.1660    0.7220 H   0  0  0  0  0  0  0  0  0  0  0  0
   -3.4430    0.2680   -0.3830 H   0  0  0  0  0  0  0  0  0  0  0  0
   -3.0110   -1.3080    0.3120 H   0  0  0  0  0  0  0  0  0  0  0  0
   -1.9750   -1.5180   -1.8520 H   0  0  0  0  0  0  0  0  0  0  0  0
   -2.7750    0.3800   -2.6250 H   0  0  0  0  0  0  0  0  0  0  0  0
    0.3280   -0.7250   -1.9200 H   0  0  0  0  0  0  0  0  0  0  0  0
   -0.2310   -1.6770    0.9150 H   0  0  0  0  0  0  0  0  0  0  0  0
    0.6780    0.8970    0.9060 N   0  0  0  0  0  0  0  0  0  0  0  0
    0.9930    2.1690    1.5290 C   0  0  1  0  0  0  0  0  0  0  0  0
    0.2240    2.2280    2.8380 C   0  0  0  0  0  0  0  0  0  0  0  0
   -1.2440    2.1400    2.6430 C   0  0  0  0  0  0  0  0  0  0  0  0
   -1.8260    2.9420    1.8500 O   0  0  0  0  0  0  0  0  0  0  0  0
    2.4300    2.3140    1.8090 C   0  0  0  0  0  0  0  0  0  0  0  0
    2.8570    3.3520    2.3420 O   0  0  0  0  0  0  0  0  0  0  0  0
   -2.0380    1.1980    3.2970 O   0  0  0  0  0  0  0  0  0  0  0  0
    3.3080    1.3080    1.4830 O   0  0  0  0  0  0  0  0  0  0  0  0
    0.8910    0.0040    1.4150 H   0  0  0  0  0  0  0  0  0  0  0  0
    0.6910    3.0270    0.9270 H   0  0  0  0  0  0  0  0  0  0  0  0
    0.4990    1.3840    3.5190 H   0  0  0  0  0  0  0  0  0  0  0  0
    0.4260    3.1750    3.3820 H   0  0  0  0  0  0  0  0  0  0  0  0
   -2.9300    0.8830    2.8880 H   0  0  0  0  0  0  0  0  0  0  0  0
  1  8  1  0  0  0  0
  1  7  1  0  0  0  0
  2  9  1  1  0  0  0
  2  1  1  0  0  0  0
  3 11  1  0  0  0  0
  3  2  1  0  0  0  0
  4 16  1  0  0  0  0
  4  2  1  0  0  0  0
  5  4  2  0  0  0  0
  6  1  1  0  0  0  0
 10  3  1  0  0  0  0
 12 21  1  0  0  0  0
 12 19  1  0  0  0  0
 13 22  1  6  0  0  0
 13 15  1  0  0  0  0
 13 12  1  0  0  0  0
 14 13  1  0  0  0  0
 15 24  1  6  0  0  0
 15 17  1  0  0  0  0
 15 16  1  0  0  0  0
 16 25  1  0  0  0  0
 17 26  1  0  0  0  0
 18 17  2  0  0  0  0
 20 12  1  0  0  0  0
 23 14  1  0  0  0  0
 26 35  1  0  0  0  0
 26 27  1  0  0  0  0
 27 36  1  6  0  0  0
 27 31  1  0  0  0  0
 27 28  1  0  0  0  0
 28 38  1  0  0  0  0
 28 37  1  0  0  0  0
 29 28  1  0  0  0  0
 29 33  1  0  0  0  0
 30 29  2  0  0  0  0
 31 32  1  0  0  0  0
 34 31  2  0  0  0  0
 39 33  1  0  0  0  0
M  END
$$$$
