ATE.pdb
 OpenBabel07022418023D

 42 41  0  0  1  0  0  0  0  0999 V2000
    0.7290   -4.1810    1.0480 C   0  0  0  0  0  0  0  0  0  0  0  0
    2.1670   -3.7440    1.0060 C   0  0  2  0  0  0  0  0  0  0  0  0
    2.8680   -4.2820    2.1300 N   0  0  0  0  0  0  0  0  0  0  0  0
    2.2820   -2.2530    1.0180 C   0  0  0  0  0  0  0  0  0  0  0  0
    2.9410   -1.6930    1.9430 O   0  0  0  0  0  0  0  0  0  0  0  0
    0.2270   -4.0460    0.0560 H   0  0  0  0  0  0  0  0  0  0  0  0
    0.6980   -5.2540    1.3670 H   0  0  0  0  0  0  0  0  0  0  0  0
    0.1780   -3.5350    1.7680 H   0  0  0  0  0  0  0  0  0  0  0  0
    2.6300   -4.1570    0.0690 H   0  0  0  0  0  0  0  0  0  0  0  0
    2.3740   -5.0660    2.6120 H   0  0  0  0  0  0  0  0  0  0  0  0
    3.2040   -3.5560    2.8020 H   0  0  0  0  0  0  0  0  0  0  0  0
    3.9680    0.0140   -1.0680 C   0  0  0  0  0  0  0  0  0  0  0  0
    2.5550    0.5510   -1.1040 C   0  0  1  0  0  0  0  0  0  0  0  0
    1.9240    0.3080   -2.3000 O   0  0  0  0  0  0  0  0  0  0  0  0
    1.8230   -0.0180    0.0930 C   0  0  2  0  0  0  0  0  0  0  0  0
    1.6700   -1.4500    0.0170 N   0  0  0  0  0  0  0  0  0  0  0  0
    0.5180    0.6700    0.3230 C   0  0  0  0  0  0  0  0  0  0  0  0
    0.5120    1.9200    0.4090 O   0  0  0  0  0  0  0  0  0  0  0  0
    4.6660    0.7420   -1.5700 H   0  0  0  0  0  0  0  0  0  0  0  0
    4.3060   -0.0870   -0.0050 H   0  0  0  0  0  0  0  0  0  0  0  0
    4.0750   -0.9720   -1.5270 H   0  0  0  0  0  0  0  0  0  0  0  0
    2.5990    1.6560   -0.9430 H   0  0  0  0  0  0  0  0  0  0  0  0
    2.3600    0.8740   -2.9860 H   0  0  0  0  0  0  0  0  0  0  0  0
    2.4420    0.2180    0.9760 H   0  0  0  0  0  0  0  0  0  0  0  0
    1.1270   -1.9260   -0.7420 H   0  0  0  0  0  0  0  0  0  0  0  0
   -0.6970   -0.0350    0.4470 N   0  0  0  0  0  0  0  0  0  0  0  0
   -1.9930    0.5180    0.6880 C   0  0  1  0  0  0  0  0  0  0  0  0
   -2.0090    1.8640    1.3720 C   0  0  0  0  0  0  0  0  0  0  0  0
   -1.4310    1.8860    2.7410 C   0  0  0  0  0  0  0  0  0  0  0  0
   -2.1370    1.0780    3.7540 C   0  0  0  0  0  0  0  0  0  0  0  0
   -3.1920    0.4970    3.4920 O   0  0  0  0  0  0  0  0  0  0  0  0
   -2.8200    0.4500   -0.5230 C   0  0  0  0  0  0  0  0  0  0  0  0
   -2.4250   -0.0330   -1.6300 O   0  0  0  0  0  0  0  0  0  0  0  0
   -1.5860    0.9840    5.0150 O   0  0  0  0  0  0  0  0  0  0  0  0
   -4.1450    0.9270   -0.5500 O   0  0  0  0  0  0  0  0  0  0  0  0
   -0.5930   -1.0990    0.3450 H   0  0  0  0  0  0  0  0  0  0  0  0
   -2.5200   -0.1470    1.4730 H   0  0  0  0  0  0  0  0  0  0  0  0
   -1.6320    2.6840    0.7550 H   0  0  0  0  0  0  0  0  0  0  0  0
   -3.1170    2.1020    1.4880 H   0  0  0  0  0  0  0  0  0  0  0  0
   -1.4520    2.9450    3.1560 H   0  0  0  0  0  0  0  0  0  0  0  0
   -0.3630    1.5110    2.8040 H   0  0  0  0  0  0  0  0  0  0  0  0
   -1.8820    0.3320    5.7230 H   0  0  0  0  0  0  0  0  0  0  0  0
  1  7  1  0  0  0  0
  1  8  1  0  0  0  0
  2  9  1  6  0  0  0
  2  4  1  0  0  0  0
  2  1  1  0  0  0  0
  2  3  1  0  0  0  0
  3 10  1  0  0  0  0
  3 11  1  0  0  0  0
  4  5  2  0  0  0  0
  6  1  1  0  0  0  0
 12 20  1  0  0  0  0
 13 12  1  0  0  0  0
 13 22  1  1  0  0  0
 13 15  1  0  0  0  0
 14 13  1  0  0  0  0
 15 17  1  0  0  0  0
 15 24  1  1  0  0  0
 16 15  1  0  0  0  0
 16  4  1  0  0  0  0
 17 18  2  0  0  0  0
 17 26  1  0  0  0  0
 19 12  1  0  0  0  0
 21 12  1  0  0  0  0
 23 14  1  0  0  0  0
 25 16  1  0  0  0  0
 26 27  1  0  0  0  0
 27 28  1  0  0  0  0
 27 37  1  1  0  0  0
 28 39  1  0  0  0  0
 28 29  1  0  0  0  0
 29 41  1  0  0  0  0
 29 40  1  0  0  0  0
 29 30  1  0  0  0  0
 30 34  1  0  0  0  0
 31 30  2  0  0  0  0
 32 27  1  0  0  0  0
 33 32  2  0  0  0  0
 34 42  1  0  0  0  0
 35 32  1  0  0  0  0
 36 26  1  0  0  0  0
 38 28  1  0  0  0  0
M  END
$$$$
