ATG.pdb
 OpenBabel07022418023D

 33 32  0  0  1  0  0  0  0  0999 V2000
   -2.2150   -2.4780   -1.0980 C   0  0  0  0  0  0  0  0  0  0  0  0
   -1.8290   -2.8960    0.2980 C   0  0  2  0  0  0  0  0  0  0  0  0
   -3.0160   -3.2220    1.0350 N   0  0  0  0  0  0  0  0  0  0  0  0
   -1.0470   -1.8960    1.0170 C   0  0  0  0  0  0  0  0  0  0  0  0
   -1.4690   -1.4650    2.1180 O   0  0  0  0  0  0  0  0  0  0  0  0
   -2.9990   -1.6840   -1.0550 H   0  0  0  0  0  0  0  0  0  0  0  0
   -2.6870   -3.3560   -1.5960 H   0  0  0  0  0  0  0  0  0  0  0  0
   -1.3660   -2.1770   -1.7190 H   0  0  0  0  0  0  0  0  0  0  0  0
   -1.2090   -3.8230    0.2060 H   0  0  0  0  0  0  0  0  0  0  0  0
   -2.9250   -2.8590    2.0250 H   0  0  0  0  0  0  0  0  0  0  0  0
   -3.8390   -2.7800    0.5710 H   0  0  0  0  0  0  0  0  0  0  0  0
    1.9850   -2.0060    2.7660 C   0  0  0  0  0  0  0  0  0  0  0  0
    2.2430   -0.8680    1.7960 C   0  0  1  0  0  0  0  0  0  0  0  0
    3.0860   -1.2110    0.7690 O   0  0  0  0  0  0  0  0  0  0  0  0
    0.8940   -0.3720    1.3340 C   0  0  2  0  0  0  0  0  0  0  0  0
    0.1870   -1.3550    0.5620 N   0  0  0  0  0  0  0  0  0  0  0  0
    0.9910    0.9370    0.6230 C   0  0  0  0  0  0  0  0  0  0  0  0
    1.5840    1.8710    1.1940 O   0  0  0  0  0  0  0  0  0  0  0  0
    2.9160   -2.5330    3.0470 H   0  0  0  0  0  0  0  0  0  0  0  0
    1.5800   -1.5360    3.6940 H   0  0  0  0  0  0  0  0  0  0  0  0
    1.2310   -2.6730    2.3090 H   0  0  0  0  0  0  0  0  0  0  0  0
    2.7080   -0.0150    2.3600 H   0  0  0  0  0  0  0  0  0  0  0  0
    4.0000   -1.3020    1.1530 H   0  0  0  0  0  0  0  0  0  0  0  0
    0.3120   -0.1530    2.2740 H   0  0  0  0  0  0  0  0  0  0  0  0
    0.5520   -1.6990   -0.3440 H   0  0  0  0  0  0  0  0  0  0  0  0
    0.4350    1.1390   -0.6640 N   0  0  0  0  0  0  0  0  0  0  0  0
    0.5150    2.3940   -1.3740 C   0  0  0  0  0  0  0  0  0  0  0  0
   -0.1390    3.5030   -0.6120 C   0  0  0  0  0  0  0  0  0  0  0  0
   -0.1850    4.6680   -1.0430 O   0  0  0  0  0  0  0  0  0  0  0  0
   -0.7020    3.1720    0.6130 O   0  0  0  0  0  0  0  0  0  0  0  0
   -0.0550    0.2940   -1.0860 H   0  0  0  0  0  0  0  0  0  0  0  0
   -0.0660    2.2920   -2.3160 H   0  0  0  0  0  0  0  0  0  0  0  0
    1.5470    2.6550   -1.6790 H   0  0  0  0  0  0  0  0  0  0  0  0
  1  6  1  0  0  0  0
  1  2  1  0  0  0  0
  2  9  1  6  0  0  0
  2  4  1  0  0  0  0
  2  3  1  0  0  0  0
  3 10  1  0  0  0  0
  4  5  2  0  0  0  0
  7  1  1  0  0  0  0
  8  1  1  0  0  0  0
 11  3  1  0  0  0  0
 12 19  1  0  0  0  0
 12 20  1  0  0  0  0
 13 22  1  1  0  0  0
 13 12  1  0  0  0  0
 14 23  1  0  0  0  0
 14 13  1  0  0  0  0
 15 13  1  0  0  0  0
 15 24  1  1  0  0  0
 16  4  1  0  0  0  0
 16 15  1  0  0  0  0
 17 18  2  0  0  0  0
 17 15  1  0  0  0  0
 21 12  1  0  0  0  0
 25 16  1  0  0  0  0
 26 17  1  0  0  0  0
 27 26  1  0  0  0  0
 27 28  1  0  0  0  0
 28 30  1  0  0  0  0
 29 28  2  0  0  0  0
 31 26  1  0  0  0  0
 32 27  1  0  0  0  0
 33 27  1  0  0  0  0
M  END
$$$$
