ATH.pdb
 OpenBabel07022418023D

 43 43  0  0  1  0  0  0  0  0999 V2000
    2.7120   -2.6150    2.9020 C   0  0  0  0  0  0  0  0  0  0  0  0
    3.4480   -2.6060    1.6020 C   0  0  2  0  0  0  0  0  0  0  0  0
    4.8670   -2.5890    1.8910 N   0  0  0  0  0  0  0  0  0  0  0  0
    3.1200   -1.5200    0.7030 C   0  0  0  0  0  0  0  0  0  0  0  0
    4.0230   -0.7450    0.3070 O   0  0  0  0  0  0  0  0  0  0  0  0
    2.7790   -3.6480    3.3170 H   0  0  0  0  0  0  0  0  0  0  0  0
    3.2590   -1.9610    3.6170 H   0  0  0  0  0  0  0  0  0  0  0  0
    1.6580   -2.3540    2.8470 H   0  0  0  0  0  0  0  0  0  0  0  0
    3.2610   -3.5840    1.0720 H   0  0  0  0  0  0  0  0  0  0  0  0
    5.1610   -1.6180    2.1340 H   0  0  0  0  0  0  0  0  0  0  0  0
    4.9990   -3.2120    2.7390 H   0  0  0  0  0  0  0  0  0  0  0  0
   -0.2880   -1.4970   -1.8400 C   0  0  0  0  0  0  0  0  0  0  0  0
    0.9460   -0.6700   -1.9970 C   0  0  1  0  0  0  0  0  0  0  0  0
    0.6620    0.4040   -2.8460 O   0  0  0  0  0  0  0  0  0  0  0  0
    1.4980   -0.1770   -0.6720 C   0  0  2  0  0  0  0  0  0  0  0  0
    1.8000   -1.2570    0.2180 N   0  0  0  0  0  0  0  0  0  0  0  0
    0.5900    0.8280   -0.0720 C   0  0  0  0  0  0  0  0  0  0  0  0
    0.2240    1.8180   -0.7490 O   0  0  0  0  0  0  0  0  0  0  0  0
   -0.3930   -1.9780   -0.8640 H   0  0  0  0  0  0  0  0  0  0  0  0
   -0.2570   -2.3110   -2.6200 H   0  0  0  0  0  0  0  0  0  0  0  0
   -1.1780   -0.8440   -2.0770 H   0  0  0  0  0  0  0  0  0  0  0  0
    1.7340   -1.2960   -2.4970 H   0  0  0  0  0  0  0  0  0  0  0  0
    0.0380    0.1420   -3.5570 H   0  0  0  0  0  0  0  0  0  0  0  0
    2.4710    0.3630   -0.8630 H   0  0  0  0  0  0  0  0  0  0  0  0
    1.0630   -1.9110    0.5580 H   0  0  0  0  0  0  0  0  0  0  0  0
    0.0920    0.7440    1.2570 N   0  0  0  0  0  0  0  0  0  0  0  0
   -0.7820    1.7000    1.8580 C   0  0  1  0  0  0  0  0  0  0  0  0
   -2.0590    1.0810    2.3090 C   0  0  0  0  0  0  0  0  0  0  0  0
   -2.7470    0.4870    1.1380 C   0  0  0  0  0  0  0  0  0  0  0  0
   -2.6100   -0.8120    0.6660 C   0  0  0  0  0  0  0  0  0  0  0  0
   -3.4190   -0.9580   -0.4230 N   0  0  0  0  0  0  0  0  0  0  0  0
   -4.0410    0.2080   -0.6250 C   0  0  0  0  0  0  0  0  0  0  0  0
   -3.6390    1.0730    0.3100 N   0  0  0  0  0  0  0  0  0  0  0  0
   -0.1170    2.4950    2.9230 C   0  0  0  0  0  0  0  0  0  0  0  0
   -0.8010    3.3630    3.5080 O   0  0  0  0  0  0  0  0  0  0  0  0
    1.1990    2.3240    3.2920 O   0  0  0  0  0  0  0  0  0  0  0  0
    0.3950   -0.0790    1.8210 H   0  0  0  0  0  0  0  0  0  0  0  0
   -1.0290    2.4590    1.0580 H   0  0  0  0  0  0  0  0  0  0  0  0
   -2.7160    1.8680    2.7640 H   0  0  0  0  0  0  0  0  0  0  0  0
   -1.9140    0.3250    3.1000 H   0  0  0  0  0  0  0  0  0  0  0  0
   -1.9760   -1.6090    1.0650 H   0  0  0  0  0  0  0  0  0  0  0  0
   -3.5400   -1.8270   -1.0070 H   0  0  0  0  0  0  0  0  0  0  0  0
   -4.7440    0.4190   -1.4040 H   0  0  0  0  0  0  0  0  0  0  0  0
  1  6  1  0  0  0  0
  1  7  1  0  0  0  0
  2  9  1  6  0  0  0
  2  3  1  0  0  0  0
  2  1  1  0  0  0  0
  3 10  1  0  0  0  0
  3 11  1  0  0  0  0
  4  2  1  0  0  0  0
  5  4  2  0  0  0  0
  8  1  1  0  0  0  0
 12 19  1  0  0  0  0
 13 22  1  6  0  0  0
 13 12  1  0  0  0  0
 13 15  1  0  0  0  0
 14 13  1  0  0  0  0
 15 24  1  6  0  0  0
 15 17  1  0  0  0  0
 15 16  1  0  0  0  0
 16 25  1  0  0  0  0
 16  4  1  0  0  0  0
 17 26  1  0  0  0  0
 18 17  2  0  0  0  0
 20 12  1  0  0  0  0
 21 12  1  0  0  0  0
 23 14  1  0  0  0  0
 26 37  1  0  0  0  0
 26 27  1  0  0  0  0
 27 38  1  6  0  0  0
 27 28  1  0  0  0  0
 27 34  1  0  0  0  0
 28 39  1  0  0  0  0
 28 40  1  0  0  0  0
 29 28  1  0  0  0  0
 30 41  1  0  0  0  0
 30 29  2  0  0  0  0
 31 30  1  0  0  0  0
 32 31  1  0  0  0  0
 32 33  2  0  0  0  0
 33 29  1  0  0  0  0
 34 36  2  0  0  0  0
 34 35  1  0  0  0  0
 42 31  1  0  0  0  0
 43 32  1  0  0  0  0
M  END
$$$$
