ATK.pdb
 OpenBabel07022418023D

 47 46  0  0  1  0  0  0  0  0999 V2000
    2.9140   -3.8280   -1.0170 C   0  0  0  0  0  0  0  0  0  0  0  0
    2.7840   -2.9020    0.1770 C   0  0  2  0  0  0  0  0  0  0  0  0
    2.6010   -3.7300    1.3450 N   0  0  0  0  0  0  0  0  0  0  0  0
    1.5570   -2.0600   -0.0730 C   0  0  0  0  0  0  0  0  0  0  0  0
    0.5850   -2.1500    0.6850 O   0  0  0  0  0  0  0  0  0  0  0  0
    2.8520   -3.2520   -1.9460 H   0  0  0  0  0  0  0  0  0  0  0  0
    3.8130   -4.4600   -0.9450 H   0  0  0  0  0  0  0  0  0  0  0  0
    1.9960   -4.4840   -0.9840 H   0  0  0  0  0  0  0  0  0  0  0  0
    3.6640   -2.2730    0.3090 H   0  0  0  0  0  0  0  0  0  0  0  0
    1.8730   -4.4660    1.2090 H   0  0  0  0  0  0  0  0  0  0  0  0
    2.3470   -3.1220    2.1370 H   0  0  0  0  0  0  0  0  0  0  0  0
   -1.4740   -2.0060   -1.4300 C   0  0  0  0  0  0  0  0  0  0  0  0
   -0.7620   -0.9300   -2.1730 C   0  0  1  0  0  0  0  0  0  0  0  0
   -1.7050    0.1020   -2.3950 O   0  0  0  0  0  0  0  0  0  0  0  0
    0.4100   -0.3150   -1.5060 C   0  0  2  0  0  0  0  0  0  0  0  0
    1.4990   -1.1560   -1.1770 N   0  0  0  0  0  0  0  0  0  0  0  0
   -0.0280    0.6360   -0.4490 C   0  0  0  0  0  0  0  0  0  0  0  0
   -1.0770    1.2800   -0.6980 O   0  0  0  0  0  0  0  0  0  0  0  0
   -1.8620   -1.6780   -0.4540 H   0  0  0  0  0  0  0  0  0  0  0  0
   -0.9530   -2.9850   -1.4200 H   0  0  0  0  0  0  0  0  0  0  0  0
   -2.4110   -2.2190   -2.0310 H   0  0  0  0  0  0  0  0  0  0  0  0
   -0.5410   -1.3270   -3.1910 H   0  0  0  0  0  0  0  0  0  0  0  0
   -2.3740   -0.2040   -3.0810 H   0  0  0  0  0  0  0  0  0  0  0  0
    0.8300    0.4180   -2.2930 H   0  0  0  0  0  0  0  0  0  0  0  0
    2.3910   -1.1690   -1.7630 H   0  0  0  0  0  0  0  0  0  0  0  0
    0.6380    0.8580    0.7750 N   0  0  0  0  0  0  0  0  0  0  0  0
    0.0760    1.8160    1.6930 C   0  0  1  0  0  0  0  0  0  0  0  0
    0.1570    1.4720    3.1090 C   0  0  0  0  0  0  0  0  0  0  0  0
   -0.4240    0.2660    3.6860 C   0  0  0  0  0  0  0  0  0  0  0  0
   -1.8820    0.0100    3.6370 C   0  0  0  0  0  0  0  0  0  0  0  0
   -2.5320   -0.1660    2.3230 C   0  0  0  0  0  0  0  0  0  0  0  0
   -3.9790   -0.4350    2.5510 N   0  0  0  0  0  0  0  0  0  0  0  0
    0.9420    3.0920    1.5590 C   0  0  0  0  0  0  0  0  0  0  0  0
    0.6510    4.0760    2.2620 O   0  0  0  0  0  0  0  0  0  0  0  0
    2.0020    3.1390    0.6900 O   0  0  0  0  0  0  0  0  0  0  0  0
    1.5350    0.3310    0.9890 H   0  0  0  0  0  0  0  0  0  0  0  0
   -0.8920    2.1610    1.3360 H   0  0  0  0  0  0  0  0  0  0  0  0
    1.2360    1.6430    3.4850 H   0  0  0  0  0  0  0  0  0  0  0  0
   -0.3540    2.3520    3.6580 H   0  0  0  0  0  0  0  0  0  0  0  0
    0.1350   -0.6800    3.3860 H   0  0  0  0  0  0  0  0  0  0  0  0
   -0.1750    0.3040    4.8120 H   0  0  0  0  0  0  0  0  0  0  0  0
   -2.4290    0.8000    4.2670 H   0  0  0  0  0  0  0  0  0  0  0  0
   -2.1340   -0.9300    4.2380 H   0  0  0  0  0  0  0  0  0  0  0  0
   -2.4290    0.6300    1.5860 H   0  0  0  0  0  0  0  0  0  0  0  0
   -2.1380   -1.1020    1.8460 H   0  0  0  0  0  0  0  0  0  0  0  0
   -4.3330   -0.9640    1.7080 H   0  0  0  0  0  0  0  0  0  0  0  0
   -4.4610    0.5040    2.4900 H   0  0  0  0  0  0  0  0  0  0  0  0
  1  8  1  0  0  0  0
  1  7  1  0  0  0  0
  1  2  1  0  0  0  0
  2  9  1  1  0  0  0
  2  3  1  0  0  0  0
  3 11  1  0  0  0  0
  4  2  1  0  0  0  0
  4  5  2  0  0  0  0
  6  1  1  0  0  0  0
 10  3  1  0  0  0  0
 12 20  1  0  0  0  0
 12 19  1  0  0  0  0
 13 22  1  6  0  0  0
 13 15  1  0  0  0  0
 13 12  1  0  0  0  0
 14 13  1  0  0  0  0
 15 24  1  6  0  0  0
 15 16  1  0  0  0  0
 15 17  1  0  0  0  0
 16  4  1  0  0  0  0
 17 26  1  0  0  0  0
 18 17  2  0  0  0  0
 21 12  1  0  0  0  0
 23 14  1  0  0  0  0
 25 16  1  0  0  0  0
 26 36  1  0  0  0  0
 26 27  1  0  0  0  0
 27 37  1  6  0  0  0
 27 28  1  0  0  0  0
 28 38  1  0  0  0  0
 28 39  1  0  0  0  0
 28 29  1  0  0  0  0
 29 41  1  0  0  0  0
 30 29  1  0  0  0  0
 30 43  1  0  0  0  0
 30 42  1  0  0  0  0
 31 32  1  0  0  0  0
 31 30  1  0  0  0  0
 33 27  1  0  0  0  0
 33 34  1  0  0  0  0
 35 33  2  0  0  0  0
 40 29  1  0  0  0  0
 44 31  1  0  0  0  0
 45 31  1  0  0  0  0
 46 32  1  0  0  0  0
 47 32  1  0  0  0  0
M  END
$$$$
