ATL.pdb
 OpenBabel07022418023D

 45 44  0  0  1  0  0  0  0  0999 V2000
   -1.3290   -5.3720    2.8050 C   0  0  0  0  0  0  0  0  0  0  0  0
   -1.9370   -4.1010    2.2520 C   0  0  2  0  0  0  0  0  0  0  0  0
   -2.7090   -4.3810    1.0620 N   0  0  0  0  0  0  0  0  0  0  0  0
   -0.8400   -3.1460    1.9920 C   0  0  0  0  0  0  0  0  0  0  0  0
   -0.0580   -2.7880    2.9120 O   0  0  0  0  0  0  0  0  0  0  0  0
   -2.0890   -5.9810    3.3370 H   0  0  0  0  0  0  0  0  0  0  0  0
   -0.8180   -5.9590    2.0050 H   0  0  0  0  0  0  0  0  0  0  0  0
   -0.5210   -5.0660    3.5140 H   0  0  0  0  0  0  0  0  0  0  0  0
   -2.6520   -3.7280    3.0180 H   0  0  0  0  0  0  0  0  0  0  0  0
   -3.3820   -5.1590    1.2050 H   0  0  0  0  0  0  0  0  0  0  0  0
   -2.1010   -4.5950    0.2310 H   0  0  0  0  0  0  0  0  0  0  0  0
    2.3780   -3.1350   -0.0140 C   0  0  0  0  0  0  0  0  0  0  0  0
    1.4980   -2.0150   -0.5460 C   0  0  1  0  0  0  0  0  0  0  0  0
    1.0280   -2.2500   -1.8090 O   0  0  0  0  0  0  0  0  0  0  0  0
    0.4910   -1.6370    0.4680 C   0  0  2  0  0  0  0  0  0  0  0  0
   -0.5580   -2.5580    0.7430 N   0  0  0  0  0  0  0  0  0  0  0  0
   -0.1060   -0.3280    0.0950 C   0  0  0  0  0  0  0  0  0  0  0  0
   -1.3760   -0.1920    0.0440 O   0  0  0  0  0  0  0  0  0  0  0  0
    2.3430   -3.0590    1.0920 H   0  0  0  0  0  0  0  0  0  0  0  0
    3.4610   -2.9670   -0.2790 H   0  0  0  0  0  0  0  0  0  0  0  0
    2.1190   -4.1160   -0.4140 H   0  0  0  0  0  0  0  0  0  0  0  0
    2.1860   -1.1460   -0.6400 H   0  0  0  0  0  0  0  0  0  0  0  0
    1.6140   -2.0100   -2.5450 H   0  0  0  0  0  0  0  0  0  0  0  0
    1.0350   -1.4810    1.4240 H   0  0  0  0  0  0  0  0  0  0  0  0
   -1.1660   -2.8080   -0.0700 H   0  0  0  0  0  0  0  0  0  0  0  0
    0.7190    4.3890    2.3810 C   0  0  0  0  0  0  0  0  0  0  0  0
    0.1810    3.0970    1.7360 C   0  0  0  0  0  0  0  0  0  0  0  0
    0.8400    1.9580    2.4330 C   0  0  0  0  0  0  0  0  0  0  0  0
    0.4360    3.2210    0.2790 C   0  0  0  0  0  0  0  0  0  0  0  0
   -0.0060    2.0850   -0.5790 C   0  0  2  0  0  0  0  0  0  0  0  0
    0.6420    0.8400   -0.2230 N   0  0  0  0  0  0  0  0  0  0  0  0
    0.3670    2.3910   -1.9940 C   0  0  0  0  0  0  0  0  0  0  0  0
   -0.0700    3.4430   -2.5710 O   0  0  0  0  0  0  0  0  0  0  0  0
    1.1870    1.5380   -2.6880 O   0  0  0  0  0  0  0  0  0  0  0  0
    0.6260    4.2880    3.4830 H   0  0  0  0  0  0  0  0  0  0  0  0
    1.8100    4.4240    2.1150 H   0  0  0  0  0  0  0  0  0  0  0  0
    0.1910    5.2750    1.9810 H   0  0  0  0  0  0  0  0  0  0  0  0
   -0.9040    3.0890    1.9610 H   0  0  0  0  0  0  0  0  0  0  0  0
    0.1660    1.0840    2.5830 H   0  0  0  0  0  0  0  0  0  0  0  0
    1.7930    1.6260    2.0210 H   0  0  0  0  0  0  0  0  0  0  0  0
    1.0620    2.2920    3.4950 H   0  0  0  0  0  0  0  0  0  0  0  0
   -0.1500    4.1240   -0.0700 H   0  0  0  0  0  0  0  0  0  0  0  0
    1.4950    3.4640    0.0440 H   0  0  0  0  0  0  0  0  0  0  0  0
   -1.1080    1.9250   -0.5210 H   0  0  0  0  0  0  0  0  0  0  0  0
    1.6890    0.7540   -0.1890 H   0  0  0  0  0  0  0  0  0  0  0  0
  1  6  1  0  0  0  0
  1  8  1  0  0  0  0
  2  1  1  0  0  0  0
  2  9  1  1  0  0  0
  3 10  1  0  0  0  0
  3  2  1  0  0  0  0
  4  2  1  0  0  0  0
  4  5  2  0  0  0  0
  7  1  1  0  0  0  0
 11  3  1  0  0  0  0
 12 19  1  0  0  0  0
 13 22  1  6  0  0  0
 13 12  1  0  0  0  0
 13 15  1  0  0  0  0
 14 13  1  0  0  0  0
 15 16  1  0  0  0  0
 15 24  1  1  0  0  0
 16  4  1  0  0  0  0
 17 15  1  0  0  0  0
 18 17  2  0  0  0  0
 20 12  1  0  0  0  0
 21 12  1  0  0  0  0
 23 14  1  0  0  0  0
 25 16  1  0  0  0  0
 26 35  1  0  0  0  0
 27 38  1  0  0  0  0
 27 26  1  0  0  0  0
 27 28  1  0  0  0  0
 28 39  1  0  0  0  0
 28 41  1  0  0  0  0
 29 27  1  0  0  0  0
 30 44  1  1  0  0  0
 30 31  1  0  0  0  0
 30 29  1  0  0  0  0
 31 45  1  0  0  0  0
 31 17  1  0  0  0  0
 32 30  1  0  0  0  0
 33 32  1  0  0  0  0
 34 32  2  0  0  0  0
 36 26  1  0  0  0  0
 37 26  1  0  0  0  0
 40 28  1  0  0  0  0
 42 29  1  0  0  0  0
 43 29  1  0  0  0  0
M  END
$$$$
