ATM.pdb
 OpenBabel07022418023D

 43 42  0  0  1  0  0  0  0  0999 V2000
   -0.5330   -2.9690    3.1220 C   0  0  0  0  0  0  0  0  0  0  0  0
   -0.5710   -3.7420    1.8220 C   0  0  2  0  0  0  0  0  0  0  0  0
    0.2240   -4.9520    1.9200 N   0  0  0  0  0  0  0  0  0  0  0  0
   -0.1600   -2.9120    0.6610 C   0  0  0  0  0  0  0  0  0  0  0  0
    0.8000   -3.3180   -0.0740 O   0  0  0  0  0  0  0  0  0  0  0  0
   -1.3090   -3.3760    3.7990 H   0  0  0  0  0  0  0  0  0  0  0  0
    0.4620   -3.1350    3.5900 H   0  0  0  0  0  0  0  0  0  0  0  0
   -0.7630   -1.8930    2.9700 H   0  0  0  0  0  0  0  0  0  0  0  0
   -1.6260   -4.0590    1.6620 H   0  0  0  0  0  0  0  0  0  0  0  0
   -0.1100   -5.5410    2.6970 H   0  0  0  0  0  0  0  0  0  0  0  0
    0.1230   -5.4410    0.9990 H   0  0  0  0  0  0  0  0  0  0  0  0
   -1.9660   -2.0520   -2.3360 C   0  0  0  0  0  0  0  0  0  0  0  0
   -1.5810   -0.7360   -1.7450 C   0  0  1  0  0  0  0  0  0  0  0  0
   -2.7080   -0.1780   -1.1310 O   0  0  0  0  0  0  0  0  0  0  0  0
   -0.4640   -0.8530   -0.7290 C   0  0  2  0  0  0  0  0  0  0  0  0
   -0.8300   -1.6910    0.3850 N   0  0  0  0  0  0  0  0  0  0  0  0
   -0.0050    0.5030   -0.2900 C   0  0  0  0  0  0  0  0  0  0  0  0
    0.3390    1.2860   -1.1910 O   0  0  0  0  0  0  0  0  0  0  0  0
   -1.1160   -2.5130   -2.8720 H   0  0  0  0  0  0  0  0  0  0  0  0
   -2.4290   -2.7430   -1.5860 H   0  0  0  0  0  0  0  0  0  0  0  0
   -2.7540   -1.8610   -3.0930 H   0  0  0  0  0  0  0  0  0  0  0  0
   -1.2970   -0.0550   -2.5720 H   0  0  0  0  0  0  0  0  0  0  0  0
   -3.5270   -0.3700   -1.6150 H   0  0  0  0  0  0  0  0  0  0  0  0
    0.3920   -1.3050   -1.2750 H   0  0  0  0  0  0  0  0  0  0  0  0
   -1.6040   -1.4190    1.0250 H   0  0  0  0  0  0  0  0  0  0  0  0
    5.1020    0.8350    0.8920 C   0  0  0  0  0  0  0  0  0  0  0  0
    4.3460    1.2090    2.4710 S   0  0  0  0  0  0  0  0  0  0  0  0
    2.5540    1.1500    2.4450 C   0  0  0  0  0  0  0  0  0  0  0  0
    1.9640    2.2370    1.5770 C   0  0  0  0  0  0  0  0  0  0  0  0
    0.4610    2.1760    1.5660 C   0  0  2  0  0  0  0  0  0  0  0  0
    0.0470    0.9020    1.0510 N   0  0  0  0  0  0  0  0  0  0  0  0
   -0.1130    3.3420    0.8480 C   0  0  0  0  0  0  0  0  0  0  0  0
   -0.9400    3.1550   -0.0610 O   0  0  0  0  0  0  0  0  0  0  0  0
    0.2470    4.6390    1.1600 O   0  0  0  0  0  0  0  0  0  0  0  0
    6.0810    1.3830    0.8480 H   0  0  0  0  0  0  0  0  0  0  0  0
    5.2720   -0.2540    0.7370 H   0  0  0  0  0  0  0  0  0  0  0  0
    4.5140    1.1890    0.0250 H   0  0  0  0  0  0  0  0  0  0  0  0
    2.1930    1.3130    3.4820 H   0  0  0  0  0  0  0  0  0  0  0  0
    2.2520    0.1360    2.1350 H   0  0  0  0  0  0  0  0  0  0  0  0
    2.2830    3.2130    2.0220 H   0  0  0  0  0  0  0  0  0  0  0  0
    2.3330    2.1920    0.5490 H   0  0  0  0  0  0  0  0  0  0  0  0
    0.0840    2.2350    2.6480 H   0  0  0  0  0  0  0  0  0  0  0  0
   -0.2550    0.1690    1.7600 H   0  0  0  0  0  0  0  0  0  0  0  0
  1  7  1  0  0  0  0
  1  6  1  0  0  0  0
  2  9  1  6  0  0  0
  2  3  1  0  0  0  0
  2  1  1  0  0  0  0
  3 10  1  0  0  0  0
  4  2  1  0  0  0  0
  5  4  2  0  0  0  0
  8  1  1  0  0  0  0
 11  3  1  0  0  0  0
 12 13  1  0  0  0  0
 12 20  1  0  0  0  0
 13 22  1  6  0  0  0
 13 14  1  0  0  0  0
 13 15  1  0  0  0  0
 15 24  1  6  0  0  0
 15 17  1  0  0  0  0
 15 16  1  0  0  0  0
 16  4  1  0  0  0  0
 16 25  1  0  0  0  0
 17 31  1  0  0  0  0
 18 17  2  0  0  0  0
 19 12  1  0  0  0  0
 21 12  1  0  0  0  0
 23 14  1  0  0  0  0
 26 27  1  0  0  0  0
 28 27  1  0  0  0  0
 28 38  1  0  0  0  0
 29 40  1  0  0  0  0
 29 28  1  0  0  0  0
 30 29  1  0  0  0  0
 30 42  1  1  0  0  0
 31 30  1  0  0  0  0
 31 43  1  0  0  0  0
 32 34  1  0  0  0  0
 32 30  1  0  0  0  0
 33 32  2  0  0  0  0
 35 26  1  0  0  0  0
 36 26  1  0  0  0  0
 37 26  1  0  0  0  0
 39 28  1  0  0  0  0
 41 29  1  0  0  0  0
M  END
$$$$
