ATN.pdb
 OpenBabel07022418023D

 40 39  0  0  1  0  0  0  0  0999 V2000
    0.5160   -5.0000   -0.2180 C   0  0  0  0  0  0  0  0  0  0  0  0
   -0.3810   -3.8150    0.1280 C   0  0  2  0  0  0  0  0  0  0  0  0
   -0.7450   -3.1520   -1.0920 N   0  0  0  0  0  0  0  0  0  0  0  0
    0.2980   -2.9660    1.1230 C   0  0  0  0  0  0  0  0  0  0  0  0
    0.5550   -3.5030    2.2290 O   0  0  0  0  0  0  0  0  0  0  0  0
    0.0570   -5.9710    0.0430 H   0  0  0  0  0  0  0  0  0  0  0  0
    0.8110   -4.9370   -1.2690 H   0  0  0  0  0  0  0  0  0  0  0  0
    1.4460   -4.9170    0.3840 H   0  0  0  0  0  0  0  0  0  0  0  0
   -1.2990   -4.2670    0.5840 H   0  0  0  0  0  0  0  0  0  0  0  0
   -1.7780   -3.1320   -1.2510 H   0  0  0  0  0  0  0  0  0  0  0  0
   -0.2070   -3.4860   -1.9230 H   0  0  0  0  0  0  0  0  0  0  0  0
    3.6390   -1.6010    1.2970 C   0  0  0  0  0  0  0  0  0  0  0  0
    2.7380   -0.4190    1.6070 C   0  0  1  0  0  0  0  0  0  0  0  0
    2.6820    0.4550    0.5150 O   0  0  0  0  0  0  0  0  0  0  0  0
    1.3540   -0.8800    2.0140 C   0  0  2  0  0  0  0  0  0  0  0  0
    0.6890   -1.6230    0.9670 N   0  0  0  0  0  0  0  0  0  0  0  0
    0.5630    0.3640    2.2090 C   0  0  0  0  0  0  0  0  0  0  0  0
    0.9550    1.1790    3.1140 O   0  0  0  0  0  0  0  0  0  0  0  0
    3.4740   -2.4530    1.9770 H   0  0  0  0  0  0  0  0  0  0  0  0
    4.7160   -1.3620    1.3440 H   0  0  0  0  0  0  0  0  0  0  0  0
    3.4980   -1.9030    0.2060 H   0  0  0  0  0  0  0  0  0  0  0  0
    3.1800    0.1350    2.4310 H   0  0  0  0  0  0  0  0  0  0  0  0
    3.4270    0.3640   -0.1160 H   0  0  0  0  0  0  0  0  0  0  0  0
    1.4580   -1.5000    2.9180 H   0  0  0  0  0  0  0  0  0  0  0  0
    0.4970   -1.1520    0.0650 H   0  0  0  0  0  0  0  0  0  0  0  0
    0.7400    3.0150   -1.0710 N   0  0  0  0  0  0  0  0  0  0  0  0
    0.0920    3.1350    0.1510 C   0  0  0  0  0  0  0  0  0  0  0  0
    0.7250    3.5560    1.1760 O   0  0  0  0  0  0  0  0  0  0  0  0
   -1.3480    2.8050    0.4320 C   0  0  0  0  0  0  0  0  0  0  0  0
   -1.3290    1.9610    1.6920 C   0  0  2  0  0  0  0  0  0  0  0  0
   -0.5710    0.7400    1.5010 N   0  0  0  0  0  0  0  0  0  0  0  0
   -2.7270    1.6310    2.0580 C   0  0  0  0  0  0  0  0  0  0  0  0
   -3.5980    2.5110    2.2720 O   0  0  0  0  0  0  0  0  0  0  0  0
   -3.1000    0.3050    2.1770 O   0  0  0  0  0  0  0  0  0  0  0  0
    0.2620    2.9050   -1.9880 H   0  0  0  0  0  0  0  0  0  0  0  0
    1.7980    3.0320   -1.0930 H   0  0  0  0  0  0  0  0  0  0  0  0
   -1.8280    3.7850    0.6270 H   0  0  0  0  0  0  0  0  0  0  0  0
   -1.8480    2.3600   -0.4210 H   0  0  0  0  0  0  0  0  0  0  0  0
   -0.9010    2.5350    2.5280 H   0  0  0  0  0  0  0  0  0  0  0  0
   -0.9300    0.0800    0.7540 H   0  0  0  0  0  0  0  0  0  0  0  0
  1  6  1  0  0  0  0
  1  2  1  0  0  0  0
  1  8  1  0  0  0  0
  2  9  1  1  0  0  0
  2  4  1  0  0  0  0
  3  2  1  0  0  0  0
  4  5  2  0  0  0  0
  7  1  1  0  0  0  0
 10  3  1  0  0  0  0
 11  3  1  0  0  0  0
 12 20  1  0  0  0  0
 12 13  1  0  0  0  0
 12 19  1  0  0  0  0
 13 15  1  0  0  0  0
 13 22  1  1  0  0  0
 14 13  1  0  0  0  0
 15 17  1  0  0  0  0
 15 24  1  1  0  0  0
 16  4  1  0  0  0  0
 16 15  1  0  0  0  0
 17 18  2  0  0  0  0
 21 12  1  0  0  0  0
 23 14  1  0  0  0  0
 25 16  1  0  0  0  0
 26 27  1  0  0  0  0
 27 29  1  0  0  0  0
 27 28  2  0  0  0  0
 29 37  1  0  0  0  0
 29 30  1  0  0  0  0
 30 32  1  0  0  0  0
 30 39  1  1  0  0  0
 31 30  1  0  0  0  0
 31 17  1  0  0  0  0
 32 34  2  0  0  0  0
 32 33  1  0  0  0  0
 35 26  1  0  0  0  0
 36 26  1  0  0  0  0
 38 29  1  0  0  0  0
 40 31  1  0  0  0  0
M  END
$$$$
