ATQ.pdb
 OpenBabel07022418023D

 43 42  0  0  1  0  0  0  0  0999 V2000
    4.0380   -1.9400   -1.8580 C   0  0  0  0  0  0  0  0  0  0  0  0
    3.2760   -1.1230   -0.8360 C   0  0  2  0  0  0  0  0  0  0  0  0
    3.1920   -1.8960    0.3910 N   0  0  0  0  0  0  0  0  0  0  0  0
    1.9440   -0.7050   -1.3100 C   0  0  0  0  0  0  0  0  0  0  0  0
    1.8750   -0.0260   -2.3670 O   0  0  0  0  0  0  0  0  0  0  0  0
    4.2620   -1.3190   -2.7510 H   0  0  0  0  0  0  0  0  0  0  0  0
    4.9480   -2.3230   -1.3570 H   0  0  0  0  0  0  0  0  0  0  0  0
    3.3930   -2.7940   -2.2040 H   0  0  0  0  0  0  0  0  0  0  0  0
    3.8460   -0.2110   -0.6000 H   0  0  0  0  0  0  0  0  0  0  0  0
    2.5680   -2.7350    0.2670 H   0  0  0  0  0  0  0  0  0  0  0  0
    4.1150   -2.2460    0.6800 H   0  0  0  0  0  0  0  0  0  0  0  0
   -1.9950   -2.2670   -0.2280 C   0  0  0  0  0  0  0  0  0  0  0  0
   -1.5420   -1.5910   -1.4910 C   0  0  1  0  0  0  0  0  0  0  0  0
   -2.6800   -0.8950   -1.9750 O   0  0  0  0  0  0  0  0  0  0  0  0
   -0.5190   -0.5700   -1.1800 C   0  0  2  0  0  0  0  0  0  0  0  0
    0.7290   -1.0000   -0.6770 N   0  0  0  0  0  0  0  0  0  0  0  0
   -1.1150    0.3840   -0.1810 C   0  0  0  0  0  0  0  0  0  0  0  0
   -2.2490    0.9060   -0.3600 O   0  0  0  0  0  0  0  0  0  0  0  0
   -2.3740   -1.5200    0.4970 H   0  0  0  0  0  0  0  0  0  0  0  0
   -1.2320   -2.8910    0.2500 H   0  0  0  0  0  0  0  0  0  0  0  0
   -2.8770   -2.9460   -0.4170 H   0  0  0  0  0  0  0  0  0  0  0  0
   -1.2830   -2.2900   -2.2960 H   0  0  0  0  0  0  0  0  0  0  0  0
   -2.4840   -0.6070   -2.9150 H   0  0  0  0  0  0  0  0  0  0  0  0
   -0.3250    0.0050   -2.1300 H   0  0  0  0  0  0  0  0  0  0  0  0
    0.7560   -1.5630    0.2020 H   0  0  0  0  0  0  0  0  0  0  0  0
    1.3280   -1.4560    3.8430 N   0  0  0  0  0  0  0  0  0  0  0  0
    0.0680   -0.9060    3.4790 C   0  0  0  0  0  0  0  0  0  0  0  0
   -0.5920   -1.5270    2.5890 O   0  0  0  0  0  0  0  0  0  0  0  0
   -0.4710    0.3190    4.0920 C   0  0  0  0  0  0  0  0  0  0  0  0
   -1.4590    1.0570    3.2610 C   0  0  0  0  0  0  0  0  0  0  0  0
   -0.9710    1.6550    1.9880 C   0  0  2  0  0  0  0  0  0  0  0  0
   -0.4100    0.7420    1.0290 N   0  0  0  0  0  0  0  0  0  0  0  0
   -0.0820    2.8050    2.2600 C   0  0  0  0  0  0  0  0  0  0  0  0
   -0.4470    3.6700    3.0730 O   0  0  0  0  0  0  0  0  0  0  0  0
    1.1300    2.9220    1.6280 O   0  0  0  0  0  0  0  0  0  0  0  0
    1.3920   -2.4090    4.2490 H   0  0  0  0  0  0  0  0  0  0  0  0
    2.1790   -0.8950    3.6960 H   0  0  0  0  0  0  0  0  0  0  0  0
    0.3680    0.9970    4.4220 H   0  0  0  0  0  0  0  0  0  0  0  0
   -0.9490    0.0230    5.0740 H   0  0  0  0  0  0  0  0  0  0  0  0
   -1.9160    1.9000    3.8530 H   0  0  0  0  0  0  0  0  0  0  0  0
   -2.3400    0.3960    3.0200 H   0  0  0  0  0  0  0  0  0  0  0  0
   -1.8910    2.1200    1.5000 H   0  0  0  0  0  0  0  0  0  0  0  0
    0.5350    0.2940    1.1030 H   0  0  0  0  0  0  0  0  0  0  0  0
  1  7  1  0  0  0  0
  1  2  1  0  0  0  0
  2  9  1  1  0  0  0
  2  3  1  0  0  0  0
  3 11  1  0  0  0  0
  4  2  1  0  0  0  0
  4 16  1  0  0  0  0
  5  4  2  0  0  0  0
  6  1  1  0  0  0  0
  8  1  1  0  0  0  0
 10  3  1  0  0  0  0
 12 20  1  0  0  0  0
 12 19  1  0  0  0  0
 13 22  1  6  0  0  0
 13 15  1  0  0  0  0
 13 12  1  0  0  0  0
 14 13  1  0  0  0  0
 15 24  1  6  0  0  0
 15 16  1  0  0  0  0
 15 17  1  0  0  0  0
 16 25  1  0  0  0  0
 17 32  1  0  0  0  0
 18 17  2  0  0  0  0
 21 12  1  0  0  0  0
 23 14  1  0  0  0  0
 26 36  1  0  0  0  0
 27 26  1  0  0  0  0
 27 29  1  0  0  0  0
 28 27  2  0  0  0  0
 29 38  1  0  0  0  0
 29 39  1  0  0  0  0
 30 40  1  0  0  0  0
 30 29  1  0  0  0  0
 31 42  1  6  0  0  0
 31 33  1  0  0  0  0
 31 30  1  0  0  0  0
 32 43  1  0  0  0  0
 32 31  1  0  0  0  0
 33 34  1  0  0  0  0
 35 33  2  0  0  0  0
 37 26  1  0  0  0  0
 41 30  1  0  0  0  0
M  END
$$$$
