ATR.pdb
 OpenBabel07022418023D

 49 48  0  0  1  0  0  0  0  0999 V2000
    1.2790   -3.8700    2.3230 C   0  0  0  0  0  0  0  0  0  0  0  0
    2.5360   -3.0350    2.2360 C   0  0  2  0  0  0  0  0  0  0  0  0
    2.9920   -2.7770    3.5880 N   0  0  0  0  0  0  0  0  0  0  0  0
    2.3060   -1.7300    1.5730 C   0  0  0  0  0  0  0  0  0  0  0  0
    2.5080   -0.6480    2.1790 O   0  0  0  0  0  0  0  0  0  0  0  0
    0.7170   -3.6660    3.2540 H   0  0  0  0  0  0  0  0  0  0  0  0
    0.5850   -3.6970    1.4800 H   0  0  0  0  0  0  0  0  0  0  0  0
    1.6130   -4.9380    2.3500 H   0  0  0  0  0  0  0  0  0  0  0  0
    3.3380   -3.6210    1.7410 H   0  0  0  0  0  0  0  0  0  0  0  0
    3.2710   -3.6580    4.0790 H   0  0  0  0  0  0  0  0  0  0  0  0
    2.2870   -2.2470    4.1460 H   0  0  0  0  0  0  0  0  0  0  0  0
    2.3230    1.0540   -2.3380 C   0  0  0  0  0  0  0  0  0  0  0  0
    2.5850   -0.2390   -1.6360 C   0  0  1  0  0  0  0  0  0  0  0  0
    3.8980   -0.2190   -1.1750 O   0  0  0  0  0  0  0  0  0  0  0  0
    1.6070   -0.4260   -0.4760 C   0  0  2  0  0  0  0  0  0  0  0  0
    1.8480   -1.6610    0.2190 N   0  0  0  0  0  0  0  0  0  0  0  0
    0.2190   -0.2390   -0.8920 C   0  0  0  0  0  0  0  0  0  0  0  0
   -0.1020    0.7980   -1.5040 O   0  0  0  0  0  0  0  0  0  0  0  0
    3.2600    1.3680   -2.8490 H   0  0  0  0  0  0  0  0  0  0  0  0
    2.0200    1.8810   -1.6890 H   0  0  0  0  0  0  0  0  0  0  0  0
    1.5540    0.9680   -3.1450 H   0  0  0  0  0  0  0  0  0  0  0  0
    2.5100   -1.0550   -2.3740 H   0  0  0  0  0  0  0  0  0  0  0  0
    4.3700    0.6270   -1.3840 H   0  0  0  0  0  0  0  0  0  0  0  0
    1.8500    0.4000    0.2490 H   0  0  0  0  0  0  0  0  0  0  0  0
    1.6940   -2.6030   -0.2440 H   0  0  0  0  0  0  0  0  0  0  0  0
   -1.3390    1.3050    5.1590 N   0  0  0  0  0  0  0  0  0  0  0  0
   -1.0660    1.3930    3.7610 C   0  0  0  0  0  0  0  0  0  0  0  0
    0.1310    1.6490    3.3700 N   0  0  0  0  0  0  0  0  0  0  0  0
   -2.0630    1.2090    2.7730 N   0  0  0  0  0  0  0  0  0  0  0  0
   -1.7530    0.8440    1.4030 C   0  0  0  0  0  0  0  0  0  0  0  0
   -2.9880    0.7200    0.5980 C   0  0  0  0  0  0  0  0  0  0  0  0
   -2.8330    0.3620   -0.8490 C   0  0  0  0  0  0  0  0  0  0  0  0
   -2.1560   -0.9330   -1.0740 C   0  0  2  0  0  0  0  0  0  0  0  0
   -0.8400   -1.1560   -0.6580 N   0  0  0  0  0  0  0  0  0  0  0  0
   -2.2920   -1.3840   -2.4850 C   0  0  0  0  0  0  0  0  0  0  0  0
   -3.4140   -1.2610   -3.0340 O   0  0  0  0  0  0  0  0  0  0  0  0
   -1.2640   -1.9300   -3.2340 O   0  0  0  0  0  0  0  0  0  0  0  0
   -0.5800    1.0190    5.8200 H   0  0  0  0  0  0  0  0  0  0  0  0
   -2.2770    1.5160    5.5720 H   0  0  0  0  0  0  0  0  0  0  0  0
    0.3960    1.7250    2.3670 H   0  0  0  0  0  0  0  0  0  0  0  0
   -3.0600    1.3370    3.0260 H   0  0  0  0  0  0  0  0  0  0  0  0
   -1.0550    1.5620    0.9440 H   0  0  0  0  0  0  0  0  0  0  0  0
   -1.2970   -0.1870    1.4860 H   0  0  0  0  0  0  0  0  0  0  0  0
   -3.5290    1.7120    0.7200 H   0  0  0  0  0  0  0  0  0  0  0  0
   -3.7040   -0.0090    1.0940 H   0  0  0  0  0  0  0  0  0  0  0  0
   -3.8930    0.2260   -1.2320 H   0  0  0  0  0  0  0  0  0  0  0  0
   -2.4600    1.2040   -1.4650 H   0  0  0  0  0  0  0  0  0  0  0  0
   -2.7970   -1.6900   -0.4850 H   0  0  0  0  0  0  0  0  0  0  0  0
   -0.5950   -2.0300   -0.1540 H   0  0  0  0  0  0  0  0  0  0  0  0
  1  8  1  0  0  0  0
  1  6  1  0  0  0  0
  2  9  1  6  0  0  0
  2  1  1  0  0  0  0
  2  3  1  0  0  0  0
  3 10  1  0  0  0  0
  3 11  1  0  0  0  0
  4  5  2  0  0  0  0
  4  2  1  0  0  0  0
  7  1  1  0  0  0  0
 12 20  1  0  0  0  0
 12 13  1  0  0  0  0
 13 22  1  6  0  0  0
 13 14  1  0  0  0  0
 13 15  1  0  0  0  0
 15 16  1  0  0  0  0
 15 24  1  1  0  0  0
 16  4  1  0  0  0  0
 17 34  1  0  0  0  0
 17 15  1  0  0  0  0
 18 17  2  0  0  0  0
 19 12  1  0  0  0  0
 21 12  1  0  0  0  0
 23 14  1  0  0  0  0
 25 16  1  0  0  0  0
 26 39  1  0  0  0  0
 26 38  1  0  0  0  0
 27 26  1  0  0  0  0
 28 27  2  0  0  0  0
 29 41  1  0  0  0  0
 29 27  1  0  0  0  0
 30 43  1  0  0  0  0
 30 29  1  0  0  0  0
 31 44  1  0  0  0  0
 31 45  1  0  0  0  0
 31 30  1  0  0  0  0
 32 31  1  0  0  0  0
 33 32  1  0  0  0  0
 33 34  1  0  0  0  0
 33 48  1  1  0  0  0
 34 49  1  0  0  0  0
 35 33  1  0  0  0  0
 36 35  1  0  0  0  0
 37 35  2  0  0  0  0
 40 28  1  0  0  0  0
 42 30  1  0  0  0  0
 46 32  1  0  0  0  0
 47 32  1  0  0  0  0
M  END
$$$$
