ATS.pdb
 OpenBabel07022418023D

 37 36  0  0  1  0  0  0  0  0999 V2000
    0.7370   -2.8340    3.9940 C   0  0  0  0  0  0  0  0  0  0  0  0
    1.1100   -3.6250    2.7500 C   0  0  2  0  0  0  0  0  0  0  0  0
    2.3200   -4.3320    3.0180 N   0  0  0  0  0  0  0  0  0  0  0  0
    1.2440   -2.6410    1.6460 C   0  0  0  0  0  0  0  0  0  0  0  0
    2.3450   -2.4980    1.0490 O   0  0  0  0  0  0  0  0  0  0  0  0
   -0.0160   -2.0460    3.7550 H   0  0  0  0  0  0  0  0  0  0  0  0
    1.6460   -2.4160    4.4740 H   0  0  0  0  0  0  0  0  0  0  0  0
    0.2520   -3.5360    4.6900 H   0  0  0  0  0  0  0  0  0  0  0  0
    0.3010   -4.3570    2.5820 H   0  0  0  0  0  0  0  0  0  0  0  0
    2.6420   -4.9700    2.2850 H   0  0  0  0  0  0  0  0  0  0  0  0
    2.2990   -4.7410    3.9780 H   0  0  0  0  0  0  0  0  0  0  0  0
   -0.1800   -2.7300   -1.3640 C   0  0  0  0  0  0  0  0  0  0  0  0
   -0.6350   -1.3370   -0.9740 C   0  0  1  0  0  0  0  0  0  0  0  0
   -1.9570   -1.4250   -0.5840 O   0  0  0  0  0  0  0  0  0  0  0  0
    0.2730   -0.8660    0.1420 C   0  0  2  0  0  0  0  0  0  0  0  0
    0.1580   -1.8300    1.2180 N   0  0  0  0  0  0  0  0  0  0  0  0
   -0.0480    0.4940    0.5950 C   0  0  0  0  0  0  0  0  0  0  0  0
   -0.3690    0.6570    1.8000 O   0  0  0  0  0  0  0  0  0  0  0  0
   -0.4170   -2.9040   -2.4490 H   0  0  0  0  0  0  0  0  0  0  0  0
    0.9050   -2.8590   -1.2690 H   0  0  0  0  0  0  0  0  0  0  0  0
   -0.7650   -3.4730   -0.7980 H   0  0  0  0  0  0  0  0  0  0  0  0
   -0.5330   -0.7070   -1.8920 H   0  0  0  0  0  0  0  0  0  0  0  0
   -2.3100   -2.3460   -0.5750 H   0  0  0  0  0  0  0  0  0  0  0  0
    1.3040   -0.8940   -0.2440 H   0  0  0  0  0  0  0  0  0  0  0  0
   -0.7480   -1.9760    1.7370 H   0  0  0  0  0  0  0  0  0  0  0  0
    1.9450    3.4250    0.8280 O   0  0  0  0  0  0  0  0  0  0  0  0
    0.8590    3.8810    0.0870 C   0  0  0  0  0  0  0  0  0  0  0  0
   -0.3270    2.9330    0.2010 C   0  0  2  0  0  0  0  0  0  0  0  0
   -0.0050    1.6150   -0.2800 N   0  0  0  0  0  0  0  0  0  0  0  0
   -1.4430    3.5550   -0.5480 C   0  0  0  0  0  0  0  0  0  0  0  0
   -1.8260    4.7090   -0.2300 O   0  0  0  0  0  0  0  0  0  0  0  0
   -2.1040    2.9310   -1.5970 O   0  0  0  0  0  0  0  0  0  0  0  0
    2.5820    2.9780    0.2460 H   0  0  0  0  0  0  0  0  0  0  0  0
    0.5370    4.8480    0.5150 H   0  0  0  0  0  0  0  0  0  0  0  0
    1.1160    4.0560   -0.9730 H   0  0  0  0  0  0  0  0  0  0  0  0
   -0.5820    2.8790    1.2730 H   0  0  0  0  0  0  0  0  0  0  0  0
    0.2680    1.4490   -1.2900 H   0  0  0  0  0  0  0  0  0  0  0  0
  1  7  1  0  0  0  0
  1  8  1  0  0  0  0
  2  9  1  6  0  0  0
  2  3  1  0  0  0  0
  2  1  1  0  0  0  0
  3 11  1  0  0  0  0
  4  2  1  0  0  0  0
  5  4  2  0  0  0  0
  6  1  1  0  0  0  0
 10  3  1  0  0  0  0
 12 20  1  0  0  0  0
 12 13  1  0  0  0  0
 12 21  1  0  0  0  0
 13 22  1  6  0  0  0
 13 14  1  0  0  0  0
 13 15  1  0  0  0  0
 14 23  1  0  0  0  0
 15 24  1  6  0  0  0
 15 17  1  0  0  0  0
 15 16  1  0  0  0  0
 16  4  1  0  0  0  0
 16 25  1  0  0  0  0
 17 18  2  0  0  0  0
 19 12  1  0  0  0  0
 27 28  1  0  0  0  0
 27 34  1  0  0  0  0
 27 26  1  0  0  0  0
 28 36  1  1  0  0  0
 29 28  1  0  0  0  0
 29 17  1  0  0  0  0
 30 31  1  0  0  0  0
 30 28  1  0  0  0  0
 32 30  2  0  0  0  0
 33 26  1  0  0  0  0
 35 27  1  0  0  0  0
 37 29  1  0  0  0  0
M  END
$$$$
