ATV.pdb
 OpenBabel07022418023D

 42 41  0  0  1  0  0  0  0  0999 V2000
   -1.1510   -3.1510   -0.8640 C   0  0  0  0  0  0  0  0  0  0  0  0
   -1.7580   -3.4270    0.4900 C   0  0  2  0  0  0  0  0  0  0  0  0
   -3.1380   -3.8100    0.3540 N   0  0  0  0  0  0  0  0  0  0  0  0
   -1.6410   -2.3060    1.4160 C   0  0  0  0  0  0  0  0  0  0  0  0
   -2.6840   -1.8440    1.9450 O   0  0  0  0  0  0  0  0  0  0  0  0
   -1.5980   -2.2760   -1.3320 H   0  0  0  0  0  0  0  0  0  0  0  0
   -1.3800   -4.0610   -1.4920 H   0  0  0  0  0  0  0  0  0  0  0  0
   -0.0430   -3.1120   -0.7990 H   0  0  0  0  0  0  0  0  0  0  0  0
   -1.2290   -4.3080    0.9500 H   0  0  0  0  0  0  0  0  0  0  0  0
   -3.3960   -4.3650    1.1870 H   0  0  0  0  0  0  0  0  0  0  0  0
   -3.7450   -2.9570    0.2830 H   0  0  0  0  0  0  0  0  0  0  0  0
    1.8130   -1.4540    3.7390 C   0  0  0  0  0  0  0  0  0  0  0  0
    0.4380   -0.9260    3.9420 C   0  0  1  0  0  0  0  0  0  0  0  0
    0.5060    0.1830    4.7860 O   0  0  0  0  0  0  0  0  0  0  0  0
   -0.3010   -0.5720    2.6910 C   0  0  2  0  0  0  0  0  0  0  0  0
   -0.4060   -1.6860    1.7700 N   0  0  0  0  0  0  0  0  0  0  0  0
    0.1690    0.6380    2.0210 C   0  0  0  0  0  0  0  0  0  0  0  0
    0.3350    1.7210    2.6200 O   0  0  0  0  0  0  0  0  0  0  0  0
    2.0980   -1.6030    2.6800 H   0  0  0  0  0  0  0  0  0  0  0  0
    1.9710   -2.4310    4.2420 H   0  0  0  0  0  0  0  0  0  0  0  0
    2.5900   -0.7700    4.1650 H   0  0  0  0  0  0  0  0  0  0  0  0
   -0.1680   -1.6880    4.4820 H   0  0  0  0  0  0  0  0  0  0  0  0
   -0.3200    0.7460    4.7040 H   0  0  0  0  0  0  0  0  0  0  0  0
   -1.3660   -0.3580    3.0140 H   0  0  0  0  0  0  0  0  0  0  0  0
    0.4500   -2.0930    1.3130 H   0  0  0  0  0  0  0  0  0  0  0  0
    2.2500    0.3210   -1.6600 C   0  0  0  0  0  0  0  0  0  0  0  0
    2.2970    1.4760   -0.7020 C   0  0  0  0  0  0  0  0  0  0  0  0
    3.2780    1.2370    0.4040 C   0  0  0  0  0  0  0  0  0  0  0  0
    0.9180    1.7420   -0.0880 C   0  0  2  0  0  0  0  0  0  0  0  0
    0.4490    0.5810    0.6350 N   0  0  0  0  0  0  0  0  0  0  0  0
    0.0160    2.0740   -1.2300 C   0  0  0  0  0  0  0  0  0  0  0  0
   -1.0060    1.4360   -1.5220 O   0  0  0  0  0  0  0  0  0  0  0  0
    0.3820    3.1830   -1.9950 O   0  0  0  0  0  0  0  0  0  0  0  0
    1.2670    0.2240   -2.1660 H   0  0  0  0  0  0  0  0  0  0  0  0
    3.0810    0.3750   -2.3840 H   0  0  0  0  0  0  0  0  0  0  0  0
    2.4180   -0.6090   -1.0590 H   0  0  0  0  0  0  0  0  0  0  0  0
    2.5550    2.4010   -1.2830 H   0  0  0  0  0  0  0  0  0  0  0  0
    3.1720    0.2100    0.7590 H   0  0  0  0  0  0  0  0  0  0  0  0
    4.3070    1.3390   -0.0320 H   0  0  0  0  0  0  0  0  0  0  0  0
    3.1250    2.0060    1.1850 H   0  0  0  0  0  0  0  0  0  0  0  0
    0.9920    2.5810    0.6280 H   0  0  0  0  0  0  0  0  0  0  0  0
    0.3270   -0.3160    0.0720 H   0  0  0  0  0  0  0  0  0  0  0  0
  1  8  1  0  0  0  0
  1  2  1  0  0  0  0
  2  9  1  1  0  0  0
  2  4  1  0  0  0  0
  3  2  1  0  0  0  0
  3 10  1  0  0  0  0
  4 16  1  0  0  0  0
  4  5  2  0  0  0  0
  6  1  1  0  0  0  0
  7  1  1  0  0  0  0
 11  3  1  0  0  0  0
 12 13  1  0  0  0  0
 12 21  1  0  0  0  0
 12 20  1  0  0  0  0
 13 22  1  1  0  0  0
 13 14  1  0  0  0  0
 15 24  1  1  0  0  0
 15 13  1  0  0  0  0
 16 15  1  0  0  0  0
 17 18  2  0  0  0  0
 17 15  1  0  0  0  0
 19 12  1  0  0  0  0
 23 14  1  0  0  0  0
 25 16  1  0  0  0  0
 26 36  1  0  0  0  0
 26 27  1  0  0  0  0
 27 29  1  0  0  0  0
 27 28  1  0  0  0  0
 28 38  1  0  0  0  0
 28 40  1  0  0  0  0
 29 41  1  1  0  0  0
 29 30  1  0  0  0  0
 30 17  1  0  0  0  0
 31 29  1  0  0  0  0
 32 31  1  0  0  0  0
 33 31  2  0  0  0  0
 34 26  1  0  0  0  0
 35 26  1  0  0  0  0
 37 27  1  0  0  0  0
 39 28  1  0  0  0  0
 42 30  1  0  0  0  0
M  END
$$$$
