ATY.pdb
 OpenBabel07022418023D

 47 47  0  0  1  0  0  0  0  0999 V2000
    2.8950   -4.4070    2.4580 C   0  0  0  0  0  0  0  0  0  0  0  0
    1.5820   -3.6970    2.3460 C   0  0  2  0  0  0  0  0  0  0  0  0
    0.5090   -4.5670    1.9170 N   0  0  0  0  0  0  0  0  0  0  0  0
    1.7540   -2.5390    1.4310 C   0  0  0  0  0  0  0  0  0  0  0  0
    2.6510   -1.7120    1.6930 O   0  0  0  0  0  0  0  0  0  0  0  0
    2.7480   -5.4950    2.6580 H   0  0  0  0  0  0  0  0  0  0  0  0
    3.4880   -4.2250    1.5500 H   0  0  0  0  0  0  0  0  0  0  0  0
    3.4720   -4.0050    3.3230 H   0  0  0  0  0  0  0  0  0  0  0  0
    1.2820   -3.2910    3.3380 H   0  0  0  0  0  0  0  0  0  0  0  0
    0.6300   -4.8900    0.9320 H   0  0  0  0  0  0  0  0  0  0  0  0
   -0.4070   -4.1120    2.0920 H   0  0  0  0  0  0  0  0  0  0  0  0
    1.8340   -0.5940   -2.9260 C   0  0  0  0  0  0  0  0  0  0  0  0
    1.5690   -1.6940   -1.9510 C   0  0  1  0  0  0  0  0  0  0  0  0
    2.7720   -2.3910   -1.7640 O   0  0  0  0  0  0  0  0  0  0  0  0
    1.1440   -1.1900   -0.5930 C   0  0  2  0  0  0  0  0  0  0  0  0
    0.9590   -2.3260    0.2860 N   0  0  0  0  0  0  0  0  0  0  0  0
   -0.0480   -0.3220   -0.6540 C   0  0  0  0  0  0  0  0  0  0  0  0
   -0.0190    0.6870   -1.3740 O   0  0  0  0  0  0  0  0  0  0  0  0
    0.9210   -0.3120   -3.5010 H   0  0  0  0  0  0  0  0  0  0  0  0
    2.6050   -0.9480   -3.6440 H   0  0  0  0  0  0  0  0  0  0  0  0
    2.2830    0.2910   -2.4060 H   0  0  0  0  0  0  0  0  0  0  0  0
    0.8540   -2.4010   -2.3930 H   0  0  0  0  0  0  0  0  0  0  0  0
    3.5510   -1.8020   -1.7430 H   0  0  0  0  0  0  0  0  0  0  0  0
    1.9800   -0.5790   -0.1930 H   0  0  0  0  0  0  0  0  0  0  0  0
    0.2110   -3.0160    0.0670 H   0  0  0  0  0  0  0  0  0  0  0  0
   -0.0160    3.3220    5.1720 O   0  0  0  0  0  0  0  0  0  0  0  0
   -0.5610    2.9290    3.9540 C   0  0  0  0  0  0  0  0  0  0  0  0
    0.2100    2.7400    2.8240 C   0  0  0  0  0  0  0  0  0  0  0  0
   -0.3050    2.3520    1.6100 C   0  0  0  0  0  0  0  0  0  0  0  0
   -1.6440    2.1330    1.4780 C   0  0  0  0  0  0  0  0  0  0  0  0
   -2.3000    1.6970    0.1940 C   0  0  0  0  0  0  0  0  0  0  0  0
   -2.4230    0.2080    0.0730 C   0  0  2  0  0  0  0  0  0  0  0  0
   -1.2490   -0.5650    0.0650 N   0  0  0  0  0  0  0  0  0  0  0  0
   -3.2940   -0.1620   -1.0590 C   0  0  0  0  0  0  0  0  0  0  0  0
   -4.3900    0.4510   -1.1820 O   0  0  0  0  0  0  0  0  0  0  0  0
   -2.4440    2.3170    2.6020 C   0  0  0  0  0  0  0  0  0  0  0  0
   -1.9120    2.7000    3.7870 C   0  0  0  0  0  0  0  0  0  0  0  0
   -2.9990   -1.1270   -1.9900 O   0  0  0  0  0  0  0  0  0  0  0  0
    0.3790    4.2750    5.1830 H   0  0  0  0  0  0  0  0  0  0  0  0
    1.2870    2.9230    2.9600 H   0  0  0  0  0  0  0  0  0  0  0  0
    0.3590    2.2300    0.7730 H   0  0  0  0  0  0  0  0  0  0  0  0
   -1.8330    2.1840   -0.6860 H   0  0  0  0  0  0  0  0  0  0  0  0
   -3.3260    2.1130    0.2480 H   0  0  0  0  0  0  0  0  0  0  0  0
   -3.0070   -0.0900    1.0160 H   0  0  0  0  0  0  0  0  0  0  0  0
   -1.2110   -1.4520    0.6540 H   0  0  0  0  0  0  0  0  0  0  0  0
   -3.5290    2.1370    2.4850 H   0  0  0  0  0  0  0  0  0  0  0  0
   -2.5480    2.8440    4.6740 H   0  0  0  0  0  0  0  0  0  0  0  0
  1  6  1  0  0  0  0
  1  8  1  0  0  0  0
  2  1  1  0  0  0  0
  2  9  1  1  0  0  0
  3 11  1  0  0  0  0
  3  2  1  0  0  0  0
  4  5  2  0  0  0  0
  4  2  1  0  0  0  0
  7  1  1  0  0  0  0
 10  3  1  0  0  0  0
 12 21  1  0  0  0  0
 12 13  1  0  0  0  0
 13 22  1  6  0  0  0
 13 14  1  0  0  0  0
 13 15  1  0  0  0  0
 14 23  1  0  0  0  0
 15 24  1  1  0  0  0
 15 16  1  0  0  0  0
 16  4  1  0  0  0  0
 17 15  1  0  0  0  0
 17 33  1  0  0  0  0
 18 17  2  0  0  0  0
 19 12  1  0  0  0  0
 20 12  1  0  0  0  0
 25 16  1  0  0  0  0
 26 39  1  0  0  0  0
 27 26  1  0  0  0  0
 28 40  1  0  0  0  0
 28 27  2  0  0  0  0
 29 28  1  0  0  0  0
 30 29  2  0  0  0  0
 30 36  1  0  0  0  0
 31 43  1  0  0  0  0
 31 30  1  0  0  0  0
 32 31  1  0  0  0  0
 32 44  1  1  0  0  0
 33 32  1  0  0  0  0
 33 45  1  0  0  0  0
 34 32  1  0  0  0  0
 35 34  1  0  0  0  0
 36 37  2  0  0  0  0
 37 27  1  0  0  0  0
 37 47  1  0  0  0  0
 38 34  2  0  0  0  0
 41 29  1  0  0  0  0
 42 31  1  0  0  0  0
 46 36  1  0  0  0  0
M  END
$$$$
