AVC.pdb
 OpenBabel07022418033D

 39 38  0  0  1  0  0  0  0  0999 V2000
   -1.5690   -3.9010    3.9820 C   0  0  0  0  0  0  0  0  0  0  0  0
   -0.6740   -2.6880    4.0020 C   0  0  2  0  0  0  0  0  0  0  0  0
   -1.3820   -1.5890    4.5900 N   0  0  0  0  0  0  0  0  0  0  0  0
   -0.2520   -2.3720    2.6000 C   0  0  0  0  0  0  0  0  0  0  0  0
    0.3850   -3.1990    1.9000 O   0  0  0  0  0  0  0  0  0  0  0  0
   -1.4840   -4.3860    2.9900 H   0  0  0  0  0  0  0  0  0  0  0  0
   -2.6340   -3.5660    4.1220 H   0  0  0  0  0  0  0  0  0  0  0  0
   -1.2900   -4.6270    4.7950 H   0  0  0  0  0  0  0  0  0  0  0  0
    0.2170   -2.9590    4.6270 H   0  0  0  0  0  0  0  0  0  0  0  0
   -0.8160   -0.7020    4.5600 H   0  0  0  0  0  0  0  0  0  0  0  0
   -1.5170   -1.8300    5.6120 H   0  0  0  0  0  0  0  0  0  0  0  0
   -2.1580   -1.9720   -0.2770 C   0  0  0  0  0  0  0  0  0  0  0  0
   -1.3320   -0.6620   -0.2770 C   0  0  0  0  0  0  0  0  0  0  0  0
   -1.0220   -0.4390   -1.7240 C   0  0  0  0  0  0  0  0  0  0  0  0
   -0.1340   -0.8220    0.6240 C   0  0  2  0  0  0  0  0  0  0  0  0
   -0.5480   -1.1270    1.9920 N   0  0  0  0  0  0  0  0  0  0  0  0
    0.8320    0.2820    0.6050 C   0  0  0  0  0  0  0  0  0  0  0  0
    1.0950    0.8960    1.7070 O   0  0  0  0  0  0  0  0  0  0  0  0
   -2.5500   -2.1660    0.7260 H   0  0  0  0  0  0  0  0  0  0  0  0
   -3.0450   -1.7730   -0.9380 H   0  0  0  0  0  0  0  0  0  0  0  0
   -1.5010   -2.7540   -0.6670 H   0  0  0  0  0  0  0  0  0  0  0  0
   -2.0460    0.0960    0.0510 H   0  0  0  0  0  0  0  0  0  0  0  0
   -1.9630   -0.7050   -2.3160 H   0  0  0  0  0  0  0  0  0  0  0  0
   -0.8500    0.6150   -2.0040 H   0  0  0  0  0  0  0  0  0  0  0  0
   -0.2900   -1.1660   -2.0630 H   0  0  0  0  0  0  0  0  0  0  0  0
    0.3910   -1.7230    0.2780 H   0  0  0  0  0  0  0  0  0  0  0  0
   -1.0770   -0.4160    2.5460 H   0  0  0  0  0  0  0  0  0  0  0  0
    1.5460    0.7840   -0.5040 N   0  0  0  0  0  0  0  0  0  0  0  0
    2.4820    1.8890   -0.4180 C   0  0  1  0  0  0  0  0  0  0  0  0
    3.9030    1.4540   -0.7100 C   0  0  0  0  0  0  0  0  0  0  0  0
    4.1230    0.7570   -2.3330 S   0  0  0  0  0  0  0  0  0  0  0  0
    2.0580    3.0500   -1.2280 C   0  0  0  0  0  0  0  0  0  0  0  0
    0.9840    3.0590   -1.9200 O   0  0  0  0  0  0  0  0  0  0  0  0
    2.7990    4.2230   -1.2970 O   0  0  0  0  0  0  0  0  0  0  0  0
    1.4030    0.3290   -1.4310 H   0  0  0  0  0  0  0  0  0  0  0  0
    2.4890    2.2170    0.6420 H   0  0  0  0  0  0  0  0  0  0  0  0
    4.5220    2.3900   -0.6290 H   0  0  0  0  0  0  0  0  0  0  0  0
    4.2280    0.8050    0.1190 H   0  0  0  0  0  0  0  0  0  0  0  0
    4.5100    1.7110   -3.2620 H   0  0  0  0  0  0  0  0  0  0  0  0
  1  2  1  0  0  0  0
  1  7  1  0  0  0  0
  1  8  1  0  0  0  0
  2  3  1  0  0  0  0
  2  9  1  1  0  0  0
  3 11  1  0  0  0  0
  4  2  1  0  0  0  0
  5  4  2  0  0  0  0
  6  1  1  0  0  0  0
 10  3  1  0  0  0  0
 12 19  1  0  0  0  0
 13 12  1  0  0  0  0
 13 22  1  0  0  0  0
 13 15  1  0  0  0  0
 14 13  1  0  0  0  0
 15 26  1  6  0  0  0
 15 16  1  0  0  0  0
 16 27  1  0  0  0  0
 16  4  1  0  0  0  0
 17 15  1  0  0  0  0
 17 18  2  0  0  0  0
 20 12  1  0  0  0  0
 21 12  1  0  0  0  0
 23 14  1  0  0  0  0
 24 14  1  0  0  0  0
 25 14  1  0  0  0  0
 28 29  1  0  0  0  0
 28 17  1  0  0  0  0
 29 36  1  1  0  0  0
 30 37  1  0  0  0  0
 30 29  1  0  0  0  0
 30 38  1  0  0  0  0
 31 30  1  0  0  0  0
 32 29  1  0  0  0  0
 33 32  2  0  0  0  0
 34 32  1  0  0  0  0
 35 28  1  0  0  0  0
 39 31  1  0  0  0  0
M  END
$$$$
