AVH.pdb
 OpenBabel07022418033D

 45 45  0  0  1  0  0  0  0  0999 V2000
    1.6590   -3.9880    1.2400 C   0  0  0  0  0  0  0  0  0  0  0  0
    3.0390   -3.3930    1.1420 C   0  0  2  0  0  0  0  0  0  0  0  0
    3.8700   -4.0670    2.1270 N   0  0  0  0  0  0  0  0  0  0  0  0
    2.9510   -1.9540    1.4960 C   0  0  0  0  0  0  0  0  0  0  0  0
    3.5340   -1.5090    2.5220 O   0  0  0  0  0  0  0  0  0  0  0  0
    1.5380   -4.5800    2.1780 H   0  0  0  0  0  0  0  0  0  0  0  0
    0.8990   -3.1930    1.2790 H   0  0  0  0  0  0  0  0  0  0  0  0
    1.5030   -4.6620    0.3530 H   0  0  0  0  0  0  0  0  0  0  0  0
    3.4570   -3.5320    0.1210 H   0  0  0  0  0  0  0  0  0  0  0  0
    4.2640   -4.9440    1.7080 H   0  0  0  0  0  0  0  0  0  0  0  0
    3.3550   -4.2480    3.0010 H   0  0  0  0  0  0  0  0  0  0  0  0
    2.1830    0.9940   -1.3650 C   0  0  0  0  0  0  0  0  0  0  0  0
    2.8200    1.1930   -0.0080 C   0  0  0  0  0  0  0  0  0  0  0  0
    4.2540    0.7090   -0.1180 C   0  0  0  0  0  0  0  0  0  0  0  0
    2.1350    0.3860    1.0540 C   0  0  2  0  0  0  0  0  0  0  0  0
    2.2180   -1.0190    0.7080 N   0  0  0  0  0  0  0  0  0  0  0  0
    0.7300    0.7260    1.2650 C   0  0  0  0  0  0  0  0  0  0  0  0
    0.4720    1.9360    1.5890 O   0  0  0  0  0  0  0  0  0  0  0  0
    1.2920    0.3520   -1.3240 H   0  0  0  0  0  0  0  0  0  0  0  0
    1.8600    1.9690   -1.8050 H   0  0  0  0  0  0  0  0  0  0  0  0
    2.8740    0.5400   -2.0990 H   0  0  0  0  0  0  0  0  0  0  0  0
    2.8650    2.2610    0.1910 H   0  0  0  0  0  0  0  0  0  0  0  0
    4.8700    1.2530    0.6260 H   0  0  0  0  0  0  0  0  0  0  0  0
    4.5970    0.9860   -1.1490 H   0  0  0  0  0  0  0  0  0  0  0  0
    4.2600   -0.3800   -0.0040 H   0  0  0  0  0  0  0  0  0  0  0  0
    2.7090    0.5190    2.0050 H   0  0  0  0  0  0  0  0  0  0  0  0
    1.7380   -1.3910   -0.1380 H   0  0  0  0  0  0  0  0  0  0  0  0
   -0.3800   -0.1180    1.1560 N   0  0  0  0  0  0  0  0  0  0  0  0
   -1.7540    0.2610    1.3750 C   0  0  1  0  0  0  0  0  0  0  0  0
   -2.4390    0.1480    0.0110 C   0  0  0  0  0  0  0  0  0  0  0  0
   -3.8700    0.5160    0.1020 C   0  0  0  0  0  0  0  0  0  0  0  0
   -4.3770    1.7790   -0.0670 C   0  0  0  0  0  0  0  0  0  0  0  0
   -5.7190    1.7570    0.0830 N   0  0  0  0  0  0  0  0  0  0  0  0
   -6.0680    0.4820    0.3470 C   0  0  0  0  0  0  0  0  0  0  0  0
   -4.9370   -0.2670    0.3570 N   0  0  0  0  0  0  0  0  0  0  0  0
   -2.4340   -0.5120    2.4030 C   0  0  0  0  0  0  0  0  0  0  0  0
   -3.6350   -0.2720    2.6880 O   0  0  0  0  0  0  0  0  0  0  0  0
   -1.8230   -1.5340    3.1150 O   0  0  0  0  0  0  0  0  0  0  0  0
   -0.2060   -1.1100    0.8940 H   0  0  0  0  0  0  0  0  0  0  0  0
   -1.7540    1.3380    1.6410 H   0  0  0  0  0  0  0  0  0  0  0  0
   -1.9190    0.7630   -0.7420 H   0  0  0  0  0  0  0  0  0  0  0  0
   -2.3740   -0.9160   -0.3560 H   0  0  0  0  0  0  0  0  0  0  0  0
   -3.7700    2.6450   -0.2870 H   0  0  0  0  0  0  0  0  0  0  0  0
   -6.3470    2.5860    0.0040 H   0  0  0  0  0  0  0  0  0  0  0  0
   -7.0860    0.1580    0.5160 H   0  0  0  0  0  0  0  0  0  0  0  0
  1  7  1  0  0  0  0
  1  6  1  0  0  0  0
  2  9  1  6  0  0  0
  2  1  1  0  0  0  0
  2  4  1  0  0  0  0
  2  3  1  0  0  0  0
  3 11  1  0  0  0  0
  4  5  2  0  0  0  0
  8  1  1  0  0  0  0
 10  3  1  0  0  0  0
 12 19  1  0  0  0  0
 12 13  1  0  0  0  0
 13 22  1  0  0  0  0
 13 15  1  0  0  0  0
 14 13  1  0  0  0  0
 14 25  1  0  0  0  0
 14 23  1  0  0  0  0
 15 17  1  0  0  0  0
 15 26  1  1  0  0  0
 16 15  1  0  0  0  0
 16  4  1  0  0  0  0
 17 18  2  0  0  0  0
 20 12  1  0  0  0  0
 21 12  1  0  0  0  0
 24 14  1  0  0  0  0
 27 16  1  0  0  0  0
 28 17  1  0  0  0  0
 28 29  1  0  0  0  0
 29 40  1  1  0  0  0
 29 36  1  0  0  0  0
 30 31  1  0  0  0  0
 30 29  1  0  0  0  0
 31 35  1  0  0  0  0
 32 33  1  0  0  0  0
 32 31  2  0  0  0  0
 33 34  1  0  0  0  0
 34 35  2  0  0  0  0
 34 45  1  0  0  0  0
 36 37  2  0  0  0  0
 36 38  1  0  0  0  0
 39 28  1  0  0  0  0
 41 30  1  0  0  0  0
 42 30  1  0  0  0  0
 43 32  1  0  0  0  0
 44 33  1  0  0  0  0
M  END
$$$$
