AVI.pdb
 OpenBabel07022418033D

 47 46  0  0  1  0  0  0  0  0999 V2000
    5.0920   -2.5780    0.0740 C   0  0  0  0  0  0  0  0  0  0  0  0
    3.9850   -1.7400    0.6180 C   0  0  2  0  0  0  0  0  0  0  0  0
    3.3510   -2.4180    1.7070 N   0  0  0  0  0  0  0  0  0  0  0  0
    2.9900   -1.3460   -0.4400 C   0  0  0  0  0  0  0  0  0  0  0  0
    3.3930   -0.8270   -1.5100 O   0  0  0  0  0  0  0  0  0  0  0  0
    5.2960   -3.4030    0.7830 H   0  0  0  0  0  0  0  0  0  0  0  0
    4.7150   -3.0460   -0.8720 H   0  0  0  0  0  0  0  0  0  0  0  0
    6.0040   -1.9660   -0.0960 H   0  0  0  0  0  0  0  0  0  0  0  0
    4.3830   -0.7760    1.0590 H   0  0  0  0  0  0  0  0  0  0  0  0
    2.7660   -1.7910    2.3060 H   0  0  0  0  0  0  0  0  0  0  0  0
    2.8270   -3.2790    1.4150 H   0  0  0  0  0  0  0  0  0  0  0  0
   -0.8400   -2.9470   -0.1520 C   0  0  0  0  0  0  0  0  0  0  0  0
   -0.2140   -2.4820   -1.4390 C   0  0  0  0  0  0  0  0  0  0  0  0
   -1.1930   -2.3060   -2.5590 C   0  0  0  0  0  0  0  0  0  0  0  0
    0.5890   -1.2340   -1.1570 C   0  0  2  0  0  0  0  0  0  0  0  0
    1.6150   -1.5830   -0.1730 N   0  0  0  0  0  0  0  0  0  0  0  0
   -0.3300   -0.1900   -0.6800 C   0  0  0  0  0  0  0  0  0  0  0  0
   -1.2650    0.1370   -1.4680 O   0  0  0  0  0  0  0  0  0  0  0  0
   -1.9210   -3.0420   -0.3150 H   0  0  0  0  0  0  0  0  0  0  0  0
   -0.3990   -3.8900    0.2490 H   0  0  0  0  0  0  0  0  0  0  0  0
   -0.7260   -2.1290    0.6240 H   0  0  0  0  0  0  0  0  0  0  0  0
    0.5300   -3.2810   -1.7230 H   0  0  0  0  0  0  0  0  0  0  0  0
   -1.1200   -3.1780   -3.2600 H   0  0  0  0  0  0  0  0  0  0  0  0
   -2.2050   -2.2780   -2.1590 H   0  0  0  0  0  0  0  0  0  0  0  0
   -0.9020   -1.4170   -3.1550 H   0  0  0  0  0  0  0  0  0  0  0  0
    1.0600   -0.9170   -2.1160 H   0  0  0  0  0  0  0  0  0  0  0  0
    1.3790   -2.0110    0.7430 H   0  0  0  0  0  0  0  0  0  0  0  0
   -2.7740   -0.0530    4.0510 C   0  0  0  0  0  0  0  0  0  0  0  0
   -2.4860    0.0180    2.5470 C   0  0  0  0  0  0  0  0  0  0  0  0
   -1.7650    1.3300    2.3150 C   0  0  2  0  0  0  0  0  0  0  0  0
   -2.6220    2.4990    2.7470 C   0  0  0  0  0  0  0  0  0  0  0  0
   -1.2360    1.5060    0.9390 C   0  0  2  0  0  0  0  0  0  0  0  0
   -0.2800    0.4830    0.5560 N   0  0  0  0  0  0  0  0  0  0  0  0
   -0.5970    2.8720    0.8130 C   0  0  0  0  0  0  0  0  0  0  0  0
    0.6050    2.9870    0.4460 O   0  0  0  0  0  0  0  0  0  0  0  0
   -1.3030    4.0300    1.0910 O   0  0  0  0  0  0  0  0  0  0  0  0
   -2.5090   -1.0500    4.4630 H   0  0  0  0  0  0  0  0  0  0  0  0
   -3.8780    0.0620    4.1850 H   0  0  0  0  0  0  0  0  0  0  0  0
   -2.1990    0.7100    4.5800 H   0  0  0  0  0  0  0  0  0  0  0  0
   -1.8090   -0.8330    2.3260 H   0  0  0  0  0  0  0  0  0  0  0  0
   -3.4000   -0.0730    1.9570 H   0  0  0  0  0  0  0  0  0  0  0  0
   -0.8920    1.3380    3.0400 H   0  0  0  0  0  0  0  0  0  0  0  0
   -3.3540    2.1130    3.5180 H   0  0  0  0  0  0  0  0  0  0  0  0
   -2.0280    3.3400    3.1660 H   0  0  0  0  0  0  0  0  0  0  0  0
   -3.2320    2.8210    1.8810 H   0  0  0  0  0  0  0  0  0  0  0  0
   -2.0330    1.5180    0.1730 H   0  0  0  0  0  0  0  0  0  0  0  0
    0.4810    0.2240    1.2160 H   0  0  0  0  0  0  0  0  0  0  0  0
  1  2  1  0  0  0  0
  1  6  1  0  0  0  0
  2  9  1  1  0  0  0
  2  3  1  0  0  0  0
  3 10  1  0  0  0  0
  4 16  1  0  0  0  0
  4  2  1  0  0  0  0
  5  4  2  0  0  0  0
  7  1  1  0  0  0  0
  8  1  1  0  0  0  0
 11  3  1  0  0  0  0
 12 20  1  0  0  0  0
 12 21  1  0  0  0  0
 13 15  1  0  0  0  0
 13 12  1  0  0  0  0
 14 24  1  0  0  0  0
 14 13  1  0  0  0  0
 15 26  1  6  0  0  0
 15 17  1  0  0  0  0
 15 16  1  0  0  0  0
 16 27  1  0  0  0  0
 17 33  1  0  0  0  0
 18 17  2  0  0  0  0
 19 12  1  0  0  0  0
 22 13  1  0  0  0  0
 23 14  1  0  0  0  0
 25 14  1  0  0  0  0
 28 38  1  0  0  0  0
 28 37  1  0  0  0  0
 28 39  1  0  0  0  0
 29 28  1  0  0  0  0
 30 29  1  0  0  0  0
 30 31  1  0  0  0  0
 30 42  1  1  0  0  0
 31 44  1  0  0  0  0
 31 43  1  0  0  0  0
 32 46  1  6  0  0  0
 32 30  1  0  0  0  0
 33 32  1  0  0  0  0
 33 47  1  0  0  0  0
 34 32  1  0  0  0  0
 34 36  1  0  0  0  0
 35 34  2  0  0  0  0
 40 29  1  0  0  0  0
 41 29  1  0  0  0  0
 45 31  1  0  0  0  0
M  END
$$$$
