AVK.pdb
 OpenBabel07022418033D

 49 48  0  0  1  0  0  0  0  0999 V2000
   -0.8460   -4.8200   -0.6540 C   0  0  0  0  0  0  0  0  0  0  0  0
    0.4990   -4.5110   -1.2750 C   0  0  2  0  0  0  0  0  0  0  0  0
    1.4320   -5.5230   -0.8180 N   0  0  0  0  0  0  0  0  0  0  0  0
    0.9800   -3.1580   -0.9000 C   0  0  0  0  0  0  0  0  0  0  0  0
    2.0480   -3.0500   -0.2770 O   0  0  0  0  0  0  0  0  0  0  0  0
   -0.9500   -4.2270    0.2690 H   0  0  0  0  0  0  0  0  0  0  0  0
   -0.8880   -5.8950   -0.3830 H   0  0  0  0  0  0  0  0  0  0  0  0
   -1.6810   -4.6580   -1.3740 H   0  0  0  0  0  0  0  0  0  0  0  0
    0.3590   -4.5610   -2.3720 H   0  0  0  0  0  0  0  0  0  0  0  0
    2.4240   -5.1850   -0.9260 H   0  0  0  0  0  0  0  0  0  0  0  0
    1.2810   -5.7770    0.1790 H   0  0  0  0  0  0  0  0  0  0  0  0
   -0.0480    0.2860   -3.0460 C   0  0  0  0  0  0  0  0  0  0  0  0
    1.0820    0.0920   -2.1110 C   0  0  0  0  0  0  0  0  0  0  0  0
    1.9620    1.2730   -1.8800 C   0  0  0  0  0  0  0  0  0  0  0  0
    0.7600   -0.6320   -0.8420 C   0  0  2  0  0  0  0  0  0  0  0  0
    0.2720   -1.9760   -1.2220 N   0  0  0  0  0  0  0  0  0  0  0  0
   -0.2050   -0.0240    0.0540 C   0  0  0  0  0  0  0  0  0  0  0  0
   -1.2710   -0.7010    0.3030 O   0  0  0  0  0  0  0  0  0  0  0  0
   -0.8140    1.0100   -2.7290 H   0  0  0  0  0  0  0  0  0  0  0  0
   -0.5340   -0.6590   -3.2620 H   0  0  0  0  0  0  0  0  0  0  0  0
    0.3650    0.6730   -4.0070 H   0  0  0  0  0  0  0  0  0  0  0  0
    1.7540   -0.6570   -2.6570 H   0  0  0  0  0  0  0  0  0  0  0  0
    1.4150    2.2530   -1.8440 H   0  0  0  0  0  0  0  0  0  0  0  0
    2.6540    1.1310   -1.0250 H   0  0  0  0  0  0  0  0  0  0  0  0
    2.6780    1.4400   -2.7490 H   0  0  0  0  0  0  0  0  0  0  0  0
    1.7110   -0.8080   -0.3050 H   0  0  0  0  0  0  0  0  0  0  0  0
   -0.6240   -2.0680   -1.7440 H   0  0  0  0  0  0  0  0  0  0  0  0
    0.0010    1.2330    0.6240 N   0  0  0  0  0  0  0  0  0  0  0  0
   -0.9400    1.8390    1.5050 C   0  0  1  0  0  0  0  0  0  0  0  0
   -0.3980    2.2110    2.8460 C   0  0  0  0  0  0  0  0  0  0  0  0
    0.1350    1.0720    3.6360 C   0  0  0  0  0  0  0  0  0  0  0  0
   -0.8630    0.0090    3.9480 C   0  0  0  0  0  0  0  0  0  0  0  0
   -0.1520   -1.0770    4.7580 C   0  0  0  0  0  0  0  0  0  0  0  0
    0.9530   -1.6400    3.9810 N   0  0  0  0  0  0  0  0  0  0  0  0
   -1.5220    3.0270    0.8360 C   0  0  0  0  0  0  0  0  0  0  0  0
   -1.1780    3.3650   -0.3190 O   0  0  0  0  0  0  0  0  0  0  0  0
   -2.4700    3.7990    1.4800 O   0  0  0  0  0  0  0  0  0  0  0  0
    0.8730    1.7480    0.4050 H   0  0  0  0  0  0  0  0  0  0  0  0
   -1.7690    1.1170    1.6730 H   0  0  0  0  0  0  0  0  0  0  0  0
    0.3220    3.0530    2.8170 H   0  0  0  0  0  0  0  0  0  0  0  0
   -1.2760    2.6200    3.4330 H   0  0  0  0  0  0  0  0  0  0  0  0
    0.4800    1.4950    4.6250 H   0  0  0  0  0  0  0  0  0  0  0  0
    1.0250    0.5860    3.1920 H   0  0  0  0  0  0  0  0  0  0  0  0
   -1.2290   -0.4570    3.0240 H   0  0  0  0  0  0  0  0  0  0  0  0
   -1.6810    0.4020    4.5840 H   0  0  0  0  0  0  0  0  0  0  0  0
   -0.8600   -1.9080    4.9870 H   0  0  0  0  0  0  0  0  0  0  0  0
    0.2250   -0.6920    5.7220 H   0  0  0  0  0  0  0  0  0  0  0  0
    0.6130   -2.2450    3.2170 H   0  0  0  0  0  0  0  0  0  0  0  0
    1.5710   -2.1800    4.6230 H   0  0  0  0  0  0  0  0  0  0  0  0
  1  7  1  0  0  0  0
  1  6  1  0  0  0  0
  2  9  1  6  0  0  0
  2  4  1  0  0  0  0
  2  3  1  0  0  0  0
  2  1  1  0  0  0  0
  3 11  1  0  0  0  0
  4  5  2  0  0  0  0
  8  1  1  0  0  0  0
 10  3  1  0  0  0  0
 12 19  1  0  0  0  0
 12 13  1  0  0  0  0
 13 14  1  0  0  0  0
 13 15  1  0  0  0  0
 14 23  1  0  0  0  0
 14 24  1  0  0  0  0
 15 26  1  1  0  0  0
 15 17  1  0  0  0  0
 16  4  1  0  0  0  0
 16 15  1  0  0  0  0
 17 18  2  0  0  0  0
 17 28  1  0  0  0  0
 20 12  1  0  0  0  0
 21 12  1  0  0  0  0
 22 13  1  0  0  0  0
 25 14  1  0  0  0  0
 27 16  1  0  0  0  0
 28 29  1  0  0  0  0
 29 39  1  1  0  0  0
 29 30  1  0  0  0  0
 30 41  1  0  0  0  0
 30 31  1  0  0  0  0
 31 32  1  0  0  0  0
 31 42  1  0  0  0  0
 32 45  1  0  0  0  0
 32 33  1  0  0  0  0
 33 46  1  0  0  0  0
 33 47  1  0  0  0  0
 34 49  1  0  0  0  0
 34 33  1  0  0  0  0
 35 37  1  0  0  0  0
 35 29  1  0  0  0  0
 36 35  2  0  0  0  0
 38 28  1  0  0  0  0
 40 30  1  0  0  0  0
 43 31  1  0  0  0  0
 44 32  1  0  0  0  0
 48 34  1  0  0  0  0
M  END
$$$$
