AVN.pdb
 OpenBabel07022418033D

 42 41  0  0  1  0  0  0  0  0999 V2000
    0.2030   -5.2510   -0.9480 C   0  0  0  0  0  0  0  0  0  0  0  0
   -0.1480   -4.1660    0.0460 C   0  0  2  0  0  0  0  0  0  0  0  0
   -1.2600   -3.3580   -0.4030 N   0  0  0  0  0  0  0  0  0  0  0  0
    1.0230   -3.2870    0.3060 C   0  0  0  0  0  0  0  0  0  0  0  0
    2.1150   -3.7600    0.7090 O   0  0  0  0  0  0  0  0  0  0  0  0
   -0.5520   -6.0410   -0.8630 H   0  0  0  0  0  0  0  0  0  0  0  0
    0.2690   -4.8650   -1.9830 H   0  0  0  0  0  0  0  0  0  0  0  0
    1.1700   -5.6920   -0.6220 H   0  0  0  0  0  0  0  0  0  0  0  0
   -0.4360   -4.6440    0.9930 H   0  0  0  0  0  0  0  0  0  0  0  0
   -2.0730   -3.3720    0.2300 H   0  0  0  0  0  0  0  0  0  0  0  0
   -1.4820   -3.4760   -1.4010 H   0  0  0  0  0  0  0  0  0  0  0  0
    1.3340    0.2900   -1.6860 C   0  0  0  0  0  0  0  0  0  0  0  0
    2.4590   -0.4440   -1.0220 C   0  0  0  0  0  0  0  0  0  0  0  0
    3.6780    0.4430   -0.9210 C   0  0  0  0  0  0  0  0  0  0  0  0
    2.0560   -0.9800    0.3470 C   0  0  2  0  0  0  0  0  0  0  0  0
    0.9380   -1.8820    0.1060 N   0  0  0  0  0  0  0  0  0  0  0  0
    1.6920    0.1050    1.2720 C   0  0  0  0  0  0  0  0  0  0  0  0
    2.5290    0.9700    1.5890 O   0  0  0  0  0  0  0  0  0  0  0  0
    0.9480    1.1310   -1.0850 H   0  0  0  0  0  0  0  0  0  0  0  0
    1.7290    0.7270   -2.6250 H   0  0  0  0  0  0  0  0  0  0  0  0
    0.5370   -0.4220   -1.9840 H   0  0  0  0  0  0  0  0  0  0  0  0
    2.7030   -1.3300   -1.6420 H   0  0  0  0  0  0  0  0  0  0  0  0
    4.1410    0.5480   -1.9240 H   0  0  0  0  0  0  0  0  0  0  0  0
    3.3660    1.4350   -0.5800 H   0  0  0  0  0  0  0  0  0  0  0  0
    4.4510   -0.0280   -0.2680 H   0  0  0  0  0  0  0  0  0  0  0  0
    2.9230   -1.5850    0.6980 H   0  0  0  0  0  0  0  0  0  0  0  0
    0.0190   -1.5190   -0.2290 H   0  0  0  0  0  0  0  0  0  0  0  0
   -2.8290    3.7630    2.7850 N   0  0  0  0  0  0  0  0  0  0  0  0
   -1.6290    3.0320    3.1130 C   0  0  0  0  0  0  0  0  0  0  0  0
   -1.0380    3.3880    4.1490 O   0  0  0  0  0  0  0  0  0  0  0  0
   -1.2270    1.9540    2.2050 C   0  0  0  0  0  0  0  0  0  0  0  0
   -0.0390    1.2210    2.7300 C   0  0  2  0  0  0  0  0  0  0  0  0
    0.3870    0.1680    1.8040 N   0  0  0  0  0  0  0  0  0  0  0  0
   -0.3290    0.4940    4.0020 C   0  0  0  0  0  0  0  0  0  0  0  0
   -0.1940   -0.7770    4.0810 O   0  0  0  0  0  0  0  0  0  0  0  0
   -0.7530    1.0910    5.1730 O   0  0  0  0  0  0  0  0  0  0  0  0
   -3.4930    3.4280    2.0350 H   0  0  0  0  0  0  0  0  0  0  0  0
   -3.0970    4.6380    3.2590 H   0  0  0  0  0  0  0  0  0  0  0  0
   -0.9530    2.4120    1.2100 H   0  0  0  0  0  0  0  0  0  0  0  0
   -2.1180    1.3030    2.0630 H   0  0  0  0  0  0  0  0  0  0  0  0
    0.8100    1.9010    2.9060 H   0  0  0  0  0  0  0  0  0  0  0  0
   -0.3670   -0.5380    1.5720 H   0  0  0  0  0  0  0  0  0  0  0  0
  1  6  1  0  0  0  0
  1  8  1  0  0  0  0
  1  2  1  0  0  0  0
  2  4  1  0  0  0  0
  2  9  1  1  0  0  0
  3  2  1  0  0  0  0
  3 10  1  0  0  0  0
  4  5  2  0  0  0  0
  7  1  1  0  0  0  0
 11  3  1  0  0  0  0
 12 19  1  0  0  0  0
 12 13  1  0  0  0  0
 13 14  1  0  0  0  0
 13 15  1  0  0  0  0
 14 24  1  0  0  0  0
 14 25  1  0  0  0  0
 15 26  1  1  0  0  0
 15 17  1  0  0  0  0
 16  4  1  0  0  0  0
 16 15  1  0  0  0  0
 17 18  2  0  0  0  0
 17 33  1  0  0  0  0
 20 12  1  0  0  0  0
 21 12  1  0  0  0  0
 22 13  1  0  0  0  0
 23 14  1  0  0  0  0
 27 16  1  0  0  0  0
 28 29  1  0  0  0  0
 28 38  1  0  0  0  0
 29 30  2  0  0  0  0
 31 32  1  0  0  0  0
 31 29  1  0  0  0  0
 32 41  1  1  0  0  0
 32 34  1  0  0  0  0
 33 32  1  0  0  0  0
 34 35  2  0  0  0  0
 34 36  1  0  0  0  0
 37 28  1  0  0  0  0
 39 31  1  0  0  0  0
 40 31  1  0  0  0  0
 42 33  1  0  0  0  0
M  END
$$$$
