AVP.pdb
 OpenBabel07022418033D

 42 42  0  0  1  0  0  0  0  0999 V2000
   -1.8400   -2.5800    1.6900 C   0  0  0  0  0  0  0  0  0  0  0  0
   -0.7600   -3.4500    1.1670 C   0  0  2  0  0  0  0  0  0  0  0  0
   -0.6120   -4.6960    1.8910 N   0  0  0  0  0  0  0  0  0  0  0  0
    0.5680   -2.8190    1.0380 C   0  0  0  0  0  0  0  0  0  0  0  0
    1.6420   -3.2980    1.4830 O   0  0  0  0  0  0  0  0  0  0  0  0
   -2.7980   -3.1290    1.5890 H   0  0  0  0  0  0  0  0  0  0  0  0
   -1.9260   -1.6970    1.0210 H   0  0  0  0  0  0  0  0  0  0  0  0
   -1.7410   -2.3060    2.7500 H   0  0  0  0  0  0  0  0  0  0  0  0
   -1.0670   -3.7570    0.1230 H   0  0  0  0  0  0  0  0  0  0  0  0
   -1.4220   -5.3370    1.6720 H   0  0  0  0  0  0  0  0  0  0  0  0
    0.2290   -5.1910    1.5100 H   0  0  0  0  0  0  0  0  0  0  0  0
    2.2500   -2.1630   -1.9610 C   0  0  0  0  0  0  0  0  0  0  0  0
    2.1870   -0.8080   -1.3110 C   0  0  0  0  0  0  0  0  0  0  0  0
    1.0480   -0.0360   -1.9330 C   0  0  0  0  0  0  0  0  0  0  0  0
    1.9010   -0.8910    0.1790 C   0  0  2  0  0  0  0  0  0  0  0  0
    0.6310   -1.5540    0.3440 N   0  0  0  0  0  0  0  0  0  0  0  0
    2.0180    0.4580    0.7140 C   0  0  0  0  0  0  0  0  0  0  0  0
    3.1400    1.0430    0.4150 O   0  0  0  0  0  0  0  0  0  0  0  0
    2.8970   -2.0610   -2.8800 H   0  0  0  0  0  0  0  0  0  0  0  0
    2.6870   -2.9420   -1.3160 H   0  0  0  0  0  0  0  0  0  0  0  0
    1.2470   -2.4840   -2.3490 H   0  0  0  0  0  0  0  0  0  0  0  0
    3.1430   -0.2490   -1.4750 H   0  0  0  0  0  0  0  0  0  0  0  0
    0.9730    0.9100   -1.3500 H   0  0  0  0  0  0  0  0  0  0  0  0
    0.0980   -0.5640   -1.9250 H   0  0  0  0  0  0  0  0  0  0  0  0
    1.3290    0.3180   -2.9680 H   0  0  0  0  0  0  0  0  0  0  0  0
    2.7240   -1.5220    0.6540 H   0  0  0  0  0  0  0  0  0  0  0  0
   -0.2550   -1.1510   -0.0290 H   0  0  0  0  0  0  0  0  0  0  0  0
    1.1460    1.2230    1.4820 N   0  0  0  0  0  0  0  0  0  0  0  0
    1.3750    2.5790    1.9270 C   0  0  0  0  0  0  0  0  0  0  0  0
    0.5730    2.7610    3.1930 C   0  0  0  0  0  0  0  0  0  0  0  0
   -0.2580    1.5090    3.3600 C   0  0  0  0  0  0  0  0  0  0  0  0
   -0.1270    0.8090    2.0050 C   0  0  1  0  0  0  0  0  0  0  0  0
   -1.2370    1.2920    1.1440 C   0  0  0  0  0  0  0  0  0  0  0  0
   -1.0320    1.9960    0.1370 O   0  0  0  0  0  0  0  0  0  0  0  0
   -2.5430    0.9600    1.4510 O   0  0  0  0  0  0  0  0  0  0  0  0
    2.4570    2.7870    2.0730 H   0  0  0  0  0  0  0  0  0  0  0  0
    0.9500    3.2640    1.1640 H   0  0  0  0  0  0  0  0  0  0  0  0
   -0.0990    3.6420    3.1380 H   0  0  0  0  0  0  0  0  0  0  0  0
    1.2260    2.9090    4.0910 H   0  0  0  0  0  0  0  0  0  0  0  0
   -1.3290    1.7520    3.5000 H   0  0  0  0  0  0  0  0  0  0  0  0
    0.1000    0.8430    4.1500 H   0  0  0  0  0  0  0  0  0  0  0  0
   -0.1940   -0.2770    2.1620 H   0  0  0  0  0  0  0  0  0  0  0  0
  1  8  1  0  0  0  0
  2  9  1  6  0  0  0
  2  1  1  0  0  0  0
  2  3  1  0  0  0  0
  4  2  1  0  0  0  0
  4  5  2  0  0  0  0
  6  1  1  0  0  0  0
  7  1  1  0  0  0  0
 10  3  1  0  0  0  0
 11  3  1  0  0  0  0
 12 20  1  0  0  0  0
 12 13  1  0  0  0  0
 13 15  1  0  0  0  0
 14 24  1  0  0  0  0
 14 23  1  0  0  0  0
 14 13  1  0  0  0  0
 15 16  1  0  0  0  0
 15 26  1  1  0  0  0
 15 17  1  0  0  0  0
 16  4  1  0  0  0  0
 17 28  1  0  0  0  0
 18 17  2  0  0  0  0
 19 12  1  0  0  0  0
 21 12  1  0  0  0  0
 22 13  1  0  0  0  0
 25 14  1  0  0  0  0
 27 16  1  0  0  0  0
 28 29  1  0  0  0  0
 28 32  1  0  0  0  0
 29 36  1  0  0  0  0
 29 30  1  0  0  0  0
 30 31  1  0  0  0  0
 30 39  1  0  0  0  0
 31 40  1  0  0  0  0
 31 41  1  0  0  0  0
 32 42  1  1  0  0  0
 32 31  1  0  0  0  0
 33 35  1  0  0  0  0
 33 32  1  0  0  0  0
 34 33  2  0  0  0  0
 37 29  1  0  0  0  0
 38 30  1  0  0  0  0
M  END
$$$$
