AVR.pdb
 OpenBabel07022418033D

 51 50  0  0  1  0  0  0  0  0999 V2000
    0.5440   -1.5940    3.4160 C   0  0  0  0  0  0  0  0  0  0  0  0
    1.9790   -1.2040    3.2620 C   0  0  2  0  0  0  0  0  0  0  0  0
    2.4130   -0.2870    4.2790 N   0  0  0  0  0  0  0  0  0  0  0  0
    2.3140   -0.6490    1.9310 C   0  0  0  0  0  0  0  0  0  0  0  0
    3.0160    0.3660    1.8430 O   0  0  0  0  0  0  0  0  0  0  0  0
    0.1640   -1.1490    4.3550 H   0  0  0  0  0  0  0  0  0  0  0  0
   -0.0740   -1.1990    2.5870 H   0  0  0  0  0  0  0  0  0  0  0  0
    0.4130   -2.7110    3.5070 H   0  0  0  0  0  0  0  0  0  0  0  0
    2.5790   -2.1560    3.3410 H   0  0  0  0  0  0  0  0  0  0  0  0
    3.2310   -0.6760    4.7660 H   0  0  0  0  0  0  0  0  0  0  0  0
    1.6020   -0.0780    4.9070 H   0  0  0  0  0  0  0  0  0  0  0  0
    2.3720   -3.0890   -1.5020 C   0  0  0  0  0  0  0  0  0  0  0  0
    3.0240   -1.7530   -1.3130 C   0  0  0  0  0  0  0  0  0  0  0  0
    4.2990   -1.9670   -0.5300 C   0  0  0  0  0  0  0  0  0  0  0  0
    2.1680   -0.7690   -0.5620 C   0  0  2  0  0  0  0  0  0  0  0  0
    1.8480   -1.2610    0.7450 N   0  0  0  0  0  0  0  0  0  0  0  0
    1.0010   -0.3100   -1.2790 C   0  0  0  0  0  0  0  0  0  0  0  0
    1.0390    0.0960   -2.4870 O   0  0  0  0  0  0  0  0  0  0  0  0
    1.8490   -3.4490   -0.5990 H   0  0  0  0  0  0  0  0  0  0  0  0
    1.7540   -3.1110   -2.4110 H   0  0  0  0  0  0  0  0  0  0  0  0
    3.2050   -3.8250   -1.6820 H   0  0  0  0  0  0  0  0  0  0  0  0
    3.3240   -1.3710   -2.3050 H   0  0  0  0  0  0  0  0  0  0  0  0
    5.1360   -2.2710   -1.1930 H   0  0  0  0  0  0  0  0  0  0  0  0
    4.1210   -2.7580    0.2490 H   0  0  0  0  0  0  0  0  0  0  0  0
    4.5240   -1.0390    0.0110 H   0  0  0  0  0  0  0  0  0  0  0  0
    2.8360    0.1450   -0.4310 H   0  0  0  0  0  0  0  0  0  0  0  0
    1.2470   -2.1050    0.8320 H   0  0  0  0  0  0  0  0  0  0  0  0
   -1.5020    1.3770    2.6340 N   0  0  0  0  0  0  0  0  0  0  0  0
   -2.5510    0.4580    2.3800 C   0  0  0  0  0  0  0  0  0  0  0  0
   -2.7400   -0.5730    3.0980 N   0  0  0  0  0  0  0  0  0  0  0  0
   -3.4230    0.7430    1.2760 N   0  0  0  0  0  0  0  0  0  0  0  0
   -4.0710   -0.2830    0.5650 C   0  0  0  0  0  0  0  0  0  0  0  0
   -3.3220   -1.2130   -0.2950 C   0  0  0  0  0  0  0  0  0  0  0  0
   -2.5910   -0.7390   -1.4660 C   0  0  0  0  0  0  0  0  0  0  0  0
   -1.4520    0.1710   -1.4040 C   0  0  2  0  0  0  0  0  0  0  0  0
   -0.2830   -0.2810   -0.6740 N   0  0  0  0  0  0  0  0  0  0  0  0
   -1.8230    1.5780   -1.1060 C   0  0  0  0  0  0  0  0  0  0  0  0
   -1.2010    2.3310   -0.3240 O   0  0  0  0  0  0  0  0  0  0  0  0
   -2.9430    2.0870   -1.7430 O   0  0  0  0  0  0  0  0  0  0  0  0
   -0.5030    1.1410    2.7220 H   0  0  0  0  0  0  0  0  0  0  0  0
   -1.7180    2.4100    2.7510 H   0  0  0  0  0  0  0  0  0  0  0  0
   -2.1690   -0.8270    3.9010 H   0  0  0  0  0  0  0  0  0  0  0  0
   -3.5670    1.7450    1.0440 H   0  0  0  0  0  0  0  0  0  0  0  0
   -4.9580    0.1120   -0.0120 H   0  0  0  0  0  0  0  0  0  0  0  0
   -4.5990   -0.9230    1.3590 H   0  0  0  0  0  0  0  0  0  0  0  0
   -4.1120   -1.9420   -0.7010 H   0  0  0  0  0  0  0  0  0  0  0  0
   -2.7110   -1.9280    0.3470 H   0  0  0  0  0  0  0  0  0  0  0  0
   -3.3650   -0.2370   -2.1470 H   0  0  0  0  0  0  0  0  0  0  0  0
   -2.2630   -1.6760   -2.0390 H   0  0  0  0  0  0  0  0  0  0  0  0
   -1.0850    0.2620   -2.4990 H   0  0  0  0  0  0  0  0  0  0  0  0
   -0.4480   -0.5790    0.3120 H   0  0  0  0  0  0  0  0  0  0  0  0
  1  8  1  0  0  0  0
  1  6  1  0  0  0  0
  2  9  1  1  0  0  0
  2  1  1  0  0  0  0
  2  3  1  0  0  0  0
  3 10  1  0  0  0  0
  3 11  1  0  0  0  0
  4  2  1  0  0  0  0
  5  4  2  0  0  0  0
  7  1  1  0  0  0  0
 12 13  1  0  0  0  0
 12 19  1  0  0  0  0
 13 15  1  0  0  0  0
 13 14  1  0  0  0  0
 14 25  1  0  0  0  0
 14 24  1  0  0  0  0
 15 26  1  1  0  0  0
 15 16  1  0  0  0  0
 16 27  1  0  0  0  0
 16  4  1  0  0  0  0
 17 36  1  0  0  0  0
 17 15  1  0  0  0  0
 18 17  2  0  0  0  0
 20 12  1  0  0  0  0
 21 12  1  0  0  0  0
 22 13  1  0  0  0  0
 23 14  1  0  0  0  0
 28 40  1  0  0  0  0
 28 41  1  0  0  0  0
 29 28  1  0  0  0  0
 29 30  2  0  0  0  0
 30 42  1  0  0  0  0
 31 29  1  0  0  0  0
 32 31  1  0  0  0  0
 32 45  1  0  0  0  0
 33 47  1  0  0  0  0
 33 32  1  0  0  0  0
 34 35  1  0  0  0  0
 34 33  1  0  0  0  0
 35 50  1  6  0  0  0
 35 37  1  0  0  0  0
 35 36  1  0  0  0  0
 36 51  1  0  0  0  0
 37 38  1  0  0  0  0
 39 37  2  0  0  0  0
 43 31  1  0  0  0  0
 44 32  1  0  0  0  0
 46 33  1  0  0  0  0
 48 34  1  0  0  0  0
 49 34  1  0  0  0  0
M  END
$$$$
