AVS.pdb
 OpenBabel07022418033D

 39 38  0  0  1  0  0  0  0  0999 V2000
   -0.2010   -1.4600    4.0470 C   0  0  0  0  0  0  0  0  0  0  0  0
    0.0010   -2.7210    3.2520 C   0  0  2  0  0  0  0  0  0  0  0  0
    0.8490   -3.6080    4.0200 N   0  0  0  0  0  0  0  0  0  0  0  0
    0.5690   -2.4640    1.9130 C   0  0  0  0  0  0  0  0  0  0  0  0
    1.6700   -3.0200    1.6120 O   0  0  0  0  0  0  0  0  0  0  0  0
   -0.8120   -0.7130    3.5180 H   0  0  0  0  0  0  0  0  0  0  0  0
   -0.7260   -1.7370    4.9780 H   0  0  0  0  0  0  0  0  0  0  0  0
    0.8030   -1.0760    4.3310 H   0  0  0  0  0  0  0  0  0  0  0  0
   -0.9900   -3.2260    3.1690 H   0  0  0  0  0  0  0  0  0  0  0  0
    0.6500   -4.6130    3.8130 H   0  0  0  0  0  0  0  0  0  0  0  0
    1.8680   -3.3850    3.9000 H   0  0  0  0  0  0  0  0  0  0  0  0
   -1.0630   -3.0200   -1.4400 C   0  0  0  0  0  0  0  0  0  0  0  0
   -0.5640   -1.5970   -1.4070 C   0  0  0  0  0  0  0  0  0  0  0  0
   -1.6950   -0.6030   -1.2800 C   0  0  0  0  0  0  0  0  0  0  0  0
    0.4280   -1.3540   -0.3110 C   0  0  2  0  0  0  0  0  0  0  0  0
   -0.1180   -1.6150    1.0070 N   0  0  0  0  0  0  0  0  0  0  0  0
    0.7800    0.1260   -0.3680 C   0  0  0  0  0  0  0  0  0  0  0  0
    1.2740    0.5860   -1.4280 O   0  0  0  0  0  0  0  0  0  0  0  0
   -2.0030   -3.0730   -0.8240 H   0  0  0  0  0  0  0  0  0  0  0  0
   -1.3760   -3.3040   -2.4650 H   0  0  0  0  0  0  0  0  0  0  0  0
   -0.3120   -3.7460   -1.1050 H   0  0  0  0  0  0  0  0  0  0  0  0
   -0.0500   -1.3940   -2.3690 H   0  0  0  0  0  0  0  0  0  0  0  0
   -1.5820    0.0100   -0.3670 H   0  0  0  0  0  0  0  0  0  0  0  0
   -1.7160    0.1130   -2.1380 H   0  0  0  0  0  0  0  0  0  0  0  0
   -2.6620   -1.1570   -1.3080 H   0  0  0  0  0  0  0  0  0  0  0  0
    1.3870   -1.8890   -0.4610 H   0  0  0  0  0  0  0  0  0  0  0  0
   -1.0170   -1.1980    1.3320 H   0  0  0  0  0  0  0  0  0  0  0  0
    3.0380    2.0300   -0.2340 O   0  0  0  0  0  0  0  0  0  0  0  0
    2.3450    2.5500    0.8190 C   0  0  0  0  0  0  0  0  0  0  0  0
    0.8530    2.3520    0.7600 C   0  0  2  0  0  0  0  0  0  0  0  0
    0.5580    0.9590    0.7320 N   0  0  0  0  0  0  0  0  0  0  0  0
    0.2530    3.0010   -0.4350 C   0  0  0  0  0  0  0  0  0  0  0  0
   -0.4580    2.3990   -1.2420 O   0  0  0  0  0  0  0  0  0  0  0  0
    0.4780    4.3670   -0.7020 O   0  0  0  0  0  0  0  0  0  0  0  0
    3.9230    1.6630   -0.0020 H   0  0  0  0  0  0  0  0  0  0  0  0
    2.7540    2.1410    1.7850 H   0  0  0  0  0  0  0  0  0  0  0  0
    2.4970    3.6690    0.8500 H   0  0  0  0  0  0  0  0  0  0  0  0
    0.3690    2.8420    1.6730 H   0  0  0  0  0  0  0  0  0  0  0  0
    0.1450    0.5150    1.5950 H   0  0  0  0  0  0  0  0  0  0  0  0
  1  8  1  0  0  0  0
  1  7  1  0  0  0  0
  2  9  1  6  0  0  0
  2  3  1  0  0  0  0
  2  1  1  0  0  0  0
  4  2  1  0  0  0  0
  5  4  2  0  0  0  0
  6  1  1  0  0  0  0
 10  3  1  0  0  0  0
 11  3  1  0  0  0  0
 12 13  1  0  0  0  0
 12 21  1  0  0  0  0
 12 19  1  0  0  0  0
 13 14  1  0  0  0  0
 13 15  1  0  0  0  0
 14 23  1  0  0  0  0
 15 26  1  6  0  0  0
 15 16  1  0  0  0  0
 16 27  1  0  0  0  0
 16  4  1  0  0  0  0
 17 15  1  0  0  0  0
 17 31  1  0  0  0  0
 18 17  2  0  0  0  0
 20 12  1  0  0  0  0
 22 13  1  0  0  0  0
 24 14  1  0  0  0  0
 25 14  1  0  0  0  0
 28 35  1  0  0  0  0
 28 29  1  0  0  0  0
 29 37  1  0  0  0  0
 29 36  1  0  0  0  0
 30 29  1  0  0  0  0
 30 38  1  1  0  0  0
 31 30  1  0  0  0  0
 31 39  1  0  0  0  0
 32 30  1  0  0  0  0
 33 32  2  0  0  0  0
 34 32  1  0  0  0  0
M  END
$$$$
