AVW.pdb
 OpenBabel07022418033D

 52 53  0  0  1  0  0  0  0  0999 V2000
    0.6530   -3.1880    4.2060 C   0  0  0  0  0  0  0  0  0  0  0  0
    2.1160   -2.8620    3.9910 C   0  0  2  0  0  0  0  0  0  0  0  0
    2.7760   -2.8390    5.2600 N   0  0  0  0  0  0  0  0  0  0  0  0
    2.1780   -1.5480    3.2940 C   0  0  0  0  0  0  0  0  0  0  0  0
    2.7660   -0.5860    3.8530 O   0  0  0  0  0  0  0  0  0  0  0  0
    0.3040   -3.9820    3.5050 H   0  0  0  0  0  0  0  0  0  0  0  0
    0.4660   -3.5720    5.2490 H   0  0  0  0  0  0  0  0  0  0  0  0
    0.0270   -2.2860    4.0810 H   0  0  0  0  0  0  0  0  0  0  0  0
    2.5740   -3.6710    3.3860 H   0  0  0  0  0  0  0  0  0  0  0  0
    3.8180   -2.9430    5.1920 H   0  0  0  0  0  0  0  0  0  0  0  0
    2.4460   -3.6020    5.8930 H   0  0  0  0  0  0  0  0  0  0  0  0
    3.6810   -0.7210    0.0190 C   0  0  0  0  0  0  0  0  0  0  0  0
    2.2710   -0.1750   -0.0360 C   0  0  0  0  0  0  0  0  0  0  0  0
    2.3150    1.1980   -0.6590 C   0  0  0  0  0  0  0  0  0  0  0  0
    1.6650   -0.0440    1.3390 C   0  0  2  0  0  0  0  0  0  0  0  0
    1.6040   -1.3280    2.0220 N   0  0  0  0  0  0  0  0  0  0  0  0
    0.2540    0.3790    1.1470 C   0  0  0  0  0  0  0  0  0  0  0  0
    0.0440    1.4770    0.5730 O   0  0  0  0  0  0  0  0  0  0  0  0
    4.2030   -0.2990    0.8930 H   0  0  0  0  0  0  0  0  0  0  0  0
    4.2060   -0.3490   -0.8840 H   0  0  0  0  0  0  0  0  0  0  0  0
    3.6980   -1.8190   -0.0130 H   0  0  0  0  0  0  0  0  0  0  0  0
    1.6070   -0.8410   -0.6200 H   0  0  0  0  0  0  0  0  0  0  0  0
    3.2370    1.2520   -1.2810 H   0  0  0  0  0  0  0  0  0  0  0  0
    2.2790    1.9730    0.1170 H   0  0  0  0  0  0  0  0  0  0  0  0
    1.4100    1.3340   -1.3030 H   0  0  0  0  0  0  0  0  0  0  0  0
    2.1940    0.7170    1.9050 H   0  0  0  0  0  0  0  0  0  0  0  0
    1.1190   -2.1290    1.5650 H   0  0  0  0  0  0  0  0  0  0  0  0
   -0.8570   -0.3750    1.5690 N   0  0  0  0  0  0  0  0  0  0  0  0
   -2.1910    0.1340    1.3330 C   0  0  1  0  0  0  0  0  0  0  0  0
   -2.9680   -0.8370    0.4710 C   0  0  0  0  0  0  0  0  0  0  0  0
   -2.3560   -1.0730   -0.8400 C   0  0  0  0  0  0  0  0  0  0  0  0
   -1.6340   -2.1950   -1.2380 C   0  0  0  0  0  0  0  0  0  0  0  0
   -1.2510   -2.0180   -2.5020 N   0  0  0  0  0  0  0  0  0  0  0  0
   -1.6820   -0.8310   -2.9700 C   0  0  0  0  0  0  0  0  0  0  0  0
   -1.5210   -0.2400   -4.2090 C   0  0  0  0  0  0  0  0  0  0  0  0
   -2.0830    1.0030   -4.4050 C   0  0  0  0  0  0  0  0  0  0  0  0
   -2.7790    1.6140   -3.3790 C   0  0  0  0  0  0  0  0  0  0  0  0
   -2.9300    1.0100   -2.1490 C   0  0  0  0  0  0  0  0  0  0  0  0
   -2.3680   -0.2400   -1.9430 C   0  0  0  0  0  0  0  0  0  0  0  0
   -2.9030    0.3960    2.6160 C   0  0  0  0  0  0  0  0  0  0  0  0
   -2.3100    0.1610    3.6750 O   0  0  0  0  0  0  0  0  0  0  0  0
   -4.1880    0.8890    2.5990 O   0  0  0  0  0  0  0  0  0  0  0  0
   -0.7220   -1.2740    2.0390 H   0  0  0  0  0  0  0  0  0  0  0  0
   -2.1800    1.1060    0.8010 H   0  0  0  0  0  0  0  0  0  0  0  0
   -3.0260   -1.8080    1.0070 H   0  0  0  0  0  0  0  0  0  0  0  0
   -4.0050   -0.4360    0.3860 H   0  0  0  0  0  0  0  0  0  0  0  0
   -1.4330   -3.0480   -0.6120 H   0  0  0  0  0  0  0  0  0  0  0  0
   -0.6930   -2.7200   -3.0380 H   0  0  0  0  0  0  0  0  0  0  0  0
   -0.9790   -0.7130   -5.0120 H   0  0  0  0  0  0  0  0  0  0  0  0
   -1.9880    1.5170   -5.3640 H   0  0  0  0  0  0  0  0  0  0  0  0
   -3.2210    2.5960   -3.5390 H   0  0  0  0  0  0  0  0  0  0  0  0
   -3.4610    1.4580   -1.3400 H   0  0  0  0  0  0  0  0  0  0  0  0
  1  7  1  0  0  0  0
  2  9  1  6  0  0  0
  2  1  1  0  0  0  0
  2  3  1  0  0  0  0
  3 11  1  0  0  0  0
  4  5  2  0  0  0  0
  4  2  1  0  0  0  0
  6  1  1  0  0  0  0
  8  1  1  0  0  0  0
 10  3  1  0  0  0  0
 12 19  1  0  0  0  0
 13 12  1  0  0  0  0
 13 15  1  0  0  0  0
 14 13  1  0  0  0  0
 14 24  1  0  0  0  0
 15 26  1  1  0  0  0
 15 16  1  0  0  0  0
 16  4  1  0  0  0  0
 17 15  1  0  0  0  0
 17 28  1  0  0  0  0
 18 17  2  0  0  0  0
 20 12  1  0  0  0  0
 21 12  1  0  0  0  0
 22 13  1  0  0  0  0
 23 14  1  0  0  0  0
 25 14  1  0  0  0  0
 27 16  1  0  0  0  0
 28 43  1  0  0  0  0
 29 44  1  6  0  0  0
 29 28  1  0  0  0  0
 29 40  1  0  0  0  0
 30 45  1  0  0  0  0
 30 29  1  0  0  0  0
 31 30  1  0  0  0  0
 32 31  2  0  0  0  0
 32 47  1  0  0  0  0
 33 32  1  0  0  0  0
 34 33  1  0  0  0  0
 34 39  1  0  0  0  0
 35 34  2  0  0  0  0
 36 35  1  0  0  0  0
 36 37  2  0  0  0  0
 37 38  1  0  0  0  0
 38 39  2  0  0  0  0
 38 52  1  0  0  0  0
 39 31  1  0  0  0  0
 40 41  1  0  0  0  0
 42 40  2  0  0  0  0
 46 30  1  0  0  0  0
 48 33  1  0  0  0  0
 49 35  1  0  0  0  0
 50 36  1  0  0  0  0
 51 37  1  0  0  0  0
M  END
$$$$
