AVY.pdb
 OpenBabel07022418033D

 49 49  0  0  1  0  0  0  0  0999 V2000
    0.8150   -4.0850    4.2930 C   0  0  0  0  0  0  0  0  0  0  0  0
   -0.1310   -3.4510    3.3080 C   0  0  2  0  0  0  0  0  0  0  0  0
    0.3360   -3.8270    1.9720 N   0  0  0  0  0  0  0  0  0  0  0  0
   -0.1130   -1.9560    3.4080 C   0  0  0  0  0  0  0  0  0  0  0  0
   -0.4690   -1.3850    4.4570 O   0  0  0  0  0  0  0  0  0  0  0  0
    1.6720   -4.5960    3.8030 H   0  0  0  0  0  0  0  0  0  0  0  0
    1.2490   -3.2740    4.9100 H   0  0  0  0  0  0  0  0  0  0  0  0
    0.2830   -4.8210    4.9200 H   0  0  0  0  0  0  0  0  0  0  0  0
   -1.1520   -3.8500    3.4020 H   0  0  0  0  0  0  0  0  0  0  0  0
   -0.4380   -3.8010    1.2740 H   0  0  0  0  0  0  0  0  0  0  0  0
    0.6230   -4.8500    2.0280 H   0  0  0  0  0  0  0  0  0  0  0  0
    2.7510    0.4110    3.0430 C   0  0  0  0  0  0  0  0  0  0  0  0
    1.7150    0.8520    2.0060 C   0  0  0  0  0  0  0  0  0  0  0  0
    2.1810    0.5220    0.6130 C   0  0  0  0  0  0  0  0  0  0  0  0
    0.3650    0.2650    2.3030 C   0  0  2  0  0  0  0  0  0  0  0  0
    0.3100   -1.1610    2.3120 N   0  0  0  0  0  0  0  0  0  0  0  0
   -0.6090    0.7930    1.3140 C   0  0  0  0  0  0  0  0  0  0  0  0
   -0.7230    2.0400    1.0910 O   0  0  0  0  0  0  0  0  0  0  0  0
    3.3130   -0.4820    2.6790 H   0  0  0  0  0  0  0  0  0  0  0  0
    2.2720    0.2270    4.0250 H   0  0  0  0  0  0  0  0  0  0  0  0
    3.5180    1.1970    3.2060 H   0  0  0  0  0  0  0  0  0  0  0  0
    1.6670    1.9570    2.0910 H   0  0  0  0  0  0  0  0  0  0  0  0
    3.2760    0.7040    0.5100 H   0  0  0  0  0  0  0  0  0  0  0  0
    1.9290   -0.5390    0.3400 H   0  0  0  0  0  0  0  0  0  0  0  0
    1.6990    1.1520   -0.1610 H   0  0  0  0  0  0  0  0  0  0  0  0
    0.0150    0.6460    3.3180 H   0  0  0  0  0  0  0  0  0  0  0  0
    0.6000   -1.6830    1.4530 H   0  0  0  0  0  0  0  0  0  0  0  0
    2.9660    0.8310   -3.8040 O   0  0  0  0  0  0  0  0  0  0  0  0
    1.6830    0.5870   -3.2900 C   0  0  0  0  0  0  0  0  0  0  0  0
    1.4460   -0.5240   -2.5110 C   0  0  0  0  0  0  0  0  0  0  0  0
    0.2070   -0.7700   -2.0080 C   0  0  0  0  0  0  0  0  0  0  0  0
   -0.8520    0.0790   -2.2570 C   0  0  0  0  0  0  0  0  0  0  0  0
   -2.2080   -0.1670   -1.7340 C   0  0  0  0  0  0  0  0  0  0  0  0
   -2.4330    0.4880   -0.4030 C   0  0  2  0  0  0  0  0  0  0  0  0
   -1.4830   -0.0390    0.5500 N   0  0  0  0  0  0  0  0  0  0  0  0
   -3.8250    0.2590    0.0830 C   0  0  0  0  0  0  0  0  0  0  0  0
   -4.7690    0.6610   -0.6370 O   0  0  0  0  0  0  0  0  0  0  0  0
   -0.5880    1.1880   -3.0420 C   0  0  0  0  0  0  0  0  0  0  0  0
    0.6550    1.4670   -3.5680 C   0  0  0  0  0  0  0  0  0  0  0  0
   -4.1370   -0.3680    1.2760 O   0  0  0  0  0  0  0  0  0  0  0  0
    3.6550    0.0900   -3.8240 H   0  0  0  0  0  0  0  0  0  0  0  0
    2.3110   -1.1780   -2.3330 H   0  0  0  0  0  0  0  0  0  0  0  0
    0.0860   -1.6610   -1.4020 H   0  0  0  0  0  0  0  0  0  0  0  0
   -2.9790    0.2940   -2.4240 H   0  0  0  0  0  0  0  0  0  0  0  0
   -2.4520   -1.2540   -1.7070 H   0  0  0  0  0  0  0  0  0  0  0  0
   -2.2590    1.5860   -0.5280 H   0  0  0  0  0  0  0  0  0  0  0  0
   -1.4210   -1.0620    0.6990 H   0  0  0  0  0  0  0  0  0  0  0  0
   -1.3860    1.8880   -3.2690 H   0  0  0  0  0  0  0  0  0  0  0  0
    0.8360    2.3510   -4.1850 H   0  0  0  0  0  0  0  0  0  0  0  0
  1  7  1  0  0  0  0
  1  8  1  0  0  0  0
  2  9  1  1  0  0  0
  2  4  1  0  0  0  0
  2  1  1  0  0  0  0
  3 11  1  0  0  0  0
  3  2  1  0  0  0  0
  4  5  2  0  0  0  0
  6  1  1  0  0  0  0
 10  3  1  0  0  0  0
 12 21  1  0  0  0  0
 12 20  1  0  0  0  0
 13 22  1  0  0  0  0
 13 15  1  0  0  0  0
 13 12  1  0  0  0  0
 14 13  1  0  0  0  0
 15 16  1  0  0  0  0
 15 26  1  1  0  0  0
 16  4  1  0  0  0  0
 17 15  1  0  0  0  0
 18 17  2  0  0  0  0
 19 12  1  0  0  0  0
 23 14  1  0  0  0  0
 24 14  1  0  0  0  0
 25 14  1  0  0  0  0
 27 16  1  0  0  0  0
 28 29  1  0  0  0  0
 29 30  1  0  0  0  0
 30 42  1  0  0  0  0
 30 31  2  0  0  0  0
 31 43  1  0  0  0  0
 32 31  1  0  0  0  0
 32 33  1  0  0  0  0
 33 45  1  0  0  0  0
 33 34  1  0  0  0  0
 34 46  1  6  0  0  0
 34 36  1  0  0  0  0
 34 35  1  0  0  0  0
 35 47  1  0  0  0  0
 35 17  1  0  0  0  0
 36 40  1  0  0  0  0
 37 36  2  0  0  0  0
 38 32  2  0  0  0  0
 39 29  2  0  0  0  0
 39 38  1  0  0  0  0
 41 28  1  0  0  0  0
 44 33  1  0  0  0  0
 48 38  1  0  0  0  0
 49 39  1  0  0  0  0
M  END
$$$$
