AWA.pdb
 OpenBabel07022418023D

 46 47  0  0  1  0  0  0  0  0999 V2000
    2.5400   -4.9760    1.4050 C   0  0  0  0  0  0  0  0  0  0  0  0
    1.1490   -4.4430    1.6890 C   0  0  2  0  0  0  0  0  0  0  0  0
    0.3050   -4.8920    0.5730 N   0  0  0  0  0  0  0  0  0  0  0  0
    1.1790   -2.9500    1.6910 C   0  0  0  0  0  0  0  0  0  0  0  0
    1.8460   -2.3540    2.5880 O   0  0  0  0  0  0  0  0  0  0  0  0
    2.6770   -4.9710    0.3060 H   0  0  0  0  0  0  0  0  0  0  0  0
    3.2790   -4.2570    1.8220 H   0  0  0  0  0  0  0  0  0  0  0  0
    2.6310   -5.9870    1.8250 H   0  0  0  0  0  0  0  0  0  0  0  0
    0.6990   -4.8500    2.5990 H   0  0  0  0  0  0  0  0  0  0  0  0
   -0.6900   -4.8940    0.9030 H   0  0  0  0  0  0  0  0  0  0  0  0
    0.5390   -5.8560    0.2750 H   0  0  0  0  0  0  0  0  0  0  0  0
    0.4750   -2.1930    0.7070 N   0  0  0  0  0  0  0  0  0  0  0  0
    0.4770   -0.7640    0.6720 C   0  0  1  0  0  0  0  0  0  0  0  0
    1.1740   -0.2230   -0.5660 C   0  0  0  0  0  0  0  0  0  0  0  0
    1.1590    1.2690   -0.5710 C   0  0  0  0  0  0  0  0  0  0  0  0
    0.3720    2.1290   -1.3190 C   0  0  0  0  0  0  0  0  0  0  0  0
    0.6860    3.4000   -1.0130 N   0  0  0  0  0  0  0  0  0  0  0  0
    1.6570    3.4430   -0.0850 C   0  0  0  0  0  0  0  0  0  0  0  0
    2.3320    4.4680    0.5640 C   0  0  0  0  0  0  0  0  0  0  0  0
    3.3110    4.2080    1.4980 C   0  0  0  0  0  0  0  0  0  0  0  0
    3.6080    2.8920    1.7760 C   0  0  0  0  0  0  0  0  0  0  0  0
    2.9330    1.8740    1.1270 C   0  0  0  0  0  0  0  0  0  0  0  0
    1.9530    2.1150    0.1920 C   0  0  0  0  0  0  0  0  0  0  0  0
   -0.8830   -0.2040    0.8240 C   0  0  0  0  0  0  0  0  0  0  0  0
   -1.0180    1.0560    0.8100 O   0  0  0  0  0  0  0  0  0  0  0  0
   -0.0590   -2.7720   -0.0080 H   0  0  0  0  0  0  0  0  0  0  0  0
    1.0860   -0.4060    1.5320 H   0  0  0  0  0  0  0  0  0  0  0  0
    2.2270   -0.5950   -0.5300 H   0  0  0  0  0  0  0  0  0  0  0  0
    0.6360   -0.5680   -1.4560 H   0  0  0  0  0  0  0  0  0  0  0  0
   -0.3840    1.8270   -2.0430 H   0  0  0  0  0  0  0  0  0  0  0  0
    0.2490    4.2470   -1.4270 H   0  0  0  0  0  0  0  0  0  0  0  0
    2.1060    5.5030    0.3540 H   0  0  0  0  0  0  0  0  0  0  0  0
    3.8470    5.0130    2.0130 H   0  0  0  0  0  0  0  0  0  0  0  0
    4.3770    2.6970    2.5090 H   0  0  0  0  0  0  0  0  0  0  0  0
    3.1540    0.8200    1.3330 H   0  0  0  0  0  0  0  0  0  0  0  0
   -4.3070   -0.9310    0.0260 C   0  0  0  0  0  0  0  0  0  0  0  0
   -3.3770   -0.4780    1.1340 C   0  0  2  0  0  0  0  0  0  0  0  0
   -2.0400   -0.9760    0.9840 N   0  0  0  0  0  0  0  0  0  0  0  0
   -3.9540   -0.8420    2.4670 C   0  0  0  0  0  0  0  0  0  0  0  0
   -3.2910   -1.5050    3.3030 O   0  0  0  0  0  0  0  0  0  0  0  0
   -5.2350   -0.4690    2.8420 O   0  0  0  0  0  0  0  0  0  0  0  0
   -4.2170   -2.0040   -0.1930 H   0  0  0  0  0  0  0  0  0  0  0  0
   -5.3500   -0.7780    0.4190 H   0  0  0  0  0  0  0  0  0  0  0  0
   -4.1330   -0.2720   -0.8450 H   0  0  0  0  0  0  0  0  0  0  0  0
   -3.3460    0.6300    1.0920 H   0  0  0  0  0  0  0  0  0  0  0  0
   -1.9300   -2.0300    0.9960 H   0  0  0  0  0  0  0  0  0  0  0  0
  1  2  1  0  0  0  0
  1  7  1  0  0  0  0
  1  8  1  0  0  0  0
  2  4  1  0  0  0  0
  2  9  1  1  0  0  0
  3 10  1  0  0  0  0
  3  2  1  0  0  0  0
  4  5  2  0  0  0  0
  6  1  1  0  0  0  0
 11  3  1  0  0  0  0
 12  4  1  0  0  0  0
 13 12  1  0  0  0  0
 13 24  1  0  0  0  0
 13 27  1  1  0  0  0
 14 28  1  0  0  0  0
 14 13  1  0  0  0  0
 15 14  1  0  0  0  0
 15 23  1  0  0  0  0
 16 17  1  0  0  0  0
 16 15  2  0  0  0  0
 17 18  1  0  0  0  0
 18 23  2  0  0  0  0
 18 19  1  0  0  0  0
 19 20  2  0  0  0  0
 20 21  1  0  0  0  0
 20 33  1  0  0  0  0
 21 34  1  0  0  0  0
 22 35  1  0  0  0  0
 22 21  2  0  0  0  0
 23 22  1  0  0  0  0
 24 38  1  0  0  0  0
 25 24  2  0  0  0  0
 26 12  1  0  0  0  0
 29 14  1  0  0  0  0
 30 16  1  0  0  0  0
 31 17  1  0  0  0  0
 32 19  1  0  0  0  0
 36 43  1  0  0  0  0
 36 37  1  0  0  0  0
 37 45  1  6  0  0  0
 37 39  1  0  0  0  0
 38 46  1  0  0  0  0
 38 37  1  0  0  0  0
 39 41  2  0  0  0  0
 39 40  1  0  0  0  0
 42 36  1  0  0  0  0
 44 36  1  0  0  0  0
M  END
$$$$
