AWC.pdb
 OpenBabel07022418023D

 47 48  0  0  1  0  0  0  0  0999 V2000
    2.0940   -4.7440    3.1990 C   0  0  0  0  0  0  0  0  0  0  0  0
    0.8830   -4.2890    2.4670 C   0  0  2  0  0  0  0  0  0  0  0  0
    0.8260   -4.9140    1.1610 N   0  0  0  0  0  0  0  0  0  0  0  0
    0.7850   -2.7960    2.3490 C   0  0  0  0  0  0  0  0  0  0  0  0
    0.8450   -2.1260    3.4040 O   0  0  0  0  0  0  0  0  0  0  0  0
    2.7150   -3.9060    3.5900 H   0  0  0  0  0  0  0  0  0  0  0  0
    1.7890   -5.3320    4.0870 H   0  0  0  0  0  0  0  0  0  0  0  0
    2.7400   -5.4440    2.6020 H   0  0  0  0  0  0  0  0  0  0  0  0
   -0.0300   -4.5930    3.0220 H   0  0  0  0  0  0  0  0  0  0  0  0
   -0.0490   -4.6530    0.6660 H   0  0  0  0  0  0  0  0  0  0  0  0
    0.7910   -5.9440    1.3200 H   0  0  0  0  0  0  0  0  0  0  0  0
    0.6320   -2.1260    1.1260 N   0  0  0  0  0  0  0  0  0  0  0  0
    0.5350   -0.6980    0.9620 C   0  0  1  0  0  0  0  0  0  0  0  0
    1.6550   -0.1730    0.0620 C   0  0  0  0  0  0  0  0  0  0  0  0
    1.5350    1.3000   -0.0940 C   0  0  0  0  0  0  0  0  0  0  0  0
    1.0490    1.9870   -1.2090 C   0  0  0  0  0  0  0  0  0  0  0  0
    1.1030    3.3260   -0.9560 N   0  0  0  0  0  0  0  0  0  0  0  0
    1.6000    3.5480    0.2720 C   0  0  0  0  0  0  0  0  0  0  0  0
    1.8540    4.7090    0.9930 C   0  0  0  0  0  0  0  0  0  0  0  0
    2.3750    4.5840    2.2440 C   0  0  0  0  0  0  0  0  0  0  0  0
    2.6560    3.3740    2.8160 C   0  0  0  0  0  0  0  0  0  0  0  0
    2.3910    2.2210    2.0680 C   0  0  0  0  0  0  0  0  0  0  0  0
    1.8650    2.2960    0.7990 C   0  0  0  0  0  0  0  0  0  0  0  0
   -0.7690   -0.3350    0.3360 C   0  0  0  0  0  0  0  0  0  0  0  0
   -1.0950    0.8550    0.1070 O   0  0  0  0  0  0  0  0  0  0  0  0
    0.5830   -2.7030    0.2550 H   0  0  0  0  0  0  0  0  0  0  0  0
    0.6050   -0.1280    1.9090 H   0  0  0  0  0  0  0  0  0  0  0  0
    2.5950   -0.3500    0.6280 H   0  0  0  0  0  0  0  0  0  0  0  0
    1.6960   -0.6880   -0.8950 H   0  0  0  0  0  0  0  0  0  0  0  0
    0.6890    1.5700   -2.1210 H   0  0  0  0  0  0  0  0  0  0  0  0
    0.8030    4.0760   -1.6140 H   0  0  0  0  0  0  0  0  0  0  0  0
    1.6350    5.6870    0.5540 H   0  0  0  0  0  0  0  0  0  0  0  0
    2.5790    5.4990    2.8220 H   0  0  0  0  0  0  0  0  0  0  0  0
    3.0650    3.2770    3.7990 H   0  0  0  0  0  0  0  0  0  0  0  0
    2.5990    1.2460    2.4820 H   0  0  0  0  0  0  0  0  0  0  0  0
   -1.7050   -1.3360   -0.0300 N   0  0  0  0  0  0  0  0  0  0  0  0
   -2.9750   -1.0850   -0.6330 C   0  0  1  0  0  0  0  0  0  0  0  0
   -3.0720   -1.6060   -2.0530 C   0  0  0  0  0  0  0  0  0  0  0  0
   -4.7270   -1.2240   -2.6980 S   0  0  0  0  0  0  0  0  0  0  0  0
   -4.1110   -1.5690    0.1730 C   0  0  0  0  0  0  0  0  0  0  0  0
   -3.8250   -2.1300    1.2770 O   0  0  0  0  0  0  0  0  0  0  0  0
   -5.4270   -1.4500   -0.1950 O   0  0  0  0  0  0  0  0  0  0  0  0
   -1.4310   -2.3380    0.1630 H   0  0  0  0  0  0  0  0  0  0  0  0
   -3.0980    0.0350   -0.7310 H   0  0  0  0  0  0  0  0  0  0  0  0
   -2.8900   -2.6970   -2.1240 H   0  0  0  0  0  0  0  0  0  0  0  0
   -2.3550   -1.0680   -2.7260 H   0  0  0  0  0  0  0  0  0  0  0  0
   -5.2120   -0.0510   -2.0840 H   0  0  0  0  0  0  0  0  0  0  0  0
  1  6  1  0  0  0  0
  1  7  1  0  0  0  0
  2  9  1  1  0  0  0
  2  1  1  0  0  0  0
  3 11  1  0  0  0  0
  3  2  1  0  0  0  0
  4  2  1  0  0  0  0
  4  5  2  0  0  0  0
  8  1  1  0  0  0  0
 10  3  1  0  0  0  0
 12  4  1  0  0  0  0
 13 12  1  0  0  0  0
 13 27  1  1  0  0  0
 14 28  1  0  0  0  0
 14 13  1  0  0  0  0
 15 14  1  0  0  0  0
 15 23  1  0  0  0  0
 16 17  1  0  0  0  0
 16 15  2  0  0  0  0
 17 18  1  0  0  0  0
 18 23  2  0  0  0  0
 18 19  1  0  0  0  0
 19 20  2  0  0  0  0
 20 21  1  0  0  0  0
 20 33  1  0  0  0  0
 21 34  1  0  0  0  0
 22 35  1  0  0  0  0
 22 21  2  0  0  0  0
 23 22  1  0  0  0  0
 24 13  1  0  0  0  0
 25 24  2  0  0  0  0
 26 12  1  0  0  0  0
 29 14  1  0  0  0  0
 30 16  1  0  0  0  0
 31 17  1  0  0  0  0
 32 19  1  0  0  0  0
 36 43  1  0  0  0  0
 36 24  1  0  0  0  0
 37 44  1  6  0  0  0
 37 36  1  0  0  0  0
 37 40  1  0  0  0  0
 38 37  1  0  0  0  0
 39 47  1  0  0  0  0
 39 38  1  0  0  0  0
 40 41  1  0  0  0  0
 42 40  2  0  0  0  0
 45 38  1  0  0  0  0
 46 38  1  0  0  0  0
M  END
$$$$
