AWE.pdb
 OpenBabel07022418023D

 52 53  0  0  1  0  0  0  0  0999 V2000
    4.3040   -1.3000    1.7020 C   0  0  0  0  0  0  0  0  0  0  0  0
    3.5120   -1.4580    2.9600 C   0  0  2  0  0  0  0  0  0  0  0  0
    4.1090   -2.5200    3.7470 N   0  0  0  0  0  0  0  0  0  0  0  0
    2.0750   -1.7590    2.7080 C   0  0  0  0  0  0  0  0  0  0  0  0
    1.5550   -2.8160    3.1610 O   0  0  0  0  0  0  0  0  0  0  0  0
    5.2020   -1.9630    1.6960 H   0  0  0  0  0  0  0  0  0  0  0  0
    3.7010   -1.5610    0.7900 H   0  0  0  0  0  0  0  0  0  0  0  0
    4.7180   -0.2620    1.5840 H   0  0  0  0  0  0  0  0  0  0  0  0
    3.5810   -0.5070    3.5290 H   0  0  0  0  0  0  0  0  0  0  0  0
    4.8030   -2.0970    4.3850 H   0  0  0  0  0  0  0  0  0  0  0  0
    4.6210   -3.1650    3.1040 H   0  0  0  0  0  0  0  0  0  0  0  0
    1.2560   -0.8870    1.9640 N   0  0  0  0  0  0  0  0  0  0  0  0
   -0.1470   -1.0970    1.6690 C   0  0  1  0  0  0  0  0  0  0  0  0
   -1.0020   -0.1280    2.4490 C   0  0  0  0  0  0  0  0  0  0  0  0
   -0.6020    1.2560    2.1420 C   0  0  0  0  0  0  0  0  0  0  0  0
    0.2930    1.9420    2.9880 C   0  0  0  0  0  0  0  0  0  0  0  0
    0.4820    3.1320    2.4330 N   0  0  0  0  0  0  0  0  0  0  0  0
   -0.2130    3.2910    1.2890 C   0  0  0  0  0  0  0  0  0  0  0  0
   -0.3510    4.3140    0.3790 C   0  0  0  0  0  0  0  0  0  0  0  0
   -1.1620    4.1840   -0.7170 C   0  0  0  0  0  0  0  0  0  0  0  0
   -1.8460    3.0030   -0.8990 C   0  0  0  0  0  0  0  0  0  0  0  0
   -1.7250    1.9620   -0.0020 C   0  0  0  0  0  0  0  0  0  0  0  0
   -0.9070    2.0920    1.1020 C   0  0  0  0  0  0  0  0  0  0  0  0
   -0.5200   -1.1740    0.2820 C   0  0  0  0  0  0  0  0  0  0  0  0
    0.2740   -0.8690   -0.6410 O   0  0  0  0  0  0  0  0  0  0  0  0
    1.6710    0.0050    1.5740 H   0  0  0  0  0  0  0  0  0  0  0  0
   -0.3690   -2.1050    2.1810 H   0  0  0  0  0  0  0  0  0  0  0  0
   -2.0520   -0.2900    2.1100 H   0  0  0  0  0  0  0  0  0  0  0  0
   -0.9890   -0.3470    3.5300 H   0  0  0  0  0  0  0  0  0  0  0  0
    0.7190    1.5450    3.9020 H   0  0  0  0  0  0  0  0  0  0  0  0
    1.1060    3.8770    2.8350 H   0  0  0  0  0  0  0  0  0  0  0  0
    0.1840    5.2300    0.5260 H   0  0  0  0  0  0  0  0  0  0  0  0
   -1.2830    4.9920   -1.4540 H   0  0  0  0  0  0  0  0  0  0  0  0
   -2.4750    2.9290   -1.7660 H   0  0  0  0  0  0  0  0  0  0  0  0
   -2.2620    1.0510   -0.1290 H   0  0  0  0  0  0  0  0  0  0  0  0
   -1.8130   -1.6100   -0.1150 N   0  0  0  0  0  0  0  0  0  0  0  0
   -2.1240   -1.6730   -1.5250 C   0  0  1  0  0  0  0  0  0  0  0  0
   -2.1780   -3.1910   -1.8340 C   0  0  0  0  0  0  0  0  0  0  0  0
   -0.8170   -3.7270   -1.4950 C   0  0  0  0  0  0  0  0  0  0  0  0
   -0.7110   -5.1880   -1.7400 C   0  0  0  0  0  0  0  0  0  0  0  0
   -1.6620   -5.8810   -2.1810 O   0  0  0  0  0  0  0  0  0  0  0  0
   -3.4280   -1.0930   -1.8830 C   0  0  0  0  0  0  0  0  0  0  0  0
   -3.7790   -1.0640   -3.0810 O   0  0  0  0  0  0  0  0  0  0  0  0
    0.5100   -5.7910   -1.4590 O   0  0  0  0  0  0  0  0  0  0  0  0
   -4.2690   -0.5850   -0.9230 O   0  0  0  0  0  0  0  0  0  0  0  0
   -2.5580   -1.8880    0.5470 H   0  0  0  0  0  0  0  0  0  0  0  0
   -1.3460   -1.2140   -2.1690 H   0  0  0  0  0  0  0  0  0  0  0  0
   -2.4080   -3.3650   -2.8970 H   0  0  0  0  0  0  0  0  0  0  0  0
   -2.9210   -3.6850   -1.2110 H   0  0  0  0  0  0  0  0  0  0  0  0
   -0.5800   -3.5550   -0.4250 H   0  0  0  0  0  0  0  0  0  0  0  0
   -0.0830   -3.1620   -2.1110 H   0  0  0  0  0  0  0  0  0  0  0  0
    0.5940   -6.7960   -1.4150 H   0  0  0  0  0  0  0  0  0  0  0  0
  1  2  1  0  0  0  0
  2  9  1  1  0  0  0
  2  3  1  0  0  0  0
  3 10  1  0  0  0  0
  4  2  1  0  0  0  0
  4  5  2  0  0  0  0
  6  1  1  0  0  0  0
  7  1  1  0  0  0  0
  8  1  1  0  0  0  0
 11  3  1  0  0  0  0
 12  4  1  0  0  0  0
 13 12  1  0  0  0  0
 13 27  1  1  0  0  0
 13 14  1  0  0  0  0
 14 29  1  0  0  0  0
 15 14  1  0  0  0  0
 15 16  2  0  0  0  0
 16 30  1  0  0  0  0
 17 31  1  0  0  0  0
 17 16  1  0  0  0  0
 18 17  1  0  0  0  0
 19 32  1  0  0  0  0
 19 18  2  0  0  0  0
 20 19  1  0  0  0  0
 21 20  2  0  0  0  0
 21 22  1  0  0  0  0
 22 23  2  0  0  0  0
 23 18  1  0  0  0  0
 23 15  1  0  0  0  0
 24 13  1  0  0  0  0
 25 24  2  0  0  0  0
 26 12  1  0  0  0  0
 28 14  1  0  0  0  0
 33 20  1  0  0  0  0
 34 21  1  0  0  0  0
 35 22  1  0  0  0  0
 36 24  1  0  0  0  0
 36 46  1  0  0  0  0
 37 47  1  6  0  0  0
 37 36  1  0  0  0  0
 38 37  1  0  0  0  0
 38 39  1  0  0  0  0
 38 49  1  0  0  0  0
 39 50  1  0  0  0  0
 40 39  1  0  0  0  0
 40 44  1  0  0  0  0
 41 40  2  0  0  0  0
 42 37  1  0  0  0  0
 42 45  1  0  0  0  0
 43 42  2  0  0  0  0
 44 52  1  0  0  0  0
 48 38  1  0  0  0  0
 51 39  1  0  0  0  0
M  END
$$$$
