AWH.pdb
 OpenBabel07022418023D

 53 55  0  0  1  0  0  0  0  0999 V2000
    4.7700   -1.4010   -0.4260 C   0  0  0  0  0  0  0  0  0  0  0  0
    4.5730   -1.7110    1.0650 C   0  0  2  0  0  0  0  0  0  0  0  0
    5.3050   -2.9180    1.3910 N   0  0  0  0  0  0  0  0  0  0  0  0
    3.1320   -1.9810    1.2560 C   0  0  0  0  0  0  0  0  0  0  0  0
    2.7480   -3.1170    1.6570 O   0  0  0  0  0  0  0  0  0  0  0  0
    5.8110   -1.5770   -0.7480 H   0  0  0  0  0  0  0  0  0  0  0  0
    4.0380   -2.0350   -0.9660 H   0  0  0  0  0  0  0  0  0  0  0  0
    4.4380   -0.3440   -0.6030 H   0  0  0  0  0  0  0  0  0  0  0  0
    4.9120   -0.8500    1.6810 H   0  0  0  0  0  0  0  0  0  0  0  0
    4.7340   -3.4530    2.0940 H   0  0  0  0  0  0  0  0  0  0  0  0
    5.2830   -3.5220    0.5240 H   0  0  0  0  0  0  0  0  0  0  0  0
    2.2080   -0.9410    0.9800 N   0  0  0  0  0  0  0  0  0  0  0  0
    0.7820   -1.1010    1.1350 C   0  0  1  0  0  0  0  0  0  0  0  0
    0.2670   -0.2600    2.2790 C   0  0  0  0  0  0  0  0  0  0  0  0
    0.5480    1.1720    2.1810 C   0  0  0  0  0  0  0  0  0  0  0  0
    1.5860    1.7800    2.9080 C   0  0  0  0  0  0  0  0  0  0  0  0
    1.5640    3.0650    2.5720 N   0  0  0  0  0  0  0  0  0  0  0  0
    0.5960    3.3260    1.6900 C   0  0  0  0  0  0  0  0  0  0  0  0
    0.1980    4.4990    1.0660 C   0  0  0  0  0  0  0  0  0  0  0  0
   -0.8530    4.4920    0.1830 C   0  0  0  0  0  0  0  0  0  0  0  0
   -1.5100    3.2950   -0.0770 C   0  0  0  0  0  0  0  0  0  0  0  0
   -1.1310    2.1310    0.5280 C   0  0  0  0  0  0  0  0  0  0  0  0
   -0.0780    2.1260    1.4160 C   0  0  0  0  0  0  0  0  0  0  0  0
   -0.0010   -1.0800   -0.0890 C   0  0  0  0  0  0  0  0  0  0  0  0
    0.4040   -0.7490   -1.2310 O   0  0  0  0  0  0  0  0  0  0  0  0
    2.5920   -0.0300    0.6530 H   0  0  0  0  0  0  0  0  0  0  0  0
    0.6720   -2.1740    1.5310 H   0  0  0  0  0  0  0  0  0  0  0  0
    0.6160   -0.6410    3.2590 H   0  0  0  0  0  0  0  0  0  0  0  0
   -0.8490   -0.4210    2.3060 H   0  0  0  0  0  0  0  0  0  0  0  0
    2.2780    1.3330    3.6040 H   0  0  0  0  0  0  0  0  0  0  0  0
    2.2260    3.8010    2.9500 H   0  0  0  0  0  0  0  0  0  0  0  0
    0.7490    5.4170    1.3040 H   0  0  0  0  0  0  0  0  0  0  0  0
   -1.1430    5.4120   -0.2870 H   0  0  0  0  0  0  0  0  0  0  0  0
   -2.3340    3.3640   -0.7890 H   0  0  0  0  0  0  0  0  0  0  0  0
   -1.6480    1.2260    0.3190 H   0  0  0  0  0  0  0  0  0  0  0  0
   -1.3950   -1.4740   -0.0890 N   0  0  0  0  0  0  0  0  0  0  0  0
   -2.2030   -1.4840   -1.2420 C   0  0  1  0  0  0  0  0  0  0  0  0
   -2.5280   -2.8300   -1.8160 C   0  0  0  0  0  0  0  0  0  0  0  0
   -3.2580   -3.6910   -0.8470 C   0  0  0  0  0  0  0  0  0  0  0  0
   -2.7220   -4.5800    0.0870 C   0  0  0  0  0  0  0  0  0  0  0  0
   -3.7170   -5.1730    0.7790 N   0  0  0  0  0  0  0  0  0  0  0  0
   -4.8640   -4.6780    0.3030 C   0  0  0  0  0  0  0  0  0  0  0  0
   -4.5960   -3.7930   -0.6690 N   0  0  0  0  0  0  0  0  0  0  0  0
   -3.4930   -0.8240   -0.9630 C   0  0  0  0  0  0  0  0  0  0  0  0
   -3.7740   -0.4010    0.1660 O   0  0  0  0  0  0  0  0  0  0  0  0
   -4.4670   -0.6380   -1.9530 O   0  0  0  0  0  0  0  0  0  0  0  0
   -1.8300   -1.7670    0.8130 H   0  0  0  0  0  0  0  0  0  0  0  0
   -1.6920   -0.9200   -2.0480 H   0  0  0  0  0  0  0  0  0  0  0  0
   -1.6770   -3.3600   -2.2470 H   0  0  0  0  0  0  0  0  0  0  0  0
   -3.2330   -2.6490   -2.6570 H   0  0  0  0  0  0  0  0  0  0  0  0
   -1.6730   -4.7780    0.2460 H   0  0  0  0  0  0  0  0  0  0  0  0
   -3.5680   -5.8770    1.5330 H   0  0  0  0  0  0  0  0  0  0  0  0
   -5.8500   -4.9420    0.6390 H   0  0  0  0  0  0  0  0  0  0  0  0
  1  2  1  0  0  0  0
  2  4  1  0  0  0  0
  2  3  1  0  0  0  0
  2  9  1  1  0  0  0
  3 10  1  0  0  0  0
  4  5  2  0  0  0  0
  6  1  1  0  0  0  0
  7  1  1  0  0  0  0
  8  1  1  0  0  0  0
 11  3  1  0  0  0  0
 12 13  1  0  0  0  0
 12  4  1  0  0  0  0
 13 27  1  1  0  0  0
 13 14  1  0  0  0  0
 14 29  1  0  0  0  0
 14 28  1  0  0  0  0
 15 14  1  0  0  0  0
 15 16  2  0  0  0  0
 16 30  1  0  0  0  0
 17 16  1  0  0  0  0
 17 31  1  0  0  0  0
 18 17  1  0  0  0  0
 19 32  1  0  0  0  0
 19 18  2  0  0  0  0
 20 19  1  0  0  0  0
 21 20  2  0  0  0  0
 21 22  1  0  0  0  0
 22 23  2  0  0  0  0
 23 18  1  0  0  0  0
 23 15  1  0  0  0  0
 24 36  1  0  0  0  0
 24 13  1  0  0  0  0
 25 24  2  0  0  0  0
 26 12  1  0  0  0  0
 33 20  1  0  0  0  0
 34 21  1  0  0  0  0
 35 22  1  0  0  0  0
 36 47  1  0  0  0  0
 37 48  1  6  0  0  0
 37 44  1  0  0  0  0
 37 36  1  0  0  0  0
 38 37  1  0  0  0  0
 38 39  1  0  0  0  0
 39 43  1  0  0  0  0
 39 40  2  0  0  0  0
 40 51  1  0  0  0  0
 40 41  1  0  0  0  0
 41 52  1  0  0  0  0
 42 53  1  0  0  0  0
 42 41  1  0  0  0  0
 43 42  2  0  0  0  0
 44 45  1  0  0  0  0
 46 44  2  0  0  0  0
 49 38  1  0  0  0  0
 50 38  1  0  0  0  0
M  END
$$$$
