AWK.pdb
 OpenBabel07022418033D

 57 58  0  0  1  0  0  0  0  0999 V2000
   -0.5750   -1.5130    6.0090 C   0  0  0  0  0  0  0  0  0  0  0  0
    0.2820   -0.3800    5.5070 C   0  0  2  0  0  0  0  0  0  0  0  0
   -0.4520    0.8360    5.6970 N   0  0  0  0  0  0  0  0  0  0  0  0
    0.6790   -0.5820    4.0860 C   0  0  0  0  0  0  0  0  0  0  0  0
    1.3570   -1.5940    3.7830 O   0  0  0  0  0  0  0  0  0  0  0  0
   -0.2750   -2.4330    5.4490 H   0  0  0  0  0  0  0  0  0  0  0  0
   -0.3460   -1.6730    7.0740 H   0  0  0  0  0  0  0  0  0  0  0  0
   -1.6580   -1.3150    5.8760 H   0  0  0  0  0  0  0  0  0  0  0  0
    1.2020   -0.3560    6.1220 H   0  0  0  0  0  0  0  0  0  0  0  0
   -1.4130    0.8070    5.3250 H   0  0  0  0  0  0  0  0  0  0  0  0
    0.0480    1.6790    5.3580 H   0  0  0  0  0  0  0  0  0  0  0  0
    0.2980    0.3560    3.0890 N   0  0  0  0  0  0  0  0  0  0  0  0
    0.6840    0.1740    1.6750 C   0  0  1  0  0  0  0  0  0  0  0  0
    2.1750    0.2530    1.5480 C   0  0  0  0  0  0  0  0  0  0  0  0
    2.7170    0.0920    0.1990 C   0  0  0  0  0  0  0  0  0  0  0  0
    3.4090   -0.9820   -0.3530 C   0  0  0  0  0  0  0  0  0  0  0  0
    3.7320   -0.6820   -1.6080 N   0  0  0  0  0  0  0  0  0  0  0  0
    3.2930    0.5470   -1.9400 C   0  0  0  0  0  0  0  0  0  0  0  0
    3.3560    1.3260   -3.0780 C   0  0  0  0  0  0  0  0  0  0  0  0
    2.8050    2.5880   -3.1380 C   0  0  0  0  0  0  0  0  0  0  0  0
    2.1800    3.0530   -2.0110 C   0  0  0  0  0  0  0  0  0  0  0  0
    2.1020    2.2990   -0.8650 C   0  0  0  0  0  0  0  0  0  0  0  0
    2.6580    1.0360   -0.8150 C   0  0  0  0  0  0  0  0  0  0  0  0
    0.0650   -1.0690    1.2200 C   0  0  0  0  0  0  0  0  0  0  0  0
   -0.5780   -1.7910    2.0330 O   0  0  0  0  0  0  0  0  0  0  0  0
   -0.2740    1.1970    3.3740 H   0  0  0  0  0  0  0  0  0  0  0  0
    0.2460    1.0740    1.1460 H   0  0  0  0  0  0  0  0  0  0  0  0
    2.5290    1.2470    1.9580 H   0  0  0  0  0  0  0  0  0  0  0  0
    2.6810   -0.4850    2.2330 H   0  0  0  0  0  0  0  0  0  0  0  0
    3.6190   -1.8980    0.2170 H   0  0  0  0  0  0  0  0  0  0  0  0
    4.2500   -1.3080   -2.2450 H   0  0  0  0  0  0  0  0  0  0  0  0
    3.8500    0.9640   -3.9750 H   0  0  0  0  0  0  0  0  0  0  0  0
    2.8420    3.2170   -4.0170 H   0  0  0  0  0  0  0  0  0  0  0  0
    1.7420    4.0340   -2.0320 H   0  0  0  0  0  0  0  0  0  0  0  0
    1.6010    2.6950    0.0120 H   0  0  0  0  0  0  0  0  0  0  0  0
    0.1010   -1.5920   -0.1110 N   0  0  0  0  0  0  0  0  0  0  0  0
   -0.5230   -2.8100   -0.5030 C   0  0  1  0  0  0  0  0  0  0  0  0
   -1.5760   -2.6730   -1.5570 C   0  0  0  0  0  0  0  0  0  0  0  0
   -2.7230   -1.7620   -1.0990 C   0  0  0  0  0  0  0  0  0  0  0  0
   -3.6880   -1.7230   -2.2460 C   0  0  0  0  0  0  0  0  0  0  0  0
   -4.8990   -0.8620   -1.9710 C   0  0  0  0  0  0  0  0  0  0  0  0
   -5.6440   -1.3260   -0.8360 N   0  0  0  0  0  0  0  0  0  0  0  0
    0.3860   -3.8950   -0.8980 C   0  0  0  0  0  0  0  0  0  0  0  0
   -0.0910   -4.9940   -1.2580 O   0  0  0  0  0  0  0  0  0  0  0  0
    1.7400   -3.7000   -0.8710 O   0  0  0  0  0  0  0  0  0  0  0  0
    0.6100   -1.0250   -0.8170 H   0  0  0  0  0  0  0  0  0  0  0  0
   -1.0590   -3.2000    0.4170 H   0  0  0  0  0  0  0  0  0  0  0  0
   -2.0510   -3.6890   -1.6640 H   0  0  0  0  0  0  0  0  0  0  0  0
   -1.2130   -2.4020   -2.5470 H   0  0  0  0  0  0  0  0  0  0  0  0
   -2.3570   -0.7760   -0.7930 H   0  0  0  0  0  0  0  0  0  0  0  0
   -3.2010   -2.3010   -0.2520 H   0  0  0  0  0  0  0  0  0  0  0  0
   -3.1410   -1.3280   -3.1290 H   0  0  0  0  0  0  0  0  0  0  0  0
   -4.0260   -2.7610   -2.4490 H   0  0  0  0  0  0  0  0  0  0  0  0
   -5.5670   -0.8890   -2.8610 H   0  0  0  0  0  0  0  0  0  0  0  0
   -4.5830    0.1920   -1.8120 H   0  0  0  0  0  0  0  0  0  0  0  0
   -6.6790   -1.3520   -1.0090 H   0  0  0  0  0  0  0  0  0  0  0  0
   -5.3150   -2.2530   -0.4700 H   0  0  0  0  0  0  0  0  0  0  0  0
  1  7  1  0  0  0  0
  2  3  1  0  0  0  0
  2  1  1  0  0  0  0
  2  9  1  1  0  0  0
  4  2  1  0  0  0  0
  5  4  2  0  0  0  0
  6  1  1  0  0  0  0
  8  1  1  0  0  0  0
 10  3  1  0  0  0  0
 11  3  1  0  0  0  0
 12 26  1  0  0  0  0
 12  4  1  0  0  0  0
 13 27  1  6  0  0  0
 13 12  1  0  0  0  0
 14 13  1  0  0  0  0
 14 28  1  0  0  0  0
 14 29  1  0  0  0  0
 15 14  1  0  0  0  0
 16 15  2  0  0  0  0
 16 30  1  0  0  0  0
 17 16  1  0  0  0  0
 18 17  1  0  0  0  0
 18 23  1  0  0  0  0
 19 18  2  0  0  0  0
 20 19  1  0  0  0  0
 20 21  2  0  0  0  0
 21 22  1  0  0  0  0
 22 23  2  0  0  0  0
 22 35  1  0  0  0  0
 23 15  1  0  0  0  0
 24 13  1  0  0  0  0
 24 25  2  0  0  0  0
 31 17  1  0  0  0  0
 32 19  1  0  0  0  0
 33 20  1  0  0  0  0
 34 21  1  0  0  0  0
 36 24  1  0  0  0  0
 37 36  1  0  0  0  0
 37 47  1  1  0  0  0
 38 39  1  0  0  0  0
 38 37  1  0  0  0  0
 39 50  1  0  0  0  0
 39 51  1  0  0  0  0
 40 41  1  0  0  0  0
 40 39  1  0  0  0  0
 41 55  1  0  0  0  0
 41 42  1  0  0  0  0
 42 57  1  0  0  0  0
 43 45  1  0  0  0  0
 43 37  1  0  0  0  0
 44 43  2  0  0  0  0
 46 36  1  0  0  0  0
 48 38  1  0  0  0  0
 49 38  1  0  0  0  0
 52 40  1  0  0  0  0
 53 40  1  0  0  0  0
 54 41  1  0  0  0  0
 56 42  1  0  0  0  0
M  END
$$$$
