AWM.pdb
 OpenBabel07022418033D

 53 54  0  0  1  0  0  0  0  0999 V2000
    0.8060   -2.2770    4.4460 C   0  0  0  0  0  0  0  0  0  0  0  0
    0.8110   -0.8230    3.9810 C   0  0  2  0  0  0  0  0  0  0  0  0
   -0.2190   -0.1290    4.6830 N   0  0  0  0  0  0  0  0  0  0  0  0
    0.5410   -0.8790    2.5000 C   0  0  0  0  0  0  0  0  0  0  0  0
    1.3400   -1.4520    1.7400 O   0  0  0  0  0  0  0  0  0  0  0  0
    1.4460   -2.3950    5.3380 H   0  0  0  0  0  0  0  0  0  0  0  0
    1.2090   -2.9290    3.6290 H   0  0  0  0  0  0  0  0  0  0  0  0
   -0.2320   -2.5920    4.6940 H   0  0  0  0  0  0  0  0  0  0  0  0
    1.7710   -0.3340    4.2000 H   0  0  0  0  0  0  0  0  0  0  0  0
   -1.1370   -0.6170    4.6870 H   0  0  0  0  0  0  0  0  0  0  0  0
   -0.2630    0.8810    4.5400 H   0  0  0  0  0  0  0  0  0  0  0  0
   -0.6280   -0.2720    2.0060 N   0  0  0  0  0  0  0  0  0  0  0  0
   -0.9370   -0.3130    0.5970 C   0  0  1  0  0  0  0  0  0  0  0  0
   -0.4910    0.8520   -0.1980 C   0  0  0  0  0  0  0  0  0  0  0  0
    0.9280    1.1620   -0.2270 C   0  0  0  0  0  0  0  0  0  0  0  0
    1.8430    0.8670   -1.2100 C   0  0  0  0  0  0  0  0  0  0  0  0
    3.0560    1.3140   -0.8480 N   0  0  0  0  0  0  0  0  0  0  0  0
    2.9490    1.8970    0.3510 C   0  0  0  0  0  0  0  0  0  0  0  0
    3.8630    2.5120    1.1580 C   0  0  0  0  0  0  0  0  0  0  0  0
    3.5340    3.0620    2.3730 C   0  0  0  0  0  0  0  0  0  0  0  0
    2.2200    2.9800    2.7760 C   0  0  0  0  0  0  0  0  0  0  0  0
    1.2640    2.3690    1.9960 C   0  0  0  0  0  0  0  0  0  0  0  0
    1.6350    1.8160    0.7600 C   0  0  0  0  0  0  0  0  0  0  0  0
   -0.7820   -1.6430   -0.0240 C   0  0  0  0  0  0  0  0  0  0  0  0
   -0.5310   -2.6740    0.6650 O   0  0  0  0  0  0  0  0  0  0  0  0
   -1.2830    0.2240    2.7000 H   0  0  0  0  0  0  0  0  0  0  0  0
   -2.1060   -0.2070    0.6060 H   0  0  0  0  0  0  0  0  0  0  0  0
   -1.0830    1.7380    0.2100 H   0  0  0  0  0  0  0  0  0  0  0  0
   -0.9120    0.7500   -1.2310 H   0  0  0  0  0  0  0  0  0  0  0  0
    1.6480    0.3610   -2.1360 H   0  0  0  0  0  0  0  0  0  0  0  0
    3.9180    1.2010   -1.4460 H   0  0  0  0  0  0  0  0  0  0  0  0
    4.8930    2.5750    0.8390 H   0  0  0  0  0  0  0  0  0  0  0  0
    4.2910    3.5530    3.0060 H   0  0  0  0  0  0  0  0  0  0  0  0
    1.9000    3.3960    3.7260 H   0  0  0  0  0  0  0  0  0  0  0  0
    0.2410    2.3270    2.3410 H   0  0  0  0  0  0  0  0  0  0  0  0
   -5.1410   -1.9570   -0.4770 C   0  0  0  0  0  0  0  0  0  0  0  0
   -3.5590   -1.8400   -1.3490 S   0  0  0  0  0  0  0  0  0  0  0  0
   -3.1990   -3.4260   -2.1240 C   0  0  0  0  0  0  0  0  0  0  0  0
   -1.9200   -3.4650   -2.8820 C   0  0  0  0  0  0  0  0  0  0  0  0
   -0.7380   -3.2000   -2.0010 C   0  0  2  0  0  0  0  0  0  0  0  0
   -0.9000   -1.8660   -1.4160 N   0  0  0  0  0  0  0  0  0  0  0  0
    0.5010   -3.2920   -2.8120 C   0  0  0  0  0  0  0  0  0  0  0  0
    0.7830   -4.3670   -3.3780 O   0  0  0  0  0  0  0  0  0  0  0  0
    1.3340   -2.2130   -2.9470 O   0  0  0  0  0  0  0  0  0  0  0  0
   -5.1280   -2.8470    0.1980 H   0  0  0  0  0  0  0  0  0  0  0  0
   -5.2740   -1.0480    0.1370 H   0  0  0  0  0  0  0  0  0  0  0  0
   -5.9480   -2.0500   -1.2540 H   0  0  0  0  0  0  0  0  0  0  0  0
   -4.0860   -3.6860   -2.7540 H   0  0  0  0  0  0  0  0  0  0  0  0
   -3.2070   -4.1890   -1.2940 H   0  0  0  0  0  0  0  0  0  0  0  0
   -1.7980   -4.3900   -3.4870 H   0  0  0  0  0  0  0  0  0  0  0  0
   -1.8950   -2.6410   -3.6610 H   0  0  0  0  0  0  0  0  0  0  0  0
   -0.6820   -3.9550   -1.1610 H   0  0  0  0  0  0  0  0  0  0  0  0
   -1.1060   -1.0750   -2.0470 H   0  0  0  0  0  0  0  0  0  0  0  0
  1  8  1  0  0  0  0
  1  6  1  0  0  0  0
  2  9  1  1  0  0  0
  2  1  1  0  0  0  0
  2  3  1  0  0  0  0
  3 10  1  0  0  0  0
  4  2  1  0  0  0  0
  5  4  2  0  0  0  0
  7  1  1  0  0  0  0
 11  3  1  0  0  0  0
 12  4  1  0  0  0  0
 12 26  1  0  0  0  0
 13 27  1  1  0  0  0
 13 12  1  0  0  0  0
 14 28  1  0  0  0  0
 14 13  1  0  0  0  0
 15 14  1  0  0  0  0
 15 23  1  0  0  0  0
 16 17  1  0  0  0  0
 16 15  2  0  0  0  0
 17 18  1  0  0  0  0
 18 23  2  0  0  0  0
 18 19  1  0  0  0  0
 19 20  2  0  0  0  0
 20 21  1  0  0  0  0
 20 33  1  0  0  0  0
 21 34  1  0  0  0  0
 22 35  1  0  0  0  0
 22 21  2  0  0  0  0
 23 22  1  0  0  0  0
 24 13  1  0  0  0  0
 24 25  2  0  0  0  0
 29 14  1  0  0  0  0
 30 16  1  0  0  0  0
 31 17  1  0  0  0  0
 32 19  1  0  0  0  0
 36 46  1  0  0  0  0
 36 45  1  0  0  0  0
 37 36  1  0  0  0  0
 38 37  1  0  0  0  0
 38 49  1  0  0  0  0
 39 38  1  0  0  0  0
 39 40  1  0  0  0  0
 40 41  1  0  0  0  0
 40 52  1  1  0  0  0
 41 24  1  0  0  0  0
 42 40  1  0  0  0  0
 43 42  2  0  0  0  0
 44 42  1  0  0  0  0
 47 36  1  0  0  0  0
 48 38  1  0  0  0  0
 50 39  1  0  0  0  0
 51 39  1  0  0  0  0
 53 41  1  0  0  0  0
M  END
$$$$
