AWP.pdb
 OpenBabel07022418033D

 50 52  0  0  1  0  0  0  0  0999 V2000
   -0.2730   -2.8810    3.5540 C   0  0  0  0  0  0  0  0  0  0  0  0
    0.6140   -1.7780    3.0210 C   0  0  2  0  0  0  0  0  0  0  0  0
    0.2750   -0.5560    3.7150 N   0  0  0  0  0  0  0  0  0  0  0  0
    0.4950   -1.5880    1.5800 C   0  0  0  0  0  0  0  0  0  0  0  0
    0.7210   -2.4700    0.7170 O   0  0  0  0  0  0  0  0  0  0  0  0
    0.1720   -3.8690    3.3350 H   0  0  0  0  0  0  0  0  0  0  0  0
   -0.3230   -2.7340    4.6630 H   0  0  0  0  0  0  0  0  0  0  0  0
   -1.3010   -2.8440    3.1830 H   0  0  0  0  0  0  0  0  0  0  0  0
    1.6520   -2.0570    3.3350 H   0  0  0  0  0  0  0  0  0  0  0  0
   -0.0130   -0.7340    4.7110 H   0  0  0  0  0  0  0  0  0  0  0  0
    1.1680    0.0060    3.7970 H   0  0  0  0  0  0  0  0  0  0  0  0
    0.0860   -0.2920    1.0890 N   0  0  0  0  0  0  0  0  0  0  0  0
   -0.0650   -0.0010   -0.2860 C   0  0  1  0  0  0  0  0  0  0  0  0
    1.1880    0.4760   -0.9700 C   0  0  0  0  0  0  0  0  0  0  0  0
    1.7030    1.7270   -0.3820 C   0  0  0  0  0  0  0  0  0  0  0  0
    1.4600    3.0210   -0.8830 C   0  0  0  0  0  0  0  0  0  0  0  0
    2.0490    3.9050   -0.0830 N   0  0  0  0  0  0  0  0  0  0  0  0
    2.6690    3.2510    0.9220 C   0  0  0  0  0  0  0  0  0  0  0  0
    3.4120    3.7200    1.9840 C   0  0  0  0  0  0  0  0  0  0  0  0
    3.9390    2.8070    2.8590 C   0  0  0  0  0  0  0  0  0  0  0  0
    3.7450    1.4400    2.7020 C   0  0  0  0  0  0  0  0  0  0  0  0
    3.0020    0.9820    1.6400 C   0  0  0  0  0  0  0  0  0  0  0  0
    2.4560    1.8840    0.7390 C   0  0  0  0  0  0  0  0  0  0  0  0
   -0.7980   -0.9510   -1.1250 C   0  0  0  0  0  0  0  0  0  0  0  0
   -0.4640   -0.8850   -2.3820 O   0  0  0  0  0  0  0  0  0  0  0  0
   -0.0990    0.4600    1.8020 H   0  0  0  0  0  0  0  0  0  0  0  0
   -0.8120    0.9200   -0.2730 H   0  0  0  0  0  0  0  0  0  0  0  0
    0.9860    0.6850   -2.0610 H   0  0  0  0  0  0  0  0  0  0  0  0
    1.9790   -0.3120   -0.9740 H   0  0  0  0  0  0  0  0  0  0  0  0
    0.8790    3.2100   -1.7820 H   0  0  0  0  0  0  0  0  0  0  0  0
    2.0580    4.9600   -0.1770 H   0  0  0  0  0  0  0  0  0  0  0  0
    3.5690    4.7680    2.1160 H   0  0  0  0  0  0  0  0  0  0  0  0
    4.5310    3.1340    3.7090 H   0  0  0  0  0  0  0  0  0  0  0  0
    4.1660    0.7210    3.3980 H   0  0  0  0  0  0  0  0  0  0  0  0
    2.8470   -0.0590    1.4860 H   0  0  0  0  0  0  0  0  0  0  0  0
   -1.7710   -1.8870   -0.8280 N   0  0  0  0  0  0  0  0  0  0  0  0
   -2.4730   -2.1860    0.3830 C   0  0  0  0  0  0  0  0  0  0  0  0
   -2.3620   -3.6990    0.4330 C   0  0  0  0  0  0  0  0  0  0  0  0
   -2.3850   -4.1380   -1.0160 C   0  0  0  0  0  0  0  0  0  0  0  0
   -2.3030   -2.8710   -1.7900 C   0  0  1  0  0  0  0  0  0  0  0  0
   -3.6310   -2.4810   -2.3090 C   0  0  0  0  0  0  0  0  0  0  0  0
   -4.1760   -1.3970   -1.9910 O   0  0  0  0  0  0  0  0  0  0  0  0
   -4.3220   -3.3150   -3.1740 O   0  0  0  0  0  0  0  0  0  0  0  0
   -3.5800   -1.9740    0.1500 H   0  0  0  0  0  0  0  0  0  0  0  0
   -2.1900   -1.6800    1.2850 H   0  0  0  0  0  0  0  0  0  0  0  0
   -3.2600   -4.0720    0.9580 H   0  0  0  0  0  0  0  0  0  0  0  0
   -1.4780   -4.0740    0.9410 H   0  0  0  0  0  0  0  0  0  0  0  0
   -3.3470   -4.6530   -1.2720 H   0  0  0  0  0  0  0  0  0  0  0  0
   -1.5210   -4.7910   -1.2450 H   0  0  0  0  0  0  0  0  0  0  0  0
   -1.5990   -2.9500   -2.6610 H   0  0  0  0  0  0  0  0  0  0  0  0
  1  7  1  0  0  0  0
  2  9  1  1  0  0  0
  2  1  1  0  0  0  0
  2  3  1  0  0  0  0
  3 11  1  0  0  0  0
  3 10  1  0  0  0  0
  4  2  1  0  0  0  0
  5  4  2  0  0  0  0
  6  1  1  0  0  0  0
  8  1  1  0  0  0  0
 12  4  1  0  0  0  0
 12 26  1  0  0  0  0
 13 27  1  6  0  0  0
 13 12  1  0  0  0  0
 14 15  1  0  0  0  0
 14 13  1  0  0  0  0
 15 23  1  0  0  0  0
 16 15  2  0  0  0  0
 16 17  1  0  0  0  0
 17 18  1  0  0  0  0
 18 19  1  0  0  0  0
 19 32  1  0  0  0  0
 19 20  2  0  0  0  0
 20 33  1  0  0  0  0
 21 20  1  0  0  0  0
 21 34  1  0  0  0  0
 22 21  2  0  0  0  0
 23 18  2  0  0  0  0
 23 22  1  0  0  0  0
 24 36  1  0  0  0  0
 24 13  1  0  0  0  0
 25 24  2  0  0  0  0
 28 14  1  0  0  0  0
 29 14  1  0  0  0  0
 30 16  1  0  0  0  0
 31 17  1  0  0  0  0
 35 22  1  0  0  0  0
 36 37  1  0  0  0  0
 37 38  1  0  0  0  0
 37 45  1  0  0  0  0
 38 47  1  0  0  0  0
 38 46  1  0  0  0  0
 39 38  1  0  0  0  0
 40 50  1  6  0  0  0
 40 39  1  0  0  0  0
 40 36  1  0  0  0  0
 41 42  1  0  0  0  0
 41 40  1  0  0  0  0
 43 41  2  0  0  0  0
 44 37  1  0  0  0  0
 48 39  1  0  0  0  0
 49 39  1  0  0  0  0
M  END
$$$$
