AWQ.pdb
 OpenBabel07022418023D

 53 54  0  0  1  0  0  0  0  0999 V2000
    5.5250   -1.8210    0.6180 C   0  0  0  0  0  0  0  0  0  0  0  0
    4.1370   -2.3310    0.2310 C   0  0  2  0  0  0  0  0  0  0  0  0
    3.7020   -1.5380   -0.8930 N   0  0  0  0  0  0  0  0  0  0  0  0
    3.1790   -2.1190    1.3690 C   0  0  0  0  0  0  0  0  0  0  0  0
    3.3130   -2.6930    2.4610 O   0  0  0  0  0  0  0  0  0  0  0  0
    5.6030   -1.9350    1.7190 H   0  0  0  0  0  0  0  0  0  0  0  0
    6.2500   -2.4270    0.0570 H   0  0  0  0  0  0  0  0  0  0  0  0
    5.6070   -0.7510    0.3140 H   0  0  0  0  0  0  0  0  0  0  0  0
    4.1480   -3.4020    0.0150 H   0  0  0  0  0  0  0  0  0  0  0  0
    3.5850   -2.1330   -1.7580 H   0  0  0  0  0  0  0  0  0  0  0  0
    4.3150   -0.7290   -1.0680 H   0  0  0  0  0  0  0  0  0  0  0  0
    2.0710   -1.2390    1.2260 N   0  0  0  0  0  0  0  0  0  0  0  0
    1.0980   -0.9740    2.2680 C   0  0  1  0  0  0  0  0  0  0  0  0
    1.1440    0.4090    2.7800 C   0  0  0  0  0  0  0  0  0  0  0  0
    0.9400    1.5020    1.8630 C   0  0  0  0  0  0  0  0  0  0  0  0
    1.9570    2.2300    1.2780 C   0  0  0  0  0  0  0  0  0  0  0  0
    1.4520    3.1550    0.4540 N   0  0  0  0  0  0  0  0  0  0  0  0
    0.1120    3.0510    0.4840 C   0  0  0  0  0  0  0  0  0  0  0  0
   -0.8480    3.7800   -0.1800 C   0  0  0  0  0  0  0  0  0  0  0  0
   -2.1910    3.5180   -0.0010 C   0  0  0  0  0  0  0  0  0  0  0  0
   -2.5340    2.5030    0.8660 C   0  0  0  0  0  0  0  0  0  0  0  0
   -1.5530    1.7810    1.5250 C   0  0  0  0  0  0  0  0  0  0  0  0
   -0.2110    2.0280    1.3570 C   0  0  0  0  0  0  0  0  0  0  0  0
   -0.2040   -1.5220    1.8740 C   0  0  0  0  0  0  0  0  0  0  0  0
   -1.1440   -1.4940    2.7200 O   0  0  0  0  0  0  0  0  0  0  0  0
    1.9790   -0.7660    0.2920 H   0  0  0  0  0  0  0  0  0  0  0  0
    1.4480   -1.6310    3.1350 H   0  0  0  0  0  0  0  0  0  0  0  0
    0.3250    0.4790    3.5640 H   0  0  0  0  0  0  0  0  0  0  0  0
    2.0770    0.5030    3.4010 H   0  0  0  0  0  0  0  0  0  0  0  0
    3.0050    2.0850    1.4500 H   0  0  0  0  0  0  0  0  0  0  0  0
    1.9770    3.8510   -0.1270 H   0  0  0  0  0  0  0  0  0  0  0  0
   -0.5860    4.5840   -0.8670 H   0  0  0  0  0  0  0  0  0  0  0  0
   -2.9580    4.0820   -0.5160 H   0  0  0  0  0  0  0  0  0  0  0  0
   -3.6030    2.2920    1.0120 H   0  0  0  0  0  0  0  0  0  0  0  0
   -1.8150    0.9940    2.2140 H   0  0  0  0  0  0  0  0  0  0  0  0
   -6.0200   -2.3970   -0.7200 N   0  0  0  0  0  0  0  0  0  0  0  0
   -4.6730   -1.9840   -0.4120 C   0  0  0  0  0  0  0  0  0  0  0  0
   -4.4990   -1.4530    0.7000 O   0  0  0  0  0  0  0  0  0  0  0  0
   -3.6440   -2.2310   -1.4430 C   0  0  0  0  0  0  0  0  0  0  0  0
   -2.3030   -1.8550   -0.9240 C   0  0  0  0  0  0  0  0  0  0  0  0
   -1.8450   -2.6190    0.2900 C   0  0  2  0  0  0  0  0  0  0  0  0
   -0.5110   -2.0860    0.6200 N   0  0  0  0  0  0  0  0  0  0  0  0
   -1.7100   -4.0730    0.0230 C   0  0  0  0  0  0  0  0  0  0  0  0
   -2.7390   -4.7250   -0.2710 O   0  0  0  0  0  0  0  0  0  0  0  0
   -0.4660   -4.7250    0.0930 O   0  0  0  0  0  0  0  0  0  0  0  0
   -6.3450   -2.5360   -1.7020 H   0  0  0  0  0  0  0  0  0  0  0  0
   -6.7230   -2.5730    0.0290 H   0  0  0  0  0  0  0  0  0  0  0  0
   -3.8760   -1.5500   -2.3040 H   0  0  0  0  0  0  0  0  0  0  0  0
   -3.6760   -3.2810   -1.8380 H   0  0  0  0  0  0  0  0  0  0  0  0
   -1.4980   -1.9110   -1.6870 H   0  0  0  0  0  0  0  0  0  0  0  0
   -2.3320   -0.7660   -0.6240 H   0  0  0  0  0  0  0  0  0  0  0  0
   -2.5090   -2.4970    1.1400 H   0  0  0  0  0  0  0  0  0  0  0  0
    0.2400   -2.1220   -0.0950 H   0  0  0  0  0  0  0  0  0  0  0  0
  1  6  1  0  0  0  0
  2  9  1  6  0  0  0
  2  1  1  0  0  0  0
  2  4  1  0  0  0  0
  3  2  1  0  0  0  0
  4  5  2  0  0  0  0
  7  1  1  0  0  0  0
  8  1  1  0  0  0  0
 10  3  1  0  0  0  0
 11  3  1  0  0  0  0
 12  4  1  0  0  0  0
 12 13  1  0  0  0  0
 13 14  1  0  0  0  0
 13 27  1  1  0  0  0
 14 29  1  0  0  0  0
 14 28  1  0  0  0  0
 15 14  1  0  0  0  0
 16 30  1  0  0  0  0
 16 15  2  0  0  0  0
 17 18  1  0  0  0  0
 17 16  1  0  0  0  0
 18 23  1  0  0  0  0
 19 20  1  0  0  0  0
 19 18  2  0  0  0  0
 20 21  2  0  0  0  0
 21 34  1  0  0  0  0
 21 22  1  0  0  0  0
 22 35  1  0  0  0  0
 23 22  2  0  0  0  0
 23 15  1  0  0  0  0
 24 13  1  0  0  0  0
 24 25  2  0  0  0  0
 26 12  1  0  0  0  0
 31 17  1  0  0  0  0
 32 19  1  0  0  0  0
 33 20  1  0  0  0  0
 36 37  1  0  0  0  0
 36 47  1  0  0  0  0
 37 38  2  0  0  0  0
 39 40  1  0  0  0  0
 39 37  1  0  0  0  0
 40 51  1  0  0  0  0
 40 41  1  0  0  0  0
 41 42  1  0  0  0  0
 41 52  1  1  0  0  0
 42 24  1  0  0  0  0
 43 45  1  0  0  0  0
 43 41  1  0  0  0  0
 44 43  2  0  0  0  0
 46 36  1  0  0  0  0
 48 39  1  0  0  0  0
 49 39  1  0  0  0  0
 50 40  1  0  0  0  0
 53 42  1  0  0  0  0
M  END
$$$$
