AWT.pdb
 OpenBabel07022418033D

 50 51  0  0  1  0  0  0  0  0999 V2000
    2.6950   -3.0670    3.5510 C   0  0  0  0  0  0  0  0  0  0  0  0
    2.7250   -1.5610    3.3520 C   0  0  2  0  0  0  0  0  0  0  0  0
    2.6670   -0.9410    4.6590 N   0  0  0  0  0  0  0  0  0  0  0  0
    1.5920   -1.0830    2.5300 C   0  0  0  0  0  0  0  0  0  0  0  0
    0.7800   -0.2760    3.0430 O   0  0  0  0  0  0  0  0  0  0  0  0
    3.7580   -3.4220    3.6030 H   0  0  0  0  0  0  0  0  0  0  0  0
    2.2280   -3.3470    4.5180 H   0  0  0  0  0  0  0  0  0  0  0  0
    2.1790   -3.5580    2.7030 H   0  0  0  0  0  0  0  0  0  0  0  0
    3.6890   -1.2600    2.8770 H   0  0  0  0  0  0  0  0  0  0  0  0
    2.3300   -1.5880    5.4020 H   0  0  0  0  0  0  0  0  0  0  0  0
    2.0420   -0.1210    4.6560 H   0  0  0  0  0  0  0  0  0  0  0  0
    1.4170   -1.5240    1.1820 N   0  0  0  0  0  0  0  0  0  0  0  0
    0.3030   -1.0260    0.4430 C   0  0  1  0  0  0  0  0  0  0  0  0
    0.6950   -0.3070   -0.8280 C   0  0  0  0  0  0  0  0  0  0  0  0
    1.5520    0.8580   -0.5800 C   0  0  0  0  0  0  0  0  0  0  0  0
    2.9110    0.9470   -0.7910 C   0  0  0  0  0  0  0  0  0  0  0  0
    3.3230    2.1640   -0.4490 N   0  0  0  0  0  0  0  0  0  0  0  0
    2.2780    2.9200   -0.0060 C   0  0  0  0  0  0  0  0  0  0  0  0
    2.1610    4.2130    0.4560 C   0  0  0  0  0  0  0  0  0  0  0  0
    0.9160    4.6680    0.8320 C   0  0  0  0  0  0  0  0  0  0  0  0
   -0.1950    3.8530    0.7510 C   0  0  0  0  0  0  0  0  0  0  0  0
   -0.0920    2.5570    0.2910 C   0  0  0  0  0  0  0  0  0  0  0  0
    1.1570    2.0940   -0.0890 C   0  0  0  0  0  0  0  0  0  0  0  0
   -0.5990   -2.1630    0.1220 C   0  0  0  0  0  0  0  0  0  0  0  0
   -0.3390   -3.3480    0.4920 O   0  0  0  0  0  0  0  0  0  0  0  0
    2.1250   -2.1850    0.8320 H   0  0  0  0  0  0  0  0  0  0  0  0
   -0.3120   -0.3320    1.0750 H   0  0  0  0  0  0  0  0  0  0  0  0
    1.2600   -1.0300   -1.4510 H   0  0  0  0  0  0  0  0  0  0  0  0
   -0.2210   -0.0630   -1.4040 H   0  0  0  0  0  0  0  0  0  0  0  0
    3.5630    0.1710   -1.1710 H   0  0  0  0  0  0  0  0  0  0  0  0
    4.2880    2.5600   -0.4850 H   0  0  0  0  0  0  0  0  0  0  0  0
    3.0350    4.8540    0.5200 H   0  0  0  0  0  0  0  0  0  0  0  0
    0.8080    5.6880    1.1990 H   0  0  0  0  0  0  0  0  0  0  0  0
   -1.1730    4.2020    1.0440 H   0  0  0  0  0  0  0  0  0  0  0  0
   -0.9590    1.8850    0.2160 H   0  0  0  0  0  0  0  0  0  0  0  0
   -3.7030   -2.8010    1.2960 C   0  0  0  0  0  0  0  0  0  0  0  0
   -3.9960   -2.8360   -0.1900 C   0  0  1  0  0  0  0  0  0  0  0  0
   -4.5570   -1.6230   -0.5980 O   0  0  0  0  0  0  0  0  0  0  0  0
   -2.7000   -3.0900   -0.9420 C   0  0  2  0  0  0  0  0  0  0  0  0
   -1.8080   -1.9770   -0.6230 N   0  0  0  0  0  0  0  0  0  0  0  0
   -2.9120   -3.2280   -2.3850 C   0  0  0  0  0  0  0  0  0  0  0  0
   -3.6450   -4.1290   -2.8270 O   0  0  0  0  0  0  0  0  0  0  0  0
   -2.2990   -2.3590   -3.2650 O   0  0  0  0  0  0  0  0  0  0  0  0
   -3.5240   -1.7300    1.5990 H   0  0  0  0  0  0  0  0  0  0  0  0
   -4.6230   -3.1000    1.8650 H   0  0  0  0  0  0  0  0  0  0  0  0
   -2.9000   -3.4740    1.6000 H   0  0  0  0  0  0  0  0  0  0  0  0
   -4.6780   -3.6690   -0.3780 H   0  0  0  0  0  0  0  0  0  0  0  0
   -4.5350   -0.9830    0.1540 H   0  0  0  0  0  0  0  0  0  0  0  0
   -2.2390   -3.9970   -0.4870 H   0  0  0  0  0  0  0  0  0  0  0  0
   -2.0180   -0.9920   -0.9280 H   0  0  0  0  0  0  0  0  0  0  0  0
  1  6  1  0  0  0  0
  1  7  1  0  0  0  0
  2  9  1  6  0  0  0
  2  1  1  0  0  0  0
  2  3  1  0  0  0  0
  3 10  1  0  0  0  0
  4  5  2  0  0  0  0
  4  2  1  0  0  0  0
  8  1  1  0  0  0  0
 11  3  1  0  0  0  0
 12  4  1  0  0  0  0
 13 27  1  1  0  0  0
 13 12  1  0  0  0  0
 14 15  1  0  0  0  0
 14 13  1  0  0  0  0
 15 23  1  0  0  0  0
 16 15  2  0  0  0  0
 16 17  1  0  0  0  0
 17 18  1  0  0  0  0
 18 19  1  0  0  0  0
 19 32  1  0  0  0  0
 19 20  2  0  0  0  0
 20 33  1  0  0  0  0
 21 20  1  0  0  0  0
 21 34  1  0  0  0  0
 22 21  2  0  0  0  0
 23 18  2  0  0  0  0
 23 22  1  0  0  0  0
 24 13  1  0  0  0  0
 24 25  2  0  0  0  0
 26 12  1  0  0  0  0
 28 14  1  0  0  0  0
 29 14  1  0  0  0  0
 30 16  1  0  0  0  0
 31 17  1  0  0  0  0
 35 22  1  0  0  0  0
 36 44  1  0  0  0  0
 36 46  1  0  0  0  0
 36 45  1  0  0  0  0
 37 47  1  6  0  0  0
 37 36  1  0  0  0  0
 38 37  1  0  0  0  0
 38 48  1  0  0  0  0
 39 40  1  0  0  0  0
 39 49  1  1  0  0  0
 39 37  1  0  0  0  0
 40 24  1  0  0  0  0
 41 39  1  0  0  0  0
 42 41  1  0  0  0  0
 43 41  2  0  0  0  0
 50 40  1  0  0  0  0
M  END
$$$$
