AYC.pdb
 OpenBabel07022418033D

 44 44  0  0  1  0  0  0  0  0999 V2000
    1.5860   -4.7760    0.5700 C   0  0  0  0  0  0  0  0  0  0  0  0
    2.7480   -3.8940    0.9690 C   0  0  2  0  0  0  0  0  0  0  0  0
    3.3540   -4.4850    2.1430 N   0  0  0  0  0  0  0  0  0  0  0  0
    2.3320   -2.5240    1.3040 C   0  0  0  0  0  0  0  0  0  0  0  0
    2.5360   -2.0820    2.4610 O   0  0  0  0  0  0  0  0  0  0  0  0
    1.4150   -4.7700   -0.5260 H   0  0  0  0  0  0  0  0  0  0  0  0
    0.6760   -4.4700    1.1260 H   0  0  0  0  0  0  0  0  0  0  0  0
    1.8390   -5.8050    0.8490 H   0  0  0  0  0  0  0  0  0  0  0  0
    3.5230   -3.9200    0.1700 H   0  0  0  0  0  0  0  0  0  0  0  0
    3.7720   -3.7390    2.7710 H   0  0  0  0  0  0  0  0  0  0  0  0
    2.7060   -5.1050    2.6670 H   0  0  0  0  0  0  0  0  0  0  0  0
    0.3940    5.9160    1.8220 O   0  0  0  0  0  0  0  0  0  0  0  0
    0.8090    4.6500    1.3980 C   0  0  0  0  0  0  0  0  0  0  0  0
    0.2110    4.0450    0.3050 C   0  0  0  0  0  0  0  0  0  0  0  0
    0.6100    2.7980   -0.1240 C   0  0  0  0  0  0  0  0  0  0  0  0
    1.6140    2.0880    0.4980 C   0  0  0  0  0  0  0  0  0  0  0  0
    2.0420    0.7530    0.0420 C   0  0  0  0  0  0  0  0  0  0  0  0
    1.3140   -0.2970    0.7980 C   0  0  2  0  0  0  0  0  0  0  0  0
    1.6970   -1.6420    0.3890 N   0  0  0  0  0  0  0  0  0  0  0  0
   -0.1590   -0.1950    0.7700 C   0  0  0  0  0  0  0  0  0  0  0  0
   -0.7380    0.8480    1.1380 O   0  0  0  0  0  0  0  0  0  0  0  0
    2.2110    2.7100    1.6020 C   0  0  0  0  0  0  0  0  0  0  0  0
    1.8120    3.9540    2.0290 C   0  0  0  0  0  0  0  0  0  0  0  0
   -0.5620    6.2250    1.7520 H   0  0  0  0  0  0  0  0  0  0  0  0
   -0.5760    4.6080   -0.1780 H   0  0  0  0  0  0  0  0  0  0  0  0
    0.1210    2.3550   -0.9850 H   0  0  0  0  0  0  0  0  0  0  0  0
    1.8930    0.7040   -1.0560 H   0  0  0  0  0  0  0  0  0  0  0  0
    3.1250    0.6570    0.3120 H   0  0  0  0  0  0  0  0  0  0  0  0
    1.6170   -0.1800    1.8720 H   0  0  0  0  0  0  0  0  0  0  0  0
    1.5230   -1.9990   -0.5720 H   0  0  0  0  0  0  0  0  0  0  0  0
    3.0000    2.1330    2.0780 H   0  0  0  0  0  0  0  0  0  0  0  0
    2.2880    4.4070    2.8790 H   0  0  0  0  0  0  0  0  0  0  0  0
   -0.9950   -1.2700    0.3250 N   0  0  0  0  0  0  0  0  0  0  0  0
   -2.4220   -1.1710    0.2980 C   0  0  1  0  0  0  0  0  0  0  0  0
   -2.9980   -1.3320   -1.0910 C   0  0  0  0  0  0  0  0  0  0  0  0
   -4.8000   -1.1900   -1.0030 S   0  0  0  0  0  0  0  0  0  0  0  0
   -3.0920   -2.1330    1.1940 C   0  0  0  0  0  0  0  0  0  0  0  0
   -2.4040   -2.9240    1.8790 O   0  0  0  0  0  0  0  0  0  0  0  0
   -4.4680   -2.1890    1.3040 O   0  0  0  0  0  0  0  0  0  0  0  0
   -0.5580   -2.1610    0.0080 H   0  0  0  0  0  0  0  0  0  0  0  0
   -2.6960   -0.1480    0.6720 H   0  0  0  0  0  0  0  0  0  0  0  0
   -2.6180   -0.5820   -1.8010 H   0  0  0  0  0  0  0  0  0  0  0  0
   -2.7550   -2.3470   -1.4750 H   0  0  0  0  0  0  0  0  0  0  0  0
   -5.1520   -0.2830    0.0350 H   0  0  0  0  0  0  0  0  0  0  0  0
  1  8  1  0  0  0  0
  1  2  1  0  0  0  0
  1  7  1  0  0  0  0
  2  9  1  6  0  0  0
  2  4  1  0  0  0  0
  2  3  1  0  0  0  0
  3 11  1  0  0  0  0
  3 10  1  0  0  0  0
  4  5  2  0  0  0  0
  6  1  1  0  0  0  0
 13 12  1  0  0  0  0
 13 23  1  0  0  0  0
 14 13  2  0  0  0  0
 15 14  1  0  0  0  0
 15 16  2  0  0  0  0
 16 22  1  0  0  0  0
 17 28  1  0  0  0  0
 17 16  1  0  0  0  0
 17 18  1  0  0  0  0
 18 29  1  1  0  0  0
 19 18  1  0  0  0  0
 19  4  1  0  0  0  0
 20 18  1  0  0  0  0
 20 21  2  0  0  0  0
 22 23  2  0  0  0  0
 22 31  1  0  0  0  0
 23 32  1  0  0  0  0
 24 12  1  0  0  0  0
 25 14  1  0  0  0  0
 26 15  1  0  0  0  0
 27 17  1  0  0  0  0
 30 19  1  0  0  0  0
 33 20  1  0  0  0  0
 34 33  1  0  0  0  0
 34 41  1  1  0  0  0
 34 37  1  0  0  0  0
 35 36  1  0  0  0  0
 35 34  1  0  0  0  0
 36 44  1  0  0  0  0
 37 39  2  0  0  0  0
 37 38  1  0  0  0  0
 40 33  1  0  0  0  0
 42 35  1  0  0  0  0
 43 35  1  0  0  0  0
M  END
$$$$
