AYE.pdb
 OpenBabel07022418033D

 49 49  0  0  1  0  0  0  0  0999 V2000
   -1.4100    1.2130   -3.1950 C   0  0  0  0  0  0  0  0  0  0  0  0
   -0.2580    2.1490   -2.9630 C   0  0  2  0  0  0  0  0  0  0  0  0
    0.4440    2.5180   -4.1530 N   0  0  0  0  0  0  0  0  0  0  0  0
    0.6800    1.5380   -1.9810 C   0  0  0  0  0  0  0  0  0  0  0  0
    1.9050    1.4200   -2.2840 O   0  0  0  0  0  0  0  0  0  0  0  0
   -1.1620    0.3490   -3.8210 H   0  0  0  0  0  0  0  0  0  0  0  0
   -1.7450    0.8650   -2.1800 H   0  0  0  0  0  0  0  0  0  0  0  0
   -2.2670    1.8050   -3.5950 H   0  0  0  0  0  0  0  0  0  0  0  0
   -0.6870    3.0690   -2.4690 H   0  0  0  0  0  0  0  0  0  0  0  0
   -0.0100    2.0350   -4.9690 H   0  0  0  0  0  0  0  0  0  0  0  0
    0.5410    3.5430   -4.2860 H   0  0  0  0  0  0  0  0  0  0  0  0
    4.5550   -0.2990    5.6500 O   0  0  0  0  0  0  0  0  0  0  0  0
    3.7380    0.1250    4.5980 C   0  0  0  0  0  0  0  0  0  0  0  0
    2.4030   -0.2200    4.5850 C   0  0  0  0  0  0  0  0  0  0  0  0
    1.6540    0.2270    3.5230 C   0  0  0  0  0  0  0  0  0  0  0  0
    2.1790    0.9890    2.5000 C   0  0  0  0  0  0  0  0  0  0  0  0
    1.2970    1.4110    1.4200 C   0  0  0  0  0  0  0  0  0  0  0  0
    1.2130    0.4740    0.2490 C   0  0  2  0  0  0  0  0  0  0  0  0
    0.2850    1.0750   -0.7130 N   0  0  0  0  0  0  0  0  0  0  0  0
    0.8080   -0.8910    0.6110 C   0  0  0  0  0  0  0  0  0  0  0  0
    1.4980   -1.5530    1.4220 O   0  0  0  0  0  0  0  0  0  0  0  0
    3.5130    1.3320    2.5150 C   0  0  0  0  0  0  0  0  0  0  0  0
    4.2700    0.8860    3.5780 C   0  0  0  0  0  0  0  0  0  0  0  0
    5.5340   -0.4700    5.4870 H   0  0  0  0  0  0  0  0  0  0  0  0
    2.0320   -0.8110    5.3940 H   0  0  0  0  0  0  0  0  0  0  0  0
    0.5930   -0.0660    3.5450 H   0  0  0  0  0  0  0  0  0  0  0  0
    0.2560    1.5120    1.8260 H   0  0  0  0  0  0  0  0  0  0  0  0
    1.6160    2.4180    1.0850 H   0  0  0  0  0  0  0  0  0  0  0  0
    2.2080    0.4860   -0.2490 H   0  0  0  0  0  0  0  0  0  0  0  0
   -0.7080    1.1490   -0.4180 H   0  0  0  0  0  0  0  0  0  0  0  0
    3.9670    1.9360    1.7200 H   0  0  0  0  0  0  0  0  0  0  0  0
    5.3280    1.1740    3.5660 H   0  0  0  0  0  0  0  0  0  0  0  0
   -0.3470   -1.5180    0.0840 N   0  0  0  0  0  0  0  0  0  0  0  0
   -0.7520   -2.8890    0.4490 C   0  0  1  0  0  0  0  0  0  0  0  0
   -2.0890   -2.7150    1.1240 C   0  0  0  0  0  0  0  0  0  0  0  0
   -2.7260   -3.9740    1.6020 C   0  0  0  0  0  0  0  0  0  0  0  0
   -4.0470   -3.6630    2.2660 C   0  0  0  0  0  0  0  0  0  0  0  0
   -4.4780   -2.4910    2.3640 O   0  0  0  0  0  0  0  0  0  0  0  0
   -0.9040   -3.7150   -0.7600 C   0  0  0  0  0  0  0  0  0  0  0  0
   -1.2150   -4.9240   -0.6690 O   0  0  0  0  0  0  0  0  0  0  0  0
   -4.8160   -4.6880    2.7880 O   0  0  0  0  0  0  0  0  0  0  0  0
   -0.7170   -3.2210   -2.0580 O   0  0  0  0  0  0  0  0  0  0  0  0
   -0.9750   -1.0390   -0.5940 H   0  0  0  0  0  0  0  0  0  0  0  0
   -0.0260   -3.3130    1.1710 H   0  0  0  0  0  0  0  0  0  0  0  0
   -2.7570   -2.2430    0.3530 H   0  0  0  0  0  0  0  0  0  0  0  0
   -2.0210   -1.9510    1.9330 H   0  0  0  0  0  0  0  0  0  0  0  0
   -2.9640   -4.6910    0.8000 H   0  0  0  0  0  0  0  0  0  0  0  0
   -2.0450   -4.5000    2.3130 H   0  0  0  0  0  0  0  0  0  0  0  0
   -5.8250   -4.6450    2.8670 H   0  0  0  0  0  0  0  0  0  0  0  0
  1  2  1  0  0  0  0
  1  7  1  0  0  0  0
  2  9  1  1  0  0  0
  2  4  1  0  0  0  0
  3  2  1  0  0  0  0
  4 19  1  0  0  0  0
  5  4  2  0  0  0  0
  6  1  1  0  0  0  0
  8  1  1  0  0  0  0
 10  3  1  0  0  0  0
 11  3  1  0  0  0  0
 13 12  1  0  0  0  0
 14 13  1  0  0  0  0
 14 25  1  0  0  0  0
 15 26  1  0  0  0  0
 15 14  2  0  0  0  0
 16 22  2  0  0  0  0
 16 15  1  0  0  0  0
 17 27  1  0  0  0  0
 17 16  1  0  0  0  0
 18 29  1  6  0  0  0
 18 20  1  0  0  0  0
 18 17  1  0  0  0  0
 19 30  1  0  0  0  0
 19 18  1  0  0  0  0
 20 21  2  0  0  0  0
 22 23  1  0  0  0  0
 23 13  2  0  0  0  0
 24 12  1  0  0  0  0
 28 17  1  0  0  0  0
 31 22  1  0  0  0  0
 32 23  1  0  0  0  0
 33 34  1  0  0  0  0
 33 20  1  0  0  0  0
 34 35  1  0  0  0  0
 34 44  1  1  0  0  0
 35 36  1  0  0  0  0
 35 46  1  0  0  0  0
 36 37  1  0  0  0  0
 36 48  1  0  0  0  0
 37 38  2  0  0  0  0
 37 41  1  0  0  0  0
 39 40  1  0  0  0  0
 39 34  1  0  0  0  0
 41 49  1  0  0  0  0
 42 39  2  0  0  0  0
 43 33  1  0  0  0  0
 45 35  1  0  0  0  0
 47 36  1  0  0  0  0
M  END
$$$$
