AYF.pdb
 OpenBabel07022418033D

 53 54  0  0  1  0  0  0  0  0999 V2000
   -2.1670    2.8660    1.5420 C   0  0  0  0  0  0  0  0  0  0  0  0
   -0.9050    3.6970    1.6180 C   0  0  2  0  0  0  0  0  0  0  0  0
   -1.2740    5.0700    1.3000 N   0  0  0  0  0  0  0  0  0  0  0  0
    0.0740    3.1490    0.6830 C   0  0  0  0  0  0  0  0  0  0  0  0
    0.4700    3.8940   -0.2780 O   0  0  0  0  0  0  0  0  0  0  0  0
   -2.7920    3.0050    2.4480 H   0  0  0  0  0  0  0  0  0  0  0  0
   -1.9490    1.7820    1.4600 H   0  0  0  0  0  0  0  0  0  0  0  0
   -2.7320    3.1730    0.6260 H   0  0  0  0  0  0  0  0  0  0  0  0
   -0.5830    3.6960    2.6730 H   0  0  0  0  0  0  0  0  0  0  0  0
   -2.1210    5.2800    1.9070 H   0  0  0  0  0  0  0  0  0  0  0  0
   -0.5240    5.7010    1.6780 H   0  0  0  0  0  0  0  0  0  0  0  0
    2.3190   -2.7160    4.5740 O   0  0  0  0  0  0  0  0  0  0  0  0
    2.4730   -1.7870    3.5400 C   0  0  0  0  0  0  0  0  0  0  0  0
    2.3390   -0.4390    3.7920 C   0  0  0  0  0  0  0  0  0  0  0  0
    2.4930    0.4600    2.7700 C   0  0  0  0  0  0  0  0  0  0  0  0
    2.7810    0.0300    1.4920 C   0  0  0  0  0  0  0  0  0  0  0  0
    2.9330    1.0650    0.4440 C   0  0  0  0  0  0  0  0  0  0  0  0
    1.6110    1.3750   -0.2300 C   0  0  2  0  0  0  0  0  0  0  0  0
    0.6400    1.8610    0.7290 N   0  0  0  0  0  0  0  0  0  0  0  0
    1.0670    0.1730   -0.8780 C   0  0  0  0  0  0  0  0  0  0  0  0
    1.7510   -0.4120   -1.7470 O   0  0  0  0  0  0  0  0  0  0  0  0
    2.9110   -1.3240    1.2620 C   0  0  0  0  0  0  0  0  0  0  0  0
    2.7600   -2.2460    2.2780 C   0  0  0  0  0  0  0  0  0  0  0  0
    2.7690   -3.6220    4.5600 H   0  0  0  0  0  0  0  0  0  0  0  0
    2.1110   -0.1040    4.8070 H   0  0  0  0  0  0  0  0  0  0  0  0
    2.3770    1.5170    3.0170 H   0  0  0  0  0  0  0  0  0  0  0  0
    3.5910    0.6390   -0.3420 H   0  0  0  0  0  0  0  0  0  0  0  0
    3.3820    1.9920    0.8090 H   0  0  0  0  0  0  0  0  0  0  0  0
    1.8400    2.1730   -0.9980 H   0  0  0  0  0  0  0  0  0  0  0  0
    0.3520    1.2140    1.4920 H   0  0  0  0  0  0  0  0  0  0  0  0
    3.1380   -1.6690    0.2630 H   0  0  0  0  0  0  0  0  0  0  0  0
    2.8650   -3.3070    2.0850 H   0  0  0  0  0  0  0  0  0  0  0  0
   -0.2010   -0.3290   -0.5440 N   0  0  0  0  0  0  0  0  0  0  0  0
   -0.7870   -1.5220   -1.1600 C   0  0  1  0  0  0  0  0  0  0  0  0
   -0.9250   -2.5400   -0.0780 C   0  0  0  0  0  0  0  0  0  0  0  0
   -1.5100   -3.8130   -0.5540 C   0  0  0  0  0  0  0  0  0  0  0  0
   -0.7030   -4.8320   -1.0450 C   0  0  0  0  0  0  0  0  0  0  0  0
   -1.2290   -6.0310   -1.4890 C   0  0  0  0  0  0  0  0  0  0  0  0
   -2.5900   -6.2530   -1.4570 C   0  0  0  0  0  0  0  0  0  0  0  0
   -3.3870   -5.2360   -0.9670 C   0  0  0  0  0  0  0  0  0  0  0  0
   -2.8680   -4.0300   -0.5200 C   0  0  0  0  0  0  0  0  0  0  0  0
   -2.0090   -1.2100   -1.8970 C   0  0  0  0  0  0  0  0  0  0  0  0
   -2.4590   -0.0190   -1.9370 O   0  0  0  0  0  0  0  0  0  0  0  0
   -2.6930   -2.2070   -2.5610 O   0  0  0  0  0  0  0  0  0  0  0  0
   -0.7660    0.1560    0.1740 H   0  0  0  0  0  0  0  0  0  0  0  0
   -0.0160   -1.8820   -1.8970 H   0  0  0  0  0  0  0  0  0  0  0  0
    0.0530   -2.6890    0.4250 H   0  0  0  0  0  0  0  0  0  0  0  0
   -1.5750   -2.0690    0.7190 H   0  0  0  0  0  0  0  0  0  0  0  0
    0.3650   -4.6230   -1.0560 H   0  0  0  0  0  0  0  0  0  0  0  0
   -0.5470   -6.7910   -1.8630 H   0  0  0  0  0  0  0  0  0  0  0  0
   -3.0300   -7.1860   -1.7990 H   0  0  0  0  0  0  0  0  0  0  0  0
   -4.4610   -5.3970   -0.9350 H   0  0  0  0  0  0  0  0  0  0  0  0
   -3.5210   -3.2430   -0.1380 H   0  0  0  0  0  0  0  0  0  0  0  0
  1  2  1  0  0  0  0
  1  6  1  0  0  0  0
  2  9  1  1  0  0  0
  3  2  1  0  0  0  0
  3 11  1  0  0  0  0
  3 10  1  0  0  0  0
  4 19  1  0  0  0  0
  4  2  1  0  0  0  0
  5  4  2  0  0  0  0
  7  1  1  0  0  0  0
  8  1  1  0  0  0  0
 13 14  1  0  0  0  0
 13 12  1  0  0  0  0
 14 25  1  0  0  0  0
 15 26  1  0  0  0  0
 15 14  2  0  0  0  0
 16 15  1  0  0  0  0
 17 28  1  0  0  0  0
 17 16  1  0  0  0  0
 18 29  1  6  0  0  0
 18 17  1  0  0  0  0
 18 19  1  0  0  0  0
 19 30  1  0  0  0  0
 20 33  1  0  0  0  0
 20 18  1  0  0  0  0
 21 20  2  0  0  0  0
 22 16  2  0  0  0  0
 22 23  1  0  0  0  0
 23 13  2  0  0  0  0
 24 12  1  0  0  0  0
 27 17  1  0  0  0  0
 31 22  1  0  0  0  0
 32 23  1  0  0  0  0
 33 45  1  0  0  0  0
 34 46  1  6  0  0  0
 34 33  1  0  0  0  0
 34 35  1  0  0  0  0
 35 47  1  0  0  0  0
 35 48  1  0  0  0  0
 36 41  1  0  0  0  0
 36 35  1  0  0  0  0
 37 36  2  0  0  0  0
 38 39  2  0  0  0  0
 38 37  1  0  0  0  0
 39 40  1  0  0  0  0
 40 52  1  0  0  0  0
 40 41  2  0  0  0  0
 41 53  1  0  0  0  0
 42 34  1  0  0  0  0
 43 42  1  0  0  0  0
 44 42  2  0  0  0  0
 49 37  1  0  0  0  0
 50 38  1  0  0  0  0
 51 39  1  0  0  0  0
M  END
$$$$
