AYK.pdb
 OpenBabel07022418033D

 54 54  0  0  1  0  0  0  0  0999 V2000
    1.0070   -2.7650    4.2330 C   0  0  0  0  0  0  0  0  0  0  0  0
    1.0140   -1.2940    4.4790 C   0  0  2  0  0  0  0  0  0  0  0  0
    0.3430   -1.0020    5.7060 N   0  0  0  0  0  0  0  0  0  0  0  0
    0.4780   -0.5010    3.3350 C   0  0  0  0  0  0  0  0  0  0  0  0
   -0.4680    0.3340    3.4770 O   0  0  0  0  0  0  0  0  0  0  0  0
    1.9840   -3.1520    3.8600 H   0  0  0  0  0  0  0  0  0  0  0  0
    0.8230   -3.2880    5.1950 H   0  0  0  0  0  0  0  0  0  0  0  0
    0.1740   -3.0890    3.5510 H   0  0  0  0  0  0  0  0  0  0  0  0
    2.0820   -0.9740    4.5940 H   0  0  0  0  0  0  0  0  0  0  0  0
    0.3310   -1.8140    6.3720 H   0  0  0  0  0  0  0  0  0  0  0  0
   -0.6730   -0.7440    5.5660 H   0  0  0  0  0  0  0  0  0  0  0  0
    3.5650    4.4540    4.4110 O   0  0  0  0  0  0  0  0  0  0  0  0
    3.0830    3.6070    3.4120 C   0  0  0  0  0  0  0  0  0  0  0  0
    2.0640    3.9850    2.5630 C   0  0  0  0  0  0  0  0  0  0  0  0
    1.5760    3.1620    1.5710 C   0  0  0  0  0  0  0  0  0  0  0  0
    2.1030    1.9010    1.3900 C   0  0  0  0  0  0  0  0  0  0  0  0
    1.6130    0.9740    0.3370 C   0  0  0  0  0  0  0  0  0  0  0  0
    0.4900    0.1290    0.8900 C   0  0  2  0  0  0  0  0  0  0  0  0
    0.9920   -0.6300    2.0160 N   0  0  0  0  0  0  0  0  0  0  0  0
   -0.0130   -0.8390   -0.1130 C   0  0  0  0  0  0  0  0  0  0  0  0
    0.0410   -2.0640    0.0970 O   0  0  0  0  0  0  0  0  0  0  0  0
    3.1220    1.5150    2.2340 C   0  0  0  0  0  0  0  0  0  0  0  0
    3.6000    2.3430    3.2180 C   0  0  0  0  0  0  0  0  0  0  0  0
    2.9760    4.5240    5.2390 H   0  0  0  0  0  0  0  0  0  0  0  0
    1.6530    4.9750    2.7070 H   0  0  0  0  0  0  0  0  0  0  0  0
    0.7670    3.4870    0.9110 H   0  0  0  0  0  0  0  0  0  0  0  0
    2.4600    0.3020    0.0920 H   0  0  0  0  0  0  0  0  0  0  0  0
    1.3060    1.5160   -0.5780 H   0  0  0  0  0  0  0  0  0  0  0  0
   -0.3270    0.7860    1.2690 H   0  0  0  0  0  0  0  0  0  0  0  0
    1.7680   -1.2980    1.8360 H   0  0  0  0  0  0  0  0  0  0  0  0
    3.5630    0.5120    2.1140 H   0  0  0  0  0  0  0  0  0  0  0  0
    4.4050    1.9960    3.8610 H   0  0  0  0  0  0  0  0  0  0  0  0
   -0.5780   -0.4250   -1.3540 N   0  0  0  0  0  0  0  0  0  0  0  0
   -1.0820   -1.3530   -2.3610 C   0  0  1  0  0  0  0  0  0  0  0  0
   -2.4910   -1.0580   -2.7350 C   0  0  0  0  0  0  0  0  0  0  0  0
   -3.0500   -1.9850   -3.7530 C   0  0  0  0  0  0  0  0  0  0  0  0
   -3.0390   -3.4310   -3.3160 C   0  0  0  0  0  0  0  0  0  0  0  0
   -3.8540   -3.6400   -2.0580 C   0  0  0  0  0  0  0  0  0  0  0  0
   -3.8530   -5.0040   -1.6300 N   0  0  0  0  0  0  0  0  0  0  0  0
   -0.2100   -1.2190   -3.5370 C   0  0  0  0  0  0  0  0  0  0  0  0
   -0.4040   -1.9490   -4.5280 O   0  0  0  0  0  0  0  0  0  0  0  0
    0.8130   -0.3060   -3.5650 O   0  0  0  0  0  0  0  0  0  0  0  0
   -0.6160    0.6030   -1.5150 H   0  0  0  0  0  0  0  0  0  0  0  0
   -0.9630   -2.4140   -2.0040 H   0  0  0  0  0  0  0  0  0  0  0  0
   -2.4840   -0.0330   -3.2110 H   0  0  0  0  0  0  0  0  0  0  0  0
   -3.1820   -1.0700   -1.8600 H   0  0  0  0  0  0  0  0  0  0  0  0
   -2.6560   -1.9080   -4.7690 H   0  0  0  0  0  0  0  0  0  0  0  0
   -4.1560   -1.7400   -3.8700 H   0  0  0  0  0  0  0  0  0  0  0  0
   -2.0420   -3.8440   -3.1640 H   0  0  0  0  0  0  0  0  0  0  0  0
   -3.5290   -4.0200   -4.1210 H   0  0  0  0  0  0  0  0  0  0  0  0
   -3.5200   -3.0020   -1.2190 H   0  0  0  0  0  0  0  0  0  0  0  0
   -4.9260   -3.3490   -2.2400 H   0  0  0  0  0  0  0  0  0  0  0  0
   -4.5080   -5.2230   -0.8790 H   0  0  0  0  0  0  0  0  0  0  0  0
   -2.9370   -5.4570   -1.6130 H   0  0  0  0  0  0  0  0  0  0  0  0
  1  2  1  0  0  0  0
  1  7  1  0  0  0  0
  2  9  1  1  0  0  0
  2  3  1  0  0  0  0
  3 10  1  0  0  0  0
  4  5  2  0  0  0  0
  4  2  1  0  0  0  0
  6  1  1  0  0  0  0
  8  1  1  0  0  0  0
 11  3  1  0  0  0  0
 12 24  1  0  0  0  0
 13 12  1  0  0  0  0
 14 25  1  0  0  0  0
 14 13  2  0  0  0  0
 15 14  1  0  0  0  0
 16 15  2  0  0  0  0
 16 22  1  0  0  0  0
 17 18  1  0  0  0  0
 17 16  1  0  0  0  0
 18 29  1  1  0  0  0
 18 19  1  0  0  0  0
 19  4  1  0  0  0  0
 20 21  2  0  0  0  0
 20 18  1  0  0  0  0
 22 23  2  0  0  0  0
 23 13  1  0  0  0  0
 23 32  1  0  0  0  0
 26 15  1  0  0  0  0
 27 17  1  0  0  0  0
 28 17  1  0  0  0  0
 30 19  1  0  0  0  0
 31 22  1  0  0  0  0
 33 20  1  0  0  0  0
 34 44  1  1  0  0  0
 34 33  1  0  0  0  0
 35 34  1  0  0  0  0
 35 46  1  0  0  0  0
 36 37  1  0  0  0  0
 36 35  1  0  0  0  0
 37 49  1  0  0  0  0
 37 38  1  0  0  0  0
 38 39  1  0  0  0  0
 38 51  1  0  0  0  0
 39 54  1  0  0  0  0
 39 53  1  0  0  0  0
 40 34  1  0  0  0  0
 41 40  2  0  0  0  0
 42 40  1  0  0  0  0
 43 33  1  0  0  0  0
 45 35  1  0  0  0  0
 47 36  1  0  0  0  0
 48 36  1  0  0  0  0
 50 37  1  0  0  0  0
 52 38  1  0  0  0  0
M  END
$$$$
