AYL.pdb
 OpenBabel07022418033D

 52 52  0  0  1  0  0  0  0  0999 V2000
    2.4660   -2.7720    3.5160 C   0  0  0  0  0  0  0  0  0  0  0  0
    1.6230   -3.1720    2.3250 C   0  0  2  0  0  0  0  0  0  0  0  0
    2.2420   -4.2060    1.5340 N   0  0  0  0  0  0  0  0  0  0  0  0
    1.3270   -1.9870    1.4470 C   0  0  0  0  0  0  0  0  0  0  0  0
    1.6220   -2.0240    0.2430 O   0  0  0  0  0  0  0  0  0  0  0  0
    3.1070   -3.6440    3.7810 H   0  0  0  0  0  0  0  0  0  0  0  0
    3.1440   -1.9310    3.2880 H   0  0  0  0  0  0  0  0  0  0  0  0
    1.8590   -2.5480    4.4090 H   0  0  0  0  0  0  0  0  0  0  0  0
    0.6750   -3.5810    2.7340 H   0  0  0  0  0  0  0  0  0  0  0  0
    1.9800   -5.1660    1.8110 H   0  0  0  0  0  0  0  0  0  0  0  0
    1.9290   -4.0810    0.5440 H   0  0  0  0  0  0  0  0  0  0  0  0
    6.2100    2.5480    2.9610 O   0  0  0  0  0  0  0  0  0  0  0  0
    5.0700    2.0950    2.3050 C   0  0  0  0  0  0  0  0  0  0  0  0
    3.9820    2.9180    2.1060 C   0  0  0  0  0  0  0  0  0  0  0  0
    2.8410    2.5060    1.4640 C   0  0  0  0  0  0  0  0  0  0  0  0
    2.7440    1.1950    0.9760 C   0  0  0  0  0  0  0  0  0  0  0  0
    1.4730    0.8480    0.2880 C   0  0  0  0  0  0  0  0  0  0  0  0
    0.3940    0.3660    1.2500 C   0  0  2  0  0  0  0  0  0  0  0  0
    0.7130   -0.8170    1.9680 N   0  0  0  0  0  0  0  0  0  0  0  0
   -0.8970    0.4170    0.5880 C   0  0  0  0  0  0  0  0  0  0  0  0
   -1.1950    1.4660   -0.0570 O   0  0  0  0  0  0  0  0  0  0  0  0
    3.8070    0.3780    1.1660 C   0  0  0  0  0  0  0  0  0  0  0  0
    4.9430    0.8130    1.8140 C   0  0  0  0  0  0  0  0  0  0  0  0
    7.0980    2.0710    2.8320 H   0  0  0  0  0  0  0  0  0  0  0  0
    4.0540    3.9380    2.4840 H   0  0  0  0  0  0  0  0  0  0  0  0
    1.9940    3.1920    1.3250 H   0  0  0  0  0  0  0  0  0  0  0  0
    1.6420    0.1570   -0.5560 H   0  0  0  0  0  0  0  0  0  0  0  0
    1.0880    1.7790   -0.1710 H   0  0  0  0  0  0  0  0  0  0  0  0
    0.4070    1.2200    2.0260 H   0  0  0  0  0  0  0  0  0  0  0  0
    0.4860   -0.8820    3.0080 H   0  0  0  0  0  0  0  0  0  0  0  0
    3.7980   -0.6190    0.8160 H   0  0  0  0  0  0  0  0  0  0  0  0
    5.8040    0.1520    1.9680 H   0  0  0  0  0  0  0  0  0  0  0  0
   -4.1860   -2.6240   -3.0760 C   0  0  0  0  0  0  0  0  0  0  0  0
   -4.3940   -1.5620   -2.0110 C   0  0  0  0  0  0  0  0  0  0  0  0
   -4.6130   -0.2510   -2.7430 C   0  0  0  0  0  0  0  0  0  0  0  0
   -3.1350   -1.5180   -1.1960 C   0  0  0  0  0  0  0  0  0  0  0  0
   -3.1510   -0.5170   -0.0820 C   0  0  2  0  0  0  0  0  0  0  0  0
   -1.8710   -0.6090    0.5930 N   0  0  0  0  0  0  0  0  0  0  0  0
   -4.2270   -0.6970    0.8850 C   0  0  0  0  0  0  0  0  0  0  0  0
   -3.9540   -0.8960    2.0960 O   0  0  0  0  0  0  0  0  0  0  0  0
   -5.5820   -0.6700    0.5870 O   0  0  0  0  0  0  0  0  0  0  0  0
   -5.1530   -2.9440   -3.5080 H   0  0  0  0  0  0  0  0  0  0  0  0
   -3.5150   -2.1730   -3.8420 H   0  0  0  0  0  0  0  0  0  0  0  0
   -3.6300   -3.4500   -2.5830 H   0  0  0  0  0  0  0  0  0  0  0  0
   -5.2800   -1.8770   -1.4350 H   0  0  0  0  0  0  0  0  0  0  0  0
   -5.0170    0.5280   -2.0540 H   0  0  0  0  0  0  0  0  0  0  0  0
   -3.6370    0.0780   -3.1440 H   0  0  0  0  0  0  0  0  0  0  0  0
   -5.2800   -0.4200   -3.6030 H   0  0  0  0  0  0  0  0  0  0  0  0
   -2.9120   -2.5090   -0.7840 H   0  0  0  0  0  0  0  0  0  0  0  0
   -2.3050   -1.2450   -1.8800 H   0  0  0  0  0  0  0  0  0  0  0  0
   -3.1580    0.4970   -0.5670 H   0  0  0  0  0  0  0  0  0  0  0  0
   -1.6580   -1.4870    1.1150 H   0  0  0  0  0  0  0  0  0  0  0  0
  1  6  1  0  0  0  0
  1  8  1  0  0  0  0
  2  9  1  1  0  0  0
  2  1  1  0  0  0  0
  3 10  1  0  0  0  0
  3  2  1  0  0  0  0
  4 19  1  0  0  0  0
  4  2  1  0  0  0  0
  5  4  2  0  0  0  0
  7  1  1  0  0  0  0
 11  3  1  0  0  0  0
 13 12  1  0  0  0  0
 14 13  1  0  0  0  0
 14 25  1  0  0  0  0
 15 14  2  0  0  0  0
 16 22  2  0  0  0  0
 16 15  1  0  0  0  0
 17 16  1  0  0  0  0
 17 18  1  0  0  0  0
 18 19  1  0  0  0  0
 18 29  1  1  0  0  0
 19 30  1  0  0  0  0
 20 38  1  0  0  0  0
 20 18  1  0  0  0  0
 21 20  2  0  0  0  0
 22 23  1  0  0  0  0
 23 32  1  0  0  0  0
 23 13  2  0  0  0  0
 24 12  1  0  0  0  0
 26 15  1  0  0  0  0
 27 17  1  0  0  0  0
 28 17  1  0  0  0  0
 31 22  1  0  0  0  0
 33 44  1  0  0  0  0
 33 34  1  0  0  0  0
 34 45  1  0  0  0  0
 34 36  1  0  0  0  0
 35 46  1  0  0  0  0
 35 34  1  0  0  0  0
 36 49  1  0  0  0  0
 36 37  1  0  0  0  0
 37 51  1  6  0  0  0
 37 38  1  0  0  0  0
 37 39  1  0  0  0  0
 38 52  1  0  0  0  0
 39 40  1  0  0  0  0
 41 39  2  0  0  0  0
 42 33  1  0  0  0  0
 43 33  1  0  0  0  0
 47 35  1  0  0  0  0
 48 35  1  0  0  0  0
 50 36  1  0  0  0  0
M  END
$$$$
