AYM.pdb
 OpenBabel07022418033D

 50 50  0  0  1  0  0  0  0  0999 V2000
    2.3360   -3.0740    1.8550 C   0  0  0  0  0  0  0  0  0  0  0  0
    1.3530   -3.0990    0.7100 C   0  0  2  0  0  0  0  0  0  0  0  0
    1.8840   -3.7910   -0.4230 N   0  0  0  0  0  0  0  0  0  0  0  0
    1.0590   -1.6840    0.3170 C   0  0  0  0  0  0  0  0  0  0  0  0
    1.3020   -1.3150   -0.8370 O   0  0  0  0  0  0  0  0  0  0  0  0
    3.3280   -3.2920    1.4430 H   0  0  0  0  0  0  0  0  0  0  0  0
    2.3140   -2.0810    2.3150 H   0  0  0  0  0  0  0  0  0  0  0  0
    2.0840   -3.8580    2.6140 H   0  0  0  0  0  0  0  0  0  0  0  0
    0.4540   -3.6090    1.0790 H   0  0  0  0  0  0  0  0  0  0  0  0
    1.8200   -3.2130   -1.2850 H   0  0  0  0  0  0  0  0  0  0  0  0
    1.4240   -4.7250   -0.5360 H   0  0  0  0  0  0  0  0  0  0  0  0
    5.9880    1.8710    3.3270 O   0  0  0  0  0  0  0  0  0  0  0  0
    4.8460    1.6950    2.5410 C   0  0  0  0  0  0  0  0  0  0  0  0
    3.7990    2.5720    2.6900 C   0  0  0  0  0  0  0  0  0  0  0  0
    2.6920    2.3870    1.9150 C   0  0  0  0  0  0  0  0  0  0  0  0
    2.5470    1.3580    0.9720 C   0  0  0  0  0  0  0  0  0  0  0  0
    1.2830    1.3160    0.2020 C   0  0  0  0  0  0  0  0  0  0  0  0
    0.2190    0.5670    0.9860 C   0  0  2  0  0  0  0  0  0  0  0  0
    0.5140   -0.7990    1.2690 N   0  0  0  0  0  0  0  0  0  0  0  0
   -1.1460    0.8670    0.5770 C   0  0  0  0  0  0  0  0  0  0  0  0
   -1.5030    2.0560    0.3220 O   0  0  0  0  0  0  0  0  0  0  0  0
    3.6000    0.4910    0.8350 C   0  0  0  0  0  0  0  0  0  0  0  0
    4.7330    0.6750    1.6230 C   0  0  0  0  0  0  0  0  0  0  0  0
    6.7120    1.1550    3.2900 H   0  0  0  0  0  0  0  0  0  0  0  0
    3.8650    3.3880    3.4100 H   0  0  0  0  0  0  0  0  0  0  0  0
    1.8680    3.0900    2.0440 H   0  0  0  0  0  0  0  0  0  0  0  0
    1.4030    0.9870   -0.8310 H   0  0  0  0  0  0  0  0  0  0  0  0
    0.9050    2.3720    0.1360 H   0  0  0  0  0  0  0  0  0  0  0  0
    0.3450    1.0820    2.0240 H   0  0  0  0  0  0  0  0  0  0  0  0
    0.3270   -1.2190    2.2370 H   0  0  0  0  0  0  0  0  0  0  0  0
    3.5610   -0.3070    0.1300 H   0  0  0  0  0  0  0  0  0  0  0  0
    5.5880   -0.0000    1.5360 H   0  0  0  0  0  0  0  0  0  0  0  0
   -2.3810   -3.4490   -0.5840 C   0  0  0  0  0  0  0  0  0  0  0  0
   -3.0490   -2.6240   -1.9980 S   0  0  0  0  0  0  0  0  0  0  0  0
   -4.3040   -1.4270   -1.7870 C   0  0  0  0  0  0  0  0  0  0  0  0
   -4.0630   -0.0790   -1.2770 C   0  0  0  0  0  0  0  0  0  0  0  0
   -3.5100    0.2570    0.0250 C   0  0  2  0  0  0  0  0  0  0  0  0
   -2.2080   -0.1120    0.4220 N   0  0  0  0  0  0  0  0  0  0  0  0
   -4.4740   -0.2410    1.0720 C   0  0  0  0  0  0  0  0  0  0  0  0
   -5.7100   -0.0490    0.9730 O   0  0  0  0  0  0  0  0  0  0  0  0
   -4.0100   -0.9290    2.1770 O   0  0  0  0  0  0  0  0  0  0  0  0
   -2.3920   -4.5660   -0.6740 H   0  0  0  0  0  0  0  0  0  0  0  0
   -2.9780   -3.1520    0.3260 H   0  0  0  0  0  0  0  0  0  0  0  0
   -1.3460   -3.1020   -0.4000 H   0  0  0  0  0  0  0  0  0  0  0  0
   -4.8270   -1.2900   -2.8150 H   0  0  0  0  0  0  0  0  0  0  0  0
   -5.1770   -1.9280   -1.2150 H   0  0  0  0  0  0  0  0  0  0  0  0
   -5.1160    0.4220   -1.2850 H   0  0  0  0  0  0  0  0  0  0  0  0
   -3.5880    0.5850   -2.1130 H   0  0  0  0  0  0  0  0  0  0  0  0
   -3.6130    1.4040    0.1040 H   0  0  0  0  0  0  0  0  0  0  0  0
   -1.9220   -1.0650    0.6460 H   0  0  0  0  0  0  0  0  0  0  0  0
  1  7  1  0  0  0  0
  1  8  1  0  0  0  0
  2  9  1  1  0  0  0
  2  1  1  0  0  0  0
  3  2  1  0  0  0  0
  4  2  1  0  0  0  0
  4 19  1  0  0  0  0
  5  4  2  0  0  0  0
  6  1  1  0  0  0  0
 10  3  1  0  0  0  0
 11  3  1  0  0  0  0
 13 14  1  0  0  0  0
 13 12  1  0  0  0  0
 14 25  1  0  0  0  0
 15 26  1  0  0  0  0
 15 14  2  0  0  0  0
 16 15  1  0  0  0  0
 17 16  1  0  0  0  0
 17 18  1  0  0  0  0
 18 19  1  0  0  0  0
 18 29  1  1  0  0  0
 19 30  1  0  0  0  0
 20 18  1  0  0  0  0
 21 20  2  0  0  0  0
 22 16  2  0  0  0  0
 22 23  1  0  0  0  0
 23 13  2  0  0  0  0
 24 12  1  0  0  0  0
 27 17  1  0  0  0  0
 28 17  1  0  0  0  0
 31 22  1  0  0  0  0
 32 23  1  0  0  0  0
 33 44  1  0  0  0  0
 33 43  1  0  0  0  0
 34 35  1  0  0  0  0
 34 33  1  0  0  0  0
 35 36  1  0  0  0  0
 35 46  1  0  0  0  0
 36 37  1  0  0  0  0
 37 49  1  1  0  0  0
 37 38  1  0  0  0  0
 37 39  1  0  0  0  0
 38 20  1  0  0  0  0
 38 50  1  0  0  0  0
 39 41  1  0  0  0  0
 40 39  2  0  0  0  0
 42 33  1  0  0  0  0
 45 35  1  0  0  0  0
 47 36  1  0  0  0  0
 48 36  1  0  0  0  0
M  END
$$$$
