AYR.pdb
 OpenBabel07022418033D

 56 56  0  0  1  0  0  0  0  0999 V2000
    2.4590   -3.3350    2.4410 C   0  0  0  0  0  0  0  0  0  0  0  0
    3.2610   -2.0770    2.6690 C   0  0  2  0  0  0  0  0  0  0  0  0
    3.6900   -2.0790    4.0550 N   0  0  0  0  0  0  0  0  0  0  0  0
    2.3830   -0.8830    2.4050 C   0  0  0  0  0  0  0  0  0  0  0  0
    2.1460   -0.0820    3.3740 O   0  0  0  0  0  0  0  0  0  0  0  0
    2.9040   -4.1210    3.0890 H   0  0  0  0  0  0  0  0  0  0  0  0
    1.3910   -3.1520    2.7310 H   0  0  0  0  0  0  0  0  0  0  0  0
    2.4290   -3.6470    1.3800 H   0  0  0  0  0  0  0  0  0  0  0  0
    4.1090   -2.1000    1.9600 H   0  0  0  0  0  0  0  0  0  0  0  0
    3.1620   -1.3420    4.5830 H   0  0  0  0  0  0  0  0  0  0  0  0
    4.7300   -1.9300    4.1150 H   0  0  0  0  0  0  0  0  0  0  0  0
    6.7180    3.3730    1.3370 O   0  0  0  0  0  0  0  0  0  0  0  0
    5.4560    2.8880    0.9640 C   0  0  0  0  0  0  0  0  0  0  0  0
    4.2990    3.5630    1.2920 C   0  0  0  0  0  0  0  0  0  0  0  0
    3.0600    3.0830    0.9240 C   0  0  0  0  0  0  0  0  0  0  0  0
    2.9160    1.9100    0.2130 C   0  0  0  0  0  0  0  0  0  0  0  0
    1.5940    1.3760   -0.1930 C   0  0  0  0  0  0  0  0  0  0  0  0
    1.0160    0.4530    0.8580 C   0  0  2  0  0  0  0  0  0  0  0  0
    1.8520   -0.6800    1.1180 N   0  0  0  0  0  0  0  0  0  0  0  0
   -0.3780    0.0350    0.4830 C   0  0  0  0  0  0  0  0  0  0  0  0
   -1.2640    0.8860    0.2160 O   0  0  0  0  0  0  0  0  0  0  0  0
    4.0780    1.2350   -0.1150 C   0  0  0  0  0  0  0  0  0  0  0  0
    5.3180    1.7140    0.2530 C   0  0  0  0  0  0  0  0  0  0  0  0
    6.8620    3.5010    2.3470 H   0  0  0  0  0  0  0  0  0  0  0  0
    4.3760    4.4990    1.8570 H   0  0  0  0  0  0  0  0  0  0  0  0
    2.1470    3.6230    1.1870 H   0  0  0  0  0  0  0  0  0  0  0  0
    0.9230    2.2470   -0.3250 H   0  0  0  0  0  0  0  0  0  0  0  0
    1.6940    0.8690   -1.1680 H   0  0  0  0  0  0  0  0  0  0  0  0
    0.9100    1.0410    1.7880 H   0  0  0  0  0  0  0  0  0  0  0  0
    2.0640   -1.3460    0.3600 H   0  0  0  0  0  0  0  0  0  0  0  0
    3.9810    0.2950   -0.6830 H   0  0  0  0  0  0  0  0  0  0  0  0
    6.2080    1.1570   -0.0220 H   0  0  0  0  0  0  0  0  0  0  0  0
   -8.1060   -1.8980   -2.5830 N   0  0  0  0  0  0  0  0  0  0  0  0
   -6.7390   -1.5170   -2.6010 C   0  0  0  0  0  0  0  0  0  0  0  0
   -6.3730   -0.3070   -2.9350 N   0  0  0  0  0  0  0  0  0  0  0  0
   -5.6880   -2.4180   -2.2600 N   0  0  0  0  0  0  0  0  0  0  0  0
   -4.3880   -1.8760   -1.8790 C   0  0  0  0  0  0  0  0  0  0  0  0
   -3.4800   -3.0480   -1.5750 C   0  0  0  0  0  0  0  0  0  0  0  0
   -2.0980   -2.6110   -1.1680 C   0  0  0  0  0  0  0  0  0  0  0  0
   -2.1170   -1.7450    0.0470 C   0  0  2  0  0  0  0  0  0  0  0  0
   -0.7500   -1.3320    0.4150 N   0  0  0  0  0  0  0  0  0  0  0  0
   -2.6910   -2.4130    1.2340 C   0  0  0  0  0  0  0  0  0  0  0  0
   -3.8830   -2.8700    1.2760 O   0  0  0  0  0  0  0  0  0  0  0  0
   -1.9160   -2.5690    2.3810 O   0  0  0  0  0  0  0  0  0  0  0  0
   -8.7470   -1.4720   -3.2830 H   0  0  0  0  0  0  0  0  0  0  0  0
   -8.5080   -2.5810   -1.9090 H   0  0  0  0  0  0  0  0  0  0  0  0
   -7.1050    0.3670   -3.1870 H   0  0  0  0  0  0  0  0  0  0  0  0
   -5.8710   -3.4440   -2.2900 H   0  0  0  0  0  0  0  0  0  0  0  0
   -4.5470   -1.2110   -1.0210 H   0  0  0  0  0  0  0  0  0  0  0  0
   -4.0130   -1.3370   -2.7710 H   0  0  0  0  0  0  0  0  0  0  0  0
   -3.9010   -3.7480   -0.8340 H   0  0  0  0  0  0  0  0  0  0  0  0
   -3.4160   -3.6380   -2.5390 H   0  0  0  0  0  0  0  0  0  0  0  0
   -1.5300   -3.5530   -0.9070 H   0  0  0  0  0  0  0  0  0  0  0  0
   -1.5440   -2.1450   -2.0090 H   0  0  0  0  0  0  0  0  0  0  0  0
   -2.7450   -0.8500   -0.1490 H   0  0  0  0  0  0  0  0  0  0  0  0
   -0.0540   -2.0700    0.6260 H   0  0  0  0  0  0  0  0  0  0  0  0
  1  2  1  0  0  0  0
  1  7  1  0  0  0  0
  1  6  1  0  0  0  0
  2  9  1  6  0  0  0
  2  3  1  0  0  0  0
  3 11  1  0  0  0  0
  3 10  1  0  0  0  0
  4  2  1  0  0  0  0
  4  5  2  0  0  0  0
  8  1  1  0  0  0  0
 12 24  1  0  0  0  0
 13 14  1  0  0  0  0
 13 12  1  0  0  0  0
 14 25  1  0  0  0  0
 15 26  1  0  0  0  0
 15 14  2  0  0  0  0
 16 15  1  0  0  0  0
 17 16  1  0  0  0  0
 17 18  1  0  0  0  0
 18 19  1  0  0  0  0
 18 29  1  1  0  0  0
 19  4  1  0  0  0  0
 20 18  1  0  0  0  0
 21 20  2  0  0  0  0
 22 16  2  0  0  0  0
 22 23  1  0  0  0  0
 23 13  2  0  0  0  0
 27 17  1  0  0  0  0
 28 17  1  0  0  0  0
 30 19  1  0  0  0  0
 31 22  1  0  0  0  0
 32 23  1  0  0  0  0
 33 46  1  0  0  0  0
 34 33  1  0  0  0  0
 34 36  1  0  0  0  0
 35 34  2  0  0  0  0
 36 37  1  0  0  0  0
 37 38  1  0  0  0  0
 37 49  1  0  0  0  0
 38 39  1  0  0  0  0
 38 51  1  0  0  0  0
 39 53  1  0  0  0  0
 39 40  1  0  0  0  0
 40 55  1  6  0  0  0
 40 41  1  0  0  0  0
 40 42  1  0  0  0  0
 41 20  1  0  0  0  0
 41 56  1  0  0  0  0
 42 43  2  0  0  0  0
 42 44  1  0  0  0  0
 45 33  1  0  0  0  0
 47 35  1  0  0  0  0
 48 36  1  0  0  0  0
 50 37  1  0  0  0  0
 52 38  1  0  0  0  0
 54 39  1  0  0  0  0
M  END
$$$$
