AYS.pdb
 OpenBabel07022418033D

 44 44  0  0  1  0  0  0  0  0999 V2000
    1.5540   -3.8510    1.2610 C   0  0  0  0  0  0  0  0  0  0  0  0
    2.8550   -3.0760    1.3810 C   0  0  2  0  0  0  0  0  0  0  0  0
    3.7660   -3.7370    2.2590 N   0  0  0  0  0  0  0  0  0  0  0  0
    2.5110   -1.7290    1.9580 C   0  0  0  0  0  0  0  0  0  0  0  0
    3.0230   -1.3840    3.0450 O   0  0  0  0  0  0  0  0  0  0  0  0
    0.9970   -3.7990    2.2190 H   0  0  0  0  0  0  0  0  0  0  0  0
    1.7770   -4.9020    1.0130 H   0  0  0  0  0  0  0  0  0  0  0  0
    0.9600   -3.4000    0.4200 H   0  0  0  0  0  0  0  0  0  0  0  0
    3.2780   -2.9130    0.3660 H   0  0  0  0  0  0  0  0  0  0  0  0
    4.5200   -3.0530    2.5150 H   0  0  0  0  0  0  0  0  0  0  0  0
    3.2510   -3.9480    3.1510 H   0  0  0  0  0  0  0  0  0  0  0  0
   -0.5420    1.7400   -4.0510 O   0  0  0  0  0  0  0  0  0  0  0  0
    0.0680    1.6810   -2.8020 C   0  0  0  0  0  0  0  0  0  0  0  0
    1.2330    0.9720   -2.5790 C   0  0  0  0  0  0  0  0  0  0  0  0
    1.7880    0.9510   -1.3230 C   0  0  0  0  0  0  0  0  0  0  0  0
    1.2150    1.6220   -0.2690 C   0  0  0  0  0  0  0  0  0  0  0  0
    1.8340    1.5880    1.0860 C   0  0  0  0  0  0  0  0  0  0  0  0
    1.3450    0.4420    1.9310 C   0  0  2  0  0  0  0  0  0  0  0  0
    1.6310   -0.8380    1.3190 N   0  0  0  0  0  0  0  0  0  0  0  0
   -0.1000    0.4760    2.1910 C   0  0  0  0  0  0  0  0  0  0  0  0
   -0.5680    1.4910    2.7260 O   0  0  0  0  0  0  0  0  0  0  0  0
    0.0600    2.3280   -0.4780 C   0  0  0  0  0  0  0  0  0  0  0  0
   -0.5010    2.3520   -1.7350 C   0  0  0  0  0  0  0  0  0  0  0  0
   -1.0450    2.5240   -4.4060 H   0  0  0  0  0  0  0  0  0  0  0  0
    1.6760    0.4420   -3.4360 H   0  0  0  0  0  0  0  0  0  0  0  0
    2.7180    0.3820   -1.1530 H   0  0  0  0  0  0  0  0  0  0  0  0
    1.6020    2.5560    1.5720 H   0  0  0  0  0  0  0  0  0  0  0  0
    2.9280    1.5190    0.9900 H   0  0  0  0  0  0  0  0  0  0  0  0
    1.9200    0.5160    2.8920 H   0  0  0  0  0  0  0  0  0  0  0  0
    1.2030   -1.1160    0.4190 H   0  0  0  0  0  0  0  0  0  0  0  0
   -0.4050    2.8690    0.3630 H   0  0  0  0  0  0  0  0  0  0  0  0
   -1.4180    2.9120   -1.9060 H   0  0  0  0  0  0  0  0  0  0  0  0
   -2.7990    0.5720    0.0260 O   0  0  0  0  0  0  0  0  0  0  0  0
   -3.0800   -0.5850    0.7380 C   0  0  0  0  0  0  0  0  0  0  0  0
   -2.3780   -0.6160    2.0850 C   0  0  2  0  0  0  0  0  0  0  0  0
   -0.9890   -0.5510    1.8800 N   0  0  0  0  0  0  0  0  0  0  0  0
   -2.9720   -1.6590    2.8750 C   0  0  0  0  0  0  0  0  0  0  0  0
   -4.2330   -1.6010    2.9810 O   0  0  0  0  0  0  0  0  0  0  0  0
   -2.4210   -2.7090    3.5380 O   0  0  0  0  0  0  0  0  0  0  0  0
   -2.4250    0.3590   -0.8770 H   0  0  0  0  0  0  0  0  0  0  0  0
   -2.9070   -1.5100    0.1610 H   0  0  0  0  0  0  0  0  0  0  0  0
   -4.1840   -0.5460    0.9610 H   0  0  0  0  0  0  0  0  0  0  0  0
   -2.6740    0.3530    2.5710 H   0  0  0  0  0  0  0  0  0  0  0  0
   -0.5670   -1.4170    1.4190 H   0  0  0  0  0  0  0  0  0  0  0  0
  1  2  1  0  0  0  0
  1  6  1  0  0  0  0
  2  9  1  6  0  0  0
  2  4  1  0  0  0  0
  2  3  1  0  0  0  0
  3 10  1  0  0  0  0
  3 11  1  0  0  0  0
  4  5  2  0  0  0  0
  7  1  1  0  0  0  0
  8  1  1  0  0  0  0
 12 13  1  0  0  0  0
 13 14  2  0  0  0  0
 13 23  1  0  0  0  0
 14 15  1  0  0  0  0
 15 26  1  0  0  0  0
 15 16  2  0  0  0  0
 16 17  1  0  0  0  0
 17 27  1  0  0  0  0
 17 18  1  0  0  0  0
 18 20  1  0  0  0  0
 18 29  1  1  0  0  0
 19 18  1  0  0  0  0
 19  4  1  0  0  0  0
 20 21  2  0  0  0  0
 22 16  1  0  0  0  0
 22 31  1  0  0  0  0
 23 22  2  0  0  0  0
 24 12  1  0  0  0  0
 25 14  1  0  0  0  0
 28 17  1  0  0  0  0
 30 19  1  0  0  0  0
 32 23  1  0  0  0  0
 33 34  1  0  0  0  0
 34 42  1  0  0  0  0
 34 35  1  0  0  0  0
 35 43  1  1  0  0  0
 35 37  1  0  0  0  0
 36 35  1  0  0  0  0
 36 20  1  0  0  0  0
 37 38  2  0  0  0  0
 37 39  1  0  0  0  0
 40 33  1  0  0  0  0
 41 34  1  0  0  0  0
 44 36  1  0  0  0  0
M  END
$$$$
