CAA.pdb
 OpenBabel07022418253D

 33 32  0  0  1  0  0  0  0  0999 V2000
   -0.5430   -0.7050    3.3160 N   0  0  0  0  0  0  0  0  0  0  0  0
    0.0030   -1.9870    2.9240 C   0  0  1  0  0  0  0  0  0  0  0  0
   -0.8500   -3.0490    3.6070 C   0  0  0  0  0  0  0  0  0  0  0  0
   -0.1720   -4.6570    3.1220 S   0  0  0  0  0  0  0  0  0  0  0  0
   -0.1910   -2.1600    1.4680 C   0  0  0  0  0  0  0  0  0  0  0  0
    0.1960   -3.1990    0.8570 O   0  0  0  0  0  0  0  0  0  0  0  0
   -1.5590   -0.6330    3.1380 H   0  0  0  0  0  0  0  0  0  0  0  0
   -0.0740    0.0930    2.8540 H   0  0  0  0  0  0  0  0  0  0  0  0
    1.0610   -2.0620    3.2280 H   0  0  0  0  0  0  0  0  0  0  0  0
   -1.8820   -2.9220    3.2200 H   0  0  0  0  0  0  0  0  0  0  0  0
   -0.8170   -2.9880    4.6970 H   0  0  0  0  0  0  0  0  0  0  0  0
   -1.2210   -5.5750    3.0580 H   0  0  0  0  0  0  0  0  0  0  0  0
   -2.4980   -1.2120   -1.0760 C   0  0  0  0  0  0  0  0  0  0  0  0
   -1.0560   -1.2340   -0.7110 C   0  0  2  0  0  0  0  0  0  0  0  0
   -0.8190   -1.1630    0.7150 N   0  0  0  0  0  0  0  0  0  0  0  0
   -0.2680   -0.2130   -1.4030 C   0  0  0  0  0  0  0  0  0  0  0  0
   -0.3130   -0.0840   -2.6610 O   0  0  0  0  0  0  0  0  0  0  0  0
   -3.1100   -0.9260   -0.1890 H   0  0  0  0  0  0  0  0  0  0  0  0
   -2.8240   -2.1520   -1.5130 H   0  0  0  0  0  0  0  0  0  0  0  0
   -2.6430   -0.3600   -1.8020 H   0  0  0  0  0  0  0  0  0  0  0  0
   -0.6330   -2.2320   -1.0300 H   0  0  0  0  0  0  0  0  0  0  0  0
   -1.1630   -0.2720    1.1740 H   0  0  0  0  0  0  0  0  0  0  0  0
    1.0240    3.0590   -0.7370 C   0  0  0  0  0  0  0  0  0  0  0  0
    1.3680    1.6810   -1.2650 C   0  0  2  0  0  0  0  0  0  0  0  0
    0.5650    0.6530   -0.6470 N   0  0  0  0  0  0  0  0  0  0  0  0
    2.8000    1.4300   -0.9500 C   0  0  0  0  0  0  0  0  0  0  0  0
    3.7120    2.1890   -1.3740 O   0  0  0  0  0  0  0  0  0  0  0  0
    3.1730    0.3410   -0.1710 O   0  0  0  0  0  0  0  0  0  0  0  0
    0.9140    2.9790    0.3590 H   0  0  0  0  0  0  0  0  0  0  0  0
    1.8750    3.7240   -1.0040 H   0  0  0  0  0  0  0  0  0  0  0  0
    0.1240    3.4520   -1.2440 H   0  0  0  0  0  0  0  0  0  0  0  0
    1.1950    1.6360   -2.3580 H   0  0  0  0  0  0  0  0  0  0  0  0
    0.6380    0.5850    0.4110 H   0  0  0  0  0  0  0  0  0  0  0  0
  2  9  1  1  0  0  0
  2  1  1  0  0  0  0
  2  3  1  0  0  0  0
  3 11  1  0  0  0  0
  4  3  1  0  0  0  0
  5  2  1  0  0  0  0
  6  5  2  0  0  0  0
  7  1  1  0  0  0  0
  8  1  1  0  0  0  0
 10  3  1  0  0  0  0
 12  4  1  0  0  0  0
 13 14  1  0  0  0  0
 13 18  1  0  0  0  0
 14 21  1  6  0  0  0
 14 15  1  0  0  0  0
 15 22  1  0  0  0  0
 15  5  1  0  0  0  0
 16 14  1  0  0  0  0
 16 25  1  0  0  0  0
 17 16  2  0  0  0  0
 19 13  1  0  0  0  0
 20 13  1  0  0  0  0
 23 29  1  0  0  0  0
 24 32  1  6  0  0  0
 24 26  1  0  0  0  0
 24 23  1  0  0  0  0
 24 25  1  0  0  0  0
 25 33  1  0  0  0  0
 26 28  1  0  0  0  0
 27 26  2  0  0  0  0
 30 23  1  0  0  0  0
 31 23  1  0  0  0  0
M  END
$$$$
