CAC.pdb
 OpenBabel07022418263D

 34 33  0  0  1  0  0  0  0  0999 V2000
   -0.7850   -1.3750    3.1270 N   0  0  0  0  0  0  0  0  0  0  0  0
    0.4770   -2.0360    3.0020 C   0  0  1  0  0  0  0  0  0  0  0  0
    0.3580   -3.4220    3.5800 C   0  0  0  0  0  0  0  0  0  0  0  0
    1.9570   -4.2940    3.4340 S   0  0  0  0  0  0  0  0  0  0  0  0
    0.8890   -2.1200    1.5760 C   0  0  0  0  0  0  0  0  0  0  0  0
    1.9620   -2.6580    1.2320 O   0  0  0  0  0  0  0  0  0  0  0  0
   -1.5180   -1.9090    2.6060 H   0  0  0  0  0  0  0  0  0  0  0  0
   -0.7960   -0.4050    2.7550 H   0  0  0  0  0  0  0  0  0  0  0  0
    1.2360   -1.4510    3.5610 H   0  0  0  0  0  0  0  0  0  0  0  0
   -0.4290   -3.9790    3.0180 H   0  0  0  0  0  0  0  0  0  0  0  0
    0.0610   -3.3170    4.6440 H   0  0  0  0  0  0  0  0  0  0  0  0
    2.1080   -4.8080    2.1450 H   0  0  0  0  0  0  0  0  0  0  0  0
   -0.7790   -2.3570   -1.5180 C   0  0  0  0  0  0  0  0  0  0  0  0
    0.3670   -1.6110   -0.8270 C   0  0  2  0  0  0  0  0  0  0  0  0
    0.0560   -1.5800    0.5780 N   0  0  0  0  0  0  0  0  0  0  0  0
    0.3750   -0.2240   -1.3480 C   0  0  0  0  0  0  0  0  0  0  0  0
    0.6180    0.0420   -2.5520 O   0  0  0  0  0  0  0  0  0  0  0  0
   -1.7200   -2.2740   -0.9400 H   0  0  0  0  0  0  0  0  0  0  0  0
   -0.9890   -1.9080   -2.5150 H   0  0  0  0  0  0  0  0  0  0  0  0
   -0.5030   -3.4170   -1.7050 H   0  0  0  0  0  0  0  0  0  0  0  0
    1.3370   -2.1120   -1.0220 H   0  0  0  0  0  0  0  0  0  0  0  0
   -0.8570   -1.1200    0.8450 H   0  0  0  0  0  0  0  0  0  0  0  0
    0.1040    0.8660   -0.4880 N   0  0  0  0  0  0  0  0  0  0  0  0
    0.1180    2.2120   -1.0220 C   0  0  1  0  0  0  0  0  0  0  0  0
   -1.2670    2.8380   -0.9010 C   0  0  0  0  0  0  0  0  0  0  0  0
   -1.8100    2.9230    0.8200 S   0  0  0  0  0  0  0  0  0  0  0  0
    1.0980    3.0760   -0.3480 C   0  0  0  0  0  0  0  0  0  0  0  0
    1.2510    4.2760   -0.6780 O   0  0  0  0  0  0  0  0  0  0  0  0
    1.8790    2.5730    0.6750 O   0  0  0  0  0  0  0  0  0  0  0  0
   -0.1070    0.7480    0.5210 H   0  0  0  0  0  0  0  0  0  0  0  0
    0.3540    2.1920   -2.0950 H   0  0  0  0  0  0  0  0  0  0  0  0
   -1.9880    2.2710   -1.5140 H   0  0  0  0  0  0  0  0  0  0  0  0
   -1.1810    3.8730   -1.2740 H   0  0  0  0  0  0  0  0  0  0  0  0
   -0.7620    2.6510    1.7100 H   0  0  0  0  0  0  0  0  0  0  0  0
  2  1  1  0  0  0  0
  2  9  1  1  0  0  0
  2  3  1  0  0  0  0
  3 11  1  0  0  0  0
  4  3  1  0  0  0  0
  5  2  1  0  0  0  0
  6  5  2  0  0  0  0
  7  1  1  0  0  0  0
  8  1  1  0  0  0  0
 10  3  1  0  0  0  0
 12  4  1  0  0  0  0
 13 18  1  0  0  0  0
 13 14  1  0  0  0  0
 14 21  1  6  0  0  0
 14 15  1  0  0  0  0
 15 22  1  0  0  0  0
 15  5  1  0  0  0  0
 16 14  1  0  0  0  0
 16 23  1  0  0  0  0
 17 16  2  0  0  0  0
 19 13  1  0  0  0  0
 20 13  1  0  0  0  0
 23 30  1  0  0  0  0
 24 31  1  6  0  0  0
 24 25  1  0  0  0  0
 24 23  1  0  0  0  0
 24 27  1  0  0  0  0
 25 26  1  0  0  0  0
 26 34  1  0  0  0  0
 27 29  1  0  0  0  0
 28 27  2  0  0  0  0
 32 25  1  0  0  0  0
 33 25  1  0  0  0  0
M  END
$$$$
