CAD.pdb
 OpenBabel07022418253D

 36 35  0  0  1  0  0  0  0  0999 V2000
   -0.2030   -5.1200    2.0530 N   0  0  0  0  0  0  0  0  0  0  0  0
   -0.1470   -4.1360    0.9720 C   0  0  1  0  0  0  0  0  0  0  0  0
   -1.5760   -3.7080    0.7460 C   0  0  0  0  0  0  0  0  0  0  0  0
   -1.6880   -2.4990   -0.5700 S   0  0  0  0  0  0  0  0  0  0  0  0
    0.7630   -3.0630    1.3610 C   0  0  0  0  0  0  0  0  0  0  0  0
    1.2850   -3.0930    2.5270 O   0  0  0  0  0  0  0  0  0  0  0  0
   -0.4940   -6.0520    1.6640 H   0  0  0  0  0  0  0  0  0  0  0  0
    0.6860   -5.1590    2.5900 H   0  0  0  0  0  0  0  0  0  0  0  0
    0.2070   -4.6570    0.0690 H   0  0  0  0  0  0  0  0  0  0  0  0
   -2.2010   -4.6040    0.5450 H   0  0  0  0  0  0  0  0  0  0  0  0
   -1.9960   -3.2800    1.7020 H   0  0  0  0  0  0  0  0  0  0  0  0
   -3.0290   -2.2580   -0.9090 H   0  0  0  0  0  0  0  0  0  0  0  0
    3.3520   -1.0120    0.2670 C   0  0  0  0  0  0  0  0  0  0  0  0
    2.0610   -0.9560    1.0610 C   0  0  2  0  0  0  0  0  0  0  0  0
    1.1490   -1.9530    0.5650 N   0  0  0  0  0  0  0  0  0  0  0  0
    1.4980    0.4010    1.1060 C   0  0  0  0  0  0  0  0  0  0  0  0
    2.2200    1.3400    1.5380 O   0  0  0  0  0  0  0  0  0  0  0  0
    4.1530   -1.4780    0.8740 H   0  0  0  0  0  0  0  0  0  0  0  0
    3.6160    0.0210   -0.0650 H   0  0  0  0  0  0  0  0  0  0  0  0
    3.2150   -1.6360   -0.6500 H   0  0  0  0  0  0  0  0  0  0  0  0
    2.3370   -1.2100    2.1230 H   0  0  0  0  0  0  0  0  0  0  0  0
    0.7560   -1.8800   -0.3940 H   0  0  0  0  0  0  0  0  0  0  0  0
    0.2020    0.7800    0.7080 N   0  0  0  0  0  0  0  0  0  0  0  0
   -0.2800    2.1190    0.7790 C   0  0  1  0  0  0  0  0  0  0  0  0
   -0.5930    2.7400   -0.5510 C   0  0  0  0  0  0  0  0  0  0  0  0
    0.5960    2.7990   -1.4420 C   0  0  0  0  0  0  0  0  0  0  0  0
    0.9510    1.7090   -1.9660 O   0  0  0  0  0  0  0  0  0  0  0  0
   -1.4970    2.1360    1.6290 C   0  0  0  0  0  0  0  0  0  0  0  0
   -2.1050    3.2170    1.8360 O   0  0  0  0  0  0  0  0  0  0  0  0
    1.3140    3.9270   -1.7250 O   0  0  0  0  0  0  0  0  0  0  0  0
   -2.0290    1.0040    2.2320 O   0  0  0  0  0  0  0  0  0  0  0  0
   -0.4390    0.0460    0.3430 H   0  0  0  0  0  0  0  0  0  0  0  0
    0.5500    2.7480    1.2180 H   0  0  0  0  0  0  0  0  0  0  0  0
   -0.8880    3.7960   -0.3580 H   0  0  0  0  0  0  0  0  0  0  0  0
   -1.4640    2.2660   -1.0520 H   0  0  0  0  0  0  0  0  0  0  0  0
    2.3380    3.8810   -1.7080 H   0  0  0  0  0  0  0  0  0  0  0  0
  1  8  1  0  0  0  0
  2  9  1  6  0  0  0
  2  5  1  0  0  0  0
  2  1  1  0  0  0  0
  3  2  1  0  0  0  0
  3 11  1  0  0  0  0
  4  3  1  0  0  0  0
  5  6  2  0  0  0  0
  7  1  1  0  0  0  0
 10  3  1  0  0  0  0
 12  4  1  0  0  0  0
 13 18  1  0  0  0  0
 13 14  1  0  0  0  0
 14 16  1  0  0  0  0
 14 21  1  1  0  0  0
 15 14  1  0  0  0  0
 15  5  1  0  0  0  0
 16 17  2  0  0  0  0
 19 13  1  0  0  0  0
 20 13  1  0  0  0  0
 22 15  1  0  0  0  0
 23 24  1  0  0  0  0
 23 16  1  0  0  0  0
 24 33  1  1  0  0  0
 24 28  1  0  0  0  0
 25 34  1  0  0  0  0
 25 24  1  0  0  0  0
 26 25  1  0  0  0  0
 27 26  2  0  0  0  0
 28 29  2  0  0  0  0
 28 31  1  0  0  0  0
 30 36  1  0  0  0  0
 30 26  1  0  0  0  0
 32 23  1  0  0  0  0
 35 25  1  0  0  0  0
M  END
$$$$
