CAE.pdb
 OpenBabel07022418253D

 39 38  0  0  1  0  0  0  0  0999 V2000
   -0.5590   -2.4740    3.2160 N   0  0  0  0  0  0  0  0  0  0  0  0
    0.5780   -3.2470    2.7980 C   0  0  1  0  0  0  0  0  0  0  0  0
    0.2530   -4.7370    2.8640 C   0  0  0  0  0  0  0  0  0  0  0  0
    1.7100   -5.7080    2.3300 S   0  0  0  0  0  0  0  0  0  0  0  0
    0.9020   -2.8760    1.3960 C   0  0  0  0  0  0  0  0  0  0  0  0
    1.8670   -3.4150    0.7880 O   0  0  0  0  0  0  0  0  0  0  0  0
   -0.3220   -1.6740    3.8270 H   0  0  0  0  0  0  0  0  0  0  0  0
   -1.3210   -3.0630    3.6050 H   0  0  0  0  0  0  0  0  0  0  0  0
    1.4420   -3.0220    3.4380 H   0  0  0  0  0  0  0  0  0  0  0  0
   -0.0280   -5.0030    3.9000 H   0  0  0  0  0  0  0  0  0  0  0  0
   -0.5730   -5.0020    2.2010 H   0  0  0  0  0  0  0  0  0  0  0  0
    1.4140   -7.0770    2.3720 H   0  0  0  0  0  0  0  0  0  0  0  0
   -0.6960   -1.8330   -1.6360 C   0  0  0  0  0  0  0  0  0  0  0  0
    0.4400   -1.5230   -0.6850 C   0  0  2  0  0  0  0  0  0  0  0  0
    0.1550   -1.9080    0.6750 N   0  0  0  0  0  0  0  0  0  0  0  0
    0.8090   -0.0970   -0.7690 C   0  0  0  0  0  0  0  0  0  0  0  0
    1.0960    0.4500   -1.8490 O   0  0  0  0  0  0  0  0  0  0  0  0
   -0.2800   -1.7770   -2.6610 H   0  0  0  0  0  0  0  0  0  0  0  0
   -1.5020   -1.0740   -1.5580 H   0  0  0  0  0  0  0  0  0  0  0  0
   -1.0580   -2.8610   -1.4820 H   0  0  0  0  0  0  0  0  0  0  0  0
    1.3270   -2.0920   -1.0900 H   0  0  0  0  0  0  0  0  0  0  0  0
   -0.6440   -1.4570    1.1680 H   0  0  0  0  0  0  0  0  0  0  0  0
    0.8400    0.6700    0.4090 N   0  0  0  0  0  0  0  0  0  0  0  0
    1.2080    2.0770    0.3040 C   0  0  1  0  0  0  0  0  0  0  0  0
    0.0460    2.8460    0.8870 C   0  0  0  0  0  0  0  0  0  0  0  0
   -1.2560    2.6280    0.1880 C   0  0  0  0  0  0  0  0  0  0  0  0
   -1.2830    3.0180   -1.2270 C   0  0  0  0  0  0  0  0  0  0  0  0
   -0.2740    3.5180   -1.7590 O   0  0  0  0  0  0  0  0  0  0  0  0
    2.4040    2.3670    1.1470 C   0  0  0  0  0  0  0  0  0  0  0  0
    2.8770    3.5290    1.1910 O   0  0  0  0  0  0  0  0  0  0  0  0
   -2.4190    2.8390   -1.9900 O   0  0  0  0  0  0  0  0  0  0  0  0
    3.0190    1.3850    1.8960 O   0  0  0  0  0  0  0  0  0  0  0  0
    0.6210    0.3220    1.3660 H   0  0  0  0  0  0  0  0  0  0  0  0
    1.4210    2.3510   -0.7330 H   0  0  0  0  0  0  0  0  0  0  0  0
    0.2500    3.9360    0.9360 H   0  0  0  0  0  0  0  0  0  0  0  0
   -0.0880    2.4530    1.9300 H   0  0  0  0  0  0  0  0  0  0  0  0
   -1.6660    1.6060    0.3450 H   0  0  0  0  0  0  0  0  0  0  0  0
   -2.0000    3.2960    0.7150 H   0  0  0  0  0  0  0  0  0  0  0  0
   -2.5050    3.3080   -2.9020 H   0  0  0  0  0  0  0  0  0  0  0  0
  1  8  1  0  0  0  0
  1  7  1  0  0  0  0
  2  3  1  0  0  0  0
  2  1  1  0  0  0  0
  2  9  1  1  0  0  0
  3 10  1  0  0  0  0
  4 12  1  0  0  0  0
  4  3  1  0  0  0  0
  5  2  1  0  0  0  0
  6  5  2  0  0  0  0
 11  3  1  0  0  0  0
 13 19  1  0  0  0  0
 13 20  1  0  0  0  0
 13 14  1  0  0  0  0
 14 21  1  6  0  0  0
 14 15  1  0  0  0  0
 15 22  1  0  0  0  0
 15  5  1  0  0  0  0
 16 14  1  0  0  0  0
 16 23  1  0  0  0  0
 17 16  2  0  0  0  0
 18 13  1  0  0  0  0
 23 33  1  0  0  0  0
 24 34  1  6  0  0  0
 24 23  1  0  0  0  0
 24 25  1  0  0  0  0
 24 29  1  0  0  0  0
 25 35  1  0  0  0  0
 25 36  1  0  0  0  0
 26 37  1  0  0  0  0
 26 38  1  0  0  0  0
 26 25  1  0  0  0  0
 27 26  1  0  0  0  0
 28 27  2  0  0  0  0
 29 30  2  0  0  0  0
 29 32  1  0  0  0  0
 31 27  1  0  0  0  0
 39 31  1  0  0  0  0
M  END
$$$$
