CAH.pdb
 OpenBabel07022418263D

 40 40  0  0  1  0  0  0  0  0999 V2000
    1.2630   -3.8750    1.0680 N   0  0  0  0  0  0  0  0  0  0  0  0
    2.0790   -3.6400   -0.0950 C   0  0  1  0  0  0  0  0  0  0  0  0
    2.1090   -4.8590   -0.9590 C   0  0  0  0  0  0  0  0  0  0  0  0
    3.1430   -4.5440   -2.4200 S   0  0  0  0  0  0  0  0  0  0  0  0
    1.6010   -2.4370   -0.8040 C   0  0  0  0  0  0  0  0  0  0  0  0
    2.1980   -2.0800   -1.8460 O   0  0  0  0  0  0  0  0  0  0  0  0
    1.2540   -4.8800    1.3040 H   0  0  0  0  0  0  0  0  0  0  0  0
    1.5320   -3.2800    1.8670 H   0  0  0  0  0  0  0  0  0  0  0  0
    3.1330   -3.4520    0.2610 H   0  0  0  0  0  0  0  0  0  0  0  0
    2.5460   -5.6890   -0.3930 H   0  0  0  0  0  0  0  0  0  0  0  0
    1.0690   -5.1030   -1.3000 H   0  0  0  0  0  0  0  0  0  0  0  0
    4.4460   -5.0350   -2.1950 H   0  0  0  0  0  0  0  0  0  0  0  0
   -1.4030   -0.6930   -1.4690 C   0  0  0  0  0  0  0  0  0  0  0  0
    0.0240   -0.4880   -1.0490 C   0  0  2  0  0  0  0  0  0  0  0  0
    0.4950   -1.6570   -0.3670 N   0  0  0  0  0  0  0  0  0  0  0  0
    0.1840    0.7160   -0.1730 C   0  0  0  0  0  0  0  0  0  0  0  0
   -0.1610    1.8560   -0.5580 O   0  0  0  0  0  0  0  0  0  0  0  0
   -1.5590   -1.7910   -1.5830 H   0  0  0  0  0  0  0  0  0  0  0  0
   -2.0860   -0.3120   -0.6810 H   0  0  0  0  0  0  0  0  0  0  0  0
   -1.5750   -0.2020   -2.4520 H   0  0  0  0  0  0  0  0  0  0  0  0
    0.6440   -0.2960   -1.9460 H   0  0  0  0  0  0  0  0  0  0  0  0
   -0.0130   -1.9520    0.5100 H   0  0  0  0  0  0  0  0  0  0  0  0
    0.7370    0.6040    1.1350 N   0  0  0  0  0  0  0  0  0  0  0  0
    0.9200    1.7090    2.0290 C   0  0  1  0  0  0  0  0  0  0  0  0
    0.0500    1.5890    3.2740 C   0  0  0  0  0  0  0  0  0  0  0  0
   -1.3740    1.5480    2.8770 C   0  0  0  0  0  0  0  0  0  0  0  0
   -2.2560    2.5930    2.7140 C   0  0  0  0  0  0  0  0  0  0  0  0
   -3.4730    2.0950    2.3390 N   0  0  0  0  0  0  0  0  0  0  0  0
   -3.3420    0.7660    2.2720 C   0  0  0  0  0  0  0  0  0  0  0  0
   -2.0810    0.4420    2.5960 N   0  0  0  0  0  0  0  0  0  0  0  0
    2.3260    1.9720    2.3630 C   0  0  0  0  0  0  0  0  0  0  0  0
    3.2200    1.2590    1.8770 O   0  0  0  0  0  0  0  0  0  0  0  0
    2.6520    3.0010    3.2090 O   0  0  0  0  0  0  0  0  0  0  0  0
    1.0140   -0.3830    1.4170 H   0  0  0  0  0  0  0  0  0  0  0  0
    0.5460    2.6240    1.4820 H   0  0  0  0  0  0  0  0  0  0  0  0
    0.3380    0.7120    3.8800 H   0  0  0  0  0  0  0  0  0  0  0  0
    0.2540    2.4890    3.8900 H   0  0  0  0  0  0  0  0  0  0  0  0
   -2.0660    3.6390    2.8470 H   0  0  0  0  0  0  0  0  0  0  0  0
   -4.3450    2.6520    2.1410 H   0  0  0  0  0  0  0  0  0  0  0  0
   -4.1110    0.0730    2.0070 H   0  0  0  0  0  0  0  0  0  0  0  0
  1  7  1  0  0  0  0
  1  8  1  0  0  0  0
  2  9  1  1  0  0  0
  2  1  1  0  0  0  0
  3 10  1  0  0  0  0
  3  2  1  0  0  0  0
  4 12  1  0  0  0  0
  4  3  1  0  0  0  0
  5 15  1  0  0  0  0
  5  2  1  0  0  0  0
  6  5  2  0  0  0  0
 11  3  1  0  0  0  0
 13 14  1  0  0  0  0
 13 19  1  0  0  0  0
 14 21  1  6  0  0  0
 14 15  1  0  0  0  0
 14 16  1  0  0  0  0
 15 22  1  0  0  0  0
 16 23  1  0  0  0  0
 17 16  2  0  0  0  0
 18 13  1  0  0  0  0
 20 13  1  0  0  0  0
 23 34  1  0  0  0  0
 23 24  1  0  0  0  0
 24 35  1  6  0  0  0
 24 31  1  0  0  0  0
 24 25  1  0  0  0  0
 25 36  1  0  0  0  0
 25 37  1  0  0  0  0
 26 25  1  0  0  0  0
 27 38  1  0  0  0  0
 27 26  2  0  0  0  0
 28 27  1  0  0  0  0
 29 28  1  0  0  0  0
 29 30  2  0  0  0  0
 30 26  1  0  0  0  0
 31 33  1  0  0  0  0
 32 31  2  0  0  0  0
 39 28  1  0  0  0  0
 40 29  1  0  0  0  0
M  END
$$$$
