CAI.pdb
 OpenBabel07022418263D

 42 41  0  0  1  0  0  0  0  0999 V2000
   -4.4520    1.1730    3.8140 N   0  0  0  0  0  0  0  0  0  0  0  0
   -3.6420   -0.0140    3.6740 C   0  0  1  0  0  0  0  0  0  0  0  0
   -4.2870   -0.9830    2.7040 C   0  0  0  0  0  0  0  0  0  0  0  0
   -5.9280   -1.4730    3.2960 S   0  0  0  0  0  0  0  0  0  0  0  0
   -2.2880    0.3890    3.2210 C   0  0  0  0  0  0  0  0  0  0  0  0
   -2.0040    1.6010    3.0220 O   0  0  0  0  0  0  0  0  0  0  0  0
   -3.8920    2.0440    3.7970 H   0  0  0  0  0  0  0  0  0  0  0  0
   -4.9560    1.1220    4.7210 H   0  0  0  0  0  0  0  0  0  0  0  0
   -3.6240   -0.5310    4.6510 H   0  0  0  0  0  0  0  0  0  0  0  0
   -4.4590   -0.4020    1.7540 H   0  0  0  0  0  0  0  0  0  0  0  0
   -3.6350   -1.8420    2.5150 H   0  0  0  0  0  0  0  0  0  0  0  0
   -5.8770   -2.8360    3.6530 H   0  0  0  0  0  0  0  0  0  0  0  0
    1.1210   -0.5110    3.5780 C   0  0  0  0  0  0  0  0  0  0  0  0
    0.0890   -0.1680    2.5440 C   0  0  2  0  0  0  0  0  0  0  0  0
   -1.2400   -0.5430    2.9870 N   0  0  0  0  0  0  0  0  0  0  0  0
    0.3990   -0.7820    1.2190 C   0  0  0  0  0  0  0  0  0  0  0  0
   -0.4850   -1.5040    0.7000 O   0  0  0  0  0  0  0  0  0  0  0  0
    1.9390   -1.1550    3.1400 H   0  0  0  0  0  0  0  0  0  0  0  0
    0.6750   -1.1120    4.4150 H   0  0  0  0  0  0  0  0  0  0  0  0
    1.6360    0.3870    3.9550 H   0  0  0  0  0  0  0  0  0  0  0  0
    0.0820    0.9570    2.4490 H   0  0  0  0  0  0  0  0  0  0  0  0
   -1.4460   -1.5530    3.1440 H   0  0  0  0  0  0  0  0  0  0  0  0
    3.9310   -1.1020   -3.3880 C   0  0  0  0  0  0  0  0  0  0  0  0
    2.5580   -0.6060   -3.1410 C   0  0  0  0  0  0  0  0  0  0  0  0
    2.2280   -0.1490   -1.7590 C   0  0  2  0  0  0  0  0  0  0  0  0
    3.1710    0.9540   -1.3250 C   0  0  0  0  0  0  0  0  0  0  0  0
    1.9370   -1.1880   -0.7580 C   0  0  2  0  0  0  0  0  0  0  0  0
    1.6320   -0.5760    0.5530 N   0  0  0  0  0  0  0  0  0  0  0  0
    3.0320   -2.1280   -0.5550 C   0  0  0  0  0  0  0  0  0  0  0  0
    3.4870   -2.9610   -1.3730 O   0  0  0  0  0  0  0  0  0  0  0  0
    3.6880   -2.1410    0.6930 O   0  0  0  0  0  0  0  0  0  0  0  0
    4.3680   -0.4520   -4.2340 H   0  0  0  0  0  0  0  0  0  0  0  0
    4.6680   -0.9240   -2.5770 H   0  0  0  0  0  0  0  0  0  0  0  0
    3.9360   -2.1000   -3.8310 H   0  0  0  0  0  0  0  0  0  0  0  0
    1.8580   -1.4540   -3.4490 H   0  0  0  0  0  0  0  0  0  0  0  0
    2.3330    0.2280   -3.8830 H   0  0  0  0  0  0  0  0  0  0  0  0
    1.2500    0.4740   -1.9400 H   0  0  0  0  0  0  0  0  0  0  0  0
    2.6930    1.4660   -0.4630 H   0  0  0  0  0  0  0  0  0  0  0  0
    4.1860    0.5740   -1.1050 H   0  0  0  0  0  0  0  0  0  0  0  0
    3.2480    1.6520   -2.1870 H   0  0  0  0  0  0  0  0  0  0  0  0
    1.0450   -1.8040   -1.0790 H   0  0  0  0  0  0  0  0  0  0  0  0
    2.3240    0.0330    1.0350 H   0  0  0  0  0  0  0  0  0  0  0  0
  1  8  1  0  0  0  0
  2  1  1  0  0  0  0
  2  9  1  1  0  0  0
  3  4  1  0  0  0  0
  3  2  1  0  0  0  0
  4 12  1  0  0  0  0
  5  2  1  0  0  0  0
  6  5  2  0  0  0  0
  7  1  1  0  0  0  0
 10  3  1  0  0  0  0
 11  3  1  0  0  0  0
 13 20  1  0  0  0  0
 13 19  1  0  0  0  0
 14 21  1  6  0  0  0
 14 15  1  0  0  0  0
 14 13  1  0  0  0  0
 15 22  1  0  0  0  0
 15  5  1  0  0  0  0
 16 14  1  0  0  0  0
 17 16  2  0  0  0  0
 18 13  1  0  0  0  0
 23 24  1  0  0  0  0
 23 33  1  0  0  0  0
 24 25  1  0  0  0  0
 25 37  1  6  0  0  0
 25 26  1  0  0  0  0
 25 27  1  0  0  0  0
 26 39  1  0  0  0  0
 26 38  1  0  0  0  0
 27 41  1  6  0  0  0
 27 29  1  0  0  0  0
 27 28  1  0  0  0  0
 28 42  1  0  0  0  0
 28 16  1  0  0  0  0
 29 31  1  0  0  0  0
 30 29  2  0  0  0  0
 32 23  1  0  0  0  0
 34 23  1  0  0  0  0
 35 24  1  0  0  0  0
 36 24  1  0  0  0  0
 40 26  1  0  0  0  0
M  END
$$$$
