CAK.pdb
 OpenBabel07022418263D

 44 43  0  0  1  0  0  0  0  0999 V2000
   -1.9140   -5.8980   -0.5160 N   0  0  0  0  0  0  0  0  0  0  0  0
   -0.8700   -4.8520   -0.5690 C   0  0  1  0  0  0  0  0  0  0  0  0
   -1.1520   -4.0170   -1.7720 C   0  0  0  0  0  0  0  0  0  0  0  0
    0.1010   -2.7190   -1.8990 S   0  0  0  0  0  0  0  0  0  0  0  0
   -0.8460   -4.1950    0.7210 C   0  0  0  0  0  0  0  0  0  0  0  0
   -1.7190   -4.5350    1.5920 O   0  0  0  0  0  0  0  0  0  0  0  0
   -1.6230   -6.6860    0.0920 H   0  0  0  0  0  0  0  0  0  0  0  0
   -2.8040   -5.5190   -0.1390 H   0  0  0  0  0  0  0  0  0  0  0  0
    0.0780   -5.4150   -0.7030 H   0  0  0  0  0  0  0  0  0  0  0  0
   -2.1700   -3.6460   -1.8560 H   0  0  0  0  0  0  0  0  0  0  0  0
   -0.9910   -4.6880   -2.6670 H   0  0  0  0  0  0  0  0  0  0  0  0
    1.3300   -3.3720   -2.2000 H   0  0  0  0  0  0  0  0  0  0  0  0
    1.2190   -2.9070    3.3090 C   0  0  0  0  0  0  0  0  0  0  0  0
   -0.0070   -2.5950    2.4770 C   0  0  2  0  0  0  0  0  0  0  0  0
    0.0440   -3.1910    1.1730 N   0  0  0  0  0  0  0  0  0  0  0  0
   -0.1580   -1.1200    2.4680 C   0  0  0  0  0  0  0  0  0  0  0  0
   -0.2070   -0.5450    3.5750 O   0  0  0  0  0  0  0  0  0  0  0  0
    1.1820   -2.2320    4.1880 H   0  0  0  0  0  0  0  0  0  0  0  0
    2.1290   -2.6430    2.7230 H   0  0  0  0  0  0  0  0  0  0  0  0
    1.2380   -3.9380    3.6870 H   0  0  0  0  0  0  0  0  0  0  0  0
   -0.8660   -3.0870    3.0200 H   0  0  0  0  0  0  0  0  0  0  0  0
    0.7730   -2.8800    0.5150 H   0  0  0  0  0  0  0  0  0  0  0  0
   -0.2500   -0.3200    1.3000 N   0  0  0  0  0  0  0  0  0  0  0  0
   -0.3990    1.1400    1.3480 C   0  0  1  0  0  0  0  0  0  0  0  0
    0.6920    1.8120    0.5950 C   0  0  0  0  0  0  0  0  0  0  0  0
    0.5670    3.2990    0.6550 C   0  0  0  0  0  0  0  0  0  0  0  0
    1.6950    3.9950   -0.1090 C   0  0  0  0  0  0  0  0  0  0  0  0
    3.0200    3.6270    0.4880 C   0  0  0  0  0  0  0  0  0  0  0  0
    3.0290    4.0380    1.8860 N   0  0  0  0  0  0  0  0  0  0  0  0
   -1.7000    1.4390    0.7220 C   0  0  0  0  0  0  0  0  0  0  0  0
   -2.3460    0.4570    0.2120 O   0  0  0  0  0  0  0  0  0  0  0  0
   -2.3090    2.6660    0.6230 O   0  0  0  0  0  0  0  0  0  0  0  0
   -0.2060   -0.8200    0.3900 H   0  0  0  0  0  0  0  0  0  0  0  0
   -0.4260    1.4930    2.3900 H   0  0  0  0  0  0  0  0  0  0  0  0
    0.6320    1.5450   -0.5040 H   0  0  0  0  0  0  0  0  0  0  0  0
    1.7070    1.5080    0.9160 H   0  0  0  0  0  0  0  0  0  0  0  0
   -0.3920    3.6960    0.2990 H   0  0  0  0  0  0  0  0  0  0  0  0
    0.6550    3.6850    1.7150 H   0  0  0  0  0  0  0  0  0  0  0  0
    1.5760    5.0870   -0.0480 H   0  0  0  0  0  0  0  0  0  0  0  0
    1.6290    3.6530   -1.1710 H   0  0  0  0  0  0  0  0  0  0  0  0
    3.2980    2.5670    0.4050 H   0  0  0  0  0  0  0  0  0  0  0  0
    3.8120    4.2020   -0.0630 H   0  0  0  0  0  0  0  0  0  0  0  0
    3.9370    4.4990    2.1210 H   0  0  0  0  0  0  0  0  0  0  0  0
    2.8090    3.2140    2.4600 H   0  0  0  0  0  0  0  0  0  0  0  0
  1  8  1  0  0  0  0
  1  7  1  0  0  0  0
  2  9  1  6  0  0  0
  2  1  1  0  0  0  0
  2  5  1  0  0  0  0
  3  2  1  0  0  0  0
  4  3  1  0  0  0  0
  5 15  1  0  0  0  0
  5  6  2  0  0  0  0
 10  3  1  0  0  0  0
 11  3  1  0  0  0  0
 12  4  1  0  0  0  0
 13 20  1  0  0  0  0
 13 18  1  0  0  0  0
 14 21  1  1  0  0  0
 14 13  1  0  0  0  0
 15 14  1  0  0  0  0
 16 14  1  0  0  0  0
 16 17  2  0  0  0  0
 19 13  1  0  0  0  0
 22 15  1  0  0  0  0
 23 24  1  0  0  0  0
 23 16  1  0  0  0  0
 24 34  1  1  0  0  0
 25 26  1  0  0  0  0
 25 36  1  0  0  0  0
 25 24  1  0  0  0  0
 26 38  1  0  0  0  0
 27 39  1  0  0  0  0
 27 28  1  0  0  0  0
 27 26  1  0  0  0  0
 28 29  1  0  0  0  0
 29 43  1  0  0  0  0
 29 44  1  0  0  0  0
 30 24  1  0  0  0  0
 31 30  2  0  0  0  0
 32 30  1  0  0  0  0
 33 23  1  0  0  0  0
 35 25  1  0  0  0  0
 37 26  1  0  0  0  0
 40 27  1  0  0  0  0
 41 28  1  0  0  0  0
 42 28  1  0  0  0  0
M  END
$$$$
