CAN.pdb
 OpenBabel07022418253D

 37 36  0  0  1  0  0  0  0  0999 V2000
   -0.3230   -4.9700    2.7950 N   0  0  0  0  0  0  0  0  0  0  0  0
    0.1770   -4.1180    1.7250 C   0  0  1  0  0  0  0  0  0  0  0  0
   -1.0230   -3.7430    0.8530 C   0  0  0  0  0  0  0  0  0  0  0  0
   -2.2450   -2.8580    1.8660 S   0  0  0  0  0  0  0  0  0  0  0  0
    0.8140   -2.9180    2.2990 C   0  0  0  0  0  0  0  0  0  0  0  0
    0.8100   -2.7510    3.5410 O   0  0  0  0  0  0  0  0  0  0  0  0
    0.5340   -5.4720    3.1720 H   0  0  0  0  0  0  0  0  0  0  0  0
   -0.6960   -4.3910    3.5560 H   0  0  0  0  0  0  0  0  0  0  0  0
    0.9170   -4.6570    1.1170 H   0  0  0  0  0  0  0  0  0  0  0  0
   -0.7230   -3.1340    0.0000 H   0  0  0  0  0  0  0  0  0  0  0  0
   -1.4580   -4.6910    0.4860 H   0  0  0  0  0  0  0  0  0  0  0  0
   -3.5430   -3.0490    1.3740 H   0  0  0  0  0  0  0  0  0  0  0  0
    3.5430   -0.8400    1.8400 C   0  0  0  0  0  0  0  0  0  0  0  0
    2.0360   -0.8020    2.0080 C   0  0  2  0  0  0  0  0  0  0  0  0
    1.4190   -1.9710    1.4340 N   0  0  0  0  0  0  0  0  0  0  0  0
    1.4700    0.4560    1.4430 C   0  0  0  0  0  0  0  0  0  0  0  0
    1.8850    1.5730    1.8450 O   0  0  0  0  0  0  0  0  0  0  0  0
    3.9470   -1.5140    2.6230 H   0  0  0  0  0  0  0  0  0  0  0  0
    3.9200    0.1780    2.0420 H   0  0  0  0  0  0  0  0  0  0  0  0
    3.8370   -1.2420    0.8650 H   0  0  0  0  0  0  0  0  0  0  0  0
    1.8600   -0.8170    3.1000 H   0  0  0  0  0  0  0  0  0  0  0  0
    1.4120   -2.1300    0.4060 H   0  0  0  0  0  0  0  0  0  0  0  0
   -0.7960    4.2010   -1.5400 N   0  0  0  0  0  0  0  0  0  0  0  0
   -0.3900    3.0370   -2.2010 C   0  0  0  0  0  0  0  0  0  0  0  0
   -0.4750    3.0770   -3.4850 O   0  0  0  0  0  0  0  0  0  0  0  0
    0.1160    1.7970   -1.5810 C   0  0  0  0  0  0  0  0  0  0  0  0
   -0.0880    1.7310   -0.1010 C   0  0  2  0  0  0  0  0  0  0  0  0
    0.4630    0.4890    0.4500 N   0  0  0  0  0  0  0  0  0  0  0  0
   -1.5510    1.6880    0.1690 C   0  0  0  0  0  0  0  0  0  0  0  0
   -2.0460    0.6760    0.7680 O   0  0  0  0  0  0  0  0  0  0  0  0
   -2.4310    2.6880   -0.1900 O   0  0  0  0  0  0  0  0  0  0  0  0
   -0.3510    4.4740   -0.6290 H   0  0  0  0  0  0  0  0  0  0  0  0
   -1.5410    4.8000   -1.9480 H   0  0  0  0  0  0  0  0  0  0  0  0
   -0.3390    0.9490   -2.1170 H   0  0  0  0  0  0  0  0  0  0  0  0
    1.2200    1.7880   -1.7880 H   0  0  0  0  0  0  0  0  0  0  0  0
    0.3660    2.5950    0.4160 H   0  0  0  0  0  0  0  0  0  0  0  0
    0.0880   -0.4060    0.0860 H   0  0  0  0  0  0  0  0  0  0  0  0
  1  7  1  0  0  0  0
  1  8  1  0  0  0  0
  2  9  1  6  0  0  0
  2  5  1  0  0  0  0
  2  1  1  0  0  0  0
  3  2  1  0  0  0  0
  3  4  1  0  0  0  0
  5  6  2  0  0  0  0
 10  3  1  0  0  0  0
 11  3  1  0  0  0  0
 12  4  1  0  0  0  0
 13 14  1  0  0  0  0
 13 19  1  0  0  0  0
 13 18  1  0  0  0  0
 14 21  1  1  0  0  0
 15 14  1  0  0  0  0
 15  5  1  0  0  0  0
 16 17  2  0  0  0  0
 16 14  1  0  0  0  0
 20 13  1  0  0  0  0
 22 15  1  0  0  0  0
 23 32  1  0  0  0  0
 24 26  1  0  0  0  0
 24 23  1  0  0  0  0
 25 24  2  0  0  0  0
 26 27  1  0  0  0  0
 27 29  1  0  0  0  0
 27 36  1  1  0  0  0
 27 28  1  0  0  0  0
 28 16  1  0  0  0  0
 29 30  1  0  0  0  0
 31 29  2  0  0  0  0
 33 23  1  0  0  0  0
 34 26  1  0  0  0  0
 35 26  1  0  0  0  0
 37 28  1  0  0  0  0
M  END
$$$$
