CAP.pdb
 OpenBabel07022418263D

 37 37  0  0  1  0  0  0  0  0999 V2000
   -1.1870   -1.9070    2.7720 N   0  0  0  0  0  0  0  0  0  0  0  0
    0.1270   -2.4410    2.9530 C   0  0  1  0  0  0  0  0  0  0  0  0
    0.0980   -3.9160    3.3100 C   0  0  0  0  0  0  0  0  0  0  0  0
   -0.6970   -4.8950    2.0250 S   0  0  0  0  0  0  0  0  0  0  0  0
    0.9170   -2.3170    1.7090 C   0  0  0  0  0  0  0  0  0  0  0  0
    2.1030   -2.7090    1.5990 O   0  0  0  0  0  0  0  0  0  0  0  0
   -1.5790   -1.4100    3.5840 H   0  0  0  0  0  0  0  0  0  0  0  0
   -1.8450   -2.5110    2.2670 H   0  0  0  0  0  0  0  0  0  0  0  0
    0.6200   -1.8630    3.7540 H   0  0  0  0  0  0  0  0  0  0  0  0
   -0.4310   -4.0510    4.2940 H   0  0  0  0  0  0  0  0  0  0  0  0
    1.1110   -4.3200    3.4650 H   0  0  0  0  0  0  0  0  0  0  0  0
   -0.7780   -4.1210    0.8590 H   0  0  0  0  0  0  0  0  0  0  0  0
    0.2610   -2.3930   -1.7060 C   0  0  0  0  0  0  0  0  0  0  0  0
    1.0190   -1.5770   -0.6510 C   0  0  2  0  0  0  0  0  0  0  0  0
    0.3050   -1.7230    0.5750 N   0  0  0  0  0  0  0  0  0  0  0  0
    1.1750   -0.2040   -1.1560 C   0  0  0  0  0  0  0  0  0  0  0  0
    1.7310   -0.1410   -2.3160 O   0  0  0  0  0  0  0  0  0  0  0  0
    0.7420   -2.3520   -2.6860 H   0  0  0  0  0  0  0  0  0  0  0  0
    0.2350   -3.4520   -1.3470 H   0  0  0  0  0  0  0  0  0  0  0  0
   -0.8000   -2.0460   -1.7330 H   0  0  0  0  0  0  0  0  0  0  0  0
    2.0260   -2.0820   -0.5610 H   0  0  0  0  0  0  0  0  0  0  0  0
   -0.6950   -1.3850    0.5950 H   0  0  0  0  0  0  0  0  0  0  0  0
    0.7930    0.9860   -0.5230 N   0  0  0  0  0  0  0  0  0  0  0  0
    0.9730    2.3030   -1.1700 C   0  0  0  0  0  0  0  0  0  0  0  0
    0.9580    3.3290   -0.0670 C   0  0  0  0  0  0  0  0  0  0  0  0
    1.0720    2.4920    1.1860 C   0  0  0  0  0  0  0  0  0  0  0  0
    0.2100    1.2880    0.7580 C   0  0  1  0  0  0  0  0  0  0  0  0
   -1.1910    1.6930    0.5570 C   0  0  0  0  0  0  0  0  0  0  0  0
   -1.6760    1.7200   -0.5990 O   0  0  0  0  0  0  0  0  0  0  0  0
   -2.0090    2.0520    1.6120 O   0  0  0  0  0  0  0  0  0  0  0  0
    1.9310    2.3250   -1.7300 H   0  0  0  0  0  0  0  0  0  0  0  0
    0.1350    2.4820   -1.8550 H   0  0  0  0  0  0  0  0  0  0  0  0
    1.7630    4.0780   -0.1550 H   0  0  0  0  0  0  0  0  0  0  0  0
   -0.0180    3.8640   -0.0010 H   0  0  0  0  0  0  0  0  0  0  0  0
    2.0980    2.1150    1.2820 H   0  0  0  0  0  0  0  0  0  0  0  0
    0.6650    2.9740    2.0780 H   0  0  0  0  0  0  0  0  0  0  0  0
    0.3190    0.4840    1.5160 H   0  0  0  0  0  0  0  0  0  0  0  0
  1  2  1  0  0  0  0
  1  7  1  0  0  0  0
  2  3  1  0  0  0  0
  2  9  1  1  0  0  0
  3 11  1  0  0  0  0
  3 10  1  0  0  0  0
  4  3  1  0  0  0  0
  5  2  1  0  0  0  0
  6  5  2  0  0  0  0
  8  1  1  0  0  0  0
 12  4  1  0  0  0  0
 13 19  1  0  0  0  0
 13 14  1  0  0  0  0
 14 21  1  1  0  0  0
 14 15  1  0  0  0  0
 15 22  1  0  0  0  0
 15  5  1  0  0  0  0
 16 14  1  0  0  0  0
 16 23  1  0  0  0  0
 17 16  2  0  0  0  0
 18 13  1  0  0  0  0
 20 13  1  0  0  0  0
 23 27  1  0  0  0  0
 24 23  1  0  0  0  0
 24 25  1  0  0  0  0
 25 34  1  0  0  0  0
 25 26  1  0  0  0  0
 26 35  1  0  0  0  0
 26 36  1  0  0  0  0
 27 26  1  0  0  0  0
 27 37  1  1  0  0  0
 28 27  1  0  0  0  0
 28 30  1  0  0  0  0
 29 28  2  0  0  0  0
 31 24  1  0  0  0  0
 32 24  1  0  0  0  0
 33 25  1  0  0  0  0
M  END
$$$$
