CAR.pdb
 OpenBabel07022418253D

 46 45  0  0  1  0  0  0  0  0999 V2000
    0.9410   -5.4510    3.6220 N   0  0  0  0  0  0  0  0  0  0  0  0
   -0.2060   -4.8790    2.9450 C   0  0  1  0  0  0  0  0  0  0  0  0
   -0.7410   -3.7870    3.8710 C   0  0  0  0  0  0  0  0  0  0  0  0
    0.5270   -2.5240    4.1600 S   0  0  0  0  0  0  0  0  0  0  0  0
    0.2450   -4.2380    1.6870 C   0  0  0  0  0  0  0  0  0  0  0  0
    1.4780   -4.2510    1.3620 O   0  0  0  0  0  0  0  0  0  0  0  0
    1.8170   -5.2010    3.1200 H   0  0  0  0  0  0  0  0  0  0  0  0
    0.8330   -6.4470    3.8390 H   0  0  0  0  0  0  0  0  0  0  0  0
   -0.9630   -5.6550    2.8060 H   0  0  0  0  0  0  0  0  0  0  0  0
   -0.9380   -4.2690    4.8720 H   0  0  0  0  0  0  0  0  0  0  0  0
   -1.6760   -3.3410    3.4870 H   0  0  0  0  0  0  0  0  0  0  0  0
    1.6380   -2.6960    3.2830 H   0  0  0  0  0  0  0  0  0  0  0  0
   -0.8210   -3.5220   -1.6440 C   0  0  0  0  0  0  0  0  0  0  0  0
   -0.1900   -2.9770   -0.4090 C   0  0  2  0  0  0  0  0  0  0  0  0
   -0.6500   -3.5900    0.8000 N   0  0  0  0  0  0  0  0  0  0  0  0
   -0.3630   -1.4750   -0.3190 C   0  0  0  0  0  0  0  0  0  0  0  0
   -0.0090   -0.7910   -1.2880 O   0  0  0  0  0  0  0  0  0  0  0  0
   -1.3360   -4.4700   -1.3810 H   0  0  0  0  0  0  0  0  0  0  0  0
   -1.5130   -2.8050   -2.1340 H   0  0  0  0  0  0  0  0  0  0  0  0
   -0.0300   -3.7760   -2.3740 H   0  0  0  0  0  0  0  0  0  0  0  0
    0.9080   -3.1130   -0.4770 H   0  0  0  0  0  0  0  0  0  0  0  0
   -1.6560   -3.5680    1.0460 H   0  0  0  0  0  0  0  0  0  0  0  0
    1.3200    6.0770   -0.8580 N   0  0  0  0  0  0  0  0  0  0  0  0
    2.0570    4.8600   -0.7090 C   0  0  0  0  0  0  0  0  0  0  0  0
    3.2260    4.7650   -1.2090 N   0  0  0  0  0  0  0  0  0  0  0  0
    1.4730    3.7670   -0.0030 N   0  0  0  0  0  0  0  0  0  0  0  0
    1.8910    2.4370   -0.3360 C   0  0  0  0  0  0  0  0  0  0  0  0
    1.1450    1.4190    0.5280 C   0  0  0  0  0  0  0  0  0  0  0  0
   -0.3410    1.5160    0.3060 C   0  0  0  0  0  0  0  0  0  0  0  0
   -1.1300    0.5010    1.1160 C   0  0  2  0  0  0  0  0  0  0  0  0
   -0.9060   -0.8630    0.8240 N   0  0  0  0  0  0  0  0  0  0  0  0
   -2.5130    0.9060    1.3870 C   0  0  0  0  0  0  0  0  0  0  0  0
   -3.4950    0.1020    1.3710 O   0  0  0  0  0  0  0  0  0  0  0  0
   -2.8230    2.2260    1.6830 O   0  0  0  0  0  0  0  0  0  0  0  0
    1.6750    6.8330   -1.4770 H   0  0  0  0  0  0  0  0  0  0  0  0
    0.4200    6.2500   -0.3630 H   0  0  0  0  0  0  0  0  0  0  0  0
    3.7570    3.8900   -1.1020 H   0  0  0  0  0  0  0  0  0  0  0  0
    0.7620    3.9840    0.7300 H   0  0  0  0  0  0  0  0  0  0  0  0
    2.9650    2.2510   -0.1620 H   0  0  0  0  0  0  0  0  0  0  0  0
    1.6660    2.2090   -1.3870 H   0  0  0  0  0  0  0  0  0  0  0  0
    1.5120    0.4130    0.3420 H   0  0  0  0  0  0  0  0  0  0  0  0
    1.3120    1.7020    1.6250 H   0  0  0  0  0  0  0  0  0  0  0  0
   -0.5390    1.3750   -0.7710 H   0  0  0  0  0  0  0  0  0  0  0  0
   -0.6770    2.5580    0.6010 H   0  0  0  0  0  0  0  0  0  0  0  0
   -0.5670    0.6330    2.1430 H   0  0  0  0  0  0  0  0  0  0  0  0
   -1.1870   -1.5810    1.5860 H   0  0  0  0  0  0  0  0  0  0  0  0
  1  8  1  0  0  0  0
  2  9  1  6  0  0  0
  2  1  1  0  0  0  0
  2  3  1  0  0  0  0
  3  4  1  0  0  0  0
  3 10  1  0  0  0  0
  5  2  1  0  0  0  0
  6  5  2  0  0  0  0
  7  1  1  0  0  0  0
 11  3  1  0  0  0  0
 12  4  1  0  0  0  0
 13 18  1  0  0  0  0
 13 14  1  0  0  0  0
 14 21  1  6  0  0  0
 14 16  1  0  0  0  0
 14 15  1  0  0  0  0
 15 22  1  0  0  0  0
 15  5  1  0  0  0  0
 16 31  1  0  0  0  0
 17 16  2  0  0  0  0
 19 13  1  0  0  0  0
 20 13  1  0  0  0  0
 23 24  1  0  0  0  0
 23 36  1  0  0  0  0
 24 26  1  0  0  0  0
 25 37  1  0  0  0  0
 25 24  2  0  0  0  0
 26 38  1  0  0  0  0
 27 39  1  0  0  0  0
 27 26  1  0  0  0  0
 27 28  1  0  0  0  0
 28 42  1  0  0  0  0
 29 28  1  0  0  0  0
 29 44  1  0  0  0  0
 29 30  1  0  0  0  0
 30 32  1  0  0  0  0
 30 45  1  1  0  0  0
 31 30  1  0  0  0  0
 31 46  1  0  0  0  0
 32 34  1  0  0  0  0
 33 32  2  0  0  0  0
 35 23  1  0  0  0  0
 40 27  1  0  0  0  0
 41 28  1  0  0  0  0
 43 29  1  0  0  0  0
M  END
$$$$
