CAT.pdb
 OpenBabel07022418263D

 37 36  0  0  1  0  0  0  0  0999 V2000
   -1.4380   -3.4360    1.0440 N   0  0  0  0  0  0  0  0  0  0  0  0
   -0.6400   -3.4860    2.2340 C   0  0  1  0  0  0  0  0  0  0  0  0
   -0.2860   -4.9370    2.5310 C   0  0  0  0  0  0  0  0  0  0  0  0
    0.6460   -5.6870    1.1810 S   0  0  0  0  0  0  0  0  0  0  0  0
    0.5710   -2.6410    2.1510 C   0  0  0  0  0  0  0  0  0  0  0  0
    1.3560   -2.5970    3.1300 O   0  0  0  0  0  0  0  0  0  0  0  0
   -2.0310   -4.2870    0.9400 H   0  0  0  0  0  0  0  0  0  0  0  0
   -2.0810   -2.6120    1.0030 H   0  0  0  0  0  0  0  0  0  0  0  0
   -1.2950   -3.1560    3.0840 H   0  0  0  0  0  0  0  0  0  0  0  0
   -1.2310   -5.5040    2.6420 H   0  0  0  0  0  0  0  0  0  0  0  0
    0.3030   -5.0440    3.4540 H   0  0  0  0  0  0  0  0  0  0  0  0
   -0.0650   -5.6920   -0.0250 H   0  0  0  0  0  0  0  0  0  0  0  0
    3.0280   -1.6200   -0.0450 C   0  0  0  0  0  0  0  0  0  0  0  0
    2.0920   -1.0720    1.0120 C   0  0  2  0  0  0  0  0  0  0  0  0
    0.8880   -1.8700    1.0060 N   0  0  0  0  0  0  0  0  0  0  0  0
    1.7650    0.3430    0.7850 C   0  0  0  0  0  0  0  0  0  0  0  0
    2.6360    1.2580    0.7350 O   0  0  0  0  0  0  0  0  0  0  0  0
    2.4940   -1.7440   -1.0020 H   0  0  0  0  0  0  0  0  0  0  0  0
    3.9180   -0.9790   -0.1970 H   0  0  0  0  0  0  0  0  0  0  0  0
    3.4050   -2.6180    0.2560 H   0  0  0  0  0  0  0  0  0  0  0  0
    2.6310   -1.2150    1.9840 H   0  0  0  0  0  0  0  0  0  0  0  0
    0.2590   -1.8760    0.1590 H   0  0  0  0  0  0  0  0  0  0  0  0
   -0.9980    3.7080   -1.2260 C   0  0  0  0  0  0  0  0  0  0  0  0
   -0.6070    2.2850   -0.9880 C   0  0  1  0  0  0  0  0  0  0  0  0
    0.3140    1.9140   -1.9660 O   0  0  0  0  0  0  0  0  0  0  0  0
    0.0290    2.0910    0.3830 C   0  0  2  0  0  0  0  0  0  0  0  0
    0.4090    0.7280    0.6090 N   0  0  0  0  0  0  0  0  0  0  0  0
   -0.8370    2.6340    1.4580 C   0  0  0  0  0  0  0  0  0  0  0  0
   -1.1770    1.9360    2.4480 O   0  0  0  0  0  0  0  0  0  0  0  0
   -1.3160    3.9360    1.4310 O   0  0  0  0  0  0  0  0  0  0  0  0
   -2.0740    3.8880   -0.9970 H   0  0  0  0  0  0  0  0  0  0  0  0
   -0.8820    3.9250   -2.3080 H   0  0  0  0  0  0  0  0  0  0  0  0
   -0.3440    4.4340   -0.6860 H   0  0  0  0  0  0  0  0  0  0  0  0
   -1.4930    1.6260   -1.1100 H   0  0  0  0  0  0  0  0  0  0  0  0
    1.0380    2.5920   -2.0740 H   0  0  0  0  0  0  0  0  0  0  0  0
    0.9510    2.7090    0.3780 H   0  0  0  0  0  0  0  0  0  0  0  0
   -0.3620   -0.0050    0.6430 H   0  0  0  0  0  0  0  0  0  0  0  0
  1  2  1  0  0  0  0
  2  3  1  0  0  0  0
  2  9  1  1  0  0  0
  3 10  1  0  0  0  0
  3 11  1  0  0  0  0
  4  3  1  0  0  0  0
  5  2  1  0  0  0  0
  5  6  2  0  0  0  0
  7  1  1  0  0  0  0
  8  1  1  0  0  0  0
 12  4  1  0  0  0  0
 13 20  1  0  0  0  0
 13 14  1  0  0  0  0
 14 21  1  1  0  0  0
 15 14  1  0  0  0  0
 15  5  1  0  0  0  0
 16 14  1  0  0  0  0
 17 16  2  0  0  0  0
 18 13  1  0  0  0  0
 19 13  1  0  0  0  0
 22 15  1  0  0  0  0
 23 31  1  0  0  0  0
 23 24  1  0  0  0  0
 23 33  1  0  0  0  0
 24 34  1  6  0  0  0
 24 26  1  0  0  0  0
 25 24  1  0  0  0  0
 26 36  1  1  0  0  0
 26 27  1  0  0  0  0
 26 28  1  0  0  0  0
 27 37  1  0  0  0  0
 27 16  1  0  0  0  0
 28 29  1  0  0  0  0
 30 28  2  0  0  0  0
 32 23  1  0  0  0  0
 35 25  1  0  0  0  0
M  END
$$$$
