CAW.pdb
 OpenBabel07022418263D

 47 48  0  0  1  0  0  0  0  0999 V2000
    6.1780   -2.2710    2.0080 N   0  0  0  0  0  0  0  0  0  0  0  0
    5.0670   -2.9690    1.3730 C   0  0  1  0  0  0  0  0  0  0  0  0
    4.5150   -3.9590    2.4050 C   0  0  0  0  0  0  0  0  0  0  0  0
    3.1270   -4.9160    1.7730 S   0  0  0  0  0  0  0  0  0  0  0  0
    4.0150   -1.9940    0.9910 C   0  0  0  0  0  0  0  0  0  0  0  0
    4.1640   -0.7800    1.3440 O   0  0  0  0  0  0  0  0  0  0  0  0
    7.0560   -2.7980    1.7260 H   0  0  0  0  0  0  0  0  0  0  0  0
    6.0960   -2.3480    3.0470 H   0  0  0  0  0  0  0  0  0  0  0  0
    5.3900   -3.5550    0.4920 H   0  0  0  0  0  0  0  0  0  0  0  0
    5.3320   -4.6860    2.6440 H   0  0  0  0  0  0  0  0  0  0  0  0
    4.2430   -3.4590    3.3470 H   0  0  0  0  0  0  0  0  0  0  0  0
    3.3880   -5.5000    0.5410 H   0  0  0  0  0  0  0  0  0  0  0  0
    1.7230   -1.1440   -1.5630 C   0  0  0  0  0  0  0  0  0  0  0  0
    1.8830   -1.2720   -0.0620 C   0  0  2  0  0  0  0  0  0  0  0  0
    2.8490   -2.2910    0.2600 N   0  0  0  0  0  0  0  0  0  0  0  0
    0.5820   -1.6470    0.5340 C   0  0  0  0  0  0  0  0  0  0  0  0
    0.5050   -2.7110    1.1880 O   0  0  0  0  0  0  0  0  0  0  0  0
    2.6930   -0.9300   -2.0110 H   0  0  0  0  0  0  0  0  0  0  0  0
    1.0530   -0.2830   -1.7490 H   0  0  0  0  0  0  0  0  0  0  0  0
    1.3270   -2.1020   -1.9560 H   0  0  0  0  0  0  0  0  0  0  0  0
    2.2450   -0.2880    0.3460 H   0  0  0  0  0  0  0  0  0  0  0  0
    2.6810   -3.2600   -0.0580 H   0  0  0  0  0  0  0  0  0  0  0  0
   -0.5930   -0.8590    0.4050 N   0  0  0  0  0  0  0  0  0  0  0  0
   -1.8630   -1.2460    1.0000 C   0  0  1  0  0  0  0  0  0  0  0  0
   -2.1440   -0.2320    2.0760 C   0  0  0  0  0  0  0  0  0  0  0  0
   -2.2080    1.1590    1.5750 C   0  0  0  0  0  0  0  0  0  0  0  0
   -1.1160    2.0540    1.5920 C   0  0  0  0  0  0  0  0  0  0  0  0
   -1.4960    3.2040    1.0320 N   0  0  0  0  0  0  0  0  0  0  0  0
   -2.7940    3.1510    0.6290 C   0  0  0  0  0  0  0  0  0  0  0  0
   -3.6140    4.0750    0.0210 C   0  0  0  0  0  0  0  0  0  0  0  0
   -4.9100    3.7350   -0.2590 C   0  0  0  0  0  0  0  0  0  0  0  0
   -5.3370    2.4690    0.0840 C   0  0  0  0  0  0  0  0  0  0  0  0
   -4.5360    1.5290    0.6920 C   0  0  0  0  0  0  0  0  0  0  0  0
   -3.2170    1.8660    0.9790 C   0  0  0  0  0  0  0  0  0  0  0  0
   -2.9650   -1.4040    0.0780 C   0  0  0  0  0  0  0  0  0  0  0  0
   -4.0460   -1.8870    0.5510 O   0  0  0  0  0  0  0  0  0  0  0  0
   -2.9810   -1.0910   -1.2640 O   0  0  0  0  0  0  0  0  0  0  0  0
   -0.5070    0.0210   -0.1420 H   0  0  0  0  0  0  0  0  0  0  0  0
   -1.7350   -2.2250    1.5610 H   0  0  0  0  0  0  0  0  0  0  0  0
   -3.1390   -0.4780    2.5150 H   0  0  0  0  0  0  0  0  0  0  0  0
   -1.4010   -0.3210    2.9020 H   0  0  0  0  0  0  0  0  0  0  0  0
   -0.1540    1.7990    2.0030 H   0  0  0  0  0  0  0  0  0  0  0  0
   -0.9060    4.0570    0.9000 H   0  0  0  0  0  0  0  0  0  0  0  0
   -3.2500    5.0480   -0.2310 H   0  0  0  0  0  0  0  0  0  0  0  0
   -5.6080    4.4340   -0.7440 H   0  0  0  0  0  0  0  0  0  0  0  0
   -6.3670    2.1880   -0.1350 H   0  0  0  0  0  0  0  0  0  0  0  0
   -4.8960    0.5520    0.9650 H   0  0  0  0  0  0  0  0  0  0  0  0
  1  8  1  0  0  0  0
  2  9  1  6  0  0  0
  2  1  1  0  0  0  0
  2  3  1  0  0  0  0
  3 10  1  0  0  0  0
  3 11  1  0  0  0  0
  4  3  1  0  0  0  0
  5  6  2  0  0  0  0
  5  2  1  0  0  0  0
  7  1  1  0  0  0  0
 12  4  1  0  0  0  0
 13 14  1  0  0  0  0
 14 15  1  0  0  0  0
 14 21  1  1  0  0  0
 14 16  1  0  0  0  0
 15  5  1  0  0  0  0
 16 17  2  0  0  0  0
 18 13  1  0  0  0  0
 19 13  1  0  0  0  0
 20 13  1  0  0  0  0
 22 15  1  0  0  0  0
 23 16  1  0  0  0  0
 23 24  1  0  0  0  0
 24 39  1  1  0  0  0
 24 25  1  0  0  0  0
 25 40  1  0  0  0  0
 25 41  1  0  0  0  0
 26 27  2  0  0  0  0
 26 25  1  0  0  0  0
 27 42  1  0  0  0  0
 28 27  1  0  0  0  0
 29 34  1  0  0  0  0
 29 28  1  0  0  0  0
 30 29  2  0  0  0  0
 31 30  1  0  0  0  0
 31 32  2  0  0  0  0
 32 33  1  0  0  0  0
 33 47  1  0  0  0  0
 33 34  2  0  0  0  0
 34 26  1  0  0  0  0
 35 36  1  0  0  0  0
 35 24  1  0  0  0  0
 37 35  2  0  0  0  0
 38 23  1  0  0  0  0
 43 28  1  0  0  0  0
 44 30  1  0  0  0  0
 45 31  1  0  0  0  0
 46 32  1  0  0  0  0
M  END
$$$$
