CAY.pdb
 OpenBabel07022418263D

 44 44  0  0  1  0  0  0  0  0999 V2000
    4.1460    1.2310    0.9520 N   0  0  0  0  0  0  0  0  0  0  0  0
    3.5850   -0.1370    1.0730 C   0  0  1  0  0  0  0  0  0  0  0  0
    2.7420   -0.1190    2.2940 C   0  0  0  0  0  0  0  0  0  0  0  0
    1.9960   -1.7090    2.6550 S   0  0  0  0  0  0  0  0  0  0  0  0
    2.9480   -0.4880   -0.1940 C   0  0  0  0  0  0  0  0  0  0  0  0
    3.0930    0.2960   -1.1980 O   0  0  0  0  0  0  0  0  0  0  0  0
    4.3410    1.4020   -0.0380 H   0  0  0  0  0  0  0  0  0  0  0  0
    3.4010    1.8860    1.2830 H   0  0  0  0  0  0  0  0  0  0  0  0
    4.4630   -0.8020    1.2950 H   0  0  0  0  0  0  0  0  0  0  0  0
    3.4250    0.1920    3.1440 H   0  0  0  0  0  0  0  0  0  0  0  0
    1.9830    0.7100    2.2800 H   0  0  0  0  0  0  0  0  0  0  0  0
    1.8180   -1.9420    4.0180 H   0  0  0  0  0  0  0  0  0  0  0  0
    1.8920   -3.3240   -2.1470 C   0  0  0  0  0  0  0  0  0  0  0  0
    1.5710   -1.9330   -1.7070 C   0  0  2  0  0  0  0  0  0  0  0  0
    2.1660   -1.6540   -0.4040 N   0  0  0  0  0  0  0  0  0  0  0  0
    0.1430   -1.5750   -1.7900 C   0  0  0  0  0  0  0  0  0  0  0  0
   -0.5250   -1.8160   -2.8560 O   0  0  0  0  0  0  0  0  0  0  0  0
    1.2350   -4.0880   -1.6570 H   0  0  0  0  0  0  0  0  0  0  0  0
    2.9270   -3.5590   -1.7470 H   0  0  0  0  0  0  0  0  0  0  0  0
    1.9370   -3.4650   -3.2330 H   0  0  0  0  0  0  0  0  0  0  0  0
    2.0880   -1.2290   -2.4380 H   0  0  0  0  0  0  0  0  0  0  0  0
    2.0000   -2.3490    0.3530 H   0  0  0  0  0  0  0  0  0  0  0  0
   -1.3200    1.2090    5.3790 O   0  0  0  0  0  0  0  0  0  0  0  0
   -1.6340    0.6090    4.1500 C   0  0  0  0  0  0  0  0  0  0  0  0
   -1.0890   -0.5880    3.7440 C   0  0  0  0  0  0  0  0  0  0  0  0
   -1.4470   -1.1210    2.5150 C   0  0  0  0  0  0  0  0  0  0  0  0
   -2.3370   -0.4630    1.7000 C   0  0  0  0  0  0  0  0  0  0  0  0
   -2.7300   -1.0110    0.3970 C   0  0  0  0  0  0  0  0  0  0  0  0
   -1.8970   -0.5920   -0.7640 C   0  0  2  0  0  0  0  0  0  0  0  0
   -0.4900   -0.9560   -0.6820 N   0  0  0  0  0  0  0  0  0  0  0  0
   -2.0150    0.8970   -1.0050 C   0  0  0  0  0  0  0  0  0  0  0  0
   -3.1560    1.3740   -1.1460 O   0  0  0  0  0  0  0  0  0  0  0  0
   -2.8650    0.7270    2.1290 C   0  0  0  0  0  0  0  0  0  0  0  0
   -2.5280    1.2740    3.3390 C   0  0  0  0  0  0  0  0  0  0  0  0
   -0.9200    1.7290   -1.0730 O   0  0  0  0  0  0  0  0  0  0  0  0
   -0.4040    1.6110    5.5560 H   0  0  0  0  0  0  0  0  0  0  0  0
   -0.4010   -1.0750    4.4010 H   0  0  0  0  0  0  0  0  0  0  0  0
   -0.9900   -2.0800    2.2220 H   0  0  0  0  0  0  0  0  0  0  0  0
   -2.7950   -2.1180    0.5100 H   0  0  0  0  0  0  0  0  0  0  0  0
   -3.7930   -0.7180    0.1390 H   0  0  0  0  0  0  0  0  0  0  0  0
   -2.3220   -1.0450   -1.6890 H   0  0  0  0  0  0  0  0  0  0  0  0
    0.0610   -0.7730    0.1760 H   0  0  0  0  0  0  0  0  0  0  0  0
   -3.5710    1.2770    1.5300 H   0  0  0  0  0  0  0  0  0  0  0  0
   -2.9610    2.2390    3.6710 H   0  0  0  0  0  0  0  0  0  0  0  0
  1  2  1  0  0  0  0
  1  8  1  0  0  0  0
  2  9  1  1  0  0  0
  2  3  1  0  0  0  0
  3  4  1  0  0  0  0
  3 10  1  0  0  0  0
  4 12  1  0  0  0  0
  5  2  1  0  0  0  0
  6  5  2  0  0  0  0
  7  1  1  0  0  0  0
 11  3  1  0  0  0  0
 13 19  1  0  0  0  0
 13 14  1  0  0  0  0
 13 18  1  0  0  0  0
 14 21  1  6  0  0  0
 14 15  1  0  0  0  0
 15  5  1  0  0  0  0
 15 22  1  0  0  0  0
 16 14  1  0  0  0  0
 16 30  1  0  0  0  0
 17 16  2  0  0  0  0
 20 13  1  0  0  0  0
 23 36  1  0  0  0  0
 24 23  1  0  0  0  0
 25 24  1  0  0  0  0
 25 37  1  0  0  0  0
 26 25  2  0  0  0  0
 27 33  2  0  0  0  0
 27 26  1  0  0  0  0
 28 39  1  0  0  0  0
 28 27  1  0  0  0  0
 29 41  1  6  0  0  0
 29 30  1  0  0  0  0
 29 28  1  0  0  0  0
 30 42  1  0  0  0  0
 31 29  1  0  0  0  0
 32 31  2  0  0  0  0
 33 34  1  0  0  0  0
 34 44  1  0  0  0  0
 34 24  2  0  0  0  0
 35 31  1  0  0  0  0
 38 26  1  0  0  0  0
 40 28  1  0  0  0  0
 43 33  1  0  0  0  0
M  END
$$$$
