CCA.pdb
 OpenBabel07022418273D

 34 33  0  0  1  0  0  0  0  0999 V2000
   -1.8640   -2.8310    0.9360 N   0  0  0  0  0  0  0  0  0  0  0  0
   -1.1520   -2.7010    2.1670 C   0  0  1  0  0  0  0  0  0  0  0  0
   -0.7660   -4.0610    2.7460 C   0  0  0  0  0  0  0  0  0  0  0  0
    0.1280   -3.7870    4.2990 S   0  0  0  0  0  0  0  0  0  0  0  0
    0.0930   -1.9140    2.0500 C   0  0  0  0  0  0  0  0  0  0  0  0
    0.7720   -1.7600    3.1030 O   0  0  0  0  0  0  0  0  0  0  0  0
   -1.5300   -3.6060    0.3240 H   0  0  0  0  0  0  0  0  0  0  0  0
   -2.9020   -2.7930    1.0310 H   0  0  0  0  0  0  0  0  0  0  0  0
   -1.8030   -2.2080    2.9250 H   0  0  0  0  0  0  0  0  0  0  0  0
   -1.7230   -4.5650    3.0020 H   0  0  0  0  0  0  0  0  0  0  0  0
   -0.1700   -4.6420    2.0140 H   0  0  0  0  0  0  0  0  0  0  0  0
    1.3940   -4.4110    4.1900 H   0  0  0  0  0  0  0  0  0  0  0  0
    0.5690   -1.3310    0.8630 N   0  0  0  0  0  0  0  0  0  0  0  0
    1.7940   -0.5710    0.8060 C   0  0  1  0  0  0  0  0  0  0  0  0
    2.8010   -1.2200   -0.1490 C   0  0  0  0  0  0  0  0  0  0  0  0
    2.1080   -1.3100   -1.8240 S   0  0  0  0  0  0  0  0  0  0  0  0
    1.5370    0.7910    0.2540 C   0  0  0  0  0  0  0  0  0  0  0  0
    2.4980    1.5930    0.1330 O   0  0  0  0  0  0  0  0  0  0  0  0
    0.0040   -1.4610   -0.0090 H   0  0  0  0  0  0  0  0  0  0  0  0
    2.2330   -0.5510    1.8090 H   0  0  0  0  0  0  0  0  0  0  0  0
    3.6680   -0.5280   -0.1940 H   0  0  0  0  0  0  0  0  0  0  0  0
    3.1560   -2.1800    0.2180 H   0  0  0  0  0  0  0  0  0  0  0  0
    0.8480   -1.9700   -1.8080 H   0  0  0  0  0  0  0  0  0  0  0  0
   -0.5790    2.4940   -2.0810 C   0  0  0  0  0  0  0  0  0  0  0  0
   -0.0020    2.5610   -0.6850 C   0  0  2  0  0  0  0  0  0  0  0  0
    0.2550    1.2390   -0.1470 N   0  0  0  0  0  0  0  0  0  0  0  0
   -0.9470    3.2520    0.2360 C   0  0  0  0  0  0  0  0  0  0  0  0
   -1.3850    2.7000    1.2700 O   0  0  0  0  0  0  0  0  0  0  0  0
   -1.3880    4.5530   -0.0130 O   0  0  0  0  0  0  0  0  0  0  0  0
   -0.7550    1.4470   -2.4070 H   0  0  0  0  0  0  0  0  0  0  0  0
   -1.5950    2.9840   -2.1270 H   0  0  0  0  0  0  0  0  0  0  0  0
    0.0400    3.0540   -2.8140 H   0  0  0  0  0  0  0  0  0  0  0  0
    0.9210    3.1720   -0.7420 H   0  0  0  0  0  0  0  0  0  0  0  0
   -0.5330    0.5640   -0.0420 H   0  0  0  0  0  0  0  0  0  0  0  0
  1  8  1  0  0  0  0
  1  2  1  0  0  0  0
  2  3  1  0  0  0  0
  2  9  1  1  0  0  0
  3 10  1  0  0  0  0
  3  4  1  0  0  0  0
  5  2  1  0  0  0  0
  5  6  2  0  0  0  0
  7  1  1  0  0  0  0
 11  3  1  0  0  0  0
 12  4  1  0  0  0  0
 13  5  1  0  0  0  0
 14 13  1  0  0  0  0
 14 20  1  1  0  0  0
 15 22  1  0  0  0  0
 15 14  1  0  0  0  0
 16 23  1  0  0  0  0
 16 15  1  0  0  0  0
 17 14  1  0  0  0  0
 18 17  2  0  0  0  0
 19 13  1  0  0  0  0
 21 15  1  0  0  0  0
 24 25  1  0  0  0  0
 25 33  1  6  0  0  0
 25 26  1  0  0  0  0
 25 27  1  0  0  0  0
 26 34  1  0  0  0  0
 26 17  1  0  0  0  0
 27 28  1  0  0  0  0
 29 27  2  0  0  0  0
 30 24  1  0  0  0  0
 31 24  1  0  0  0  0
 32 24  1  0  0  0  0
M  END
$$$$
