CCC.pdb
 OpenBabel07022418273D

 35 34  0  0  1  0  0  0  0  0999 V2000
    1.5470   -4.0430    2.7550 N   0  0  0  0  0  0  0  0  0  0  0  0
    0.9270   -3.4990    1.5640 C   0  0  1  0  0  0  0  0  0  0  0  0
   -0.5370   -3.3540    1.8480 C   0  0  0  0  0  0  0  0  0  0  0  0
   -0.8450   -2.2440    3.2490 S   0  0  0  0  0  0  0  0  0  0  0  0
    1.6090   -2.2700    1.1920 C   0  0  0  0  0  0  0  0  0  0  0  0
    2.5710   -1.8800    1.9030 O   0  0  0  0  0  0  0  0  0  0  0  0
    2.1180   -3.3460    3.2740 H   0  0  0  0  0  0  0  0  0  0  0  0
    0.8550   -4.5080    3.3870 H   0  0  0  0  0  0  0  0  0  0  0  0
    1.1200   -4.2480    0.7590 H   0  0  0  0  0  0  0  0  0  0  0  0
   -1.1440   -3.0360    1.0030 H   0  0  0  0  0  0  0  0  0  0  0  0
   -0.9060   -4.3640    2.1670 H   0  0  0  0  0  0  0  0  0  0  0  0
   -2.1220   -1.6990    3.0950 H   0  0  0  0  0  0  0  0  0  0  0  0
    1.2770   -1.4590    0.0760 N   0  0  0  0  0  0  0  0  0  0  0  0
    2.0410   -0.2580   -0.1790 C   0  0  1  0  0  0  0  0  0  0  0  0
    2.7420   -0.4420   -1.5110 C   0  0  0  0  0  0  0  0  0  0  0  0
    3.8150   -1.8970   -1.3510 S   0  0  0  0  0  0  0  0  0  0  0  0
    1.1300    0.9350   -0.2290 C   0  0  0  0  0  0  0  0  0  0  0  0
    1.5740    2.0900   -0.4390 O   0  0  0  0  0  0  0  0  0  0  0  0
    0.5020   -1.7400   -0.5270 H   0  0  0  0  0  0  0  0  0  0  0  0
    2.8290   -0.1300    0.5790 H   0  0  0  0  0  0  0  0  0  0  0  0
    2.0330   -0.6590   -2.3370 H   0  0  0  0  0  0  0  0  0  0  0  0
    3.4140    0.4190   -1.7380 H   0  0  0  0  0  0  0  0  0  0  0  0
    4.2600   -2.3350   -2.6180 H   0  0  0  0  0  0  0  0  0  0  0  0
   -0.2700    0.8130   -0.0420 N   0  0  0  0  0  0  0  0  0  0  0  0
   -1.1050    1.9840   -0.0980 C   0  0  1  0  0  0  0  0  0  0  0  0
   -2.1580    1.8710   -1.1910 C   0  0  0  0  0  0  0  0  0  0  0  0
   -3.1730    3.3690   -1.2120 S   0  0  0  0  0  0  0  0  0  0  0  0
   -1.7690    2.1130    1.2310 C   0  0  0  0  0  0  0  0  0  0  0  0
   -2.5600    3.0680    1.4410 O   0  0  0  0  0  0  0  0  0  0  0  0
   -1.5580    1.2180    2.2700 O   0  0  0  0  0  0  0  0  0  0  0  0
   -0.7150   -0.1120    0.1380 H   0  0  0  0  0  0  0  0  0  0  0  0
   -0.5510    2.9090   -0.2910 H   0  0  0  0  0  0  0  0  0  0  0  0
   -1.6550    1.7470   -2.1670 H   0  0  0  0  0  0  0  0  0  0  0  0
   -2.8250    1.0200   -0.9590 H   0  0  0  0  0  0  0  0  0  0  0  0
   -2.5250    4.4140   -0.4890 H   0  0  0  0  0  0  0  0  0  0  0  0
  1  7  1  0  0  0  0
  1  8  1  0  0  0  0
  2  9  1  6  0  0  0
  2  3  1  0  0  0  0
  2  1  1  0  0  0  0
  3 11  1  0  0  0  0
  3  4  1  0  0  0  0
  5  2  1  0  0  0  0
  5  6  2  0  0  0  0
 10  3  1  0  0  0  0
 12  4  1  0  0  0  0
 13  5  1  0  0  0  0
 14 13  1  0  0  0  0
 14 20  1  1  0  0  0
 15 16  1  0  0  0  0
 15 14  1  0  0  0  0
 17 14  1  0  0  0  0
 17 24  1  0  0  0  0
 18 17  2  0  0  0  0
 19 13  1  0  0  0  0
 21 15  1  0  0  0  0
 22 15  1  0  0  0  0
 23 16  1  0  0  0  0
 24 31  1  0  0  0  0
 25 32  1  6  0  0  0
 25 24  1  0  0  0  0
 25 28  1  0  0  0  0
 26 34  1  0  0  0  0
 26 25  1  0  0  0  0
 27 26  1  0  0  0  0
 27 35  1  0  0  0  0
 28 29  2  0  0  0  0
 28 30  1  0  0  0  0
 33 26  1  0  0  0  0
M  END
$$$$
