CCE.pdb
 OpenBabel07022418273D

 40 39  0  0  1  0  0  0  0  0999 V2000
   -0.4540   -4.9450   -0.7790 N   0  0  0  0  0  0  0  0  0  0  0  0
    0.9010   -4.6040   -0.4740 C   0  0  1  0  0  0  0  0  0  0  0  0
    1.8850   -5.0380   -1.5290 C   0  0  0  0  0  0  0  0  0  0  0  0
    1.4760   -4.2550   -3.0920 S   0  0  0  0  0  0  0  0  0  0  0  0
    1.0960   -3.1590   -0.2330 C   0  0  0  0  0  0  0  0  0  0  0  0
    2.2490   -2.7510    0.0530 O   0  0  0  0  0  0  0  0  0  0  0  0
   -1.0520   -4.5520   -0.0240 H   0  0  0  0  0  0  0  0  0  0  0  0
   -0.7640   -4.6000   -1.7150 H   0  0  0  0  0  0  0  0  0  0  0  0
    1.1470   -5.1120    0.5050 H   0  0  0  0  0  0  0  0  0  0  0  0
    1.8760   -6.1510   -1.5990 H   0  0  0  0  0  0  0  0  0  0  0  0
    2.8880   -4.6570   -1.1930 H   0  0  0  0  0  0  0  0  0  0  0  0
    2.6330   -3.8300   -3.7810 H   0  0  0  0  0  0  0  0  0  0  0  0
    0.0540   -2.1830   -0.3030 N   0  0  0  0  0  0  0  0  0  0  0  0
    0.3400   -0.7840   -0.0500 C   0  0  1  0  0  0  0  0  0  0  0  0
    0.0710   -0.0020   -1.3180 C   0  0  0  0  0  0  0  0  0  0  0  0
    1.1630   -0.6630   -2.6060 S   0  0  0  0  0  0  0  0  0  0  0  0
   -0.4700   -0.2920    1.0880 C   0  0  0  0  0  0  0  0  0  0  0  0
   -1.2510   -1.0950    1.6530 O   0  0  0  0  0  0  0  0  0  0  0  0
   -0.9060   -2.5170   -0.5420 H   0  0  0  0  0  0  0  0  0  0  0  0
    1.4380   -0.6830    0.1490 H   0  0  0  0  0  0  0  0  0  0  0  0
   -0.9820   -0.0900   -1.6480 H   0  0  0  0  0  0  0  0  0  0  0  0
    0.3680    1.0720   -1.1770 H   0  0  0  0  0  0  0  0  0  0  0  0
    0.5410   -0.6400   -3.8690 H   0  0  0  0  0  0  0  0  0  0  0  0
   -0.4140    1.0330    1.5750 N   0  0  0  0  0  0  0  0  0  0  0  0
   -1.1600    1.5610    2.6570 C   0  0  1  0  0  0  0  0  0  0  0  0
   -0.3990    1.6520    3.9410 C   0  0  0  0  0  0  0  0  0  0  0  0
    0.8270    2.4590    3.9840 C   0  0  0  0  0  0  0  0  0  0  0  0
    1.9800    1.9990    3.1950 C   0  0  0  0  0  0  0  0  0  0  0  0
    2.0980    0.8820    2.6350 O   0  0  0  0  0  0  0  0  0  0  0  0
   -1.8470    2.8360    2.3420 C   0  0  0  0  0  0  0  0  0  0  0  0
   -1.7270    3.3180    1.1970 O   0  0  0  0  0  0  0  0  0  0  0  0
    3.0890    2.8490    3.0150 O   0  0  0  0  0  0  0  0  0  0  0  0
   -2.6110    3.4990    3.2750 O   0  0  0  0  0  0  0  0  0  0  0  0
    0.2330    1.6870    1.0420 H   0  0  0  0  0  0  0  0  0  0  0  0
   -2.0350    0.8530    2.9200 H   0  0  0  0  0  0  0  0  0  0  0  0
   -0.1720    0.6050    4.2860 H   0  0  0  0  0  0  0  0  0  0  0  0
   -1.1410    2.0590    4.7030 H   0  0  0  0  0  0  0  0  0  0  0  0
    1.1290    2.5380    5.0780 H   0  0  0  0  0  0  0  0  0  0  0  0
    0.6630    3.5360    3.7100 H   0  0  0  0  0  0  0  0  0  0  0  0
    3.7870    2.6560    2.3060 H   0  0  0  0  0  0  0  0  0  0  0  0
  1  2  1  0  0  0  0
  1  7  1  0  0  0  0
  2  5  1  0  0  0  0
  2  9  1  1  0  0  0
  3 11  1  0  0  0  0
  3  2  1  0  0  0  0
  4  3  1  0  0  0  0
  5  6  2  0  0  0  0
  8  1  1  0  0  0  0
 10  3  1  0  0  0  0
 12  4  1  0  0  0  0
 13  5  1  0  0  0  0
 13 14  1  0  0  0  0
 14 20  1  1  0  0  0
 14 17  1  0  0  0  0
 15 22  1  0  0  0  0
 15 14  1  0  0  0  0
 16 15  1  0  0  0  0
 17 24  1  0  0  0  0
 17 18  2  0  0  0  0
 19 13  1  0  0  0  0
 21 15  1  0  0  0  0
 23 16  1  0  0  0  0
 24 25  1  0  0  0  0
 25 35  1  1  0  0  0
 25 26  1  0  0  0  0
 26 27  1  0  0  0  0
 26 36  1  0  0  0  0
 26 37  1  0  0  0  0
 27 38  1  0  0  0  0
 28 27  1  0  0  0  0
 29 28  2  0  0  0  0
 30 25  1  0  0  0  0
 30 33  1  0  0  0  0
 31 30  2  0  0  0  0
 32 28  1  0  0  0  0
 34 24  1  0  0  0  0
 39 27  1  0  0  0  0
 40 32  1  0  0  0  0
M  END
$$$$
