CCF.pdb
 OpenBabel07022418273D

 44 44  0  0  1  0  0  0  0  0999 V2000
    0.2190   -3.1630   -0.8310 N   0  0  0  0  0  0  0  0  0  0  0  0
    1.5380   -3.5570   -0.4140 C   0  0  1  0  0  0  0  0  0  0  0  0
    2.1360   -4.4830   -1.4540 C   0  0  0  0  0  0  0  0  0  0  0  0
    2.2430   -3.6450   -3.0490 S   0  0  0  0  0  0  0  0  0  0  0  0
    2.3890   -2.3710   -0.1800 C   0  0  0  0  0  0  0  0  0  0  0  0
    3.5620   -2.5100    0.1850 O   0  0  0  0  0  0  0  0  0  0  0  0
   -0.2020   -3.8580   -1.4970 H   0  0  0  0  0  0  0  0  0  0  0  0
   -0.4170   -2.9590   -0.0270 H   0  0  0  0  0  0  0  0  0  0  0  0
    1.4560   -4.0930    0.5530 H   0  0  0  0  0  0  0  0  0  0  0  0
    1.4170   -5.3320   -1.5610 H   0  0  0  0  0  0  0  0  0  0  0  0
    3.1170   -4.8590   -1.1480 H   0  0  0  0  0  0  0  0  0  0  0  0
    0.9740   -3.2890   -3.5090 H   0  0  0  0  0  0  0  0  0  0  0  0
    1.8340   -1.0840   -0.3810 N   0  0  0  0  0  0  0  0  0  0  0  0
    2.5760    0.1370   -0.1820 C   0  0  1  0  0  0  0  0  0  0  0  0
    2.5840    0.9320   -1.4870 C   0  0  0  0  0  0  0  0  0  0  0  0
    3.4900    2.4710   -1.3220 S   0  0  0  0  0  0  0  0  0  0  0  0
    1.9570    1.0130    0.8440 C   0  0  0  0  0  0  0  0  0  0  0  0
    2.5390    2.1030    1.0830 O   0  0  0  0  0  0  0  0  0  0  0  0
    0.8410   -1.0260   -0.6890 H   0  0  0  0  0  0  0  0  0  0  0  0
    3.5940   -0.1140    0.1380 H   0  0  0  0  0  0  0  0  0  0  0  0
    1.5180    1.0800   -1.7540 H   0  0  0  0  0  0  0  0  0  0  0  0
    3.0380    0.2720   -2.2660 H   0  0  0  0  0  0  0  0  0  0  0  0
    4.8270    2.3380   -1.7290 H   0  0  0  0  0  0  0  0  0  0  0  0
    0.7770    0.6960    1.5500 N   0  0  0  0  0  0  0  0  0  0  0  0
    0.2620    1.6090    2.5200 C   0  0  1  0  0  0  0  0  0  0  0  0
   -1.1270    2.1060    2.1850 C   0  0  0  0  0  0  0  0  0  0  0  0
   -2.1230    1.0360    2.0890 C   0  0  0  0  0  0  0  0  0  0  0  0
   -2.8740    0.5820    3.1380 C   0  0  0  0  0  0  0  0  0  0  0  0
   -3.8010   -0.4240    3.0120 C   0  0  0  0  0  0  0  0  0  0  0  0
   -3.9990   -1.0170    1.7840 C   0  0  0  0  0  0  0  0  0  0  0  0
   -3.2470   -0.5770    0.6940 C   0  0  0  0  0  0  0  0  0  0  0  0
   -2.3250    0.4370    0.8590 C   0  0  0  0  0  0  0  0  0  0  0  0
    0.2400    1.0240    3.8970 C   0  0  0  0  0  0  0  0  0  0  0  0
    0.6270   -0.1260    4.1560 O   0  0  0  0  0  0  0  0  0  0  0  0
   -0.2380    1.8020    4.9420 O   0  0  0  0  0  0  0  0  0  0  0  0
    0.3180   -0.2300    1.3190 H   0  0  0  0  0  0  0  0  0  0  0  0
    0.9130    2.5020    2.5810 H   0  0  0  0  0  0  0  0  0  0  0  0
   -1.4310    2.7730    3.0340 H   0  0  0  0  0  0  0  0  0  0  0  0
   -1.1070    2.7590    1.2910 H   0  0  0  0  0  0  0  0  0  0  0  0
   -2.7430    1.0270    4.1130 H   0  0  0  0  0  0  0  0  0  0  0  0
   -4.3600   -0.7320    3.8830 H   0  0  0  0  0  0  0  0  0  0  0  0
   -4.7200   -1.7950    1.7040 H   0  0  0  0  0  0  0  0  0  0  0  0
   -3.4340   -1.0660   -0.2390 H   0  0  0  0  0  0  0  0  0  0  0  0
   -1.7750    0.7320   -0.0250 H   0  0  0  0  0  0  0  0  0  0  0  0
  1  2  1  0  0  0  0
  1  8  1  0  0  0  0
  2  5  1  0  0  0  0
  2  9  1  1  0  0  0
  3 11  1  0  0  0  0
  3  2  1  0  0  0  0
  4  3  1  0  0  0  0
  5  6  2  0  0  0  0
  7  1  1  0  0  0  0
 10  3  1  0  0  0  0
 12  4  1  0  0  0  0
 13 14  1  0  0  0  0
 13  5  1  0  0  0  0
 14 20  1  1  0  0  0
 14 17  1  0  0  0  0
 15 16  1  0  0  0  0
 15 14  1  0  0  0  0
 17 18  2  0  0  0  0
 17 24  1  0  0  0  0
 19 13  1  0  0  0  0
 21 15  1  0  0  0  0
 22 15  1  0  0  0  0
 23 16  1  0  0  0  0
 24 25  1  0  0  0  0
 25 37  1  1  0  0  0
 25 33  1  0  0  0  0
 26 25  1  0  0  0  0
 26 38  1  0  0  0  0
 27 26  1  0  0  0  0
 27 28  1  0  0  0  0
 28 40  1  0  0  0  0
 29 28  2  0  0  0  0
 29 41  1  0  0  0  0
 30 29  1  0  0  0  0
 31 32  1  0  0  0  0
 31 30  2  0  0  0  0
 32 27  2  0  0  0  0
 33 34  2  0  0  0  0
 33 35  1  0  0  0  0
 36 24  1  0  0  0  0
 39 26  1  0  0  0  0
 42 30  1  0  0  0  0
 43 31  1  0  0  0  0
 44 32  1  0  0  0  0
M  END
$$$$
