CCG.pdb
 OpenBabel07022418273D

 31 30  0  0  1  0  0  0  0  0999 V2000
   -0.9260   -3.9330    2.4910 N   0  0  0  0  0  0  0  0  0  0  0  0
   -1.0720   -2.9600    1.4260 C   0  0  1  0  0  0  0  0  0  0  0  0
   -2.1260   -1.9730    1.8240 C   0  0  0  0  0  0  0  0  0  0  0  0
   -3.7070   -2.8210    2.0960 S   0  0  0  0  0  0  0  0  0  0  0  0
    0.2220   -2.3750    1.0950 C   0  0  0  0  0  0  0  0  0  0  0  0
    1.2700   -2.7220    1.6990 O   0  0  0  0  0  0  0  0  0  0  0  0
   -1.8760   -4.2760    2.8070 H   0  0  0  0  0  0  0  0  0  0  0  0
   -0.3690   -4.7370    2.1100 H   0  0  0  0  0  0  0  0  0  0  0  0
   -1.4580   -3.5270    0.5370 H   0  0  0  0  0  0  0  0  0  0  0  0
   -2.2880   -1.1570    1.1270 H   0  0  0  0  0  0  0  0  0  0  0  0
   -1.8580   -1.5050    2.8170 H   0  0  0  0  0  0  0  0  0  0  0  0
   -4.7980   -1.9400    1.9730 H   0  0  0  0  0  0  0  0  0  0  0  0
    0.3690   -1.3850    0.0770 N   0  0  0  0  0  0  0  0  0  0  0  0
    1.6130   -0.7850   -0.2810 C   0  0  1  0  0  0  0  0  0  0  0  0
    1.9760   -1.0400   -1.7430 C   0  0  0  0  0  0  0  0  0  0  0  0
    2.1140   -2.8290   -2.0570 S   0  0  0  0  0  0  0  0  0  0  0  0
    1.5510    0.6890   -0.1190 C   0  0  0  0  0  0  0  0  0  0  0  0
    2.5170    1.4370   -0.3820 O   0  0  0  0  0  0  0  0  0  0  0  0
   -0.5130   -1.1160   -0.4110 H   0  0  0  0  0  0  0  0  0  0  0  0
    2.4580   -1.2150    0.3270 H   0  0  0  0  0  0  0  0  0  0  0  0
    1.1850   -0.6010   -2.3690 H   0  0  0  0  0  0  0  0  0  0  0  0
    2.9550   -0.6020   -1.9940 H   0  0  0  0  0  0  0  0  0  0  0  0
    0.8360   -3.3580   -2.2250 H   0  0  0  0  0  0  0  0  0  0  0  0
    0.3450    1.2710    0.3520 N   0  0  0  0  0  0  0  0  0  0  0  0
    0.1760    2.6910    0.5440 C   0  0  0  0  0  0  0  0  0  0  0  0
    1.2060    3.1210    1.5540 C   0  0  0  0  0  0  0  0  0  0  0  0
    2.0130    2.3160    2.0690 O   0  0  0  0  0  0  0  0  0  0  0  0
    1.2920    4.4570    1.9500 O   0  0  0  0  0  0  0  0  0  0  0  0
   -0.4770    0.6510    0.5780 H   0  0  0  0  0  0  0  0  0  0  0  0
    0.3590    3.2700   -0.3860 H   0  0  0  0  0  0  0  0  0  0  0  0
   -0.7940    2.9000    0.9950 H   0  0  0  0  0  0  0  0  0  0  0  0
  1  7  1  0  0  0  0
  2  9  1  6  0  0  0
  2  3  1  0  0  0  0
  2  1  1  0  0  0  0
  3  4  1  0  0  0  0
  3 11  1  0  0  0  0
  5  2  1  0  0  0  0
  5  6  2  0  0  0  0
  8  1  1  0  0  0  0
 10  3  1  0  0  0  0
 12  4  1  0  0  0  0
 13  5  1  0  0  0  0
 14 17  1  0  0  0  0
 14 13  1  0  0  0  0
 14 20  1  1  0  0  0
 15 14  1  0  0  0  0
 16 15  1  0  0  0  0
 17 24  1  0  0  0  0
 18 17  2  0  0  0  0
 19 13  1  0  0  0  0
 21 15  1  0  0  0  0
 22 15  1  0  0  0  0
 23 16  1  0  0  0  0
 24 25  1  0  0  0  0
 24 29  1  0  0  0  0
 25 31  1  0  0  0  0
 25 26  1  0  0  0  0
 26 28  2  0  0  0  0
 26 27  1  0  0  0  0
 30 25  1  0  0  0  0
M  END
$$$$
