CCH.pdb
 OpenBabel07022418273D

 41 41  0  0  1  0  0  0  0  0999 V2000
    0.7140   -4.6640   -0.2210 N   0  0  0  0  0  0  0  0  0  0  0  0
    1.9390   -3.9180   -0.4540 C   0  0  1  0  0  0  0  0  0  0  0  0
    2.6580   -4.4620   -1.6520 C   0  0  0  0  0  0  0  0  0  0  0  0
    1.6540   -4.3580   -3.1580 S   0  0  0  0  0  0  0  0  0  0  0  0
    1.6390   -2.4840   -0.5540 C   0  0  0  0  0  0  0  0  0  0  0  0
    2.6060   -1.6890   -0.7580 O   0  0  0  0  0  0  0  0  0  0  0  0
    0.9040   -5.6690   -0.0200 H   0  0  0  0  0  0  0  0  0  0  0  0
    0.1850   -4.2900    0.5930 H   0  0  0  0  0  0  0  0  0  0  0  0
    2.5960   -4.0810    0.4260 H   0  0  0  0  0  0  0  0  0  0  0  0
    3.5830   -3.8970   -1.8190 H   0  0  0  0  0  0  0  0  0  0  0  0
    2.9520   -5.5070   -1.4290 H   0  0  0  0  0  0  0  0  0  0  0  0
    0.8840   -5.5170   -3.3400 H   0  0  0  0  0  0  0  0  0  0  0  0
    0.3570   -1.9160   -0.4410 N   0  0  0  0  0  0  0  0  0  0  0  0
    0.1060   -0.4720   -0.5480 C   0  0  1  0  0  0  0  0  0  0  0  0
   -0.8530   -0.1990   -1.6630 C   0  0  0  0  0  0  0  0  0  0  0  0
   -1.2170    1.5410   -1.8880 S   0  0  0  0  0  0  0  0  0  0  0  0
   -0.4450    0.0270    0.7470 C   0  0  0  0  0  0  0  0  0  0  0  0
   -0.7360   -0.8200    1.6700 O   0  0  0  0  0  0  0  0  0  0  0  0
   -0.4500   -2.5560   -0.2730 H   0  0  0  0  0  0  0  0  0  0  0  0
    1.0780    0.0070   -0.7220 H   0  0  0  0  0  0  0  0  0  0  0  0
   -1.8250   -0.7200   -1.4890 H   0  0  0  0  0  0  0  0  0  0  0  0
   -0.4280   -0.6760   -2.5770 H   0  0  0  0  0  0  0  0  0  0  0  0
   -0.4160    2.1340   -2.8920 H   0  0  0  0  0  0  0  0  0  0  0  0
   -0.6830    1.3780    1.0690 N   0  0  0  0  0  0  0  0  0  0  0  0
   -1.2320    1.7240    2.3780 C   0  0  1  0  0  0  0  0  0  0  0  0
   -0.1250    2.5020    3.0990 C   0  0  0  0  0  0  0  0  0  0  0  0
    1.0370    1.5780    3.1870 C   0  0  0  0  0  0  0  0  0  0  0  0
    1.3000    0.6940    4.2170 C   0  0  0  0  0  0  0  0  0  0  0  0
    2.4310    0.0260    3.9570 N   0  0  0  0  0  0  0  0  0  0  0  0
    2.9040    0.4600    2.7810 C   0  0  0  0  0  0  0  0  0  0  0  0
    2.0540    1.3990    2.3230 N   0  0  0  0  0  0  0  0  0  0  0  0
   -2.4720    2.4790    2.2930 C   0  0  0  0  0  0  0  0  0  0  0  0
   -3.0590    2.8460    3.3310 O   0  0  0  0  0  0  0  0  0  0  0  0
   -3.0290    2.8080    1.0750 O   0  0  0  0  0  0  0  0  0  0  0  0
   -0.4510    2.1090    0.3680 H   0  0  0  0  0  0  0  0  0  0  0  0
   -1.4020    0.8170    2.9930 H   0  0  0  0  0  0  0  0  0  0  0  0
   -0.4610    2.8280    4.1010 H   0  0  0  0  0  0  0  0  0  0  0  0
    0.1280    3.3570    2.4290 H   0  0  0  0  0  0  0  0  0  0  0  0
    0.6350    0.6060    5.0890 H   0  0  0  0  0  0  0  0  0  0  0  0
    2.8570   -0.6900    4.5530 H   0  0  0  0  0  0  0  0  0  0  0  0
    3.8230    0.1090    2.2830 H   0  0  0  0  0  0  0  0  0  0  0  0
  1  7  1  0  0  0  0
  1  8  1  0  0  0  0
  2  1  1  0  0  0  0
  2  9  1  1  0  0  0
  3 11  1  0  0  0  0
  3  2  1  0  0  0  0
  4  3  1  0  0  0  0
  5  2  1  0  0  0  0
  5 13  1  0  0  0  0
  6  5  2  0  0  0  0
 10  3  1  0  0  0  0
 12  4  1  0  0  0  0
 13 19  1  0  0  0  0
 14 20  1  6  0  0  0
 14 13  1  0  0  0  0
 14 17  1  0  0  0  0
 15 21  1  0  0  0  0
 15 14  1  0  0  0  0
 16 15  1  0  0  0  0
 17 24  1  0  0  0  0
 17 18  2  0  0  0  0
 22 15  1  0  0  0  0
 23 16  1  0  0  0  0
 24 25  1  0  0  0  0
 25 36  1  1  0  0  0
 25 26  1  0  0  0  0
 26 27  1  0  0  0  0
 26 37  1  0  0  0  0
 27 28  2  0  0  0  0
 28 39  1  0  0  0  0
 29 28  1  0  0  0  0
 29 40  1  0  0  0  0
 30 29  1  0  0  0  0
 31 30  2  0  0  0  0
 31 27  1  0  0  0  0
 32 25  1  0  0  0  0
 32 33  1  0  0  0  0
 34 32  2  0  0  0  0
 35 24  1  0  0  0  0
 38 26  1  0  0  0  0
 41 30  1  0  0  0  0
M  END
$$$$
