CCK.pdb
 OpenBabel07022418273D

 45 44  0  0  1  0  0  0  0  0999 V2000
    0.3600   -4.5460   -2.1390 N   0  0  0  0  0  0  0  0  0  0  0  0
    1.4150   -4.7520   -1.1970 C   0  0  1  0  0  0  0  0  0  0  0  0
    2.5830   -5.4050   -1.8730 C   0  0  0  0  0  0  0  0  0  0  0  0
    3.1800   -4.3460   -3.2120 S   0  0  0  0  0  0  0  0  0  0  0  0
    1.8910   -3.4500   -0.6160 C   0  0  0  0  0  0  0  0  0  0  0  0
    2.8150   -3.4420    0.2290 O   0  0  0  0  0  0  0  0  0  0  0  0
   -0.4280   -3.9790   -1.7750 H   0  0  0  0  0  0  0  0  0  0  0  0
    0.6750   -4.2920   -3.0910 H   0  0  0  0  0  0  0  0  0  0  0  0
    1.0300   -5.4060   -0.3790 H   0  0  0  0  0  0  0  0  0  0  0  0
    2.2690   -6.3730   -2.3390 H   0  0  0  0  0  0  0  0  0  0  0  0
    3.3580   -5.5830   -1.0960 H   0  0  0  0  0  0  0  0  0  0  0  0
    4.5920   -4.2140   -3.1410 H   0  0  0  0  0  0  0  0  0  0  0  0
    1.3250   -2.2040   -0.9940 N   0  0  0  0  0  0  0  0  0  0  0  0
    1.7990   -0.9620   -0.4210 C   0  0  1  0  0  0  0  0  0  0  0  0
    2.4340   -0.1150   -1.5040 C   0  0  0  0  0  0  0  0  0  0  0  0
    1.1860    0.2420   -2.7970 S   0  0  0  0  0  0  0  0  0  0  0  0
    0.6600   -0.2800    0.2240 C   0  0  0  0  0  0  0  0  0  0  0  0
   -0.5110   -0.7960    0.2170 O   0  0  0  0  0  0  0  0  0  0  0  0
    0.5430   -2.1830   -1.7060 H   0  0  0  0  0  0  0  0  0  0  0  0
    2.6090   -1.2170    0.2910 H   0  0  0  0  0  0  0  0  0  0  0  0
    2.8780    0.8090   -1.1050 H   0  0  0  0  0  0  0  0  0  0  0  0
    3.2400   -0.6750   -2.0190 H   0  0  0  0  0  0  0  0  0  0  0  0
   -0.0420    0.4950   -2.1340 H   0  0  0  0  0  0  0  0  0  0  0  0
    0.7620    0.9710    0.8900 N   0  0  0  0  0  0  0  0  0  0  0  0
   -0.3610    1.6390    1.5240 C   0  0  1  0  0  0  0  0  0  0  0  0
   -0.0060    1.8140    2.9680 C   0  0  0  0  0  0  0  0  0  0  0  0
   -1.0400    2.4850    3.7940 C   0  0  0  0  0  0  0  0  0  0  0  0
   -2.3570    1.7950    3.8470 C   0  0  0  0  0  0  0  0  0  0  0  0
   -2.2850    0.3980    4.4130 C   0  0  0  0  0  0  0  0  0  0  0  0
   -3.6630   -0.1210    4.3880 N   0  0  0  0  0  0  0  0  0  0  0  0
   -0.6720    2.9240    0.8450 C   0  0  0  0  0  0  0  0  0  0  0  0
    0.0280    3.2720   -0.1400 O   0  0  0  0  0  0  0  0  0  0  0  0
   -1.6950    3.7580    1.2400 O   0  0  0  0  0  0  0  0  0  0  0  0
    1.6880    1.4450    0.9320 H   0  0  0  0  0  0  0  0  0  0  0  0
   -1.2580    0.9900    1.3780 H   0  0  0  0  0  0  0  0  0  0  0  0
    0.3040    0.8280    3.3700 H   0  0  0  0  0  0  0  0  0  0  0  0
    0.9150    2.4480    2.9990 H   0  0  0  0  0  0  0  0  0  0  0  0
   -1.1700    3.5250    3.5010 H   0  0  0  0  0  0  0  0  0  0  0  0
   -0.6400    2.5040    4.8510 H   0  0  0  0  0  0  0  0  0  0  0  0
   -2.8370    1.8280    2.8620 H   0  0  0  0  0  0  0  0  0  0  0  0
   -3.0160    2.3780    4.5370 H   0  0  0  0  0  0  0  0  0  0  0  0
   -1.5840   -0.2580    3.9000 H   0  0  0  0  0  0  0  0  0  0  0  0
   -2.0080    0.4180    5.4870 H   0  0  0  0  0  0  0  0  0  0  0  0
   -3.8300   -0.7200    3.5730 H   0  0  0  0  0  0  0  0  0  0  0  0
   -4.3130    0.6750    4.5040 H   0  0  0  0  0  0  0  0  0  0  0  0
  1  7  1  0  0  0  0
  1  2  1  0  0  0  0
  2  5  1  0  0  0  0
  2  9  1  1  0  0  0
  3  2  1  0  0  0  0
  3 11  1  0  0  0  0
  4 12  1  0  0  0  0
  4  3  1  0  0  0  0
  5  6  2  0  0  0  0
  8  1  1  0  0  0  0
 10  3  1  0  0  0  0
 13  5  1  0  0  0  0
 13 14  1  0  0  0  0
 14 17  1  0  0  0  0
 14 20  1  1  0  0  0
 15 21  1  0  0  0  0
 15 14  1  0  0  0  0
 16 23  1  0  0  0  0
 16 15  1  0  0  0  0
 17 24  1  0  0  0  0
 18 17  2  0  0  0  0
 19 13  1  0  0  0  0
 22 15  1  0  0  0  0
 24 34  1  0  0  0  0
 24 25  1  0  0  0  0
 25 35  1  6  0  0  0
 25 26  1  0  0  0  0
 26 37  1  0  0  0  0
 26 36  1  0  0  0  0
 26 27  1  0  0  0  0
 27 28  1  0  0  0  0
 27 39  1  0  0  0  0
 28 29  1  0  0  0  0
 28 41  1  0  0  0  0
 29 43  1  0  0  0  0
 30 29  1  0  0  0  0
 30 45  1  0  0  0  0
 31 33  1  0  0  0  0
 31 25  1  0  0  0  0
 32 31  2  0  0  0  0
 38 27  1  0  0  0  0
 40 28  1  0  0  0  0
 42 29  1  0  0  0  0
 44 30  1  0  0  0  0
M  END
$$$$
