CCL.pdb
 OpenBabel07022418273D

 43 42  0  0  1  0  0  0  0  0999 V2000
   -1.5500   -4.9910    2.6000 N   0  0  0  0  0  0  0  0  0  0  0  0
   -0.1990   -5.1310    2.1310 C   0  0  1  0  0  0  0  0  0  0  0  0
   -0.0300   -6.4690    1.4480 C   0  0  0  0  0  0  0  0  0  0  0  0
    1.6380   -6.7190    0.8320 S   0  0  0  0  0  0  0  0  0  0  0  0
    0.2320   -4.0060    1.2820 C   0  0  0  0  0  0  0  0  0  0  0  0
    1.4060   -4.0430    0.8240 O   0  0  0  0  0  0  0  0  0  0  0  0
   -2.1800   -4.9390    1.7870 H   0  0  0  0  0  0  0  0  0  0  0  0
   -1.5960   -4.1630    3.2270 H   0  0  0  0  0  0  0  0  0  0  0  0
    0.4840   -5.1530    3.0250 H   0  0  0  0  0  0  0  0  0  0  0  0
   -0.8010   -6.6360    0.6710 H   0  0  0  0  0  0  0  0  0  0  0  0
   -0.2170   -7.2440    2.2360 H   0  0  0  0  0  0  0  0  0  0  0  0
    1.8150   -6.2100   -0.4660 H   0  0  0  0  0  0  0  0  0  0  0  0
   -0.5650   -2.8980    0.9460 N   0  0  0  0  0  0  0  0  0  0  0  0
   -0.0660   -1.8340    0.1060 C   0  0  1  0  0  0  0  0  0  0  0  0
   -0.9080   -1.7920   -1.1640 C   0  0  0  0  0  0  0  0  0  0  0  0
   -0.7230   -3.4080   -1.9660 S   0  0  0  0  0  0  0  0  0  0  0  0
   -0.1490   -0.5110    0.7410 C   0  0  0  0  0  0  0  0  0  0  0  0
   -0.6030   -0.3050    1.8960 O   0  0  0  0  0  0  0  0  0  0  0  0
   -1.5390   -2.8480    1.3150 H   0  0  0  0  0  0  0  0  0  0  0  0
    0.9750   -2.0000   -0.2210 H   0  0  0  0  0  0  0  0  0  0  0  0
   -0.5990   -0.9560   -1.8220 H   0  0  0  0  0  0  0  0  0  0  0  0
   -1.9660   -1.6500   -0.8740 H   0  0  0  0  0  0  0  0  0  0  0  0
    0.6050   -3.5780   -2.3380 H   0  0  0  0  0  0  0  0  0  0  0  0
    1.5530    4.9670    0.4630 C   0  0  0  0  0  0  0  0  0  0  0  0
    2.0830    3.7350    1.0970 C   0  0  0  0  0  0  0  0  0  0  0  0
    1.9330    3.8330    2.6230 C   0  0  0  0  0  0  0  0  0  0  0  0
    1.6750    2.4250    0.5800 C   0  0  0  0  0  0  0  0  0  0  0  0
    0.2590    1.9920    0.5960 C   0  0  2  0  0  0  0  0  0  0  0  0
    0.3120    0.6120    0.0120 N   0  0  0  0  0  0  0  0  0  0  0  0
   -0.5780    2.7480   -0.3370 C   0  0  0  0  0  0  0  0  0  0  0  0
   -0.8870    2.1880   -1.4520 O   0  0  0  0  0  0  0  0  0  0  0  0
   -1.0980    4.0050   -0.1780 O   0  0  0  0  0  0  0  0  0  0  0  0
    1.3720    4.8500   -0.6200 H   0  0  0  0  0  0  0  0  0  0  0  0
    0.7310    5.4740    1.0150 H   0  0  0  0  0  0  0  0  0  0  0  0
    2.3980    5.7480    0.4990 H   0  0  0  0  0  0  0  0  0  0  0  0
    3.2190    3.7760    0.9690 H   0  0  0  0  0  0  0  0  0  0  0  0
    2.1060    2.8210    3.0260 H   0  0  0  0  0  0  0  0  0  0  0  0
    0.9320    4.2140    2.8980 H   0  0  0  0  0  0  0  0  0  0  0  0
    2.7170    4.4920    3.0540 H   0  0  0  0  0  0  0  0  0  0  0  0
    2.0650    2.3650   -0.4880 H   0  0  0  0  0  0  0  0  0  0  0  0
    2.3050    1.6330    1.0990 H   0  0  0  0  0  0  0  0  0  0  0  0
   -0.1780    1.9200    1.6170 H   0  0  0  0  0  0  0  0  0  0  0  0
    0.7080    0.5760   -0.9470 H   0  0  0  0  0  0  0  0  0  0  0  0
  1  8  1  0  0  0  0
  2  1  1  0  0  0  0
  2  9  1  1  0  0  0
  3  2  1  0  0  0  0
  3 11  1  0  0  0  0
  4  3  1  0  0  0  0
  5  2  1  0  0  0  0
  6  5  2  0  0  0  0
  7  1  1  0  0  0  0
 10  3  1  0  0  0  0
 12  4  1  0  0  0  0
 13  5  1  0  0  0  0
 13 19  1  0  0  0  0
 14 20  1  6  0  0  0
 14 17  1  0  0  0  0
 14 13  1  0  0  0  0
 15 22  1  0  0  0  0
 15 14  1  0  0  0  0
 16 15  1  0  0  0  0
 17 18  2  0  0  0  0
 21 15  1  0  0  0  0
 23 16  1  0  0  0  0
 24 35  1  0  0  0  0
 24 34  1  0  0  0  0
 24 25  1  0  0  0  0
 25 26  1  0  0  0  0
 26 38  1  0  0  0  0
 26 37  1  0  0  0  0
 26 39  1  0  0  0  0
 27 28  1  0  0  0  0
 27 25  1  0  0  0  0
 27 41  1  0  0  0  0
 28 42  1  1  0  0  0
 29 28  1  0  0  0  0
 29 17  1  0  0  0  0
 30 32  1  0  0  0  0
 30 28  1  0  0  0  0
 31 30  2  0  0  0  0
 33 24  1  0  0  0  0
 36 25  1  0  0  0  0
 40 27  1  0  0  0  0
 43 29  1  0  0  0  0
M  END
$$$$
