CCM.pdb
 OpenBabel07022418273D

 41 40  0  0  1  0  0  0  0  0999 V2000
    0.0180   -4.7950    4.4760 N   0  0  0  0  0  0  0  0  0  0  0  0
   -0.1830   -4.6950    3.0240 C   0  0  1  0  0  0  0  0  0  0  0  0
   -1.6770   -4.6440    2.8000 C   0  0  0  0  0  0  0  0  0  0  0  0
   -2.0690   -4.5280    1.0560 S   0  0  0  0  0  0  0  0  0  0  0  0
    0.5450   -3.5180    2.5490 C   0  0  0  0  0  0  0  0  0  0  0  0
    1.1260   -2.7820    3.4060 O   0  0  0  0  0  0  0  0  0  0  0  0
   -0.7980   -5.2740    4.9230 H   0  0  0  0  0  0  0  0  0  0  0  0
    0.1440   -3.8200    4.8460 H   0  0  0  0  0  0  0  0  0  0  0  0
    0.1960   -5.6140    2.5770 H   0  0  0  0  0  0  0  0  0  0  0  0
   -2.1610   -3.8520    3.4100 H   0  0  0  0  0  0  0  0  0  0  0  0
   -2.0790   -5.6140    3.1870 H   0  0  0  0  0  0  0  0  0  0  0  0
   -3.0270   -5.4860    0.7000 H   0  0  0  0  0  0  0  0  0  0  0  0
    0.6760   -3.0990    1.1980 N   0  0  0  0  0  0  0  0  0  0  0  0
    1.4290   -1.9000    0.8360 C   0  0  1  0  0  0  0  0  0  0  0  0
    2.6120   -2.2350   -0.0310 C   0  0  0  0  0  0  0  0  0  0  0  0
    2.1530   -3.0350   -1.5660 S   0  0  0  0  0  0  0  0  0  0  0  0
    0.5020   -0.9450    0.2230 C   0  0  0  0  0  0  0  0  0  0  0  0
   -0.7160   -1.1870    0.0640 O   0  0  0  0  0  0  0  0  0  0  0  0
    0.2230   -3.6730    0.4690 H   0  0  0  0  0  0  0  0  0  0  0  0
    1.8400   -1.4600    1.7850 H   0  0  0  0  0  0  0  0  0  0  0  0
    3.2950   -2.8690    0.5670 H   0  0  0  0  0  0  0  0  0  0  0  0
    3.1350   -1.2590   -0.2300 H   0  0  0  0  0  0  0  0  0  0  0  0
    2.5270   -2.2180   -2.6450 H   0  0  0  0  0  0  0  0  0  0  0  0
    0.0600    5.7220    0.7250 C   0  0  0  0  0  0  0  0  0  0  0  0
    1.0080    4.4470    1.6080 S   0  0  0  0  0  0  0  0  0  0  0  0
    1.2280    3.0440    0.4430 C   0  0  0  0  0  0  0  0  0  0  0  0
   -0.1080    2.4140    0.1480 C   0  0  0  0  0  0  0  0  0  0  0  0
    0.1010    1.2730   -0.8230 C   0  0  2  0  0  0  0  0  0  0  0  0
    0.9790    0.3180   -0.2190 N   0  0  0  0  0  0  0  0  0  0  0  0
    0.5740    1.8030   -2.1010 C   0  0  0  0  0  0  0  0  0  0  0  0
   -0.1510    2.6460   -2.6910 O   0  0  0  0  0  0  0  0  0  0  0  0
    1.7560    1.4530   -2.7180 O   0  0  0  0  0  0  0  0  0  0  0  0
    0.3410    6.7180    1.1010 H   0  0  0  0  0  0  0  0  0  0  0  0
   -1.0200    5.5380    0.9240 H   0  0  0  0  0  0  0  0  0  0  0  0
    0.2180    5.6390   -0.3830 H   0  0  0  0  0  0  0  0  0  0  0  0
    1.6850    3.4790   -0.4690 H   0  0  0  0  0  0  0  0  0  0  0  0
    1.9580    2.3290    0.8500 H   0  0  0  0  0  0  0  0  0  0  0  0
   -0.8470    3.1330   -0.2240 H   0  0  0  0  0  0  0  0  0  0  0  0
   -0.4860    1.9470    1.0970 H   0  0  0  0  0  0  0  0  0  0  0  0
   -0.9160    0.8180   -0.9980 H   0  0  0  0  0  0  0  0  0  0  0  0
    2.0010    0.5870   -0.1190 H   0  0  0  0  0  0  0  0  0  0  0  0
  1  8  1  0  0  0  0
  1  7  1  0  0  0  0
  2  9  1  6  0  0  0
  2  1  1  0  0  0  0
  3  2  1  0  0  0  0
  3 11  1  0  0  0  0
  3 10  1  0  0  0  0
  4  3  1  0  0  0  0
  5  2  1  0  0  0  0
  5  6  2  0  0  0  0
 12  4  1  0  0  0  0
 13  5  1  0  0  0  0
 14 13  1  0  0  0  0
 14 20  1  1  0  0  0
 15 21  1  0  0  0  0
 15 14  1  0  0  0  0
 16 15  1  0  0  0  0
 17 14  1  0  0  0  0
 18 17  2  0  0  0  0
 19 13  1  0  0  0  0
 22 15  1  0  0  0  0
 23 16  1  0  0  0  0
 24 34  1  0  0  0  0
 24 33  1  0  0  0  0
 24 25  1  0  0  0  0
 26 37  1  0  0  0  0
 26 25  1  0  0  0  0
 27 26  1  0  0  0  0
 27 39  1  0  0  0  0
 28 40  1  6  0  0  0
 28 29  1  0  0  0  0
 28 27  1  0  0  0  0
 29 41  1  0  0  0  0
 29 17  1  0  0  0  0
 30 28  1  0  0  0  0
 31 30  1  0  0  0  0
 32 30  2  0  0  0  0
 35 24  1  0  0  0  0
 36 26  1  0  0  0  0
 38 27  1  0  0  0  0
M  END
$$$$
