CCN.pdb
 OpenBabel07022418273D

 38 37  0  0  1  0  0  0  0  0999 V2000
   -1.3840   -3.5900    0.5270 N   0  0  0  0  0  0  0  0  0  0  0  0
   -0.1610   -4.0340    1.1290 C   0  0  1  0  0  0  0  0  0  0  0  0
    0.2310   -5.3200    0.3870 C   0  0  0  0  0  0  0  0  0  0  0  0
    1.7590   -6.0270    1.0150 S   0  0  0  0  0  0  0  0  0  0  0  0
    0.9580   -3.0850    0.9400 C   0  0  0  0  0  0  0  0  0  0  0  0
    2.0670   -3.3710    1.4490 O   0  0  0  0  0  0  0  0  0  0  0  0
   -1.4420   -3.7290   -0.4830 H   0  0  0  0  0  0  0  0  0  0  0  0
   -1.8030   -2.7480    0.9170 H   0  0  0  0  0  0  0  0  0  0  0  0
   -0.2370   -4.3020    2.1920 H   0  0  0  0  0  0  0  0  0  0  0  0
   -0.5940   -6.0590    0.4390 H   0  0  0  0  0  0  0  0  0  0  0  0
    0.3610   -5.0360   -0.6810 H   0  0  0  0  0  0  0  0  0  0  0  0
    2.5000   -6.6150   -0.0310 H   0  0  0  0  0  0  0  0  0  0  0  0
    0.8440   -1.8760    0.2200 N   0  0  0  0  0  0  0  0  0  0  0  0
    1.9650   -1.0110    0.0820 C   0  0  1  0  0  0  0  0  0  0  0  0
    2.4140   -0.8360   -1.3520 C   0  0  0  0  0  0  0  0  0  0  0  0
    1.1020   -0.1350   -2.3910 S   0  0  0  0  0  0  0  0  0  0  0  0
    1.6960    0.3560    0.6560 C   0  0  0  0  0  0  0  0  0  0  0  0
    2.5930    1.2350    0.6030 O   0  0  0  0  0  0  0  0  0  0  0  0
   -0.0950   -1.6350   -0.2120 H   0  0  0  0  0  0  0  0  0  0  0  0
    2.8320   -1.4440    0.6200 H   0  0  0  0  0  0  0  0  0  0  0  0
    3.2480   -0.1020   -1.3650 H   0  0  0  0  0  0  0  0  0  0  0  0
    2.8320   -1.7760   -1.7620 H   0  0  0  0  0  0  0  0  0  0  0  0
    0.6880   -1.0320   -3.3820 H   0  0  0  0  0  0  0  0  0  0  0  0
   -2.4990    4.5530    0.8300 N   0  0  0  0  0  0  0  0  0  0  0  0
   -1.3550    3.9670    1.4860 C   0  0  0  0  0  0  0  0  0  0  0  0
   -0.8200    4.6890    2.3520 O   0  0  0  0  0  0  0  0  0  0  0  0
   -0.9740    2.6260    1.0620 C   0  0  0  0  0  0  0  0  0  0  0  0
    0.1700    2.0000    1.8210 C   0  0  2  0  0  0  0  0  0  0  0  0
    0.4560    0.6690    1.2520 N   0  0  0  0  0  0  0  0  0  0  0  0
   -0.0830    1.8590    3.2730 C   0  0  0  0  0  0  0  0  0  0  0  0
   -0.0550    0.7110    3.8370 O   0  0  0  0  0  0  0  0  0  0  0  0
   -0.3560    2.9160    4.0980 O   0  0  0  0  0  0  0  0  0  0  0  0
   -2.4270    5.5270    0.4820 H   0  0  0  0  0  0  0  0  0  0  0  0
   -3.3930    4.0480    0.6890 H   0  0  0  0  0  0  0  0  0  0  0  0
   -1.8580    1.9180    1.0620 H   0  0  0  0  0  0  0  0  0  0  0  0
   -0.7110    2.6760   -0.0380 H   0  0  0  0  0  0  0  0  0  0  0  0
    1.0610    2.6260    1.6740 H   0  0  0  0  0  0  0  0  0  0  0  0
   -0.2710   -0.0770    1.2830 H   0  0  0  0  0  0  0  0  0  0  0  0
  1  8  1  0  0  0  0
  1  2  1  0  0  0  0
  2  9  1  1  0  0  0
  3 10  1  0  0  0  0
  3  4  1  0  0  0  0
  3  2  1  0  0  0  0
  5  2  1  0  0  0  0
  5  6  2  0  0  0  0
  7  1  1  0  0  0  0
 11  3  1  0  0  0  0
 12  4  1  0  0  0  0
 13  5  1  0  0  0  0
 14 13  1  0  0  0  0
 14 20  1  1  0  0  0
 14 17  1  0  0  0  0
 15 14  1  0  0  0  0
 16 15  1  0  0  0  0
 17 29  1  0  0  0  0
 18 17  2  0  0  0  0
 19 13  1  0  0  0  0
 21 15  1  0  0  0  0
 22 15  1  0  0  0  0
 23 16  1  0  0  0  0
 24 25  1  0  0  0  0
 25 26  2  0  0  0  0
 27 25  1  0  0  0  0
 27 28  1  0  0  0  0
 28 37  1  6  0  0  0
 28 30  1  0  0  0  0
 29 38  1  0  0  0  0
 29 28  1  0  0  0  0
 30 31  2  0  0  0  0
 30 32  1  0  0  0  0
 33 24  1  0  0  0  0
 34 24  1  0  0  0  0
 35 27  1  0  0  0  0
 36 27  1  0  0  0  0
M  END
$$$$
