CCR.pdb
 OpenBabel07022418273D

 47 46  0  0  1  0  0  0  0  0999 V2000
    3.0620   -4.1670    1.8870 N   0  0  0  0  0  0  0  0  0  0  0  0
    2.1000   -4.1210    0.7590 C   0  0  1  0  0  0  0  0  0  0  0  0
    0.7690   -4.5880    1.2670 C   0  0  0  0  0  0  0  0  0  0  0  0
   -0.4570   -4.6170   -0.0330 S   0  0  0  0  0  0  0  0  0  0  0  0
    2.1470   -2.7460    0.2580 C   0  0  0  0  0  0  0  0  0  0  0  0
    2.9560   -1.9280    0.8250 O   0  0  0  0  0  0  0  0  0  0  0  0
    2.8840   -5.0320    2.4490 H   0  0  0  0  0  0  0  0  0  0  0  0
    2.9420   -3.3140    2.4730 H   0  0  0  0  0  0  0  0  0  0  0  0
    2.5120   -4.8580    0.0290 H   0  0  0  0  0  0  0  0  0  0  0  0
    0.9210   -5.6250    1.6420 H   0  0  0  0  0  0  0  0  0  0  0  0
    0.4560   -3.9600    2.1330 H   0  0  0  0  0  0  0  0  0  0  0  0
    0.0330   -5.2230   -1.2000 H   0  0  0  0  0  0  0  0  0  0  0  0
    1.3770   -2.2440   -0.8020 N   0  0  0  0  0  0  0  0  0  0  0  0
    1.4900   -0.8630   -1.2630 C   0  0  1  0  0  0  0  0  0  0  0  0
    1.8330   -0.7710   -2.7180 C   0  0  0  0  0  0  0  0  0  0  0  0
    3.4030   -1.5630   -3.1040 S   0  0  0  0  0  0  0  0  0  0  0  0
    0.2490   -0.1000   -0.9640 C   0  0  0  0  0  0  0  0  0  0  0  0
    0.1210    1.1020   -1.3390 O   0  0  0  0  0  0  0  0  0  0  0  0
    0.7070   -2.8360   -1.3000 H   0  0  0  0  0  0  0  0  0  0  0  0
    2.3430   -0.3910   -0.6780 H   0  0  0  0  0  0  0  0  0  0  0  0
    1.9080    0.2980   -2.9750 H   0  0  0  0  0  0  0  0  0  0  0  0
    1.0210   -1.2390   -3.2900 H   0  0  0  0  0  0  0  0  0  0  0  0
    4.4220   -1.1490   -2.2350 H   0  0  0  0  0  0  0  0  0  0  0  0
    0.5830    4.1790    4.1790 N   0  0  0  0  0  0  0  0  0  0  0  0
   -0.6350    3.4450    3.9040 C   0  0  0  0  0  0  0  0  0  0  0  0
   -1.7400    4.0900    3.8870 N   0  0  0  0  0  0  0  0  0  0  0  0
   -0.6120    2.0640    3.6630 N   0  0  0  0  0  0  0  0  0  0  0  0
   -1.5320    1.4530    2.7300 C   0  0  0  0  0  0  0  0  0  0  0  0
   -1.2060    1.9060    1.3110 C   0  0  0  0  0  0  0  0  0  0  0  0
   -2.0920    1.3800    0.2690 C   0  0  0  0  0  0  0  0  0  0  0  0
   -2.0550   -0.1090    0.1300 C   0  0  2  0  0  0  0  0  0  0  0  0
   -0.8070   -0.6830   -0.2630 N   0  0  0  0  0  0  0  0  0  0  0  0
   -3.2340   -0.6920   -0.5320 C   0  0  0  0  0  0  0  0  0  0  0  0
   -4.3700   -0.2590   -0.2650 O   0  0  0  0  0  0  0  0  0  0  0  0
   -3.0740   -1.7130   -1.4410 O   0  0  0  0  0  0  0  0  0  0  0  0
    0.7130    5.0500    3.6340 H   0  0  0  0  0  0  0  0  0  0  0  0
    1.2620    3.8530    4.8650 H   0  0  0  0  0  0  0  0  0  0  0  0
   -2.6300    3.6080    3.6970 H   0  0  0  0  0  0  0  0  0  0  0  0
    0.0760    1.4660    4.1560 H   0  0  0  0  0  0  0  0  0  0  0  0
   -2.5560    1.7520    3.0000 H   0  0  0  0  0  0  0  0  0  0  0  0
   -1.5080    0.3470    2.8440 H   0  0  0  0  0  0  0  0  0  0  0  0
   -1.1240    3.0330    1.2980 H   0  0  0  0  0  0  0  0  0  0  0  0
   -0.1580    1.5690    1.1480 H   0  0  0  0  0  0  0  0  0  0  0  0
   -3.1610    1.6220    0.5640 H   0  0  0  0  0  0  0  0  0  0  0  0
   -1.9690    1.9160   -0.6930 H   0  0  0  0  0  0  0  0  0  0  0  0
   -2.1490   -0.4320    1.2390 H   0  0  0  0  0  0  0  0  0  0  0  0
   -0.6590   -1.7020    0.0210 H   0  0  0  0  0  0  0  0  0  0  0  0
  1  7  1  0  0  0  0
  1  8  1  0  0  0  0
  2  9  1  6  0  0  0
  2  3  1  0  0  0  0
  2  1  1  0  0  0  0
  3 10  1  0  0  0  0
  3 11  1  0  0  0  0
  4  3  1  0  0  0  0
  5  2  1  0  0  0  0
  5  6  2  0  0  0  0
 12  4  1  0  0  0  0
 13  5  1  0  0  0  0
 14 17  1  0  0  0  0
 14 13  1  0  0  0  0
 14 20  1  1  0  0  0
 15 14  1  0  0  0  0
 16 15  1  0  0  0  0
 16 23  1  0  0  0  0
 17 32  1  0  0  0  0
 18 17  2  0  0  0  0
 19 13  1  0  0  0  0
 21 15  1  0  0  0  0
 22 15  1  0  0  0  0
 24 37  1  0  0  0  0
 25 24  1  0  0  0  0
 26 25  2  0  0  0  0
 27 25  1  0  0  0  0
 27 39  1  0  0  0  0
 28 41  1  0  0  0  0
 28 40  1  0  0  0  0
 28 27  1  0  0  0  0
 29 28  1  0  0  0  0
 30 44  1  0  0  0  0
 30 29  1  0  0  0  0
 31 30  1  0  0  0  0
 31 46  1  1  0  0  0
 32 47  1  0  0  0  0
 32 31  1  0  0  0  0
 33 34  1  0  0  0  0
 33 31  1  0  0  0  0
 35 33  2  0  0  0  0
 36 24  1  0  0  0  0
 38 26  1  0  0  0  0
 42 29  1  0  0  0  0
 43 29  1  0  0  0  0
 45 30  1  0  0  0  0
M  END
$$$$
