CCV.pdb
 OpenBabel07022418273D

 40 39  0  0  1  0  0  0  0  0999 V2000
    2.9150   -4.9020    1.2940 N   0  0  0  0  0  0  0  0  0  0  0  0
    2.6830   -3.6230    0.6030 C   0  0  1  0  0  0  0  0  0  0  0  0
    1.6770   -3.9020   -0.4550 C   0  0  0  0  0  0  0  0  0  0  0  0
    1.2180   -2.4940   -1.4660 S   0  0  0  0  0  0  0  0  0  0  0  0
    2.3460   -2.6260    1.6010 C   0  0  0  0  0  0  0  0  0  0  0  0
    2.3070   -2.9550    2.8210 O   0  0  0  0  0  0  0  0  0  0  0  0
    2.3000   -4.8900    2.1310 H   0  0  0  0  0  0  0  0  0  0  0  0
    2.6070   -5.7110    0.7150 H   0  0  0  0  0  0  0  0  0  0  0  0
    3.6560   -3.4220    0.0800 H   0  0  0  0  0  0  0  0  0  0  0  0
    2.1520   -4.6610   -1.1450 H   0  0  0  0  0  0  0  0  0  0  0  0
    0.7730   -4.4470   -0.0620 H   0  0  0  0  0  0  0  0  0  0  0  0
   -0.0860   -2.7420   -1.9870 H   0  0  0  0  0  0  0  0  0  0  0  0
    2.0370   -1.2480    1.3540 N   0  0  0  0  0  0  0  0  0  0  0  0
    1.7180   -0.3350    2.4220 C   0  0  1  0  0  0  0  0  0  0  0  0
    2.7880    0.7440    2.5880 C   0  0  0  0  0  0  0  0  0  0  0  0
    3.0060    1.7430    1.1140 S   0  0  0  0  0  0  0  0  0  0  0  0
    0.4160    0.3490    2.2690 C   0  0  0  0  0  0  0  0  0  0  0  0
    0.0400    1.1780    3.1400 O   0  0  0  0  0  0  0  0  0  0  0  0
    2.0550   -0.9390    0.3680 H   0  0  0  0  0  0  0  0  0  0  0  0
    1.7610   -0.9040    3.3960 H   0  0  0  0  0  0  0  0  0  0  0  0
    2.4250    1.3710    3.4530 H   0  0  0  0  0  0  0  0  0  0  0  0
    3.7490    0.3250    2.8880 H   0  0  0  0  0  0  0  0  0  0  0  0
    3.4710    3.0360    1.4460 H   0  0  0  0  0  0  0  0  0  0  0  0
   -3.0570    2.1510   -0.5370 C   0  0  0  0  0  0  0  0  0  0  0  0
   -1.7370    1.4870   -0.3330 C   0  0  0  0  0  0  0  0  0  0  0  0
   -0.6510    2.5570   -0.2630 C   0  0  0  0  0  0  0  0  0  0  0  0
   -1.6690    0.7090    0.9610 C   0  0  2  0  0  0  0  0  0  0  0  0
   -0.3960    0.0710    1.1510 N   0  0  0  0  0  0  0  0  0  0  0  0
   -2.7280   -0.3150    1.0560 C   0  0  0  0  0  0  0  0  0  0  0  0
   -3.9210    0.0220    0.9200 O   0  0  0  0  0  0  0  0  0  0  0  0
   -2.4350   -1.6390    1.2920 O   0  0  0  0  0  0  0  0  0  0  0  0
   -2.8980    3.0290   -1.2230 H   0  0  0  0  0  0  0  0  0  0  0  0
   -3.4080    2.5760    0.4140 H   0  0  0  0  0  0  0  0  0  0  0  0
   -3.8120    1.5160   -1.0400 H   0  0  0  0  0  0  0  0  0  0  0  0
   -1.4920    0.8500   -1.2070 H   0  0  0  0  0  0  0  0  0  0  0  0
   -0.7990    3.2250    0.5930 H   0  0  0  0  0  0  0  0  0  0  0  0
   -0.6830    3.1480   -1.2100 H   0  0  0  0  0  0  0  0  0  0  0  0
    0.3480    2.1120   -0.2100 H   0  0  0  0  0  0  0  0  0  0  0  0
   -1.8570    1.4250    1.7890 H   0  0  0  0  0  0  0  0  0  0  0  0
   -0.0940   -0.6110    0.4260 H   0  0  0  0  0  0  0  0  0  0  0  0
  1  7  1  0  0  0  0
  2  9  1  6  0  0  0
  2  1  1  0  0  0  0
  2  5  1  0  0  0  0
  3 11  1  0  0  0  0
  3  2  1  0  0  0  0
  4  3  1  0  0  0  0
  5  6  2  0  0  0  0
  8  1  1  0  0  0  0
 10  3  1  0  0  0  0
 12  4  1  0  0  0  0
 13  5  1  0  0  0  0
 13 14  1  0  0  0  0
 14 15  1  0  0  0  0
 14 20  1  1  0  0  0
 15 22  1  0  0  0  0
 15 21  1  0  0  0  0
 16 23  1  0  0  0  0
 16 15  1  0  0  0  0
 17 14  1  0  0  0  0
 17 18  2  0  0  0  0
 19 13  1  0  0  0  0
 24 25  1  0  0  0  0
 24 33  1  0  0  0  0
 25 26  1  0  0  0  0
 25 27  1  0  0  0  0
 26 38  1  0  0  0  0
 26 36  1  0  0  0  0
 27 29  1  0  0  0  0
 27 28  1  0  0  0  0
 27 39  1  1  0  0  0
 28 17  1  0  0  0  0
 29 31  1  0  0  0  0
 30 29  2  0  0  0  0
 32 24  1  0  0  0  0
 34 24  1  0  0  0  0
 35 25  1  0  0  0  0
 37 26  1  0  0  0  0
 40 28  1  0  0  0  0
M  END
$$$$
