CCW.pdb
 OpenBabel07022418273D

 48 49  0  0  1  0  0  0  0  0999 V2000
    2.0510   -4.5970    1.6310 N   0  0  0  0  0  0  0  0  0  0  0  0
    1.9370   -4.4030    3.0520 C   0  0  1  0  0  0  0  0  0  0  0  0
    2.8540   -5.2500    3.8730 C   0  0  0  0  0  0  0  0  0  0  0  0
    2.5650   -4.8660    5.6310 S   0  0  0  0  0  0  0  0  0  0  0  0
    2.1120   -2.9630    3.4170 C   0  0  0  0  0  0  0  0  0  0  0  0
    2.0810   -2.5630    4.6020 O   0  0  0  0  0  0  0  0  0  0  0  0
    2.1090   -5.6330    1.4580 H   0  0  0  0  0  0  0  0  0  0  0  0
    1.1880   -4.2420    1.1830 H   0  0  0  0  0  0  0  0  0  0  0  0
    0.8860   -4.7270    3.3180 H   0  0  0  0  0  0  0  0  0  0  0  0
    3.9060   -4.9890    3.6120 H   0  0  0  0  0  0  0  0  0  0  0  0
    2.6560   -6.3130    3.6440 H   0  0  0  0  0  0  0  0  0  0  0  0
    1.2630   -4.3690    5.8370 H   0  0  0  0  0  0  0  0  0  0  0  0
    2.3240   -1.9650    2.4150 N   0  0  0  0  0  0  0  0  0  0  0  0
    2.4910   -0.5800    2.7770 C   0  0  1  0  0  0  0  0  0  0  0  0
    3.8860   -0.1850    2.3210 C   0  0  0  0  0  0  0  0  0  0  0  0
    3.9270   -0.4460    0.5150 S   0  0  0  0  0  0  0  0  0  0  0  0
    1.4580    0.2920    2.1600 C   0  0  0  0  0  0  0  0  0  0  0  0
    1.5120    1.5220    2.4420 O   0  0  0  0  0  0  0  0  0  0  0  0
    2.3600   -2.2400    1.4070 H   0  0  0  0  0  0  0  0  0  0  0  0
    2.4640   -0.4920    3.8780 H   0  0  0  0  0  0  0  0  0  0  0  0
    4.1690    0.8340    2.5910 H   0  0  0  0  0  0  0  0  0  0  0  0
    4.5780   -0.9500    2.7480 H   0  0  0  0  0  0  0  0  0  0  0  0
    4.8960    0.3680   -0.0970 H   0  0  0  0  0  0  0  0  0  0  0  0
    0.4370   -0.1540    1.2940 N   0  0  0  0  0  0  0  0  0  0  0  0
   -0.5720    0.7090    0.6960 C   0  0  1  0  0  0  0  0  0  0  0  0
   -0.3550    0.8800   -0.7630 C   0  0  0  0  0  0  0  0  0  0  0  0
   -1.3060    1.6910   -1.5060 C   0  0  0  0  0  0  0  0  0  0  0  0
   -1.2550    3.0500   -1.8100 C   0  0  0  0  0  0  0  0  0  0  0  0
   -2.3410    3.4350   -2.4900 N   0  0  0  0  0  0  0  0  0  0  0  0
   -3.1200    2.3340   -2.6430 C   0  0  0  0  0  0  0  0  0  0  0  0
   -4.3380    2.2420   -3.3000 C   0  0  0  0  0  0  0  0  0  0  0  0
   -4.9870    1.0290   -3.3790 C   0  0  0  0  0  0  0  0  0  0  0  0
   -4.3760   -0.0490   -2.7880 C   0  0  0  0  0  0  0  0  0  0  0  0
   -3.1750    0.0410   -2.1390 C   0  0  0  0  0  0  0  0  0  0  0  0
   -2.5030    1.2540   -2.0470 C   0  0  0  0  0  0  0  0  0  0  0  0
   -1.9420    0.3980    1.1070 C   0  0  0  0  0  0  0  0  0  0  0  0
   -2.8740    1.1430    0.7550 O   0  0  0  0  0  0  0  0  0  0  0  0
   -2.2750   -0.7080    1.8880 O   0  0  0  0  0  0  0  0  0  0  0  0
    0.3870   -1.1680    1.0570 H   0  0  0  0  0  0  0  0  0  0  0  0
   -0.3580    1.7370    1.1540 H   0  0  0  0  0  0  0  0  0  0  0  0
   -0.3830   -0.1520   -1.2350 H   0  0  0  0  0  0  0  0  0  0  0  0
    0.6700    1.2410   -1.0090 H   0  0  0  0  0  0  0  0  0  0  0  0
   -0.4480    3.7120   -1.5350 H   0  0  0  0  0  0  0  0  0  0  0  0
   -2.5690    4.3900   -2.8440 H   0  0  0  0  0  0  0  0  0  0  0  0
   -4.8080    3.1130   -3.7630 H   0  0  0  0  0  0  0  0  0  0  0  0
   -5.9430    0.9010   -3.8810 H   0  0  0  0  0  0  0  0  0  0  0  0
   -4.8960   -1.0000   -2.8550 H   0  0  0  0  0  0  0  0  0  0  0  0
   -2.6960   -0.8190   -1.6740 H   0  0  0  0  0  0  0  0  0  0  0  0
  1  2  1  0  0  0  0
  2  9  1  1  0  0  0
  2  5  1  0  0  0  0
  2  3  1  0  0  0  0
  3  4  1  0  0  0  0
  4 12  1  0  0  0  0
  5  6  2  0  0  0  0
  7  1  1  0  0  0  0
  8  1  1  0  0  0  0
 10  3  1  0  0  0  0
 11  3  1  0  0  0  0
 13 14  1  0  0  0  0
 13  5  1  0  0  0  0
 14 20  1  1  0  0  0
 15 21  1  0  0  0  0
 15 22  1  0  0  0  0
 15 14  1  0  0  0  0
 16 15  1  0  0  0  0
 17 18  2  0  0  0  0
 17 14  1  0  0  0  0
 19 13  1  0  0  0  0
 23 16  1  0  0  0  0
 24 17  1  0  0  0  0
 25 36  1  0  0  0  0
 25 40  1  1  0  0  0
 25 24  1  0  0  0  0
 26 25  1  0  0  0  0
 27 26  1  0  0  0  0
 28 43  1  0  0  0  0
 28 27  2  0  0  0  0
 29 28  1  0  0  0  0
 30 29  1  0  0  0  0
 30 35  1  0  0  0  0
 31 30  2  0  0  0  0
 32 31  1  0  0  0  0
 32 33  2  0  0  0  0
 33 34  1  0  0  0  0
 34 35  2  0  0  0  0
 34 48  1  0  0  0  0
 35 27  1  0  0  0  0
 36 38  1  0  0  0  0
 37 36  2  0  0  0  0
 39 24  1  0  0  0  0
 41 26  1  0  0  0  0
 42 26  1  0  0  0  0
 44 29  1  0  0  0  0
 45 31  1  0  0  0  0
 46 32  1  0  0  0  0
 47 33  1  0  0  0  0
M  END
$$$$
