CCY.pdb
 OpenBabel07022418273D

 45 45  0  0  1  0  0  0  0  0999 V2000
    4.2310   -4.9960    1.0990 N   0  0  0  0  0  0  0  0  0  0  0  0
    3.2480   -4.6160    0.0700 C   0  0  1  0  0  0  0  0  0  0  0  0
    2.1520   -5.6560    0.1810 C   0  0  0  0  0  0  0  0  0  0  0  0
    0.8280   -5.3850   -1.0010 S   0  0  0  0  0  0  0  0  0  0  0  0
    2.7900   -3.2440    0.3470 C   0  0  0  0  0  0  0  0  0  0  0  0
    3.2260   -2.6290    1.3760 O   0  0  0  0  0  0  0  0  0  0  0  0
    3.8890   -4.5330    1.9790 H   0  0  0  0  0  0  0  0  0  0  0  0
    4.2160   -6.0300    1.2340 H   0  0  0  0  0  0  0  0  0  0  0  0
    3.7490   -4.7290   -0.9060 H   0  0  0  0  0  0  0  0  0  0  0  0
    1.7790   -5.6880    1.2310 H   0  0  0  0  0  0  0  0  0  0  0  0
    2.6270   -6.6340   -0.0360 H   0  0  0  0  0  0  0  0  0  0  0  0
   -0.3450   -5.0190   -0.2970 H   0  0  0  0  0  0  0  0  0  0  0  0
    1.8760   -2.5270   -0.4590 N   0  0  0  0  0  0  0  0  0  0  0  0
    1.4610   -1.1790   -0.1360 C   0  0  1  0  0  0  0  0  0  0  0  0
    1.8400   -0.2550   -1.2800 C   0  0  0  0  0  0  0  0  0  0  0  0
    3.6070   -0.2430   -1.5820 S   0  0  0  0  0  0  0  0  0  0  0  0
   -0.0050   -1.1750    0.0530 C   0  0  0  0  0  0  0  0  0  0  0  0
   -0.6370   -2.2470   -0.0810 O   0  0  0  0  0  0  0  0  0  0  0  0
    1.4860   -2.9570   -1.3050 H   0  0  0  0  0  0  0  0  0  0  0  0
    1.9850   -0.8840    0.8030 H   0  0  0  0  0  0  0  0  0  0  0  0
    1.5360    0.7810   -0.9630 H   0  0  0  0  0  0  0  0  0  0  0  0
    1.2360   -0.4730   -2.1820 H   0  0  0  0  0  0  0  0  0  0  0  0
    3.9750   -0.7840   -2.8080 H   0  0  0  0  0  0  0  0  0  0  0  0
   -0.4720    5.5280    3.4170 O   0  0  0  0  0  0  0  0  0  0  0  0
   -0.9700    4.2730    3.0670 C   0  0  0  0  0  0  0  0  0  0  0  0
   -0.2280    3.1250    3.2450 C   0  0  0  0  0  0  0  0  0  0  0  0
   -0.7320    1.8860    2.8950 C   0  0  0  0  0  0  0  0  0  0  0  0
   -1.9950    1.7430    2.3550 C   0  0  0  0  0  0  0  0  0  0  0  0
   -2.5020    0.4030    1.9920 C   0  0  0  0  0  0  0  0  0  0  0  0
   -2.1710    0.0170    0.5690 C   0  0  2  0  0  0  0  0  0  0  0  0
   -0.7250    0.0070    0.3820 N   0  0  0  0  0  0  0  0  0  0  0  0
   -2.8290    0.8960   -0.4260 C   0  0  0  0  0  0  0  0  0  0  0  0
   -4.0770    1.0050   -0.3880 O   0  0  0  0  0  0  0  0  0  0  0  0
   -2.7350    2.8940    2.1780 C   0  0  0  0  0  0  0  0  0  0  0  0
   -2.2320    4.1420    2.5290 C   0  0  0  0  0  0  0  0  0  0  0  0
   -2.1280    1.5910   -1.3810 O   0  0  0  0  0  0  0  0  0  0  0  0
   -1.1430    6.2780    3.6040 H   0  0  0  0  0  0  0  0  0  0  0  0
    0.7720    3.2450    3.6740 H   0  0  0  0  0  0  0  0  0  0  0  0
   -0.1450    0.9870    3.0360 H   0  0  0  0  0  0  0  0  0  0  0  0
   -3.6260    0.3560    2.0670 H   0  0  0  0  0  0  0  0  0  0  0  0
   -2.1220   -0.3790    2.6560 H   0  0  0  0  0  0  0  0  0  0  0  0
   -2.5760   -1.0050    0.4160 H   0  0  0  0  0  0  0  0  0  0  0  0
   -0.1740    0.8800    0.4870 H   0  0  0  0  0  0  0  0  0  0  0  0
   -3.7220    2.8340    1.7620 H   0  0  0  0  0  0  0  0  0  0  0  0
   -2.8020    5.0560    2.3960 H   0  0  0  0  0  0  0  0  0  0  0  0
  1  8  1  0  0  0  0
  1  7  1  0  0  0  0
  2  9  1  6  0  0  0
  2  3  1  0  0  0  0
  2  5  1  0  0  0  0
  2  1  1  0  0  0  0
  3 10  1  0  0  0  0
  4 12  1  0  0  0  0
  4  3  1  0  0  0  0
  5  6  2  0  0  0  0
 11  3  1  0  0  0  0
 13 14  1  0  0  0  0
 13  5  1  0  0  0  0
 14 17  1  0  0  0  0
 14 20  1  1  0  0  0
 15 21  1  0  0  0  0
 15 14  1  0  0  0  0
 16 15  1  0  0  0  0
 17 31  1  0  0  0  0
 18 17  2  0  0  0  0
 19 13  1  0  0  0  0
 22 15  1  0  0  0  0
 23 16  1  0  0  0  0
 24 37  1  0  0  0  0
 25 26  1  0  0  0  0
 25 24  1  0  0  0  0
 26 38  1  0  0  0  0
 27 39  1  0  0  0  0
 27 26  2  0  0  0  0
 28 27  1  0  0  0  0
 29 40  1  0  0  0  0
 29 28  1  0  0  0  0
 29 41  1  0  0  0  0
 30 42  1  6  0  0  0
 30 29  1  0  0  0  0
 31 43  1  0  0  0  0
 31 30  1  0  0  0  0
 32 33  1  0  0  0  0
 32 30  1  0  0  0  0
 34 28  2  0  0  0  0
 34 35  1  0  0  0  0
 35 25  2  0  0  0  0
 36 32  2  0  0  0  0
 44 34  1  0  0  0  0
 45 35  1  0  0  0  0
M  END
$$$$
