CDA.pdb
 OpenBabel07022418263D

 36 35  0  0  1  0  0  0  0  0999 V2000
    2.3350   -4.2370    2.5440 N   0  0  0  0  0  0  0  0  0  0  0  0
    2.1530   -3.4150    1.3280 C   0  0  1  0  0  0  0  0  0  0  0  0
    1.1150   -4.1470    0.5200 C   0  0  0  0  0  0  0  0  0  0  0  0
    0.7100   -3.3500   -1.0370 S   0  0  0  0  0  0  0  0  0  0  0  0
    1.7780   -2.0530    1.7340 C   0  0  0  0  0  0  0  0  0  0  0  0
    1.6320   -1.7980    2.9560 O   0  0  0  0  0  0  0  0  0  0  0  0
    3.2600   -3.9180    2.9320 H   0  0  0  0  0  0  0  0  0  0  0  0
    1.6060   -3.8740    3.2300 H   0  0  0  0  0  0  0  0  0  0  0  0
    3.1160   -3.4520    0.7400 H   0  0  0  0  0  0  0  0  0  0  0  0
    1.5990   -5.1370    0.2580 H   0  0  0  0  0  0  0  0  0  0  0  0
    0.2150   -4.4300    1.1070 H   0  0  0  0  0  0  0  0  0  0  0  0
   -0.5600   -3.7690   -1.4430 H   0  0  0  0  0  0  0  0  0  0  0  0
    1.5700   -0.9950    0.8170 N   0  0  0  0  0  0  0  0  0  0  0  0
    1.2140    0.3070    1.3170 C   0  0  1  0  0  0  0  0  0  0  0  0
    2.3170    1.3380    1.0180 C   0  0  0  0  0  0  0  0  0  0  0  0
    1.8520    2.6280    1.5600 C   0  0  0  0  0  0  0  0  0  0  0  0
    1.5410    3.6200    0.8230 O   0  0  0  0  0  0  0  0  0  0  0  0
   -0.0540    0.8460    0.7740 C   0  0  0  0  0  0  0  0  0  0  0  0
   -0.4700    2.0060    1.1480 O   0  0  0  0  0  0  0  0  0  0  0  0
    1.7310    2.8150    2.9380 O   0  0  0  0  0  0  0  0  0  0  0  0
    1.6760   -1.1530   -0.2290 H   0  0  0  0  0  0  0  0  0  0  0  0
    1.1790    0.2680    2.4370 H   0  0  0  0  0  0  0  0  0  0  0  0
    2.3740    1.4240   -0.0920 H   0  0  0  0  0  0  0  0  0  0  0  0
    3.2600    1.0630    1.4870 H   0  0  0  0  0  0  0  0  0  0  0  0
    1.2620    3.6390    3.3180 H   0  0  0  0  0  0  0  0  0  0  0  0
   -2.0710    1.0730   -2.1230 C   0  0  0  0  0  0  0  0  0  0  0  0
   -2.1270    0.7850   -0.6370 C   0  0  2  0  0  0  0  0  0  0  0  0
   -0.8880    0.1860   -0.1500 N   0  0  0  0  0  0  0  0  0  0  0  0
   -3.3050   -0.0090   -0.2660 C   0  0  0  0  0  0  0  0  0  0  0  0
   -4.4420    0.3640   -0.5850 O   0  0  0  0  0  0  0  0  0  0  0  0
   -3.1320   -1.1810    0.4460 O   0  0  0  0  0  0  0  0  0  0  0  0
   -1.7730    0.1640   -2.6400 H   0  0  0  0  0  0  0  0  0  0  0  0
   -3.0910    1.4330   -2.4040 H   0  0  0  0  0  0  0  0  0  0  0  0
   -1.3190    1.9100   -2.2280 H   0  0  0  0  0  0  0  0  0  0  0  0
   -2.2160    1.7750   -0.1450 H   0  0  0  0  0  0  0  0  0  0  0  0
   -0.6150   -0.7590   -0.4980 H   0  0  0  0  0  0  0  0  0  0  0  0
  1  7  1  0  0  0  0
  1  8  1  0  0  0  0
  2  9  1  6  0  0  0
  2  5  1  0  0  0  0
  2  1  1  0  0  0  0
  3 11  1  0  0  0  0
  3  2  1  0  0  0  0
  4  3  1  0  0  0  0
  5  6  2  0  0  0  0
 10  3  1  0  0  0  0
 12  4  1  0  0  0  0
 13 14  1  0  0  0  0
 13  5  1  0  0  0  0
 14 22  1  1  0  0  0
 15 14  1  0  0  0  0
 15 24  1  0  0  0  0
 15 16  1  0  0  0  0
 16 20  1  0  0  0  0
 17 16  2  0  0  0  0
 18 19  2  0  0  0  0
 18 14  1  0  0  0  0
 20 25  1  0  0  0  0
 21 13  1  0  0  0  0
 23 15  1  0  0  0  0
 26 27  1  0  0  0  0
 27 29  1  0  0  0  0
 27 28  1  0  0  0  0
 27 35  1  1  0  0  0
 28 18  1  0  0  0  0
 29 31  1  0  0  0  0
 30 29  2  0  0  0  0
 32 26  1  0  0  0  0
 33 26  1  0  0  0  0
 34 26  1  0  0  0  0
 36 28  1  0  0  0  0
M  END
$$$$
