CDC.pdb
 OpenBabel07022418263D

 37 36  0  0  1  0  0  0  0  0999 V2000
    3.4270   -2.2080    2.9570 N   0  0  0  0  0  0  0  0  0  0  0  0
    2.1690   -2.5120    2.2400 C   0  0  1  0  0  0  0  0  0  0  0  0
    1.0880   -2.4290    3.2460 C   0  0  0  0  0  0  0  0  0  0  0  0
   -0.5160   -2.8310    2.5550 S   0  0  0  0  0  0  0  0  0  0  0  0
    2.0360   -1.6330    1.0830 C   0  0  0  0  0  0  0  0  0  0  0  0
    2.9870   -0.7830    0.8730 O   0  0  0  0  0  0  0  0  0  0  0  0
    3.2250   -1.7160    3.8330 H   0  0  0  0  0  0  0  0  0  0  0  0
    4.0680   -1.6700    2.3320 H   0  0  0  0  0  0  0  0  0  0  0  0
    2.2800   -3.5630    1.9050 H   0  0  0  0  0  0  0  0  0  0  0  0
    1.0760   -1.4650    3.8080 H   0  0  0  0  0  0  0  0  0  0  0  0
    1.3120   -3.1980    4.0390 H   0  0  0  0  0  0  0  0  0  0  0  0
   -0.6340   -4.1910    2.2590 H   0  0  0  0  0  0  0  0  0  0  0  0
    0.9620   -1.6370    0.1760 N   0  0  0  0  0  0  0  0  0  0  0  0
    0.9410   -0.7190   -0.9710 C   0  0  1  0  0  0  0  0  0  0  0  0
    0.6570   -1.4840   -2.2260 C   0  0  0  0  0  0  0  0  0  0  0  0
    0.6460   -0.6710   -3.4400 C   0  0  0  0  0  0  0  0  0  0  0  0
    0.1350   -1.1760   -4.4930 O   0  0  0  0  0  0  0  0  0  0  0  0
   -0.0210    0.3930   -0.7100 C   0  0  0  0  0  0  0  0  0  0  0  0
   -0.2710    1.2550   -1.5750 O   0  0  0  0  0  0  0  0  0  0  0  0
    1.1370    0.6090   -3.5900 O   0  0  0  0  0  0  0  0  0  0  0  0
    0.1740   -2.2910    0.2910 H   0  0  0  0  0  0  0  0  0  0  0  0
    1.9260   -0.2240   -1.0680 H   0  0  0  0  0  0  0  0  0  0  0  0
    1.4860   -2.2280   -2.3300 H   0  0  0  0  0  0  0  0  0  0  0  0
   -0.2800   -2.0830   -2.1460 H   0  0  0  0  0  0  0  0  0  0  0  0
    1.7280    0.8400   -4.3820 H   0  0  0  0  0  0  0  0  0  0  0  0
   -0.6900    0.5020    0.5640 N   0  0  0  0  0  0  0  0  0  0  0  0
   -1.6270    1.5650    0.8470 C   0  0  1  0  0  0  0  0  0  0  0  0
   -3.0060    1.0650    1.2000 C   0  0  0  0  0  0  0  0  0  0  0  0
   -3.0310    0.0150    2.6470 S   0  0  0  0  0  0  0  0  0  0  0  0
   -1.1470    2.4580    1.9280 C   0  0  0  0  0  0  0  0  0  0  0  0
   -0.0520    2.2430    2.4720 O   0  0  0  0  0  0  0  0  0  0  0  0
   -1.9110    3.5300    2.3370 O   0  0  0  0  0  0  0  0  0  0  0  0
   -0.4490   -0.2280    1.2590 H   0  0  0  0  0  0  0  0  0  0  0  0
   -1.6960    2.2000   -0.0600 H   0  0  0  0  0  0  0  0  0  0  0  0
   -3.6730    1.9250    1.3550 H   0  0  0  0  0  0  0  0  0  0  0  0
   -3.4460    0.4750    0.3540 H   0  0  0  0  0  0  0  0  0  0  0  0
   -1.8290   -0.0240    3.3440 H   0  0  0  0  0  0  0  0  0  0  0  0
  1  7  1  0  0  0  0
  2  9  1  6  0  0  0
  2  1  1  0  0  0  0
  2  3  1  0  0  0  0
  3 10  1  0  0  0  0
  3 11  1  0  0  0  0
  4  3  1  0  0  0  0
  5  2  1  0  0  0  0
  6  5  2  0  0  0  0
  8  1  1  0  0  0  0
 12  4  1  0  0  0  0
 13 21  1  0  0  0  0
 13  5  1  0  0  0  0
 14 22  1  6  0  0  0
 14 18  1  0  0  0  0
 14 13  1  0  0  0  0
 15 24  1  0  0  0  0
 15 14  1  0  0  0  0
 16 15  1  0  0  0  0
 17 16  2  0  0  0  0
 18 26  1  0  0  0  0
 19 18  2  0  0  0  0
 20 16  1  0  0  0  0
 23 15  1  0  0  0  0
 25 20  1  0  0  0  0
 26 27  1  0  0  0  0
 26 33  1  0  0  0  0
 27 34  1  6  0  0  0
 27 28  1  0  0  0  0
 27 30  1  0  0  0  0
 28 35  1  0  0  0  0
 28 29  1  0  0  0  0
 29 37  1  0  0  0  0
 30 32  2  0  0  0  0
 30 31  1  0  0  0  0
 36 28  1  0  0  0  0
M  END
$$$$
