CDF.pdb
 OpenBabel07022418263D

 46 46  0  0  1  0  0  0  0  0999 V2000
    1.7490   -4.1850    0.7220 N   0  0  0  0  0  0  0  0  0  0  0  0
    3.1130   -3.7100    0.9570 C   0  0  1  0  0  0  0  0  0  0  0  0
    3.9920   -4.4160   -0.0760 C   0  0  0  0  0  0  0  0  0  0  0  0
    5.7300   -3.9640    0.0430 S   0  0  0  0  0  0  0  0  0  0  0  0
    3.1490   -2.2560    0.7800 C   0  0  0  0  0  0  0  0  0  0  0  0
    4.1650   -1.6260    1.1980 O   0  0  0  0  0  0  0  0  0  0  0  0
    1.1090   -3.8020    1.4650 H   0  0  0  0  0  0  0  0  0  0  0  0
    1.4720   -3.9620   -0.2240 H   0  0  0  0  0  0  0  0  0  0  0  0
    3.4290   -4.0310    1.9620 H   0  0  0  0  0  0  0  0  0  0  0  0
    3.6110   -4.0730   -1.0620 H   0  0  0  0  0  0  0  0  0  0  0  0
    3.8980   -5.5200    0.0430 H   0  0  0  0  0  0  0  0  0  0  0  0
    6.2030   -3.5110   -1.2320 H   0  0  0  0  0  0  0  0  0  0  0  0
    2.1440   -1.4640    0.1770 N   0  0  0  0  0  0  0  0  0  0  0  0
    2.2130   -0.0580    0.0280 C   0  0  1  0  0  0  0  0  0  0  0  0
    2.3740    0.4590   -1.3700 C   0  0  0  0  0  0  0  0  0  0  0  0
    3.6100   -0.0390   -2.0170 C   0  0  0  0  0  0  0  0  0  0  0  0
    3.8010   -1.2890   -1.9940 O   0  0  0  0  0  0  0  0  0  0  0  0
    1.0290    0.6350    0.6270 C   0  0  0  0  0  0  0  0  0  0  0  0
    0.9370    1.9010    0.5700 O   0  0  0  0  0  0  0  0  0  0  0  0
    4.5500    0.7690   -2.6340 O   0  0  0  0  0  0  0  0  0  0  0  0
    1.2910   -1.9560   -0.1920 H   0  0  0  0  0  0  0  0  0  0  0  0
    3.1110    0.3100    0.5880 H   0  0  0  0  0  0  0  0  0  0  0  0
    2.4640    1.5600   -1.3090 H   0  0  0  0  0  0  0  0  0  0  0  0
    1.4750    0.2740   -2.0190 H   0  0  0  0  0  0  0  0  0  0  0  0
    5.5370    0.4850   -2.5470 H   0  0  0  0  0  0  0  0  0  0  0  0
   -0.0150   -0.0610    1.2690 N   0  0  0  0  0  0  0  0  0  0  0  0
   -1.1420    0.6450    1.8280 C   0  0  1  0  0  0  0  0  0  0  0  0
   -2.3730    0.4050    0.9290 C   0  0  0  0  0  0  0  0  0  0  0  0
   -3.5860    1.0590    1.4250 C   0  0  0  0  0  0  0  0  0  0  0  0
   -3.9490    2.3600    1.1680 C   0  0  0  0  0  0  0  0  0  0  0  0
   -5.1160    2.9100    1.6490 C   0  0  0  0  0  0  0  0  0  0  0  0
   -5.9860    2.1760    2.4180 C   0  0  0  0  0  0  0  0  0  0  0  0
   -5.6380    0.8660    2.6860 C   0  0  0  0  0  0  0  0  0  0  0  0
   -4.4890    0.3240    2.2130 C   0  0  0  0  0  0  0  0  0  0  0  0
   -1.4610    0.2800    3.2130 C   0  0  0  0  0  0  0  0  0  0  0  0
   -0.7940   -0.6300    3.7730 O   0  0  0  0  0  0  0  0  0  0  0  0
   -2.4550    0.8980    3.9100 O   0  0  0  0  0  0  0  0  0  0  0  0
    0.0170   -1.0900    1.3450 H   0  0  0  0  0  0  0  0  0  0  0  0
   -0.9310    1.7590    1.7490 H   0  0  0  0  0  0  0  0  0  0  0  0
   -2.5770   -0.6830    0.8320 H   0  0  0  0  0  0  0  0  0  0  0  0
   -2.0490    0.7430   -0.0810 H   0  0  0  0  0  0  0  0  0  0  0  0
   -3.2750    2.9610    0.5590 H   0  0  0  0  0  0  0  0  0  0  0  0
   -5.3800    3.9390    1.4330 H   0  0  0  0  0  0  0  0  0  0  0  0
   -6.9200    2.5680    2.8180 H   0  0  0  0  0  0  0  0  0  0  0  0
   -6.3200    0.2560    3.2970 H   0  0  0  0  0  0  0  0  0  0  0  0
   -4.2340   -0.7210    2.4430 H   0  0  0  0  0  0  0  0  0  0  0  0
  1  2  1  0  0  0  0
  1  7  1  0  0  0  0
  2  9  1  1  0  0  0
  3 11  1  0  0  0  0
  3  4  1  0  0  0  0
  3  2  1  0  0  0  0
  5  2  1  0  0  0  0
  5  6  2  0  0  0  0
  8  1  1  0  0  0  0
 10  3  1  0  0  0  0
 12  4  1  0  0  0  0
 13  5  1  0  0  0  0
 14 13  1  0  0  0  0
 14 22  1  1  0  0  0
 14 18  1  0  0  0  0
 15 23  1  0  0  0  0
 15 14  1  0  0  0  0
 16 17  2  0  0  0  0
 16 15  1  0  0  0  0
 18 26  1  0  0  0  0
 19 18  2  0  0  0  0
 20 25  1  0  0  0  0
 20 16  1  0  0  0  0
 21 13  1  0  0  0  0
 24 15  1  0  0  0  0
 26 38  1  0  0  0  0
 26 27  1  0  0  0  0
 27 39  1  6  0  0  0
 27 35  1  0  0  0  0
 28 29  1  0  0  0  0
 28 27  1  0  0  0  0
 29 34  1  0  0  0  0
 30 29  2  0  0  0  0
 30 31  1  0  0  0  0
 31 32  2  0  0  0  0
 32 33  1  0  0  0  0
 32 44  1  0  0  0  0
 33 45  1  0  0  0  0
 34 46  1  0  0  0  0
 34 33  2  0  0  0  0
 35 36  2  0  0  0  0
 35 37  1  0  0  0  0
 40 28  1  0  0  0  0
 41 28  1  0  0  0  0
 42 30  1  0  0  0  0
 43 31  1  0  0  0  0
M  END
$$$$
