CDG.pdb
 OpenBabel07022418263D

 33 32  0  0  1  0  0  0  0  0999 V2000
   -0.9220   -2.4010    4.1040 N   0  0  0  0  0  0  0  0  0  0  0  0
   -0.2950   -2.3750    2.7950 C   0  0  1  0  0  0  0  0  0  0  0  0
   -1.2590   -2.8750    1.7430 C   0  0  0  0  0  0  0  0  0  0  0  0
   -2.7520   -1.8770    1.6430 S   0  0  0  0  0  0  0  0  0  0  0  0
    0.1760   -1.0100    2.4580 C   0  0  0  0  0  0  0  0  0  0  0  0
    0.0950   -0.0240    3.2220 O   0  0  0  0  0  0  0  0  0  0  0  0
   -0.4680   -1.7260    4.7610 H   0  0  0  0  0  0  0  0  0  0  0  0
   -1.9310   -2.2500    4.0210 H   0  0  0  0  0  0  0  0  0  0  0  0
    0.6220   -3.0210    2.7950 H   0  0  0  0  0  0  0  0  0  0  0  0
   -0.7760   -2.9100    0.7450 H   0  0  0  0  0  0  0  0  0  0  0  0
   -1.5560   -3.9290    2.0100 H   0  0  0  0  0  0  0  0  0  0  0  0
   -3.6550   -2.4370    0.7230 H   0  0  0  0  0  0  0  0  0  0  0  0
    0.7610   -0.7970    1.1810 N   0  0  0  0  0  0  0  0  0  0  0  0
    1.2460    0.5200    0.7790 C   0  0  1  0  0  0  0  0  0  0  0  0
    2.7210    0.3420    0.4880 C   0  0  0  0  0  0  0  0  0  0  0  0
    3.3240    1.6290    0.0660 C   0  0  0  0  0  0  0  0  0  0  0  0
    3.2480    2.0860   -1.1040 O   0  0  0  0  0  0  0  0  0  0  0  0
    0.4590    0.9640   -0.3800 C   0  0  0  0  0  0  0  0  0  0  0  0
    0.6350    2.0700   -0.9500 O   0  0  0  0  0  0  0  0  0  0  0  0
    4.0180    2.3870    1.0120 O   0  0  0  0  0  0  0  0  0  0  0  0
    0.8670   -1.5620    0.4820 H   0  0  0  0  0  0  0  0  0  0  0  0
    1.1160    1.2200    1.6230 H   0  0  0  0  0  0  0  0  0  0  0  0
    2.8850   -0.3620   -0.3640 H   0  0  0  0  0  0  0  0  0  0  0  0
    3.2440   -0.0550    1.3730 H   0  0  0  0  0  0  0  0  0  0  0  0
    4.4750    3.2660    0.7910 H   0  0  0  0  0  0  0  0  0  0  0  0
   -0.5820    0.1320   -0.9340 N   0  0  0  0  0  0  0  0  0  0  0  0
   -1.3470    0.5900   -2.0750 C   0  0  0  0  0  0  0  0  0  0  0  0
   -2.3330   -0.4570   -2.4260 C   0  0  0  0  0  0  0  0  0  0  0  0
   -3.1260   -0.3080   -3.3900 O   0  0  0  0  0  0  0  0  0  0  0  0
   -2.4070   -1.6290   -1.6990 O   0  0  0  0  0  0  0  0  0  0  0  0
   -0.7640   -0.8000   -0.4940 H   0  0  0  0  0  0  0  0  0  0  0  0
   -1.8560    1.5570   -1.8770 H   0  0  0  0  0  0  0  0  0  0  0  0
   -0.6650    0.7640   -2.9520 H   0  0  0  0  0  0  0  0  0  0  0  0
  1  7  1  0  0  0  0
  2  9  1  1  0  0  0
  2  1  1  0  0  0  0
  3 11  1  0  0  0  0
  3  2  1  0  0  0  0
  4  3  1  0  0  0  0
  5  2  1  0  0  0  0
  5  6  2  0  0  0  0
  8  1  1  0  0  0  0
 10  3  1  0  0  0  0
 12  4  1  0  0  0  0
 13  5  1  0  0  0  0
 14 13  1  0  0  0  0
 14 22  1  1  0  0  0
 15 14  1  0  0  0  0
 15 24  1  0  0  0  0
 16 15  1  0  0  0  0
 16 20  1  0  0  0  0
 17 16  2  0  0  0  0
 18 14  1  0  0  0  0
 19 18  2  0  0  0  0
 21 13  1  0  0  0  0
 23 15  1  0  0  0  0
 25 20  1  0  0  0  0
 26 31  1  0  0  0  0
 26 18  1  0  0  0  0
 27 32  1  0  0  0  0
 27 26  1  0  0  0  0
 28 27  1  0  0  0  0
 28 30  1  0  0  0  0
 29 28  2  0  0  0  0
 33 27  1  0  0  0  0
M  END
$$$$
