CDH.pdb
 OpenBabel07022418263D

 43 43  0  0  1  0  0  0  0  0999 V2000
    4.9110   -3.3810    2.4340 N   0  0  0  0  0  0  0  0  0  0  0  0
    4.1430   -3.1360    1.2090 C   0  0  1  0  0  0  0  0  0  0  0  0
    3.2380   -4.3230    0.9420 C   0  0  0  0  0  0  0  0  0  0  0  0
    2.2760   -4.0740   -0.5580 S   0  0  0  0  0  0  0  0  0  0  0  0
    3.4450   -1.8600    1.3470 C   0  0  0  0  0  0  0  0  0  0  0  0
    3.4460   -1.2660    2.4800 O   0  0  0  0  0  0  0  0  0  0  0  0
    4.7300   -2.6340    3.1370 H   0  0  0  0  0  0  0  0  0  0  0  0
    4.6490   -4.2840    2.8750 H   0  0  0  0  0  0  0  0  0  0  0  0
    4.8770   -3.0650    0.3870 H   0  0  0  0  0  0  0  0  0  0  0  0
    2.5880   -4.5490    1.8120 H   0  0  0  0  0  0  0  0  0  0  0  0
    3.8660   -5.2240    0.7880 H   0  0  0  0  0  0  0  0  0  0  0  0
    1.1340   -4.8590   -0.6190 H   0  0  0  0  0  0  0  0  0  0  0  0
    2.7500   -1.2050    0.3030 N   0  0  0  0  0  0  0  0  0  0  0  0
    2.0890    0.0720    0.5650 C   0  0  1  0  0  0  0  0  0  0  0  0
    2.5720    1.0540   -0.4690 C   0  0  0  0  0  0  0  0  0  0  0  0
    4.0360    1.2540   -0.4250 C   0  0  0  0  0  0  0  0  0  0  0  0
    4.6260    2.0480   -1.2230 O   0  0  0  0  0  0  0  0  0  0  0  0
    0.6040   -0.0990    0.3430 C   0  0  0  0  0  0  0  0  0  0  0  0
    0.1270   -1.2100   -0.0100 O   0  0  0  0  0  0  0  0  0  0  0  0
    4.8580    0.5990    0.4760 O   0  0  0  0  0  0  0  0  0  0  0  0
    2.7150   -1.6260   -0.6460 H   0  0  0  0  0  0  0  0  0  0  0  0
    2.2850    0.4250    1.5790 H   0  0  0  0  0  0  0  0  0  0  0  0
    2.0130    2.0120   -0.4370 H   0  0  0  0  0  0  0  0  0  0  0  0
    2.3400    0.6230   -1.4870 H   0  0  0  0  0  0  0  0  0  0  0  0
    5.8540    0.7450    0.5370 H   0  0  0  0  0  0  0  0  0  0  0  0
   -0.2960    0.9720    0.5220 N   0  0  0  0  0  0  0  0  0  0  0  0
   -1.7240    0.8110    0.3100 C   0  0  1  0  0  0  0  0  0  0  0  0
   -2.3930    1.0040    1.6750 C   0  0  0  0  0  0  0  0  0  0  0  0
   -3.8590    0.8620    1.5830 C   0  0  0  0  0  0  0  0  0  0  0  0
   -4.6240   -0.2660    1.7170 C   0  0  0  0  0  0  0  0  0  0  0  0
   -5.9250    0.0270    1.5630 N   0  0  0  0  0  0  0  0  0  0  0  0
   -5.9900    1.3460    1.3300 C   0  0  0  0  0  0  0  0  0  0  0  0
   -4.7250    1.8570    1.3430 N   0  0  0  0  0  0  0  0  0  0  0  0
   -2.2460    1.7290   -0.7100 C   0  0  0  0  0  0  0  0  0  0  0  0
   -1.5120    2.5580   -1.3010 O   0  0  0  0  0  0  0  0  0  0  0  0
   -3.5850    1.7080   -1.0560 O   0  0  0  0  0  0  0  0  0  0  0  0
    0.0750    1.9010    0.8140 H   0  0  0  0  0  0  0  0  0  0  0  0
   -1.9710   -0.2260    0.0040 H   0  0  0  0  0  0  0  0  0  0  0  0
   -2.1210    2.0390    1.9810 H   0  0  0  0  0  0  0  0  0  0  0  0
   -1.9740    0.3350    2.4240 H   0  0  0  0  0  0  0  0  0  0  0  0
   -4.2080   -1.2540    1.9210 H   0  0  0  0  0  0  0  0  0  0  0  0
   -6.7310   -0.6170    1.6100 H   0  0  0  0  0  0  0  0  0  0  0  0
   -6.8660    1.9660    1.1530 H   0  0  0  0  0  0  0  0  0  0  0  0
  1  8  1  0  0  0  0
  1  7  1  0  0  0  0
  2  9  1  6  0  0  0
  2  5  1  0  0  0  0
  2  1  1  0  0  0  0
  3  2  1  0  0  0  0
  3 10  1  0  0  0  0
  4  3  1  0  0  0  0
  5  6  2  0  0  0  0
 11  3  1  0  0  0  0
 12  4  1  0  0  0  0
 13 14  1  0  0  0  0
 13  5  1  0  0  0  0
 14 22  1  1  0  0  0
 15 23  1  0  0  0  0
 15 16  1  0  0  0  0
 15 14  1  0  0  0  0
 16 20  1  0  0  0  0
 17 16  2  0  0  0  0
 18 26  1  0  0  0  0
 18 14  1  0  0  0  0
 19 18  2  0  0  0  0
 20 25  1  0  0  0  0
 21 13  1  0  0  0  0
 24 15  1  0  0  0  0
 26 37  1  0  0  0  0
 27 38  1  6  0  0  0
 27 26  1  0  0  0  0
 27 28  1  0  0  0  0
 28 39  1  0  0  0  0
 28 40  1  0  0  0  0
 29 28  1  0  0  0  0
 29 30  2  0  0  0  0
 30 41  1  0  0  0  0
 31 42  1  0  0  0  0
 31 30  1  0  0  0  0
 32 33  2  0  0  0  0
 32 31  1  0  0  0  0
 33 29  1  0  0  0  0
 34 27  1  0  0  0  0
 35 34  2  0  0  0  0
 36 34  1  0  0  0  0
 43 32  1  0  0  0  0
M  END
$$$$
