CDK.pdb
 OpenBabel07022418263D

 47 46  0  0  1  0  0  0  0  0999 V2000
    4.5350   -1.9510    3.3120 N   0  0  0  0  0  0  0  0  0  0  0  0
    4.1240   -1.9110    1.8960 C   0  0  1  0  0  0  0  0  0  0  0  0
    3.6000   -3.2630    1.5840 C   0  0  0  0  0  0  0  0  0  0  0  0
    3.0410   -3.4940   -0.1180 S   0  0  0  0  0  0  0  0  0  0  0  0
    3.2330   -0.7800    1.7180 C   0  0  0  0  0  0  0  0  0  0  0  0
    3.0350   -0.0020    2.7160 O   0  0  0  0  0  0  0  0  0  0  0  0
    3.8410   -2.5170    3.8750 H   0  0  0  0  0  0  0  0  0  0  0  0
    4.4980   -0.9890    3.7430 H   0  0  0  0  0  0  0  0  0  0  0  0
    5.0570   -1.7650    1.2960 H   0  0  0  0  0  0  0  0  0  0  0  0
    4.4630   -3.9810    1.7310 H   0  0  0  0  0  0  0  0  0  0  0  0
    2.8390   -3.6070    2.3250 H   0  0  0  0  0  0  0  0  0  0  0  0
    1.7360   -4.0700   -0.0570 H   0  0  0  0  0  0  0  0  0  0  0  0
    2.5280   -0.4080    0.5400 N   0  0  0  0  0  0  0  0  0  0  0  0
    1.6770    0.7560    0.5100 C   0  0  1  0  0  0  0  0  0  0  0  0
    2.0980    1.7000   -0.5840 C   0  0  0  0  0  0  0  0  0  0  0  0
    3.4870    2.1530   -0.4210 C   0  0  0  0  0  0  0  0  0  0  0  0
    4.4570    1.3350   -0.2900 O   0  0  0  0  0  0  0  0  0  0  0  0
    0.2480    0.3670    0.2820 C   0  0  0  0  0  0  0  0  0  0  0  0
   -0.6360    1.2520    0.2010 O   0  0  0  0  0  0  0  0  0  0  0  0
    3.8160    3.5080   -0.3950 O   0  0  0  0  0  0  0  0  0  0  0  0
    2.6380   -0.9870   -0.2960 H   0  0  0  0  0  0  0  0  0  0  0  0
    1.7680    1.3050    1.4850 H   0  0  0  0  0  0  0  0  0  0  0  0
    1.9960    1.1760   -1.5590 H   0  0  0  0  0  0  0  0  0  0  0  0
    1.4250    2.5990   -0.6120 H   0  0  0  0  0  0  0  0  0  0  0  0
    4.5670    3.8310    0.2120 H   0  0  0  0  0  0  0  0  0  0  0  0
   -0.0620   -0.9930    0.1670 N   0  0  0  0  0  0  0  0  0  0  0  0
   -1.4780   -1.4680   -0.0590 C   0  0  1  0  0  0  0  0  0  0  0  0
   -2.1700   -1.1340    1.1870 C   0  0  0  0  0  0  0  0  0  0  0  0
   -3.5810   -1.4710    1.4250 C   0  0  0  0  0  0  0  0  0  0  0  0
   -4.6650   -0.9290    0.6020 C   0  0  0  0  0  0  0  0  0  0  0  0
   -4.7150    0.5830    0.5370 C   0  0  0  0  0  0  0  0  0  0  0  0
   -4.8830    1.1850    1.8230 N   0  0  0  0  0  0  0  0  0  0  0  0
   -1.9120   -0.9420   -1.3390 C   0  0  0  0  0  0  0  0  0  0  0  0
   -1.1560   -0.0800   -1.9550 O   0  0  0  0  0  0  0  0  0  0  0  0
   -3.0550   -1.2430   -2.0220 O   0  0  0  0  0  0  0  0  0  0  0  0
    0.6530   -1.7410    0.2290 H   0  0  0  0  0  0  0  0  0  0  0  0
   -1.3780   -2.5930   -0.1080 H   0  0  0  0  0  0  0  0  0  0  0  0
   -1.9680   -0.0450    1.5070 H   0  0  0  0  0  0  0  0  0  0  0  0
   -1.6000   -1.6650    2.0530 H   0  0  0  0  0  0  0  0  0  0  0  0
   -3.6630   -2.6230    1.3410 H   0  0  0  0  0  0  0  0  0  0  0  0
   -3.8530   -1.3380    2.5250 H   0  0  0  0  0  0  0  0  0  0  0  0
   -4.8230   -1.3970   -0.3460 H   0  0  0  0  0  0  0  0  0  0  0  0
   -5.6410   -1.1610    1.2170 H   0  0  0  0  0  0  0  0  0  0  0  0
   -3.8180    0.9890   -0.0100 H   0  0  0  0  0  0  0  0  0  0  0  0
   -5.5980    0.8550   -0.0750 H   0  0  0  0  0  0  0  0  0  0  0  0
   -4.9400    0.5250    2.6050 H   0  0  0  0  0  0  0  0  0  0  0  0
   -5.5390    1.9920    1.8500 H   0  0  0  0  0  0  0  0  0  0  0  0
  1  8  1  0  0  0  0
  1  7  1  0  0  0  0
  2  9  1  6  0  0  0
  2  1  1  0  0  0  0
  3 10  1  0  0  0  0
  3  2  1  0  0  0  0
  3 11  1  0  0  0  0
  4 12  1  0  0  0  0
  4  3  1  0  0  0  0
  5  2  1  0  0  0  0
  5  6  2  0  0  0  0
 13  5  1  0  0  0  0
 14 13  1  0  0  0  0
 14 22  1  1  0  0  0
 15 16  1  0  0  0  0
 15 14  1  0  0  0  0
 16 20  1  0  0  0  0
 16 17  2  0  0  0  0
 18 14  1  0  0  0  0
 19 18  2  0  0  0  0
 20 25  1  0  0  0  0
 21 13  1  0  0  0  0
 23 15  1  0  0  0  0
 24 15  1  0  0  0  0
 26 36  1  0  0  0  0
 26 18  1  0  0  0  0
 27 37  1  6  0  0  0
 27 26  1  0  0  0  0
 27 28  1  0  0  0  0
 28 29  1  0  0  0  0
 28 38  1  0  0  0  0
 28 39  1  0  0  0  0
 29 41  1  0  0  0  0
 30 43  1  0  0  0  0
 30 29  1  0  0  0  0
 31 30  1  0  0  0  0
 31 32  1  0  0  0  0
 32 47  1  0  0  0  0
 32 46  1  0  0  0  0
 33 27  1  0  0  0  0
 34 33  1  0  0  0  0
 35 33  2  0  0  0  0
 40 29  1  0  0  0  0
 42 30  1  0  0  0  0
 44 31  1  0  0  0  0
 45 31  1  0  0  0  0
M  END
$$$$
