CDL.pdb
 OpenBabel07022418263D

 45 44  0  0  1  0  0  0  0  0999 V2000
    1.4750   -4.0160   -1.0320 N   0  0  0  0  0  0  0  0  0  0  0  0
    2.6110   -3.3270   -0.4820 C   0  0  1  0  0  0  0  0  0  0  0  0
    3.8690   -3.6010   -1.2660 C   0  0  0  0  0  0  0  0  0  0  0  0
    3.7330   -3.0790   -2.9970 S   0  0  0  0  0  0  0  0  0  0  0  0
    2.3720   -1.8700   -0.3130 C   0  0  0  0  0  0  0  0  0  0  0  0
    3.2490   -1.1250    0.1420 O   0  0  0  0  0  0  0  0  0  0  0  0
    0.6490   -3.8560   -0.4220 H   0  0  0  0  0  0  0  0  0  0  0  0
    1.2380   -3.6190   -1.9630 H   0  0  0  0  0  0  0  0  0  0  0  0
    2.7830   -3.7560    0.5360 H   0  0  0  0  0  0  0  0  0  0  0  0
    4.7230   -3.0750   -0.7750 H   0  0  0  0  0  0  0  0  0  0  0  0
    4.1350   -4.6760   -1.2680 H   0  0  0  0  0  0  0  0  0  0  0  0
    4.6600   -3.8240   -3.7520 H   0  0  0  0  0  0  0  0  0  0  0  0
    1.1240   -1.2920   -0.6700 N   0  0  0  0  0  0  0  0  0  0  0  0
    0.8160    0.0880   -0.5380 C   0  0  1  0  0  0  0  0  0  0  0  0
    0.4650    0.7270   -1.8400 C   0  0  0  0  0  0  0  0  0  0  0  0
    1.5770    0.6420   -2.8410 C   0  0  0  0  0  0  0  0  0  0  0  0
    1.7630   -0.4310   -3.4490 O   0  0  0  0  0  0  0  0  0  0  0  0
   -0.2630    0.3790    0.4350 C   0  0  0  0  0  0  0  0  0  0  0  0
   -0.5780    1.5850    0.5570 O   0  0  0  0  0  0  0  0  0  0  0  0
    2.4020    1.7220   -3.1070 O   0  0  0  0  0  0  0  0  0  0  0  0
    0.4000   -1.9340   -1.0510 H   0  0  0  0  0  0  0  0  0  0  0  0
    1.7260    0.6130   -0.1340 H   0  0  0  0  0  0  0  0  0  0  0  0
   -0.4260    0.2620   -2.3130 H   0  0  0  0  0  0  0  0  0  0  0  0
    0.2210    1.8050   -1.7340 H   0  0  0  0  0  0  0  0  0  0  0  0
    3.1710    1.5750   -3.7470 H   0  0  0  0  0  0  0  0  0  0  0  0
   -0.7230    0.6300    4.7850 C   0  0  0  0  0  0  0  0  0  0  0  0
   -1.1180    1.4840    3.5910 C   0  0  0  0  0  0  0  0  0  0  0  0
   -1.5420    2.8230    4.2220 C   0  0  0  0  0  0  0  0  0  0  0  0
   -2.2060    0.8930    2.7830 C   0  0  0  0  0  0  0  0  0  0  0  0
   -1.9450   -0.4490    2.1660 C   0  0  2  0  0  0  0  0  0  0  0  0
   -0.9290   -0.5760    1.1990 N   0  0  0  0  0  0  0  0  0  0  0  0
   -3.1740   -1.1620    1.7970 C   0  0  0  0  0  0  0  0  0  0  0  0
   -3.3290   -1.8220    0.7440 O   0  0  0  0  0  0  0  0  0  0  0  0
   -4.2630   -1.1120    2.6770 O   0  0  0  0  0  0  0  0  0  0  0  0
   -0.1120    1.2920    5.4370 H   0  0  0  0  0  0  0  0  0  0  0  0
   -0.0760   -0.2170    4.5020 H   0  0  0  0  0  0  0  0  0  0  0  0
   -1.6020    0.3250    5.3880 H   0  0  0  0  0  0  0  0  0  0  0  0
   -0.2070    1.6910    3.0460 H   0  0  0  0  0  0  0  0  0  0  0  0
   -2.2500    3.3370    3.5600 H   0  0  0  0  0  0  0  0  0  0  0  0
   -0.6780    3.4230    4.5190 H   0  0  0  0  0  0  0  0  0  0  0  0
   -2.1040    2.6030    5.1760 H   0  0  0  0  0  0  0  0  0  0  0  0
   -3.0890    0.7360    3.4750 H   0  0  0  0  0  0  0  0  0  0  0  0
   -2.6070    1.6280    2.0310 H   0  0  0  0  0  0  0  0  0  0  0  0
   -1.5340   -1.0240    3.1000 H   0  0  0  0  0  0  0  0  0  0  0  0
   -0.6000   -1.5860    1.0100 H   0  0  0  0  0  0  0  0  0  0  0  0
  1  2  1  0  0  0  0
  1  7  1  0  0  0  0
  2  5  1  0  0  0  0
  2  9  1  1  0  0  0
  3 10  1  0  0  0  0
  3  2  1  0  0  0  0
  4  3  1  0  0  0  0
  5  6  2  0  0  0  0
  8  1  1  0  0  0  0
 11  3  1  0  0  0  0
 12  4  1  0  0  0  0
 13 14  1  0  0  0  0
 13  5  1  0  0  0  0
 14 22  1  1  0  0  0
 14 18  1  0  0  0  0
 15 24  1  0  0  0  0
 15 14  1  0  0  0  0
 16 15  1  0  0  0  0
 17 16  2  0  0  0  0
 18 19  2  0  0  0  0
 18 31  1  0  0  0  0
 20 16  1  0  0  0  0
 21 13  1  0  0  0  0
 23 15  1  0  0  0  0
 25 20  1  0  0  0  0
 26 37  1  0  0  0  0
 26 35  1  0  0  0  0
 27 28  1  0  0  0  0
 27 26  1  0  0  0  0
 28 40  1  0  0  0  0
 28 41  1  0  0  0  0
 29 42  1  0  0  0  0
 29 27  1  0  0  0  0
 30 29  1  0  0  0  0
 30 44  1  1  0  0  0
 31 30  1  0  0  0  0
 32 30  1  0  0  0  0
 32 34  1  0  0  0  0
 33 32  2  0  0  0  0
 36 26  1  0  0  0  0
 38 27  1  0  0  0  0
 39 28  1  0  0  0  0
 43 29  1  0  0  0  0
 45 31  1  0  0  0  0
M  END
$$$$
