CDP.pdb
 OpenBabel07022418263D

 40 40  0  0  1  0  0  0  0  0999 V2000
    2.0460   -5.0580   -0.4700 N   0  0  0  0  0  0  0  0  0  0  0  0
    0.8100   -4.3260   -0.5250 C   0  0  1  0  0  0  0  0  0  0  0  0
   -0.1620   -4.8540    0.4980 C   0  0  0  0  0  0  0  0  0  0  0  0
   -0.4510   -6.6170    0.0960 S   0  0  0  0  0  0  0  0  0  0  0  0
    1.0750   -2.8850   -0.4030 C   0  0  0  0  0  0  0  0  0  0  0  0
    2.2830   -2.5190   -0.2740 O   0  0  0  0  0  0  0  0  0  0  0  0
    2.1410   -5.5180    0.4540 H   0  0  0  0  0  0  0  0  0  0  0  0
    2.8300   -4.4200   -0.7080 H   0  0  0  0  0  0  0  0  0  0  0  0
    0.3580   -4.4930   -1.5450 H   0  0  0  0  0  0  0  0  0  0  0  0
    0.2930   -4.8470    1.5110 H   0  0  0  0  0  0  0  0  0  0  0  0
   -1.1400   -4.3570    0.4600 H   0  0  0  0  0  0  0  0  0  0  0  0
    0.5460   -7.4340    0.6670 H   0  0  0  0  0  0  0  0  0  0  0  0
    0.1060   -1.8850   -0.4180 N   0  0  0  0  0  0  0  0  0  0  0  0
    0.5570   -0.4350   -0.2820 C   0  0  1  0  0  0  0  0  0  0  0  0
    0.1200    0.2060   -1.5620 C   0  0  0  0  0  0  0  0  0  0  0  0
    0.4090    1.5920   -1.8220 C   0  0  0  0  0  0  0  0  0  0  0  0
    1.1090    2.3080   -1.1030 O   0  0  0  0  0  0  0  0  0  0  0  0
   -0.0990    0.0740    0.9350 C   0  0  0  0  0  0  0  0  0  0  0  0
   -1.2250   -0.5020    1.2170 O   0  0  0  0  0  0  0  0  0  0  0  0
   -0.1100    2.2580   -2.9680 O   0  0  0  0  0  0  0  0  0  0  0  0
   -0.8910   -2.1030   -0.5180 H   0  0  0  0  0  0  0  0  0  0  0  0
    1.6310   -0.4150   -0.1830 H   0  0  0  0  0  0  0  0  0  0  0  0
   -1.0210    0.0920   -1.6350 H   0  0  0  0  0  0  0  0  0  0  0  0
    0.5520   -0.3920   -2.4230 H   0  0  0  0  0  0  0  0  0  0  0  0
    0.4810    2.9670   -3.3980 H   0  0  0  0  0  0  0  0  0  0  0  0
    0.3130    1.0640    1.8200 N   0  0  0  0  0  0  0  0  0  0  0  0
    1.5240    1.8610    1.8600 C   0  0  0  0  0  0  0  0  0  0  0  0
    1.7740    2.0020    3.3800 C   0  0  0  0  0  0  0  0  0  0  0  0
    0.3650    2.3660    3.8160 C   0  0  0  0  0  0  0  0  0  0  0  0
   -0.4980    1.4870    2.9790 C   0  0  1  0  0  0  0  0  0  0  0  0
   -1.7740    2.0810    2.5610 C   0  0  0  0  0  0  0  0  0  0  0  0
   -2.0940    2.2000    1.3640 O   0  0  0  0  0  0  0  0  0  0  0  0
   -2.6490    2.5220    3.5550 O   0  0  0  0  0  0  0  0  0  0  0  0
    1.3750    2.9080    1.5190 H   0  0  0  0  0  0  0  0  0  0  0  0
    2.3670    1.3680    1.3800 H   0  0  0  0  0  0  0  0  0  0  0  0
    2.0120    1.0100    3.7760 H   0  0  0  0  0  0  0  0  0  0  0  0
    2.5110    2.7780    3.5810 H   0  0  0  0  0  0  0  0  0  0  0  0
    0.1780    3.4560    3.5850 H   0  0  0  0  0  0  0  0  0  0  0  0
    0.2010    2.1930    4.9020 H   0  0  0  0  0  0  0  0  0  0  0  0
   -0.6710    0.5320    3.5410 H   0  0  0  0  0  0  0  0  0  0  0  0
  1  7  1  0  0  0  0
  2  9  1  6  0  0  0
  2  1  1  0  0  0  0
  2  5  1  0  0  0  0
  2  3  1  0  0  0  0
  3 10  1  0  0  0  0
  4  3  1  0  0  0  0
  4 12  1  0  0  0  0
  5  6  2  0  0  0  0
  8  1  1  0  0  0  0
 11  3  1  0  0  0  0
 13  5  1  0  0  0  0
 13 14  1  0  0  0  0
 14 22  1  1  0  0  0
 14 18  1  0  0  0  0
 15 14  1  0  0  0  0
 16 15  1  0  0  0  0
 16 17  2  0  0  0  0
 18 19  2  0  0  0  0
 18 26  1  0  0  0  0
 20 16  1  0  0  0  0
 21 13  1  0  0  0  0
 23 15  1  0  0  0  0
 24 15  1  0  0  0  0
 25 20  1  0  0  0  0
 26 27  1  0  0  0  0
 26 30  1  0  0  0  0
 27 28  1  0  0  0  0
 28 37  1  0  0  0  0
 28 36  1  0  0  0  0
 28 29  1  0  0  0  0
 29 39  1  0  0  0  0
 30 40  1  1  0  0  0
 30 29  1  0  0  0  0
 31 30  1  0  0  0  0
 31 33  1  0  0  0  0
 32 31  2  0  0  0  0
 34 27  1  0  0  0  0
 35 27  1  0  0  0  0
 38 29  1  0  0  0  0
M  END
$$$$
