CDR.pdb
 OpenBabel07022418263D

 49 48  0  0  1  0  0  0  0  0999 V2000
    3.4330   -2.9970    3.1730 N   0  0  0  0  0  0  0  0  0  0  0  0
    3.0350   -2.9880    1.7480 C   0  0  1  0  0  0  0  0  0  0  0  0
    1.9200   -4.0000    1.6480 C   0  0  0  0  0  0  0  0  0  0  0  0
    1.2940   -4.1720   -0.0280 S   0  0  0  0  0  0  0  0  0  0  0  0
    2.6470   -1.6130    1.4420 C   0  0  0  0  0  0  0  0  0  0  0  0
    2.6750   -0.7050    2.3450 O   0  0  0  0  0  0  0  0  0  0  0  0
    4.1220   -2.2470    3.3650 H   0  0  0  0  0  0  0  0  0  0  0  0
    3.7320   -3.9530    3.4080 H   0  0  0  0  0  0  0  0  0  0  0  0
    3.8980   -3.3260    1.1400 H   0  0  0  0  0  0  0  0  0  0  0  0
    1.0580   -3.6680    2.2980 H   0  0  0  0  0  0  0  0  0  0  0  0
    2.3340   -4.9750    1.9810 H   0  0  0  0  0  0  0  0  0  0  0  0
    2.3600   -4.3160   -0.9370 H   0  0  0  0  0  0  0  0  0  0  0  0
    2.2140   -1.1630    0.1480 N   0  0  0  0  0  0  0  0  0  0  0  0
    1.8620    0.2120   -0.0620 C   0  0  1  0  0  0  0  0  0  0  0  0
    2.8680    0.8190   -1.0220 C   0  0  0  0  0  0  0  0  0  0  0  0
    4.2110    0.6940   -0.4120 C   0  0  0  0  0  0  0  0  0  0  0  0
    4.6060   -0.4270   -0.0110 O   0  0  0  0  0  0  0  0  0  0  0  0
    0.4690    0.4380   -0.5160 C   0  0  0  0  0  0  0  0  0  0  0  0
    0.1030    1.6110   -0.6300 O   0  0  0  0  0  0  0  0  0  0  0  0
    5.0820    1.7630   -0.2500 O   0  0  0  0  0  0  0  0  0  0  0  0
    2.1570   -1.8510   -0.6350 H   0  0  0  0  0  0  0  0  0  0  0  0
    2.0480    0.7770    0.9050 H   0  0  0  0  0  0  0  0  0  0  0  0
    2.6510    1.9000   -1.1280 H   0  0  0  0  0  0  0  0  0  0  0  0
    2.8320    0.3600   -2.0330 H   0  0  0  0  0  0  0  0  0  0  0  0
    5.7700    1.7750    0.5160 H   0  0  0  0  0  0  0  0  0  0  0  0
   -3.2880    1.2670    4.6810 N   0  0  0  0  0  0  0  0  0  0  0  0
   -3.0090    1.0650    3.3090 C   0  0  0  0  0  0  0  0  0  0  0  0
   -1.8050    1.2490    2.8980 N   0  0  0  0  0  0  0  0  0  0  0  0
   -3.9850    0.6650    2.3600 N   0  0  0  0  0  0  0  0  0  0  0  0
   -3.6470    0.0950    1.0780 C   0  0  0  0  0  0  0  0  0  0  0  0
   -2.9870    1.0910    0.1420 C   0  0  0  0  0  0  0  0  0  0  0  0
   -2.6530    0.4800   -1.1770 C   0  0  0  0  0  0  0  0  0  0  0  0
   -1.7350   -0.6630   -1.2140 C   0  0  2  0  0  0  0  0  0  0  0  0
   -0.4000   -0.5990   -0.8050 N   0  0  0  0  0  0  0  0  0  0  0  0
   -1.8490   -1.3820   -2.4930 C   0  0  0  0  0  0  0  0  0  0  0  0
   -2.9790   -1.5680   -3.0600 O   0  0  0  0  0  0  0  0  0  0  0  0
   -0.7350   -1.8970   -3.1510 O   0  0  0  0  0  0  0  0  0  0  0  0
   -4.2010    1.6100    4.9920 H   0  0  0  0  0  0  0  0  0  0  0  0
   -2.5470    1.0610    5.3720 H   0  0  0  0  0  0  0  0  0  0  0  0
   -0.9960    1.5330    3.4580 H   0  0  0  0  0  0  0  0  0  0  0  0
   -4.9810    0.8050    2.6340 H   0  0  0  0  0  0  0  0  0  0  0  0
   -3.0480   -0.8070    1.2690 H   0  0  0  0  0  0  0  0  0  0  0  0
   -4.5740   -0.2400    0.5690 H   0  0  0  0  0  0  0  0  0  0  0  0
   -2.1540    1.6090    0.5730 H   0  0  0  0  0  0  0  0  0  0  0  0
   -3.7880    1.8980    0.0240 H   0  0  0  0  0  0  0  0  0  0  0  0
   -2.4320    1.2700   -1.9590 H   0  0  0  0  0  0  0  0  0  0  0  0
   -3.6450    0.0760   -1.5640 H   0  0  0  0  0  0  0  0  0  0  0  0
   -2.2560   -1.3810   -0.4390 H   0  0  0  0  0  0  0  0  0  0  0  0
    0.0470   -1.5770   -0.6920 H   0  0  0  0  0  0  0  0  0  0  0  0
  1  7  1  0  0  0  0
  1  8  1  0  0  0  0
  2  9  1  6  0  0  0
  2  1  1  0  0  0  0
  3  2  1  0  0  0  0
  3 11  1  0  0  0  0
  3 10  1  0  0  0  0
  4  3  1  0  0  0  0
  5  2  1  0  0  0  0
  5  6  2  0  0  0  0
 12  4  1  0  0  0  0
 13  5  1  0  0  0  0
 14 13  1  0  0  0  0
 14 22  1  1  0  0  0
 15 16  1  0  0  0  0
 15 14  1  0  0  0  0
 16 20  1  0  0  0  0
 16 17  2  0  0  0  0
 18 14  1  0  0  0  0
 19 18  2  0  0  0  0
 20 25  1  0  0  0  0
 21 13  1  0  0  0  0
 23 15  1  0  0  0  0
 24 15  1  0  0  0  0
 26 38  1  0  0  0  0
 26 39  1  0  0  0  0
 27 26  1  0  0  0  0
 28 27  2  0  0  0  0
 28 40  1  0  0  0  0
 29 41  1  0  0  0  0
 29 27  1  0  0  0  0
 30 42  1  0  0  0  0
 30 29  1  0  0  0  0
 31 44  1  0  0  0  0
 31 30  1  0  0  0  0
 32 31  1  0  0  0  0
 33 32  1  0  0  0  0
 33 34  1  0  0  0  0
 33 48  1  1  0  0  0
 34 49  1  0  0  0  0
 34 18  1  0  0  0  0
 35 33  1  0  0  0  0
 36 35  1  0  0  0  0
 37 35  2  0  0  0  0
 43 30  1  0  0  0  0
 45 31  1  0  0  0  0
 46 32  1  0  0  0  0
 47 32  1  0  0  0  0
M  END
$$$$
