CDS.pdb
 OpenBabel07022418263D

 37 36  0  0  1  0  0  0  0  0999 V2000
    0.1590   -4.3980    2.8300 N   0  0  0  0  0  0  0  0  0  0  0  0
    0.0860   -3.7210    1.5200 C   0  0  1  0  0  0  0  0  0  0  0  0
   -1.3510   -3.5780    1.1890 C   0  0  0  0  0  0  0  0  0  0  0  0
   -1.6290   -2.8050   -0.4160 S   0  0  0  0  0  0  0  0  0  0  0  0
    0.9070   -2.5130    1.5280 C   0  0  0  0  0  0  0  0  0  0  0  0
    1.5700   -2.2970    2.6000 O   0  0  0  0  0  0  0  0  0  0  0  0
   -0.4800   -3.9580    3.5100 H   0  0  0  0  0  0  0  0  0  0  0  0
    1.1410   -4.4490    3.1600 H   0  0  0  0  0  0  0  0  0  0  0  0
    0.5260   -4.4680    0.8050 H   0  0  0  0  0  0  0  0  0  0  0  0
   -1.9240   -3.0620    1.9990 H   0  0  0  0  0  0  0  0  0  0  0  0
   -1.7790   -4.6210    1.1000 H   0  0  0  0  0  0  0  0  0  0  0  0
   -0.8450   -3.4670   -1.3760 H   0  0  0  0  0  0  0  0  0  0  0  0
    1.0630   -1.5600    0.5070 N   0  0  0  0  0  0  0  0  0  0  0  0
    1.9540   -0.4080    0.6930 C   0  0  1  0  0  0  0  0  0  0  0  0
    2.9190   -0.2980   -0.4410 C   0  0  0  0  0  0  0  0  0  0  0  0
    3.8810    0.8060   -0.3310 C   0  0  0  0  0  0  0  0  0  0  0  0
    4.5270    1.1580   -1.3490 O   0  0  0  0  0  0  0  0  0  0  0  0
    1.1400    0.8380    0.7490 C   0  0  0  0  0  0  0  0  0  0  0  0
    1.6060    1.9920    0.9010 O   0  0  0  0  0  0  0  0  0  0  0  0
    4.0940    1.4620    0.8590 O   0  0  0  0  0  0  0  0  0  0  0  0
    0.5690   -1.6490   -0.3790 H   0  0  0  0  0  0  0  0  0  0  0  0
    2.4640   -0.5130    1.6660 H   0  0  0  0  0  0  0  0  0  0  0  0
    2.3720   -0.1340   -1.4170 H   0  0  0  0  0  0  0  0  0  0  0  0
    3.4870   -1.2450   -0.6150 H   0  0  0  0  0  0  0  0  0  0  0  0
    4.8250    2.1740    0.9530 H   0  0  0  0  0  0  0  0  0  0  0  0
   -2.5330    1.0890   -1.0360 O   0  0  0  0  0  0  0  0  0  0  0  0
   -1.7650    2.1900   -0.6630 C   0  0  0  0  0  0  0  0  0  0  0  0
   -1.1060    1.8980    0.6680 C   0  0  2  0  0  0  0  0  0  0  0  0
   -0.2590    0.7450    0.6230 N   0  0  0  0  0  0  0  0  0  0  0  0
   -2.0760    1.7800    1.7710 C   0  0  0  0  0  0  0  0  0  0  0  0
   -2.0670    0.7680    2.4970 O   0  0  0  0  0  0  0  0  0  0  0  0
   -3.0060    2.7750    2.0200 O   0  0  0  0  0  0  0  0  0  0  0  0
   -2.3500    0.8980   -2.0010 H   0  0  0  0  0  0  0  0  0  0  0  0
   -2.5170    3.0180   -0.4970 H   0  0  0  0  0  0  0  0  0  0  0  0
   -1.0680    2.5480   -1.4190 H   0  0  0  0  0  0  0  0  0  0  0  0
   -0.4400    2.7910    0.8590 H   0  0  0  0  0  0  0  0  0  0  0  0
   -0.7570   -0.1790    0.4940 H   0  0  0  0  0  0  0  0  0  0  0  0
  1  8  1  0  0  0  0
  1  7  1  0  0  0  0
  2  9  1  6  0  0  0
  2  5  1  0  0  0  0
  2  1  1  0  0  0  0
  3  2  1  0  0  0  0
  3 10  1  0  0  0  0
  4  3  1  0  0  0  0
  5  6  2  0  0  0  0
 11  3  1  0  0  0  0
 12  4  1  0  0  0  0
 13 14  1  0  0  0  0
 13  5  1  0  0  0  0
 14 18  1  0  0  0  0
 14 22  1  1  0  0  0
 15 16  1  0  0  0  0
 15 14  1  0  0  0  0
 16 20  1  0  0  0  0
 17 16  2  0  0  0  0
 18 19  2  0  0  0  0
 20 25  1  0  0  0  0
 21 13  1  0  0  0  0
 23 15  1  0  0  0  0
 24 15  1  0  0  0  0
 26 27  1  0  0  0  0
 27 34  1  0  0  0  0
 27 28  1  0  0  0  0
 28 36  1  1  0  0  0
 28 30  1  0  0  0  0
 29 28  1  0  0  0  0
 29 18  1  0  0  0  0
 30 32  2  0  0  0  0
 30 31  1  0  0  0  0
 33 26  1  0  0  0  0
 35 27  1  0  0  0  0
 37 29  1  0  0  0  0
M  END
$$$$
