CDV.pdb
 OpenBabel07022418263D

 42 41  0  0  1  0  0  0  0  0999 V2000
    3.9530   -2.6170   -1.7590 N   0  0  0  0  0  0  0  0  0  0  0  0
    2.8010   -2.6640   -0.9040 C   0  0  1  0  0  0  0  0  0  0  0  0
    3.1630   -2.3340    0.5350 C   0  0  0  0  0  0  0  0  0  0  0  0
    3.8710   -0.6630    0.5760 S   0  0  0  0  0  0  0  0  0  0  0  0
    1.7770   -1.7340   -1.4420 C   0  0  0  0  0  0  0  0  0  0  0  0
    1.9860   -1.0460   -2.4720 O   0  0  0  0  0  0  0  0  0  0  0  0
    4.4860   -3.5070   -1.6230 H   0  0  0  0  0  0  0  0  0  0  0  0
    3.6670   -2.5990   -2.7540 H   0  0  0  0  0  0  0  0  0  0  0  0
    2.3870   -3.7090   -0.8610 H   0  0  0  0  0  0  0  0  0  0  0  0
    3.8470   -3.1040    0.9140 H   0  0  0  0  0  0  0  0  0  0  0  0
    2.2340   -2.3460    1.1450 H   0  0  0  0  0  0  0  0  0  0  0  0
    4.5630   -0.5610    1.8180 H   0  0  0  0  0  0  0  0  0  0  0  0
    0.5350   -1.6340   -0.7600 N   0  0  0  0  0  0  0  0  0  0  0  0
   -0.5470   -0.7410   -1.2140 C   0  0  1  0  0  0  0  0  0  0  0  0
   -1.7290   -1.6370   -1.4460 C   0  0  0  0  0  0  0  0  0  0  0  0
   -2.9420   -0.9700   -1.9340 C   0  0  0  0  0  0  0  0  0  0  0  0
   -3.0410    0.2380   -2.2290 O   0  0  0  0  0  0  0  0  0  0  0  0
   -0.8040    0.2440   -0.1300 C   0  0  0  0  0  0  0  0  0  0  0  0
   -1.6960    1.1310   -0.2440 O   0  0  0  0  0  0  0  0  0  0  0  0
   -4.1210   -1.7240   -2.0990 O   0  0  0  0  0  0  0  0  0  0  0  0
    0.3300   -2.1950    0.0900 H   0  0  0  0  0  0  0  0  0  0  0  0
   -0.2610   -0.2320   -2.1630 H   0  0  0  0  0  0  0  0  0  0  0  0
   -1.9320   -2.1850   -0.4760 H   0  0  0  0  0  0  0  0  0  0  0  0
   -1.4400   -2.4480   -2.1780 H   0  0  0  0  0  0  0  0  0  0  0  0
   -4.9490   -1.3570   -2.5300 H   0  0  0  0  0  0  0  0  0  0  0  0
    0.1670   -0.5440    4.0220 C   0  0  0  0  0  0  0  0  0  0  0  0
   -0.7100    0.4930    3.4330 C   0  0  0  0  0  0  0  0  0  0  0  0
   -0.9230    1.5910    4.4550 C   0  0  0  0  0  0  0  0  0  0  0  0
   -0.2320    1.1240    2.1690 C   0  0  2  0  0  0  0  0  0  0  0  0
   -0.0450    0.2070    1.0690 N   0  0  0  0  0  0  0  0  0  0  0  0
    0.9420    2.0120    2.3640 C   0  0  0  0  0  0  0  0  0  0  0  0
    1.9790    1.9430    1.6420 O   0  0  0  0  0  0  0  0  0  0  0  0
    0.9980    2.9880    3.3510 O   0  0  0  0  0  0  0  0  0  0  0  0
    1.0450   -0.0690    4.5550 H   0  0  0  0  0  0  0  0  0  0  0  0
   -0.3860   -1.0600    4.8400 H   0  0  0  0  0  0  0  0  0  0  0  0
    0.4890   -1.3350    3.3300 H   0  0  0  0  0  0  0  0  0  0  0  0
   -1.7330    0.0260    3.3100 H   0  0  0  0  0  0  0  0  0  0  0  0
   -1.7060    1.2670    5.1930 H   0  0  0  0  0  0  0  0  0  0  0  0
   -1.2560    2.5330    3.9570 H   0  0  0  0  0  0  0  0  0  0  0  0
   -0.0100    1.7640    5.0400 H   0  0  0  0  0  0  0  0  0  0  0  0
   -1.0590    1.8040    1.8550 H   0  0  0  0  0  0  0  0  0  0  0  0
    0.6820   -0.5290    1.1300 H   0  0  0  0  0  0  0  0  0  0  0  0
  1  7  1  0  0  0  0
  1  2  1  0  0  0  0
  2  9  1  6  0  0  0
  2  3  1  0  0  0  0
  3  4  1  0  0  0  0
  3 10  1  0  0  0  0
  3 11  1  0  0  0  0
  4 12  1  0  0  0  0
  5  2  1  0  0  0  0
  5 13  1  0  0  0  0
  6  5  2  0  0  0  0
  8  1  1  0  0  0  0
 13 21  1  0  0  0  0
 14 22  1  6  0  0  0
 14 13  1  0  0  0  0
 14 18  1  0  0  0  0
 15 14  1  0  0  0  0
 15 23  1  0  0  0  0
 16 15  1  0  0  0  0
 17 16  2  0  0  0  0
 18 30  1  0  0  0  0
 19 18  2  0  0  0  0
 20 16  1  0  0  0  0
 24 15  1  0  0  0  0
 25 20  1  0  0  0  0
 26 34  1  0  0  0  0
 26 35  1  0  0  0  0
 27 26  1  0  0  0  0
 27 28  1  0  0  0  0
 28 40  1  0  0  0  0
 28 38  1  0  0  0  0
 29 41  1  6  0  0  0
 29 31  1  0  0  0  0
 29 27  1  0  0  0  0
 30 42  1  0  0  0  0
 30 29  1  0  0  0  0
 31 33  1  0  0  0  0
 32 31  2  0  0  0  0
 36 26  1  0  0  0  0
 37 27  1  0  0  0  0
 39 28  1  0  0  0  0
M  END
$$$$
