CEA.pdb
 OpenBabel07022418263D

 39 38  0  0  1  0  0  0  0  0999 V2000
    0.5390   -3.4580    2.8830 N   0  0  0  0  0  0  0  0  0  0  0  0
    0.3190   -3.8380    1.5250 C   0  0  1  0  0  0  0  0  0  0  0  0
   -0.6900   -4.9580    1.3890 C   0  0  0  0  0  0  0  0  0  0  0  0
   -0.8770   -5.3390   -0.3730 S   0  0  0  0  0  0  0  0  0  0  0  0
   -0.1450   -2.7260    0.6640 C   0  0  0  0  0  0  0  0  0  0  0  0
   -0.3970   -2.9820   -0.5500 O   0  0  0  0  0  0  0  0  0  0  0  0
   -0.3470   -3.0980    3.3060 H   0  0  0  0  0  0  0  0  0  0  0  0
    1.3470   -2.8250    2.9390 H   0  0  0  0  0  0  0  0  0  0  0  0
    1.2990   -4.1920    1.0960 H   0  0  0  0  0  0  0  0  0  0  0  0
   -0.3560   -5.8490    1.9610 H   0  0  0  0  0  0  0  0  0  0  0  0
   -1.6540   -4.5870    1.7940 H   0  0  0  0  0  0  0  0  0  0  0  0
   -1.9930   -4.6510   -0.8500 H   0  0  0  0  0  0  0  0  0  0  0  0
   -0.3280   -1.4050    1.0970 N   0  0  0  0  0  0  0  0  0  0  0  0
   -0.8010   -0.3280    0.1800 C   0  0  1  0  0  0  0  0  0  0  0  0
   -2.1020    0.1540    0.6780 C   0  0  0  0  0  0  0  0  0  0  0  0
   -2.8400    1.2200   -0.0060 C   0  0  0  0  0  0  0  0  0  0  0  0
   -2.2200    2.5460   -0.0470 C   0  0  0  0  0  0  0  0  0  0  0  0
   -2.2650    3.3060   -1.0520 O   0  0  0  0  0  0  0  0  0  0  0  0
    0.2730    0.6190   -0.0720 C   0  0  0  0  0  0  0  0  0  0  0  0
    0.1590    1.5300   -0.9050 O   0  0  0  0  0  0  0  0  0  0  0  0
   -1.5420    3.0030    1.0910 O   0  0  0  0  0  0  0  0  0  0  0  0
   -0.1370   -1.1350    2.0730 H   0  0  0  0  0  0  0  0  0  0  0  0
   -1.0040   -0.8330   -0.8160 H   0  0  0  0  0  0  0  0  0  0  0  0
   -1.9600    0.5110    1.7590 H   0  0  0  0  0  0  0  0  0  0  0  0
   -2.8230   -0.7340    0.7760 H   0  0  0  0  0  0  0  0  0  0  0  0
   -3.2490    0.9180   -1.0080 H   0  0  0  0  0  0  0  0  0  0  0  0
   -3.8020    1.3700    0.5960 H   0  0  0  0  0  0  0  0  0  0  0  0
   -1.1870    3.9550    1.1600 H   0  0  0  0  0  0  0  0  0  0  0  0
    3.1810    2.0770    1.6350 C   0  0  0  0  0  0  0  0  0  0  0  0
    2.6040    1.5160    0.3670 C   0  0  2  0  0  0  0  0  0  0  0  0
    1.5400    0.5660    0.6240 N   0  0  0  0  0  0  0  0  0  0  0  0
    3.7480    0.8310   -0.3370 C   0  0  0  0  0  0  0  0  0  0  0  0
    3.6260   -0.4000   -0.6090 O   0  0  0  0  0  0  0  0  0  0  0  0
    4.9030    1.4580   -0.6950 O   0  0  0  0  0  0  0  0  0  0  0  0
    3.0870    3.1900    1.6670 H   0  0  0  0  0  0  0  0  0  0  0  0
    4.2670    1.8570    1.7720 H   0  0  0  0  0  0  0  0  0  0  0  0
    2.6440    1.6380    2.5080 H   0  0  0  0  0  0  0  0  0  0  0  0
    2.2820    2.3040   -0.3540 H   0  0  0  0  0  0  0  0  0  0  0  0
    1.6560   -0.1880    1.3210 H   0  0  0  0  0  0  0  0  0  0  0  0
  1  8  1  0  0  0  0
  1  7  1  0  0  0  0
  2  9  1  6  0  0  0
  2  1  1  0  0  0  0
  3  2  1  0  0  0  0
  3 11  1  0  0  0  0
  3 10  1  0  0  0  0
  4  3  1  0  0  0  0
  5 13  1  0  0  0  0
  5  2  1  0  0  0  0
  6  5  2  0  0  0  0
 12  4  1  0  0  0  0
 13 22  1  0  0  0  0
 14 23  1  6  0  0  0
 14 15  1  0  0  0  0
 14 13  1  0  0  0  0
 15 25  1  0  0  0  0
 15 24  1  0  0  0  0
 16 27  1  0  0  0  0
 16 15  1  0  0  0  0
 17 16  1  0  0  0  0
 17 21  1  0  0  0  0
 18 17  2  0  0  0  0
 19 14  1  0  0  0  0
 19 31  1  0  0  0  0
 20 19  2  0  0  0  0
 21 28  1  0  0  0  0
 26 16  1  0  0  0  0
 29 35  1  0  0  0  0
 29 36  1  0  0  0  0
 29 37  1  0  0  0  0
 30 38  1  6  0  0  0
 30 31  1  0  0  0  0
 30 29  1  0  0  0  0
 31 39  1  0  0  0  0
 32 30  1  0  0  0  0
 33 32  1  0  0  0  0
 34 32  2  0  0  0  0
M  END
$$$$
