CEE.pdb
 OpenBabel07022418263D

 45 44  0  0  1  0  0  0  0  0999 V2000
    4.2950   -3.4560    2.8290 N   0  0  0  0  0  0  0  0  0  0  0  0
    4.0820   -2.6110    1.6400 C   0  0  1  0  0  0  0  0  0  0  0  0
    3.9330   -3.6030    0.4980 C   0  0  0  0  0  0  0  0  0  0  0  0
    3.6690   -2.7970   -1.0970 S   0  0  0  0  0  0  0  0  0  0  0  0
    2.8110   -1.8850    1.8910 C   0  0  0  0  0  0  0  0  0  0  0  0
    2.1080   -2.1110    2.9030 O   0  0  0  0  0  0  0  0  0  0  0  0
    3.3360   -3.8160    3.0850 H   0  0  0  0  0  0  0  0  0  0  0  0
    4.8760   -4.2710    2.5960 H   0  0  0  0  0  0  0  0  0  0  0  0
    4.9350   -1.9650    1.4210 H   0  0  0  0  0  0  0  0  0  0  0  0
    3.0460   -4.2710    0.7250 H   0  0  0  0  0  0  0  0  0  0  0  0
    4.8040   -4.2810    0.4260 H   0  0  0  0  0  0  0  0  0  0  0  0
    2.9370   -3.7020   -1.9080 H   0  0  0  0  0  0  0  0  0  0  0  0
    2.3430   -0.8890    0.9710 N   0  0  0  0  0  0  0  0  0  0  0  0
    1.0770   -0.1820    1.2390 C   0  0  1  0  0  0  0  0  0  0  0  0
    1.3430    1.2850    1.4680 C   0  0  0  0  0  0  0  0  0  0  0  0
    2.2560    1.5830    2.6200 C   0  0  0  0  0  0  0  0  0  0  0  0
    1.7640    1.1370    3.9330 C   0  0  0  0  0  0  0  0  0  0  0  0
    2.5050    1.2440    4.9260 O   0  0  0  0  0  0  0  0  0  0  0  0
    0.2320   -0.3920    0.0330 C   0  0  0  0  0  0  0  0  0  0  0  0
    0.6520   -1.0390   -0.9520 O   0  0  0  0  0  0  0  0  0  0  0  0
    0.5080    0.6120    4.0670 O   0  0  0  0  0  0  0  0  0  0  0  0
    2.9370   -0.7100    0.1390 H   0  0  0  0  0  0  0  0  0  0  0  0
    0.6020   -0.5850    2.1510 H   0  0  0  0  0  0  0  0  0  0  0  0
    0.3820    1.8200    1.6830 H   0  0  0  0  0  0  0  0  0  0  0  0
    1.8270    1.7050    0.5500 H   0  0  0  0  0  0  0  0  0  0  0  0
    3.2530    1.0530    2.5010 H   0  0  0  0  0  0  0  0  0  0  0  0
    2.4420    2.6940    2.6760 H   0  0  0  0  0  0  0  0  0  0  0  0
    0.0910    0.4660    4.9990 H   0  0  0  0  0  0  0  0  0  0  0  0
   -1.0960    0.1470   -0.0320 N   0  0  0  0  0  0  0  0  0  0  0  0
   -1.9400   -0.0370   -1.1970 C   0  0  1  0  0  0  0  0  0  0  0  0
   -3.1040   -0.9330   -0.8900 C   0  0  0  0  0  0  0  0  0  0  0  0
   -4.0290   -0.5030    0.1770 C   0  0  0  0  0  0  0  0  0  0  0  0
   -4.7250    0.7780   -0.0100 C   0  0  0  0  0  0  0  0  0  0  0  0
   -4.3520    1.8220    0.5660 O   0  0  0  0  0  0  0  0  0  0  0  0
   -2.3930    1.2400   -1.7380 C   0  0  0  0  0  0  0  0  0  0  0  0
   -1.9960    2.3540   -1.2480 O   0  0  0  0  0  0  0  0  0  0  0  0
   -5.8240    0.8370   -0.8460 O   0  0  0  0  0  0  0  0  0  0  0  0
   -3.2750    1.2760   -2.8100 O   0  0  0  0  0  0  0  0  0  0  0  0
   -1.4000    0.6730    0.8130 H   0  0  0  0  0  0  0  0  0  0  0  0
   -1.3380   -0.5480   -2.0100 H   0  0  0  0  0  0  0  0  0  0  0  0
   -3.6760   -1.1820   -1.8240 H   0  0  0  0  0  0  0  0  0  0  0  0
   -2.6810   -1.9360   -0.5570 H   0  0  0  0  0  0  0  0  0  0  0  0
   -4.7920   -1.3070    0.3220 H   0  0  0  0  0  0  0  0  0  0  0  0
   -3.4450   -0.5180    1.1440 H   0  0  0  0  0  0  0  0  0  0  0  0
   -6.5210    1.5770   -0.7930 H   0  0  0  0  0  0  0  0  0  0  0  0
  1  7  1  0  0  0  0
  2  9  1  6  0  0  0
  2  5  1  0  0  0  0
  2  1  1  0  0  0  0
  3 10  1  0  0  0  0
  3  2  1  0  0  0  0
  4  3  1  0  0  0  0
  5  6  2  0  0  0  0
  8  1  1  0  0  0  0
 11  3  1  0  0  0  0
 12  4  1  0  0  0  0
 13 14  1  0  0  0  0
 13  5  1  0  0  0  0
 14 15  1  0  0  0  0
 14 23  1  1  0  0  0
 15 24  1  0  0  0  0
 15 16  1  0  0  0  0
 16 27  1  0  0  0  0
 16 17  1  0  0  0  0
 17 21  1  0  0  0  0
 17 18  2  0  0  0  0
 19 14  1  0  0  0  0
 20 19  2  0  0  0  0
 21 28  1  0  0  0  0
 22 13  1  0  0  0  0
 25 15  1  0  0  0  0
 26 16  1  0  0  0  0
 29 19  1  0  0  0  0
 29 39  1  0  0  0  0
 30 40  1  6  0  0  0
 30 31  1  0  0  0  0
 30 29  1  0  0  0  0
 31 42  1  0  0  0  0
 31 32  1  0  0  0  0
 32 43  1  0  0  0  0
 32 44  1  0  0  0  0
 33 32  1  0  0  0  0
 33 34  2  0  0  0  0
 35 36  1  0  0  0  0
 35 30  1  0  0  0  0
 37 45  1  0  0  0  0
 37 33  1  0  0  0  0
 38 35  2  0  0  0  0
 41 31  1  0  0  0  0
M  END
$$$$
