CEG.pdb
 OpenBabel07022418263D

 36 35  0  0  1  0  0  0  0  0999 V2000
   -1.2240   -1.3120    4.8150 N   0  0  0  0  0  0  0  0  0  0  0  0
    0.0260   -1.3900    4.0580 C   0  0  1  0  0  0  0  0  0  0  0  0
    0.2820   -2.8710    3.8850 C   0  0  0  0  0  0  0  0  0  0  0  0
    1.8020   -3.2220    2.9630 S   0  0  0  0  0  0  0  0  0  0  0  0
   -0.1990   -0.6900    2.7770 C   0  0  0  0  0  0  0  0  0  0  0  0
   -1.3430   -0.1900    2.4980 O   0  0  0  0  0  0  0  0  0  0  0  0
   -2.0310   -1.0440    4.2050 H   0  0  0  0  0  0  0  0  0  0  0  0
   -1.1600   -0.6040    5.5840 H   0  0  0  0  0  0  0  0  0  0  0  0
    0.8100   -0.9540    4.6820 H   0  0  0  0  0  0  0  0  0  0  0  0
    0.4430   -3.2740    4.9190 H   0  0  0  0  0  0  0  0  0  0  0  0
   -0.6000   -3.3660    3.4250 H   0  0  0  0  0  0  0  0  0  0  0  0
    1.4670   -3.9060    1.7550 H   0  0  0  0  0  0  0  0  0  0  0  0
    0.7940   -0.5290    1.8060 N   0  0  0  0  0  0  0  0  0  0  0  0
    0.5360    0.1760    0.5350 C   0  0  1  0  0  0  0  0  0  0  0  0
    1.3990    1.3840    0.4580 C   0  0  0  0  0  0  0  0  0  0  0  0
    1.2410    2.2040   -0.7690 C   0  0  0  0  0  0  0  0  0  0  0  0
   -0.1100    2.7700   -0.9900 C   0  0  0  0  0  0  0  0  0  0  0  0
   -1.0290    2.5820   -0.1620 O   0  0  0  0  0  0  0  0  0  0  0  0
    0.6990   -0.8240   -0.5120 C   0  0  0  0  0  0  0  0  0  0  0  0
    1.1990   -1.9620   -0.1810 O   0  0  0  0  0  0  0  0  0  0  0  0
   -0.4010    3.5250   -2.1170 O   0  0  0  0  0  0  0  0  0  0  0  0
    1.7360   -0.8950    1.9460 H   0  0  0  0  0  0  0  0  0  0  0  0
   -0.5220    0.4800    0.5750 H   0  0  0  0  0  0  0  0  0  0  0  0
    2.4800    1.1630    0.6120 H   0  0  0  0  0  0  0  0  0  0  0  0
    1.0920    2.0440    1.3140 H   0  0  0  0  0  0  0  0  0  0  0  0
    1.5990    1.7190   -1.7050 H   0  0  0  0  0  0  0  0  0  0  0  0
    1.9260    3.1270   -0.6980 H   0  0  0  0  0  0  0  0  0  0  0  0
   -1.3120    3.5360   -2.5560 H   0  0  0  0  0  0  0  0  0  0  0  0
    0.3650   -0.7020   -1.8870 N   0  0  0  0  0  0  0  0  0  0  0  0
    0.5900   -1.7860   -2.8350 C   0  0  0  0  0  0  0  0  0  0  0  0
   -0.1560   -3.0050   -2.4610 C   0  0  0  0  0  0  0  0  0  0  0  0
   -0.1040   -4.0560   -3.1390 O   0  0  0  0  0  0  0  0  0  0  0  0
   -0.9490   -3.0110   -1.3250 O   0  0  0  0  0  0  0  0  0  0  0  0
   -0.0640    0.1940   -2.1850 H   0  0  0  0  0  0  0  0  0  0  0  0
    0.2090   -1.4620   -3.8250 H   0  0  0  0  0  0  0  0  0  0  0  0
    1.6610   -2.0130   -2.9620 H   0  0  0  0  0  0  0  0  0  0  0  0
  1  8  1  0  0  0  0
  2  9  1  1  0  0  0
  2  1  1  0  0  0  0
  3  2  1  0  0  0  0
  3 10  1  0  0  0  0
  4  3  1  0  0  0  0
  5  2  1  0  0  0  0
  6  5  2  0  0  0  0
  7  1  1  0  0  0  0
 11  3  1  0  0  0  0
 12  4  1  0  0  0  0
 13 22  1  0  0  0  0
 13  5  1  0  0  0  0
 14 23  1  6  0  0  0
 14 13  1  0  0  0  0
 15 14  1  0  0  0  0
 15 24  1  0  0  0  0
 15 25  1  0  0  0  0
 16 27  1  0  0  0  0
 16 15  1  0  0  0  0
 17 16  1  0  0  0  0
 17 18  2  0  0  0  0
 19 20  2  0  0  0  0
 19 14  1  0  0  0  0
 21 17  1  0  0  0  0
 26 16  1  0  0  0  0
 28 21  1  0  0  0  0
 29 19  1  0  0  0  0
 30 31  1  0  0  0  0
 30 29  1  0  0  0  0
 31 33  1  0  0  0  0
 32 31  2  0  0  0  0
 34 29  1  0  0  0  0
 35 30  1  0  0  0  0
 36 30  1  0  0  0  0
M  END
$$$$
