CEI.pdb
 OpenBabel07022418263D

 48 47  0  0  1  0  0  0  0  0999 V2000
    4.1120   -1.6940    2.7480 N   0  0  0  0  0  0  0  0  0  0  0  0
    3.0210   -2.0670    1.8410 C   0  0  1  0  0  0  0  0  0  0  0  0
    2.0020   -2.8850    2.5680 C   0  0  0  0  0  0  0  0  0  0  0  0
    0.6350   -3.4170    1.5260 S   0  0  0  0  0  0  0  0  0  0  0  0
    2.5160   -0.8260    1.2530 C   0  0  0  0  0  0  0  0  0  0  0  0
    3.0160    0.2840    1.6220 O   0  0  0  0  0  0  0  0  0  0  0  0
    4.1940   -0.6720    2.8700 H   0  0  0  0  0  0  0  0  0  0  0  0
    3.9780   -2.1940    3.6550 H   0  0  0  0  0  0  0  0  0  0  0  0
    3.4720   -2.6940    1.0450 H   0  0  0  0  0  0  0  0  0  0  0  0
    2.5350   -3.8150    2.9160 H   0  0  0  0  0  0  0  0  0  0  0  0
    1.6530   -2.3910    3.4980 H   0  0  0  0  0  0  0  0  0  0  0  0
    1.0550   -3.9280    0.3070 H   0  0  0  0  0  0  0  0  0  0  0  0
    1.4920   -0.7160    0.2760 N   0  0  0  0  0  0  0  0  0  0  0  0
    1.0810    0.6000   -0.2440 C   0  0  1  0  0  0  0  0  0  0  0  0
    1.2280    0.5030   -1.7350 C   0  0  0  0  0  0  0  0  0  0  0  0
    2.6450    0.1960   -2.1090 C   0  0  0  0  0  0  0  0  0  0  0  0
    3.5670    1.2680   -1.6910 C   0  0  0  0  0  0  0  0  0  0  0  0
    3.1630    2.3200   -1.1820 O   0  0  0  0  0  0  0  0  0  0  0  0
   -0.3280    0.9200    0.1420 C   0  0  0  0  0  0  0  0  0  0  0  0
   -0.7770    2.0070   -0.2570 O   0  0  0  0  0  0  0  0  0  0  0  0
    4.9570    1.1440   -1.8540 O   0  0  0  0  0  0  0  0  0  0  0  0
    1.0350   -1.5600   -0.0780 H   0  0  0  0  0  0  0  0  0  0  0  0
    1.7220    1.3420    0.2120 H   0  0  0  0  0  0  0  0  0  0  0  0
    0.5400   -0.2800   -2.1280 H   0  0  0  0  0  0  0  0  0  0  0  0
    0.9400    1.4570   -2.2300 H   0  0  0  0  0  0  0  0  0  0  0  0
    2.7410    0.1000   -3.2150 H   0  0  0  0  0  0  0  0  0  0  0  0
    2.9760   -0.7800   -1.6870 H   0  0  0  0  0  0  0  0  0  0  0  0
    5.5520    1.9180   -1.5910 H   0  0  0  0  0  0  0  0  0  0  0  0
   -3.4840   -2.3470    2.3470 C   0  0  0  0  0  0  0  0  0  0  0  0
   -3.3040   -1.9750    0.9040 C   0  0  0  0  0  0  0  0  0  0  0  0
   -3.4870   -0.5270    0.6000 C   0  0  2  0  0  0  0  0  0  0  0  0
   -3.2640   -0.3530   -0.9030 C   0  0  0  0  0  0  0  0  0  0  0  0
   -2.5190    0.3960    1.2820 C   0  0  2  0  0  0  0  0  0  0  0  0
   -1.1550    0.0820    0.9120 N   0  0  0  0  0  0  0  0  0  0  0  0
   -2.7270    0.5770    2.7200 C   0  0  0  0  0  0  0  0  0  0  0  0
   -1.7740    0.4470    3.5050 O   0  0  0  0  0  0  0  0  0  0  0  0
   -3.9690    0.8900    3.2080 O   0  0  0  0  0  0  0  0  0  0  0  0
   -4.2830   -1.8070    2.8510 H   0  0  0  0  0  0  0  0  0  0  0  0
   -3.6790   -3.4260    2.4900 H   0  0  0  0  0  0  0  0  0  0  0  0
   -2.5280   -2.1150    2.8740 H   0  0  0  0  0  0  0  0  0  0  0  0
   -4.1130   -2.5200    0.3410 H   0  0  0  0  0  0  0  0  0  0  0  0
   -2.3430   -2.2950    0.4860 H   0  0  0  0  0  0  0  0  0  0  0  0
   -4.5200   -0.1680    0.7870 H   0  0  0  0  0  0  0  0  0  0  0  0
   -3.0540    0.7140   -1.1340 H   0  0  0  0  0  0  0  0  0  0  0  0
   -4.1090   -0.7560   -1.4940 H   0  0  0  0  0  0  0  0  0  0  0  0
   -2.3430   -0.9140   -1.2310 H   0  0  0  0  0  0  0  0  0  0  0  0
   -2.7150    1.4140    0.8230 H   0  0  0  0  0  0  0  0  0  0  0  0
   -0.7400   -0.8190    1.2290 H   0  0  0  0  0  0  0  0  0  0  0  0
  1  7  1  0  0  0  0
  1  8  1  0  0  0  0
  2  9  1  6  0  0  0
  2  3  1  0  0  0  0
  2  1  1  0  0  0  0
  3 10  1  0  0  0  0
  3 11  1  0  0  0  0
  4  3  1  0  0  0  0
  5  6  2  0  0  0  0
  5  2  1  0  0  0  0
 12  4  1  0  0  0  0
 13  5  1  0  0  0  0
 14 19  1  0  0  0  0
 14 23  1  1  0  0  0
 14 13  1  0  0  0  0
 15 14  1  0  0  0  0
 16 15  1  0  0  0  0
 16 17  1  0  0  0  0
 16 27  1  0  0  0  0
 17 18  2  0  0  0  0
 19 34  1  0  0  0  0
 20 19  2  0  0  0  0
 21 17  1  0  0  0  0
 21 28  1  0  0  0  0
 22 13  1  0  0  0  0
 24 15  1  0  0  0  0
 25 15  1  0  0  0  0
 26 16  1  0  0  0  0
 29 39  1  0  0  0  0
 29 38  1  0  0  0  0
 29 40  1  0  0  0  0
 30 29  1  0  0  0  0
 31 43  1  1  0  0  0
 31 30  1  0  0  0  0
 31 33  1  0  0  0  0
 32 31  1  0  0  0  0
 33 47  1  6  0  0  0
 33 35  1  0  0  0  0
 34 48  1  0  0  0  0
 34 33  1  0  0  0  0
 35 37  2  0  0  0  0
 35 36  1  0  0  0  0
 41 30  1  0  0  0  0
 42 30  1  0  0  0  0
 44 32  1  0  0  0  0
 45 32  1  0  0  0  0
 46 32  1  0  0  0  0
M  END
$$$$
