CEK.pdb
 OpenBabel07022418263D

 50 49  0  0  1  0  0  0  0  0999 V2000
    2.0830   -2.8710    4.7720 N   0  0  0  0  0  0  0  0  0  0  0  0
    2.2060   -2.7960    3.2990 C   0  0  1  0  0  0  0  0  0  0  0  0
    1.1230   -3.6610    2.7260 C   0  0  0  0  0  0  0  0  0  0  0  0
    1.1290   -3.7250    0.9330 S   0  0  0  0  0  0  0  0  0  0  0  0
    2.0650   -1.3880    2.9430 C   0  0  0  0  0  0  0  0  0  0  0  0
    1.8960   -0.5130    3.8680 O   0  0  0  0  0  0  0  0  0  0  0  0
    1.0480   -2.9520    4.9650 H   0  0  0  0  0  0  0  0  0  0  0  0
    2.5260   -3.7430    5.1190 H   0  0  0  0  0  0  0  0  0  0  0  0
    3.2140   -3.1880    3.0490 H   0  0  0  0  0  0  0  0  0  0  0  0
    1.2490   -4.6840    3.1610 H   0  0  0  0  0  0  0  0  0  0  0  0
    0.1370   -3.2770    3.0950 H   0  0  0  0  0  0  0  0  0  0  0  0
   -0.1790   -3.5620    0.4360 H   0  0  0  0  0  0  0  0  0  0  0  0
    2.0970   -0.8380    1.6350 N   0  0  0  0  0  0  0  0  0  0  0  0
    1.9600    0.5950    1.3860 C   0  0  1  0  0  0  0  0  0  0  0  0
    3.1310    1.1350    0.6270 C   0  0  0  0  0  0  0  0  0  0  0  0
    4.4320    0.9490    1.3430 C   0  0  0  0  0  0  0  0  0  0  0  0
    4.4580    1.6770    2.6240 C   0  0  0  0  0  0  0  0  0  0  0  0
    3.5480    2.4270    3.0380 O   0  0  0  0  0  0  0  0  0  0  0  0
    0.6680    0.8960    0.6790 C   0  0  0  0  0  0  0  0  0  0  0  0
    0.3790    2.0770    0.3560 O   0  0  0  0  0  0  0  0  0  0  0  0
    5.5610    1.5590    3.4900 O   0  0  0  0  0  0  0  0  0  0  0  0
    2.2240   -1.4710    0.8340 H   0  0  0  0  0  0  0  0  0  0  0  0
    1.9070    1.0740    2.3670 H   0  0  0  0  0  0  0  0  0  0  0  0
    3.2260    0.6470   -0.3700 H   0  0  0  0  0  0  0  0  0  0  0  0
    3.0100    2.2530    0.5040 H   0  0  0  0  0  0  0  0  0  0  0  0
    4.5490   -0.1450    1.5860 H   0  0  0  0  0  0  0  0  0  0  0  0
    5.3070    1.2280    0.7100 H   0  0  0  0  0  0  0  0  0  0  0  0
    5.5230    1.7580    4.4600 H   0  0  0  0  0  0  0  0  0  0  0  0
   -0.2570   -0.0840    0.3490 N   0  0  0  0  0  0  0  0  0  0  0  0
   -1.5500    0.1740   -0.3530 C   0  0  1  0  0  0  0  0  0  0  0  0
   -1.5360   -0.4740   -1.6450 C   0  0  0  0  0  0  0  0  0  0  0  0
   -2.4640   -0.5550   -2.7010 C   0  0  0  0  0  0  0  0  0  0  0  0
   -3.7670   -1.1340   -2.8650 C   0  0  0  0  0  0  0  0  0  0  0  0
   -4.9780   -0.8110   -2.1180 C   0  0  0  0  0  0  0  0  0  0  0  0
   -5.4170    0.5460   -2.1430 N   0  0  0  0  0  0  0  0  0  0  0  0
   -2.5210   -0.2150    0.6490 C   0  0  0  0  0  0  0  0  0  0  0  0
   -3.7190    0.1040    0.5550 O   0  0  0  0  0  0  0  0  0  0  0  0
   -2.1730   -0.9610    1.7610 O   0  0  0  0  0  0  0  0  0  0  0  0
   -0.1160   -1.0860    0.5740 H   0  0  0  0  0  0  0  0  0  0  0  0
   -1.4980    1.2990   -0.4980 H   0  0  0  0  0  0  0  0  0  0  0  0
   -1.1860   -1.5710   -1.3990 H   0  0  0  0  0  0  0  0  0  0  0  0
   -0.5170   -0.1290   -2.1200 H   0  0  0  0  0  0  0  0  0  0  0  0
   -1.8770   -0.9820   -3.6340 H   0  0  0  0  0  0  0  0  0  0  0  0
   -2.5790    0.5260   -3.1710 H   0  0  0  0  0  0  0  0  0  0  0  0
   -3.7390   -2.2940   -2.9520 H   0  0  0  0  0  0  0  0  0  0  0  0
   -4.0470   -0.9320   -3.9720 H   0  0  0  0  0  0  0  0  0  0  0  0
   -5.0310   -1.3380   -1.1500 H   0  0  0  0  0  0  0  0  0  0  0  0
   -5.8580   -1.3500   -2.6660 H   0  0  0  0  0  0  0  0  0  0  0  0
   -4.7850    1.2230   -2.5660 H   0  0  0  0  0  0  0  0  0  0  0  0
   -5.7050    0.8500   -1.1930 H   0  0  0  0  0  0  0  0  0  0  0  0
  1  7  1  0  0  0  0
  1  8  1  0  0  0  0
  2  9  1  6  0  0  0
  2  1  1  0  0  0  0
  3 11  1  0  0  0  0
  3 10  1  0  0  0  0
  3  2  1  0  0  0  0
  4  3  1  0  0  0  0
  5  2  1  0  0  0  0
  5  6  2  0  0  0  0
 12  4  1  0  0  0  0
 13  5  1  0  0  0  0
 14 13  1  0  0  0  0
 14 23  1  1  0  0  0
 15 16  1  0  0  0  0
 15 14  1  0  0  0  0
 16 26  1  0  0  0  0
 16 17  1  0  0  0  0
 17 18  2  0  0  0  0
 17 21  1  0  0  0  0
 19 14  1  0  0  0  0
 20 19  2  0  0  0  0
 21 28  1  0  0  0  0
 22 13  1  0  0  0  0
 24 15  1  0  0  0  0
 25 15  1  0  0  0  0
 27 16  1  0  0  0  0
 29 39  1  0  0  0  0
 29 19  1  0  0  0  0
 30 40  1  6  0  0  0
 30 29  1  0  0  0  0
 30 36  1  0  0  0  0
 31 41  1  0  0  0  0
 31 30  1  0  0  0  0
 32 31  1  0  0  0  0
 33 32  1  0  0  0  0
 33 34  1  0  0  0  0
 34 47  1  0  0  0  0
 35 34  1  0  0  0  0
 35 50  1  0  0  0  0
 36 38  1  0  0  0  0
 37 36  2  0  0  0  0
 42 31  1  0  0  0  0
 43 32  1  0  0  0  0
 44 32  1  0  0  0  0
 45 33  1  0  0  0  0
 46 33  1  0  0  0  0
 48 34  1  0  0  0  0
 49 35  1  0  0  0  0
M  END
$$$$
