CEP.pdb
 OpenBabel07022418263D

 43 43  0  0  1  0  0  0  0  0999 V2000
    1.0120   -5.0330    0.2150 N   0  0  0  0  0  0  0  0  0  0  0  0
    0.1690   -3.9400   -0.3400 C   0  0  1  0  0  0  0  0  0  0  0  0
   -1.0810   -3.9670    0.4630 C   0  0  0  0  0  0  0  0  0  0  0  0
   -2.3320   -2.7630   -0.0320 S   0  0  0  0  0  0  0  0  0  0  0  0
    0.9510   -2.6930   -0.3260 C   0  0  0  0  0  0  0  0  0  0  0  0
    2.2100   -2.8370   -0.1020 O   0  0  0  0  0  0  0  0  0  0  0  0
    0.8860   -5.0710    1.2560 H   0  0  0  0  0  0  0  0  0  0  0  0
    2.0160   -4.7720    0.0590 H   0  0  0  0  0  0  0  0  0  0  0  0
   -0.0250   -4.2840   -1.3870 H   0  0  0  0  0  0  0  0  0  0  0  0
   -1.5830   -4.9760    0.3580 H   0  0  0  0  0  0  0  0  0  0  0  0
   -0.8690   -3.9120    1.5620 H   0  0  0  0  0  0  0  0  0  0  0  0
   -3.3190   -2.7370    0.9890 H   0  0  0  0  0  0  0  0  0  0  0  0
    0.5120   -1.3860   -0.5260 N   0  0  0  0  0  0  0  0  0  0  0  0
    1.4230   -0.2350   -0.5100 C   0  0  1  0  0  0  0  0  0  0  0  0
    1.3030    0.4980   -1.7940 C   0  0  0  0  0  0  0  0  0  0  0  0
    2.0420    1.7370   -2.0290 C   0  0  0  0  0  0  0  0  0  0  0  0
    1.6290    2.9320   -1.2590 C   0  0  0  0  0  0  0  0  0  0  0  0
    0.5420    3.0040   -0.6300 O   0  0  0  0  0  0  0  0  0  0  0  0
    1.4750    0.5500    0.6880 C   0  0  0  0  0  0  0  0  0  0  0  0
    2.4690    1.3830    0.7650 O   0  0  0  0  0  0  0  0  0  0  0  0
    2.4500    4.0560   -1.1960 O   0  0  0  0  0  0  0  0  0  0  0  0
   -0.5120   -1.2260   -0.7010 H   0  0  0  0  0  0  0  0  0  0  0  0
    2.4550   -0.7530   -0.5790 H   0  0  0  0  0  0  0  0  0  0  0  0
    0.1990    0.7300   -1.9430 H   0  0  0  0  0  0  0  0  0  0  0  0
    1.5120   -0.1900   -2.6730 H   0  0  0  0  0  0  0  0  0  0  0  0
    1.9680    1.9950   -3.1320 H   0  0  0  0  0  0  0  0  0  0  0  0
    3.1380    1.5640   -1.8520 H   0  0  0  0  0  0  0  0  0  0  0  0
    2.3960    4.6080   -0.3260 H   0  0  0  0  0  0  0  0  0  0  0  0
    0.6090    0.5590    1.8070 N   0  0  0  0  0  0  0  0  0  0  0  0
    0.7860    1.4540    2.9600 C   0  0  0  0  0  0  0  0  0  0  0  0
    0.5150    0.5860    4.1480 C   0  0  0  0  0  0  0  0  0  0  0  0
   -0.5870   -0.2970    3.6480 C   0  0  0  0  0  0  0  0  0  0  0  0
   -0.5560   -0.2090    2.1340 C   0  0  1  0  0  0  0  0  0  0  0  0
   -1.8240    0.4360    1.7200 C   0  0  0  0  0  0  0  0  0  0  0  0
   -2.8950   -0.1630    1.9790 O   0  0  0  0  0  0  0  0  0  0  0  0
   -1.9020    1.6540    1.0680 O   0  0  0  0  0  0  0  0  0  0  0  0
    1.7820    1.8960    2.9950 H   0  0  0  0  0  0  0  0  0  0  0  0
    0.0030    2.2370    2.9310 H   0  0  0  0  0  0  0  0  0  0  0  0
    0.1080    1.1870    4.9960 H   0  0  0  0  0  0  0  0  0  0  0  0
    1.4000    0.0160    4.4870 H   0  0  0  0  0  0  0  0  0  0  0  0
   -0.3300   -1.3380    3.9250 H   0  0  0  0  0  0  0  0  0  0  0  0
   -1.5710   -0.0800    4.0740 H   0  0  0  0  0  0  0  0  0  0  0  0
   -0.5400   -1.2240    1.6850 H   0  0  0  0  0  0  0  0  0  0  0  0
  1  7  1  0  0  0  0
  2  9  1  6  0  0  0
  2  5  1  0  0  0  0
  2  1  1  0  0  0  0
  2  3  1  0  0  0  0
  3 11  1  0  0  0  0
  4  3  1  0  0  0  0
  4 12  1  0  0  0  0
  5  6  2  0  0  0  0
  8  1  1  0  0  0  0
 10  3  1  0  0  0  0
 13 14  1  0  0  0  0
 13  5  1  0  0  0  0
 14 23  1  6  0  0  0
 14 19  1  0  0  0  0
 15 14  1  0  0  0  0
 16 27  1  0  0  0  0
 16 15  1  0  0  0  0
 16 17  1  0  0  0  0
 17 21  1  0  0  0  0
 17 18  2  0  0  0  0
 19 20  2  0  0  0  0
 19 29  1  0  0  0  0
 21 28  1  0  0  0  0
 22 13  1  0  0  0  0
 24 15  1  0  0  0  0
 25 15  1  0  0  0  0
 26 16  1  0  0  0  0
 29 33  1  0  0  0  0
 29 30  1  0  0  0  0
 30 37  1  0  0  0  0
 30 31  1  0  0  0  0
 31 40  1  0  0  0  0
 31 39  1  0  0  0  0
 32 41  1  0  0  0  0
 32 42  1  0  0  0  0
 32 31  1  0  0  0  0
 33 43  1  6  0  0  0
 33 32  1  0  0  0  0
 34 35  1  0  0  0  0
 34 33  1  0  0  0  0
 36 34  2  0  0  0  0
 38 30  1  0  0  0  0
M  END
$$$$
