CER.pdb
 OpenBabel07022418263D

 52 51  0  0  1  0  0  0  0  0999 V2000
    1.5610   -1.8980    3.8660 N   0  0  0  0  0  0  0  0  0  0  0  0
    0.3690   -1.1310    4.1510 C   0  0  1  0  0  0  0  0  0  0  0  0
    0.4650   -0.4080    5.4740 C   0  0  0  0  0  0  0  0  0  0  0  0
    1.8330    0.7420    5.5520 S   0  0  0  0  0  0  0  0  0  0  0  0
    0.1340   -0.2030    3.0200 C   0  0  0  0  0  0  0  0  0  0  0  0
   -0.8770    0.5500    3.0940 O   0  0  0  0  0  0  0  0  0  0  0  0
    1.2980   -2.6330    3.1660 H   0  0  0  0  0  0  0  0  0  0  0  0
    1.9090   -2.3580    4.7230 H   0  0  0  0  0  0  0  0  0  0  0  0
   -0.4640   -1.8580    4.2430 H   0  0  0  0  0  0  0  0  0  0  0  0
    0.6350   -1.2050    6.2480 H   0  0  0  0  0  0  0  0  0  0  0  0
   -0.4870    0.0760    5.7480 H   0  0  0  0  0  0  0  0  0  0  0  0
    1.4360    2.0610    5.3180 H   0  0  0  0  0  0  0  0  0  0  0  0
    1.0090   -0.1640    1.9030 N   0  0  0  0  0  0  0  0  0  0  0  0
    0.7680    0.7650    0.7760 C   0  0  1  0  0  0  0  0  0  0  0  0
    1.9050    1.7070    0.6600 C   0  0  0  0  0  0  0  0  0  0  0  0
    1.8210    2.7200   -0.4390 C   0  0  0  0  0  0  0  0  0  0  0  0
    0.6560    3.5990   -0.2910 C   0  0  0  0  0  0  0  0  0  0  0  0
    0.3500    4.4290   -1.2140 O   0  0  0  0  0  0  0  0  0  0  0  0
    0.4610   -0.0180   -0.4540 C   0  0  0  0  0  0  0  0  0  0  0  0
    0.1730    0.5460   -1.5330 O   0  0  0  0  0  0  0  0  0  0  0  0
   -0.1470    3.5850    0.8140 O   0  0  0  0  0  0  0  0  0  0  0  0
    1.8350   -0.8060    1.8860 H   0  0  0  0  0  0  0  0  0  0  0  0
   -0.1440    1.3280    1.0330 H   0  0  0  0  0  0  0  0  0  0  0  0
    2.8970    1.2120    0.5570 H   0  0  0  0  0  0  0  0  0  0  0  0
    2.0020    2.3080    1.6150 H   0  0  0  0  0  0  0  0  0  0  0  0
    1.7740    2.1700   -1.4260 H   0  0  0  0  0  0  0  0  0  0  0  0
    2.7690    3.3240   -0.4040 H   0  0  0  0  0  0  0  0  0  0  0  0
   -0.7040    4.3730    1.1420 H   0  0  0  0  0  0  0  0  0  0  0  0
   -2.2990   -2.5200    1.6380 N   0  0  0  0  0  0  0  0  0  0  0  0
   -2.8750   -2.1010    0.4190 C   0  0  0  0  0  0  0  0  0  0  0  0
   -3.4770   -0.9840    0.3560 N   0  0  0  0  0  0  0  0  0  0  0  0
   -2.7810   -2.9250   -0.7320 N   0  0  0  0  0  0  0  0  0  0  0  0
   -2.9530   -2.4350   -2.0640 C   0  0  0  0  0  0  0  0  0  0  0  0
   -1.9160   -1.4790   -2.5780 C   0  0  0  0  0  0  0  0  0  0  0  0
   -0.5190   -1.9600   -2.6770 C   0  0  0  0  0  0  0  0  0  0  0  0
    0.2110   -2.3550   -1.4630 C   0  0  2  0  0  0  0  0  0  0  0  0
    0.4840   -1.4240   -0.4460 N   0  0  0  0  0  0  0  0  0  0  0  0
    1.4010   -3.1630   -1.8100 C   0  0  0  0  0  0  0  0  0  0  0  0
    1.3270   -4.0340   -2.6980 O   0  0  0  0  0  0  0  0  0  0  0  0
    2.5940   -2.9550   -1.1500 O   0  0  0  0  0  0  0  0  0  0  0  0
   -2.7350   -2.2540    2.5420 H   0  0  0  0  0  0  0  0  0  0  0  0
   -1.4400   -3.0940    1.6180 H   0  0  0  0  0  0  0  0  0  0  0  0
   -3.9330   -0.5730   -0.4700 H   0  0  0  0  0  0  0  0  0  0  0  0
   -2.5950   -3.9480   -0.5700 H   0  0  0  0  0  0  0  0  0  0  0  0
   -3.9280   -1.8740   -2.1010 H   0  0  0  0  0  0  0  0  0  0  0  0
   -3.1010   -3.2980   -2.7780 H   0  0  0  0  0  0  0  0  0  0  0  0
   -2.2600   -1.2620   -3.6550 H   0  0  0  0  0  0  0  0  0  0  0  0
   -2.0750   -0.5450   -1.9840 H   0  0  0  0  0  0  0  0  0  0  0  0
   -0.5910   -2.9240   -3.2950 H   0  0  0  0  0  0  0  0  0  0  0  0
    0.0970   -1.3270   -3.3800 H   0  0  0  0  0  0  0  0  0  0  0  0
   -0.5130   -3.1120   -0.9700 H   0  0  0  0  0  0  0  0  0  0  0  0
    0.7590   -1.8730    0.4960 H   0  0  0  0  0  0  0  0  0  0  0  0
  1  2  1  0  0  0  0
  1  8  1  0  0  0  0
  2  9  1  1  0  0  0
  2  3  1  0  0  0  0
  3  4  1  0  0  0  0
  3 11  1  0  0  0  0
  3 10  1  0  0  0  0
  5  6  2  0  0  0  0
  5  2  1  0  0  0  0
  7  1  1  0  0  0  0
 12  4  1  0  0  0  0
 13  5  1  0  0  0  0
 14 23  1  1  0  0  0
 14 13  1  0  0  0  0
 15 14  1  0  0  0  0
 15 25  1  0  0  0  0
 16 27  1  0  0  0  0
 16 17  1  0  0  0  0
 16 15  1  0  0  0  0
 17 21  1  0  0  0  0
 18 17  2  0  0  0  0
 19 37  1  0  0  0  0
 19 14  1  0  0  0  0
 20 19  2  0  0  0  0
 21 28  1  0  0  0  0
 22 13  1  0  0  0  0
 24 15  1  0  0  0  0
 26 16  1  0  0  0  0
 29 41  1  0  0  0  0
 30 29  1  0  0  0  0
 31 30  2  0  0  0  0
 32 44  1  0  0  0  0
 32 30  1  0  0  0  0
 33 32  1  0  0  0  0
 34 33  1  0  0  0  0
 34 48  1  0  0  0  0
 35 34  1  0  0  0  0
 35 36  1  0  0  0  0
 36 51  1  1  0  0  0
 36 37  1  0  0  0  0
 37 52  1  0  0  0  0
 38 36  1  0  0  0  0
 38 40  1  0  0  0  0
 39 38  2  0  0  0  0
 42 29  1  0  0  0  0
 43 31  1  0  0  0  0
 45 33  1  0  0  0  0
 46 33  1  0  0  0  0
 47 34  1  0  0  0  0
 49 35  1  0  0  0  0
 50 35  1  0  0  0  0
M  END
$$$$
