CEV.pdb
 OpenBabel07022418273D

 45 44  0  0  1  0  0  0  0  0999 V2000
    3.4370   -5.0400    0.0480 N   0  0  0  0  0  0  0  0  0  0  0  0
    2.3100   -4.3420   -0.5740 C   0  0  1  0  0  0  0  0  0  0  0  0
    1.1110   -5.2230   -0.3510 C   0  0  0  0  0  0  0  0  0  0  0  0
   -0.4170   -4.5640   -1.0360 S   0  0  0  0  0  0  0  0  0  0  0  0
    2.1810   -2.9770   -0.0410 C   0  0  0  0  0  0  0  0  0  0  0  0
    2.9450   -2.6410    0.8990 O   0  0  0  0  0  0  0  0  0  0  0  0
    3.3080   -6.0520   -0.2540 H   0  0  0  0  0  0  0  0  0  0  0  0
    3.2200   -5.0720    1.0940 H   0  0  0  0  0  0  0  0  0  0  0  0
    2.5130   -4.2820   -1.6610 H   0  0  0  0  0  0  0  0  0  0  0  0
    1.3400   -6.1670   -0.9380 H   0  0  0  0  0  0  0  0  0  0  0  0
    1.0390   -5.5520    0.6920 H   0  0  0  0  0  0  0  0  0  0  0  0
   -1.3830   -4.3930   -0.0060 H   0  0  0  0  0  0  0  0  0  0  0  0
    1.2660   -2.0220   -0.5090 N   0  0  0  0  0  0  0  0  0  0  0  0
    1.1870   -0.6420    0.0720 C   0  0  1  0  0  0  0  0  0  0  0  0
    1.6020    0.2640   -1.0380 C   0  0  0  0  0  0  0  0  0  0  0  0
    1.6760    1.7140   -0.7940 C   0  0  0  0  0  0  0  0  0  0  0  0
    2.6100    2.1320    0.2470 C   0  0  0  0  0  0  0  0  0  0  0  0
    2.5760    1.6460    1.3920 O   0  0  0  0  0  0  0  0  0  0  0  0
   -0.2230   -0.4330    0.4530 C   0  0  0  0  0  0  0  0  0  0  0  0
   -1.0710   -1.3450    0.1800 O   0  0  0  0  0  0  0  0  0  0  0  0
    3.5820    3.1060   -0.0200 O   0  0  0  0  0  0  0  0  0  0  0  0
    0.6200   -2.2670   -1.2820 H   0  0  0  0  0  0  0  0  0  0  0  0
    1.9030   -0.5930    0.8910 H   0  0  0  0  0  0  0  0  0  0  0  0
    0.8280    0.1160   -1.8560 H   0  0  0  0  0  0  0  0  0  0  0  0
    2.5430   -0.1070   -1.5260 H   0  0  0  0  0  0  0  0  0  0  0  0
    0.6600    2.1930   -0.7050 H   0  0  0  0  0  0  0  0  0  0  0  0
    2.0490    2.1720   -1.7740 H   0  0  0  0  0  0  0  0  0  0  0  0
    4.4520    3.1030    0.5490 H   0  0  0  0  0  0  0  0  0  0  0  0
   -1.7260    2.3980    3.2160 C   0  0  0  0  0  0  0  0  0  0  0  0
   -2.3870    1.0970    2.8900 C   0  0  0  0  0  0  0  0  0  0  0  0
   -1.8250    0.0030    3.7820 C   0  0  0  0  0  0  0  0  0  0  0  0
   -2.1820    0.7950    1.4320 C   0  0  2  0  0  0  0  0  0  0  0  0
   -0.7660    0.7000    1.1100 N   0  0  0  0  0  0  0  0  0  0  0  0
   -2.8420    1.8820    0.6380 C   0  0  0  0  0  0  0  0  0  0  0  0
   -2.2260    2.5910   -0.1790 O   0  0  0  0  0  0  0  0  0  0  0  0
   -4.1940    2.0670    0.8590 O   0  0  0  0  0  0  0  0  0  0  0  0
   -2.4040    3.0100    3.8730 H   0  0  0  0  0  0  0  0  0  0  0  0
   -0.7580    2.1940    3.7600 H   0  0  0  0  0  0  0  0  0  0  0  0
   -1.5580    2.9770    2.2770 H   0  0  0  0  0  0  0  0  0  0  0  0
   -3.4740    1.1720    3.1450 H   0  0  0  0  0  0  0  0  0  0  0  0
   -0.7160   -0.0650    3.6280 H   0  0  0  0  0  0  0  0  0  0  0  0
   -2.2620   -0.9620    3.4120 H   0  0  0  0  0  0  0  0  0  0  0  0
   -2.1130    0.1270    4.8300 H   0  0  0  0  0  0  0  0  0  0  0  0
   -2.7250   -0.1330    1.1670 H   0  0  0  0  0  0  0  0  0  0  0  0
   -0.1180    1.4670    1.3700 H   0  0  0  0  0  0  0  0  0  0  0  0
  1  8  1  0  0  0  0
  2  9  1  6  0  0  0
  2  3  1  0  0  0  0
  2  5  1  0  0  0  0
  2  1  1  0  0  0  0
  3 11  1  0  0  0  0
  4  3  1  0  0  0  0
  4 12  1  0  0  0  0
  5  6  2  0  0  0  0
  7  1  1  0  0  0  0
 10  3  1  0  0  0  0
 13  5  1  0  0  0  0
 13 14  1  0  0  0  0
 14 19  1  0  0  0  0
 14 23  1  1  0  0  0
 15 16  1  0  0  0  0
 15 14  1  0  0  0  0
 16 26  1  0  0  0  0
 16 17  1  0  0  0  0
 17 18  2  0  0  0  0
 19 33  1  0  0  0  0
 20 19  2  0  0  0  0
 21 17  1  0  0  0  0
 21 28  1  0  0  0  0
 22 13  1  0  0  0  0
 24 15  1  0  0  0  0
 25 15  1  0  0  0  0
 27 16  1  0  0  0  0
 29 38  1  0  0  0  0
 29 37  1  0  0  0  0
 30 40  1  0  0  0  0
 30 29  1  0  0  0  0
 30 31  1  0  0  0  0
 31 43  1  0  0  0  0
 32 44  1  6  0  0  0
 32 30  1  0  0  0  0
 33 45  1  0  0  0  0
 33 32  1  0  0  0  0
 34 36  1  0  0  0  0
 34 32  1  0  0  0  0
 35 34  2  0  0  0  0
 39 29  1  0  0  0  0
 41 31  1  0  0  0  0
 42 31  1  0  0  0  0
M  END
$$$$
