CEY.pdb
 OpenBabel07022418273D

 50 50  0  0  1  0  0  0  0  0999 V2000
    3.8170   -2.3140    1.6950 N   0  0  0  0  0  0  0  0  0  0  0  0
    2.8690   -1.6200    0.8520 C   0  0  1  0  0  0  0  0  0  0  0  0
    1.8200   -2.6660    0.4480 C   0  0  0  0  0  0  0  0  0  0  0  0
    1.0620   -3.2800    1.9900 S   0  0  0  0  0  0  0  0  0  0  0  0
    2.2350   -0.5330    1.6380 C   0  0  0  0  0  0  0  0  0  0  0  0
    2.5290   -0.3710    2.8310 O   0  0  0  0  0  0  0  0  0  0  0  0
    3.3530   -3.1170    2.1530 H   0  0  0  0  0  0  0  0  0  0  0  0
    4.6280   -2.6830    1.1540 H   0  0  0  0  0  0  0  0  0  0  0  0
    3.3850   -1.2320   -0.0510 H   0  0  0  0  0  0  0  0  0  0  0  0
    2.3170   -3.4560   -0.1200 H   0  0  0  0  0  0  0  0  0  0  0  0
    1.0260   -2.2380   -0.1720 H   0  0  0  0  0  0  0  0  0  0  0  0
    1.0370   -2.2430    2.9650 H   0  0  0  0  0  0  0  0  0  0  0  0
    1.2800    0.3640    1.0780 N   0  0  0  0  0  0  0  0  0  0  0  0
    0.6430    1.4370    1.8110 C   0  0  1  0  0  0  0  0  0  0  0  0
    0.8940    2.7750    1.1810 C   0  0  0  0  0  0  0  0  0  0  0  0
    2.3410    3.1560    1.0850 C   0  0  0  0  0  0  0  0  0  0  0  0
    2.9890    3.2620    2.3870 C   0  0  0  0  0  0  0  0  0  0  0  0
    2.3760    3.1070    3.4650 O   0  0  0  0  0  0  0  0  0  0  0  0
   -0.8350    1.1710    1.8260 C   0  0  0  0  0  0  0  0  0  0  0  0
   -1.6200    1.9750    2.3940 O   0  0  0  0  0  0  0  0  0  0  0  0
    4.3610    3.5490    2.5300 O   0  0  0  0  0  0  0  0  0  0  0  0
    1.0340    0.2240    0.0750 H   0  0  0  0  0  0  0  0  0  0  0  0
    0.9380    1.4740    2.8620 H   0  0  0  0  0  0  0  0  0  0  0  0
    0.4040    3.5830    1.7990 H   0  0  0  0  0  0  0  0  0  0  0  0
    0.4220    2.7960    0.1700 H   0  0  0  0  0  0  0  0  0  0  0  0
    2.8740    2.4540    0.3890 H   0  0  0  0  0  0  0  0  0  0  0  0
    2.3800    4.1510    0.5610 H   0  0  0  0  0  0  0  0  0  0  0  0
    4.9200    3.1260    3.2650 H   0  0  0  0  0  0  0  0  0  0  0  0
   -1.0490   -4.6480   -3.1170 O   0  0  0  0  0  0  0  0  0  0  0  0
   -1.5740   -3.5720   -2.4150 C   0  0  0  0  0  0  0  0  0  0  0  0
   -1.0440   -2.3020   -2.4510 C   0  0  0  0  0  0  0  0  0  0  0  0
   -1.5960   -1.2680   -1.7400 C   0  0  0  0  0  0  0  0  0  0  0  0
   -2.7010   -1.4870   -0.9710 C   0  0  0  0  0  0  0  0  0  0  0  0
   -3.3420   -0.4080   -0.1840 C   0  0  0  0  0  0  0  0  0  0  0  0
   -2.7910   -0.2710    1.1950 C   0  0  2  0  0  0  0  0  0  0  0  0
   -1.3770    0.0290    1.2120 N   0  0  0  0  0  0  0  0  0  0  0  0
   -3.0280   -1.4680    2.0400 C   0  0  0  0  0  0  0  0  0  0  0  0
   -4.1930   -1.9480    2.2000 O   0  0  0  0  0  0  0  0  0  0  0  0
   -3.2270   -2.7550   -0.9370 C   0  0  0  0  0  0  0  0  0  0  0  0
   -2.6890   -3.7940   -1.6390 C   0  0  0  0  0  0  0  0  0  0  0  0
   -1.9890   -2.1220    2.6980 O   0  0  0  0  0  0  0  0  0  0  0  0
   -0.1570   -4.6040   -3.5620 H   0  0  0  0  0  0  0  0  0  0  0  0
   -0.1580   -2.1720   -3.0790 H   0  0  0  0  0  0  0  0  0  0  0  0
   -1.1320   -0.2860   -1.8080 H   0  0  0  0  0  0  0  0  0  0  0  0
   -3.2910    0.5210   -0.7510 H   0  0  0  0  0  0  0  0  0  0  0  0
   -4.4240   -0.6620   -0.0860 H   0  0  0  0  0  0  0  0  0  0  0  0
   -3.3650    0.5560    1.7100 H   0  0  0  0  0  0  0  0  0  0  0  0
   -0.7320   -0.6370    0.7450 H   0  0  0  0  0  0  0  0  0  0  0  0
   -4.1140   -2.9870   -0.3380 H   0  0  0  0  0  0  0  0  0  0  0  0
   -3.1210   -4.7960   -1.6000 H   0  0  0  0  0  0  0  0  0  0  0  0
  1  7  1  0  0  0  0
  2  9  1  6  0  0  0
  2  5  1  0  0  0  0
  2  1  1  0  0  0  0
  3  2  1  0  0  0  0
  3  4  1  0  0  0  0
  4 12  1  0  0  0  0
  5  6  2  0  0  0  0
  8  1  1  0  0  0  0
 10  3  1  0  0  0  0
 11  3  1  0  0  0  0
 13  5  1  0  0  0  0
 13 14  1  0  0  0  0
 14 19  1  0  0  0  0
 14 23  1  1  0  0  0
 15 24  1  0  0  0  0
 15 14  1  0  0  0  0
 16 15  1  0  0  0  0
 16 17  1  0  0  0  0
 17 21  1  0  0  0  0
 17 18  2  0  0  0  0
 19 20  2  0  0  0  0
 21 28  1  0  0  0  0
 22 13  1  0  0  0  0
 25 15  1  0  0  0  0
 26 16  1  0  0  0  0
 27 16  1  0  0  0  0
 29 30  1  0  0  0  0
 30 40  1  0  0  0  0
 31 30  2  0  0  0  0
 31 32  1  0  0  0  0
 32 33  2  0  0  0  0
 33 39  1  0  0  0  0
 33 34  1  0  0  0  0
 34 46  1  0  0  0  0
 34 35  1  0  0  0  0
 35 36  1  0  0  0  0
 35 47  1  1  0  0  0
 35 37  1  0  0  0  0
 36 19  1  0  0  0  0
 37 38  2  0  0  0  0
 37 41  1  0  0  0  0
 39 49  1  0  0  0  0
 40 50  1  0  0  0  0
 40 39  2  0  0  0  0
 42 29  1  0  0  0  0
 43 31  1  0  0  0  0
 44 32  1  0  0  0  0
 45 34  1  0  0  0  0
 48 36  1  0  0  0  0
M  END
$$$$
