CFA.pdb
 OpenBabel07022418283D

 43 43  0  0  1  0  0  0  0  0999 V2000
    1.4690   -4.4670    2.9920 N   0  0  0  0  0  0  0  0  0  0  0  0
    1.5060   -3.0740    2.5930 C   0  0  1  0  0  0  0  0  0  0  0  0
    2.4200   -2.9790    1.3880 C   0  0  0  0  0  0  0  0  0  0  0  0
    1.7550   -4.0070    0.0690 S   0  0  0  0  0  0  0  0  0  0  0  0
    0.1610   -2.5830    2.1980 C   0  0  0  0  0  0  0  0  0  0  0  0
   -0.8470   -3.3700    2.2390 O   0  0  0  0  0  0  0  0  0  0  0  0
    2.2980   -5.0030    2.6580 H   0  0  0  0  0  0  0  0  0  0  0  0
    0.6310   -4.9470    2.5830 H   0  0  0  0  0  0  0  0  0  0  0  0
    1.9630   -2.4320    3.3970 H   0  0  0  0  0  0  0  0  0  0  0  0
    3.4670   -3.2160    1.6390 H   0  0  0  0  0  0  0  0  0  0  0  0
    2.3990   -1.9270    1.0510 H   0  0  0  0  0  0  0  0  0  0  0  0
    1.2980   -5.2470    0.5000 H   0  0  0  0  0  0  0  0  0  0  0  0
    0.0350   -1.2370    1.7820 N   0  0  0  0  0  0  0  0  0  0  0  0
   -1.2280   -0.6760    1.3810 C   0  0  1  0  0  0  0  0  0  0  0  0
   -1.6740    0.4410    2.2900 C   0  0  0  0  0  0  0  0  0  0  0  0
   -0.7220    1.5720    2.3340 C   0  0  0  0  0  0  0  0  0  0  0  0
   -0.8610    2.5970    1.4440 C   0  0  0  0  0  0  0  0  0  0  0  0
    0.0290    3.6470    1.4900 C   0  0  0  0  0  0  0  0  0  0  0  0
    1.0580    3.6850    2.4160 C   0  0  0  0  0  0  0  0  0  0  0  0
    1.1730    2.6340    3.3030 C   0  0  0  0  0  0  0  0  0  0  0  0
    0.2840    1.5870    3.2550 C   0  0  0  0  0  0  0  0  0  0  0  0
   -1.2250   -0.2670   -0.0490 C   0  0  0  0  0  0  0  0  0  0  0  0
   -2.2420    0.2450   -0.5830 O   0  0  0  0  0  0  0  0  0  0  0  0
    0.8780   -0.6330    1.7630 H   0  0  0  0  0  0  0  0  0  0  0  0
   -1.9900   -1.4790    1.4730 H   0  0  0  0  0  0  0  0  0  0  0  0
   -1.7620    0.0250    3.3140 H   0  0  0  0  0  0  0  0  0  0  0  0
   -2.6670    0.7740    1.9390 H   0  0  0  0  0  0  0  0  0  0  0  0
   -1.6640    2.6130    0.6880 H   0  0  0  0  0  0  0  0  0  0  0  0
   -0.0480    4.4900    0.7940 H   0  0  0  0  0  0  0  0  0  0  0  0
    1.7580    4.5270    2.4400 H   0  0  0  0  0  0  0  0  0  0  0  0
    1.9920    2.6700    4.0350 H   0  0  0  0  0  0  0  0  0  0  0  0
    0.4300    0.7850    3.9850 H   0  0  0  0  0  0  0  0  0  0  0  0
    1.0640    0.9280   -2.5470 C   0  0  0  0  0  0  0  0  0  0  0  0
   -0.0300   -0.0520   -2.2640 C   0  0  2  0  0  0  0  0  0  0  0  0
   -0.0750   -0.4370   -0.8690 N   0  0  0  0  0  0  0  0  0  0  0  0
    0.1270   -1.2660   -3.1390 C   0  0  0  0  0  0  0  0  0  0  0  0
    0.1960   -2.4030   -2.5780 O   0  0  0  0  0  0  0  0  0  0  0  0
    0.1950   -1.1430   -4.5170 O   0  0  0  0  0  0  0  0  0  0  0  0
    0.8450    1.9140   -2.1360 H   0  0  0  0  0  0  0  0  0  0  0  0
    1.1750    0.9990   -3.6590 H   0  0  0  0  0  0  0  0  0  0  0  0
    2.0210    0.5000   -2.1480 H   0  0  0  0  0  0  0  0  0  0  0  0
   -1.0220    0.3730   -2.5250 H   0  0  0  0  0  0  0  0  0  0  0  0
    0.7720   -0.8600   -0.4320 H   0  0  0  0  0  0  0  0  0  0  0  0
  2  1  1  0  0  0  0
  2  9  1  1  0  0  0
  3 10  1  0  0  0  0
  3  2  1  0  0  0  0
  4 12  1  0  0  0  0
  4  3  1  0  0  0  0
  5  6  2  0  0  0  0
  5  2  1  0  0  0  0
  7  1  1  0  0  0  0
  8  1  1  0  0  0  0
 11  3  1  0  0  0  0
 13  5  1  0  0  0  0
 14 25  1  1  0  0  0
 14 13  1  0  0  0  0
 14 15  1  0  0  0  0
 15 16  1  0  0  0  0
 15 26  1  0  0  0  0
 16 21  1  0  0  0  0
 17 18  1  0  0  0  0
 17 16  2  0  0  0  0
 18 19  2  0  0  0  0
 19 30  1  0  0  0  0
 19 20  1  0  0  0  0
 20 31  1  0  0  0  0
 21 20  2  0  0  0  0
 21 32  1  0  0  0  0
 22 14  1  0  0  0  0
 23 22  2  0  0  0  0
 24 13  1  0  0  0  0
 27 15  1  0  0  0  0
 28 17  1  0  0  0  0
 29 18  1  0  0  0  0
 33 34  1  0  0  0  0
 33 41  1  0  0  0  0
 33 39  1  0  0  0  0
 34 42  1  6  0  0  0
 34 35  1  0  0  0  0
 35 43  1  0  0  0  0
 35 22  1  0  0  0  0
 36 37  1  0  0  0  0
 36 34  1  0  0  0  0
 38 36  2  0  0  0  0
 40 33  1  0  0  0  0
M  END
$$$$
