CFC.pdb
 OpenBabel07022418283D

 44 44  0  0  1  0  0  0  0  0999 V2000
    2.6480   -2.5960    1.3980 N   0  0  0  0  0  0  0  0  0  0  0  0
    2.2920   -2.1080    0.0960 C   0  0  1  0  0  0  0  0  0  0  0  0
    1.7440   -3.3060   -0.6890 C   0  0  0  0  0  0  0  0  0  0  0  0
    1.2550   -2.8380   -2.3520 S   0  0  0  0  0  0  0  0  0  0  0  0
    1.3020   -1.0080    0.1480 C   0  0  0  0  0  0  0  0  0  0  0  0
    0.8940   -0.4780   -0.9190 O   0  0  0  0  0  0  0  0  0  0  0  0
    2.1390   -3.4600    1.6420 H   0  0  0  0  0  0  0  0  0  0  0  0
    3.6820   -2.6720    1.5300 H   0  0  0  0  0  0  0  0  0  0  0  0
    3.1640   -1.7520   -0.4820 H   0  0  0  0  0  0  0  0  0  0  0  0
    2.5730   -4.0610   -0.6850 H   0  0  0  0  0  0  0  0  0  0  0  0
    0.9330   -3.7230   -0.0820 H   0  0  0  0  0  0  0  0  0  0  0  0
    0.2390   -3.7040   -2.8050 H   0  0  0  0  0  0  0  0  0  0  0  0
    0.8360   -0.5800    1.4320 N   0  0  0  0  0  0  0  0  0  0  0  0
   -0.1190    0.4730    1.5530 C   0  0  1  0  0  0  0  0  0  0  0  0
    0.4610    1.7680    1.1060 C   0  0  0  0  0  0  0  0  0  0  0  0
    1.6370    2.0840    1.9600 C   0  0  0  0  0  0  0  0  0  0  0  0
    2.9290    1.7160    1.6560 C   0  0  0  0  0  0  0  0  0  0  0  0
    3.9910    2.0280    2.4850 C   0  0  0  0  0  0  0  0  0  0  0  0
    3.8180    2.7260    3.6610 C   0  0  0  0  0  0  0  0  0  0  0  0
    2.5330    3.1030    3.9820 C   0  0  0  0  0  0  0  0  0  0  0  0
    1.4770    2.7920    3.1570 C   0  0  0  0  0  0  0  0  0  0  0  0
   -1.4540    0.1650    0.9960 C   0  0  0  0  0  0  0  0  0  0  0  0
   -2.3270    1.0490    1.0450 O   0  0  0  0  0  0  0  0  0  0  0  0
    1.2370   -1.0830    2.2610 H   0  0  0  0  0  0  0  0  0  0  0  0
   -0.3050    0.6010    2.6680 H   0  0  0  0  0  0  0  0  0  0  0  0
    0.8540    1.6840    0.0600 H   0  0  0  0  0  0  0  0  0  0  0  0
   -0.2680    2.6010    1.0790 H   0  0  0  0  0  0  0  0  0  0  0  0
    3.0960    1.1600    0.7200 H   0  0  0  0  0  0  0  0  0  0  0  0
    4.9940    1.7260    2.2220 H   0  0  0  0  0  0  0  0  0  0  0  0
    4.6680    2.9680    4.3110 H   0  0  0  0  0  0  0  0  0  0  0  0
    2.3930    3.6500    4.9030 H   0  0  0  0  0  0  0  0  0  0  0  0
    0.4540    3.0870    3.4040 H   0  0  0  0  0  0  0  0  0  0  0  0
   -1.8280   -1.0670    0.4040 N   0  0  0  0  0  0  0  0  0  0  0  0
   -3.1210   -1.3560   -0.1330 C   0  0  1  0  0  0  0  0  0  0  0  0
   -3.1400   -1.6850   -1.5890 C   0  0  0  0  0  0  0  0  0  0  0  0
   -2.4890   -0.2870   -2.5260 S   0  0  0  0  0  0  0  0  0  0  0  0
   -3.8160   -2.4380    0.6520 C   0  0  0  0  0  0  0  0  0  0  0  0
   -3.2020   -2.9240    1.6270 O   0  0  0  0  0  0  0  0  0  0  0  0
   -5.0650   -2.8890    0.3320 O   0  0  0  0  0  0  0  0  0  0  0  0
   -1.1140   -1.8260    0.3540 H   0  0  0  0  0  0  0  0  0  0  0  0
   -3.7460   -0.4430    0.0080 H   0  0  0  0  0  0  0  0  0  0  0  0
   -2.6500   -2.6430   -1.8410 H   0  0  0  0  0  0  0  0  0  0  0  0
   -4.2090   -1.8010   -1.8830 H   0  0  0  0  0  0  0  0  0  0  0  0
   -3.1460   -0.2180   -3.7590 H   0  0  0  0  0  0  0  0  0  0  0  0
  1  8  1  0  0  0  0
  1  7  1  0  0  0  0
  2  9  1  6  0  0  0
  2  5  1  0  0  0  0
  2  1  1  0  0  0  0
  3 10  1  0  0  0  0
  3 11  1  0  0  0  0
  3  2  1  0  0  0  0
  4  3  1  0  0  0  0
  5 13  1  0  0  0  0
  6  5  2  0  0  0  0
 12  4  1  0  0  0  0
 13 14  1  0  0  0  0
 13 24  1  0  0  0  0
 14 25  1  1  0  0  0
 15 14  1  0  0  0  0
 15 16  1  0  0  0  0
 16 21  1  0  0  0  0
 17 16  2  0  0  0  0
 17 18  1  0  0  0  0
 18 19  2  0  0  0  0
 19 20  1  0  0  0  0
 19 30  1  0  0  0  0
 20 31  1  0  0  0  0
 21 32  1  0  0  0  0
 21 20  2  0  0  0  0
 22 23  2  0  0  0  0
 22 14  1  0  0  0  0
 26 15  1  0  0  0  0
 27 15  1  0  0  0  0
 28 17  1  0  0  0  0
 29 18  1  0  0  0  0
 33 22  1  0  0  0  0
 34 41  1  1  0  0  0
 34 33  1  0  0  0  0
 34 37  1  0  0  0  0
 35 34  1  0  0  0  0
 36 35  1  0  0  0  0
 37 38  1  0  0  0  0
 39 37  2  0  0  0  0
 40 33  1  0  0  0  0
 42 35  1  0  0  0  0
 43 35  1  0  0  0  0
 44 36  1  0  0  0  0
M  END
$$$$
