CFD.pdb
 OpenBabel07022418283D

 46 46  0  0  1  0  0  0  0  0999 V2000
    1.6450   -1.7860    4.2620 N   0  0  0  0  0  0  0  0  0  0  0  0
    2.0570   -2.3600    2.9960 C   0  0  1  0  0  0  0  0  0  0  0  0
    1.7620   -3.8580    2.9560 C   0  0  0  0  0  0  0  0  0  0  0  0
    2.6870   -4.6320    4.3070 S   0  0  0  0  0  0  0  0  0  0  0  0
    1.3840   -1.6390    1.8910 C   0  0  0  0  0  0  0  0  0  0  0  0
    1.6350   -2.0080    0.7240 O   0  0  0  0  0  0  0  0  0  0  0  0
    2.2650   -0.9380    4.4070 H   0  0  0  0  0  0  0  0  0  0  0  0
    1.7830   -2.4390    5.0690 H   0  0  0  0  0  0  0  0  0  0  0  0
    3.1470   -2.2390    2.8890 H   0  0  0  0  0  0  0  0  0  0  0  0
    2.1880   -4.2360    2.0030 H   0  0  0  0  0  0  0  0  0  0  0  0
    0.6680   -4.0510    3.0390 H   0  0  0  0  0  0  0  0  0  0  0  0
    2.4360   -6.0160    4.2460 H   0  0  0  0  0  0  0  0  0  0  0  0
    0.4840   -0.5660    2.0920 N   0  0  0  0  0  0  0  0  0  0  0  0
   -0.1410    0.0970    0.9720 C   0  0  1  0  0  0  0  0  0  0  0  0
    0.8890    0.8030    0.0820 C   0  0  0  0  0  0  0  0  0  0  0  0
    1.6280    1.8220    0.8210 C   0  0  0  0  0  0  0  0  0  0  0  0
    1.1950    3.1430    0.9310 C   0  0  0  0  0  0  0  0  0  0  0  0
    1.8970    4.1030    1.6240 C   0  0  0  0  0  0  0  0  0  0  0  0
    3.0830    3.7750    2.2470 C   0  0  0  0  0  0  0  0  0  0  0  0
    3.5500    2.4600    2.1590 C   0  0  0  0  0  0  0  0  0  0  0  0
    2.8140    1.5280    1.4530 C   0  0  0  0  0  0  0  0  0  0  0  0
   -0.9480   -0.8390    0.1630 C   0  0  0  0  0  0  0  0  0  0  0  0
   -0.9960   -2.0420    0.5250 O   0  0  0  0  0  0  0  0  0  0  0  0
    0.2850   -0.2680    3.0670 H   0  0  0  0  0  0  0  0  0  0  0  0
   -0.7490    0.9650    1.3750 H   0  0  0  0  0  0  0  0  0  0  0  0
    0.2900    1.2260   -0.7650 H   0  0  0  0  0  0  0  0  0  0  0  0
    1.5930    0.0790   -0.3710 H   0  0  0  0  0  0  0  0  0  0  0  0
    0.2770    3.3920    0.4470 H   0  0  0  0  0  0  0  0  0  0  0  0
    1.5610    5.1280    1.7090 H   0  0  0  0  0  0  0  0  0  0  0  0
    3.6810    4.4880    2.8080 H   0  0  0  0  0  0  0  0  0  0  0  0
    4.4830    2.2140    2.6520 H   0  0  0  0  0  0  0  0  0  0  0  0
    3.2140    0.5300    1.4090 H   0  0  0  0  0  0  0  0  0  0  0  0
   -1.6710   -0.4810   -0.9910 N   0  0  0  0  0  0  0  0  0  0  0  0
   -2.4600   -1.4110   -1.7770 C   0  0  1  0  0  0  0  0  0  0  0  0
   -3.8970   -0.8940   -1.7370 C   0  0  0  0  0  0  0  0  0  0  0  0
   -4.3370   -0.8640   -0.3150 C   0  0  0  0  0  0  0  0  0  0  0  0
   -3.8690   -0.0400    0.5140 O   0  0  0  0  0  0  0  0  0  0  0  0
   -1.9990   -1.4820   -3.1780 C   0  0  0  0  0  0  0  0  0  0  0  0
   -1.0290   -0.7820   -3.5490 O   0  0  0  0  0  0  0  0  0  0  0  0
   -5.2940   -1.7610    0.1480 O   0  0  0  0  0  0  0  0  0  0  0  0
   -2.6080   -2.3040   -4.1110 O   0  0  0  0  0  0  0  0  0  0  0  0
   -1.6380    0.5120   -1.3000 H   0  0  0  0  0  0  0  0  0  0  0  0
   -2.4380   -2.4300   -1.3760 H   0  0  0  0  0  0  0  0  0  0  0  0
   -4.5790   -1.4890   -2.3480 H   0  0  0  0  0  0  0  0  0  0  0  0
   -3.8460    0.1600   -2.0670 H   0  0  0  0  0  0  0  0  0  0  0  0
   -5.2550   -2.1560    1.0840 H   0  0  0  0  0  0  0  0  0  0  0  0
  1  7  1  0  0  0  0
  1  8  1  0  0  0  0
  2  9  1  6  0  0  0
  2  1  1  0  0  0  0
  3  2  1  0  0  0  0
  3 11  1  0  0  0  0
  3  4  1  0  0  0  0
  5 13  1  0  0  0  0
  5  2  1  0  0  0  0
  6  5  2  0  0  0  0
 10  3  1  0  0  0  0
 12  4  1  0  0  0  0
 13 24  1  0  0  0  0
 14 25  1  1  0  0  0
 14 13  1  0  0  0  0
 15 16  1  0  0  0  0
 15 14  1  0  0  0  0
 16 17  2  0  0  0  0
 16 21  1  0  0  0  0
 17 18  1  0  0  0  0
 18 29  1  0  0  0  0
 18 19  2  0  0  0  0
 19 30  1  0  0  0  0
 20 19  1  0  0  0  0
 20 31  1  0  0  0  0
 21 20  2  0  0  0  0
 22 23  2  0  0  0  0
 22 14  1  0  0  0  0
 26 15  1  0  0  0  0
 27 15  1  0  0  0  0
 28 17  1  0  0  0  0
 32 21  1  0  0  0  0
 33 22  1  0  0  0  0
 34 35  1  0  0  0  0
 34 43  1  1  0  0  0
 34 33  1  0  0  0  0
 35 36  1  0  0  0  0
 36 40  1  0  0  0  0
 36 37  2  0  0  0  0
 38 34  1  0  0  0  0
 39 38  1  0  0  0  0
 40 46  1  0  0  0  0
 41 38  2  0  0  0  0
 42 33  1  0  0  0  0
 44 35  1  0  0  0  0
 45 35  1  0  0  0  0
M  END
$$$$
