CFH.pdb
 OpenBabel07022418283D

 50 51  0  0  1  0  0  0  0  0999 V2000
    4.0070   -1.6920   -0.3760 N   0  0  0  0  0  0  0  0  0  0  0  0
    2.6930   -1.0880   -0.5060 C   0  0  1  0  0  0  0  0  0  0  0  0
    1.8730   -1.9710   -1.3960 C   0  0  0  0  0  0  0  0  0  0  0  0
    2.7280   -2.0600   -3.0070 S   0  0  0  0  0  0  0  0  0  0  0  0
    2.1370   -0.9200    0.8460 C   0  0  0  0  0  0  0  0  0  0  0  0
    2.7650   -1.2700    1.8960 O   0  0  0  0  0  0  0  0  0  0  0  0
    4.5760   -1.1630    0.3330 H   0  0  0  0  0  0  0  0  0  0  0  0
    4.4830   -1.7270   -1.2910 H   0  0  0  0  0  0  0  0  0  0  0  0
    2.8310   -0.1130   -1.0200 H   0  0  0  0  0  0  0  0  0  0  0  0
    1.8840   -2.9870   -0.9670 H   0  0  0  0  0  0  0  0  0  0  0  0
    0.8430   -1.6400   -1.5340 H   0  0  0  0  0  0  0  0  0  0  0  0
    2.6590   -0.8330   -3.6880 H   0  0  0  0  0  0  0  0  0  0  0  0
    0.8420   -0.3400    0.9630 N   0  0  0  0  0  0  0  0  0  0  0  0
    0.2310   -0.1420    2.2350 C   0  0  1  0  0  0  0  0  0  0  0  0
    0.0330    1.3520    2.4760 C   0  0  0  0  0  0  0  0  0  0  0  0
    1.3200    2.0780    2.4570 C   0  0  0  0  0  0  0  0  0  0  0  0
    1.8140    2.5920    1.2950 C   0  0  0  0  0  0  0  0  0  0  0  0
    3.0050    3.2620    1.2850 C   0  0  0  0  0  0  0  0  0  0  0  0
    3.7270    3.4320    2.4440 C   0  0  0  0  0  0  0  0  0  0  0  0
    3.2330    2.9130    3.6260 C   0  0  0  0  0  0  0  0  0  0  0  0
    2.0230    2.2340    3.6240 C   0  0  0  0  0  0  0  0  0  0  0  0
   -1.0580   -0.8210    2.4020 C   0  0  0  0  0  0  0  0  0  0  0  0
   -1.6470   -0.6820    3.5080 O   0  0  0  0  0  0  0  0  0  0  0  0
    0.3130   -0.0470    0.1110 H   0  0  0  0  0  0  0  0  0  0  0  0
    0.9130   -0.5020    3.0490 H   0  0  0  0  0  0  0  0  0  0  0  0
   -0.5400    1.5190    3.4170 H   0  0  0  0  0  0  0  0  0  0  0  0
   -0.5830    1.7800    1.6440 H   0  0  0  0  0  0  0  0  0  0  0  0
    1.2790    2.4820    0.3620 H   0  0  0  0  0  0  0  0  0  0  0  0
    3.4230    3.6840    0.3670 H   0  0  0  0  0  0  0  0  0  0  0  0
    4.6870    3.9720    2.4400 H   0  0  0  0  0  0  0  0  0  0  0  0
    3.8090    3.0560    4.5140 H   0  0  0  0  0  0  0  0  0  0  0  0
    1.6840    1.8490    4.5810 H   0  0  0  0  0  0  0  0  0  0  0  0
   -1.6820   -1.6190    1.4080 N   0  0  0  0  0  0  0  0  0  0  0  0
   -2.9450   -2.2530    1.6430 C   0  0  1  0  0  0  0  0  0  0  0  0
   -3.9980   -1.7360    0.6560 C   0  0  0  0  0  0  0  0  0  0  0  0
   -3.5830   -2.0220   -0.7390 C   0  0  0  0  0  0  0  0  0  0  0  0
   -4.3270   -1.6740   -1.8530 C   0  0  0  0  0  0  0  0  0  0  0  0
   -3.6750   -2.0730   -2.9460 N   0  0  0  0  0  0  0  0  0  0  0  0
   -2.5190   -2.6740   -2.5680 C   0  0  0  0  0  0  0  0  0  0  0  0
   -2.4940   -2.6260   -1.2270 N   0  0  0  0  0  0  0  0  0  0  0  0
   -2.8810   -3.7220    1.5950 C   0  0  0  0  0  0  0  0  0  0  0  0
   -3.9170   -4.3910    1.7840 O   0  0  0  0  0  0  0  0  0  0  0  0
   -1.6920   -4.3700    1.3440 O   0  0  0  0  0  0  0  0  0  0  0  0
   -1.1540   -1.7060    0.5020 H   0  0  0  0  0  0  0  0  0  0  0  0
   -3.2710   -1.9930    2.6840 H   0  0  0  0  0  0  0  0  0  0  0  0
   -4.9150   -2.2940    0.8730 H   0  0  0  0  0  0  0  0  0  0  0  0
   -4.0670   -0.6520    0.8360 H   0  0  0  0  0  0  0  0  0  0  0  0
   -5.2770   -1.1660   -1.8590 H   0  0  0  0  0  0  0  0  0  0  0  0
   -3.9680   -1.9620   -3.9510 H   0  0  0  0  0  0  0  0  0  0  0  0
   -1.8030   -3.0880   -3.2640 H   0  0  0  0  0  0  0  0  0  0  0  0
  1  7  1  0  0  0  0
  2  9  1  6  0  0  0
  2  1  1  0  0  0  0
  2  5  1  0  0  0  0
  3 10  1  0  0  0  0
  3  2  1  0  0  0  0
  4  3  1  0  0  0  0
  5 13  1  0  0  0  0
  5  6  2  0  0  0  0
  8  1  1  0  0  0  0
 11  3  1  0  0  0  0
 12  4  1  0  0  0  0
 13 14  1  0  0  0  0
 14 22  1  0  0  0  0
 14 15  1  0  0  0  0
 14 25  1  1  0  0  0
 15 26  1  0  0  0  0
 16 15  1  0  0  0  0
 16 21  1  0  0  0  0
 17 16  2  0  0  0  0
 18 17  1  0  0  0  0
 18 19  2  0  0  0  0
 19 20  1  0  0  0  0
 20 31  1  0  0  0  0
 21 20  2  0  0  0  0
 21 32  1  0  0  0  0
 22 23  2  0  0  0  0
 24 13  1  0  0  0  0
 27 15  1  0  0  0  0
 28 17  1  0  0  0  0
 29 18  1  0  0  0  0
 30 19  1  0  0  0  0
 33 34  1  0  0  0  0
 33 22  1  0  0  0  0
 34 45  1  1  0  0  0
 35 47  1  0  0  0  0
 35 46  1  0  0  0  0
 35 34  1  0  0  0  0
 36 35  1  0  0  0  0
 37 36  2  0  0  0  0
 38 39  1  0  0  0  0
 38 37  1  0  0  0  0
 39 40  2  0  0  0  0
 40 36  1  0  0  0  0
 41 34  1  0  0  0  0
 41 42  1  0  0  0  0
 43 41  2  0  0  0  0
 44 33  1  0  0  0  0
 48 37  1  0  0  0  0
 49 38  1  0  0  0  0
 50 39  1  0  0  0  0
M  END
$$$$
