CFK.pdb
 OpenBabel07022418283D

 54 54  0  0  1  0  0  0  0  0999 V2000
    0.5420   -3.4760    4.0430 N   0  0  0  0  0  0  0  0  0  0  0  0
    1.6370   -2.5870    4.3820 C   0  0  1  0  0  0  0  0  0  0  0  0
    2.8000   -3.4310    4.8080 C   0  0  0  0  0  0  0  0  0  0  0  0
    4.2480   -2.4540    5.2630 S   0  0  0  0  0  0  0  0  0  0  0  0
    1.9710   -1.7420    3.1980 C   0  0  0  0  0  0  0  0  0  0  0  0
    2.9010   -0.8930    3.2690 O   0  0  0  0  0  0  0  0  0  0  0  0
   -0.3700   -3.1510    4.4630 H   0  0  0  0  0  0  0  0  0  0  0  0
    0.6940   -4.4370    4.4710 H   0  0  0  0  0  0  0  0  0  0  0  0
    1.2860   -1.9710    5.2380 H   0  0  0  0  0  0  0  0  0  0  0  0
    2.4850   -3.9880    5.7180 H   0  0  0  0  0  0  0  0  0  0  0  0
    3.0620   -4.1810    4.0470 H   0  0  0  0  0  0  0  0  0  0  0  0
    5.3070   -2.6080    4.3710 H   0  0  0  0  0  0  0  0  0  0  0  0
    1.2710   -1.8580    1.9720 N   0  0  0  0  0  0  0  0  0  0  0  0
    1.5400   -1.0730    0.7860 C   0  0  1  0  0  0  0  0  0  0  0  0
    1.9970   -1.9110   -0.3660 C   0  0  0  0  0  0  0  0  0  0  0  0
    2.2810   -1.1340   -1.5940 C   0  0  0  0  0  0  0  0  0  0  0  0
    1.3580   -0.8920   -2.5890 C   0  0  0  0  0  0  0  0  0  0  0  0
    1.6990   -0.1520   -3.7100 C   0  0  0  0  0  0  0  0  0  0  0  0
    2.9480    0.3650   -3.8790 C   0  0  0  0  0  0  0  0  0  0  0  0
    3.8800    0.1340   -2.8990 C   0  0  0  0  0  0  0  0  0  0  0  0
    3.5560   -0.5950   -1.7870 C   0  0  0  0  0  0  0  0  0  0  0  0
    0.3930   -0.1970    0.4780 C   0  0  0  0  0  0  0  0  0  0  0  0
    0.4400    0.5910   -0.4860 O   0  0  0  0  0  0  0  0  0  0  0  0
    0.5060   -2.5570    1.9150 H   0  0  0  0  0  0  0  0  0  0  0  0
    2.3920   -0.3900    1.0540 H   0  0  0  0  0  0  0  0  0  0  0  0
    1.1150   -2.5670   -0.6330 H   0  0  0  0  0  0  0  0  0  0  0  0
    2.8820   -2.5120   -0.1550 H   0  0  0  0  0  0  0  0  0  0  0  0
    0.3590   -1.3050   -2.4590 H   0  0  0  0  0  0  0  0  0  0  0  0
    0.9500    0.0130   -4.4620 H   0  0  0  0  0  0  0  0  0  0  0  0
    3.2360    0.9450   -4.7450 H   0  0  0  0  0  0  0  0  0  0  0  0
    4.9070    0.5100   -2.9490 H   0  0  0  0  0  0  0  0  0  0  0  0
    4.3030   -0.7810   -0.9990 H   0  0  0  0  0  0  0  0  0  0  0  0
   -0.8060   -0.1960    1.2420 N   0  0  0  0  0  0  0  0  0  0  0  0
   -1.9370    0.6780    0.9270 C   0  0  1  0  0  0  0  0  0  0  0  0
   -3.0950   -0.2720    0.6480 C   0  0  0  0  0  0  0  0  0  0  0  0
   -4.3680    0.4040    0.2940 C   0  0  0  0  0  0  0  0  0  0  0  0
   -4.3410    1.2710   -0.9180 C   0  0  0  0  0  0  0  0  0  0  0  0
   -4.0190    0.5970   -2.2020 C   0  0  0  0  0  0  0  0  0  0  0  0
   -2.7120    0.0050   -2.1550 N   0  0  0  0  0  0  0  0  0  0  0  0
   -2.2300    1.5320    2.1170 C   0  0  0  0  0  0  0  0  0  0  0  0
   -1.5640    1.3950    3.1730 O   0  0  0  0  0  0  0  0  0  0  0  0
   -3.2370    2.4730    2.0480 O   0  0  0  0  0  0  0  0  0  0  0  0
   -0.8970   -0.8220    2.0400 H   0  0  0  0  0  0  0  0  0  0  0  0
   -1.6510    1.2720    0.0550 H   0  0  0  0  0  0  0  0  0  0  0  0
   -2.7780   -1.0180   -0.0920 H   0  0  0  0  0  0  0  0  0  0  0  0
   -3.2520   -0.8690    1.5950 H   0  0  0  0  0  0  0  0  0  0  0  0
   -5.1470   -0.4030    0.1580 H   0  0  0  0  0  0  0  0  0  0  0  0
   -4.7640    1.0240    1.1320 H   0  0  0  0  0  0  0  0  0  0  0  0
   -5.3910    1.6880   -1.0310 H   0  0  0  0  0  0  0  0  0  0  0  0
   -3.6720    2.1570   -0.7220 H   0  0  0  0  0  0  0  0  0  0  0  0
   -4.8040   -0.1670   -2.4420 H   0  0  0  0  0  0  0  0  0  0  0  0
   -4.0150    1.3600   -3.0310 H   0  0  0  0  0  0  0  0  0  0  0  0
   -2.6740   -0.7600   -2.8700 H   0  0  0  0  0  0  0  0  0  0  0  0
   -1.9830    0.7350   -2.3140 H   0  0  0  0  0  0  0  0  0  0  0  0
  1  2  1  0  0  0  0
  1  7  1  0  0  0  0
  1  8  1  0  0  0  0
  2  3  1  0  0  0  0
  2  9  1  1  0  0  0
  3  4  1  0  0  0  0
  3 10  1  0  0  0  0
  5  6  2  0  0  0  0
  5  2  1  0  0  0  0
 11  3  1  0  0  0  0
 12  4  1  0  0  0  0
 13  5  1  0  0  0  0
 14 25  1  1  0  0  0
 14 13  1  0  0  0  0
 15 27  1  0  0  0  0
 15 14  1  0  0  0  0
 16 15  1  0  0  0  0
 17 28  1  0  0  0  0
 17 16  2  0  0  0  0
 18 17  1  0  0  0  0
 19 18  2  0  0  0  0
 19 20  1  0  0  0  0
 20 21  2  0  0  0  0
 21 16  1  0  0  0  0
 21 32  1  0  0  0  0
 22 14  1  0  0  0  0
 22 33  1  0  0  0  0
 23 22  2  0  0  0  0
 24 13  1  0  0  0  0
 26 15  1  0  0  0  0
 29 18  1  0  0  0  0
 30 19  1  0  0  0  0
 31 20  1  0  0  0  0
 33 43  1  0  0  0  0
 34 44  1  6  0  0  0
 34 33  1  0  0  0  0
 34 40  1  0  0  0  0
 35 34  1  0  0  0  0
 35 46  1  0  0  0  0
 36 35  1  0  0  0  0
 36 48  1  0  0  0  0
 37 50  1  0  0  0  0
 37 36  1  0  0  0  0
 38 39  1  0  0  0  0
 38 37  1  0  0  0  0
 40 41  1  0  0  0  0
 42 40  2  0  0  0  0
 45 35  1  0  0  0  0
 47 36  1  0  0  0  0
 49 37  1  0  0  0  0
 51 38  1  0  0  0  0
 52 38  1  0  0  0  0
 53 39  1  0  0  0  0
 54 39  1  0  0  0  0
M  END
$$$$
