CFL.pdb
 OpenBabel07022418283D

 52 52  0  0  1  0  0  0  0  0999 V2000
    1.3950   -4.8490    4.0180 N   0  0  0  0  0  0  0  0  0  0  0  0
    1.5960   -4.1130    2.7860 C   0  0  1  0  0  0  0  0  0  0  0  0
    0.7830   -4.7940    1.7080 C   0  0  0  0  0  0  0  0  0  0  0  0
    1.3940   -6.5000    1.5680 S   0  0  0  0  0  0  0  0  0  0  0  0
    1.1720   -2.7160    2.9970 C   0  0  0  0  0  0  0  0  0  0  0  0
    0.7290   -2.3440    4.0990 O   0  0  0  0  0  0  0  0  0  0  0  0
    0.5220   -4.4630    4.4640 H   0  0  0  0  0  0  0  0  0  0  0  0
    2.1760   -4.5720    4.6570 H   0  0  0  0  0  0  0  0  0  0  0  0
    2.6660   -4.2010    2.5140 H   0  0  0  0  0  0  0  0  0  0  0  0
   -0.2640   -4.8550    2.0350 H   0  0  0  0  0  0  0  0  0  0  0  0
    0.9060   -4.3180    0.7140 H   0  0  0  0  0  0  0  0  0  0  0  0
    2.7440   -6.4190    1.1230 H   0  0  0  0  0  0  0  0  0  0  0  0
    1.2500   -1.7400    1.9580 N   0  0  0  0  0  0  0  0  0  0  0  0
    0.8410   -0.3580    2.1350 C   0  0  1  0  0  0  0  0  0  0  0  0
    1.9640    0.5830    1.8540 C   0  0  0  0  0  0  0  0  0  0  0  0
    1.6340    1.9930    2.0060 C   0  0  0  0  0  0  0  0  0  0  0  0
    1.7310    2.6250    3.2240 C   0  0  0  0  0  0  0  0  0  0  0  0
    1.4440    3.9590    3.4120 C   0  0  0  0  0  0  0  0  0  0  0  0
    1.0320    4.7160    2.3080 C   0  0  0  0  0  0  0  0  0  0  0  0
    0.9310    4.0950    1.0810 C   0  0  0  0  0  0  0  0  0  0  0  0
    1.2300    2.7380    0.9250 C   0  0  0  0  0  0  0  0  0  0  0  0
   -0.2910   -0.0940    1.2230 C   0  0  0  0  0  0  0  0  0  0  0  0
   -0.8890    1.0220    1.1790 O   0  0  0  0  0  0  0  0  0  0  0  0
    1.6220   -2.0540    1.0380 H   0  0  0  0  0  0  0  0  0  0  0  0
    0.4850   -0.1700    3.1690 H   0  0  0  0  0  0  0  0  0  0  0  0
    2.2470    0.4140    0.7730 H   0  0  0  0  0  0  0  0  0  0  0  0
    2.8970    0.3210    2.4080 H   0  0  0  0  0  0  0  0  0  0  0  0
    2.0460    2.0460    4.0720 H   0  0  0  0  0  0  0  0  0  0  0  0
    1.5260    4.4450    4.3880 H   0  0  0  0  0  0  0  0  0  0  0  0
    0.8170    5.7460    2.4900 H   0  0  0  0  0  0  0  0  0  0  0  0
    0.6100    4.6960    0.2370 H   0  0  0  0  0  0  0  0  0  0  0  0
    1.1230    2.3600   -0.0710 H   0  0  0  0  0  0  0  0  0  0  0  0
   -1.6210   -0.9010   -4.3600 C   0  0  0  0  0  0  0  0  0  0  0  0
   -2.3540   -0.7100   -3.0250 C   0  0  0  0  0  0  0  0  0  0  0  0
   -2.8140    0.7520   -3.0320 C   0  0  0  0  0  0  0  0  0  0  0  0
   -1.3410   -0.9590   -1.9540 C   0  0  0  0  0  0  0  0  0  0  0  0
   -1.8850   -0.8150   -0.5500 C   0  0  2  0  0  0  0  0  0  0  0  0
   -0.7700   -1.0900    0.3410 N   0  0  0  0  0  0  0  0  0  0  0  0
   -2.9610   -1.7550   -0.2430 C   0  0  0  0  0  0  0  0  0  0  0  0
   -4.0330   -1.6970   -0.8930 O   0  0  0  0  0  0  0  0  0  0  0  0
   -2.8390   -2.7110    0.7470 O   0  0  0  0  0  0  0  0  0  0  0  0
   -2.3350   -1.1960   -5.1550 H   0  0  0  0  0  0  0  0  0  0  0  0
   -1.0600    0.0160   -4.5900 H   0  0  0  0  0  0  0  0  0  0  0  0
   -0.8970   -1.7180   -4.2100 H   0  0  0  0  0  0  0  0  0  0  0  0
   -3.1930   -1.4060   -3.0490 H   0  0  0  0  0  0  0  0  0  0  0  0
   -3.2800    1.0330   -2.0860 H   0  0  0  0  0  0  0  0  0  0  0  0
   -1.9170    1.3530   -3.2890 H   0  0  0  0  0  0  0  0  0  0  0  0
   -3.5540    0.8200   -3.8650 H   0  0  0  0  0  0  0  0  0  0  0  0
   -0.9150   -1.9630   -2.1120 H   0  0  0  0  0  0  0  0  0  0  0  0
   -0.5300   -0.2120   -2.0770 H   0  0  0  0  0  0  0  0  0  0  0  0
   -2.2140    0.2200   -0.3860 H   0  0  0  0  0  0  0  0  0  0  0  0
   -0.2920   -2.0250    0.3590 H   0  0  0  0  0  0  0  0  0  0  0  0
  1  7  1  0  0  0  0
  1  8  1  0  0  0  0
  2  9  1  6  0  0  0
  2  5  1  0  0  0  0
  2  1  1  0  0  0  0
  3 10  1  0  0  0  0
  3  2  1  0  0  0  0
  4  3  1  0  0  0  0
  5  6  2  0  0  0  0
 11  3  1  0  0  0  0
 12  4  1  0  0  0  0
 13 14  1  0  0  0  0
 13  5  1  0  0  0  0
 14 25  1  1  0  0  0
 15 16  1  0  0  0  0
 15 14  1  0  0  0  0
 15 27  1  0  0  0  0
 16 17  1  0  0  0  0
 17 18  2  0  0  0  0
 17 28  1  0  0  0  0
 18 29  1  0  0  0  0
 19 30  1  0  0  0  0
 19 18  1  0  0  0  0
 20 19  2  0  0  0  0
 21 20  1  0  0  0  0
 21 16  2  0  0  0  0
 22 14  1  0  0  0  0
 23 22  2  0  0  0  0
 24 13  1  0  0  0  0
 26 15  1  0  0  0  0
 31 20  1  0  0  0  0
 32 21  1  0  0  0  0
 33 44  1  0  0  0  0
 33 34  1  0  0  0  0
 34 36  1  0  0  0  0
 35 34  1  0  0  0  0
 35 46  1  0  0  0  0
 36 37  1  0  0  0  0
 37 51  1  1  0  0  0
 37 39  1  0  0  0  0
 37 38  1  0  0  0  0
 38 52  1  0  0  0  0
 38 22  1  0  0  0  0
 39 41  1  0  0  0  0
 40 39  2  0  0  0  0
 42 33  1  0  0  0  0
 43 33  1  0  0  0  0
 45 34  1  0  0  0  0
 47 35  1  0  0  0  0
 48 35  1  0  0  0  0
 49 36  1  0  0  0  0
 50 36  1  0  0  0  0
M  END
$$$$
