CFM.pdb
 OpenBabel07022418283D

 50 50  0  0  1  0  0  0  0  0999 V2000
    1.0010   -3.5290    5.3560 N   0  0  0  0  0  0  0  0  0  0  0  0
    1.2280   -3.4190    3.9350 C   0  0  1  0  0  0  0  0  0  0  0  0
    0.1210   -4.2150    3.2430 C   0  0  0  0  0  0  0  0  0  0  0  0
    0.1440   -5.9410    3.7260 S   0  0  0  0  0  0  0  0  0  0  0  0
    1.0900   -1.9860    3.5550 C   0  0  0  0  0  0  0  0  0  0  0  0
    0.8160   -1.0880    4.4160 O   0  0  0  0  0  0  0  0  0  0  0  0
    1.8280   -3.8330    5.8880 H   0  0  0  0  0  0  0  0  0  0  0  0
    0.5570   -2.6640    5.7580 H   0  0  0  0  0  0  0  0  0  0  0  0
    2.2180   -3.7990    3.6280 H   0  0  0  0  0  0  0  0  0  0  0  0
    0.2000   -4.0840    2.1270 H   0  0  0  0  0  0  0  0  0  0  0  0
   -0.8530   -3.7780    3.5440 H   0  0  0  0  0  0  0  0  0  0  0  0
   -1.0920   -6.4090    4.1840 H   0  0  0  0  0  0  0  0  0  0  0  0
    1.2540   -1.5370    2.2170 N   0  0  0  0  0  0  0  0  0  0  0  0
    1.1210   -0.1320    1.8270 C   0  0  1  0  0  0  0  0  0  0  0  0
    2.3940    0.3260    1.2100 C   0  0  0  0  0  0  0  0  0  0  0  0
    2.4440    1.7040    0.7560 C   0  0  0  0  0  0  0  0  0  0  0  0
    2.8230    2.7850    1.5090 C   0  0  0  0  0  0  0  0  0  0  0  0
    2.8500    4.0680    1.0060 C   0  0  0  0  0  0  0  0  0  0  0  0
    2.4870    4.3000   -0.3000 C   0  0  0  0  0  0  0  0  0  0  0  0
    2.1000    3.2440   -1.0910 C   0  0  0  0  0  0  0  0  0  0  0  0
    2.0820    1.9690   -0.5630 C   0  0  0  0  0  0  0  0  0  0  0  0
   -0.0590   -0.0080    0.9370 C   0  0  0  0  0  0  0  0  0  0  0  0
   -0.3560    1.1330    0.4930 O   0  0  0  0  0  0  0  0  0  0  0  0
    1.4790   -2.2710    1.5050 H   0  0  0  0  0  0  0  0  0  0  0  0
    0.8780    0.4210    2.7790 H   0  0  0  0  0  0  0  0  0  0  0  0
    2.6660   -0.3500    0.3830 H   0  0  0  0  0  0  0  0  0  0  0  0
    3.1940    0.1940    1.9850 H   0  0  0  0  0  0  0  0  0  0  0  0
    3.1060    2.5990    2.5310 H   0  0  0  0  0  0  0  0  0  0  0  0
    3.1530    4.9290    1.6100 H   0  0  0  0  0  0  0  0  0  0  0  0
    2.5100    5.3220   -0.6940 H   0  0  0  0  0  0  0  0  0  0  0  0
    1.8210    3.4550   -2.1100 H   0  0  0  0  0  0  0  0  0  0  0  0
    1.7750    1.1790   -1.2230 H   0  0  0  0  0  0  0  0  0  0  0  0
   -1.6960    0.4530   -4.2460 C   0  0  0  0  0  0  0  0  0  0  0  0
   -3.1120   -0.1360   -3.3020 S   0  0  0  0  0  0  0  0  0  0  0  0
   -2.8510   -1.7580   -2.5720 C   0  0  0  0  0  0  0  0  0  0  0  0
   -1.7990   -1.7800   -1.5220 C   0  0  0  0  0  0  0  0  0  0  0  0
   -2.0390   -0.8960   -0.3410 C   0  0  2  0  0  0  0  0  0  0  0  0
   -0.8790   -1.0830    0.5470 N   0  0  0  0  0  0  0  0  0  0  0  0
   -3.2930   -1.2820    0.3690 C   0  0  0  0  0  0  0  0  0  0  0  0
   -3.2880   -1.7040    1.5540 O   0  0  0  0  0  0  0  0  0  0  0  0
   -4.5290   -1.1930   -0.2510 O   0  0  0  0  0  0  0  0  0  0  0  0
   -1.3190   -0.4160   -4.8550 H   0  0  0  0  0  0  0  0  0  0  0  0
   -0.8860    0.8510   -3.6280 H   0  0  0  0  0  0  0  0  0  0  0  0
   -2.0680    1.1820   -4.9960 H   0  0  0  0  0  0  0  0  0  0  0  0
   -3.8050   -2.1710   -2.2350 H   0  0  0  0  0  0  0  0  0  0  0  0
   -2.4920   -2.4300   -3.3980 H   0  0  0  0  0  0  0  0  0  0  0  0
   -1.7150   -2.8240   -1.1460 H   0  0  0  0  0  0  0  0  0  0  0  0
   -0.8080   -1.5280   -1.9720 H   0  0  0  0  0  0  0  0  0  0  0  0
   -2.1060    0.1720   -0.6020 H   0  0  0  0  0  0  0  0  0  0  0  0
   -0.6420   -2.0320    0.9090 H   0  0  0  0  0  0  0  0  0  0  0  0
  1  8  1  0  0  0  0
  1  7  1  0  0  0  0
  2  9  1  6  0  0  0
  2  1  1  0  0  0  0
  3 11  1  0  0  0  0
  3  4  1  0  0  0  0
  3  2  1  0  0  0  0
  4 12  1  0  0  0  0
  5  2  1  0  0  0  0
  5  6  2  0  0  0  0
 10  3  1  0  0  0  0
 13  5  1  0  0  0  0
 14 13  1  0  0  0  0
 14 25  1  1  0  0  0
 15 14  1  0  0  0  0
 15 27  1  0  0  0  0
 16 15  1  0  0  0  0
 16 17  1  0  0  0  0
 17 28  1  0  0  0  0
 18 17  2  0  0  0  0
 18 29  1  0  0  0  0
 19 18  1  0  0  0  0
 20 21  1  0  0  0  0
 20 19  2  0  0  0  0
 21 16  2  0  0  0  0
 22 14  1  0  0  0  0
 23 22  2  0  0  0  0
 24 13  1  0  0  0  0
 26 15  1  0  0  0  0
 30 19  1  0  0  0  0
 31 20  1  0  0  0  0
 32 21  1  0  0  0  0
 33 43  1  0  0  0  0
 33 34  1  0  0  0  0
 34 35  1  0  0  0  0
 35 45  1  0  0  0  0
 35 36  1  0  0  0  0
 36 47  1  0  0  0  0
 36 37  1  0  0  0  0
 37 49  1  6  0  0  0
 37 39  1  0  0  0  0
 37 38  1  0  0  0  0
 38 50  1  0  0  0  0
 38 22  1  0  0  0  0
 39 40  1  0  0  0  0
 41 39  2  0  0  0  0
 42 33  1  0  0  0  0
 44 33  1  0  0  0  0
 46 35  1  0  0  0  0
 48 36  1  0  0  0  0
M  END
$$$$
