CFN.pdb
 OpenBabel07022418283D

 47 47  0  0  1  0  0  0  0  0999 V2000
    2.9310   -4.7810    2.7340 N   0  0  0  0  0  0  0  0  0  0  0  0
    2.9600   -3.7010    1.7680 C   0  0  1  0  0  0  0  0  0  0  0  0
    2.6920   -4.2900    0.3880 C   0  0  0  0  0  0  0  0  0  0  0  0
    3.9610   -5.5280   -0.0430 S   0  0  0  0  0  0  0  0  0  0  0  0
    1.9280   -2.6870    2.0290 C   0  0  0  0  0  0  0  0  0  0  0  0
    1.1030   -2.7550    2.9820 O   0  0  0  0  0  0  0  0  0  0  0  0
    2.5390   -5.6410    2.2960 H   0  0  0  0  0  0  0  0  0  0  0  0
    2.3370   -4.4710    3.5370 H   0  0  0  0  0  0  0  0  0  0  0  0
    3.9890   -3.2860    1.7380 H   0  0  0  0  0  0  0  0  0  0  0  0
    2.7100   -3.5160   -0.3980 H   0  0  0  0  0  0  0  0  0  0  0  0
    1.7230   -4.8040    0.3690 H   0  0  0  0  0  0  0  0  0  0  0  0
    3.4180   -6.5350   -0.8780 H   0  0  0  0  0  0  0  0  0  0  0  0
    1.8350   -1.5640    1.1790 N   0  0  0  0  0  0  0  0  0  0  0  0
    0.8140   -0.5000    1.3840 C   0  0  1  0  0  0  0  0  0  0  0  0
    1.6060    0.7260    1.6490 C   0  0  0  0  0  0  0  0  0  0  0  0
    0.8490    1.9640    1.9030 C   0  0  0  0  0  0  0  0  0  0  0  0
    0.5460    2.8480    0.8930 C   0  0  0  0  0  0  0  0  0  0  0  0
   -0.1640    4.0200    1.1300 C   0  0  0  0  0  0  0  0  0  0  0  0
   -0.5990    4.3500    2.3950 C   0  0  0  0  0  0  0  0  0  0  0  0
   -0.3000    3.4710    3.4140 C   0  0  0  0  0  0  0  0  0  0  0  0
    0.4040    2.3090    3.1820 C   0  0  0  0  0  0  0  0  0  0  0  0
   -0.0460   -0.5420    0.2240 C   0  0  0  0  0  0  0  0  0  0  0  0
    0.2360   -1.3380   -0.7460 O   0  0  0  0  0  0  0  0  0  0  0  0
    2.4640   -1.4040    0.3610 H   0  0  0  0  0  0  0  0  0  0  0  0
    0.2250   -0.8240    2.2910 H   0  0  0  0  0  0  0  0  0  0  0  0
    2.2970    0.5910    2.5370 H   0  0  0  0  0  0  0  0  0  0  0  0
    2.3500    0.8710    0.8040 H   0  0  0  0  0  0  0  0  0  0  0  0
    0.8910    2.5860   -0.1170 H   0  0  0  0  0  0  0  0  0  0  0  0
   -0.3810    4.6920    0.2920 H   0  0  0  0  0  0  0  0  0  0  0  0
   -1.1530    5.2690    2.5630 H   0  0  0  0  0  0  0  0  0  0  0  0
   -0.6200    3.6860    4.4270 H   0  0  0  0  0  0  0  0  0  0  0  0
    0.6480    1.6010    3.9880 H   0  0  0  0  0  0  0  0  0  0  0  0
   -3.4050   -3.0810   -1.2220 N   0  0  0  0  0  0  0  0  0  0  0  0
   -3.2370   -1.9450   -0.4050 C   0  0  0  0  0  0  0  0  0  0  0  0
   -2.9760   -2.0730    0.8150 O   0  0  0  0  0  0  0  0  0  0  0  0
   -3.3620   -0.5760   -0.9610 C   0  0  0  0  0  0  0  0  0  0  0  0
   -2.0150    0.0750   -1.2040 C   0  0  2  0  0  0  0  0  0  0  0  0
   -1.2330    0.2050   -0.0230 N   0  0  0  0  0  0  0  0  0  0  0  0
   -2.2800    1.3850   -1.8100 C   0  0  0  0  0  0  0  0  0  0  0  0
   -2.9430    1.4400   -2.8740 O   0  0  0  0  0  0  0  0  0  0  0  0
   -1.8150    2.5390   -1.2330 O   0  0  0  0  0  0  0  0  0  0  0  0
   -4.0570   -3.0420   -2.0290 H   0  0  0  0  0  0  0  0  0  0  0  0
   -2.8870   -3.9570   -1.0280 H   0  0  0  0  0  0  0  0  0  0  0  0
   -3.8440   -0.6780   -1.9550 H   0  0  0  0  0  0  0  0  0  0  0  0
   -4.0370    0.0750   -0.3650 H   0  0  0  0  0  0  0  0  0  0  0  0
   -1.4830   -0.6310   -1.8930 H   0  0  0  0  0  0  0  0  0  0  0  0
   -1.5240    0.8700    0.7170 H   0  0  0  0  0  0  0  0  0  0  0  0
  1  8  1  0  0  0  0
  2  9  1  1  0  0  0
  2  5  1  0  0  0  0
  2  1  1  0  0  0  0
  3  2  1  0  0  0  0
  4  3  1  0  0  0  0
  5  6  2  0  0  0  0
  7  1  1  0  0  0  0
 10  3  1  0  0  0  0
 11  3  1  0  0  0  0
 12  4  1  0  0  0  0
 13 14  1  0  0  0  0
 13  5  1  0  0  0  0
 14 15  1  0  0  0  0
 14 25  1  1  0  0  0
 15 16  1  0  0  0  0
 15 26  1  0  0  0  0
 16 21  1  0  0  0  0
 17 18  1  0  0  0  0
 17 16  2  0  0  0  0
 18 19  2  0  0  0  0
 19 30  1  0  0  0  0
 19 20  1  0  0  0  0
 20 31  1  0  0  0  0
 21 20  2  0  0  0  0
 21 32  1  0  0  0  0
 22 14  1  0  0  0  0
 23 22  2  0  0  0  0
 24 13  1  0  0  0  0
 27 15  1  0  0  0  0
 28 17  1  0  0  0  0
 29 18  1  0  0  0  0
 33 43  1  0  0  0  0
 33 34  1  0  0  0  0
 34 35  2  0  0  0  0
 36 34  1  0  0  0  0
 36 45  1  0  0  0  0
 37 46  1  6  0  0  0
 37 36  1  0  0  0  0
 37 38  1  0  0  0  0
 38 22  1  0  0  0  0
 38 47  1  0  0  0  0
 39 41  1  0  0  0  0
 39 37  1  0  0  0  0
 40 39  2  0  0  0  0
 42 33  1  0  0  0  0
 44 36  1  0  0  0  0
M  END
$$$$
