CFQ.pdb
 OpenBabel07022418283D

 50 50  0  0  1  0  0  0  0  0999 V2000
    3.0290   -4.9860    2.3360 N   0  0  0  0  0  0  0  0  0  0  0  0
    2.4450   -4.0900    1.3670 C   0  0  1  0  0  0  0  0  0  0  0  0
    1.1180   -4.5990    0.8530 C   0  0  0  0  0  0  0  0  0  0  0  0
    1.3000   -6.2170    0.0500 S   0  0  0  0  0  0  0  0  0  0  0  0
    2.3270   -2.7060    1.8760 C   0  0  0  0  0  0  0  0  0  0  0  0
    2.7000   -2.3430    3.0180 O   0  0  0  0  0  0  0  0  0  0  0  0
    4.0590   -4.8700    2.2980 H   0  0  0  0  0  0  0  0  0  0  0  0
    2.7050   -4.8020    3.3090 H   0  0  0  0  0  0  0  0  0  0  0  0
    3.1630   -4.0460    0.5000 H   0  0  0  0  0  0  0  0  0  0  0  0
    0.6660   -3.8530    0.1820 H   0  0  0  0  0  0  0  0  0  0  0  0
    0.4410   -4.7320    1.7180 H   0  0  0  0  0  0  0  0  0  0  0  0
    2.5260   -6.2740   -0.6370 H   0  0  0  0  0  0  0  0  0  0  0  0
    1.7580   -1.7230    1.0300 N   0  0  0  0  0  0  0  0  0  0  0  0
    1.6240   -0.3400    1.4920 C   0  0  1  0  0  0  0  0  0  0  0  0
    2.4170    0.4900    0.5040 C   0  0  0  0  0  0  0  0  0  0  0  0
    2.3960    1.9370    0.8070 C   0  0  0  0  0  0  0  0  0  0  0  0
    1.4760    2.8040    0.2690 C   0  0  0  0  0  0  0  0  0  0  0  0
    1.4710    4.1580    0.5740 C   0  0  0  0  0  0  0  0  0  0  0  0
    2.4080    4.6490    1.4350 C   0  0  0  0  0  0  0  0  0  0  0  0
    3.3510    3.7980    1.9950 C   0  0  0  0  0  0  0  0  0  0  0  0
    3.3290    2.4640    1.6730 C   0  0  0  0  0  0  0  0  0  0  0  0
    0.2000    0.0180    1.4410 C   0  0  0  0  0  0  0  0  0  0  0  0
   -0.1560    1.1610    1.8130 O   0  0  0  0  0  0  0  0  0  0  0  0
    1.4200   -1.9180    0.0660 H   0  0  0  0  0  0  0  0  0  0  0  0
    2.0530   -0.2290    2.5130 H   0  0  0  0  0  0  0  0  0  0  0  0
    2.0290    0.3610   -0.5320 H   0  0  0  0  0  0  0  0  0  0  0  0
    3.4840    0.1770    0.5350 H   0  0  0  0  0  0  0  0  0  0  0  0
    0.7380    2.4310   -0.4140 H   0  0  0  0  0  0  0  0  0  0  0  0
    0.7510    4.8470    0.1550 H   0  0  0  0  0  0  0  0  0  0  0  0
    2.4420    5.6990    1.7020 H   0  0  0  0  0  0  0  0  0  0  0  0
    4.0730    4.2280    2.6700 H   0  0  0  0  0  0  0  0  0  0  0  0
    4.0630    1.7980    2.1080 H   0  0  0  0  0  0  0  0  0  0  0  0
   -5.5480   -0.2070   -2.7910 N   0  0  0  0  0  0  0  0  0  0  0  0
   -4.2720   -0.4630   -2.2450 C   0  0  0  0  0  0  0  0  0  0  0  0
   -3.3450   -0.8270   -2.9910 O   0  0  0  0  0  0  0  0  0  0  0  0
   -4.0390   -0.2990   -0.7960 C   0  0  0  0  0  0  0  0  0  0  0  0
   -2.6100   -0.6350   -0.4930 C   0  0  0  0  0  0  0  0  0  0  0  0
   -2.2080   -0.5110    0.9370 C   0  0  2  0  0  0  0  0  0  0  0  0
   -0.7810   -0.8840    0.9840 N   0  0  0  0  0  0  0  0  0  0  0  0
   -2.9580   -1.4340    1.7890 C   0  0  0  0  0  0  0  0  0  0  0  0
   -2.3400   -2.3700    2.3840 O   0  0  0  0  0  0  0  0  0  0  0  0
   -4.3230   -1.3730    2.0110 O   0  0  0  0  0  0  0  0  0  0  0  0
   -6.4260   -0.6690   -2.4660 H   0  0  0  0  0  0  0  0  0  0  0  0
   -5.6320    0.4860   -3.5690 H   0  0  0  0  0  0  0  0  0  0  0  0
   -4.7720   -0.9050   -0.1970 H   0  0  0  0  0  0  0  0  0  0  0  0
   -4.2130    0.7900   -0.5550 H   0  0  0  0  0  0  0  0  0  0  0  0
   -1.9950    0.0620   -1.1340 H   0  0  0  0  0  0  0  0  0  0  0  0
   -2.4240   -1.6590   -0.8700 H   0  0  0  0  0  0  0  0  0  0  0  0
   -2.2720    0.5390    1.3140 H   0  0  0  0  0  0  0  0  0  0  0  0
   -0.5050   -1.8290    0.6750 H   0  0  0  0  0  0  0  0  0  0  0  0
  1  8  1  0  0  0  0
  2  9  1  6  0  0  0
  2  5  1  0  0  0  0
  2  1  1  0  0  0  0
  3  2  1  0  0  0  0
  3 11  1  0  0  0  0
  4  3  1  0  0  0  0
  5  6  2  0  0  0  0
  7  1  1  0  0  0  0
 10  3  1  0  0  0  0
 12  4  1  0  0  0  0
 13 14  1  0  0  0  0
 13  5  1  0  0  0  0
 14 25  1  1  0  0  0
 15 27  1  0  0  0  0
 15 16  1  0  0  0  0
 15 14  1  0  0  0  0
 16 21  1  0  0  0  0
 17 18  1  0  0  0  0
 17 16  2  0  0  0  0
 18 19  2  0  0  0  0
 19 30  1  0  0  0  0
 19 20  1  0  0  0  0
 20 31  1  0  0  0  0
 21 20  2  0  0  0  0
 21 32  1  0  0  0  0
 22 14  1  0  0  0  0
 22 23  2  0  0  0  0
 24 13  1  0  0  0  0
 26 15  1  0  0  0  0
 28 17  1  0  0  0  0
 29 18  1  0  0  0  0
 33 43  1  0  0  0  0
 33 34  1  0  0  0  0
 34 36  1  0  0  0  0
 35 34  2  0  0  0  0
 36 46  1  0  0  0  0
 36 37  1  0  0  0  0
 36 45  1  0  0  0  0
 37 38  1  0  0  0  0
 38 39  1  0  0  0  0
 38 49  1  1  0  0  0
 38 40  1  0  0  0  0
 39 22  1  0  0  0  0
 40 42  2  0  0  0  0
 40 41  1  0  0  0  0
 44 33  1  0  0  0  0
 47 37  1  0  0  0  0
 48 37  1  0  0  0  0
 50 39  1  0  0  0  0
M  END
$$$$
