CFR.pdb
 OpenBabel07022418283D

 56 56  0  0  1  0  0  0  0  0999 V2000
    1.0440    0.8420    4.4670 N   0  0  0  0  0  0  0  0  0  0  0  0
   -0.3120    1.1070    4.1660 C   0  0  1  0  0  0  0  0  0  0  0  0
   -0.6210    2.6020    4.3320 C   0  0  0  0  0  0  0  0  0  0  0  0
   -2.3720    2.8160    3.9220 S   0  0  0  0  0  0  0  0  0  0  0  0
   -0.7140    0.7760    2.7800 C   0  0  0  0  0  0  0  0  0  0  0  0
   -1.9150    0.9640    2.4640 O   0  0  0  0  0  0  0  0  0  0  0  0
    1.7460    1.4040    3.9900 H   0  0  0  0  0  0  0  0  0  0  0  0
    1.2610    0.4840    5.3990 H   0  0  0  0  0  0  0  0  0  0  0  0
   -0.9650    0.5800    4.8870 H   0  0  0  0  0  0  0  0  0  0  0  0
   -0.0260    3.0930    3.5110 H   0  0  0  0  0  0  0  0  0  0  0  0
   -0.3490    2.9720    5.3180 H   0  0  0  0  0  0  0  0  0  0  0  0
   -2.5420    3.5400    2.7130 H   0  0  0  0  0  0  0  0  0  0  0  0
    0.1870    0.2650    1.8130 N   0  0  0  0  0  0  0  0  0  0  0  0
   -0.1930   -0.0700    0.4370 C   0  0  1  0  0  0  0  0  0  0  0  0
    0.3150    1.0070   -0.4390 C   0  0  0  0  0  0  0  0  0  0  0  0
    1.7750    1.2310   -0.4250 C   0  0  0  0  0  0  0  0  0  0  0  0
    2.6420    0.6650   -1.3340 C   0  0  0  0  0  0  0  0  0  0  0  0
    3.9960    0.9130   -1.2450 C   0  0  0  0  0  0  0  0  0  0  0  0
    4.5210    1.7190   -0.2630 C   0  0  0  0  0  0  0  0  0  0  0  0
    3.6830    2.2900    0.6480 C   0  0  0  0  0  0  0  0  0  0  0  0
    2.3380    2.0370    0.5500 C   0  0  0  0  0  0  0  0  0  0  0  0
    0.0300   -1.4470    0.1030 C   0  0  0  0  0  0  0  0  0  0  0  0
    0.4570   -2.2270    1.0260 O   0  0  0  0  0  0  0  0  0  0  0  0
    1.1770    0.1360    2.1520 H   0  0  0  0  0  0  0  0  0  0  0  0
   -1.3300    0.0690    0.4480 H   0  0  0  0  0  0  0  0  0  0  0  0
    0.0300    0.9040   -1.5070 H   0  0  0  0  0  0  0  0  0  0  0  0
   -0.1480    1.9940   -0.1380 H   0  0  0  0  0  0  0  0  0  0  0  0
    2.2840    0.0340   -2.1320 H   0  0  0  0  0  0  0  0  0  0  0  0
    4.7180    0.4850   -1.9440 H   0  0  0  0  0  0  0  0  0  0  0  0
    5.6010    1.9190   -0.1890 H   0  0  0  0  0  0  0  0  0  0  0  0
    4.0530    2.9320    1.4380 H   0  0  0  0  0  0  0  0  0  0  0  0
    1.6960    2.5170    1.3050 H   0  0  0  0  0  0  0  0  0  0  0  0
   -3.1330   -1.7700    1.5500 N   0  0  0  0  0  0  0  0  0  0  0  0
   -3.2010   -2.6550    0.4400 C   0  0  0  0  0  0  0  0  0  0  0  0
   -3.4480   -3.9120    0.5970 N   0  0  0  0  0  0  0  0  0  0  0  0
   -2.9890   -2.1150   -0.8790 N   0  0  0  0  0  0  0  0  0  0  0  0
   -3.2230   -3.0090   -1.9720 C   0  0  0  0  0  0  0  0  0  0  0  0
   -2.3290   -4.1730   -2.1370 C   0  0  0  0  0  0  0  0  0  0  0  0
   -0.9060   -4.0320   -2.3920 C   0  0  0  0  0  0  0  0  0  0  0  0
    0.0450   -3.4050   -1.4620 C   0  0  2  0  0  0  0  0  0  0  0  0
   -0.1790   -2.0340   -1.1660 N   0  0  0  0  0  0  0  0  0  0  0  0
    1.4620   -3.5960   -2.0020 C   0  0  0  0  0  0  0  0  0  0  0  0
    2.2400   -2.6450   -2.1250 O   0  0  0  0  0  0  0  0  0  0  0  0
    1.8560   -4.8700   -2.3510 O   0  0  0  0  0  0  0  0  0  0  0  0
   -2.4300   -1.9850    2.2900 H   0  0  0  0  0  0  0  0  0  0  0  0
   -3.7280   -0.9390    1.6690 H   0  0  0  0  0  0  0  0  0  0  0  0
   -3.5960   -4.2510    1.5720 H   0  0  0  0  0  0  0  0  0  0  0  0
   -2.7060   -1.1180   -1.0200 H   0  0  0  0  0  0  0  0  0  0  0  0
   -3.2830   -2.4100   -2.9470 H   0  0  0  0  0  0  0  0  0  0  0  0
   -4.3100   -3.3310   -1.8620 H   0  0  0  0  0  0  0  0  0  0  0  0
   -2.5460   -4.9620   -1.3280 H   0  0  0  0  0  0  0  0  0  0  0  0
   -2.7570   -4.7360   -3.0570 H   0  0  0  0  0  0  0  0  0  0  0  0
   -0.4420   -5.0720   -2.6220 H   0  0  0  0  0  0  0  0  0  0  0  0
   -0.7820   -3.5100   -3.4140 H   0  0  0  0  0  0  0  0  0  0  0  0
    0.0790   -4.0270   -0.5110 H   0  0  0  0  0  0  0  0  0  0  0  0
   -0.5170   -1.3750   -1.9210 H   0  0  0  0  0  0  0  0  0  0  0  0
  1  8  1  0  0  0  0
  2  3  1  0  0  0  0
  2  1  1  0  0  0  0
  2  9  1  1  0  0  0
  3 11  1  0  0  0  0
  4  3  1  0  0  0  0
  5  2  1  0  0  0  0
  6  5  2  0  0  0  0
  7  1  1  0  0  0  0
 10  3  1  0  0  0  0
 12  4  1  0  0  0  0
 13 24  1  0  0  0  0
 13  5  1  0  0  0  0
 14 25  1  6  0  0  0
 14 13  1  0  0  0  0
 15 16  1  0  0  0  0
 15 27  1  0  0  0  0
 15 14  1  0  0  0  0
 16 21  1  0  0  0  0
 17 18  1  0  0  0  0
 17 16  2  0  0  0  0
 18 19  2  0  0  0  0
 19 30  1  0  0  0  0
 19 20  1  0  0  0  0
 20 31  1  0  0  0  0
 21 20  2  0  0  0  0
 21 32  1  0  0  0  0
 22 14  1  0  0  0  0
 22 23  2  0  0  0  0
 26 15  1  0  0  0  0
 28 17  1  0  0  0  0
 29 18  1  0  0  0  0
 33 46  1  0  0  0  0
 33 45  1  0  0  0  0
 34 35  2  0  0  0  0
 34 33  1  0  0  0  0
 35 47  1  0  0  0  0
 36 34  1  0  0  0  0
 37 50  1  0  0  0  0
 37 36  1  0  0  0  0
 38 37  1  0  0  0  0
 38 51  1  0  0  0  0
 39 38  1  0  0  0  0
 39 40  1  0  0  0  0
 40 41  1  0  0  0  0
 40 55  1  1  0  0  0
 41 22  1  0  0  0  0
 42 40  1  0  0  0  0
 43 42  1  0  0  0  0
 44 42  2  0  0  0  0
 48 36  1  0  0  0  0
 49 37  1  0  0  0  0
 52 38  1  0  0  0  0
 53 39  1  0  0  0  0
 54 39  1  0  0  0  0
 56 41  1  0  0  0  0
M  END
$$$$
