CFS.pdb
 OpenBabel07022418283D

 44 44  0  0  1  0  0  0  0  0999 V2000
    2.3380   -4.8570    1.9450 N   0  0  0  0  0  0  0  0  0  0  0  0
    1.9220   -4.0380    0.8070 C   0  0  1  0  0  0  0  0  0  0  0  0
    0.7470   -4.7150    0.1970 C   0  0  0  0  0  0  0  0  0  0  0  0
    0.0560   -3.9000   -1.2440 S   0  0  0  0  0  0  0  0  0  0  0  0
    1.7330   -2.6590    1.2460 C   0  0  0  0  0  0  0  0  0  0  0  0
    1.9630   -2.3640    2.4740 O   0  0  0  0  0  0  0  0  0  0  0  0
    2.1010   -5.8440    1.8130 H   0  0  0  0  0  0  0  0  0  0  0  0
    2.0060   -4.4410    2.8440 H   0  0  0  0  0  0  0  0  0  0  0  0
    2.7550   -4.0560    0.0710 H   0  0  0  0  0  0  0  0  0  0  0  0
    1.0830   -5.7560   -0.0690 H   0  0  0  0  0  0  0  0  0  0  0  0
   -0.0170   -4.8530    1.0040 H   0  0  0  0  0  0  0  0  0  0  0  0
   -0.5250   -4.8860   -2.0730 H   0  0  0  0  0  0  0  0  0  0  0  0
    1.3140   -1.5590    0.4670 N   0  0  0  0  0  0  0  0  0  0  0  0
    1.1680   -0.2210    1.0140 C   0  0  1  0  0  0  0  0  0  0  0  0
    2.1100    0.7530    0.3660 C   0  0  0  0  0  0  0  0  0  0  0  0
    1.9970    2.1320    0.8910 C   0  0  0  0  0  0  0  0  0  0  0  0
    2.7390    2.5510    1.9930 C   0  0  0  0  0  0  0  0  0  0  0  0
    2.6400    3.8390    2.4770 C   0  0  0  0  0  0  0  0  0  0  0  0
    1.8060    4.7700    1.8950 C   0  0  0  0  0  0  0  0  0  0  0  0
    1.0680    4.3630    0.8040 C   0  0  0  0  0  0  0  0  0  0  0  0
    1.1670    3.0740    0.3200 C   0  0  0  0  0  0  0  0  0  0  0  0
   -0.2410    0.1430    0.9970 C   0  0  0  0  0  0  0  0  0  0  0  0
   -0.5640    1.2900    1.4610 O   0  0  0  0  0  0  0  0  0  0  0  0
    1.1040   -1.7090   -0.5340 H   0  0  0  0  0  0  0  0  0  0  0  0
    1.4690   -0.2370    2.1080 H   0  0  0  0  0  0  0  0  0  0  0  0
    3.1370    0.3680    0.5280 H   0  0  0  0  0  0  0  0  0  0  0  0
    1.9760    0.8070   -0.7360 H   0  0  0  0  0  0  0  0  0  0  0  0
    3.3910    1.8000    2.4370 H   0  0  0  0  0  0  0  0  0  0  0  0
    3.2320    4.1390    3.3400 H   0  0  0  0  0  0  0  0  0  0  0  0
    1.7480    5.7780    2.2980 H   0  0  0  0  0  0  0  0  0  0  0  0
    0.4120    5.0900    0.3430 H   0  0  0  0  0  0  0  0  0  0  0  0
    0.5730    2.7710   -0.5490 H   0  0  0  0  0  0  0  0  0  0  0  0
   -2.4260    0.6530   -1.6850 O   0  0  0  0  0  0  0  0  0  0  0  0
   -3.1860   -0.1990   -0.8940 C   0  0  0  0  0  0  0  0  0  0  0  0
   -2.6980   -0.1900    0.5440 C   0  0  2  0  0  0  0  0  0  0  0  0
   -1.3210   -0.6310    0.5230 N   0  0  0  0  0  0  0  0  0  0  0  0
   -3.5630   -1.0840    1.3230 C   0  0  0  0  0  0  0  0  0  0  0  0
   -4.7900   -0.8460    1.4440 O   0  0  0  0  0  0  0  0  0  0  0  0
   -3.0680   -2.2160    1.9520 O   0  0  0  0  0  0  0  0  0  0  0  0
   -1.6490    0.1530   -2.0330 H   0  0  0  0  0  0  0  0  0  0  0  0
   -3.0720   -1.2410   -1.2690 H   0  0  0  0  0  0  0  0  0  0  0  0
   -4.2670    0.0230   -0.9250 H   0  0  0  0  0  0  0  0  0  0  0  0
   -2.7940    0.8360    0.9820 H   0  0  0  0  0  0  0  0  0  0  0  0
   -1.1200   -1.5560    0.1430 H   0  0  0  0  0  0  0  0  0  0  0  0
  1  8  1  0  0  0  0
  2  9  1  6  0  0  0
  2  5  1  0  0  0  0
  2  1  1  0  0  0  0
  3  2  1  0  0  0  0
  3 11  1  0  0  0  0
  4  3  1  0  0  0  0
  5  6  2  0  0  0  0
  7  1  1  0  0  0  0
 10  3  1  0  0  0  0
 12  4  1  0  0  0  0
 13 14  1  0  0  0  0
 13  5  1  0  0  0  0
 14 25  1  1  0  0  0
 15 26  1  0  0  0  0
 15 16  1  0  0  0  0
 15 14  1  0  0  0  0
 16 17  1  0  0  0  0
 17 28  1  0  0  0  0
 17 18  2  0  0  0  0
 18 29  1  0  0  0  0
 19 30  1  0  0  0  0
 19 18  1  0  0  0  0
 20 19  2  0  0  0  0
 21 20  1  0  0  0  0
 21 16  2  0  0  0  0
 22 14  1  0  0  0  0
 22 23  2  0  0  0  0
 24 13  1  0  0  0  0
 27 15  1  0  0  0  0
 31 20  1  0  0  0  0
 32 21  1  0  0  0  0
 33 34  1  0  0  0  0
 34 35  1  0  0  0  0
 35 43  1  1  0  0  0
 35 37  1  0  0  0  0
 36 35  1  0  0  0  0
 36 22  1  0  0  0  0
 37 38  2  0  0  0  0
 37 39  1  0  0  0  0
 40 33  1  0  0  0  0
 41 34  1  0  0  0  0
 42 34  1  0  0  0  0
 44 36  1  0  0  0  0
M  END
$$$$
