CFT.pdb
 OpenBabel07022418283D

 47 47  0  0  1  0  0  0  0  0999 V2000
    2.2080   -2.7210    3.4720 N   0  0  0  0  0  0  0  0  0  0  0  0
    2.0540   -2.1990    2.0990 C   0  0  1  0  0  0  0  0  0  0  0  0
    1.7160   -3.3680    1.2400 C   0  0  0  0  0  0  0  0  0  0  0  0
    1.4950   -2.9580   -0.5050 S   0  0  0  0  0  0  0  0  0  0  0  0
    1.0800   -1.1160    2.1400 C   0  0  0  0  0  0  0  0  0  0  0  0
    0.5560   -0.8070    3.2580 O   0  0  0  0  0  0  0  0  0  0  0  0
    1.5760   -3.5640    3.5920 H   0  0  0  0  0  0  0  0  0  0  0  0
    1.9070   -1.9670    4.1560 H   0  0  0  0  0  0  0  0  0  0  0  0
    3.0740   -1.8570    1.8080 H   0  0  0  0  0  0  0  0  0  0  0  0
    0.8770   -3.9780    1.6320 H   0  0  0  0  0  0  0  0  0  0  0  0
    2.6090   -4.0580    1.2850 H   0  0  0  0  0  0  0  0  0  0  0  0
    0.5040   -3.7630   -1.0910 H   0  0  0  0  0  0  0  0  0  0  0  0
    0.6330   -0.3350    1.0390 N   0  0  0  0  0  0  0  0  0  0  0  0
   -0.3230    0.7110    1.1860 C   0  0  1  0  0  0  0  0  0  0  0  0
    0.3740    2.0150    0.8660 C   0  0  0  0  0  0  0  0  0  0  0  0
    1.4950    2.1560    1.8340 C   0  0  0  0  0  0  0  0  0  0  0  0
    2.7640    1.6550    1.5550 C   0  0  0  0  0  0  0  0  0  0  0  0
    3.8040    1.7850    2.4510 C   0  0  0  0  0  0  0  0  0  0  0  0
    3.6390    2.4160    3.6640 C   0  0  0  0  0  0  0  0  0  0  0  0
    2.3840    2.9150    3.9470 C   0  0  0  0  0  0  0  0  0  0  0  0
    1.3440    2.7850    3.0510 C   0  0  0  0  0  0  0  0  0  0  0  0
   -1.5590    0.5130    0.4440 C   0  0  0  0  0  0  0  0  0  0  0  0
   -2.5010    1.3620    0.4710 O   0  0  0  0  0  0  0  0  0  0  0  0
    1.0270   -0.5450    0.0920 H   0  0  0  0  0  0  0  0  0  0  0  0
   -0.5970    0.7810    2.2820 H   0  0  0  0  0  0  0  0  0  0  0  0
   -0.2900    2.8950    0.9820 H   0  0  0  0  0  0  0  0  0  0  0  0
    0.7400    2.0410   -0.1840 H   0  0  0  0  0  0  0  0  0  0  0  0
    2.8770    1.1600    0.5940 H   0  0  0  0  0  0  0  0  0  0  0  0
    4.7820    1.3940    2.2250 H   0  0  0  0  0  0  0  0  0  0  0  0
    4.4550    2.5250    4.3810 H   0  0  0  0  0  0  0  0  0  0  0  0
    2.2500    3.4120    4.9000 H   0  0  0  0  0  0  0  0  0  0  0  0
    0.3440    3.1850    3.2800 H   0  0  0  0  0  0  0  0  0  0  0  0
   -1.9260   -2.1920   -2.8430 C   0  0  0  0  0  0  0  0  0  0  0  0
   -2.7540   -0.9850   -2.5470 C   0  0  1  0  0  0  0  0  0  0  0  0
   -3.9980   -1.1280   -3.1590 O   0  0  0  0  0  0  0  0  0  0  0  0
   -3.0070   -0.8080   -1.0690 C   0  0  2  0  0  0  0  0  0  0  0  0
   -1.7460   -0.6490   -0.3380 N   0  0  0  0  0  0  0  0  0  0  0  0
   -3.6490   -2.0490   -0.5700 C   0  0  0  0  0  0  0  0  0  0  0  0
   -3.1030   -2.7450    0.3220 O   0  0  0  0  0  0  0  0  0  0  0  0
   -4.8730   -2.4930   -1.0630 O   0  0  0  0  0  0  0  0  0  0  0  0
   -1.8360   -2.7810   -1.8970 H   0  0  0  0  0  0  0  0  0  0  0  0
   -2.4120   -2.8750   -3.5710 H   0  0  0  0  0  0  0  0  0  0  0  0
   -0.9270   -1.9570   -3.2660 H   0  0  0  0  0  0  0  0  0  0  0  0
   -2.2970   -0.0350   -2.9170 H   0  0  0  0  0  0  0  0  0  0  0  0
   -4.1910   -2.0980   -3.3520 H   0  0  0  0  0  0  0  0  0  0  0  0
   -3.6750    0.0460   -0.9020 H   0  0  0  0  0  0  0  0  0  0  0  0
   -1.0350   -1.4080   -0.4270 H   0  0  0  0  0  0  0  0  0  0  0  0
  1  7  1  0  0  0  0
  1  8  1  0  0  0  0
  2  9  1  6  0  0  0
  2  5  1  0  0  0  0
  2  1  1  0  0  0  0
  3 11  1  0  0  0  0
  3 10  1  0  0  0  0
  3  2  1  0  0  0  0
  4  3  1  0  0  0  0
  5  6  2  0  0  0  0
 12  4  1  0  0  0  0
 13 14  1  0  0  0  0
 13  5  1  0  0  0  0
 14 25  1  1  0  0  0
 15 26  1  0  0  0  0
 15 14  1  0  0  0  0
 15 16  1  0  0  0  0
 16 21  1  0  0  0  0
 17 16  2  0  0  0  0
 17 18  1  0  0  0  0
 18 19  2  0  0  0  0
 19 20  1  0  0  0  0
 19 30  1  0  0  0  0
 20 31  1  0  0  0  0
 21 32  1  0  0  0  0
 21 20  2  0  0  0  0
 22 23  2  0  0  0  0
 22 14  1  0  0  0  0
 24 13  1  0  0  0  0
 27 15  1  0  0  0  0
 28 17  1  0  0  0  0
 29 18  1  0  0  0  0
 33 34  1  0  0  0  0
 33 41  1  0  0  0  0
 34 44  1  6  0  0  0
 34 36  1  0  0  0  0
 35 34  1  0  0  0  0
 36 46  1  1  0  0  0
 36 38  1  0  0  0  0
 36 37  1  0  0  0  0
 37 22  1  0  0  0  0
 38 39  1  0  0  0  0
 40 38  2  0  0  0  0
 42 33  1  0  0  0  0
 43 33  1  0  0  0  0
 45 35  1  0  0  0  0
 47 37  1  0  0  0  0
M  END
$$$$
