CFW.pdb
 OpenBabel07022418293D

 57 59  0  0  1  0  0  0  0  0999 V2000
    2.2640   -0.7610    5.5910 N   0  0  0  0  0  0  0  0  0  0  0  0
    3.3190   -0.0810    4.8600 C   0  0  1  0  0  0  0  0  0  0  0  0
    4.2510   -1.2480    4.4070 C   0  0  0  0  0  0  0  0  0  0  0  0
    5.6500   -0.6550    3.4610 S   0  0  0  0  0  0  0  0  0  0  0  0
    2.8320    0.5300    3.6130 C   0  0  0  0  0  0  0  0  0  0  0  0
    3.2290    1.6820    3.2360 O   0  0  0  0  0  0  0  0  0  0  0  0
    2.4580   -0.8230    6.6140 H   0  0  0  0  0  0  0  0  0  0  0  0
    2.1590   -1.7210    5.2180 H   0  0  0  0  0  0  0  0  0  0  0  0
    3.8780    0.6240    5.5000 H   0  0  0  0  0  0  0  0  0  0  0  0
    4.5170   -1.8820    5.2580 H   0  0  0  0  0  0  0  0  0  0  0  0
    3.5730   -1.8340    3.7240 H   0  0  0  0  0  0  0  0  0  0  0  0
    6.3020    0.4310    4.0540 H   0  0  0  0  0  0  0  0  0  0  0  0
    1.8940   -0.0880    2.7170 N   0  0  0  0  0  0  0  0  0  0  0  0
    1.4640    0.5960    1.5190 C   0  0  1  0  0  0  0  0  0  0  0  0
    2.5910    0.3270    0.4500 C   0  0  0  0  0  0  0  0  0  0  0  0
    2.2550    1.0060   -0.8230 C   0  0  0  0  0  0  0  0  0  0  0  0
    1.5440    0.4590   -1.8540 C   0  0  0  0  0  0  0  0  0  0  0  0
    1.2730    1.1610   -3.0250 C   0  0  0  0  0  0  0  0  0  0  0  0
    1.7300    2.4750   -3.1860 C   0  0  0  0  0  0  0  0  0  0  0  0
    2.4410    3.0080   -2.1420 C   0  0  0  0  0  0  0  0  0  0  0  0
    2.7030    2.3070   -0.9890 C   0  0  0  0  0  0  0  0  0  0  0  0
    0.1900    0.1680    0.9590 C   0  0  0  0  0  0  0  0  0  0  0  0
   -0.3940    0.8060    0.0380 O   0  0  0  0  0  0  0  0  0  0  0  0
    1.5430   -1.0270    2.9410 H   0  0  0  0  0  0  0  0  0  0  0  0
    1.5780    1.6780    1.6860 H   0  0  0  0  0  0  0  0  0  0  0  0
    3.5450    0.7040    0.8250 H   0  0  0  0  0  0  0  0  0  0  0  0
    2.6290   -0.7520    0.2750 H   0  0  0  0  0  0  0  0  0  0  0  0
    1.1840   -0.5700   -1.7370 H   0  0  0  0  0  0  0  0  0  0  0  0
    0.7060    0.7130   -3.8300 H   0  0  0  0  0  0  0  0  0  0  0  0
    1.5020    2.9860   -4.1070 H   0  0  0  0  0  0  0  0  0  0  0  0
    2.7970    4.0420   -2.2750 H   0  0  0  0  0  0  0  0  0  0  0  0
    3.2770    2.7630   -0.1610 H   0  0  0  0  0  0  0  0  0  0  0  0
   -0.4790   -1.0080    1.4130 N   0  0  0  0  0  0  0  0  0  0  0  0
   -1.7440   -1.3710    0.7750 C   0  0  1  0  0  0  0  0  0  0  0  0
   -1.5380   -2.6110   -0.0820 C   0  0  0  0  0  0  0  0  0  0  0  0
   -2.8220   -2.9480   -0.7360 C   0  0  0  0  0  0  0  0  0  0  0  0
   -3.6770   -4.0040   -0.4140 C   0  0  0  0  0  0  0  0  0  0  0  0
   -4.7370   -3.9970   -1.2390 N   0  0  0  0  0  0  0  0  0  0  0  0
   -4.6260   -2.9590   -2.1180 C   0  0  0  0  0  0  0  0  0  0  0  0
   -5.3990   -2.4900   -3.1420 C   0  0  0  0  0  0  0  0  0  0  0  0
   -5.0360   -1.3700   -3.8920 C   0  0  0  0  0  0  0  0  0  0  0  0
   -3.8460   -0.7650   -3.5360 C   0  0  0  0  0  0  0  0  0  0  0  0
   -3.0380   -1.1940   -2.5230 C   0  0  0  0  0  0  0  0  0  0  0  0
   -3.4290   -2.3130   -1.7950 C   0  0  0  0  0  0  0  0  0  0  0  0
   -2.6970   -1.7250    1.8440 C   0  0  0  0  0  0  0  0  0  0  0  0
   -3.8890   -2.0960    1.5640 O   0  0  0  0  0  0  0  0  0  0  0  0
   -2.3860   -1.6850    3.1930 O   0  0  0  0  0  0  0  0  0  0  0  0
   -0.1380   -1.6410    2.1620 H   0  0  0  0  0  0  0  0  0  0  0  0
   -2.1530   -0.6040    0.1300 H   0  0  0  0  0  0  0  0  0  0  0  0
   -1.2960   -3.4260    0.6380 H   0  0  0  0  0  0  0  0  0  0  0  0
   -0.7600   -2.5040   -0.8430 H   0  0  0  0  0  0  0  0  0  0  0  0
   -3.4730   -4.7010    0.4000 H   0  0  0  0  0  0  0  0  0  0  0  0
   -5.5380   -4.6710   -1.2300 H   0  0  0  0  0  0  0  0  0  0  0  0
   -6.3180   -3.0280   -3.3570 H   0  0  0  0  0  0  0  0  0  0  0  0
   -5.6850   -1.0420   -4.6900 H   0  0  0  0  0  0  0  0  0  0  0  0
   -3.5180    0.1220   -4.0940 H   0  0  0  0  0  0  0  0  0  0  0  0
   -2.1080   -0.7210   -2.2490 H   0  0  0  0  0  0  0  0  0  0  0  0
  1  7  1  0  0  0  0
  2  9  1  1  0  0  0
  2  1  1  0  0  0  0
  3  2  1  0  0  0  0
  3 10  1  0  0  0  0
  4 12  1  0  0  0  0
  4  3  1  0  0  0  0
  5  2  1  0  0  0  0
  6  5  2  0  0  0  0
  8  1  1  0  0  0  0
 11  3  1  0  0  0  0
 13 24  1  0  0  0  0
 13  5  1  0  0  0  0
 14 25  1  1  0  0  0
 14 13  1  0  0  0  0
 15 26  1  0  0  0  0
 15 14  1  0  0  0  0
 16 15  1  0  0  0  0
 17 28  1  0  0  0  0
 17 16  2  0  0  0  0
 18 17  1  0  0  0  0
 19 18  2  0  0  0  0
 19 20  1  0  0  0  0
 20 21  2  0  0  0  0
 21 16  1  0  0  0  0
 21 32  1  0  0  0  0
 22 33  1  0  0  0  0
 22 14  1  0  0  0  0
 23 22  2  0  0  0  0
 27 15  1  0  0  0  0
 29 18  1  0  0  0  0
 30 19  1  0  0  0  0
 31 20  1  0  0  0  0
 33 48  1  0  0  0  0
 34 49  1  6  0  0  0
 34 33  1  0  0  0  0
 34 45  1  0  0  0  0
 35 50  1  0  0  0  0
 35 34  1  0  0  0  0
 36 37  2  0  0  0  0
 36 35  1  0  0  0  0
 37 52  1  0  0  0  0
 38 53  1  0  0  0  0
 38 37  1  0  0  0  0
 39 44  1  0  0  0  0
 39 38  1  0  0  0  0
 40 39  2  0  0  0  0
 41 42  2  0  0  0  0
 41 40  1  0  0  0  0
 42 43  1  0  0  0  0
 43 57  1  0  0  0  0
 43 44  2  0  0  0  0
 44 36  1  0  0  0  0
 45 47  1  0  0  0  0
 46 45  2  0  0  0  0
 51 35  1  0  0  0  0
 54 40  1  0  0  0  0
 55 41  1  0  0  0  0
 56 42  1  0  0  0  0
M  END
$$$$
