CFY.pdb
 OpenBabel07022418293D

 54 55  0  0  1  0  0  0  0  0999 V2000
    4.8800   -2.3630    3.1250 N   0  0  0  0  0  0  0  0  0  0  0  0
    4.2820   -1.1310    2.6070 C   0  0  1  0  0  0  0  0  0  0  0  0
    5.1370   -0.7370    1.4250 C   0  0  0  0  0  0  0  0  0  0  0  0
    4.6140    0.7620    0.6020 S   0  0  0  0  0  0  0  0  0  0  0  0
    2.8730   -1.4120    2.2530 C   0  0  0  0  0  0  0  0  0  0  0  0
    2.4660   -2.5960    2.3810 O   0  0  0  0  0  0  0  0  0  0  0  0
    4.5630   -3.1270    2.4950 H   0  0  0  0  0  0  0  0  0  0  0  0
    5.9220   -2.3100    3.0080 H   0  0  0  0  0  0  0  0  0  0  0  0
    4.3270   -0.3880    3.4230 H   0  0  0  0  0  0  0  0  0  0  0  0
    5.1900   -1.6170    0.7520 H   0  0  0  0  0  0  0  0  0  0  0  0
    6.1630   -0.5890    1.8170 H   0  0  0  0  0  0  0  0  0  0  0  0
    5.7290    1.4320    0.1070 H   0  0  0  0  0  0  0  0  0  0  0  0
    1.9830   -0.3910    1.7800 N   0  0  0  0  0  0  0  0  0  0  0  0
    0.6230   -0.7720    1.4610 C   0  0  1  0  0  0  0  0  0  0  0  0
   -0.2450   -0.0150    2.4780 C   0  0  0  0  0  0  0  0  0  0  0  0
   -0.0450    1.4480    2.3530 C   0  0  0  0  0  0  0  0  0  0  0  0
    0.9190    2.1350    3.0600 C   0  0  0  0  0  0  0  0  0  0  0  0
    1.0930    3.4930    2.9350 C   0  0  0  0  0  0  0  0  0  0  0  0
    0.2800    4.1970    2.0760 C   0  0  0  0  0  0  0  0  0  0  0  0
   -0.6840    3.5410    1.3630 C   0  0  0  0  0  0  0  0  0  0  0  0
   -0.8350    2.1940    1.5060 C   0  0  0  0  0  0  0  0  0  0  0  0
    0.2290   -0.4530    0.0830 C   0  0  0  0  0  0  0  0  0  0  0  0
    1.0160    0.1370   -0.6980 O   0  0  0  0  0  0  0  0  0  0  0  0
    2.3370    0.5840    1.6840 H   0  0  0  0  0  0  0  0  0  0  0  0
    0.4700   -1.8550    1.6410 H   0  0  0  0  0  0  0  0  0  0  0  0
    0.0800   -0.3370    3.4860 H   0  0  0  0  0  0  0  0  0  0  0  0
   -1.3030   -0.2430    2.3640 H   0  0  0  0  0  0  0  0  0  0  0  0
    1.5700    1.6070    3.7400 H   0  0  0  0  0  0  0  0  0  0  0  0
    1.8400    4.0490    3.4780 H   0  0  0  0  0  0  0  0  0  0  0  0
    0.3870    5.2520    1.9550 H   0  0  0  0  0  0  0  0  0  0  0  0
   -1.3400    4.0760    0.6770 H   0  0  0  0  0  0  0  0  0  0  0  0
   -1.6220    1.7100    0.9140 H   0  0  0  0  0  0  0  0  0  0  0  0
   -5.3370   -5.3680   -0.6430 O   0  0  0  0  0  0  0  0  0  0  0  0
   -4.3900   -4.4680   -1.1370 C   0  0  0  0  0  0  0  0  0  0  0  0
   -4.7310   -3.5170   -2.0740 C   0  0  0  0  0  0  0  0  0  0  0  0
   -3.7940   -2.6150   -2.5720 C   0  0  0  0  0  0  0  0  0  0  0  0
   -2.5030   -2.7000   -2.0990 C   0  0  0  0  0  0  0  0  0  0  0  0
   -1.4830   -1.7470   -2.6150 C   0  0  0  0  0  0  0  0  0  0  0  0
   -1.4060   -0.4800   -1.7660 C   0  0  2  0  0  0  0  0  0  0  0  0
   -1.0560   -0.8080   -0.3980 N   0  0  0  0  0  0  0  0  0  0  0  0
   -2.6520    0.2780   -1.8930 C   0  0  0  0  0  0  0  0  0  0  0  0
   -3.0330    0.6370   -3.0330 O   0  0  0  0  0  0  0  0  0  0  0  0
   -2.1160   -3.6440   -1.1550 C   0  0  0  0  0  0  0  0  0  0  0  0
   -3.0760   -4.5140   -0.6910 C   0  0  0  0  0  0  0  0  0  0  0  0
   -3.4380    0.6210   -0.8070 O   0  0  0  0  0  0  0  0  0  0  0  0
   -5.6370   -5.2220    0.3140 H   0  0  0  0  0  0  0  0  0  0  0  0
   -5.7480   -3.4470   -2.4490 H   0  0  0  0  0  0  0  0  0  0  0  0
   -4.0950   -1.8730   -3.3160 H   0  0  0  0  0  0  0  0  0  0  0  0
   -0.4920   -2.2290   -2.6010 H   0  0  0  0  0  0  0  0  0  0  0  0
   -1.7070   -1.4400   -3.6500 H   0  0  0  0  0  0  0  0  0  0  0  0
   -0.5770    0.1100   -2.1980 H   0  0  0  0  0  0  0  0  0  0  0  0
   -1.7640   -1.3110    0.2260 H   0  0  0  0  0  0  0  0  0  0  0  0
   -1.0780   -3.6830   -0.8000 H   0  0  0  0  0  0  0  0  0  0  0  0
   -2.8210   -5.2650    0.0450 H   0  0  0  0  0  0  0  0  0  0  0  0
  2  1  1  0  0  0  0
  2  9  1  1  0  0  0
  3 11  1  0  0  0  0
  3  2  1  0  0  0  0
  4  3  1  0  0  0  0
  5  6  2  0  0  0  0
  5  2  1  0  0  0  0
  7  1  1  0  0  0  0
  8  1  1  0  0  0  0
 10  3  1  0  0  0  0
 12  4  1  0  0  0  0
 13  5  1  0  0  0  0
 14 25  1  1  0  0  0
 14 13  1  0  0  0  0
 14 15  1  0  0  0  0
 15 26  1  0  0  0  0
 16 15  1  0  0  0  0
 16 17  1  0  0  0  0
 17 28  1  0  0  0  0
 18 17  2  0  0  0  0
 18 29  1  0  0  0  0
 19 18  1  0  0  0  0
 20 21  1  0  0  0  0
 20 19  2  0  0  0  0
 21 16  2  0  0  0  0
 22 14  1  0  0  0  0
 23 22  2  0  0  0  0
 24 13  1  0  0  0  0
 27 15  1  0  0  0  0
 30 19  1  0  0  0  0
 31 20  1  0  0  0  0
 32 21  1  0  0  0  0
 33 46  1  0  0  0  0
 34 44  1  0  0  0  0
 34 33  1  0  0  0  0
 35 34  2  0  0  0  0
 36 37  2  0  0  0  0
 36 35  1  0  0  0  0
 37 43  1  0  0  0  0
 38 49  1  0  0  0  0
 38 37  1  0  0  0  0
 38 39  1  0  0  0  0
 39 51  1  6  0  0  0
 39 40  1  0  0  0  0
 40 22  1  0  0  0  0
 40 52  1  0  0  0  0
 41 39  1  0  0  0  0
 41 45  1  0  0  0  0
 42 41  2  0  0  0  0
 43 53  1  0  0  0  0
 43 44  2  0  0  0  0
 44 54  1  0  0  0  0
 47 35  1  0  0  0  0
 48 36  1  0  0  0  0
 50 38  1  0  0  0  0
M  END
$$$$
