CGA.pdb
 OpenBabel07022418273D

 30 29  0  0  1  0  0  0  0  0999 V2000
   -2.1870   -3.5750    1.8490 N   0  0  0  0  0  0  0  0  0  0  0  0
   -0.8890   -4.1080    2.2120 C   0  0  1  0  0  0  0  0  0  0  0  0
   -0.6320   -5.4060    1.4800 C   0  0  0  0  0  0  0  0  0  0  0  0
   -0.6560   -5.1870   -0.3110 S   0  0  0  0  0  0  0  0  0  0  0  0
    0.1490   -3.0960    1.9580 C   0  0  0  0  0  0  0  0  0  0  0  0
    1.3500   -3.3790    2.2140 O   0  0  0  0  0  0  0  0  0  0  0  0
   -2.3240   -2.7000    2.4040 H   0  0  0  0  0  0  0  0  0  0  0  0
   -2.1310   -3.2890    0.8460 H   0  0  0  0  0  0  0  0  0  0  0  0
   -0.8800   -4.3360    3.2970 H   0  0  0  0  0  0  0  0  0  0  0  0
    0.3370   -5.7910    1.8360 H   0  0  0  0  0  0  0  0  0  0  0  0
   -1.4410   -6.1070    1.7440 H   0  0  0  0  0  0  0  0  0  0  0  0
   -1.9380   -5.2400   -0.8460 H   0  0  0  0  0  0  0  0  0  0  0  0
   -0.1180   -1.8030    1.4370 N   0  0  0  0  0  0  0  0  0  0  0  0
    0.9040   -0.8220    1.1940 C   0  0  0  0  0  0  0  0  0  0  0  0
    0.3160    0.4190    0.6520 C   0  0  0  0  0  0  0  0  0  0  0  0
   -0.9240    0.5620    0.4430 O   0  0  0  0  0  0  0  0  0  0  0  0
   -1.0950   -1.5720    1.2280 H   0  0  0  0  0  0  0  0  0  0  0  0
    1.4660   -0.5530    2.1120 H   0  0  0  0  0  0  0  0  0  0  0  0
    1.6490   -1.2760    0.5050 H   0  0  0  0  0  0  0  0  0  0  0  0
    0.9450    3.9730    0.6510 C   0  0  0  0  0  0  0  0  0  0  0  0
    0.6330    2.7670   -0.1950 C   0  0  2  0  0  0  0  0  0  0  0  0
    1.1270    1.5420    0.3290 N   0  0  0  0  0  0  0  0  0  0  0  0
    1.2140    2.9970   -1.5320 C   0  0  0  0  0  0  0  0  0  0  0  0
    0.9440    4.0090   -2.2200 O   0  0  0  0  0  0  0  0  0  0  0  0
    2.0880    2.0650   -2.0520 O   0  0  0  0  0  0  0  0  0  0  0  0
    0.9350    4.8530   -0.0270 H   0  0  0  0  0  0  0  0  0  0  0  0
    0.1580    4.1700    1.4120 H   0  0  0  0  0  0  0  0  0  0  0  0
    1.9620    3.9170    1.0840 H   0  0  0  0  0  0  0  0  0  0  0  0
   -0.4790    2.7660   -0.3330 H   0  0  0  0  0  0  0  0  0  0  0  0
    2.1540    1.4530    0.4900 H   0  0  0  0  0  0  0  0  0  0  0  0
  1  2  1  0  0  0  0
  1  7  1  0  0  0  0
  2  9  1  1  0  0  0
  3 11  1  0  0  0  0
  3 10  1  0  0  0  0
  3  2  1  0  0  0  0
  4  3  1  0  0  0  0
  5  2  1  0  0  0  0
  5  6  2  0  0  0  0
  8  1  1  0  0  0  0
 12  4  1  0  0  0  0
 13  5  1  0  0  0  0
 14 13  1  0  0  0  0
 14 18  1  0  0  0  0
 15 14  1  0  0  0  0
 16 15  2  0  0  0  0
 17 13  1  0  0  0  0
 19 14  1  0  0  0  0
 20 28  1  0  0  0  0
 20 27  1  0  0  0  0
 21 29  1  6  0  0  0
 21 22  1  0  0  0  0
 21 20  1  0  0  0  0
 22 30  1  0  0  0  0
 22 15  1  0  0  0  0
 23 21  1  0  0  0  0
 24 23  2  0  0  0  0
 25 23  1  0  0  0  0
 26 20  1  0  0  0  0
M  END
$$$$
