CGD.pdb
 OpenBabel07022418273D

 33 32  0  0  1  0  0  0  0  0999 V2000
    2.4330   -0.9130    4.5810 N   0  0  0  0  0  0  0  0  0  0  0  0
    1.5600   -1.8710    3.9570 C   0  0  1  0  0  0  0  0  0  0  0  0
    0.1860   -1.8140    4.6250 C   0  0  0  0  0  0  0  0  0  0  0  0
   -0.5200   -0.1510    4.4430 S   0  0  0  0  0  0  0  0  0  0  0  0
    1.4270   -1.6310    2.5000 C   0  0  0  0  0  0  0  0  0  0  0  0
    2.0390   -0.6900    1.9510 O   0  0  0  0  0  0  0  0  0  0  0  0
    2.5540   -0.0350    4.0590 H   0  0  0  0  0  0  0  0  0  0  0  0
    2.2250   -0.7720    5.5940 H   0  0  0  0  0  0  0  0  0  0  0  0
    1.9680   -2.8820    4.1830 H   0  0  0  0  0  0  0  0  0  0  0  0
   -0.4440   -2.5540    4.1220 H   0  0  0  0  0  0  0  0  0  0  0  0
    0.2850   -2.0180    5.7040 H   0  0  0  0  0  0  0  0  0  0  0  0
   -1.9040   -0.2030    4.7150 H   0  0  0  0  0  0  0  0  0  0  0  0
    0.5900   -2.4910    1.7420 N   0  0  0  0  0  0  0  0  0  0  0  0
    0.3970   -2.3340    0.3170 C   0  0  0  0  0  0  0  0  0  0  0  0
   -0.1780   -0.9930    0.0760 C   0  0  0  0  0  0  0  0  0  0  0  0
   -0.3970   -0.2490    1.0570 O   0  0  0  0  0  0  0  0  0  0  0  0
    0.1050   -3.2580    2.2550 H   0  0  0  0  0  0  0  0  0  0  0  0
   -0.2990   -3.1460   -0.0240 H   0  0  0  0  0  0  0  0  0  0  0  0
    1.3830   -2.4390   -0.2080 H   0  0  0  0  0  0  0  0  0  0  0  0
   -0.5010   -0.4950   -1.2280 N   0  0  0  0  0  0  0  0  0  0  0  0
   -1.0540    0.7920   -1.4770 C   0  0  1  0  0  0  0  0  0  0  0  0
   -0.1790    1.7490   -2.2140 C   0  0  0  0  0  0  0  0  0  0  0  0
    0.1520    1.2010   -3.5450 C   0  0  0  0  0  0  0  0  0  0  0  0
   -0.3250    0.1120   -3.9000 O   0  0  0  0  0  0  0  0  0  0  0  0
   -2.4260    0.7300   -2.0280 C   0  0  0  0  0  0  0  0  0  0  0  0
   -3.0270    1.7860   -2.2960 O   0  0  0  0  0  0  0  0  0  0  0  0
    0.9910    1.8580   -4.4420 O   0  0  0  0  0  0  0  0  0  0  0  0
   -3.0290   -0.4840   -2.2420 O   0  0  0  0  0  0  0  0  0  0  0  0
   -0.3030   -1.1540   -2.0040 H   0  0  0  0  0  0  0  0  0  0  0  0
   -1.1970    1.2630   -0.4480 H   0  0  0  0  0  0  0  0  0  0  0  0
    0.7190    2.0560   -1.6420 H   0  0  0  0  0  0  0  0  0  0  0  0
   -0.7150    2.7230   -2.4170 H   0  0  0  0  0  0  0  0  0  0  0  0
    1.5310    1.2600   -5.0570 H   0  0  0  0  0  0  0  0  0  0  0  0
  1  8  1  0  0  0  0
  2  9  1  1  0  0  0
  2  1  1  0  0  0  0
  2  3  1  0  0  0  0
  3 11  1  0  0  0  0
  4  3  1  0  0  0  0
  4 12  1  0  0  0  0
  5  2  1  0  0  0  0
  6  5  2  0  0  0  0
  7  1  1  0  0  0  0
 10  3  1  0  0  0  0
 13 17  1  0  0  0  0
 13  5  1  0  0  0  0
 14 13  1  0  0  0  0
 15 14  1  0  0  0  0
 15 16  2  0  0  0  0
 18 14  1  0  0  0  0
 19 14  1  0  0  0  0
 20 15  1  0  0  0  0
 21 20  1  0  0  0  0
 21 30  1  1  0  0  0
 22 31  1  0  0  0  0
 22 21  1  0  0  0  0
 23 22  1  0  0  0  0
 24 23  2  0  0  0  0
 25 21  1  0  0  0  0
 26 25  2  0  0  0  0
 27 23  1  0  0  0  0
 28 25  1  0  0  0  0
 29 20  1  0  0  0  0
 32 22  1  0  0  0  0
 33 27  1  0  0  0  0
M  END
$$$$
