CGE.pdb
 OpenBabel07022418273D

 36 35  0  0  1  0  0  0  0  0999 V2000
   -0.1750   -4.8310    4.5130 N   0  0  0  0  0  0  0  0  0  0  0  0
   -0.7500   -4.4350    3.2160 C   0  0  1  0  0  0  0  0  0  0  0  0
   -2.2280   -4.2140    3.5200 C   0  0  0  0  0  0  0  0  0  0  0  0
   -3.0960   -3.7180    2.0230 S   0  0  0  0  0  0  0  0  0  0  0  0
   -0.0660   -3.2060    2.7900 C   0  0  0  0  0  0  0  0  0  0  0  0
    0.7620   -2.6690    3.5710 O   0  0  0  0  0  0  0  0  0  0  0  0
    0.8310   -4.5460    4.5740 H   0  0  0  0  0  0  0  0  0  0  0  0
   -0.6810   -4.3240    5.2690 H   0  0  0  0  0  0  0  0  0  0  0  0
   -0.5860   -5.2360    2.4940 H   0  0  0  0  0  0  0  0  0  0  0  0
   -2.2570   -3.4320    4.3130 H   0  0  0  0  0  0  0  0  0  0  0  0
   -2.6110   -5.1670    3.9330 H   0  0  0  0  0  0  0  0  0  0  0  0
   -3.8660   -2.5360    2.2470 H   0  0  0  0  0  0  0  0  0  0  0  0
   -0.2780   -2.5720    1.5370 N   0  0  0  0  0  0  0  0  0  0  0  0
    0.4600   -1.3620    1.2420 C   0  0  0  0  0  0  0  0  0  0  0  0
    0.1360   -0.8220   -0.0980 C   0  0  0  0  0  0  0  0  0  0  0  0
   -0.6780   -1.3880   -0.8430 O   0  0  0  0  0  0  0  0  0  0  0  0
   -0.9540   -3.0080    0.8870 H   0  0  0  0  0  0  0  0  0  0  0  0
    1.5500   -1.5610    1.3690 H   0  0  0  0  0  0  0  0  0  0  0  0
    0.2170   -0.6400    2.0610 H   0  0  0  0  0  0  0  0  0  0  0  0
    0.7660    0.3500   -0.5260 N   0  0  0  0  0  0  0  0  0  0  0  0
    0.5640    0.9990   -1.7950 C   0  0  1  0  0  0  0  0  0  0  0  0
   -0.1080    2.3400   -1.5760 C   0  0  0  0  0  0  0  0  0  0  0  0
    0.6930    3.2510   -0.7020 C   0  0  0  0  0  0  0  0  0  0  0  0
    2.0230    3.6070   -1.1830 C   0  0  0  0  0  0  0  0  0  0  0  0
    2.1930    4.1570   -2.2930 O   0  0  0  0  0  0  0  0  0  0  0  0
    1.7380    1.0460   -2.6610 C   0  0  0  0  0  0  0  0  0  0  0  0
    1.6490    1.5510   -3.7960 O   0  0  0  0  0  0  0  0  0  0  0  0
    3.1530    3.3450   -0.4240 O   0  0  0  0  0  0  0  0  0  0  0  0
    2.9450    0.5420   -2.2450 O   0  0  0  0  0  0  0  0  0  0  0  0
    1.4470    0.8130    0.1170 H   0  0  0  0  0  0  0  0  0  0  0  0
   -0.2080    0.3710   -2.3340 H   0  0  0  0  0  0  0  0  0  0  0  0
   -1.0580    2.1220   -1.0400 H   0  0  0  0  0  0  0  0  0  0  0  0
   -0.3580    2.7740   -2.5570 H   0  0  0  0  0  0  0  0  0  0  0  0
    0.7050    2.8500    0.3390 H   0  0  0  0  0  0  0  0  0  0  0  0
    0.0870    4.2040   -0.6180 H   0  0  0  0  0  0  0  0  0  0  0  0
    4.0260    3.1480   -0.9380 H   0  0  0  0  0  0  0  0  0  0  0  0
  1  7  1  0  0  0  0
  1  8  1  0  0  0  0
  2  9  1  6  0  0  0
  2  3  1  0  0  0  0
  2  1  1  0  0  0  0
  3 11  1  0  0  0  0
  3 10  1  0  0  0  0
  4 12  1  0  0  0  0
  4  3  1  0  0  0  0
  5  2  1  0  0  0  0
  5  6  2  0  0  0  0
 13  5  1  0  0  0  0
 14 18  1  0  0  0  0
 14 13  1  0  0  0  0
 14 19  1  0  0  0  0
 15 14  1  0  0  0  0
 16 15  2  0  0  0  0
 17 13  1  0  0  0  0
 20 15  1  0  0  0  0
 20 30  1  0  0  0  0
 21 31  1  6  0  0  0
 21 22  1  0  0  0  0
 21 20  1  0  0  0  0
 22 32  1  0  0  0  0
 22 23  1  0  0  0  0
 23 35  1  0  0  0  0
 23 34  1  0  0  0  0
 24 23  1  0  0  0  0
 24 28  1  0  0  0  0
 25 24  2  0  0  0  0
 26 29  1  0  0  0  0
 26 21  1  0  0  0  0
 27 26  2  0  0  0  0
 33 22  1  0  0  0  0
 36 28  1  0  0  0  0
M  END
$$$$
