CGF.pdb
 OpenBabel07022418273D

 40 40  0  0  1  0  0  0  0  0999 V2000
    0.8610   -5.3070   -0.3230 N   0  0  0  0  0  0  0  0  0  0  0  0
   -0.5110   -4.8420   -0.3540 C   0  0  1  0  0  0  0  0  0  0  0  0
   -1.1770   -5.1970    0.9580 C   0  0  0  0  0  0  0  0  0  0  0  0
   -0.3300   -4.4250    2.3610 S   0  0  0  0  0  0  0  0  0  0  0  0
   -0.5780   -3.4000   -0.6450 C   0  0  0  0  0  0  0  0  0  0  0  0
   -1.6910   -2.8510   -0.7050 O   0  0  0  0  0  0  0  0  0  0  0  0
    1.3200   -5.1710   -1.2540 H   0  0  0  0  0  0  0  0  0  0  0  0
    1.4080   -4.8650    0.4460 H   0  0  0  0  0  0  0  0  0  0  0  0
   -1.0320   -5.3830   -1.1580 H   0  0  0  0  0  0  0  0  0  0  0  0
   -1.0500   -6.3040    1.0850 H   0  0  0  0  0  0  0  0  0  0  0  0
   -2.2470   -4.9740    0.9660 H   0  0  0  0  0  0  0  0  0  0  0  0
    0.7050   -3.5770    1.9520 H   0  0  0  0  0  0  0  0  0  0  0  0
    0.5950   -2.6050   -0.8620 N   0  0  0  0  0  0  0  0  0  0  0  0
    0.5330   -1.1900   -1.1470 C   0  0  0  0  0  0  0  0  0  0  0  0
   -0.1280   -0.4800   -0.0310 C   0  0  0  0  0  0  0  0  0  0  0  0
   -0.5230   -1.1500    0.9540 O   0  0  0  0  0  0  0  0  0  0  0  0
    1.5040   -3.1420   -0.7940 H   0  0  0  0  0  0  0  0  0  0  0  0
   -0.0020   -1.0000   -2.1230 H   0  0  0  0  0  0  0  0  0  0  0  0
    1.5890   -0.8390   -1.2300 H   0  0  0  0  0  0  0  0  0  0  0  0
   -0.3360    0.9250   -0.0210 N   0  0  0  0  0  0  0  0  0  0  0  0
   -0.9950    1.5110    1.1270 C   0  0  1  0  0  0  0  0  0  0  0  0
   -0.2080    2.6640    1.6480 C   0  0  0  0  0  0  0  0  0  0  0  0
    1.1480    2.3550    2.0860 C   0  0  0  0  0  0  0  0  0  0  0  0
    2.1620    2.4520    1.1250 C   0  0  0  0  0  0  0  0  0  0  0  0
    3.4740    2.1800    1.4440 C   0  0  0  0  0  0  0  0  0  0  0  0
    3.7910    1.8050    2.7400 C   0  0  0  0  0  0  0  0  0  0  0  0
    2.7720    1.7150    3.6740 C   0  0  0  0  0  0  0  0  0  0  0  0
    1.4600    1.9820    3.3760 C   0  0  0  0  0  0  0  0  0  0  0  0
   -2.3070    2.0650    0.6320 C   0  0  0  0  0  0  0  0  0  0  0  0
   -3.1130    2.6440    1.4110 O   0  0  0  0  0  0  0  0  0  0  0  0
   -2.6910    1.9660   -0.6970 O   0  0  0  0  0  0  0  0  0  0  0  0
   -0.0090    1.4860   -0.8390 H   0  0  0  0  0  0  0  0  0  0  0  0
   -1.2510    0.7510    1.8590 H   0  0  0  0  0  0  0  0  0  0  0  0
   -0.7560    3.1110    2.5230 H   0  0  0  0  0  0  0  0  0  0  0  0
   -0.1660    3.4650    0.8830 H   0  0  0  0  0  0  0  0  0  0  0  0
    1.9530    2.7420    0.1040 H   0  0  0  0  0  0  0  0  0  0  0  0
    4.2870    2.2460    0.7190 H   0  0  0  0  0  0  0  0  0  0  0  0
    4.8260    1.5800    3.0300 H   0  0  0  0  0  0  0  0  0  0  0  0
    2.9910    1.4230    4.7010 H   0  0  0  0  0  0  0  0  0  0  0  0
    0.6320    1.9260    4.0680 H   0  0  0  0  0  0  0  0  0  0  0  0
  1  8  1  0  0  0  0
  2  9  1  6  0  0  0
  2  1  1  0  0  0  0
  2  3  1  0  0  0  0
  3 11  1  0  0  0  0
  3 10  1  0  0  0  0
  3  4  1  0  0  0  0
  5  2  1  0  0  0  0
  6  5  2  0  0  0  0
  7  1  1  0  0  0  0
 12  4  1  0  0  0  0
 13 17  1  0  0  0  0
 13  5  1  0  0  0  0
 14 13  1  0  0  0  0
 14 15  1  0  0  0  0
 15 20  1  0  0  0  0
 15 16  2  0  0  0  0
 18 14  1  0  0  0  0
 19 14  1  0  0  0  0
 20 21  1  0  0  0  0
 21 22  1  0  0  0  0
 21 33  1  1  0  0  0
 22 23  1  0  0  0  0
 22 34  1  0  0  0  0
 23 28  1  0  0  0  0
 24 25  1  0  0  0  0
 24 23  2  0  0  0  0
 25 26  2  0  0  0  0
 26 38  1  0  0  0  0
 26 27  1  0  0  0  0
 27 39  1  0  0  0  0
 28 27  2  0  0  0  0
 28 40  1  0  0  0  0
 29 21  1  0  0  0  0
 29 30  1  0  0  0  0
 31 29  2  0  0  0  0
 32 20  1  0  0  0  0
 35 22  1  0  0  0  0
 36 24  1  0  0  0  0
 37 25  1  0  0  0  0
M  END
$$$$
