CGG.pdb
 OpenBabel07022418273D

 27 26  0  0  1  0  0  0  0  0999 V2000
    1.9330   -3.9190    3.1880 N   0  0  0  0  0  0  0  0  0  0  0  0
    0.9880   -3.0830    2.5210 C   0  0  1  0  0  0  0  0  0  0  0  0
    0.3790   -2.1480    3.5650 C   0  0  0  0  0  0  0  0  0  0  0  0
    1.6290   -1.1190    4.3540 S   0  0  0  0  0  0  0  0  0  0  0  0
    1.5880   -2.2990    1.4120 C   0  0  0  0  0  0  0  0  0  0  0  0
    2.8010   -2.4080    1.1430 O   0  0  0  0  0  0  0  0  0  0  0  0
    2.9280   -3.6990    2.9600 H   0  0  0  0  0  0  0  0  0  0  0  0
    1.7730   -4.0190    4.2160 H   0  0  0  0  0  0  0  0  0  0  0  0
    0.1520   -3.7000    2.1410 H   0  0  0  0  0  0  0  0  0  0  0  0
   -0.0240   -2.8330    4.3650 H   0  0  0  0  0  0  0  0  0  0  0  0
   -0.4760   -1.5860    3.1750 H   0  0  0  0  0  0  0  0  0  0  0  0
    2.2070   -0.2200    3.4400 H   0  0  0  0  0  0  0  0  0  0  0  0
    0.7850   -1.4130    0.6420 N   0  0  0  0  0  0  0  0  0  0  0  0
    1.2970   -0.6350   -0.4320 C   0  0  0  0  0  0  0  0  0  0  0  0
    0.3560    0.2270   -1.1300 C   0  0  0  0  0  0  0  0  0  0  0  0
    0.7700    0.9510   -2.1080 O   0  0  0  0  0  0  0  0  0  0  0  0
   -0.2100   -1.3730    0.9190 H   0  0  0  0  0  0  0  0  0  0  0  0
    1.7980   -1.2930   -1.2210 H   0  0  0  0  0  0  0  0  0  0  0  0
    2.1620   -0.0150   -0.0660 H   0  0  0  0  0  0  0  0  0  0  0  0
   -1.0040    0.3320   -0.8090 N   0  0  0  0  0  0  0  0  0  0  0  0
   -1.9030    1.2360   -1.5670 C   0  0  0  0  0  0  0  0  0  0  0  0
   -1.3730    2.6200   -1.4110 C   0  0  0  0  0  0  0  0  0  0  0  0
   -0.3480    2.8850   -0.7330 O   0  0  0  0  0  0  0  0  0  0  0  0
   -1.9970    3.7060   -2.0190 O   0  0  0  0  0  0  0  0  0  0  0  0
   -1.3900   -0.2320   -0.0280 H   0  0  0  0  0  0  0  0  0  0  0  0
   -2.8790    1.1870   -1.0810 H   0  0  0  0  0  0  0  0  0  0  0  0
   -1.9260    0.9260   -2.6220 H   0  0  0  0  0  0  0  0  0  0  0  0
  1  8  1  0  0  0  0
  2  9  1  6  0  0  0
  2  1  1  0  0  0  0
  2  3  1  0  0  0  0
  3  4  1  0  0  0  0
  3 10  1  0  0  0  0
  5  2  1  0  0  0  0
  6  5  2  0  0  0  0
  7  1  1  0  0  0  0
 11  3  1  0  0  0  0
 12  4  1  0  0  0  0
 13 17  1  0  0  0  0
 13  5  1  0  0  0  0
 14 19  1  0  0  0  0
 14 13  1  0  0  0  0
 15 20  1  0  0  0  0
 15 14  1  0  0  0  0
 16 15  2  0  0  0  0
 18 14  1  0  0  0  0
 20 25  1  0  0  0  0
 21 22  1  0  0  0  0
 21 26  1  0  0  0  0
 21 20  1  0  0  0  0
 22 23  1  0  0  0  0
 24 22  2  0  0  0  0
 27 21  1  0  0  0  0
M  END
$$$$
