CGI.pdb
 OpenBabel07022418273D

 39 38  0  0  1  0  0  0  0  0999 V2000
   -0.1470   -2.5780    5.2920 N   0  0  0  0  0  0  0  0  0  0  0  0
    0.2120   -3.3830    4.1580 C   0  0  1  0  0  0  0  0  0  0  0  0
   -0.9570   -4.2060    3.6560 C   0  0  0  0  0  0  0  0  0  0  0  0
   -1.5670   -5.3210    4.9320 S   0  0  0  0  0  0  0  0  0  0  0  0
    0.7740   -2.5260    3.0920 C   0  0  0  0  0  0  0  0  0  0  0  0
    0.8670   -1.3030    3.2760 O   0  0  0  0  0  0  0  0  0  0  0  0
    0.2600   -1.6190    5.2790 H   0  0  0  0  0  0  0  0  0  0  0  0
   -1.1730   -2.5530    5.4870 H   0  0  0  0  0  0  0  0  0  0  0  0
    1.0070   -4.0890    4.4830 H   0  0  0  0  0  0  0  0  0  0  0  0
   -1.7950   -3.5710    3.3230 H   0  0  0  0  0  0  0  0  0  0  0  0
   -0.6330   -4.7920    2.7790 H   0  0  0  0  0  0  0  0  0  0  0  0
   -1.9050   -6.5860    4.4170 H   0  0  0  0  0  0  0  0  0  0  0  0
    1.2020   -3.1280    1.8600 N   0  0  0  0  0  0  0  0  0  0  0  0
    1.7430   -2.2680    0.8430 C   0  0  0  0  0  0  0  0  0  0  0  0
    0.7020   -1.2740    0.4670 C   0  0  0  0  0  0  0  0  0  0  0  0
   -0.4400   -1.2450    0.9890 O   0  0  0  0  0  0  0  0  0  0  0  0
    1.1200   -4.1710    1.7090 H   0  0  0  0  0  0  0  0  0  0  0  0
    2.6060   -1.7280    1.2960 H   0  0  0  0  0  0  0  0  0  0  0  0
    2.1330   -2.8210   -0.0160 H   0  0  0  0  0  0  0  0  0  0  0  0
   -0.2630    3.7870   -2.2770 C   0  0  0  0  0  0  0  0  0  0  0  0
   -0.4020    3.2360   -0.9080 C   0  0  0  0  0  0  0  0  0  0  0  0
    0.4460    2.0880   -0.5300 C   0  0  2  0  0  0  0  0  0  0  0  0
    1.9270    2.3800   -0.6670 C   0  0  0  0  0  0  0  0  0  0  0  0
    0.0240    0.7180   -0.9620 C   0  0  2  0  0  0  0  0  0  0  0  0
    0.9730   -0.2940   -0.5260 N   0  0  0  0  0  0  0  0  0  0  0  0
   -0.4460    0.5460   -2.3220 C   0  0  0  0  0  0  0  0  0  0  0  0
   -1.3510    1.2520   -2.8350 O   0  0  0  0  0  0  0  0  0  0  0  0
    0.0440   -0.4120   -3.2180 O   0  0  0  0  0  0  0  0  0  0  0  0
   -1.2360    3.9290   -2.7880 H   0  0  0  0  0  0  0  0  0  0  0  0
    0.4080    3.2610   -2.9650 H   0  0  0  0  0  0  0  0  0  0  0  0
    0.1290    4.8610   -2.2110 H   0  0  0  0  0  0  0  0  0  0  0  0
   -0.2040    4.0710   -0.1680 H   0  0  0  0  0  0  0  0  0  0  0  0
   -1.4790    2.9720   -0.6670 H   0  0  0  0  0  0  0  0  0  0  0  0
    0.3530    2.0900    0.6440 H   0  0  0  0  0  0  0  0  0  0  0  0
    2.2860    2.2180   -1.7090 H   0  0  0  0  0  0  0  0  0  0  0  0
    2.0460    3.4680   -0.4800 H   0  0  0  0  0  0  0  0  0  0  0  0
    2.5210    1.8520    0.0820 H   0  0  0  0  0  0  0  0  0  0  0  0
   -0.8970    0.4970   -0.3260 H   0  0  0  0  0  0  0  0  0  0  0  0
    1.9280   -0.3240   -0.9570 H   0  0  0  0  0  0  0  0  0  0  0  0
  1  8  1  0  0  0  0
  2  9  1  1  0  0  0
  2  1  1  0  0  0  0
  3  2  1  0  0  0  0
  3  4  1  0  0  0  0
  5  6  2  0  0  0  0
  5  2  1  0  0  0  0
  7  1  1  0  0  0  0
 10  3  1  0  0  0  0
 11  3  1  0  0  0  0
 12  4  1  0  0  0  0
 13  5  1  0  0  0  0
 14 18  1  0  0  0  0
 14 13  1  0  0  0  0
 15 14  1  0  0  0  0
 15 16  2  0  0  0  0
 17 13  1  0  0  0  0
 19 14  1  0  0  0  0
 20 31  1  0  0  0  0
 20 21  1  0  0  0  0
 21 33  1  0  0  0  0
 21 22  1  0  0  0  0
 21 32  1  0  0  0  0
 22 34  1  1  0  0  0
 23 22  1  0  0  0  0
 23 36  1  0  0  0  0
 23 37  1  0  0  0  0
 24 22  1  0  0  0  0
 24 25  1  0  0  0  0
 24 38  1  1  0  0  0
 25 15  1  0  0  0  0
 26 24  1  0  0  0  0
 27 26  1  0  0  0  0
 28 26  2  0  0  0  0
 29 20  1  0  0  0  0
 30 20  1  0  0  0  0
 35 23  1  0  0  0  0
 39 25  1  0  0  0  0
M  END
$$$$
