CGK.pdb
 OpenBabel07022418273D

 41 40  0  0  1  0  0  0  0  0999 V2000
    0.3830   -3.3510    3.7530 N   0  0  0  0  0  0  0  0  0  0  0  0
    0.9770   -3.7490    2.4800 C   0  0  1  0  0  0  0  0  0  0  0  0
   -0.1630   -4.3430    1.6770 C   0  0  0  0  0  0  0  0  0  0  0  0
    0.3420   -4.9150    0.0460 S   0  0  0  0  0  0  0  0  0  0  0  0
    1.5830   -2.5710    1.8240 C   0  0  0  0  0  0  0  0  0  0  0  0
    1.4370   -1.4340    2.3400 O   0  0  0  0  0  0  0  0  0  0  0  0
    0.9320   -2.5730    4.1940 H   0  0  0  0  0  0  0  0  0  0  0  0
   -0.5880   -3.0110    3.5730 H   0  0  0  0  0  0  0  0  0  0  0  0
    1.7100   -4.5480    2.6580 H   0  0  0  0  0  0  0  0  0  0  0  0
   -0.5850   -5.1680    2.2820 H   0  0  0  0  0  0  0  0  0  0  0  0
   -0.9850   -3.5750    1.6080 H   0  0  0  0  0  0  0  0  0  0  0  0
   -0.6330   -4.4990   -0.8790 H   0  0  0  0  0  0  0  0  0  0  0  0
    2.3310   -2.6690    0.6250 N   0  0  0  0  0  0  0  0  0  0  0  0
    2.9200   -1.5370   -0.0400 C   0  0  0  0  0  0  0  0  0  0  0  0
    1.9530   -0.5540   -0.5460 C   0  0  0  0  0  0  0  0  0  0  0  0
    2.3370    0.5220   -1.0980 O   0  0  0  0  0  0  0  0  0  0  0  0
    2.4880   -3.6110    0.1700 H   0  0  0  0  0  0  0  0  0  0  0  0
    3.6730   -1.8360   -0.7990 H   0  0  0  0  0  0  0  0  0  0  0  0
    3.5250   -1.0070    0.7540 H   0  0  0  0  0  0  0  0  0  0  0  0
    0.5790   -0.7650   -0.4430 N   0  0  0  0  0  0  0  0  0  0  0  0
   -0.4930    0.0740   -0.8440 C   0  0  1  0  0  0  0  0  0  0  0  0
   -0.1910    1.5400   -1.0240 C   0  0  0  0  0  0  0  0  0  0  0  0
    0.2440    2.2720    0.1870 C   0  0  0  0  0  0  0  0  0  0  0  0
   -0.8000    2.2500    1.2950 C   0  0  0  0  0  0  0  0  0  0  0  0
   -0.1820    3.0480    2.4520 C   0  0  0  0  0  0  0  0  0  0  0  0
    1.0410    2.3700    2.8280 N   0  0  0  0  0  0  0  0  0  0  0  0
   -1.1810   -0.4390   -2.0220 C   0  0  0  0  0  0  0  0  0  0  0  0
   -2.1680    0.1740   -2.5300 O   0  0  0  0  0  0  0  0  0  0  0  0
   -0.7980   -1.6110   -2.6420 O   0  0  0  0  0  0  0  0  0  0  0  0
    0.2700   -1.7070   -0.0190 H   0  0  0  0  0  0  0  0  0  0  0  0
   -1.2450    0.0980    0.0410 H   0  0  0  0  0  0  0  0  0  0  0  0
   -1.1810    1.9920   -1.3510 H   0  0  0  0  0  0  0  0  0  0  0  0
    0.5230    1.7400   -1.8490 H   0  0  0  0  0  0  0  0  0  0  0  0
    0.2930    3.3660   -0.1100 H   0  0  0  0  0  0  0  0  0  0  0  0
    1.2180    2.0600    0.6180 H   0  0  0  0  0  0  0  0  0  0  0  0
   -1.0030    1.2580    1.6920 H   0  0  0  0  0  0  0  0  0  0  0  0
   -1.7320    2.7010    0.9320 H   0  0  0  0  0  0  0  0  0  0  0  0
   -0.0140    4.0980    2.1770 H   0  0  0  0  0  0  0  0  0  0  0  0
   -0.9430    3.0160    3.2700 H   0  0  0  0  0  0  0  0  0  0  0  0
    0.9860    1.9120    3.7460 H   0  0  0  0  0  0  0  0  0  0  0  0
    1.8940    2.9140    2.6500 H   0  0  0  0  0  0  0  0  0  0  0  0
  1  7  1  0  0  0  0
  2  9  1  1  0  0  0
  2  1  1  0  0  0  0
  3 10  1  0  0  0  0
  3  2  1  0  0  0  0
  4  3  1  0  0  0  0
  5  6  2  0  0  0  0
  5  2  1  0  0  0  0
  8  1  1  0  0  0  0
 11  3  1  0  0  0  0
 12  4  1  0  0  0  0
 13  5  1  0  0  0  0
 14 13  1  0  0  0  0
 14 19  1  0  0  0  0
 15 20  1  0  0  0  0
 15 14  1  0  0  0  0
 16 15  2  0  0  0  0
 17 13  1  0  0  0  0
 18 14  1  0  0  0  0
 20 30  1  0  0  0  0
 21 20  1  0  0  0  0
 21 31  1  1  0  0  0
 22 21  1  0  0  0  0
 22 23  1  0  0  0  0
 23 35  1  0  0  0  0
 23 24  1  0  0  0  0
 24 36  1  0  0  0  0
 24 25  1  0  0  0  0
 25 26  1  0  0  0  0
 25 39  1  0  0  0  0
 26 40  1  0  0  0  0
 27 21  1  0  0  0  0
 28 27  1  0  0  0  0
 29 27  2  0  0  0  0
 32 22  1  0  0  0  0
 33 22  1  0  0  0  0
 34 23  1  0  0  0  0
 37 24  1  0  0  0  0
 38 25  1  0  0  0  0
 41 26  1  0  0  0  0
M  END
$$$$
