CGL.pdb
 OpenBabel07022418273D

 39 38  0  0  1  0  0  0  0  0999 V2000
   -1.3550   -3.9870    3.1990 N   0  0  0  0  0  0  0  0  0  0  0  0
   -0.0840   -4.0670    2.5500 C   0  0  1  0  0  0  0  0  0  0  0  0
   -0.2150   -4.5130    1.1210 C   0  0  0  0  0  0  0  0  0  0  0  0
   -1.2260   -3.3970    0.1350 S   0  0  0  0  0  0  0  0  0  0  0  0
    0.7210   -2.8340    2.7160 C   0  0  0  0  0  0  0  0  0  0  0  0
    0.2090   -1.9030    3.3820 O   0  0  0  0  0  0  0  0  0  0  0  0
   -2.1440   -3.9740    2.5420 H   0  0  0  0  0  0  0  0  0  0  0  0
   -1.4100   -3.2670    3.9520 H   0  0  0  0  0  0  0  0  0  0  0  0
    0.4970   -4.8810    3.0750 H   0  0  0  0  0  0  0  0  0  0  0  0
   -0.7100   -5.5090    1.1400 H   0  0  0  0  0  0  0  0  0  0  0  0
    0.8000   -4.6380    0.6690 H   0  0  0  0  0  0  0  0  0  0  0  0
   -2.5750   -3.5470    0.5080 H   0  0  0  0  0  0  0  0  0  0  0  0
    2.0040   -2.6840    2.1640 N   0  0  0  0  0  0  0  0  0  0  0  0
    2.7730   -1.4990    2.3190 C   0  0  0  0  0  0  0  0  0  0  0  0
    2.1930   -0.2720    1.7400 C   0  0  0  0  0  0  0  0  0  0  0  0
    2.8720    0.7970    1.9070 O   0  0  0  0  0  0  0  0  0  0  0  0
    2.4120   -3.4870    1.6130 H   0  0  0  0  0  0  0  0  0  0  0  0
    3.7680   -1.6510    1.8330 H   0  0  0  0  0  0  0  0  0  0  0  0
    3.0170   -1.2980    3.4010 H   0  0  0  0  0  0  0  0  0  0  0  0
   -1.2810    2.7640   -1.6920 C   0  0  0  0  0  0  0  0  0  0  0  0
    0.0830    2.2170   -1.7810 C   0  0  0  0  0  0  0  0  0  0  0  0
    1.1050    3.3750   -1.6680 C   0  0  0  0  0  0  0  0  0  0  0  0
    0.5030    1.0780   -0.9690 C   0  0  0  0  0  0  0  0  0  0  0  0
    0.5190    1.1340    0.5090 C   0  0  2  0  0  0  0  0  0  0  0  0
    0.9980   -0.1520    1.0380 N   0  0  0  0  0  0  0  0  0  0  0  0
   -0.7450    1.3800    1.1980 C   0  0  0  0  0  0  0  0  0  0  0  0
   -1.3570    2.4550    1.1020 O   0  0  0  0  0  0  0  0  0  0  0  0
   -1.3210    0.4100    1.9960 O   0  0  0  0  0  0  0  0  0  0  0  0
   -1.3640    3.7710   -1.1850 H   0  0  0  0  0  0  0  0  0  0  0  0
   -2.0580    2.0510   -1.4220 H   0  0  0  0  0  0  0  0  0  0  0  0
   -1.5820    3.0650   -2.7630 H   0  0  0  0  0  0  0  0  0  0  0  0
    0.2450    1.8900   -2.8680 H   0  0  0  0  0  0  0  0  0  0  0  0
    0.7350    4.1490   -2.3730 H   0  0  0  0  0  0  0  0  0  0  0  0
    1.1850    3.7190   -0.6280 H   0  0  0  0  0  0  0  0  0  0  0  0
    2.0740    3.0040   -2.0580 H   0  0  0  0  0  0  0  0  0  0  0  0
    1.5970    0.9070   -1.2670 H   0  0  0  0  0  0  0  0  0  0  0  0
   -0.0810    0.1680   -1.3090 H   0  0  0  0  0  0  0  0  0  0  0  0
    1.3150    1.8820    0.8120 H   0  0  0  0  0  0  0  0  0  0  0  0
    0.4140   -0.9960    0.8630 H   0  0  0  0  0  0  0  0  0  0  0  0
  1  8  1  0  0  0  0
  2  5  1  0  0  0  0
  2  9  1  1  0  0  0
  2  1  1  0  0  0  0
  3 10  1  0  0  0  0
  3  2  1  0  0  0  0
  4 12  1  0  0  0  0
  4  3  1  0  0  0  0
  5  6  2  0  0  0  0
  7  1  1  0  0  0  0
 11  3  1  0  0  0  0
 13 14  1  0  0  0  0
 13  5  1  0  0  0  0
 14 19  1  0  0  0  0
 15 16  2  0  0  0  0
 15 14  1  0  0  0  0
 17 13  1  0  0  0  0
 18 14  1  0  0  0  0
 20 30  1  0  0  0  0
 20 29  1  0  0  0  0
 21 20  1  0  0  0  0
 21 22  1  0  0  0  0
 21 23  1  0  0  0  0
 22 34  1  0  0  0  0
 23 24  1  0  0  0  0
 24 38  1  1  0  0  0
 24 25  1  0  0  0  0
 24 26  1  0  0  0  0
 25 15  1  0  0  0  0
 26 28  1  0  0  0  0
 27 26  2  0  0  0  0
 31 20  1  0  0  0  0
 32 21  1  0  0  0  0
 33 22  1  0  0  0  0
 35 22  1  0  0  0  0
 36 23  1  0  0  0  0
 37 23  1  0  0  0  0
 39 25  1  0  0  0  0
M  END
$$$$
