CGN.pdb
 OpenBabel07022418273D

 34 33  0  0  1  0  0  0  0  0999 V2000
   -0.6990   -1.6740    3.8650 N   0  0  0  0  0  0  0  0  0  0  0  0
    0.4930   -2.4720    4.0850 C   0  0  1  0  0  0  0  0  0  0  0  0
    0.1050   -3.9340    4.2270 C   0  0  0  0  0  0  0  0  0  0  0  0
   -0.7220   -4.5040    2.7180 S   0  0  0  0  0  0  0  0  0  0  0  0
    1.4530   -2.2950    2.9660 C   0  0  0  0  0  0  0  0  0  0  0  0
    2.5500   -2.9100    2.9080 O   0  0  0  0  0  0  0  0  0  0  0  0
   -1.1770   -1.8970    2.9690 H   0  0  0  0  0  0  0  0  0  0  0  0
   -0.4250   -0.6680    3.8440 H   0  0  0  0  0  0  0  0  0  0  0  0
    0.9650   -2.0810    4.9990 H   0  0  0  0  0  0  0  0  0  0  0  0
   -0.5890   -4.0820    5.0670 H   0  0  0  0  0  0  0  0  0  0  0  0
    1.0180   -4.5370    4.3490 H   0  0  0  0  0  0  0  0  0  0  0  0
   -2.1140   -4.3520    2.7700 H   0  0  0  0  0  0  0  0  0  0  0  0
    1.1790   -1.4020    1.8730 N   0  0  0  0  0  0  0  0  0  0  0  0
    2.0860   -1.2250    0.7880 C   0  0  0  0  0  0  0  0  0  0  0  0
    1.6380   -0.2580   -0.2330 C   0  0  0  0  0  0  0  0  0  0  0  0
    2.3850   -0.0340   -1.2560 O   0  0  0  0  0  0  0  0  0  0  0  0
    0.2750   -0.9050    1.9430 H   0  0  0  0  0  0  0  0  0  0  0  0
    2.2370   -2.2100    0.2490 H   0  0  0  0  0  0  0  0  0  0  0  0
    3.1130   -0.9480    1.1070 H   0  0  0  0  0  0  0  0  0  0  0  0
   -1.1990    1.4330   -4.3690 N   0  0  0  0  0  0  0  0  0  0  0  0
   -1.5690    1.8130   -3.0430 C   0  0  0  0  0  0  0  0  0  0  0  0
   -2.2090    2.8800   -2.9240 O   0  0  0  0  0  0  0  0  0  0  0  0
   -1.1700    0.9240   -1.9310 C   0  0  0  0  0  0  0  0  0  0  0  0
    0.1050    1.4240   -1.3100 C   0  0  2  0  0  0  0  0  0  0  0  0
    0.4410    0.4820   -0.2210 N   0  0  0  0  0  0  0  0  0  0  0  0
   -0.0320    2.7910   -0.7710 C   0  0  0  0  0  0  0  0  0  0  0  0
   -0.2740    3.7900   -1.4550 O   0  0  0  0  0  0  0  0  0  0  0  0
    0.1210    2.9870    0.6120 O   0  0  0  0  0  0  0  0  0  0  0  0
   -1.0540    0.4120   -4.6340 H   0  0  0  0  0  0  0  0  0  0  0  0
   -1.0470    2.1010   -5.1550 H   0  0  0  0  0  0  0  0  0  0  0  0
   -0.9650   -0.0930   -2.3260 H   0  0  0  0  0  0  0  0  0  0  0  0
   -1.9920    0.8860   -1.1570 H   0  0  0  0  0  0  0  0  0  0  0  0
    0.8980    1.4130   -2.0830 H   0  0  0  0  0  0  0  0  0  0  0  0
   -0.2320    0.3830    0.5550 H   0  0  0  0  0  0  0  0  0  0  0  0
  1  2  1  0  0  0  0
  2  3  1  0  0  0  0
  2  9  1  1  0  0  0
  3 11  1  0  0  0  0
  3 10  1  0  0  0  0
  4 12  1  0  0  0  0
  4  3  1  0  0  0  0
  5  2  1  0  0  0  0
  6  5  2  0  0  0  0
  7  1  1  0  0  0  0
  8  1  1  0  0  0  0
 13 17  1  0  0  0  0
 13  5  1  0  0  0  0
 14 19  1  0  0  0  0
 14 13  1  0  0  0  0
 15 25  1  0  0  0  0
 15 14  1  0  0  0  0
 16 15  2  0  0  0  0
 18 14  1  0  0  0  0
 20 21  1  0  0  0  0
 21 22  2  0  0  0  0
 21 23  1  0  0  0  0
 23 24  1  0  0  0  0
 23 32  1  0  0  0  0
 24 33  1  6  0  0  0
 24 26  1  0  0  0  0
 24 25  1  0  0  0  0
 25 34  1  0  0  0  0
 26 28  1  0  0  0  0
 27 26  2  0  0  0  0
 29 20  1  0  0  0  0
 30 20  1  0  0  0  0
 31 23  1  0  0  0  0
M  END
$$$$
