CGP.pdb
 OpenBabel07022418273D

 34 34  0  0  1  0  0  0  0  0999 V2000
   -2.2610   -2.7900    1.4120 N   0  0  0  0  0  0  0  0  0  0  0  0
   -0.9420   -2.5480    1.9630 C   0  0  1  0  0  0  0  0  0  0  0  0
   -0.4750   -3.8710    2.5620 C   0  0  0  0  0  0  0  0  0  0  0  0
    1.1600   -3.7260    3.2890 S   0  0  0  0  0  0  0  0  0  0  0  0
    0.0110   -2.1130    0.9360 C   0  0  0  0  0  0  0  0  0  0  0  0
    1.1990   -1.8630    1.2510 O   0  0  0  0  0  0  0  0  0  0  0  0
   -2.7530   -3.5810    1.8800 H   0  0  0  0  0  0  0  0  0  0  0  0
   -2.8520   -1.9370    1.4510 H   0  0  0  0  0  0  0  0  0  0  0  0
   -1.0180   -1.8130    2.8020 H   0  0  0  0  0  0  0  0  0  0  0  0
   -1.2420   -4.2640    3.2470 H   0  0  0  0  0  0  0  0  0  0  0  0
   -0.3990   -4.6080    1.7170 H   0  0  0  0  0  0  0  0  0  0  0  0
    2.1890   -4.0510    2.3750 H   0  0  0  0  0  0  0  0  0  0  0  0
   -0.4720   -1.9920   -0.4190 N   0  0  0  0  0  0  0  0  0  0  0  0
    0.3880   -1.5730   -1.4580 C   0  0  0  0  0  0  0  0  0  0  0  0
    0.9160   -0.2350   -1.4390 C   0  0  0  0  0  0  0  0  0  0  0  0
    1.7880    0.0980   -2.3410 O   0  0  0  0  0  0  0  0  0  0  0  0
   -1.4740   -2.2200   -0.6160 H   0  0  0  0  0  0  0  0  0  0  0  0
   -0.1520   -1.7170   -2.4580 H   0  0  0  0  0  0  0  0  0  0  0  0
    1.2930   -2.2840   -1.5190 H   0  0  0  0  0  0  0  0  0  0  0  0
    0.5900    0.7910   -0.5420 N   0  0  0  0  0  0  0  0  0  0  0  0
   -0.3440    0.9020    0.5530 C   0  0  0  0  0  0  0  0  0  0  0  0
   -0.7510    2.3920    0.6270 C   0  0  0  0  0  0  0  0  0  0  0  0
    0.0190    3.0130   -0.4890 C   0  0  0  0  0  0  0  0  0  0  0  0
    1.2350    2.1350   -0.5560 C   0  0  1  0  0  0  0  0  0  0  0  0
    2.1280    2.2020    0.5990 C   0  0  0  0  0  0  0  0  0  0  0  0
    2.7400    3.2550    0.9460 O   0  0  0  0  0  0  0  0  0  0  0  0
    2.3470    1.0780    1.3800 O   0  0  0  0  0  0  0  0  0  0  0  0
    0.1260    0.6200    1.5060 H   0  0  0  0  0  0  0  0  0  0  0  0
   -1.2630    0.2950    0.3910 H   0  0  0  0  0  0  0  0  0  0  0  0
   -0.4690    2.8070    1.6170 H   0  0  0  0  0  0  0  0  0  0  0  0
   -1.8320    2.4620    0.4710 H   0  0  0  0  0  0  0  0  0  0  0  0
    0.2630    4.0800   -0.3270 H   0  0  0  0  0  0  0  0  0  0  0  0
   -0.5490    2.8470   -1.4280 H   0  0  0  0  0  0  0  0  0  0  0  0
    1.7800    2.2560   -1.5260 H   0  0  0  0  0  0  0  0  0  0  0  0
  1  8  1  0  0  0  0
  1  7  1  0  0  0  0
  1  2  1  0  0  0  0
  2  3  1  0  0  0  0
  2  9  1  1  0  0  0
  3 10  1  0  0  0  0
  3  4  1  0  0  0  0
  5  6  2  0  0  0  0
  5  2  1  0  0  0  0
 11  3  1  0  0  0  0
 12  4  1  0  0  0  0
 13  5  1  0  0  0  0
 14 15  1  0  0  0  0
 14 13  1  0  0  0  0
 15 20  1  0  0  0  0
 16 15  2  0  0  0  0
 17 13  1  0  0  0  0
 18 14  1  0  0  0  0
 19 14  1  0  0  0  0
 20 21  1  0  0  0  0
 21 22  1  0  0  0  0
 21 28  1  0  0  0  0
 22 30  1  0  0  0  0
 23 32  1  0  0  0  0
 23 22  1  0  0  0  0
 24 34  1  6  0  0  0
 24 20  1  0  0  0  0
 24 23  1  0  0  0  0
 24 25  1  0  0  0  0
 25 26  2  0  0  0  0
 25 27  1  0  0  0  0
 29 21  1  0  0  0  0
 31 22  1  0  0  0  0
 33 23  1  0  0  0  0
M  END
$$$$
