CGR.pdb
 OpenBabel07022418273D

 43 42  0  0  1  0  0  0  0  0999 V2000
   -0.6480   -5.9500   -1.7620 N   0  0  0  0  0  0  0  0  0  0  0  0
   -1.6460   -4.8970   -1.8380 C   0  0  1  0  0  0  0  0  0  0  0  0
   -2.7370   -5.2830   -0.8310 C   0  0  0  0  0  0  0  0  0  0  0  0
   -3.4250   -6.8930   -1.3090 S   0  0  0  0  0  0  0  0  0  0  0  0
   -1.0350   -3.6010   -1.4820 C   0  0  0  0  0  0  0  0  0  0  0  0
    0.1820   -3.5330   -1.1740 O   0  0  0  0  0  0  0  0  0  0  0  0
    0.1080   -5.6800   -2.4570 H   0  0  0  0  0  0  0  0  0  0  0  0
   -0.1710   -5.8120   -0.8210 H   0  0  0  0  0  0  0  0  0  0  0  0
   -2.1120   -4.8850   -2.8490 H   0  0  0  0  0  0  0  0  0  0  0  0
   -3.5880   -4.5510   -0.9050 H   0  0  0  0  0  0  0  0  0  0  0  0
   -2.3150   -5.3420    0.1820 H   0  0  0  0  0  0  0  0  0  0  0  0
   -2.4410   -7.7690   -1.7870 H   0  0  0  0  0  0  0  0  0  0  0  0
   -1.8160   -2.4130   -1.4840 N   0  0  0  0  0  0  0  0  0  0  0  0
   -1.1980   -1.1520   -1.1310 C   0  0  0  0  0  0  0  0  0  0  0  0
   -0.6450   -1.1800    0.2510 C   0  0  0  0  0  0  0  0  0  0  0  0
   -0.7850   -2.2480    0.9030 O   0  0  0  0  0  0  0  0  0  0  0  0
   -2.8480   -2.4390   -1.7410 H   0  0  0  0  0  0  0  0  0  0  0  0
   -1.9570   -0.3430   -1.1590 H   0  0  0  0  0  0  0  0  0  0  0  0
   -0.3810   -0.9240   -1.8600 H   0  0  0  0  0  0  0  0  0  0  0  0
    3.5120    5.9780    1.4160 N   0  0  0  0  0  0  0  0  0  0  0  0
    2.7320    4.9610    2.0220 C   0  0  0  0  0  0  0  0  0  0  0  0
    1.8660    5.2050    2.9460 N   0  0  0  0  0  0  0  0  0  0  0  0
    2.9280    3.6080    1.5760 N   0  0  0  0  0  0  0  0  0  0  0  0
    2.2220    2.5250    2.2670 C   0  0  0  0  0  0  0  0  0  0  0  0
    2.5870    1.2440    1.6260 C   0  0  0  0  0  0  0  0  0  0  0  0
    1.9960    0.0020    2.1580 C   0  0  0  0  0  0  0  0  0  0  0  0
    0.5200   -0.1330    2.1400 C   0  0  2  0  0  0  0  0  0  0  0  0
    0.0100   -0.0500    0.8110 N   0  0  0  0  0  0  0  0  0  0  0  0
   -0.1870    0.7540    3.0980 C   0  0  0  0  0  0  0  0  0  0  0  0
   -1.1530    1.4880    2.7730 O   0  0  0  0  0  0  0  0  0  0  0  0
    0.2420    0.7730    4.4130 O   0  0  0  0  0  0  0  0  0  0  0  0
    3.0740    6.6080    0.7170 H   0  0  0  0  0  0  0  0  0  0  0  0
    4.5080    6.0830    1.6760 H   0  0  0  0  0  0  0  0  0  0  0  0
    1.7150    6.1700    3.2760 H   0  0  0  0  0  0  0  0  0  0  0  0
    3.5550    3.4050    0.7830 H   0  0  0  0  0  0  0  0  0  0  0  0
    2.5660    2.6010    3.3290 H   0  0  0  0  0  0  0  0  0  0  0  0
    1.1740    2.8070    2.2530 H   0  0  0  0  0  0  0  0  0  0  0  0
    3.7090    1.1390    1.7320 H   0  0  0  0  0  0  0  0  0  0  0  0
    2.4410    1.2950    0.5170 H   0  0  0  0  0  0  0  0  0  0  0  0
    2.3480   -0.2600    3.1920 H   0  0  0  0  0  0  0  0  0  0  0  0
    2.4010   -0.8440    1.5260 H   0  0  0  0  0  0  0  0  0  0  0  0
    0.2820   -1.1740    2.5240 H   0  0  0  0  0  0  0  0  0  0  0  0
    0.0840    0.8000    0.2010 H   0  0  0  0  0  0  0  0  0  0  0  0
  1  8  1  0  0  0  0
  2  9  1  6  0  0  0
  2  1  1  0  0  0  0
  2  5  1  0  0  0  0
  2  3  1  0  0  0  0
  3 11  1  0  0  0  0
  4  3  1  0  0  0  0
  5  6  2  0  0  0  0
  7  1  1  0  0  0  0
 10  3  1  0  0  0  0
 12  4  1  0  0  0  0
 13  5  1  0  0  0  0
 13 14  1  0  0  0  0
 14 15  1  0  0  0  0
 15 28  1  0  0  0  0
 15 16  2  0  0  0  0
 17 13  1  0  0  0  0
 18 14  1  0  0  0  0
 19 14  1  0  0  0  0
 20 33  1  0  0  0  0
 20 21  1  0  0  0  0
 21 22  2  0  0  0  0
 22 34  1  0  0  0  0
 23 21  1  0  0  0  0
 23 24  1  0  0  0  0
 24 36  1  0  0  0  0
 25 38  1  0  0  0  0
 25 26  1  0  0  0  0
 25 24  1  0  0  0  0
 26 40  1  0  0  0  0
 27 26  1  0  0  0  0
 27 42  1  1  0  0  0
 27 29  1  0  0  0  0
 28 27  1  0  0  0  0
 29 31  1  0  0  0  0
 30 29  2  0  0  0  0
 32 20  1  0  0  0  0
 35 23  1  0  0  0  0
 37 24  1  0  0  0  0
 39 25  1  0  0  0  0
 41 26  1  0  0  0  0
 43 28  1  0  0  0  0
M  END
$$$$
