CGV.pdb
 OpenBabel07022418273D

 36 35  0  0  1  0  0  0  0  0999 V2000
   -2.1290   -3.1540    1.6020 N   0  0  0  0  0  0  0  0  0  0  0  0
   -0.7440   -3.0690    1.9140 C   0  0  1  0  0  0  0  0  0  0  0  0
   -0.2800   -4.3990    2.4870 C   0  0  0  0  0  0  0  0  0  0  0  0
    1.4650   -4.3900    2.9140 S   0  0  0  0  0  0  0  0  0  0  0  0
    0.0980   -2.6290    0.7770 C   0  0  0  0  0  0  0  0  0  0  0  0
    1.3500   -2.5410    1.0200 O   0  0  0  0  0  0  0  0  0  0  0  0
   -2.3670   -3.7590    0.8020 H   0  0  0  0  0  0  0  0  0  0  0  0
   -2.6310   -2.2540    1.5940 H   0  0  0  0  0  0  0  0  0  0  0  0
   -0.6170   -2.3170    2.7230 H   0  0  0  0  0  0  0  0  0  0  0  0
   -0.8630   -4.5530    3.4250 H   0  0  0  0  0  0  0  0  0  0  0  0
   -0.5510   -5.2100    1.7760 H   0  0  0  0  0  0  0  0  0  0  0  0
    2.2270   -5.2660    2.1180 H   0  0  0  0  0  0  0  0  0  0  0  0
   -0.4870   -2.3400   -0.4670 N   0  0  0  0  0  0  0  0  0  0  0  0
    0.3270   -1.9050   -1.5680 C   0  0  0  0  0  0  0  0  0  0  0  0
    1.0130   -0.6170   -1.3550 C   0  0  0  0  0  0  0  0  0  0  0  0
    1.8050   -0.1610   -2.2570 O   0  0  0  0  0  0  0  0  0  0  0  0
   -1.5170   -2.4460   -0.5800 H   0  0  0  0  0  0  0  0  0  0  0  0
   -0.2800   -1.8150   -2.5160 H   0  0  0  0  0  0  0  0  0  0  0  0
    1.0810   -2.7020   -1.8370 H   0  0  0  0  0  0  0  0  0  0  0  0
   -0.3930    2.3660    1.3360 C   0  0  0  0  0  0  0  0  0  0  0  0
    0.5190    2.5230    0.1620 C   0  0  0  0  0  0  0  0  0  0  0  0
   -0.2980    2.7470   -1.0820 C   0  0  0  0  0  0  0  0  0  0  0  0
    1.4870    1.3700    0.0150 C   0  0  2  0  0  0  0  0  0  0  0  0
    0.7920    0.1070   -0.1640 N   0  0  0  0  0  0  0  0  0  0  0  0
    2.3010    1.3290    1.2570 C   0  0  0  0  0  0  0  0  0  0  0  0
    2.9940    2.3120    1.6210 O   0  0  0  0  0  0  0  0  0  0  0  0
    2.3310    0.2030    2.0650 O   0  0  0  0  0  0  0  0  0  0  0  0
   -0.9060    3.3510    1.4890 H   0  0  0  0  0  0  0  0  0  0  0  0
    0.2340    2.1870    2.2360 H   0  0  0  0  0  0  0  0  0  0  0  0
   -1.1380    1.5880    1.1490 H   0  0  0  0  0  0  0  0  0  0  0  0
    1.1320    3.4340    0.3210 H   0  0  0  0  0  0  0  0  0  0  0  0
   -0.9470    1.8720   -1.3190 H   0  0  0  0  0  0  0  0  0  0  0  0
    0.3160    3.0570   -1.9530 H   0  0  0  0  0  0  0  0  0  0  0  0
   -0.9890    3.5900   -0.8670 H   0  0  0  0  0  0  0  0  0  0  0  0
    2.1360    1.6110   -0.8480 H   0  0  0  0  0  0  0  0  0  0  0  0
    0.1510   -0.1980    0.5900 H   0  0  0  0  0  0  0  0  0  0  0  0
  1  2  1  0  0  0  0
  2  3  1  0  0  0  0
  2  9  1  1  0  0  0
  3  4  1  0  0  0  0
  3 10  1  0  0  0  0
  5  6  2  0  0  0  0
  5  2  1  0  0  0  0
  7  1  1  0  0  0  0
  8  1  1  0  0  0  0
 11  3  1  0  0  0  0
 12  4  1  0  0  0  0
 13  5  1  0  0  0  0
 14 15  1  0  0  0  0
 14 13  1  0  0  0  0
 15 24  1  0  0  0  0
 16 15  2  0  0  0  0
 17 13  1  0  0  0  0
 18 14  1  0  0  0  0
 19 14  1  0  0  0  0
 20 28  1  0  0  0  0
 20 29  1  0  0  0  0
 21 31  1  0  0  0  0
 21 20  1  0  0  0  0
 22 34  1  0  0  0  0
 22 21  1  0  0  0  0
 23 35  1  6  0  0  0
 23 21  1  0  0  0  0
 23 25  1  0  0  0  0
 24 23  1  0  0  0  0
 24 36  1  0  0  0  0
 25 26  2  0  0  0  0
 25 27  1  0  0  0  0
 30 20  1  0  0  0  0
 32 22  1  0  0  0  0
 33 22  1  0  0  0  0
M  END
$$$$
