CGY.pdb
 OpenBabel07022418273D

 41 41  0  0  1  0  0  0  0  0999 V2000
    3.3100   -6.4310    1.9370 N   0  0  0  0  0  0  0  0  0  0  0  0
    2.9520   -5.1700    1.2740 C   0  0  1  0  0  0  0  0  0  0  0  0
    3.3050   -5.2980   -0.1960 C   0  0  0  0  0  0  0  0  0  0  0  0
    2.8920   -3.7790   -1.0470 S   0  0  0  0  0  0  0  0  0  0  0  0
    1.5350   -4.8490    1.5180 C   0  0  0  0  0  0  0  0  0  0  0  0
    0.7760   -5.7570    1.9980 O   0  0  0  0  0  0  0  0  0  0  0  0
    4.3530   -6.4220    2.0070 H   0  0  0  0  0  0  0  0  0  0  0  0
    2.9820   -7.2300    1.3710 H   0  0  0  0  0  0  0  0  0  0  0  0
    3.5910   -4.3830    1.7040 H   0  0  0  0  0  0  0  0  0  0  0  0
    4.3980   -5.4400   -0.2440 H   0  0  0  0  0  0  0  0  0  0  0  0
    2.7480   -6.1270   -0.6740 H   0  0  0  0  0  0  0  0  0  0  0  0
    3.6060   -2.6780   -0.5750 H   0  0  0  0  0  0  0  0  0  0  0  0
    1.0100   -3.5700    1.2370 N   0  0  0  0  0  0  0  0  0  0  0  0
   -0.3730   -3.2850    1.4790 C   0  0  0  0  0  0  0  0  0  0  0  0
   -0.8250   -1.9380    1.1580 C   0  0  0  0  0  0  0  0  0  0  0  0
   -2.0600   -1.6640    1.3680 O   0  0  0  0  0  0  0  0  0  0  0  0
    1.6440   -2.8450    0.8640 H   0  0  0  0  0  0  0  0  0  0  0  0
   -0.5810   -3.4360    2.5810 H   0  0  0  0  0  0  0  0  0  0  0  0
   -0.9910   -4.0840    0.9820 H   0  0  0  0  0  0  0  0  0  0  0  0
   -1.9900    6.7320    0.7400 O   0  0  0  0  0  0  0  0  0  0  0  0
   -1.4880    5.4410    0.8550 C   0  0  0  0  0  0  0  0  0  0  0  0
   -0.4100    4.9970    0.1170 C   0  0  0  0  0  0  0  0  0  0  0  0
    0.0810    3.7150    0.2380 C   0  0  0  0  0  0  0  0  0  0  0  0
   -0.4890    2.8150    1.1100 C   0  0  0  0  0  0  0  0  0  0  0  0
    0.0110    1.4380    1.2510 C   0  0  0  0  0  0  0  0  0  0  0  0
   -0.6740    0.4320    0.3640 C   0  0  2  0  0  0  0  0  0  0  0  0
   -0.0490   -0.8770    0.6320 N   0  0  0  0  0  0  0  0  0  0  0  0
   -0.4930    0.8050   -1.0440 C   0  0  0  0  0  0  0  0  0  0  0  0
   -0.9670    1.8640   -1.5190 O   0  0  0  0  0  0  0  0  0  0  0  0
   -1.5680    3.2390    1.8580 C   0  0  0  0  0  0  0  0  0  0  0  0
   -2.0420    4.5230    1.7210 C   0  0  0  0  0  0  0  0  0  0  0  0
    0.2200    0.0060   -1.9530 O   0  0  0  0  0  0  0  0  0  0  0  0
   -2.5680    7.0640    1.5030 H   0  0  0  0  0  0  0  0  0  0  0  0
    0.0370    5.7110   -0.5700 H   0  0  0  0  0  0  0  0  0  0  0  0
    0.9440    3.4180   -0.3700 H   0  0  0  0  0  0  0  0  0  0  0  0
   -0.1860    1.1250    2.3030 H   0  0  0  0  0  0  0  0  0  0  0  0
    1.1010    1.3810    1.0240 H   0  0  0  0  0  0  0  0  0  0  0  0
   -1.7400    0.4160    0.6270 H   0  0  0  0  0  0  0  0  0  0  0  0
    0.9610   -1.0310    0.4370 H   0  0  0  0  0  0  0  0  0  0  0  0
   -2.0600    2.5600    2.5690 H   0  0  0  0  0  0  0  0  0  0  0  0
   -2.8950    4.8600    2.3120 H   0  0  0  0  0  0  0  0  0  0  0  0
  1  7  1  0  0  0  0
  2  5  1  0  0  0  0
  2  9  1  1  0  0  0
  2  1  1  0  0  0  0
  3  2  1  0  0  0  0
  4 12  1  0  0  0  0
  4  3  1  0  0  0  0
  5  6  2  0  0  0  0
  8  1  1  0  0  0  0
 10  3  1  0  0  0  0
 11  3  1  0  0  0  0
 13 14  1  0  0  0  0
 13  5  1  0  0  0  0
 14 18  1  0  0  0  0
 15 16  2  0  0  0  0
 15 14  1  0  0  0  0
 17 13  1  0  0  0  0
 19 14  1  0  0  0  0
 20 21  1  0  0  0  0
 20 33  1  0  0  0  0
 21 31  1  0  0  0  0
 22 23  1  0  0  0  0
 22 21  2  0  0  0  0
 23 24  2  0  0  0  0
 24 25  1  0  0  0  0
 24 30  1  0  0  0  0
 25 36  1  0  0  0  0
 26 38  1  1  0  0  0
 26 27  1  0  0  0  0
 26 25  1  0  0  0  0
 27 15  1  0  0  0  0
 28 26  1  0  0  0  0
 29 28  1  0  0  0  0
 30 40  1  0  0  0  0
 31 30  2  0  0  0  0
 31 41  1  0  0  0  0
 32 28  2  0  0  0  0
 34 22  1  0  0  0  0
 35 23  1  0  0  0  0
 37 25  1  0  0  0  0
 39 27  1  0  0  0  0
M  END
$$$$
