CHA.pdb
 OpenBabel07022418273D

 40 40  0  0  1  0  0  0  0  0999 V2000
   -0.3950   -4.4220   -2.0450 N   0  0  0  0  0  0  0  0  0  0  0  0
   -0.9690   -3.2330   -1.5010 C   0  0  1  0  0  0  0  0  0  0  0  0
   -1.8740   -3.5040   -0.3190 C   0  0  0  0  0  0  0  0  0  0  0  0
   -1.0100   -4.3080    1.0400 S   0  0  0  0  0  0  0  0  0  0  0  0
    0.1310   -2.3120   -1.0960 C   0  0  0  0  0  0  0  0  0  0  0  0
    1.3320   -2.6310   -1.2540 O   0  0  0  0  0  0  0  0  0  0  0  0
   -0.7950   -4.5840   -2.9960 H   0  0  0  0  0  0  0  0  0  0  0  0
    0.6370   -4.3240   -2.1630 H   0  0  0  0  0  0  0  0  0  0  0  0
   -1.5710   -2.7010   -2.2520 H   0  0  0  0  0  0  0  0  0  0  0  0
   -2.6800   -4.1760   -0.6840 H   0  0  0  0  0  0  0  0  0  0  0  0
   -2.3150   -2.5270   -0.0250 H   0  0  0  0  0  0  0  0  0  0  0  0
    0.3870   -4.2720    0.8760 H   0  0  0  0  0  0  0  0  0  0  0  0
   -0.1530   -1.0580   -0.5260 N   0  0  0  0  0  0  0  0  0  0  0  0
    0.9210   -0.1820   -0.1420 C   0  0  1  0  0  0  0  0  0  0  0  0
    0.8600    1.0680   -0.9920 C   0  0  0  0  0  0  0  0  0  0  0  0
    1.9070    2.0480   -0.6980 C   0  0  0  0  0  0  0  0  0  0  0  0
    1.8120    3.0780    0.2130 C   0  0  0  0  0  0  0  0  0  0  0  0
    2.9630    3.7350    0.1730 N   0  0  0  0  0  0  0  0  0  0  0  0
    3.7570    3.1410   -0.7320 C   0  0  0  0  0  0  0  0  0  0  0  0
    3.1380    2.1010   -1.2850 N   0  0  0  0  0  0  0  0  0  0  0  0
    0.9130    0.0970    1.3150 C   0  0  0  0  0  0  0  0  0  0  0  0
    1.8100    0.8360    1.7870 O   0  0  0  0  0  0  0  0  0  0  0  0
   -1.1300   -0.7650   -0.3830 H   0  0  0  0  0  0  0  0  0  0  0  0
    1.8850   -0.6740   -0.3750 H   0  0  0  0  0  0  0  0  0  0  0  0
   -0.1700    1.5050   -0.9160 H   0  0  0  0  0  0  0  0  0  0  0  0
    0.9820    0.7420   -2.0430 H   0  0  0  0  0  0  0  0  0  0  0  0
    0.9270    3.2780    0.8350 H   0  0  0  0  0  0  0  0  0  0  0  0
    3.1710    4.5710    0.7660 H   0  0  0  0  0  0  0  0  0  0  0  0
    4.7740    3.4590   -0.9870 H   0  0  0  0  0  0  0  0  0  0  0  0
   -1.2760    0.6260    4.0720 C   0  0  0  0  0  0  0  0  0  0  0  0
   -0.0610   -0.1530    3.6240 C   0  0  2  0  0  0  0  0  0  0  0  0
   -0.0490   -0.4200    2.2130 N   0  0  0  0  0  0  0  0  0  0  0  0
    0.1020   -1.3610    4.4450 C   0  0  0  0  0  0  0  0  0  0  0  0
    0.2410   -2.5280    3.9570 O   0  0  0  0  0  0  0  0  0  0  0  0
    0.1040   -1.2150    5.8250 O   0  0  0  0  0  0  0  0  0  0  0  0
   -2.2180    0.2420    3.6590 H   0  0  0  0  0  0  0  0  0  0  0  0
   -1.3340    0.5150    5.1770 H   0  0  0  0  0  0  0  0  0  0  0  0
   -1.1260    1.7170    3.8910 H   0  0  0  0  0  0  0  0  0  0  0  0
    0.8220    0.5220    3.8240 H   0  0  0  0  0  0  0  0  0  0  0  0
   -0.7980   -1.0360    1.8260 H   0  0  0  0  0  0  0  0  0  0  0  0
  1  2  1  0  0  0  0
  2  9  1  6  0  0  0
  2  5  1  0  0  0  0
  2  3  1  0  0  0  0
  3 11  1  0  0  0  0
  3  4  1  0  0  0  0
  5 13  1  0  0  0  0
  6  5  2  0  0  0  0
  7  1  1  0  0  0  0
  8  1  1  0  0  0  0
 10  3  1  0  0  0  0
 12  4  1  0  0  0  0
 13 23  1  0  0  0  0
 13 14  1  0  0  0  0
 14 24  1  6  0  0  0
 14 21  1  0  0  0  0
 15 25  1  0  0  0  0
 15 16  1  0  0  0  0
 15 14  1  0  0  0  0
 16 17  2  0  0  0  0
 17 27  1  0  0  0  0
 18 17  1  0  0  0  0
 18 28  1  0  0  0  0
 19 18  1  0  0  0  0
 20 19  2  0  0  0  0
 20 16  1  0  0  0  0
 21 22  2  0  0  0  0
 21 32  1  0  0  0  0
 26 15  1  0  0  0  0
 29 19  1  0  0  0  0
 30 37  1  0  0  0  0
 31 39  1  1  0  0  0
 31 30  1  0  0  0  0
 31 33  1  0  0  0  0
 32 31  1  0  0  0  0
 33 35  1  0  0  0  0
 34 33  2  0  0  0  0
 36 30  1  0  0  0  0
 38 30  1  0  0  0  0
 40 32  1  0  0  0  0
M  END
$$$$
