CHC.pdb
 OpenBabel07022418273D

 41 41  0  0  1  0  0  0  0  0999 V2000
    1.7420   -2.2380    4.8520 N   0  0  0  0  0  0  0  0  0  0  0  0
    0.7990   -2.3400    3.7560 C   0  0  1  0  0  0  0  0  0  0  0  0
   -0.4750   -1.6810    4.1830 C   0  0  0  0  0  0  0  0  0  0  0  0
   -0.2770    0.0520    4.6000 S   0  0  0  0  0  0  0  0  0  0  0  0
    1.3720   -1.7830    2.5130 C   0  0  0  0  0  0  0  0  0  0  0  0
    2.5310   -1.3000    2.5140 O   0  0  0  0  0  0  0  0  0  0  0  0
    2.5090   -1.5890    4.5570 H   0  0  0  0  0  0  0  0  0  0  0  0
    2.1710   -3.1640    5.0640 H   0  0  0  0  0  0  0  0  0  0  0  0
    0.5560   -3.4320    3.6130 H   0  0  0  0  0  0  0  0  0  0  0  0
   -0.9240   -2.2120    5.0350 H   0  0  0  0  0  0  0  0  0  0  0  0
   -1.2500   -1.7330    3.3630 H   0  0  0  0  0  0  0  0  0  0  0  0
    1.0620    0.4260    4.7880 H   0  0  0  0  0  0  0  0  0  0  0  0
    0.6610   -1.7680    1.2960 N   0  0  0  0  0  0  0  0  0  0  0  0
    1.2970   -1.2020    0.1070 C   0  0  1  0  0  0  0  0  0  0  0  0
    1.3340   -2.1640   -1.0210 C   0  0  0  0  0  0  0  0  0  0  0  0
    2.0820   -1.6390   -2.1690 C   0  0  0  0  0  0  0  0  0  0  0  0
    2.8650   -0.5220   -2.1880 C   0  0  0  0  0  0  0  0  0  0  0  0
    3.4570   -0.4280   -3.3980 N   0  0  0  0  0  0  0  0  0  0  0  0
    3.0600   -1.4620   -4.1290 C   0  0  0  0  0  0  0  0  0  0  0  0
    2.2250   -2.2110   -3.4020 N   0  0  0  0  0  0  0  0  0  0  0  0
    0.4330   -0.0270   -0.3210 C   0  0  0  0  0  0  0  0  0  0  0  0
    0.5720    0.6410   -1.3450 O   0  0  0  0  0  0  0  0  0  0  0  0
   -0.3010   -2.1410    1.1870 H   0  0  0  0  0  0  0  0  0  0  0  0
    2.2780   -0.8460    0.3690 H   0  0  0  0  0  0  0  0  0  0  0  0
    1.8780   -3.1080   -0.7260 H   0  0  0  0  0  0  0  0  0  0  0  0
    0.3110   -2.4310   -1.3900 H   0  0  0  0  0  0  0  0  0  0  0  0
    3.0760    0.2240   -1.3980 H   0  0  0  0  0  0  0  0  0  0  0  0
    4.1080    0.3630   -3.6390 H   0  0  0  0  0  0  0  0  0  0  0  0
    3.4000   -1.6190   -5.1560 H   0  0  0  0  0  0  0  0  0  0  0  0
   -0.6620    0.3690    0.5320 N   0  0  0  0  0  0  0  0  0  0  0  0
   -1.5250    1.4680    0.1950 C   0  0  1  0  0  0  0  0  0  0  0  0
   -2.9750    1.0940    0.1560 C   0  0  0  0  0  0  0  0  0  0  0  0
   -3.2930   -0.2110   -1.0810 S   0  0  0  0  0  0  0  0  0  0  0  0
   -1.3500    2.5430    1.2040 C   0  0  0  0  0  0  0  0  0  0  0  0
   -2.0150    3.6210    1.1200 O   0  0  0  0  0  0  0  0  0  0  0  0
   -0.4750    2.4470    2.2760 O   0  0  0  0  0  0  0  0  0  0  0  0
   -0.7980   -0.1780    1.4030 H   0  0  0  0  0  0  0  0  0  0  0  0
   -1.2090    1.8880   -0.7780 H   0  0  0  0  0  0  0  0  0  0  0  0
   -3.3870    0.8320    1.1350 H   0  0  0  0  0  0  0  0  0  0  0  0
   -3.5520    1.9840   -0.1990 H   0  0  0  0  0  0  0  0  0  0  0  0
   -2.9670   -1.4550   -0.4820 H   0  0  0  0  0  0  0  0  0  0  0  0
  1  8  1  0  0  0  0
  2  9  1  6  0  0  0
  2  3  1  0  0  0  0
  2  1  1  0  0  0  0
  3  4  1  0  0  0  0
  3 10  1  0  0  0  0
  4 12  1  0  0  0  0
  5  6  2  0  0  0  0
  5  2  1  0  0  0  0
  7  1  1  0  0  0  0
 11  3  1  0  0  0  0
 13  5  1  0  0  0  0
 14 24  1  1  0  0  0
 14 13  1  0  0  0  0
 15 25  1  0  0  0  0
 15 14  1  0  0  0  0
 16 15  1  0  0  0  0
 17 16  2  0  0  0  0
 17 27  1  0  0  0  0
 18 17  1  0  0  0  0
 19 20  2  0  0  0  0
 19 18  1  0  0  0  0
 20 16  1  0  0  0  0
 21 14  1  0  0  0  0
 21 30  1  0  0  0  0
 22 21  2  0  0  0  0
 23 13  1  0  0  0  0
 26 15  1  0  0  0  0
 28 18  1  0  0  0  0
 29 19  1  0  0  0  0
 30 37  1  0  0  0  0
 31 38  1  6  0  0  0
 31 30  1  0  0  0  0
 31 34  1  0  0  0  0
 32 31  1  0  0  0  0
 32 39  1  0  0  0  0
 33 41  1  0  0  0  0
 33 32  1  0  0  0  0
 34 36  1  0  0  0  0
 35 34  2  0  0  0  0
 40 32  1  0  0  0  0
M  END
$$$$
