CHD.pdb
 OpenBabel07022418273D

 43 43  0  0  1  0  0  0  0  0999 V2000
    1.9490   -3.8000    3.0510 N   0  0  0  0  0  0  0  0  0  0  0  0
    2.8220   -2.6610    3.1110 C   0  0  1  0  0  0  0  0  0  0  0  0
    4.1300   -2.9710    2.4280 C   0  0  0  0  0  0  0  0  0  0  0  0
    3.8710   -3.3990    0.6830 S   0  0  0  0  0  0  0  0  0  0  0  0
    2.2240   -1.4820    2.3660 C   0  0  0  0  0  0  0  0  0  0  0  0
    2.8950   -0.4430    2.3490 O   0  0  0  0  0  0  0  0  0  0  0  0
    2.0540   -4.3600    2.1810 H   0  0  0  0  0  0  0  0  0  0  0  0
    2.1070   -4.3820    3.9220 H   0  0  0  0  0  0  0  0  0  0  0  0
    3.0360   -2.3950    4.1610 H   0  0  0  0  0  0  0  0  0  0  0  0
    4.8120   -2.0940    2.4560 H   0  0  0  0  0  0  0  0  0  0  0  0
    4.6730   -3.8030    2.9050 H   0  0  0  0  0  0  0  0  0  0  0  0
    2.6520   -2.8440    0.2660 H   0  0  0  0  0  0  0  0  0  0  0  0
    0.9750   -1.5910    1.7390 N   0  0  0  0  0  0  0  0  0  0  0  0
    0.2810   -0.5630    1.0270 C   0  0  1  0  0  0  0  0  0  0  0  0
    0.9220    0.8090    1.0610 C   0  0  0  0  0  0  0  0  0  0  0  0
    0.9380    1.3450    2.4450 C   0  0  0  0  0  0  0  0  0  0  0  0
    0.4070    0.8350    3.6100 C   0  0  0  0  0  0  0  0  0  0  0  0
    0.6170    1.6850    4.6410 N   0  0  0  0  0  0  0  0  0  0  0  0
    1.2800    2.7380    4.1400 C   0  0  0  0  0  0  0  0  0  0  0  0
    1.4760    2.5420    2.8230 N   0  0  0  0  0  0  0  0  0  0  0  0
   -0.2720   -0.9600   -0.2630 C   0  0  0  0  0  0  0  0  0  0  0  0
   -0.0890   -2.1540   -0.6830 O   0  0  0  0  0  0  0  0  0  0  0  0
    0.5310   -2.5670    1.8300 H   0  0  0  0  0  0  0  0  0  0  0  0
   -0.6280   -0.3400    1.7450 H   0  0  0  0  0  0  0  0  0  0  0  0
    0.2990    1.4770    0.4340 H   0  0  0  0  0  0  0  0  0  0  0  0
    1.9490    0.8300    0.6580 H   0  0  0  0  0  0  0  0  0  0  0  0
   -0.1060   -0.1160    3.6910 H   0  0  0  0  0  0  0  0  0  0  0  0
    0.3320    1.5710    5.6340 H   0  0  0  0  0  0  0  0  0  0  0  0
    1.5910    3.5970    4.7400 H   0  0  0  0  0  0  0  0  0  0  0  0
   -1.0250   -0.1130   -1.1330 N   0  0  0  0  0  0  0  0  0  0  0  0
   -1.5340   -0.6160   -2.4090 C   0  0  1  0  0  0  0  0  0  0  0  0
   -3.0080   -0.3860   -2.4560 C   0  0  0  0  0  0  0  0  0  0  0  0
   -3.2960    1.0620   -2.3610 C   0  0  0  0  0  0  0  0  0  0  0  0
   -2.4410    1.9740   -2.3030 O   0  0  0  0  0  0  0  0  0  0  0  0
   -0.9180    0.2200   -3.4830 C   0  0  0  0  0  0  0  0  0  0  0  0
   -1.1980   -0.0120   -4.6870 O   0  0  0  0  0  0  0  0  0  0  0  0
   -4.6330    1.5260   -2.3300 O   0  0  0  0  0  0  0  0  0  0  0  0
   -0.0410    1.2560   -3.2270 O   0  0  0  0  0  0  0  0  0  0  0  0
   -1.1720    0.8530   -0.7850 H   0  0  0  0  0  0  0  0  0  0  0  0
   -1.2460   -1.6750   -2.5580 H   0  0  0  0  0  0  0  0  0  0  0  0
   -3.4550   -0.8600   -1.5530 H   0  0  0  0  0  0  0  0  0  0  0  0
   -3.4490   -0.7940   -3.3930 H   0  0  0  0  0  0  0  0  0  0  0  0
   -4.8820    2.3140   -1.7420 H   0  0  0  0  0  0  0  0  0  0  0  0
  1  2  1  0  0  0  0
  1  8  1  0  0  0  0
  2  9  1  1  0  0  0
  3 10  1  0  0  0  0
  3 11  1  0  0  0  0
  3  2  1  0  0  0  0
  4  3  1  0  0  0  0
  5  2  1  0  0  0  0
  6  5  2  0  0  0  0
  7  1  1  0  0  0  0
 12  4  1  0  0  0  0
 13 23  1  0  0  0  0
 13  5  1  0  0  0  0
 14 15  1  0  0  0  0
 14 13  1  0  0  0  0
 14 24  1  1  0  0  0
 15 16  1  0  0  0  0
 16 20  1  0  0  0  0
 16 17  2  0  0  0  0
 17 27  1  0  0  0  0
 17 18  1  0  0  0  0
 18 28  1  0  0  0  0
 19 18  1  0  0  0  0
 19 29  1  0  0  0  0
 20 19  2  0  0  0  0
 21 14  1  0  0  0  0
 22 21  2  0  0  0  0
 25 15  1  0  0  0  0
 26 15  1  0  0  0  0
 30 39  1  0  0  0  0
 30 21  1  0  0  0  0
 31 40  1  6  0  0  0
 31 30  1  0  0  0  0
 32 31  1  0  0  0  0
 32 33  1  0  0  0  0
 32 41  1  0  0  0  0
 33 37  1  0  0  0  0
 33 34  2  0  0  0  0
 35 38  1  0  0  0  0
 35 31  1  0  0  0  0
 36 35  2  0  0  0  0
 37 43  1  0  0  0  0
 42 32  1  0  0  0  0
M  END
$$$$
