CHF.pdb
 OpenBabel07022418273D

 50 51  0  0  1  0  0  0  0  0999 V2000
    3.7920   -2.8950    4.5040 N   0  0  0  0  0  0  0  0  0  0  0  0
    3.4790   -2.6620    3.1140 C   0  0  1  0  0  0  0  0  0  0  0  0
    2.5710   -3.7480    2.5610 C   0  0  0  0  0  0  0  0  0  0  0  0
    1.0050   -3.8150    3.4830 S   0  0  0  0  0  0  0  0  0  0  0  0
    2.8660   -1.3360    2.9700 C   0  0  0  0  0  0  0  0  0  0  0  0
    2.6790   -0.6190    4.0080 O   0  0  0  0  0  0  0  0  0  0  0  0
    4.8270   -2.9410    4.6310 H   0  0  0  0  0  0  0  0  0  0  0  0
    3.3810   -3.7840    4.8710 H   0  0  0  0  0  0  0  0  0  0  0  0
    4.4240   -2.7370    2.5100 H   0  0  0  0  0  0  0  0  0  0  0  0
    2.3020   -3.5500    1.5050 H   0  0  0  0  0  0  0  0  0  0  0  0
    3.0630   -4.7380    2.5830 H   0  0  0  0  0  0  0  0  0  0  0  0
    0.5580   -2.5100    3.7760 H   0  0  0  0  0  0  0  0  0  0  0  0
    2.4560   -0.7730    1.7410 N   0  0  0  0  0  0  0  0  0  0  0  0
    1.8660    0.5440    1.7240 C   0  0  1  0  0  0  0  0  0  0  0  0
    2.7380    1.5270    0.9740 C   0  0  0  0  0  0  0  0  0  0  0  0
    2.1700    2.8730    0.9360 C   0  0  0  0  0  0  0  0  0  0  0  0
    1.3490    3.4040   -0.0270 C   0  0  0  0  0  0  0  0  0  0  0  0
    1.0690    4.6640    0.3090 N   0  0  0  0  0  0  0  0  0  0  0  0
    1.6930    4.9290    1.4530 C   0  0  0  0  0  0  0  0  0  0  0  0
    2.3710    3.8400    1.8470 N   0  0  0  0  0  0  0  0  0  0  0  0
    0.4990    0.4450    1.1630 C   0  0  0  0  0  0  0  0  0  0  0  0
   -0.2400    1.4590    1.0690 O   0  0  0  0  0  0  0  0  0  0  0  0
    2.5750   -1.2940    0.8590 H   0  0  0  0  0  0  0  0  0  0  0  0
    1.7720    0.9680    2.7550 H   0  0  0  0  0  0  0  0  0  0  0  0
    3.7010    1.5750    1.5180 H   0  0  0  0  0  0  0  0  0  0  0  0
    2.9750    1.1850   -0.0530 H   0  0  0  0  0  0  0  0  0  0  0  0
    0.9980    2.8700   -0.9120 H   0  0  0  0  0  0  0  0  0  0  0  0
    0.4480    5.3100   -0.2680 H   0  0  0  0  0  0  0  0  0  0  0  0
    1.6470    5.8950    1.9760 H   0  0  0  0  0  0  0  0  0  0  0  0
   -0.0240   -0.7760    0.7160 N   0  0  0  0  0  0  0  0  0  0  0  0
   -1.3700   -0.9330    0.1500 C   0  0  1  0  0  0  0  0  0  0  0  0
   -1.3140   -1.3700   -1.2690 C   0  0  0  0  0  0  0  0  0  0  0  0
   -2.6790   -1.5210   -1.8090 C   0  0  0  0  0  0  0  0  0  0  0  0
   -3.3550   -0.4240   -2.3490 C   0  0  0  0  0  0  0  0  0  0  0  0
   -4.6120   -0.5280   -2.8810 C   0  0  0  0  0  0  0  0  0  0  0  0
   -5.2510   -1.7410   -2.8960 C   0  0  0  0  0  0  0  0  0  0  0  0
   -4.6050   -2.8630   -2.3650 C   0  0  0  0  0  0  0  0  0  0  0  0
   -3.3490   -2.7250   -1.8400 C   0  0  0  0  0  0  0  0  0  0  0  0
   -2.1840   -1.8360    0.9790 C   0  0  0  0  0  0  0  0  0  0  0  0
   -1.6210   -2.3900    1.9850 O   0  0  0  0  0  0  0  0  0  0  0  0
   -3.5060   -2.1490    0.7830 O   0  0  0  0  0  0  0  0  0  0  0  0
    0.5520   -1.6350    0.7770 H   0  0  0  0  0  0  0  0  0  0  0  0
   -1.8210    0.1020    0.1580 H   0  0  0  0  0  0  0  0  0  0  0  0
   -0.7760   -2.3430   -1.3930 H   0  0  0  0  0  0  0  0  0  0  0  0
   -0.7530   -0.6400   -1.9010 H   0  0  0  0  0  0  0  0  0  0  0  0
   -2.8200    0.5100   -2.3170 H   0  0  0  0  0  0  0  0  0  0  0  0
   -5.1160    0.3270   -3.2910 H   0  0  0  0  0  0  0  0  0  0  0  0
   -6.2260   -1.8570   -3.3020 H   0  0  0  0  0  0  0  0  0  0  0  0
   -5.1400   -3.7990   -2.3950 H   0  0  0  0  0  0  0  0  0  0  0  0
   -2.8780   -3.6090   -1.4420 H   0  0  0  0  0  0  0  0  0  0  0  0
  1  7  1  0  0  0  0
  1  8  1  0  0  0  0
  2  9  1  6  0  0  0
  2  1  1  0  0  0  0
  3 11  1  0  0  0  0
  3  2  1  0  0  0  0
  3  4  1  0  0  0  0
  4 12  1  0  0  0  0
  5  2  1  0  0  0  0
  5  6  2  0  0  0  0
 10  3  1  0  0  0  0
 13  5  1  0  0  0  0
 14 13  1  0  0  0  0
 14 24  1  1  0  0  0
 15 25  1  0  0  0  0
 15 14  1  0  0  0  0
 16 15  1  0  0  0  0
 16 20  1  0  0  0  0
 17 18  1  0  0  0  0
 17 16  2  0  0  0  0
 18 19  1  0  0  0  0
 19 20  2  0  0  0  0
 19 29  1  0  0  0  0
 21 14  1  0  0  0  0
 22 21  2  0  0  0  0
 23 13  1  0  0  0  0
 26 15  1  0  0  0  0
 27 17  1  0  0  0  0
 28 18  1  0  0  0  0
 30 42  1  0  0  0  0
 30 21  1  0  0  0  0
 31 43  1  1  0  0  0
 31 30  1  0  0  0  0
 31 39  1  0  0  0  0
 32 31  1  0  0  0  0
 33 32  1  0  0  0  0
 34 46  1  0  0  0  0
 34 33  2  0  0  0  0
 35 34  1  0  0  0  0
 36 35  2  0  0  0  0
 36 37  1  0  0  0  0
 37 38  2  0  0  0  0
 38 33  1  0  0  0  0
 38 50  1  0  0  0  0
 39 40  1  0  0  0  0
 41 39  2  0  0  0  0
 44 32  1  0  0  0  0
 45 32  1  0  0  0  0
 47 35  1  0  0  0  0
 48 36  1  0  0  0  0
 49 37  1  0  0  0  0
M  END
$$$$
