CHG.pdb
 OpenBabel07022418273D

 37 37  0  0  1  0  0  0  0  0999 V2000
   -0.4100   -3.9480    2.1940 N   0  0  0  0  0  0  0  0  0  0  0  0
    0.9700   -3.5940    2.3320 C   0  0  1  0  0  0  0  0  0  0  0  0
    1.8040   -4.6580    1.6290 C   0  0  0  0  0  0  0  0  0  0  0  0
    3.5590   -4.2550    1.7760 S   0  0  0  0  0  0  0  0  0  0  0  0
    1.2800   -2.2920    1.6520 C   0  0  0  0  0  0  0  0  0  0  0  0
    2.4550   -1.8460    1.6840 O   0  0  0  0  0  0  0  0  0  0  0  0
   -0.6830   -4.1290    1.2190 H   0  0  0  0  0  0  0  0  0  0  0  0
   -1.0650   -3.3640    2.7330 H   0  0  0  0  0  0  0  0  0  0  0  0
    1.2540   -3.5670    3.3970 H   0  0  0  0  0  0  0  0  0  0  0  0
    1.5810   -5.6680    2.0470 H   0  0  0  0  0  0  0  0  0  0  0  0
    1.5270   -4.6370    0.5610 H   0  0  0  0  0  0  0  0  0  0  0  0
    4.1950   -4.6070    0.5610 H   0  0  0  0  0  0  0  0  0  0  0  0
    0.2490   -1.5950    0.9890 N   0  0  0  0  0  0  0  0  0  0  0  0
    0.4800   -0.3310    0.3110 C   0  0  1  0  0  0  0  0  0  0  0  0
    0.1740   -0.4670   -1.1610 C   0  0  0  0  0  0  0  0  0  0  0  0
    0.3770    0.7700   -1.9350 C   0  0  0  0  0  0  0  0  0  0  0  0
   -0.5580    1.7450   -2.1980 C   0  0  0  0  0  0  0  0  0  0  0  0
    0.0370    2.6860   -2.9390 N   0  0  0  0  0  0  0  0  0  0  0  0
    1.3130    2.3480   -3.1570 C   0  0  0  0  0  0  0  0  0  0  0  0
    1.5130    1.1780   -2.5420 N   0  0  0  0  0  0  0  0  0  0  0  0
   -0.3660    0.7060    0.9250 C   0  0  0  0  0  0  0  0  0  0  0  0
   -0.3530    1.9060    0.5490 O   0  0  0  0  0  0  0  0  0  0  0  0
   -0.7080   -2.0090    0.9910 H   0  0  0  0  0  0  0  0  0  0  0  0
    1.5490   -0.0370    0.4060 H   0  0  0  0  0  0  0  0  0  0  0  0
   -0.9060   -0.7510   -1.2910 H   0  0  0  0  0  0  0  0  0  0  0  0
    0.7510   -1.2890   -1.6280 H   0  0  0  0  0  0  0  0  0  0  0  0
   -1.6120    1.7540   -1.8650 H   0  0  0  0  0  0  0  0  0  0  0  0
   -0.4670    3.5630   -3.2840 H   0  0  0  0  0  0  0  0  0  0  0  0
    2.0100    2.9330   -3.7230 H   0  0  0  0  0  0  0  0  0  0  0  0
   -1.2700    0.4060    2.0080 N   0  0  0  0  0  0  0  0  0  0  0  0
   -2.0850    1.4480    2.5870 C   0  0  0  0  0  0  0  0  0  0  0  0
   -1.2620    2.5380    3.1570 C   0  0  0  0  0  0  0  0  0  0  0  0
   -1.8180    3.5210    3.6990 O   0  0  0  0  0  0  0  0  0  0  0  0
    0.1120    2.4710    3.0920 O   0  0  0  0  0  0  0  0  0  0  0  0
   -1.2980   -0.5980    2.3420 H   0  0  0  0  0  0  0  0  0  0  0  0
   -2.8370    1.8380    1.8570 H   0  0  0  0  0  0  0  0  0  0  0  0
   -2.7000    0.9620    3.3910 H   0  0  0  0  0  0  0  0  0  0  0  0
  1  2  1  0  0  0  0
  1  8  1  0  0  0  0
  2  9  1  1  0  0  0
  3  4  1  0  0  0  0
  3 10  1  0  0  0  0
  3  2  1  0  0  0  0
  5  6  2  0  0  0  0
  5  2  1  0  0  0  0
  7  1  1  0  0  0  0
 11  3  1  0  0  0  0
 12  4  1  0  0  0  0
 13 23  1  0  0  0  0
 13  5  1  0  0  0  0
 14 24  1  1  0  0  0
 14 21  1  0  0  0  0
 14 13  1  0  0  0  0
 15 14  1  0  0  0  0
 16 15  1  0  0  0  0
 17 16  2  0  0  0  0
 17 27  1  0  0  0  0
 18 17  1  0  0  0  0
 19 18  1  0  0  0  0
 19 20  2  0  0  0  0
 20 16  1  0  0  0  0
 21 30  1  0  0  0  0
 22 21  2  0  0  0  0
 25 15  1  0  0  0  0
 26 15  1  0  0  0  0
 28 18  1  0  0  0  0
 29 19  1  0  0  0  0
 30 35  1  0  0  0  0
 30 31  1  0  0  0  0
 31 32  1  0  0  0  0
 31 37  1  0  0  0  0
 32 33  1  0  0  0  0
 34 32  2  0  0  0  0
 36 31  1  0  0  0  0
M  END
$$$$
