CHI.pdb
 OpenBabel07022418273D

 49 49  0  0  1  0  0  0  0  0999 V2000
    0.5190   -0.0440    5.4840 N   0  0  0  0  0  0  0  0  0  0  0  0
    0.4310   -0.8990    4.3060 C   0  0  1  0  0  0  0  0  0  0  0  0
   -1.0130   -1.1990    3.9980 C   0  0  0  0  0  0  0  0  0  0  0  0
   -1.8060   -2.0410    5.4120 S   0  0  0  0  0  0  0  0  0  0  0  0
    1.1160   -0.2350    3.1790 C   0  0  0  0  0  0  0  0  0  0  0  0
    1.7590    0.8570    3.3520 O   0  0  0  0  0  0  0  0  0  0  0  0
    0.3080    0.9380    5.2870 H   0  0  0  0  0  0  0  0  0  0  0  0
   -0.1170   -0.3730    6.2390 H   0  0  0  0  0  0  0  0  0  0  0  0
    0.9930   -1.8450    4.5440 H   0  0  0  0  0  0  0  0  0  0  0  0
   -1.5460   -0.2580    3.8340 H   0  0  0  0  0  0  0  0  0  0  0  0
   -1.0650   -1.9190    3.1450 H   0  0  0  0  0  0  0  0  0  0  0  0
   -2.7660   -2.9250    4.8970 H   0  0  0  0  0  0  0  0  0  0  0  0
    1.1100   -0.7470    1.8740 N   0  0  0  0  0  0  0  0  0  0  0  0
    1.8210   -0.0750    0.7820 C   0  0  1  0  0  0  0  0  0  0  0  0
    2.9320   -0.9400    0.2540 C   0  0  0  0  0  0  0  0  0  0  0  0
    3.7260   -0.2000   -0.7580 C   0  0  0  0  0  0  0  0  0  0  0  0
    3.7100    1.1340   -1.1120 C   0  0  0  0  0  0  0  0  0  0  0  0
    4.6840    1.3540   -2.0280 N   0  0  0  0  0  0  0  0  0  0  0  0
    5.3180    0.2140   -2.2680 C   0  0  0  0  0  0  0  0  0  0  0  0
    4.7470   -0.7220   -1.5080 N   0  0  0  0  0  0  0  0  0  0  0  0
    0.8380    0.1200   -0.2920 C   0  0  0  0  0  0  0  0  0  0  0  0
    1.0940    0.5150   -1.4680 O   0  0  0  0  0  0  0  0  0  0  0  0
    0.6070   -1.6150    1.6320 H   0  0  0  0  0  0  0  0  0  0  0  0
    2.2440    0.8480    1.1900 H   0  0  0  0  0  0  0  0  0  0  0  0
    2.4440   -1.8160   -0.2710 H   0  0  0  0  0  0  0  0  0  0  0  0
    3.6380   -1.2680    1.0270 H   0  0  0  0  0  0  0  0  0  0  0  0
    3.0820    1.9300   -0.7450 H   0  0  0  0  0  0  0  0  0  0  0  0
    4.9400    2.2580   -2.5040 H   0  0  0  0  0  0  0  0  0  0  0  0
    6.1580    0.0120   -2.9450 H   0  0  0  0  0  0  0  0  0  0  0  0
   -2.4990   -2.4170    0.6010 C   0  0  0  0  0  0  0  0  0  0  0  0
   -3.1710   -1.7640   -0.5570 C   0  0  0  0  0  0  0  0  0  0  0  0
   -2.2780   -1.1260   -1.5610 C   0  0  2  0  0  0  0  0  0  0  0  0
   -1.3130   -2.1550   -2.1660 C   0  0  0  0  0  0  0  0  0  0  0  0
   -1.5130    0.0710   -1.1530 C   0  0  2  0  0  0  0  0  0  0  0  0
   -0.5690   -0.1360   -0.0720 N   0  0  0  0  0  0  0  0  0  0  0  0
   -2.3990    1.2240   -0.8120 C   0  0  0  0  0  0  0  0  0  0  0  0
   -3.2930    1.5930   -1.6000 O   0  0  0  0  0  0  0  0  0  0  0  0
   -2.2320    1.8890    0.3820 O   0  0  0  0  0  0  0  0  0  0  0  0
   -1.4390   -2.6750    0.4410 H   0  0  0  0  0  0  0  0  0  0  0  0
   -3.0090   -3.4150    0.7820 H   0  0  0  0  0  0  0  0  0  0  0  0
   -2.7080   -1.8540    1.5350 H   0  0  0  0  0  0  0  0  0  0  0  0
   -3.9090   -1.0200   -0.1350 H   0  0  0  0  0  0  0  0  0  0  0  0
   -3.7570   -2.5560   -1.1230 H   0  0  0  0  0  0  0  0  0  0  0  0
   -2.8830   -0.8000   -2.4770 H   0  0  0  0  0  0  0  0  0  0  0  0
   -0.8670   -1.6910   -3.0520 H   0  0  0  0  0  0  0  0  0  0  0  0
   -0.5620   -2.4880   -1.4260 H   0  0  0  0  0  0  0  0  0  0  0  0
   -1.9840   -3.0300   -2.4180 H   0  0  0  0  0  0  0  0  0  0  0  0
   -0.9570    0.4130   -2.0850 H   0  0  0  0  0  0  0  0  0  0  0  0
   -0.8930   -0.4520    0.8580 H   0  0  0  0  0  0  0  0  0  0  0  0
  1  8  1  0  0  0  0
  2  9  1  1  0  0  0
  2  1  1  0  0  0  0
  3  2  1  0  0  0  0
  3  4  1  0  0  0  0
  5  6  2  0  0  0  0
  5  2  1  0  0  0  0
  7  1  1  0  0  0  0
 10  3  1  0  0  0  0
 11  3  1  0  0  0  0
 12  4  1  0  0  0  0
 13  5  1  0  0  0  0
 14 24  1  1  0  0  0
 14 13  1  0  0  0  0
 15 14  1  0  0  0  0
 15 26  1  0  0  0  0
 16 15  1  0  0  0  0
 17 16  2  0  0  0  0
 17 27  1  0  0  0  0
 18 17  1  0  0  0  0
 19 18  1  0  0  0  0
 19 20  2  0  0  0  0
 20 16  1  0  0  0  0
 21 35  1  0  0  0  0
 21 14  1  0  0  0  0
 22 21  2  0  0  0  0
 23 13  1  0  0  0  0
 25 15  1  0  0  0  0
 28 18  1  0  0  0  0
 29 19  1  0  0  0  0
 30 40  1  0  0  0  0
 30 41  1  0  0  0  0
 31 42  1  0  0  0  0
 31 30  1  0  0  0  0
 32 44  1  6  0  0  0
 32 34  1  0  0  0  0
 32 31  1  0  0  0  0
 33 32  1  0  0  0  0
 33 46  1  0  0  0  0
 34 48  1  6  0  0  0
 34 36  1  0  0  0  0
 34 35  1  0  0  0  0
 35 49  1  0  0  0  0
 36 38  1  0  0  0  0
 37 36  2  0  0  0  0
 39 30  1  0  0  0  0
 43 31  1  0  0  0  0
 45 33  1  0  0  0  0
 47 33  1  0  0  0  0
M  END
$$$$
