CHK.pdb
 OpenBabel07022418273D

 51 51  0  0  1  0  0  0  0  0999 V2000
    4.2300   -4.0250    1.5420 N   0  0  0  0  0  0  0  0  0  0  0  0
    3.2490   -3.3470    0.6720 C   0  0  1  0  0  0  0  0  0  0  0  0
    2.1790   -4.3790    0.4040 C   0  0  0  0  0  0  0  0  0  0  0  0
    0.8850   -3.7090   -0.6600 S   0  0  0  0  0  0  0  0  0  0  0  0
    2.7700   -2.1650    1.4020 C   0  0  0  0  0  0  0  0  0  0  0  0
    3.1370   -1.9810    2.6010 O   0  0  0  0  0  0  0  0  0  0  0  0
    4.6990   -3.3260    2.1760 H   0  0  0  0  0  0  0  0  0  0  0  0
    3.7260   -4.6770    2.2050 H   0  0  0  0  0  0  0  0  0  0  0  0
    3.7580   -3.1060   -0.2740 H   0  0  0  0  0  0  0  0  0  0  0  0
    1.7770   -4.8220    1.3370 H   0  0  0  0  0  0  0  0  0  0  0  0
    2.6720   -5.2090   -0.1450 H   0  0  0  0  0  0  0  0  0  0  0  0
    0.9780   -4.2330   -1.9620 H   0  0  0  0  0  0  0  0  0  0  0  0
    1.9020   -1.1630    0.8810 N   0  0  0  0  0  0  0  0  0  0  0  0
    1.4850   -0.0270    1.6850 C   0  0  1  0  0  0  0  0  0  0  0  0
    2.2560    1.2190    1.2030 C   0  0  0  0  0  0  0  0  0  0  0  0
    1.8270    2.3690    2.0260 C   0  0  0  0  0  0  0  0  0  0  0  0
    2.3930    2.7790    3.2180 C   0  0  0  0  0  0  0  0  0  0  0  0
    1.7520    3.8580    3.6910 N   0  0  0  0  0  0  0  0  0  0  0  0
    0.7840    4.1290    2.8010 C   0  0  0  0  0  0  0  0  0  0  0  0
    0.8150    3.2420    1.7920 N   0  0  0  0  0  0  0  0  0  0  0  0
    0.0280    0.1950    1.6990 C   0  0  0  0  0  0  0  0  0  0  0  0
   -0.4610    1.0640    2.5040 O   0  0  0  0  0  0  0  0  0  0  0  0
    1.5780   -1.2680   -0.0860 H   0  0  0  0  0  0  0  0  0  0  0  0
    1.8250   -0.1380    2.7360 H   0  0  0  0  0  0  0  0  0  0  0  0
    3.3250    1.0030    1.4510 H   0  0  0  0  0  0  0  0  0  0  0  0
    2.0940    1.3690    0.1180 H   0  0  0  0  0  0  0  0  0  0  0  0
    3.2230    2.3030    3.6910 H   0  0  0  0  0  0  0  0  0  0  0  0
    1.9930    4.3490    4.5720 H   0  0  0  0  0  0  0  0  0  0  0  0
    0.0900    4.9670    2.9230 H   0  0  0  0  0  0  0  0  0  0  0  0
   -0.9260   -0.4690    0.8910 N   0  0  0  0  0  0  0  0  0  0  0  0
   -2.3540   -0.2190    0.9490 C   0  0  1  0  0  0  0  0  0  0  0  0
   -2.9080    0.6940   -0.0440 C   0  0  0  0  0  0  0  0  0  0  0  0
   -2.8230    0.5360   -1.4830 C   0  0  0  0  0  0  0  0  0  0  0  0
   -3.4080   -0.6120   -2.1850 C   0  0  0  0  0  0  0  0  0  0  0  0
   -2.8940   -1.9770   -1.9620 C   0  0  0  0  0  0  0  0  0  0  0  0
   -1.4730   -1.9740   -2.3020 N   0  0  0  0  0  0  0  0  0  0  0  0
   -3.1080   -1.4060    1.3110 C   0  0  0  0  0  0  0  0  0  0  0  0
   -4.3620   -1.3430    1.3910 O   0  0  0  0  0  0  0  0  0  0  0  0
   -2.5330   -2.6590    1.5880 O   0  0  0  0  0  0  0  0  0  0  0  0
   -0.5400   -1.1830    0.2160 H   0  0  0  0  0  0  0  0  0  0  0  0
   -2.4530    0.4250    1.9550 H   0  0  0  0  0  0  0  0  0  0  0  0
   -4.0330    0.7940    0.2380 H   0  0  0  0  0  0  0  0  0  0  0  0
   -2.5750    1.7680    0.2590 H   0  0  0  0  0  0  0  0  0  0  0  0
   -3.3600    1.4620   -1.9390 H   0  0  0  0  0  0  0  0  0  0  0  0
   -1.7600    0.7440   -1.8750 H   0  0  0  0  0  0  0  0  0  0  0  0
   -4.5250   -0.6200   -1.9000 H   0  0  0  0  0  0  0  0  0  0  0  0
   -3.4690   -0.4370   -3.3060 H   0  0  0  0  0  0  0  0  0  0  0  0
   -3.3720   -2.6100   -2.8020 H   0  0  0  0  0  0  0  0  0  0  0  0
   -3.1610   -2.5140   -1.0750 H   0  0  0  0  0  0  0  0  0  0  0  0
   -1.1740   -2.8970   -2.6870 H   0  0  0  0  0  0  0  0  0  0  0  0
   -1.2720   -1.1920   -2.9580 H   0  0  0  0  0  0  0  0  0  0  0  0
  1  7  1  0  0  0  0
  1  8  1  0  0  0  0
  2  9  1  6  0  0  0
  2  5  1  0  0  0  0
  2  1  1  0  0  0  0
  3  2  1  0  0  0  0
  3 10  1  0  0  0  0
  4  3  1  0  0  0  0
  5  6  2  0  0  0  0
 11  3  1  0  0  0  0
 12  4  1  0  0  0  0
 13  5  1  0  0  0  0
 13 14  1  0  0  0  0
 14 21  1  0  0  0  0
 14 24  1  1  0  0  0
 15 25  1  0  0  0  0
 15 14  1  0  0  0  0
 15 16  1  0  0  0  0
 16 17  2  0  0  0  0
 17 18  1  0  0  0  0
 17 27  1  0  0  0  0
 18 28  1  0  0  0  0
 19 29  1  0  0  0  0
 19 18  1  0  0  0  0
 20 16  1  0  0  0  0
 20 19  2  0  0  0  0
 21 22  2  0  0  0  0
 23 13  1  0  0  0  0
 26 15  1  0  0  0  0
 30 31  1  0  0  0  0
 30 21  1  0  0  0  0
 31 37  1  0  0  0  0
 31 41  1  1  0  0  0
 32 42  1  0  0  0  0
 32 43  1  0  0  0  0
 32 31  1  0  0  0  0
 33 32  1  0  0  0  0
 34 35  1  0  0  0  0
 34 46  1  0  0  0  0
 34 33  1  0  0  0  0
 35 49  1  0  0  0  0
 36 35  1  0  0  0  0
 37 38  2  0  0  0  0
 37 39  1  0  0  0  0
 40 30  1  0  0  0  0
 44 33  1  0  0  0  0
 45 33  1  0  0  0  0
 47 34  1  0  0  0  0
 48 35  1  0  0  0  0
 50 36  1  0  0  0  0
 51 36  1  0  0  0  0
M  END
$$$$
