CHL.pdb
 OpenBabel07022418273D

 49 49  0  0  1  0  0  0  0  0999 V2000
    4.8560   -3.8600   -0.8930 N   0  0  0  0  0  0  0  0  0  0  0  0
    4.3440   -2.5920   -0.4450 C   0  0  1  0  0  0  0  0  0  0  0  0
    4.4230   -1.6210   -1.6260 C   0  0  0  0  0  0  0  0  0  0  0  0
    6.1370   -1.4590   -2.1520 S   0  0  0  0  0  0  0  0  0  0  0  0
    2.9130   -2.7570   -0.0470 C   0  0  0  0  0  0  0  0  0  0  0  0
    2.3480   -3.8780   -0.1330 O   0  0  0  0  0  0  0  0  0  0  0  0
    5.8850   -3.9310   -0.8160 H   0  0  0  0  0  0  0  0  0  0  0  0
    4.3440   -4.6340   -0.4230 H   0  0  0  0  0  0  0  0  0  0  0  0
    4.9090   -2.2230    0.4160 H   0  0  0  0  0  0  0  0  0  0  0  0
    3.7970   -2.0480   -2.4470 H   0  0  0  0  0  0  0  0  0  0  0  0
    3.9690   -0.6760   -1.2900 H   0  0  0  0  0  0  0  0  0  0  0  0
    6.3740   -2.3630   -3.2190 H   0  0  0  0  0  0  0  0  0  0  0  0
    2.1280   -1.6870    0.4380 N   0  0  0  0  0  0  0  0  0  0  0  0
    0.7590   -1.8720    0.8130 C   0  0  1  0  0  0  0  0  0  0  0  0
    0.4690   -1.5510    2.2370 C   0  0  0  0  0  0  0  0  0  0  0  0
    0.7890   -0.1500    2.5850 C   0  0  0  0  0  0  0  0  0  0  0  0
    0.5940    0.3600    3.8650 C   0  0  0  0  0  0  0  0  0  0  0  0
    0.9720    1.6340    3.8580 N   0  0  0  0  0  0  0  0  0  0  0  0
    1.4000    1.9390    2.6110 C   0  0  0  0  0  0  0  0  0  0  0  0
    1.2840    0.8450    1.8430 N   0  0  0  0  0  0  0  0  0  0  0  0
   -0.1500   -1.0360   -0.0470 C   0  0  0  0  0  0  0  0  0  0  0  0
    0.3440   -0.2560   -0.8930 O   0  0  0  0  0  0  0  0  0  0  0  0
    2.5320   -0.7340    0.5340 H   0  0  0  0  0  0  0  0  0  0  0  0
    0.4960   -2.9370    0.6480 H   0  0  0  0  0  0  0  0  0  0  0  0
    0.9550   -2.2730    2.9520 H   0  0  0  0  0  0  0  0  0  0  0  0
   -0.6180   -1.6860    2.4040 H   0  0  0  0  0  0  0  0  0  0  0  0
    0.2080   -0.1610    4.7250 H   0  0  0  0  0  0  0  0  0  0  0  0
    0.9510    2.3030    4.6710 H   0  0  0  0  0  0  0  0  0  0  0  0
    1.7650    2.9160    2.3290 H   0  0  0  0  0  0  0  0  0  0  0  0
   -3.0330    0.1530    2.3280 C   0  0  0  0  0  0  0  0  0  0  0  0
   -3.8690    0.6530    1.2030 C   0  0  0  0  0  0  0  0  0  0  0  0
   -4.4460    1.9940    1.6200 C   0  0  0  0  0  0  0  0  0  0  0  0
   -3.1250    0.7950   -0.0940 C   0  0  0  0  0  0  0  0  0  0  0  0
   -2.5320   -0.4360   -0.6500 C   0  0  2  0  0  0  0  0  0  0  0  0
   -1.5600   -1.1350    0.1000 N   0  0  0  0  0  0  0  0  0  0  0  0
   -2.2290   -0.2430   -2.1030 C   0  0  0  0  0  0  0  0  0  0  0  0
   -3.0080    0.4990   -2.7510 O   0  0  0  0  0  0  0  0  0  0  0  0
   -1.1720   -0.8320   -2.7200 O   0  0  0  0  0  0  0  0  0  0  0  0
   -3.2120    0.7260    3.2750 H   0  0  0  0  0  0  0  0  0  0  0  0
   -1.9860    0.2410    2.0430 H   0  0  0  0  0  0  0  0  0  0  0  0
   -3.2680   -0.8910    2.5720 H   0  0  0  0  0  0  0  0  0  0  0  0
   -4.7090   -0.0850    1.0440 H   0  0  0  0  0  0  0  0  0  0  0  0
   -3.7250    2.4730    2.3190 H   0  0  0  0  0  0  0  0  0  0  0  0
   -4.5300    2.6690    0.7300 H   0  0  0  0  0  0  0  0  0  0  0  0
   -5.4400    1.8640    2.1160 H   0  0  0  0  0  0  0  0  0  0  0  0
   -3.8580    1.1870   -0.8660 H   0  0  0  0  0  0  0  0  0  0  0  0
   -2.4010    1.6370    0.0120 H   0  0  0  0  0  0  0  0  0  0  0  0
   -3.4420   -1.1790   -0.7350 H   0  0  0  0  0  0  0  0  0  0  0  0
   -1.9210   -1.8200    0.8560 H   0  0  0  0  0  0  0  0  0  0  0  0
  1  7  1  0  0  0  0
  1  2  1  0  0  0  0
  1  8  1  0  0  0  0
  2  5  1  0  0  0  0
  2  9  1  1  0  0  0
  3 11  1  0  0  0  0
  3  2  1  0  0  0  0
  4  3  1  0  0  0  0
  5 13  1  0  0  0  0
  6  5  2  0  0  0  0
 10  3  1  0  0  0  0
 12  4  1  0  0  0  0
 13 23  1  0  0  0  0
 13 14  1  0  0  0  0
 14 24  1  6  0  0  0
 14 15  1  0  0  0  0
 15 26  1  0  0  0  0
 15 16  1  0  0  0  0
 15 25  1  0  0  0  0
 16 17  2  0  0  0  0
 17 27  1  0  0  0  0
 18 17  1  0  0  0  0
 18 28  1  0  0  0  0
 19 18  1  0  0  0  0
 20 16  1  0  0  0  0
 20 19  2  0  0  0  0
 21 35  1  0  0  0  0
 21 14  1  0  0  0  0
 22 21  2  0  0  0  0
 29 19  1  0  0  0  0
 30 41  1  0  0  0  0
 30 39  1  0  0  0  0
 31 32  1  0  0  0  0
 31 30  1  0  0  0  0
 32 45  1  0  0  0  0
 32 43  1  0  0  0  0
 33 47  1  0  0  0  0
 33 31  1  0  0  0  0
 34 48  1  6  0  0  0
 34 33  1  0  0  0  0
 34 35  1  0  0  0  0
 35 49  1  0  0  0  0
 36 34  1  0  0  0  0
 37 36  2  0  0  0  0
 38 36  1  0  0  0  0
 40 30  1  0  0  0  0
 42 31  1  0  0  0  0
 44 32  1  0  0  0  0
 46 33  1  0  0  0  0
M  END
$$$$
