CHP.pdb
 OpenBabel07022418273D

 44 45  0  0  1  0  0  0  0  0999 V2000
    2.0570   -3.1030    3.4780 N   0  0  0  0  0  0  0  0  0  0  0  0
    1.8660   -2.8040    2.0510 C   0  0  1  0  0  0  0  0  0  0  0  0
    1.0000   -3.8490    1.4850 C   0  0  0  0  0  0  0  0  0  0  0  0
    0.6260   -3.7670   -0.2540 S   0  0  0  0  0  0  0  0  0  0  0  0
    1.5400   -1.4040    1.8520 C   0  0  0  0  0  0  0  0  0  0  0  0
    1.6270   -0.6390    2.8810 O   0  0  0  0  0  0  0  0  0  0  0  0
    2.8690   -3.6990    3.6550 H   0  0  0  0  0  0  0  0  0  0  0  0
    1.1640   -3.4260    3.9120 H   0  0  0  0  0  0  0  0  0  0  0  0
    2.9030   -2.9540    1.6190 H   0  0  0  0  0  0  0  0  0  0  0  0
    1.5330   -4.8360    1.6550 H   0  0  0  0  0  0  0  0  0  0  0  0
    0.0370   -3.9910    2.0300 H   0  0  0  0  0  0  0  0  0  0  0  0
   -0.7130   -4.1400   -0.5260 H   0  0  0  0  0  0  0  0  0  0  0  0
    1.1380   -0.7520    0.6740 N   0  0  0  0  0  0  0  0  0  0  0  0
    0.8670    0.6390    0.6120 C   0  0  1  0  0  0  0  0  0  0  0  0
    1.6670    1.3520   -0.4640 C   0  0  0  0  0  0  0  0  0  0  0  0
    3.1200    1.2220   -0.2480 C   0  0  0  0  0  0  0  0  0  0  0  0
    4.0650    1.7750   -1.0780 C   0  0  0  0  0  0  0  0  0  0  0  0
    5.2870    1.4490   -0.5660 N   0  0  0  0  0  0  0  0  0  0  0  0
    5.1180    0.7190    0.5430 C   0  0  0  0  0  0  0  0  0  0  0  0
    3.8090    0.5900    0.7240 N   0  0  0  0  0  0  0  0  0  0  0  0
   -0.5130    1.0950    0.5300 C   0  0  0  0  0  0  0  0  0  0  0  0
   -0.6230    2.3780    0.3540 O   0  0  0  0  0  0  0  0  0  0  0  0
    1.0500   -1.3280   -0.1880 H   0  0  0  0  0  0  0  0  0  0  0  0
    1.2530    1.0940    1.5910 H   0  0  0  0  0  0  0  0  0  0  0  0
    1.3720    1.0480   -1.4780 H   0  0  0  0  0  0  0  0  0  0  0  0
    1.4210    2.4420   -0.3710 H   0  0  0  0  0  0  0  0  0  0  0  0
    3.9670    2.3620   -1.9740 H   0  0  0  0  0  0  0  0  0  0  0  0
    6.2090    1.7120   -0.9550 H   0  0  0  0  0  0  0  0  0  0  0  0
    5.9130    0.3270    1.1510 H   0  0  0  0  0  0  0  0  0  0  0  0
   -1.7170    0.3980    0.6090 N   0  0  0  0  0  0  0  0  0  0  0  0
   -2.0010   -1.0060    0.8240 C   0  0  0  0  0  0  0  0  0  0  0  0
   -3.0900   -1.2670   -0.1930 C   0  0  0  0  0  0  0  0  0  0  0  0
   -3.6920    0.0710   -0.5240 C   0  0  0  0  0  0  0  0  0  0  0  0
   -3.0320    0.9960    0.4710 C   0  0  1  0  0  0  0  0  0  0  0  0
   -3.8030    1.0450    1.7080 C   0  0  0  0  0  0  0  0  0  0  0  0
   -4.9580    1.5460    1.6510 O   0  0  0  0  0  0  0  0  0  0  0  0
   -3.3890    0.5910    2.9480 O   0  0  0  0  0  0  0  0  0  0  0  0
   -2.3610   -1.1990    1.8640 H   0  0  0  0  0  0  0  0  0  0  0  0
   -1.1100   -1.6240    0.7120 H   0  0  0  0  0  0  0  0  0  0  0  0
   -3.8700   -1.9570    0.1900 H   0  0  0  0  0  0  0  0  0  0  0  0
   -2.6610   -1.6870   -1.1180 H   0  0  0  0  0  0  0  0  0  0  0  0
   -3.3760    0.4300   -1.5410 H   0  0  0  0  0  0  0  0  0  0  0  0
   -4.7900    0.1020   -0.4030 H   0  0  0  0  0  0  0  0  0  0  0  0
   -2.9580    2.0390    0.0710 H   0  0  0  0  0  0  0  0  0  0  0  0
  1  7  1  0  0  0  0
  1  8  1  0  0  0  0
  2  9  1  6  0  0  0
  2  1  1  0  0  0  0
  3 10  1  0  0  0  0
  3 11  1  0  0  0  0
  3  2  1  0  0  0  0
  4  3  1  0  0  0  0
  5  2  1  0  0  0  0
  5  6  2  0  0  0  0
 12  4  1  0  0  0  0
 13  5  1  0  0  0  0
 14 13  1  0  0  0  0
 14 24  1  1  0  0  0
 15 26  1  0  0  0  0
 15 16  1  0  0  0  0
 15 14  1  0  0  0  0
 16 20  1  0  0  0  0
 17 18  1  0  0  0  0
 17 16  2  0  0  0  0
 18 19  1  0  0  0  0
 19 20  2  0  0  0  0
 19 29  1  0  0  0  0
 21 30  1  0  0  0  0
 21 14  1  0  0  0  0
 22 21  2  0  0  0  0
 23 13  1  0  0  0  0
 25 15  1  0  0  0  0
 27 17  1  0  0  0  0
 28 18  1  0  0  0  0
 30 31  1  0  0  0  0
 31 38  1  0  0  0  0
 32 40  1  0  0  0  0
 32 31  1  0  0  0  0
 33 43  1  0  0  0  0
 33 32  1  0  0  0  0
 33 34  1  0  0  0  0
 34 44  1  6  0  0  0
 34 30  1  0  0  0  0
 34 35  1  0  0  0  0
 35 37  1  0  0  0  0
 36 35  2  0  0  0  0
 39 31  1  0  0  0  0
 41 32  1  0  0  0  0
 42 33  1  0  0  0  0
M  END
$$$$
