CHR.pdb
 OpenBabel07022418273D

 53 53  0  0  1  0  0  0  0  0999 V2000
    3.7700    0.2190   -2.2270 N   0  0  0  0  0  0  0  0  0  0  0  0
    2.4090    0.3510   -1.7720 C   0  0  1  0  0  0  0  0  0  0  0  0
    1.5050   -0.6970   -2.4290 C   0  0  0  0  0  0  0  0  0  0  0  0
    1.5180   -0.5140   -4.2320 S   0  0  0  0  0  0  0  0  0  0  0  0
    2.3480    0.1110   -0.3220 C   0  0  0  0  0  0  0  0  0  0  0  0
    3.4010   -0.1510    0.2960 O   0  0  0  0  0  0  0  0  0  0  0  0
    3.7860   -0.1950   -3.1950 H   0  0  0  0  0  0  0  0  0  0  0  0
    4.2620    1.1580   -2.2290 H   0  0  0  0  0  0  0  0  0  0  0  0
    2.0740    1.3780   -2.0490 H   0  0  0  0  0  0  0  0  0  0  0  0
    0.4880   -0.5430   -2.0280 H   0  0  0  0  0  0  0  0  0  0  0  0
    1.9350   -1.6840   -2.1600 H   0  0  0  0  0  0  0  0  0  0  0  0
    1.2330    0.8530   -4.5060 H   0  0  0  0  0  0  0  0  0  0  0  0
    1.1000    0.1830    0.3390 N   0  0  0  0  0  0  0  0  0  0  0  0
    0.9470   -0.0400    1.7650 C   0  0  1  0  0  0  0  0  0  0  0  0
    0.4910    1.2560    2.3560 C   0  0  0  0  0  0  0  0  0  0  0  0
    1.4850    2.3390    2.1170 C   0  0  0  0  0  0  0  0  0  0  0  0
    2.5240    2.6430    2.9690 C   0  0  0  0  0  0  0  0  0  0  0  0
    3.1910    3.6650    2.4170 N   0  0  0  0  0  0  0  0  0  0  0  0
    2.6300    4.0310    1.2530 C   0  0  0  0  0  0  0  0  0  0  0  0
    1.5850    3.2020    1.0930 N   0  0  0  0  0  0  0  0  0  0  0  0
    0.2430   -1.2260    2.1580 C   0  0  0  0  0  0  0  0  0  0  0  0
    0.1540   -1.4390    3.4230 O   0  0  0  0  0  0  0  0  0  0  0  0
    0.2710    0.4150   -0.2500 H   0  0  0  0  0  0  0  0  0  0  0  0
    2.0130   -0.1740    2.1440 H   0  0  0  0  0  0  0  0  0  0  0  0
    0.3560    1.1970    3.4560 H   0  0  0  0  0  0  0  0  0  0  0  0
   -0.4690    1.6250    1.9540 H   0  0  0  0  0  0  0  0  0  0  0  0
    2.7730    2.1520    3.9220 H   0  0  0  0  0  0  0  0  0  0  0  0
    4.0510    4.1430    2.8190 H   0  0  0  0  0  0  0  0  0  0  0  0
    2.9100    4.8110    0.5570 H   0  0  0  0  0  0  0  0  0  0  0  0
   -4.1040   -2.7280   -1.8010 N   0  0  0  0  0  0  0  0  0  0  0  0
   -3.3780   -1.7280   -1.0510 C   0  0  0  0  0  0  0  0  0  0  0  0
   -2.2230   -1.3880   -1.4430 N   0  0  0  0  0  0  0  0  0  0  0  0
   -3.9290   -1.1320    0.0860 N   0  0  0  0  0  0  0  0  0  0  0  0
   -3.3570   -1.0710    1.4150 C   0  0  0  0  0  0  0  0  0  0  0  0
   -3.3520   -2.3930    2.0850 C   0  0  0  0  0  0  0  0  0  0  0  0
   -2.4890   -3.4780    1.6090 C   0  0  0  0  0  0  0  0  0  0  0  0
   -1.0340   -3.3590    1.8840 C   0  0  2  0  0  0  0  0  0  0  0  0
   -0.3840   -2.2260    1.3550 N   0  0  0  0  0  0  0  0  0  0  0  0
   -0.3710   -4.6410    1.4530 C   0  0  0  0  0  0  0  0  0  0  0  0
   -0.7750   -5.7700    1.8020 O   0  0  0  0  0  0  0  0  0  0  0  0
    0.7390   -4.5540    0.6320 O   0  0  0  0  0  0  0  0  0  0  0  0
   -3.5260   -3.5180   -2.1590 H   0  0  0  0  0  0  0  0  0  0  0  0
   -5.1330   -2.6530   -1.9660 H   0  0  0  0  0  0  0  0  0  0  0  0
   -1.6560   -0.6940   -0.9690 H   0  0  0  0  0  0  0  0  0  0  0  0
   -4.9090   -0.6930   -0.0650 H   0  0  0  0  0  0  0  0  0  0  0  0
   -2.3700   -0.5700    1.3430 H   0  0  0  0  0  0  0  0  0  0  0  0
   -3.9850   -0.3460    2.0090 H   0  0  0  0  0  0  0  0  0  0  0  0
   -4.4280   -2.7700    2.0780 H   0  0  0  0  0  0  0  0  0  0  0  0
   -3.1500   -2.1660    3.1930 H   0  0  0  0  0  0  0  0  0  0  0  0
   -2.5800   -3.4800    0.4650 H   0  0  0  0  0  0  0  0  0  0  0  0
   -2.8840   -4.5020    1.8830 H   0  0  0  0  0  0  0  0  0  0  0  0
   -0.9070   -3.3150    3.0320 H   0  0  0  0  0  0  0  0  0  0  0  0
   -0.3120   -2.0810    0.3410 H   0  0  0  0  0  0  0  0  0  0  0  0
  1  2  1  0  0  0  0
  2  9  1  6  0  0  0
  2  5  1  0  0  0  0
  3 11  1  0  0  0  0
  3 10  1  0  0  0  0
  3  2  1  0  0  0  0
  4  3  1  0  0  0  0
  5  6  2  0  0  0  0
  5 13  1  0  0  0  0
  7  1  1  0  0  0  0
  8  1  1  0  0  0  0
 12  4  1  0  0  0  0
 13 14  1  0  0  0  0
 14 24  1  1  0  0  0
 14 21  1  0  0  0  0
 14 15  1  0  0  0  0
 15 25  1  0  0  0  0
 16 15  1  0  0  0  0
 16 17  2  0  0  0  0
 17 27  1  0  0  0  0
 18 28  1  0  0  0  0
 18 17  1  0  0  0  0
 19 18  1  0  0  0  0
 20 19  2  0  0  0  0
 20 16  1  0  0  0  0
 21 22  2  0  0  0  0
 23 13  1  0  0  0  0
 26 15  1  0  0  0  0
 29 19  1  0  0  0  0
 30 31  1  0  0  0  0
 31 33  1  0  0  0  0
 32 31  2  0  0  0  0
 32 44  1  0  0  0  0
 33 34  1  0  0  0  0
 34 47  1  0  0  0  0
 34 35  1  0  0  0  0
 35 49  1  0  0  0  0
 36 51  1  0  0  0  0
 36 37  1  0  0  0  0
 36 35  1  0  0  0  0
 37 52  1  1  0  0  0
 38 37  1  0  0  0  0
 38 21  1  0  0  0  0
 39 40  1  0  0  0  0
 39 37  1  0  0  0  0
 41 39  2  0  0  0  0
 42 30  1  0  0  0  0
 43 30  1  0  0  0  0
 45 33  1  0  0  0  0
 46 34  1  0  0  0  0
 48 35  1  0  0  0  0
 50 36  1  0  0  0  0
 53 38  1  0  0  0  0
M  END
$$$$
