CHS.pdb
 OpenBabel07022418273D

 41 41  0  0  1  0  0  0  0  0999 V2000
    2.1930   -0.5340    4.5160 N   0  0  0  0  0  0  0  0  0  0  0  0
    1.4980    0.0880    3.4410 C   0  0  1  0  0  0  0  0  0  0  0  0
    2.2070    1.4040    3.1110 C   0  0  0  0  0  0  0  0  0  0  0  0
    3.9340    1.0460    2.6280 S   0  0  0  0  0  0  0  0  0  0  0  0
    1.4320   -0.7770    2.2200 C   0  0  0  0  0  0  0  0  0  0  0  0
    1.9480   -1.9090    2.1850 O   0  0  0  0  0  0  0  0  0  0  0  0
    3.2140   -0.3460    4.5410 H   0  0  0  0  0  0  0  0  0  0  0  0
    1.9820   -1.5230    4.6840 H   0  0  0  0  0  0  0  0  0  0  0  0
    0.4760    0.3430    3.7360 H   0  0  0  0  0  0  0  0  0  0  0  0
    2.1410    2.1150    3.9340 H   0  0  0  0  0  0  0  0  0  0  0  0
    1.7160    1.7940    2.1960 H   0  0  0  0  0  0  0  0  0  0  0  0
    4.1330   -0.3390    2.5800 H   0  0  0  0  0  0  0  0  0  0  0  0
    0.7600   -0.2670    1.0940 N   0  0  0  0  0  0  0  0  0  0  0  0
    0.5910   -0.8860   -0.1700 C   0  0  1  0  0  0  0  0  0  0  0  0
    1.3200   -2.1970   -0.3870 C   0  0  0  0  0  0  0  0  0  0  0  0
    2.7960   -2.0690   -0.3560 C   0  0  0  0  0  0  0  0  0  0  0  0
    3.5040   -0.9070   -0.2440 C   0  0  0  0  0  0  0  0  0  0  0  0
    4.8430   -1.1510   -0.2970 N   0  0  0  0  0  0  0  0  0  0  0  0
    4.9400   -2.4800   -0.4440 C   0  0  0  0  0  0  0  0  0  0  0  0
    3.7200   -3.0390   -0.4800 N   0  0  0  0  0  0  0  0  0  0  0  0
   -0.7430   -0.8510   -0.7620 C   0  0  0  0  0  0  0  0  0  0  0  0
   -0.9020   -1.3970   -1.8830 O   0  0  0  0  0  0  0  0  0  0  0  0
    0.3100    0.7170    1.1880 H   0  0  0  0  0  0  0  0  0  0  0  0
    1.2550   -0.2080   -0.8700 H   0  0  0  0  0  0  0  0  0  0  0  0
    1.0370   -2.9790    0.3190 H   0  0  0  0  0  0  0  0  0  0  0  0
    1.0630   -2.5090   -1.4360 H   0  0  0  0  0  0  0  0  0  0  0  0
    3.0900    0.0900   -0.1250 H   0  0  0  0  0  0  0  0  0  0  0  0
    5.5870   -0.4220   -0.2330 H   0  0  0  0  0  0  0  0  0  0  0  0
    5.9030   -2.9870   -0.5180 H   0  0  0  0  0  0  0  0  0  0  0  0
   -3.7220   -2.3140    0.3160 O   0  0  0  0  0  0  0  0  0  0  0  0
   -4.1200   -1.0050    0.1220 C   0  0  0  0  0  0  0  0  0  0  0  0
   -3.1900   -0.2370   -0.7950 C   0  0  2  0  0  0  0  0  0  0  0  0
   -1.8790   -0.2480   -0.1700 N   0  0  0  0  0  0  0  0  0  0  0  0
   -3.7160    1.1410   -0.9030 C   0  0  0  0  0  0  0  0  0  0  0  0
   -3.1070    2.1670   -0.5060 O   0  0  0  0  0  0  0  0  0  0  0  0
   -4.9640    1.3220   -1.4800 O   0  0  0  0  0  0  0  0  0  0  0  0
   -3.7910   -2.5770    1.2820 H   0  0  0  0  0  0  0  0  0  0  0  0
   -4.1640   -0.4880    1.1020 H   0  0  0  0  0  0  0  0  0  0  0  0
   -5.1610   -1.0330   -0.2920 H   0  0  0  0  0  0  0  0  0  0  0  0
   -3.1820   -0.7530   -1.7760 H   0  0  0  0  0  0  0  0  0  0  0  0
   -1.7610    0.2010    0.7460 H   0  0  0  0  0  0  0  0  0  0  0  0
  1  7  1  0  0  0  0
  1  8  1  0  0  0  0
  2  9  1  1  0  0  0
  2  1  1  0  0  0  0
  3  2  1  0  0  0  0
  3 10  1  0  0  0  0
  4  3  1  0  0  0  0
  5  2  1  0  0  0  0
  6  5  2  0  0  0  0
 11  3  1  0  0  0  0
 12  4  1  0  0  0  0
 13 23  1  0  0  0  0
 13  5  1  0  0  0  0
 14 24  1  6  0  0  0
 14 13  1  0  0  0  0
 15 16  1  0  0  0  0
 15 14  1  0  0  0  0
 15 25  1  0  0  0  0
 16 17  2  0  0  0  0
 17 27  1  0  0  0  0
 18 17  1  0  0  0  0
 18 28  1  0  0  0  0
 19 18  1  0  0  0  0
 20 19  2  0  0  0  0
 20 16  1  0  0  0  0
 21 33  1  0  0  0  0
 21 14  1  0  0  0  0
 22 21  2  0  0  0  0
 26 15  1  0  0  0  0
 29 19  1  0  0  0  0
 30 37  1  0  0  0  0
 31 30  1  0  0  0  0
 31 38  1  0  0  0  0
 32 40  1  6  0  0  0
 32 33  1  0  0  0  0
 32 31  1  0  0  0  0
 33 41  1  0  0  0  0
 34 32  1  0  0  0  0
 34 35  1  0  0  0  0
 36 34  2  0  0  0  0
 39 31  1  0  0  0  0
M  END
$$$$
