CHV.pdb
 OpenBabel07022418273D

 46 46  0  0  1  0  0  0  0  0999 V2000
    4.1000   -3.4190    0.1580 N   0  0  0  0  0  0  0  0  0  0  0  0
    3.1260   -2.6520   -0.6330 C   0  0  1  0  0  0  0  0  0  0  0  0
    2.3650   -3.6890   -1.4300 C   0  0  0  0  0  0  0  0  0  0  0  0
    1.0990   -3.0120   -2.4960 S   0  0  0  0  0  0  0  0  0  0  0  0
    2.2910   -1.8180    0.2290 C   0  0  0  0  0  0  0  0  0  0  0  0
    2.4850   -1.8960    1.4890 O   0  0  0  0  0  0  0  0  0  0  0  0
    3.6710   -4.2460    0.5970 H   0  0  0  0  0  0  0  0  0  0  0  0
    4.5930   -2.7950    0.8380 H   0  0  0  0  0  0  0  0  0  0  0  0
    3.7010   -2.0280   -1.3330 H   0  0  0  0  0  0  0  0  0  0  0  0
    1.9420   -4.4680   -0.7620 H   0  0  0  0  0  0  0  0  0  0  0  0
    3.1180   -4.2110   -2.0620 H   0  0  0  0  0  0  0  0  0  0  0  0
    1.5430   -2.6800   -3.7700 H   0  0  0  0  0  0  0  0  0  0  0  0
    1.2920   -0.9340   -0.1950 N   0  0  0  0  0  0  0  0  0  0  0  0
    0.5270   -0.1570    0.7680 C   0  0  1  0  0  0  0  0  0  0  0  0
    0.8380    1.3100    0.5320 C   0  0  0  0  0  0  0  0  0  0  0  0
    2.3050    1.5080    0.7290 C   0  0  0  0  0  0  0  0  0  0  0  0
    3.2180    1.3880   -0.2960 C   0  0  0  0  0  0  0  0  0  0  0  0
    4.4440    1.6230    0.1960 N   0  0  0  0  0  0  0  0  0  0  0  0
    4.2770    1.8830    1.5030 C   0  0  0  0  0  0  0  0  0  0  0  0
    2.9720    1.8140    1.8370 N   0  0  0  0  0  0  0  0  0  0  0  0
   -0.9320   -0.3740    0.5840 C   0  0  0  0  0  0  0  0  0  0  0  0
   -1.3040   -1.1520   -0.3220 O   0  0  0  0  0  0  0  0  0  0  0  0
    1.1010   -0.8340   -1.1990 H   0  0  0  0  0  0  0  0  0  0  0  0
    0.8630   -0.3840    1.8010 H   0  0  0  0  0  0  0  0  0  0  0  0
    0.5580    1.6370   -0.4840 H   0  0  0  0  0  0  0  0  0  0  0  0
    0.3140    1.9430    1.2630 H   0  0  0  0  0  0  0  0  0  0  0  0
    3.0040    1.1470   -1.3280 H   0  0  0  0  0  0  0  0  0  0  0  0
    5.3380    1.6100   -0.3180 H   0  0  0  0  0  0  0  0  0  0  0  0
    5.0800    2.1110    2.1750 H   0  0  0  0  0  0  0  0  0  0  0  0
   -3.7570    0.2530    3.7190 C   0  0  0  0  0  0  0  0  0  0  0  0
   -3.9450   -0.5680    2.4610 C   0  0  0  0  0  0  0  0  0  0  0  0
   -3.4210   -1.9650    2.6700 C   0  0  0  0  0  0  0  0  0  0  0  0
   -3.3130    0.0850    1.2500 C   0  0  2  0  0  0  0  0  0  0  0  0
   -1.8880    0.2750    1.4040 N   0  0  0  0  0  0  0  0  0  0  0  0
   -3.9860    1.3700    0.9370 C   0  0  0  0  0  0  0  0  0  0  0  0
   -5.2270    1.3960    0.7700 O   0  0  0  0  0  0  0  0  0  0  0  0
   -3.2400    2.5390    0.8310 O   0  0  0  0  0  0  0  0  0  0  0  0
   -4.6970    0.8200    3.9120 H   0  0  0  0  0  0  0  0  0  0  0  0
   -3.5420   -0.4590    4.5620 H   0  0  0  0  0  0  0  0  0  0  0  0
   -2.8800    0.9060    3.6360 H   0  0  0  0  0  0  0  0  0  0  0  0
   -5.0280   -0.6580    2.2430 H   0  0  0  0  0  0  0  0  0  0  0  0
   -3.5190   -2.5160    1.7130 H   0  0  0  0  0  0  0  0  0  0  0  0
   -3.9580   -2.4240    3.5080 H   0  0  0  0  0  0  0  0  0  0  0  0
   -2.3330   -1.9670    2.9350 H   0  0  0  0  0  0  0  0  0  0  0  0
   -3.4510   -0.6290    0.4080 H   0  0  0  0  0  0  0  0  0  0  0  0
   -1.4860    0.9180    2.1480 H   0  0  0  0  0  0  0  0  0  0  0  0
  1  7  1  0  0  0  0
  1  8  1  0  0  0  0
  2  9  1  6  0  0  0
  2  1  1  0  0  0  0
  2  5  1  0  0  0  0
  3 10  1  0  0  0  0
  3  2  1  0  0  0  0
  4  3  1  0  0  0  0
  5  6  2  0  0  0  0
 11  3  1  0  0  0  0
 12  4  1  0  0  0  0
 13  5  1  0  0  0  0
 13 14  1  0  0  0  0
 14 24  1  1  0  0  0
 15 16  1  0  0  0  0
 15 14  1  0  0  0  0
 15 26  1  0  0  0  0
 16 20  1  0  0  0  0
 17 18  1  0  0  0  0
 17 16  2  0  0  0  0
 18 19  1  0  0  0  0
 19 20  2  0  0  0  0
 19 29  1  0  0  0  0
 21 14  1  0  0  0  0
 21 34  1  0  0  0  0
 22 21  2  0  0  0  0
 23 13  1  0  0  0  0
 25 15  1  0  0  0  0
 27 17  1  0  0  0  0
 28 18  1  0  0  0  0
 30 38  1  0  0  0  0
 30 39  1  0  0  0  0
 31 32  1  0  0  0  0
 31 30  1  0  0  0  0
 32 44  1  0  0  0  0
 32 43  1  0  0  0  0
 33 45  1  6  0  0  0
 33 34  1  0  0  0  0
 33 31  1  0  0  0  0
 34 46  1  0  0  0  0
 35 33  1  0  0  0  0
 36 35  2  0  0  0  0
 37 35  1  0  0  0  0
 40 30  1  0  0  0  0
 41 31  1  0  0  0  0
 42 32  1  0  0  0  0
M  END
$$$$
