CHW.pdb
 OpenBabel07022418273D

 54 56  0  0  1  0  0  0  0  0999 V2000
    1.9260   -2.4880    2.6560 N   0  0  0  0  0  0  0  0  0  0  0  0
    1.8050   -1.6730    3.8360 C   0  0  1  0  0  0  0  0  0  0  0  0
    3.1320   -1.8120    4.5910 C   0  0  0  0  0  0  0  0  0  0  0  0
    3.2880   -3.6020    4.9700 S   0  0  0  0  0  0  0  0  0  0  0  0
    1.5520   -0.2410    3.4930 C   0  0  0  0  0  0  0  0  0  0  0  0
    1.4740    0.5890    4.4450 O   0  0  0  0  0  0  0  0  0  0  0  0
    2.7160   -2.0930    2.1000 H   0  0  0  0  0  0  0  0  0  0  0  0
    1.0870   -2.4850    2.0400 H   0  0  0  0  0  0  0  0  0  0  0  0
    0.9680   -2.0700    4.4730 H   0  0  0  0  0  0  0  0  0  0  0  0
    3.1680   -1.1990    5.4940 H   0  0  0  0  0  0  0  0  0  0  0  0
    3.9440   -1.5910    3.8590 H   0  0  0  0  0  0  0  0  0  0  0  0
    3.5650   -4.2820    3.7680 H   0  0  0  0  0  0  0  0  0  0  0  0
    1.4110    0.1330    2.1350 N   0  0  0  0  0  0  0  0  0  0  0  0
    1.1740    1.4890    1.7760 C   0  0  1  0  0  0  0  0  0  0  0  0
    2.1240    2.0980    0.8270 C   0  0  0  0  0  0  0  0  0  0  0  0
    2.2400    1.4710   -0.5020 C   0  0  0  0  0  0  0  0  0  0  0  0
    3.0810    0.4570   -0.9130 C   0  0  0  0  0  0  0  0  0  0  0  0
    2.8720    0.1860   -2.1980 N   0  0  0  0  0  0  0  0  0  0  0  0
    1.9030    1.0190   -2.6110 C   0  0  0  0  0  0  0  0  0  0  0  0
    1.5240    1.7890   -1.5960 N   0  0  0  0  0  0  0  0  0  0  0  0
   -0.2290    1.7030    1.2790 C   0  0  0  0  0  0  0  0  0  0  0  0
   -0.5400    2.8030    0.7930 O   0  0  0  0  0  0  0  0  0  0  0  0
    1.4830   -0.6070    1.3860 H   0  0  0  0  0  0  0  0  0  0  0  0
    1.1720    2.0930    2.7520 H   0  0  0  0  0  0  0  0  0  0  0  0
    3.1600    2.2090    1.2220 H   0  0  0  0  0  0  0  0  0  0  0  0
    1.7920    3.1730    0.6780 H   0  0  0  0  0  0  0  0  0  0  0  0
    3.8000   -0.0280   -0.2500 H   0  0  0  0  0  0  0  0  0  0  0  0
    3.3760   -0.5450   -2.7730 H   0  0  0  0  0  0  0  0  0  0  0  0
    1.5280    1.0210   -3.6260 H   0  0  0  0  0  0  0  0  0  0  0  0
   -1.2120    0.6780    1.3560 N   0  0  0  0  0  0  0  0  0  0  0  0
   -2.5620    0.8370    0.8990 C   0  0  1  0  0  0  0  0  0  0  0  0
   -3.0800   -0.4180    0.2550 C   0  0  0  0  0  0  0  0  0  0  0  0
   -2.3110   -0.8550   -0.9190 C   0  0  0  0  0  0  0  0  0  0  0  0
   -1.3840   -0.1710   -1.6720 C   0  0  0  0  0  0  0  0  0  0  0  0
   -0.9360   -0.9630   -2.6590 N   0  0  0  0  0  0  0  0  0  0  0  0
   -1.5480   -2.1780   -2.5840 C   0  0  0  0  0  0  0  0  0  0  0  0
   -1.4290   -3.3250   -3.3660 C   0  0  0  0  0  0  0  0  0  0  0  0
   -2.2110   -4.4040   -3.0100 C   0  0  0  0  0  0  0  0  0  0  0  0
   -3.0680   -4.3670   -1.9420 C   0  0  0  0  0  0  0  0  0  0  0  0
   -3.1650   -3.2150   -1.1850 C   0  0  0  0  0  0  0  0  0  0  0  0
   -2.4020   -2.1160   -1.5060 C   0  0  0  0  0  0  0  0  0  0  0  0
   -3.4600    1.1700    2.0920 C   0  0  0  0  0  0  0  0  0  0  0  0
   -2.9820    1.2590    3.2350 O   0  0  0  0  0  0  0  0  0  0  0  0
   -4.8170    1.3780    1.9230 O   0  0  0  0  0  0  0  0  0  0  0  0
   -0.9130   -0.2310    1.7710 H   0  0  0  0  0  0  0  0  0  0  0  0
   -2.7100    1.6870    0.2080 H   0  0  0  0  0  0  0  0  0  0  0  0
   -4.1690   -0.3540    0.0550 H   0  0  0  0  0  0  0  0  0  0  0  0
   -2.9810   -1.2340    1.0360 H   0  0  0  0  0  0  0  0  0  0  0  0
   -1.0720    0.8480   -1.4920 H   0  0  0  0  0  0  0  0  0  0  0  0
   -0.2420   -0.7390   -3.3840 H   0  0  0  0  0  0  0  0  0  0  0  0
   -0.7450   -3.3030   -4.1890 H   0  0  0  0  0  0  0  0  0  0  0  0
   -2.1420   -5.3080   -3.5970 H   0  0  0  0  0  0  0  0  0  0  0  0
   -3.6780   -5.2420   -1.6830 H   0  0  0  0  0  0  0  0  0  0  0  0
   -3.8390   -3.1410   -0.3180 H   0  0  0  0  0  0  0  0  0  0  0  0
  1  2  1  0  0  0  0
  2  9  1  1  0  0  0
  2  3  1  0  0  0  0
  3  4  1  0  0  0  0
  3 10  1  0  0  0  0
  5  2  1  0  0  0  0
  5  6  2  0  0  0  0
  7  1  1  0  0  0  0
  8  1  1  0  0  0  0
 11  3  1  0  0  0  0
 12  4  1  0  0  0  0
 13  5  1  0  0  0  0
 14 13  1  0  0  0  0
 14 24  1  1  0  0  0
 15 25  1  0  0  0  0
 15 14  1  0  0  0  0
 16 15  1  0  0  0  0
 17 16  2  0  0  0  0
 17 27  1  0  0  0  0
 18 17  1  0  0  0  0
 19 18  1  0  0  0  0
 19 20  2  0  0  0  0
 20 16  1  0  0  0  0
 21 30  1  0  0  0  0
 21 14  1  0  0  0  0
 22 21  2  0  0  0  0
 23 13  1  0  0  0  0
 26 15  1  0  0  0  0
 28 18  1  0  0  0  0
 29 19  1  0  0  0  0
 30 45  1  0  0  0  0
 31 46  1  6  0  0  0
 31 30  1  0  0  0  0
 31 42  1  0  0  0  0
 32 31  1  0  0  0  0
 32 48  1  0  0  0  0
 33 32  1  0  0  0  0
 34 49  1  0  0  0  0
 34 33  2  0  0  0  0
 35 36  1  0  0  0  0
 35 34  1  0  0  0  0
 36 41  1  0  0  0  0
 37 38  1  0  0  0  0
 37 36  2  0  0  0  0
 38 39  2  0  0  0  0
 39 53  1  0  0  0  0
 39 40  1  0  0  0  0
 40 54  1  0  0  0  0
 41 40  2  0  0  0  0
 41 33  1  0  0  0  0
 42 43  1  0  0  0  0
 44 42  2  0  0  0  0
 47 32  1  0  0  0  0
 50 35  1  0  0  0  0
 51 37  1  0  0  0  0
 52 38  1  0  0  0  0
M  END
$$$$
