CIC.pdb
 OpenBabel07022418273D

 43 42  0  0  1  0  0  0  0  0999 V2000
    2.0780   -1.0500    4.9260 N   0  0  0  0  0  0  0  0  0  0  0  0
    1.3660   -1.4600    3.6980 C   0  0  1  0  0  0  0  0  0  0  0  0
   -0.0490   -1.7240    4.0940 C   0  0  0  0  0  0  0  0  0  0  0  0
   -1.0980   -2.2560    2.7350 S   0  0  0  0  0  0  0  0  0  0  0  0
    1.5660   -0.4490    2.6630 C   0  0  0  0  0  0  0  0  0  0  0  0
    2.1920    0.6130    2.9810 O   0  0  0  0  0  0  0  0  0  0  0  0
    1.4150   -0.4920    5.5060 H   0  0  0  0  0  0  0  0  0  0  0  0
    2.8700   -0.4340    4.6480 H   0  0  0  0  0  0  0  0  0  0  0  0
    1.8320   -2.4270    3.4050 H   0  0  0  0  0  0  0  0  0  0  0  0
   -0.5120   -0.8930    4.6620 H   0  0  0  0  0  0  0  0  0  0  0  0
   -0.0180   -2.5820    4.8280 H   0  0  0  0  0  0  0  0  0  0  0  0
   -0.5950   -3.4080    2.1400 H   0  0  0  0  0  0  0  0  0  0  0  0
    2.0660   -2.3350   -0.9120 C   0  0  0  0  0  0  0  0  0  0  0  0
    2.0410   -0.9960   -1.5670 C   0  0  0  0  0  0  0  0  0  0  0  0
    2.3900    0.1610   -0.6990 C   0  0  2  0  0  0  0  0  0  0  0  0
    3.7850    0.0090   -0.1300 C   0  0  0  0  0  0  0  0  0  0  0  0
    1.3710    0.5010    0.3700 C   0  0  2  0  0  0  0  0  0  0  0  0
    1.1170   -0.5460    1.3020 N   0  0  0  0  0  0  0  0  0  0  0  0
    0.1730    0.9920   -0.3580 C   0  0  0  0  0  0  0  0  0  0  0  0
    0.3350    1.9170   -1.1910 O   0  0  0  0  0  0  0  0  0  0  0  0
    2.5640   -3.0640   -1.6140 H   0  0  0  0  0  0  0  0  0  0  0  0
    1.0100   -2.7170   -0.8600 H   0  0  0  0  0  0  0  0  0  0  0  0
    2.5320   -2.3720    0.0790 H   0  0  0  0  0  0  0  0  0  0  0  0
    1.0820   -0.8040   -2.1110 H   0  0  0  0  0  0  0  0  0  0  0  0
    2.8100   -1.0050   -2.3960 H   0  0  0  0  0  0  0  0  0  0  0  0
    2.4890    1.0440   -1.4150 H   0  0  0  0  0  0  0  0  0  0  0  0
    4.1760    1.0400    0.0910 H   0  0  0  0  0  0  0  0  0  0  0  0
    4.4480   -0.4250   -0.8850 H   0  0  0  0  0  0  0  0  0  0  0  0
    3.7700   -0.5590    0.8240 H   0  0  0  0  0  0  0  0  0  0  0  0
    1.8480    1.3560    0.9480 H   0  0  0  0  0  0  0  0  0  0  0  0
    0.6030   -1.4260    1.0830 H   0  0  0  0  0  0  0  0  0  0  0  0
   -1.1400    0.4880   -0.1770 N   0  0  0  0  0  0  0  0  0  0  0  0
   -2.2830    1.0100   -0.9210 C   0  0  1  0  0  0  0  0  0  0  0  0
   -2.8060   -0.1250   -1.7780 C   0  0  0  0  0  0  0  0  0  0  0  0
   -3.3170   -1.5200   -0.7580 S   0  0  0  0  0  0  0  0  0  0  0  0
   -3.3430    1.4880    0.0210 C   0  0  0  0  0  0  0  0  0  0  0  0
   -4.4120    1.9740   -0.4270 O   0  0  0  0  0  0  0  0  0  0  0  0
   -3.1930    1.4150    1.3980 O   0  0  0  0  0  0  0  0  0  0  0  0
   -1.2420   -0.2790    0.5200 H   0  0  0  0  0  0  0  0  0  0  0  0
   -1.9760    1.8180   -1.6140 H   0  0  0  0  0  0  0  0  0  0  0  0
   -2.0020   -0.4270   -2.4660 H   0  0  0  0  0  0  0  0  0  0  0  0
   -3.6630    0.2890   -2.3810 H   0  0  0  0  0  0  0  0  0  0  0  0
   -3.2540   -1.1250    0.5910 H   0  0  0  0  0  0  0  0  0  0  0  0
  1  7  1  0  0  0  0
  2  9  1  6  0  0  0
  2  3  1  0  0  0  0
  2  1  1  0  0  0  0
  3 10  1  0  0  0  0
  3 11  1  0  0  0  0
  4  3  1  0  0  0  0
  5  6  2  0  0  0  0
  5  2  1  0  0  0  0
  8  1  1  0  0  0  0
 12  4  1  0  0  0  0
 13 22  1  0  0  0  0
 13 23  1  0  0  0  0
 14 13  1  0  0  0  0
 14 15  1  0  0  0  0
 15 26  1  6  0  0  0
 15 16  1  0  0  0  0
 15 17  1  0  0  0  0
 16 27  1  0  0  0  0
 16 29  1  0  0  0  0
 17 30  1  1  0  0  0
 17 18  1  0  0  0  0
 18  5  1  0  0  0  0
 19 32  1  0  0  0  0
 19 17  1  0  0  0  0
 20 19  2  0  0  0  0
 21 13  1  0  0  0  0
 24 14  1  0  0  0  0
 25 14  1  0  0  0  0
 28 16  1  0  0  0  0
 31 18  1  0  0  0  0
 32 39  1  0  0  0  0
 33 40  1  6  0  0  0
 33 32  1  0  0  0  0
 33 36  1  0  0  0  0
 34 33  1  0  0  0  0
 34 35  1  0  0  0  0
 35 43  1  0  0  0  0
 36 38  1  0  0  0  0
 37 36  2  0  0  0  0
 41 34  1  0  0  0  0
 42 34  1  0  0  0  0
M  END
$$$$
