CID.pdb
 OpenBabel07022418273D

 45 44  0  0  1  0  0  0  0  0999 V2000
   -0.4890   -3.5560    1.4550 N   0  0  0  0  0  0  0  0  0  0  0  0
    0.9140   -3.3460    1.6450 C   0  0  1  0  0  0  0  0  0  0  0  0
    1.7180   -4.5580    1.3010 C   0  0  0  0  0  0  0  0  0  0  0  0
    1.5440   -5.1220   -0.3990 S   0  0  0  0  0  0  0  0  0  0  0  0
    1.4350   -2.0740    1.1170 C   0  0  0  0  0  0  0  0  0  0  0  0
    2.6760   -1.8160    1.2270 O   0  0  0  0  0  0  0  0  0  0  0  0
   -1.0870   -2.7310    1.5080 H   0  0  0  0  0  0  0  0  0  0  0  0
   -0.6830   -4.2340    0.7160 H   0  0  0  0  0  0  0  0  0  0  0  0
    1.0280   -3.2550    2.7840 H   0  0  0  0  0  0  0  0  0  0  0  0
    1.4160   -5.4280    1.9580 H   0  0  0  0  0  0  0  0  0  0  0  0
    2.8000   -4.4030    1.5750 H   0  0  0  0  0  0  0  0  0  0  0  0
    0.2320   -5.1660   -0.8350 H   0  0  0  0  0  0  0  0  0  0  0  0
    1.3810   -1.9730   -2.1750 C   0  0  0  0  0  0  0  0  0  0  0  0
    1.7720   -0.5440   -2.3760 C   0  0  0  0  0  0  0  0  0  0  0  0
    1.1010    0.4160   -1.4610 C   0  0  2  0  0  0  0  0  0  0  0  0
    1.6140    1.8150   -1.8000 C   0  0  0  0  0  0  0  0  0  0  0  0
    1.2090    0.1560   -0.0070 C   0  0  2  0  0  0  0  0  0  0  0  0
    0.6590   -1.0740    0.4780 N   0  0  0  0  0  0  0  0  0  0  0  0
    0.6270    1.2910    0.7680 C   0  0  0  0  0  0  0  0  0  0  0  0
    0.9480    2.4870    0.5700 O   0  0  0  0  0  0  0  0  0  0  0  0
    2.1900   -2.5190   -1.6410 H   0  0  0  0  0  0  0  0  0  0  0  0
    0.4150   -2.1070   -1.6900 H   0  0  0  0  0  0  0  0  0  0  0  0
    1.3020   -2.5260   -3.1620 H   0  0  0  0  0  0  0  0  0  0  0  0
    1.4260   -0.2780   -3.4200 H   0  0  0  0  0  0  0  0  0  0  0  0
    2.8770   -0.4050   -2.4270 H   0  0  0  0  0  0  0  0  0  0  0  0
    0.0120    0.4390   -1.7900 H   0  0  0  0  0  0  0  0  0  0  0  0
    1.9110    1.7940   -2.8740 H   0  0  0  0  0  0  0  0  0  0  0  0
    2.4750    2.0830   -1.1530 H   0  0  0  0  0  0  0  0  0  0  0  0
    0.7750    2.5360   -1.7390 H   0  0  0  0  0  0  0  0  0  0  0  0
    2.3040    0.1450    0.2430 H   0  0  0  0  0  0  0  0  0  0  0  0
   -0.3650   -1.2300    0.3570 H   0  0  0  0  0  0  0  0  0  0  0  0
   -0.3390    1.0510    1.7870 N   0  0  0  0  0  0  0  0  0  0  0  0
   -0.9240    2.1080    2.5550 C   0  0  1  0  0  0  0  0  0  0  0  0
   -2.4060    2.2080    2.2390 C   0  0  0  0  0  0  0  0  0  0  0  0
   -3.1360    0.9740    2.5480 C   0  0  0  0  0  0  0  0  0  0  0  0
   -3.0280   -0.0740    1.8630 O   0  0  0  0  0  0  0  0  0  0  0  0
   -0.7130    1.9640    4.0060 C   0  0  0  0  0  0  0  0  0  0  0  0
   -1.1890    2.8410    4.7750 O   0  0  0  0  0  0  0  0  0  0  0  0
   -3.9940    0.9320    3.6410 O   0  0  0  0  0  0  0  0  0  0  0  0
   -0.0200    0.9230    4.6040 O   0  0  0  0  0  0  0  0  0  0  0  0
   -0.6100    0.0570    1.9560 H   0  0  0  0  0  0  0  0  0  0  0  0
   -0.4780    3.0760    2.1900 H   0  0  0  0  0  0  0  0  0  0  0  0
   -2.8530    3.1040    2.6730 H   0  0  0  0  0  0  0  0  0  0  0  0
   -2.4770    2.3490    1.1210 H   0  0  0  0  0  0  0  0  0  0  0  0
   -4.6820    0.1730    3.7480 H   0  0  0  0  0  0  0  0  0  0  0  0
  1  7  1  0  0  0  0
  1  2  1  0  0  0  0
  2  9  1  1  0  0  0
  3 11  1  0  0  0  0
  3  2  1  0  0  0  0
  3 10  1  0  0  0  0
  4  3  1  0  0  0  0
  5  6  2  0  0  0  0
  5  2  1  0  0  0  0
  8  1  1  0  0  0  0
 12  4  1  0  0  0  0
 13 22  1  0  0  0  0
 13 21  1  0  0  0  0
 14 13  1  0  0  0  0
 14 15  1  0  0  0  0
 15 26  1  6  0  0  0
 15 17  1  0  0  0  0
 16 29  1  0  0  0  0
 16 15  1  0  0  0  0
 16 28  1  0  0  0  0
 17 30  1  1  0  0  0
 17 18  1  0  0  0  0
 17 19  1  0  0  0  0
 18  5  1  0  0  0  0
 19 32  1  0  0  0  0
 20 19  2  0  0  0  0
 23 13  1  0  0  0  0
 24 14  1  0  0  0  0
 25 14  1  0  0  0  0
 27 16  1  0  0  0  0
 31 18  1  0  0  0  0
 32 41  1  0  0  0  0
 32 33  1  0  0  0  0
 33 42  1  6  0  0  0
 33 37  1  0  0  0  0
 34 35  1  0  0  0  0
 34 33  1  0  0  0  0
 34 43  1  0  0  0  0
 35 39  1  0  0  0  0
 36 35  2  0  0  0  0
 37 40  2  0  0  0  0
 37 38  1  0  0  0  0
 39 45  1  0  0  0  0
 44 34  1  0  0  0  0
M  END
$$$$
