CIE.pdb
 OpenBabel07022418273D

 48 47  0  0  1  0  0  0  0  0999 V2000
    0.2530   -3.8290    1.1710 N   0  0  0  0  0  0  0  0  0  0  0  0
    1.6790   -3.6240    1.4270 C   0  0  1  0  0  0  0  0  0  0  0  0
    2.4130   -4.6750    0.6230 C   0  0  0  0  0  0  0  0  0  0  0  0
    4.1930   -4.5840    0.8070 S   0  0  0  0  0  0  0  0  0  0  0  0
    2.0020   -2.2540    0.9870 C   0  0  0  0  0  0  0  0  0  0  0  0
    3.1820   -1.8420    1.1070 O   0  0  0  0  0  0  0  0  0  0  0  0
   -0.1100   -4.6260    1.7220 H   0  0  0  0  0  0  0  0  0  0  0  0
    0.0860   -4.0120    0.1490 H   0  0  0  0  0  0  0  0  0  0  0  0
    1.8620   -3.8080    2.4870 H   0  0  0  0  0  0  0  0  0  0  0  0
    2.0360   -5.6600    0.9590 H   0  0  0  0  0  0  0  0  0  0  0  0
    2.1050   -4.5540   -0.4370 H   0  0  0  0  0  0  0  0  0  0  0  0
    4.8310   -4.4340   -0.4490 H   0  0  0  0  0  0  0  0  0  0  0  0
    1.3000    1.2100   -3.5880 C   0  0  0  0  0  0  0  0  0  0  0  0
    1.4920    1.3630   -2.0720 C   0  0  0  0  0  0  0  0  0  0  0  0
    1.1570    0.0490   -1.4650 C   0  0  2  0  0  0  0  0  0  0  0  0
   -0.2520   -0.3430   -1.7630 C   0  0  0  0  0  0  0  0  0  0  0  0
    1.4210   -0.0370    0.0200 C   0  0  2  0  0  0  0  0  0  0  0  0
    1.0410   -1.3710    0.4320 N   0  0  0  0  0  0  0  0  0  0  0  0
    0.6530    0.9840    0.7760 C   0  0  0  0  0  0  0  0  0  0  0  0
    0.8510    2.2060    0.5540 O   0  0  0  0  0  0  0  0  0  0  0  0
    1.9910    1.9300   -4.1130 H   0  0  0  0  0  0  0  0  0  0  0  0
    0.2750    1.5140   -3.8830 H   0  0  0  0  0  0  0  0  0  0  0  0
    1.5390    0.1910   -3.8990 H   0  0  0  0  0  0  0  0  0  0  0  0
    0.8240    2.1880   -1.7800 H   0  0  0  0  0  0  0  0  0  0  0  0
    2.5460    1.6530   -1.9380 H   0  0  0  0  0  0  0  0  0  0  0  0
    1.8450   -0.7130   -1.9370 H   0  0  0  0  0  0  0  0  0  0  0  0
   -0.4070   -1.4370   -1.6200 H   0  0  0  0  0  0  0  0  0  0  0  0
   -0.4800   -0.1220   -2.8270 H   0  0  0  0  0  0  0  0  0  0  0  0
   -0.9820    0.1740   -1.1160 H   0  0  0  0  0  0  0  0  0  0  0  0
    2.5030    0.0790    0.2280 H   0  0  0  0  0  0  0  0  0  0  0  0
    0.0670   -1.7360    0.3430 H   0  0  0  0  0  0  0  0  0  0  0  0
   -0.2950    0.5460    1.7420 N   0  0  0  0  0  0  0  0  0  0  0  0
   -1.0380    1.5400    2.4730 C   0  0  1  0  0  0  0  0  0  0  0  0
   -2.5330    1.3370    2.3000 C   0  0  0  0  0  0  0  0  0  0  0  0
   -2.9650   -0.0040    2.7930 C   0  0  0  0  0  0  0  0  0  0  0  0
   -4.4170   -0.1810    2.6170 C   0  0  0  0  0  0  0  0  0  0  0  0
   -5.0890    0.7400    2.1100 O   0  0  0  0  0  0  0  0  0  0  0  0
   -0.7750    1.3960    3.9440 C   0  0  0  0  0  0  0  0  0  0  0  0
   -1.3360    2.1780    4.7490 O   0  0  0  0  0  0  0  0  0  0  0  0
   -5.0850   -1.3500    2.9960 O   0  0  0  0  0  0  0  0  0  0  0  0
    0.0840    0.4010    4.3770 O   0  0  0  0  0  0  0  0  0  0  0  0
   -0.4470   -0.4770    1.9140 H   0  0  0  0  0  0  0  0  0  0  0  0
   -0.7600    2.5510    2.1760 H   0  0  0  0  0  0  0  0  0  0  0  0
   -2.8160    1.4910    1.2420 H   0  0  0  0  0  0  0  0  0  0  0  0
   -3.0610    2.1120    2.8860 H   0  0  0  0  0  0  0  0  0  0  0  0
   -2.6560   -0.0670    3.8770 H   0  0  0  0  0  0  0  0  0  0  0  0
   -2.4170   -0.8340    2.2980 H   0  0  0  0  0  0  0  0  0  0  0  0
   -5.9390   -1.5750    2.5020 H   0  0  0  0  0  0  0  0  0  0  0  0
  1  2  1  0  0  0  0
  1  7  1  0  0  0  0
  2  9  1  1  0  0  0
  3  4  1  0  0  0  0
  3 10  1  0  0  0  0
  3  2  1  0  0  0  0
  5  6  2  0  0  0  0
  5  2  1  0  0  0  0
  8  1  1  0  0  0  0
 11  3  1  0  0  0  0
 12  4  1  0  0  0  0
 13 14  1  0  0  0  0
 14 25  1  0  0  0  0
 14 24  1  0  0  0  0
 14 15  1  0  0  0  0
 15 26  1  6  0  0  0
 15 17  1  0  0  0  0
 16 27  1  0  0  0  0
 16 15  1  0  0  0  0
 16 29  1  0  0  0  0
 17 30  1  1  0  0  0
 17 18  1  0  0  0  0
 17 19  1  0  0  0  0
 18  5  1  0  0  0  0
 19 32  1  0  0  0  0
 20 19  2  0  0  0  0
 21 13  1  0  0  0  0
 22 13  1  0  0  0  0
 23 13  1  0  0  0  0
 28 16  1  0  0  0  0
 31 18  1  0  0  0  0
 32 42  1  0  0  0  0
 32 33  1  0  0  0  0
 33 43  1  6  0  0  0
 33 38  1  0  0  0  0
 34 33  1  0  0  0  0
 34 35  1  0  0  0  0
 34 45  1  0  0  0  0
 35 46  1  0  0  0  0
 36 35  1  0  0  0  0
 36 40  1  0  0  0  0
 37 36  2  0  0  0  0
 38 41  2  0  0  0  0
 38 39  1  0  0  0  0
 44 34  1  0  0  0  0
 47 35  1  0  0  0  0
 48 40  1  0  0  0  0
M  END
$$$$
