CIF.pdb
 OpenBabel07022418283D

 52 52  0  0  1  0  0  0  0  0999 V2000
    2.4940   -3.0990    4.3480 N   0  0  0  0  0  0  0  0  0  0  0  0
    1.8760   -2.8510    3.0590 C   0  0  1  0  0  0  0  0  0  0  0  0
    0.6100   -3.6370    2.9620 C   0  0  0  0  0  0  0  0  0  0  0  0
    0.9190   -5.4180    3.1230 S   0  0  0  0  0  0  0  0  0  0  0  0
    1.7580   -1.4340    2.7680 C   0  0  0  0  0  0  0  0  0  0  0  0
    2.1790   -0.5830    3.6150 O   0  0  0  0  0  0  0  0  0  0  0  0
    3.1120   -3.9540    4.3200 H   0  0  0  0  0  0  0  0  0  0  0  0
    1.7200   -3.3680    5.0260 H   0  0  0  0  0  0  0  0  0  0  0  0
    2.5890   -3.2940    2.3000 H   0  0  0  0  0  0  0  0  0  0  0  0
   -0.0470   -3.3570    3.8280 H   0  0  0  0  0  0  0  0  0  0  0  0
    0.0320   -3.4830    2.0590 H   0  0  0  0  0  0  0  0  0  0  0  0
    1.8910   -5.8190    2.1890 H   0  0  0  0  0  0  0  0  0  0  0  0
    3.9330    0.8850   -1.2440 C   0  0  0  0  0  0  0  0  0  0  0  0
    3.2440    0.4910    0.0410 C   0  0  0  0  0  0  0  0  0  0  0  0
    1.7640    0.8100   -0.0250 C   0  0  2  0  0  0  0  0  0  0  0  0
    1.6450    2.3020   -0.2440 C   0  0  0  0  0  0  0  0  0  0  0  0
    1.0630    0.4600    1.2670 C   0  0  2  0  0  0  0  0  0  0  0  0
    1.1900   -0.9610    1.5740 N   0  0  0  0  0  0  0  0  0  0  0  0
   -0.3830    0.7760    1.1510 C   0  0  0  0  0  0  0  0  0  0  0  0
   -0.7520    1.9510    0.8880 O   0  0  0  0  0  0  0  0  0  0  0  0
    4.7620    0.1510   -1.4550 H   0  0  0  0  0  0  0  0  0  0  0  0
    4.4000    1.8690   -1.2160 H   0  0  0  0  0  0  0  0  0  0  0  0
    3.2320    0.7550   -2.1140 H   0  0  0  0  0  0  0  0  0  0  0  0
    3.3510   -0.6030    0.1420 H   0  0  0  0  0  0  0  0  0  0  0  0
    3.6800    1.0630    0.8820 H   0  0  0  0  0  0  0  0  0  0  0  0
    1.2720    0.2750   -0.8450 H   0  0  0  0  0  0  0  0  0  0  0  0
    2.5230    2.7140   -0.8010 H   0  0  0  0  0  0  0  0  0  0  0  0
    1.4290    2.8630    0.6770 H   0  0  0  0  0  0  0  0  0  0  0  0
    0.7720    2.4720   -0.9220 H   0  0  0  0  0  0  0  0  0  0  0  0
    1.4730    1.0430    2.0980 H   0  0  0  0  0  0  0  0  0  0  0  0
    0.8540   -1.6950    0.9010 H   0  0  0  0  0  0  0  0  0  0  0  0
   -1.4060   -0.1930    1.3230 N   0  0  0  0  0  0  0  0  0  0  0  0
   -2.8210    0.1040    1.2120 C   0  0  1  0  0  0  0  0  0  0  0  0
   -3.5210   -0.8330    0.2560 C   0  0  0  0  0  0  0  0  0  0  0  0
   -2.9970   -0.7890   -1.1080 C   0  0  0  0  0  0  0  0  0  0  0  0
   -1.9750   -1.6090   -1.5120 C   0  0  0  0  0  0  0  0  0  0  0  0
   -1.4980   -1.5480   -2.8040 C   0  0  0  0  0  0  0  0  0  0  0  0
   -2.0370   -0.6620   -3.7170 C   0  0  0  0  0  0  0  0  0  0  0  0
   -3.0700    0.1580   -3.2840 C   0  0  0  0  0  0  0  0  0  0  0  0
   -3.5340    0.0920   -2.0100 C   0  0  0  0  0  0  0  0  0  0  0  0
   -3.4170   -0.1440    2.5630 C   0  0  0  0  0  0  0  0  0  0  0  0
   -2.7390   -0.5340    3.5450 O   0  0  0  0  0  0  0  0  0  0  0  0
   -4.7910    0.0540    2.7890 O   0  0  0  0  0  0  0  0  0  0  0  0
   -1.1140   -1.1690    1.5410 H   0  0  0  0  0  0  0  0  0  0  0  0
   -3.0050    1.1580    0.9810 H   0  0  0  0  0  0  0  0  0  0  0  0
   -3.4980   -1.8810    0.6150 H   0  0  0  0  0  0  0  0  0  0  0  0
   -4.6100   -0.5410    0.2920 H   0  0  0  0  0  0  0  0  0  0  0  0
   -1.5000   -2.3310   -0.8570 H   0  0  0  0  0  0  0  0  0  0  0  0
   -0.6860   -2.1970   -3.1320 H   0  0  0  0  0  0  0  0  0  0  0  0
   -1.6780   -0.5940   -4.7450 H   0  0  0  0  0  0  0  0  0  0  0  0
   -3.4700    0.8430   -4.0300 H   0  0  0  0  0  0  0  0  0  0  0  0
   -4.3500    0.7560   -1.7070 H   0  0  0  0  0  0  0  0  0  0  0  0
  1  8  1  0  0  0  0
  2  9  1  6  0  0  0
  2  1  1  0  0  0  0
  3  2  1  0  0  0  0
  3  4  1  0  0  0  0
  3 10  1  0  0  0  0
  5  2  1  0  0  0  0
  5  6  2  0  0  0  0
  7  1  1  0  0  0  0
 11  3  1  0  0  0  0
 12  4  1  0  0  0  0
 13 22  1  0  0  0  0
 13 14  1  0  0  0  0
 14 24  1  0  0  0  0
 14 25  1  0  0  0  0
 15 26  1  6  0  0  0
 15 14  1  0  0  0  0
 15 17  1  0  0  0  0
 16 15  1  0  0  0  0
 16 28  1  0  0  0  0
 17 18  1  0  0  0  0
 17 30  1  1  0  0  0
 18  5  1  0  0  0  0
 19 17  1  0  0  0  0
 19 32  1  0  0  0  0
 20 19  2  0  0  0  0
 21 13  1  0  0  0  0
 23 13  1  0  0  0  0
 27 16  1  0  0  0  0
 29 16  1  0  0  0  0
 31 18  1  0  0  0  0
 32 44  1  0  0  0  0
 33 45  1  6  0  0  0
 33 32  1  0  0  0  0
 33 41  1  0  0  0  0
 34 47  1  0  0  0  0
 34 46  1  0  0  0  0
 34 33  1  0  0  0  0
 35 34  1  0  0  0  0
 36 35  1  0  0  0  0
 36 48  1  0  0  0  0
 37 36  2  0  0  0  0
 38 39  2  0  0  0  0
 38 37  1  0  0  0  0
 39 40  1  0  0  0  0
 40 52  1  0  0  0  0
 40 35  2  0  0  0  0
 41 43  2  0  0  0  0
 41 42  1  0  0  0  0
 49 37  1  0  0  0  0
 50 38  1  0  0  0  0
 51 39  1  0  0  0  0
M  END
$$$$
