CIG.pdb
 OpenBabel07022418273D

 39 38  0  0  1  0  0  0  0  0999 V2000
   -1.3900   -2.5010    2.5690 N   0  0  0  0  0  0  0  0  0  0  0  0
    0.0280   -2.6300    2.7980 C   0  0  1  0  0  0  0  0  0  0  0  0
    0.4270   -4.0770    2.6690 C   0  0  0  0  0  0  0  0  0  0  0  0
    0.0400   -4.7030    1.0100 S   0  0  0  0  0  0  0  0  0  0  0  0
    0.8320   -1.7240    1.9740 C   0  0  0  0  0  0  0  0  0  0  0  0
    2.0890   -1.6890    2.0310 O   0  0  0  0  0  0  0  0  0  0  0  0
   -1.7800   -1.5810    2.8340 H   0  0  0  0  0  0  0  0  0  0  0  0
   -1.6710   -2.8250    1.6190 H   0  0  0  0  0  0  0  0  0  0  0  0
    0.1980   -2.3450    3.8720 H   0  0  0  0  0  0  0  0  0  0  0  0
   -0.1130   -4.7230    3.3900 H   0  0  0  0  0  0  0  0  0  0  0  0
    1.5010   -4.2460    2.8390 H   0  0  0  0  0  0  0  0  0  0  0  0
    1.1760   -5.1930    0.3540 H   0  0  0  0  0  0  0  0  0  0  0  0
    2.5420   -1.8490   -1.4010 C   0  0  0  0  0  0  0  0  0  0  0  0
    1.0530   -1.7260   -1.5010 C   0  0  0  0  0  0  0  0  0  0  0  0
    0.5630   -0.3240   -1.2190 C   0  0  2  0  0  0  0  0  0  0  0  0
    1.1650    0.6470   -2.2050 C   0  0  0  0  0  0  0  0  0  0  0  0
    0.8650    0.0900    0.2120 C   0  0  2  0  0  0  0  0  0  0  0  0
    0.1910   -0.8460    1.0740 N   0  0  0  0  0  0  0  0  0  0  0  0
    0.4530    1.4800    0.4260 C   0  0  0  0  0  0  0  0  0  0  0  0
    0.9860    2.3750   -0.2790 O   0  0  0  0  0  0  0  0  0  0  0  0
    3.0190   -2.1810   -2.3660 H   0  0  0  0  0  0  0  0  0  0  0  0
    3.0260   -0.8970   -1.1420 H   0  0  0  0  0  0  0  0  0  0  0  0
    2.8200   -2.6500   -0.6550 H   0  0  0  0  0  0  0  0  0  0  0  0
    0.4870   -2.4340   -0.8990 H   0  0  0  0  0  0  0  0  0  0  0  0
    0.7840   -1.9320   -2.5720 H   0  0  0  0  0  0  0  0  0  0  0  0
   -0.5390   -0.3240   -1.3430 H   0  0  0  0  0  0  0  0  0  0  0  0
    1.3560    0.1360   -3.1870 H   0  0  0  0  0  0  0  0  0  0  0  0
    2.1280    1.0010   -1.7840 H   0  0  0  0  0  0  0  0  0  0  0  0
    0.5240    1.5240   -2.4050 H   0  0  0  0  0  0  0  0  0  0  0  0
    1.9530    0.0200    0.3570 H   0  0  0  0  0  0  0  0  0  0  0  0
   -0.8510   -0.8700    1.0230 H   0  0  0  0  0  0  0  0  0  0  0  0
   -0.5140    1.9030    1.3770 N   0  0  0  0  0  0  0  0  0  0  0  0
   -0.8910    3.2910    1.5530 C   0  0  0  0  0  0  0  0  0  0  0  0
   -1.9130    3.4140    2.6110 C   0  0  0  0  0  0  0  0  0  0  0  0
   -2.3130    2.3860    3.1960 O   0  0  0  0  0  0  0  0  0  0  0  0
   -2.4450    4.6330    2.9770 O   0  0  0  0  0  0  0  0  0  0  0  0
   -0.9670    1.1740    1.9700 H   0  0  0  0  0  0  0  0  0  0  0  0
   -1.2840    3.7290    0.5970 H   0  0  0  0  0  0  0  0  0  0  0  0
   -0.0250    3.9270    1.8270 H   0  0  0  0  0  0  0  0  0  0  0  0
  1  2  1  0  0  0  0
  1  7  1  0  0  0  0
  2  9  1  1  0  0  0
  3  2  1  0  0  0  0
  3 11  1  0  0  0  0
  3 10  1  0  0  0  0
  4  3  1  0  0  0  0
  5  6  2  0  0  0  0
  5  2  1  0  0  0  0
  8  1  1  0  0  0  0
 12  4  1  0  0  0  0
 13 22  1  0  0  0  0
 13 23  1  0  0  0  0
 14 13  1  0  0  0  0
 14 15  1  0  0  0  0
 14 24  1  0  0  0  0
 15 26  1  6  0  0  0
 15 17  1  0  0  0  0
 16 28  1  0  0  0  0
 16 15  1  0  0  0  0
 17 30  1  1  0  0  0
 17 19  1  0  0  0  0
 17 18  1  0  0  0  0
 18  5  1  0  0  0  0
 19 32  1  0  0  0  0
 20 19  2  0  0  0  0
 21 13  1  0  0  0  0
 25 14  1  0  0  0  0
 27 16  1  0  0  0  0
 29 16  1  0  0  0  0
 31 18  1  0  0  0  0
 32 33  1  0  0  0  0
 32 37  1  0  0  0  0
 33 39  1  0  0  0  0
 33 34  1  0  0  0  0
 34 36  2  0  0  0  0
 34 35  1  0  0  0  0
 38 33  1  0  0  0  0
M  END
$$$$
