CII.pdb
 OpenBabel07022418283D

 51 50  0  0  1  0  0  0  0  0999 V2000
    1.8970   -2.7390    2.1110 N   0  0  0  0  0  0  0  0  0  0  0  0
    2.8870   -1.7180    2.3110 C   0  0  1  0  0  0  0  0  0  0  0  0
    4.2970   -2.2060    2.1170 C   0  0  0  0  0  0  0  0  0  0  0  0
    4.5940   -3.5330    3.3150 S   0  0  0  0  0  0  0  0  0  0  0  0
    2.5960   -0.5070    1.4810 C   0  0  0  0  0  0  0  0  0  0  0  0
    3.3390    0.4970    1.5100 O   0  0  0  0  0  0  0  0  0  0  0  0
    1.6560   -3.2260    3.0220 H   0  0  0  0  0  0  0  0  0  0  0  0
    2.2220   -3.4490    1.4410 H   0  0  0  0  0  0  0  0  0  0  0  0
    2.8110   -1.3770    3.3750 H   0  0  0  0  0  0  0  0  0  0  0  0
    4.4800   -2.6230    1.1160 H   0  0  0  0  0  0  0  0  0  0  0  0
    4.9750   -1.3540    2.2530 H   0  0  0  0  0  0  0  0  0  0  0  0
    3.6480   -4.5600    3.0450 H   0  0  0  0  0  0  0  0  0  0  0  0
    0.9080   -2.1930   -1.7510 C   0  0  0  0  0  0  0  0  0  0  0  0
    0.4330   -0.8300   -2.1600 C   0  0  0  0  0  0  0  0  0  0  0  0
    1.2530    0.3110   -1.6450 C   0  0  2  0  0  0  0  0  0  0  0  0
    2.6780    0.2000   -2.1150 C   0  0  0  0  0  0  0  0  0  0  0  0
    1.0910    0.6260   -0.1940 C   0  0  2  0  0  0  0  0  0  0  0  0
    1.4440   -0.4810    0.6280 N   0  0  0  0  0  0  0  0  0  0  0  0
   -0.2710    1.1590    0.0950 C   0  0  0  0  0  0  0  0  0  0  0  0
   -0.7050    2.1240   -0.5550 O   0  0  0  0  0  0  0  0  0  0  0  0
    1.8990   -2.2130   -1.2840 H   0  0  0  0  0  0  0  0  0  0  0  0
    0.1370   -2.7190   -1.1210 H   0  0  0  0  0  0  0  0  0  0  0  0
    1.0120   -2.8630   -2.6630 H   0  0  0  0  0  0  0  0  0  0  0  0
   -0.6460   -0.7270   -1.8850 H   0  0  0  0  0  0  0  0  0  0  0  0
    0.4320   -0.8030   -3.2890 H   0  0  0  0  0  0  0  0  0  0  0  0
    0.8540    1.2220   -2.2210 H   0  0  0  0  0  0  0  0  0  0  0  0
    3.2910    1.0230   -1.6890 H   0  0  0  0  0  0  0  0  0  0  0  0
    3.1740   -0.7360   -1.8670 H   0  0  0  0  0  0  0  0  0  0  0  0
    2.6680    0.2910   -3.2280 H   0  0  0  0  0  0  0  0  0  0  0  0
    1.8330    1.4500    0.0660 H   0  0  0  0  0  0  0  0  0  0  0  0
    0.8630   -1.3240    0.6490 H   0  0  0  0  0  0  0  0  0  0  0  0
   -2.5110   -2.1260    1.2480 C   0  0  0  0  0  0  0  0  0  0  0  0
   -3.5900   -1.1790    1.7030 C   0  0  0  0  0  0  0  0  0  0  0  0
   -3.5560    0.1670    1.0920 C   0  0  2  0  0  0  0  0  0  0  0  0
   -3.6930    0.0840   -0.4140 C   0  0  0  0  0  0  0  0  0  0  0  0
   -2.4180    1.0630    1.4270 C   0  0  2  0  0  0  0  0  0  0  0  0
   -1.1170    0.6080    1.0980 N   0  0  0  0  0  0  0  0  0  0  0  0
   -2.5260    1.6410    2.8060 C   0  0  0  0  0  0  0  0  0  0  0  0
   -1.5580    1.7190    3.6040 O   0  0  0  0  0  0  0  0  0  0  0  0
   -3.7210    2.1380    3.3050 O   0  0  0  0  0  0  0  0  0  0  0  0
   -2.9400   -3.1350    1.0400 H   0  0  0  0  0  0  0  0  0  0  0  0
   -1.9740   -1.7690    0.3490 H   0  0  0  0  0  0  0  0  0  0  0  0
   -1.7670   -2.2840    2.0730 H   0  0  0  0  0  0  0  0  0  0  0  0
   -3.5990   -1.1980    2.8030 H   0  0  0  0  0  0  0  0  0  0  0  0
   -4.5740   -1.6440    1.4010 H   0  0  0  0  0  0  0  0  0  0  0  0
   -4.4870    0.7380    1.4140 H   0  0  0  0  0  0  0  0  0  0  0  0
   -4.5010   -0.6510   -0.6890 H   0  0  0  0  0  0  0  0  0  0  0  0
   -3.9880    1.0890   -0.8190 H   0  0  0  0  0  0  0  0  0  0  0  0
   -2.7810   -0.2230   -0.9240 H   0  0  0  0  0  0  0  0  0  0  0  0
   -2.5860    1.9670    0.7510 H   0  0  0  0  0  0  0  0  0  0  0  0
   -0.7070   -0.2000    1.6210 H   0  0  0  0  0  0  0  0  0  0  0  0
  1  2  1  0  0  0  0
  1  7  1  0  0  0  0
  2  9  1  1  0  0  0
  3 11  1  0  0  0  0
  3  2  1  0  0  0  0
  3  4  1  0  0  0  0
  5  6  2  0  0  0  0
  5  2  1  0  0  0  0
  8  1  1  0  0  0  0
 10  3  1  0  0  0  0
 12  4  1  0  0  0  0
 13 21  1  0  0  0  0
 13 22  1  0  0  0  0
 14 24  1  0  0  0  0
 14 13  1  0  0  0  0
 14 15  1  0  0  0  0
 15 26  1  6  0  0  0
 15 17  1  0  0  0  0
 16 28  1  0  0  0  0
 16 27  1  0  0  0  0
 16 15  1  0  0  0  0
 17 30  1  1  0  0  0
 17 19  1  0  0  0  0
 17 18  1  0  0  0  0
 18 31  1  0  0  0  0
 18  5  1  0  0  0  0
 19 37  1  0  0  0  0
 20 19  2  0  0  0  0
 23 13  1  0  0  0  0
 25 14  1  0  0  0  0
 29 16  1  0  0  0  0
 32 33  1  0  0  0  0
 32 43  1  0  0  0  0
 33 44  1  0  0  0  0
 34 46  1  1  0  0  0
 34 36  1  0  0  0  0
 34 33  1  0  0  0  0
 35 34  1  0  0  0  0
 36 50  1  6  0  0  0
 36 38  1  0  0  0  0
 37 36  1  0  0  0  0
 37 51  1  0  0  0  0
 38 40  2  0  0  0  0
 38 39  1  0  0  0  0
 41 32  1  0  0  0  0
 42 32  1  0  0  0  0
 45 33  1  0  0  0  0
 47 35  1  0  0  0  0
 48 35  1  0  0  0  0
 49 35  1  0  0  0  0
M  END
$$$$
