CIK.pdb
 OpenBabel07022418283D

 53 52  0  0  1  0  0  0  0  0999 V2000
    5.1200   -2.5060    2.1130 N   0  0  0  0  0  0  0  0  0  0  0  0
    4.1800   -1.8120    1.2140 C   0  0  1  0  0  0  0  0  0  0  0  0
    3.7550   -2.8490    0.2190 C   0  0  0  0  0  0  0  0  0  0  0  0
    2.6110   -2.2410   -1.0300 S   0  0  0  0  0  0  0  0  0  0  0  0
    3.1230   -1.1890    2.0000 C   0  0  0  0  0  0  0  0  0  0  0  0
    3.1020   -1.3040    3.2860 O   0  0  0  0  0  0  0  0  0  0  0  0
    5.6070   -1.8300    2.7420 H   0  0  0  0  0  0  0  0  0  0  0  0
    4.6660   -3.2960    2.6050 H   0  0  0  0  0  0  0  0  0  0  0  0
    4.7960   -1.0600    0.6710 H   0  0  0  0  0  0  0  0  0  0  0  0
    4.6550   -3.3300   -0.2720 H   0  0  0  0  0  0  0  0  0  0  0  0
    3.2630   -3.7310    0.7240 H   0  0  0  0  0  0  0  0  0  0  0  0
    1.5770   -3.1660   -1.2440 H   0  0  0  0  0  0  0  0  0  0  0  0
    0.7050    3.9510    3.1420 C   0  0  0  0  0  0  0  0  0  0  0  0
    0.3290    2.4790    3.0910 C   0  0  0  0  0  0  0  0  0  0  0  0
    1.2870    1.6890    2.2640 C   0  0  2  0  0  0  0  0  0  0  0  0
    1.3650    2.1310    0.8420 C   0  0  0  0  0  0  0  0  0  0  0  0
    1.0500    0.1830    2.3170 C   0  0  2  0  0  0  0  0  0  0  0  0
    2.0730   -0.4340    1.4580 N   0  0  0  0  0  0  0  0  0  0  0  0
   -0.3230   -0.1950    1.9410 C   0  0  0  0  0  0  0  0  0  0  0  0
   -1.3060    0.2400    2.6470 O   0  0  0  0  0  0  0  0  0  0  0  0
    0.4440    4.4040    4.1160 H   0  0  0  0  0  0  0  0  0  0  0  0
    0.1750    4.5390    2.3630 H   0  0  0  0  0  0  0  0  0  0  0  0
    1.8030    4.0910    3.0190 H   0  0  0  0  0  0  0  0  0  0  0  0
   -0.6820    2.4480    2.6300 H   0  0  0  0  0  0  0  0  0  0  0  0
    0.2520    2.1140    4.1160 H   0  0  0  0  0  0  0  0  0  0  0  0
    2.3010    1.8540    2.7130 H   0  0  0  0  0  0  0  0  0  0  0  0
    0.6480    1.5400    0.2200 H   0  0  0  0  0  0  0  0  0  0  0  0
    2.3700    1.9660    0.4000 H   0  0  0  0  0  0  0  0  0  0  0  0
    1.0580    3.2010    0.7150 H   0  0  0  0  0  0  0  0  0  0  0  0
    1.2720   -0.0920    3.3790 H   0  0  0  0  0  0  0  0  0  0  0  0
    1.9840   -0.2840    0.4480 H   0  0  0  0  0  0  0  0  0  0  0  0
   -0.6210   -1.0180    0.8350 N   0  0  0  0  0  0  0  0  0  0  0  0
   -2.0640   -1.3630    0.5080 C   0  0  1  0  0  0  0  0  0  0  0  0
   -2.3510   -0.7550   -0.8060 C   0  0  0  0  0  0  0  0  0  0  0  0
   -3.6370   -0.8040   -1.4700 C   0  0  0  0  0  0  0  0  0  0  0  0
   -4.2930   -2.0570   -1.8660 C   0  0  0  0  0  0  0  0  0  0  0  0
   -3.4900   -2.9560   -2.7780 C   0  0  0  0  0  0  0  0  0  0  0  0
   -3.1450   -2.3320   -4.0170 N   0  0  0  0  0  0  0  0  0  0  0  0
   -2.1650   -2.8250    0.6290 C   0  0  0  0  0  0  0  0  0  0  0  0
   -1.0990   -3.5390    0.8110 O   0  0  0  0  0  0  0  0  0  0  0  0
   -3.3180   -3.5640    0.5750 O   0  0  0  0  0  0  0  0  0  0  0  0
    0.1140   -1.4010    0.2300 H   0  0  0  0  0  0  0  0  0  0  0  0
   -2.6430   -0.8750    1.3000 H   0  0  0  0  0  0  0  0  0  0  0  0
   -1.4840   -1.0510   -1.4880 H   0  0  0  0  0  0  0  0  0  0  0  0
   -2.1100    0.3670   -0.6640 H   0  0  0  0  0  0  0  0  0  0  0  0
   -3.5790   -0.1130   -2.3720 H   0  0  0  0  0  0  0  0  0  0  0  0
   -4.3830   -0.2490   -0.8180 H   0  0  0  0  0  0  0  0  0  0  0  0
   -5.1430   -1.6980   -2.5980 H   0  0  0  0  0  0  0  0  0  0  0  0
   -4.8820   -2.5840   -1.1250 H   0  0  0  0  0  0  0  0  0  0  0  0
   -4.0930   -3.8640   -2.9980 H   0  0  0  0  0  0  0  0  0  0  0  0
   -2.6050   -3.3200   -2.2090 H   0  0  0  0  0  0  0  0  0  0  0  0
   -3.1560   -3.0530   -4.7700 H   0  0  0  0  0  0  0  0  0  0  0  0
   -3.8220   -1.5930   -4.3070 H   0  0  0  0  0  0  0  0  0  0  0  0
  1  8  1  0  0  0  0
  1  7  1  0  0  0  0
  2  9  1  6  0  0  0
  2  5  1  0  0  0  0
  2  1  1  0  0  0  0
  3 11  1  0  0  0  0
  3  2  1  0  0  0  0
  4  3  1  0  0  0  0
  5  6  2  0  0  0  0
 10  3  1  0  0  0  0
 12  4  1  0  0  0  0
 13 21  1  0  0  0  0
 14 13  1  0  0  0  0
 14 25  1  0  0  0  0
 15 17  1  0  0  0  0
 15 26  1  1  0  0  0
 15 14  1  0  0  0  0
 16 15  1  0  0  0  0
 17 30  1  1  0  0  0
 18  5  1  0  0  0  0
 18 17  1  0  0  0  0
 19 17  1  0  0  0  0
 19 20  2  0  0  0  0
 22 13  1  0  0  0  0
 23 13  1  0  0  0  0
 24 14  1  0  0  0  0
 27 16  1  0  0  0  0
 28 16  1  0  0  0  0
 29 16  1  0  0  0  0
 31 18  1  0  0  0  0
 32 19  1  0  0  0  0
 33 39  1  0  0  0  0
 33 32  1  0  0  0  0
 33 43  1  1  0  0  0
 34 45  1  0  0  0  0
 34 33  1  0  0  0  0
 35 47  1  0  0  0  0
 35 34  1  0  0  0  0
 36 35  1  0  0  0  0
 36 49  1  0  0  0  0
 37 51  1  0  0  0  0
 37 36  1  0  0  0  0
 38 37  1  0  0  0  0
 39 40  1  0  0  0  0
 41 39  2  0  0  0  0
 42 32  1  0  0  0  0
 44 34  1  0  0  0  0
 46 35  1  0  0  0  0
 48 36  1  0  0  0  0
 50 37  1  0  0  0  0
 52 38  1  0  0  0  0
 53 38  1  0  0  0  0
M  END
$$$$
