CIL.pdb
 OpenBabel07022418283D

 51 50  0  0  1  0  0  0  0  0999 V2000
    3.2870   -3.5820    3.2790 N   0  0  0  0  0  0  0  0  0  0  0  0
    2.0960   -3.4090    2.4070 C   0  0  1  0  0  0  0  0  0  0  0  0
    0.9080   -3.6630    3.3040 C   0  0  0  0  0  0  0  0  0  0  0  0
   -0.6840   -3.5540    2.5240 S   0  0  0  0  0  0  0  0  0  0  0  0
    2.1380   -2.0970    1.7740 C   0  0  0  0  0  0  0  0  0  0  0  0
    2.9600   -1.1880    2.1050 O   0  0  0  0  0  0  0  0  0  0  0  0
    4.0710   -3.7590    2.5830 H   0  0  0  0  0  0  0  0  0  0  0  0
    3.1020   -4.5060    3.7610 H   0  0  0  0  0  0  0  0  0  0  0  0
    2.1530   -4.2400    1.6800 H   0  0  0  0  0  0  0  0  0  0  0  0
    0.9060   -2.9670    4.1830 H   0  0  0  0  0  0  0  0  0  0  0  0
    0.9860   -4.6930    3.7610 H   0  0  0  0  0  0  0  0  0  0  0  0
   -0.9850   -4.6340    1.6890 H   0  0  0  0  0  0  0  0  0  0  0  0
    2.6930    0.7980   -3.2580 C   0  0  0  0  0  0  0  0  0  0  0  0
    1.9180    0.8230   -1.9410 C   0  0  0  0  0  0  0  0  0  0  0  0
    1.8790   -0.5370   -1.3070 C   0  0  2  0  0  0  0  0  0  0  0  0
    1.1920   -1.5530   -2.1870 C   0  0  0  0  0  0  0  0  0  0  0  0
    1.3150   -0.4400    0.0840 C   0  0  2  0  0  0  0  0  0  0  0  0
    1.2650   -1.7380    0.7320 N   0  0  0  0  0  0  0  0  0  0  0  0
    0.0020    0.1710    0.0390 C   0  0  0  0  0  0  0  0  0  0  0  0
   -0.1220    1.3800   -0.3100 O   0  0  0  0  0  0  0  0  0  0  0  0
    2.0760    0.3860   -4.0840 H   0  0  0  0  0  0  0  0  0  0  0  0
    2.8780    1.8630   -3.5080 H   0  0  0  0  0  0  0  0  0  0  0  0
    3.6670    0.3130   -3.1590 H   0  0  0  0  0  0  0  0  0  0  0  0
    2.3530    1.6110   -1.3190 H   0  0  0  0  0  0  0  0  0  0  0  0
    0.9000    1.1880   -2.2600 H   0  0  0  0  0  0  0  0  0  0  0  0
    2.9530   -0.8730   -1.2900 H   0  0  0  0  0  0  0  0  0  0  0  0
    0.2860   -1.0770   -2.6140 H   0  0  0  0  0  0  0  0  0  0  0  0
    0.9550   -2.4590   -1.5940 H   0  0  0  0  0  0  0  0  0  0  0  0
    1.8830   -1.8840   -2.9890 H   0  0  0  0  0  0  0  0  0  0  0  0
    2.0720    0.1670    0.6580 H   0  0  0  0  0  0  0  0  0  0  0  0
    0.5600   -2.4260    0.4060 H   0  0  0  0  0  0  0  0  0  0  0  0
   -1.1050    1.2930    2.8430 C   0  0  0  0  0  0  0  0  0  0  0  0
   -2.4690    1.5910    2.3600 C   0  0  0  0  0  0  0  0  0  0  0  0
   -3.4030    0.5980    3.0840 C   0  0  0  0  0  0  0  0  0  0  0  0
   -2.7390    1.4700    0.8900 C   0  0  0  0  0  0  0  0  0  0  0  0
   -2.5080    0.1280    0.3250 C   0  0  2  0  0  0  0  0  0  0  0  0
   -1.2140   -0.4550    0.3510 N   0  0  0  0  0  0  0  0  0  0  0  0
   -3.0430   -0.0150   -1.0420 C   0  0  0  0  0  0  0  0  0  0  0  0
   -4.1980    0.4430   -1.2860 O   0  0  0  0  0  0  0  0  0  0  0  0
   -2.3700   -0.6190   -2.0850 O   0  0  0  0  0  0  0  0  0  0  0  0
   -0.7850    0.2410    2.7730 H   0  0  0  0  0  0  0  0  0  0  0  0
   -1.0110    1.6470    3.9250 H   0  0  0  0  0  0  0  0  0  0  0  0
   -0.3520    1.9120    2.3200 H   0  0  0  0  0  0  0  0  0  0  0  0
   -2.7880    2.5820    2.7630 H   0  0  0  0  0  0  0  0  0  0  0  0
   -2.9910   -0.4310    3.0110 H   0  0  0  0  0  0  0  0  0  0  0  0
   -4.3490    0.6200    2.5080 H   0  0  0  0  0  0  0  0  0  0  0  0
   -3.5410    0.9240    4.1350 H   0  0  0  0  0  0  0  0  0  0  0  0
   -2.3140    2.3110    0.3020 H   0  0  0  0  0  0  0  0  0  0  0  0
   -3.8570    1.6470    0.7950 H   0  0  0  0  0  0  0  0  0  0  0  0
   -3.1690   -0.5520    0.9740 H   0  0  0  0  0  0  0  0  0  0  0  0
   -1.1670   -1.4580    0.6190 H   0  0  0  0  0  0  0  0  0  0  0  0
  1  8  1  0  0  0  0
  2  9  1  6  0  0  0
  2  1  1  0  0  0  0
  2  3  1  0  0  0  0
  3 11  1  0  0  0  0
  3 10  1  0  0  0  0
  4  3  1  0  0  0  0
  5  6  2  0  0  0  0
  5  2  1  0  0  0  0
  7  1  1  0  0  0  0
 12  4  1  0  0  0  0
 13 23  1  0  0  0  0
 13 14  1  0  0  0  0
 14 24  1  0  0  0  0
 14 15  1  0  0  0  0
 15 26  1  1  0  0  0
 15 17  1  0  0  0  0
 16 28  1  0  0  0  0
 16 15  1  0  0  0  0
 17 30  1  1  0  0  0
 17 18  1  0  0  0  0
 18  5  1  0  0  0  0
 19 17  1  0  0  0  0
 19 37  1  0  0  0  0
 20 19  2  0  0  0  0
 21 13  1  0  0  0  0
 22 13  1  0  0  0  0
 25 14  1  0  0  0  0
 27 16  1  0  0  0  0
 29 16  1  0  0  0  0
 31 18  1  0  0  0  0
 32 42  1  0  0  0  0
 33 44  1  0  0  0  0
 33 32  1  0  0  0  0
 33 34  1  0  0  0  0
 34 47  1  0  0  0  0
 35 33  1  0  0  0  0
 36 37  1  0  0  0  0
 36 35  1  0  0  0  0
 36 50  1  1  0  0  0
 37 51  1  0  0  0  0
 38 36  1  0  0  0  0
 39 38  1  0  0  0  0
 40 38  2  0  0  0  0
 41 32  1  0  0  0  0
 43 32  1  0  0  0  0
 45 34  1  0  0  0  0
 46 34  1  0  0  0  0
 48 35  1  0  0  0  0
 49 35  1  0  0  0  0
M  END
$$$$
