CIM.pdb
 OpenBabel07022418283D

 49 48  0  0  1  0  0  0  0  0999 V2000
    1.8920   -2.4370    2.6220 N   0  0  0  0  0  0  0  0  0  0  0  0
    2.5320   -1.1600    2.4700 C   0  0  1  0  0  0  0  0  0  0  0  0
    4.0210   -1.3410    2.6110 C   0  0  0  0  0  0  0  0  0  0  0  0
    4.6270   -2.4660    1.3650 S   0  0  0  0  0  0  0  0  0  0  0  0
    2.1790   -0.4290    1.2510 C   0  0  0  0  0  0  0  0  0  0  0  0
    2.8310    0.6200    0.9990 O   0  0  0  0  0  0  0  0  0  0  0  0
    2.2780   -2.8730    3.4890 H   0  0  0  0  0  0  0  0  0  0  0  0
    0.8650   -2.2970    2.7940 H   0  0  0  0  0  0  0  0  0  0  0  0
    2.2080   -0.5700    3.3870 H   0  0  0  0  0  0  0  0  0  0  0  0
    4.2020   -1.8020    3.6110 H   0  0  0  0  0  0  0  0  0  0  0  0
    4.5640   -0.3720    2.6340 H   0  0  0  0  0  0  0  0  0  0  0  0
    3.6920   -3.4870    1.1140 H   0  0  0  0  0  0  0  0  0  0  0  0
    1.9000   -2.7540   -1.5660 C   0  0  0  0  0  0  0  0  0  0  0  0
    1.6570   -1.6910   -2.5700 C   0  0  0  0  0  0  0  0  0  0  0  0
    0.5860   -0.7410   -2.0950 C   0  0  2  0  0  0  0  0  0  0  0  0
    0.3880    0.3010   -3.2320 C   0  0  0  0  0  0  0  0  0  0  0  0
    0.8920    0.0010   -0.8460 C   0  0  2  0  0  0  0  0  0  0  0  0
    1.1570   -0.8040    0.3260 N   0  0  0  0  0  0  0  0  0  0  0  0
   -0.2970    0.8950   -0.5440 C   0  0  0  0  0  0  0  0  0  0  0  0
   -0.6390    1.7010   -1.4150 O   0  0  0  0  0  0  0  0  0  0  0  0
    2.5160   -2.4540   -0.7040 H   0  0  0  0  0  0  0  0  0  0  0  0
    0.9050   -3.1740   -1.2580 H   0  0  0  0  0  0  0  0  0  0  0  0
    2.4110   -3.6340   -2.0780 H   0  0  0  0  0  0  0  0  0  0  0  0
    2.5730   -1.1480   -2.8840 H   0  0  0  0  0  0  0  0  0  0  0  0
    1.2570   -2.1720   -3.4970 H   0  0  0  0  0  0  0  0  0  0  0  0
   -0.3680   -1.2990   -2.0570 H   0  0  0  0  0  0  0  0  0  0  0  0
    0.8350   -0.1190   -4.1710 H   0  0  0  0  0  0  0  0  0  0  0  0
    0.9690    1.1840   -2.9360 H   0  0  0  0  0  0  0  0  0  0  0  0
   -0.6570    0.5610   -3.3600 H   0  0  0  0  0  0  0  0  0  0  0  0
    1.7200    0.7170   -0.9860 H   0  0  0  0  0  0  0  0  0  0  0  0
    0.6220   -1.6600    0.5350 H   0  0  0  0  0  0  0  0  0  0  0  0
   -2.8360   -2.7840    2.8250 C   0  0  0  0  0  0  0  0  0  0  0  0
   -2.5780   -1.4390    1.6670 S   0  0  0  0  0  0  0  0  0  0  0  0
   -3.7030   -0.0690    1.9060 C   0  0  0  0  0  0  0  0  0  0  0  0
   -3.4620    1.0150    0.9380 C   0  0  0  0  0  0  0  0  0  0  0  0
   -2.1350    1.6890    0.9470 C   0  0  2  0  0  0  0  0  0  0  0  0
   -1.0020    0.8210    0.6880 N   0  0  0  0  0  0  0  0  0  0  0  0
   -1.9210    2.5300    2.1420 C   0  0  0  0  0  0  0  0  0  0  0  0
   -2.7970    3.3310    2.4990 O   0  0  0  0  0  0  0  0  0  0  0  0
   -0.7530    2.4240    2.8530 O   0  0  0  0  0  0  0  0  0  0  0  0
   -2.2980   -3.6880    2.4620 H   0  0  0  0  0  0  0  0  0  0  0  0
   -2.3920   -2.5230    3.8000 H   0  0  0  0  0  0  0  0  0  0  0  0
   -3.9040   -3.0770    2.9070 H   0  0  0  0  0  0  0  0  0  0  0  0
   -3.7770    0.2610    2.9630 H   0  0  0  0  0  0  0  0  0  0  0  0
   -4.7390   -0.4710    1.6870 H   0  0  0  0  0  0  0  0  0  0  0  0
   -3.6250    0.6080   -0.0840 H   0  0  0  0  0  0  0  0  0  0  0  0
   -4.2270    1.8040    1.1030 H   0  0  0  0  0  0  0  0  0  0  0  0
   -2.2150    2.4550    0.0950 H   0  0  0  0  0  0  0  0  0  0  0  0
   -0.7030    0.1500    1.4230 H   0  0  0  0  0  0  0  0  0  0  0  0
  1  8  1  0  0  0  0
  1  7  1  0  0  0  0
  2  3  1  0  0  0  0
  2  1  1  0  0  0  0
  2  9  1  1  0  0  0
  3 11  1  0  0  0  0
  3 10  1  0  0  0  0
  4  3  1  0  0  0  0
  5  2  1  0  0  0  0
  6  5  2  0  0  0  0
 12  4  1  0  0  0  0
 13 22  1  0  0  0  0
 13 21  1  0  0  0  0
 14 15  1  0  0  0  0
 14 13  1  0  0  0  0
 15 26  1  1  0  0  0
 15 17  1  0  0  0  0
 16 28  1  0  0  0  0
 16 15  1  0  0  0  0
 17 30  1  6  0  0  0
 17 19  1  0  0  0  0
 17 18  1  0  0  0  0
 18 31  1  0  0  0  0
 18  5  1  0  0  0  0
 19 37  1  0  0  0  0
 20 19  2  0  0  0  0
 23 13  1  0  0  0  0
 24 14  1  0  0  0  0
 25 14  1  0  0  0  0
 27 16  1  0  0  0  0
 29 16  1  0  0  0  0
 32 43  1  0  0  0  0
 32 42  1  0  0  0  0
 33 34  1  0  0  0  0
 33 32  1  0  0  0  0
 34 44  1  0  0  0  0
 35 36  1  0  0  0  0
 35 47  1  0  0  0  0
 35 34  1  0  0  0  0
 36 48  1  6  0  0  0
 36 38  1  0  0  0  0
 37 36  1  0  0  0  0
 37 49  1  0  0  0  0
 38 39  2  0  0  0  0
 38 40  1  0  0  0  0
 41 32  1  0  0  0  0
 45 34  1  0  0  0  0
 46 35  1  0  0  0  0
M  END
$$$$
