CIN.pdb
 OpenBabel07022418273D

 46 45  0  0  1  0  0  0  0  0999 V2000
    3.6770   -2.7720    2.4800 N   0  0  0  0  0  0  0  0  0  0  0  0
    2.4900   -2.4550    1.7440 C   0  0  1  0  0  0  0  0  0  0  0  0
    1.2460   -2.9730    2.4170 C   0  0  0  0  0  0  0  0  0  0  0  0
    1.2940   -4.7780    2.5960 S   0  0  0  0  0  0  0  0  0  0  0  0
    2.4430   -1.0330    1.4370 C   0  0  0  0  0  0  0  0  0  0  0  0
    3.4030   -0.2930    1.8270 O   0  0  0  0  0  0  0  0  0  0  0  0
    4.4400   -3.1430    1.8760 H   0  0  0  0  0  0  0  0  0  0  0  0
    3.4900   -3.3550    3.3050 H   0  0  0  0  0  0  0  0  0  0  0  0
    2.5670   -3.0070    0.7610 H   0  0  0  0  0  0  0  0  0  0  0  0
    1.2290   -2.5500    3.4540 H   0  0  0  0  0  0  0  0  0  0  0  0
    0.3260   -2.7110    1.8980 H   0  0  0  0  0  0  0  0  0  0  0  0
    1.6040   -5.2970    1.3040 H   0  0  0  0  0  0  0  0  0  0  0  0
    0.5900   -0.9400   -2.1240 C   0  0  0  0  0  0  0  0  0  0  0  0
    0.4640    0.5480   -1.9840 C   0  0  0  0  0  0  0  0  0  0  0  0
    1.4520    1.1820   -1.0640 C   0  0  2  0  0  0  0  0  0  0  0  0
    2.8470    0.8890   -1.5670 C   0  0  0  0  0  0  0  0  0  0  0  0
    1.2600    0.8780    0.3980 C   0  0  2  0  0  0  0  0  0  0  0  0
    1.3410   -0.5220    0.7200 N   0  0  0  0  0  0  0  0  0  0  0  0
    0.0060    1.4940    0.9230 C   0  0  0  0  0  0  0  0  0  0  0  0
   -0.2220    2.7050    0.7340 O   0  0  0  0  0  0  0  0  0  0  0  0
   -0.2920   -1.5020   -1.7430 H   0  0  0  0  0  0  0  0  0  0  0  0
    0.6240   -1.2030   -3.2260 H   0  0  0  0  0  0  0  0  0  0  0  0
    1.5500   -1.3510   -1.7260 H   0  0  0  0  0  0  0  0  0  0  0  0
    0.6560    0.9950   -3.0040 H   0  0  0  0  0  0  0  0  0  0  0  0
   -0.5870    0.8480   -1.7620 H   0  0  0  0  0  0  0  0  0  0  0  0
    1.3540    2.3130   -1.1920 H   0  0  0  0  0  0  0  0  0  0  0  0
    3.5770    1.6660   -1.2560 H   0  0  0  0  0  0  0  0  0  0  0  0
    3.1820   -0.1390   -1.3330 H   0  0  0  0  0  0  0  0  0  0  0  0
    2.7950    0.9540   -2.6790 H   0  0  0  0  0  0  0  0  0  0  0  0
    2.1490    1.3820    0.9010 H   0  0  0  0  0  0  0  0  0  0  0  0
    0.5810   -1.1720    0.4340 H   0  0  0  0  0  0  0  0  0  0  0  0
   -4.3440   -1.5590    0.7220 N   0  0  0  0  0  0  0  0  0  0  0  0
   -3.3480   -0.8610    1.4490 C   0  0  0  0  0  0  0  0  0  0  0  0
   -2.5510   -1.5710    2.1100 O   0  0  0  0  0  0  0  0  0  0  0  0
   -3.3050    0.6170    1.3910 C   0  0  0  0  0  0  0  0  0  0  0  0
   -2.1630    1.2110    2.1810 C   0  0  2  0  0  0  0  0  0  0  0  0
   -0.9330    0.7180    1.6370 N   0  0  0  0  0  0  0  0  0  0  0  0
   -2.3020    1.0340    3.6180 C   0  0  0  0  0  0  0  0  0  0  0  0
   -1.4000    0.4920    4.2840 O   0  0  0  0  0  0  0  0  0  0  0  0
   -3.4370    1.4660    4.2660 O   0  0  0  0  0  0  0  0  0  0  0  0
   -5.2570   -1.7780    1.1540 H   0  0  0  0  0  0  0  0  0  0  0  0
   -4.1470   -1.8480   -0.2480 H   0  0  0  0  0  0  0  0  0  0  0  0
   -4.2860    1.0630    1.6880 H   0  0  0  0  0  0  0  0  0  0  0  0
   -3.1000    0.8710    0.3090 H   0  0  0  0  0  0  0  0  0  0  0  0
   -2.1750    2.3210    1.9490 H   0  0  0  0  0  0  0  0  0  0  0  0
   -0.6920   -0.2830    1.7700 H   0  0  0  0  0  0  0  0  0  0  0  0
  1  8  1  0  0  0  0
  2  9  1  6  0  0  0
  2  3  1  0  0  0  0
  2  1  1  0  0  0  0
  3  4  1  0  0  0  0
  3 10  1  0  0  0  0
  5  2  1  0  0  0  0
  5  6  2  0  0  0  0
  7  1  1  0  0  0  0
 11  3  1  0  0  0  0
 12  4  1  0  0  0  0
 13 14  1  0  0  0  0
 13 21  1  0  0  0  0
 13 23  1  0  0  0  0
 14 25  1  0  0  0  0
 14 15  1  0  0  0  0
 15 26  1  6  0  0  0
 15 17  1  0  0  0  0
 16 28  1  0  0  0  0
 16 27  1  0  0  0  0
 16 15  1  0  0  0  0
 17 18  1  0  0  0  0
 17 30  1  1  0  0  0
 17 19  1  0  0  0  0
 18  5  1  0  0  0  0
 19 37  1  0  0  0  0
 20 19  2  0  0  0  0
 22 13  1  0  0  0  0
 24 14  1  0  0  0  0
 29 16  1  0  0  0  0
 31 18  1  0  0  0  0
 32 41  1  0  0  0  0
 32 33  1  0  0  0  0
 33 34  2  0  0  0  0
 35 33  1  0  0  0  0
 35 43  1  0  0  0  0
 35 36  1  0  0  0  0
 36 45  1  6  0  0  0
 36 38  1  0  0  0  0
 37 46  1  0  0  0  0
 37 36  1  0  0  0  0
 38 40  2  0  0  0  0
 38 39  1  0  0  0  0
 42 32  1  0  0  0  0
 44 35  1  0  0  0  0
M  END
$$$$
