CIQ.pdb
 OpenBabel07022418273D

 49 48  0  0  1  0  0  0  0  0999 V2000
    3.0510   -3.3350    3.8370 N   0  0  0  0  0  0  0  0  0  0  0  0
    2.5980   -3.2750    2.4350 C   0  0  1  0  0  0  0  0  0  0  0  0
    1.5810   -4.3480    2.2910 C   0  0  0  0  0  0  0  0  0  0  0  0
    0.8530   -4.5200    0.6640 S   0  0  0  0  0  0  0  0  0  0  0  0
    2.1810   -1.9110    2.1410 C   0  0  0  0  0  0  0  0  0  0  0  0
    2.2810   -1.0220    3.0640 O   0  0  0  0  0  0  0  0  0  0  0  0
    3.4380   -4.2930    4.0440 H   0  0  0  0  0  0  0  0  0  0  0  0
    2.2060   -3.1620    4.4600 H   0  0  0  0  0  0  0  0  0  0  0  0
    3.4920   -3.5740    1.8410 H   0  0  0  0  0  0  0  0  0  0  0  0
    2.1240   -5.3180    2.5050 H   0  0  0  0  0  0  0  0  0  0  0  0
    0.7830   -4.3160    3.0660 H   0  0  0  0  0  0  0  0  0  0  0  0
   -0.5350   -4.8130    0.7500 H   0  0  0  0  0  0  0  0  0  0  0  0
    2.9750    2.5100   -1.6270 C   0  0  0  0  0  0  0  0  0  0  0  0
    1.9290    1.9400   -0.6960 C   0  0  0  0  0  0  0  0  0  0  0  0
    2.1390    0.5110   -0.3740 C   0  0  2  0  0  0  0  0  0  0  0  0
    2.1100   -0.4090   -1.5580 C   0  0  0  0  0  0  0  0  0  0  0  0
    1.2850   -0.0330    0.7410 C   0  0  2  0  0  0  0  0  0  0  0  0
    1.6580   -1.4520    0.8900 N   0  0  0  0  0  0  0  0  0  0  0  0
   -0.1440    0.1210    0.3580 C   0  0  0  0  0  0  0  0  0  0  0  0
   -0.5610    1.2970    0.2730 O   0  0  0  0  0  0  0  0  0  0  0  0
    2.7820    2.2570   -2.6900 H   0  0  0  0  0  0  0  0  0  0  0  0
    4.0040    2.2490   -1.3180 H   0  0  0  0  0  0  0  0  0  0  0  0
    2.8870    3.6160   -1.5600 H   0  0  0  0  0  0  0  0  0  0  0  0
    0.9450    2.1030   -1.2190 H   0  0  0  0  0  0  0  0  0  0  0  0
    1.9070    2.5760    0.2060 H   0  0  0  0  0  0  0  0  0  0  0  0
    3.2090    0.4160    0.0210 H   0  0  0  0  0  0  0  0  0  0  0  0
    1.1050   -0.9210   -1.5530 H   0  0  0  0  0  0  0  0  0  0  0  0
    2.1790    0.1050   -2.5300 H   0  0  0  0  0  0  0  0  0  0  0  0
    2.8580   -1.2180   -1.4920 H   0  0  0  0  0  0  0  0  0  0  0  0
    1.4790    0.5090    1.6840 H   0  0  0  0  0  0  0  0  0  0  0  0
    1.5560   -2.1350    0.1180 H   0  0  0  0  0  0  0  0  0  0  0  0
   -3.7720    2.2900    3.2750 N   0  0  0  0  0  0  0  0  0  0  0  0
   -3.6790    1.8940    1.9270 C   0  0  0  0  0  0  0  0  0  0  0  0
   -4.1200    2.6330    1.0280 O   0  0  0  0  0  0  0  0  0  0  0  0
   -3.0590    0.6010    1.5570 C   0  0  0  0  0  0  0  0  0  0  0  0
   -3.0680    0.3860    0.0660 C   0  0  0  0  0  0  0  0  0  0  0  0
   -2.3700   -0.9360   -0.2450 C   0  0  2  0  0  0  0  0  0  0  0  0
   -0.9940   -0.9780    0.1030 N   0  0  0  0  0  0  0  0  0  0  0  0
   -2.7610   -1.5170   -1.5180 C   0  0  0  0  0  0  0  0  0  0  0  0
   -3.9560   -1.5080   -1.8740 O   0  0  0  0  0  0  0  0  0  0  0  0
   -1.8230   -2.0870   -2.3510 O   0  0  0  0  0  0  0  0  0  0  0  0
   -4.6440    2.6910    3.6880 H   0  0  0  0  0  0  0  0  0  0  0  0
   -2.9330    2.1790    3.8950 H   0  0  0  0  0  0  0  0  0  0  0  0
   -3.7880   -0.1850    2.0050 H   0  0  0  0  0  0  0  0  0  0  0  0
   -2.1140    0.3920    2.0610 H   0  0  0  0  0  0  0  0  0  0  0  0
   -4.1410    0.2050   -0.2430 H   0  0  0  0  0  0  0  0  0  0  0  0
   -2.7330    1.2220   -0.5350 H   0  0  0  0  0  0  0  0  0  0  0  0
   -2.8840   -1.5970    0.5770 H   0  0  0  0  0  0  0  0  0  0  0  0
   -0.5090   -1.9240    0.1940 H   0  0  0  0  0  0  0  0  0  0  0  0
  1  7  1  0  0  0  0
  1  8  1  0  0  0  0
  2  9  1  6  0  0  0
  2  1  1  0  0  0  0
  3  2  1  0  0  0  0
  3 10  1  0  0  0  0
  3 11  1  0  0  0  0
  4 12  1  0  0  0  0
  4  3  1  0  0  0  0
  5  2  1  0  0  0  0
  5  6  2  0  0  0  0
 13 23  1  0  0  0  0
 13 22  1  0  0  0  0
 13 14  1  0  0  0  0
 14 15  1  0  0  0  0
 14 25  1  0  0  0  0
 15 26  1  1  0  0  0
 15 17  1  0  0  0  0
 16 27  1  0  0  0  0
 16 29  1  0  0  0  0
 16 15  1  0  0  0  0
 17 18  1  0  0  0  0
 17 30  1  1  0  0  0
 18  5  1  0  0  0  0
 19 17  1  0  0  0  0
 20 19  2  0  0  0  0
 21 13  1  0  0  0  0
 24 14  1  0  0  0  0
 28 16  1  0  0  0  0
 31 18  1  0  0  0  0
 32 42  1  0  0  0  0
 32 43  1  0  0  0  0
 33 32  1  0  0  0  0
 34 33  2  0  0  0  0
 35 33  1  0  0  0  0
 35 44  1  0  0  0  0
 35 45  1  0  0  0  0
 36 35  1  0  0  0  0
 37 36  1  0  0  0  0
 37 38  1  0  0  0  0
 37 48  1  1  0  0  0
 38 49  1  0  0  0  0
 38 19  1  0  0  0  0
 39 37  1  0  0  0  0
 40 39  1  0  0  0  0
 41 39  2  0  0  0  0
 46 36  1  0  0  0  0
 47 36  1  0  0  0  0
M  END
$$$$
