CIR.pdb
 OpenBabel07022418273D

 55 54  0  0  1  0  0  0  0  0999 V2000
    2.0400   -0.9440    4.7120 N   0  0  0  0  0  0  0  0  0  0  0  0
    1.8210   -2.0940    3.8620 C   0  0  1  0  0  0  0  0  0  0  0  0
    0.4950   -2.7280    4.2990 C   0  0  0  0  0  0  0  0  0  0  0  0
    0.1910   -4.1820    3.2450 S   0  0  0  0  0  0  0  0  0  0  0  0
    1.6960   -1.7160    2.4340 C   0  0  0  0  0  0  0  0  0  0  0  0
    1.5060   -2.6150    1.6070 O   0  0  0  0  0  0  0  0  0  0  0  0
    3.0630   -0.8010    4.8580 H   0  0  0  0  0  0  0  0  0  0  0  0
    1.6560   -1.1650    5.6730 H   0  0  0  0  0  0  0  0  0  0  0  0
    2.6430   -2.8320    3.9300 H   0  0  0  0  0  0  0  0  0  0  0  0
    0.5630   -3.0400    5.3590 H   0  0  0  0  0  0  0  0  0  0  0  0
   -0.3190   -1.9850    4.2300 H   0  0  0  0  0  0  0  0  0  0  0  0
    1.4500   -4.7580    2.9120 H   0  0  0  0  0  0  0  0  0  0  0  0
    5.3260   -0.6120   -0.0910 C   0  0  0  0  0  0  0  0  0  0  0  0
    4.1640   -0.0000    0.6570 C   0  0  0  0  0  0  0  0  0  0  0  0
    2.8860   -0.5180   -0.0220 C   0  0  2  0  0  0  0  0  0  0  0  0
    2.9580   -0.0410   -1.4510 C   0  0  0  0  0  0  0  0  0  0  0  0
    1.6780    0.0750    0.6600 C   0  0  2  0  0  0  0  0  0  0  0  0
    1.7920   -0.3750    2.0500 N   0  0  0  0  0  0  0  0  0  0  0  0
    0.3840   -0.2870    0.0870 C   0  0  0  0  0  0  0  0  0  0  0  0
   -0.4010   -0.9900    0.8200 O   0  0  0  0  0  0  0  0  0  0  0  0
    6.1270   -0.9550    0.6110 H   0  0  0  0  0  0  0  0  0  0  0  0
    5.0560   -1.5210   -0.6660 H   0  0  0  0  0  0  0  0  0  0  0  0
    5.7920    0.0950   -0.8180 H   0  0  0  0  0  0  0  0  0  0  0  0
    4.1660   -0.3670    1.6930 H   0  0  0  0  0  0  0  0  0  0  0  0
    4.2040    1.1050    0.5770 H   0  0  0  0  0  0  0  0  0  0  0  0
    2.9420   -1.6080    0.0660 H   0  0  0  0  0  0  0  0  0  0  0  0
    4.0360   -0.1790   -1.7770 H   0  0  0  0  0  0  0  0  0  0  0  0
    2.7780    1.0300   -1.5570 H   0  0  0  0  0  0  0  0  0  0  0  0
    2.3960   -0.6940   -2.1550 H   0  0  0  0  0  0  0  0  0  0  0  0
    1.7690    1.1720    0.6680 H   0  0  0  0  0  0  0  0  0  0  0  0
    1.9520    0.3470    2.7700 H   0  0  0  0  0  0  0  0  0  0  0  0
   -5.4830    0.7080    2.1410 N   0  0  0  0  0  0  0  0  0  0  0  0
   -5.1970   -0.1630    1.0460 C   0  0  0  0  0  0  0  0  0  0  0  0
   -5.5160   -1.4090    1.0850 N   0  0  0  0  0  0  0  0  0  0  0  0
   -4.5520    0.3270   -0.1190 N   0  0  0  0  0  0  0  0  0  0  0  0
   -4.4080   -0.4930   -1.2820 C   0  0  0  0  0  0  0  0  0  0  0  0
   -3.6840    0.2870   -2.3620 C   0  0  0  0  0  0  0  0  0  0  0  0
   -2.3260    0.7280   -1.9560 C   0  0  0  0  0  0  0  0  0  0  0  0
   -1.4420   -0.4110   -1.5890 C   0  0  2  0  0  0  0  0  0  0  0  0
   -0.1160    0.0450   -1.1820 N   0  0  0  0  0  0  0  0  0  0  0  0
   -1.2330   -1.2930   -2.7520 C   0  0  0  0  0  0  0  0  0  0  0  0
   -0.0810   -1.4640   -3.2300 O   0  0  0  0  0  0  0  0  0  0  0  0
   -2.2570   -1.9720   -3.3770 O   0  0  0  0  0  0  0  0  0  0  0  0
   -4.9440    1.6110    2.2240 H   0  0  0  0  0  0  0  0  0  0  0  0
   -6.1880    0.5080    2.8600 H   0  0  0  0  0  0  0  0  0  0  0  0
   -5.3130   -2.0450    0.2970 H   0  0  0  0  0  0  0  0  0  0  0  0
   -4.1860    1.2970   -0.1040 H   0  0  0  0  0  0  0  0  0  0  0  0
   -5.4230   -0.7100   -1.6730 H   0  0  0  0  0  0  0  0  0  0  0  0
   -3.9070   -1.4610   -1.0610 H   0  0  0  0  0  0  0  0  0  0  0  0
   -4.3200    1.2260   -2.4930 H   0  0  0  0  0  0  0  0  0  0  0  0
   -3.7450   -0.2860   -3.2930 H   0  0  0  0  0  0  0  0  0  0  0  0
   -1.8630    1.2300   -2.8390 H   0  0  0  0  0  0  0  0  0  0  0  0
   -2.4070    1.4210   -1.0890 H   0  0  0  0  0  0  0  0  0  0  0  0
   -1.9350   -1.0010   -0.8080 H   0  0  0  0  0  0  0  0  0  0  0  0
    0.4700    0.6230   -1.8160 H   0  0  0  0  0  0  0  0  0  0  0  0
  1  7  1  0  0  0  0
  1  8  1  0  0  0  0
  2  9  1  1  0  0  0
  2  3  1  0  0  0  0
  2  1  1  0  0  0  0
  3 10  1  0  0  0  0
  4  3  1  0  0  0  0
  5  2  1  0  0  0  0
  6  5  2  0  0  0  0
 11  3  1  0  0  0  0
 12  4  1  0  0  0  0
 13 21  1  0  0  0  0
 13 14  1  0  0  0  0
 14 24  1  0  0  0  0
 15 26  1  1  0  0  0
 15 14  1  0  0  0  0
 15 17  1  0  0  0  0
 16 15  1  0  0  0  0
 17 30  1  6  0  0  0
 17 18  1  0  0  0  0
 18  5  1  0  0  0  0
 18 31  1  0  0  0  0
 19 17  1  0  0  0  0
 19 20  2  0  0  0  0
 22 13  1  0  0  0  0
 23 13  1  0  0  0  0
 25 14  1  0  0  0  0
 27 16  1  0  0  0  0
 28 16  1  0  0  0  0
 29 16  1  0  0  0  0
 32 44  1  0  0  0  0
 32 45  1  0  0  0  0
 33 34  2  0  0  0  0
 33 32  1  0  0  0  0
 35 47  1  0  0  0  0
 35 33  1  0  0  0  0
 36 49  1  0  0  0  0
 36 35  1  0  0  0  0
 37 38  1  0  0  0  0
 37 36  1  0  0  0  0
 38 39  1  0  0  0  0
 38 53  1  0  0  0  0
 39 40  1  0  0  0  0
 39 54  1  1  0  0  0
 40 19  1  0  0  0  0
 41 39  1  0  0  0  0
 42 41  1  0  0  0  0
 43 41  2  0  0  0  0
 46 34  1  0  0  0  0
 48 36  1  0  0  0  0
 50 37  1  0  0  0  0
 51 37  1  0  0  0  0
 52 38  1  0  0  0  0
 55 40  1  0  0  0  0
M  END
$$$$
