CIS.pdb
 OpenBabel07022418283D

 43 42  0  0  1  0  0  0  0  0999 V2000
   -1.1310   -1.9110    3.1560 N   0  0  0  0  0  0  0  0  0  0  0  0
   -0.7430   -2.8700    2.1710 C   0  0  1  0  0  0  0  0  0  0  0  0
   -1.8310   -3.8480    1.8340 C   0  0  0  0  0  0  0  0  0  0  0  0
   -1.1980   -5.0020    0.5740 S   0  0  0  0  0  0  0  0  0  0  0  0
   -0.2070   -2.2050    0.9290 C   0  0  0  0  0  0  0  0  0  0  0  0
    0.1800   -2.9040   -0.0420 O   0  0  0  0  0  0  0  0  0  0  0  0
   -1.9670   -1.3610    2.9460 H   0  0  0  0  0  0  0  0  0  0  0  0
   -1.1120   -2.3280    4.1110 H   0  0  0  0  0  0  0  0  0  0  0  0
    0.1100   -3.4570    2.5920 H   0  0  0  0  0  0  0  0  0  0  0  0
   -2.7670   -3.3640    1.5220 H   0  0  0  0  0  0  0  0  0  0  0  0
   -2.0410   -4.4420    2.7420 H   0  0  0  0  0  0  0  0  0  0  0  0
   -0.3960   -5.9870    1.1800 H   0  0  0  0  0  0  0  0  0  0  0  0
   -1.4980   -1.1620   -2.4010 C   0  0  0  0  0  0  0  0  0  0  0  0
   -1.8670   -0.2130   -1.3010 C   0  0  0  0  0  0  0  0  0  0  0  0
   -0.7410    0.7230   -0.9170 C   0  0  2  0  0  0  0  0  0  0  0  0
   -0.3610    1.5280   -2.1130 C   0  0  0  0  0  0  0  0  0  0  0  0
    0.3770   -0.0970   -0.3410 C   0  0  2  0  0  0  0  0  0  0  0  0
   -0.1280   -0.7960    0.8240 N   0  0  0  0  0  0  0  0  0  0  0  0
    1.5590    0.7390    0.0140 C   0  0  0  0  0  0  0  0  0  0  0  0
    2.1690    1.4380   -0.8320 O   0  0  0  0  0  0  0  0  0  0  0  0
   -0.4650   -1.0200   -2.7860 H   0  0  0  0  0  0  0  0  0  0  0  0
   -2.1570   -1.0290   -3.3080 H   0  0  0  0  0  0  0  0  0  0  0  0
   -1.5530   -2.2370   -2.0680 H   0  0  0  0  0  0  0  0  0  0  0  0
   -2.7800    0.3640   -1.6200 H   0  0  0  0  0  0  0  0  0  0  0  0
   -2.1160   -0.7980   -0.3710 H   0  0  0  0  0  0  0  0  0  0  0  0
   -1.1780    1.4260   -0.1590 H   0  0  0  0  0  0  0  0  0  0  0  0
    0.4880    1.0960   -2.6830 H   0  0  0  0  0  0  0  0  0  0  0  0
   -0.1530    2.6010   -1.8390 H   0  0  0  0  0  0  0  0  0  0  0  0
   -1.2310    1.5770   -2.8020 H   0  0  0  0  0  0  0  0  0  0  0  0
    0.6700   -0.8510   -1.1010 H   0  0  0  0  0  0  0  0  0  0  0  0
   -0.4610   -0.2470    1.6560 H   0  0  0  0  0  0  0  0  0  0  0  0
    1.7030    3.2940    2.5280 O   0  0  0  0  0  0  0  0  0  0  0  0
    2.7340    2.4430    2.9080 C   0  0  0  0  0  0  0  0  0  0  0  0
    3.1720    1.5530    1.7660 C   0  0  2  0  0  0  0  0  0  0  0  0
    2.0150    0.7530    1.3480 N   0  0  0  0  0  0  0  0  0  0  0  0
    4.2460    0.6580    2.2910 C   0  0  0  0  0  0  0  0  0  0  0  0
    5.3400    1.1010    2.7120 O   0  0  0  0  0  0  0  0  0  0  0  0
    4.0340   -0.7050    2.3140 O   0  0  0  0  0  0  0  0  0  0  0  0
    0.9280    3.2730    3.1300 H   0  0  0  0  0  0  0  0  0  0  0  0
    3.5760    2.9540    3.3850 H   0  0  0  0  0  0  0  0  0  0  0  0
    2.2900    1.7470    3.6790 H   0  0  0  0  0  0  0  0  0  0  0  0
    3.5990    2.1080    0.9200 H   0  0  0  0  0  0  0  0  0  0  0  0
    1.5100    0.1730    2.0530 H   0  0  0  0  0  0  0  0  0  0  0  0
  1  8  1  0  0  0  0
  2  9  1  1  0  0  0
  2  1  1  0  0  0  0
  3  2  1  0  0  0  0
  3 11  1  0  0  0  0
  4 12  1  0  0  0  0
  4  3  1  0  0  0  0
  5  2  1  0  0  0  0
  6  5  2  0  0  0  0
  7  1  1  0  0  0  0
 10  3  1  0  0  0  0
 13 23  1  0  0  0  0
 13 14  1  0  0  0  0
 14 15  1  0  0  0  0
 14 25  1  0  0  0  0
 15 17  1  0  0  0  0
 15 26  1  1  0  0  0
 16 28  1  0  0  0  0
 16 15  1  0  0  0  0
 17 30  1  6  0  0  0
 17 19  1  0  0  0  0
 17 18  1  0  0  0  0
 18  5  1  0  0  0  0
 18 31  1  0  0  0  0
 19 35  1  0  0  0  0
 20 19  2  0  0  0  0
 21 13  1  0  0  0  0
 22 13  1  0  0  0  0
 24 14  1  0  0  0  0
 27 16  1  0  0  0  0
 29 16  1  0  0  0  0
 32 33  1  0  0  0  0
 32 39  1  0  0  0  0
 33 40  1  0  0  0  0
 33 41  1  0  0  0  0
 34 42  1  6  0  0  0
 34 36  1  0  0  0  0
 34 33  1  0  0  0  0
 35 34  1  0  0  0  0
 35 43  1  0  0  0  0
 36 38  2  0  0  0  0
 36 37  1  0  0  0  0
M  END
$$$$
