CIT.pdb
 OpenBabel07022418283D

 46 45  0  0  1  0  0  0  0  0999 V2000
   -0.2520   -2.3640   -2.0560 N   0  0  0  0  0  0  0  0  0  0  0  0
    0.0720   -3.4260   -1.1450 C   0  0  1  0  0  0  0  0  0  0  0  0
    1.1530   -4.3010   -1.7820 C   0  0  0  0  0  0  0  0  0  0  0  0
    2.6390   -3.3180   -2.1210 S   0  0  0  0  0  0  0  0  0  0  0  0
    0.5950   -2.8820    0.1330 C   0  0  0  0  0  0  0  0  0  0  0  0
    0.9430   -3.6450    1.0680 O   0  0  0  0  0  0  0  0  0  0  0  0
   -1.0700   -1.8420   -1.7230 H   0  0  0  0  0  0  0  0  0  0  0  0
    0.5650   -1.7690   -2.2250 H   0  0  0  0  0  0  0  0  0  0  0  0
   -0.8210   -4.0710   -0.9830 H   0  0  0  0  0  0  0  0  0  0  0  0
    0.7270   -4.7140   -2.7120 H   0  0  0  0  0  0  0  0  0  0  0  0
    1.4510   -5.1260   -1.1050 H   0  0  0  0  0  0  0  0  0  0  0  0
    2.3280   -2.3410   -3.0820 H   0  0  0  0  0  0  0  0  0  0  0  0
    2.4490    0.7460   -0.8300 C   0  0  0  0  0  0  0  0  0  0  0  0
    2.5700    0.9870    0.6320 C   0  0  0  0  0  0  0  0  0  0  0  0
    2.5250   -0.2030    1.5160 C   0  0  2  0  0  0  0  0  0  0  0  0
    3.6330   -1.1800    1.2080 C   0  0  0  0  0  0  0  0  0  0  0  0
    1.2380   -0.9340    1.6070 C   0  0  2  0  0  0  0  0  0  0  0  0
    0.7370   -1.4710    0.3830 N   0  0  0  0  0  0  0  0  0  0  0  0
    0.1860   -0.1650    2.3530 C   0  0  0  0  0  0  0  0  0  0  0  0
    0.4930    0.3630    3.4520 O   0  0  0  0  0  0  0  0  0  0  0  0
    2.6360   -0.2950   -1.1510 H   0  0  0  0  0  0  0  0  0  0  0  0
    1.4760    1.1510   -1.1760 H   0  0  0  0  0  0  0  0  0  0  0  0
    3.2070    1.3450   -1.4230 H   0  0  0  0  0  0  0  0  0  0  0  0
    3.5760    1.4740    0.8010 H   0  0  0  0  0  0  0  0  0  0  0  0
    1.8420    1.7440    1.0110 H   0  0  0  0  0  0  0  0  0  0  0  0
    2.7640    0.1780    2.5570 H   0  0  0  0  0  0  0  0  0  0  0  0
    4.5620   -0.6500    0.9210 H   0  0  0  0  0  0  0  0  0  0  0  0
    3.3190   -1.9310    0.4520 H   0  0  0  0  0  0  0  0  0  0  0  0
    3.8480   -1.7470    2.1370 H   0  0  0  0  0  0  0  0  0  0  0  0
    1.4420   -1.8280    2.2730 H   0  0  0  0  0  0  0  0  0  0  0  0
    0.4390   -0.8570   -0.4040 H   0  0  0  0  0  0  0  0  0  0  0  0
   -3.6410    2.6930    2.5970 C   0  0  0  0  0  0  0  0  0  0  0  0
   -2.6370    1.9280    1.7550 C   0  0  1  0  0  0  0  0  0  0  0  0
   -1.5440    2.7930    1.5780 O   0  0  0  0  0  0  0  0  0  0  0  0
   -2.1740    0.7130    2.5430 C   0  0  2  0  0  0  0  0  0  0  0  0
   -1.1320   -0.0070    1.8780 N   0  0  0  0  0  0  0  0  0  0  0  0
   -3.3260   -0.1400    2.9070 C   0  0  0  0  0  0  0  0  0  0  0  0
   -3.3630   -1.3850    2.6420 O   0  0  0  0  0  0  0  0  0  0  0  0
   -4.4270    0.3870    3.5590 O   0  0  0  0  0  0  0  0  0  0  0  0
   -3.4970    3.8040    2.4720 H   0  0  0  0  0  0  0  0  0  0  0  0
   -4.6750    2.3930    2.3890 H   0  0  0  0  0  0  0  0  0  0  0  0
   -3.4440    2.5030    3.6730 H   0  0  0  0  0  0  0  0  0  0  0  0
   -3.0740    1.6550    0.7900 H   0  0  0  0  0  0  0  0  0  0  0  0
   -1.4360    3.3000    2.4290 H   0  0  0  0  0  0  0  0  0  0  0  0
   -1.7510    1.1150    3.4940 H   0  0  0  0  0  0  0  0  0  0  0  0
   -1.3470   -0.4700    0.9450 H   0  0  0  0  0  0  0  0  0  0  0  0
  1  7  1  0  0  0  0
  1  2  1  0  0  0  0
  2  9  1  1  0  0  0
  2  5  1  0  0  0  0
  3  2  1  0  0  0  0
  3 11  1  0  0  0  0
  4  3  1  0  0  0  0
  5 18  1  0  0  0  0
  5  6  2  0  0  0  0
  8  1  1  0  0  0  0
 10  3  1  0  0  0  0
 12  4  1  0  0  0  0
 13 14  1  0  0  0  0
 14 24  1  0  0  0  0
 14 25  1  0  0  0  0
 14 15  1  0  0  0  0
 15 17  1  0  0  0  0
 15 26  1  1  0  0  0
 16 15  1  0  0  0  0
 16 29  1  0  0  0  0
 17 30  1  1  0  0  0
 17 19  1  0  0  0  0
 18 17  1  0  0  0  0
 19 20  2  0  0  0  0
 21 13  1  0  0  0  0
 22 13  1  0  0  0  0
 23 13  1  0  0  0  0
 27 16  1  0  0  0  0
 28 16  1  0  0  0  0
 31 18  1  0  0  0  0
 32 42  1  0  0  0  0
 33 43  1  6  0  0  0
 33 35  1  0  0  0  0
 33 32  1  0  0  0  0
 34 33  1  0  0  0  0
 34 44  1  0  0  0  0
 35 37  1  0  0  0  0
 35 45  1  1  0  0  0
 36 19  1  0  0  0  0
 36 35  1  0  0  0  0
 37 39  1  0  0  0  0
 38 37  2  0  0  0  0
 40 32  1  0  0  0  0
 41 32  1  0  0  0  0
 46 36  1  0  0  0  0
M  END
$$$$
