CIV.pdb
 OpenBabel07022418283D

 48 47  0  0  1  0  0  0  0  0999 V2000
    0.7460   -2.3990   -2.0960 N   0  0  0  0  0  0  0  0  0  0  0  0
    1.3290   -3.3160   -1.1470 C   0  0  1  0  0  0  0  0  0  0  0  0
    2.6780   -3.7560   -1.6190 C   0  0  0  0  0  0  0  0  0  0  0  0
    3.8150   -2.3780   -1.8210 S   0  0  0  0  0  0  0  0  0  0  0  0
    1.4380   -2.6470    0.1640 C   0  0  0  0  0  0  0  0  0  0  0  0
    1.9480   -3.2630    1.1620 O   0  0  0  0  0  0  0  0  0  0  0  0
   -0.1810   -2.0700   -1.7930 H   0  0  0  0  0  0  0  0  0  0  0  0
    1.4300   -1.6610   -2.3330 H   0  0  0  0  0  0  0  0  0  0  0  0
    0.6730   -4.2310   -1.0680 H   0  0  0  0  0  0  0  0  0  0  0  0
    2.5990   -4.2960   -2.5940 H   0  0  0  0  0  0  0  0  0  0  0  0
    3.1370   -4.4770   -0.8960 H   0  0  0  0  0  0  0  0  0  0  0  0
    4.6740   -2.3210   -0.7220 H   0  0  0  0  0  0  0  0  0  0  0  0
    1.8840    1.4030   -0.5610 C   0  0  0  0  0  0  0  0  0  0  0  0
    1.8090    1.5960    0.9110 C   0  0  0  0  0  0  0  0  0  0  0  0
    2.0740    0.4190    1.7630 C   0  0  2  0  0  0  0  0  0  0  0  0
    3.4740   -0.1140    1.4960 C   0  0  0  0  0  0  0  0  0  0  0  0
    1.1320   -0.7150    1.7230 C   0  0  2  0  0  0  0  0  0  0  0  0
    1.0020   -1.3130    0.4180 N   0  0  0  0  0  0  0  0  0  0  0  0
   -0.2030   -0.4350    2.2960 C   0  0  0  0  0  0  0  0  0  0  0  0
   -0.3270    0.0820    3.4180 O   0  0  0  0  0  0  0  0  0  0  0  0
    2.4770    0.5350   -0.8930 H   0  0  0  0  0  0  0  0  0  0  0  0
    0.8640    1.4620   -0.9980 H   0  0  0  0  0  0  0  0  0  0  0  0
    2.4160    2.2830   -1.0410 H   0  0  0  0  0  0  0  0  0  0  0  0
    2.5960    2.3610    1.1880 H   0  0  0  0  0  0  0  0  0  0  0  0
    0.8550    2.0990    1.1800 H   0  0  0  0  0  0  0  0  0  0  0  0
    2.1070    0.7940    2.8240 H   0  0  0  0  0  0  0  0  0  0  0  0
    3.8320   -0.5760    2.4340 H   0  0  0  0  0  0  0  0  0  0  0  0
    4.1450    0.6630    1.0940 H   0  0  0  0  0  0  0  0  0  0  0  0
    3.3880   -0.9550    0.7710 H   0  0  0  0  0  0  0  0  0  0  0  0
    1.5720   -1.4970    2.4230 H   0  0  0  0  0  0  0  0  0  0  0  0
    0.5890   -0.8170   -0.3820 H   0  0  0  0  0  0  0  0  0  0  0  0
   -2.6250    1.7940    1.2240 C   0  0  0  0  0  0  0  0  0  0  0  0
   -3.4170    0.4940    1.1410 C   0  0  0  0  0  0  0  0  0  0  0  0
   -4.8050    0.7730    1.6010 C   0  0  0  0  0  0  0  0  0  0  0  0
   -2.7110   -0.5380    2.0030 C   0  0  2  0  0  0  0  0  0  0  0  0
   -1.3540   -0.7690    1.5380 N   0  0  0  0  0  0  0  0  0  0  0  0
   -3.4740   -1.7910    2.1290 C   0  0  0  0  0  0  0  0  0  0  0  0
   -4.6650   -1.8040    2.5140 O   0  0  0  0  0  0  0  0  0  0  0  0
   -2.8800   -3.0010    1.8180 O   0  0  0  0  0  0  0  0  0  0  0  0
   -2.4960    2.1220    2.2870 H   0  0  0  0  0  0  0  0  0  0  0  0
   -1.6380    1.6910    0.7060 H   0  0  0  0  0  0  0  0  0  0  0  0
   -3.1630    2.6190    0.7150 H   0  0  0  0  0  0  0  0  0  0  0  0
   -3.4250    0.2190    0.0650 H   0  0  0  0  0  0  0  0  0  0  0  0
   -5.0310    1.8600    1.5180 H   0  0  0  0  0  0  0  0  0  0  0  0
   -4.8750    0.5400    2.7020 H   0  0  0  0  0  0  0  0  0  0  0  0
   -5.5940    0.2580    1.0170 H   0  0  0  0  0  0  0  0  0  0  0  0
   -2.6250   -0.0740    3.0170 H   0  0  0  0  0  0  0  0  0  0  0  0
   -1.1910   -1.2040    0.5940 H   0  0  0  0  0  0  0  0  0  0  0  0
  1  7  1  0  0  0  0
  1  2  1  0  0  0  0
  2  9  1  1  0  0  0
  2  5  1  0  0  0  0
  3  2  1  0  0  0  0
  3 11  1  0  0  0  0
  4  3  1  0  0  0  0
  4 12  1  0  0  0  0
  5 18  1  0  0  0  0
  5  6  2  0  0  0  0
  8  1  1  0  0  0  0
 10  3  1  0  0  0  0
 13 14  1  0  0  0  0
 14 25  1  0  0  0  0
 14 24  1  0  0  0  0
 14 15  1  0  0  0  0
 15 26  1  1  0  0  0
 16 15  1  0  0  0  0
 16 27  1  0  0  0  0
 17 15  1  0  0  0  0
 17 19  1  0  0  0  0
 17 30  1  1  0  0  0
 18 17  1  0  0  0  0
 19 20  2  0  0  0  0
 21 13  1  0  0  0  0
 22 13  1  0  0  0  0
 23 13  1  0  0  0  0
 28 16  1  0  0  0  0
 29 16  1  0  0  0  0
 31 18  1  0  0  0  0
 32 40  1  0  0  0  0
 33 32  1  0  0  0  0
 33 34  1  0  0  0  0
 33 35  1  0  0  0  0
 34 45  1  0  0  0  0
 35 37  1  0  0  0  0
 35 47  1  1  0  0  0
 36 35  1  0  0  0  0
 36 19  1  0  0  0  0
 37 38  1  0  0  0  0
 39 37  2  0  0  0  0
 41 32  1  0  0  0  0
 42 32  1  0  0  0  0
 43 33  1  0  0  0  0
 44 34  1  0  0  0  0
 46 34  1  0  0  0  0
 48 36  1  0  0  0  0
M  END
$$$$
