CIW.pdb
 OpenBabel07022418283D

 56 57  0  0  1  0  0  0  0  0999 V2000
   -2.0890    0.1830    2.5880 N   0  0  0  0  0  0  0  0  0  0  0  0
   -1.3630    1.0530    1.6450 C   0  0  1  0  0  0  0  0  0  0  0  0
   -1.1580    2.3780    2.3180 C   0  0  0  0  0  0  0  0  0  0  0  0
   -2.8060    3.0620    2.7430 S   0  0  0  0  0  0  0  0  0  0  0  0
   -0.1510    0.4070    1.1760 C   0  0  0  0  0  0  0  0  0  0  0  0
    0.0100   -0.8250    1.4880 O   0  0  0  0  0  0  0  0  0  0  0  0
   -2.8140   -0.3910    2.1230 H   0  0  0  0  0  0  0  0  0  0  0  0
   -1.4170   -0.5080    3.0100 H   0  0  0  0  0  0  0  0  0  0  0  0
   -2.0390    1.2100    0.7870 H   0  0  0  0  0  0  0  0  0  0  0  0
   -0.6910    3.1290    1.6400 H   0  0  0  0  0  0  0  0  0  0  0  0
   -0.5780    2.3540    3.2290 H   0  0  0  0  0  0  0  0  0  0  0  0
   -3.4210    2.1500    3.6430 H   0  0  0  0  0  0  0  0  0  0  0  0
    4.3440    0.0610    3.0370 C   0  0  0  0  0  0  0  0  0  0  0  0
    2.9980   -0.0600    2.3150 C   0  0  0  0  0  0  0  0  0  0  0  0
    3.2080    0.4270    0.9020 C   0  0  2  0  0  0  0  0  0  0  0  0
    3.6810    1.8840    1.0180 C   0  0  0  0  0  0  0  0  0  0  0  0
    2.0460    0.3030   -0.0060 C   0  0  2  0  0  0  0  0  0  0  0  0
    0.8720    1.0140    0.4120 N   0  0  0  0  0  0  0  0  0  0  0  0
    1.8330   -1.0070   -0.6160 C   0  0  0  0  0  0  0  0  0  0  0  0
    2.7720   -1.8390   -0.6310 O   0  0  0  0  0  0  0  0  0  0  0  0
    4.4630    1.0970    3.4040 H   0  0  0  0  0  0  0  0  0  0  0  0
    4.4290   -0.6920    3.8500 H   0  0  0  0  0  0  0  0  0  0  0  0
    5.1370   -0.1040    2.2750 H   0  0  0  0  0  0  0  0  0  0  0  0
    2.2740    0.5500    2.8670 H   0  0  0  0  0  0  0  0  0  0  0  0
    2.6470   -1.0970    2.3330 H   0  0  0  0  0  0  0  0  0  0  0  0
    4.0900   -0.1110    0.4400 H   0  0  0  0  0  0  0  0  0  0  0  0
    4.6950    2.0320    0.6480 H   0  0  0  0  0  0  0  0  0  0  0  0
    3.5620    2.2820    2.0390 H   0  0  0  0  0  0  0  0  0  0  0  0
    3.0080    2.4920    0.3680 H   0  0  0  0  0  0  0  0  0  0  0  0
    2.3700    0.9320   -0.9510 H   0  0  0  0  0  0  0  0  0  0  0  0
    0.7020    2.0190    0.1820 H   0  0  0  0  0  0  0  0  0  0  0  0
    0.6080   -1.4260   -1.2250 N   0  0  0  0  0  0  0  0  0  0  0  0
    0.5160   -2.7270   -1.7920 C   0  0  1  0  0  0  0  0  0  0  0  0
   -0.7750   -3.3080   -2.1350 C   0  0  0  0  0  0  0  0  0  0  0  0
   -1.8160   -3.4760   -1.1380 C   0  0  0  0  0  0  0  0  0  0  0  0
   -2.1080   -4.5540   -0.3380 C   0  0  0  0  0  0  0  0  0  0  0  0
   -3.1600   -4.2660    0.4570 N   0  0  0  0  0  0  0  0  0  0  0  0
   -3.5680   -3.0070    0.1870 C   0  0  0  0  0  0  0  0  0  0  0  0
   -4.5880   -2.2030    0.6590 C   0  0  0  0  0  0  0  0  0  0  0  0
   -4.8530   -0.9370    0.2250 C   0  0  0  0  0  0  0  0  0  0  0  0
   -4.0230   -0.4320   -0.7670 C   0  0  0  0  0  0  0  0  0  0  0  0
   -2.9960   -1.2120   -1.2580 C   0  0  0  0  0  0  0  0  0  0  0  0
   -2.7510   -2.4980   -0.7960 C   0  0  0  0  0  0  0  0  0  0  0  0
    1.2810   -2.6870   -3.1500 C   0  0  0  0  0  0  0  0  0  0  0  0
    1.8220   -1.6290   -3.4890 O   0  0  0  0  0  0  0  0  0  0  0  0
    1.3450   -3.8040   -3.9420 O   0  0  0  0  0  0  0  0  0  0  0  0
   -0.1550   -0.7310   -1.2240 H   0  0  0  0  0  0  0  0  0  0  0  0
    1.1680   -3.4650   -1.2490 H   0  0  0  0  0  0  0  0  0  0  0  0
   -1.2270   -2.7540   -3.0150 H   0  0  0  0  0  0  0  0  0  0  0  0
   -0.5700   -4.3530   -2.5610 H   0  0  0  0  0  0  0  0  0  0  0  0
   -1.6000   -5.5140   -0.3080 H   0  0  0  0  0  0  0  0  0  0  0  0
   -3.6340   -4.8760    1.1850 H   0  0  0  0  0  0  0  0  0  0  0  0
   -5.2270   -2.6100    1.4350 H   0  0  0  0  0  0  0  0  0  0  0  0
   -5.6560   -0.3090    0.6000 H   0  0  0  0  0  0  0  0  0  0  0  0
   -4.1960    0.5740   -1.1420 H   0  0  0  0  0  0  0  0  0  0  0  0
   -2.3480   -0.8260   -2.0450 H   0  0  0  0  0  0  0  0  0  0  0  0
  1  8  1  0  0  0  0
  2  9  1  6  0  0  0
  2  3  1  0  0  0  0
  2  1  1  0  0  0  0
  3  4  1  0  0  0  0
  3 11  1  0  0  0  0
  4 12  1  0  0  0  0
  5  6  2  0  0  0  0
  5  2  1  0  0  0  0
  7  1  1  0  0  0  0
 10  3  1  0  0  0  0
 13 21  1  0  0  0  0
 13 22  1  0  0  0  0
 14 25  1  0  0  0  0
 14 24  1  0  0  0  0
 14 13  1  0  0  0  0
 15 26  1  6  0  0  0
 15 16  1  0  0  0  0
 15 14  1  0  0  0  0
 16 28  1  0  0  0  0
 17 30  1  6  0  0  0
 17 18  1  0  0  0  0
 17 15  1  0  0  0  0
 18  5  1  0  0  0  0
 19 17  1  0  0  0  0
 20 19  2  0  0  0  0
 23 13  1  0  0  0  0
 27 16  1  0  0  0  0
 29 16  1  0  0  0  0
 31 18  1  0  0  0  0
 32 47  1  0  0  0  0
 32 19  1  0  0  0  0
 33 48  1  1  0  0  0
 33 32  1  0  0  0  0
 34 33  1  0  0  0  0
 34 35  1  0  0  0  0
 35 43  1  0  0  0  0
 35 36  2  0  0  0  0
 36 51  1  0  0  0  0
 36 37  1  0  0  0  0
 37 52  1  0  0  0  0
 38 37  1  0  0  0  0
 38 39  1  0  0  0  0
 39 53  1  0  0  0  0
 40 54  1  0  0  0  0
 40 39  2  0  0  0  0
 41 40  1  0  0  0  0
 42 43  1  0  0  0  0
 42 41  2  0  0  0  0
 43 38  2  0  0  0  0
 44 33  1  0  0  0  0
 45 44  1  0  0  0  0
 46 44  2  0  0  0  0
 49 34  1  0  0  0  0
 50 34  1  0  0  0  0
 55 41  1  0  0  0  0
 56 42  1  0  0  0  0
M  END
$$$$
