CIY.pdb
 OpenBabel07022418283D

 53 53  0  0  1  0  0  0  0  0999 V2000
   -0.0990   -3.0270    5.1040 N   0  0  0  0  0  0  0  0  0  0  0  0
    0.6100   -3.0420    3.8620 C   0  0  1  0  0  0  0  0  0  0  0  0
    0.1970   -4.2130    2.9870 C   0  0  0  0  0  0  0  0  0  0  0  0
    0.5090   -5.7910    3.7850 S   0  0  0  0  0  0  0  0  0  0  0  0
    0.5060   -1.7620    3.1160 C   0  0  0  0  0  0  0  0  0  0  0  0
   -0.1420   -0.7750    3.5420 O   0  0  0  0  0  0  0  0  0  0  0  0
    0.5690   -2.9700    5.9220 H   0  0  0  0  0  0  0  0  0  0  0  0
   -0.5850   -3.9400    5.2130 H   0  0  0  0  0  0  0  0  0  0  0  0
    1.7010   -3.1910    4.0690 H   0  0  0  0  0  0  0  0  0  0  0  0
    0.7490   -4.1730    2.0290 H   0  0  0  0  0  0  0  0  0  0  0  0
   -0.9090   -4.1120    2.8440 H   0  0  0  0  0  0  0  0  0  0  0  0
   -0.5390   -6.6950    3.6430 H   0  0  0  0  0  0  0  0  0  0  0  0
    3.9600    2.0820    0.4600 C   0  0  0  0  0  0  0  0  0  0  0  0
    2.5610    1.4890    0.2720 C   0  0  0  0  0  0  0  0  0  0  0  0
    2.4470    0.1920    1.0180 C   0  0  2  0  0  0  0  0  0  0  0  0
    3.4860   -0.7510    0.4530 C   0  0  0  0  0  0  0  0  0  0  0  0
    1.0740   -0.3730    1.1020 C   0  0  2  0  0  0  0  0  0  0  0  0
    1.1600   -1.6380    1.8710 N   0  0  0  0  0  0  0  0  0  0  0  0
    0.4070   -0.6520   -0.1770 C   0  0  0  0  0  0  0  0  0  0  0  0
    0.1250   -1.8530   -0.5320 O   0  0  0  0  0  0  0  0  0  0  0  0
    4.6930    1.6170   -0.2270 H   0  0  0  0  0  0  0  0  0  0  0  0
    3.8920    3.1510    0.1620 H   0  0  0  0  0  0  0  0  0  0  0  0
    4.2620    2.0550    1.5170 H   0  0  0  0  0  0  0  0  0  0  0  0
    1.8580    2.2660    0.5590 H   0  0  0  0  0  0  0  0  0  0  0  0
    2.5440    1.2180   -0.8250 H   0  0  0  0  0  0  0  0  0  0  0  0
    2.7940    0.3730    2.0850 H   0  0  0  0  0  0  0  0  0  0  0  0
    3.4080   -0.8520   -0.6580 H   0  0  0  0  0  0  0  0  0  0  0  0
    4.4770   -0.2310    0.6120 H   0  0  0  0  0  0  0  0  0  0  0  0
    3.5620   -1.7010    0.9810 H   0  0  0  0  0  0  0  0  0  0  0  0
    0.4480    0.3040    1.7070 H   0  0  0  0  0  0  0  0  0  0  0  0
    1.7120   -2.4120    1.4570 H   0  0  0  0  0  0  0  0  0  0  0  0
   -5.4610   -1.1630    1.5900 O   0  0  0  0  0  0  0  0  0  0  0  0
   -4.5960   -0.6880    0.6200 C   0  0  0  0  0  0  0  0  0  0  0  0
   -3.8170    0.4230    0.8500 C   0  0  0  0  0  0  0  0  0  0  0  0
   -2.9740    0.8700   -0.1210 C   0  0  0  0  0  0  0  0  0  0  0  0
   -2.8880    0.2250   -1.3360 C   0  0  0  0  0  0  0  0  0  0  0  0
   -2.0010    0.6530   -2.4270 C   0  0  0  0  0  0  0  0  0  0  0  0
   -0.6340    0.0090   -2.3580 C   0  0  2  0  0  0  0  0  0  0  0  0
    0.0300    0.3550   -1.0940 N   0  0  0  0  0  0  0  0  0  0  0  0
    0.1640    0.5750   -3.4570 C   0  0  0  0  0  0  0  0  0  0  0  0
    1.2030    1.2200   -3.2080 O   0  0  0  0  0  0  0  0  0  0  0  0
   -3.6760   -0.8940   -1.5580 C   0  0  0  0  0  0  0  0  0  0  0  0
   -4.5320   -1.3540   -0.5830 C   0  0  0  0  0  0  0  0  0  0  0  0
   -0.2390    0.3900   -4.7690 O   0  0  0  0  0  0  0  0  0  0  0  0
   -6.4430   -1.3130    1.3470 H   0  0  0  0  0  0  0  0  0  0  0  0
   -3.8460    0.9670    1.7870 H   0  0  0  0  0  0  0  0  0  0  0  0
   -2.3260    1.7480   -0.0050 H   0  0  0  0  0  0  0  0  0  0  0  0
   -2.4430    0.3740   -3.3950 H   0  0  0  0  0  0  0  0  0  0  0  0
   -1.8290    1.7560   -2.4110 H   0  0  0  0  0  0  0  0  0  0  0  0
   -0.7190   -1.0820   -2.3880 H   0  0  0  0  0  0  0  0  0  0  0  0
    0.2080    1.3840   -0.8820 H   0  0  0  0  0  0  0  0  0  0  0  0
   -3.6360   -1.4330   -2.5120 H   0  0  0  0  0  0  0  0  0  0  0  0
   -5.1470   -2.2420   -0.7820 H   0  0  0  0  0  0  0  0  0  0  0  0
  1  8  1  0  0  0  0
  1  7  1  0  0  0  0
  2  9  1  1  0  0  0
  2  1  1  0  0  0  0
  3  4  1  0  0  0  0
  3  2  1  0  0  0  0
  5  6  2  0  0  0  0
  5  2  1  0  0  0  0
 10  3  1  0  0  0  0
 11  3  1  0  0  0  0
 12  4  1  0  0  0  0
 13 23  1  0  0  0  0
 14 13  1  0  0  0  0
 14 24  1  0  0  0  0
 14 15  1  0  0  0  0
 15 17  1  0  0  0  0
 15 26  1  1  0  0  0
 16 28  1  0  0  0  0
 16 29  1  0  0  0  0
 16 15  1  0  0  0  0
 17 30  1  1  0  0  0
 17 18  1  0  0  0  0
 18  5  1  0  0  0  0
 19 17  1  0  0  0  0
 20 19  2  0  0  0  0
 21 13  1  0  0  0  0
 22 13  1  0  0  0  0
 25 14  1  0  0  0  0
 27 16  1  0  0  0  0
 31 18  1  0  0  0  0
 33 34  1  0  0  0  0
 33 32  1  0  0  0  0
 34 46  1  0  0  0  0
 35 47  1  0  0  0  0
 35 34  2  0  0  0  0
 36 35  1  0  0  0  0
 37 49  1  0  0  0  0
 37 38  1  0  0  0  0
 37 36  1  0  0  0  0
 38 50  1  6  0  0  0
 38 39  1  0  0  0  0
 39 51  1  0  0  0  0
 39 19  1  0  0  0  0
 40 41  1  0  0  0  0
 40 38  1  0  0  0  0
 42 36  2  0  0  0  0
 42 43  1  0  0  0  0
 43 33  2  0  0  0  0
 44 40  2  0  0  0  0
 45 32  1  0  0  0  0
 48 37  1  0  0  0  0
 52 42  1  0  0  0  0
 53 43  1  0  0  0  0
M  END
$$$$
