CKA.pdb
 OpenBabel07022418283D

 44 43  0  0  1  0  0  0  0  0999 V2000
    1.4150   -4.5100    2.6990 N   0  0  0  0  0  0  0  0  0  0  0  0
    1.0980   -3.9900    1.3630 C   0  0  1  0  0  0  0  0  0  0  0  0
   -0.2180   -4.5360    0.9500 C   0  0  0  0  0  0  0  0  0  0  0  0
   -0.7920   -4.0590   -0.6760 S   0  0  0  0  0  0  0  0  0  0  0  0
    1.2340   -2.5470    1.4110 C   0  0  0  0  0  0  0  0  0  0  0  0
    1.6370   -1.9940    2.5040 O   0  0  0  0  0  0  0  0  0  0  0  0
    0.5370   -4.4980    3.2440 H   0  0  0  0  0  0  0  0  0  0  0  0
    2.1030   -3.8640    3.1310 H   0  0  0  0  0  0  0  0  0  0  0  0
    1.8780   -4.4250    0.6920 H   0  0  0  0  0  0  0  0  0  0  0  0
   -1.0040   -4.2480    1.6960 H   0  0  0  0  0  0  0  0  0  0  0  0
   -0.1390   -5.6520    0.9940 H   0  0  0  0  0  0  0  0  0  0  0  0
    0.1830   -4.2260   -1.6570 H   0  0  0  0  0  0  0  0  0  0  0  0
    0.9690   -1.6660    0.3580 N   0  0  0  0  0  0  0  0  0  0  0  0
    1.1510   -0.1920    0.4850 C   0  0  1  0  0  0  0  0  0  0  0  0
    1.9710    0.3140   -0.6370 C   0  0  0  0  0  0  0  0  0  0  0  0
    2.3320    1.7290   -0.7200 C   0  0  0  0  0  0  0  0  0  0  0  0
    3.1930    2.3830    0.2560 C   0  0  0  0  0  0  0  0  0  0  0  0
    2.9030    2.5080    1.6790 C   0  0  0  0  0  0  0  0  0  0  0  0
    1.6970    3.2380    2.0220 N   0  0  0  0  0  0  0  0  0  0  0  0
   -0.2140    0.3910    0.5410 C   0  0  0  0  0  0  0  0  0  0  0  0
   -0.4110    1.6250    0.5370 O   0  0  0  0  0  0  0  0  0  0  0  0
    0.6370   -2.0260   -0.5530 H   0  0  0  0  0  0  0  0  0  0  0  0
    1.6060   -0.0510    1.4660 H   0  0  0  0  0  0  0  0  0  0  0  0
    1.3470    0.0910   -1.5720 H   0  0  0  0  0  0  0  0  0  0  0  0
    2.8560   -0.3820   -0.8470 H   0  0  0  0  0  0  0  0  0  0  0  0
    2.8200    1.9270   -1.7390 H   0  0  0  0  0  0  0  0  0  0  0  0
    1.3500    2.3010   -0.8800 H   0  0  0  0  0  0  0  0  0  0  0  0
    3.3390    3.4560   -0.1300 H   0  0  0  0  0  0  0  0  0  0  0  0
    4.2740    2.0070    0.1570 H   0  0  0  0  0  0  0  0  0  0  0  0
    2.9420    1.6130    2.3160 H   0  0  0  0  0  0  0  0  0  0  0  0
    3.7230    3.1680    2.1580 H   0  0  0  0  0  0  0  0  0  0  0  0
    1.7270    3.6390    2.9720 H   0  0  0  0  0  0  0  0  0  0  0  0
    1.5680    4.0570    1.3600 H   0  0  0  0  0  0  0  0  0  0  0  0
   -3.4530   -0.2010   -0.6030 C   0  0  0  0  0  0  0  0  0  0  0  0
   -2.6910    0.2040    0.6560 C   0  0  2  0  0  0  0  0  0  0  0  0
   -1.3650   -0.4370    0.6040 N   0  0  0  0  0  0  0  0  0  0  0  0
   -3.4660   -0.3190    1.8110 C   0  0  0  0  0  0  0  0  0  0  0  0
   -3.0330   -1.1740    2.6020 O   0  0  0  0  0  0  0  0  0  0  0  0
   -4.7360    0.1790    2.0050 O   0  0  0  0  0  0  0  0  0  0  0  0
   -3.2270   -1.2610   -0.8710 H   0  0  0  0  0  0  0  0  0  0  0  0
   -3.0410    0.4530   -1.4190 H   0  0  0  0  0  0  0  0  0  0  0  0
   -4.5180    0.0180   -0.5150 H   0  0  0  0  0  0  0  0  0  0  0  0
   -2.6050    1.2920    0.6380 H   0  0  0  0  0  0  0  0  0  0  0  0
   -1.3200   -1.4790    0.6200 H   0  0  0  0  0  0  0  0  0  0  0  0
  1  8  1  0  0  0  0
  1  7  1  0  0  0  0
  2  9  1  6  0  0  0
  2  5  1  0  0  0  0
  2  1  1  0  0  0  0
  3 11  1  0  0  0  0
  3  2  1  0  0  0  0
  3 10  1  0  0  0  0
  4  3  1  0  0  0  0
  5  6  2  0  0  0  0
 12  4  1  0  0  0  0
 13 14  1  0  0  0  0
 13  5  1  0  0  0  0
 14 20  1  0  0  0  0
 14 23  1  1  0  0  0
 15 14  1  0  0  0  0
 16 15  1  0  0  0  0
 16 17  1  0  0  0  0
 17 18  1  0  0  0  0
 18 19  1  0  0  0  0
 18 31  1  0  0  0  0
 18 30  1  0  0  0  0
 19 32  1  0  0  0  0
 20 36  1  0  0  0  0
 21 20  2  0  0  0  0
 22 13  1  0  0  0  0
 24 15  1  0  0  0  0
 25 15  1  0  0  0  0
 26 16  1  0  0  0  0
 27 16  1  0  0  0  0
 28 17  1  0  0  0  0
 29 17  1  0  0  0  0
 33 19  1  0  0  0  0
 34 42  1  0  0  0  0
 34 35  1  0  0  0  0
 35 43  1  1  0  0  0
 35 37  1  0  0  0  0
 36 44  1  0  0  0  0
 36 35  1  0  0  0  0
 37 39  2  0  0  0  0
 37 38  1  0  0  0  0
 40 34  1  0  0  0  0
 41 34  1  0  0  0  0
M  END
$$$$
