CKC.pdb
 OpenBabel07022418283D

 45 44  0  0  1  0  0  0  0  0999 V2000
    0.2020   -3.8880    0.6680 N   0  0  0  0  0  0  0  0  0  0  0  0
    0.4360   -3.8520    2.1010 C   0  0  1  0  0  0  0  0  0  0  0  0
    1.5820   -4.7700    2.4480 C   0  0  0  0  0  0  0  0  0  0  0  0
    3.1180   -4.3250    1.6410 S   0  0  0  0  0  0  0  0  0  0  0  0
    0.6810   -2.4530    2.4780 C   0  0  0  0  0  0  0  0  0  0  0  0
    0.9200   -2.0750    3.6590 O   0  0  0  0  0  0  0  0  0  0  0  0
   -0.5060   -4.6060    0.4640 H   0  0  0  0  0  0  0  0  0  0  0  0
    1.1030   -4.1790    0.2270 H   0  0  0  0  0  0  0  0  0  0  0  0
   -0.4520   -4.2260    2.6460 H   0  0  0  0  0  0  0  0  0  0  0  0
    1.6670   -4.8890    3.5470 H   0  0  0  0  0  0  0  0  0  0  0  0
    1.2880   -5.7870    2.0680 H   0  0  0  0  0  0  0  0  0  0  0  0
    2.8950   -3.3270    0.7020 H   0  0  0  0  0  0  0  0  0  0  0  0
    0.6710   -1.3850    1.5400 N   0  0  0  0  0  0  0  0  0  0  0  0
    0.8970   -0.0220    1.8260 C   0  0  1  0  0  0  0  0  0  0  0  0
    1.9520    0.6750    1.0450 C   0  0  0  0  0  0  0  0  0  0  0  0
    1.7040    0.6840   -0.4410 C   0  0  0  0  0  0  0  0  0  0  0  0
    2.7910    1.3970   -1.2030 C   0  0  0  0  0  0  0  0  0  0  0  0
    2.9360    2.8370   -0.7920 C   0  0  0  0  0  0  0  0  0  0  0  0
    1.7110    3.5830   -1.0160 N   0  0  0  0  0  0  0  0  0  0  0  0
   -0.3850    0.7000    1.5970 C   0  0  0  0  0  0  0  0  0  0  0  0
   -0.5090    1.9350    1.7670 O   0  0  0  0  0  0  0  0  0  0  0  0
    0.4720   -1.6690    0.5330 H   0  0  0  0  0  0  0  0  0  0  0  0
    1.0850    0.0680    2.9290 H   0  0  0  0  0  0  0  0  0  0  0  0
    1.9710    1.7360    1.3720 H   0  0  0  0  0  0  0  0  0  0  0  0
    2.9710    0.2860    1.1860 H   0  0  0  0  0  0  0  0  0  0  0  0
    1.6560   -0.3540   -0.8630 H   0  0  0  0  0  0  0  0  0  0  0  0
    0.7460    1.1590   -0.7210 H   0  0  0  0  0  0  0  0  0  0  0  0
    2.4960    1.3850   -2.2760 H   0  0  0  0  0  0  0  0  0  0  0  0
    3.7780    0.9080   -1.0880 H   0  0  0  0  0  0  0  0  0  0  0  0
    3.7020    3.2910   -1.4580 H   0  0  0  0  0  0  0  0  0  0  0  0
    3.2720    2.8950    0.2660 H   0  0  0  0  0  0  0  0  0  0  0  0
    1.1180    3.6520   -0.1630 H   0  0  0  0  0  0  0  0  0  0  0  0
    1.1690    3.1740   -1.8080 H   0  0  0  0  0  0  0  0  0  0  0  0
   -1.5520    0.0100    1.1670 N   0  0  0  0  0  0  0  0  0  0  0  0
   -2.7850    0.6910    0.9440 C   0  0  1  0  0  0  0  0  0  0  0  0
   -3.1600    0.4590   -0.5270 C   0  0  0  0  0  0  0  0  0  0  0  0
   -3.3500   -1.3020   -0.8700 S   0  0  0  0  0  0  0  0  0  0  0  0
   -3.8480    0.0320    1.7400 C   0  0  0  0  0  0  0  0  0  0  0  0
   -5.0200    0.4430    1.7160 O   0  0  0  0  0  0  0  0  0  0  0  0
   -3.5440   -1.0630    2.5300 O   0  0  0  0  0  0  0  0  0  0  0  0
   -1.5460   -1.0340    0.9960 H   0  0  0  0  0  0  0  0  0  0  0  0
   -2.7260    1.7760    1.1390 H   0  0  0  0  0  0  0  0  0  0  0  0
   -2.3440    0.8420   -1.1950 H   0  0  0  0  0  0  0  0  0  0  0  0
   -4.0800    0.9760   -0.7960 H   0  0  0  0  0  0  0  0  0  0  0  0
   -2.0990   -1.9280   -1.0010 H   0  0  0  0  0  0  0  0  0  0  0  0
  1  2  1  0  0  0  0
  2  3  1  0  0  0  0
  2  5  1  0  0  0  0
  2  9  1  1  0  0  0
  3 10  1  0  0  0  0
  4  3  1  0  0  0  0
  5  6  2  0  0  0  0
  7  1  1  0  0  0  0
  8  1  1  0  0  0  0
 11  3  1  0  0  0  0
 12  4  1  0  0  0  0
 13 14  1  0  0  0  0
 13  5  1  0  0  0  0
 14 23  1  1  0  0  0
 15 25  1  0  0  0  0
 15 24  1  0  0  0  0
 15 14  1  0  0  0  0
 16 15  1  0  0  0  0
 17 29  1  0  0  0  0
 17 18  1  0  0  0  0
 17 16  1  0  0  0  0
 18 31  1  0  0  0  0
 19 18  1  0  0  0  0
 19 32  1  0  0  0  0
 20 21  2  0  0  0  0
 20 14  1  0  0  0  0
 22 13  1  0  0  0  0
 26 16  1  0  0  0  0
 27 16  1  0  0  0  0
 28 17  1  0  0  0  0
 30 18  1  0  0  0  0
 33 19  1  0  0  0  0
 34 20  1  0  0  0  0
 35 42  1  1  0  0  0
 35 34  1  0  0  0  0
 35 38  1  0  0  0  0
 36 35  1  0  0  0  0
 37 36  1  0  0  0  0
 38 40  1  0  0  0  0
 39 38  2  0  0  0  0
 41 34  1  0  0  0  0
 43 36  1  0  0  0  0
 44 36  1  0  0  0  0
 45 37  1  0  0  0  0
M  END
$$$$
