CKE.pdb
 OpenBabel07022418283D

 50 49  0  0  1  0  0  0  0  0999 V2000
    4.1020   -2.1360    3.5470 N   0  0  0  0  0  0  0  0  0  0  0  0
    3.2200   -2.4640    2.4700 C   0  0  1  0  0  0  0  0  0  0  0  0
    2.5190   -3.7940    2.6830 C   0  0  0  0  0  0  0  0  0  0  0  0
    3.7200   -5.1440    2.8210 S   0  0  0  0  0  0  0  0  0  0  0  0
    2.2390   -1.3850    2.1840 C   0  0  0  0  0  0  0  0  0  0  0  0
    2.2340   -0.3090    2.8630 O   0  0  0  0  0  0  0  0  0  0  0  0
    3.7080   -1.4310    4.2070 H   0  0  0  0  0  0  0  0  0  0  0  0
    4.5060   -2.9610    4.0070 H   0  0  0  0  0  0  0  0  0  0  0  0
    3.8430   -2.5900    1.5530 H   0  0  0  0  0  0  0  0  0  0  0  0
    2.0030   -3.7090    3.6690 H   0  0  0  0  0  0  0  0  0  0  0  0
    1.8210   -3.9960    1.8580 H   0  0  0  0  0  0  0  0  0  0  0  0
    5.0330   -4.6760    2.9410 H   0  0  0  0  0  0  0  0  0  0  0  0
    1.2780   -1.5190    1.1460 N   0  0  0  0  0  0  0  0  0  0  0  0
    0.3060   -0.4870    0.8390 C   0  0  1  0  0  0  0  0  0  0  0  0
    0.3110   -0.1260   -0.6190 C   0  0  0  0  0  0  0  0  0  0  0  0
    1.6170    0.3920   -1.1170 C   0  0  0  0  0  0  0  0  0  0  0  0
    2.1150    1.6240   -0.4540 C   0  0  0  0  0  0  0  0  0  0  0  0
    3.4410    2.0040   -1.0790 C   0  0  0  0  0  0  0  0  0  0  0  0
    4.4410    0.9730   -0.9330 N   0  0  0  0  0  0  0  0  0  0  0  0
   -1.0700   -1.0360    1.1430 C   0  0  0  0  0  0  0  0  0  0  0  0
   -1.2190   -2.1910    1.5720 O   0  0  0  0  0  0  0  0  0  0  0  0
    1.3000   -2.4110    0.6010 H   0  0  0  0  0  0  0  0  0  0  0  0
    0.4640    0.3420    1.5260 H   0  0  0  0  0  0  0  0  0  0  0  0
    0.0800   -1.0550   -1.1850 H   0  0  0  0  0  0  0  0  0  0  0  0
   -0.5070    0.5830   -0.8570 H   0  0  0  0  0  0  0  0  0  0  0  0
    1.5220    0.5920   -2.2040 H   0  0  0  0  0  0  0  0  0  0  0  0
    2.4030   -0.3930   -1.0220 H   0  0  0  0  0  0  0  0  0  0  0  0
    1.4640    2.4940   -0.5230 H   0  0  0  0  0  0  0  0  0  0  0  0
    2.3430    1.3700    0.6190 H   0  0  0  0  0  0  0  0  0  0  0  0
    3.7850    2.9290   -0.6110 H   0  0  0  0  0  0  0  0  0  0  0  0
    3.2290    2.2090   -2.1550 H   0  0  0  0  0  0  0  0  0  0  0  0
    5.3760    1.4460   -1.0170 H   0  0  0  0  0  0  0  0  0  0  0  0
    4.4060    0.2490   -1.6710 H   0  0  0  0  0  0  0  0  0  0  0  0
   -2.1850   -0.2050    0.9280 N   0  0  0  0  0  0  0  0  0  0  0  0
   -3.5580   -0.4890    1.1500 C   0  0  1  0  0  0  0  0  0  0  0  0
   -4.3020   -1.0980    0.0190 C   0  0  0  0  0  0  0  0  0  0  0  0
   -4.3580   -0.3040   -1.2380 C   0  0  0  0  0  0  0  0  0  0  0  0
   -4.9930    1.0110   -1.1410 C   0  0  0  0  0  0  0  0  0  0  0  0
   -5.4990    1.5370   -0.1360 O   0  0  0  0  0  0  0  0  0  0  0  0
   -3.8460   -1.2470    2.4180 C   0  0  0  0  0  0  0  0  0  0  0  0
   -4.9990   -1.6720    2.6720 O   0  0  0  0  0  0  0  0  0  0  0  0
   -5.0420    1.7810   -2.3190 O   0  0  0  0  0  0  0  0  0  0  0  0
   -2.8280   -1.4680    3.3050 O   0  0  0  0  0  0  0  0  0  0  0  0
   -1.9740    0.7660    0.5450 H   0  0  0  0  0  0  0  0  0  0  0  0
   -4.0670    0.5250    1.3770 H   0  0  0  0  0  0  0  0  0  0  0  0
   -5.3470   -1.2960    0.3670 H   0  0  0  0  0  0  0  0  0  0  0  0
   -3.8960   -2.1010   -0.2390 H   0  0  0  0  0  0  0  0  0  0  0  0
   -4.9780   -0.9080   -1.9650 H   0  0  0  0  0  0  0  0  0  0  0  0
   -3.3620   -0.2110   -1.7390 H   0  0  0  0  0  0  0  0  0  0  0  0
   -5.5840    2.6400   -2.3480 H   0  0  0  0  0  0  0  0  0  0  0  0
  1  8  1  0  0  0  0
  1  7  1  0  0  0  0
  2  9  1  6  0  0  0
  2  3  1  0  0  0  0
  2  1  1  0  0  0  0
  3  4  1  0  0  0  0
  3 10  1  0  0  0  0
  4 12  1  0  0  0  0
  5  2  1  0  0  0  0
  5  6  2  0  0  0  0
 11  3  1  0  0  0  0
 13  5  1  0  0  0  0
 14 20  1  0  0  0  0
 14 13  1  0  0  0  0
 14 23  1  1  0  0  0
 15 14  1  0  0  0  0
 16 27  1  0  0  0  0
 16 15  1  0  0  0  0
 16 17  1  0  0  0  0
 17 29  1  0  0  0  0
 18 19  1  0  0  0  0
 18 30  1  0  0  0  0
 18 17  1  0  0  0  0
 20 21  2  0  0  0  0
 22 13  1  0  0  0  0
 24 15  1  0  0  0  0
 25 15  1  0  0  0  0
 26 16  1  0  0  0  0
 28 17  1  0  0  0  0
 31 18  1  0  0  0  0
 32 19  1  0  0  0  0
 33 19  1  0  0  0  0
 34 20  1  0  0  0  0
 34 35  1  0  0  0  0
 35 45  1  1  0  0  0
 35 40  1  0  0  0  0
 36 46  1  0  0  0  0
 36 35  1  0  0  0  0
 37 38  1  0  0  0  0
 37 36  1  0  0  0  0
 38 39  2  0  0  0  0
 40 41  2  0  0  0  0
 40 43  1  0  0  0  0
 42 38  1  0  0  0  0
 44 34  1  0  0  0  0
 47 36  1  0  0  0  0
 48 37  1  0  0  0  0
 49 37  1  0  0  0  0
 50 42  1  0  0  0  0
M  END
$$$$
