CKG.pdb
 OpenBabel07022418283D

 41 40  0  0  1  0  0  0  0  0999 V2000
   -0.9770   -1.8870    4.4240 N   0  0  0  0  0  0  0  0  0  0  0  0
   -1.9790   -1.4910    3.4380 C   0  0  1  0  0  0  0  0  0  0  0  0
   -2.6420   -0.2230    3.9940 C   0  0  0  0  0  0  0  0  0  0  0  0
   -3.9170    0.3740    2.8520 S   0  0  0  0  0  0  0  0  0  0  0  0
   -1.2990   -1.0760    2.1750 C   0  0  0  0  0  0  0  0  0  0  0  0
   -1.9780   -0.7000    1.2000 O   0  0  0  0  0  0  0  0  0  0  0  0
   -0.5100   -1.0210    4.7830 H   0  0  0  0  0  0  0  0  0  0  0  0
   -1.4890   -2.3260    5.2110 H   0  0  0  0  0  0  0  0  0  0  0  0
   -2.7220   -2.2790    3.2810 H   0  0  0  0  0  0  0  0  0  0  0  0
   -1.8850    0.5670    4.1640 H   0  0  0  0  0  0  0  0  0  0  0  0
   -3.1250   -0.4230    4.9710 H   0  0  0  0  0  0  0  0  0  0  0  0
   -3.3750    1.2380    1.9090 H   0  0  0  0  0  0  0  0  0  0  0  0
    0.1030   -1.0960    2.0480 N   0  0  0  0  0  0  0  0  0  0  0  0
    0.8030   -0.6870    0.8010 C   0  0  1  0  0  0  0  0  0  0  0  0
    1.6440    0.5080    1.1220 C   0  0  0  0  0  0  0  0  0  0  0  0
    2.3960    1.0800   -0.0030 C   0  0  0  0  0  0  0  0  0  0  0  0
    1.5470    1.5800   -1.1420 C   0  0  0  0  0  0  0  0  0  0  0  0
    0.6060    2.6870   -0.6880 C   0  0  0  0  0  0  0  0  0  0  0  0
   -0.1950    3.1440   -1.8090 N   0  0  0  0  0  0  0  0  0  0  0  0
    1.5310   -1.8560    0.2710 C   0  0  0  0  0  0  0  0  0  0  0  0
    1.6240   -2.9040    1.0180 O   0  0  0  0  0  0  0  0  0  0  0  0
    0.6710   -1.4090    2.8610 H   0  0  0  0  0  0  0  0  0  0  0  0
    0.0150   -0.4060    0.1050 H   0  0  0  0  0  0  0  0  0  0  0  0
    2.3910    0.2820    1.9400 H   0  0  0  0  0  0  0  0  0  0  0  0
    0.9560    1.2450    1.6210 H   0  0  0  0  0  0  0  0  0  0  0  0
    3.1410    0.3810   -0.3880 H   0  0  0  0  0  0  0  0  0  0  0  0
    2.9830    1.9850    0.3500 H   0  0  0  0  0  0  0  0  0  0  0  0
    2.2270    2.0160   -1.9010 H   0  0  0  0  0  0  0  0  0  0  0  0
    0.9450    0.8070   -1.6460 H   0  0  0  0  0  0  0  0  0  0  0  0
    1.1690    3.5700   -0.3140 H   0  0  0  0  0  0  0  0  0  0  0  0
   -0.0500    2.3450    0.1200 H   0  0  0  0  0  0  0  0  0  0  0  0
   -0.2240    2.3680   -2.5170 H   0  0  0  0  0  0  0  0  0  0  0  0
   -1.1850    3.2860   -1.5090 H   0  0  0  0  0  0  0  0  0  0  0  0
    2.1530   -1.9790   -0.9850 N   0  0  0  0  0  0  0  0  0  0  0  0
    2.8410   -3.2380   -1.3330 C   0  0  0  0  0  0  0  0  0  0  0  0
    1.8810   -4.3490   -1.3170 C   0  0  0  0  0  0  0  0  0  0  0  0
    0.6690   -4.1500   -1.0590 O   0  0  0  0  0  0  0  0  0  0  0  0
    2.2930   -5.6290   -1.5850 O   0  0  0  0  0  0  0  0  0  0  0  0
    2.1150   -1.2020   -1.6650 H   0  0  0  0  0  0  0  0  0  0  0  0
    3.6090   -3.4540   -0.5350 H   0  0  0  0  0  0  0  0  0  0  0  0
    3.4020   -3.1240   -2.2630 H   0  0  0  0  0  0  0  0  0  0  0  0
  1  7  1  0  0  0  0
  1  8  1  0  0  0  0
  2  9  1  6  0  0  0
  2  3  1  0  0  0  0
  2  1  1  0  0  0  0
  3 10  1  0  0  0  0
  3 11  1  0  0  0  0
  4  3  1  0  0  0  0
  5  2  1  0  0  0  0
  6  5  2  0  0  0  0
 12  4  1  0  0  0  0
 13  5  1  0  0  0  0
 13 22  1  0  0  0  0
 14 23  1  6  0  0  0
 14 15  1  0  0  0  0
 14 13  1  0  0  0  0
 15 25  1  0  0  0  0
 15 24  1  0  0  0  0
 16 27  1  0  0  0  0
 16 15  1  0  0  0  0
 17 18  1  0  0  0  0
 17 16  1  0  0  0  0
 18 30  1  0  0  0  0
 18 31  1  0  0  0  0
 19 33  1  0  0  0  0
 19 18  1  0  0  0  0
 20 14  1  0  0  0  0
 20 21  2  0  0  0  0
 26 16  1  0  0  0  0
 28 17  1  0  0  0  0
 29 17  1  0  0  0  0
 32 19  1  0  0  0  0
 34 20  1  0  0  0  0
 35 36  1  0  0  0  0
 35 34  1  0  0  0  0
 35 40  1  0  0  0  0
 36 37  1  0  0  0  0
 38 36  2  0  0  0  0
 39 34  1  0  0  0  0
 41 35  1  0  0  0  0
M  END
$$$$
