CKI.pdb
 OpenBabel07022418283D

 53 52  0  0  1  0  0  0  0  0999 V2000
    3.7500   -2.9730    1.4310 N   0  0  0  0  0  0  0  0  0  0  0  0
    2.9900   -2.2210    0.4280 C   0  0  1  0  0  0  0  0  0  0  0  0
    2.4120   -3.2240   -0.5220 C   0  0  0  0  0  0  0  0  0  0  0  0
    1.4470   -2.5290   -1.8600 S   0  0  0  0  0  0  0  0  0  0  0  0
    1.9820   -1.4220    1.1450 C   0  0  0  0  0  0  0  0  0  0  0  0
    1.9270   -1.5020    2.4090 O   0  0  0  0  0  0  0  0  0  0  0  0
    3.0250   -3.4980    1.9890 H   0  0  0  0  0  0  0  0  0  0  0  0
    4.2990   -2.3210    2.0360 H   0  0  0  0  0  0  0  0  0  0  0  0
    3.7070   -1.5390   -0.0740 H   0  0  0  0  0  0  0  0  0  0  0  0
    3.2150   -3.8720   -0.9440 H   0  0  0  0  0  0  0  0  0  0  0  0
    1.7860   -3.9220    0.0910 H   0  0  0  0  0  0  0  0  0  0  0  0
    1.5260   -3.2970   -3.0430 H   0  0  0  0  0  0  0  0  0  0  0  0
    1.0430   -0.5490    0.5390 N   0  0  0  0  0  0  0  0  0  0  0  0
    0.0950    0.2060    1.3180 C   0  0  1  0  0  0  0  0  0  0  0  0
    0.1700    1.6780    1.0580 C   0  0  0  0  0  0  0  0  0  0  0  0
    1.5180    2.2720    1.3780 C   0  0  0  0  0  0  0  0  0  0  0  0
    1.9360    2.1300    2.8020 C   0  0  0  0  0  0  0  0  0  0  0  0
    3.3110    2.7780    2.9540 C   0  0  0  0  0  0  0  0  0  0  0  0
    4.2680    2.1250    2.0920 N   0  0  0  0  0  0  0  0  0  0  0  0
   -1.2350   -0.3750    1.1640 C   0  0  0  0  0  0  0  0  0  0  0  0
   -2.1800    0.2170    1.7970 O   0  0  0  0  0  0  0  0  0  0  0  0
    1.0490   -0.4550   -0.4910 H   0  0  0  0  0  0  0  0  0  0  0  0
    0.3680    0.0370    2.4020 H   0  0  0  0  0  0  0  0  0  0  0  0
   -0.5710    2.2120    1.6900 H   0  0  0  0  0  0  0  0  0  0  0  0
   -0.0640    1.9540    0.0140 H   0  0  0  0  0  0  0  0  0  0  0  0
    1.4310    3.3700    1.1730 H   0  0  0  0  0  0  0  0  0  0  0  0
    2.3130    1.9110    0.6950 H   0  0  0  0  0  0  0  0  0  0  0  0
    2.0310    1.1130    3.1840 H   0  0  0  0  0  0  0  0  0  0  0  0
    1.2510    2.7070    3.4600 H   0  0  0  0  0  0  0  0  0  0  0  0
    3.6420    2.6770    3.9970 H   0  0  0  0  0  0  0  0  0  0  0  0
    3.2010    3.8570    2.7220 H   0  0  0  0  0  0  0  0  0  0  0  0
    4.2690    2.5490    1.1410 H   0  0  0  0  0  0  0  0  0  0  0  0
    5.2150    2.2040    2.5360 H   0  0  0  0  0  0  0  0  0  0  0  0
   -2.2600   -0.0330   -1.9970 C   0  0  0  0  0  0  0  0  0  0  0  0
   -3.5670   -0.7030   -1.7620 C   0  0  0  0  0  0  0  0  0  0  0  0
   -3.5120   -2.0350   -1.0900 C   0  0  2  0  0  0  0  0  0  0  0  0
   -4.9640   -2.5220   -0.9660 C   0  0  0  0  0  0  0  0  0  0  0  0
   -2.9700   -2.0080    0.3170 C   0  0  2  0  0  0  0  0  0  0  0  0
   -1.6160   -1.5010    0.4120 N   0  0  0  0  0  0  0  0  0  0  0  0
   -2.9500   -3.4090    0.8110 C   0  0  0  0  0  0  0  0  0  0  0  0
   -1.8500   -3.8950    1.1860 O   0  0  0  0  0  0  0  0  0  0  0  0
   -4.0960   -4.1980    0.8720 O   0  0  0  0  0  0  0  0  0  0  0  0
   -1.3780   -0.6790   -2.0170 H   0  0  0  0  0  0  0  0  0  0  0  0
   -2.2810    0.4750   -3.0070 H   0  0  0  0  0  0  0  0  0  0  0  0
   -2.1460    0.8350   -1.2900 H   0  0  0  0  0  0  0  0  0  0  0  0
   -4.2530   -0.0000   -1.2290 H   0  0  0  0  0  0  0  0  0  0  0  0
   -4.0580   -0.8750   -2.7630 H   0  0  0  0  0  0  0  0  0  0  0  0
   -2.9230   -2.7300   -1.7210 H   0  0  0  0  0  0  0  0  0  0  0  0
   -5.6310   -1.9500   -1.6440 H   0  0  0  0  0  0  0  0  0  0  0  0
   -4.9460   -3.6000   -1.2020 H   0  0  0  0  0  0  0  0  0  0  0  0
   -5.3280   -2.4020    0.0630 H   0  0  0  0  0  0  0  0  0  0  0  0
   -3.6790   -1.3900    0.9200 H   0  0  0  0  0  0  0  0  0  0  0  0
   -0.8790   -1.9960   -0.0990 H   0  0  0  0  0  0  0  0  0  0  0  0
  1  7  1  0  0  0  0
  1  8  1  0  0  0  0
  2  9  1  6  0  0  0
  2  5  1  0  0  0  0
  2  1  1  0  0  0  0
  3 11  1  0  0  0  0
  3  2  1  0  0  0  0
  4  3  1  0  0  0  0
  5  6  2  0  0  0  0
 10  3  1  0  0  0  0
 12  4  1  0  0  0  0
 13  5  1  0  0  0  0
 13 14  1  0  0  0  0
 14 23  1  1  0  0  0
 15 14  1  0  0  0  0
 15 16  1  0  0  0  0
 15 24  1  0  0  0  0
 16 17  1  0  0  0  0
 17 18  1  0  0  0  0
 17 28  1  0  0  0  0
 17 29  1  0  0  0  0
 18 30  1  0  0  0  0
 19 33  1  0  0  0  0
 19 18  1  0  0  0  0
 20 14  1  0  0  0  0
 20 21  2  0  0  0  0
 22 13  1  0  0  0  0
 25 15  1  0  0  0  0
 26 16  1  0  0  0  0
 27 16  1  0  0  0  0
 31 18  1  0  0  0  0
 32 19  1  0  0  0  0
 34 35  1  0  0  0  0
 34 45  1  0  0  0  0
 35 46  1  0  0  0  0
 35 36  1  0  0  0  0
 36 48  1  6  0  0  0
 36 37  1  0  0  0  0
 36 38  1  0  0  0  0
 37 51  1  0  0  0  0
 38 39  1  0  0  0  0
 38 40  1  0  0  0  0
 38 52  1  1  0  0  0
 39 20  1  0  0  0  0
 40 42  2  0  0  0  0
 40 41  1  0  0  0  0
 43 34  1  0  0  0  0
 44 34  1  0  0  0  0
 47 35  1  0  0  0  0
 49 37  1  0  0  0  0
 50 37  1  0  0  0  0
 53 39  1  0  0  0  0
M  END
$$$$
