CKL.pdb
 OpenBabel07022418283D

 53 52  0  0  1  0  0  0  0  0999 V2000
    1.9470   -1.9180    4.7540 N   0  0  0  0  0  0  0  0  0  0  0  0
    2.1660   -2.3740    3.3720 C   0  0  1  0  0  0  0  0  0  0  0  0
    1.6280   -3.8070    3.3050 C   0  0  0  0  0  0  0  0  0  0  0  0
    1.8300   -4.5110    1.6640 S   0  0  0  0  0  0  0  0  0  0  0  0
    1.4080   -1.4860    2.4810 C   0  0  0  0  0  0  0  0  0  0  0  0
    0.6710   -0.5920    3.0180 O   0  0  0  0  0  0  0  0  0  0  0  0
    1.6090   -0.9350    4.7770 H   0  0  0  0  0  0  0  0  0  0  0  0
    1.2260   -2.5030    5.2150 H   0  0  0  0  0  0  0  0  0  0  0  0
    3.2540   -2.3800    3.1670 H   0  0  0  0  0  0  0  0  0  0  0  0
    2.2140   -4.3650    4.0820 H   0  0  0  0  0  0  0  0  0  0  0  0
    0.5780   -3.8130    3.6560 H   0  0  0  0  0  0  0  0  0  0  0  0
    0.5440   -4.8070    1.1540 H   0  0  0  0  0  0  0  0  0  0  0  0
    1.4240   -1.5340    1.0810 N   0  0  0  0  0  0  0  0  0  0  0  0
    0.6450   -0.6170    0.2820 C   0  0  1  0  0  0  0  0  0  0  0  0
    1.5100    0.2010   -0.6370 C   0  0  0  0  0  0  0  0  0  0  0  0
    2.5280    1.0510    0.0380 C   0  0  0  0  0  0  0  0  0  0  0  0
    2.0160    2.0820    0.9770 C   0  0  0  0  0  0  0  0  0  0  0  0
    3.2390    2.8180    1.5400 C   0  0  0  0  0  0  0  0  0  0  0  0
    4.1030    1.8830    2.2330 N   0  0  0  0  0  0  0  0  0  0  0  0
   -0.3880   -1.3830   -0.4160 C   0  0  0  0  0  0  0  0  0  0  0  0
   -0.4620   -2.6220   -0.2500 O   0  0  0  0  0  0  0  0  0  0  0  0
    2.0050   -2.2340    0.5970 H   0  0  0  0  0  0  0  0  0  0  0  0
    0.1640    0.1090    1.0020 H   0  0  0  0  0  0  0  0  0  0  0  0
    0.8230    0.8740   -1.2230 H   0  0  0  0  0  0  0  0  0  0  0  0
    2.0290   -0.4110   -1.3980 H   0  0  0  0  0  0  0  0  0  0  0  0
    3.0850    1.5900   -0.7720 H   0  0  0  0  0  0  0  0  0  0  0  0
    3.2490    0.3950    0.5650 H   0  0  0  0  0  0  0  0  0  0  0  0
    1.4440    1.7400    1.8320 H   0  0  0  0  0  0  0  0  0  0  0  0
    1.4190    2.8650    0.4680 H   0  0  0  0  0  0  0  0  0  0  0  0
    2.9150    3.6520    2.1820 H   0  0  0  0  0  0  0  0  0  0  0  0
    3.8150    3.1910    0.6660 H   0  0  0  0  0  0  0  0  0  0  0  0
    3.5670    1.1540    2.7500 H   0  0  0  0  0  0  0  0  0  0  0  0
    4.8250    1.4800    1.5940 H   0  0  0  0  0  0  0  0  0  0  0  0
   -3.5310    0.1910    0.3020 C   0  0  0  0  0  0  0  0  0  0  0  0
   -4.3320   -0.6940   -0.5890 C   0  0  0  0  0  0  0  0  0  0  0  0
   -4.6560   -2.0270    0.0580 C   0  0  0  0  0  0  0  0  0  0  0  0
   -3.6990   -0.8320   -1.9200 C   0  0  0  0  0  0  0  0  0  0  0  0
   -2.3460   -1.4160   -1.9980 C   0  0  2  0  0  0  0  0  0  0  0  0
   -1.3130   -0.7090   -1.2900 N   0  0  0  0  0  0  0  0  0  0  0  0
   -1.9940   -1.4530   -3.4730 C   0  0  0  0  0  0  0  0  0  0  0  0
   -2.7690   -2.0230   -4.2530 O   0  0  0  0  0  0  0  0  0  0  0  0
   -0.8330   -0.8610   -3.9290 O   0  0  0  0  0  0  0  0  0  0  0  0
   -2.7310   -0.3350    0.8170 H   0  0  0  0  0  0  0  0  0  0  0  0
   -3.1410    1.0400   -0.3020 H   0  0  0  0  0  0  0  0  0  0  0  0
   -4.2560    0.6700    1.0100 H   0  0  0  0  0  0  0  0  0  0  0  0
   -5.3340   -0.2080   -0.7560 H   0  0  0  0  0  0  0  0  0  0  0  0
   -3.8040   -2.4700    0.5830 H   0  0  0  0  0  0  0  0  0  0  0  0
   -5.0180   -2.7470   -0.6900 H   0  0  0  0  0  0  0  0  0  0  0  0
   -5.4310   -1.8030    0.8450 H   0  0  0  0  0  0  0  0  0  0  0  0
   -3.7260    0.1740   -2.4140 H   0  0  0  0  0  0  0  0  0  0  0  0
   -4.4240   -1.4350   -2.5520 H   0  0  0  0  0  0  0  0  0  0  0  0
   -2.2860   -2.4790   -1.6780 H   0  0  0  0  0  0  0  0  0  0  0  0
   -1.1550    0.3200   -1.3580 H   0  0  0  0  0  0  0  0  0  0  0  0
  1  7  1  0  0  0  0
  1  8  1  0  0  0  0
  2  9  1  6  0  0  0
  2  1  1  0  0  0  0
  3  2  1  0  0  0  0
  3 11  1  0  0  0  0
  3 10  1  0  0  0  0
  4  3  1  0  0  0  0
  5  6  2  0  0  0  0
  5  2  1  0  0  0  0
 12  4  1  0  0  0  0
 13  5  1  0  0  0  0
 14 23  1  1  0  0  0
 14 13  1  0  0  0  0
 15 16  1  0  0  0  0
 15 14  1  0  0  0  0
 16 27  1  0  0  0  0
 16 17  1  0  0  0  0
 17 18  1  0  0  0  0
 17 28  1  0  0  0  0
 18 30  1  0  0  0  0
 18 19  1  0  0  0  0
 19 32  1  0  0  0  0
 20 21  2  0  0  0  0
 20 14  1  0  0  0  0
 22 13  1  0  0  0  0
 24 15  1  0  0  0  0
 25 15  1  0  0  0  0
 26 16  1  0  0  0  0
 29 17  1  0  0  0  0
 31 18  1  0  0  0  0
 33 19  1  0  0  0  0
 34 43  1  0  0  0  0
 34 45  1  0  0  0  0
 35 36  1  0  0  0  0
 35 34  1  0  0  0  0
 36 47  1  0  0  0  0
 36 49  1  0  0  0  0
 37 35  1  0  0  0  0
 38 37  1  0  0  0  0
 38 52  1  1  0  0  0
 38 39  1  0  0  0  0
 39 20  1  0  0  0  0
 40 38  1  0  0  0  0
 41 40  2  0  0  0  0
 42 40  1  0  0  0  0
 44 34  1  0  0  0  0
 46 35  1  0  0  0  0
 48 36  1  0  0  0  0
 50 37  1  0  0  0  0
 51 37  1  0  0  0  0
 53 39  1  0  0  0  0
M  END
$$$$
