CKM.pdb
 OpenBabel07022418283D

 51 50  0  0  1  0  0  0  0  0999 V2000
    0.2720   -0.1320    5.2330 N   0  0  0  0  0  0  0  0  0  0  0  0
    0.4130   -0.8320    3.9480 C   0  0  1  0  0  0  0  0  0  0  0  0
   -0.7100   -1.8050    3.8700 C   0  0  0  0  0  0  0  0  0  0  0  0
   -0.7670   -2.8070    2.3890 S   0  0  0  0  0  0  0  0  0  0  0  0
    0.4850    0.1670    2.8870 C   0  0  0  0  0  0  0  0  0  0  0  0
    0.4450    1.3940    3.2090 O   0  0  0  0  0  0  0  0  0  0  0  0
    0.2250   -0.8400    6.0220 H   0  0  0  0  0  0  0  0  0  0  0  0
   -0.6780    0.3440    5.2750 H   0  0  0  0  0  0  0  0  0  0  0  0
    1.3800   -1.3850    4.0350 H   0  0  0  0  0  0  0  0  0  0  0  0
   -1.6700   -1.2830    4.0850 H   0  0  0  0  0  0  0  0  0  0  0  0
   -0.5770   -2.5120    4.7400 H   0  0  0  0  0  0  0  0  0  0  0  0
   -1.9130   -3.6200    2.4530 H   0  0  0  0  0  0  0  0  0  0  0  0
    0.5970   -0.1040    1.5070 N   0  0  0  0  0  0  0  0  0  0  0  0
    0.6650    0.9800    0.5600 C   0  0  1  0  0  0  0  0  0  0  0  0
    2.0210    0.8460   -0.1340 C   0  0  0  0  0  0  0  0  0  0  0  0
    3.1400    0.9450    0.8890 C   0  0  0  0  0  0  0  0  0  0  0  0
    4.4780    0.8160    0.2310 C   0  0  0  0  0  0  0  0  0  0  0  0
    4.6340   -0.5160   -0.4830 C   0  0  0  0  0  0  0  0  0  0  0  0
    4.5010   -1.6270    0.4170 N   0  0  0  0  0  0  0  0  0  0  0  0
   -0.3920    0.8930   -0.4770 C   0  0  0  0  0  0  0  0  0  0  0  0
   -0.4410    1.7820   -1.3680 O   0  0  0  0  0  0  0  0  0  0  0  0
    0.6310   -1.0750    1.1760 H   0  0  0  0  0  0  0  0  0  0  0  0
    0.6470    1.9770    1.0630 H   0  0  0  0  0  0  0  0  0  0  0  0
    2.1710    1.6180   -0.9100 H   0  0  0  0  0  0  0  0  0  0  0  0
    2.0640   -0.1400   -0.6160 H   0  0  0  0  0  0  0  0  0  0  0  0
    3.0050    0.1520    1.6720 H   0  0  0  0  0  0  0  0  0  0  0  0
    3.0870    1.9060    1.4410 H   0  0  0  0  0  0  0  0  0  0  0  0
    5.2730    0.9180    0.9930 H   0  0  0  0  0  0  0  0  0  0  0  0
    4.6080    1.6490   -0.4800 H   0  0  0  0  0  0  0  0  0  0  0  0
    5.6580   -0.5730   -0.9340 H   0  0  0  0  0  0  0  0  0  0  0  0
    3.9140   -0.6170   -1.3130 H   0  0  0  0  0  0  0  0  0  0  0  0
    5.4080   -1.9840    0.7910 H   0  0  0  0  0  0  0  0  0  0  0  0
    3.9380   -2.4140   -0.0080 H   0  0  0  0  0  0  0  0  0  0  0  0
   -4.0290   -2.6760    0.4160 C   0  0  0  0  0  0  0  0  0  0  0  0
   -3.6170   -3.3440   -1.1770 S   0  0  0  0  0  0  0  0  0  0  0  0
   -2.1620   -2.7100   -1.9490 C   0  0  0  0  0  0  0  0  0  0  0  0
   -2.1770   -1.3330   -2.4710 C   0  0  0  0  0  0  0  0  0  0  0  0
   -2.3840   -0.1890   -1.5660 C   0  0  2  0  0  0  0  0  0  0  0  0
   -1.3620   -0.1300   -0.5380 N   0  0  0  0  0  0  0  0  0  0  0  0
   -3.7450    0.0680   -1.1060 C   0  0  0  0  0  0  0  0  0  0  0  0
   -3.9580    0.4490    0.0660 O   0  0  0  0  0  0  0  0  0  0  0  0
   -4.8100   -0.1080   -1.9590 O   0  0  0  0  0  0  0  0  0  0  0  0
   -3.2420   -2.0520    0.8790 H   0  0  0  0  0  0  0  0  0  0  0  0
   -4.2400   -3.4780    1.1710 H   0  0  0  0  0  0  0  0  0  0  0  0
   -4.9740   -2.0810    0.3700 H   0  0  0  0  0  0  0  0  0  0  0  0
   -1.9100   -3.3990   -2.8220 H   0  0  0  0  0  0  0  0  0  0  0  0
   -1.2300   -2.8670   -1.2900 H   0  0  0  0  0  0  0  0  0  0  0  0
   -1.1880   -1.1620   -3.0070 H   0  0  0  0  0  0  0  0  0  0  0  0
   -2.9570   -1.3110   -3.3160 H   0  0  0  0  0  0  0  0  0  0  0  0
   -2.1860    0.7380   -2.2670 H   0  0  0  0  0  0  0  0  0  0  0  0
   -1.3100   -0.8570    0.2020 H   0  0  0  0  0  0  0  0  0  0  0  0
  1  8  1  0  0  0  0
  1  7  1  0  0  0  0
  2  9  1  1  0  0  0
  2  1  1  0  0  0  0
  3  2  1  0  0  0  0
  3 10  1  0  0  0  0
  3 11  1  0  0  0  0
  4 12  1  0  0  0  0
  4  3  1  0  0  0  0
  5  6  2  0  0  0  0
  5  2  1  0  0  0  0
 13  5  1  0  0  0  0
 14 23  1  1  0  0  0
 14 13  1  0  0  0  0
 15 14  1  0  0  0  0
 15 16  1  0  0  0  0
 16 27  1  0  0  0  0
 16 26  1  0  0  0  0
 17 16  1  0  0  0  0
 17 28  1  0  0  0  0
 18 17  1  0  0  0  0
 18 19  1  0  0  0  0
 19 32  1  0  0  0  0
 20 14  1  0  0  0  0
 21 20  2  0  0  0  0
 22 13  1  0  0  0  0
 24 15  1  0  0  0  0
 25 15  1  0  0  0  0
 29 17  1  0  0  0  0
 30 18  1  0  0  0  0
 31 18  1  0  0  0  0
 33 19  1  0  0  0  0
 34 43  1  0  0  0  0
 34 44  1  0  0  0  0
 35 34  1  0  0  0  0
 36 47  1  0  0  0  0
 36 35  1  0  0  0  0
 37 36  1  0  0  0  0
 37 38  1  0  0  0  0
 38 50  1  6  0  0  0
 38 40  1  0  0  0  0
 38 39  1  0  0  0  0
 39 20  1  0  0  0  0
 39 51  1  0  0  0  0
 40 41  1  0  0  0  0
 42 40  2  0  0  0  0
 45 34  1  0  0  0  0
 46 36  1  0  0  0  0
 48 37  1  0  0  0  0
 49 37  1  0  0  0  0
M  END
$$$$
