CKP.pdb
 OpenBabel07022418283D

 48 48  0  0  1  0  0  0  0  0999 V2000
    1.8810   -4.0910    2.6230 N   0  0  0  0  0  0  0  0  0  0  0  0
    1.6420   -3.4120    1.3680 C   0  0  1  0  0  0  0  0  0  0  0  0
    0.7190   -4.2290    0.4800 C   0  0  0  0  0  0  0  0  0  0  0  0
    1.4300   -5.8420    0.1090 S   0  0  0  0  0  0  0  0  0  0  0  0
    1.1810   -2.0290    1.5590 C   0  0  0  0  0  0  0  0  0  0  0  0
    1.0520   -1.5890    2.7500 O   0  0  0  0  0  0  0  0  0  0  0  0
    2.4700   -4.9300    2.4120 H   0  0  0  0  0  0  0  0  0  0  0  0
    2.2950   -3.4560    3.3140 H   0  0  0  0  0  0  0  0  0  0  0  0
    2.6260   -3.3740    0.8240 H   0  0  0  0  0  0  0  0  0  0  0  0
    0.4410   -3.6650   -0.4240 H   0  0  0  0  0  0  0  0  0  0  0  0
   -0.2190   -4.4010    1.0510 H   0  0  0  0  0  0  0  0  0  0  0  0
    1.4720   -6.0220   -1.2950 H   0  0  0  0  0  0  0  0  0  0  0  0
    0.8770   -1.1680    0.4560 N   0  0  0  0  0  0  0  0  0  0  0  0
    0.4330    0.1730    0.6020 C   0  0  1  0  0  0  0  0  0  0  0  0
    1.3240    1.1700   -0.1240 C   0  0  0  0  0  0  0  0  0  0  0  0
    2.7280    1.1410    0.3720 C   0  0  0  0  0  0  0  0  0  0  0  0
    2.8880    1.4700    1.8270 C   0  0  0  0  0  0  0  0  0  0  0  0
    2.3750    2.8560    2.1410 C   0  0  0  0  0  0  0  0  0  0  0  0
    3.1180    3.8290    1.3630 N   0  0  0  0  0  0  0  0  0  0  0  0
   -0.9800    0.4470    0.3390 C   0  0  0  0  0  0  0  0  0  0  0  0
   -1.3090    1.6880    0.4780 O   0  0  0  0  0  0  0  0  0  0  0  0
    1.0270   -1.6180   -0.4830 H   0  0  0  0  0  0  0  0  0  0  0  0
    0.5690    0.4140    1.7100 H   0  0  0  0  0  0  0  0  0  0  0  0
    1.3400    0.9810   -1.2140 H   0  0  0  0  0  0  0  0  0  0  0  0
    0.9000    2.1880    0.0470 H   0  0  0  0  0  0  0  0  0  0  0  0
    3.2840    1.9390   -0.1940 H   0  0  0  0  0  0  0  0  0  0  0  0
    3.2390    0.1960    0.1080 H   0  0  0  0  0  0  0  0  0  0  0  0
    2.5110    0.7180    2.5210 H   0  0  0  0  0  0  0  0  0  0  0  0
    4.0020    1.5160    2.0100 H   0  0  0  0  0  0  0  0  0  0  0  0
    1.3110    2.9060    1.9100 H   0  0  0  0  0  0  0  0  0  0  0  0
    2.6030    3.0790    3.2100 H   0  0  0  0  0  0  0  0  0  0  0  0
    2.5140    4.3000    0.6520 H   0  0  0  0  0  0  0  0  0  0  0  0
    4.0040    3.4590    0.9780 H   0  0  0  0  0  0  0  0  0  0  0  0
   -1.9970   -0.4380   -0.0340 N   0  0  0  0  0  0  0  0  0  0  0  0
   -1.8270   -1.8640   -0.2780 C   0  0  0  0  0  0  0  0  0  0  0  0
   -3.1670   -2.4030   -0.7230 C   0  0  0  0  0  0  0  0  0  0  0  0
   -4.1470   -1.4520   -0.1540 C   0  0  0  0  0  0  0  0  0  0  0  0
   -3.3980   -0.1130   -0.2330 C   0  0  1  0  0  0  0  0  0  0  0  0
   -3.9800    0.6920    0.8650 C   0  0  0  0  0  0  0  0  0  0  0  0
   -3.3420    0.9750    1.8930 O   0  0  0  0  0  0  0  0  0  0  0  0
   -5.2790    1.1350    0.7260 O   0  0  0  0  0  0  0  0  0  0  0  0
   -1.1540   -2.0350   -1.1560 H   0  0  0  0  0  0  0  0  0  0  0  0
   -1.5350   -2.4130    0.6210 H   0  0  0  0  0  0  0  0  0  0  0  0
   -3.2720   -2.3580   -1.8460 H   0  0  0  0  0  0  0  0  0  0  0  0
   -3.3050   -3.4520   -0.3660 H   0  0  0  0  0  0  0  0  0  0  0  0
   -5.1060   -1.3950   -0.6640 H   0  0  0  0  0  0  0  0  0  0  0  0
   -4.2890   -1.7040    0.9310 H   0  0  0  0  0  0  0  0  0  0  0  0
   -3.5930    0.3620   -1.2080 H   0  0  0  0  0  0  0  0  0  0  0  0
  1  8  1  0  0  0  0
  2  9  1  6  0  0  0
  2  5  1  0  0  0  0
  2  1  1  0  0  0  0
  3 11  1  0  0  0  0
  3  2  1  0  0  0  0
  4  3  1  0  0  0  0
  5  6  2  0  0  0  0
  7  1  1  0  0  0  0
 10  3  1  0  0  0  0
 12  4  1  0  0  0  0
 13 14  1  0  0  0  0
 13  5  1  0  0  0  0
 14 23  1  1  0  0  0
 15 25  1  0  0  0  0
 15 16  1  0  0  0  0
 15 14  1  0  0  0  0
 16 17  1  0  0  0  0
 17 29  1  0  0  0  0
 17 18  1  0  0  0  0
 17 28  1  0  0  0  0
 18 31  1  0  0  0  0
 19 18  1  0  0  0  0
 20 21  2  0  0  0  0
 20 14  1  0  0  0  0
 22 13  1  0  0  0  0
 24 15  1  0  0  0  0
 26 16  1  0  0  0  0
 27 16  1  0  0  0  0
 30 18  1  0  0  0  0
 32 19  1  0  0  0  0
 33 19  1  0  0  0  0
 34 20  1  0  0  0  0
 35 34  1  0  0  0  0
 35 43  1  0  0  0  0
 36 45  1  0  0  0  0
 36 35  1  0  0  0  0
 36 37  1  0  0  0  0
 37 47  1  0  0  0  0
 38 48  1  6  0  0  0
 38 37  1  0  0  0  0
 38 34  1  0  0  0  0
 38 39  1  0  0  0  0
 39 40  1  0  0  0  0
 41 39  2  0  0  0  0
 42 35  1  0  0  0  0
 44 36  1  0  0  0  0
 46 37  1  0  0  0  0
M  END
$$$$
