CKQ.pdb
 OpenBabel07022418283D

 51 50  0  0  1  0  0  0  0  0999 V2000
   -1.2320   -0.9110    4.2120 N   0  0  0  0  0  0  0  0  0  0  0  0
   -0.1290   -0.0110    4.3370 C   0  0  1  0  0  0  0  0  0  0  0  0
    0.7190   -0.4800    5.5220 C   0  0  0  0  0  0  0  0  0  0  0  0
    2.1490    0.5860    5.7790 S   0  0  0  0  0  0  0  0  0  0  0  0
    0.7030    0.0440    3.0960 C   0  0  0  0  0  0  0  0  0  0  0  0
    1.7180    0.7820    3.0190 O   0  0  0  0  0  0  0  0  0  0  0  0
   -0.9350   -1.9110    4.0720 H   0  0  0  0  0  0  0  0  0  0  0  0
   -1.7490   -0.9030    5.1190 H   0  0  0  0  0  0  0  0  0  0  0  0
   -0.4970    0.9850    4.5720 H   0  0  0  0  0  0  0  0  0  0  0  0
    1.0140   -1.5380    5.4030 H   0  0  0  0  0  0  0  0  0  0  0  0
    0.0550   -0.3740    6.4200 H   0  0  0  0  0  0  0  0  0  0  0  0
    3.3330   -0.1110    5.4880 H   0  0  0  0  0  0  0  0  0  0  0  0
    0.3630   -0.7400    1.9690 N   0  0  0  0  0  0  0  0  0  0  0  0
    1.1180   -0.7420    0.7310 C   0  0  1  0  0  0  0  0  0  0  0  0
    1.6540   -2.1010    0.4240 C   0  0  0  0  0  0  0  0  0  0  0  0
    2.4460   -2.1900   -0.8360 C   0  0  0  0  0  0  0  0  0  0  0  0
    3.6610   -1.2740   -0.8190 C   0  0  0  0  0  0  0  0  0  0  0  0
    4.4080   -1.4180   -2.1200 C   0  0  0  0  0  0  0  0  0  0  0  0
    3.6260   -1.0760   -3.2730 N   0  0  0  0  0  0  0  0  0  0  0  0
    0.2410   -0.2110   -0.3690 C   0  0  0  0  0  0  0  0  0  0  0  0
    0.6670   -0.1050   -1.5450 O   0  0  0  0  0  0  0  0  0  0  0  0
   -0.4770   -1.3480    2.0400 H   0  0  0  0  0  0  0  0  0  0  0  0
    1.9650   -0.0460    0.8390 H   0  0  0  0  0  0  0  0  0  0  0  0
    0.8440   -2.8740    0.3520 H   0  0  0  0  0  0  0  0  0  0  0  0
    2.3380   -2.3780    1.2650 H   0  0  0  0  0  0  0  0  0  0  0  0
    1.8390   -2.1040   -1.7350 H   0  0  0  0  0  0  0  0  0  0  0  0
    2.8870   -3.2310   -0.8800 H   0  0  0  0  0  0  0  0  0  0  0  0
    3.3710   -0.2160   -0.6290 H   0  0  0  0  0  0  0  0  0  0  0  0
    4.3230   -1.6240   -0.0140 H   0  0  0  0  0  0  0  0  0  0  0  0
    5.2990   -0.7290   -2.0480 H   0  0  0  0  0  0  0  0  0  0  0  0
    4.7730   -2.4470   -2.2100 H   0  0  0  0  0  0  0  0  0  0  0  0
    4.2740   -0.6940   -4.0200 H   0  0  0  0  0  0  0  0  0  0  0  0
    2.9190   -0.3300   -3.1060 H   0  0  0  0  0  0  0  0  0  0  0  0
   -4.1940   -2.1880    1.2690 N   0  0  0  0  0  0  0  0  0  0  0  0
   -3.3910   -1.8160    0.1650 C   0  0  0  0  0  0  0  0  0  0  0  0
   -2.2270   -2.2810    0.1290 O   0  0  0  0  0  0  0  0  0  0  0  0
   -3.8630   -0.9430   -0.8960 C   0  0  0  0  0  0  0  0  0  0  0  0
   -2.8730   -0.2890   -1.7630 C   0  0  0  0  0  0  0  0  0  0  0  0
   -1.9260    0.6910   -1.1670 C   0  0  2  0  0  0  0  0  0  0  0  0
   -1.0940    0.1880   -0.1260 N   0  0  0  0  0  0  0  0  0  0  0  0
   -2.5450    1.9920   -0.8520 C   0  0  0  0  0  0  0  0  0  0  0  0
   -2.3570    2.5960    0.2270 O   0  0  0  0  0  0  0  0  0  0  0  0
   -3.3740    2.5780   -1.7880 O   0  0  0  0  0  0  0  0  0  0  0  0
   -3.8410   -1.9990    2.2250 H   0  0  0  0  0  0  0  0  0  0  0  0
   -5.1210   -2.6420    1.1720 H   0  0  0  0  0  0  0  0  0  0  0  0
   -4.4860   -0.1170   -0.4260 H   0  0  0  0  0  0  0  0  0  0  0  0
   -4.6300   -1.4510   -1.5600 H   0  0  0  0  0  0  0  0  0  0  0  0
   -3.3570    0.2390   -2.6390 H   0  0  0  0  0  0  0  0  0  0  0  0
   -2.2310   -1.0640   -2.2880 H   0  0  0  0  0  0  0  0  0  0  0  0
   -1.2060    0.9300   -2.0290 H   0  0  0  0  0  0  0  0  0  0  0  0
   -1.5130    0.1470    0.8510 H   0  0  0  0  0  0  0  0  0  0  0  0
  1  2  1  0  0  0  0
  1  8  1  0  0  0  0
  2  9  1  1  0  0  0
  2  3  1  0  0  0  0
  3  4  1  0  0  0  0
  3 11  1  0  0  0  0
  5  2  1  0  0  0  0
  6  5  2  0  0  0  0
  7  1  1  0  0  0  0
 10  3  1  0  0  0  0
 12  4  1  0  0  0  0
 13 22  1  0  0  0  0
 13  5  1  0  0  0  0
 14 23  1  1  0  0  0
 14 13  1  0  0  0  0
 15 14  1  0  0  0  0
 15 25  1  0  0  0  0
 16 17  1  0  0  0  0
 16 15  1  0  0  0  0
 17 28  1  0  0  0  0
 17 29  1  0  0  0  0
 18 30  1  0  0  0  0
 18 17  1  0  0  0  0
 19 33  1  0  0  0  0
 19 18  1  0  0  0  0
 20 40  1  0  0  0  0
 20 14  1  0  0  0  0
 21 20  2  0  0  0  0
 24 15  1  0  0  0  0
 26 16  1  0  0  0  0
 27 16  1  0  0  0  0
 31 18  1  0  0  0  0
 32 19  1  0  0  0  0
 34 44  1  0  0  0  0
 35 34  1  0  0  0  0
 36 35  2  0  0  0  0
 37 46  1  0  0  0  0
 37 35  1  0  0  0  0
 38 39  1  0  0  0  0
 38 37  1  0  0  0  0
 39 50  1  6  0  0  0
 39 41  1  0  0  0  0
 39 40  1  0  0  0  0
 40 51  1  0  0  0  0
 41 42  1  0  0  0  0
 43 41  2  0  0  0  0
 45 34  1  0  0  0  0
 47 37  1  0  0  0  0
 48 38  1  0  0  0  0
 49 38  1  0  0  0  0
M  END
$$$$
