CKR.pdb
 OpenBabel07022418283D

 57 56  0  0  1  0  0  0  0  0999 V2000
    1.5470   -4.1610    4.6880 N   0  0  0  0  0  0  0  0  0  0  0  0
    2.0760   -3.7840    3.3980 C   0  0  1  0  0  0  0  0  0  0  0  0
    1.4390   -4.6800    2.3290 C   0  0  0  0  0  0  0  0  0  0  0  0
    1.7960   -6.4180    2.6140 S   0  0  0  0  0  0  0  0  0  0  0  0
    1.7390   -2.3930    3.0370 C   0  0  0  0  0  0  0  0  0  0  0  0
    1.0580   -1.7230    3.8790 O   0  0  0  0  0  0  0  0  0  0  0  0
    0.8370   -3.4380    4.9580 H   0  0  0  0  0  0  0  0  0  0  0  0
    1.0900   -5.0990    4.6610 H   0  0  0  0  0  0  0  0  0  0  0  0
    3.1500   -3.9970    3.3780 H   0  0  0  0  0  0  0  0  0  0  0  0
    1.8060   -4.3880    1.3250 H   0  0  0  0  0  0  0  0  0  0  0  0
    0.3260   -4.5350    2.3590 H   0  0  0  0  0  0  0  0  0  0  0  0
    0.6810   -7.0610    3.1430 H   0  0  0  0  0  0  0  0  0  0  0  0
    2.1130   -1.7620    1.8430 N   0  0  0  0  0  0  0  0  0  0  0  0
    1.7000   -0.3140    1.5900 C   0  0  1  0  0  0  0  0  0  0  0  0
    2.9120    0.3970    1.2060 C   0  0  0  0  0  0  0  0  0  0  0  0
    2.9080    1.8220    0.9210 C   0  0  0  0  0  0  0  0  0  0  0  0
    2.1990    2.4270   -0.2300 C   0  0  0  0  0  0  0  0  0  0  0  0
    2.5130    3.9420   -0.1620 C   0  0  0  0  0  0  0  0  0  0  0  0
    1.8830    4.6470   -1.2250 N   0  0  0  0  0  0  0  0  0  0  0  0
    0.6740   -0.4460    0.5660 C   0  0  0  0  0  0  0  0  0  0  0  0
   -0.1430    0.4640    0.3570 O   0  0  0  0  0  0  0  0  0  0  0  0
    2.6770   -2.2700    1.1500 H   0  0  0  0  0  0  0  0  0  0  0  0
    1.2960    0.0400    2.5670 H   0  0  0  0  0  0  0  0  0  0  0  0
    3.3380   -0.1730    0.2800 H   0  0  0  0  0  0  0  0  0  0  0  0
    3.7590    0.2170    1.9680 H   0  0  0  0  0  0  0  0  0  0  0  0
    3.9930    2.2230    0.9460 H   0  0  0  0  0  0  0  0  0  0  0  0
    2.5250    2.3240    1.9040 H   0  0  0  0  0  0  0  0  0  0  0  0
    2.7230    2.0640   -1.1690 H   0  0  0  0  0  0  0  0  0  0  0  0
    1.1620    2.2770   -0.3890 H   0  0  0  0  0  0  0  0  0  0  0  0
    3.6010    4.0840   -0.1890 H   0  0  0  0  0  0  0  0  0  0  0  0
    2.1310    4.2900    0.8140 H   0  0  0  0  0  0  0  0  0  0  0  0
    0.8660    4.5720   -1.2700 H   0  0  0  0  0  0  0  0  0  0  0  0
    2.3780    4.6240   -2.1270 H   0  0  0  0  0  0  0  0  0  0  0  0
   -4.5340    1.4450    0.3270 N   0  0  0  0  0  0  0  0  0  0  0  0
   -4.7370    0.3010   -0.5020 C   0  0  0  0  0  0  0  0  0  0  0  0
   -5.1690    0.4770   -1.6870 N   0  0  0  0  0  0  0  0  0  0  0  0
   -4.4550   -1.0010    0.0060 N   0  0  0  0  0  0  0  0  0  0  0  0
   -4.2550   -2.1260   -0.8790 C   0  0  0  0  0  0  0  0  0  0  0  0
   -2.9640   -1.9460   -1.6550 C   0  0  0  0  0  0  0  0  0  0  0  0
   -1.8490   -1.8610   -0.6740 C   0  0  0  0  0  0  0  0  0  0  0  0
   -0.4960   -1.6920   -1.2640 C   0  0  2  0  0  0  0  0  0  0  0  0
    0.5500   -1.6150   -0.2480 N   0  0  0  0  0  0  0  0  0  0  0  0
   -0.3130   -0.6080   -2.2160 C   0  0  0  0  0  0  0  0  0  0  0  0
    0.6560    0.1770   -2.0860 O   0  0  0  0  0  0  0  0  0  0  0  0
   -1.1430   -0.3480   -3.3010 O   0  0  0  0  0  0  0  0  0  0  0  0
   -5.1950    1.6570    1.1080 H   0  0  0  0  0  0  0  0  0  0  0  0
   -3.7300    2.0640    0.1540 H   0  0  0  0  0  0  0  0  0  0  0  0
   -5.3630   -0.2390   -2.3980 H   0  0  0  0  0  0  0  0  0  0  0  0
   -4.4030   -1.0860    1.0540 H   0  0  0  0  0  0  0  0  0  0  0  0
   -5.1230   -2.2650   -1.5510 H   0  0  0  0  0  0  0  0  0  0  0  0
   -4.1350   -3.0360   -0.2460 H   0  0  0  0  0  0  0  0  0  0  0  0
   -2.8410   -2.8440   -2.3160 H   0  0  0  0  0  0  0  0  0  0  0  0
   -3.1060   -1.0270   -2.2590 H   0  0  0  0  0  0  0  0  0  0  0  0
   -1.8960   -2.7660   -0.0310 H   0  0  0  0  0  0  0  0  0  0  0  0
   -2.0900   -1.0080    0.0280 H   0  0  0  0  0  0  0  0  0  0  0  0
   -0.2830   -2.6400   -1.8580 H   0  0  0  0  0  0  0  0  0  0  0  0
    1.2070   -2.4070   -0.1080 H   0  0  0  0  0  0  0  0  0  0  0  0
  1  7  1  0  0  0  0
  2  9  1  6  0  0  0
  2  1  1  0  0  0  0
  3 11  1  0  0  0  0
  3  4  1  0  0  0  0
  3  2  1  0  0  0  0
  4 12  1  0  0  0  0
  5  2  1  0  0  0  0
  5  6  2  0  0  0  0
  8  1  1  0  0  0  0
 10  3  1  0  0  0  0
 13  5  1  0  0  0  0
 14 13  1  0  0  0  0
 14 23  1  1  0  0  0
 15 14  1  0  0  0  0
 15 25  1  0  0  0  0
 16 26  1  0  0  0  0
 16 15  1  0  0  0  0
 16 27  1  0  0  0  0
 17 18  1  0  0  0  0
 17 16  1  0  0  0  0
 18 31  1  0  0  0  0
 19 18  1  0  0  0  0
 20 14  1  0  0  0  0
 21 20  2  0  0  0  0
 22 13  1  0  0  0  0
 24 15  1  0  0  0  0
 28 17  1  0  0  0  0
 29 17  1  0  0  0  0
 30 18  1  0  0  0  0
 32 19  1  0  0  0  0
 33 19  1  0  0  0  0
 34 46  1  0  0  0  0
 35 37  1  0  0  0  0
 35 34  1  0  0  0  0
 36 35  2  0  0  0  0
 37 49  1  0  0  0  0
 38 51  1  0  0  0  0
 38 37  1  0  0  0  0
 39 38  1  0  0  0  0
 39 40  1  0  0  0  0
 40 54  1  0  0  0  0
 40 55  1  0  0  0  0
 41 56  1  6  0  0  0
 41 40  1  0  0  0  0
 41 42  1  0  0  0  0
 42 57  1  0  0  0  0
 42 20  1  0  0  0  0
 43 44  1  0  0  0  0
 43 41  1  0  0  0  0
 45 43  2  0  0  0  0
 47 34  1  0  0  0  0
 48 36  1  0  0  0  0
 50 38  1  0  0  0  0
 52 39  1  0  0  0  0
 53 39  1  0  0  0  0
M  END
$$$$
