CKS.pdb
 OpenBabel07022418283D

 45 44  0  0  1  0  0  0  0  0999 V2000
   -0.6320   -3.3270    4.5180 N   0  0  0  0  0  0  0  0  0  0  0  0
    0.2480   -2.8840    3.4780 C   0  0  1  0  0  0  0  0  0  0  0  0
    0.4170   -4.0240    2.4880 C   0  0  0  0  0  0  0  0  0  0  0  0
   -1.1410   -4.5270    1.7520 S   0  0  0  0  0  0  0  0  0  0  0  0
   -0.2580   -1.6560    2.8140 C   0  0  0  0  0  0  0  0  0  0  0  0
   -1.3260   -1.1780    3.2140 O   0  0  0  0  0  0  0  0  0  0  0  0
   -1.4360   -2.6990    4.6920 H   0  0  0  0  0  0  0  0  0  0  0  0
   -0.9130   -4.3080    4.4230 H   0  0  0  0  0  0  0  0  0  0  0  0
    1.2740   -2.7150    3.9140 H   0  0  0  0  0  0  0  0  0  0  0  0
    0.8010   -4.8890    3.0920 H   0  0  0  0  0  0  0  0  0  0  0  0
    1.2120   -3.8050    1.7460 H   0  0  0  0  0  0  0  0  0  0  0  0
   -0.8820   -5.1790    0.5170 H   0  0  0  0  0  0  0  0  0  0  0  0
    0.4490   -1.0400    1.7570 N   0  0  0  0  0  0  0  0  0  0  0  0
   -0.0150    0.1760    1.0720 C   0  0  1  0  0  0  0  0  0  0  0  0
    0.8950    1.3310    1.3250 C   0  0  0  0  0  0  0  0  0  0  0  0
    0.5100    2.6110    0.6730 C   0  0  0  0  0  0  0  0  0  0  0  0
    1.5270    3.7030    1.0250 C   0  0  0  0  0  0  0  0  0  0  0  0
    1.6140    3.9510    2.4930 C   0  0  0  0  0  0  0  0  0  0  0  0
    0.2920    4.3680    2.9500 N   0  0  0  0  0  0  0  0  0  0  0  0
   -0.3340   -0.1350   -0.3080 C   0  0  0  0  0  0  0  0  0  0  0  0
   -0.7630    0.7840   -1.0590 O   0  0  0  0  0  0  0  0  0  0  0  0
    1.3480   -1.5090    1.4770 H   0  0  0  0  0  0  0  0  0  0  0  0
   -0.9730    0.4240    1.5850 H   0  0  0  0  0  0  0  0  0  0  0  0
    0.9900    1.5290    2.4170 H   0  0  0  0  0  0  0  0  0  0  0  0
    1.9570    1.1100    1.0170 H   0  0  0  0  0  0  0  0  0  0  0  0
   -0.4820    2.9850    0.9410 H   0  0  0  0  0  0  0  0  0  0  0  0
    0.6230    2.5400   -0.4520 H   0  0  0  0  0  0  0  0  0  0  0  0
    1.2770    4.6520    0.5250 H   0  0  0  0  0  0  0  0  0  0  0  0
    2.5060    3.3290    0.6410 H   0  0  0  0  0  0  0  0  0  0  0  0
    2.2830    4.8330    2.6290 H   0  0  0  0  0  0  0  0  0  0  0  0
    2.0310    3.1430    3.0910 H   0  0  0  0  0  0  0  0  0  0  0  0
    0.3070    4.6920    3.9230 H   0  0  0  0  0  0  0  0  0  0  0  0
   -0.0160    5.1240    2.2950 H   0  0  0  0  0  0  0  0  0  0  0  0
    1.1790   -3.2640   -2.4930 O   0  0  0  0  0  0  0  0  0  0  0  0
    0.7000   -2.1010   -3.0960 C   0  0  0  0  0  0  0  0  0  0  0  0
   -0.5460   -1.6580   -2.3150 C   0  0  2  0  0  0  0  0  0  0  0  0
   -0.2150   -1.3980   -0.9360 N   0  0  0  0  0  0  0  0  0  0  0  0
   -1.6250   -2.6630   -2.4570 C   0  0  0  0  0  0  0  0  0  0  0  0
   -2.1350   -3.1760   -1.4330 O   0  0  0  0  0  0  0  0  0  0  0  0
   -2.1010   -3.0640   -3.6910 O   0  0  0  0  0  0  0  0  0  0  0  0
    2.1160   -3.2060   -2.2140 H   0  0  0  0  0  0  0  0  0  0  0  0
    0.4730   -2.2840   -4.1440 H   0  0  0  0  0  0  0  0  0  0  0  0
    1.4910   -1.3350   -2.9770 H   0  0  0  0  0  0  0  0  0  0  0  0
   -0.9110   -0.7360   -2.8370 H   0  0  0  0  0  0  0  0  0  0  0  0
    0.1330   -2.1950   -0.3700 H   0  0  0  0  0  0  0  0  0  0  0  0
  1  7  1  0  0  0  0
  2  9  1  1  0  0  0
  2  1  1  0  0  0  0
  3 10  1  0  0  0  0
  3  2  1  0  0  0  0
  4  3  1  0  0  0  0
  5  6  2  0  0  0  0
  5  2  1  0  0  0  0
  8  1  1  0  0  0  0
 11  3  1  0  0  0  0
 12  4  1  0  0  0  0
 13  5  1  0  0  0  0
 14 15  1  0  0  0  0
 14 23  1  1  0  0  0
 14 13  1  0  0  0  0
 15 24  1  0  0  0  0
 16 26  1  0  0  0  0
 16 17  1  0  0  0  0
 16 15  1  0  0  0  0
 17 18  1  0  0  0  0
 18 30  1  0  0  0  0
 18 19  1  0  0  0  0
 18 31  1  0  0  0  0
 19 32  1  0  0  0  0
 20 14  1  0  0  0  0
 21 20  2  0  0  0  0
 22 13  1  0  0  0  0
 25 15  1  0  0  0  0
 27 16  1  0  0  0  0
 28 17  1  0  0  0  0
 29 17  1  0  0  0  0
 33 19  1  0  0  0  0
 34 41  1  0  0  0  0
 35 43  1  0  0  0  0
 35 34  1  0  0  0  0
 35 36  1  0  0  0  0
 36 44  1  6  0  0  0
 36 37  1  0  0  0  0
 37 45  1  0  0  0  0
 37 20  1  0  0  0  0
 38 36  1  0  0  0  0
 38 39  1  0  0  0  0
 40 38  2  0  0  0  0
 42 35  1  0  0  0  0
M  END
$$$$
