CKY.pdb
 OpenBabel07022418283D

 55 55  0  0  1  0  0  0  0  0999 V2000
    3.1390   -3.2760    3.4380 N   0  0  0  0  0  0  0  0  0  0  0  0
    2.6230   -2.4260    2.3980 C   0  0  1  0  0  0  0  0  0  0  0  0
    1.9960   -3.2610    1.2740 C   0  0  0  0  0  0  0  0  0  0  0  0
    0.6470   -4.2210    2.0490 S   0  0  0  0  0  0  0  0  0  0  0  0
    1.5250   -1.5420    2.9040 C   0  0  0  0  0  0  0  0  0  0  0  0
    1.1740   -1.6410    4.1090 O   0  0  0  0  0  0  0  0  0  0  0  0
    2.6340   -4.1860    3.3850 H   0  0  0  0  0  0  0  0  0  0  0  0
    4.1570   -3.5020    3.3100 H   0  0  0  0  0  0  0  0  0  0  0  0
    3.4570   -1.8580    1.9700 H   0  0  0  0  0  0  0  0  0  0  0  0
    1.5440   -2.5960    0.5350 H   0  0  0  0  0  0  0  0  0  0  0  0
    2.7260   -3.9370    0.8090 H   0  0  0  0  0  0  0  0  0  0  0  0
    1.0830   -5.5190    2.3690 H   0  0  0  0  0  0  0  0  0  0  0  0
    0.8730   -0.6030    2.0710 N   0  0  0  0  0  0  0  0  0  0  0  0
   -0.1880    0.2620    2.5370 C   0  0  1  0  0  0  0  0  0  0  0  0
    0.1680    1.7300    2.4090 C   0  0  0  0  0  0  0  0  0  0  0  0
    0.4350    2.0780    0.9930 C   0  0  0  0  0  0  0  0  0  0  0  0
    0.7950    3.5170    0.7640 C   0  0  0  0  0  0  0  0  0  0  0  0
   -0.2450    4.4870    1.1810 C   0  0  0  0  0  0  0  0  0  0  0  0
   -1.4570    4.2070    0.4170 N   0  0  0  0  0  0  0  0  0  0  0  0
   -1.4480    0.0170    1.7940 C   0  0  0  0  0  0  0  0  0  0  0  0
   -2.4730    0.6820    2.0660 O   0  0  0  0  0  0  0  0  0  0  0  0
    1.2210   -0.5780    1.0700 H   0  0  0  0  0  0  0  0  0  0  0  0
   -0.3640   -0.0060    3.6060 H   0  0  0  0  0  0  0  0  0  0  0  0
    1.1040    1.8730    3.0050 H   0  0  0  0  0  0  0  0  0  0  0  0
   -0.6210    2.3010    2.8950 H   0  0  0  0  0  0  0  0  0  0  0  0
    1.2050    1.3960    0.5830 H   0  0  0  0  0  0  0  0  0  0  0  0
   -0.4900    1.8790    0.3930 H   0  0  0  0  0  0  0  0  0  0  0  0
    1.7280    3.7160    1.3670 H   0  0  0  0  0  0  0  0  0  0  0  0
    1.0740    3.7070   -0.2910 H   0  0  0  0  0  0  0  0  0  0  0  0
   -0.4350    4.5340    2.2590 H   0  0  0  0  0  0  0  0  0  0  0  0
    0.0800    5.5010    0.8680 H   0  0  0  0  0  0  0  0  0  0  0  0
   -1.1910    3.7420   -0.4980 H   0  0  0  0  0  0  0  0  0  0  0  0
   -2.0610    3.4950    0.9100 H   0  0  0  0  0  0  0  0  0  0  0  0
    1.6190   -3.7030   -3.9400 O   0  0  0  0  0  0  0  0  0  0  0  0
    0.5880   -2.9950   -3.3220 C   0  0  0  0  0  0  0  0  0  0  0  0
   -0.7120   -3.4560   -3.3200 C   0  0  0  0  0  0  0  0  0  0  0  0
   -1.7450   -2.7690   -2.7140 C   0  0  0  0  0  0  0  0  0  0  0  0
   -1.5050   -1.5720   -2.0740 C   0  0  0  0  0  0  0  0  0  0  0  0
   -2.5840   -0.8130   -1.4160 C   0  0  0  0  0  0  0  0  0  0  0  0
   -2.7600   -1.2030    0.0360 C   0  0  2  0  0  0  0  0  0  0  0  0
   -1.5320   -0.9540    0.7740 N   0  0  0  0  0  0  0  0  0  0  0  0
   -3.1740   -2.5990    0.2010 C   0  0  0  0  0  0  0  0  0  0  0  0
   -4.2070   -3.0200   -0.3550 O   0  0  0  0  0  0  0  0  0  0  0  0
   -0.2090   -1.1010   -2.0690 C   0  0  0  0  0  0  0  0  0  0  0  0
    0.8180   -1.7950   -2.6790 C   0  0  0  0  0  0  0  0  0  0  0  0
   -2.4260   -3.4570    0.9720 O   0  0  0  0  0  0  0  0  0  0  0  0
    2.2390   -3.1250   -4.5270 H   0  0  0  0  0  0  0  0  0  0  0  0
   -0.9160   -4.3930   -3.8180 H   0  0  0  0  0  0  0  0  0  0  0  0
   -2.7720   -3.1700   -2.7340 H   0  0  0  0  0  0  0  0  0  0  0  0
   -3.5270   -0.9190   -1.9670 H   0  0  0  0  0  0  0  0  0  0  0  0
   -2.2870    0.2660   -1.4140 H   0  0  0  0  0  0  0  0  0  0  0  0
   -3.5310   -0.4880    0.4440 H   0  0  0  0  0  0  0  0  0  0  0  0
   -0.6680   -1.5050    0.5570 H   0  0  0  0  0  0  0  0  0  0  0  0
    0.0470   -0.1630   -1.5810 H   0  0  0  0  0  0  0  0  0  0  0  0
    1.8210   -1.3840   -2.6480 H   0  0  0  0  0  0  0  0  0  0  0  0
  2  9  1  6  0  0  0
  2  5  1  0  0  0  0
  2  1  1  0  0  0  0
  3  4  1  0  0  0  0
  3  2  1  0  0  0  0
  4 12  1  0  0  0  0
  5  6  2  0  0  0  0
  7  1  1  0  0  0  0
  8  1  1  0  0  0  0
 10  3  1  0  0  0  0
 11  3  1  0  0  0  0
 13 14  1  0  0  0  0
 13  5  1  0  0  0  0
 14 23  1  1  0  0  0
 15 14  1  0  0  0  0
 15 25  1  0  0  0  0
 15 24  1  0  0  0  0
 16 15  1  0  0  0  0
 17 16  1  0  0  0  0
 17 18  1  0  0  0  0
 17 28  1  0  0  0  0
 18 30  1  0  0  0  0
 19 33  1  0  0  0  0
 19 18  1  0  0  0  0
 20 21  2  0  0  0  0
 20 14  1  0  0  0  0
 22 13  1  0  0  0  0
 26 16  1  0  0  0  0
 27 16  1  0  0  0  0
 29 17  1  0  0  0  0
 31 18  1  0  0  0  0
 32 19  1  0  0  0  0
 34 35  1  0  0  0  0
 35 36  2  0  0  0  0
 35 45  1  0  0  0  0
 36 37  1  0  0  0  0
 37 38  2  0  0  0  0
 38 44  1  0  0  0  0
 38 39  1  0  0  0  0
 39 51  1  0  0  0  0
 39 40  1  0  0  0  0
 40 42  1  0  0  0  0
 40 52  1  1  0  0  0
 40 41  1  0  0  0  0
 41 20  1  0  0  0  0
 42 46  1  0  0  0  0
 43 42  2  0  0  0  0
 44 54  1  0  0  0  0
 45 55  1  0  0  0  0
 45 44  2  0  0  0  0
 47 34  1  0  0  0  0
 48 36  1  0  0  0  0
 49 37  1  0  0  0  0
 50 39  1  0  0  0  0
 53 41  1  0  0  0  0
M  END
$$$$
