CLE.pdb
 OpenBabel07022418283D

 48 47  0  0  1  0  0  0  0  0999 V2000
    2.3570   -3.7980    2.8340 N   0  0  0  0  0  0  0  0  0  0  0  0
    1.5730   -3.2980    1.6700 C   0  0  1  0  0  0  0  0  0  0  0  0
    0.2010   -3.8480    1.8470 C   0  0  0  0  0  0  0  0  0  0  0  0
   -0.8580   -3.3610    0.4860 S   0  0  0  0  0  0  0  0  0  0  0  0
    1.6830   -1.8440    1.5900 C   0  0  0  0  0  0  0  0  0  0  0  0
    2.3820   -1.2890    2.5160 O   0  0  0  0  0  0  0  0  0  0  0  0
    3.1270   -3.1350    3.0150 H   0  0  0  0  0  0  0  0  0  0  0  0
    1.7050   -3.7930    3.6510 H   0  0  0  0  0  0  0  0  0  0  0  0
    2.0390   -3.7930    0.7940 H   0  0  0  0  0  0  0  0  0  0  0  0
    0.3060   -4.9650    1.8460 H   0  0  0  0  0  0  0  0  0  0  0  0
   -0.2160   -3.5640    2.8420 H   0  0  0  0  0  0  0  0  0  0  0  0
   -2.1160   -3.9610    0.5240 H   0  0  0  0  0  0  0  0  0  0  0  0
    3.2840   -0.8660   -1.3400 C   0  0  0  0  0  0  0  0  0  0  0  0
    3.2720    0.5950   -0.9570 C   0  0  0  0  0  0  0  0  0  0  0  0
    4.4170    0.8740   -0.0190 C   0  0  0  0  0  0  0  0  0  0  0  0
    1.9630    1.0690   -0.4960 C   0  0  0  0  0  0  0  0  0  0  0  0
    1.3650    0.4160    0.7150 C   0  0  2  0  0  0  0  0  0  0  0  0
    1.1210   -0.9790    0.6210 N   0  0  0  0  0  0  0  0  0  0  0  0
    0.1250    1.1660    1.0040 C   0  0  0  0  0  0  0  0  0  0  0  0
    0.1790    2.4290    1.1030 O   0  0  0  0  0  0  0  0  0  0  0  0
    2.3010   -1.2010   -1.7300 H   0  0  0  0  0  0  0  0  0  0  0  0
    3.9920   -1.0450   -2.2010 H   0  0  0  0  0  0  0  0  0  0  0  0
    3.6210   -1.5300   -0.5210 H   0  0  0  0  0  0  0  0  0  0  0  0
    3.5150    1.1530   -1.9080 H   0  0  0  0  0  0  0  0  0  0  0  0
    4.2330    1.7020    0.6740 H   0  0  0  0  0  0  0  0  0  0  0  0
    4.6190   -0.0860    0.5260 H   0  0  0  0  0  0  0  0  0  0  0  0
    5.3440    1.0860   -0.5920 H   0  0  0  0  0  0  0  0  0  0  0  0
    1.9410    2.1650   -0.3150 H   0  0  0  0  0  0  0  0  0  0  0  0
    1.2180    0.9140   -1.3310 H   0  0  0  0  0  0  0  0  0  0  0  0
    2.0500    0.6440    1.5710 H   0  0  0  0  0  0  0  0  0  0  0  0
    0.5510   -1.4090   -0.1260 H   0  0  0  0  0  0  0  0  0  0  0  0
   -1.1150    0.5180    1.1720 N   0  0  0  0  0  0  0  0  0  0  0  0
   -2.3550    1.2250    1.4560 C   0  0  1  0  0  0  0  0  0  0  0  0
   -3.3450    1.0380    0.3560 C   0  0  0  0  0  0  0  0  0  0  0  0
   -3.7150   -0.4050    0.1250 C   0  0  0  0  0  0  0  0  0  0  0  0
   -4.7010   -0.5400   -0.9770 C   0  0  0  0  0  0  0  0  0  0  0  0
   -5.1240    0.4770   -1.5920 O   0  0  0  0  0  0  0  0  0  0  0  0
   -2.8930    0.8550    2.7890 C   0  0  0  0  0  0  0  0  0  0  0  0
   -3.9510    1.3650    3.1960 O   0  0  0  0  0  0  0  0  0  0  0  0
   -5.2020   -1.7650   -1.3870 O   0  0  0  0  0  0  0  0  0  0  0  0
   -2.1840   -0.0620    3.5430 O   0  0  0  0  0  0  0  0  0  0  0  0
   -1.1290   -0.5100    1.0880 H   0  0  0  0  0  0  0  0  0  0  0  0
   -2.1220    2.3160    1.5080 H   0  0  0  0  0  0  0  0  0  0  0  0
   -2.9010    1.4240   -0.5770 H   0  0  0  0  0  0  0  0  0  0  0  0
   -4.2660    1.5890    0.5840 H   0  0  0  0  0  0  0  0  0  0  0  0
   -4.1870   -0.7730    1.0530 H   0  0  0  0  0  0  0  0  0  0  0  0
   -2.8640   -1.0480   -0.1170 H   0  0  0  0  0  0  0  0  0  0  0  0
   -6.1520   -1.8870   -1.7250 H   0  0  0  0  0  0  0  0  0  0  0  0
  1  7  1  0  0  0  0
  1  8  1  0  0  0  0
  2  9  1  6  0  0  0
  2  3  1  0  0  0  0
  2  1  1  0  0  0  0
  3 11  1  0  0  0  0
  4 12  1  0  0  0  0
  4  3  1  0  0  0  0
  5  2  1  0  0  0  0
  5  6  2  0  0  0  0
 10  3  1  0  0  0  0
 13 14  1  0  0  0  0
 13 23  1  0  0  0  0
 14 16  1  0  0  0  0
 14 15  1  0  0  0  0
 15 26  1  0  0  0  0
 15 25  1  0  0  0  0
 16 28  1  0  0  0  0
 16 17  1  0  0  0  0
 17 19  1  0  0  0  0
 17 30  1  1  0  0  0
 18 17  1  0  0  0  0
 18  5  1  0  0  0  0
 19 20  2  0  0  0  0
 19 32  1  0  0  0  0
 21 13  1  0  0  0  0
 22 13  1  0  0  0  0
 24 14  1  0  0  0  0
 27 15  1  0  0  0  0
 29 16  1  0  0  0  0
 31 18  1  0  0  0  0
 32 33  1  0  0  0  0
 33 43  1  1  0  0  0
 33 38  1  0  0  0  0
 34 45  1  0  0  0  0
 34 33  1  0  0  0  0
 35 34  1  0  0  0  0
 35 46  1  0  0  0  0
 36 35  1  0  0  0  0
 37 36  2  0  0  0  0
 38 39  2  0  0  0  0
 38 41  1  0  0  0  0
 40 36  1  0  0  0  0
 42 32  1  0  0  0  0
 44 34  1  0  0  0  0
 47 35  1  0  0  0  0
 48 40  1  0  0  0  0
M  END
$$$$
