CLG.pdb
 OpenBabel07022418283D

 39 38  0  0  1  0  0  0  0  0999 V2000
   -0.8940   -1.3980    3.8660 N   0  0  0  0  0  0  0  0  0  0  0  0
    0.3790   -0.8510    4.2340 C   0  0  1  0  0  0  0  0  0  0  0  0
    1.1770   -1.9800    4.8890 C   0  0  0  0  0  0  0  0  0  0  0  0
    1.3980   -3.3580    3.7310 S   0  0  0  0  0  0  0  0  0  0  0  0
    1.1730   -0.3900    3.0780 C   0  0  0  0  0  0  0  0  0  0  0  0
    2.3030    0.1100    3.2300 O   0  0  0  0  0  0  0  0  0  0  0  0
   -0.8260   -2.3490    3.4210 H   0  0  0  0  0  0  0  0  0  0  0  0
   -1.4870   -0.7460    3.3220 H   0  0  0  0  0  0  0  0  0  0  0  0
    0.1990   -0.0620    4.9900 H   0  0  0  0  0  0  0  0  0  0  0  0
    2.1920   -1.6350    5.1810 H   0  0  0  0  0  0  0  0  0  0  0  0
    0.6820   -2.3050    5.8340 H   0  0  0  0  0  0  0  0  0  0  0  0
    0.9350   -2.9400    2.4700 H   0  0  0  0  0  0  0  0  0  0  0  0
    1.3150   -3.0070   -1.9340 C   0  0  0  0  0  0  0  0  0  0  0  0
    0.6380   -2.0260   -0.9550 C   0  0  0  0  0  0  0  0  0  0  0  0
   -0.4190   -1.3340   -1.7640 C   0  0  0  0  0  0  0  0  0  0  0  0
    1.6840   -1.1360   -0.3970 C   0  0  0  0  0  0  0  0  0  0  0  0
    1.3170   -0.1060    0.5650 C   0  0  2  0  0  0  0  0  0  0  0  0
    0.6620   -0.5090    1.7750 N   0  0  0  0  0  0  0  0  0  0  0  0
    0.6700    1.0700   -0.0300 C   0  0  0  0  0  0  0  0  0  0  0  0
    1.0850    1.5910   -1.0970 O   0  0  0  0  0  0  0  0  0  0  0  0
    0.5290   -3.7450   -2.2060 H   0  0  0  0  0  0  0  0  0  0  0  0
    1.5610   -2.4640   -2.8830 H   0  0  0  0  0  0  0  0  0  0  0  0
    2.2110   -3.4460   -1.4990 H   0  0  0  0  0  0  0  0  0  0  0  0
    0.1670   -2.6890   -0.1800 H   0  0  0  0  0  0  0  0  0  0  0  0
   -0.8350   -2.0870   -2.4820 H   0  0  0  0  0  0  0  0  0  0  0  0
    0.0640   -0.5740   -2.4050 H   0  0  0  0  0  0  0  0  0  0  0  0
   -1.2350   -0.9280   -1.1280 H   0  0  0  0  0  0  0  0  0  0  0  0
    2.1160   -0.5840   -1.2970 H   0  0  0  0  0  0  0  0  0  0  0  0
    2.5890   -1.7550   -0.0880 H   0  0  0  0  0  0  0  0  0  0  0  0
    2.3240    0.3190    0.9430 H   0  0  0  0  0  0  0  0  0  0  0  0
   -0.2910   -0.9320    1.6670 H   0  0  0  0  0  0  0  0  0  0  0  0
   -0.4670    1.7100    0.5620 N   0  0  0  0  0  0  0  0  0  0  0  0
   -1.1030    2.8690    0.0440 C   0  0  0  0  0  0  0  0  0  0  0  0
   -1.6150    2.6790   -1.3110 C   0  0  0  0  0  0  0  0  0  0  0  0
   -1.5120    1.6350   -1.9740 O   0  0  0  0  0  0  0  0  0  0  0  0
   -2.2860    3.7400   -1.9530 O   0  0  0  0  0  0  0  0  0  0  0  0
   -0.8610    1.2840    1.4540 H   0  0  0  0  0  0  0  0  0  0  0  0
   -0.4600    3.7870    0.1320 H   0  0  0  0  0  0  0  0  0  0  0  0
   -2.0100    3.1210    0.6810 H   0  0  0  0  0  0  0  0  0  0  0  0
  1  2  1  0  0  0  0
  2  3  1  0  0  0  0
  2  9  1  1  0  0  0
  3 10  1  0  0  0  0
  3 11  1  0  0  0  0
  4  3  1  0  0  0  0
  5  6  2  0  0  0  0
  5  2  1  0  0  0  0
  7  1  1  0  0  0  0
  8  1  1  0  0  0  0
 12  4  1  0  0  0  0
 13 23  1  0  0  0  0
 13 14  1  0  0  0  0
 14 16  1  0  0  0  0
 14 24  1  0  0  0  0
 15 27  1  0  0  0  0
 15 14  1  0  0  0  0
 16 29  1  0  0  0  0
 16 17  1  0  0  0  0
 17 30  1  1  0  0  0
 17 18  1  0  0  0  0
 18  5  1  0  0  0  0
 19 32  1  0  0  0  0
 19 17  1  0  0  0  0
 20 19  2  0  0  0  0
 21 13  1  0  0  0  0
 22 13  1  0  0  0  0
 25 15  1  0  0  0  0
 26 15  1  0  0  0  0
 28 16  1  0  0  0  0
 31 18  1  0  0  0  0
 32 37  1  0  0  0  0
 33 38  1  0  0  0  0
 33 32  1  0  0  0  0
 33 39  1  0  0  0  0
 34 33  1  0  0  0  0
 35 34  2  0  0  0  0
 36 34  1  0  0  0  0
M  END
$$$$
