CLH.pdb
 OpenBabel07022418283D

 49 49  0  0  1  0  0  0  0  0999 V2000
    2.6050   -4.2060    2.5060 N   0  0  0  0  0  0  0  0  0  0  0  0
    3.2200   -2.9670    2.8700 C   0  0  1  0  0  0  0  0  0  0  0  0
    4.7230   -3.0740    2.7290 C   0  0  0  0  0  0  0  0  0  0  0  0
    5.3490   -4.3900    3.8160 S   0  0  0  0  0  0  0  0  0  0  0  0
    2.7810   -1.8250    2.0170 C   0  0  0  0  0  0  0  0  0  0  0  0
    3.2860   -0.7050    2.2860 O   0  0  0  0  0  0  0  0  0  0  0  0
    2.6000   -4.8320    3.3320 H   0  0  0  0  0  0  0  0  0  0  0  0
    3.0890   -4.6210    1.6940 H   0  0  0  0  0  0  0  0  0  0  0  0
    3.0100   -2.7320    3.9390 H   0  0  0  0  0  0  0  0  0  0  0  0
    4.9810   -3.2520    1.6650 H   0  0  0  0  0  0  0  0  0  0  0  0
    5.2210   -2.1400    3.0460 H   0  0  0  0  0  0  0  0  0  0  0  0
    4.4910   -5.5120    3.7340 H   0  0  0  0  0  0  0  0  0  0  0  0
    2.1980   -0.4890   -3.5520 C   0  0  0  0  0  0  0  0  0  0  0  0
    1.5950    0.0720   -2.2150 C   0  0  0  0  0  0  0  0  0  0  0  0
    0.1090    0.1890   -2.5750 C   0  0  0  0  0  0  0  0  0  0  0  0
    1.8850   -0.9970   -1.2250 C   0  0  0  0  0  0  0  0  0  0  0  0
    1.4940   -0.7360    0.1750 C   0  0  2  0  0  0  0  0  0  0  0  0
    1.8730   -1.9330    0.9750 N   0  0  0  0  0  0  0  0  0  0  0  0
    0.0610   -0.5750    0.4050 C   0  0  0  0  0  0  0  0  0  0  0  0
   -0.5980   -1.6140    0.7890 O   0  0  0  0  0  0  0  0  0  0  0  0
    1.8230    0.0860   -4.3980 H   0  0  0  0  0  0  0  0  0  0  0  0
    1.8100   -1.5260   -3.6050 H   0  0  0  0  0  0  0  0  0  0  0  0
    3.2790   -0.4840   -3.4060 H   0  0  0  0  0  0  0  0  0  0  0  0
    2.0510    1.0450   -2.0290 H   0  0  0  0  0  0  0  0  0  0  0  0
    0.0150    0.0420   -3.6960 H   0  0  0  0  0  0  0  0  0  0  0  0
   -0.2060    1.2150   -2.4090 H   0  0  0  0  0  0  0  0  0  0  0  0
   -0.4720   -0.6180   -2.1380 H   0  0  0  0  0  0  0  0  0  0  0  0
    1.3170   -1.9040   -1.5800 H   0  0  0  0  0  0  0  0  0  0  0  0
    2.9890   -1.1990   -1.3040 H   0  0  0  0  0  0  0  0  0  0  0  0
    2.0850    0.1160    0.6240 H   0  0  0  0  0  0  0  0  0  0  0  0
    1.4270   -2.8140    0.7060 H   0  0  0  0  0  0  0  0  0  0  0  0
   -0.6730    0.6430    0.2530 N   0  0  0  0  0  0  0  0  0  0  0  0
   -2.0930    0.5930    0.5520 C   0  0  1  0  0  0  0  0  0  0  0  0
   -2.2940    1.0330    2.0180 C   0  0  0  0  0  0  0  0  0  0  0  0
   -3.7370    0.9780    2.3120 C   0  0  0  0  0  0  0  0  0  0  0  0
   -4.7180    1.9550    2.2410 C   0  0  0  0  0  0  0  0  0  0  0  0
   -5.9000    1.4600    2.6360 N   0  0  0  0  0  0  0  0  0  0  0  0
   -5.6920    0.1790    2.9610 C   0  0  0  0  0  0  0  0  0  0  0  0
   -4.4030   -0.1260    2.7730 N   0  0  0  0  0  0  0  0  0  0  0  0
   -2.8090    1.5490   -0.2860 C   0  0  0  0  0  0  0  0  0  0  0  0
   -4.0690    1.6150   -0.3680 O   0  0  0  0  0  0  0  0  0  0  0  0
   -2.1020    2.4620   -1.0540 O   0  0  0  0  0  0  0  0  0  0  0  0
   -0.2410    1.5220   -0.0440 H   0  0  0  0  0  0  0  0  0  0  0  0
   -2.4800   -0.4480    0.5500 H   0  0  0  0  0  0  0  0  0  0  0  0
   -1.9550    2.0960    2.1350 H   0  0  0  0  0  0  0  0  0  0  0  0
   -1.6900    0.4320    2.6990 H   0  0  0  0  0  0  0  0  0  0  0  0
   -4.5490    2.9740    1.9180 H   0  0  0  0  0  0  0  0  0  0  0  0
   -6.8210    1.9720    2.6860 H   0  0  0  0  0  0  0  0  0  0  0  0
   -6.4370   -0.5040    3.3170 H   0  0  0  0  0  0  0  0  0  0  0  0
  1  2  1  0  0  0  0
  1  7  1  0  0  0  0
  2  9  1  1  0  0  0
  3  2  1  0  0  0  0
  3 11  1  0  0  0  0
  3  4  1  0  0  0  0
  5  6  2  0  0  0  0
  5  2  1  0  0  0  0
  8  1  1  0  0  0  0
 10  3  1  0  0  0  0
 12  4  1  0  0  0  0
 13 23  1  0  0  0  0
 13 14  1  0  0  0  0
 14 24  1  0  0  0  0
 14 16  1  0  0  0  0
 15 26  1  0  0  0  0
 15 14  1  0  0  0  0
 15 27  1  0  0  0  0
 16 17  1  0  0  0  0
 17 19  1  0  0  0  0
 17 30  1  1  0  0  0
 17 18  1  0  0  0  0
 18  5  1  0  0  0  0
 19 20  2  0  0  0  0
 21 13  1  0  0  0  0
 22 13  1  0  0  0  0
 25 15  1  0  0  0  0
 28 16  1  0  0  0  0
 29 16  1  0  0  0  0
 31 18  1  0  0  0  0
 32 19  1  0  0  0  0
 32 33  1  0  0  0  0
 33 44  1  6  0  0  0
 33 34  1  0  0  0  0
 34 45  1  0  0  0  0
 34 35  1  0  0  0  0
 34 46  1  0  0  0  0
 35 39  1  0  0  0  0
 36 35  2  0  0  0  0
 36 37  1  0  0  0  0
 37 48  1  0  0  0  0
 37 38  1  0  0  0  0
 38 49  1  0  0  0  0
 39 38  2  0  0  0  0
 40 33  1  0  0  0  0
 41 40  1  0  0  0  0
 42 40  2  0  0  0  0
 43 32  1  0  0  0  0
 47 36  1  0  0  0  0
M  END
$$$$
