CLL.pdb
 OpenBabel07022418283D

 51 50  0  0  1  0  0  0  0  0999 V2000
    3.4380   -3.7550   -0.7860 N   0  0  0  0  0  0  0  0  0  0  0  0
    2.3510   -2.8470   -1.0040 C   0  0  1  0  0  0  0  0  0  0  0  0
    1.0110   -3.5630   -1.0110 C   0  0  0  0  0  0  0  0  0  0  0  0
    0.9560   -4.8040   -2.3180 S   0  0  0  0  0  0  0  0  0  0  0  0
    2.2860   -1.7970    0.0460 C   0  0  0  0  0  0  0  0  0  0  0  0
    3.1500   -1.8310    0.9580 O   0  0  0  0  0  0  0  0  0  0  0  0
    4.1970   -3.5380   -1.4570 H   0  0  0  0  0  0  0  0  0  0  0  0
    3.0960   -4.7210   -0.9880 H   0  0  0  0  0  0  0  0  0  0  0  0
    2.4500   -2.3950   -2.0230 H   0  0  0  0  0  0  0  0  0  0  0  0
    0.2330   -2.7820   -1.2290 H   0  0  0  0  0  0  0  0  0  0  0  0
    0.7780   -4.0290   -0.0380 H   0  0  0  0  0  0  0  0  0  0  0  0
    1.7730   -5.8940   -2.0090 H   0  0  0  0  0  0  0  0  0  0  0  0
    2.9770    1.1480   -1.3310 C   0  0  0  0  0  0  0  0  0  0  0  0
    2.6460    1.9500   -0.1260 C   0  0  0  0  0  0  0  0  0  0  0  0
    3.8270    1.9420    0.8440 C   0  0  0  0  0  0  0  0  0  0  0  0
    1.3550    1.6360    0.5360 C   0  0  0  0  0  0  0  0  0  0  0  0
    1.2020    0.2440    1.0370 C   0  0  2  0  0  0  0  0  0  0  0  0
    1.2970   -0.7770    0.0500 N   0  0  0  0  0  0  0  0  0  0  0  0
   -0.0310    0.0180    1.8250 C   0  0  0  0  0  0  0  0  0  0  0  0
   -0.2660    0.8410    2.7460 O   0  0  0  0  0  0  0  0  0  0  0  0
    2.1420    0.6710   -1.8380 H   0  0  0  0  0  0  0  0  0  0  0  0
    3.4800    1.7950   -2.1110 H   0  0  0  0  0  0  0  0  0  0  0  0
    3.7950    0.4240   -1.0400 H   0  0  0  0  0  0  0  0  0  0  0  0
    2.5730    3.0300   -0.4600 H   0  0  0  0  0  0  0  0  0  0  0  0
    3.8150    2.8380    1.4710 H   0  0  0  0  0  0  0  0  0  0  0  0
    4.7360    2.0220    0.1880 H   0  0  0  0  0  0  0  0  0  0  0  0
    3.9170    0.9920    1.3790 H   0  0  0  0  0  0  0  0  0  0  0  0
    0.5400    1.8820   -0.1950 H   0  0  0  0  0  0  0  0  0  0  0  0
    1.2170    2.3690    1.3610 H   0  0  0  0  0  0  0  0  0  0  0  0
    2.0420    0.0710    1.7770 H   0  0  0  0  0  0  0  0  0  0  0  0
    0.6090   -0.8000   -0.7300 H   0  0  0  0  0  0  0  0  0  0  0  0
   -3.6210    1.2690    1.9410 C   0  0  0  0  0  0  0  0  0  0  0  0
   -3.5550    0.1900    0.9000 C   0  0  0  0  0  0  0  0  0  0  0  0
   -4.8570    0.1510    0.1160 C   0  0  0  0  0  0  0  0  0  0  0  0
   -3.4000   -1.1400    1.5710 C   0  0  0  0  0  0  0  0  0  0  0  0
   -2.1410   -1.2250    2.4100 C   0  0  2  0  0  0  0  0  0  0  0  0
   -0.9530   -1.0260    1.6350 N   0  0  0  0  0  0  0  0  0  0  0  0
   -2.1320   -2.5160    3.1390 C   0  0  0  0  0  0  0  0  0  0  0  0
   -1.1410   -3.2730    3.0180 O   0  0  0  0  0  0  0  0  0  0  0  0
   -3.1750   -2.9190    3.9480 O   0  0  0  0  0  0  0  0  0  0  0  0
   -3.7490    0.8880    2.9720 H   0  0  0  0  0  0  0  0  0  0  0  0
   -4.4970    1.9300    1.7160 H   0  0  0  0  0  0  0  0  0  0  0  0
   -2.6830    1.8720    1.9370 H   0  0  0  0  0  0  0  0  0  0  0  0
   -2.7250    0.3800    0.1930 H   0  0  0  0  0  0  0  0  0  0  0  0
   -4.6750   -0.3900   -0.8180 H   0  0  0  0  0  0  0  0  0  0  0  0
   -5.6230   -0.3710    0.7370 H   0  0  0  0  0  0  0  0  0  0  0  0
   -5.1520    1.2210   -0.0540 H   0  0  0  0  0  0  0  0  0  0  0  0
   -3.4640   -1.9700    0.8280 H   0  0  0  0  0  0  0  0  0  0  0  0
   -4.2690   -1.2770    2.2470 H   0  0  0  0  0  0  0  0  0  0  0  0
   -2.2000   -0.4230    3.1680 H   0  0  0  0  0  0  0  0  0  0  0  0
   -0.7560   -1.7060    0.8720 H   0  0  0  0  0  0  0  0  0  0  0  0
  2  9  1  6  0  0  0
  2  1  1  0  0  0  0
  2  5  1  0  0  0  0
  3  2  1  0  0  0  0
  3 11  1  0  0  0  0
  4 12  1  0  0  0  0
  4  3  1  0  0  0  0
  5 18  1  0  0  0  0
  5  6  2  0  0  0  0
  7  1  1  0  0  0  0
  8  1  1  0  0  0  0
 10  3  1  0  0  0  0
 13 23  1  0  0  0  0
 13 14  1  0  0  0  0
 14 16  1  0  0  0  0
 14 15  1  0  0  0  0
 15 27  1  0  0  0  0
 15 25  1  0  0  0  0
 16 17  1  0  0  0  0
 16 29  1  0  0  0  0
 17 30  1  1  0  0  0
 17 19  1  0  0  0  0
 18 17  1  0  0  0  0
 19 20  2  0  0  0  0
 21 13  1  0  0  0  0
 22 13  1  0  0  0  0
 24 14  1  0  0  0  0
 26 15  1  0  0  0  0
 28 16  1  0  0  0  0
 31 18  1  0  0  0  0
 32 41  1  0  0  0  0
 33 35  1  0  0  0  0
 33 32  1  0  0  0  0
 34 46  1  0  0  0  0
 34 33  1  0  0  0  0
 35 49  1  0  0  0  0
 35 36  1  0  0  0  0
 36 38  1  0  0  0  0
 36 50  1  1  0  0  0
 37 19  1  0  0  0  0
 37 36  1  0  0  0  0
 38 40  1  0  0  0  0
 39 38  2  0  0  0  0
 42 32  1  0  0  0  0
 43 32  1  0  0  0  0
 44 33  1  0  0  0  0
 45 34  1  0  0  0  0
 47 34  1  0  0  0  0
 48 35  1  0  0  0  0
 51 37  1  0  0  0  0
M  END
$$$$
