CLP.pdb
 OpenBabel07022418283D

 46 46  0  0  1  0  0  0  0  0999 V2000
    0.3560   -3.6940    0.8660 N   0  0  0  0  0  0  0  0  0  0  0  0
    0.7570   -3.3970    2.2250 C   0  0  1  0  0  0  0  0  0  0  0  0
    1.9980   -4.2240    2.5800 C   0  0  0  0  0  0  0  0  0  0  0  0
    3.3020   -3.7550    1.4090 S   0  0  0  0  0  0  0  0  0  0  0  0
    1.0350   -1.9760    2.4540 C   0  0  0  0  0  0  0  0  0  0  0  0
    1.4200   -1.6130    3.5980 O   0  0  0  0  0  0  0  0  0  0  0  0
   -0.6070   -3.3800    0.6360 H   0  0  0  0  0  0  0  0  0  0  0  0
    1.0640   -3.3840    0.1790 H   0  0  0  0  0  0  0  0  0  0  0  0
   -0.0470   -3.7860    2.8830 H   0  0  0  0  0  0  0  0  0  0  0  0
    1.7720   -5.3110    2.4980 H   0  0  0  0  0  0  0  0  0  0  0  0
    2.3120   -4.0310    3.6140 H   0  0  0  0  0  0  0  0  0  0  0  0
    3.3720   -4.7680    0.4330 H   0  0  0  0  0  0  0  0  0  0  0  0
    2.4100   -0.7330   -1.1690 C   0  0  0  0  0  0  0  0  0  0  0  0
    2.4450    0.6710   -0.6460 C   0  0  0  0  0  0  0  0  0  0  0  0
    1.5320    1.5950   -1.4330 C   0  0  0  0  0  0  0  0  0  0  0  0
    2.3390    0.8380    0.8160 C   0  0  0  0  0  0  0  0  0  0  0  0
    1.1090    0.3420    1.5140 C   0  0  2  0  0  0  0  0  0  0  0  0
    0.8590   -1.0640    1.3810 N   0  0  0  0  0  0  0  0  0  0  0  0
   -0.1000    1.1110    1.2180 C   0  0  0  0  0  0  0  0  0  0  0  0
    0.0590    2.3800    1.2930 O   0  0  0  0  0  0  0  0  0  0  0  0
    2.7460   -1.4110   -0.3870 H   0  0  0  0  0  0  0  0  0  0  0  0
    1.4540   -1.0040   -1.6680 H   0  0  0  0  0  0  0  0  0  0  0  0
    3.1670   -0.8790   -2.0060 H   0  0  0  0  0  0  0  0  0  0  0  0
    3.4850    1.0520   -0.9000 H   0  0  0  0  0  0  0  0  0  0  0  0
    1.7100    1.4090   -2.5140 H   0  0  0  0  0  0  0  0  0  0  0  0
    0.4650    1.3910   -1.2510 H   0  0  0  0  0  0  0  0  0  0  0  0
    1.8350    2.6260   -1.2240 H   0  0  0  0  0  0  0  0  0  0  0  0
    2.5310    1.9060    1.0510 H   0  0  0  0  0  0  0  0  0  0  0  0
    3.2260    0.3020    1.2720 H   0  0  0  0  0  0  0  0  0  0  0  0
    1.3900    0.4600    2.6210 H   0  0  0  0  0  0  0  0  0  0  0  0
    0.5370   -1.4420    0.4720 H   0  0  0  0  0  0  0  0  0  0  0  0
   -1.3810    0.6470    0.8700 N   0  0  0  0  0  0  0  0  0  0  0  0
   -1.8840   -0.6970    0.7060 C   0  0  0  0  0  0  0  0  0  0  0  0
   -3.4180   -0.5820    0.7680 C   0  0  0  0  0  0  0  0  0  0  0  0
   -3.6850    0.7860    0.1770 C   0  0  0  0  0  0  0  0  0  0  0  0
   -2.4900    1.5400    0.5990 C   0  0  1  0  0  0  0  0  0  0  0  0
   -2.7190    2.3930    1.8000 C   0  0  0  0  0  0  0  0  0  0  0  0
   -3.6490    3.2380    1.7470 O   0  0  0  0  0  0  0  0  0  0  0  0
   -1.9820    2.3140    2.9570 O   0  0  0  0  0  0  0  0  0  0  0  0
   -1.6910   -1.1560   -0.2630 H   0  0  0  0  0  0  0  0  0  0  0  0
   -1.6170   -1.3920    1.5040 H   0  0  0  0  0  0  0  0  0  0  0  0
   -3.9160   -1.3930    0.2310 H   0  0  0  0  0  0  0  0  0  0  0  0
   -3.7840   -0.5750    1.8070 H   0  0  0  0  0  0  0  0  0  0  0  0
   -3.8790    0.7540   -0.9010 H   0  0  0  0  0  0  0  0  0  0  0  0
   -4.5920    1.2480    0.6520 H   0  0  0  0  0  0  0  0  0  0  0  0
   -2.2350    2.2590   -0.2270 H   0  0  0  0  0  0  0  0  0  0  0  0
  1  2  1  0  0  0  0
  2  5  1  0  0  0  0
  2  3  1  0  0  0  0
  2  9  1  1  0  0  0
  3 11  1  0  0  0  0
  4  3  1  0  0  0  0
  5  6  2  0  0  0  0
  7  1  1  0  0  0  0
  8  1  1  0  0  0  0
 10  3  1  0  0  0  0
 12  4  1  0  0  0  0
 13 14  1  0  0  0  0
 13 21  1  0  0  0  0
 14 16  1  0  0  0  0
 15 26  1  0  0  0  0
 15 27  1  0  0  0  0
 15 14  1  0  0  0  0
 16 28  1  0  0  0  0
 16 29  1  0  0  0  0
 16 17  1  0  0  0  0
 17 30  1  1  0  0  0
 18 17  1  0  0  0  0
 18  5  1  0  0  0  0
 19 20  2  0  0  0  0
 19 17  1  0  0  0  0
 22 13  1  0  0  0  0
 23 13  1  0  0  0  0
 24 14  1  0  0  0  0
 25 15  1  0  0  0  0
 31 18  1  0  0  0  0
 32 19  1  0  0  0  0
 33 34  1  0  0  0  0
 33 32  1  0  0  0  0
 33 41  1  0  0  0  0
 34 43  1  0  0  0  0
 35 36  1  0  0  0  0
 35 45  1  0  0  0  0
 35 34  1  0  0  0  0
 36 46  1  6  0  0  0
 36 32  1  0  0  0  0
 36 37  1  0  0  0  0
 37 39  1  0  0  0  0
 38 37  2  0  0  0  0
 40 33  1  0  0  0  0
 42 34  1  0  0  0  0
 44 35  1  0  0  0  0
M  END
$$$$
