CLS.pdb
 OpenBabel07022418283D

 43 42  0  0  1  0  0  0  0  0999 V2000
    1.6640   -5.1210    2.2550 N   0  0  0  0  0  0  0  0  0  0  0  0
    0.8710   -4.2610    1.4110 C   0  0  1  0  0  0  0  0  0  0  0  0
   -0.5700   -4.2530    1.8720 C   0  0  0  0  0  0  0  0  0  0  0  0
   -1.1790   -5.9590    1.7710 S   0  0  0  0  0  0  0  0  0  0  0  0
    1.4640   -2.9060    1.4240 C   0  0  0  0  0  0  0  0  0  0  0  0
    2.5000   -2.7100    2.1180 O   0  0  0  0  0  0  0  0  0  0  0  0
    1.7150   -6.0950    1.8510 H   0  0  0  0  0  0  0  0  0  0  0  0
    2.6640   -4.8030    2.3380 H   0  0  0  0  0  0  0  0  0  0  0  0
    0.8520   -4.6900    0.3740 H   0  0  0  0  0  0  0  0  0  0  0  0
   -0.6870   -3.8600    2.9000 H   0  0  0  0  0  0  0  0  0  0  0  0
   -1.1650   -3.6390    1.1810 H   0  0  0  0  0  0  0  0  0  0  0  0
   -2.2710   -6.0560    0.9030 H   0  0  0  0  0  0  0  0  0  0  0  0
    0.4010   -1.3320   -2.3120 C   0  0  0  0  0  0  0  0  0  0  0  0
    0.9940   -0.0310   -1.8590 C   0  0  0  0  0  0  0  0  0  0  0  0
   -0.0780    1.0610   -1.8040 C   0  0  0  0  0  0  0  0  0  0  0  0
    1.8740   -0.0720   -0.6820 C   0  0  0  0  0  0  0  0  0  0  0  0
    1.3570   -0.5500    0.6160 C   0  0  2  0  0  0  0  0  0  0  0  0
    0.8560   -1.8760    0.6620 N   0  0  0  0  0  0  0  0  0  0  0  0
    0.3930    0.3550    1.2930 C   0  0  0  0  0  0  0  0  0  0  0  0
   -0.6990   -0.1010    1.7780 O   0  0  0  0  0  0  0  0  0  0  0  0
    0.9880   -2.2100   -2.0410 H   0  0  0  0  0  0  0  0  0  0  0  0
    0.3460   -1.3720   -3.4450 H   0  0  0  0  0  0  0  0  0  0  0  0
   -0.6750   -1.3710   -2.0190 H   0  0  0  0  0  0  0  0  0  0  0  0
    1.6470    0.3100   -2.7240 H   0  0  0  0  0  0  0  0  0  0  0  0
   -0.7460    0.8430   -2.6750 H   0  0  0  0  0  0  0  0  0  0  0  0
   -0.6940    1.0040   -0.9110 H   0  0  0  0  0  0  0  0  0  0  0  0
    0.3890    2.0260   -2.0140 H   0  0  0  0  0  0  0  0  0  0  0  0
    2.2310    0.9890   -0.5140 H   0  0  0  0  0  0  0  0  0  0  0  0
    2.8100   -0.6150   -0.9600 H   0  0  0  0  0  0  0  0  0  0  0  0
    2.2530   -0.5310    1.3210 H   0  0  0  0  0  0  0  0  0  0  0  0
    0.0100   -2.1380    0.1320 H   0  0  0  0  0  0  0  0  0  0  0  0
   -0.8520    3.9220    4.0050 O   0  0  0  0  0  0  0  0  0  0  0  0
    0.1570    3.1410    3.4360 C   0  0  0  0  0  0  0  0  0  0  0  0
   -0.3990    2.5900    2.1390 C   0  0  2  0  0  0  0  0  0  0  0  0
    0.5850    1.7540    1.4600 N   0  0  0  0  0  0  0  0  0  0  0  0
   -0.8670    3.6550    1.2400 C   0  0  0  0  0  0  0  0  0  0  0  0
   -1.7230    4.4710    1.6430 O   0  0  0  0  0  0  0  0  0  0  0  0
   -0.3750    3.7640   -0.0370 O   0  0  0  0  0  0  0  0  0  0  0  0
   -1.4880    3.3850    4.5360 H   0  0  0  0  0  0  0  0  0  0  0  0
    1.0450    3.7580    3.3010 H   0  0  0  0  0  0  0  0  0  0  0  0
    0.3050    2.2760    4.1250 H   0  0  0  0  0  0  0  0  0  0  0  0
   -1.2660    1.9630    2.4290 H   0  0  0  0  0  0  0  0  0  0  0  0
    1.4640    2.1550    1.0740 H   0  0  0  0  0  0  0  0  0  0  0  0
  1  8  1  0  0  0  0
  2  9  1  6  0  0  0
  2  5  1  0  0  0  0
  2  3  1  0  0  0  0
  2  1  1  0  0  0  0
  3 10  1  0  0  0  0
  4  3  1  0  0  0  0
  5  6  2  0  0  0  0
  7  1  1  0  0  0  0
 11  3  1  0  0  0  0
 12  4  1  0  0  0  0
 13 21  1  0  0  0  0
 13 23  1  0  0  0  0
 13 14  1  0  0  0  0
 14 15  1  0  0  0  0
 14 16  1  0  0  0  0
 15 26  1  0  0  0  0
 16 28  1  0  0  0  0
 16 17  1  0  0  0  0
 17 18  1  0  0  0  0
 17 19  1  0  0  0  0
 17 30  1  1  0  0  0
 18  5  1  0  0  0  0
 19 35  1  0  0  0  0
 19 20  2  0  0  0  0
 22 13  1  0  0  0  0
 24 14  1  0  0  0  0
 25 15  1  0  0  0  0
 27 15  1  0  0  0  0
 29 16  1  0  0  0  0
 31 18  1  0  0  0  0
 32 39  1  0  0  0  0
 33 32  1  0  0  0  0
 33 41  1  0  0  0  0
 34 42  1  1  0  0  0
 34 33  1  0  0  0  0
 35 34  1  0  0  0  0
 36 37  1  0  0  0  0
 36 34  1  0  0  0  0
 38 36  2  0  0  0  0
 40 33  1  0  0  0  0
 43 35  1  0  0  0  0
M  END
$$$$
