CLT.pdb
 OpenBabel07022418283D

 46 45  0  0  1  0  0  0  0  0999 V2000
   -0.3760   -4.6570   -1.7080 N   0  0  0  0  0  0  0  0  0  0  0  0
   -0.3350   -3.2390   -1.4920 C   0  0  1  0  0  0  0  0  0  0  0  0
   -1.6760   -2.7260   -0.9780 C   0  0  0  0  0  0  0  0  0  0  0  0
   -1.9870   -3.5970    0.5900 S   0  0  0  0  0  0  0  0  0  0  0  0
    0.7230   -2.8350   -0.5370 C   0  0  0  0  0  0  0  0  0  0  0  0
    1.4440   -3.6870   -0.0240 O   0  0  0  0  0  0  0  0  0  0  0  0
   -0.6620   -4.8910   -2.6870 H   0  0  0  0  0  0  0  0  0  0  0  0
    0.5610   -5.0670   -1.4880 H   0  0  0  0  0  0  0  0  0  0  0  0
   -0.1700   -2.7570   -2.4880 H   0  0  0  0  0  0  0  0  0  0  0  0
   -2.4690   -2.9480   -1.7240 H   0  0  0  0  0  0  0  0  0  0  0  0
   -1.6110   -1.6390   -0.8200 H   0  0  0  0  0  0  0  0  0  0  0  0
   -0.7520   -4.0470    1.1460 H   0  0  0  0  0  0  0  0  0  0  0  0
    1.6800    1.2210   -1.5900 C   0  0  0  0  0  0  0  0  0  0  0  0
    2.5320    1.2390   -0.3880 C   0  0  0  0  0  0  0  0  0  0  0  0
    1.9470    2.2160    0.6370 C   0  0  0  0  0  0  0  0  0  0  0  0
    2.9240   -0.0540    0.2130 C   0  0  0  0  0  0  0  0  0  0  0  0
    1.8930   -0.9740    0.6950 C   0  0  2  0  0  0  0  0  0  0  0  0
    0.9230   -1.4740   -0.1980 N   0  0  0  0  0  0  0  0  0  0  0  0
    1.2340   -0.4100    1.9000 C   0  0  0  0  0  0  0  0  0  0  0  0
    1.9070    0.0930    2.8070 O   0  0  0  0  0  0  0  0  0  0  0  0
    1.7200    0.3210   -2.2110 H   0  0  0  0  0  0  0  0  0  0  0  0
    0.6020    1.4680   -1.3610 H   0  0  0  0  0  0  0  0  0  0  0  0
    1.9690    2.0630   -2.2900 H   0  0  0  0  0  0  0  0  0  0  0  0
    3.5010    1.7530   -0.6880 H   0  0  0  0  0  0  0  0  0  0  0  0
    1.7680    3.2150    0.1410 H   0  0  0  0  0  0  0  0  0  0  0  0
    0.9650    1.8380    0.9040 H   0  0  0  0  0  0  0  0  0  0  0  0
    2.6550    2.3700    1.4760 H   0  0  0  0  0  0  0  0  0  0  0  0
    3.5410    0.2220    1.1310 H   0  0  0  0  0  0  0  0  0  0  0  0
    3.7160   -0.5530   -0.4290 H   0  0  0  0  0  0  0  0  0  0  0  0
    2.4450   -1.8880    1.0980 H   0  0  0  0  0  0  0  0  0  0  0  0
    0.2820   -0.7920   -0.6600 H   0  0  0  0  0  0  0  0  0  0  0  0
   -1.3560    2.4730    2.5060 C   0  0  0  0  0  0  0  0  0  0  0  0
   -1.9140    1.1400    2.8690 C   0  0  1  0  0  0  0  0  0  0  0  0
   -2.9060    0.6960    1.9650 O   0  0  0  0  0  0  0  0  0  0  0  0
   -0.9130    0.0770    3.1630 C   0  0  2  0  0  0  0  0  0  0  0  0
   -0.1820   -0.4290    2.0560 N   0  0  0  0  0  0  0  0  0  0  0  0
   -1.5940   -1.0010    3.9440 C   0  0  0  0  0  0  0  0  0  0  0  0
   -1.4720   -2.1860    3.5840 O   0  0  0  0  0  0  0  0  0  0  0  0
   -2.3620   -0.7320    5.0640 O   0  0  0  0  0  0  0  0  0  0  0  0
   -0.2810    2.5390    2.8310 H   0  0  0  0  0  0  0  0  0  0  0  0
   -1.8540    3.3210    3.0630 H   0  0  0  0  0  0  0  0  0  0  0  0
   -1.4790    2.7280    1.4340 H   0  0  0  0  0  0  0  0  0  0  0  0
   -2.4920    1.2940    3.8310 H   0  0  0  0  0  0  0  0  0  0  0  0
   -3.4300    0.0130    2.4440 H   0  0  0  0  0  0  0  0  0  0  0  0
   -0.1700    0.5140    3.8810 H   0  0  0  0  0  0  0  0  0  0  0  0
   -0.7230   -0.8610    1.2710 H   0  0  0  0  0  0  0  0  0  0  0  0
  1  2  1  0  0  0  0
  1  8  1  0  0  0  0
  2  9  1  6  0  0  0
  2  3  1  0  0  0  0
  2  5  1  0  0  0  0
  3 11  1  0  0  0  0
  3  4  1  0  0  0  0
  4 12  1  0  0  0  0
  5 18  1  0  0  0  0
  5  6  2  0  0  0  0
  7  1  1  0  0  0  0
 10  3  1  0  0  0  0
 13 22  1  0  0  0  0
 13 14  1  0  0  0  0
 14 16  1  0  0  0  0
 14 15  1  0  0  0  0
 15 26  1  0  0  0  0
 15 27  1  0  0  0  0
 16 17  1  0  0  0  0
 16 28  1  0  0  0  0
 17 30  1  1  0  0  0
 17 19  1  0  0  0  0
 18 17  1  0  0  0  0
 19 36  1  0  0  0  0
 19 20  2  0  0  0  0
 21 13  1  0  0  0  0
 23 13  1  0  0  0  0
 24 14  1  0  0  0  0
 25 15  1  0  0  0  0
 29 16  1  0  0  0  0
 31 18  1  0  0  0  0
 32 40  1  0  0  0  0
 32 33  1  0  0  0  0
 32 41  1  0  0  0  0
 33 35  1  0  0  0  0
 33 43  1  1  0  0  0
 34 44  1  0  0  0  0
 34 33  1  0  0  0  0
 35 45  1  1  0  0  0
 35 37  1  0  0  0  0
 36 35  1  0  0  0  0
 37 39  1  0  0  0  0
 38 37  2  0  0  0  0
 42 32  1  0  0  0  0
 46 36  1  0  0  0  0
M  END
$$$$
