CLY.pdb
 OpenBabel07022418283D

 53 53  0  0  1  0  0  0  0  0999 V2000
   -0.3230   -0.9000    4.4280 N   0  0  0  0  0  0  0  0  0  0  0  0
    0.2000   -1.5660    3.2500 C   0  0  1  0  0  0  0  0  0  0  0  0
   -0.8630   -2.4480    2.6590 C   0  0  0  0  0  0  0  0  0  0  0  0
   -1.3110   -3.6670    3.9560 S   0  0  0  0  0  0  0  0  0  0  0  0
    0.7140   -0.5340    2.3340 C   0  0  0  0  0  0  0  0  0  0  0  0
    0.6820    0.7090    2.6020 O   0  0  0  0  0  0  0  0  0  0  0  0
    0.4240   -0.2450    4.7560 H   0  0  0  0  0  0  0  0  0  0  0  0
   -0.5350   -1.5900    5.1880 H   0  0  0  0  0  0  0  0  0  0  0  0
    1.0240   -2.2300    3.6360 H   0  0  0  0  0  0  0  0  0  0  0  0
   -0.5250   -3.0280    1.7970 H   0  0  0  0  0  0  0  0  0  0  0  0
   -1.7510   -1.8210    2.4600 H   0  0  0  0  0  0  0  0  0  0  0  0
   -2.6970   -3.6770    4.1270 H   0  0  0  0  0  0  0  0  0  0  0  0
    5.6140   -0.2730    0.2160 C   0  0  0  0  0  0  0  0  0  0  0  0
    4.2260   -0.0590    0.7790 C   0  0  0  0  0  0  0  0  0  0  0  0
    4.2240    1.2620    1.4970 C   0  0  0  0  0  0  0  0  0  0  0  0
    3.2040   -0.1000   -0.3390 C   0  0  0  0  0  0  0  0  0  0  0  0
    1.8130    0.1020    0.1370 C   0  0  2  0  0  0  0  0  0  0  0  0
    1.2960   -0.8160    1.0690 N   0  0  0  0  0  0  0  0  0  0  0  0
    0.9030    0.0720   -1.0690 C   0  0  0  0  0  0  0  0  0  0  0  0
    1.2490    0.8090   -1.9950 O   0  0  0  0  0  0  0  0  0  0  0  0
    5.6240    0.1090   -0.8170 H   0  0  0  0  0  0  0  0  0  0  0  0
    6.3980    0.2100    0.8350 H   0  0  0  0  0  0  0  0  0  0  0  0
    5.7820   -1.3740    0.1730 H   0  0  0  0  0  0  0  0  0  0  0  0
    4.0580   -0.8490    1.5330 H   0  0  0  0  0  0  0  0  0  0  0  0
    4.9420    1.1610    2.3520 H   0  0  0  0  0  0  0  0  0  0  0  0
    3.2430    1.4870    1.9760 H   0  0  0  0  0  0  0  0  0  0  0  0
    4.6040    2.0990    0.8850 H   0  0  0  0  0  0  0  0  0  0  0  0
    3.3710   -0.9540   -0.9940 H   0  0  0  0  0  0  0  0  0  0  0  0
    3.4510    0.8070   -0.9710 H   0  0  0  0  0  0  0  0  0  0  0  0
    1.7090    1.1350    0.5350 H   0  0  0  0  0  0  0  0  0  0  0  0
    1.3390   -1.8480    0.8050 H   0  0  0  0  0  0  0  0  0  0  0  0
   -5.5840   -1.6780    2.4590 O   0  0  0  0  0  0  0  0  0  0  0  0
   -4.8190   -1.3030    1.3550 C   0  0  0  0  0  0  0  0  0  0  0  0
   -3.9290   -0.2380    1.4100 C   0  0  0  0  0  0  0  0  0  0  0  0
   -3.1730    0.1420    0.3340 C   0  0  0  0  0  0  0  0  0  0  0  0
   -3.2640   -0.5160   -0.8440 C   0  0  0  0  0  0  0  0  0  0  0  0
   -2.4880   -0.1820   -2.0620 C   0  0  0  0  0  0  0  0  0  0  0  0
   -1.1960   -0.9030   -2.1720 C   0  0  2  0  0  0  0  0  0  0  0  0
   -0.2410   -0.7180   -1.1520 N   0  0  0  0  0  0  0  0  0  0  0  0
   -0.6160   -0.7340   -3.5410 C   0  0  0  0  0  0  0  0  0  0  0  0
    0.5650   -0.5820   -3.8200 O   0  0  0  0  0  0  0  0  0  0  0  0
   -4.1550   -1.5860   -0.9090 C   0  0  0  0  0  0  0  0  0  0  0  0
   -4.9220   -1.9780    0.1670 C   0  0  0  0  0  0  0  0  0  0  0  0
   -1.5390   -0.7520   -4.6200 O   0  0  0  0  0  0  0  0  0  0  0  0
   -6.0330   -0.9510    3.0090 H   0  0  0  0  0  0  0  0  0  0  0  0
   -3.8780    0.2710    2.3710 H   0  0  0  0  0  0  0  0  0  0  0  0
   -2.5080    0.9760    0.4580 H   0  0  0  0  0  0  0  0  0  0  0  0
   -2.3760    0.9340   -2.1580 H   0  0  0  0  0  0  0  0  0  0  0  0
   -3.1220   -0.4640   -2.9290 H   0  0  0  0  0  0  0  0  0  0  0  0
   -1.4670   -2.0410   -2.2440 H   0  0  0  0  0  0  0  0  0  0  0  0
   -0.4100   -1.2930   -0.2410 H   0  0  0  0  0  0  0  0  0  0  0  0
   -4.2780   -2.1560   -1.8210 H   0  0  0  0  0  0  0  0  0  0  0  0
   -5.6110   -2.8200    0.0850 H   0  0  0  0  0  0  0  0  0  0  0  0
  1  7  1  0  0  0  0
  1  8  1  0  0  0  0
  2  9  1  1  0  0  0
  2  1  1  0  0  0  0
  3  2  1  0  0  0  0
  3  4  1  0  0  0  0
  4 12  1  0  0  0  0
  5  6  2  0  0  0  0
  5  2  1  0  0  0  0
 10  3  1  0  0  0  0
 11  3  1  0  0  0  0
 13 14  1  0  0  0  0
 13 22  1  0  0  0  0
 14 15  1  0  0  0  0
 14 24  1  0  0  0  0
 15 26  1  0  0  0  0
 15 25  1  0  0  0  0
 16 17  1  0  0  0  0
 16 14  1  0  0  0  0
 17 30  1  1  0  0  0
 17 18  1  0  0  0  0
 18  5  1  0  0  0  0
 19 17  1  0  0  0  0
 20 19  2  0  0  0  0
 21 13  1  0  0  0  0
 23 13  1  0  0  0  0
 27 15  1  0  0  0  0
 28 16  1  0  0  0  0
 29 16  1  0  0  0  0
 31 18  1  0  0  0  0
 32 45  1  0  0  0  0
 33 34  1  0  0  0  0
 33 32  1  0  0  0  0
 34 46  1  0  0  0  0
 35 47  1  0  0  0  0
 35 34  2  0  0  0  0
 36 35  1  0  0  0  0
 37 36  1  0  0  0  0
 38 50  1  1  0  0  0
 38 37  1  0  0  0  0
 38 39  1  0  0  0  0
 39 19  1  0  0  0  0
 39 51  1  0  0  0  0
 40 38  1  0  0  0  0
 41 40  1  0  0  0  0
 42 36  2  0  0  0  0
 42 43  1  0  0  0  0
 43 33  2  0  0  0  0
 44 40  2  0  0  0  0
 48 37  1  0  0  0  0
 49 37  1  0  0  0  0
 52 42  1  0  0  0  0
 53 43  1  0  0  0  0
M  END
$$$$
