CMA.pdb
 OpenBabel07022418283D

 40 39  0  0  1  0  0  0  0  0999 V2000
    2.9520   -3.2700    3.1950 N   0  0  0  0  0  0  0  0  0  0  0  0
    1.8050   -3.3040    2.3450 C   0  0  1  0  0  0  0  0  0  0  0  0
    0.5620   -3.4320    3.2100 C   0  0  0  0  0  0  0  0  0  0  0  0
    0.5960   -4.9360    4.2000 S   0  0  0  0  0  0  0  0  0  0  0  0
    1.6800   -1.9780    1.6380 C   0  0  0  0  0  0  0  0  0  0  0  0
    2.5280   -1.0780    1.8540 O   0  0  0  0  0  0  0  0  0  0  0  0
    2.7990   -3.9060    4.0210 H   0  0  0  0  0  0  0  0  0  0  0  0
    3.1600   -2.3280    3.5510 H   0  0  0  0  0  0  0  0  0  0  0  0
    1.8340   -4.1250    1.6090 H   0  0  0  0  0  0  0  0  0  0  0  0
   -0.3120   -3.4740    2.5190 H   0  0  0  0  0  0  0  0  0  0  0  0
    0.4700   -2.5770    3.9000 H   0  0  0  0  0  0  0  0  0  0  0  0
   -0.7060   -5.4580    4.2550 H   0  0  0  0  0  0  0  0  0  0  0  0
    3.6730   -0.9180   -1.1690 C   0  0  0  0  0  0  0  0  0  0  0  0
    2.5340   -0.8240   -2.5230 S   0  0  0  0  0  0  0  0  0  0  0  0
    0.8850   -1.3890   -2.2210 C   0  0  0  0  0  0  0  0  0  0  0  0
    0.0240   -0.5820   -1.3420 C   0  0  0  0  0  0  0  0  0  0  0  0
    0.5060   -0.4570    0.0490 C   0  0  2  0  0  0  0  0  0  0  0  0
    0.6270   -1.7220    0.7340 N   0  0  0  0  0  0  0  0  0  0  0  0
   -0.5030    0.3390    0.8770 C   0  0  0  0  0  0  0  0  0  0  0  0
   -0.9810   -0.2030    1.8830 O   0  0  0  0  0  0  0  0  0  0  0  0
    4.7370   -1.0310   -1.5700 H   0  0  0  0  0  0  0  0  0  0  0  0
    3.6990   -0.0150   -0.5320 H   0  0  0  0  0  0  0  0  0  0  0  0
    3.5320   -1.8390   -0.5470 H   0  0  0  0  0  0  0  0  0  0  0  0
    0.3560   -1.4180   -3.2360 H   0  0  0  0  0  0  0  0  0  0  0  0
    0.8850   -2.4840   -1.9440 H   0  0  0  0  0  0  0  0  0  0  0  0
   -0.0360    0.4460   -1.7890 H   0  0  0  0  0  0  0  0  0  0  0  0
   -1.0110   -1.0050   -1.4110 H   0  0  0  0  0  0  0  0  0  0  0  0
    1.4640    0.0770    0.1010 H   0  0  0  0  0  0  0  0  0  0  0  0
   -0.0770   -2.4660    0.5600 H   0  0  0  0  0  0  0  0  0  0  0  0
   -1.2570    3.7300    1.7810 C   0  0  0  0  0  0  0  0  0  0  0  0
   -1.8370    2.4410    1.2710 C   0  0  2  0  0  0  0  0  0  0  0  0
   -0.8900    1.6450    0.5270 N   0  0  0  0  0  0  0  0  0  0  0  0
   -3.0290    2.7140    0.4320 C   0  0  0  0  0  0  0  0  0  0  0  0
   -4.0090    3.3890    0.8470 O   0  0  0  0  0  0  0  0  0  0  0  0
   -3.0610    2.2050   -0.8550 O   0  0  0  0  0  0  0  0  0  0  0  0
   -1.8460    4.0410    2.6710 H   0  0  0  0  0  0  0  0  0  0  0  0
   -1.3410    4.5540    1.0400 H   0  0  0  0  0  0  0  0  0  0  0  0
   -0.2300    3.5560    2.1290 H   0  0  0  0  0  0  0  0  0  0  0  0
   -2.2250    1.8840    2.1700 H   0  0  0  0  0  0  0  0  0  0  0  0
   -0.4580    2.0560   -0.3290 H   0  0  0  0  0  0  0  0  0  0  0  0
  1  8  1  0  0  0  0
  1  7  1  0  0  0  0
  2  9  1  6  0  0  0
  2  1  1  0  0  0  0
  2  3  1  0  0  0  0
  3 11  1  0  0  0  0
  3  4  1  0  0  0  0
  4 12  1  0  0  0  0
  5  6  2  0  0  0  0
  5  2  1  0  0  0  0
 10  3  1  0  0  0  0
 13 23  1  0  0  0  0
 13 22  1  0  0  0  0
 14 15  1  0  0  0  0
 14 13  1  0  0  0  0
 15 25  1  0  0  0  0
 15 16  1  0  0  0  0
 16 17  1  0  0  0  0
 17 28  1  1  0  0  0
 17 18  1  0  0  0  0
 17 19  1  0  0  0  0
 18  5  1  0  0  0  0
 19 20  2  0  0  0  0
 21 13  1  0  0  0  0
 24 15  1  0  0  0  0
 26 16  1  0  0  0  0
 27 16  1  0  0  0  0
 29 18  1  0  0  0  0
 30 38  1  0  0  0  0
 30 36  1  0  0  0  0
 31 30  1  0  0  0  0
 31 39  1  1  0  0  0
 32 19  1  0  0  0  0
 32 31  1  0  0  0  0
 33 34  1  0  0  0  0
 33 31  1  0  0  0  0
 35 33  2  0  0  0  0
 37 30  1  0  0  0  0
 40 32  1  0  0  0  0
M  END
$$$$
