CMD.pdb
 OpenBabel07022418283D

 43 42  0  0  1  0  0  0  0  0999 V2000
    3.4890   -3.5620    2.2110 N   0  0  0  0  0  0  0  0  0  0  0  0
    3.3670   -3.5090    0.7880 C   0  0  1  0  0  0  0  0  0  0  0  0
    3.1350   -4.9020    0.2490 C   0  0  0  0  0  0  0  0  0  0  0  0
    1.6400   -5.6520    0.9040 S   0  0  0  0  0  0  0  0  0  0  0  0
    2.2250   -2.6670    0.3400 C   0  0  0  0  0  0  0  0  0  0  0  0
    1.9840   -2.5640   -0.8940 O   0  0  0  0  0  0  0  0  0  0  0  0
    3.9490   -4.4470    2.5340 H   0  0  0  0  0  0  0  0  0  0  0  0
    3.9930   -2.7760    2.6490 H   0  0  0  0  0  0  0  0  0  0  0  0
    4.3340   -3.1540    0.3770 H   0  0  0  0  0  0  0  0  0  0  0  0
    3.0260   -4.8010   -0.8690 H   0  0  0  0  0  0  0  0  0  0  0  0
    4.0330   -5.5450    0.3850 H   0  0  0  0  0  0  0  0  0  0  0  0
    1.2640   -6.7130    0.0440 H   0  0  0  0  0  0  0  0  0  0  0  0
   -1.6590   -0.4470   -1.9800 C   0  0  0  0  0  0  0  0  0  0  0  0
   -2.6970   -1.2580   -0.8130 S   0  0  0  0  0  0  0  0  0  0  0  0
   -2.2970   -1.0790    0.9320 C   0  0  0  0  0  0  0  0  0  0  0  0
   -0.9950   -1.6990    1.3250 C   0  0  0  0  0  0  0  0  0  0  0  0
    0.2390   -1.1270    0.7260 C   0  0  2  0  0  0  0  0  0  0  0  0
    1.3840   -1.9680    1.2210 N   0  0  0  0  0  0  0  0  0  0  0  0
    0.6260    0.2170    1.2420 C   0  0  0  0  0  0  0  0  0  0  0  0
    1.6810    0.3400    1.9820 O   0  0  0  0  0  0  0  0  0  0  0  0
   -0.8970   -1.1250   -2.4660 H   0  0  0  0  0  0  0  0  0  0  0  0
   -2.2450    0.0450   -2.8270 H   0  0  0  0  0  0  0  0  0  0  0  0
   -1.0670    0.3800   -1.5670 H   0  0  0  0  0  0  0  0  0  0  0  0
   -2.3840   -0.0190    1.2350 H   0  0  0  0  0  0  0  0  0  0  0  0
   -3.1410   -1.5750    1.5380 H   0  0  0  0  0  0  0  0  0  0  0  0
   -1.0500   -2.7690    0.9380 H   0  0  0  0  0  0  0  0  0  0  0  0
   -0.9150   -1.8460    2.4310 H   0  0  0  0  0  0  0  0  0  0  0  0
    0.2010   -1.2110   -0.3610 H   0  0  0  0  0  0  0  0  0  0  0  0
    1.5150   -1.9990    2.2380 H   0  0  0  0  0  0  0  0  0  0  0  0
   -0.0420    1.4380    1.0160 N   0  0  0  0  0  0  0  0  0  0  0  0
    0.4680    2.7000    1.6020 C   0  0  1  0  0  0  0  0  0  0  0  0
    0.6560    3.7350    0.5230 C   0  0  0  0  0  0  0  0  0  0  0  0
   -0.6190    4.0380   -0.1610 C   0  0  0  0  0  0  0  0  0  0  0  0
   -0.6570    4.8390   -1.1600 O   0  0  0  0  0  0  0  0  0  0  0  0
   -0.6190    3.1990    2.4990 C   0  0  0  0  0  0  0  0  0  0  0  0
   -0.4690    4.2640    3.1340 O   0  0  0  0  0  0  0  0  0  0  0  0
   -1.8520    3.5170    0.1860 O   0  0  0  0  0  0  0  0  0  0  0  0
   -1.8260    2.5270    2.6740 O   0  0  0  0  0  0  0  0  0  0  0  0
   -0.8880    1.4410    0.4290 H   0  0  0  0  0  0  0  0  0  0  0  0
    1.3870    2.5220    2.1610 H   0  0  0  0  0  0  0  0  0  0  0  0
    1.3220    3.2800   -0.2440 H   0  0  0  0  0  0  0  0  0  0  0  0
    1.1180    4.6370    0.9580 H   0  0  0  0  0  0  0  0  0  0  0  0
   -2.6970    3.6480   -0.3510 H   0  0  0  0  0  0  0  0  0  0  0  0
  1  7  1  0  0  0  0
  1  8  1  0  0  0  0
  2  9  1  6  0  0  0
  2  1  1  0  0  0  0
  3 11  1  0  0  0  0
  3  2  1  0  0  0  0
  3  4  1  0  0  0  0
  5  2  1  0  0  0  0
  5 18  1  0  0  0  0
  6  5  2  0  0  0  0
 10  3  1  0  0  0  0
 12  4  1  0  0  0  0
 13 23  1  0  0  0  0
 13 14  1  0  0  0  0
 14 15  1  0  0  0  0
 15 24  1  0  0  0  0
 15 16  1  0  0  0  0
 15 25  1  0  0  0  0
 16 27  1  0  0  0  0
 17 28  1  6  0  0  0
 17 18  1  0  0  0  0
 17 19  1  0  0  0  0
 17 16  1  0  0  0  0
 18 29  1  0  0  0  0
 19 20  2  0  0  0  0
 21 13  1  0  0  0  0
 22 13  1  0  0  0  0
 26 16  1  0  0  0  0
 30 19  1  0  0  0  0
 30 31  1  0  0  0  0
 31 40  1  1  0  0  0
 31 35  1  0  0  0  0
 32 42  1  0  0  0  0
 32 31  1  0  0  0  0
 33 37  1  0  0  0  0
 33 32  1  0  0  0  0
 34 33  2  0  0  0  0
 35 38  2  0  0  0  0
 35 36  1  0  0  0  0
 39 30  1  0  0  0  0
 41 32  1  0  0  0  0
 43 37  1  0  0  0  0
M  END
$$$$
