CME.pdb
 OpenBabel07022418283D

 46 45  0  0  1  0  0  0  0  0999 V2000
    1.0150   -3.9250    2.2630 N   0  0  0  0  0  0  0  0  0  0  0  0
    2.2740   -3.2840    2.5350 C   0  0  1  0  0  0  0  0  0  0  0  0
    3.3730   -4.2500    2.0740 C   0  0  0  0  0  0  0  0  0  0  0  0
    4.9560   -3.4680    2.4040 S   0  0  0  0  0  0  0  0  0  0  0  0
    2.4690   -2.0420    1.7590 C   0  0  0  0  0  0  0  0  0  0  0  0
    3.5520   -1.4180    1.9400 O   0  0  0  0  0  0  0  0  0  0  0  0
    0.9780   -4.1430    1.2450 H   0  0  0  0  0  0  0  0  0  0  0  0
    1.0510   -4.8660    2.7410 H   0  0  0  0  0  0  0  0  0  0  0  0
    2.3370   -3.1040    3.6300 H   0  0  0  0  0  0  0  0  0  0  0  0
    3.2480   -5.2270    2.5860 H   0  0  0  0  0  0  0  0  0  0  0  0
    3.2390   -4.3800    0.9800 H   0  0  0  0  0  0  0  0  0  0  0  0
    5.6580   -3.1890    1.2290 H   0  0  0  0  0  0  0  0  0  0  0  0
   -0.8130    1.2010   -2.9260 C   0  0  0  0  0  0  0  0  0  0  0  0
    0.7720    1.8240   -2.3500 S   0  0  0  0  0  0  0  0  0  0  0  0
    2.0050    0.5130   -2.3130 C   0  0  0  0  0  0  0  0  0  0  0  0
    1.7790   -0.5730   -1.3380 C   0  0  0  0  0  0  0  0  0  0  0  0
    1.7850   -0.2820    0.1010 C   0  0  2  0  0  0  0  0  0  0  0  0
    1.5440   -1.5230    0.8500 N   0  0  0  0  0  0  0  0  0  0  0  0
    0.8200    0.7190    0.5940 C   0  0  0  0  0  0  0  0  0  0  0  0
    0.8180    1.9400    0.2930 O   0  0  0  0  0  0  0  0  0  0  0  0
   -1.5110    1.1570   -2.0520 H   0  0  0  0  0  0  0  0  0  0  0  0
   -0.7590    0.2100   -3.4060 H   0  0  0  0  0  0  0  0  0  0  0  0
   -1.2560    1.9750   -3.6070 H   0  0  0  0  0  0  0  0  0  0  0  0
    3.0490    0.9240   -2.2850 H   0  0  0  0  0  0  0  0  0  0  0  0
    1.9630    0.0550   -3.3560 H   0  0  0  0  0  0  0  0  0  0  0  0
    2.6000   -1.3400   -1.5520 H   0  0  0  0  0  0  0  0  0  0  0  0
    0.7900   -1.0560   -1.6550 H   0  0  0  0  0  0  0  0  0  0  0  0
    2.7980    0.0730    0.3980 H   0  0  0  0  0  0  0  0  0  0  0  0
    0.6450   -2.0160    0.6770 H   0  0  0  0  0  0  0  0  0  0  0  0
   -0.2390    0.3390    1.5010 N   0  0  0  0  0  0  0  0  0  0  0  0
   -1.1710    1.3510    1.9640 C   0  0  1  0  0  0  0  0  0  0  0  0
   -2.5290    0.8760    1.4930 C   0  0  0  0  0  0  0  0  0  0  0  0
   -3.6670    1.7590    1.8440 C   0  0  0  0  0  0  0  0  0  0  0  0
   -4.9010    1.1050    1.2710 C   0  0  0  0  0  0  0  0  0  0  0  0
   -6.0210    1.6610    1.4330 O   0  0  0  0  0  0  0  0  0  0  0  0
   -1.1710    1.3230    3.4400 C   0  0  0  0  0  0  0  0  0  0  0  0
   -1.8670    2.1170    4.1540 O   0  0  0  0  0  0  0  0  0  0  0  0
   -4.8650   -0.0770    0.5750 O   0  0  0  0  0  0  0  0  0  0  0  0
   -0.3720    0.3840    4.0860 O   0  0  0  0  0  0  0  0  0  0  0  0
   -0.3130   -0.6370    1.8010 H   0  0  0  0  0  0  0  0  0  0  0  0
   -0.9230    2.3530    1.5570 H   0  0  0  0  0  0  0  0  0  0  0  0
   -2.5210    0.6910    0.3920 H   0  0  0  0  0  0  0  0  0  0  0  0
   -2.6630   -0.1500    1.9480 H   0  0  0  0  0  0  0  0  0  0  0  0
   -3.5260    2.7330    1.3240 H   0  0  0  0  0  0  0  0  0  0  0  0
   -3.7870    1.8680    2.9230 H   0  0  0  0  0  0  0  0  0  0  0  0
   -5.5600   -0.3370   -0.1320 H   0  0  0  0  0  0  0  0  0  0  0  0
  1  2  1  0  0  0  0
  1  8  1  0  0  0  0
  2  9  1  1  0  0  0
  3  4  1  0  0  0  0
  3  2  1  0  0  0  0
  3 10  1  0  0  0  0
  5  6  2  0  0  0  0
  5  2  1  0  0  0  0
  7  1  1  0  0  0  0
 11  3  1  0  0  0  0
 12  4  1  0  0  0  0
 13 14  1  0  0  0  0
 13 21  1  0  0  0  0
 14 15  1  0  0  0  0
 15 24  1  0  0  0  0
 15 16  1  0  0  0  0
 16 17  1  0  0  0  0
 17 28  1  1  0  0  0
 17 19  1  0  0  0  0
 17 18  1  0  0  0  0
 18  5  1  0  0  0  0
 19 30  1  0  0  0  0
 20 19  2  0  0  0  0
 22 13  1  0  0  0  0
 23 13  1  0  0  0  0
 25 15  1  0  0  0  0
 26 16  1  0  0  0  0
 27 16  1  0  0  0  0
 29 18  1  0  0  0  0
 30 40  1  0  0  0  0
 30 31  1  0  0  0  0
 31 41  1  6  0  0  0
 31 36  1  0  0  0  0
 32 33  1  0  0  0  0
 32 43  1  0  0  0  0
 32 31  1  0  0  0  0
 33 45  1  0  0  0  0
 34 35  2  0  0  0  0
 34 33  1  0  0  0  0
 36 39  2  0  0  0  0
 36 37  1  0  0  0  0
 38 34  1  0  0  0  0
 42 32  1  0  0  0  0
 44 33  1  0  0  0  0
 46 38  1  0  0  0  0
M  END
$$$$
