CMF.pdb
 OpenBabel07022418283D

 50 50  0  0  1  0  0  0  0  0999 V2000
    3.3470   -3.8470    2.4840 N   0  0  0  0  0  0  0  0  0  0  0  0
    2.3960   -3.1590    1.5810 C   0  0  1  0  0  0  0  0  0  0  0  0
    1.1060   -3.9020    1.7260 C   0  0  0  0  0  0  0  0  0  0  0  0
   -0.2400   -3.2860    0.7210 S   0  0  0  0  0  0  0  0  0  0  0  0
    2.3410   -1.7410    1.9980 C   0  0  0  0  0  0  0  0  0  0  0  0
    3.0250   -1.3080    2.9880 O   0  0  0  0  0  0  0  0  0  0  0  0
    3.7440   -4.6680    1.9730 H   0  0  0  0  0  0  0  0  0  0  0  0
    4.0800   -3.1940    2.8120 H   0  0  0  0  0  0  0  0  0  0  0  0
    2.8120   -3.2350    0.5510 H   0  0  0  0  0  0  0  0  0  0  0  0
    1.2420   -4.9860    1.5130 H   0  0  0  0  0  0  0  0  0  0  0  0
    0.8010   -3.8520    2.7990 H   0  0  0  0  0  0  0  0  0  0  0  0
    0.0940   -3.1450   -0.6230 H   0  0  0  0  0  0  0  0  0  0  0  0
    3.4110    1.7990   -2.3550 C   0  0  0  0  0  0  0  0  0  0  0  0
    4.3130    2.1280   -0.8140 S   0  0  0  0  0  0  0  0  0  0  0  0
    3.6370    1.0170    0.4770 C   0  0  0  0  0  0  0  0  0  0  0  0
    2.2230    1.4550    0.7080 C   0  0  0  0  0  0  0  0  0  0  0  0
    1.5310    0.5960    1.7820 C   0  0  2  0  0  0  0  0  0  0  0  0
    1.5340   -0.7730    1.3320 N   0  0  0  0  0  0  0  0  0  0  0  0
    0.2020    1.1930    1.9590 C   0  0  0  0  0  0  0  0  0  0  0  0
    0.1280    2.3730    2.3790 O   0  0  0  0  0  0  0  0  0  0  0  0
    3.3190    0.7140   -2.5370 H   0  0  0  0  0  0  0  0  0  0  0  0
    2.3730    2.2130   -2.3180 H   0  0  0  0  0  0  0  0  0  0  0  0
    3.9370    2.3050   -3.2020 H   0  0  0  0  0  0  0  0  0  0  0  0
    3.6470    0.0030    0.0260 H   0  0  0  0  0  0  0  0  0  0  0  0
    4.2430    1.0630    1.3900 H   0  0  0  0  0  0  0  0  0  0  0  0
    2.1090    2.5180    0.9140 H   0  0  0  0  0  0  0  0  0  0  0  0
    1.6460    1.2360   -0.2310 H   0  0  0  0  0  0  0  0  0  0  0  0
    2.1920    0.7160    2.6900 H   0  0  0  0  0  0  0  0  0  0  0  0
    0.9330   -1.0250    0.5130 H   0  0  0  0  0  0  0  0  0  0  0  0
   -0.9710    0.4890    1.6750 N   0  0  0  0  0  0  0  0  0  0  0  0
   -2.3100    1.0740    1.8490 C   0  0  1  0  0  0  0  0  0  0  0  0
   -2.9210    1.1850    0.4730 C   0  0  0  0  0  0  0  0  0  0  0  0
   -3.0650   -0.0810   -0.2410 C   0  0  0  0  0  0  0  0  0  0  0  0
   -4.2050   -0.8520   -0.1300 C   0  0  0  0  0  0  0  0  0  0  0  0
   -4.3410   -2.0540   -0.8130 C   0  0  0  0  0  0  0  0  0  0  0  0
   -3.3280   -2.5110   -1.6290 C   0  0  0  0  0  0  0  0  0  0  0  0
   -2.1850   -1.7570   -1.7520 C   0  0  0  0  0  0  0  0  0  0  0  0
   -2.0710   -0.5660   -1.0650 C   0  0  0  0  0  0  0  0  0  0  0  0
   -3.0600    0.2200    2.7680 C   0  0  0  0  0  0  0  0  0  0  0  0
   -4.2350    0.5160    3.0700 O   0  0  0  0  0  0  0  0  0  0  0  0
   -2.4890   -0.9080    3.3070 O   0  0  0  0  0  0  0  0  0  0  0  0
   -0.9660   -0.4840    1.3250 H   0  0  0  0  0  0  0  0  0  0  0  0
   -2.2060    2.1090    2.2630 H   0  0  0  0  0  0  0  0  0  0  0  0
   -2.2950    1.9400   -0.0810 H   0  0  0  0  0  0  0  0  0  0  0  0
   -3.9150    1.6960    0.5910 H   0  0  0  0  0  0  0  0  0  0  0  0
   -5.0180   -0.5150    0.5070 H   0  0  0  0  0  0  0  0  0  0  0  0
   -5.2320   -2.6650   -0.7310 H   0  0  0  0  0  0  0  0  0  0  0  0
   -3.4270   -3.4550   -2.1680 H   0  0  0  0  0  0  0  0  0  0  0  0
   -1.4120   -2.1500   -2.4020 H   0  0  0  0  0  0  0  0  0  0  0  0
   -1.1790    0.0010   -1.1740 H   0  0  0  0  0  0  0  0  0  0  0  0
  1  8  1  0  0  0  0
  2  9  1  6  0  0  0
  2  3  1  0  0  0  0
  2  5  1  0  0  0  0
  2  1  1  0  0  0  0
  3 11  1  0  0  0  0
  4  3  1  0  0  0  0
  5  6  2  0  0  0  0
  7  1  1  0  0  0  0
 10  3  1  0  0  0  0
 12  4  1  0  0  0  0
 13 22  1  0  0  0  0
 13 14  1  0  0  0  0
 14 15  1  0  0  0  0
 15 16  1  0  0  0  0
 15 25  1  0  0  0  0
 16 26  1  0  0  0  0
 16 17  1  0  0  0  0
 17 19  1  0  0  0  0
 17 28  1  1  0  0  0
 18 17  1  0  0  0  0
 18  5  1  0  0  0  0
 19 20  2  0  0  0  0
 21 13  1  0  0  0  0
 23 13  1  0  0  0  0
 24 15  1  0  0  0  0
 27 16  1  0  0  0  0
 29 18  1  0  0  0  0
 30 31  1  0  0  0  0
 30 19  1  0  0  0  0
 31 43  1  1  0  0  0
 31 39  1  0  0  0  0
 32 45  1  0  0  0  0
 32 31  1  0  0  0  0
 33 34  1  0  0  0  0
 33 32  1  0  0  0  0
 34 46  1  0  0  0  0
 35 47  1  0  0  0  0
 35 34  2  0  0  0  0
 36 35  1  0  0  0  0
 37 36  2  0  0  0  0
 37 38  1  0  0  0  0
 38 33  2  0  0  0  0
 39 40  2  0  0  0  0
 39 41  1  0  0  0  0
 42 30  1  0  0  0  0
 44 32  1  0  0  0  0
 48 36  1  0  0  0  0
 49 37  1  0  0  0  0
 50 38  1  0  0  0  0
M  END
$$$$
