CMK.pdb
 OpenBabel07022418283D

 51 50  0  0  1  0  0  0  0  0999 V2000
    2.3880   -4.0510    1.1110 N   0  0  0  0  0  0  0  0  0  0  0  0
    3.0600   -3.2980    2.1220 C   0  0  1  0  0  0  0  0  0  0  0  0
    4.5210   -3.7300    2.2710 C   0  0  0  0  0  0  0  0  0  0  0  0
    5.3580   -2.7800    3.5410 S   0  0  0  0  0  0  0  0  0  0  0  0
    2.9740   -1.8330    1.9370 C   0  0  0  0  0  0  0  0  0  0  0  0
    3.5570   -1.1150    2.8010 O   0  0  0  0  0  0  0  0  0  0  0  0
    2.4770   -3.6840    0.1540 H   0  0  0  0  0  0  0  0  0  0  0  0
    2.6470   -5.0490    1.2120 H   0  0  0  0  0  0  0  0  0  0  0  0
    2.5640   -3.5360    3.1010 H   0  0  0  0  0  0  0  0  0  0  0  0
    4.5230   -4.8170    2.4940 H   0  0  0  0  0  0  0  0  0  0  0  0
    5.0600   -3.6100    1.2990 H   0  0  0  0  0  0  0  0  0  0  0  0
    6.5590   -2.2170    3.1250 H   0  0  0  0  0  0  0  0  0  0  0  0
    0.4790    2.3370   -2.6420 C   0  0  0  0  0  0  0  0  0  0  0  0
    1.3160    2.9250   -1.1490 S   0  0  0  0  0  0  0  0  0  0  0  0
    2.8720    2.1160   -0.8560 C   0  0  0  0  0  0  0  0  0  0  0  0
    2.8600    0.6720   -0.5330 C   0  0  0  0  0  0  0  0  0  0  0  0
    2.2320    0.2760    0.7280 C   0  0  2  0  0  0  0  0  0  0  0  0
    2.3060   -1.1960    0.8940 N   0  0  0  0  0  0  0  0  0  0  0  0
    0.8510    0.7000    0.9170 C   0  0  0  0  0  0  0  0  0  0  0  0
    0.4970    1.8940    1.0600 O   0  0  0  0  0  0  0  0  0  0  0  0
   -0.1730    3.1550   -3.0110 H   0  0  0  0  0  0  0  0  0  0  0  0
   -0.0810    1.4230   -2.4390 H   0  0  0  0  0  0  0  0  0  0  0  0
    1.2230    2.1560   -3.4480 H   0  0  0  0  0  0  0  0  0  0  0  0
    3.3530    2.6750    0.0190 H   0  0  0  0  0  0  0  0  0  0  0  0
    3.5860    2.3540   -1.7040 H   0  0  0  0  0  0  0  0  0  0  0  0
    3.9630    0.3520   -0.5770 H   0  0  0  0  0  0  0  0  0  0  0  0
    2.3550    0.1360   -1.4190 H   0  0  0  0  0  0  0  0  0  0  0  0
    2.8640    0.6690    1.5800 H   0  0  0  0  0  0  0  0  0  0  0  0
    1.8190   -1.7440    0.1630 H   0  0  0  0  0  0  0  0  0  0  0  0
   -0.2260   -0.2450    0.9550 N   0  0  0  0  0  0  0  0  0  0  0  0
   -1.6250    0.2520    1.1540 C   0  0  1  0  0  0  0  0  0  0  0  0
   -2.4130   -0.1560   -0.0300 C   0  0  0  0  0  0  0  0  0  0  0  0
   -3.8020    0.1920   -0.2470 C   0  0  0  0  0  0  0  0  0  0  0  0
   -4.8970   -0.2040    0.6430 C   0  0  0  0  0  0  0  0  0  0  0  0
   -5.0730   -1.6700    0.8880 C   0  0  0  0  0  0  0  0  0  0  0  0
   -5.3340   -2.4120   -0.3300 N   0  0  0  0  0  0  0  0  0  0  0  0
   -2.0490   -0.4220    2.3920 C   0  0  0  0  0  0  0  0  0  0  0  0
   -1.2850   -1.3500    2.8580 O   0  0  0  0  0  0  0  0  0  0  0  0
   -3.1710   -0.1810    3.1330 O   0  0  0  0  0  0  0  0  0  0  0  0
   -0.0140   -1.2420    0.8440 H   0  0  0  0  0  0  0  0  0  0  0  0
   -1.6300    1.3300    1.2810 H   0  0  0  0  0  0  0  0  0  0  0  0
   -1.8180    0.1930   -0.9560 H   0  0  0  0  0  0  0  0  0  0  0  0
   -2.3160   -1.2910   -0.1490 H   0  0  0  0  0  0  0  0  0  0  0  0
   -4.1250   -0.1110   -1.3140 H   0  0  0  0  0  0  0  0  0  0  0  0
   -3.8740    1.3320   -0.3390 H   0  0  0  0  0  0  0  0  0  0  0  0
   -5.8740    0.0600    0.0280 H   0  0  0  0  0  0  0  0  0  0  0  0
   -4.9790    0.3850    1.5470 H   0  0  0  0  0  0  0  0  0  0  0  0
   -5.9730   -1.7950    1.5390 H   0  0  0  0  0  0  0  0  0  0  0  0
   -4.2230   -2.0710    1.4530 H   0  0  0  0  0  0  0  0  0  0  0  0
   -4.4590   -2.8780   -0.6970 H   0  0  0  0  0  0  0  0  0  0  0  0
   -5.8290   -1.8600   -1.0400 H   0  0  0  0  0  0  0  0  0  0  0  0
  1  8  1  0  0  0  0
  1  2  1  0  0  0  0
  2  3  1  0  0  0  0
  2  9  1  1  0  0  0
  3 10  1  0  0  0  0
  3  4  1  0  0  0  0
  5  2  1  0  0  0  0
  5  6  2  0  0  0  0
  7  1  1  0  0  0  0
 11  3  1  0  0  0  0
 12  4  1  0  0  0  0
 13 22  1  0  0  0  0
 13 14  1  0  0  0  0
 14 15  1  0  0  0  0
 15 16  1  0  0  0  0
 15 24  1  0  0  0  0
 16 17  1  0  0  0  0
 17 18  1  0  0  0  0
 17 19  1  0  0  0  0
 17 28  1  1  0  0  0
 18  5  1  0  0  0  0
 19 30  1  0  0  0  0
 19 20  2  0  0  0  0
 21 13  1  0  0  0  0
 23 13  1  0  0  0  0
 25 15  1  0  0  0  0
 26 16  1  0  0  0  0
 27 16  1  0  0  0  0
 29 18  1  0  0  0  0
 30 31  1  0  0  0  0
 31 41  1  1  0  0  0
 31 37  1  0  0  0  0
 32 31  1  0  0  0  0
 33 32  1  0  0  0  0
 33 34  1  0  0  0  0
 34 35  1  0  0  0  0
 34 47  1  0  0  0  0
 35 49  1  0  0  0  0
 35 48  1  0  0  0  0
 36 35  1  0  0  0  0
 37 38  2  0  0  0  0
 37 39  1  0  0  0  0
 40 30  1  0  0  0  0
 42 32  1  0  0  0  0
 43 32  1  0  0  0  0
 44 33  1  0  0  0  0
 45 33  1  0  0  0  0
 46 34  1  0  0  0  0
 50 36  1  0  0  0  0
 51 36  1  0  0  0  0
M  END
$$$$
