CML.pdb
 OpenBabel07022418283D

 49 48  0  0  1  0  0  0  0  0999 V2000
    0.4980   -4.0600   -3.2100 N   0  0  0  0  0  0  0  0  0  0  0  0
    0.4400   -2.7720   -2.5960 C   0  0  1  0  0  0  0  0  0  0  0  0
   -0.8950   -2.5880   -1.8910 C   0  0  0  0  0  0  0  0  0  0  0  0
   -2.2610   -2.7300   -3.0820 S   0  0  0  0  0  0  0  0  0  0  0  0
    1.4970   -2.6160   -1.5340 C   0  0  0  0  0  0  0  0  0  0  0  0
    2.2790   -3.5670   -1.2970 O   0  0  0  0  0  0  0  0  0  0  0  0
    1.3490   -4.5610   -2.8420 H   0  0  0  0  0  0  0  0  0  0  0  0
   -0.3350   -4.6180   -2.9200 H   0  0  0  0  0  0  0  0  0  0  0  0
    0.5310   -1.9250   -3.3150 H   0  0  0  0  0  0  0  0  0  0  0  0
   -0.9310   -1.5890   -1.3890 H   0  0  0  0  0  0  0  0  0  0  0  0
   -0.9550   -3.3580   -1.0960 H   0  0  0  0  0  0  0  0  0  0  0  0
   -2.3980   -4.1200   -3.3580 H   0  0  0  0  0  0  0  0  0  0  0  0
    1.4960    3.3790    0.9970 C   0  0  0  0  0  0  0  0  0  0  0  0
    2.2040    1.7440    1.2190 S   0  0  0  0  0  0  0  0  0  0  0  0
    3.0570    1.1920   -0.2980 C   0  0  0  0  0  0  0  0  0  0  0  0
    3.6380   -0.1670   -0.0970 C   0  0  0  0  0  0  0  0  0  0  0  0
    2.6370   -1.2300    0.2360 C   0  0  2  0  0  0  0  0  0  0  0  0
    1.6300   -1.4100   -0.7900 N   0  0  0  0  0  0  0  0  0  0  0  0
    1.9710   -0.9920    1.5430 C   0  0  0  0  0  0  0  0  0  0  0  0
    2.6590   -0.8070    2.5900 O   0  0  0  0  0  0  0  0  0  0  0  0
    0.3860    3.3750    1.0320 H   0  0  0  0  0  0  0  0  0  0  0  0
    1.8250    4.0090    1.8670 H   0  0  0  0  0  0  0  0  0  0  0  0
    1.8260    3.8620    0.0440 H   0  0  0  0  0  0  0  0  0  0  0  0
    2.4100    1.2830   -1.1820 H   0  0  0  0  0  0  0  0  0  0  0  0
    3.8980    1.9020   -0.4410 H   0  0  0  0  0  0  0  0  0  0  0  0
    4.2280   -0.4590   -0.9890 H   0  0  0  0  0  0  0  0  0  0  0  0
    4.3510   -0.1110    0.7520 H   0  0  0  0  0  0  0  0  0  0  0  0
    3.2140   -2.1970    0.2820 H   0  0  0  0  0  0  0  0  0  0  0  0
    0.9450   -0.6590   -1.0390 H   0  0  0  0  0  0  0  0  0  0  0  0
   -2.7120    1.9930    2.0470 C   0  0  0  0  0  0  0  0  0  0  0  0
   -2.0360    0.6310    1.8120 C   0  0  0  0  0  0  0  0  0  0  0  0
   -3.1300   -0.4030    1.9700 C   0  0  0  0  0  0  0  0  0  0  0  0
   -0.9900    0.5030    2.8610 C   0  0  0  0  0  0  0  0  0  0  0  0
   -0.1800   -0.7470    2.8440 C   0  0  2  0  0  0  0  0  0  0  0  0
    0.5530   -0.9680    1.6360 N   0  0  0  0  0  0  0  0  0  0  0  0
   -0.9080   -1.9770    3.2030 C   0  0  0  0  0  0  0  0  0  0  0  0
   -0.8160   -2.9920    2.4830 O   0  0  0  0  0  0  0  0  0  0  0  0
   -1.7010   -2.0380    4.3320 O   0  0  0  0  0  0  0  0  0  0  0  0
   -3.6710    1.8670    2.5900 H   0  0  0  0  0  0  0  0  0  0  0  0
   -2.8620    2.5290    1.0860 H   0  0  0  0  0  0  0  0  0  0  0  0
   -2.0850    2.6490    2.6890 H   0  0  0  0  0  0  0  0  0  0  0  0
   -1.6700    0.5710    0.7840 H   0  0  0  0  0  0  0  0  0  0  0  0
   -4.0440   -0.1150    1.3800 H   0  0  0  0  0  0  0  0  0  0  0  0
   -2.8550   -1.4010    1.5860 H   0  0  0  0  0  0  0  0  0  0  0  0
   -3.4970   -0.4260    3.0320 H   0  0  0  0  0  0  0  0  0  0  0  0
   -0.2970    1.3660    2.9080 H   0  0  0  0  0  0  0  0  0  0  0  0
   -1.5240    0.5220    3.8560 H   0  0  0  0  0  0  0  0  0  0  0  0
    0.6110   -0.6040    3.6460 H   0  0  0  0  0  0  0  0  0  0  0  0
   -0.0090   -1.1210    0.7710 H   0  0  0  0  0  0  0  0  0  0  0  0
  1  8  1  0  0  0  0
  1  7  1  0  0  0  0
  1  2  1  0  0  0  0
  2  9  1  6  0  0  0
  2  3  1  0  0  0  0
  2  5  1  0  0  0  0
  3 10  1  0  0  0  0
  3 11  1  0  0  0  0
  4  3  1  0  0  0  0
  5  6  2  0  0  0  0
  5 18  1  0  0  0  0
 12  4  1  0  0  0  0
 13 21  1  0  0  0  0
 13 14  1  0  0  0  0
 13 22  1  0  0  0  0
 15 16  1  0  0  0  0
 15 14  1  0  0  0  0
 16 17  1  0  0  0  0
 16 27  1  0  0  0  0
 17 28  1  1  0  0  0
 17 19  1  0  0  0  0
 18 17  1  0  0  0  0
 19 35  1  0  0  0  0
 19 20  2  0  0  0  0
 23 13  1  0  0  0  0
 24 15  1  0  0  0  0
 25 15  1  0  0  0  0
 26 16  1  0  0  0  0
 29 18  1  0  0  0  0
 30 39  1  0  0  0  0
 30 41  1  0  0  0  0
 31 32  1  0  0  0  0
 31 30  1  0  0  0  0
 31 33  1  0  0  0  0
 32 45  1  0  0  0  0
 33 46  1  0  0  0  0
 33 47  1  0  0  0  0
 34 33  1  0  0  0  0
 34 36  1  0  0  0  0
 34 48  1  1  0  0  0
 35 34  1  0  0  0  0
 36 38  1  0  0  0  0
 37 36  2  0  0  0  0
 40 30  1  0  0  0  0
 42 31  1  0  0  0  0
 43 32  1  0  0  0  0
 44 32  1  0  0  0  0
 49 35  1  0  0  0  0
M  END
$$$$
