CMN.pdb
 OpenBabel07022418283D

 44 43  0  0  1  0  0  0  0  0999 V2000
    3.4170   -3.7700    0.3580 N   0  0  0  0  0  0  0  0  0  0  0  0
    3.7360   -2.5660   -0.3380 C   0  0  1  0  0  0  0  0  0  0  0  0
    4.3390   -2.7880   -1.7000 C   0  0  0  0  0  0  0  0  0  0  0  0
    3.2620   -3.6960   -2.8060 S   0  0  0  0  0  0  0  0  0  0  0  0
    2.5880   -1.6140   -0.3870 C   0  0  0  0  0  0  0  0  0  0  0  0
    2.6980   -0.5000   -0.9610 O   0  0  0  0  0  0  0  0  0  0  0  0
    4.2320   -4.1350    0.8660 H   0  0  0  0  0  0  0  0  0  0  0  0
    2.9200   -4.4440   -0.2430 H   0  0  0  0  0  0  0  0  0  0  0  0
    4.5270   -2.0380    0.2680 H   0  0  0  0  0  0  0  0  0  0  0  0
    5.2630   -3.3890   -1.5480 H   0  0  0  0  0  0  0  0  0  0  0  0
    4.6660   -1.8060   -2.0960 H   0  0  0  0  0  0  0  0  0  0  0  0
    3.0730   -3.0580   -4.0440 H   0  0  0  0  0  0  0  0  0  0  0  0
   -1.2460    0.6020   -3.3940 C   0  0  0  0  0  0  0  0  0  0  0  0
   -1.6980    0.8810   -1.6840 S   0  0  0  0  0  0  0  0  0  0  0  0
   -2.0770   -0.6560   -0.8070 C   0  0  0  0  0  0  0  0  0  0  0  0
   -0.9040   -1.5520   -0.6440 C   0  0  0  0  0  0  0  0  0  0  0  0
    0.2090   -0.9150    0.1240 C   0  0  2  0  0  0  0  0  0  0  0  0
    1.3320   -1.9070    0.2010 N   0  0  0  0  0  0  0  0  0  0  0  0
   -0.1530   -0.5500    1.4920 C   0  0  0  0  0  0  0  0  0  0  0  0
    0.3120   -1.2630    2.4640 O   0  0  0  0  0  0  0  0  0  0  0  0
   -1.8100    1.3000   -4.0620 H   0  0  0  0  0  0  0  0  0  0  0  0
   -1.4970   -0.4200   -3.7540 H   0  0  0  0  0  0  0  0  0  0  0  0
   -0.1550    0.8020   -3.5070 H   0  0  0  0  0  0  0  0  0  0  0  0
   -2.8700   -1.1600   -1.4400 H   0  0  0  0  0  0  0  0  0  0  0  0
   -2.5710   -0.4560    0.1530 H   0  0  0  0  0  0  0  0  0  0  0  0
   -1.2620   -2.4260   -0.0180 H   0  0  0  0  0  0  0  0  0  0  0  0
   -0.5630   -1.9860   -1.6120 H   0  0  0  0  0  0  0  0  0  0  0  0
    0.5750   -0.0370   -0.4210 H   0  0  0  0  0  0  0  0  0  0  0  0
    1.1810   -2.7900    0.6790 H   0  0  0  0  0  0  0  0  0  0  0  0
    0.2410    2.2270    5.9720 N   0  0  0  0  0  0  0  0  0  0  0  0
   -0.7700    2.5280    5.0130 C   0  0  0  0  0  0  0  0  0  0  0  0
   -1.7900    3.1550    5.3870 O   0  0  0  0  0  0  0  0  0  0  0  0
   -0.5780    2.0920    3.6280 C   0  0  0  0  0  0  0  0  0  0  0  0
   -1.2720    0.7860    3.3080 C   0  0  2  0  0  0  0  0  0  0  0  0
   -0.9690    0.5190    1.9020 N   0  0  0  0  0  0  0  0  0  0  0  0
   -2.7150    0.8620    3.5480 C   0  0  0  0  0  0  0  0  0  0  0  0
   -3.2160    1.0720    4.6770 O   0  0  0  0  0  0  0  0  0  0  0  0
   -3.5870    0.6930    2.4630 O   0  0  0  0  0  0  0  0  0  0  0  0
    0.3450    2.8560    6.7890 H   0  0  0  0  0  0  0  0  0  0  0  0
    0.8550    1.3770    5.8240 H   0  0  0  0  0  0  0  0  0  0  0  0
   -1.0210    2.8500    2.9320 H   0  0  0  0  0  0  0  0  0  0  0  0
    0.5030    1.9830    3.3560 H   0  0  0  0  0  0  0  0  0  0  0  0
   -0.7650    0.0150    3.9570 H   0  0  0  0  0  0  0  0  0  0  0  0
   -1.3640    1.1670    1.2130 H   0  0  0  0  0  0  0  0  0  0  0  0
  1  7  1  0  0  0  0
  2  9  1  1  0  0  0
  2  1  1  0  0  0  0
  3 10  1  0  0  0  0
  3  2  1  0  0  0  0
  4  3  1  0  0  0  0
  5  2  1  0  0  0  0
  5 18  1  0  0  0  0
  6  5  2  0  0  0  0
  8  1  1  0  0  0  0
 11  3  1  0  0  0  0
 12  4  1  0  0  0  0
 13 14  1  0  0  0  0
 14 15  1  0  0  0  0
 15 16  1  0  0  0  0
 15 25  1  0  0  0  0
 16 26  1  0  0  0  0
 16 17  1  0  0  0  0
 17 28  1  6  0  0  0
 17 18  1  0  0  0  0
 17 19  1  0  0  0  0
 18 29  1  0  0  0  0
 19 35  1  0  0  0  0
 19 20  2  0  0  0  0
 21 13  1  0  0  0  0
 22 13  1  0  0  0  0
 23 13  1  0  0  0  0
 24 15  1  0  0  0  0
 27 16  1  0  0  0  0
 30 39  1  0  0  0  0
 31 32  2  0  0  0  0
 31 30  1  0  0  0  0
 33 31  1  0  0  0  0
 34 36  1  0  0  0  0
 34 33  1  0  0  0  0
 34 43  1  1  0  0  0
 35 34  1  0  0  0  0
 36 37  1  0  0  0  0
 38 36  2  0  0  0  0
 40 30  1  0  0  0  0
 41 33  1  0  0  0  0
 42 33  1  0  0  0  0
 44 35  1  0  0  0  0
M  END
$$$$
