CMP.pdb
 OpenBabel07022418283D

 44 44  0  0  1  0  0  0  0  0999 V2000
   -1.4390   -2.3540    1.9560 N   0  0  0  0  0  0  0  0  0  0  0  0
   -0.4070   -3.0650    1.2270 C   0  0  1  0  0  0  0  0  0  0  0  0
   -1.0950   -4.0490    0.3090 C   0  0  0  0  0  0  0  0  0  0  0  0
    0.1830   -4.9440   -0.6070 S   0  0  0  0  0  0  0  0  0  0  0  0
    0.4120   -2.1380    0.4220 C   0  0  0  0  0  0  0  0  0  0  0  0
    1.3690   -2.5080   -0.3030 O   0  0  0  0  0  0  0  0  0  0  0  0
   -2.0720   -1.8510    1.3190 H   0  0  0  0  0  0  0  0  0  0  0  0
   -1.0850   -1.7400    2.6990 H   0  0  0  0  0  0  0  0  0  0  0  0
    0.2240   -3.5910    1.9650 H   0  0  0  0  0  0  0  0  0  0  0  0
   -1.6510   -4.7730    0.9360 H   0  0  0  0  0  0  0  0  0  0  0  0
   -1.7230   -3.5210   -0.4150 H   0  0  0  0  0  0  0  0  0  0  0  0
    1.0840   -5.5040    0.3120 H   0  0  0  0  0  0  0  0  0  0  0  0
   -2.2980   -1.1990   -4.3800 C   0  0  0  0  0  0  0  0  0  0  0  0
   -1.7660    0.2510   -3.4240 S   0  0  0  0  0  0  0  0  0  0  0  0
   -0.6030   -0.3460   -2.1580 C   0  0  0  0  0  0  0  0  0  0  0  0
   -0.1040    0.8270   -1.3020 C   0  0  0  0  0  0  0  0  0  0  0  0
    0.8560    0.1930   -0.2870 C   0  0  2  0  0  0  0  0  0  0  0  0
    0.1090   -0.7550    0.4640 N   0  0  0  0  0  0  0  0  0  0  0  0
    1.5810    1.2160    0.4840 C   0  0  0  0  0  0  0  0  0  0  0  0
    2.2160    2.0940   -0.2210 O   0  0  0  0  0  0  0  0  0  0  0  0
   -3.2090   -0.9680   -4.9660 H   0  0  0  0  0  0  0  0  0  0  0  0
   -2.5470   -2.0450   -3.6870 H   0  0  0  0  0  0  0  0  0  0  0  0
   -1.4720   -1.5680   -5.0400 H   0  0  0  0  0  0  0  0  0  0  0  0
   -1.1700   -1.0630   -1.5300 H   0  0  0  0  0  0  0  0  0  0  0  0
    0.2440   -0.9080   -2.6020 H   0  0  0  0  0  0  0  0  0  0  0  0
   -0.9980    1.1810   -0.7460 H   0  0  0  0  0  0  0  0  0  0  0  0
    0.3740    1.5930   -1.9100 H   0  0  0  0  0  0  0  0  0  0  0  0
    1.5980   -0.3620   -0.9030 H   0  0  0  0  0  0  0  0  0  0  0  0
   -0.6930   -0.3740    1.0470 H   0  0  0  0  0  0  0  0  0  0  0  0
    1.6640    1.3500    1.8700 N   0  0  0  0  0  0  0  0  0  0  0  0
    2.3990    2.4070    2.5630 C   0  0  0  0  0  0  0  0  0  0  0  0
    3.2320    1.5760    3.5320 C   0  0  0  0  0  0  0  0  0  0  0  0
    2.1630    0.6230    4.0400 C   0  0  0  0  0  0  0  0  0  0  0  0
    1.1100    0.5580    2.9400 C   0  0  1  0  0  0  0  0  0  0  0  0
   -0.1800    1.1510    3.4360 C   0  0  0  0  0  0  0  0  0  0  0  0
   -0.6730    2.2000    2.9510 O   0  0  0  0  0  0  0  0  0  0  0  0
   -0.8730    0.5360    4.4670 O   0  0  0  0  0  0  0  0  0  0  0  0
    1.7210    3.0400    3.1780 H   0  0  0  0  0  0  0  0  0  0  0  0
    3.0180    3.0060    1.8890 H   0  0  0  0  0  0  0  0  0  0  0  0
    3.9790    1.0290    2.8970 H   0  0  0  0  0  0  0  0  0  0  0  0
    3.6900    2.1740    4.3210 H   0  0  0  0  0  0  0  0  0  0  0  0
    2.5740   -0.3560    4.2990 H   0  0  0  0  0  0  0  0  0  0  0  0
    1.7260    1.1200    4.9510 H   0  0  0  0  0  0  0  0  0  0  0  0
    0.9670   -0.4970    2.7250 H   0  0  0  0  0  0  0  0  0  0  0  0
  1  8  1  0  0  0  0
  2  1  1  0  0  0  0
  2  9  1  1  0  0  0
  3 10  1  0  0  0  0
  3  2  1  0  0  0  0
  4  3  1  0  0  0  0
  4 12  1  0  0  0  0
  5 18  1  0  0  0  0
  5  2  1  0  0  0  0
  6  5  2  0  0  0  0
  7  1  1  0  0  0  0
 11  3  1  0  0  0  0
 13 22  1  0  0  0  0
 13 14  1  0  0  0  0
 14 15  1  0  0  0  0
 15 24  1  0  0  0  0
 15 16  1  0  0  0  0
 16 26  1  0  0  0  0
 16 17  1  0  0  0  0
 17 28  1  6  0  0  0
 17 18  1  0  0  0  0
 17 19  1  0  0  0  0
 18 29  1  0  0  0  0
 19 30  1  0  0  0  0
 20 19  2  0  0  0  0
 21 13  1  0  0  0  0
 23 13  1  0  0  0  0
 25 15  1  0  0  0  0
 27 16  1  0  0  0  0
 30 31  1  0  0  0  0
 30 34  1  0  0  0  0
 31 38  1  0  0  0  0
 31 32  1  0  0  0  0
 32 33  1  0  0  0  0
 32 41  1  0  0  0  0
 33 42  1  0  0  0  0
 33 43  1  0  0  0  0
 34 44  1  6  0  0  0
 34 35  1  0  0  0  0
 34 33  1  0  0  0  0
 35 37  1  0  0  0  0
 36 35  2  0  0  0  0
 39 31  1  0  0  0  0
 40 32  1  0  0  0  0
M  END
$$$$
