CMR.pdb
 OpenBabel07022418283D

 53 52  0  0  1  0  0  0  0  0999 V2000
    3.7180   -5.3220    1.3200 N   0  0  0  0  0  0  0  0  0  0  0  0
    3.4160   -4.7320    2.5860 C   0  0  1  0  0  0  0  0  0  0  0  0
    4.7080   -4.6260    3.3920 C   0  0  0  0  0  0  0  0  0  0  0  0
    5.9090   -3.5990    2.5160 S   0  0  0  0  0  0  0  0  0  0  0  0
    2.7740   -3.4120    2.4880 C   0  0  0  0  0  0  0  0  0  0  0  0
    2.4730   -2.8060    3.5440 O   0  0  0  0  0  0  0  0  0  0  0  0
    4.1550   -4.6670    0.6430 H   0  0  0  0  0  0  0  0  0  0  0  0
    2.9940   -5.9370    0.9350 H   0  0  0  0  0  0  0  0  0  0  0  0
    2.7490   -5.4320    3.1470 H   0  0  0  0  0  0  0  0  0  0  0  0
    4.5140   -4.2170    4.4150 H   0  0  0  0  0  0  0  0  0  0  0  0
    5.1630   -5.6260    3.5400 H   0  0  0  0  0  0  0  0  0  0  0  0
    6.8540   -3.0210    3.3600 H   0  0  0  0  0  0  0  0  0  0  0  0
    2.7160    2.0670   -1.7890 C   0  0  0  0  0  0  0  0  0  0  0  0
    3.7580    0.5830   -1.7450 S   0  0  0  0  0  0  0  0  0  0  0  0
    2.8330   -0.7330   -0.9100 C   0  0  0  0  0  0  0  0  0  0  0  0
    2.5990   -0.4030    0.5550 C   0  0  0  0  0  0  0  0  0  0  0  0
    1.8400   -1.4810    1.2620 C   0  0  2  0  0  0  0  0  0  0  0  0
    2.4600   -2.7560    1.2710 N   0  0  0  0  0  0  0  0  0  0  0  0
    0.4420   -1.6200    0.7130 C   0  0  0  0  0  0  0  0  0  0  0  0
    0.0120   -2.7380    0.3430 O   0  0  0  0  0  0  0  0  0  0  0  0
    3.1320    2.8740   -1.1470 H   0  0  0  0  0  0  0  0  0  0  0  0
    1.6980    1.8560   -1.4010 H   0  0  0  0  0  0  0  0  0  0  0  0
    2.6360    2.4620   -2.8420 H   0  0  0  0  0  0  0  0  0  0  0  0
    1.8520   -0.8600   -1.3800 H   0  0  0  0  0  0  0  0  0  0  0  0
    3.4790   -1.6540   -1.0080 H   0  0  0  0  0  0  0  0  0  0  0  0
    1.9940    0.5280    0.5640 H   0  0  0  0  0  0  0  0  0  0  0  0
    3.5320   -0.1790    1.0980 H   0  0  0  0  0  0  0  0  0  0  0  0
    1.6860   -1.1480    2.3090 H   0  0  0  0  0  0  0  0  0  0  0  0
    2.7020   -3.2430    0.3670 H   0  0  0  0  0  0  0  0  0  0  0  0
   -5.5780    4.0230   -0.4440 N   0  0  0  0  0  0  0  0  0  0  0  0
   -5.4410    2.6440   -0.7590 C   0  0  0  0  0  0  0  0  0  0  0  0
   -5.9620    2.2000   -1.8430 N   0  0  0  0  0  0  0  0  0  0  0  0
   -4.7360    1.8060    0.1290 N   0  0  0  0  0  0  0  0  0  0  0  0
   -4.9480    0.3870    0.1090 C   0  0  0  0  0  0  0  0  0  0  0  0
   -4.1400   -0.3630    1.0950 C   0  0  0  0  0  0  0  0  0  0  0  0
   -2.7020   -0.2900    1.1580 C   0  0  0  0  0  0  0  0  0  0  0  0
   -1.7870   -0.6860    0.0560 C   0  0  2  0  0  0  0  0  0  0  0  0
   -0.3890   -0.4910    0.6140 N   0  0  0  0  0  0  0  0  0  0  0  0
   -1.8310    0.1020   -1.1880 C   0  0  0  0  0  0  0  0  0  0  0  0
   -0.8790    0.9110   -1.4970 O   0  0  0  0  0  0  0  0  0  0  0  0
   -2.8470    0.0400   -2.0890 O   0  0  0  0  0  0  0  0  0  0  0  0
   -6.0040    4.3410    0.4770 H   0  0  0  0  0  0  0  0  0  0  0  0
   -5.2820    4.8020   -1.0670 H   0  0  0  0  0  0  0  0  0  0  0  0
   -6.4730    2.8420   -2.4750 H   0  0  0  0  0  0  0  0  0  0  0  0
   -4.0660    2.2200    0.7950 H   0  0  0  0  0  0  0  0  0  0  0  0
   -6.0810    0.3000    0.4400 H   0  0  0  0  0  0  0  0  0  0  0  0
   -4.9900   -0.0860   -0.8720 H   0  0  0  0  0  0  0  0  0  0  0  0
   -4.5420   -0.0290    2.1230 H   0  0  0  0  0  0  0  0  0  0  0  0
   -4.4810   -1.4680    1.1270 H   0  0  0  0  0  0  0  0  0  0  0  0
   -2.3820   -0.9380    2.0640 H   0  0  0  0  0  0  0  0  0  0  0  0
   -2.4080    0.7470    1.5530 H   0  0  0  0  0  0  0  0  0  0  0  0
   -1.8610   -1.7500   -0.1990 H   0  0  0  0  0  0  0  0  0  0  0  0
   -0.1590    0.4740    0.8780 H   0  0  0  0  0  0  0  0  0  0  0  0
  1  2  1  0  0  0  0
  2  9  1  1  0  0  0
  2  3  1  0  0  0  0
  3 11  1  0  0  0  0
  3 10  1  0  0  0  0
  4 12  1  0  0  0  0
  4  3  1  0  0  0  0
  5  2  1  0  0  0  0
  5  6  2  0  0  0  0
  7  1  1  0  0  0  0
  8  1  1  0  0  0  0
 13 14  1  0  0  0  0
 13 22  1  0  0  0  0
 13 21  1  0  0  0  0
 14 15  1  0  0  0  0
 15 16  1  0  0  0  0
 16 26  1  0  0  0  0
 16 27  1  0  0  0  0
 16 17  1  0  0  0  0
 17 18  1  0  0  0  0
 17 28  1  1  0  0  0
 18  5  1  0  0  0  0
 19 17  1  0  0  0  0
 20 19  2  0  0  0  0
 23 13  1  0  0  0  0
 24 15  1  0  0  0  0
 25 15  1  0  0  0  0
 29 18  1  0  0  0  0
 30 42  1  0  0  0  0
 31 30  1  0  0  0  0
 31 33  1  0  0  0  0
 32 31  2  0  0  0  0
 33 45  1  0  0  0  0
 34 33  1  0  0  0  0
 34 46  1  0  0  0  0
 34 35  1  0  0  0  0
 35 49  1  0  0  0  0
 35 36  1  0  0  0  0
 35 48  1  0  0  0  0
 36 51  1  0  0  0  0
 36 50  1  0  0  0  0
 37 52  1  6  0  0  0
 37 38  1  0  0  0  0
 37 36  1  0  0  0  0
 38 19  1  0  0  0  0
 38 53  1  0  0  0  0
 39 37  1  0  0  0  0
 40 39  1  0  0  0  0
 41 39  2  0  0  0  0
 43 30  1  0  0  0  0
 44 32  1  0  0  0  0
 47 34  1  0  0  0  0
M  END
$$$$
