CMS.pdb
 OpenBabel07022418283D

 41 40  0  0  1  0  0  0  0  0999 V2000
    3.8480   -2.6890    3.1330 N   0  0  0  0  0  0  0  0  0  0  0  0
    3.2990   -3.0240    1.8560 C   0  0  1  0  0  0  0  0  0  0  0  0
    2.3830   -4.2320    2.0440 C   0  0  0  0  0  0  0  0  0  0  0  0
    1.6680   -4.6800    0.4260 S   0  0  0  0  0  0  0  0  0  0  0  0
    2.4560   -1.9470    1.2800 C   0  0  0  0  0  0  0  0  0  0  0  0
    1.9550   -2.2130    0.1500 O   0  0  0  0  0  0  0  0  0  0  0  0
    3.1650   -2.7300    3.9130 H   0  0  0  0  0  0  0  0  0  0  0  0
    4.4580   -1.8560    3.1320 H   0  0  0  0  0  0  0  0  0  0  0  0
    4.1230   -3.2840    1.1730 H   0  0  0  0  0  0  0  0  0  0  0  0
    2.9150   -5.0620    2.5140 H   0  0  0  0  0  0  0  0  0  0  0  0
    1.5330   -3.9580    2.7020 H   0  0  0  0  0  0  0  0  0  0  0  0
    0.3060   -4.4040    0.3550 H   0  0  0  0  0  0  0  0  0  0  0  0
    0.3330   -0.1090   -2.8940 C   0  0  0  0  0  0  0  0  0  0  0  0
    0.0440    1.2210   -1.7260 S   0  0  0  0  0  0  0  0  0  0  0  0
    1.5140    1.7550   -0.8570 C   0  0  0  0  0  0  0  0  0  0  0  0
    2.0970    0.7640    0.0530 C   0  0  0  0  0  0  0  0  0  0  0  0
    1.3440    0.3050    1.2440 C   0  0  2  0  0  0  0  0  0  0  0  0
    2.2000   -0.7180    1.8900 N   0  0  0  0  0  0  0  0  0  0  0  0
   -0.0190   -0.1430    1.1050 C   0  0  0  0  0  0  0  0  0  0  0  0
   -0.3200   -1.3650    1.1380 O   0  0  0  0  0  0  0  0  0  0  0  0
    1.0820   -0.8080   -2.4670 H   0  0  0  0  0  0  0  0  0  0  0  0
   -0.6180   -0.7080   -2.9610 H   0  0  0  0  0  0  0  0  0  0  0  0
    0.6000    0.2260   -3.9040 H   0  0  0  0  0  0  0  0  0  0  0  0
    2.2900    1.9860   -1.6460 H   0  0  0  0  0  0  0  0  0  0  0  0
    1.2960    2.7450   -0.4050 H   0  0  0  0  0  0  0  0  0  0  0  0
    2.4850   -0.0770   -0.5770 H   0  0  0  0  0  0  0  0  0  0  0  0
    3.0560    1.2240    0.4630 H   0  0  0  0  0  0  0  0  0  0  0  0
    1.3320    1.1910    1.9550 H   0  0  0  0  0  0  0  0  0  0  0  0
    2.6270   -0.5290    2.8220 H   0  0  0  0  0  0  0  0  0  0  0  0
   -2.2740   -0.4710    3.0300 O   0  0  0  0  0  0  0  0  0  0  0  0
   -3.0610    0.3300    2.2280 C   0  0  0  0  0  0  0  0  0  0  0  0
   -2.4550    0.2690    0.8090 C   0  0  2  0  0  0  0  0  0  0  0  0
   -1.0910    0.7770    0.9370 N   0  0  0  0  0  0  0  0  0  0  0  0
   -3.2890    1.0370   -0.1140 C   0  0  0  0  0  0  0  0  0  0  0  0
   -4.4750    0.6170   -0.3230 O   0  0  0  0  0  0  0  0  0  0  0  0
   -2.9320    2.1770   -0.7880 O   0  0  0  0  0  0  0  0  0  0  0  0
   -1.9230    0.0020    3.8330 H   0  0  0  0  0  0  0  0  0  0  0  0
   -4.0610   -0.1390    2.1340 H   0  0  0  0  0  0  0  0  0  0  0  0
   -3.1820    1.3550    2.5730 H   0  0  0  0  0  0  0  0  0  0  0  0
   -2.4890   -0.8090    0.5660 H   0  0  0  0  0  0  0  0  0  0  0  0
   -0.9800    1.8130    0.9150 H   0  0  0  0  0  0  0  0  0  0  0  0
  1  7  1  0  0  0  0
  2  9  1  6  0  0  0
  2  3  1  0  0  0  0
  2  1  1  0  0  0  0
  3 10  1  0  0  0  0
  3 11  1  0  0  0  0
  4  3  1  0  0  0  0
  5  2  1  0  0  0  0
  5 18  1  0  0  0  0
  6  5  2  0  0  0  0
  8  1  1  0  0  0  0
 12  4  1  0  0  0  0
 13 21  1  0  0  0  0
 13 14  1  0  0  0  0
 14 15  1  0  0  0  0
 15 25  1  0  0  0  0
 15 16  1  0  0  0  0
 16 27  1  0  0  0  0
 16 17  1  0  0  0  0
 17 18  1  0  0  0  0
 17 28  1  1  0  0  0
 18 29  1  0  0  0  0
 19 20  2  0  0  0  0
 19 17  1  0  0  0  0
 22 13  1  0  0  0  0
 23 13  1  0  0  0  0
 24 15  1  0  0  0  0
 26 16  1  0  0  0  0
 30 37  1  0  0  0  0
 31 39  1  0  0  0  0
 31 30  1  0  0  0  0
 32 40  1  6  0  0  0
 32 33  1  0  0  0  0
 32 31  1  0  0  0  0
 33 19  1  0  0  0  0
 34 32  1  0  0  0  0
 35 34  1  0  0  0  0
 36 34  2  0  0  0  0
 38 31  1  0  0  0  0
 41 33  1  0  0  0  0
M  END
$$$$
