CNC.pdb
 OpenBabel07022418263D

 38 37  0  0  1  0  0  0  0  0999 V2000
    0.3590   -3.3560    2.4070 N   0  0  0  0  0  0  0  0  0  0  0  0
    1.1620   -3.5300    1.2210 C   0  0  1  0  0  0  0  0  0  0  0  0
    0.8980   -4.8200    0.5010 C   0  0  0  0  0  0  0  0  0  0  0  0
    1.9880   -4.8710   -0.9550 S   0  0  0  0  0  0  0  0  0  0  0  0
    0.9050   -2.4060    0.2550 C   0  0  0  0  0  0  0  0  0  0  0  0
    1.5020   -2.3570   -0.8500 O   0  0  0  0  0  0  0  0  0  0  0  0
    0.9330   -2.8270    3.1000 H   0  0  0  0  0  0  0  0  0  0  0  0
    0.0240   -4.2780    2.7620 H   0  0  0  0  0  0  0  0  0  0  0  0
    2.2380   -3.5460    1.5220 H   0  0  0  0  0  0  0  0  0  0  0  0
   -0.1360   -4.9140    0.1290 H   0  0  0  0  0  0  0  0  0  0  0  0
    1.1630   -5.6940    1.1270 H   0  0  0  0  0  0  0  0  0  0  0  0
    1.2660   -4.9180   -2.1460 H   0  0  0  0  0  0  0  0  0  0  0  0
   -1.8510    0.5120   -3.2190 N   0  0  0  0  0  0  0  0  0  0  0  0
   -1.9450    0.8300   -1.8250 C   0  0  0  0  0  0  0  0  0  0  0  0
   -2.2570    2.0030   -1.4880 O   0  0  0  0  0  0  0  0  0  0  0  0
   -1.6720   -0.2330   -0.8470 C   0  0  0  0  0  0  0  0  0  0  0  0
   -0.2330   -0.2900   -0.4200 C   0  0  2  0  0  0  0  0  0  0  0  0
   -0.0140   -1.3630    0.5480 N   0  0  0  0  0  0  0  0  0  0  0  0
    0.1420    0.9980    0.2140 C   0  0  0  0  0  0  0  0  0  0  0  0
    0.0850    2.1110   -0.3690 O   0  0  0  0  0  0  0  0  0  0  0  0
   -1.5180    1.2360   -3.8900 H   0  0  0  0  0  0  0  0  0  0  0  0
   -2.1240   -0.4500   -3.5090 H   0  0  0  0  0  0  0  0  0  0  0  0
   -2.3310   -0.0160    0.0450 H   0  0  0  0  0  0  0  0  0  0  0  0
   -2.0400   -1.2300   -1.2080 H   0  0  0  0  0  0  0  0  0  0  0  0
    0.3930   -0.4690   -1.3240 H   0  0  0  0  0  0  0  0  0  0  0  0
   -0.5340   -1.3600    1.4500 H   0  0  0  0  0  0  0  0  0  0  0  0
    0.6090    1.0480    1.5760 N   0  0  0  0  0  0  0  0  0  0  0  0
    0.9730    2.2980    2.1910 C   0  0  1  0  0  0  0  0  0  0  0  0
    0.0530    2.4880    3.3960 C   0  0  0  0  0  0  0  0  0  0  0  0
   -1.6770    2.5370    2.9250 S   0  0  0  0  0  0  0  0  0  0  0  0
    2.3570    2.3060    2.7140 C   0  0  0  0  0  0  0  0  0  0  0  0
    2.7500    3.3680    3.2650 O   0  0  0  0  0  0  0  0  0  0  0  0
    3.2230    1.2440    2.6350 O   0  0  0  0  0  0  0  0  0  0  0  0
    0.6700    0.1450    2.0910 H   0  0  0  0  0  0  0  0  0  0  0  0
    0.8550    3.1610    1.5170 H   0  0  0  0  0  0  0  0  0  0  0  0
    0.3780    3.3790    3.9880 H   0  0  0  0  0  0  0  0  0  0  0  0
    0.2100    1.5820    4.0270 H   0  0  0  0  0  0  0  0  0  0  0  0
   -2.4390    1.6310    3.6550 H   0  0  0  0  0  0  0  0  0  0  0  0
  1  8  1  0  0  0  0
  1  7  1  0  0  0  0
  2  9  1  1  0  0  0
  2  1  1  0  0  0  0
  3 11  1  0  0  0  0
  3  2  1  0  0  0  0
  4  3  1  0  0  0  0
  5 18  1  0  0  0  0
  5  2  1  0  0  0  0
  6  5  2  0  0  0  0
 10  3  1  0  0  0  0
 12  4  1  0  0  0  0
 13 14  1  0  0  0  0
 14 15  2  0  0  0  0
 14 16  1  0  0  0  0
 16 17  1  0  0  0  0
 16 23  1  0  0  0  0
 17 25  1  6  0  0  0
 17 19  1  0  0  0  0
 17 18  1  0  0  0  0
 18 26  1  0  0  0  0
 19 27  1  0  0  0  0
 20 19  2  0  0  0  0
 21 13  1  0  0  0  0
 22 13  1  0  0  0  0
 24 16  1  0  0  0  0
 27 34  1  0  0  0  0
 27 28  1  0  0  0  0
 28 35  1  6  0  0  0
 28 31  1  0  0  0  0
 28 29  1  0  0  0  0
 29 36  1  0  0  0  0
 29 37  1  0  0  0  0
 30 29  1  0  0  0  0
 30 38  1  0  0  0  0
 31 32  1  0  0  0  0
 33 31  2  0  0  0  0
M  END
$$$$
