CND.pdb
 OpenBabel07022418263D

 40 39  0  0  1  0  0  0  0  0999 V2000
    4.2390   -3.9620    0.4970 N   0  0  0  0  0  0  0  0  0  0  0  0
    3.6680   -2.8850    1.2450 C   0  0  1  0  0  0  0  0  0  0  0  0
    4.7750   -1.9460    1.6630 C   0  0  0  0  0  0  0  0  0  0  0  0
    5.9370   -2.9200    2.6900 S   0  0  0  0  0  0  0  0  0  0  0  0
    2.6180   -2.2040    0.4210 C   0  0  0  0  0  0  0  0  0  0  0  0
    2.4490   -2.5730   -0.7580 O   0  0  0  0  0  0  0  0  0  0  0  0
    3.7550   -4.1690   -0.4100 H   0  0  0  0  0  0  0  0  0  0  0  0
    4.4140   -4.8330    1.0250 H   0  0  0  0  0  0  0  0  0  0  0  0
    3.2010   -3.2900    2.1610 H   0  0  0  0  0  0  0  0  0  0  0  0
    4.4580   -1.1070    2.2830 H   0  0  0  0  0  0  0  0  0  0  0  0
    5.3300   -1.6050    0.7690 H   0  0  0  0  0  0  0  0  0  0  0  0
    5.3070   -4.0750    3.1930 H   0  0  0  0  0  0  0  0  0  0  0  0
    1.1550   -1.0690   -3.3380 N   0  0  0  0  0  0  0  0  0  0  0  0
    1.3640   -0.5170   -2.0460 C   0  0  0  0  0  0  0  0  0  0  0  0
    2.4090    0.1260   -1.7590 O   0  0  0  0  0  0  0  0  0  0  0  0
    0.3310   -0.7070   -1.0290 C   0  0  0  0  0  0  0  0  0  0  0  0
    0.8120   -0.3710    0.3620 C   0  0  2  0  0  0  0  0  0  0  0  0
    1.8210   -1.1650    0.9340 N   0  0  0  0  0  0  0  0  0  0  0  0
   -0.2790   -0.0940    1.2880 C   0  0  0  0  0  0  0  0  0  0  0  0
   -0.2050   -0.5820    2.4690 O   0  0  0  0  0  0  0  0  0  0  0  0
    0.2930   -0.8930   -3.9140 H   0  0  0  0  0  0  0  0  0  0  0  0
    1.8780   -1.6860   -3.7650 H   0  0  0  0  0  0  0  0  0  0  0  0
   -0.4840    0.0140   -1.2690 H   0  0  0  0  0  0  0  0  0  0  0  0
   -0.1550   -1.7150   -1.0750 H   0  0  0  0  0  0  0  0  0  0  0  0
    1.3940    0.6280    0.1060 H   0  0  0  0  0  0  0  0  0  0  0  0
    2.0450   -0.9510    1.9790 H   0  0  0  0  0  0  0  0  0  0  0  0
   -1.4230    0.6650    1.0150 N   0  0  0  0  0  0  0  0  0  0  0  0
   -2.5070    0.9200    1.9880 C   0  0  1  0  0  0  0  0  0  0  0  0
   -2.6870    2.4030    2.1490 C   0  0  0  0  0  0  0  0  0  0  0  0
   -3.7260    2.6980    3.1370 C   0  0  0  0  0  0  0  0  0  0  0  0
   -4.3210    1.8530    3.8390 O   0  0  0  0  0  0  0  0  0  0  0  0
   -3.7010    0.3130    1.3450 C   0  0  0  0  0  0  0  0  0  0  0  0
   -4.7970    0.3110    1.9230 O   0  0  0  0  0  0  0  0  0  0  0  0
   -4.1330    4.0310    3.3580 O   0  0  0  0  0  0  0  0  0  0  0  0
   -3.6660   -0.2770    0.0850 O   0  0  0  0  0  0  0  0  0  0  0  0
   -1.5330    1.0870    0.0700 H   0  0  0  0  0  0  0  0  0  0  0  0
   -2.3270    0.4710    2.9570 H   0  0  0  0  0  0  0  0  0  0  0  0
   -2.9310    2.8740    1.1690 H   0  0  0  0  0  0  0  0  0  0  0  0
   -1.7180    2.8430    2.5250 H   0  0  0  0  0  0  0  0  0  0  0  0
   -5.1370    4.2380    3.4900 H   0  0  0  0  0  0  0  0  0  0  0  0
  1  8  1  0  0  0  0
  1  2  1  0  0  0  0
  2  3  1  0  0  0  0
  2  9  1  1  0  0  0
  3 10  1  0  0  0  0
  3  4  1  0  0  0  0
  4 12  1  0  0  0  0
  5 18  1  0  0  0  0
  5  2  1  0  0  0  0
  6  5  2  0  0  0  0
  7  1  1  0  0  0  0
 11  3  1  0  0  0  0
 13 14  1  0  0  0  0
 14 15  2  0  0  0  0
 14 16  1  0  0  0  0
 16 17  1  0  0  0  0
 17 25  1  6  0  0  0
 17 18  1  0  0  0  0
 17 19  1  0  0  0  0
 18 26  1  0  0  0  0
 19 20  2  0  0  0  0
 21 13  1  0  0  0  0
 22 13  1  0  0  0  0
 23 16  1  0  0  0  0
 24 16  1  0  0  0  0
 27 19  1  0  0  0  0
 27 28  1  0  0  0  0
 28 29  1  0  0  0  0
 28 37  1  1  0  0  0
 29 39  1  0  0  0  0
 29 30  1  0  0  0  0
 30 34  1  0  0  0  0
 30 31  2  0  0  0  0
 32 33  1  0  0  0  0
 32 28  1  0  0  0  0
 34 40  1  0  0  0  0
 35 32  2  0  0  0  0
 36 27  1  0  0  0  0
 38 29  1  0  0  0  0
M  END
$$$$
