CNG.pdb
 OpenBabel07022418263D

 34 33  0  0  1  0  0  0  0  0999 V2000
    0.7450   -1.8960    4.1390 N   0  0  0  0  0  0  0  0  0  0  0  0
    0.4210   -1.9760    2.7280 C   0  0  1  0  0  0  0  0  0  0  0  0
   -1.0590   -2.1760    2.6140 C   0  0  0  0  0  0  0  0  0  0  0  0
   -1.5690   -3.7050    3.4480 S   0  0  0  0  0  0  0  0  0  0  0  0
    0.9370   -0.7900    2.0640 C   0  0  0  0  0  0  0  0  0  0  0  0
    1.5500    0.0970    2.7140 O   0  0  0  0  0  0  0  0  0  0  0  0
   -0.1080   -1.6710    4.7000 H   0  0  0  0  0  0  0  0  0  0  0  0
    1.4990   -1.1680    4.3100 H   0  0  0  0  0  0  0  0  0  0  0  0
    0.9560   -2.8870    2.3490 H   0  0  0  0  0  0  0  0  0  0  0  0
   -1.6620   -1.3670    3.0060 H   0  0  0  0  0  0  0  0  0  0  0  0
   -1.3110   -2.2980    1.5370 H   0  0  0  0  0  0  0  0  0  0  0  0
   -2.6500   -4.2990    2.7440 H   0  0  0  0  0  0  0  0  0  0  0  0
    4.2570   -1.1250   -1.6210 N   0  0  0  0  0  0  0  0  0  0  0  0
    3.3380   -0.6260   -0.6750 C   0  0  0  0  0  0  0  0  0  0  0  0
    3.5000   -0.8980    0.5310 O   0  0  0  0  0  0  0  0  0  0  0  0
    2.2170    0.1950   -1.1100 C   0  0  0  0  0  0  0  0  0  0  0  0
    1.3200    0.6550    0.0150 C   0  0  2  0  0  0  0  0  0  0  0  0
    0.7970   -0.5350    0.6580 N   0  0  0  0  0  0  0  0  0  0  0  0
    0.1770    1.4480   -0.5690 C   0  0  0  0  0  0  0  0  0  0  0  0
    0.4180    2.5200   -1.1710 O   0  0  0  0  0  0  0  0  0  0  0  0
    4.3520   -0.6620   -2.5500 H   0  0  0  0  0  0  0  0  0  0  0  0
    4.8620   -1.9520   -1.4380 H   0  0  0  0  0  0  0  0  0  0  0  0
    2.6540    1.1400   -1.5510 H   0  0  0  0  0  0  0  0  0  0  0  0
    1.6270   -0.2460   -1.9370 H   0  0  0  0  0  0  0  0  0  0  0  0
    1.8560    1.2960    0.7380 H   0  0  0  0  0  0  0  0  0  0  0  0
    0.2970   -1.2530    0.1190 H   0  0  0  0  0  0  0  0  0  0  0  0
   -1.1710    1.0180   -0.4580 N   0  0  0  0  0  0  0  0  0  0  0  0
   -2.2830    1.7650   -1.0120 C   0  0  0  0  0  0  0  0  0  0  0  0
   -3.5440    1.0380   -0.7190 C   0  0  0  0  0  0  0  0  0  0  0  0
   -4.6470    1.5000   -1.1040 O   0  0  0  0  0  0  0  0  0  0  0  0
   -3.5680   -0.1620   -0.0190 O   0  0  0  0  0  0  0  0  0  0  0  0
   -1.3440    0.1070    0.0570 H   0  0  0  0  0  0  0  0  0  0  0  0
   -2.2100    1.7990   -2.1370 H   0  0  0  0  0  0  0  0  0  0  0  0
   -2.2980    2.8140   -0.6540 H   0  0  0  0  0  0  0  0  0  0  0  0
  1  8  1  0  0  0  0
  1  7  1  0  0  0  0
  2  9  1  6  0  0  0
  2  1  1  0  0  0  0
  3  2  1  0  0  0  0
  3 10  1  0  0  0  0
  3  4  1  0  0  0  0
  5  6  2  0  0  0  0
  5  2  1  0  0  0  0
 11  3  1  0  0  0  0
 12  4  1  0  0  0  0
 13 22  1  0  0  0  0
 13 14  1  0  0  0  0
 14 15  2  0  0  0  0
 16 14  1  0  0  0  0
 16 17  1  0  0  0  0
 17 18  1  0  0  0  0
 17 25  1  1  0  0  0
 18  5  1  0  0  0  0
 19 27  1  0  0  0  0
 19 17  1  0  0  0  0
 20 19  2  0  0  0  0
 21 13  1  0  0  0  0
 23 16  1  0  0  0  0
 24 16  1  0  0  0  0
 26 18  1  0  0  0  0
 27 32  1  0  0  0  0
 28 29  1  0  0  0  0
 28 34  1  0  0  0  0
 28 27  1  0  0  0  0
 29 31  1  0  0  0  0
 30 29  2  0  0  0  0
 33 28  1  0  0  0  0
M  END
$$$$
