CNH.pdb
 OpenBabel07022418263D

 44 44  0  0  1  0  0  0  0  0999 V2000
    1.4720   -3.8900    1.4770 N   0  0  0  0  0  0  0  0  0  0  0  0
    2.6370   -3.3280    2.0820 C   0  0  1  0  0  0  0  0  0  0  0  0
    3.8370   -4.1420    1.5820 C   0  0  0  0  0  0  0  0  0  0  0  0
    3.6840   -5.8850    2.0430 S   0  0  0  0  0  0  0  0  0  0  0  0
    2.8940   -1.9250    1.5910 C   0  0  0  0  0  0  0  0  0  0  0  0
    3.8790   -1.2680    2.0220 O   0  0  0  0  0  0  0  0  0  0  0  0
    1.4630   -3.8800    0.4460 H   0  0  0  0  0  0  0  0  0  0  0  0
    0.5710   -3.6240    1.9240 H   0  0  0  0  0  0  0  0  0  0  0  0
    2.5340   -3.3580    3.1700 H   0  0  0  0  0  0  0  0  0  0  0  0
    4.7630   -3.6850    1.9520 H   0  0  0  0  0  0  0  0  0  0  0  0
    3.7980   -4.0710    0.4600 H   0  0  0  0  0  0  0  0  0  0  0  0
    2.5440   -6.3950    1.4160 H   0  0  0  0  0  0  0  0  0  0  0  0
    2.8010    1.2990   -3.4450 N   0  0  0  0  0  0  0  0  0  0  0  0
    2.6850    1.2610   -2.0270 C   0  0  0  0  0  0  0  0  0  0  0  0
    2.7990    2.3630   -1.4450 O   0  0  0  0  0  0  0  0  0  0  0  0
    2.4480   -0.0190   -1.3670 C   0  0  0  0  0  0  0  0  0  0  0  0
    2.2420    0.0420    0.1280 C   0  0  2  0  0  0  0  0  0  0  0  0
    2.0480   -1.3250    0.6510 N   0  0  0  0  0  0  0  0  0  0  0  0
    1.0460    0.8590    0.5060 C   0  0  0  0  0  0  0  0  0  0  0  0
    0.9090    2.0560    0.2190 O   0  0  0  0  0  0  0  0  0  0  0  0
    3.5480    1.8650   -3.8870 H   0  0  0  0  0  0  0  0  0  0  0  0
    2.1520    0.7700   -4.0600 H   0  0  0  0  0  0  0  0  0  0  0  0
    1.5610   -0.5490   -1.8350 H   0  0  0  0  0  0  0  0  0  0  0  0
    3.3040   -0.6980   -1.6270 H   0  0  0  0  0  0  0  0  0  0  0  0
    3.1640    0.4190    0.6020 H   0  0  0  0  0  0  0  0  0  0  0  0
    1.2370   -1.8590    0.2880 H   0  0  0  0  0  0  0  0  0  0  0  0
   -0.0280    0.2610    1.2460 N   0  0  0  0  0  0  0  0  0  0  0  0
   -1.2230    1.0630    1.6280 C   0  0  1  0  0  0  0  0  0  0  0  0
   -2.3490    0.4320    0.8400 C   0  0  0  0  0  0  0  0  0  0  0  0
   -3.6350    1.0730    1.0320 C   0  0  0  0  0  0  0  0  0  0  0  0
   -4.8280    0.6820    0.4340 C   0  0  0  0  0  0  0  0  0  0  0  0
   -5.8250    1.4750    0.8160 N   0  0  0  0  0  0  0  0  0  0  0  0
   -5.2870    2.3830    1.6620 C   0  0  0  0  0  0  0  0  0  0  0  0
   -3.9600    2.1220    1.7790 N   0  0  0  0  0  0  0  0  0  0  0  0
   -1.3830    0.9420    3.0880 C   0  0  0  0  0  0  0  0  0  0  0  0
   -2.2990    1.5360    3.6790 O   0  0  0  0  0  0  0  0  0  0  0  0
   -0.5250    0.1650    3.8640 O   0  0  0  0  0  0  0  0  0  0  0  0
    0.0690   -0.7400    1.4990 H   0  0  0  0  0  0  0  0  0  0  0  0
   -1.0480    2.0670    1.2490 H   0  0  0  0  0  0  0  0  0  0  0  0
   -2.4110   -0.6690    1.0270 H   0  0  0  0  0  0  0  0  0  0  0  0
   -2.0890    0.4870   -0.2600 H   0  0  0  0  0  0  0  0  0  0  0  0
   -4.9360   -0.1470   -0.2450 H   0  0  0  0  0  0  0  0  0  0  0  0
   -6.8370    1.4590    0.5580 H   0  0  0  0  0  0  0  0  0  0  0  0
   -5.7540    3.1950    2.1880 H   0  0  0  0  0  0  0  0  0  0  0  0
  1  8  1  0  0  0  0
  1  2  1  0  0  0  0
  2  9  1  1  0  0  0
  3 10  1  0  0  0  0
  3  4  1  0  0  0  0
  3  2  1  0  0  0  0
  5  6  2  0  0  0  0
  5  2  1  0  0  0  0
  7  1  1  0  0  0  0
 11  3  1  0  0  0  0
 12  4  1  0  0  0  0
 13 14  1  0  0  0  0
 14 15  2  0  0  0  0
 14 16  1  0  0  0  0
 16 17  1  0  0  0  0
 17 19  1  0  0  0  0
 17 25  1  1  0  0  0
 17 18  1  0  0  0  0
 18  5  1  0  0  0  0
 19 27  1  0  0  0  0
 20 19  2  0  0  0  0
 21 13  1  0  0  0  0
 22 13  1  0  0  0  0
 23 16  1  0  0  0  0
 24 16  1  0  0  0  0
 26 18  1  0  0  0  0
 27 38  1  0  0  0  0
 27 28  1  0  0  0  0
 28 39  1  6  0  0  0
 28 35  1  0  0  0  0
 29 40  1  0  0  0  0
 29 30  1  0  0  0  0
 29 28  1  0  0  0  0
 30 34  1  0  0  0  0
 31 32  1  0  0  0  0
 31 30  2  0  0  0  0
 32 33  1  0  0  0  0
 33 34  2  0  0  0  0
 33 44  1  0  0  0  0
 35 36  2  0  0  0  0
 35 37  1  0  0  0  0
 41 29  1  0  0  0  0
 42 31  1  0  0  0  0
 43 32  1  0  0  0  0
M  END
$$$$
