CNK.pdb
 OpenBabel07022418263D

 48 47  0  0  1  0  0  0  0  0999 V2000
    2.7890   -3.9640    1.3570 N   0  0  0  0  0  0  0  0  0  0  0  0
    3.4950   -2.9430    2.0540 C   0  0  1  0  0  0  0  0  0  0  0  0
    4.9750   -3.2300    1.9910 C   0  0  0  0  0  0  0  0  0  0  0  0
    5.8160   -1.9000    2.8900 S   0  0  0  0  0  0  0  0  0  0  0  0
    3.2100   -1.5740    1.5500 C   0  0  0  0  0  0  0  0  0  0  0  0
    3.8090   -0.6040    2.0900 O   0  0  0  0  0  0  0  0  0  0  0  0
    1.9140   -4.2870    1.7730 H   0  0  0  0  0  0  0  0  0  0  0  0
    2.8110   -3.9120    0.3350 H   0  0  0  0  0  0  0  0  0  0  0  0
    3.2050   -3.0310    3.1370 H   0  0  0  0  0  0  0  0  0  0  0  0
    5.1980   -4.2100    2.4490 H   0  0  0  0  0  0  0  0  0  0  0  0
    5.3130   -3.1870    0.9530 H   0  0  0  0  0  0  0  0  0  0  0  0
    6.5580   -1.0840    2.0140 H   0  0  0  0  0  0  0  0  0  0  0  0
    2.2240    1.7270   -3.4270 N   0  0  0  0  0  0  0  0  0  0  0  0
    2.1340    1.4890   -2.0040 C   0  0  0  0  0  0  0  0  0  0  0  0
    1.8840    2.4620   -1.2670 O   0  0  0  0  0  0  0  0  0  0  0  0
    2.3280    0.1510   -1.4440 C   0  0  0  0  0  0  0  0  0  0  0  0
    2.0210    0.0430    0.0040 C   0  0  2  0  0  0  0  0  0  0  0  0
    2.2940   -1.3200    0.4940 N   0  0  0  0  0  0  0  0  0  0  0  0
    0.5920    0.3710    0.3500 C   0  0  0  0  0  0  0  0  0  0  0  0
    0.0660    1.4670    0.0950 O   0  0  0  0  0  0  0  0  0  0  0  0
    2.5370    2.6620   -3.7600 H   0  0  0  0  0  0  0  0  0  0  0  0
    1.9820    0.9790   -4.0840 H   0  0  0  0  0  0  0  0  0  0  0  0
    1.7580   -0.5740   -2.0730 H   0  0  0  0  0  0  0  0  0  0  0  0
    3.4070   -0.1160   -1.6600 H   0  0  0  0  0  0  0  0  0  0  0  0
    2.6560    0.7230    0.5750 H   0  0  0  0  0  0  0  0  0  0  0  0
    1.8210   -2.1470    0.0760 H   0  0  0  0  0  0  0  0  0  0  0  0
   -0.2160   -0.5950    0.9970 N   0  0  0  0  0  0  0  0  0  0  0  0
   -1.6290   -0.3600    1.3750 C   0  0  1  0  0  0  0  0  0  0  0  0
   -2.4470   -1.2360    0.5630 C   0  0  0  0  0  0  0  0  0  0  0  0
   -3.8900   -1.3670    0.6160 C   0  0  0  0  0  0  0  0  0  0  0  0
   -4.7790   -0.2020    0.3510 C   0  0  0  0  0  0  0  0  0  0  0  0
   -4.7320    0.9580    1.2600 C   0  0  0  0  0  0  0  0  0  0  0  0
   -5.7090    1.9890    0.8230 N   0  0  0  0  0  0  0  0  0  0  0  0
   -1.7080   -0.4280    2.8160 C   0  0  0  0  0  0  0  0  0  0  0  0
   -0.6740   -0.6570    3.4950 O   0  0  0  0  0  0  0  0  0  0  0  0
   -2.8370   -0.2650    3.5990 O   0  0  0  0  0  0  0  0  0  0  0  0
    0.2180   -1.5190    1.2140 H   0  0  0  0  0  0  0  0  0  0  0  0
   -1.7720    0.7130    1.0390 H   0  0  0  0  0  0  0  0  0  0  0  0
   -1.9450   -2.2660    0.5800 H   0  0  0  0  0  0  0  0  0  0  0  0
   -2.2380   -0.9450   -0.5290 H   0  0  0  0  0  0  0  0  0  0  0  0
   -4.2870   -1.9610    1.4860 H   0  0  0  0  0  0  0  0  0  0  0  0
   -4.1520   -2.0960   -0.2370 H   0  0  0  0  0  0  0  0  0  0  0  0
   -4.6430    0.1910   -0.7050 H   0  0  0  0  0  0  0  0  0  0  0  0
   -5.8740   -0.5240    0.3230 H   0  0  0  0  0  0  0  0  0  0  0  0
   -3.8180    1.5020    1.4010 H   0  0  0  0  0  0  0  0  0  0  0  0
   -5.1000    0.7110    2.3040 H   0  0  0  0  0  0  0  0  0  0  0  0
   -5.7330    2.6750    1.6110 H   0  0  0  0  0  0  0  0  0  0  0  0
   -5.2860    2.4460   -0.0010 H   0  0  0  0  0  0  0  0  0  0  0  0
  1  7  1  0  0  0  0
  1  2  1  0  0  0  0
  2  9  1  1  0  0  0
  3  2  1  0  0  0  0
  3 10  1  0  0  0  0
  3  4  1  0  0  0  0
  5  2  1  0  0  0  0
  5  6  2  0  0  0  0
  8  1  1  0  0  0  0
 11  3  1  0  0  0  0
 12  4  1  0  0  0  0
 13 14  1  0  0  0  0
 14 16  1  0  0  0  0
 14 15  2  0  0  0  0
 16 17  1  0  0  0  0
 17 19  1  0  0  0  0
 17 18  1  0  0  0  0
 17 25  1  1  0  0  0
 18  5  1  0  0  0  0
 19 27  1  0  0  0  0
 20 19  2  0  0  0  0
 21 13  1  0  0  0  0
 22 13  1  0  0  0  0
 23 16  1  0  0  0  0
 24 16  1  0  0  0  0
 26 18  1  0  0  0  0
 27 37  1  0  0  0  0
 27 28  1  0  0  0  0
 28 38  1  6  0  0  0
 28 34  1  0  0  0  0
 29 39  1  0  0  0  0
 29 30  1  0  0  0  0
 29 28  1  0  0  0  0
 30 41  1  0  0  0  0
 31 30  1  0  0  0  0
 31 32  1  0  0  0  0
 32 45  1  0  0  0  0
 32 46  1  0  0  0  0
 33 32  1  0  0  0  0
 33 47  1  0  0  0  0
 34 35  2  0  0  0  0
 34 36  1  0  0  0  0
 40 29  1  0  0  0  0
 42 30  1  0  0  0  0
 43 31  1  0  0  0  0
 44 31  1  0  0  0  0
 48 33  1  0  0  0  0
M  END
$$$$
