CNM.pdb
 OpenBabel07022418263D

 44 43  0  0  1  0  0  0  0  0999 V2000
    5.1490   -3.4310   -0.1680 N   0  0  0  0  0  0  0  0  0  0  0  0
    3.7100   -3.4410   -0.5000 C   0  0  1  0  0  0  0  0  0  0  0  0
    3.0880   -4.5090    0.3730 C   0  0  0  0  0  0  0  0  0  0  0  0
    1.3120   -4.6620    0.0930 S   0  0  0  0  0  0  0  0  0  0  0  0
    3.1270   -2.1110   -0.3390 C   0  0  0  0  0  0  0  0  0  0  0  0
    3.8330   -1.1930    0.1640 O   0  0  0  0  0  0  0  0  0  0  0  0
    5.5650   -4.3490   -0.4480 H   0  0  0  0  0  0  0  0  0  0  0  0
    5.2400   -3.3060    0.8820 H   0  0  0  0  0  0  0  0  0  0  0  0
    3.6460   -3.7940   -1.5460 H   0  0  0  0  0  0  0  0  0  0  0  0
    3.2990   -4.3490    1.4470 H   0  0  0  0  0  0  0  0  0  0  0  0
    3.5520   -5.4750    0.0950 H   0  0  0  0  0  0  0  0  0  0  0  0
    0.9320   -6.0070    0.1590 H   0  0  0  0  0  0  0  0  0  0  0  0
   -0.5840    0.0060   -3.8540 N   0  0  0  0  0  0  0  0  0  0  0  0
   -0.1170   -0.4810   -2.6000 C   0  0  0  0  0  0  0  0  0  0  0  0
   -0.6680   -1.5740   -2.2340 O   0  0  0  0  0  0  0  0  0  0  0  0
    0.9030    0.2210   -1.8130 C   0  0  0  0  0  0  0  0  0  0  0  0
    1.2750   -0.4370   -0.5330 C   0  0  2  0  0  0  0  0  0  0  0  0
    1.8170   -1.7770   -0.7130 N   0  0  0  0  0  0  0  0  0  0  0  0
    0.1420   -0.5510    0.4170 C   0  0  0  0  0  0  0  0  0  0  0  0
   -0.1960   -1.6420    0.8910 O   0  0  0  0  0  0  0  0  0  0  0  0
   -0.1030   -0.3480   -4.7070 H   0  0  0  0  0  0  0  0  0  0  0  0
   -1.3600    0.6810   -3.9850 H   0  0  0  0  0  0  0  0  0  0  0  0
    1.8500    0.3080   -2.4220 H   0  0  0  0  0  0  0  0  0  0  0  0
    0.6230    1.2710   -1.5810 H   0  0  0  0  0  0  0  0  0  0  0  0
    2.0740    0.1740   -0.0520 H   0  0  0  0  0  0  0  0  0  0  0  0
    1.1740   -2.4770   -1.1410 H   0  0  0  0  0  0  0  0  0  0  0  0
   -1.4230    3.7380    5.2310 C   0  0  0  0  0  0  0  0  0  0  0  0
   -1.7160    1.9850    5.5830 S   0  0  0  0  0  0  0  0  0  0  0  0
   -2.4450    1.1400    4.1220 C   0  0  0  0  0  0  0  0  0  0  0  0
   -1.4040    1.1560    3.0680 C   0  0  0  0  0  0  0  0  0  0  0  0
   -1.7350    0.5000    1.7710 C   0  0  2  0  0  0  0  0  0  0  0  0
   -0.6140    0.5940    0.8330 N   0  0  0  0  0  0  0  0  0  0  0  0
   -2.9840    0.9550    1.1690 C   0  0  0  0  0  0  0  0  0  0  0  0
   -3.0770    1.4340    0.0020 O   0  0  0  0  0  0  0  0  0  0  0  0
   -4.1680    0.8770    1.8760 O   0  0  0  0  0  0  0  0  0  0  0  0
   -1.4700    4.3550    6.1530 H   0  0  0  0  0  0  0  0  0  0  0  0
   -2.1880    4.1490    4.5420 H   0  0  0  0  0  0  0  0  0  0  0  0
   -0.4030    3.8660    4.7840 H   0  0  0  0  0  0  0  0  0  0  0  0
   -2.6470    0.0990    4.4300 H   0  0  0  0  0  0  0  0  0  0  0  0
   -3.4050    1.6270    3.8590 H   0  0  0  0  0  0  0  0  0  0  0  0
   -0.4330    0.8130    3.4920 H   0  0  0  0  0  0  0  0  0  0  0  0
   -1.2090    2.2440    2.8200 H   0  0  0  0  0  0  0  0  0  0  0  0
   -1.8400   -0.5950    1.9930 H   0  0  0  0  0  0  0  0  0  0  0  0
   -0.3110    1.5030    0.4210 H   0  0  0  0  0  0  0  0  0  0  0  0
  1  8  1  0  0  0  0
  2  9  1  6  0  0  0
  2  5  1  0  0  0  0
  2  1  1  0  0  0  0
  2  3  1  0  0  0  0
  3 10  1  0  0  0  0
  4 12  1  0  0  0  0
  4  3  1  0  0  0  0
  5  6  2  0  0  0  0
  7  1  1  0  0  0  0
 11  3  1  0  0  0  0
 13 14  1  0  0  0  0
 14 15  2  0  0  0  0
 14 16  1  0  0  0  0
 16 24  1  0  0  0  0
 16 17  1  0  0  0  0
 17 25  1  1  0  0  0
 17 19  1  0  0  0  0
 18 17  1  0  0  0  0
 18  5  1  0  0  0  0
 19 32  1  0  0  0  0
 19 20  2  0  0  0  0
 21 13  1  0  0  0  0
 22 13  1  0  0  0  0
 23 16  1  0  0  0  0
 26 18  1  0  0  0  0
 27 28  1  0  0  0  0
 27 36  1  0  0  0  0
 29 39  1  0  0  0  0
 29 28  1  0  0  0  0
 30 41  1  0  0  0  0
 30 29  1  0  0  0  0
 31 43  1  1  0  0  0
 31 30  1  0  0  0  0
 32 31  1  0  0  0  0
 33 31  1  0  0  0  0
 33 35  1  0  0  0  0
 34 33  2  0  0  0  0
 37 27  1  0  0  0  0
 38 27  1  0  0  0  0
 40 29  1  0  0  0  0
 42 30  1  0  0  0  0
 44 32  1  0  0  0  0
M  END
$$$$
