CNN.pdb
 OpenBabel07022418263D

 41 40  0  0  1  0  0  0  0  0999 V2000
    2.6860   -4.5970    0.5210 N   0  0  0  0  0  0  0  0  0  0  0  0
    1.8180   -3.6130    1.1260 C   0  0  1  0  0  0  0  0  0  0  0  0
    2.7240   -2.5760    1.7980 C   0  0  0  0  0  0  0  0  0  0  0  0
    3.7880   -1.8220    0.5310 S   0  0  0  0  0  0  0  0  0  0  0  0
    0.9820   -2.9110    0.1220 C   0  0  0  0  0  0  0  0  0  0  0  0
    1.0840   -3.1940   -1.1030 O   0  0  0  0  0  0  0  0  0  0  0  0
    2.5410   -4.7340   -0.4880 H   0  0  0  0  0  0  0  0  0  0  0  0
    2.8270   -5.4470    1.0810 H   0  0  0  0  0  0  0  0  0  0  0  0
    1.1920   -4.1220    1.8700 H   0  0  0  0  0  0  0  0  0  0  0  0
    2.1240   -1.7900    2.2730 H   0  0  0  0  0  0  0  0  0  0  0  0
    3.3980   -3.0980    2.5100 H   0  0  0  0  0  0  0  0  0  0  0  0
    3.4660   -2.3410   -0.7300 H   0  0  0  0  0  0  0  0  0  0  0  0
   -4.5760   -1.1660   -0.7000 N   0  0  0  0  0  0  0  0  0  0  0  0
   -3.1970   -0.9220   -1.0190 C   0  0  0  0  0  0  0  0  0  0  0  0
   -3.0000   -0.2170   -2.0250 O   0  0  0  0  0  0  0  0  0  0  0  0
   -2.2060   -1.5230   -0.1350 C   0  0  0  0  0  0  0  0  0  0  0  0
   -0.7740   -1.2160   -0.4360 C   0  0  2  0  0  0  0  0  0  0  0  0
    0.0640   -1.9220    0.5370 N   0  0  0  0  0  0  0  0  0  0  0  0
   -0.4470    0.2370   -0.4170 C   0  0  0  0  0  0  0  0  0  0  0  0
   -0.9810    1.0950   -1.1520 O   0  0  0  0  0  0  0  0  0  0  0  0
   -5.0060   -2.0740   -0.9420 H   0  0  0  0  0  0  0  0  0  0  0  0
   -5.1510   -0.4460   -0.2290 H   0  0  0  0  0  0  0  0  0  0  0  0
   -2.3080   -2.6410   -0.2550 H   0  0  0  0  0  0  0  0  0  0  0  0
   -2.4800   -1.3360    0.9240 H   0  0  0  0  0  0  0  0  0  0  0  0
   -0.5400   -1.5960   -1.4440 H   0  0  0  0  0  0  0  0  0  0  0  0
   -0.0170   -1.6930    1.5530 H   0  0  0  0  0  0  0  0  0  0  0  0
    0.3270    1.3490    3.8940 N   0  0  0  0  0  0  0  0  0  0  0  0
    1.0980    2.2090    3.0560 C   0  0  0  0  0  0  0  0  0  0  0  0
    2.2840    2.4340    3.4020 O   0  0  0  0  0  0  0  0  0  0  0  0
    0.5050    2.7810    1.8610 C   0  0  0  0  0  0  0  0  0  0  0  0
    0.9020    2.1120    0.5660 C   0  0  2  0  0  0  0  0  0  0  0  0
    0.5510    0.7320    0.5020 N   0  0  0  0  0  0  0  0  0  0  0  0
    2.3110    2.3850    0.1860 C   0  0  0  0  0  0  0  0  0  0  0  0
    2.7900    3.5530    0.1890 O   0  0  0  0  0  0  0  0  0  0  0  0
    3.2140    1.3920   -0.2010 O   0  0  0  0  0  0  0  0  0  0  0  0
    0.5490    0.3200    3.8270 H   0  0  0  0  0  0  0  0  0  0  0  0
   -0.4020    1.7400    4.5220 H   0  0  0  0  0  0  0  0  0  0  0  0
   -0.6120    2.8080    1.8830 H   0  0  0  0  0  0  0  0  0  0  0  0
    0.8220    3.8470    1.7810 H   0  0  0  0  0  0  0  0  0  0  0  0
    0.2830    2.6430   -0.2190 H   0  0  0  0  0  0  0  0  0  0  0  0
    1.0080    0.0090    1.1270 H   0  0  0  0  0  0  0  0  0  0  0  0
  1  8  1  0  0  0  0
  1  2  1  0  0  0  0
  2  3  1  0  0  0  0
  2  9  1  1  0  0  0
  3 10  1  0  0  0  0
  3 11  1  0  0  0  0
  4  3  1  0  0  0  0
  5 18  1  0  0  0  0
  5  2  1  0  0  0  0
  6  5  2  0  0  0  0
  7  1  1  0  0  0  0
 12  4  1  0  0  0  0
 13 22  1  0  0  0  0
 14 13  1  0  0  0  0
 14 16  1  0  0  0  0
 15 14  2  0  0  0  0
 16 24  1  0  0  0  0
 17 25  1  6  0  0  0
 17 19  1  0  0  0  0
 17 16  1  0  0  0  0
 17 18  1  0  0  0  0
 18 26  1  0  0  0  0
 19 32  1  0  0  0  0
 20 19  2  0  0  0  0
 21 13  1  0  0  0  0
 23 16  1  0  0  0  0
 27 37  1  0  0  0  0
 28 29  2  0  0  0  0
 28 27  1  0  0  0  0
 30 38  1  0  0  0  0
 30 28  1  0  0  0  0
 31 40  1  6  0  0  0
 31 30  1  0  0  0  0
 32 31  1  0  0  0  0
 32 41  1  0  0  0  0
 33 34  1  0  0  0  0
 33 31  1  0  0  0  0
 35 33  2  0  0  0  0
 36 27  1  0  0  0  0
 39 30  1  0  0  0  0
M  END
$$$$
