CNP.pdb
 OpenBabel07022418263D

 41 41  0  0  1  0  0  0  0  0999 V2000
    3.1000   -3.3170   -1.6400 N   0  0  0  0  0  0  0  0  0  0  0  0
    1.9180   -2.4910   -1.3070 C   0  0  1  0  0  0  0  0  0  0  0  0
    0.9170   -3.3850   -0.5830 C   0  0  0  0  0  0  0  0  0  0  0  0
    1.5850   -4.0790    0.9290 S   0  0  0  0  0  0  0  0  0  0  0  0
    2.3280   -1.3140   -0.5200 C   0  0  0  0  0  0  0  0  0  0  0  0
    3.5320   -1.2010   -0.1050 O   0  0  0  0  0  0  0  0  0  0  0  0
    3.4300   -3.0870   -2.6250 H   0  0  0  0  0  0  0  0  0  0  0  0
    2.7300   -4.3070   -1.7400 H   0  0  0  0  0  0  0  0  0  0  0  0
    1.4520   -2.2430   -2.2870 H   0  0  0  0  0  0  0  0  0  0  0  0
   -0.0100   -2.8520   -0.4080 H   0  0  0  0  0  0  0  0  0  0  0  0
    0.6860   -4.1930   -1.3370 H   0  0  0  0  0  0  0  0  0  0  0  0
    2.9950   -4.0420    0.8530 H   0  0  0  0  0  0  0  0  0  0  0  0
   -0.6020    1.8950   -1.0190 N   0  0  0  0  0  0  0  0  0  0  0  0
    0.6810    2.4770   -1.1250 C   0  0  0  0  0  0  0  0  0  0  0  0
    0.7640    3.4210   -1.9880 O   0  0  0  0  0  0  0  0  0  0  0  0
    1.8730    2.1030   -0.3580 C   0  0  0  0  0  0  0  0  0  0  0  0
    1.7110    0.8810    0.5260 C   0  0  2  0  0  0  0  0  0  0  0  0
    1.3750   -0.3000   -0.2270 N   0  0  0  0  0  0  0  0  0  0  0  0
    0.8800    1.2010    1.6770 C   0  0  0  0  0  0  0  0  0  0  0  0
    1.1260    2.3590    2.2110 O   0  0  0  0  0  0  0  0  0  0  0  0
   -1.0040    1.1660   -1.6370 H   0  0  0  0  0  0  0  0  0  0  0  0
   -1.1940    2.2460   -0.2370 H   0  0  0  0  0  0  0  0  0  0  0  0
    2.1390    3.0040    0.2710 H   0  0  0  0  0  0  0  0  0  0  0  0
    2.7800    1.9820   -1.0160 H   0  0  0  0  0  0  0  0  0  0  0  0
    2.7800    0.6930    0.9080 H   0  0  0  0  0  0  0  0  0  0  0  0
    0.4100   -0.4490   -0.5900 H   0  0  0  0  0  0  0  0  0  0  0  0
   -0.1290    0.4710    2.3010 N   0  0  0  0  0  0  0  0  0  0  0  0
   -0.9370    0.8990    3.4580 C   0  0  0  0  0  0  0  0  0  0  0  0
   -1.4590   -0.3370    4.1190 C   0  0  0  0  0  0  0  0  0  0  0  0
   -0.8240   -1.4890    3.3660 C   0  0  0  0  0  0  0  0  0  0  0  0
   -0.5680   -0.8790    1.9730 C   0  0  1  0  0  0  0  0  0  0  0  0
   -1.8230   -0.9150    1.2010 C   0  0  0  0  0  0  0  0  0  0  0  0
   -2.4260    0.1290    0.8820 O   0  0  0  0  0  0  0  0  0  0  0  0
   -2.3300   -2.1730    0.8310 O   0  0  0  0  0  0  0  0  0  0  0  0
   -1.7940    1.5170    3.1350 H   0  0  0  0  0  0  0  0  0  0  0  0
   -0.2990    1.4740    4.1620 H   0  0  0  0  0  0  0  0  0  0  0  0
   -1.2210   -0.3850    5.2030 H   0  0  0  0  0  0  0  0  0  0  0  0
   -2.5650   -0.4430    4.0520 H   0  0  0  0  0  0  0  0  0  0  0  0
    0.1330   -1.7190    3.8670 H   0  0  0  0  0  0  0  0  0  0  0  0
   -1.5080   -2.3430    3.2750 H   0  0  0  0  0  0  0  0  0  0  0  0
    0.2070   -1.5020    1.5190 H   0  0  0  0  0  0  0  0  0  0  0  0
  1  2  1  0  0  0  0
  2  9  1  6  0  0  0
  2  3  1  0  0  0  0
  2  5  1  0  0  0  0
  3 10  1  0  0  0  0
  3  4  1  0  0  0  0
  5 18  1  0  0  0  0
  5  6  2  0  0  0  0
  7  1  1  0  0  0  0
  8  1  1  0  0  0  0
 11  3  1  0  0  0  0
 12  4  1  0  0  0  0
 13 22  1  0  0  0  0
 14 13  1  0  0  0  0
 14 16  1  0  0  0  0
 15 14  2  0  0  0  0
 16 23  1  0  0  0  0
 16 17  1  0  0  0  0
 17 25  1  1  0  0  0
 17 19  1  0  0  0  0
 18 17  1  0  0  0  0
 19 20  2  0  0  0  0
 19 27  1  0  0  0  0
 21 13  1  0  0  0  0
 24 16  1  0  0  0  0
 26 18  1  0  0  0  0
 27 28  1  0  0  0  0
 28 29  1  0  0  0  0
 28 36  1  0  0  0  0
 29 37  1  0  0  0  0
 30 39  1  0  0  0  0
 30 29  1  0  0  0  0
 31 41  1  6  0  0  0
 31 27  1  0  0  0  0
 31 30  1  0  0  0  0
 32 31  1  0  0  0  0
 33 32  1  0  0  0  0
 34 32  2  0  0  0  0
 35 28  1  0  0  0  0
 38 29  1  0  0  0  0
 40 30  1  0  0  0  0
M  END
$$$$
