CNQ.pdb
 OpenBabel07022418263D

 44 43  0  0  1  0  0  0  0  0999 V2000
    3.3220    0.9060    3.8760 N   0  0  0  0  0  0  0  0  0  0  0  0
    3.0150    0.0420    2.7270 C   0  0  1  0  0  0  0  0  0  0  0  0
    2.1200   -1.0320    3.2350 C   0  0  0  0  0  0  0  0  0  0  0  0
    1.6560   -2.2250    1.9740 S   0  0  0  0  0  0  0  0  0  0  0  0
    2.4970    0.8890    1.6530 C   0  0  0  0  0  0  0  0  0  0  0  0
    2.4500    2.1560    1.8390 O   0  0  0  0  0  0  0  0  0  0  0  0
    2.5920    1.6180    4.0260 H   0  0  0  0  0  0  0  0  0  0  0  0
    3.4600    0.3350    4.7440 H   0  0  0  0  0  0  0  0  0  0  0  0
    3.9760   -0.4620    2.4110 H   0  0  0  0  0  0  0  0  0  0  0  0
    2.7070   -1.6040    4.0110 H   0  0  0  0  0  0  0  0  0  0  0  0
    1.1850   -0.6470    3.6970 H   0  0  0  0  0  0  0  0  0  0  0  0
    1.4560   -3.5090    2.5160 H   0  0  0  0  0  0  0  0  0  0  0  0
    1.3630   -1.1970   -1.9940 N   0  0  0  0  0  0  0  0  0  0  0  0
    2.1890   -0.1820   -2.4920 C   0  0  0  0  0  0  0  0  0  0  0  0
    2.8820   -0.4500   -3.5210 O   0  0  0  0  0  0  0  0  0  0  0  0
    2.2770    1.1350   -1.8860 C   0  0  0  0  0  0  0  0  0  0  0  0
    1.5440    1.3680   -0.6250 C   0  0  2  0  0  0  0  0  0  0  0  0
    2.0300    0.4590    0.3960 N   0  0  0  0  0  0  0  0  0  0  0  0
    0.0730    1.1980   -0.7200 C   0  0  0  0  0  0  0  0  0  0  0  0
   -0.5840    1.8190   -1.5980 O   0  0  0  0  0  0  0  0  0  0  0  0
    1.7230   -2.1030   -1.5960 H   0  0  0  0  0  0  0  0  0  0  0  0
    0.3290   -1.0950   -2.0010 H   0  0  0  0  0  0  0  0  0  0  0  0
    3.3720    1.3920   -1.7590 H   0  0  0  0  0  0  0  0  0  0  0  0
    1.9360    1.9110   -2.6370 H   0  0  0  0  0  0  0  0  0  0  0  0
    1.7650    2.4060   -0.2320 H   0  0  0  0  0  0  0  0  0  0  0  0
    2.0350   -0.5530    0.1770 H   0  0  0  0  0  0  0  0  0  0  0  0
   -1.7220   -3.7270    2.4500 N   0  0  0  0  0  0  0  0  0  0  0  0
   -2.2600   -2.5590    1.7890 C   0  0  0  0  0  0  0  0  0  0  0  0
   -2.9610   -1.8370    2.5130 O   0  0  0  0  0  0  0  0  0  0  0  0
   -1.9280   -2.3730    0.4010 C   0  0  0  0  0  0  0  0  0  0  0  0
   -2.4320   -1.2220   -0.3530 C   0  0  0  0  0  0  0  0  0  0  0  0
   -2.0790    0.1510    0.1030 C   0  0  2  0  0  0  0  0  0  0  0  0
   -0.6470    0.3550    0.1480 N   0  0  0  0  0  0  0  0  0  0  0  0
   -2.8260    0.6550    1.2450 C   0  0  0  0  0  0  0  0  0  0  0  0
   -2.2750    1.1600    2.2440 O   0  0  0  0  0  0  0  0  0  0  0  0
   -4.2050    0.5910    1.2560 O   0  0  0  0  0  0  0  0  0  0  0  0
   -0.8850   -3.7070    3.0450 H   0  0  0  0  0  0  0  0  0  0  0  0
   -2.2070   -4.6430    2.3180 H   0  0  0  0  0  0  0  0  0  0  0  0
   -2.3100   -3.3030   -0.1440 H   0  0  0  0  0  0  0  0  0  0  0  0
   -0.8150   -2.4630    0.2380 H   0  0  0  0  0  0  0  0  0  0  0  0
   -2.1250   -1.3600   -1.4340 H   0  0  0  0  0  0  0  0  0  0  0  0
   -3.5630   -1.2460   -0.4270 H   0  0  0  0  0  0  0  0  0  0  0  0
   -2.3980    0.8200   -0.7860 H   0  0  0  0  0  0  0  0  0  0  0  0
   -0.1220   -0.1560    0.8780 H   0  0  0  0  0  0  0  0  0  0  0  0
  1  7  1  0  0  0  0
  1  8  1  0  0  0  0
  2  9  1  6  0  0  0
  2  3  1  0  0  0  0
  2  1  1  0  0  0  0
  3 11  1  0  0  0  0
  3 10  1  0  0  0  0
  4 12  1  0  0  0  0
  4  3  1  0  0  0  0
  5  6  2  0  0  0  0
  5  2  1  0  0  0  0
 13 21  1  0  0  0  0
 14 13  1  0  0  0  0
 14 16  1  0  0  0  0
 15 14  2  0  0  0  0
 16 23  1  0  0  0  0
 16 17  1  0  0  0  0
 17 25  1  1  0  0  0
 17 18  1  0  0  0  0
 18  5  1  0  0  0  0
 19 17  1  0  0  0  0
 19 33  1  0  0  0  0
 20 19  2  0  0  0  0
 22 13  1  0  0  0  0
 24 16  1  0  0  0  0
 26 18  1  0  0  0  0
 27 37  1  0  0  0  0
 28 27  1  0  0  0  0
 28 29  2  0  0  0  0
 30 28  1  0  0  0  0
 31 32  1  0  0  0  0
 31 30  1  0  0  0  0
 32 43  1  6  0  0  0
 32 33  1  0  0  0  0
 32 34  1  0  0  0  0
 33 44  1  0  0  0  0
 34 36  2  0  0  0  0
 34 35  1  0  0  0  0
 38 27  1  0  0  0  0
 39 30  1  0  0  0  0
 40 30  1  0  0  0  0
 41 31  1  0  0  0  0
 42 31  1  0  0  0  0
M  END
$$$$
