CNS.pdb
 OpenBabel07022418263D

 38 37  0  0  1  0  0  0  0  0999 V2000
   -1.6890   -2.4900   -0.3170 N   0  0  0  0  0  0  0  0  0  0  0  0
   -0.5900   -2.7230   -1.2640 C   0  0  1  0  0  0  0  0  0  0  0  0
   -1.1550   -2.2920   -2.6110 C   0  0  0  0  0  0  0  0  0  0  0  0
   -2.6140   -3.3160   -2.9860 S   0  0  0  0  0  0  0  0  0  0  0  0
    0.5350   -1.8800   -0.8500 C   0  0  0  0  0  0  0  0  0  0  0  0
    1.7390   -2.0340   -1.2000 O   0  0  0  0  0  0  0  0  0  0  0  0
   -2.1960   -1.6510   -0.6070 H   0  0  0  0  0  0  0  0  0  0  0  0
   -2.2340   -3.3390   -0.1280 H   0  0  0  0  0  0  0  0  0  0  0  0
   -0.3900   -3.8120   -1.2600 H   0  0  0  0  0  0  0  0  0  0  0  0
   -0.4510   -2.3380   -3.4330 H   0  0  0  0  0  0  0  0  0  0  0  0
   -1.5670   -1.2450   -2.4860 H   0  0  0  0  0  0  0  0  0  0  0  0
   -3.0560   -3.1110   -4.3040 H   0  0  0  0  0  0  0  0  0  0  0  0
    2.9840    1.1460   -2.2640 N   0  0  0  0  0  0  0  0  0  0  0  0
    1.6490    1.0940   -1.7810 C   0  0  0  0  0  0  0  0  0  0  0  0
    0.7460    0.8010   -2.6080 O   0  0  0  0  0  0  0  0  0  0  0  0
    1.4190    1.3840   -0.3480 C   0  0  0  0  0  0  0  0  0  0  0  0
    1.3680    0.0960    0.4720 C   0  0  2  0  0  0  0  0  0  0  0  0
    0.3040   -0.7580    0.0310 N   0  0  0  0  0  0  0  0  0  0  0  0
    1.3790    0.4090    1.8980 C   0  0  0  0  0  0  0  0  0  0  0  0
    2.2720    1.1560    2.3780 O   0  0  0  0  0  0  0  0  0  0  0  0
    3.7170    1.8050   -1.8930 H   0  0  0  0  0  0  0  0  0  0  0  0
    3.2690    0.5080   -3.0260 H   0  0  0  0  0  0  0  0  0  0  0  0
    2.2100    2.0640    0.0120 H   0  0  0  0  0  0  0  0  0  0  0  0
    0.4380    1.9190   -0.2640 H   0  0  0  0  0  0  0  0  0  0  0  0
    2.3340   -0.4230    0.2010 H   0  0  0  0  0  0  0  0  0  0  0  0
   -0.6880   -0.5730    0.3480 H   0  0  0  0  0  0  0  0  0  0  0  0
   -0.9620    2.1800    3.9270 O   0  0  0  0  0  0  0  0  0  0  0  0
   -0.8040    1.0180    4.6320 C   0  0  0  0  0  0  0  0  0  0  0  0
    0.4640    0.2540    4.2390 C   0  0  2  0  0  0  0  0  0  0  0  0
    0.4020   -0.1000    2.8190 N   0  0  0  0  0  0  0  0  0  0  0  0
    0.5950   -0.9440    5.1040 C   0  0  0  0  0  0  0  0  0  0  0  0
    0.6600   -0.8470    6.3450 O   0  0  0  0  0  0  0  0  0  0  0  0
    0.6440   -2.1830    4.5060 O   0  0  0  0  0  0  0  0  0  0  0  0
   -1.2580    2.9350    4.5310 H   0  0  0  0  0  0  0  0  0  0  0  0
   -0.9220    1.1060    5.7090 H   0  0  0  0  0  0  0  0  0  0  0  0
   -1.6400    0.3290    4.2880 H   0  0  0  0  0  0  0  0  0  0  0  0
    1.3070    0.9400    4.3890 H   0  0  0  0  0  0  0  0  0  0  0  0
   -0.3280   -0.7200    2.4160 H   0  0  0  0  0  0  0  0  0  0  0  0
  1  8  1  0  0  0  0
  2  9  1  6  0  0  0
  2  5  1  0  0  0  0
  2  1  1  0  0  0  0
  3 11  1  0  0  0  0
  3  2  1  0  0  0  0
  4  3  1  0  0  0  0
  5 18  1  0  0  0  0
  6  5  2  0  0  0  0
  7  1  1  0  0  0  0
 10  3  1  0  0  0  0
 12  4  1  0  0  0  0
 13 21  1  0  0  0  0
 13 14  1  0  0  0  0
 14 16  1  0  0  0  0
 15 14  2  0  0  0  0
 16 24  1  0  0  0  0
 16 23  1  0  0  0  0
 16 17  1  0  0  0  0
 17 25  1  6  0  0  0
 17 19  1  0  0  0  0
 18 26  1  0  0  0  0
 18 17  1  0  0  0  0
 19 20  2  0  0  0  0
 19 30  1  0  0  0  0
 22 13  1  0  0  0  0
 27 34  1  0  0  0  0
 27 28  1  0  0  0  0
 28 35  1  0  0  0  0
 29 37  1  1  0  0  0
 29 28  1  0  0  0  0
 29 31  1  0  0  0  0
 30 29  1  0  0  0  0
 31 32  1  0  0  0  0
 33 31  2  0  0  0  0
 36 28  1  0  0  0  0
 38 30  1  0  0  0  0
M  END
$$$$
