CNT.pdb
 OpenBabel07022418263D

 41 40  0  0  1  0  0  0  0  0999 V2000
    1.0320   -3.0070   -3.1170 N   0  0  0  0  0  0  0  0  0  0  0  0
    0.5200   -1.8990   -2.3070 C   0  0  1  0  0  0  0  0  0  0  0  0
   -0.8730   -2.2510   -1.7970 C   0  0  0  0  0  0  0  0  0  0  0  0
   -0.7280   -3.7640   -0.7880 S   0  0  0  0  0  0  0  0  0  0  0  0
    1.4390   -1.6540   -1.1790 C   0  0  0  0  0  0  0  0  0  0  0  0
    2.4850   -2.3740   -1.0320 O   0  0  0  0  0  0  0  0  0  0  0  0
    0.3890   -3.2040   -3.9170 H   0  0  0  0  0  0  0  0  0  0  0  0
    1.9760   -2.7150   -3.4640 H   0  0  0  0  0  0  0  0  0  0  0  0
    0.4030   -1.0400   -2.9850 H   0  0  0  0  0  0  0  0  0  0  0  0
   -1.2920   -1.4550   -1.1830 H   0  0  0  0  0  0  0  0  0  0  0  0
   -1.5210   -2.5120   -2.6570 H   0  0  0  0  0  0  0  0  0  0  0  0
    0.5320   -4.3380   -0.9540 H   0  0  0  0  0  0  0  0  0  0  0  0
    2.7700    1.7930   -1.7370 N   0  0  0  0  0  0  0  0  0  0  0  0
    3.3580    1.1020   -0.6530 C   0  0  0  0  0  0  0  0  0  0  0  0
    4.4990    0.5450   -0.7930 O   0  0  0  0  0  0  0  0  0  0  0  0
    2.6650    1.0110    0.6650 C   0  0  0  0  0  0  0  0  0  0  0  0
    2.1110   -0.4060    0.8590 C   0  0  2  0  0  0  0  0  0  0  0  0
    1.1880   -0.6200   -0.2350 N   0  0  0  0  0  0  0  0  0  0  0  0
    1.4360   -0.4120    2.1690 C   0  0  0  0  0  0  0  0  0  0  0  0
    2.0870   -0.2400    3.2220 O   0  0  0  0  0  0  0  0  0  0  0  0
    1.7360    1.8860   -1.8040 H   0  0  0  0  0  0  0  0  0  0  0  0
    3.3470    2.2160   -2.4760 H   0  0  0  0  0  0  0  0  0  0  0  0
    3.3600    1.2730    1.4870 H   0  0  0  0  0  0  0  0  0  0  0  0
    1.8400    1.7430    0.6890 H   0  0  0  0  0  0  0  0  0  0  0  0
    2.9450   -1.1110    0.8520 H   0  0  0  0  0  0  0  0  0  0  0  0
    0.3340   -0.0370   -0.3600 H   0  0  0  0  0  0  0  0  0  0  0  0
   -0.9670    1.8120    3.7300 C   0  0  0  0  0  0  0  0  0  0  0  0
   -1.6890    0.4830    3.6100 C   0  0  1  0  0  0  0  0  0  0  0  0
   -2.6620    0.4830    2.6440 O   0  0  0  0  0  0  0  0  0  0  0  0
   -0.6820   -0.6310    3.4610 C   0  0  2  0  0  0  0  0  0  0  0  0
    0.0370   -0.6150    2.2340 N   0  0  0  0  0  0  0  0  0  0  0  0
   -1.3410   -1.9210    3.7490 C   0  0  0  0  0  0  0  0  0  0  0  0
   -2.0150   -2.1390    4.7670 O   0  0  0  0  0  0  0  0  0  0  0  0
   -1.1960   -2.9560    2.8190 O   0  0  0  0  0  0  0  0  0  0  0  0
   -0.4450    2.0280    2.7770 H   0  0  0  0  0  0  0  0  0  0  0  0
   -0.2980    1.7690    4.5990 H   0  0  0  0  0  0  0  0  0  0  0  0
   -1.6720    2.6490    3.9060 H   0  0  0  0  0  0  0  0  0  0  0  0
   -2.1960    0.3110    4.5840 H   0  0  0  0  0  0  0  0  0  0  0  0
   -2.7320    1.3710    2.2260 H   0  0  0  0  0  0  0  0  0  0  0  0
    0.0530   -0.4600    4.2890 H   0  0  0  0  0  0  0  0  0  0  0  0
   -0.5260   -0.7640    1.3420 H   0  0  0  0  0  0  0  0  0  0  0  0
  1  2  1  0  0  0  0
  2  9  1  6  0  0  0
  2  3  1  0  0  0  0
  2  5  1  0  0  0  0
  3 10  1  0  0  0  0
  3  4  1  0  0  0  0
  5  6  2  0  0  0  0
  5 18  1  0  0  0  0
  7  1  1  0  0  0  0
  8  1  1  0  0  0  0
 11  3  1  0  0  0  0
 12  4  1  0  0  0  0
 13 14  1  0  0  0  0
 14 16  1  0  0  0  0
 15 14  2  0  0  0  0
 16 24  1  0  0  0  0
 16 17  1  0  0  0  0
 16 23  1  0  0  0  0
 17 25  1  6  0  0  0
 17 19  1  0  0  0  0
 18 17  1  0  0  0  0
 19 31  1  0  0  0  0
 19 20  2  0  0  0  0
 21 13  1  0  0  0  0
 22 13  1  0  0  0  0
 26 18  1  0  0  0  0
 27 37  1  0  0  0  0
 27 36  1  0  0  0  0
 28 27  1  0  0  0  0
 28 38  1  1  0  0  0
 29 28  1  0  0  0  0
 30 28  1  0  0  0  0
 30 32  1  0  0  0  0
 30 40  1  1  0  0  0
 31 30  1  0  0  0  0
 32 33  1  0  0  0  0
 34 32  2  0  0  0  0
 35 27  1  0  0  0  0
 39 29  1  0  0  0  0
 41 31  1  0  0  0  0
M  END
$$$$
