CNW.pdb
 OpenBabel07022418263D

 51 52  0  0  1  0  0  0  0  0999 V2000
    4.7110   -1.8920    3.0840 N   0  0  0  0  0  0  0  0  0  0  0  0
    3.8100   -1.5360    1.9750 C   0  0  1  0  0  0  0  0  0  0  0  0
    2.8830   -2.6890    1.7990 C   0  0  0  0  0  0  0  0  0  0  0  0
    1.6880   -2.4940    0.4710 S   0  0  0  0  0  0  0  0  0  0  0  0
    3.0690   -0.3200    2.3770 C   0  0  0  0  0  0  0  0  0  0  0  0
    3.2420    0.1570    3.5530 O   0  0  0  0  0  0  0  0  0  0  0  0
    4.9230   -2.9290    3.0500 H   0  0  0  0  0  0  0  0  0  0  0  0
    4.1150   -1.7730    3.9550 H   0  0  0  0  0  0  0  0  0  0  0  0
    4.4600   -1.3510    1.0870 H   0  0  0  0  0  0  0  0  0  0  0  0
    3.4700   -3.6130    1.5660 H   0  0  0  0  0  0  0  0  0  0  0  0
    2.3220   -2.8130    2.7570 H   0  0  0  0  0  0  0  0  0  0  0  0
    0.4310   -3.0210    0.8420 H   0  0  0  0  0  0  0  0  0  0  0  0
    2.8280    2.3650   -1.0770 N   0  0  0  0  0  0  0  0  0  0  0  0
    1.8000    2.7130   -0.1620 C   0  0  0  0  0  0  0  0  0  0  0  0
    0.6600    2.9480   -0.6270 O   0  0  0  0  0  0  0  0  0  0  0  0
    2.0220    2.8060    1.2940 C   0  0  0  0  0  0  0  0  0  0  0  0
    1.4970    1.5660    2.0160 C   0  0  2  0  0  0  0  0  0  0  0  0
    2.1630    0.3790    1.5390 N   0  0  0  0  0  0  0  0  0  0  0  0
    0.0230    1.5080    1.9710 C   0  0  0  0  0  0  0  0  0  0  0  0
   -0.6860    2.4850    2.4050 O   0  0  0  0  0  0  0  0  0  0  0  0
    2.6280    1.6970   -1.8680 H   0  0  0  0  0  0  0  0  0  0  0  0
    3.7990    2.7330   -1.0220 H   0  0  0  0  0  0  0  0  0  0  0  0
    1.5780    3.7080    1.7530 H   0  0  0  0  0  0  0  0  0  0  0  0
    3.1170    2.8780    1.4570 H   0  0  0  0  0  0  0  0  0  0  0  0
    1.7930    1.7150    3.0750 H   0  0  0  0  0  0  0  0  0  0  0  0
    1.9960    0.0190    0.5840 H   0  0  0  0  0  0  0  0  0  0  0  0
   -0.7490    0.4350    1.4740 N   0  0  0  0  0  0  0  0  0  0  0  0
   -2.2240    0.4350    1.4560 C   0  0  1  0  0  0  0  0  0  0  0  0
   -2.7320    0.5220    0.0610 C   0  0  0  0  0  0  0  0  0  0  0  0
   -2.3360   -0.5160   -0.8690 C   0  0  0  0  0  0  0  0  0  0  0  0
   -1.2540   -0.4130   -1.7580 C   0  0  0  0  0  0  0  0  0  0  0  0
   -1.1160   -1.5430   -2.4510 N   0  0  0  0  0  0  0  0  0  0  0  0
   -2.0870   -2.3960   -2.0370 C   0  0  0  0  0  0  0  0  0  0  0  0
   -2.4180   -3.6870   -2.4160 C   0  0  0  0  0  0  0  0  0  0  0  0
   -3.4680   -4.3960   -1.8760 C   0  0  0  0  0  0  0  0  0  0  0  0
   -4.1950   -3.7300   -0.9090 C   0  0  0  0  0  0  0  0  0  0  0  0
   -3.9240   -2.4660   -0.4920 C   0  0  0  0  0  0  0  0  0  0  0  0
   -2.8530   -1.7700   -1.0540 C   0  0  0  0  0  0  0  0  0  0  0  0
   -2.6760   -0.6530    2.2980 C   0  0  0  0  0  0  0  0  0  0  0  0
   -3.8910   -0.8920    2.5940 O   0  0  0  0  0  0  0  0  0  0  0  0
   -1.7670   -1.5640    2.8760 O   0  0  0  0  0  0  0  0  0  0  0  0
   -0.2730   -0.4030    1.0960 H   0  0  0  0  0  0  0  0  0  0  0  0
   -2.5820    1.3950    1.9570 H   0  0  0  0  0  0  0  0  0  0  0  0
   -3.8390    0.5610    0.1030 H   0  0  0  0  0  0  0  0  0  0  0  0
   -2.4240    1.5390   -0.3170 H   0  0  0  0  0  0  0  0  0  0  0  0
   -0.6070    0.4490   -1.8870 H   0  0  0  0  0  0  0  0  0  0  0  0
   -0.4170   -1.8020   -3.1900 H   0  0  0  0  0  0  0  0  0  0  0  0
   -1.8080   -4.1680   -3.1900 H   0  0  0  0  0  0  0  0  0  0  0  0
   -3.7150   -5.4120   -2.1860 H   0  0  0  0  0  0  0  0  0  0  0  0
   -5.0400   -4.2390   -0.4460 H   0  0  0  0  0  0  0  0  0  0  0  0
   -4.4830   -1.9310    0.2440 H   0  0  0  0  0  0  0  0  0  0  0  0
  1  8  1  0  0  0  0
  2  9  1  6  0  0  0
  2  5  1  0  0  0  0
  2  1  1  0  0  0  0
  3  2  1  0  0  0  0
  3 11  1  0  0  0  0
  4 12  1  0  0  0  0
  4  3  1  0  0  0  0
  5  6  2  0  0  0  0
  7  1  1  0  0  0  0
 10  3  1  0  0  0  0
 13 22  1  0  0  0  0
 13 14  1  0  0  0  0
 14 16  1  0  0  0  0
 15 14  2  0  0  0  0
 16 24  1  0  0  0  0
 16 23  1  0  0  0  0
 16 17  1  0  0  0  0
 17 25  1  1  0  0  0
 18 17  1  0  0  0  0
 18  5  1  0  0  0  0
 19 17  1  0  0  0  0
 19 20  2  0  0  0  0
 21 13  1  0  0  0  0
 26 18  1  0  0  0  0
 27 19  1  0  0  0  0
 28 27  1  0  0  0  0
 28 43  1  1  0  0  0
 28 39  1  0  0  0  0
 29 44  1  0  0  0  0
 29 28  1  0  0  0  0
 30 29  1  0  0  0  0
 31 30  2  0  0  0  0
 32 33  1  0  0  0  0
 32 31  1  0  0  0  0
 33 38  1  0  0  0  0
 34 33  2  0  0  0  0
 34 35  1  0  0  0  0
 35 36  2  0  0  0  0
 36 37  1  0  0  0  0
 36 50  1  0  0  0  0
 37 51  1  0  0  0  0
 38 30  1  0  0  0  0
 38 37  2  0  0  0  0
 39 40  2  0  0  0  0
 39 41  1  0  0  0  0
 42 27  1  0  0  0  0
 45 29  1  0  0  0  0
 46 31  1  0  0  0  0
 47 32  1  0  0  0  0
 48 34  1  0  0  0  0
 49 35  1  0  0  0  0
M  END
$$$$
