CNY.pdb
 OpenBabel07022418263D

 48 48  0  0  1  0  0  0  0  0999 V2000
    1.6900   -2.9730    0.3160 N   0  0  0  0  0  0  0  0  0  0  0  0
    2.4580   -2.7360    1.5030 C   0  0  1  0  0  0  0  0  0  0  0  0
    3.8880   -3.1990    1.1910 C   0  0  0  0  0  0  0  0  0  0  0  0
    4.9740   -2.9550    2.6190 S   0  0  0  0  0  0  0  0  0  0  0  0
    2.4620   -1.2850    1.8520 C   0  0  0  0  0  0  0  0  0  0  0  0
    3.0400   -0.8340    2.8630 O   0  0  0  0  0  0  0  0  0  0  0  0
    0.7080   -2.6610    0.3690 H   0  0  0  0  0  0  0  0  0  0  0  0
    2.1730   -2.8310   -0.5740 H   0  0  0  0  0  0  0  0  0  0  0  0
    2.0440   -3.3550    2.3240 H   0  0  0  0  0  0  0  0  0  0  0  0
    3.8630   -4.2580    0.9010 H   0  0  0  0  0  0  0  0  0  0  0  0
    4.2840   -2.6200    0.3350 H   0  0  0  0  0  0  0  0  0  0  0  0
    6.1720   -2.3220    2.2090 H   0  0  0  0  0  0  0  0  0  0  0  0
    2.7020    4.1570   -0.7380 N   0  0  0  0  0  0  0  0  0  0  0  0
    2.3290    3.2810    0.3560 C   0  0  0  0  0  0  0  0  0  0  0  0
    2.0570    3.8680    1.4320 O   0  0  0  0  0  0  0  0  0  0  0  0
    2.2960    1.8240    0.1350 C   0  0  0  0  0  0  0  0  0  0  0  0
    1.7390    1.0500    1.2750 C   0  0  2  0  0  0  0  0  0  0  0  0
    1.7890   -0.3940    1.0100 N   0  0  0  0  0  0  0  0  0  0  0  0
    0.3130    1.4440    1.4590 C   0  0  0  0  0  0  0  0  0  0  0  0
   -0.0490    2.5860    1.6930 O   0  0  0  0  0  0  0  0  0  0  0  0
    3.1470    5.0630   -0.5650 H   0  0  0  0  0  0  0  0  0  0  0  0
    2.5200    3.8690   -1.7260 H   0  0  0  0  0  0  0  0  0  0  0  0
    1.6300    1.6830   -0.7740 H   0  0  0  0  0  0  0  0  0  0  0  0
    3.2920    1.4630   -0.2050 H   0  0  0  0  0  0  0  0  0  0  0  0
    2.3160    1.2390    2.1840 H   0  0  0  0  0  0  0  0  0  0  0  0
    1.2960   -0.7250    0.1510 H   0  0  0  0  0  0  0  0  0  0  0  0
   -3.0670   -4.9920   -1.1880 O   0  0  0  0  0  0  0  0  0  0  0  0
   -3.0440   -3.6500   -0.8190 C   0  0  0  0  0  0  0  0  0  0  0  0
   -2.1210   -2.7620   -1.3530 C   0  0  0  0  0  0  0  0  0  0  0  0
   -2.1010   -1.4320   -0.9860 C   0  0  0  0  0  0  0  0  0  0  0  0
   -2.9950   -0.9210   -0.0720 C   0  0  0  0  0  0  0  0  0  0  0  0
   -3.0010    0.5080    0.3490 C   0  0  0  0  0  0  0  0  0  0  0  0
   -2.1330    0.7790    1.5320 C   0  0  2  0  0  0  0  0  0  0  0  0
   -0.7490    0.4740    1.3700 N   0  0  0  0  0  0  0  0  0  0  0  0
   -2.6550    0.1850    2.7800 C   0  0  0  0  0  0  0  0  0  0  0  0
   -1.9110   -0.4750    3.5270 O   0  0  0  0  0  0  0  0  0  0  0  0
   -3.9040   -1.8250    0.4470 C   0  0  0  0  0  0  0  0  0  0  0  0
   -3.9420   -3.1450    0.0970 C   0  0  0  0  0  0  0  0  0  0  0  0
   -3.9750    0.3590    3.1280 O   0  0  0  0  0  0  0  0  0  0  0  0
   -2.8810   -5.2820   -2.1570 H   0  0  0  0  0  0  0  0  0  0  0  0
   -1.4260   -3.1820   -2.0710 H   0  0  0  0  0  0  0  0  0  0  0  0
   -1.3710   -0.8050   -1.4310 H   0  0  0  0  0  0  0  0  0  0  0  0
   -2.8330    1.2040   -0.4960 H   0  0  0  0  0  0  0  0  0  0  0  0
   -4.0540    0.7060    0.6630 H   0  0  0  0  0  0  0  0  0  0  0  0
   -2.1850    1.8960    1.7220 H   0  0  0  0  0  0  0  0  0  0  0  0
   -0.4340   -0.5030    1.1730 H   0  0  0  0  0  0  0  0  0  0  0  0
   -4.6490   -1.4970    1.1800 H   0  0  0  0  0  0  0  0  0  0  0  0
   -4.6630   -3.8500    0.5110 H   0  0  0  0  0  0  0  0  0  0  0  0
  1  7  1  0  0  0  0
  1  2  1  0  0  0  0
  2  5  1  0  0  0  0
  2  9  1  1  0  0  0
  3  2  1  0  0  0  0
  3  4  1  0  0  0  0
  5  6  2  0  0  0  0
  8  1  1  0  0  0  0
 10  3  1  0  0  0  0
 11  3  1  0  0  0  0
 12  4  1  0  0  0  0
 13 21  1  0  0  0  0
 13 14  1  0  0  0  0
 14 15  2  0  0  0  0
 16 14  1  0  0  0  0
 16 17  1  0  0  0  0
 17 19  1  0  0  0  0
 17 25  1  1  0  0  0
 18 17  1  0  0  0  0
 18  5  1  0  0  0  0
 19 20  2  0  0  0  0
 22 13  1  0  0  0  0
 23 16  1  0  0  0  0
 24 16  1  0  0  0  0
 26 18  1  0  0  0  0
 27 28  1  0  0  0  0
 28 38  1  0  0  0  0
 29 30  1  0  0  0  0
 29 28  2  0  0  0  0
 30 31  2  0  0  0  0
 31 32  1  0  0  0  0
 31 37  1  0  0  0  0
 32 44  1  0  0  0  0
 32 33  1  0  0  0  0
 33 45  1  1  0  0  0
 33 35  1  0  0  0  0
 34 19  1  0  0  0  0
 34 33  1  0  0  0  0
 35 39  2  0  0  0  0
 35 36  1  0  0  0  0
 37 47  1  0  0  0  0
 38 37  2  0  0  0  0
 38 48  1  0  0  0  0
 40 27  1  0  0  0  0
 41 29  1  0  0  0  0
 42 30  1  0  0  0  0
 43 32  1  0  0  0  0
 46 34  1  0  0  0  0
M  END
$$$$
