CPA.pdb
 OpenBabel07022418293D

 37 37  0  0  1  0  0  0  0  0999 V2000
   -0.6190   -2.8600    3.6220 N   0  0  0  0  0  0  0  0  0  0  0  0
   -0.1460   -2.8770    2.2200 C   0  0  1  0  0  0  0  0  0  0  0  0
   -1.4180   -2.9180    1.4040 C   0  0  0  0  0  0  0  0  0  0  0  0
   -2.4730   -1.4800    1.7300 S   0  0  0  0  0  0  0  0  0  0  0  0
    0.6940   -1.6950    1.9790 C   0  0  0  0  0  0  0  0  0  0  0  0
    0.6590   -0.7480    2.8500 O   0  0  0  0  0  0  0  0  0  0  0  0
   -1.2400   -3.6860    3.7360 H   0  0  0  0  0  0  0  0  0  0  0  0
   -1.2130   -2.0010    3.6930 H   0  0  0  0  0  0  0  0  0  0  0  0
    0.4300   -3.7950    2.0880 H   0  0  0  0  0  0  0  0  0  0  0  0
   -1.2910   -3.0940    0.3400 H   0  0  0  0  0  0  0  0  0  0  0  0
   -2.0000   -3.8040    1.8000 H   0  0  0  0  0  0  0  0  0  0  0  0
   -3.3040   -1.1990    0.6180 H   0  0  0  0  0  0  0  0  0  0  0  0
    1.5500   -1.4870    0.8820 N   0  0  0  0  0  0  0  0  0  0  0  0
    1.7390   -2.4400   -0.1810 C   0  0  0  0  0  0  0  0  0  0  0  0
    1.9130   -1.5050   -1.3820 C   0  0  0  0  0  0  0  0  0  0  0  0
    3.0110   -0.6170   -0.7640 C   0  0  0  0  0  0  0  0  0  0  0  0
    2.3840   -0.3440    0.6180 C   0  0  1  0  0  0  0  0  0  0  0  0
    1.6490    0.9280    0.4570 C   0  0  0  0  0  0  0  0  0  0  0  0
    2.3350    1.9720    0.3390 O   0  0  0  0  0  0  0  0  0  0  0  0
    0.9510   -3.1640   -0.3320 H   0  0  0  0  0  0  0  0  0  0  0  0
    2.7470   -2.9300   -0.0110 H   0  0  0  0  0  0  0  0  0  0  0  0
    0.9720   -0.9540   -1.4830 H   0  0  0  0  0  0  0  0  0  0  0  0
    2.2600   -2.0250   -2.2720 H   0  0  0  0  0  0  0  0  0  0  0  0
    3.8890   -1.2670   -0.6420 H   0  0  0  0  0  0  0  0  0  0  0  0
    3.1680    0.2970   -1.3330 H   0  0  0  0  0  0  0  0  0  0  0  0
    3.2130   -0.2520    1.3390 H   0  0  0  0  0  0  0  0  0  0  0  0
   -1.2150    2.3880   -0.9810 C   0  0  0  0  0  0  0  0  0  0  0  0
   -0.3210    2.3990    0.2580 C   0  0  2  0  0  0  0  0  0  0  0  0
    0.2380    1.0560    0.4240 N   0  0  0  0  0  0  0  0  0  0  0  0
   -1.2190    2.6330    1.4170 C   0  0  0  0  0  0  0  0  0  0  0  0
   -1.8540    3.7290    1.5470 O   0  0  0  0  0  0  0  0  0  0  0  0
   -1.4210    1.6840    2.4200 O   0  0  0  0  0  0  0  0  0  0  0  0
   -1.5860    1.3580   -1.1870 H   0  0  0  0  0  0  0  0  0  0  0  0
   -2.1090    3.0200   -0.8450 H   0  0  0  0  0  0  0  0  0  0  0  0
   -0.6650    2.7870   -1.8460 H   0  0  0  0  0  0  0  0  0  0  0  0
    0.4560    3.1590    0.1780 H   0  0  0  0  0  0  0  0  0  0  0  0
   -0.3600    0.2200    0.5110 H   0  0  0  0  0  0  0  0  0  0  0  0
  1  8  1  0  0  0  0
  1  7  1  0  0  0  0
  2  9  1  6  0  0  0
  2  1  1  0  0  0  0
  3  4  1  0  0  0  0
  3 11  1  0  0  0  0
  3  2  1  0  0  0  0
  5  2  1  0  0  0  0
  5  6  2  0  0  0  0
 10  3  1  0  0  0  0
 12  4  1  0  0  0  0
 13  5  1  0  0  0  0
 14 21  1  0  0  0  0
 14 13  1  0  0  0  0
 15 16  1  0  0  0  0
 15 14  1  0  0  0  0
 16 24  1  0  0  0  0
 16 17  1  0  0  0  0
 17 13  1  0  0  0  0
 17 26  1  1  0  0  0
 18 17  1  0  0  0  0
 19 18  2  0  0  0  0
 20 14  1  0  0  0  0
 22 15  1  0  0  0  0
 23 15  1  0  0  0  0
 25 16  1  0  0  0  0
 27 34  1  0  0  0  0
 27 28  1  0  0  0  0
 28 36  1  6  0  0  0
 28 29  1  0  0  0  0
 28 30  1  0  0  0  0
 29 18  1  0  0  0  0
 29 37  1  0  0  0  0
 30 31  2  0  0  0  0
 30 32  1  0  0  0  0
 33 27  1  0  0  0  0
 35 27  1  0  0  0  0
M  END
$$$$
