CPD.pdb
 OpenBabel07022418293D

 40 40  0  0  1  0  0  0  0  0999 V2000
    1.2170   -4.5480   -0.0160 N   0  0  0  0  0  0  0  0  0  0  0  0
    0.3220   -3.3860   -0.1190 C   0  0  1  0  0  0  0  0  0  0  0  0
   -0.4290   -3.2080    1.1870 C   0  0  0  0  0  0  0  0  0  0  0  0
    0.7240   -2.9520    2.5650 S   0  0  0  0  0  0  0  0  0  0  0  0
    1.1170   -2.1940   -0.4610 C   0  0  0  0  0  0  0  0  0  0  0  0
    2.3710   -2.2470   -0.4290 O   0  0  0  0  0  0  0  0  0  0  0  0
    1.1210   -5.0890   -0.8900 H   0  0  0  0  0  0  0  0  0  0  0  0
    2.2050   -4.1950    0.0830 H   0  0  0  0  0  0  0  0  0  0  0  0
   -0.4290   -3.6000   -0.8990 H   0  0  0  0  0  0  0  0  0  0  0  0
   -1.1160   -2.3720    1.0770 H   0  0  0  0  0  0  0  0  0  0  0  0
   -1.0040   -4.1320    1.3710 H   0  0  0  0  0  0  0  0  0  0  0  0
    1.9500   -3.6340    2.3110 H   0  0  0  0  0  0  0  0  0  0  0  0
    0.4790   -0.9750   -0.8310 N   0  0  0  0  0  0  0  0  0  0  0  0
   -0.9250   -0.7340   -0.9280 C   0  0  0  0  0  0  0  0  0  0  0  0
   -1.1040    0.2990   -2.0170 C   0  0  0  0  0  0  0  0  0  0  0  0
    0.2660    0.8020   -2.2980 C   0  0  0  0  0  0  0  0  0  0  0  0
    1.1320    0.2600   -1.1900 C   0  0  1  0  0  0  0  0  0  0  0  0
    1.2310    1.1800   -0.0560 C   0  0  0  0  0  0  0  0  0  0  0  0
    1.6490    2.3660   -0.2330 O   0  0  0  0  0  0  0  0  0  0  0  0
   -1.2920   -0.2780    0.0040 H   0  0  0  0  0  0  0  0  0  0  0  0
   -1.5200   -1.6480   -1.1320 H   0  0  0  0  0  0  0  0  0  0  0  0
   -1.6030   -0.1290   -2.9210 H   0  0  0  0  0  0  0  0  0  0  0  0
   -1.7430    1.1370   -1.6860 H   0  0  0  0  0  0  0  0  0  0  0  0
    0.3010    1.9160   -2.3400 H   0  0  0  0  0  0  0  0  0  0  0  0
    0.6740    0.4310   -3.2570 H   0  0  0  0  0  0  0  0  0  0  0  0
    2.1500   -0.0020   -1.5850 H   0  0  0  0  0  0  0  0  0  0  0  0
    0.8720    0.7950    1.2480 N   0  0  0  0  0  0  0  0  0  0  0  0
    0.9630    1.7230    2.3720 C   0  0  1  0  0  0  0  0  0  0  0  0
   -0.3860    2.0140    2.9950 C   0  0  0  0  0  0  0  0  0  0  0  0
   -1.0730    0.8220    3.5270 C   0  0  0  0  0  0  0  0  0  0  0  0
   -1.2830   -0.2160    2.8280 O   0  0  0  0  0  0  0  0  0  0  0  0
    1.8280    1.1210    3.3990 C   0  0  0  0  0  0  0  0  0  0  0  0
    2.0490    1.7350    4.4610 O   0  0  0  0  0  0  0  0  0  0  0  0
   -1.5340    0.7660    4.8360 O   0  0  0  0  0  0  0  0  0  0  0  0
    2.3930   -0.1150    3.1920 O   0  0  0  0  0  0  0  0  0  0  0  0
    0.5420   -0.1680    1.4740 H   0  0  0  0  0  0  0  0  0  0  0  0
    1.3940    2.7000    2.0060 H   0  0  0  0  0  0  0  0  0  0  0  0
   -0.2570    2.7510    3.8030 H   0  0  0  0  0  0  0  0  0  0  0  0
   -1.0710    2.4720    2.2380 H   0  0  0  0  0  0  0  0  0  0  0  0
   -1.8510   -0.1230    5.1880 H   0  0  0  0  0  0  0  0  0  0  0  0
  1  8  1  0  0  0  0
  2  9  1  6  0  0  0
  2  1  1  0  0  0  0
  2  3  1  0  0  0  0
  3 11  1  0  0  0  0
  3  4  1  0  0  0  0
  5  6  2  0  0  0  0
  5  2  1  0  0  0  0
  7  1  1  0  0  0  0
 10  3  1  0  0  0  0
 12  4  1  0  0  0  0
 13  5  1  0  0  0  0
 14 13  1  0  0  0  0
 14 20  1  0  0  0  0
 15 23  1  0  0  0  0
 15 14  1  0  0  0  0
 16 15  1  0  0  0  0
 16 17  1  0  0  0  0
 17 26  1  6  0  0  0
 17 13  1  0  0  0  0
 17 18  1  0  0  0  0
 18 27  1  0  0  0  0
 19 18  2  0  0  0  0
 21 14  1  0  0  0  0
 22 15  1  0  0  0  0
 24 16  1  0  0  0  0
 25 16  1  0  0  0  0
 27 36  1  0  0  0  0
 27 28  1  0  0  0  0
 28 37  1  6  0  0  0
 28 29  1  0  0  0  0
 28 32  1  0  0  0  0
 29 30  1  0  0  0  0
 29 38  1  0  0  0  0
 30 34  1  0  0  0  0
 31 30  2  0  0  0  0
 32 33  1  0  0  0  0
 34 40  1  0  0  0  0
 35 32  2  0  0  0  0
 39 29  1  0  0  0  0
M  END
$$$$
