CPF.pdb
 OpenBabel07022418293D

 47 48  0  0  1  0  0  0  0  0999 V2000
    2.7780   -3.7580    0.0070 N   0  0  0  0  0  0  0  0  0  0  0  0
    2.3450   -2.4760   -0.6190 C   0  0  1  0  0  0  0  0  0  0  0  0
    0.9760   -2.8000   -1.1600 C   0  0  0  0  0  0  0  0  0  0  0  0
    0.1640   -1.4380   -2.0050 S   0  0  0  0  0  0  0  0  0  0  0  0
    2.3750   -1.4600    0.4370 C   0  0  0  0  0  0  0  0  0  0  0  0
    2.4430   -1.8870    1.6490 O   0  0  0  0  0  0  0  0  0  0  0  0
    2.2360   -3.8410    0.9060 H   0  0  0  0  0  0  0  0  0  0  0  0
    2.4620   -4.5630   -0.5820 H   0  0  0  0  0  0  0  0  0  0  0  0
    3.0760   -2.2900   -1.4120 H   0  0  0  0  0  0  0  0  0  0  0  0
    1.1170   -3.6190   -1.9290 H   0  0  0  0  0  0  0  0  0  0  0  0
    0.3490   -3.2490   -0.3640 H   0  0  0  0  0  0  0  0  0  0  0  0
   -1.0870   -1.8890   -2.5110 H   0  0  0  0  0  0  0  0  0  0  0  0
    2.3420   -0.0610    0.2870 N   0  0  0  0  0  0  0  0  0  0  0  0
    2.2560    0.6930   -0.9610 C   0  0  0  0  0  0  0  0  0  0  0  0
    3.1450    1.9240   -0.6350 C   0  0  0  0  0  0  0  0  0  0  0  0
    2.6330    2.2340    0.7460 C   0  0  0  0  0  0  0  0  0  0  0  0
    2.4230    0.9000    1.3650 C   0  0  1  0  0  0  0  0  0  0  0  0
    1.2650    0.8590    2.2870 C   0  0  0  0  0  0  0  0  0  0  0  0
    1.3150    1.5790    3.3220 O   0  0  0  0  0  0  0  0  0  0  0  0
    1.2620    1.1500   -1.1250 H   0  0  0  0  0  0  0  0  0  0  0  0
    2.6770    0.1490   -1.8120 H   0  0  0  0  0  0  0  0  0  0  0  0
    4.1640    1.5510   -0.6020 H   0  0  0  0  0  0  0  0  0  0  0  0
    2.9710    2.7350   -1.3540 H   0  0  0  0  0  0  0  0  0  0  0  0
    1.6900    2.8250    0.7000 H   0  0  0  0  0  0  0  0  0  0  0  0
    3.4320    2.8330    1.2430 H   0  0  0  0  0  0  0  0  0  0  0  0
    3.3370    0.6320    1.9370 H   0  0  0  0  0  0  0  0  0  0  0  0
    0.1150    0.0800    2.0990 N   0  0  0  0  0  0  0  0  0  0  0  0
   -0.9760    0.1090    3.0800 C   0  0  1  0  0  0  0  0  0  0  0  0
   -2.2380    0.6990    2.5350 C   0  0  0  0  0  0  0  0  0  0  0  0
   -2.8020    0.0000    1.3710 C   0  0  0  0  0  0  0  0  0  0  0  0
   -2.4140    0.3720    0.1090 C   0  0  0  0  0  0  0  0  0  0  0  0
   -2.9510   -0.2760   -0.9650 C   0  0  0  0  0  0  0  0  0  0  0  0
   -3.8710   -1.2900   -0.7930 C   0  0  0  0  0  0  0  0  0  0  0  0
   -4.2750   -1.6790    0.4600 C   0  0  0  0  0  0  0  0  0  0  0  0
   -3.7170   -1.0080    1.5470 C   0  0  0  0  0  0  0  0  0  0  0  0
   -1.2350   -1.2460    3.6030 C   0  0  0  0  0  0  0  0  0  0  0  0
   -0.6170   -2.2790    3.2550 O   0  0  0  0  0  0  0  0  0  0  0  0
   -2.2380   -1.3880    4.5500 O   0  0  0  0  0  0  0  0  0  0  0  0
    0.0360   -0.5250    1.2590 H   0  0  0  0  0  0  0  0  0  0  0  0
   -0.6490    0.7300    3.9730 H   0  0  0  0  0  0  0  0  0  0  0  0
   -3.0190    0.6660    3.3380 H   0  0  0  0  0  0  0  0  0  0  0  0
   -2.0760    1.7710    2.2120 H   0  0  0  0  0  0  0  0  0  0  0  0
   -1.6820    1.1780   -0.0580 H   0  0  0  0  0  0  0  0  0  0  0  0
   -2.6360    0.0260   -1.9630 H   0  0  0  0  0  0  0  0  0  0  0  0
   -4.2940   -1.8010   -1.6390 H   0  0  0  0  0  0  0  0  0  0  0  0
   -4.9910   -2.4700    0.5550 H   0  0  0  0  0  0  0  0  0  0  0  0
   -4.0640   -1.3430    2.5160 H   0  0  0  0  0  0  0  0  0  0  0  0
  1  7  1  0  0  0  0
  2  9  1  6  0  0  0
  2  1  1  0  0  0  0
  2  5  1  0  0  0  0
  3  2  1  0  0  0  0
  3 11  1  0  0  0  0
  4  3  1  0  0  0  0
  5  6  2  0  0  0  0
  8  1  1  0  0  0  0
 10  3  1  0  0  0  0
 12  4  1  0  0  0  0
 13  5  1  0  0  0  0
 13 17  1  0  0  0  0
 14 15  1  0  0  0  0
 14 13  1  0  0  0  0
 15 22  1  0  0  0  0
 15 16  1  0  0  0  0
 16 25  1  0  0  0  0
 16 17  1  0  0  0  0
 17 26  1  1  0  0  0
 17 18  1  0  0  0  0
 18 19  2  0  0  0  0
 20 14  1  0  0  0  0
 21 14  1  0  0  0  0
 23 15  1  0  0  0  0
 24 16  1  0  0  0  0
 27 18  1  0  0  0  0
 27 28  1  0  0  0  0
 28 36  1  0  0  0  0
 28 40  1  1  0  0  0
 29 28  1  0  0  0  0
 29 41  1  0  0  0  0
 30 35  1  0  0  0  0
 30 29  1  0  0  0  0
 31 30  2  0  0  0  0
 32 33  2  0  0  0  0
 32 31  1  0  0  0  0
 33 34  1  0  0  0  0
 34 46  1  0  0  0  0
 34 35  2  0  0  0  0
 35 47  1  0  0  0  0
 36 38  1  0  0  0  0
 37 36  2  0  0  0  0
 39 27  1  0  0  0  0
 42 29  1  0  0  0  0
 43 31  1  0  0  0  0
 44 32  1  0  0  0  0
 45 33  1  0  0  0  0
M  END
$$$$
