CPG.pdb
 OpenBabel07022418293D

 34 34  0  0  1  0  0  0  0  0999 V2000
   -1.3030   -3.2330    1.8400 N   0  0  0  0  0  0  0  0  0  0  0  0
   -0.0880   -2.6430    2.3270 C   0  0  1  0  0  0  0  0  0  0  0  0
    0.9790   -3.7340    2.4710 C   0  0  0  0  0  0  0  0  0  0  0  0
    2.5280   -3.0410    3.0810 S   0  0  0  0  0  0  0  0  0  0  0  0
    0.4490   -1.5800    1.4600 C   0  0  0  0  0  0  0  0  0  0  0  0
    1.5210   -1.0280    1.9040 O   0  0  0  0  0  0  0  0  0  0  0  0
   -1.4080   -4.2130    2.1280 H   0  0  0  0  0  0  0  0  0  0  0  0
   -2.1370   -2.7160    2.1940 H   0  0  0  0  0  0  0  0  0  0  0  0
   -0.2500   -2.2010    3.3420 H   0  0  0  0  0  0  0  0  0  0  0  0
    0.5670   -4.5270    3.1380 H   0  0  0  0  0  0  0  0  0  0  0  0
    1.0880   -4.2030    1.4740 H   0  0  0  0  0  0  0  0  0  0  0  0
    3.5750   -3.3180    2.1560 H   0  0  0  0  0  0  0  0  0  0  0  0
   -0.0950   -1.1480    0.2470 N   0  0  0  0  0  0  0  0  0  0  0  0
   -1.2440   -1.5280   -0.5360 C   0  0  0  0  0  0  0  0  0  0  0  0
   -0.5850   -1.6190   -1.9260 C   0  0  0  0  0  0  0  0  0  0  0  0
    0.0650   -0.2520   -1.9670 C   0  0  0  0  0  0  0  0  0  0  0  0
    0.5040   -0.0570   -0.5540 C   0  0  1  0  0  0  0  0  0  0  0  0
    0.0260    1.2040    0.0460 C   0  0  0  0  0  0  0  0  0  0  0  0
   -0.7390    1.2090    1.0410 O   0  0  0  0  0  0  0  0  0  0  0  0
   -1.9100   -0.6390   -0.6150 H   0  0  0  0  0  0  0  0  0  0  0  0
   -1.7470   -2.4410   -0.2690 H   0  0  0  0  0  0  0  0  0  0  0  0
   -1.3210   -1.7820   -2.7140 H   0  0  0  0  0  0  0  0  0  0  0  0
    0.1920   -2.4130   -1.9180 H   0  0  0  0  0  0  0  0  0  0  0  0
    0.8880   -0.1920   -2.7020 H   0  0  0  0  0  0  0  0  0  0  0  0
   -0.7530    0.4630   -2.2580 H   0  0  0  0  0  0  0  0  0  0  0  0
    1.6110   -0.1490   -0.5310 H   0  0  0  0  0  0  0  0  0  0  0  0
    0.3970    2.4900   -0.4610 N   0  0  0  0  0  0  0  0  0  0  0  0
   -0.0750    3.7230    0.1310 C   0  0  0  0  0  0  0  0  0  0  0  0
    0.3990    3.7360    1.5580 C   0  0  0  0  0  0  0  0  0  0  0  0
    0.1130    4.7210    2.3040 O   0  0  0  0  0  0  0  0  0  0  0  0
    1.1400    2.7160    2.1080 O   0  0  0  0  0  0  0  0  0  0  0  0
    1.0220    2.5330   -1.2740 H   0  0  0  0  0  0  0  0  0  0  0  0
    0.3030    4.5740   -0.4310 H   0  0  0  0  0  0  0  0  0  0  0  0
   -1.1870    3.7580    0.1350 H   0  0  0  0  0  0  0  0  0  0  0  0
  1  7  1  0  0  0  0
  1  8  1  0  0  0  0
  1  2  1  0  0  0  0
  2  3  1  0  0  0  0
  2  9  1  1  0  0  0
  3  4  1  0  0  0  0
  3 10  1  0  0  0  0
  5  6  2  0  0  0  0
  5  2  1  0  0  0  0
 11  3  1  0  0  0  0
 12  4  1  0  0  0  0
 13  5  1  0  0  0  0
 14 21  1  0  0  0  0
 14 13  1  0  0  0  0
 15 23  1  0  0  0  0
 15 14  1  0  0  0  0
 16 15  1  0  0  0  0
 16 17  1  0  0  0  0
 17 26  1  1  0  0  0
 17 18  1  0  0  0  0
 17 13  1  0  0  0  0
 18 19  2  0  0  0  0
 20 14  1  0  0  0  0
 22 15  1  0  0  0  0
 24 16  1  0  0  0  0
 25 16  1  0  0  0  0
 27 18  1  0  0  0  0
 27 28  1  0  0  0  0
 28 34  1  0  0  0  0
 28 29  1  0  0  0  0
 29 31  2  0  0  0  0
 29 30  1  0  0  0  0
 32 27  1  0  0  0  0
 33 28  1  0  0  0  0
M  END
$$$$
