CPH.pdb
 OpenBabel07022418293D

 44 45  0  0  1  0  0  0  0  0999 V2000
   -1.0770   -2.6900   -1.1030 N   0  0  0  0  0  0  0  0  0  0  0  0
   -0.2080   -3.1340   -0.0700 C   0  0  1  0  0  0  0  0  0  0  0  0
    0.1890   -4.5750   -0.3570 C   0  0  0  0  0  0  0  0  0  0  0  0
    1.0280   -4.5780   -1.9660 S   0  0  0  0  0  0  0  0  0  0  0  0
    0.9870   -2.2840    0.1260 C   0  0  0  0  0  0  0  0  0  0  0  0
    1.7850   -2.6610    1.0470 O   0  0  0  0  0  0  0  0  0  0  0  0
   -2.0050   -2.3510   -0.7770 H   0  0  0  0  0  0  0  0  0  0  0  0
   -1.1050   -3.2600   -1.9530 H   0  0  0  0  0  0  0  0  0  0  0  0
   -0.7540   -3.1520    0.9010 H   0  0  0  0  0  0  0  0  0  0  0  0
    0.8360   -4.9450    0.4430 H   0  0  0  0  0  0  0  0  0  0  0  0
   -0.7200   -5.1860   -0.4480 H   0  0  0  0  0  0  0  0  0  0  0  0
    2.0070   -3.5510   -1.9140 H   0  0  0  0  0  0  0  0  0  0  0  0
    1.2630   -1.1270   -0.6320 N   0  0  0  0  0  0  0  0  0  0  0  0
    0.4260   -0.6160   -1.6930 C   0  0  0  0  0  0  0  0  0  0  0  0
    1.0610    0.6590   -2.1730 C   0  0  0  0  0  0  0  0  0  0  0  0
    2.4880    0.5570   -1.7480 C   0  0  0  0  0  0  0  0  0  0  0  0
    2.4090   -0.2730   -0.4800 C   0  0  1  0  0  0  0  0  0  0  0  0
    2.3350    0.5930    0.7180 C   0  0  0  0  0  0  0  0  0  0  0  0
    3.2810    1.3740    0.9640 O   0  0  0  0  0  0  0  0  0  0  0  0
   -0.5660   -0.3720   -1.2580 H   0  0  0  0  0  0  0  0  0  0  0  0
    0.3250   -1.3430   -2.5250 H   0  0  0  0  0  0  0  0  0  0  0  0
    0.9770    0.7520   -3.2790 H   0  0  0  0  0  0  0  0  0  0  0  0
    0.5820    1.5590   -1.7330 H   0  0  0  0  0  0  0  0  0  0  0  0
    2.9420    1.5410   -1.5770 H   0  0  0  0  0  0  0  0  0  0  0  0
    3.1200    0.0130   -2.4970 H   0  0  0  0  0  0  0  0  0  0  0  0
    3.3660   -0.8370   -0.4170 H   0  0  0  0  0  0  0  0  0  0  0  0
    1.1590    0.4780    1.5370 N   0  0  0  0  0  0  0  0  0  0  0  0
    1.0440    1.2930    2.7040 C   0  0  1  0  0  0  0  0  0  0  0  0
   -0.1340    2.1850    2.7800 C   0  0  0  0  0  0  0  0  0  0  0  0
   -1.4510    1.5530    2.7910 C   0  0  0  0  0  0  0  0  0  0  0  0
   -1.8710    0.2530    2.8040 C   0  0  0  0  0  0  0  0  0  0  0  0
   -3.2300    0.1770    2.8410 N   0  0  0  0  0  0  0  0  0  0  0  0
   -3.6490    1.4510    2.8520 C   0  0  0  0  0  0  0  0  0  0  0  0
   -2.6060    2.2830    2.8220 N   0  0  0  0  0  0  0  0  0  0  0  0
    1.1510    0.4150    3.9310 C   0  0  0  0  0  0  0  0  0  0  0  0
    1.3150   -0.8250    3.8130 O   0  0  0  0  0  0  0  0  0  0  0  0
    1.0750    0.9330    5.2130 O   0  0  0  0  0  0  0  0  0  0  0  0
    0.4130   -0.1860    1.2740 H   0  0  0  0  0  0  0  0  0  0  0  0
    1.9590    1.9580    2.7490 H   0  0  0  0  0  0  0  0  0  0  0  0
   -0.0080    2.8320    3.6920 H   0  0  0  0  0  0  0  0  0  0  0  0
   -0.1140    2.8590    1.8800 H   0  0  0  0  0  0  0  0  0  0  0  0
   -1.2400   -0.6010    2.8000 H   0  0  0  0  0  0  0  0  0  0  0  0
   -3.8140   -0.6940    2.8580 H   0  0  0  0  0  0  0  0  0  0  0  0
   -4.7040    1.7420    2.8800 H   0  0  0  0  0  0  0  0  0  0  0  0
  1  7  1  0  0  0  0
  1  2  1  0  0  0  0
  2  5  1  0  0  0  0
  2  9  1  1  0  0  0
  3  2  1  0  0  0  0
  3 10  1  0  0  0  0
  4 12  1  0  0  0  0
  4  3  1  0  0  0  0
  5  6  2  0  0  0  0
  8  1  1  0  0  0  0
 11  3  1  0  0  0  0
 13 17  1  0  0  0  0
 13  5  1  0  0  0  0
 14 20  1  0  0  0  0
 14 13  1  0  0  0  0
 15 16  1  0  0  0  0
 15 23  1  0  0  0  0
 15 14  1  0  0  0  0
 16 24  1  0  0  0  0
 16 17  1  0  0  0  0
 17 26  1  1  0  0  0
 17 18  1  0  0  0  0
 18 19  2  0  0  0  0
 18 27  1  0  0  0  0
 21 14  1  0  0  0  0
 22 15  1  0  0  0  0
 25 16  1  0  0  0  0
 27 28  1  0  0  0  0
 28 39  1  1  0  0  0
 28 29  1  0  0  0  0
 28 35  1  0  0  0  0
 29 30  1  0  0  0  0
 29 40  1  0  0  0  0
 30 31  2  0  0  0  0
 30 34  1  0  0  0  0
 31 32  1  0  0  0  0
 32 33  1  0  0  0  0
 32 43  1  0  0  0  0
 33 44  1  0  0  0  0
 34 33  2  0  0  0  0
 35 37  1  0  0  0  0
 36 35  2  0  0  0  0
 38 27  1  0  0  0  0
 41 29  1  0  0  0  0
 42 31  1  0  0  0  0
M  END
$$$$
