CPI.pdb
 OpenBabel07022418293D

 46 46  0  0  1  0  0  0  0  0999 V2000
    2.0880   -5.0900   -1.0770 N   0  0  0  0  0  0  0  0  0  0  0  0
    0.7960   -4.3820   -1.0600 C   0  0  1  0  0  0  0  0  0  0  0  0
   -0.0500   -4.9560    0.0890 C   0  0  0  0  0  0  0  0  0  0  0  0
    0.9020   -4.6580    1.6110 S   0  0  0  0  0  0  0  0  0  0  0  0
    1.0470   -2.9580   -0.8290 C   0  0  0  0  0  0  0  0  0  0  0  0
    2.2230   -2.5690   -0.5940 O   0  0  0  0  0  0  0  0  0  0  0  0
    2.4500   -5.0030   -2.0400 H   0  0  0  0  0  0  0  0  0  0  0  0
    2.7720   -4.6350   -0.4320 H   0  0  0  0  0  0  0  0  0  0  0  0
    0.3110   -4.6210   -2.0130 H   0  0  0  0  0  0  0  0  0  0  0  0
   -0.2310   -6.0290   -0.0640 H   0  0  0  0  0  0  0  0  0  0  0  0
   -0.9710   -4.3830    0.1570 H   0  0  0  0  0  0  0  0  0  0  0  0
    1.7570   -5.7340    1.8330 H   0  0  0  0  0  0  0  0  0  0  0  0
    0.0030   -1.9690   -0.8580 N   0  0  0  0  0  0  0  0  0  0  0  0
   -1.4070   -2.1550   -1.1120 C   0  0  0  0  0  0  0  0  0  0  0  0
   -1.7990   -0.8920   -1.8430 C   0  0  0  0  0  0  0  0  0  0  0  0
   -0.6360    0.0630   -1.7350 C   0  0  0  0  0  0  0  0  0  0  0  0
    0.1830   -0.5460   -0.6250 C   0  0  1  0  0  0  0  0  0  0  0  0
   -0.3720   -0.2220    0.7120 C   0  0  0  0  0  0  0  0  0  0  0  0
   -0.8920   -1.0550    1.4950 O   0  0  0  0  0  0  0  0  0  0  0  0
   -1.6080   -3.0630   -1.7210 H   0  0  0  0  0  0  0  0  0  0  0  0
   -1.9910   -2.2460   -0.1770 H   0  0  0  0  0  0  0  0  0  0  0  0
   -1.9520   -1.1210   -2.9060 H   0  0  0  0  0  0  0  0  0  0  0  0
   -2.6900   -0.4490   -1.3500 H   0  0  0  0  0  0  0  0  0  0  0  0
   -0.0010    0.0510   -2.6460 H   0  0  0  0  0  0  0  0  0  0  0  0
   -0.9450    1.1000   -1.5140 H   0  0  0  0  0  0  0  0  0  0  0  0
    1.2590   -0.2680   -0.7020 H   0  0  0  0  0  0  0  0  0  0  0  0
    2.0120    2.8640    1.8980 C   0  0  0  0  0  0  0  0  0  0  0  0
    1.0940    3.1070    3.0410 C   0  0  0  0  0  0  0  0  0  0  0  0
    0.2120    1.9780    3.4350 C   0  0  2  0  0  0  0  0  0  0  0  0
    0.9950    0.7380    3.8350 C   0  0  0  0  0  0  0  0  0  0  0  0
   -0.8260    1.5670    2.4350 C   0  0  2  0  0  0  0  0  0  0  0  0
   -0.3260    1.1350    1.1730 N   0  0  0  0  0  0  0  0  0  0  0  0
   -1.9280    2.5570    2.3190 C   0  0  0  0  0  0  0  0  0  0  0  0
   -2.3700    2.9670    1.2130 O   0  0  0  0  0  0  0  0  0  0  0  0
   -2.5310    3.0830    3.4540 O   0  0  0  0  0  0  0  0  0  0  0  0
    1.7270    3.4870    1.0090 H   0  0  0  0  0  0  0  0  0  0  0  0
    2.1910    1.8080    1.6420 H   0  0  0  0  0  0  0  0  0  0  0  0
    3.0440    3.2570    2.1570 H   0  0  0  0  0  0  0  0  0  0  0  0
    1.7160    3.3490    3.9540 H   0  0  0  0  0  0  0  0  0  0  0  0
    0.5470    4.0510    2.8420 H   0  0  0  0  0  0  0  0  0  0  0  0
   -0.3750    2.2330    4.3790 H   0  0  0  0  0  0  0  0  0  0  0  0
    1.4470    0.2280    2.9610 H   0  0  0  0  0  0  0  0  0  0  0  0
    0.2620    0.0320    4.2780 H   0  0  0  0  0  0  0  0  0  0  0  0
    1.7310    0.9770    4.6210 H   0  0  0  0  0  0  0  0  0  0  0  0
   -1.3070    0.6470    2.8950 H   0  0  0  0  0  0  0  0  0  0  0  0
    0.0960    1.8340    0.5260 H   0  0  0  0  0  0  0  0  0  0  0  0
  1  2  1  0  0  0  0
  1  8  1  0  0  0  0
  2  9  1  6  0  0  0
  2  5  1  0  0  0  0
  2  3  1  0  0  0  0
  3 11  1  0  0  0  0
  3  4  1  0  0  0  0
  4 12  1  0  0  0  0
  5  6  2  0  0  0  0
  7  1  1  0  0  0  0
 10  3  1  0  0  0  0
 13  5  1  0  0  0  0
 13 17  1  0  0  0  0
 14 13  1  0  0  0  0
 14 21  1  0  0  0  0
 15 16  1  0  0  0  0
 15 23  1  0  0  0  0
 15 14  1  0  0  0  0
 16 25  1  0  0  0  0
 16 17  1  0  0  0  0
 17 26  1  6  0  0  0
 17 18  1  0  0  0  0
 18 32  1  0  0  0  0
 18 19  2  0  0  0  0
 20 14  1  0  0  0  0
 22 15  1  0  0  0  0
 24 16  1  0  0  0  0
 27 38  1  0  0  0  0
 27 28  1  0  0  0  0
 28 29  1  0  0  0  0
 28 39  1  0  0  0  0
 29 30  1  0  0  0  0
 29 41  1  1  0  0  0
 30 43  1  0  0  0  0
 30 44  1  0  0  0  0
 31 45  1  1  0  0  0
 31 29  1  0  0  0  0
 32 31  1  0  0  0  0
 33 31  1  0  0  0  0
 33 35  1  0  0  0  0
 34 33  2  0  0  0  0
 36 27  1  0  0  0  0
 37 27  1  0  0  0  0
 40 28  1  0  0  0  0
 42 30  1  0  0  0  0
 46 32  1  0  0  0  0
M  END
$$$$
