CPK.pdb
 OpenBabel07022418293D

 48 48  0  0  1  0  0  0  0  0999 V2000
    2.8260   -4.3530    0.5080 N   0  0  0  0  0  0  0  0  0  0  0  0
    1.9620   -3.4660   -0.2890 C   0  0  1  0  0  0  0  0  0  0  0  0
    0.5810   -3.6150    0.3150 C   0  0  0  0  0  0  0  0  0  0  0  0
    0.5200   -3.1400    2.0470 S   0  0  0  0  0  0  0  0  0  0  0  0
    2.4990   -2.0880   -0.1670 C   0  0  0  0  0  0  0  0  0  0  0  0
    3.5130   -1.8820    0.5860 O   0  0  0  0  0  0  0  0  0  0  0  0
    2.4520   -5.3200    0.4300 H   0  0  0  0  0  0  0  0  0  0  0  0
    2.6750   -4.0430    1.5110 H   0  0  0  0  0  0  0  0  0  0  0  0
    1.9140   -3.7670   -1.3350 H   0  0  0  0  0  0  0  0  0  0  0  0
   -0.2220   -3.1480   -0.2520 H   0  0  0  0  0  0  0  0  0  0  0  0
    0.3690   -4.7210    0.2790 H   0  0  0  0  0  0  0  0  0  0  0  0
    1.7070   -2.4660    2.4360 H   0  0  0  0  0  0  0  0  0  0  0  0
    1.9560   -0.9780   -0.8370 N   0  0  0  0  0  0  0  0  0  0  0  0
    0.7980   -1.0480   -1.7310 C   0  0  0  0  0  0  0  0  0  0  0  0
    0.8820    0.1580   -2.6160 C   0  0  0  0  0  0  0  0  0  0  0  0
    2.1050    0.8750   -2.1670 C   0  0  0  0  0  0  0  0  0  0  0  0
    2.4250    0.3800   -0.7750 C   0  0  1  0  0  0  0  0  0  0  0  0
    1.7860    1.1860    0.2690 C   0  0  0  0  0  0  0  0  0  0  0  0
    2.1730    2.4020    0.3480 O   0  0  0  0  0  0  0  0  0  0  0  0
   -0.1510   -0.9460   -1.1450 H   0  0  0  0  0  0  0  0  0  0  0  0
    0.7480   -1.9990   -2.2760 H   0  0  0  0  0  0  0  0  0  0  0  0
   -0.0060    0.8410   -2.5090 H   0  0  0  0  0  0  0  0  0  0  0  0
    0.9310   -0.1600   -3.6860 H   0  0  0  0  0  0  0  0  0  0  0  0
    1.9470    1.9770   -2.1460 H   0  0  0  0  0  0  0  0  0  0  0  0
    2.9400    0.5900   -2.8400 H   0  0  0  0  0  0  0  0  0  0  0  0
    3.5290    0.3990   -0.6450 H   0  0  0  0  0  0  0  0  0  0  0  0
    0.7970    0.7200    1.1700 N   0  0  0  0  0  0  0  0  0  0  0  0
    0.2210    1.5910    2.1700 C   0  0  1  0  0  0  0  0  0  0  0  0
   -1.2680    1.7440    1.9330 C   0  0  0  0  0  0  0  0  0  0  0  0
   -1.8950    0.3960    2.0200 C   0  0  0  0  0  0  0  0  0  0  0  0
   -3.3950    0.4240    1.8030 C   0  0  0  0  0  0  0  0  0  0  0  0
   -3.8540   -1.0320    1.9280 C   0  0  0  0  0  0  0  0  0  0  0  0
   -5.2650   -1.1770    1.7470 N   0  0  0  0  0  0  0  0  0  0  0  0
    0.4600    1.0640    3.5330 C   0  0  0  0  0  0  0  0  0  0  0  0
    0.0280    1.6940    4.5300 O   0  0  0  0  0  0  0  0  0  0  0  0
    1.1500   -0.1140    3.7740 O   0  0  0  0  0  0  0  0  0  0  0  0
    0.5200   -0.2880    1.0610 H   0  0  0  0  0  0  0  0  0  0  0  0
    0.7330    2.5910    2.0560 H   0  0  0  0  0  0  0  0  0  0  0  0
   -1.7190    2.4960    2.5910 H   0  0  0  0  0  0  0  0  0  0  0  0
   -1.3620    2.0780    0.8580 H   0  0  0  0  0  0  0  0  0  0  0  0
   -1.6830   -0.1380    2.9610 H   0  0  0  0  0  0  0  0  0  0  0  0
   -1.4990   -0.2300    1.1930 H   0  0  0  0  0  0  0  0  0  0  0  0
   -3.9280    1.0640    2.5090 H   0  0  0  0  0  0  0  0  0  0  0  0
   -3.5810    0.7000    0.7360 H   0  0  0  0  0  0  0  0  0  0  0  0
   -3.4940   -1.3850    2.9140 H   0  0  0  0  0  0  0  0  0  0  0  0
   -3.3090   -1.6300    1.1680 H   0  0  0  0  0  0  0  0  0  0  0  0
   -5.6960   -0.2120    1.7810 H   0  0  0  0  0  0  0  0  0  0  0  0
   -5.4520   -1.5920    0.8260 H   0  0  0  0  0  0  0  0  0  0  0  0
  1  8  1  0  0  0  0
  2  9  1  6  0  0  0
  2  5  1  0  0  0  0
  2  3  1  0  0  0  0
  2  1  1  0  0  0  0
  3  4  1  0  0  0  0
  4 12  1  0  0  0  0
  5  6  2  0  0  0  0
  7  1  1  0  0  0  0
 10  3  1  0  0  0  0
 11  3  1  0  0  0  0
 13 17  1  0  0  0  0
 13  5  1  0  0  0  0
 14 20  1  0  0  0  0
 14 13  1  0  0  0  0
 15 22  1  0  0  0  0
 15 16  1  0  0  0  0
 15 14  1  0  0  0  0
 16 24  1  0  0  0  0
 16 17  1  0  0  0  0
 17 26  1  1  0  0  0
 17 18  1  0  0  0  0
 18 19  2  0  0  0  0
 18 27  1  0  0  0  0
 21 14  1  0  0  0  0
 23 15  1  0  0  0  0
 25 16  1  0  0  0  0
 27 28  1  0  0  0  0
 28 38  1  6  0  0  0
 28 34  1  0  0  0  0
 29 30  1  0  0  0  0
 29 28  1  0  0  0  0
 29 39  1  0  0  0  0
 30 41  1  0  0  0  0
 31 32  1  0  0  0  0
 31 30  1  0  0  0  0
 31 43  1  0  0  0  0
 32 45  1  0  0  0  0
 33 47  1  0  0  0  0
 33 32  1  0  0  0  0
 34 36  2  0  0  0  0
 34 35  1  0  0  0  0
 37 27  1  0  0  0  0
 40 29  1  0  0  0  0
 42 30  1  0  0  0  0
 44 31  1  0  0  0  0
 46 32  1  0  0  0  0
 48 33  1  0  0  0  0
M  END
$$$$
