CPL.pdb
 OpenBabel07022418293D

 46 46  0  0  1  0  0  0  0  0999 V2000
    0.5540   -4.5290    0.7890 N   0  0  0  0  0  0  0  0  0  0  0  0
    0.6550   -3.2460    0.0940 C   0  0  1  0  0  0  0  0  0  0  0  0
    1.3940   -3.5920   -1.2100 C   0  0  0  0  0  0  0  0  0  0  0  0
    3.0140   -4.2860   -0.8380 S   0  0  0  0  0  0  0  0  0  0  0  0
   -0.6840   -2.7110   -0.1680 C   0  0  0  0  0  0  0  0  0  0  0  0
   -1.6750   -3.4980    0.0270 O   0  0  0  0  0  0  0  0  0  0  0  0
   -0.4030   -4.8990    0.5920 H   0  0  0  0  0  0  0  0  0  0  0  0
    0.7110   -4.4100    1.8000 H   0  0  0  0  0  0  0  0  0  0  0  0
    1.3250   -2.6130    0.6780 H   0  0  0  0  0  0  0  0  0  0  0  0
    0.8040   -4.4190   -1.7030 H   0  0  0  0  0  0  0  0  0  0  0  0
    1.4960   -2.7310   -1.8610 H   0  0  0  0  0  0  0  0  0  0  0  0
    3.9270   -4.1210   -1.8790 H   0  0  0  0  0  0  0  0  0  0  0  0
   -0.9900   -1.4070   -0.6150 N   0  0  0  0  0  0  0  0  0  0  0  0
   -2.3530   -0.9150   -0.8890 C   0  0  0  0  0  0  0  0  0  0  0  0
   -2.1400   -0.3240   -2.2890 C   0  0  0  0  0  0  0  0  0  0  0  0
   -0.7700    0.3300   -2.1200 C   0  0  0  0  0  0  0  0  0  0  0  0
   -0.1440   -0.2670   -0.8950 C   0  0  1  0  0  0  0  0  0  0  0  0
   -0.1030    0.6740    0.2680 C   0  0  0  0  0  0  0  0  0  0  0  0
    0.4430    1.7770    0.1810 O   0  0  0  0  0  0  0  0  0  0  0  0
   -2.6230   -0.0740   -0.2410 H   0  0  0  0  0  0  0  0  0  0  0  0
   -3.0880   -1.7240   -0.8880 H   0  0  0  0  0  0  0  0  0  0  0  0
   -2.1190   -1.1600   -2.9940 H   0  0  0  0  0  0  0  0  0  0  0  0
   -2.9230    0.3970   -2.5430 H   0  0  0  0  0  0  0  0  0  0  0  0
   -0.8580    1.4310   -2.0750 H   0  0  0  0  0  0  0  0  0  0  0  0
   -0.1850    0.0430   -3.0100 H   0  0  0  0  0  0  0  0  0  0  0  0
    0.8960   -0.5750   -1.1550 H   0  0  0  0  0  0  0  0  0  0  0  0
    2.8530    2.0160    3.6410 C   0  0  0  0  0  0  0  0  0  0  0  0
    1.6530    1.1090    3.3090 C   0  0  0  0  0  0  0  0  0  0  0  0
    2.0430    0.0230    2.3870 C   0  0  0  0  0  0  0  0  0  0  0  0
    0.4420    1.9000    3.0200 C   0  0  0  0  0  0  0  0  0  0  0  0
   -0.7430    1.0690    2.6830 C   0  0  2  0  0  0  0  0  0  0  0  0
   -0.7080    0.2820    1.5000 N   0  0  0  0  0  0  0  0  0  0  0  0
   -2.0510    1.7170    2.9130 C   0  0  0  0  0  0  0  0  0  0  0  0
   -2.2830    2.4470    3.8960 O   0  0  0  0  0  0  0  0  0  0  0  0
   -3.0610    1.4990    1.9930 O   0  0  0  0  0  0  0  0  0  0  0  0
    3.2960    2.3650    2.7070 H   0  0  0  0  0  0  0  0  0  0  0  0
    3.5750    1.4420    4.2630 H   0  0  0  0  0  0  0  0  0  0  0  0
    2.4420    2.8240    4.2820 H   0  0  0  0  0  0  0  0  0  0  0  0
    1.4750    0.6070    4.3370 H   0  0  0  0  0  0  0  0  0  0  0  0
    2.4270    0.4190    1.4440 H   0  0  0  0  0  0  0  0  0  0  0  0
    2.9110   -0.5260    2.8900 H   0  0  0  0  0  0  0  0  0  0  0  0
    1.2500   -0.7180    2.2940 H   0  0  0  0  0  0  0  0  0  0  0  0
    0.1610    2.4410    3.9820 H   0  0  0  0  0  0  0  0  0  0  0  0
    0.6140    2.7380    2.3040 H   0  0  0  0  0  0  0  0  0  0  0  0
   -0.6720    0.2660    3.5350 H   0  0  0  0  0  0  0  0  0  0  0  0
   -1.1490   -0.6650    1.5010 H   0  0  0  0  0  0  0  0  0  0  0  0
  1  8  1  0  0  0  0
  2  9  1  1  0  0  0
  2  1  1  0  0  0  0
  3  4  1  0  0  0  0
  3  2  1  0  0  0  0
  5  6  2  0  0  0  0
  5  2  1  0  0  0  0
  7  1  1  0  0  0  0
 10  3  1  0  0  0  0
 11  3  1  0  0  0  0
 12  4  1  0  0  0  0
 13  5  1  0  0  0  0
 14 21  1  0  0  0  0
 14 13  1  0  0  0  0
 14 20  1  0  0  0  0
 15 16  1  0  0  0  0
 15 14  1  0  0  0  0
 16 24  1  0  0  0  0
 16 17  1  0  0  0  0
 17 26  1  6  0  0  0
 17 13  1  0  0  0  0
 17 18  1  0  0  0  0
 18 32  1  0  0  0  0
 19 18  2  0  0  0  0
 22 15  1  0  0  0  0
 23 15  1  0  0  0  0
 25 16  1  0  0  0  0
 27 37  1  0  0  0  0
 27 38  1  0  0  0  0
 28 27  1  0  0  0  0
 28 39  1  0  0  0  0
 29 41  1  0  0  0  0
 29 28  1  0  0  0  0
 30 28  1  0  0  0  0
 30 43  1  0  0  0  0
 31 33  1  0  0  0  0
 31 30  1  0  0  0  0
 31 45  1  1  0  0  0
 32 46  1  0  0  0  0
 32 31  1  0  0  0  0
 33 34  1  0  0  0  0
 35 33  2  0  0  0  0
 36 27  1  0  0  0  0
 40 29  1  0  0  0  0
 42 29  1  0  0  0  0
 44 30  1  0  0  0  0
M  END
$$$$
