CPN.pdb
 OpenBabel07022418293D

 41 41  0  0  1  0  0  0  0  0999 V2000
   -0.5390   -4.6710   -0.7950 N   0  0  0  0  0  0  0  0  0  0  0  0
    0.8280   -4.2640   -0.8950 C   0  0  1  0  0  0  0  0  0  0  0  0
    1.4320   -4.8130   -2.1800 C   0  0  0  0  0  0  0  0  0  0  0  0
    3.1450   -4.3060   -2.3100 S   0  0  0  0  0  0  0  0  0  0  0  0
    1.0860   -2.8380   -0.7180 C   0  0  0  0  0  0  0  0  0  0  0  0
    2.2930   -2.4350   -0.7670 O   0  0  0  0  0  0  0  0  0  0  0  0
   -0.6030   -5.6660   -1.0690 H   0  0  0  0  0  0  0  0  0  0  0  0
   -0.8920   -4.6070    0.1960 H   0  0  0  0  0  0  0  0  0  0  0  0
    1.3740   -4.8170   -0.0750 H   0  0  0  0  0  0  0  0  0  0  0  0
    1.4000   -5.9190   -2.0840 H   0  0  0  0  0  0  0  0  0  0  0  0
    0.8220   -4.5620   -3.0680 H   0  0  0  0  0  0  0  0  0  0  0  0
    3.4780   -4.2630   -3.6900 H   0  0  0  0  0  0  0  0  0  0  0  0
    0.0970   -1.8430   -0.4920 N   0  0  0  0  0  0  0  0  0  0  0  0
   -1.3400   -1.9700   -0.3940 C   0  0  0  0  0  0  0  0  0  0  0  0
   -1.9280   -0.6290   -0.7720 C   0  0  0  0  0  0  0  0  0  0  0  0
   -0.7500    0.2710   -1.0830 C   0  0  0  0  0  0  0  0  0  0  0  0
    0.3470   -0.4030   -0.2920 C   0  0  1  0  0  0  0  0  0  0  0  0
    0.2130   -0.1520    1.1610 C   0  0  0  0  0  0  0  0  0  0  0  0
   -0.0620   -1.0610    1.9970 O   0  0  0  0  0  0  0  0  0  0  0  0
   -1.7790   -2.7100   -1.0910 H   0  0  0  0  0  0  0  0  0  0  0  0
   -1.6610   -2.1640    0.6640 H   0  0  0  0  0  0  0  0  0  0  0  0
   -2.4780   -0.1490    0.0640 H   0  0  0  0  0  0  0  0  0  0  0  0
   -2.6100   -0.6870   -1.6420 H   0  0  0  0  0  0  0  0  0  0  0  0
   -0.4880    0.2240   -2.1570 H   0  0  0  0  0  0  0  0  0  0  0  0
   -0.8960    1.3090   -0.7860 H   0  0  0  0  0  0  0  0  0  0  0  0
    1.3400   -0.1410   -0.6710 H   0  0  0  0  0  0  0  0  0  0  0  0
    3.3690    3.6200    3.4950 N   0  0  0  0  0  0  0  0  0  0  0  0
    2.1210    3.0890    3.0820 C   0  0  0  0  0  0  0  0  0  0  0  0
    1.4750    3.6860    2.1930 O   0  0  0  0  0  0  0  0  0  0  0  0
    1.5870    1.8490    3.6920 C   0  0  0  0  0  0  0  0  0  0  0  0
    0.2650    1.4210    3.1160 C   0  0  2  0  0  0  0  0  0  0  0  0
    0.3950    1.1650    1.6940 N   0  0  0  0  0  0  0  0  0  0  0  0
   -0.8020    2.4220    3.3860 C   0  0  0  0  0  0  0  0  0  0  0  0
   -1.4300    2.9030    2.4270 O   0  0  0  0  0  0  0  0  0  0  0  0
   -1.1160    2.8310    4.6550 O   0  0  0  0  0  0  0  0  0  0  0  0
    4.0260    4.0630    2.8150 H   0  0  0  0  0  0  0  0  0  0  0  0
    3.6170    3.5540    4.5160 H   0  0  0  0  0  0  0  0  0  0  0  0
    1.4250    1.9770    4.7940 H   0  0  0  0  0  0  0  0  0  0  0  0
    2.3650    1.0720    3.5840 H   0  0  0  0  0  0  0  0  0  0  0  0
    0.0050    0.4580    3.6460 H   0  0  0  0  0  0  0  0  0  0  0  0
    0.6190    1.9050    0.9980 H   0  0  0  0  0  0  0  0  0  0  0  0
  1  8  1  0  0  0  0
  2  1  1  0  0  0  0
  2  5  1  0  0  0  0
  2  9  1  1  0  0  0
  3 10  1  0  0  0  0
  3  2  1  0  0  0  0
  4  3  1  0  0  0  0
  5 13  1  0  0  0  0
  6  5  2  0  0  0  0
  7  1  1  0  0  0  0
 11  3  1  0  0  0  0
 12  4  1  0  0  0  0
 13 14  1  0  0  0  0
 13 17  1  0  0  0  0
 14 21  1  0  0  0  0
 15 14  1  0  0  0  0
 15 22  1  0  0  0  0
 16 25  1  0  0  0  0
 16 15  1  0  0  0  0
 16 17  1  0  0  0  0
 17 26  1  6  0  0  0
 17 18  1  0  0  0  0
 18 32  1  0  0  0  0
 18 19  2  0  0  0  0
 20 14  1  0  0  0  0
 23 15  1  0  0  0  0
 24 16  1  0  0  0  0
 27 37  1  0  0  0  0
 28 27  1  0  0  0  0
 28 30  1  0  0  0  0
 29 28  2  0  0  0  0
 30 38  1  0  0  0  0
 31 33  1  0  0  0  0
 31 40  1  1  0  0  0
 31 30  1  0  0  0  0
 32 31  1  0  0  0  0
 33 35  1  0  0  0  0
 34 33  2  0  0  0  0
 36 27  1  0  0  0  0
 39 30  1  0  0  0  0
 41 32  1  0  0  0  0
M  END
$$$$
