CPR.pdb
 OpenBabel07022418293D

 50 50  0  0  1  0  0  0  0  0999 V2000
    4.2720   -1.2780    1.3030 N   0  0  0  0  0  0  0  0  0  0  0  0
    3.4460   -2.1300    0.5390 C   0  0  1  0  0  0  0  0  0  0  0  0
    2.9200   -3.2280    1.4670 C   0  0  0  0  0  0  0  0  0  0  0  0
    1.8400   -4.3760    0.5560 S   0  0  0  0  0  0  0  0  0  0  0  0
    2.2880   -1.4440   -0.0730 C   0  0  0  0  0  0  0  0  0  0  0  0
    1.3880   -2.2000   -0.6430 O   0  0  0  0  0  0  0  0  0  0  0  0
    3.8130   -0.9600    2.2080 H   0  0  0  0  0  0  0  0  0  0  0  0
    5.2270   -1.6110    1.4760 H   0  0  0  0  0  0  0  0  0  0  0  0
    4.0820   -2.5940   -0.2610 H   0  0  0  0  0  0  0  0  0  0  0  0
    2.3250   -2.7850    2.2850 H   0  0  0  0  0  0  0  0  0  0  0  0
    3.7580   -3.7840    1.9300 H   0  0  0  0  0  0  0  0  0  0  0  0
    0.4870   -4.2060    0.9190 H   0  0  0  0  0  0  0  0  0  0  0  0
    2.0130   -0.0860   -0.1310 N   0  0  0  0  0  0  0  0  0  0  0  0
    2.8650    0.9810    0.3160 C   0  0  0  0  0  0  0  0  0  0  0  0
    2.7770    1.9340   -0.9110 C   0  0  0  0  0  0  0  0  0  0  0  0
    1.5450    1.4450   -1.7050 C   0  0  0  0  0  0  0  0  0  0  0  0
    0.8870    0.6370   -0.6160 C   0  0  1  0  0  0  0  0  0  0  0  0
   -0.3790    0.0610   -0.8260 C   0  0  0  0  0  0  0  0  0  0  0  0
   -1.0520    0.4000   -1.8620 O   0  0  0  0  0  0  0  0  0  0  0  0
    2.4350    1.4810    1.2120 H   0  0  0  0  0  0  0  0  0  0  0  0
    3.8980    0.7570    0.5300 H   0  0  0  0  0  0  0  0  0  0  0  0
    2.6340    2.9310   -0.4920 H   0  0  0  0  0  0  0  0  0  0  0  0
    3.6920    1.8540   -1.5170 H   0  0  0  0  0  0  0  0  0  0  0  0
    1.8480    0.8660   -2.5760 H   0  0  0  0  0  0  0  0  0  0  0  0
    0.9590    2.3310   -2.0020 H   0  0  0  0  0  0  0  0  0  0  0  0
    0.7160    1.4530    0.2060 H   0  0  0  0  0  0  0  0  0  0  0  0
   -0.1410   -0.2570    4.0420 N   0  0  0  0  0  0  0  0  0  0  0  0
   -1.4110   -0.2800    3.4420 C   0  0  0  0  0  0  0  0  0  0  0  0
   -2.3360   -1.1080    3.8160 N   0  0  0  0  0  0  0  0  0  0  0  0
   -1.7470    0.6270    2.3710 N   0  0  0  0  0  0  0  0  0  0  0  0
   -3.0810    0.8860    1.9810 C   0  0  0  0  0  0  0  0  0  0  0  0
   -3.8790   -0.1770    1.3530 C   0  0  0  0  0  0  0  0  0  0  0  0
   -3.4910   -0.7570    0.0570 C   0  0  0  0  0  0  0  0  0  0  0  0
   -2.2460   -1.4870   -0.1550 C   0  0  2  0  0  0  0  0  0  0  0  0
   -0.9850   -0.8790    0.0340 N   0  0  0  0  0  0  0  0  0  0  0  0
   -2.2790   -2.1820   -1.5320 C   0  0  0  0  0  0  0  0  0  0  0  0
   -1.3000   -2.1690   -2.2730 O   0  0  0  0  0  0  0  0  0  0  0  0
   -3.4400   -2.8210   -1.9150 O   0  0  0  0  0  0  0  0  0  0  0  0
   -0.0250   -0.5500    5.0470 H   0  0  0  0  0  0  0  0  0  0  0  0
    0.7350    0.0380    3.5530 H   0  0  0  0  0  0  0  0  0  0  0  0
   -2.1390   -1.7870    4.5920 H   0  0  0  0  0  0  0  0  0  0  0  0
   -0.8900    1.0750    1.9320 H   0  0  0  0  0  0  0  0  0  0  0  0
   -3.6770    1.3670    2.8210 H   0  0  0  0  0  0  0  0  0  0  0  0
   -3.0150    1.7300    1.2070 H   0  0  0  0  0  0  0  0  0  0  0  0
   -4.9450    0.2360    1.2690 H   0  0  0  0  0  0  0  0  0  0  0  0
   -4.0420   -0.9930    2.1420 H   0  0  0  0  0  0  0  0  0  0  0  0
   -4.3780   -1.3930   -0.3230 H   0  0  0  0  0  0  0  0  0  0  0  0
   -3.4860    0.1360   -0.6800 H   0  0  0  0  0  0  0  0  0  0  0  0
   -2.2570   -2.4180    0.5110 H   0  0  0  0  0  0  0  0  0  0  0  0
   -0.4000   -1.1240    0.8900 H   0  0  0  0  0  0  0  0  0  0  0  0
  1  8  1  0  0  0  0
  1  7  1  0  0  0  0
  2  9  1  6  0  0  0
  2  1  1  0  0  0  0
  2  3  1  0  0  0  0
  3 11  1  0  0  0  0
  3 10  1  0  0  0  0
  4 12  1  0  0  0  0
  4  3  1  0  0  0  0
  5  2  1  0  0  0  0
  6  5  2  0  0  0  0
 13  5  1  0  0  0  0
 13 14  1  0  0  0  0
 14 21  1  0  0  0  0
 14 20  1  0  0  0  0
 15 22  1  0  0  0  0
 15 14  1  0  0  0  0
 16 15  1  0  0  0  0
 16 17  1  0  0  0  0
 17 13  1  0  0  0  0
 17 26  1  1  0  0  0
 18 17  1  0  0  0  0
 18 35  1  0  0  0  0
 19 18  2  0  0  0  0
 23 15  1  0  0  0  0
 24 16  1  0  0  0  0
 25 16  1  0  0  0  0
 27 39  1  0  0  0  0
 28 29  2  0  0  0  0
 28 27  1  0  0  0  0
 29 41  1  0  0  0  0
 30 28  1  0  0  0  0
 31 30  1  0  0  0  0
 31 43  1  0  0  0  0
 32 31  1  0  0  0  0
 32 46  1  0  0  0  0
 33 32  1  0  0  0  0
 34 35  1  0  0  0  0
 34 33  1  0  0  0  0
 34 49  1  1  0  0  0
 35 50  1  0  0  0  0
 36 34  1  0  0  0  0
 37 36  2  0  0  0  0
 38 36  1  0  0  0  0
 40 27  1  0  0  0  0
 42 30  1  0  0  0  0
 44 31  1  0  0  0  0
 45 32  1  0  0  0  0
 47 33  1  0  0  0  0
 48 33  1  0  0  0  0
M  END
$$$$
