CPS.pdb
 OpenBabel07022418293D

 38 38  0  0  1  0  0  0  0  0999 V2000
    3.9690   -2.8330    1.7460 N   0  0  0  0  0  0  0  0  0  0  0  0
    2.7540   -3.0990    0.9360 C   0  0  1  0  0  0  0  0  0  0  0  0
    1.9570   -4.0450    1.8050 C   0  0  0  0  0  0  0  0  0  0  0  0
    0.3900   -4.5770    1.1140 S   0  0  0  0  0  0  0  0  0  0  0  0
    2.0980   -1.8020    0.7300 C   0  0  0  0  0  0  0  0  0  0  0  0
    2.3510   -0.8930    1.5620 O   0  0  0  0  0  0  0  0  0  0  0  0
    3.6990   -2.4400    2.6780 H   0  0  0  0  0  0  0  0  0  0  0  0
    4.5410   -2.0780    1.2860 H   0  0  0  0  0  0  0  0  0  0  0  0
    3.0890   -3.6180    0.0340 H   0  0  0  0  0  0  0  0  0  0  0  0
    1.8200   -3.6650    2.8360 H   0  0  0  0  0  0  0  0  0  0  0  0
    2.5920   -4.9720    1.9110 H   0  0  0  0  0  0  0  0  0  0  0  0
   -0.6770   -4.0140    1.8560 H   0  0  0  0  0  0  0  0  0  0  0  0
    1.2030   -1.4810   -0.3280 N   0  0  0  0  0  0  0  0  0  0  0  0
    0.8120   -2.3000   -1.4530 C   0  0  0  0  0  0  0  0  0  0  0  0
   -0.6940   -2.0410   -1.4610 C   0  0  0  0  0  0  0  0  0  0  0  0
   -0.6010   -0.4960   -1.5150 C   0  0  0  0  0  0  0  0  0  0  0  0
    0.4980   -0.2430   -0.4710 C   0  0  1  0  0  0  0  0  0  0  0  0
   -0.1060    0.2880    0.7660 C   0  0  0  0  0  0  0  0  0  0  0  0
   -0.1220   -0.4110    1.7990 O   0  0  0  0  0  0  0  0  0  0  0  0
    1.1620   -1.8150   -2.4200 H   0  0  0  0  0  0  0  0  0  0  0  0
    1.0980   -3.3360   -1.4260 H   0  0  0  0  0  0  0  0  0  0  0  0
   -1.1230   -2.2950   -0.4830 H   0  0  0  0  0  0  0  0  0  0  0  0
   -1.1990   -2.4510   -2.3280 H   0  0  0  0  0  0  0  0  0  0  0  0
   -1.5400   -0.0140   -1.2540 H   0  0  0  0  0  0  0  0  0  0  0  0
   -0.2250   -0.2670   -2.5300 H   0  0  0  0  0  0  0  0  0  0  0  0
    1.2110    0.4910   -0.9250 H   0  0  0  0  0  0  0  0  0  0  0  0
   -1.3140    3.9020    3.5360 O   0  0  0  0  0  0  0  0  0  0  0  0
   -0.6290    3.4540    2.4070 C   0  0  0  0  0  0  0  0  0  0  0  0
   -1.2710    2.1580    1.9790 C   0  0  2  0  0  0  0  0  0  0  0  0
   -0.6730    1.5700    0.8310 N   0  0  0  0  0  0  0  0  0  0  0  0
   -2.7170    2.3530    1.7380 C   0  0  0  0  0  0  0  0  0  0  0  0
   -3.4320    2.8650    2.6290 O   0  0  0  0  0  0  0  0  0  0  0  0
   -3.2720    1.9730    0.5420 O   0  0  0  0  0  0  0  0  0  0  0  0
   -0.7170    4.0200    4.3230 H   0  0  0  0  0  0  0  0  0  0  0  0
   -0.7680    4.2490    1.6300 H   0  0  0  0  0  0  0  0  0  0  0  0
    0.4150    3.2970    2.6910 H   0  0  0  0  0  0  0  0  0  0  0  0
   -1.1750    1.4440    2.8280 H   0  0  0  0  0  0  0  0  0  0  0  0
   -0.6490    2.1450   -0.0550 H   0  0  0  0  0  0  0  0  0  0  0  0
  1  7  1  0  0  0  0
  2  9  1  6  0  0  0
  2  1  1  0  0  0  0
  2  3  1  0  0  0  0
  3 11  1  0  0  0  0
  3 10  1  0  0  0  0
  4  3  1  0  0  0  0
  4 12  1  0  0  0  0
  5  2  1  0  0  0  0
  5  6  2  0  0  0  0
  8  1  1  0  0  0  0
 13  5  1  0  0  0  0
 14 21  1  0  0  0  0
 14 13  1  0  0  0  0
 15 14  1  0  0  0  0
 15 22  1  0  0  0  0
 16 15  1  0  0  0  0
 16 24  1  0  0  0  0
 16 17  1  0  0  0  0
 17 26  1  6  0  0  0
 17 13  1  0  0  0  0
 17 18  1  0  0  0  0
 18 30  1  0  0  0  0
 18 19  2  0  0  0  0
 20 14  1  0  0  0  0
 23 15  1  0  0  0  0
 25 16  1  0  0  0  0
 27 34  1  0  0  0  0
 28 36  1  0  0  0  0
 28 27  1  0  0  0  0
 29 28  1  0  0  0  0
 29 37  1  1  0  0  0
 30 29  1  0  0  0  0
 31 29  1  0  0  0  0
 31 32  1  0  0  0  0
 33 31  2  0  0  0  0
 35 28  1  0  0  0  0
 38 30  1  0  0  0  0
M  END
$$$$
