CPT.pdb
 OpenBabel07022418293D

 41 41  0  0  1  0  0  0  0  0999 V2000
    1.7510   -3.3530    1.8960 N   0  0  0  0  0  0  0  0  0  0  0  0
    2.2880   -3.0350    0.5980 C   0  0  1  0  0  0  0  0  0  0  0  0
    2.7940   -4.3010   -0.1080 C   0  0  0  0  0  0  0  0  0  0  0  0
    3.4620   -3.8780   -1.7430 S   0  0  0  0  0  0  0  0  0  0  0  0
    1.4460   -2.2280   -0.2640 C   0  0  0  0  0  0  0  0  0  0  0  0
    1.8920   -1.8830   -1.4120 O   0  0  0  0  0  0  0  0  0  0  0  0
    2.4230   -3.1920    2.6830 H   0  0  0  0  0  0  0  0  0  0  0  0
    1.4490   -4.3540    1.8470 H   0  0  0  0  0  0  0  0  0  0  0  0
    3.2510   -2.4730    0.8200 H   0  0  0  0  0  0  0  0  0  0  0  0
    1.9960   -5.0680   -0.1550 H   0  0  0  0  0  0  0  0  0  0  0  0
    3.6270   -4.7570    0.4660 H   0  0  0  0  0  0  0  0  0  0  0  0
    2.4070   -3.8870   -2.6960 H   0  0  0  0  0  0  0  0  0  0  0  0
    0.1190   -1.7700    0.0670 N   0  0  0  0  0  0  0  0  0  0  0  0
   -0.6480   -2.0050    1.2610 C   0  0  0  0  0  0  0  0  0  0  0  0
   -2.0880   -1.8890    0.8270 C   0  0  0  0  0  0  0  0  0  0  0  0
   -2.0810   -1.4670   -0.6040 C   0  0  0  0  0  0  0  0  0  0  0  0
   -0.7080   -0.9350   -0.8020 C   0  0  1  0  0  0  0  0  0  0  0  0
   -0.6050    0.4780   -0.4310 C   0  0  0  0  0  0  0  0  0  0  0  0
   -1.3420    1.3740   -0.9490 O   0  0  0  0  0  0  0  0  0  0  0  0
   -0.4400   -1.3060    2.0960 H   0  0  0  0  0  0  0  0  0  0  0  0
   -0.5390   -3.0410    1.6590 H   0  0  0  0  0  0  0  0  0  0  0  0
   -2.6390   -2.8680    0.8940 H   0  0  0  0  0  0  0  0  0  0  0  0
   -2.6650   -1.1470    1.4260 H   0  0  0  0  0  0  0  0  0  0  0  0
   -2.3210   -2.3260   -1.2810 H   0  0  0  0  0  0  0  0  0  0  0  0
   -2.8640   -0.7010   -0.8210 H   0  0  0  0  0  0  0  0  0  0  0  0
   -0.4020   -1.1010   -1.8730 H   0  0  0  0  0  0  0  0  0  0  0  0
   -1.3010    2.0950    2.6030 C   0  0  0  0  0  0  0  0  0  0  0  0
    0.1530    2.4870    2.3920 C   0  0  1  0  0  0  0  0  0  0  0  0
    0.9990    1.7410    3.1900 O   0  0  0  0  0  0  0  0  0  0  0  0
    0.4770    2.2920    0.9350 C   0  0  2  0  0  0  0  0  0  0  0  0
    0.3430    0.8930    0.5370 N   0  0  0  0  0  0  0  0  0  0  0  0
    1.8350    2.7880    0.6570 C   0  0  0  0  0  0  0  0  0  0  0  0
    2.6780    2.0270    0.1450 O   0  0  0  0  0  0  0  0  0  0  0  0
    2.1980    4.0860    0.9530 O   0  0  0  0  0  0  0  0  0  0  0  0
   -1.4220    1.7050    3.6330 H   0  0  0  0  0  0  0  0  0  0  0  0
   -1.5580    1.2580    1.9090 H   0  0  0  0  0  0  0  0  0  0  0  0
   -1.9500    2.9740    2.4930 H   0  0  0  0  0  0  0  0  0  0  0  0
    0.2590    3.5670    2.6170 H   0  0  0  0  0  0  0  0  0  0  0  0
    1.9040    1.7670    2.7620 H   0  0  0  0  0  0  0  0  0  0  0  0
   -0.2490    2.8730    0.3320 H   0  0  0  0  0  0  0  0  0  0  0  0
    0.9730    0.2060    0.9790 H   0  0  0  0  0  0  0  0  0  0  0  0
  1  7  1  0  0  0  0
  2  9  1  1  0  0  0
  2  1  1  0  0  0  0
  3 11  1  0  0  0  0
  3  2  1  0  0  0  0
  4  3  1  0  0  0  0
  5 13  1  0  0  0  0
  5  2  1  0  0  0  0
  6  5  2  0  0  0  0
  8  1  1  0  0  0  0
 10  3  1  0  0  0  0
 12  4  1  0  0  0  0
 13 14  1  0  0  0  0
 14 21  1  0  0  0  0
 14 20  1  0  0  0  0
 15 22  1  0  0  0  0
 15 14  1  0  0  0  0
 15 23  1  0  0  0  0
 16 15  1  0  0  0  0
 17 26  1  6  0  0  0
 17 16  1  0  0  0  0
 17 18  1  0  0  0  0
 17 13  1  0  0  0  0
 18 31  1  0  0  0  0
 19 18  2  0  0  0  0
 24 16  1  0  0  0  0
 25 16  1  0  0  0  0
 27 35  1  0  0  0  0
 28 27  1  0  0  0  0
 28 38  1  1  0  0  0
 28 29  1  0  0  0  0
 30 40  1  6  0  0  0
 30 28  1  0  0  0  0
 31 30  1  0  0  0  0
 31 41  1  0  0  0  0
 32 30  1  0  0  0  0
 32 34  1  0  0  0  0
 33 32  2  0  0  0  0
 36 27  1  0  0  0  0
 37 27  1  0  0  0  0
 39 29  1  0  0  0  0
M  END
$$$$
