CPV.pdb
 OpenBabel07022418293D

 43 43  0  0  1  0  0  0  0  0999 V2000
    1.7860   -3.3180    1.0280 N   0  0  0  0  0  0  0  0  0  0  0  0
    2.2340   -2.7420   -0.2000 C   0  0  1  0  0  0  0  0  0  0  0  0
    2.7310   -3.8090   -1.1780 C   0  0  0  0  0  0  0  0  0  0  0  0
    3.2650   -2.9490   -2.6790 S   0  0  0  0  0  0  0  0  0  0  0  0
    1.2910   -1.8250   -0.8190 C   0  0  0  0  0  0  0  0  0  0  0  0
    1.6760   -1.2440   -1.9050 O   0  0  0  0  0  0  0  0  0  0  0  0
    2.0940   -4.2830    1.2080 H   0  0  0  0  0  0  0  0  0  0  0  0
    2.0940   -2.7300    1.8340 H   0  0  0  0  0  0  0  0  0  0  0  0
    3.1850   -2.1770    0.0560 H   0  0  0  0  0  0  0  0  0  0  0  0
    1.9670   -4.5760   -1.3620 H   0  0  0  0  0  0  0  0  0  0  0  0
    3.6220   -4.3280   -0.7670 H   0  0  0  0  0  0  0  0  0  0  0  0
    4.3890   -3.5960   -3.2550 H   0  0  0  0  0  0  0  0  0  0  0  0
   -0.0070   -1.5090   -0.3440 N   0  0  0  0  0  0  0  0  0  0  0  0
   -0.7690   -1.9470    0.7900 C   0  0  0  0  0  0  0  0  0  0  0  0
   -2.1150   -2.2530    0.1040 C   0  0  0  0  0  0  0  0  0  0  0  0
   -2.2350   -1.1880   -0.9520 C   0  0  0  0  0  0  0  0  0  0  0  0
   -0.9020   -0.5480   -1.0160 C   0  0  1  0  0  0  0  0  0  0  0  0
   -0.8180    0.7260   -0.2650 C   0  0  0  0  0  0  0  0  0  0  0  0
   -1.6470    1.6570   -0.5320 O   0  0  0  0  0  0  0  0  0  0  0  0
   -0.9980   -1.0900    1.4540 H   0  0  0  0  0  0  0  0  0  0  0  0
   -0.4090   -2.7990    1.3450 H   0  0  0  0  0  0  0  0  0  0  0  0
   -2.1260   -3.2700   -0.3150 H   0  0  0  0  0  0  0  0  0  0  0  0
   -2.9560   -2.1250    0.8230 H   0  0  0  0  0  0  0  0  0  0  0  0
   -2.4410   -1.6930   -1.9380 H   0  0  0  0  0  0  0  0  0  0  0  0
   -3.0490   -0.4680   -0.7270 H   0  0  0  0  0  0  0  0  0  0  0  0
   -0.5400   -0.4070   -2.0720 H   0  0  0  0  0  0  0  0  0  0  0  0
   -1.4260    1.4660    3.1200 C   0  0  0  0  0  0  0  0  0  0  0  0
   -0.0550    2.0680    2.9360 C   0  0  0  0  0  0  0  0  0  0  0  0
    0.9790    1.1650    3.5670 C   0  0  0  0  0  0  0  0  0  0  0  0
    0.1820    2.2630    1.4670 C   0  0  2  0  0  0  0  0  0  0  0  0
    0.1190    1.0120    0.7420 N   0  0  0  0  0  0  0  0  0  0  0  0
    1.4390    3.0010    1.1860 C   0  0  0  0  0  0  0  0  0  0  0  0
    2.3090    2.5300    0.3900 O   0  0  0  0  0  0  0  0  0  0  0  0
    1.7350    4.2240    1.7620 O   0  0  0  0  0  0  0  0  0  0  0  0
   -2.0010    1.9710    3.9250 H   0  0  0  0  0  0  0  0  0  0  0  0
   -1.2930    0.3830    3.3210 H   0  0  0  0  0  0  0  0  0  0  0  0
   -2.0080    1.6170    2.1900 H   0  0  0  0  0  0  0  0  0  0  0  0
   -0.0110    3.0690    3.4180 H   0  0  0  0  0  0  0  0  0  0  0  0
    0.8940    1.2870    4.6640 H   0  0  0  0  0  0  0  0  0  0  0  0
    2.0070    1.4830    3.2990 H   0  0  0  0  0  0  0  0  0  0  0  0
    0.8330    0.1200    3.2540 H   0  0  0  0  0  0  0  0  0  0  0  0
   -0.6420    2.8970    1.0760 H   0  0  0  0  0  0  0  0  0  0  0  0
    0.8350    0.3000    1.0020 H   0  0  0  0  0  0  0  0  0  0  0  0
  1  7  1  0  0  0  0
  1  8  1  0  0  0  0
  2  9  1  1  0  0  0
  2  1  1  0  0  0  0
  3 11  1  0  0  0  0
  3  2  1  0  0  0  0
  4  3  1  0  0  0  0
  5 13  1  0  0  0  0
  5  2  1  0  0  0  0
  6  5  2  0  0  0  0
 10  3  1  0  0  0  0
 12  4  1  0  0  0  0
 13 14  1  0  0  0  0
 14 21  1  0  0  0  0
 14 20  1  0  0  0  0
 15 14  1  0  0  0  0
 15 23  1  0  0  0  0
 16 25  1  0  0  0  0
 16 15  1  0  0  0  0
 17 26  1  6  0  0  0
 17 16  1  0  0  0  0
 17 13  1  0  0  0  0
 17 18  1  0  0  0  0
 18 31  1  0  0  0  0
 19 18  2  0  0  0  0
 22 15  1  0  0  0  0
 24 16  1  0  0  0  0
 27 36  1  0  0  0  0
 27 35  1  0  0  0  0
 28 27  1  0  0  0  0
 28 38  1  0  0  0  0
 28 29  1  0  0  0  0
 29 39  1  0  0  0  0
 30 42  1  6  0  0  0
 30 28  1  0  0  0  0
 31 43  1  0  0  0  0
 31 30  1  0  0  0  0
 32 30  1  0  0  0  0
 32 34  1  0  0  0  0
 33 32  2  0  0  0  0
 37 27  1  0  0  0  0
 40 29  1  0  0  0  0
 41 29  1  0  0  0  0
M  END
$$$$
