CPW.pdb
 OpenBabel07022418293D

 51 53  0  0  1  0  0  0  0  0999 V2000
    1.6110   -0.9050    5.0850 N   0  0  0  0  0  0  0  0  0  0  0  0
    1.1230    0.1690    4.1830 C   0  0  1  0  0  0  0  0  0  0  0  0
    0.3520    1.1520    5.0390 C   0  0  0  0  0  0  0  0  0  0  0  0
   -0.2820    2.5220    4.0650 S   0  0  0  0  0  0  0  0  0  0  0  0
    2.3140    0.7420    3.5390 C   0  0  0  0  0  0  0  0  0  0  0  0
    3.3760    0.7820    4.2530 O   0  0  0  0  0  0  0  0  0  0  0  0
    1.9700   -1.6550    4.4280 H   0  0  0  0  0  0  0  0  0  0  0  0
    0.8140   -1.2510    5.6650 H   0  0  0  0  0  0  0  0  0  0  0  0
    0.4870   -0.3120    3.4400 H   0  0  0  0  0  0  0  0  0  0  0  0
   -0.5540    0.5750    5.4010 H   0  0  0  0  0  0  0  0  0  0  0  0
    0.8800    1.4430    5.9460 H   0  0  0  0  0  0  0  0  0  0  0  0
   -1.3000    2.0540    3.2040 H   0  0  0  0  0  0  0  0  0  0  0  0
    2.3890    1.2390    2.2360 N   0  0  0  0  0  0  0  0  0  0  0  0
    3.5180    1.8750    1.6140 C   0  0  0  0  0  0  0  0  0  0  0  0
    2.8690    3.0130    0.8770 C   0  0  0  0  0  0  0  0  0  0  0  0
    1.5950    2.4000    0.3480 C   0  0  0  0  0  0  0  0  0  0  0  0
    1.3740    1.1720    1.2160 C   0  0  1  0  0  0  0  0  0  0  0  0
    1.5650   -0.0600    0.3700 C   0  0  0  0  0  0  0  0  0  0  0  0
    2.6490   -0.7050    0.4730 O   0  0  0  0  0  0  0  0  0  0  0  0
    3.9600    1.1880    0.8440 H   0  0  0  0  0  0  0  0  0  0  0  0
    4.2800    2.2130    2.3400 H   0  0  0  0  0  0  0  0  0  0  0  0
    2.6690    3.8060    1.6130 H   0  0  0  0  0  0  0  0  0  0  0  0
    3.5170    3.3960    0.0660 H   0  0  0  0  0  0  0  0  0  0  0  0
    0.7770    3.1190    0.3890 H   0  0  0  0  0  0  0  0  0  0  0  0
    1.8110    2.1110   -0.7120 H   0  0  0  0  0  0  0  0  0  0  0  0
    0.3440    1.1920    1.5760 H   0  0  0  0  0  0  0  0  0  0  0  0
    0.5830   -0.5150   -0.5230 N   0  0  0  0  0  0  0  0  0  0  0  0
    0.8060   -1.7240   -1.3360 C   0  0  1  0  0  0  0  0  0  0  0  0
    0.1300   -2.8840   -0.6370 C   0  0  0  0  0  0  0  0  0  0  0  0
   -1.3010   -2.7250   -0.4100 C   0  0  0  0  0  0  0  0  0  0  0  0
   -1.8710   -2.1930    0.7660 C   0  0  0  0  0  0  0  0  0  0  0  0
   -3.1910   -2.1560    0.6060 N   0  0  0  0  0  0  0  0  0  0  0  0
   -3.5330   -2.6320   -0.6070 C   0  0  0  0  0  0  0  0  0  0  0  0
   -4.7320   -2.8200   -1.2470 C   0  0  0  0  0  0  0  0  0  0  0  0
   -4.8370   -3.3540   -2.5120 C   0  0  0  0  0  0  0  0  0  0  0  0
   -3.6590   -3.7040   -3.1310 C   0  0  0  0  0  0  0  0  0  0  0  0
   -2.4350   -3.5280   -2.5120 C   0  0  0  0  0  0  0  0  0  0  0  0
   -2.3530   -2.9850   -1.2330 C   0  0  0  0  0  0  0  0  0  0  0  0
    0.4160   -1.5990   -2.7170 C   0  0  0  0  0  0  0  0  0  0  0  0
   -0.1940   -0.5440   -3.1020 O   0  0  0  0  0  0  0  0  0  0  0  0
    0.6590   -2.5600   -3.6990 O   0  0  0  0  0  0  0  0  0  0  0  0
   -0.3220   -0.0270   -0.6410 H   0  0  0  0  0  0  0  0  0  0  0  0
    1.9200   -1.9230   -1.2860 H   0  0  0  0  0  0  0  0  0  0  0  0
    0.6040   -3.0870    0.3570 H   0  0  0  0  0  0  0  0  0  0  0  0
    0.3410   -3.8160   -1.2370 H   0  0  0  0  0  0  0  0  0  0  0  0
   -1.2940   -1.8780    1.6350 H   0  0  0  0  0  0  0  0  0  0  0  0
   -3.8940   -1.8110    1.3000 H   0  0  0  0  0  0  0  0  0  0  0  0
   -5.6490   -2.5310   -0.7280 H   0  0  0  0  0  0  0  0  0  0  0  0
   -5.7830   -3.5020   -3.0140 H   0  0  0  0  0  0  0  0  0  0  0  0
   -3.6390   -4.1340   -4.1250 H   0  0  0  0  0  0  0  0  0  0  0  0
   -1.5290   -3.8240   -3.0100 H   0  0  0  0  0  0  0  0  0  0  0  0
  1  8  1  0  0  0  0
  2  9  1  6  0  0  0
  2  3  1  0  0  0  0
  2  1  1  0  0  0  0
  3 10  1  0  0  0  0
  3 11  1  0  0  0  0
  4  3  1  0  0  0  0
  5  2  1  0  0  0  0
  5  6  2  0  0  0  0
  7  1  1  0  0  0  0
 12  4  1  0  0  0  0
 13  5  1  0  0  0  0
 14 13  1  0  0  0  0
 14 21  1  0  0  0  0
 15 22  1  0  0  0  0
 15 14  1  0  0  0  0
 16 24  1  0  0  0  0
 16 15  1  0  0  0  0
 16 17  1  0  0  0  0
 17 26  1  1  0  0  0
 17 13  1  0  0  0  0
 18 19  2  0  0  0  0
 18 17  1  0  0  0  0
 20 14  1  0  0  0  0
 23 15  1  0  0  0  0
 25 16  1  0  0  0  0
 27 18  1  0  0  0  0
 28 43  1  1  0  0  0
 28 29  1  0  0  0  0
 28 27  1  0  0  0  0
 29 30  1  0  0  0  0
 29 44  1  0  0  0  0
 30 31  2  0  0  0  0
 31 46  1  0  0  0  0
 32 31  1  0  0  0  0
 32 47  1  0  0  0  0
 33 32  1  0  0  0  0
 34 48  1  0  0  0  0
 34 33  2  0  0  0  0
 35 34  1  0  0  0  0
 36 35  2  0  0  0  0
 36 37  1  0  0  0  0
 37 38  2  0  0  0  0
 38 33  1  0  0  0  0
 38 30  1  0  0  0  0
 39 28  1  0  0  0  0
 40 39  1  0  0  0  0
 41 39  2  0  0  0  0
 42 27  1  0  0  0  0
 45 29  1  0  0  0  0
 49 35  1  0  0  0  0
 50 36  1  0  0  0  0
 51 37  1  0  0  0  0
M  END
$$$$
