CPY.pdb
 OpenBabel07022418293D

 48 49  0  0  1  0  0  0  0  0999 V2000
    5.1690   -2.8530   -0.4750 N   0  0  0  0  0  0  0  0  0  0  0  0
    4.2690   -1.9760   -1.2560 C   0  0  1  0  0  0  0  0  0  0  0  0
    3.7730   -2.8540   -2.3870 C   0  0  0  0  0  0  0  0  0  0  0  0
    2.6550   -2.0530   -3.5130 S   0  0  0  0  0  0  0  0  0  0  0  0
    3.2120   -1.5320   -0.3350 C   0  0  0  0  0  0  0  0  0  0  0  0
    3.0690   -2.2010    0.7550 O   0  0  0  0  0  0  0  0  0  0  0  0
    5.8440   -3.3290   -1.1080 H   0  0  0  0  0  0  0  0  0  0  0  0
    4.6090   -3.5060    0.1010 H   0  0  0  0  0  0  0  0  0  0  0  0
    4.8430   -1.1290   -1.6160 H   0  0  0  0  0  0  0  0  0  0  0  0
    4.6680   -3.2070   -2.9280 H   0  0  0  0  0  0  0  0  0  0  0  0
    3.2950   -3.7560   -1.9510 H   0  0  0  0  0  0  0  0  0  0  0  0
    3.2060   -1.9800   -4.8160 H   0  0  0  0  0  0  0  0  0  0  0  0
    2.3350   -0.4520   -0.5050 N   0  0  0  0  0  0  0  0  0  0  0  0
    2.2920    0.4680   -1.6090 C   0  0  0  0  0  0  0  0  0  0  0  0
    2.0690    1.8300   -0.9560 C   0  0  0  0  0  0  0  0  0  0  0  0
    1.2450    1.4830    0.2680 C   0  0  0  0  0  0  0  0  0  0  0  0
    1.2900   -0.0290    0.3910 C   0  0  1  0  0  0  0  0  0  0  0  0
   -0.0300   -0.6260   -0.0080 C   0  0  0  0  0  0  0  0  0  0  0  0
   -0.1010   -1.3810   -1.0070 O   0  0  0  0  0  0  0  0  0  0  0  0
    3.2090    0.5480   -2.1940 H   0  0  0  0  0  0  0  0  0  0  0  0
    1.4190    0.3320   -2.2790 H   0  0  0  0  0  0  0  0  0  0  0  0
    1.4380    2.4790   -1.5910 H   0  0  0  0  0  0  0  0  0  0  0  0
    3.0090    2.3320   -0.7140 H   0  0  0  0  0  0  0  0  0  0  0  0
    0.2350    1.8890    0.2300 H   0  0  0  0  0  0  0  0  0  0  0  0
    1.7650    1.9570    1.1330 H   0  0  0  0  0  0  0  0  0  0  0  0
    1.4890   -0.2590    1.4510 H   0  0  0  0  0  0  0  0  0  0  0  0
   -3.1960    0.9940    6.3460 O   0  0  0  0  0  0  0  0  0  0  0  0
   -3.0880    0.2840    5.1570 C   0  0  0  0  0  0  0  0  0  0  0  0
   -1.9100   -0.2850    4.7560 C   0  0  0  0  0  0  0  0  0  0  0  0
   -1.8650   -0.9740    3.5710 C   0  0  0  0  0  0  0  0  0  0  0  0
   -2.9780   -1.1170    2.7610 C   0  0  0  0  0  0  0  0  0  0  0  0
   -2.8910   -1.8700    1.4870 C   0  0  0  0  0  0  0  0  0  0  0  0
   -2.5140   -0.9300    0.3500 C   0  0  2  0  0  0  0  0  0  0  0  0
   -1.2170   -0.3650    0.7130 N   0  0  0  0  0  0  0  0  0  0  0  0
   -3.5270    0.1170    0.1900 C   0  0  0  0  0  0  0  0  0  0  0  0
   -3.2580    1.3480    0.3570 O   0  0  0  0  0  0  0  0  0  0  0  0
   -4.1600   -0.5440    3.1690 C   0  0  0  0  0  0  0  0  0  0  0  0
   -4.2110    0.1540    4.3650 C   0  0  0  0  0  0  0  0  0  0  0  0
   -4.8120   -0.2010   -0.1510 O   0  0  0  0  0  0  0  0  0  0  0  0
   -2.6870    0.6950    7.1590 H   0  0  0  0  0  0  0  0  0  0  0  0
   -1.0480   -0.1640    5.4010 H   0  0  0  0  0  0  0  0  0  0  0  0
   -0.9210   -1.4210    3.2650 H   0  0  0  0  0  0  0  0  0  0  0  0
   -3.8720   -2.3500    1.2620 H   0  0  0  0  0  0  0  0  0  0  0  0
   -2.1610   -2.6780    1.5980 H   0  0  0  0  0  0  0  0  0  0  0  0
   -2.4030   -1.5730   -0.5540 H   0  0  0  0  0  0  0  0  0  0  0  0
   -1.1680    0.2610    1.5440 H   0  0  0  0  0  0  0  0  0  0  0  0
   -5.0500   -0.6400    2.5530 H   0  0  0  0  0  0  0  0  0  0  0  0
   -5.1350    0.6080    4.6930 H   0  0  0  0  0  0  0  0  0  0  0  0
  1  8  1  0  0  0  0
  2  9  1  6  0  0  0
  2  1  1  0  0  0  0
  2  5  1  0  0  0  0
  3 11  1  0  0  0  0
  3  2  1  0  0  0  0
  4  3  1  0  0  0  0
  5  6  2  0  0  0  0
  7  1  1  0  0  0  0
 10  3  1  0  0  0  0
 12  4  1  0  0  0  0
 13  5  1  0  0  0  0
 13 17  1  0  0  0  0
 14 15  1  0  0  0  0
 14 13  1  0  0  0  0
 15 23  1  0  0  0  0
 15 16  1  0  0  0  0
 16 17  1  0  0  0  0
 16 25  1  0  0  0  0
 17 26  1  1  0  0  0
 18 17  1  0  0  0  0
 18 34  1  0  0  0  0
 19 18  2  0  0  0  0
 20 14  1  0  0  0  0
 21 14  1  0  0  0  0
 22 15  1  0  0  0  0
 24 16  1  0  0  0  0
 27 40  1  0  0  0  0
 28 27  1  0  0  0  0
 29 28  1  0  0  0  0
 29 41  1  0  0  0  0
 30 29  2  0  0  0  0
 31 37  2  0  0  0  0
 31 30  1  0  0  0  0
 32 44  1  0  0  0  0
 32 31  1  0  0  0  0
 33 45  1  6  0  0  0
 33 34  1  0  0  0  0
 33 32  1  0  0  0  0
 34 46  1  0  0  0  0
 35 33  1  0  0  0  0
 35 36  1  0  0  0  0
 37 38  1  0  0  0  0
 38 48  1  0  0  0  0
 38 28  2  0  0  0  0
 39 35  2  0  0  0  0
 42 30  1  0  0  0  0
 43 32  1  0  0  0  0
 47 37  1  0  0  0  0
M  END
$$$$
