CQA.pdb
 OpenBabel07022418273D

 40 39  0  0  1  0  0  0  0  0999 V2000
    3.1170   -3.3400    0.5940 N   0  0  0  0  0  0  0  0  0  0  0  0
    2.6230   -2.0020    0.4160 C   0  0  1  0  0  0  0  0  0  0  0  0
    2.9560   -1.5010   -0.9700 C   0  0  0  0  0  0  0  0  0  0  0  0
    4.7430   -1.4860   -1.2480 S   0  0  0  0  0  0  0  0  0  0  0  0
    1.1340   -1.9550    0.6450 C   0  0  0  0  0  0  0  0  0  0  0  0
    0.5080   -2.9740    0.9740 O   0  0  0  0  0  0  0  0  0  0  0  0
    2.5180   -3.9220    1.2060 H   0  0  0  0  0  0  0  0  0  0  0  0
    4.0760   -3.2810    0.9910 H   0  0  0  0  0  0  0  0  0  0  0  0
    3.1160   -1.3440    1.1570 H   0  0  0  0  0  0  0  0  0  0  0  0
    2.5010   -2.1850   -1.7350 H   0  0  0  0  0  0  0  0  0  0  0  0
    2.5260   -0.5050   -1.1650 H   0  0  0  0  0  0  0  0  0  0  0  0
    4.9890   -1.6370   -2.6310 H   0  0  0  0  0  0  0  0  0  0  0  0
   -1.7430   -1.1590   -3.4020 N   0  0  0  0  0  0  0  0  0  0  0  0
   -2.1040   -1.0920   -2.0410 C   0  0  0  0  0  0  0  0  0  0  0  0
   -2.8500   -0.1650   -1.6670 O   0  0  0  0  0  0  0  0  0  0  0  0
   -1.6330   -2.0870   -1.0270 C   0  0  0  0  0  0  0  0  0  0  0  0
   -1.7890   -1.5850    0.3780 C   0  0  0  0  0  0  0  0  0  0  0  0
   -0.8930   -0.3990    0.6020 C   0  0  2  0  0  0  0  0  0  0  0  0
    0.4890   -0.7280    0.4740 N   0  0  0  0  0  0  0  0  0  0  0  0
   -1.2130    0.4310    1.7550 C   0  0  0  0  0  0  0  0  0  0  0  0
   -2.3450    0.8390    2.0900 O   0  0  0  0  0  0  0  0  0  0  0  0
   -0.8270   -1.5790   -3.7230 H   0  0  0  0  0  0  0  0  0  0  0  0
   -2.3480   -0.8030   -4.1750 H   0  0  0  0  0  0  0  0  0  0  0  0
   -0.5820   -2.3670   -1.2450 H   0  0  0  0  0  0  0  0  0  0  0  0
   -2.2310   -3.0250   -1.1140 H   0  0  0  0  0  0  0  0  0  0  0  0
   -1.6470   -2.4190    1.0730 H   0  0  0  0  0  0  0  0  0  0  0  0
   -2.8750   -1.2540    0.4560 H   0  0  0  0  0  0  0  0  0  0  0  0
   -1.1390    0.2480   -0.3370 H   0  0  0  0  0  0  0  0  0  0  0  0
    1.1200    0.1020    0.2080 H   0  0  0  0  0  0  0  0  0  0  0  0
    0.2560    0.9050    4.9650 C   0  0  0  0  0  0  0  0  0  0  0  0
   -0.2550    1.6390    3.7680 C   0  0  2  0  0  0  0  0  0  0  0  0
   -0.1130    0.8260    2.6000 N   0  0  0  0  0  0  0  0  0  0  0  0
    0.3840    2.9770    3.6060 C   0  0  0  0  0  0  0  0  0  0  0  0
    0.3690    3.8250    4.5170 O   0  0  0  0  0  0  0  0  0  0  0  0
    1.0060    3.2790    2.4130 O   0  0  0  0  0  0  0  0  0  0  0  0
    0.5680   -0.1120    4.6640 H   0  0  0  0  0  0  0  0  0  0  0  0
   -0.4890    0.7780    5.7760 H   0  0  0  0  0  0  0  0  0  0  0  0
    1.1520    1.3880    5.4110 H   0  0  0  0  0  0  0  0  0  0  0  0
   -1.3530    1.8390    3.9040 H   0  0  0  0  0  0  0  0  0  0  0  0
    0.8690    0.5070    2.3620 H   0  0  0  0  0  0  0  0  0  0  0  0
  1  8  1  0  0  0  0
  1  7  1  0  0  0  0
  2  1  1  0  0  0  0
  2  5  1  0  0  0  0
  2  9  1  1  0  0  0
  3  2  1  0  0  0  0
  4  3  1  0  0  0  0
  5  6  2  0  0  0  0
 10  3  1  0  0  0  0
 11  3  1  0  0  0  0
 12  4  1  0  0  0  0
 13 14  1  0  0  0  0
 14 15  2  0  0  0  0
 14 16  1  0  0  0  0
 16 17  1  0  0  0  0
 17 27  1  0  0  0  0
 17 18  1  0  0  0  0
 17 26  1  0  0  0  0
 18 28  1  6  0  0  0
 18 20  1  0  0  0  0
 19 18  1  0  0  0  0
 19  5  1  0  0  0  0
 20 21  2  0  0  0  0
 20 32  1  0  0  0  0
 22 13  1  0  0  0  0
 23 13  1  0  0  0  0
 24 16  1  0  0  0  0
 25 16  1  0  0  0  0
 29 19  1  0  0  0  0
 30 38  1  0  0  0  0
 30 37  1  0  0  0  0
 31 39  1  1  0  0  0
 31 30  1  0  0  0  0
 32 31  1  0  0  0  0
 33 31  1  0  0  0  0
 33 34  1  0  0  0  0
 35 33  2  0  0  0  0
 36 30  1  0  0  0  0
 40 32  1  0  0  0  0
M  END
$$$$
