CQC.pdb
 OpenBabel07022418273D

 41 40  0  0  1  0  0  0  0  0999 V2000
    0.8370   -3.5730    0.5080 N   0  0  0  0  0  0  0  0  0  0  0  0
    1.9170   -3.3290    1.4180 C   0  0  1  0  0  0  0  0  0  0  0  0
    3.1090   -4.1310    1.0030 C   0  0  0  0  0  0  0  0  0  0  0  0
    3.6790   -3.7200   -0.6530 S   0  0  0  0  0  0  0  0  0  0  0  0
    2.1980   -1.8850    1.5970 C   0  0  0  0  0  0  0  0  0  0  0  0
    3.1530   -1.4980    2.3550 O   0  0  0  0  0  0  0  0  0  0  0  0
   -0.0810   -3.3370    0.9400 H   0  0  0  0  0  0  0  0  0  0  0  0
    0.9770   -3.1940   -0.4340 H   0  0  0  0  0  0  0  0  0  0  0  0
    1.6100   -3.7000    2.4370 H   0  0  0  0  0  0  0  0  0  0  0  0
    3.9470   -3.9900    1.7190 H   0  0  0  0  0  0  0  0  0  0  0  0
    2.8020   -5.2000    1.0110 H   0  0  0  0  0  0  0  0  0  0  0  0
    4.8890   -4.3830   -0.9060 H   0  0  0  0  0  0  0  0  0  0  0  0
    0.4720   -0.1230   -3.2810 N   0  0  0  0  0  0  0  0  0  0  0  0
    1.3820   -0.0720   -2.1670 C   0  0  0  0  0  0  0  0  0  0  0  0
    2.0120   -1.1060   -1.9030 O   0  0  0  0  0  0  0  0  0  0  0  0
    1.4930    1.1800   -1.4460 C   0  0  0  0  0  0  0  0  0  0  0  0
    2.1350    1.1910   -0.1270 C   0  0  0  0  0  0  0  0  0  0  0  0
    1.5540    0.4490    1.0020 C   0  0  2  0  0  0  0  0  0  0  0  0
    1.3780   -0.9520    0.9060 N   0  0  0  0  0  0  0  0  0  0  0  0
    0.3300    1.1520    1.5160 C   0  0  0  0  0  0  0  0  0  0  0  0
    0.3580    2.3980    1.6480 O   0  0  0  0  0  0  0  0  0  0  0  0
   -0.4230    0.4060   -3.2750 H   0  0  0  0  0  0  0  0  0  0  0  0
    0.6900   -0.6930   -4.1170 H   0  0  0  0  0  0  0  0  0  0  0  0
    0.5020    1.7400   -1.4370 H   0  0  0  0  0  0  0  0  0  0  0  0
    2.1190    1.8600   -2.1090 H   0  0  0  0  0  0  0  0  0  0  0  0
    3.2260    0.9280   -0.2720 H   0  0  0  0  0  0  0  0  0  0  0  0
    2.2000    2.2770    0.1950 H   0  0  0  0  0  0  0  0  0  0  0  0
    2.3060    0.5900    1.8570 H   0  0  0  0  0  0  0  0  0  0  0  0
    0.6060   -1.3360    0.3210 H   0  0  0  0  0  0  0  0  0  0  0  0
   -0.8690    0.4830    1.8640 N   0  0  0  0  0  0  0  0  0  0  0  0
   -2.0300    1.1950    2.3570 C   0  0  1  0  0  0  0  0  0  0  0  0
   -3.1890    0.9570    1.4270 C   0  0  0  0  0  0  0  0  0  0  0  0
   -3.6180   -0.7880    1.2940 S   0  0  0  0  0  0  0  0  0  0  0  0
   -2.4200    0.7400    3.7150 C   0  0  0  0  0  0  0  0  0  0  0  0
   -1.8300   -0.1430    4.3620 O   0  0  0  0  0  0  0  0  0  0  0  0
   -3.5230    1.3530    4.2920 O   0  0  0  0  0  0  0  0  0  0  0  0
   -0.9100   -0.5370    1.7630 H   0  0  0  0  0  0  0  0  0  0  0  0
   -1.8590    2.2840    2.4200 H   0  0  0  0  0  0  0  0  0  0  0  0
   -4.0900    1.5060    1.7760 H   0  0  0  0  0  0  0  0  0  0  0  0
   -2.9820    1.3370    0.4030 H   0  0  0  0  0  0  0  0  0  0  0  0
   -2.5210   -1.4850    0.7490 H   0  0  0  0  0  0  0  0  0  0  0  0
  1  7  1  0  0  0  0
  1  2  1  0  0  0  0
  2  5  1  0  0  0  0
  2  9  1  1  0  0  0
  3 11  1  0  0  0  0
  3  2  1  0  0  0  0
  3 10  1  0  0  0  0
  4  3  1  0  0  0  0
  5  6  2  0  0  0  0
  8  1  1  0  0  0  0
 12  4  1  0  0  0  0
 13 22  1  0  0  0  0
 13 14  1  0  0  0  0
 14 15  2  0  0  0  0
 14 16  1  0  0  0  0
 16 24  1  0  0  0  0
 16 17  1  0  0  0  0
 17 27  1  0  0  0  0
 17 18  1  0  0  0  0
 18 20  1  0  0  0  0
 18 28  1  1  0  0  0
 19 18  1  0  0  0  0
 19  5  1  0  0  0  0
 20 21  2  0  0  0  0
 20 30  1  0  0  0  0
 23 13  1  0  0  0  0
 25 16  1  0  0  0  0
 26 17  1  0  0  0  0
 29 19  1  0  0  0  0
 30 31  1  0  0  0  0
 31 38  1  1  0  0  0
 31 34  1  0  0  0  0
 32 39  1  0  0  0  0
 32 31  1  0  0  0  0
 33 32  1  0  0  0  0
 34 36  2  0  0  0  0
 34 35  1  0  0  0  0
 37 30  1  0  0  0  0
 40 32  1  0  0  0  0
 41 33  1  0  0  0  0
M  END
$$$$
