CQH.pdb
 OpenBabel07022418273D

 47 47  0  0  1  0  0  0  0  0999 V2000
    4.2000   -3.7460    1.2630 N   0  0  0  0  0  0  0  0  0  0  0  0
    3.3330   -2.8420    0.5240 C   0  0  1  0  0  0  0  0  0  0  0  0
    1.9980   -3.4980    0.2410 C   0  0  0  0  0  0  0  0  0  0  0  0
    2.1470   -4.9990   -0.7310 S   0  0  0  0  0  0  0  0  0  0  0  0
    3.0610   -1.6490    1.3700 C   0  0  0  0  0  0  0  0  0  0  0  0
    3.5600   -1.5500    2.5310 O   0  0  0  0  0  0  0  0  0  0  0  0
    4.0730   -4.7280    0.9880 H   0  0  0  0  0  0  0  0  0  0  0  0
    4.1110   -3.5640    2.2840 H   0  0  0  0  0  0  0  0  0  0  0  0
    3.8150   -2.5700   -0.4440 H   0  0  0  0  0  0  0  0  0  0  0  0
    1.5480   -3.7490    1.2260 H   0  0  0  0  0  0  0  0  0  0  0  0
    1.3890   -2.7680   -0.3300 H   0  0  0  0  0  0  0  0  0  0  0  0
    0.8990   -5.2670   -1.3260 H   0  0  0  0  0  0  0  0  0  0  0  0
    1.3900    3.8270   -2.0780 N   0  0  0  0  0  0  0  0  0  0  0  0
    1.9580    3.3670   -0.8590 C   0  0  0  0  0  0  0  0  0  0  0  0
    2.8210    4.1030   -0.3140 O   0  0  0  0  0  0  0  0  0  0  0  0
    1.5670    2.0760   -0.2380 C   0  0  0  0  0  0  0  0  0  0  0  0
    2.3240    1.8560    1.0290 C   0  0  0  0  0  0  0  0  0  0  0  0
    1.9720    0.5570    1.7120 C   0  0  2  0  0  0  0  0  0  0  0  0
    2.2350   -0.5910    0.9010 N   0  0  0  0  0  0  0  0  0  0  0  0
    0.5040    0.6060    1.9920 C   0  0  0  0  0  0  0  0  0  0  0  0
    0.0310    1.5560    2.7060 O   0  0  0  0  0  0  0  0  0  0  0  0
    0.7070    4.6160   -2.0690 H   0  0  0  0  0  0  0  0  0  0  0  0
    1.6330    3.3990   -3.0010 H   0  0  0  0  0  0  0  0  0  0  0  0
    1.8160    1.2760   -0.9820 H   0  0  0  0  0  0  0  0  0  0  0  0
    0.4710    2.0510   -0.1150 H   0  0  0  0  0  0  0  0  0  0  0  0
    2.1690    2.6940    1.7240 H   0  0  0  0  0  0  0  0  0  0  0  0
    3.4020    1.8170    0.7880 H   0  0  0  0  0  0  0  0  0  0  0  0
    2.4930    0.4520    2.6760 H   0  0  0  0  0  0  0  0  0  0  0  0
    1.8330   -0.6980   -0.0670 H   0  0  0  0  0  0  0  0  0  0  0  0
   -0.3740   -0.3780    1.4820 N   0  0  0  0  0  0  0  0  0  0  0  0
   -1.8020   -0.3850    1.7170 C   0  0  1  0  0  0  0  0  0  0  0  0
   -2.4480   -0.3390    0.3450 C   0  0  0  0  0  0  0  0  0  0  0  0
   -3.9170   -0.3460    0.4900 C   0  0  0  0  0  0  0  0  0  0  0  0
   -4.7320   -1.4550    0.4990 C   0  0  0  0  0  0  0  0  0  0  0  0
   -6.0180   -1.0820    0.6350 N   0  0  0  0  0  0  0  0  0  0  0  0
   -6.0350    0.2550    0.7140 C   0  0  0  0  0  0  0  0  0  0  0  0
   -4.7480    0.7000    0.6250 N   0  0  0  0  0  0  0  0  0  0  0  0
   -2.1710   -1.6060    2.4580 C   0  0  0  0  0  0  0  0  0  0  0  0
   -3.3410   -1.8700    2.8350 O   0  0  0  0  0  0  0  0  0  0  0  0
   -1.1830   -2.5450    2.7730 O   0  0  0  0  0  0  0  0  0  0  0  0
    0.0160   -1.1440    0.9050 H   0  0  0  0  0  0  0  0  0  0  0  0
   -2.1220    0.4730    2.3440 H   0  0  0  0  0  0  0  0  0  0  0  0
   -2.1530    0.5590   -0.2200 H   0  0  0  0  0  0  0  0  0  0  0  0
   -2.1100   -1.2050   -0.2670 H   0  0  0  0  0  0  0  0  0  0  0  0
   -4.3850   -2.4900    0.4030 H   0  0  0  0  0  0  0  0  0  0  0  0
   -6.8260   -1.7310    0.6690 H   0  0  0  0  0  0  0  0  0  0  0  0
   -6.8900    0.9100    0.8270 H   0  0  0  0  0  0  0  0  0  0  0  0
  1  8  1  0  0  0  0
  2  9  1  6  0  0  0
  2  1  1  0  0  0  0
  2  5  1  0  0  0  0
  3  2  1  0  0  0  0
  3 10  1  0  0  0  0
  4  3  1  0  0  0  0
  5  6  2  0  0  0  0
  7  1  1  0  0  0  0
 11  3  1  0  0  0  0
 12  4  1  0  0  0  0
 13 22  1  0  0  0  0
 13 14  1  0  0  0  0
 14 15  2  0  0  0  0
 14 16  1  0  0  0  0
 16 25  1  0  0  0  0
 16 17  1  0  0  0  0
 17 18  1  0  0  0  0
 17 26  1  0  0  0  0
 18 20  1  0  0  0  0
 18 28  1  1  0  0  0
 19  5  1  0  0  0  0
 19 18  1  0  0  0  0
 20 21  2  0  0  0  0
 23 13  1  0  0  0  0
 24 16  1  0  0  0  0
 27 17  1  0  0  0  0
 29 19  1  0  0  0  0
 30 31  1  0  0  0  0
 30 20  1  0  0  0  0
 31 42  1  1  0  0  0
 31 38  1  0  0  0  0
 32 33  1  0  0  0  0
 32 31  1  0  0  0  0
 33 34  2  0  0  0  0
 33 37  1  0  0  0  0
 34 35  1  0  0  0  0
 35 46  1  0  0  0  0
 35 36  1  0  0  0  0
 36 47  1  0  0  0  0
 37 36  2  0  0  0  0
 38 40  2  0  0  0  0
 38 39  1  0  0  0  0
 41 30  1  0  0  0  0
 43 32  1  0  0  0  0
 44 32  1  0  0  0  0
 45 34  1  0  0  0  0
M  END
$$$$
