CQL.pdb
 OpenBabel07022418273D

 49 48  0  0  1  0  0  0  0  0999 V2000
   -0.4170   -0.6180    4.0430 N   0  0  0  0  0  0  0  0  0  0  0  0
    0.3540    0.5920    4.0740 C   0  0  1  0  0  0  0  0  0  0  0  0
    1.2260    0.6210    5.3000 C   0  0  0  0  0  0  0  0  0  0  0  0
    0.2260    0.5430    6.8170 S   0  0  0  0  0  0  0  0  0  0  0  0
    1.2590    0.6250    2.8820 C   0  0  0  0  0  0  0  0  0  0  0  0
    2.0670    1.5770    2.7350 O   0  0  0  0  0  0  0  0  0  0  0  0
   -0.3760   -1.1450    4.9290 H   0  0  0  0  0  0  0  0  0  0  0  0
   -1.3410   -0.5320    3.6080 H   0  0  0  0  0  0  0  0  0  0  0  0
   -0.3250    1.4730    4.0720 H   0  0  0  0  0  0  0  0  0  0  0  0
    1.8530    1.5480    5.2990 H   0  0  0  0  0  0  0  0  0  0  0  0
    1.9080   -0.2270    5.3000 H   0  0  0  0  0  0  0  0  0  0  0  0
   -0.0760   -0.8310    7.0230 H   0  0  0  0  0  0  0  0  0  0  0  0
    3.8080   -1.8790   -2.9450 N   0  0  0  0  0  0  0  0  0  0  0  0
    3.2490   -2.1780   -1.6760 C   0  0  0  0  0  0  0  0  0  0  0  0
    2.1260   -2.7930   -1.6930 O   0  0  0  0  0  0  0  0  0  0  0  0
    3.8810   -1.8300   -0.4070 C   0  0  0  0  0  0  0  0  0  0  0  0
    2.9630   -1.6070    0.7440 C   0  0  0  0  0  0  0  0  0  0  0  0
    2.0810   -0.4320    0.7160 C   0  0  2  0  0  0  0  0  0  0  0  0
    1.2120   -0.4070    1.9200 N   0  0  0  0  0  0  0  0  0  0  0  0
    1.3000   -0.1350   -0.4830 C   0  0  0  0  0  0  0  0  0  0  0  0
    1.7390    0.0830   -1.6350 O   0  0  0  0  0  0  0  0  0  0  0  0
    3.4850   -1.0500   -3.5050 H   0  0  0  0  0  0  0  0  0  0  0  0
    4.5620   -2.4610   -3.3870 H   0  0  0  0  0  0  0  0  0  0  0  0
    4.5600   -0.9290   -0.5130 H   0  0  0  0  0  0  0  0  0  0  0  0
    4.6190   -2.6560   -0.1760 H   0  0  0  0  0  0  0  0  0  0  0  0
    2.3940   -2.5620    0.9490 H   0  0  0  0  0  0  0  0  0  0  0  0
    3.6120   -1.5080    1.6770 H   0  0  0  0  0  0  0  0  0  0  0  0
    2.7430    0.4820    0.8820 H   0  0  0  0  0  0  0  0  0  0  0  0
    0.5220   -1.1790    2.0870 H   0  0  0  0  0  0  0  0  0  0  0  0
   -3.6400   -0.3070   -0.1150 C   0  0  0  0  0  0  0  0  0  0  0  0
   -2.7280   -1.3770   -0.6110 C   0  0  0  0  0  0  0  0  0  0  0  0
   -3.5490   -2.6220   -0.8980 C   0  0  0  0  0  0  0  0  0  0  0  0
   -1.9030   -0.9600   -1.7790 C   0  0  0  0  0  0  0  0  0  0  0  0
   -1.0190    0.2060   -1.4610 C   0  0  2  0  0  0  0  0  0  0  0  0
   -0.1260   -0.0730   -0.3830 N   0  0  0  0  0  0  0  0  0  0  0  0
   -1.7250    1.4720   -1.4450 C   0  0  0  0  0  0  0  0  0  0  0  0
   -2.5240    1.7300   -2.3790 O   0  0  0  0  0  0  0  0  0  0  0  0
   -1.5880    2.4420   -0.4680 O   0  0  0  0  0  0  0  0  0  0  0  0
   -4.4200   -0.8280    0.5100 H   0  0  0  0  0  0  0  0  0  0  0  0
   -4.2050    0.1770   -0.9240 H   0  0  0  0  0  0  0  0  0  0  0  0
   -3.1120    0.4420    0.5220 H   0  0  0  0  0  0  0  0  0  0  0  0
   -2.0090   -1.6840    0.1940 H   0  0  0  0  0  0  0  0  0  0  0  0
   -4.4470   -2.5800   -0.2450 H   0  0  0  0  0  0  0  0  0  0  0  0
   -3.8980   -2.6580   -1.9430 H   0  0  0  0  0  0  0  0  0  0  0  0
   -2.9960   -3.5560   -0.6020 H   0  0  0  0  0  0  0  0  0  0  0  0
   -1.3040   -1.8310   -2.1820 H   0  0  0  0  0  0  0  0  0  0  0  0
   -2.5730   -0.6790   -2.6490 H   0  0  0  0  0  0  0  0  0  0  0  0
   -0.3200    0.2820   -2.3800 H   0  0  0  0  0  0  0  0  0  0  0  0
   -0.5500   -0.2460    0.5600 H   0  0  0  0  0  0  0  0  0  0  0  0
  1  2  1  0  0  0  0
  1  7  1  0  0  0  0
  2  9  1  6  0  0  0
  2  3  1  0  0  0  0
  3  4  1  0  0  0  0
  4 12  1  0  0  0  0
  5  2  1  0  0  0  0
  6  5  2  0  0  0  0
  8  1  1  0  0  0  0
 10  3  1  0  0  0  0
 11  3  1  0  0  0  0
 13 14  1  0  0  0  0
 14 16  1  0  0  0  0
 15 14  2  0  0  0  0
 16 25  1  0  0  0  0
 16 17  1  0  0  0  0
 17 26  1  0  0  0  0
 17 27  1  0  0  0  0
 18 17  1  0  0  0  0
 18 28  1  1  0  0  0
 18 19  1  0  0  0  0
 19 29  1  0  0  0  0
 19  5  1  0  0  0  0
 20 35  1  0  0  0  0
 20 18  1  0  0  0  0
 21 20  2  0  0  0  0
 22 13  1  0  0  0  0
 23 13  1  0  0  0  0
 24 16  1  0  0  0  0
 30 39  1  0  0  0  0
 30 41  1  0  0  0  0
 31 30  1  0  0  0  0
 31 42  1  0  0  0  0
 32 31  1  0  0  0  0
 32 45  1  0  0  0  0
 32 43  1  0  0  0  0
 33 34  1  0  0  0  0
 33 31  1  0  0  0  0
 34 48  1  6  0  0  0
 34 36  1  0  0  0  0
 34 35  1  0  0  0  0
 35 49  1  0  0  0  0
 36 38  1  0  0  0  0
 37 36  2  0  0  0  0
 40 30  1  0  0  0  0
 44 32  1  0  0  0  0
 46 33  1  0  0  0  0
 47 33  1  0  0  0  0
M  END
$$$$
