CQP.pdb
 OpenBabel07022418273D

 44 44  0  0  1  0  0  0  0  0999 V2000
    1.2890   -3.4790    0.5620 N   0  0  0  0  0  0  0  0  0  0  0  0
    2.4890   -2.8400    0.9970 C   0  0  1  0  0  0  0  0  0  0  0  0
    3.6260   -3.3710    0.1140 C   0  0  0  0  0  0  0  0  0  0  0  0
    3.2450   -2.9550   -1.6100 S   0  0  0  0  0  0  0  0  0  0  0  0
    2.4260   -1.3660    0.9380 C   0  0  0  0  0  0  0  0  0  0  0  0
    3.4390   -0.7180    1.3030 O   0  0  0  0  0  0  0  0  0  0  0  0
    1.4530   -4.5050    0.5390 H   0  0  0  0  0  0  0  0  0  0  0  0
    0.4670   -3.3180    1.1820 H   0  0  0  0  0  0  0  0  0  0  0  0
    2.6650   -3.1380    2.0560 H   0  0  0  0  0  0  0  0  0  0  0  0
    3.7190   -4.4660    0.2300 H   0  0  0  0  0  0  0  0  0  0  0  0
    4.5710   -2.8640    0.3700 H   0  0  0  0  0  0  0  0  0  0  0  0
    2.3920   -3.8840   -2.2090 H   0  0  0  0  0  0  0  0  0  0  0  0
   -1.3860    0.6050   -3.9360 N   0  0  0  0  0  0  0  0  0  0  0  0
   -0.3330    0.9970   -3.0720 C   0  0  0  0  0  0  0  0  0  0  0  0
    0.5460    1.7580   -3.5480 O   0  0  0  0  0  0  0  0  0  0  0  0
   -0.2360    0.5490   -1.6610 C   0  0  0  0  0  0  0  0  0  0  0  0
    0.9930    1.1440   -1.0330 C   0  0  0  0  0  0  0  0  0  0  0  0
    1.1610    0.7330    0.4120 C   0  0  2  0  0  0  0  0  0  0  0  0
    1.2690   -0.6700    0.4860 N   0  0  0  0  0  0  0  0  0  0  0  0
    0.2010    1.3990    1.3080 C   0  0  0  0  0  0  0  0  0  0  0  0
    0.1680    2.6700    1.1220 O   0  0  0  0  0  0  0  0  0  0  0  0
   -1.2080   -0.0320   -4.7460 H   0  0  0  0  0  0  0  0  0  0  0  0
   -2.3640    0.9330   -3.7950 H   0  0  0  0  0  0  0  0  0  0  0  0
   -0.3120   -0.5310   -1.5540 H   0  0  0  0  0  0  0  0  0  0  0  0
   -1.1460    0.9780   -1.1470 H   0  0  0  0  0  0  0  0  0  0  0  0
    0.9370    2.2390   -1.0560 H   0  0  0  0  0  0  0  0  0  0  0  0
    1.9020    0.8300   -1.5710 H   0  0  0  0  0  0  0  0  0  0  0  0
    2.1680    1.1530    0.7240 H   0  0  0  0  0  0  0  0  0  0  0  0
    0.4640   -1.2690    0.1930 H   0  0  0  0  0  0  0  0  0  0  0  0
   -0.6200    0.8210    2.2750 N   0  0  0  0  0  0  0  0  0  0  0  0
   -1.5590    1.5790    3.1150 C   0  0  0  0  0  0  0  0  0  0  0  0
   -1.0990    1.1440    4.4910 C   0  0  0  0  0  0  0  0  0  0  0  0
   -0.8430   -0.3290    4.2570 C   0  0  0  0  0  0  0  0  0  0  0  0
   -0.8170   -0.5130    2.7380 C   0  0  1  0  0  0  0  0  0  0  0  0
   -2.0810   -1.1290    2.2650 C   0  0  0  0  0  0  0  0  0  0  0  0
   -2.3420   -2.3000    2.6290 O   0  0  0  0  0  0  0  0  0  0  0  0
   -2.9760   -0.4640    1.4430 O   0  0  0  0  0  0  0  0  0  0  0  0
   -1.4350    2.6710    2.9710 H   0  0  0  0  0  0  0  0  0  0  0  0
   -2.6070    1.3030    2.9190 H   0  0  0  0  0  0  0  0  0  0  0  0
   -0.1410    1.6540    4.6840 H   0  0  0  0  0  0  0  0  0  0  0  0
   -1.8620    1.3200    5.2690 H   0  0  0  0  0  0  0  0  0  0  0  0
    0.1230   -0.6430    4.6880 H   0  0  0  0  0  0  0  0  0  0  0  0
   -1.6420   -0.9690    4.6850 H   0  0  0  0  0  0  0  0  0  0  0  0
    0.0010   -1.2120    2.5190 H   0  0  0  0  0  0  0  0  0  0  0  0
  1  2  1  0  0  0  0
  1  8  1  0  0  0  0
  2  9  1  1  0  0  0
  3 10  1  0  0  0  0
  3 11  1  0  0  0  0
  3  2  1  0  0  0  0
  4  3  1  0  0  0  0
  5  2  1  0  0  0  0
  5  6  2  0  0  0  0
  7  1  1  0  0  0  0
 12  4  1  0  0  0  0
 13 23  1  0  0  0  0
 13 14  1  0  0  0  0
 14 16  1  0  0  0  0
 15 14  2  0  0  0  0
 16 24  1  0  0  0  0
 16 25  1  0  0  0  0
 16 17  1  0  0  0  0
 17 18  1  0  0  0  0
 18 19  1  0  0  0  0
 18 28  1  1  0  0  0
 18 20  1  0  0  0  0
 19  5  1  0  0  0  0
 20 30  1  0  0  0  0
 21 20  2  0  0  0  0
 22 13  1  0  0  0  0
 26 17  1  0  0  0  0
 27 17  1  0  0  0  0
 29 19  1  0  0  0  0
 30 34  1  0  0  0  0
 30 31  1  0  0  0  0
 31 32  1  0  0  0  0
 32 40  1  0  0  0  0
 32 41  1  0  0  0  0
 33 32  1  0  0  0  0
 33 43  1  0  0  0  0
 33 42  1  0  0  0  0
 34 44  1  6  0  0  0
 34 33  1  0  0  0  0
 35 36  1  0  0  0  0
 35 34  1  0  0  0  0
 37 35  2  0  0  0  0
 38 31  1  0  0  0  0
 39 31  1  0  0  0  0
M  END
$$$$
