CQR.pdb
 OpenBabel07022418273D

 53 52  0  0  1  0  0  0  0  0999 V2000
    3.1240   -2.7980    5.8040 N   0  0  0  0  0  0  0  0  0  0  0  0
    3.1600   -2.8540    4.3330 C   0  0  1  0  0  0  0  0  0  0  0  0
    2.8680   -4.2960    3.9650 C   0  0  0  0  0  0  0  0  0  0  0  0
    2.8670   -4.5980    2.1910 S   0  0  0  0  0  0  0  0  0  0  0  0
    2.1550   -1.9070    3.8100 C   0  0  0  0  0  0  0  0  0  0  0  0
    1.3990   -1.3210    4.6570 O   0  0  0  0  0  0  0  0  0  0  0  0
    3.4920   -3.6710    6.2350 H   0  0  0  0  0  0  0  0  0  0  0  0
    2.1240   -2.6030    6.0580 H   0  0  0  0  0  0  0  0  0  0  0  0
    4.1910   -2.6270    4.0130 H   0  0  0  0  0  0  0  0  0  0  0  0
    1.9010   -4.6440    4.3750 H   0  0  0  0  0  0  0  0  0  0  0  0
    3.6470   -4.9280    4.4300 H   0  0  0  0  0  0  0  0  0  0  0  0
    2.0010   -5.6770    1.8990 H   0  0  0  0  0  0  0  0  0  0  0  0
    3.8510    1.5110   -1.6510 N   0  0  0  0  0  0  0  0  0  0  0  0
    2.9890    1.4620   -0.4950 C   0  0  0  0  0  0  0  0  0  0  0  0
    2.6800    2.5550    0.0150 O   0  0  0  0  0  0  0  0  0  0  0  0
    2.5120    0.1330    0.0350 C   0  0  0  0  0  0  0  0  0  0  0  0
    1.6580    0.4320    1.2140 C   0  0  0  0  0  0  0  0  0  0  0  0
    1.0710   -0.7550    1.9120 C   0  0  2  0  0  0  0  0  0  0  0  0
    2.0470   -1.6710    2.4250 N   0  0  0  0  0  0  0  0  0  0  0  0
    0.0490   -1.4620    1.0980 C   0  0  0  0  0  0  0  0  0  0  0  0
    0.1450   -2.7080    0.9720 O   0  0  0  0  0  0  0  0  0  0  0  0
    3.7460    2.2410   -2.3890 H   0  0  0  0  0  0  0  0  0  0  0  0
    4.6150    0.8160   -1.7930 H   0  0  0  0  0  0  0  0  0  0  0  0
    2.0080   -0.4160   -0.7680 H   0  0  0  0  0  0  0  0  0  0  0  0
    3.4340   -0.4330    0.2820 H   0  0  0  0  0  0  0  0  0  0  0  0
    0.8010    1.0640    0.8630 H   0  0  0  0  0  0  0  0  0  0  0  0
    2.2250    1.0810    1.9090 H   0  0  0  0  0  0  0  0  0  0  0  0
    0.5130   -0.3320    2.8000 H   0  0  0  0  0  0  0  0  0  0  0  0
    2.6610   -2.1360    1.7130 H   0  0  0  0  0  0  0  0  0  0  0  0
   -2.2970    2.1410   -3.6610 N   0  0  0  0  0  0  0  0  0  0  0  0
   -3.4150    1.9490   -2.8040 C   0  0  0  0  0  0  0  0  0  0  0  0
   -4.6000    2.3690   -3.0760 N   0  0  0  0  0  0  0  0  0  0  0  0
   -3.2210    1.2420   -1.5540 N   0  0  0  0  0  0  0  0  0  0  0  0
   -4.3880    0.6450   -0.9720 C   0  0  0  0  0  0  0  0  0  0  0  0
   -4.1520   -0.2030    0.2080 C   0  0  0  0  0  0  0  0  0  0  0  0
   -3.4050   -1.4520    0.1090 C   0  0  0  0  0  0  0  0  0  0  0  0
   -2.0070   -1.5310   -0.3280 C   0  0  2  0  0  0  0  0  0  0  0  0
   -1.0350   -0.8090    0.4500 N   0  0  0  0  0  0  0  0  0  0  0  0
   -1.7680   -1.3910   -1.7790 C   0  0  0  0  0  0  0  0  0  0  0  0
   -2.5610   -1.9450   -2.5750 O   0  0  0  0  0  0  0  0  0  0  0  0
   -0.7010   -0.6740   -2.2720 O   0  0  0  0  0  0  0  0  0  0  0  0
   -2.5070    2.2710   -4.6840 H   0  0  0  0  0  0  0  0  0  0  0  0
   -1.3230    2.1590   -3.3480 H   0  0  0  0  0  0  0  0  0  0  0  0
   -4.7170    2.8830   -3.9940 H   0  0  0  0  0  0  0  0  0  0  0  0
   -2.2680    1.2310   -1.1330 H   0  0  0  0  0  0  0  0  0  0  0  0
   -5.0000    0.1260   -1.7600 H   0  0  0  0  0  0  0  0  0  0  0  0
   -5.0570    1.5280   -0.6990 H   0  0  0  0  0  0  0  0  0  0  0  0
   -5.1810   -0.4850    0.6320 H   0  0  0  0  0  0  0  0  0  0  0  0
   -3.7660    0.4620    1.0510 H   0  0  0  0  0  0  0  0  0  0  0  0
   -3.5570   -2.0160    1.0840 H   0  0  0  0  0  0  0  0  0  0  0  0
   -3.9970   -2.1250   -0.6130 H   0  0  0  0  0  0  0  0  0  0  0  0
   -1.7580   -2.6800   -0.1830 H   0  0  0  0  0  0  0  0  0  0  0  0
   -1.1030    0.2090    0.5660 H   0  0  0  0  0  0  0  0  0  0  0  0
  1  8  1  0  0  0  0
  1  7  1  0  0  0  0
  2  9  1  6  0  0  0
  2  1  1  0  0  0  0
  3  2  1  0  0  0  0
  3 10  1  0  0  0  0
  3 11  1  0  0  0  0
  4  3  1  0  0  0  0
  5  2  1  0  0  0  0
  5  6  2  0  0  0  0
 12  4  1  0  0  0  0
 13 14  1  0  0  0  0
 14 15  2  0  0  0  0
 14 16  1  0  0  0  0
 16 25  1  0  0  0  0
 16 17  1  0  0  0  0
 17 27  1  0  0  0  0
 17 18  1  0  0  0  0
 18 19  1  0  0  0  0
 18 28  1  1  0  0  0
 19  5  1  0  0  0  0
 20 18  1  0  0  0  0
 21 20  2  0  0  0  0
 22 13  1  0  0  0  0
 23 13  1  0  0  0  0
 24 16  1  0  0  0  0
 26 17  1  0  0  0  0
 29 19  1  0  0  0  0
 30 43  1  0  0  0  0
 30 31  1  0  0  0  0
 31 33  1  0  0  0  0
 32 31  2  0  0  0  0
 33 45  1  0  0  0  0
 33 34  1  0  0  0  0
 34 47  1  0  0  0  0
 34 35  1  0  0  0  0
 35 48  1  0  0  0  0
 35 49  1  0  0  0  0
 36 35  1  0  0  0  0
 36 50  1  0  0  0  0
 37 52  1  1  0  0  0
 37 36  1  0  0  0  0
 37 38  1  0  0  0  0
 38 53  1  0  0  0  0
 38 20  1  0  0  0  0
 39 37  1  0  0  0  0
 40 39  2  0  0  0  0
 41 39  1  0  0  0  0
 42 30  1  0  0  0  0
 44 32  1  0  0  0  0
 46 34  1  0  0  0  0
 51 36  1  0  0  0  0
M  END
$$$$
