CQS.pdb
 OpenBabel07022418273D

 41 40  0  0  1  0  0  0  0  0999 V2000
   -0.4730   -4.4300   -0.2470 N   0  0  0  0  0  0  0  0  0  0  0  0
   -0.9070   -3.0780   -0.0910 C   0  0  1  0  0  0  0  0  0  0  0  0
   -1.6810   -3.0140    1.2300 C   0  0  0  0  0  0  0  0  0  0  0  0
   -0.6170   -3.4990    2.6040 S   0  0  0  0  0  0  0  0  0  0  0  0
    0.2120   -2.1350   -0.1170 C   0  0  0  0  0  0  0  0  0  0  0  0
    1.3890   -2.6070   -0.2590 O   0  0  0  0  0  0  0  0  0  0  0  0
   -1.2360   -5.1040   -0.4420 H   0  0  0  0  0  0  0  0  0  0  0  0
    0.3200   -4.5260   -0.9420 H   0  0  0  0  0  0  0  0  0  0  0  0
   -1.5820   -2.8380   -0.9420 H   0  0  0  0  0  0  0  0  0  0  0  0
   -2.0900   -2.0130    1.4070 H   0  0  0  0  0  0  0  0  0  0  0  0
   -2.4930   -3.7890    1.1230 H   0  0  0  0  0  0  0  0  0  0  0  0
    0.7050   -3.0830    2.3770 H   0  0  0  0  0  0  0  0  0  0  0  0
    2.0860   -1.0470   -4.1290 N   0  0  0  0  0  0  0  0  0  0  0  0
    2.1440   -0.3350   -2.9080 C   0  0  0  0  0  0  0  0  0  0  0  0
    3.1580   -0.4600   -2.1940 O   0  0  0  0  0  0  0  0  0  0  0  0
    1.0390    0.5380   -2.4790 C   0  0  0  0  0  0  0  0  0  0  0  0
    1.1730    1.1320   -1.1230 C   0  0  0  0  0  0  0  0  0  0  0  0
    1.2390    0.1050   -0.0360 C   0  0  2  0  0  0  0  0  0  0  0  0
    0.0640   -0.7270    0.0050 N   0  0  0  0  0  0  0  0  0  0  0  0
    1.3920    0.7560    1.3140 C   0  0  0  0  0  0  0  0  0  0  0  0
    2.3430    1.5410    1.5410 O   0  0  0  0  0  0  0  0  0  0  0  0
    2.7840   -0.9210   -4.9060 H   0  0  0  0  0  0  0  0  0  0  0  0
    1.3190   -1.7340   -4.2800 H   0  0  0  0  0  0  0  0  0  0  0  0
    0.0690   -0.0110   -2.5600 H   0  0  0  0  0  0  0  0  0  0  0  0
    0.9730    1.4060   -3.2050 H   0  0  0  0  0  0  0  0  0  0  0  0
    2.1400    1.7110   -1.0680 H   0  0  0  0  0  0  0  0  0  0  0  0
    0.3670    1.8710   -0.9780 H   0  0  0  0  0  0  0  0  0  0  0  0
    2.1440   -0.5170   -0.1480 H   0  0  0  0  0  0  0  0  0  0  0  0
   -0.8850   -0.3400    0.1210 H   0  0  0  0  0  0  0  0  0  0  0  0
   -0.6270    3.0190    3.0520 O   0  0  0  0  0  0  0  0  0  0  0  0
   -0.5970    1.9920    3.9910 C   0  0  0  0  0  0  0  0  0  0  0  0
    0.5690    1.0980    3.6690 C   0  0  2  0  0  0  0  0  0  0  0  0
    0.4860    0.5100    2.3540 N   0  0  0  0  0  0  0  0  0  0  0  0
    0.8470    0.1200    4.7330 C   0  0  0  0  0  0  0  0  0  0  0  0
    0.9400    0.4990    5.9120 O   0  0  0  0  0  0  0  0  0  0  0  0
    1.0040   -1.2070    4.4210 O   0  0  0  0  0  0  0  0  0  0  0  0
    0.0110    3.7330    3.2370 H   0  0  0  0  0  0  0  0  0  0  0  0
   -1.5470    1.4620    4.0920 H   0  0  0  0  0  0  0  0  0  0  0  0
   -0.3820    2.4650    4.9730 H   0  0  0  0  0  0  0  0  0  0  0  0
    1.4790    1.7710    3.6370 H   0  0  0  0  0  0  0  0  0  0  0  0
   -0.3140   -0.1440    2.1830 H   0  0  0  0  0  0  0  0  0  0  0  0
  1  2  1  0  0  0  0
  2  9  1  6  0  0  0
  2  3  1  0  0  0  0
  3 10  1  0  0  0  0
  3  4  1  0  0  0  0
  5  2  1  0  0  0  0
  5 19  1  0  0  0  0
  6  5  2  0  0  0  0
  7  1  1  0  0  0  0
  8  1  1  0  0  0  0
 11  3  1  0  0  0  0
 12  4  1  0  0  0  0
 13 14  1  0  0  0  0
 14 16  1  0  0  0  0
 14 15  2  0  0  0  0
 16 17  1  0  0  0  0
 17 26  1  0  0  0  0
 17 27  1  0  0  0  0
 17 18  1  0  0  0  0
 18 28  1  6  0  0  0
 18 19  1  0  0  0  0
 18 20  1  0  0  0  0
 19 29  1  0  0  0  0
 20 21  2  0  0  0  0
 20 33  1  0  0  0  0
 22 13  1  0  0  0  0
 23 13  1  0  0  0  0
 24 16  1  0  0  0  0
 25 16  1  0  0  0  0
 30 37  1  0  0  0  0
 30 31  1  0  0  0  0
 31 38  1  0  0  0  0
 31 39  1  0  0  0  0
 32 40  1  6  0  0  0
 32 31  1  0  0  0  0
 32 34  1  0  0  0  0
 33 32  1  0  0  0  0
 34 35  1  0  0  0  0
 36 34  2  0  0  0  0
 41 33  1  0  0  0  0
M  END
$$$$
