CQT.pdb
 OpenBabel07022418273D

 44 43  0  0  1  0  0  0  0  0999 V2000
    0.5850   -5.3770    0.6640 N   0  0  0  0  0  0  0  0  0  0  0  0
    0.2690   -4.0640    0.1820 C   0  0  1  0  0  0  0  0  0  0  0  0
   -1.1640   -3.7250    0.5100 C   0  0  0  0  0  0  0  0  0  0  0  0
   -1.3650   -3.7900    2.3050 S   0  0  0  0  0  0  0  0  0  0  0  0
    1.2230   -3.0360    0.6740 C   0  0  0  0  0  0  0  0  0  0  0  0
    2.1420   -3.4370    1.4560 O   0  0  0  0  0  0  0  0  0  0  0  0
    1.1340   -5.9070   -0.0400 H   0  0  0  0  0  0  0  0  0  0  0  0
    1.1150   -5.3090    1.5630 H   0  0  0  0  0  0  0  0  0  0  0  0
    0.3980   -4.0830   -0.9390 H   0  0  0  0  0  0  0  0  0  0  0  0
   -1.8300   -4.4480    0.0090 H   0  0  0  0  0  0  0  0  0  0  0  0
   -1.3430   -2.6790    0.1630 H   0  0  0  0  0  0  0  0  0  0  0  0
   -0.1820   -3.2820    2.8870 H   0  0  0  0  0  0  0  0  0  0  0  0
    1.0280    2.1910   -2.5830 N   0  0  0  0  0  0  0  0  0  0  0  0
    1.6370    1.6500   -1.3760 C   0  0  0  0  0  0  0  0  0  0  0  0
    1.3840    2.3110   -0.3530 O   0  0  0  0  0  0  0  0  0  0  0  0
    2.4470    0.4460   -1.4700 C   0  0  0  0  0  0  0  0  0  0  0  0
    2.9760   -0.1970   -0.2680 C   0  0  0  0  0  0  0  0  0  0  0  0
    2.0480   -0.7170    0.7740 C   0  0  2  0  0  0  0  0  0  0  0  0
    1.1160   -1.6770    0.2900 N   0  0  0  0  0  0  0  0  0  0  0  0
    1.3820    0.2660    1.6350 C   0  0  0  0  0  0  0  0  0  0  0  0
    2.0500    1.1620    2.2770 O   0  0  0  0  0  0  0  0  0  0  0  0
    0.0180    2.0650   -2.7750 H   0  0  0  0  0  0  0  0  0  0  0  0
    1.6010    2.7130   -3.2730 H   0  0  0  0  0  0  0  0  0  0  0  0
    1.9960   -0.2990   -2.2070 H   0  0  0  0  0  0  0  0  0  0  0  0
    3.3690    0.7760   -2.0690 H   0  0  0  0  0  0  0  0  0  0  0  0
    3.7510    0.5040    0.1700 H   0  0  0  0  0  0  0  0  0  0  0  0
    3.6220   -1.0590   -0.6170 H   0  0  0  0  0  0  0  0  0  0  0  0
    2.7290   -1.3080    1.5030 H   0  0  0  0  0  0  0  0  0  0  0  0
    0.3170   -1.4660   -0.3540 H   0  0  0  0  0  0  0  0  0  0  0  0
   -1.5900    2.7820    0.8380 C   0  0  0  0  0  0  0  0  0  0  0  0
   -1.8890    1.8540    1.9470 C   0  0  1  0  0  0  0  0  0  0  0  0
   -2.8380    0.9150    1.5530 O   0  0  0  0  0  0  0  0  0  0  0  0
   -0.7240    1.1710    2.5910 C   0  0  2  0  0  0  0  0  0  0  0  0
   -0.0340    0.2340    1.7680 N   0  0  0  0  0  0  0  0  0  0  0  0
   -1.2890    0.4800    3.7810 C   0  0  0  0  0  0  0  0  0  0  0  0
   -1.9530    1.0740    4.6640 O   0  0  0  0  0  0  0  0  0  0  0  0
   -1.0570   -0.8760    3.8950 O   0  0  0  0  0  0  0  0  0  0  0  0
   -2.4790    3.4710    0.7280 H   0  0  0  0  0  0  0  0  0  0  0  0
   -0.7400    3.4610    1.0570 H   0  0  0  0  0  0  0  0  0  0  0  0
   -1.4930    2.2910   -0.1510 H   0  0  0  0  0  0  0  0  0  0  0  0
   -2.3890    2.4530    2.7640 H   0  0  0  0  0  0  0  0  0  0  0  0
   -3.1760    1.1000    0.6300 H   0  0  0  0  0  0  0  0  0  0  0  0
   -0.0250    1.9460    3.0260 H   0  0  0  0  0  0  0  0  0  0  0  0
   -0.5500   -0.5000    1.2410 H   0  0  0  0  0  0  0  0  0  0  0  0
  1  8  1  0  0  0  0
  2  9  1  6  0  0  0
  2  3  1  0  0  0  0
  2  1  1  0  0  0  0
  2  5  1  0  0  0  0
  3  4  1  0  0  0  0
  4 12  1  0  0  0  0
  5  6  2  0  0  0  0
  7  1  1  0  0  0  0
 10  3  1  0  0  0  0
 11  3  1  0  0  0  0
 13 14  1  0  0  0  0
 14 15  2  0  0  0  0
 16 14  1  0  0  0  0
 16 17  1  0  0  0  0
 17 26  1  0  0  0  0
 17 18  1  0  0  0  0
 18 28  1  1  0  0  0
 18 20  1  0  0  0  0
 19  5  1  0  0  0  0
 19 18  1  0  0  0  0
 20 34  1  0  0  0  0
 20 21  2  0  0  0  0
 22 13  1  0  0  0  0
 23 13  1  0  0  0  0
 24 16  1  0  0  0  0
 25 16  1  0  0  0  0
 27 17  1  0  0  0  0
 29 19  1  0  0  0  0
 30 39  1  0  0  0  0
 30 31  1  0  0  0  0
 31 33  1  0  0  0  0
 31 41  1  1  0  0  0
 32 31  1  0  0  0  0
 33 43  1  1  0  0  0
 33 35  1  0  0  0  0
 34 33  1  0  0  0  0
 35 37  2  0  0  0  0
 35 36  1  0  0  0  0
 38 30  1  0  0  0  0
 40 30  1  0  0  0  0
 42 32  1  0  0  0  0
 44 34  1  0  0  0  0
M  END
$$$$
