CQV.pdb
 OpenBabel07022418273D

 46 45  0  0  1  0  0  0  0  0999 V2000
    5.4030    0.0860    1.9110 N   0  0  0  0  0  0  0  0  0  0  0  0
    4.1690   -0.6170    2.0010 C   0  0  1  0  0  0  0  0  0  0  0  0
    3.6350   -0.5530    3.3980 C   0  0  0  0  0  0  0  0  0  0  0  0
    4.8190   -1.3080    4.5460 S   0  0  0  0  0  0  0  0  0  0  0  0
    3.1570   -0.1670    1.0060 C   0  0  0  0  0  0  0  0  0  0  0  0
    3.4260    0.7250    0.1690 O   0  0  0  0  0  0  0  0  0  0  0  0
    5.9360   -0.0770    1.0470 H   0  0  0  0  0  0  0  0  0  0  0  0
    5.9370    0.1900    2.7780 H   0  0  0  0  0  0  0  0  0  0  0  0
    4.3870   -1.7010    1.7480 H   0  0  0  0  0  0  0  0  0  0  0  0
    3.3880    0.4690    3.7440 H   0  0  0  0  0  0  0  0  0  0  0  0
    2.7010   -1.1470    3.4920 H   0  0  0  0  0  0  0  0  0  0  0  0
    4.6170   -2.7160    4.6210 H   0  0  0  0  0  0  0  0  0  0  0  0
    0.9820   -4.6200    0.9760 N   0  0  0  0  0  0  0  0  0  0  0  0
    1.3660   -3.5350    0.1390 C   0  0  0  0  0  0  0  0  0  0  0  0
    2.5750   -3.2220    0.0620 O   0  0  0  0  0  0  0  0  0  0  0  0
    0.3510   -2.8030   -0.6280 C   0  0  0  0  0  0  0  0  0  0  0  0
    0.6710   -1.4120   -1.0140 C   0  0  0  0  0  0  0  0  0  0  0  0
    0.8190   -0.4110    0.0930 C   0  0  2  0  0  0  0  0  0  0  0  0
    1.8540   -0.7730    1.0120 N   0  0  0  0  0  0  0  0  0  0  0  0
   -0.4800   -0.1590    0.7780 C   0  0  0  0  0  0  0  0  0  0  0  0
   -0.5140   -0.2540    2.0330 O   0  0  0  0  0  0  0  0  0  0  0  0
    1.4900   -4.8200    1.8570 H   0  0  0  0  0  0  0  0  0  0  0  0
    0.1740   -5.1990    0.6680 H   0  0  0  0  0  0  0  0  0  0  0  0
   -0.5890   -2.7500    0.0080 H   0  0  0  0  0  0  0  0  0  0  0  0
    0.1250   -3.4570   -1.5270 H   0  0  0  0  0  0  0  0  0  0  0  0
   -0.0360   -1.0300   -1.8080 H   0  0  0  0  0  0  0  0  0  0  0  0
    1.6680   -1.4080   -1.5630 H   0  0  0  0  0  0  0  0  0  0  0  0
    1.1200    0.5560   -0.4400 H   0  0  0  0  0  0  0  0  0  0  0  0
    1.6940   -1.4920    1.7660 H   0  0  0  0  0  0  0  0  0  0  0  0
   -3.7540    2.0410   -0.9160 C   0  0  0  0  0  0  0  0  0  0  0  0
   -3.4770    1.8050    0.5500 C   0  0  0  0  0  0  0  0  0  0  0  0
   -2.5260    2.8700    1.0100 C   0  0  0  0  0  0  0  0  0  0  0  0
   -2.9280    0.4180    0.8020 C   0  0  2  0  0  0  0  0  0  0  0  0
   -1.6800    0.1800    0.1030 N   0  0  0  0  0  0  0  0  0  0  0  0
   -3.9340   -0.6250    0.5020 C   0  0  0  0  0  0  0  0  0  0  0  0
   -3.6780   -1.5550   -0.2810 O   0  0  0  0  0  0  0  0  0  0  0  0
   -5.1670   -0.5490    1.1050 O   0  0  0  0  0  0  0  0  0  0  0  0
   -2.9700    2.6690   -1.4020 H   0  0  0  0  0  0  0  0  0  0  0  0
   -3.9260    1.0830   -1.4730 H   0  0  0  0  0  0  0  0  0  0  0  0
   -4.7020    2.6130   -0.9880 H   0  0  0  0  0  0  0  0  0  0  0  0
   -4.4160    1.8940    1.1020 H   0  0  0  0  0  0  0  0  0  0  0  0
   -1.4880    2.5380    0.7420 H   0  0  0  0  0  0  0  0  0  0  0  0
   -2.7420    3.7870    0.3900 H   0  0  0  0  0  0  0  0  0  0  0  0
   -2.6020    3.0900    2.0910 H   0  0  0  0  0  0  0  0  0  0  0  0
   -2.7240    0.3390    1.8890 H   0  0  0  0  0  0  0  0  0  0  0  0
   -1.6160    0.2530   -0.9540 H   0  0  0  0  0  0  0  0  0  0  0  0
  1  2  1  0  0  0  0
  1  8  1  0  0  0  0
  2  9  1  6  0  0  0
  2  3  1  0  0  0  0
  3 11  1  0  0  0  0
  3 10  1  0  0  0  0
  3  4  1  0  0  0  0
  4 12  1  0  0  0  0
  5 19  1  0  0  0  0
  5  2  1  0  0  0  0
  6  5  2  0  0  0  0
  7  1  1  0  0  0  0
 13 22  1  0  0  0  0
 14 13  1  0  0  0  0
 15 14  2  0  0  0  0
 16 24  1  0  0  0  0
 16 14  1  0  0  0  0
 17 16  1  0  0  0  0
 17 18  1  0  0  0  0
 18 28  1  6  0  0  0
 18 20  1  0  0  0  0
 18 19  1  0  0  0  0
 19 29  1  0  0  0  0
 20 21  2  0  0  0  0
 23 13  1  0  0  0  0
 25 16  1  0  0  0  0
 26 17  1  0  0  0  0
 27 17  1  0  0  0  0
 30 31  1  0  0  0  0
 31 33  1  0  0  0  0
 31 32  1  0  0  0  0
 31 41  1  0  0  0  0
 32 44  1  0  0  0  0
 33 45  1  1  0  0  0
 34 20  1  0  0  0  0
 34 33  1  0  0  0  0
 35 33  1  0  0  0  0
 35 37  1  0  0  0  0
 36 35  2  0  0  0  0
 38 30  1  0  0  0  0
 39 30  1  0  0  0  0
 40 30  1  0  0  0  0
 42 32  1  0  0  0  0
 43 32  1  0  0  0  0
 46 34  1  0  0  0  0
M  END
$$$$
