CQW.pdb
 OpenBabel07022418273D

 54 55  0  0  1  0  0  0  0  0999 V2000
    2.7260   -1.0270   -0.3330 N   0  0  0  0  0  0  0  0  0  0  0  0
    3.1540   -0.5770    0.9730 C   0  0  1  0  0  0  0  0  0  0  0  0
    4.4850    0.1130    0.8440 C   0  0  0  0  0  0  0  0  0  0  0  0
    4.4370    1.5440   -0.2420 S   0  0  0  0  0  0  0  0  0  0  0  0
    2.1200    0.2190    1.6250 C   0  0  0  0  0  0  0  0  0  0  0  0
    2.3780    0.6410    2.8050 O   0  0  0  0  0  0  0  0  0  0  0  0
    3.2400   -0.6110   -1.1160 H   0  0  0  0  0  0  0  0  0  0  0  0
    2.6220   -2.0650   -0.3820 H   0  0  0  0  0  0  0  0  0  0  0  0
    3.3250   -1.4900    1.5890 H   0  0  0  0  0  0  0  0  0  0  0  0
    5.1850   -0.6310    0.3830 H   0  0  0  0  0  0  0  0  0  0  0  0
    4.9180    0.3640    1.8260 H   0  0  0  0  0  0  0  0  0  0  0  0
    5.5460    2.3800    0.0850 H   0  0  0  0  0  0  0  0  0  0  0  0
    2.9580    4.1300    2.4580 N   0  0  0  0  0  0  0  0  0  0  0  0
    1.5830    3.7450    2.2720 C   0  0  0  0  0  0  0  0  0  0  0  0
    0.8340    3.7420    3.2780 O   0  0  0  0  0  0  0  0  0  0  0  0
    1.0430    3.3660    0.9650 C   0  0  0  0  0  0  0  0  0  0  0  0
   -0.2770    2.6690    1.1100 C   0  0  0  0  0  0  0  0  0  0  0  0
   -0.0750    1.3880    1.8800 C   0  0  2  0  0  0  0  0  0  0  0  0
    0.8730    0.5750    1.0980 N   0  0  0  0  0  0  0  0  0  0  0  0
   -1.3590    0.6520    2.0460 C   0  0  0  0  0  0  0  0  0  0  0  0
   -2.2970    1.1590    2.7060 O   0  0  0  0  0  0  0  0  0  0  0  0
    3.4760    4.6560    1.7330 H   0  0  0  0  0  0  0  0  0  0  0  0
    3.4780    3.8910    3.3320 H   0  0  0  0  0  0  0  0  0  0  0  0
    0.9690    4.2230    0.2600 H   0  0  0  0  0  0  0  0  0  0  0  0
    1.7380    2.6160    0.5260 H   0  0  0  0  0  0  0  0  0  0  0  0
   -1.0160    3.3210    1.6220 H   0  0  0  0  0  0  0  0  0  0  0  0
   -0.6590    2.3530    0.0970 H   0  0  0  0  0  0  0  0  0  0  0  0
    0.3250    1.6110    2.8740 H   0  0  0  0  0  0  0  0  0  0  0  0
    0.6290    0.2550    0.1480 H   0  0  0  0  0  0  0  0  0  0  0  0
   -1.5370   -0.6270    1.4610 N   0  0  0  0  0  0  0  0  0  0  0  0
   -2.7910   -1.3880    1.6020 C   0  0  1  0  0  0  0  0  0  0  0  0
   -3.5170   -1.4340    0.2970 C   0  0  0  0  0  0  0  0  0  0  0  0
   -2.7570   -2.0330   -0.8250 C   0  0  0  0  0  0  0  0  0  0  0  0
   -2.0410   -1.2840   -1.7770 C   0  0  0  0  0  0  0  0  0  0  0  0
   -1.4350   -2.1000   -2.6420 N   0  0  0  0  0  0  0  0  0  0  0  0
   -1.7290   -3.3700   -2.2940 C   0  0  0  0  0  0  0  0  0  0  0  0
   -1.3570   -4.5750   -2.8690 C   0  0  0  0  0  0  0  0  0  0  0  0
   -1.8060   -5.7510   -2.3200 C   0  0  0  0  0  0  0  0  0  0  0  0
   -2.6150   -5.7210   -1.2110 C   0  0  0  0  0  0  0  0  0  0  0  0
   -3.0040   -4.5360   -0.6130 C   0  0  0  0  0  0  0  0  0  0  0  0
   -2.5530   -3.3490   -1.1640 C   0  0  0  0  0  0  0  0  0  0  0  0
   -2.6260   -2.6580    2.2760 C   0  0  0  0  0  0  0  0  0  0  0  0
   -3.6540   -3.3220    2.5680 O   0  0  0  0  0  0  0  0  0  0  0  0
   -1.3960   -3.2090    2.6310 O   0  0  0  0  0  0  0  0  0  0  0  0
   -0.7930   -1.1000    0.8980 H   0  0  0  0  0  0  0  0  0  0  0  0
   -3.4350   -0.7290    2.2810 H   0  0  0  0  0  0  0  0  0  0  0  0
   -4.4400   -2.0360    0.4470 H   0  0  0  0  0  0  0  0  0  0  0  0
   -3.8480   -0.4040    0.0300 H   0  0  0  0  0  0  0  0  0  0  0  0
   -2.0230   -0.2000   -1.7560 H   0  0  0  0  0  0  0  0  0  0  0  0
   -0.8360   -1.8320   -3.4530 H   0  0  0  0  0  0  0  0  0  0  0  0
   -0.7250   -4.5470   -3.7340 H   0  0  0  0  0  0  0  0  0  0  0  0
   -1.5150   -6.7060   -2.7700 H   0  0  0  0  0  0  0  0  0  0  0  0
   -2.9650   -6.6550   -0.7840 H   0  0  0  0  0  0  0  0  0  0  0  0
   -3.6380   -4.5040    0.2340 H   0  0  0  0  0  0  0  0  0  0  0  0
  1  2  1  0  0  0  0
  2  9  1  1  0  0  0
  2  5  1  0  0  0  0
  3  2  1  0  0  0  0
  3 11  1  0  0  0  0
  4 12  1  0  0  0  0
  4  3  1  0  0  0  0
  5  6  2  0  0  0  0
  7  1  1  0  0  0  0
  8  1  1  0  0  0  0
 10  3  1  0  0  0  0
 13 23  1  0  0  0  0
 14 13  1  0  0  0  0
 14 15  2  0  0  0  0
 16 17  1  0  0  0  0
 16 14  1  0  0  0  0
 17 26  1  0  0  0  0
 17 18  1  0  0  0  0
 18 20  1  0  0  0  0
 18 28  1  1  0  0  0
 19  5  1  0  0  0  0
 19 18  1  0  0  0  0
 20 21  2  0  0  0  0
 22 13  1  0  0  0  0
 24 16  1  0  0  0  0
 25 16  1  0  0  0  0
 27 17  1  0  0  0  0
 29 19  1  0  0  0  0
 30 31  1  0  0  0  0
 30 20  1  0  0  0  0
 31 42  1  0  0  0  0
 31 46  1  1  0  0  0
 32 47  1  0  0  0  0
 32 31  1  0  0  0  0
 33 32  1  0  0  0  0
 34 49  1  0  0  0  0
 34 33  2  0  0  0  0
 35 36  1  0  0  0  0
 35 34  1  0  0  0  0
 36 41  1  0  0  0  0
 37 38  1  0  0  0  0
 37 36  2  0  0  0  0
 38 39  2  0  0  0  0
 39 53  1  0  0  0  0
 39 40  1  0  0  0  0
 40 54  1  0  0  0  0
 41 33  1  0  0  0  0
 41 40  2  0  0  0  0
 42 43  2  0  0  0  0
 42 44  1  0  0  0  0
 45 30  1  0  0  0  0
 48 32  1  0  0  0  0
 50 35  1  0  0  0  0
 51 37  1  0  0  0  0
 52 38  1  0  0  0  0
M  END
$$$$
