CQY.pdb
 OpenBabel07022418273D

 51 51  0  0  1  0  0  0  0  0999 V2000
    3.6770   -4.1210    0.5270 N   0  0  0  0  0  0  0  0  0  0  0  0
    2.6910   -3.1680    0.1020 C   0  0  1  0  0  0  0  0  0  0  0  0
    1.5390   -3.8790   -0.6160 C   0  0  0  0  0  0  0  0  0  0  0  0
    2.1310   -4.7630   -2.0660 S   0  0  0  0  0  0  0  0  0  0  0  0
    2.1750   -2.3490    1.2260 C   0  0  0  0  0  0  0  0  0  0  0  0
    2.6230   -2.5560    2.3830 O   0  0  0  0  0  0  0  0  0  0  0  0
    3.3220   -5.0820    0.6580 H   0  0  0  0  0  0  0  0  0  0  0  0
    4.5720   -4.0630    0.0050 H   0  0  0  0  0  0  0  0  0  0  0  0
    3.1640   -2.5130   -0.6770 H   0  0  0  0  0  0  0  0  0  0  0  0
    0.8070   -3.1050   -0.9200 H   0  0  0  0  0  0  0  0  0  0  0  0
    1.0350   -4.5330    0.1070 H   0  0  0  0  0  0  0  0  0  0  0  0
    3.2180   -4.0950   -2.6690 H   0  0  0  0  0  0  0  0  0  0  0  0
    4.7010    0.4320    1.1570 N   0  0  0  0  0  0  0  0  0  0  0  0
    3.3000    0.7080    1.0310 C   0  0  0  0  0  0  0  0  0  0  0  0
    2.7530    0.5360   -0.0800 O   0  0  0  0  0  0  0  0  0  0  0  0
    2.5020    1.1910    2.1680 C   0  0  0  0  0  0  0  0  0  0  0  0
    1.0650    0.8860    2.0110 C   0  0  0  0  0  0  0  0  0  0  0  0
    0.6630   -0.5530    1.9830 C   0  0  2  0  0  0  0  0  0  0  0  0
    1.1910   -1.3630    0.9460 N   0  0  0  0  0  0  0  0  0  0  0  0
   -0.8200   -0.5820    2.0500 C   0  0  0  0  0  0  0  0  0  0  0  0
   -1.3680    0.1070    2.9330 O   0  0  0  0  0  0  0  0  0  0  0  0
    5.2260    1.0170    1.8320 H   0  0  0  0  0  0  0  0  0  0  0  0
    5.1580   -0.3180    0.5960 H   0  0  0  0  0  0  0  0  0  0  0  0
    2.9200    0.8480    3.1460 H   0  0  0  0  0  0  0  0  0  0  0  0
    2.6880    2.3110    2.2010 H   0  0  0  0  0  0  0  0  0  0  0  0
    0.6230    1.3430    1.0770 H   0  0  0  0  0  0  0  0  0  0  0  0
    0.5210    1.4480    2.8310 H   0  0  0  0  0  0  0  0  0  0  0  0
    1.0190   -0.9560    3.0030 H   0  0  0  0  0  0  0  0  0  0  0  0
    0.8530   -1.2680   -0.0350 H   0  0  0  0  0  0  0  0  0  0  0  0
   -1.8360    4.4340   -0.8790 O   0  0  0  0  0  0  0  0  0  0  0  0
   -2.2960    3.1430   -0.6680 C   0  0  0  0  0  0  0  0  0  0  0  0
   -3.4580    2.9120    0.0390 C   0  0  0  0  0  0  0  0  0  0  0  0
   -3.8800    1.6060    0.2260 C   0  0  0  0  0  0  0  0  0  0  0  0
   -3.1750    0.5290   -0.2750 C   0  0  0  0  0  0  0  0  0  0  0  0
   -3.6040   -0.8700   -0.0900 C   0  0  0  0  0  0  0  0  0  0  0  0
   -2.9940   -1.4070    1.1850 C   0  0  2  0  0  0  0  0  0  0  0  0
   -1.5480   -1.3660    1.1360 N   0  0  0  0  0  0  0  0  0  0  0  0
   -3.3900   -2.8140    1.4280 C   0  0  0  0  0  0  0  0  0  0  0  0
   -4.6140   -3.0890    1.5080 O   0  0  0  0  0  0  0  0  0  0  0  0
   -2.0030    0.7720   -0.9880 C   0  0  0  0  0  0  0  0  0  0  0  0
   -1.5980    2.0620   -1.1640 C   0  0  0  0  0  0  0  0  0  0  0  0
   -2.4890   -3.8490    1.5720 O   0  0  0  0  0  0  0  0  0  0  0  0
   -1.6280    4.7810   -1.8180 H   0  0  0  0  0  0  0  0  0  0  0  0
   -4.0130    3.7540    0.4330 H   0  0  0  0  0  0  0  0  0  0  0  0
   -4.7980    1.4150    0.7850 H   0  0  0  0  0  0  0  0  0  0  0  0
   -4.7120   -0.8610    0.0570 H   0  0  0  0  0  0  0  0  0  0  0  0
   -3.4000   -1.4950   -0.9680 H   0  0  0  0  0  0  0  0  0  0  0  0
   -3.3330   -0.7520    2.0120 H   0  0  0  0  0  0  0  0  0  0  0  0
   -1.0200   -1.9240    0.4160 H   0  0  0  0  0  0  0  0  0  0  0  0
   -1.4580   -0.0700   -1.3750 H   0  0  0  0  0  0  0  0  0  0  0  0
   -0.6790    2.2590   -1.7240 H   0  0  0  0  0  0  0  0  0  0  0  0
  1  7  1  0  0  0  0
  2  9  1  6  0  0  0
  2  1  1  0  0  0  0
  2  5  1  0  0  0  0
  3  2  1  0  0  0  0
  3 11  1  0  0  0  0
  4  3  1  0  0  0  0
  5  6  2  0  0  0  0
  8  1  1  0  0  0  0
 10  3  1  0  0  0  0
 12  4  1  0  0  0  0
 13 22  1  0  0  0  0
 14 13  1  0  0  0  0
 14 16  1  0  0  0  0
 15 14  2  0  0  0  0
 16 25  1  0  0  0  0
 16 24  1  0  0  0  0
 17 16  1  0  0  0  0
 17 27  1  0  0  0  0
 18 17  1  0  0  0  0
 18 20  1  0  0  0  0
 18 28  1  1  0  0  0
 19  5  1  0  0  0  0
 19 18  1  0  0  0  0
 20 21  2  0  0  0  0
 23 13  1  0  0  0  0
 26 17  1  0  0  0  0
 29 19  1  0  0  0  0
 30 31  1  0  0  0  0
 31 32  1  0  0  0  0
 32 33  2  0  0  0  0
 32 44  1  0  0  0  0
 33 45  1  0  0  0  0
 34 35  1  0  0  0  0
 34 33  1  0  0  0  0
 35 46  1  0  0  0  0
 35 36  1  0  0  0  0
 36 38  1  0  0  0  0
 36 48  1  1  0  0  0
 37 36  1  0  0  0  0
 37 20  1  0  0  0  0
 38 39  2  0  0  0  0
 38 42  1  0  0  0  0
 40 34  2  0  0  0  0
 41 40  1  0  0  0  0
 41 31  2  0  0  0  0
 43 30  1  0  0  0  0
 47 35  1  0  0  0  0
 49 37  1  0  0  0  0
 50 40  1  0  0  0  0
 51 41  1  0  0  0  0
M  END
$$$$
