CRA.pdb
 OpenBabel07022418263D

 46 45  0  0  1  0  0  0  0  0999 V2000
    0.0510   -3.6320    2.2190 N   0  0  0  0  0  0  0  0  0  0  0  0
    0.8490   -3.1460    3.3460 C   0  0  1  0  0  0  0  0  0  0  0  0
    2.0570   -4.0140    3.5730 C   0  0  0  0  0  0  0  0  0  0  0  0
    3.1540   -4.0750    2.1460 S   0  0  0  0  0  0  0  0  0  0  0  0
    1.1750   -1.7270    3.1720 C   0  0  0  0  0  0  0  0  0  0  0  0
    1.8220   -1.0490    4.0190 O   0  0  0  0  0  0  0  0  0  0  0  0
    0.3060   -4.6450    2.1190 H   0  0  0  0  0  0  0  0  0  0  0  0
   -0.9640   -3.4850    2.3930 H   0  0  0  0  0  0  0  0  0  0  0  0
    0.2010   -3.2420    4.2410 H   0  0  0  0  0  0  0  0  0  0  0  0
    2.5930   -3.6870    4.4600 H   0  0  0  0  0  0  0  0  0  0  0  0
    1.6910   -5.0490    3.7520 H   0  0  0  0  0  0  0  0  0  0  0  0
    4.3350   -3.3840    2.4550 H   0  0  0  0  0  0  0  0  0  0  0  0
   -0.0820   -0.0840   -4.4990 N   0  0  0  0  0  0  0  0  0  0  0  0
    0.8030    0.5920   -3.6230 C   0  0  0  0  0  0  0  0  0  0  0  0
    0.6160    1.8190   -3.2810 N   0  0  0  0  0  0  0  0  0  0  0  0
    1.9480   -0.0660   -3.0820 N   0  0  0  0  0  0  0  0  0  0  0  0
    2.4560    0.4240   -1.8180 C   0  0  0  0  0  0  0  0  0  0  0  0
    1.4430    0.1100   -0.7060 C   0  0  0  0  0  0  0  0  0  0  0  0
    1.9570    0.6190    0.6230 C   0  0  0  0  0  0  0  0  0  0  0  0
    1.0430    0.3610    1.7620 C   0  0  2  0  0  0  0  0  0  0  0  0
    0.7630   -1.0310    2.0040 N   0  0  0  0  0  0  0  0  0  0  0  0
   -0.1900    1.1870    1.7500 C   0  0  0  0  0  0  0  0  0  0  0  0
   -0.2190    2.4250    1.5500 O   0  0  0  0  0  0  0  0  0  0  0  0
   -0.3570   -1.0810   -4.3770 H   0  0  0  0  0  0  0  0  0  0  0  0
   -0.4870    0.4430   -5.3170 H   0  0  0  0  0  0  0  0  0  0  0  0
   -0.1590    2.4240   -3.5860 H   0  0  0  0  0  0  0  0  0  0  0  0
    2.3800   -0.8590   -3.5890 H   0  0  0  0  0  0  0  0  0  0  0  0
    2.6230    1.5020   -1.8390 H   0  0  0  0  0  0  0  0  0  0  0  0
    3.4430   -0.0650   -1.5740 H   0  0  0  0  0  0  0  0  0  0  0  0
    1.4330   -1.0000   -0.6460 H   0  0  0  0  0  0  0  0  0  0  0  0
    0.5000    0.5550   -1.0040 H   0  0  0  0  0  0  0  0  0  0  0  0
    2.1350    1.7060    0.4920 H   0  0  0  0  0  0  0  0  0  0  0  0
    2.9490    0.1790    0.8710 H   0  0  0  0  0  0  0  0  0  0  0  0
    1.6090    0.7170    2.6790 H   0  0  0  0  0  0  0  0  0  0  0  0
    0.2170   -1.6050    1.2890 H   0  0  0  0  0  0  0  0  0  0  0  0
   -3.6240    0.5970    0.9480 C   0  0  0  0  0  0  0  0  0  0  0  0
   -2.7150    1.2370    1.9940 C   0  0  2  0  0  0  0  0  0  0  0  0
   -1.4370    0.5430    1.9800 N   0  0  0  0  0  0  0  0  0  0  0  0
   -3.3790    1.0790    3.3060 C   0  0  0  0  0  0  0  0  0  0  0  0
   -2.8320    0.4250    4.2140 O   0  0  0  0  0  0  0  0  0  0  0  0
   -4.6100    1.6540    3.5370 O   0  0  0  0  0  0  0  0  0  0  0  0
   -4.4870    0.0750    1.4240 H   0  0  0  0  0  0  0  0  0  0  0  0
   -3.0690   -0.1440    0.3540 H   0  0  0  0  0  0  0  0  0  0  0  0
   -4.0510    1.4120    0.3300 H   0  0  0  0  0  0  0  0  0  0  0  0
   -2.5310    2.3100    1.7650 H   0  0  0  0  0  0  0  0  0  0  0  0
   -1.4600   -0.4730    2.1490 H   0  0  0  0  0  0  0  0  0  0  0  0
  1  8  1  0  0  0  0
  1  2  1  0  0  0  0
  2  3  1  0  0  0  0
  2  9  1  1  0  0  0
  3 11  1  0  0  0  0
  3 10  1  0  0  0  0
  4 12  1  0  0  0  0
  4  3  1  0  0  0  0
  5  2  1  0  0  0  0
  5  6  2  0  0  0  0
  7  1  1  0  0  0  0
 13 24  1  0  0  0  0
 13 14  1  0  0  0  0
 14 15  2  0  0  0  0
 14 16  1  0  0  0  0
 16 17  1  0  0  0  0
 17 29  1  0  0  0  0
 17 18  1  0  0  0  0
 18 30  1  0  0  0  0
 18 19  1  0  0  0  0
 19 33  1  0  0  0  0
 19 20  1  0  0  0  0
 20 21  1  0  0  0  0
 20 34  1  1  0  0  0
 21  5  1  0  0  0  0
 22 20  1  0  0  0  0
 22 38  1  0  0  0  0
 23 22  2  0  0  0  0
 25 13  1  0  0  0  0
 26 15  1  0  0  0  0
 27 16  1  0  0  0  0
 28 17  1  0  0  0  0
 31 18  1  0  0  0  0
 32 19  1  0  0  0  0
 35 21  1  0  0  0  0
 36 42  1  0  0  0  0
 36 37  1  0  0  0  0
 37 45  1  6  0  0  0
 37 39  1  0  0  0  0
 38 37  1  0  0  0  0
 38 46  1  0  0  0  0
 39 41  2  0  0  0  0
 39 40  1  0  0  0  0
 43 36  1  0  0  0  0
 44 36  1  0  0  0  0
M  END
$$$$
