CRD.pdb
 OpenBabel07022418263D

 49 48  0  0  1  0  0  0  0  0999 V2000
    1.3010   -3.0180    5.4250 N   0  0  0  0  0  0  0  0  0  0  0  0
    1.5630   -2.8420    3.9850 C   0  0  1  0  0  0  0  0  0  0  0  0
    1.0880   -4.1130    3.3450 C   0  0  0  0  0  0  0  0  0  0  0  0
    1.3120   -4.2130    1.5770 S   0  0  0  0  0  0  0  0  0  0  0  0
    0.8990   -1.6120    3.5450 C   0  0  0  0  0  0  0  0  0  0  0  0
    0.2400   -0.9320    4.3950 O   0  0  0  0  0  0  0  0  0  0  0  0
    1.7950   -3.8750    5.7440 H   0  0  0  0  0  0  0  0  0  0  0  0
    1.5940   -2.1640    5.9510 H   0  0  0  0  0  0  0  0  0  0  0  0
    2.6580   -2.7040    3.8530 H   0  0  0  0  0  0  0  0  0  0  0  0
    1.6340   -4.9650    3.8100 H   0  0  0  0  0  0  0  0  0  0  0  0
    0.0130   -4.2490    3.6520 H   0  0  0  0  0  0  0  0  0  0  0  0
    2.6620   -4.3890    1.2650 H   0  0  0  0  0  0  0  0  0  0  0  0
    0.9350    3.5490   -3.0770 N   0  0  0  0  0  0  0  0  0  0  0  0
    1.5870    2.6710   -2.1650 C   0  0  0  0  0  0  0  0  0  0  0  0
    2.7840    3.0160   -1.7640 N   0  0  0  0  0  0  0  0  0  0  0  0
    0.9790    1.4730   -1.7000 N   0  0  0  0  0  0  0  0  0  0  0  0
    1.7180    0.4520   -1.0370 C   0  0  0  0  0  0  0  0  0  0  0  0
    2.2610    0.7670    0.2950 C   0  0  0  0  0  0  0  0  0  0  0  0
    1.3460    1.1130    1.3920 C   0  0  0  0  0  0  0  0  0  0  0  0
    0.3470    0.0550    1.7970 C   0  0  2  0  0  0  0  0  0  0  0  0
    0.9720   -1.1540    2.2160 N   0  0  0  0  0  0  0  0  0  0  0  0
   -0.7600   -0.0790    0.8250 C   0  0  0  0  0  0  0  0  0  0  0  0
   -1.3450    0.9750    0.4650 O   0  0  0  0  0  0  0  0  0  0  0  0
    0.5100    4.4480   -2.7490 H   0  0  0  0  0  0  0  0  0  0  0  0
    0.8870    3.2730   -4.1020 H   0  0  0  0  0  0  0  0  0  0  0  0
    3.2350    3.8880   -2.0970 H   0  0  0  0  0  0  0  0  0  0  0  0
   -0.0340    1.3570   -1.8650 H   0  0  0  0  0  0  0  0  0  0  0  0
    2.6040    0.2260   -1.7060 H   0  0  0  0  0  0  0  0  0  0  0  0
    1.1580   -0.5100   -1.0300 H   0  0  0  0  0  0  0  0  0  0  0  0
    2.9370   -0.0640    0.6040 H   0  0  0  0  0  0  0  0  0  0  0  0
    2.9650    1.6460    0.1680 H   0  0  0  0  0  0  0  0  0  0  0  0
    1.9840    1.2930    2.3070 H   0  0  0  0  0  0  0  0  0  0  0  0
    0.7870    2.0560    1.2550 H   0  0  0  0  0  0  0  0  0  0  0  0
   -0.1710    0.4730    2.7290 H   0  0  0  0  0  0  0  0  0  0  0  0
    1.4970   -1.7100    1.5190 H   0  0  0  0  0  0  0  0  0  0  0  0
   -1.1470   -1.3280    0.3230 N   0  0  0  0  0  0  0  0  0  0  0  0
   -2.2030   -1.5760   -0.5860 C   0  0  1  0  0  0  0  0  0  0  0  0
   -3.0470   -0.3720   -1.0030 C   0  0  0  0  0  0  0  0  0  0  0  0
   -3.7680    0.1690    0.1630 C   0  0  0  0  0  0  0  0  0  0  0  0
   -4.3710    1.2560    0.0860 O   0  0  0  0  0  0  0  0  0  0  0  0
   -1.9470   -2.4880   -1.6860 C   0  0  0  0  0  0  0  0  0  0  0  0
   -0.8440   -3.0600   -1.8730 O   0  0  0  0  0  0  0  0  0  0  0  0
   -3.7850   -0.5280    1.3550 O   0  0  0  0  0  0  0  0  0  0  0  0
   -2.9570   -2.7630   -2.5960 O   0  0  0  0  0  0  0  0  0  0  0  0
   -0.5770   -2.1890    0.6730 H   0  0  0  0  0  0  0  0  0  0  0  0
   -3.0140   -2.0980    0.1040 H   0  0  0  0  0  0  0  0  0  0  0  0
   -3.8110   -0.7850   -1.7040 H   0  0  0  0  0  0  0  0  0  0  0  0
   -2.4370    0.3880   -1.5330 H   0  0  0  0  0  0  0  0  0  0  0  0
   -4.3510   -0.2970    2.1590 H   0  0  0  0  0  0  0  0  0  0  0  0
  1  7  1  0  0  0  0
  1  8  1  0  0  0  0
  2  9  1  6  0  0  0
  2  1  1  0  0  0  0
  3 11  1  0  0  0  0
  3 10  1  0  0  0  0
  3  2  1  0  0  0  0
  4  3  1  0  0  0  0
  5  2  1  0  0  0  0
  5  6  2  0  0  0  0
 12  4  1  0  0  0  0
 13 24  1  0  0  0  0
 13 14  1  0  0  0  0
 14 15  2  0  0  0  0
 14 16  1  0  0  0  0
 16 17  1  0  0  0  0
 17 29  1  0  0  0  0
 17 18  1  0  0  0  0
 18 30  1  0  0  0  0
 18 19  1  0  0  0  0
 19 20  1  0  0  0  0
 19 32  1  0  0  0  0
 20 21  1  0  0  0  0
 20 34  1  1  0  0  0
 21  5  1  0  0  0  0
 22 20  1  0  0  0  0
 23 22  2  0  0  0  0
 25 13  1  0  0  0  0
 26 15  1  0  0  0  0
 27 16  1  0  0  0  0
 28 17  1  0  0  0  0
 31 18  1  0  0  0  0
 33 19  1  0  0  0  0
 35 21  1  0  0  0  0
 36 45  1  0  0  0  0
 36 22  1  0  0  0  0
 37 46  1  1  0  0  0
 37 36  1  0  0  0  0
 38 37  1  0  0  0  0
 38 39  1  0  0  0  0
 39 43  1  0  0  0  0
 40 39  2  0  0  0  0
 41 37  1  0  0  0  0
 42 41  1  0  0  0  0
 43 49  1  0  0  0  0
 44 41  2  0  0  0  0
 47 38  1  0  0  0  0
 48 38  1  0  0  0  0
M  END
$$$$
