CRE.pdb
 OpenBabel07022418263D

 52 51  0  0  1  0  0  0  0  0999 V2000
    2.1240   -2.9130    4.1820 N   0  0  0  0  0  0  0  0  0  0  0  0
    1.5830   -2.6930    2.8480 C   0  0  1  0  0  0  0  0  0  0  0  0
    0.6440   -3.8490    2.5680 C   0  0  0  0  0  0  0  0  0  0  0  0
    1.5130   -5.4370    2.6320 S   0  0  0  0  0  0  0  0  0  0  0  0
    0.8590   -1.3990    2.8870 C   0  0  0  0  0  0  0  0  0  0  0  0
    0.7710   -0.6900    3.9310 O   0  0  0  0  0  0  0  0  0  0  0  0
    2.2240   -3.9560    4.3460 H   0  0  0  0  0  0  0  0  0  0  0  0
    1.3860   -2.6080    4.8610 H   0  0  0  0  0  0  0  0  0  0  0  0
    2.3660   -2.6480    2.0710 H   0  0  0  0  0  0  0  0  0  0  0  0
   -0.1680   -3.8650    3.3270 H   0  0  0  0  0  0  0  0  0  0  0  0
    0.2100   -3.7740    1.5380 H   0  0  0  0  0  0  0  0  0  0  0  0
    2.8800   -5.1600    2.8030 H   0  0  0  0  0  0  0  0  0  0  0  0
    5.5580    3.8170   -0.8200 N   0  0  0  0  0  0  0  0  0  0  0  0
    4.1320    3.7250   -0.8850 C   0  0  0  0  0  0  0  0  0  0  0  0
    3.4900    4.4380   -1.7750 N   0  0  0  0  0  0  0  0  0  0  0  0
    3.4170    2.8760   -0.0020 N   0  0  0  0  0  0  0  0  0  0  0  0
    2.0430    2.4980   -0.2530 C   0  0  0  0  0  0  0  0  0  0  0  0
    1.5130    1.5860    0.8330 C   0  0  0  0  0  0  0  0  0  0  0  0
    0.0810    1.2140    0.5360 C   0  0  0  0  0  0  0  0  0  0  0  0
   -0.4960    0.2990    1.5970 C   0  0  2  0  0  0  0  0  0  0  0  0
    0.2380   -0.9320    1.7100 N   0  0  0  0  0  0  0  0  0  0  0  0
   -1.9120    0.0260    1.1580 C   0  0  0  0  0  0  0  0  0  0  0  0
   -2.7410    0.9270    0.9860 O   0  0  0  0  0  0  0  0  0  0  0  0
    6.0360    4.6350   -0.4100 H   0  0  0  0  0  0  0  0  0  0  0  0
    6.1670    3.0440   -1.1940 H   0  0  0  0  0  0  0  0  0  0  0  0
    2.4620    4.3850   -1.8380 H   0  0  0  0  0  0  0  0  0  0  0  0
    3.9020    2.5210    0.8460 H   0  0  0  0  0  0  0  0  0  0  0  0
    2.0310    1.9780   -1.2360 H   0  0  0  0  0  0  0  0  0  0  0  0
    1.4370    3.4330   -0.3390 H   0  0  0  0  0  0  0  0  0  0  0  0
    1.5120    2.1530    1.7930 H   0  0  0  0  0  0  0  0  0  0  0  0
    2.1770    0.7300    0.9160 H   0  0  0  0  0  0  0  0  0  0  0  0
    0.0380    0.7330   -0.4680 H   0  0  0  0  0  0  0  0  0  0  0  0
   -0.5530    2.1160    0.4690 H   0  0  0  0  0  0  0  0  0  0  0  0
   -0.5230    0.8610    2.5530 H   0  0  0  0  0  0  0  0  0  0  0  0
    0.3180   -1.5250    0.8550 H   0  0  0  0  0  0  0  0  0  0  0  0
   -2.3040   -1.3230    0.9370 N   0  0  0  0  0  0  0  0  0  0  0  0
   -3.6380   -1.7130    0.5130 C   0  0  1  0  0  0  0  0  0  0  0  0
   -3.4880   -2.5080   -0.7770 C   0  0  0  0  0  0  0  0  0  0  0  0
   -2.8250   -1.6130   -1.8020 C   0  0  0  0  0  0  0  0  0  0  0  0
   -2.6880   -2.4040   -3.0500 C   0  0  0  0  0  0  0  0  0  0  0  0
   -1.7600   -3.2380   -3.1730 O   0  0  0  0  0  0  0  0  0  0  0  0
   -4.1860   -2.6480    1.5290 C   0  0  0  0  0  0  0  0  0  0  0  0
   -3.5500   -2.9940    2.5480 O   0  0  0  0  0  0  0  0  0  0  0  0
   -3.6070   -2.1960   -4.0640 O   0  0  0  0  0  0  0  0  0  0  0  0
   -5.4690   -3.1940    1.3840 O   0  0  0  0  0  0  0  0  0  0  0  0
   -1.6210   -2.0990    1.0780 H   0  0  0  0  0  0  0  0  0  0  0  0
   -4.3130   -0.8500    0.3850 H   0  0  0  0  0  0  0  0  0  0  0  0
   -2.8320   -3.3700   -0.5370 H   0  0  0  0  0  0  0  0  0  0  0  0
   -4.4850   -2.8390   -1.0990 H   0  0  0  0  0  0  0  0  0  0  0  0
   -1.8540   -1.2330   -1.4440 H   0  0  0  0  0  0  0  0  0  0  0  0
   -3.4730   -0.7390   -1.9730 H   0  0  0  0  0  0  0  0  0  0  0  0
   -3.3750   -2.4470   -5.0370 H   0  0  0  0  0  0  0  0  0  0  0  0
  1  7  1  0  0  0  0
  1  8  1  0  0  0  0
  2  9  1  6  0  0  0
  2  5  1  0  0  0  0
  2  1  1  0  0  0  0
  3  4  1  0  0  0  0
  3  2  1  0  0  0  0
  3 10  1  0  0  0  0
  4 12  1  0  0  0  0
  5  6  2  0  0  0  0
 11  3  1  0  0  0  0
 13 24  1  0  0  0  0
 14 13  1  0  0  0  0
 14 16  1  0  0  0  0
 15 14  2  0  0  0  0
 16 27  1  0  0  0  0
 17 16  1  0  0  0  0
 17 18  1  0  0  0  0
 18 31  1  0  0  0  0
 18 30  1  0  0  0  0
 19 18  1  0  0  0  0
 19 20  1  0  0  0  0
 20 21  1  0  0  0  0
 20 34  1  1  0  0  0
 21  5  1  0  0  0  0
 22 20  1  0  0  0  0
 23 22  2  0  0  0  0
 25 13  1  0  0  0  0
 26 15  1  0  0  0  0
 28 17  1  0  0  0  0
 29 17  1  0  0  0  0
 32 19  1  0  0  0  0
 33 19  1  0  0  0  0
 35 21  1  0  0  0  0
 36 46  1  0  0  0  0
 36 22  1  0  0  0  0
 37 47  1  6  0  0  0
 37 36  1  0  0  0  0
 37 42  1  0  0  0  0
 38 48  1  0  0  0  0
 38 37  1  0  0  0  0
 39 50  1  0  0  0  0
 39 38  1  0  0  0  0
 40 39  1  0  0  0  0
 41 40  2  0  0  0  0
 42 43  1  0  0  0  0
 44 40  1  0  0  0  0
 45 42  2  0  0  0  0
 49 38  1  0  0  0  0
 51 39  1  0  0  0  0
 52 44  1  0  0  0  0
M  END
$$$$
