CRF.pdb
 OpenBabel07022418263D

 56 56  0  0  1  0  0  0  0  0999 V2000
   -2.1390    0.6610    4.3470 N   0  0  0  0  0  0  0  0  0  0  0  0
   -1.1270   -0.2080    3.7190 C   0  0  1  0  0  0  0  0  0  0  0  0
   -1.6930   -1.5900    3.7410 C   0  0  0  0  0  0  0  0  0  0  0  0
   -0.5860   -2.8290    3.0270 S   0  0  0  0  0  0  0  0  0  0  0  0
   -0.8870    0.3210    2.3670 C   0  0  0  0  0  0  0  0  0  0  0  0
   -1.5500    1.3270    1.9770 O   0  0  0  0  0  0  0  0  0  0  0  0
   -3.0640    0.3540    3.9800 H   0  0  0  0  0  0  0  0  0  0  0  0
   -1.9400    1.6660    4.1630 H   0  0  0  0  0  0  0  0  0  0  0  0
   -0.2040   -0.1370    4.3360 H   0  0  0  0  0  0  0  0  0  0  0  0
   -2.6430   -1.5960    3.1570 H   0  0  0  0  0  0  0  0  0  0  0  0
   -1.9880   -1.8660    4.7740 H   0  0  0  0  0  0  0  0  0  0  0  0
   -0.8960   -4.0750    3.6220 H   0  0  0  0  0  0  0  0  0  0  0  0
    6.6900    0.5240    0.7600 N   0  0  0  0  0  0  0  0  0  0  0  0
    5.7350    1.5670    0.7090 C   0  0  0  0  0  0  0  0  0  0  0  0
    6.1080    2.7680    0.5100 N   0  0  0  0  0  0  0  0  0  0  0  0
    4.3380    1.3030    0.8790 N   0  0  0  0  0  0  0  0  0  0  0  0
    3.4100    2.4080    0.7360 C   0  0  0  0  0  0  0  0  0  0  0  0
    2.0030    1.9060    0.9420 C   0  0  0  0  0  0  0  0  0  0  0  0
    1.6540    0.8530   -0.0740 C   0  0  0  0  0  0  0  0  0  0  0  0
    0.2390    0.3570    0.1390 C   0  0  2  0  0  0  0  0  0  0  0  0
    0.0560   -0.2210    1.4400 N   0  0  0  0  0  0  0  0  0  0  0  0
   -0.0820   -0.5440   -0.9930 C   0  0  0  0  0  0  0  0  0  0  0  0
    0.0770   -0.0600   -2.1320 O   0  0  0  0  0  0  0  0  0  0  0  0
    6.8160   -0.0760   -0.0870 H   0  0  0  0  0  0  0  0  0  0  0  0
    7.2260    0.4010    1.6390 H   0  0  0  0  0  0  0  0  0  0  0  0
    5.4390    3.5700    0.4640 H   0  0  0  0  0  0  0  0  0  0  0  0
    4.0020    0.3440    1.1000 H   0  0  0  0  0  0  0  0  0  0  0  0
    3.4900    2.8380   -0.2940 H   0  0  0  0  0  0  0  0  0  0  0  0
    3.6560    3.2440    1.4190 H   0  0  0  0  0  0  0  0  0  0  0  0
    1.3180    2.7880    0.8200 H   0  0  0  0  0  0  0  0  0  0  0  0
    1.8750    1.5700    1.9790 H   0  0  0  0  0  0  0  0  0  0  0  0
    2.3740    0.0120   -0.0550 H   0  0  0  0  0  0  0  0  0  0  0  0
    1.7460    1.2940   -1.0920 H   0  0  0  0  0  0  0  0  0  0  0  0
   -0.4450    1.2500    0.0470 H   0  0  0  0  0  0  0  0  0  0  0  0
    0.6120   -1.0360    1.7170 H   0  0  0  0  0  0  0  0  0  0  0  0
   -0.5390   -1.8670   -0.8490 N   0  0  0  0  0  0  0  0  0  0  0  0
   -0.8300   -2.7190   -1.9370 C   0  0  1  0  0  0  0  0  0  0  0  0
   -2.1140   -2.4890   -2.6510 C   0  0  0  0  0  0  0  0  0  0  0  0
   -3.2450   -2.6580   -1.6740 C   0  0  0  0  0  0  0  0  0  0  0  0
   -3.7790   -3.9130   -1.5290 C   0  0  0  0  0  0  0  0  0  0  0  0
   -4.8160   -4.1020   -0.6440 C   0  0  0  0  0  0  0  0  0  0  0  0
   -5.3460   -3.0770    0.1110 C   0  0  0  0  0  0  0  0  0  0  0  0
   -4.7730   -1.8280   -0.0710 C   0  0  0  0  0  0  0  0  0  0  0  0
   -3.7400   -1.6190   -0.9470 C   0  0  0  0  0  0  0  0  0  0  0  0
    0.3170   -2.7220   -2.9170 C   0  0  0  0  0  0  0  0  0  0  0  0
    1.3910   -2.1260   -2.7580 O   0  0  0  0  0  0  0  0  0  0  0  0
    0.1520   -3.4560   -4.0960 O   0  0  0  0  0  0  0  0  0  0  0  0
   -0.6590   -2.2030    0.1310 H   0  0  0  0  0  0  0  0  0  0  0  0
   -0.7760   -3.7880   -1.5330 H   0  0  0  0  0  0  0  0  0  0  0  0
   -2.1800   -1.5310   -3.1740 H   0  0  0  0  0  0  0  0  0  0  0  0
   -2.2630   -3.2690   -3.4230 H   0  0  0  0  0  0  0  0  0  0  0  0
   -3.3780   -4.7630   -2.1180 H   0  0  0  0  0  0  0  0  0  0  0  0
   -5.2560   -5.0810   -0.5100 H   0  0  0  0  0  0  0  0  0  0  0  0
   -6.1720   -3.2290    0.8160 H   0  0  0  0  0  0  0  0  0  0  0  0
   -5.1780   -1.0090    0.5160 H   0  0  0  0  0  0  0  0  0  0  0  0
   -3.2950   -0.6200   -1.0790 H   0  0  0  0  0  0  0  0  0  0  0  0
  2  3  1  0  0  0  0
  2  9  1  1  0  0  0
  2  1  1  0  0  0  0
  3 11  1  0  0  0  0
  4 12  1  0  0  0  0
  4  3  1  0  0  0  0
  5  2  1  0  0  0  0
  6  5  2  0  0  0  0
  7  1  1  0  0  0  0
  8  1  1  0  0  0  0
 10  3  1  0  0  0  0
 13 25  1  0  0  0  0
 14 13  1  0  0  0  0
 14 16  1  0  0  0  0
 15 14  2  0  0  0  0
 16 27  1  0  0  0  0
 17 16  1  0  0  0  0
 17 18  1  0  0  0  0
 17 29  1  0  0  0  0
 18 31  1  0  0  0  0
 19 32  1  0  0  0  0
 19 20  1  0  0  0  0
 19 18  1  0  0  0  0
 20 34  1  6  0  0  0
 20 21  1  0  0  0  0
 21 35  1  0  0  0  0
 21  5  1  0  0  0  0
 22 36  1  0  0  0  0
 22 20  1  0  0  0  0
 23 22  2  0  0  0  0
 24 13  1  0  0  0  0
 26 15  1  0  0  0  0
 28 17  1  0  0  0  0
 30 18  1  0  0  0  0
 33 19  1  0  0  0  0
 36 48  1  0  0  0  0
 37 49  1  1  0  0  0
 37 36  1  0  0  0  0
 38 37  1  0  0  0  0
 38 39  1  0  0  0  0
 39 40  2  0  0  0  0
 39 44  1  0  0  0  0
 40 41  1  0  0  0  0
 41 53  1  0  0  0  0
 41 42  2  0  0  0  0
 42 54  1  0  0  0  0
 43 42  1  0  0  0  0
 43 55  1  0  0  0  0
 44 43  2  0  0  0  0
 45 46  1  0  0  0  0
 45 37  1  0  0  0  0
 47 45  2  0  0  0  0
 50 38  1  0  0  0  0
 51 38  1  0  0  0  0
 52 40  1  0  0  0  0
 56 44  1  0  0  0  0
M  END
$$$$
