CRG.pdb
 OpenBabel07022418263D

 43 42  0  0  1  0  0  0  0  0999 V2000
    2.9000   -3.5500    0.4470 N   0  0  0  0  0  0  0  0  0  0  0  0
    1.5830   -2.9260    0.3490 C   0  0  1  0  0  0  0  0  0  0  0  0
    0.5870   -3.8250    1.1040 C   0  0  0  0  0  0  0  0  0  0  0  0
    1.0820   -3.9700    2.8440 S   0  0  0  0  0  0  0  0  0  0  0  0
    1.5680   -1.6050    0.9910 C   0  0  0  0  0  0  0  0  0  0  0  0
    2.5310   -1.2890    1.7030 O   0  0  0  0  0  0  0  0  0  0  0  0
    2.8350   -4.3870   -0.2040 H   0  0  0  0  0  0  0  0  0  0  0  0
    3.5700   -2.8980   -0.0130 H   0  0  0  0  0  0  0  0  0  0  0  0
    1.2690   -2.9540   -0.6920 H   0  0  0  0  0  0  0  0  0  0  0  0
   -0.4270   -3.3900    1.0480 H   0  0  0  0  0  0  0  0  0  0  0  0
    0.5170   -4.8300    0.6360 H   0  0  0  0  0  0  0  0  0  0  0  0
    1.9820   -5.0360    3.0490 H   0  0  0  0  0  0  0  0  0  0  0  0
    1.6950   -1.2530   -2.6780 N   0  0  0  0  0  0  0  0  0  0  0  0
    1.1580   -0.0010   -2.2560 C   0  0  0  0  0  0  0  0  0  0  0  0
   -0.0940    0.1980   -2.1640 N   0  0  0  0  0  0  0  0  0  0  0  0
    2.0220    1.0970   -1.9600 N   0  0  0  0  0  0  0  0  0  0  0  0
    1.6170    2.2810   -1.3610 C   0  0  0  0  0  0  0  0  0  0  0  0
    1.3430    2.5420    0.0350 C   0  0  0  0  0  0  0  0  0  0  0  0
    0.4220    1.8950    0.9230 C   0  0  0  0  0  0  0  0  0  0  0  0
    0.4780    0.5660    1.4930 C   0  0  2  0  0  0  0  0  0  0  0  0
    0.4770   -0.6610    0.8360 N   0  0  0  0  0  0  0  0  0  0  0  0
   -0.6210    0.5560    2.5820 C   0  0  0  0  0  0  0  0  0  0  0  0
   -0.7610    1.5570    3.2960 O   0  0  0  0  0  0  0  0  0  0  0  0
    2.7090   -1.4540   -2.5500 H   0  0  0  0  0  0  0  0  0  0  0  0
    1.1100   -1.9950   -3.1190 H   0  0  0  0  0  0  0  0  0  0  0  0
   -0.5590    1.0570   -1.8720 H   0  0  0  0  0  0  0  0  0  0  0  0
    3.0530    0.9700   -2.2260 H   0  0  0  0  0  0  0  0  0  0  0  0
    0.6620    2.6770   -1.9530 H   0  0  0  0  0  0  0  0  0  0  0  0
    2.3570    3.0960   -1.7780 H   0  0  0  0  0  0  0  0  0  0  0  0
    1.0150    3.6840    0.0510 H   0  0  0  0  0  0  0  0  0  0  0  0
    2.3670    2.7370    0.5950 H   0  0  0  0  0  0  0  0  0  0  0  0
    0.2420    2.6020    1.8520 H   0  0  0  0  0  0  0  0  0  0  0  0
   -0.6410    2.0530    0.4390 H   0  0  0  0  0  0  0  0  0  0  0  0
    1.4110    0.5180    2.2090 H   0  0  0  0  0  0  0  0  0  0  0  0
   -0.2740   -1.0400    0.2070 H   0  0  0  0  0  0  0  0  0  0  0  0
   -1.4030   -0.5910    2.7010 N   0  0  0  0  0  0  0  0  0  0  0  0
   -2.4670   -0.7340    3.6700 C   0  0  0  0  0  0  0  0  0  0  0  0
   -3.5160    0.2800    3.4970 C   0  0  0  0  0  0  0  0  0  0  0  0
   -4.5070    0.2810    4.2610 O   0  0  0  0  0  0  0  0  0  0  0  0
   -3.4540    1.2510    2.5080 O   0  0  0  0  0  0  0  0  0  0  0  0
   -1.2160   -1.3880    2.0640 H   0  0  0  0  0  0  0  0  0  0  0  0
   -2.8910   -1.7510    3.5890 H   0  0  0  0  0  0  0  0  0  0  0  0
   -2.0310   -0.6360    4.6860 H   0  0  0  0  0  0  0  0  0  0  0  0
  2  9  1  6  0  0  0
  2  1  1  0  0  0  0
  2  5  1  0  0  0  0
  2  3  1  0  0  0  0
  3  4  1  0  0  0  0
  4 12  1  0  0  0  0
  5  6  2  0  0  0  0
  7  1  1  0  0  0  0
  8  1  1  0  0  0  0
 10  3  1  0  0  0  0
 11  3  1  0  0  0  0
 13 24  1  0  0  0  0
 13 14  1  0  0  0  0
 14 15  2  0  0  0  0
 14 16  1  0  0  0  0
 15 26  1  0  0  0  0
 16 17  1  0  0  0  0
 17 18  1  0  0  0  0
 18 30  1  0  0  0  0
 18 31  1  0  0  0  0
 18 19  1  0  0  0  0
 19 20  1  0  0  0  0
 19 32  1  0  0  0  0
 20 34  1  1  0  0  0
 20 22  1  0  0  0  0
 21  5  1  0  0  0  0
 21 20  1  0  0  0  0
 22 36  1  0  0  0  0
 22 23  2  0  0  0  0
 25 13  1  0  0  0  0
 27 16  1  0  0  0  0
 28 17  1  0  0  0  0
 29 17  1  0  0  0  0
 33 19  1  0  0  0  0
 35 21  1  0  0  0  0
 36 37  1  0  0  0  0
 37 43  1  0  0  0  0
 38 37  1  0  0  0  0
 38 39  1  0  0  0  0
 40 38  2  0  0  0  0
 41 36  1  0  0  0  0
 42 37  1  0  0  0  0
M  END
$$$$
