CRH.pdb
 OpenBabel07022418263D

 53 53  0  0  1  0  0  0  0  0999 V2000
    1.9670   -1.6950    5.5040 N   0  0  0  0  0  0  0  0  0  0  0  0
    2.0890   -1.6740    4.0790 C   0  0  1  0  0  0  0  0  0  0  0  0
    2.0050   -3.0900    3.5480 C   0  0  0  0  0  0  0  0  0  0  0  0
    3.3550   -4.0680    4.2690 S   0  0  0  0  0  0  0  0  0  0  0  0
    0.9350   -0.9160    3.4800 C   0  0  0  0  0  0  0  0  0  0  0  0
    0.0340   -0.3950    4.1790 O   0  0  0  0  0  0  0  0  0  0  0  0
    2.8860   -1.6300    6.0070 H   0  0  0  0  0  0  0  0  0  0  0  0
    1.4800   -2.5920    5.7920 H   0  0  0  0  0  0  0  0  0  0  0  0
    3.0200   -1.1850    3.7250 H   0  0  0  0  0  0  0  0  0  0  0  0
    1.0110   -3.5150    3.8670 H   0  0  0  0  0  0  0  0  0  0  0  0
    2.0000   -3.1360    2.4420 H   0  0  0  0  0  0  0  0  0  0  0  0
    4.2180   -4.5310    3.2340 H   0  0  0  0  0  0  0  0  0  0  0  0
    4.6450    1.1240   -0.3580 N   0  0  0  0  0  0  0  0  0  0  0  0
    3.8990    2.0730    0.3870 C   0  0  0  0  0  0  0  0  0  0  0  0
    4.3030    2.4330    1.5590 N   0  0  0  0  0  0  0  0  0  0  0  0
    2.6960    2.6350   -0.1600 N   0  0  0  0  0  0  0  0  0  0  0  0
    1.7410    3.1520    0.8060 C   0  0  0  0  0  0  0  0  0  0  0  0
    1.1330    2.0230    1.6170 C   0  0  0  0  0  0  0  0  0  0  0  0
    0.4250    1.0890    0.6290 C   0  0  0  0  0  0  0  0  0  0  0  0
   -0.2120   -0.0750    1.3890 C   0  0  2  0  0  0  0  0  0  0  0  0
    0.8400   -0.7720    2.0670 N   0  0  0  0  0  0  0  0  0  0  0  0
   -0.8910   -0.9240    0.3770 C   0  0  0  0  0  0  0  0  0  0  0  0
   -0.4740   -2.1160    0.2600 O   0  0  0  0  0  0  0  0  0  0  0  0
    5.4270    1.4740   -0.9430 H   0  0  0  0  0  0  0  0  0  0  0  0
    4.4260    0.1180   -0.3260 H   0  0  0  0  0  0  0  0  0  0  0  0
    5.1660    2.0340    1.9570 H   0  0  0  0  0  0  0  0  0  0  0  0
    2.5590    2.6500   -1.1860 H   0  0  0  0  0  0  0  0  0  0  0  0
    0.9750    3.7910    0.3480 H   0  0  0  0  0  0  0  0  0  0  0  0
    2.3330    3.8180    1.4910 H   0  0  0  0  0  0  0  0  0  0  0  0
    1.9590    1.4950    2.1200 H   0  0  0  0  0  0  0  0  0  0  0  0
    0.3740    2.4300    2.2890 H   0  0  0  0  0  0  0  0  0  0  0  0
    1.2090    0.7310   -0.0610 H   0  0  0  0  0  0  0  0  0  0  0  0
   -0.3170    1.6780    0.0750 H   0  0  0  0  0  0  0  0  0  0  0  0
   -0.9570    0.3410    2.1000 H   0  0  0  0  0  0  0  0  0  0  0  0
    1.6160   -1.2240    1.5130 H   0  0  0  0  0  0  0  0  0  0  0  0
   -1.9380   -0.4960   -0.4340 N   0  0  0  0  0  0  0  0  0  0  0  0
   -2.5580   -1.4030   -1.4110 C   0  0  1  0  0  0  0  0  0  0  0  0
   -4.0010   -1.6060   -1.1080 C   0  0  0  0  0  0  0  0  0  0  0  0
   -4.6350   -2.5180   -2.0730 C   0  0  0  0  0  0  0  0  0  0  0  0
   -4.7290   -3.9100   -1.9780 C   0  0  0  0  0  0  0  0  0  0  0  0
   -5.3830   -4.3970   -3.0540 N   0  0  0  0  0  0  0  0  0  0  0  0
   -5.7050   -3.3480   -3.8270 C   0  0  0  0  0  0  0  0  0  0  0  0
   -5.2520   -2.2270   -3.2270 N   0  0  0  0  0  0  0  0  0  0  0  0
   -2.4070   -0.8510   -2.7770 C   0  0  0  0  0  0  0  0  0  0  0  0
   -2.8170   -1.4850   -3.7680 O   0  0  0  0  0  0  0  0  0  0  0  0
   -1.8130    0.3730   -2.9930 O   0  0  0  0  0  0  0  0  0  0  0  0
   -2.3140    0.4630   -0.3800 H   0  0  0  0  0  0  0  0  0  0  0  0
   -2.0350   -2.3920   -1.3110 H   0  0  0  0  0  0  0  0  0  0  0  0
   -4.1230   -2.0020   -0.0750 H   0  0  0  0  0  0  0  0  0  0  0  0
   -4.5500   -0.6250   -1.2110 H   0  0  0  0  0  0  0  0  0  0  0  0
   -4.3080   -4.4380   -1.1280 H   0  0  0  0  0  0  0  0  0  0  0  0
   -5.5750   -5.4180   -3.2040 H   0  0  0  0  0  0  0  0  0  0  0  0
   -6.2440   -3.4550   -4.7680 H   0  0  0  0  0  0  0  0  0  0  0  0
  1  8  1  0  0  0  0
  1  7  1  0  0  0  0
  2  9  1  6  0  0  0
  2  1  1  0  0  0  0
  3 10  1  0  0  0  0
  3  2  1  0  0  0  0
  3  4  1  0  0  0  0
  5  2  1  0  0  0  0
  5  6  2  0  0  0  0
 11  3  1  0  0  0  0
 12  4  1  0  0  0  0
 13 25  1  0  0  0  0
 13 14  1  0  0  0  0
 14 15  2  0  0  0  0
 15 26  1  0  0  0  0
 16 14  1  0  0  0  0
 16 17  1  0  0  0  0
 17 29  1  0  0  0  0
 17 18  1  0  0  0  0
 18 30  1  0  0  0  0
 18 31  1  0  0  0  0
 19 20  1  0  0  0  0
 19 18  1  0  0  0  0
 20 21  1  0  0  0  0
 20 34  1  1  0  0  0
 21  5  1  0  0  0  0
 22 20  1  0  0  0  0
 23 22  2  0  0  0  0
 24 13  1  0  0  0  0
 27 16  1  0  0  0  0
 28 17  1  0  0  0  0
 32 19  1  0  0  0  0
 33 19  1  0  0  0  0
 35 21  1  0  0  0  0
 36 47  1  0  0  0  0
 36 22  1  0  0  0  0
 37 48  1  1  0  0  0
 37 38  1  0  0  0  0
 37 36  1  0  0  0  0
 38 49  1  0  0  0  0
 39 40  2  0  0  0  0
 39 38  1  0  0  0  0
 40 51  1  0  0  0  0
 41 40  1  0  0  0  0
 42 43  2  0  0  0  0
 42 41  1  0  0  0  0
 43 39  1  0  0  0  0
 44 37  1  0  0  0  0
 45 44  2  0  0  0  0
 46 44  1  0  0  0  0
 50 38  1  0  0  0  0
 52 41  1  0  0  0  0
 53 42  1  0  0  0  0
M  END
$$$$
