CRI.pdb
 OpenBabel07022418263D

 55 54  0  0  1  0  0  0  0  0999 V2000
    0.1580   -1.7070    5.1900 N   0  0  0  0  0  0  0  0  0  0  0  0
    0.3950   -1.7140    3.7600 C   0  0  1  0  0  0  0  0  0  0  0  0
   -0.2460   -2.8950    3.0850 C   0  0  0  0  0  0  0  0  0  0  0  0
    0.4490   -4.4380    3.7960 S   0  0  0  0  0  0  0  0  0  0  0  0
    0.0640   -0.4260    3.1660 C   0  0  0  0  0  0  0  0  0  0  0  0
   -0.3680    0.4980    3.9200 O   0  0  0  0  0  0  0  0  0  0  0  0
    0.5330   -2.5910    5.5990 H   0  0  0  0  0  0  0  0  0  0  0  0
    0.7550   -0.9380    5.5830 H   0  0  0  0  0  0  0  0  0  0  0  0
    1.5120   -1.8480    3.6450 H   0  0  0  0  0  0  0  0  0  0  0  0
   -1.3410   -2.8480    3.2480 H   0  0  0  0  0  0  0  0  0  0  0  0
   -0.0540   -2.9490    2.0170 H   0  0  0  0  0  0  0  0  0  0  0  0
    1.6340   -4.7990    3.0870 H   0  0  0  0  0  0  0  0  0  0  0  0
    3.6220   -0.2930   -2.4450 N   0  0  0  0  0  0  0  0  0  0  0  0
    3.8040    0.2760   -1.1560 C   0  0  0  0  0  0  0  0  0  0  0  0
    4.6900    1.1920   -0.9650 N   0  0  0  0  0  0  0  0  0  0  0  0
    3.0070   -0.1650   -0.0620 N   0  0  0  0  0  0  0  0  0  0  0  0
    2.9680    0.6940    1.1310 C   0  0  0  0  0  0  0  0  0  0  0  0
    2.2370    1.9450    0.7510 C   0  0  0  0  0  0  0  0  0  0  0  0
    0.8630    1.6800    0.3040 C   0  0  0  0  0  0  0  0  0  0  0  0
   -0.1240    1.0900    1.2500 C   0  0  2  0  0  0  0  0  0  0  0  0
    0.2200   -0.1990    1.7610 N   0  0  0  0  0  0  0  0  0  0  0  0
   -1.3760    0.8920    0.4220 C   0  0  0  0  0  0  0  0  0  0  0  0
   -1.8600    1.9170   -0.1040 O   0  0  0  0  0  0  0  0  0  0  0  0
    3.2050    0.2690   -3.2160 H   0  0  0  0  0  0  0  0  0  0  0  0
    3.8940   -1.2730   -2.6640 H   0  0  0  0  0  0  0  0  0  0  0  0
    5.3160    1.5820   -1.6750 H   0  0  0  0  0  0  0  0  0  0  0  0
    2.5010   -1.0570   -0.1500 H   0  0  0  0  0  0  0  0  0  0  0  0
    4.0530    0.9180    1.3640 H   0  0  0  0  0  0  0  0  0  0  0  0
    2.5320    0.1070    1.9480 H   0  0  0  0  0  0  0  0  0  0  0  0
    2.3050    2.7280    1.5510 H   0  0  0  0  0  0  0  0  0  0  0  0
    2.8570    2.4090   -0.0820 H   0  0  0  0  0  0  0  0  0  0  0  0
    0.4700    2.6670   -0.1210 H   0  0  0  0  0  0  0  0  0  0  0  0
    0.8360    1.0310   -0.6360 H   0  0  0  0  0  0  0  0  0  0  0  0
   -0.3820    1.7980    2.0860 H   0  0  0  0  0  0  0  0  0  0  0  0
    0.5690   -1.0030    1.2100 H   0  0  0  0  0  0  0  0  0  0  0  0
   -0.9470   -2.8460   -1.2180 C   0  0  0  0  0  0  0  0  0  0  0  0
   -2.3040   -2.6740   -1.7380 C   0  0  0  0  0  0  0  0  0  0  0  0
   -2.9010   -1.3410   -1.7940 C   0  0  2  0  0  0  0  0  0  0  0  0
   -2.0710   -0.3940   -2.6760 C   0  0  0  0  0  0  0  0  0  0  0  0
   -3.1630   -0.6080   -0.5270 C   0  0  2  0  0  0  0  0  0  0  0  0
   -1.9650   -0.3640    0.2510 N   0  0  0  0  0  0  0  0  0  0  0  0
   -4.2690   -1.1460    0.2670 C   0  0  0  0  0  0  0  0  0  0  0  0
   -4.1380   -1.3600    1.4900 O   0  0  0  0  0  0  0  0  0  0  0  0
   -5.4780   -1.4240   -0.3360 O   0  0  0  0  0  0  0  0  0  0  0  0
   -0.3540   -3.5520   -1.8770 H   0  0  0  0  0  0  0  0  0  0  0  0
   -0.8500   -3.2870   -0.2120 H   0  0  0  0  0  0  0  0  0  0  0  0
   -0.3300   -1.9120   -1.2300 H   0  0  0  0  0  0  0  0  0  0  0  0
   -3.0070   -3.3430   -1.1540 H   0  0  0  0  0  0  0  0  0  0  0  0
   -2.3530   -3.1140   -2.7760 H   0  0  0  0  0  0  0  0  0  0  0  0
   -3.8940   -1.3730   -2.3410 H   0  0  0  0  0  0  0  0  0  0  0  0
   -2.2160   -0.6150   -3.7450 H   0  0  0  0  0  0  0  0  0  0  0  0
   -2.4630    0.6560   -2.5360 H   0  0  0  0  0  0  0  0  0  0  0  0
   -1.0190   -0.3600   -2.3550 H   0  0  0  0  0  0  0  0  0  0  0  0
   -3.5000    0.4230   -0.8640 H   0  0  0  0  0  0  0  0  0  0  0  0
   -1.5230   -1.1890    0.7120 H   0  0  0  0  0  0  0  0  0  0  0  0
  1  8  1  0  0  0  0
  1  7  1  0  0  0  0
  2  9  1  6  0  0  0
  2  1  1  0  0  0  0
  3 10  1  0  0  0  0
  3  2  1  0  0  0  0
  3  4  1  0  0  0  0
  5  2  1  0  0  0  0
  5  6  2  0  0  0  0
 11  3  1  0  0  0  0
 12  4  1  0  0  0  0
 13 14  1  0  0  0  0
 14 15  2  0  0  0  0
 14 16  1  0  0  0  0
 16 17  1  0  0  0  0
 17 28  1  0  0  0  0
 17 29  1  0  0  0  0
 18 17  1  0  0  0  0
 18 30  1  0  0  0  0
 19 18  1  0  0  0  0
 19 20  1  0  0  0  0
 20 21  1  0  0  0  0
 20 34  1  1  0  0  0
 21  5  1  0  0  0  0
 22 20  1  0  0  0  0
 23 22  2  0  0  0  0
 24 13  1  0  0  0  0
 25 13  1  0  0  0  0
 26 15  1  0  0  0  0
 27 16  1  0  0  0  0
 31 18  1  0  0  0  0
 32 19  1  0  0  0  0
 33 19  1  0  0  0  0
 35 21  1  0  0  0  0
 36 46  1  0  0  0  0
 37 36  1  0  0  0  0
 37 48  1  0  0  0  0
 38 50  1  6  0  0  0
 38 37  1  0  0  0  0
 38 40  1  0  0  0  0
 39 52  1  0  0  0  0
 39 53  1  0  0  0  0
 39 38  1  0  0  0  0
 40 54  1  6  0  0  0
 40 41  1  0  0  0  0
 40 42  1  0  0  0  0
 41 22  1  0  0  0  0
 41 55  1  0  0  0  0
 42 43  1  0  0  0  0
 44 42  2  0  0  0  0
 45 36  1  0  0  0  0
 47 36  1  0  0  0  0
 49 37  1  0  0  0  0
 51 39  1  0  0  0  0
M  END
$$$$
