CRK.pdb
 OpenBabel07022418263D

 57 56  0  0  1  0  0  0  0  0999 V2000
    1.8310   -2.7740    3.9150 N   0  0  0  0  0  0  0  0  0  0  0  0
    1.5840   -2.2420    2.5930 C   0  0  1  0  0  0  0  0  0  0  0  0
    0.9670   -3.3190    1.7370 C   0  0  0  0  0  0  0  0  0  0  0  0
    2.0610   -4.7600    1.5890 S   0  0  0  0  0  0  0  0  0  0  0  0
    0.7690   -1.0370    2.6970 C   0  0  0  0  0  0  0  0  0  0  0  0
    0.4120   -0.6440    3.8410 O   0  0  0  0  0  0  0  0  0  0  0  0
    1.9340   -3.8160    3.8590 H   0  0  0  0  0  0  0  0  0  0  0  0
    1.0560   -2.5000    4.5430 H   0  0  0  0  0  0  0  0  0  0  0  0
    2.5940   -2.0210    2.1550 H   0  0  0  0  0  0  0  0  0  0  0  0
    0.0180   -3.6650    2.2210 H   0  0  0  0  0  0  0  0  0  0  0  0
    0.7150   -2.9870    0.7290 H   0  0  0  0  0  0  0  0  0  0  0  0
    3.2100   -4.5820    2.4100 H   0  0  0  0  0  0  0  0  0  0  0  0
    6.2120    2.1850    1.1170 N   0  0  0  0  0  0  0  0  0  0  0  0
    4.9640    1.6630    0.7120 C   0  0  0  0  0  0  0  0  0  0  0  0
    4.9100    0.4940    0.1260 N   0  0  0  0  0  0  0  0  0  0  0  0
    3.7330    2.3400    0.9010 N   0  0  0  0  0  0  0  0  0  0  0  0
    2.4470    1.6510    0.6890 C   0  0  0  0  0  0  0  0  0  0  0  0
    1.3150    2.6080    0.9620 C   0  0  0  0  0  0  0  0  0  0  0  0
   -0.0280    2.0240    0.7730 C   0  0  0  0  0  0  0  0  0  0  0  0
   -0.4180    0.8680    1.6120 C   0  0  2  0  0  0  0  0  0  0  0  0
    0.3780   -0.3090    1.5130 N   0  0  0  0  0  0  0  0  0  0  0  0
   -1.8530    0.5460    1.2130 C   0  0  0  0  0  0  0  0  0  0  0  0
   -2.7410    1.4100    1.2170 O   0  0  0  0  0  0  0  0  0  0  0  0
    6.2810    3.1740    1.4020 H   0  0  0  0  0  0  0  0  0  0  0  0
    7.0550    1.5900    1.1330 H   0  0  0  0  0  0  0  0  0  0  0  0
    5.7610   -0.0690   -0.0530 H   0  0  0  0  0  0  0  0  0  0  0  0
    3.7660    3.3380    1.1950 H   0  0  0  0  0  0  0  0  0  0  0  0
    2.4210    1.4170   -0.3970 H   0  0  0  0  0  0  0  0  0  0  0  0
    2.4850    0.7760    1.3310 H   0  0  0  0  0  0  0  0  0  0  0  0
    1.4270    3.4210    0.1840 H   0  0  0  0  0  0  0  0  0  0  0  0
    1.4480    3.1490    1.9240 H   0  0  0  0  0  0  0  0  0  0  0  0
   -0.1290    1.7250   -0.3070 H   0  0  0  0  0  0  0  0  0  0  0  0
   -0.7900    2.8350    0.9070 H   0  0  0  0  0  0  0  0  0  0  0  0
   -0.5330    1.1240    2.7050 H   0  0  0  0  0  0  0  0  0  0  0  0
    0.7010   -0.6810    0.6010 H   0  0  0  0  0  0  0  0  0  0  0  0
   -2.1880   -0.7760    0.8240 N   0  0  0  0  0  0  0  0  0  0  0  0
   -3.5260   -1.1550    0.4330 C   0  0  1  0  0  0  0  0  0  0  0  0
   -3.5150   -1.7260   -1.0030 C   0  0  0  0  0  0  0  0  0  0  0  0
   -2.9970   -0.6530   -1.8960 C   0  0  0  0  0  0  0  0  0  0  0  0
   -2.9480   -1.0410   -3.3290 C   0  0  0  0  0  0  0  0  0  0  0  0
   -2.0990   -2.2020   -3.6930 C   0  0  0  0  0  0  0  0  0  0  0  0
   -2.4540   -3.4460   -3.0970 N   0  0  0  0  0  0  0  0  0  0  0  0
   -3.9610   -2.2750    1.3010 C   0  0  0  0  0  0  0  0  0  0  0  0
   -5.0970   -2.8000    1.1710 O   0  0  0  0  0  0  0  0  0  0  0  0
   -3.1180   -2.7710    2.2790 O   0  0  0  0  0  0  0  0  0  0  0  0
   -1.4490   -1.5070    0.8180 H   0  0  0  0  0  0  0  0  0  0  0  0
   -4.2340   -0.3090    0.4740 H   0  0  0  0  0  0  0  0  0  0  0  0
   -4.5400   -2.0630   -1.2410 H   0  0  0  0  0  0  0  0  0  0  0  0
   -2.8270   -2.6170   -0.9850 H   0  0  0  0  0  0  0  0  0  0  0  0
   -1.9540   -0.4100   -1.5730 H   0  0  0  0  0  0  0  0  0  0  0  0
   -3.6350    0.2600   -1.7720 H   0  0  0  0  0  0  0  0  0  0  0  0
   -4.0050   -1.2530   -3.6700 H   0  0  0  0  0  0  0  0  0  0  0  0
   -2.6390   -0.1110   -3.8970 H   0  0  0  0  0  0  0  0  0  0  0  0
   -2.1700   -2.3320   -4.8030 H   0  0  0  0  0  0  0  0  0  0  0  0
   -1.0050   -2.0270   -3.4770 H   0  0  0  0  0  0  0  0  0  0  0  0
   -2.9890   -4.0860   -3.7380 H   0  0  0  0  0  0  0  0  0  0  0  0
   -1.6570   -3.9400   -2.6280 H   0  0  0  0  0  0  0  0  0  0  0  0
  1  8  1  0  0  0  0
  2  9  1  6  0  0  0
  2  5  1  0  0  0  0
  2  1  1  0  0  0  0
  3 10  1  0  0  0  0
  3  2  1  0  0  0  0
  4  3  1  0  0  0  0
  4 12  1  0  0  0  0
  5  6  2  0  0  0  0
  7  1  1  0  0  0  0
 11  3  1  0  0  0  0
 13 25  1  0  0  0  0
 13 24  1  0  0  0  0
 14 16  1  0  0  0  0
 14 13  1  0  0  0  0
 15 14  2  0  0  0  0
 16 27  1  0  0  0  0
 17 16  1  0  0  0  0
 17 18  1  0  0  0  0
 17 29  1  0  0  0  0
 18 31  1  0  0  0  0
 19 33  1  0  0  0  0
 19 18  1  0  0  0  0
 19 20  1  0  0  0  0
 20 34  1  1  0  0  0
 21 20  1  0  0  0  0
 21  5  1  0  0  0  0
 22 23  2  0  0  0  0
 22 20  1  0  0  0  0
 26 15  1  0  0  0  0
 28 17  1  0  0  0  0
 30 18  1  0  0  0  0
 32 19  1  0  0  0  0
 35 21  1  0  0  0  0
 36 22  1  0  0  0  0
 37 47  1  1  0  0  0
 37 36  1  0  0  0  0
 37 43  1  0  0  0  0
 38 49  1  0  0  0  0
 38 37  1  0  0  0  0
 39 51  1  0  0  0  0
 39 50  1  0  0  0  0
 39 38  1  0  0  0  0
 40 39  1  0  0  0  0
 41 55  1  0  0  0  0
 41 40  1  0  0  0  0
 41 42  1  0  0  0  0
 42 57  1  0  0  0  0
 43 45  1  0  0  0  0
 44 43  2  0  0  0  0
 46 36  1  0  0  0  0
 48 38  1  0  0  0  0
 52 40  1  0  0  0  0
 53 40  1  0  0  0  0
 54 41  1  0  0  0  0
 56 42  1  0  0  0  0
M  END
$$$$
