CRL.pdb
 OpenBabel07022418263D

 55 54  0  0  1  0  0  0  0  0999 V2000
    2.3650   -0.6830    5.7670 N   0  0  0  0  0  0  0  0  0  0  0  0
    2.1500   -1.4780    4.5970 C   0  0  1  0  0  0  0  0  0  0  0  0
    1.2370   -2.6260    4.9250 C   0  0  0  0  0  0  0  0  0  0  0  0
    1.9780   -3.6560    6.2110 S   0  0  0  0  0  0  0  0  0  0  0  0
    1.5610   -0.6450    3.5100 C   0  0  0  0  0  0  0  0  0  0  0  0
    1.3150    0.5690    3.7100 O   0  0  0  0  0  0  0  0  0  0  0  0
    1.9480   -1.1510    6.6130 H   0  0  0  0  0  0  0  0  0  0  0  0
    3.3900   -0.5640    5.9820 H   0  0  0  0  0  0  0  0  0  0  0  0
    3.1420   -1.8580    4.2420 H   0  0  0  0  0  0  0  0  0  0  0  0
    0.2940   -2.1900    5.3440 H   0  0  0  0  0  0  0  0  0  0  0  0
    1.0130   -3.2700    4.0630 H   0  0  0  0  0  0  0  0  0  0  0  0
    2.5840   -4.8130    5.6580 H   0  0  0  0  0  0  0  0  0  0  0  0
    2.3660    3.0400   -2.6720 N   0  0  0  0  0  0  0  0  0  0  0  0
    3.1660    2.3300   -1.7650 C   0  0  0  0  0  0  0  0  0  0  0  0
    3.7890    2.9190   -0.7900 N   0  0  0  0  0  0  0  0  0  0  0  0
    3.3000    0.9190   -1.9170 N   0  0  0  0  0  0  0  0  0  0  0  0
    3.9060    0.1820   -0.8250 C   0  0  0  0  0  0  0  0  0  0  0  0
    2.9800    0.2060    0.3860 C   0  0  0  0  0  0  0  0  0  0  0  0
    1.6750   -0.4380   -0.0170 C   0  0  0  0  0  0  0  0  0  0  0  0
    0.6970   -0.4470    1.1400 C   0  0  2  0  0  0  0  0  0  0  0  0
    1.2680   -1.1950    2.2420 N   0  0  0  0  0  0  0  0  0  0  0  0
   -0.5300   -1.1650    0.7110 C   0  0  0  0  0  0  0  0  0  0  0  0
   -0.9160   -2.2200    1.2960 O   0  0  0  0  0  0  0  0  0  0  0  0
    1.9500    3.9530   -2.3850 H   0  0  0  0  0  0  0  0  0  0  0  0
    2.1710    2.6860   -3.6260 H   0  0  0  0  0  0  0  0  0  0  0  0
    3.6960    3.9660   -0.6670 H   0  0  0  0  0  0  0  0  0  0  0  0
    2.9800    0.4410   -2.7680 H   0  0  0  0  0  0  0  0  0  0  0  0
    4.8790    0.6560   -0.5920 H   0  0  0  0  0  0  0  0  0  0  0  0
    4.1240   -0.8440   -1.1690 H   0  0  0  0  0  0  0  0  0  0  0  0
    3.5000   -0.3130    1.1990 H   0  0  0  0  0  0  0  0  0  0  0  0
    2.7980    1.2620    0.6380 H   0  0  0  0  0  0  0  0  0  0  0  0
    1.2700    0.1150   -0.8720 H   0  0  0  0  0  0  0  0  0  0  0  0
    1.8450   -1.4960   -0.3020 H   0  0  0  0  0  0  0  0  0  0  0  0
    0.5000    0.6080    1.4230 H   0  0  0  0  0  0  0  0  0  0  0  0
    1.4900   -2.2120    2.1200 H   0  0  0  0  0  0  0  0  0  0  0  0
   -5.4350   -2.3490   -0.3310 C   0  0  0  0  0  0  0  0  0  0  0  0
   -5.0240   -1.1140   -1.1110 C   0  0  0  0  0  0  0  0  0  0  0  0
   -5.3640   -1.2560   -2.5340 C   0  0  0  0  0  0  0  0  0  0  0  0
   -3.7270   -0.5310   -0.7130 C   0  0  0  0  0  0  0  0  0  0  0  0
   -2.5620   -1.4390   -0.7960 C   0  0  2  0  0  0  0  0  0  0  0  0
   -1.3390   -0.7270   -0.3650 N   0  0  0  0  0  0  0  0  0  0  0  0
   -2.2790   -1.9210   -2.1350 C   0  0  0  0  0  0  0  0  0  0  0  0
   -3.0270   -2.7190   -2.7200 O   0  0  0  0  0  0  0  0  0  0  0  0
   -1.1510   -1.5060   -2.8210 O   0  0  0  0  0  0  0  0  0  0  0  0
   -6.2880   -2.8040   -0.8770 H   0  0  0  0  0  0  0  0  0  0  0  0
   -5.8050   -2.1090    0.6780 H   0  0  0  0  0  0  0  0  0  0  0  0
   -4.6260   -3.1210   -0.3250 H   0  0  0  0  0  0  0  0  0  0  0  0
   -5.8240   -0.3320   -0.7130 H   0  0  0  0  0  0  0  0  0  0  0  0
   -6.3610   -0.7180   -2.7280 H   0  0  0  0  0  0  0  0  0  0  0  0
   -4.6960   -0.7490   -3.2640 H   0  0  0  0  0  0  0  0  0  0  0  0
   -5.6220   -2.3030   -2.8040 H   0  0  0  0  0  0  0  0  0  0  0  0
   -3.5590    0.4070   -1.3070 H   0  0  0  0  0  0  0  0  0  0  0  0
   -3.8480   -0.1560    0.3470 H   0  0  0  0  0  0  0  0  0  0  0  0
   -2.7450   -2.3080   -0.1280 H   0  0  0  0  0  0  0  0  0  0  0  0
   -1.0450    0.1370   -0.8630 H   0  0  0  0  0  0  0  0  0  0  0  0
  1  8  1  0  0  0  0
  1  7  1  0  0  0  0
  2  9  1  6  0  0  0
  2  3  1  0  0  0  0
  2  1  1  0  0  0  0
  3 10  1  0  0  0  0
  3  4  1  0  0  0  0
  5  6  2  0  0  0  0
  5  2  1  0  0  0  0
 11  3  1  0  0  0  0
 12  4  1  0  0  0  0
 13 24  1  0  0  0  0
 13 14  1  0  0  0  0
 14 15  2  0  0  0  0
 15 26  1  0  0  0  0
 16 14  1  0  0  0  0
 16 17  1  0  0  0  0
 17 28  1  0  0  0  0
 17 18  1  0  0  0  0
 18 31  1  0  0  0  0
 18 30  1  0  0  0  0
 19 18  1  0  0  0  0
 19 20  1  0  0  0  0
 20 34  1  1  0  0  0
 20 21  1  0  0  0  0
 21  5  1  0  0  0  0
 22 20  1  0  0  0  0
 22 23  2  0  0  0  0
 25 13  1  0  0  0  0
 27 16  1  0  0  0  0
 29 17  1  0  0  0  0
 32 19  1  0  0  0  0
 33 19  1  0  0  0  0
 35 21  1  0  0  0  0
 36 47  1  0  0  0  0
 36 46  1  0  0  0  0
 37 39  1  0  0  0  0
 37 48  1  0  0  0  0
 37 36  1  0  0  0  0
 38 37  1  0  0  0  0
 39 53  1  0  0  0  0
 40 39  1  0  0  0  0
 40 41  1  0  0  0  0
 40 54  1  1  0  0  0
 41 22  1  0  0  0  0
 42 40  1  0  0  0  0
 43 42  1  0  0  0  0
 44 42  2  0  0  0  0
 45 36  1  0  0  0  0
 49 38  1  0  0  0  0
 50 38  1  0  0  0  0
 51 38  1  0  0  0  0
 52 39  1  0  0  0  0
 55 41  1  0  0  0  0
M  END
$$$$
