CRP.pdb
 OpenBabel07022418263D

 50 50  0  0  1  0  0  0  0  0999 V2000
    0.7220   -4.4040    2.9070 N   0  0  0  0  0  0  0  0  0  0  0  0
    0.8020   -3.3770    1.8440 C   0  0  1  0  0  0  0  0  0  0  0  0
    0.1540   -3.9710    0.6330 C   0  0  0  0  0  0  0  0  0  0  0  0
    1.0300   -5.5000    0.1270 S   0  0  0  0  0  0  0  0  0  0  0  0
    0.1710   -2.1520    2.3360 C   0  0  0  0  0  0  0  0  0  0  0  0
   -0.3340   -2.1130    3.5050 O   0  0  0  0  0  0  0  0  0  0  0  0
   -0.0390   -4.1750    3.5840 H   0  0  0  0  0  0  0  0  0  0  0  0
    0.5420   -5.3520    2.4960 H   0  0  0  0  0  0  0  0  0  0  0  0
    1.8870   -3.2290    1.5990 H   0  0  0  0  0  0  0  0  0  0  0  0
    0.2230   -3.2860   -0.2570 H   0  0  0  0  0  0  0  0  0  0  0  0
   -0.9190   -4.1960    0.7700 H   0  0  0  0  0  0  0  0  0  0  0  0
    2.3950   -5.1690    0.0450 H   0  0  0  0  0  0  0  0  0  0  0  0
    3.8820    2.1180   -1.0380 N   0  0  0  0  0  0  0  0  0  0  0  0
    3.6670    1.8530    0.3390 C   0  0  0  0  0  0  0  0  0  0  0  0
    4.1230    2.7060    1.1830 N   0  0  0  0  0  0  0  0  0  0  0  0
    2.9810    0.7030    0.7870 N   0  0  0  0  0  0  0  0  0  0  0  0
    2.6750    0.5280    2.1730 C   0  0  0  0  0  0  0  0  0  0  0  0
    1.6610    1.4900    2.6940 C   0  0  0  0  0  0  0  0  0  0  0  0
    0.3830    1.4370    2.0120 C   0  0  0  0  0  0  0  0  0  0  0  0
   -0.4580    0.1890    2.0360 C   0  0  2  0  0  0  0  0  0  0  0  0
    0.1280   -0.9770    1.4950 N   0  0  0  0  0  0  0  0  0  0  0  0
   -1.7110    0.6090    1.3660 C   0  0  0  0  0  0  0  0  0  0  0  0
   -2.2680    1.6720    1.8720 O   0  0  0  0  0  0  0  0  0  0  0  0
    4.8060    1.9920   -1.4670 H   0  0  0  0  0  0  0  0  0  0  0  0
    3.0900    2.4450   -1.6240 H   0  0  0  0  0  0  0  0  0  0  0  0
    4.6310    3.5650    0.9440 H   0  0  0  0  0  0  0  0  0  0  0  0
    2.7010   -0.0130    0.0970 H   0  0  0  0  0  0  0  0  0  0  0  0
    2.3670   -0.4990    2.4100 H   0  0  0  0  0  0  0  0  0  0  0  0
    3.6350    0.6520    2.7870 H   0  0  0  0  0  0  0  0  0  0  0  0
    2.0940    2.5360    2.5820 H   0  0  0  0  0  0  0  0  0  0  0  0
    1.6320    1.3620    3.8000 H   0  0  0  0  0  0  0  0  0  0  0  0
    0.4480    1.7170    0.9180 H   0  0  0  0  0  0  0  0  0  0  0  0
   -0.3110    2.2430    2.4140 H   0  0  0  0  0  0  0  0  0  0  0  0
   -0.7110    0.0410    3.1440 H   0  0  0  0  0  0  0  0  0  0  0  0
    0.5370   -1.0640    0.5450 H   0  0  0  0  0  0  0  0  0  0  0  0
   -2.3590    0.0070    0.2640 N   0  0  0  0  0  0  0  0  0  0  0  0
   -3.5900    0.6060   -0.2800 C   0  0  0  0  0  0  0  0  0  0  0  0
   -4.0750   -0.3260   -1.3430 C   0  0  0  0  0  0  0  0  0  0  0  0
   -3.4060   -1.6580   -1.0190 C   0  0  0  0  0  0  0  0  0  0  0  0
   -2.0700   -1.1410   -0.5080 C   0  0  1  0  0  0  0  0  0  0  0  0
   -1.2500   -0.8800   -1.7120 C   0  0  0  0  0  0  0  0  0  0  0  0
   -0.8520    0.2670   -2.0260 O   0  0  0  0  0  0  0  0  0  0  0  0
   -0.8940   -1.9300   -2.5420 O   0  0  0  0  0  0  0  0  0  0  0  0
   -4.3170    0.5330    0.5740 H   0  0  0  0  0  0  0  0  0  0  0  0
   -3.4190    1.6400   -0.6040 H   0  0  0  0  0  0  0  0  0  0  0  0
   -3.7220    0.0280   -2.3540 H   0  0  0  0  0  0  0  0  0  0  0  0
   -5.1670   -0.5130   -1.3330 H   0  0  0  0  0  0  0  0  0  0  0  0
   -3.9670   -2.2300   -0.2780 H   0  0  0  0  0  0  0  0  0  0  0  0
   -3.2560   -2.2640   -1.9400 H   0  0  0  0  0  0  0  0  0  0  0  0
   -1.6550   -1.9080    0.1700 H   0  0  0  0  0  0  0  0  0  0  0  0
  1  7  1  0  0  0  0
  2  9  1  6  0  0  0
  2  5  1  0  0  0  0
  2  1  1  0  0  0  0
  3 11  1  0  0  0  0
  3  2  1  0  0  0  0
  4  3  1  0  0  0  0
  5  6  2  0  0  0  0
  8  1  1  0  0  0  0
 10  3  1  0  0  0  0
 12  4  1  0  0  0  0
 13 14  1  0  0  0  0
 14 16  1  0  0  0  0
 14 15  2  0  0  0  0
 16 17  1  0  0  0  0
 17 28  1  0  0  0  0
 17 18  1  0  0  0  0
 17 29  1  0  0  0  0
 18 31  1  0  0  0  0
 19 20  1  0  0  0  0
 19 33  1  0  0  0  0
 19 18  1  0  0  0  0
 20 34  1  1  0  0  0
 21 20  1  0  0  0  0
 21  5  1  0  0  0  0
 22 23  2  0  0  0  0
 22 20  1  0  0  0  0
 24 13  1  0  0  0  0
 25 13  1  0  0  0  0
 26 15  1  0  0  0  0
 27 16  1  0  0  0  0
 30 18  1  0  0  0  0
 32 19  1  0  0  0  0
 35 21  1  0  0  0  0
 36 22  1  0  0  0  0
 37 36  1  0  0  0  0
 37 44  1  0  0  0  0
 38 47  1  0  0  0  0
 38 39  1  0  0  0  0
 38 37  1  0  0  0  0
 39 40  1  0  0  0  0
 39 48  1  0  0  0  0
 40 50  1  1  0  0  0
 40 36  1  0  0  0  0
 41 40  1  0  0  0  0
 42 41  1  0  0  0  0
 43 41  2  0  0  0  0
 45 37  1  0  0  0  0
 46 38  1  0  0  0  0
 49 39  1  0  0  0  0
M  END
$$$$
