CRQ.pdb
 OpenBabel07022418263D

 53 52  0  0  1  0  0  0  0  0999 V2000
    1.2730   -4.0900    4.9160 N   0  0  0  0  0  0  0  0  0  0  0  0
    1.3730   -3.2550    3.7560 C   0  0  1  0  0  0  0  0  0  0  0  0
    1.2770   -4.1440    2.5160 C   0  0  0  0  0  0  0  0  0  0  0  0
    2.6160   -5.3640    2.5010 S   0  0  0  0  0  0  0  0  0  0  0  0
    0.3720   -2.1830    3.7170 C   0  0  0  0  0  0  0  0  0  0  0  0
   -0.4470   -2.1170    4.6720 O   0  0  0  0  0  0  0  0  0  0  0  0
    2.0910   -3.9600    5.5310 H   0  0  0  0  0  0  0  0  0  0  0  0
    1.1240   -5.0910    4.7300 H   0  0  0  0  0  0  0  0  0  0  0  0
    2.3740   -2.7740    3.7520 H   0  0  0  0  0  0  0  0  0  0  0  0
    0.3210   -4.7010    2.5460 H   0  0  0  0  0  0  0  0  0  0  0  0
    1.3410   -3.5580    1.5830 H   0  0  0  0  0  0  0  0  0  0  0  0
    3.5940   -5.0490    3.4660 H   0  0  0  0  0  0  0  0  0  0  0  0
    2.7880    2.5730   -1.9120 N   0  0  0  0  0  0  0  0  0  0  0  0
    2.0420    3.0260   -0.7640 C   0  0  0  0  0  0  0  0  0  0  0  0
    0.8820    3.5660   -0.9300 N   0  0  0  0  0  0  0  0  0  0  0  0
    2.5630    2.8880    0.5500 N   0  0  0  0  0  0  0  0  0  0  0  0
    1.6400    2.6900    1.6460 C   0  0  0  0  0  0  0  0  0  0  0  0
    1.0040    1.3100    1.4860 C   0  0  0  0  0  0  0  0  0  0  0  0
    0.0470    1.1430    2.6620 C   0  0  0  0  0  0  0  0  0  0  0  0
   -0.6380   -0.2050    2.5900 C   0  0  2  0  0  0  0  0  0  0  0  0
    0.3510   -1.2680    2.6320 N   0  0  0  0  0  0  0  0  0  0  0  0
   -1.4260   -0.2960    1.3390 C   0  0  0  0  0  0  0  0  0  0  0  0
   -2.3550    0.5290    1.1180 O   0  0  0  0  0  0  0  0  0  0  0  0
    2.5820    1.6340   -2.3000 H   0  0  0  0  0  0  0  0  0  0  0  0
    3.5040    3.2100   -2.3050 H   0  0  0  0  0  0  0  0  0  0  0  0
    0.4600    3.6880   -1.8730 H   0  0  0  0  0  0  0  0  0  0  0  0
    3.6010    2.9340    0.6790 H   0  0  0  0  0  0  0  0  0  0  0  0
    0.8020    3.4290    1.5420 H   0  0  0  0  0  0  0  0  0  0  0  0
    2.0900    2.8170    2.6300 H   0  0  0  0  0  0  0  0  0  0  0  0
    0.4010    1.2700    0.5730 H   0  0  0  0  0  0  0  0  0  0  0  0
    1.7650    0.5070    1.4750 H   0  0  0  0  0  0  0  0  0  0  0  0
   -0.7490    1.9190    2.5200 H   0  0  0  0  0  0  0  0  0  0  0  0
    0.5330    1.3340    3.6160 H   0  0  0  0  0  0  0  0  0  0  0  0
   -1.2820   -0.2780    3.4870 H   0  0  0  0  0  0  0  0  0  0  0  0
    1.0630   -1.3940    1.8850 H   0  0  0  0  0  0  0  0  0  0  0  0
   -3.9430   -0.3290   -4.4370 N   0  0  0  0  0  0  0  0  0  0  0  0
   -2.9110   -0.2860   -3.4260 C   0  0  0  0  0  0  0  0  0  0  0  0
   -2.9510    0.6950   -2.6650 O   0  0  0  0  0  0  0  0  0  0  0  0
   -1.8940   -1.3590   -3.3430 C   0  0  0  0  0  0  0  0  0  0  0  0
   -1.1000   -1.2530   -2.0800 C   0  0  0  0  0  0  0  0  0  0  0  0
   -1.9610   -1.3820   -0.8800 C   0  0  2  0  0  0  0  0  0  0  0  0
   -1.1920   -1.2740    0.3590 N   0  0  0  0  0  0  0  0  0  0  0  0
   -2.5980   -2.7150   -0.8690 C   0  0  0  0  0  0  0  0  0  0  0  0
   -3.3940   -3.1420   -1.7510 O   0  0  0  0  0  0  0  0  0  0  0  0
   -2.2910   -3.5700    0.2090 O   0  0  0  0  0  0  0  0  0  0  0  0
   -3.8040    0.0530   -5.3960 H   0  0  0  0  0  0  0  0  0  0  0  0
   -4.8510   -0.7640   -4.1760 H   0  0  0  0  0  0  0  0  0  0  0  0
   -1.1840   -1.1120   -4.2180 H   0  0  0  0  0  0  0  0  0  0  0  0
   -2.3030   -2.3700   -3.5560 H   0  0  0  0  0  0  0  0  0  0  0  0
   -0.5700   -0.2630   -2.1390 H   0  0  0  0  0  0  0  0  0  0  0  0
   -0.3660   -2.0920   -2.0900 H   0  0  0  0  0  0  0  0  0  0  0  0
   -2.7300   -0.5750   -0.8140 H   0  0  0  0  0  0  0  0  0  0  0  0
   -0.4390   -1.9880    0.4730 H   0  0  0  0  0  0  0  0  0  0  0  0
  1  7  1  0  0  0  0
  2  9  1  1  0  0  0
  2  1  1  0  0  0  0
  3 10  1  0  0  0  0
  3  2  1  0  0  0  0
  4  3  1  0  0  0  0
  4 12  1  0  0  0  0
  5  2  1  0  0  0  0
  5  6  2  0  0  0  0
  8  1  1  0  0  0  0
 11  3  1  0  0  0  0
 13 14  1  0  0  0  0
 14 16  1  0  0  0  0
 15 14  2  0  0  0  0
 16 27  1  0  0  0  0
 16 17  1  0  0  0  0
 17 29  1  0  0  0  0
 18 17  1  0  0  0  0
 18 19  1  0  0  0  0
 19 33  1  0  0  0  0
 20 21  1  0  0  0  0
 20 19  1  0  0  0  0
 20 34  1  1  0  0  0
 21  5  1  0  0  0  0
 22 20  1  0  0  0  0
 23 22  2  0  0  0  0
 24 13  1  0  0  0  0
 25 13  1  0  0  0  0
 26 15  1  0  0  0  0
 28 17  1  0  0  0  0
 30 18  1  0  0  0  0
 31 18  1  0  0  0  0
 32 19  1  0  0  0  0
 35 21  1  0  0  0  0
 36 47  1  0  0  0  0
 36 37  1  0  0  0  0
 37 39  1  0  0  0  0
 37 38  2  0  0  0  0
 39 40  1  0  0  0  0
 40 41  1  0  0  0  0
 41 43  1  0  0  0  0
 41 52  1  6  0  0  0
 41 42  1  0  0  0  0
 42 53  1  0  0  0  0
 42 22  1  0  0  0  0
 43 45  1  0  0  0  0
 44 43  2  0  0  0  0
 46 36  1  0  0  0  0
 48 39  1  0  0  0  0
 49 39  1  0  0  0  0
 50 40  1  0  0  0  0
 51 40  1  0  0  0  0
M  END
$$$$
