CRT.pdb
 OpenBabel07022418263D

 50 49  0  0  1  0  0  0  0  0999 V2000
    1.5580   -3.7490    1.1780 N   0  0  0  0  0  0  0  0  0  0  0  0
    1.9130   -3.5300    2.5680 C   0  0  1  0  0  0  0  0  0  0  0  0
    3.3950   -3.9140    2.6720 C   0  0  0  0  0  0  0  0  0  0  0  0
    3.5080   -5.6620    2.1820 S   0  0  0  0  0  0  0  0  0  0  0  0
    1.6950   -2.1350    2.9660 C   0  0  0  0  0  0  0  0  0  0  0  0
    1.9140   -1.6750    4.1100 O   0  0  0  0  0  0  0  0  0  0  0  0
    1.5640   -4.7890    1.0110 H   0  0  0  0  0  0  0  0  0  0  0  0
    2.3490   -3.3760    0.5750 H   0  0  0  0  0  0  0  0  0  0  0  0
    1.3600   -4.2400    3.2210 H   0  0  0  0  0  0  0  0  0  0  0  0
    3.9080   -3.3390    1.8450 H   0  0  0  0  0  0  0  0  0  0  0  0
    3.8180   -3.7080    3.6560 H   0  0  0  0  0  0  0  0  0  0  0  0
    3.4050   -5.7270    0.7720 H   0  0  0  0  0  0  0  0  0  0  0  0
    0.1280    1.8310   -3.8290 N   0  0  0  0  0  0  0  0  0  0  0  0
    0.6670    2.3310   -2.6170 C   0  0  0  0  0  0  0  0  0  0  0  0
   -0.0260    3.1610   -1.9070 N   0  0  0  0  0  0  0  0  0  0  0  0
    1.9540    1.9460   -2.1530 N   0  0  0  0  0  0  0  0  0  0  0  0
    2.2360    2.0390   -0.7410 C   0  0  0  0  0  0  0  0  0  0  0  0
    1.4350    1.0310    0.0580 C   0  0  0  0  0  0  0  0  0  0  0  0
    1.7400    1.1400    1.5220 C   0  0  0  0  0  0  0  0  0  0  0  0
    0.9660    0.1580    2.3330 C   0  0  2  0  0  0  0  0  0  0  0  0
    1.1990   -1.2150    2.0070 N   0  0  0  0  0  0  0  0  0  0  0  0
   -0.4900    0.4560    2.1390 C   0  0  0  0  0  0  0  0  0  0  0  0
   -0.9390    1.6220    2.3780 O   0  0  0  0  0  0  0  0  0  0  0  0
    0.7200    1.4110   -4.5710 H   0  0  0  0  0  0  0  0  0  0  0  0
   -0.8970    1.8810   -3.9930 H   0  0  0  0  0  0  0  0  0  0  0  0
   -0.9810    3.4790   -2.2010 H   0  0  0  0  0  0  0  0  0  0  0  0
    2.6720    1.6020   -2.8520 H   0  0  0  0  0  0  0  0  0  0  0  0
    3.3290    1.8020   -0.6090 H   0  0  0  0  0  0  0  0  0  0  0  0
    2.1060    3.0710   -0.3600 H   0  0  0  0  0  0  0  0  0  0  0  0
    0.3650    1.1600   -0.0970 H   0  0  0  0  0  0  0  0  0  0  0  0
    1.7370    0.0200   -0.2800 H   0  0  0  0  0  0  0  0  0  0  0  0
    2.8370    1.0730    1.6640 H   0  0  0  0  0  0  0  0  0  0  0  0
    1.4580    2.1600    1.8900 H   0  0  0  0  0  0  0  0  0  0  0  0
    1.2340    0.3150    3.4010 H   0  0  0  0  0  0  0  0  0  0  0  0
    0.9880   -1.5180    1.0230 H   0  0  0  0  0  0  0  0  0  0  0  0
   -2.9520   -1.7940   -0.5380 C   0  0  0  0  0  0  0  0  0  0  0  0
   -3.2170   -0.4370    0.0330 C   0  0  1  0  0  0  0  0  0  0  0  0
   -4.5890   -0.1920   -0.0420 O   0  0  0  0  0  0  0  0  0  0  0  0
   -2.8220   -0.3000    1.4850 C   0  0  2  0  0  0  0  0  0  0  0  0
   -1.4050   -0.5350    1.6890 N   0  0  0  0  0  0  0  0  0  0  0  0
   -3.6240   -1.2540    2.2690 C   0  0  0  0  0  0  0  0  0  0  0  0
   -3.0440   -2.1030    2.9780 O   0  0  0  0  0  0  0  0  0  0  0  0
   -5.0040   -1.2350    2.2430 O   0  0  0  0  0  0  0  0  0  0  0  0
   -2.3510   -1.6950   -1.4880 H   0  0  0  0  0  0  0  0  0  0  0  0
   -2.4280   -2.4830    0.1650 H   0  0  0  0  0  0  0  0  0  0  0  0
   -3.8900   -2.3200   -0.8470 H   0  0  0  0  0  0  0  0  0  0  0  0
   -2.7350    0.3400   -0.6020 H   0  0  0  0  0  0  0  0  0  0  0  0
   -4.8690    0.5150    0.6200 H   0  0  0  0  0  0  0  0  0  0  0  0
   -3.0760    0.7650    1.7610 H   0  0  0  0  0  0  0  0  0  0  0  0
   -1.0010   -1.4770    1.5020 H   0  0  0  0  0  0  0  0  0  0  0  0
  1  2  1  0  0  0  0
  2  3  1  0  0  0  0
  2  5  1  0  0  0  0
  2  9  1  1  0  0  0
  3 11  1  0  0  0  0
  4  3  1  0  0  0  0
  5  6  2  0  0  0  0
  7  1  1  0  0  0  0
  8  1  1  0  0  0  0
 10  3  1  0  0  0  0
 12  4  1  0  0  0  0
 13 14  1  0  0  0  0
 14 16  1  0  0  0  0
 14 15  2  0  0  0  0
 16 17  1  0  0  0  0
 17 28  1  0  0  0  0
 17 29  1  0  0  0  0
 17 18  1  0  0  0  0
 18 19  1  0  0  0  0
 19 32  1  0  0  0  0
 19 33  1  0  0  0  0
 19 20  1  0  0  0  0
 20 34  1  1  0  0  0
 21 20  1  0  0  0  0
 21  5  1  0  0  0  0
 22 20  1  0  0  0  0
 22 23  2  0  0  0  0
 24 13  1  0  0  0  0
 25 13  1  0  0  0  0
 26 15  1  0  0  0  0
 27 16  1  0  0  0  0
 30 18  1  0  0  0  0
 31 18  1  0  0  0  0
 35 21  1  0  0  0  0
 36 37  1  0  0  0  0
 36 45  1  0  0  0  0
 37 47  1  6  0  0  0
 37 39  1  0  0  0  0
 38 37  1  0  0  0  0
 38 48  1  0  0  0  0
 39 40  1  0  0  0  0
 39 49  1  1  0  0  0
 39 41  1  0  0  0  0
 40 22  1  0  0  0  0
 41 42  1  0  0  0  0
 43 41  2  0  0  0  0
 44 36  1  0  0  0  0
 46 36  1  0  0  0  0
 50 40  1  0  0  0  0
M  END
$$$$
