CSA.pdb
 OpenBabel07022418293D

 34 33  0  0  1  0  0  0  0  0999 V2000
   -0.9310   -1.2360    3.5370 N   0  0  0  0  0  0  0  0  0  0  0  0
    0.3800   -1.7480    3.3280 C   0  0  1  0  0  0  0  0  0  0  0  0
    0.4300   -3.1840    3.8540 C   0  0  0  0  0  0  0  0  0  0  0  0
    2.0800   -3.8880    3.6130 S   0  0  0  0  0  0  0  0  0  0  0  0
    0.8000   -1.7930    1.9170 C   0  0  0  0  0  0  0  0  0  0  0  0
    1.9530   -2.2380    1.6750 O   0  0  0  0  0  0  0  0  0  0  0  0
   -1.1920   -0.4140    2.9840 H   0  0  0  0  0  0  0  0  0  0  0  0
   -1.0040   -0.9780    4.5670 H   0  0  0  0  0  0  0  0  0  0  0  0
    1.1430   -1.1830    3.8920 H   0  0  0  0  0  0  0  0  0  0  0  0
    0.2000   -3.2170    4.9310 H   0  0  0  0  0  0  0  0  0  0  0  0
   -0.2780   -3.7940    3.2490 H   0  0  0  0  0  0  0  0  0  0  0  0
    2.1290   -4.7190    2.4670 H   0  0  0  0  0  0  0  0  0  0  0  0
   -1.6690   -2.0270   -1.3640 O   0  0  0  0  0  0  0  0  0  0  0  0
   -0.3430   -2.4260   -1.3020 C   0  0  0  0  0  0  0  0  0  0  0  0
    0.4980   -1.4540   -0.5060 C   0  0  2  0  0  0  0  0  0  0  0  0
   -0.0090   -1.3680    0.8300 N   0  0  0  0  0  0  0  0  0  0  0  0
    0.5030   -0.1590   -1.2160 C   0  0  0  0  0  0  0  0  0  0  0  0
    0.9320   -0.1400   -2.3980 O   0  0  0  0  0  0  0  0  0  0  0  0
   -2.2780   -2.6020   -0.8520 H   0  0  0  0  0  0  0  0  0  0  0  0
    0.1300   -2.4920   -2.3140 H   0  0  0  0  0  0  0  0  0  0  0  0
   -0.2730   -3.4280   -0.8530 H   0  0  0  0  0  0  0  0  0  0  0  0
    1.5220   -1.8730   -0.4710 H   0  0  0  0  0  0  0  0  0  0  0  0
   -0.9640   -1.0000    1.0440 H   0  0  0  0  0  0  0  0  0  0  0  0
   -1.3260    2.8970   -1.5090 C   0  0  0  0  0  0  0  0  0  0  0  0
    0.0720    2.3210   -1.3750 C   0  0  2  0  0  0  0  0  0  0  0  0
    0.0560    1.0630   -0.6540 N   0  0  0  0  0  0  0  0  0  0  0  0
    0.9500    3.2590   -0.6400 C   0  0  0  0  0  0  0  0  0  0  0  0
    1.1150    4.4190   -1.0840 O   0  0  0  0  0  0  0  0  0  0  0  0
    1.5930    2.8890    0.5240 O   0  0  0  0  0  0  0  0  0  0  0  0
   -1.9400    2.0990   -1.9900 H   0  0  0  0  0  0  0  0  0  0  0  0
   -1.7290    3.1510   -0.5120 H   0  0  0  0  0  0  0  0  0  0  0  0
   -1.2320    3.7850   -2.1700 H   0  0  0  0  0  0  0  0  0  0  0  0
    0.4680    2.2110   -2.3970 H   0  0  0  0  0  0  0  0  0  0  0  0
   -0.2960    1.0240    0.3270 H   0  0  0  0  0  0  0  0  0  0  0  0
  1  8  1  0  0  0  0
  2  1  1  0  0  0  0
  2  3  1  0  0  0  0
  2  9  1  1  0  0  0
  3 10  1  0  0  0  0
  4  3  1  0  0  0  0
  5  2  1  0  0  0  0
  6  5  2  0  0  0  0
  7  1  1  0  0  0  0
 11  3  1  0  0  0  0
 12  4  1  0  0  0  0
 13 14  1  0  0  0  0
 13 19  1  0  0  0  0
 14 21  1  0  0  0  0
 14 15  1  0  0  0  0
 15 22  1  1  0  0  0
 15 16  1  0  0  0  0
 16 23  1  0  0  0  0
 16  5  1  0  0  0  0
 17 26  1  0  0  0  0
 17 15  1  0  0  0  0
 18 17  2  0  0  0  0
 20 14  1  0  0  0  0
 24 25  1  0  0  0  0
 24 31  1  0  0  0  0
 25 33  1  6  0  0  0
 25 26  1  0  0  0  0
 25 27  1  0  0  0  0
 26 34  1  0  0  0  0
 27 29  1  0  0  0  0
 28 27  2  0  0  0  0
 30 24  1  0  0  0  0
 32 24  1  0  0  0  0
M  END
$$$$
