CSD.pdb
 OpenBabel07022418293D

 37 36  0  0  1  0  0  0  0  0999 V2000
    0.9660   -5.1490    2.3110 N   0  0  0  0  0  0  0  0  0  0  0  0
    0.6380   -4.3870    1.1060 C   0  0  1  0  0  0  0  0  0  0  0  0
   -0.8700   -4.4950    0.9190 C   0  0  0  0  0  0  0  0  0  0  0  0
   -1.4530   -3.6150   -0.5310 S   0  0  0  0  0  0  0  0  0  0  0  0
    1.0750   -2.9810    1.2570 C   0  0  0  0  0  0  0  0  0  0  0  0
    1.5320   -2.6280    2.3820 O   0  0  0  0  0  0  0  0  0  0  0  0
    0.2120   -4.9420    3.0310 H   0  0  0  0  0  0  0  0  0  0  0  0
    1.8480   -4.7760    2.6780 H   0  0  0  0  0  0  0  0  0  0  0  0
    1.1320   -4.8360    0.2390 H   0  0  0  0  0  0  0  0  0  0  0  0
   -1.1080   -5.5700    0.7840 H   0  0  0  0  0  0  0  0  0  0  0  0
   -1.4100   -4.1800    1.8380 H   0  0  0  0  0  0  0  0  0  0  0  0
   -1.4280   -4.4400   -1.6690 H   0  0  0  0  0  0  0  0  0  0  0  0
    3.6230   -1.3760   -0.0770 O   0  0  0  0  0  0  0  0  0  0  0  0
    2.6680   -0.4070   -0.3760 C   0  0  0  0  0  0  0  0  0  0  0  0
    1.4890   -0.6520    0.5340 C   0  0  2  0  0  0  0  0  0  0  0  0
    1.0180   -2.0110    0.2290 N   0  0  0  0  0  0  0  0  0  0  0  0
    0.3700    0.2950    0.3000 C   0  0  0  0  0  0  0  0  0  0  0  0
   -0.7610   -0.1190   -0.1050 O   0  0  0  0  0  0  0  0  0  0  0  0
    3.6050   -2.1380   -0.6940 H   0  0  0  0  0  0  0  0  0  0  0  0
    2.3400   -0.6310   -1.4320 H   0  0  0  0  0  0  0  0  0  0  0  0
    3.1300    0.5710   -0.2650 H   0  0  0  0  0  0  0  0  0  0  0  0
    1.8280   -0.5880    1.5670 H   0  0  0  0  0  0  0  0  0  0  0  0
    0.6550   -2.2600   -0.7150 H   0  0  0  0  0  0  0  0  0  0  0  0
    0.4940    1.6930    0.5120 N   0  0  0  0  0  0  0  0  0  0  0  0
   -0.5910    2.5830    0.2810 C   0  0  1  0  0  0  0  0  0  0  0  0
   -1.0890    3.2670    1.5380 C   0  0  0  0  0  0  0  0  0  0  0  0
   -1.5530    2.2610    2.5070 C   0  0  0  0  0  0  0  0  0  0  0  0
   -0.7360    1.6460    3.2090 O   0  0  0  0  0  0  0  0  0  0  0  0
   -0.3260    3.5500   -0.8180 C   0  0  0  0  0  0  0  0  0  0  0  0
    0.7680    3.5390   -1.4420 O   0  0  0  0  0  0  0  0  0  0  0  0
   -2.9010    2.0090    2.6260 O   0  0  0  0  0  0  0  0  0  0  0  0
   -1.2640    4.4960   -1.1990 O   0  0  0  0  0  0  0  0  0  0  0  0
    1.4390    2.0500    0.8530 H   0  0  0  0  0  0  0  0  0  0  0  0
   -1.4640    1.9730   -0.0770 H   0  0  0  0  0  0  0  0  0  0  0  0
   -1.8850    4.0040    1.2670 H   0  0  0  0  0  0  0  0  0  0  0  0
   -0.2960    3.8670    2.0320 H   0  0  0  0  0  0  0  0  0  0  0  0
   -3.2620    1.0890    2.8660 H   0  0  0  0  0  0  0  0  0  0  0  0
  1  8  1  0  0  0  0
  1  7  1  0  0  0  0
  2  9  1  6  0  0  0
  2  5  1  0  0  0  0
  2  1  1  0  0  0  0
  3  2  1  0  0  0  0
  3 11  1  0  0  0  0
  4  3  1  0  0  0  0
  5  6  2  0  0  0  0
 10  3  1  0  0  0  0
 12  4  1  0  0  0  0
 14 21  1  0  0  0  0
 14 13  1  0  0  0  0
 14 15  1  0  0  0  0
 15 22  1  1  0  0  0
 16 15  1  0  0  0  0
 16  5  1  0  0  0  0
 17 24  1  0  0  0  0
 17 15  1  0  0  0  0
 18 17  2  0  0  0  0
 19 13  1  0  0  0  0
 20 14  1  0  0  0  0
 23 16  1  0  0  0  0
 24 33  1  0  0  0  0
 25 34  1  6  0  0  0
 25 24  1  0  0  0  0
 25 26  1  0  0  0  0
 26 36  1  0  0  0  0
 26 27  1  0  0  0  0
 27 31  1  0  0  0  0
 27 28  2  0  0  0  0
 29 25  1  0  0  0  0
 30 29  2  0  0  0  0
 31 37  1  0  0  0  0
 32 29  1  0  0  0  0
 35 26  1  0  0  0  0
M  END
$$$$
