CSE.pdb
 OpenBabel07022418293D

 40 39  0  0  1  0  0  0  0  0999 V2000
    1.6040   -3.7490    1.1230 N   0  0  0  0  0  0  0  0  0  0  0  0
    0.3440   -4.1790    0.5210 C   0  0  1  0  0  0  0  0  0  0  0  0
   -0.0870   -5.4170    1.2900 C   0  0  0  0  0  0  0  0  0  0  0  0
   -0.3120   -5.0110    3.0460 S   0  0  0  0  0  0  0  0  0  0  0  0
   -0.6250   -3.0790    0.6460 C   0  0  0  0  0  0  0  0  0  0  0  0
   -1.8020   -3.2050    0.1960 O   0  0  0  0  0  0  0  0  0  0  0  0
    2.1070   -3.0540    0.5380 H   0  0  0  0  0  0  0  0  0  0  0  0
    2.1830   -4.5600    1.3760 H   0  0  0  0  0  0  0  0  0  0  0  0
    0.5370   -4.4470   -0.5260 H   0  0  0  0  0  0  0  0  0  0  0  0
   -0.9920   -5.8810    0.8730 H   0  0  0  0  0  0  0  0  0  0  0  0
    0.7360   -6.1560    1.2100 H   0  0  0  0  0  0  0  0  0  0  0  0
    0.9280   -4.5330    3.5460 H   0  0  0  0  0  0  0  0  0  0  0  0
   -2.1120   -1.5630    3.4750 O   0  0  0  0  0  0  0  0  0  0  0  0
   -1.5610   -0.4520    2.8370 C   0  0  0  0  0  0  0  0  0  0  0  0
   -1.2350   -0.7640    1.3900 C   0  0  2  0  0  0  0  0  0  0  0  0
   -0.2880   -1.8410    1.2670 N   0  0  0  0  0  0  0  0  0  0  0  0
   -0.8070    0.4580    0.6840 C   0  0  0  0  0  0  0  0  0  0  0  0
   -1.5690    1.4560    0.7320 O   0  0  0  0  0  0  0  0  0  0  0  0
   -2.9840   -1.7260    3.0340 H   0  0  0  0  0  0  0  0  0  0  0  0
   -0.6880   -0.1430    3.4190 H   0  0  0  0  0  0  0  0  0  0  0  0
   -2.3370    0.3570    2.8130 H   0  0  0  0  0  0  0  0  0  0  0  0
   -2.1910   -1.1010    0.9260 H   0  0  0  0  0  0  0  0  0  0  0  0
    0.6970   -1.7430    1.6410 H   0  0  0  0  0  0  0  0  0  0  0  0
    0.3980    0.5880   -0.0420 N   0  0  0  0  0  0  0  0  0  0  0  0
    0.7550    1.8270   -0.7160 C   0  0  1  0  0  0  0  0  0  0  0  0
    2.1290    2.2450   -0.3020 C   0  0  0  0  0  0  0  0  0  0  0  0
    2.3090    2.4920    1.1570 C   0  0  0  0  0  0  0  0  0  0  0  0
    1.4540    3.5520    1.7150 C   0  0  0  0  0  0  0  0  0  0  0  0
    1.5290    3.8150    2.9350 O   0  0  0  0  0  0  0  0  0  0  0  0
    0.8120    1.6080   -2.2060 C   0  0  0  0  0  0  0  0  0  0  0  0
    1.0990    2.5350   -2.9840 O   0  0  0  0  0  0  0  0  0  0  0  0
    0.5750    4.2610    0.9290 O   0  0  0  0  0  0  0  0  0  0  0  0
    0.5350    0.3480   -2.6820 O   0  0  0  0  0  0  0  0  0  0  0  0
    1.0340   -0.2380   -0.0850 H   0  0  0  0  0  0  0  0  0  0  0  0
   -0.0260    2.5830   -0.5680 H   0  0  0  0  0  0  0  0  0  0  0  0
    2.8450    1.4700   -0.6100 H   0  0  0  0  0  0  0  0  0  0  0  0
    2.3690    3.1870   -0.8380 H   0  0  0  0  0  0  0  0  0  0  0  0
    3.3720    2.8530    1.2820 H   0  0  0  0  0  0  0  0  0  0  0  0
    2.2680    1.5590    1.7650 H   0  0  0  0  0  0  0  0  0  0  0  0
   -0.3370    4.5380    1.3190 H   0  0  0  0  0  0  0  0  0  0  0  0
  1  8  1  0  0  0  0
  2  9  1  6  0  0  0
  2  5  1  0  0  0  0
  2  1  1  0  0  0  0
  2  3  1  0  0  0  0
  3  4  1  0  0  0  0
  4 12  1  0  0  0  0
  5 16  1  0  0  0  0
  6  5  2  0  0  0  0
  7  1  1  0  0  0  0
 10  3  1  0  0  0  0
 11  3  1  0  0  0  0
 14 20  1  0  0  0  0
 14 13  1  0  0  0  0
 15 22  1  6  0  0  0
 15 14  1  0  0  0  0
 16 15  1  0  0  0  0
 16 23  1  0  0  0  0
 17 18  2  0  0  0  0
 17 15  1  0  0  0  0
 19 13  1  0  0  0  0
 21 14  1  0  0  0  0
 24 17  1  0  0  0  0
 25 35  1  1  0  0  0
 25 26  1  0  0  0  0
 25 24  1  0  0  0  0
 26 27  1  0  0  0  0
 27 38  1  0  0  0  0
 27 28  1  0  0  0  0
 27 39  1  0  0  0  0
 28 29  2  0  0  0  0
 30 25  1  0  0  0  0
 31 30  2  0  0  0  0
 32 40  1  0  0  0  0
 32 28  1  0  0  0  0
 33 30  1  0  0  0  0
 34 24  1  0  0  0  0
 36 26  1  0  0  0  0
 37 26  1  0  0  0  0
M  END
$$$$
