CSF.pdb
 OpenBabel07022418293D

 44 44  0  0  1  0  0  0  0  0999 V2000
    4.0420   -3.7830    1.1990 N   0  0  0  0  0  0  0  0  0  0  0  0
    3.0220   -3.0380    0.4660 C   0  0  1  0  0  0  0  0  0  0  0  0
    1.7020   -3.6080    0.8620 C   0  0  0  0  0  0  0  0  0  0  0  0
    0.2860   -2.8520    0.0700 S   0  0  0  0  0  0  0  0  0  0  0  0
    3.1980   -1.6040    0.6940 C   0  0  0  0  0  0  0  0  0  0  0  0
    4.1370   -1.2560    1.5010 O   0  0  0  0  0  0  0  0  0  0  0  0
    4.2390   -4.6690    0.6510 H   0  0  0  0  0  0  0  0  0  0  0  0
    3.7060   -4.0380    2.1470 H   0  0  0  0  0  0  0  0  0  0  0  0
    3.1770   -3.2590   -0.6200 H   0  0  0  0  0  0  0  0  0  0  0  0
    1.7190   -4.6890    0.5500 H   0  0  0  0  0  0  0  0  0  0  0  0
    1.5760   -3.6440    1.9710 H   0  0  0  0  0  0  0  0  0  0  0  0
   -0.7220   -3.8170   -0.1040 H   0  0  0  0  0  0  0  0  0  0  0  0
    2.2340    1.5690   -1.8560 O   0  0  0  0  0  0  0  0  0  0  0  0
    3.1580    1.5810   -0.8280 C   0  0  0  0  0  0  0  0  0  0  0  0
    2.6770    0.8050    0.3830 C   0  0  2  0  0  0  0  0  0  0  0  0
    2.4190   -0.5660    0.0960 N   0  0  0  0  0  0  0  0  0  0  0  0
    1.5700    1.5490    1.0050 C   0  0  0  0  0  0  0  0  0  0  0  0
    1.7510    2.7610    1.2790 O   0  0  0  0  0  0  0  0  0  0  0  0
    1.3750    1.1700   -1.6280 H   0  0  0  0  0  0  0  0  0  0  0  0
    3.2520    2.6510   -0.4880 H   0  0  0  0  0  0  0  0  0  0  0  0
    4.1570    1.2800   -1.1670 H   0  0  0  0  0  0  0  0  0  0  0  0
    3.5450    0.8630    1.1080 H   0  0  0  0  0  0  0  0  0  0  0  0
    1.6580   -0.8330   -0.5570 H   0  0  0  0  0  0  0  0  0  0  0  0
    0.3310    0.9530    1.2970 N   0  0  0  0  0  0  0  0  0  0  0  0
   -0.7050    1.7510    1.9080 C   0  0  1  0  0  0  0  0  0  0  0  0
   -1.9080    1.8880    1.0040 C   0  0  0  0  0  0  0  0  0  0  0  0
   -2.5380    0.6090    0.6500 C   0  0  0  0  0  0  0  0  0  0  0  0
   -3.5420    0.0630    1.4050 C   0  0  0  0  0  0  0  0  0  0  0  0
   -4.1300   -1.1440    1.0620 C   0  0  0  0  0  0  0  0  0  0  0  0
   -3.7100   -1.8240   -0.0580 C   0  0  0  0  0  0  0  0  0  0  0  0
   -2.7060   -1.2630   -0.8010 C   0  0  0  0  0  0  0  0  0  0  0  0
   -2.1110   -0.0590   -0.4690 C   0  0  0  0  0  0  0  0  0  0  0  0
   -1.1480    1.1910    3.2050 C   0  0  0  0  0  0  0  0  0  0  0  0
   -2.0420    1.7930    3.8460 O   0  0  0  0  0  0  0  0  0  0  0  0
   -0.6130    0.0250    3.7410 O   0  0  0  0  0  0  0  0  0  0  0  0
    0.1180   -0.0610    1.0900 H   0  0  0  0  0  0  0  0  0  0  0  0
   -0.3200    2.7780    2.0640 H   0  0  0  0  0  0  0  0  0  0  0  0
   -1.6640    2.4890    0.0910 H   0  0  0  0  0  0  0  0  0  0  0  0
   -2.6640    2.4890    1.5720 H   0  0  0  0  0  0  0  0  0  0  0  0
   -3.9250    0.5370    2.2950 H   0  0  0  0  0  0  0  0  0  0  0  0
   -4.9270   -1.5860    1.6540 H   0  0  0  0  0  0  0  0  0  0  0  0
   -4.1460   -2.7750   -0.3630 H   0  0  0  0  0  0  0  0  0  0  0  0
   -2.3680   -1.7970   -1.6910 H   0  0  0  0  0  0  0  0  0  0  0  0
   -1.3090    0.3280   -1.1150 H   0  0  0  0  0  0  0  0  0  0  0  0
  1  8  1  0  0  0  0
  2  9  1  6  0  0  0
  2  5  1  0  0  0  0
  2  3  1  0  0  0  0
  2  1  1  0  0  0  0
  3 11  1  0  0  0  0
  4  3  1  0  0  0  0
  5  6  2  0  0  0  0
  7  1  1  0  0  0  0
 10  3  1  0  0  0  0
 12  4  1  0  0  0  0
 13 19  1  0  0  0  0
 13 14  1  0  0  0  0
 14 20  1  0  0  0  0
 14 15  1  0  0  0  0
 15 17  1  0  0  0  0
 15 22  1  1  0  0  0
 16 15  1  0  0  0  0
 16  5  1  0  0  0  0
 17 18  2  0  0  0  0
 17 24  1  0  0  0  0
 21 14  1  0  0  0  0
 23 16  1  0  0  0  0
 24 25  1  0  0  0  0
 25 37  1  1  0  0  0
 25 33  1  0  0  0  0
 26 39  1  0  0  0  0
 26 25  1  0  0  0  0
 27 26  1  0  0  0  0
 27 28  1  0  0  0  0
 28 40  1  0  0  0  0
 29 28  2  0  0  0  0
 29 41  1  0  0  0  0
 30 29  1  0  0  0  0
 31 32  1  0  0  0  0
 31 30  2  0  0  0  0
 32 27  2  0  0  0  0
 33 35  2  0  0  0  0
 33 34  1  0  0  0  0
 36 24  1  0  0  0  0
 38 26  1  0  0  0  0
 42 30  1  0  0  0  0
 43 31  1  0  0  0  0
 44 32  1  0  0  0  0
M  END
$$$$
