CSG.pdb
 OpenBabel07022418293D

 31 30  0  0  1  0  0  0  0  0999 V2000
    1.8950   -3.3410    2.8860 N   0  0  0  0  0  0  0  0  0  0  0  0
    0.6690   -2.5740    2.5540 C   0  0  1  0  0  0  0  0  0  0  0  0
    0.6200   -1.3580    3.4230 C   0  0  0  0  0  0  0  0  0  0  0  0
   -0.8420   -0.3440    3.1770 S   0  0  0  0  0  0  0  0  0  0  0  0
    0.7140   -2.2440    1.1320 C   0  0  0  0  0  0  0  0  0  0  0  0
    1.7270   -2.5810    0.4520 O   0  0  0  0  0  0  0  0  0  0  0  0
    2.3890   -3.6360    2.0200 H   0  0  0  0  0  0  0  0  0  0  0  0
    2.4820   -2.8060    3.5500 H   0  0  0  0  0  0  0  0  0  0  0  0
   -0.1580   -3.2750    2.7840 H   0  0  0  0  0  0  0  0  0  0  0  0
    1.5030   -0.6870    3.2560 H   0  0  0  0  0  0  0  0  0  0  0  0
    0.6810   -1.6310    4.5210 H   0  0  0  0  0  0  0  0  0  0  0  0
   -1.9660   -1.2220    3.1880 H   0  0  0  0  0  0  0  0  0  0  0  0
   -1.3920   -3.2870   -1.5830 O   0  0  0  0  0  0  0  0  0  0  0  0
   -1.3850   -1.9020   -1.7380 C   0  0  0  0  0  0  0  0  0  0  0  0
   -0.2300   -1.2850   -0.9730 C   0  0  2  0  0  0  0  0  0  0  0  0
   -0.3130   -1.5700    0.4540 N   0  0  0  0  0  0  0  0  0  0  0  0
   -0.0350    0.1310   -1.2960 C   0  0  0  0  0  0  0  0  0  0  0  0
    0.0100    0.5570   -2.4960 O   0  0  0  0  0  0  0  0  0  0  0  0
   -1.2610   -3.7590   -2.4390 H   0  0  0  0  0  0  0  0  0  0  0  0
   -2.3480   -1.4760   -1.4050 H   0  0  0  0  0  0  0  0  0  0  0  0
   -1.2310   -1.6820   -2.8000 H   0  0  0  0  0  0  0  0  0  0  0  0
    0.7090   -1.8030   -1.3480 H   0  0  0  0  0  0  0  0  0  0  0  0
   -1.1900   -1.2460    0.9170 H   0  0  0  0  0  0  0  0  0  0  0  0
    0.1170    1.1100   -0.2920 N   0  0  0  0  0  0  0  0  0  0  0  0
    0.3100    2.5190   -0.6180 C   0  0  0  0  0  0  0  0  0  0  0  0
    0.4360    3.2880    0.6430 C   0  0  0  0  0  0  0  0  0  0  0  0
    0.6100    4.5350    0.6020 O   0  0  0  0  0  0  0  0  0  0  0  0
    0.3690    2.6790    1.8880 O   0  0  0  0  0  0  0  0  0  0  0  0
    0.0980    0.8390    0.6910 H   0  0  0  0  0  0  0  0  0  0  0  0
    1.2340    2.6510   -1.2180 H   0  0  0  0  0  0  0  0  0  0  0  0
   -0.5260    2.8960   -1.2380 H   0  0  0  0  0  0  0  0  0  0  0  0
  1  8  1  0  0  0  0
  2  9  1  1  0  0  0
  2  1  1  0  0  0  0
  2  3  1  0  0  0  0
  3 11  1  0  0  0  0
  4 12  1  0  0  0  0
  4  3  1  0  0  0  0
  5  2  1  0  0  0  0
  6  5  2  0  0  0  0
  7  1  1  0  0  0  0
 10  3  1  0  0  0  0
 14 13  1  0  0  0  0
 14 20  1  0  0  0  0
 14 15  1  0  0  0  0
 15 22  1  6  0  0  0
 15 16  1  0  0  0  0
 16 23  1  0  0  0  0
 16  5  1  0  0  0  0
 17 15  1  0  0  0  0
 17 24  1  0  0  0  0
 18 17  2  0  0  0  0
 19 13  1  0  0  0  0
 21 14  1  0  0  0  0
 24 29  1  0  0  0  0
 25 24  1  0  0  0  0
 25 26  1  0  0  0  0
 26 28  1  0  0  0  0
 27 26  2  0  0  0  0
 30 25  1  0  0  0  0
 31 25  1  0  0  0  0
M  END
$$$$
