CSH.pdb
 OpenBabel07022418293D

 41 41  0  0  1  0  0  0  0  0999 V2000
    3.2320   -2.3940   -0.0310 N   0  0  0  0  0  0  0  0  0  0  0  0
    2.6740   -2.3560   -1.3480 C   0  0  1  0  0  0  0  0  0  0  0  0
    2.8500   -3.7510   -1.9660 C   0  0  0  0  0  0  0  0  0  0  0  0
    4.5810   -4.2070   -2.0610 S   0  0  0  0  0  0  0  0  0  0  0  0
    1.2430   -1.9650   -1.3570 C   0  0  0  0  0  0  0  0  0  0  0  0
    0.6570   -1.9000   -2.4650 O   0  0  0  0  0  0  0  0  0  0  0  0
    2.9280   -3.2570    0.4830 H   0  0  0  0  0  0  0  0  0  0  0  0
    4.2750   -2.4740   -0.1290 H   0  0  0  0  0  0  0  0  0  0  0  0
    3.2750   -1.6760   -2.0130 H   0  0  0  0  0  0  0  0  0  0  0  0
    2.3390   -3.7310   -2.9450 H   0  0  0  0  0  0  0  0  0  0  0  0
    2.3310   -4.4760   -1.2890 H   0  0  0  0  0  0  0  0  0  0  0  0
    4.8890   -5.3670   -1.3450 H   0  0  0  0  0  0  0  0  0  0  0  0
   -1.6180   -3.5070   -0.1680 O   0  0  0  0  0  0  0  0  0  0  0  0
   -1.8070   -2.2530    0.4020 C   0  0  0  0  0  0  0  0  0  0  0  0
   -0.8810   -1.2950   -0.3120 C   0  0  2  0  0  0  0  0  0  0  0  0
    0.4990   -1.6620   -0.1900 N   0  0  0  0  0  0  0  0  0  0  0  0
   -1.1130    0.1180    0.1590 C   0  0  0  0  0  0  0  0  0  0  0  0
   -2.2620    0.6260    0.1340 O   0  0  0  0  0  0  0  0  0  0  0  0
   -2.4330   -3.8550   -0.5980 H   0  0  0  0  0  0  0  0  0  0  0  0
   -1.6100   -2.2760    1.5000 H   0  0  0  0  0  0  0  0  0  0  0  0
   -2.8470   -1.9470    0.1700 H   0  0  0  0  0  0  0  0  0  0  0  0
   -1.1770   -1.3030   -1.3780 H   0  0  0  0  0  0  0  0  0  0  0  0
    0.9680   -1.7080    0.7610 H   0  0  0  0  0  0  0  0  0  0  0  0
   -0.0420    0.9190    0.6450 N   0  0  0  0  0  0  0  0  0  0  0  0
   -0.2150    2.2860    1.1140 C   0  0  1  0  0  0  0  0  0  0  0  0
    0.3440    2.3760    2.5090 C   0  0  0  0  0  0  0  0  0  0  0  0
   -0.3950    1.4320    3.3760 C   0  0  0  0  0  0  0  0  0  0  0  0
   -0.1090    1.2810    4.7380 C   0  0  0  0  0  0  0  0  0  0  0  0
   -0.9430    0.3600    5.2470 N   0  0  0  0  0  0  0  0  0  0  0  0
   -1.7380   -0.0690    4.2520 C   0  0  0  0  0  0  0  0  0  0  0  0
   -1.3980    0.5830    3.1330 N   0  0  0  0  0  0  0  0  0  0  0  0
    0.4260    3.2570    0.1940 C   0  0  0  0  0  0  0  0  0  0  0  0
    0.3670    4.4770    0.4590 O   0  0  0  0  0  0  0  0  0  0  0  0
    1.0880    2.8570   -0.9480 O   0  0  0  0  0  0  0  0  0  0  0  0
    0.8950    0.4580    0.6460 H   0  0  0  0  0  0  0  0  0  0  0  0
   -1.2830    2.5730    1.1600 H   0  0  0  0  0  0  0  0  0  0  0  0
    1.4390    2.1830    2.5150 H   0  0  0  0  0  0  0  0  0  0  0  0
    0.1260    3.3950    2.8940 H   0  0  0  0  0  0  0  0  0  0  0  0
    0.6500    1.8040    5.3160 H   0  0  0  0  0  0  0  0  0  0  0  0
   -0.9990    0.0090    6.2350 H   0  0  0  0  0  0  0  0  0  0  0  0
   -2.5310   -0.8130    4.3020 H   0  0  0  0  0  0  0  0  0  0  0  0
  1  7  1  0  0  0  0
  2  9  1  6  0  0  0
  2  1  1  0  0  0  0
  3  2  1  0  0  0  0
  3 11  1  0  0  0  0
  4  3  1  0  0  0  0
  4 12  1  0  0  0  0
  5  2  1  0  0  0  0
  5 16  1  0  0  0  0
  6  5  2  0  0  0  0
  8  1  1  0  0  0  0
 10  3  1  0  0  0  0
 13 14  1  0  0  0  0
 14 20  1  0  0  0  0
 15 22  1  6  0  0  0
 15 16  1  0  0  0  0
 15 17  1  0  0  0  0
 15 14  1  0  0  0  0
 16 23  1  0  0  0  0
 17 24  1  0  0  0  0
 18 17  2  0  0  0  0
 19 13  1  0  0  0  0
 21 14  1  0  0  0  0
 24 35  1  0  0  0  0
 24 25  1  0  0  0  0
 25 36  1  1  0  0  0
 25 26  1  0  0  0  0
 26 37  1  0  0  0  0
 26 38  1  0  0  0  0
 26 27  1  0  0  0  0
 27 28  2  0  0  0  0
 28 29  1  0  0  0  0
 28 39  1  0  0  0  0
 29 40  1  0  0  0  0
 30 41  1  0  0  0  0
 30 29  1  0  0  0  0
 31 27  1  0  0  0  0
 31 30  2  0  0  0  0
 32 33  1  0  0  0  0
 32 25  1  0  0  0  0
 34 32  2  0  0  0  0
M  END
$$$$
