CSK.pdb
 OpenBabel07022418293D

 45 44  0  0  1  0  0  0  0  0999 V2000
    3.2590   -2.6040   -3.8730 N   0  0  0  0  0  0  0  0  0  0  0  0
    2.3480   -2.7280   -2.7570 C   0  0  1  0  0  0  0  0  0  0  0  0
    3.1450   -2.7500   -1.4670 C   0  0  0  0  0  0  0  0  0  0  0  0
    4.1130   -1.2360   -1.2580 S   0  0  0  0  0  0  0  0  0  0  0  0
    1.3390   -1.6380   -2.7550 C   0  0  0  0  0  0  0  0  0  0  0  0
    1.3560   -0.7610   -3.6560 O   0  0  0  0  0  0  0  0  0  0  0  0
    3.3080   -3.5300   -4.3670 H   0  0  0  0  0  0  0  0  0  0  0  0
    4.2450   -2.3960   -3.5700 H   0  0  0  0  0  0  0  0  0  0  0  0
    1.8140   -3.7130   -2.7990 H   0  0  0  0  0  0  0  0  0  0  0  0
    3.8800   -3.5880   -1.5760 H   0  0  0  0  0  0  0  0  0  0  0  0
    2.5190   -2.9920   -0.6010 H   0  0  0  0  0  0  0  0  0  0  0  0
    4.9110   -1.4150   -0.1000 H   0  0  0  0  0  0  0  0  0  0  0  0
   -2.2160   -2.0770   -0.7660 O   0  0  0  0  0  0  0  0  0  0  0  0
   -2.0200   -1.1820   -1.8230 C   0  0  0  0  0  0  0  0  0  0  0  0
   -0.6460   -0.5610   -1.6790 C   0  0  2  0  0  0  0  0  0  0  0  0
    0.3640   -1.6120   -1.7210 N   0  0  0  0  0  0  0  0  0  0  0  0
   -0.6220    0.1410   -0.3620 C   0  0  0  0  0  0  0  0  0  0  0  0
   -1.4500    1.0740   -0.1980 O   0  0  0  0  0  0  0  0  0  0  0  0
   -3.0590   -1.9000   -0.2830 H   0  0  0  0  0  0  0  0  0  0  0  0
   -2.7990   -0.4200   -1.7670 H   0  0  0  0  0  0  0  0  0  0  0  0
   -2.1430   -1.7190   -2.7850 H   0  0  0  0  0  0  0  0  0  0  0  0
   -0.5180    0.1430   -2.5270 H   0  0  0  0  0  0  0  0  0  0  0  0
    0.3560   -2.3430   -0.9770 H   0  0  0  0  0  0  0  0  0  0  0  0
    0.2540   -0.1730    0.6860 N   0  0  0  0  0  0  0  0  0  0  0  0
    0.2380    0.5400    1.9490 C   0  0  1  0  0  0  0  0  0  0  0  0
   -0.0440   -0.4250    3.0810 C   0  0  0  0  0  0  0  0  0  0  0  0
   -0.0810    0.2180    4.4260 C   0  0  0  0  0  0  0  0  0  0  0  0
   -1.1360    1.2890    4.5470 C   0  0  0  0  0  0  0  0  0  0  0  0
   -2.5090    0.7010    4.2970 C   0  0  0  0  0  0  0  0  0  0  0  0
   -3.4830    1.7820    4.4280 N   0  0  0  0  0  0  0  0  0  0  0  0
    1.5490    1.2070    2.1570 C   0  0  0  0  0  0  0  0  0  0  0  0
    2.4500    1.0720    1.2780 O   0  0  0  0  0  0  0  0  0  0  0  0
    1.8710    1.9740    3.2460 O   0  0  0  0  0  0  0  0  0  0  0  0
    0.9480   -0.9640    0.5320 H   0  0  0  0  0  0  0  0  0  0  0  0
   -0.5670    1.3130    1.8650 H   0  0  0  0  0  0  0  0  0  0  0  0
   -0.9580   -1.0160    2.8950 H   0  0  0  0  0  0  0  0  0  0  0  0
    0.7950   -1.1620    3.0910 H   0  0  0  0  0  0  0  0  0  0  0  0
    0.8760    0.5700    4.8100 H   0  0  0  0  0  0  0  0  0  0  0  0
   -0.4040   -0.5890    5.1510 H   0  0  0  0  0  0  0  0  0  0  0  0
   -0.9410    2.1780    3.9300 H   0  0  0  0  0  0  0  0  0  0  0  0
   -1.1230    1.6320    5.6060 H   0  0  0  0  0  0  0  0  0  0  0  0
   -2.6230    0.2670    3.3030 H   0  0  0  0  0  0  0  0  0  0  0  0
   -2.7380   -0.0610    5.0560 H   0  0  0  0  0  0  0  0  0  0  0  0
   -4.4510    1.4030    4.2510 H   0  0  0  0  0  0  0  0  0  0  0  0
   -3.2610    2.4900    3.6990 H   0  0  0  0  0  0  0  0  0  0  0  0
  1  8  1  0  0  0  0
  1  2  1  0  0  0  0
  2  9  1  6  0  0  0
  2  5  1  0  0  0  0
  2  3  1  0  0  0  0
  3  4  1  0  0  0  0
  3 11  1  0  0  0  0
  4 12  1  0  0  0  0
  5 16  1  0  0  0  0
  6  5  2  0  0  0  0
  7  1  1  0  0  0  0
 10  3  1  0  0  0  0
 13 19  1  0  0  0  0
 14 20  1  0  0  0  0
 14 15  1  0  0  0  0
 14 13  1  0  0  0  0
 15 22  1  6  0  0  0
 15 17  1  0  0  0  0
 16 15  1  0  0  0  0
 16 23  1  0  0  0  0
 17 18  2  0  0  0  0
 17 24  1  0  0  0  0
 21 14  1  0  0  0  0
 24 25  1  0  0  0  0
 25 35  1  6  0  0  0
 25 31  1  0  0  0  0
 25 26  1  0  0  0  0
 26 37  1  0  0  0  0
 26 27  1  0  0  0  0
 27 28  1  0  0  0  0
 27 38  1  0  0  0  0
 27 39  1  0  0  0  0
 28 41  1  0  0  0  0
 29 30  1  0  0  0  0
 29 28  1  0  0  0  0
 29 43  1  0  0  0  0
 31 33  1  0  0  0  0
 32 31  2  0  0  0  0
 34 24  1  0  0  0  0
 36 26  1  0  0  0  0
 40 28  1  0  0  0  0
 42 29  1  0  0  0  0
 44 30  1  0  0  0  0
 45 30  1  0  0  0  0
M  END
$$$$
