CSL.pdb
 OpenBabel07022418293D

 43 42  0  0  1  0  0  0  0  0999 V2000
   -2.6410   -3.4060    2.8430 N   0  0  0  0  0  0  0  0  0  0  0  0
   -1.2470   -3.7010    3.0350 C   0  0  1  0  0  0  0  0  0  0  0  0
   -0.9560   -5.1860    3.0650 C   0  0  0  0  0  0  0  0  0  0  0  0
    0.8320   -5.3810    3.3130 S   0  0  0  0  0  0  0  0  0  0  0  0
   -0.3810   -2.9840    2.0610 C   0  0  0  0  0  0  0  0  0  0  0  0
    0.8650   -3.1480    2.1130 O   0  0  0  0  0  0  0  0  0  0  0  0
   -2.9800   -3.5000    1.8810 H   0  0  0  0  0  0  0  0  0  0  0  0
   -2.8380   -2.4840    3.2860 H   0  0  0  0  0  0  0  0  0  0  0  0
   -0.9680   -3.3100    4.0420 H   0  0  0  0  0  0  0  0  0  0  0  0
   -1.3130   -5.7170    2.1710 H   0  0  0  0  0  0  0  0  0  0  0  0
   -1.4540   -5.6080    3.9600 H   0  0  0  0  0  0  0  0  0  0  0  0
    1.0240   -6.6370    3.9360 H   0  0  0  0  0  0  0  0  0  0  0  0
   -0.0790   -3.3800   -1.2950 O   0  0  0  0  0  0  0  0  0  0  0  0
   -0.2560   -2.0080   -1.2360 C   0  0  0  0  0  0  0  0  0  0  0  0
    0.0310   -1.4660    0.1680 C   0  0  2  0  0  0  0  0  0  0  0  0
   -0.8910   -2.1160    1.0680 N   0  0  0  0  0  0  0  0  0  0  0  0
   -0.1720    0.0040    0.1320 C   0  0  0  0  0  0  0  0  0  0  0  0
   -1.0680    0.5360    0.8380 O   0  0  0  0  0  0  0  0  0  0  0  0
    0.8660   -3.5690   -1.0730 H   0  0  0  0  0  0  0  0  0  0  0  0
   -1.2910   -1.7340   -1.5630 H   0  0  0  0  0  0  0  0  0  0  0  0
    0.4230   -1.5490   -1.9850 H   0  0  0  0  0  0  0  0  0  0  0  0
    1.0660   -1.7590    0.4020 H   0  0  0  0  0  0  0  0  0  0  0  0
   -1.9290   -1.9770    1.0220 H   0  0  0  0  0  0  0  0  0  0  0  0
    1.5800    3.0730    2.0100 C   0  0  0  0  0  0  0  0  0  0  0  0
    2.4030    2.6800    0.8040 C   0  0  0  0  0  0  0  0  0  0  0  0
    2.9420    1.3050    0.9720 C   0  0  0  0  0  0  0  0  0  0  0  0
    1.7250    2.9740   -0.4870 C   0  0  0  0  0  0  0  0  0  0  0  0
    0.4140    2.3040   -0.7130 C   0  0  2  0  0  0  0  0  0  0  0  0
    0.6110    0.8690   -0.6780 N   0  0  0  0  0  0  0  0  0  0  0  0
    0.0070    2.6430   -2.1270 C   0  0  0  0  0  0  0  0  0  0  0  0
   -0.1070    1.7660   -3.0210 O   0  0  0  0  0  0  0  0  0  0  0  0
   -0.2600    3.9600   -2.4950 O   0  0  0  0  0  0  0  0  0  0  0  0
    1.2050    4.1250    1.8880 H   0  0  0  0  0  0  0  0  0  0  0  0
    0.7740    2.3690    2.2420 H   0  0  0  0  0  0  0  0  0  0  0  0
    2.2710    3.1110    2.8790 H   0  0  0  0  0  0  0  0  0  0  0  0
    3.3000    3.3760    0.8380 H   0  0  0  0  0  0  0  0  0  0  0  0
    3.3140    0.8730    0.0190 H   0  0  0  0  0  0  0  0  0  0  0  0
    2.2710    0.6110    1.5350 H   0  0  0  0  0  0  0  0  0  0  0  0
    3.8630    1.3620    1.6280 H   0  0  0  0  0  0  0  0  0  0  0  0
    1.5920    4.0760   -0.5570 H   0  0  0  0  0  0  0  0  0  0  0  0
    2.4420    2.6950   -1.3030 H   0  0  0  0  0  0  0  0  0  0  0  0
   -0.3830    2.6360   -0.0340 H   0  0  0  0  0  0  0  0  0  0  0  0
    1.3470    0.4130   -1.2570 H   0  0  0  0  0  0  0  0  0  0  0  0
  1  2  1  0  0  0  0
  1  8  1  0  0  0  0
  2  3  1  0  0  0  0
  2  9  1  1  0  0  0
  3  4  1  0  0  0  0
  3 11  1  0  0  0  0
  4 12  1  0  0  0  0
  5  6  2  0  0  0  0
  5  2  1  0  0  0  0
  7  1  1  0  0  0  0
 10  3  1  0  0  0  0
 13 14  1  0  0  0  0
 13 19  1  0  0  0  0
 14 15  1  0  0  0  0
 15 22  1  1  0  0  0
 15 16  1  0  0  0  0
 16  5  1  0  0  0  0
 17 15  1  0  0  0  0
 17 18  2  0  0  0  0
 20 14  1  0  0  0  0
 21 14  1  0  0  0  0
 23 16  1  0  0  0  0
 24 34  1  0  0  0  0
 24 35  1  0  0  0  0
 25 36  1  0  0  0  0
 25 26  1  0  0  0  0
 25 24  1  0  0  0  0
 26 38  1  0  0  0  0
 26 39  1  0  0  0  0
 27 25  1  0  0  0  0
 28 29  1  0  0  0  0
 28 27  1  0  0  0  0
 28 42  1  1  0  0  0
 29 17  1  0  0  0  0
 30 28  1  0  0  0  0
 31 30  2  0  0  0  0
 32 30  1  0  0  0  0
 33 24  1  0  0  0  0
 37 26  1  0  0  0  0
 40 27  1  0  0  0  0
 41 27  1  0  0  0  0
 43 29  1  0  0  0  0
M  END
$$$$
