CSN.pdb
 OpenBabel07022418293D

 38 37  0  0  1  0  0  0  0  0999 V2000
   -0.6290   -5.0610    2.7540 N   0  0  0  0  0  0  0  0  0  0  0  0
   -0.2230   -4.1830    1.6280 C   0  0  1  0  0  0  0  0  0  0  0  0
   -1.4950   -3.7530    0.9900 C   0  0  0  0  0  0  0  0  0  0  0  0
   -1.3240   -2.6850   -0.4440 S   0  0  0  0  0  0  0  0  0  0  0  0
    0.6390   -3.1080    2.1410 C   0  0  0  0  0  0  0  0  0  0  0  0
    0.8760   -3.0240    3.4040 O   0  0  0  0  0  0  0  0  0  0  0  0
   -1.6170   -5.3770    2.6540 H   0  0  0  0  0  0  0  0  0  0  0  0
   -0.5720   -4.5100    3.6300 H   0  0  0  0  0  0  0  0  0  0  0  0
    0.3210   -4.8520    0.9140 H   0  0  0  0  0  0  0  0  0  0  0  0
   -2.1310   -3.2150    1.7550 H   0  0  0  0  0  0  0  0  0  0  0  0
   -2.1010   -4.6420    0.7000 H   0  0  0  0  0  0  0  0  0  0  0  0
   -1.9970   -3.1990   -1.5730 H   0  0  0  0  0  0  0  0  0  0  0  0
    3.9340   -2.5380    1.4180 O   0  0  0  0  0  0  0  0  0  0  0  0
    3.4300   -1.2800    1.0600 C   0  0  0  0  0  0  0  0  0  0  0  0
    2.0800   -1.0980    1.7420 C   0  0  2  0  0  0  0  0  0  0  0  0
    1.2210   -2.1560    1.2740 N   0  0  0  0  0  0  0  0  0  0  0  0
    1.6250    0.2630    1.4660 C   0  0  0  0  0  0  0  0  0  0  0  0
    2.3540    1.2390    1.8260 O   0  0  0  0  0  0  0  0  0  0  0  0
    4.7240   -2.7670    0.8740 H   0  0  0  0  0  0  0  0  0  0  0  0
    3.2290   -1.3430   -0.0430 H   0  0  0  0  0  0  0  0  0  0  0  0
    4.1380   -0.4830    1.3210 H   0  0  0  0  0  0  0  0  0  0  0  0
    2.2670   -1.1720    2.8400 H   0  0  0  0  0  0  0  0  0  0  0  0
    1.0300   -2.2210    0.2580 H   0  0  0  0  0  0  0  0  0  0  0  0
   -1.0670    4.0890   -2.4250 N   0  0  0  0  0  0  0  0  0  0  0  0
   -0.6330    3.6900   -1.1120 C   0  0  0  0  0  0  0  0  0  0  0  0
   -0.6080    4.6520   -0.2990 O   0  0  0  0  0  0  0  0  0  0  0  0
   -0.2680    2.2910   -0.8110 C   0  0  0  0  0  0  0  0  0  0  0  0
    0.0480    1.9790    0.5890 C   0  0  2  0  0  0  0  0  0  0  0  0
    0.4370    0.6060    0.8300 N   0  0  0  0  0  0  0  0  0  0  0  0
   -1.1180    2.2290    1.4930 C   0  0  0  0  0  0  0  0  0  0  0  0
   -1.5750    1.3080    2.2550 O   0  0  0  0  0  0  0  0  0  0  0  0
   -1.7730    3.4320    1.5760 O   0  0  0  0  0  0  0  0  0  0  0  0
   -0.3090    4.2810   -3.1150 H   0  0  0  0  0  0  0  0  0  0  0  0
   -2.0440    4.1930   -2.7150 H   0  0  0  0  0  0  0  0  0  0  0  0
    0.6680    2.1040   -1.4270 H   0  0  0  0  0  0  0  0  0  0  0  0
   -0.9960    1.5670   -1.2880 H   0  0  0  0  0  0  0  0  0  0  0  0
    0.8710    2.6040    0.9690 H   0  0  0  0  0  0  0  0  0  0  0  0
   -0.2400   -0.1120    0.4930 H   0  0  0  0  0  0  0  0  0  0  0  0
  1  8  1  0  0  0  0
  2  9  1  6  0  0  0
  2  5  1  0  0  0  0
  2  1  1  0  0  0  0
  3  2  1  0  0  0  0
  3 10  1  0  0  0  0
  4  3  1  0  0  0  0
  5  6  2  0  0  0  0
  7  1  1  0  0  0  0
 11  3  1  0  0  0  0
 12  4  1  0  0  0  0
 14 21  1  0  0  0  0
 14 13  1  0  0  0  0
 14 15  1  0  0  0  0
 15 22  1  1  0  0  0
 16 15  1  0  0  0  0
 16  5  1  0  0  0  0
 17 15  1  0  0  0  0
 17 18  2  0  0  0  0
 19 13  1  0  0  0  0
 20 14  1  0  0  0  0
 23 16  1  0  0  0  0
 24 25  1  0  0  0  0
 25 27  1  0  0  0  0
 25 26  2  0  0  0  0
 27 28  1  0  0  0  0
 28 29  1  0  0  0  0
 28 37  1  1  0  0  0
 28 30  1  0  0  0  0
 29 17  1  0  0  0  0
 30 32  2  0  0  0  0
 30 31  1  0  0  0  0
 33 24  1  0  0  0  0
 34 24  1  0  0  0  0
 35 27  1  0  0  0  0
 36 27  1  0  0  0  0
 38 29  1  0  0  0  0
M  END
$$$$
