CSQ.pdb
 OpenBabel07022418293D

 41 40  0  0  1  0  0  0  0  0999 V2000
   -1.8900   -4.5570   -1.9590 N   0  0  0  0  0  0  0  0  0  0  0  0
   -1.8120   -3.2120   -1.4300 C   0  0  1  0  0  0  0  0  0  0  0  0
   -2.3250   -3.2350   -0.0070 C   0  0  0  0  0  0  0  0  0  0  0  0
   -1.3470   -4.3390    1.0420 S   0  0  0  0  0  0  0  0  0  0  0  0
   -0.4120   -2.7570   -1.5300 C   0  0  0  0  0  0  0  0  0  0  0  0
    0.4900   -3.4850   -2.0070 O   0  0  0  0  0  0  0  0  0  0  0  0
   -2.0740   -4.4750   -3.0020 H   0  0  0  0  0  0  0  0  0  0  0  0
   -0.9600   -5.0540   -1.9050 H   0  0  0  0  0  0  0  0  0  0  0  0
   -2.4830   -2.5770   -2.0190 H   0  0  0  0  0  0  0  0  0  0  0  0
   -2.3350   -2.2370    0.4580 H   0  0  0  0  0  0  0  0  0  0  0  0
   -3.3750   -3.5840   -0.0470 H   0  0  0  0  0  0  0  0  0  0  0  0
    0.0200   -4.1410    0.8370 H   0  0  0  0  0  0  0  0  0  0  0  0
    0.5900    1.1790   -1.6970 O   0  0  0  0  0  0  0  0  0  0  0  0
    1.3700    0.1520   -2.1650 C   0  0  0  0  0  0  0  0  0  0  0  0
    1.3700   -1.0430   -1.2000 C   0  0  2  0  0  0  0  0  0  0  0  0
    0.0040   -1.4680   -1.0940 N   0  0  0  0  0  0  0  0  0  0  0  0
    1.9760   -0.6120    0.0580 C   0  0  0  0  0  0  0  0  0  0  0  0
    3.1750   -0.2340    0.0210 O   0  0  0  0  0  0  0  0  0  0  0  0
    1.1310    1.9390   -1.4160 H   0  0  0  0  0  0  0  0  0  0  0  0
    2.4400    0.4480   -2.3270 H   0  0  0  0  0  0  0  0  0  0  0  0
    0.9900   -0.1530   -3.1640 H   0  0  0  0  0  0  0  0  0  0  0  0
    1.9700   -1.8630   -1.6480 H   0  0  0  0  0  0  0  0  0  0  0  0
   -0.6790   -0.7940   -0.6830 H   0  0  0  0  0  0  0  0  0  0  0  0
    0.1920    4.5660    2.7540 N   0  0  0  0  0  0  0  0  0  0  0  0
    0.4120    3.2520    3.2420 C   0  0  0  0  0  0  0  0  0  0  0  0
   -0.0080    2.9610    4.3840 O   0  0  0  0  0  0  0  0  0  0  0  0
    1.1170    2.2230    2.4520 C   0  0  0  0  0  0  0  0  0  0  0  0
    1.1790    0.9600    3.2180 C   0  0  0  0  0  0  0  0  0  0  0  0
    1.8670   -0.1770    2.5390 C   0  0  2  0  0  0  0  0  0  0  0  0
    1.3010   -0.5910    1.3070 N   0  0  0  0  0  0  0  0  0  0  0  0
    1.8890   -1.3250    3.4750 C   0  0  0  0  0  0  0  0  0  0  0  0
    1.4430   -2.4360    3.1010 O   0  0  0  0  0  0  0  0  0  0  0  0
    2.3950   -1.2100    4.7750 O   0  0  0  0  0  0  0  0  0  0  0  0
   -0.4520    5.2450    3.1720 H   0  0  0  0  0  0  0  0  0  0  0  0
    0.7180    4.9010    1.8950 H   0  0  0  0  0  0  0  0  0  0  0  0
    0.6070    2.1570    1.4760 H   0  0  0  0  0  0  0  0  0  0  0  0
    2.1320    2.6290    2.2390 H   0  0  0  0  0  0  0  0  0  0  0  0
    0.1760    0.6550    3.5790 H   0  0  0  0  0  0  0  0  0  0  0  0
    1.7700    1.1680    4.1570 H   0  0  0  0  0  0  0  0  0  0  0  0
    2.9330    0.1230    2.3350 H   0  0  0  0  0  0  0  0  0  0  0  0
    0.2860   -0.9100    1.3460 H   0  0  0  0  0  0  0  0  0  0  0  0
  1  8  1  0  0  0  0
  1  2  1  0  0  0  0
  2  9  1  6  0  0  0
  2  3  1  0  0  0  0
  3 10  1  0  0  0  0
  3  4  1  0  0  0  0
  5  2  1  0  0  0  0
  5 16  1  0  0  0  0
  6  5  2  0  0  0  0
  7  1  1  0  0  0  0
 11  3  1  0  0  0  0
 12  4  1  0  0  0  0
 13 19  1  0  0  0  0
 14 13  1  0  0  0  0
 14 15  1  0  0  0  0
 15 22  1  6  0  0  0
 15 16  1  0  0  0  0
 15 17  1  0  0  0  0
 16 23  1  0  0  0  0
 17 30  1  0  0  0  0
 18 17  2  0  0  0  0
 20 14  1  0  0  0  0
 21 14  1  0  0  0  0
 24 34  1  0  0  0  0
 24 25  1  0  0  0  0
 25 26  2  0  0  0  0
 27 28  1  0  0  0  0
 27 25  1  0  0  0  0
 28 38  1  0  0  0  0
 28 39  1  0  0  0  0
 29 40  1  6  0  0  0
 29 28  1  0  0  0  0
 29 31  1  0  0  0  0
 30 41  1  0  0  0  0
 30 29  1  0  0  0  0
 31 33  1  0  0  0  0
 32 31  2  0  0  0  0
 35 24  1  0  0  0  0
 36 27  1  0  0  0  0
 37 27  1  0  0  0  0
M  END
$$$$
