CSR.pdb
 OpenBabel07022418293D

 47 46  0  0  1  0  0  0  0  0999 V2000
    4.0550    2.0040    1.2490 N   0  0  0  0  0  0  0  0  0  0  0  0
    3.5390    0.8220    0.5440 C   0  0  1  0  0  0  0  0  0  0  0  0
    3.2110   -0.1820    1.5840 C   0  0  0  0  0  0  0  0  0  0  0  0
    2.5980   -1.7320    0.9070 S   0  0  0  0  0  0  0  0  0  0  0  0
    2.4640    1.2360   -0.3520 C   0  0  0  0  0  0  0  0  0  0  0  0
    2.2470    2.5000   -0.4640 O   0  0  0  0  0  0  0  0  0  0  0  0
    4.6500    2.5630    0.5990 H   0  0  0  0  0  0  0  0  0  0  0  0
    4.5480    1.7300    2.1100 H   0  0  0  0  0  0  0  0  0  0  0  0
    4.4090    0.4240   -0.0440 H   0  0  0  0  0  0  0  0  0  0  0  0
    4.1660   -0.4270    2.1320 H   0  0  0  0  0  0  0  0  0  0  0  0
    2.5370    0.2060    2.3800 H   0  0  0  0  0  0  0  0  0  0  0  0
    1.2100   -1.8630    0.9710 H   0  0  0  0  0  0  0  0  0  0  0  0
    0.8000   -0.8660   -3.5350 O   0  0  0  0  0  0  0  0  0  0  0  0
    0.8450    0.4990   -3.3910 C   0  0  0  0  0  0  0  0  0  0  0  0
    0.6130    0.9710   -1.9760 C   0  0  2  0  0  0  0  0  0  0  0  0
    1.6220    0.4180   -1.1220 N   0  0  0  0  0  0  0  0  0  0  0  0
   -0.7700    0.7170   -1.5180 C   0  0  0  0  0  0  0  0  0  0  0  0
   -1.7670    1.0940   -2.2360 O   0  0  0  0  0  0  0  0  0  0  0  0
    0.0790   -1.3080   -3.0540 H   0  0  0  0  0  0  0  0  0  0  0  0
    1.8820    0.8310   -3.6640 H   0  0  0  0  0  0  0  0  0  0  0  0
    0.1720    1.0410   -4.1050 H   0  0  0  0  0  0  0  0  0  0  0  0
    0.7360    2.0860   -2.0020 H   0  0  0  0  0  0  0  0  0  0  0  0
    1.7230   -0.6010   -1.0910 H   0  0  0  0  0  0  0  0  0  0  0  0
    0.4450   -3.8640    3.9900 N   0  0  0  0  0  0  0  0  0  0  0  0
   -0.2590   -2.6600    3.7580 C   0  0  0  0  0  0  0  0  0  0  0  0
    0.3820   -1.5540    3.6060 N   0  0  0  0  0  0  0  0  0  0  0  0
   -1.6720   -2.6100    3.6860 N   0  0  0  0  0  0  0  0  0  0  0  0
   -2.3820   -1.7710    2.7410 C   0  0  0  0  0  0  0  0  0  0  0  0
   -2.1710   -2.3030    1.3490 C   0  0  0  0  0  0  0  0  0  0  0  0
   -2.8680   -1.5550    0.2790 C   0  0  0  0  0  0  0  0  0  0  0  0
   -2.5310   -0.1380    0.0580 C   0  0  2  0  0  0  0  0  0  0  0  0
   -1.1480    0.0730   -0.3130 N   0  0  0  0  0  0  0  0  0  0  0  0
   -2.9500    0.7920    1.1470 C   0  0  0  0  0  0  0  0  0  0  0  0
   -2.1420    1.6430    1.5940 O   0  0  0  0  0  0  0  0  0  0  0  0
   -4.2160    0.7320    1.6750 O   0  0  0  0  0  0  0  0  0  0  0  0
    0.3270   -4.7430    3.4320 H   0  0  0  0  0  0  0  0  0  0  0  0
    1.1510   -3.9330    4.7670 H   0  0  0  0  0  0  0  0  0  0  0  0
    1.4180   -1.4820    3.6440 H   0  0  0  0  0  0  0  0  0  0  0  0
   -2.2040   -3.2280    4.3660 H   0  0  0  0  0  0  0  0  0  0  0  0
   -2.0460   -0.7370    2.8880 H   0  0  0  0  0  0  0  0  0  0  0  0
   -3.4560   -1.7910    3.0180 H   0  0  0  0  0  0  0  0  0  0  0  0
   -1.1010   -2.4770    1.1190 H   0  0  0  0  0  0  0  0  0  0  0  0
   -2.6220   -3.3410    1.3550 H   0  0  0  0  0  0  0  0  0  0  0  0
   -2.6060   -2.0970   -0.6850 H   0  0  0  0  0  0  0  0  0  0  0  0
   -3.9700   -1.7150    0.3560 H   0  0  0  0  0  0  0  0  0  0  0  0
   -3.1700    0.2090   -0.8190 H   0  0  0  0  0  0  0  0  0  0  0  0
   -0.4070   -0.2550    0.3230 H   0  0  0  0  0  0  0  0  0  0  0  0
  1  8  1  0  0  0  0
  2  9  1  6  0  0  0
  2  1  1  0  0  0  0
  2  3  1  0  0  0  0
  3 10  1  0  0  0  0
  3 11  1  0  0  0  0
  4 12  1  0  0  0  0
  4  3  1  0  0  0  0
  5  2  1  0  0  0  0
  6  5  2  0  0  0  0
  7  1  1  0  0  0  0
 13 14  1  0  0  0  0
 13 19  1  0  0  0  0
 14 15  1  0  0  0  0
 15 22  1  1  0  0  0
 15 17  1  0  0  0  0
 15 16  1  0  0  0  0
 16 23  1  0  0  0  0
 16  5  1  0  0  0  0
 17 32  1  0  0  0  0
 18 17  2  0  0  0  0
 20 14  1  0  0  0  0
 21 14  1  0  0  0  0
 24 37  1  0  0  0  0
 25 24  1  0  0  0  0
 26 38  1  0  0  0  0
 26 25  2  0  0  0  0
 27 25  1  0  0  0  0
 27 39  1  0  0  0  0
 28 40  1  0  0  0  0
 28 41  1  0  0  0  0
 28 27  1  0  0  0  0
 29 43  1  0  0  0  0
 29 28  1  0  0  0  0
 30 45  1  0  0  0  0
 30 29  1  0  0  0  0
 31 46  1  6  0  0  0
 31 30  1  0  0  0  0
 31 33  1  0  0  0  0
 32 31  1  0  0  0  0
 32 47  1  0  0  0  0
 33 34  2  0  0  0  0
 33 35  1  0  0  0  0
 36 24  1  0  0  0  0
 42 29  1  0  0  0  0
 44 30  1  0  0  0  0
M  END
$$$$
