CSS.pdb
 OpenBabel07022418293D

 35 34  0  0  1  0  0  0  0  0999 V2000
    2.6490   -2.3790    4.6410 N   0  0  0  0  0  0  0  0  0  0  0  0
    1.8740   -2.7890    3.4850 C   0  0  1  0  0  0  0  0  0  0  0  0
    0.4900   -3.1420    3.9870 C   0  0  0  0  0  0  0  0  0  0  0  0
   -0.3080   -1.7300    4.7890 S   0  0  0  0  0  0  0  0  0  0  0  0
    1.8600   -1.6750    2.5260 C   0  0  0  0  0  0  0  0  0  0  0  0
    2.4590   -0.5750    2.7640 O   0  0  0  0  0  0  0  0  0  0  0  0
    2.0670   -1.9160    5.3740 H   0  0  0  0  0  0  0  0  0  0  0  0
    3.3520   -1.6670    4.3350 H   0  0  0  0  0  0  0  0  0  0  0  0
    2.3210   -3.7140    3.0650 H   0  0  0  0  0  0  0  0  0  0  0  0
    0.5780   -3.9480    4.7250 H   0  0  0  0  0  0  0  0  0  0  0  0
   -0.1790   -3.4780    3.1700 H   0  0  0  0  0  0  0  0  0  0  0  0
   -1.6870   -1.6630    4.4840 H   0  0  0  0  0  0  0  0  0  0  0  0
    2.0080   -0.1610   -1.9020 O   0  0  0  0  0  0  0  0  0  0  0  0
    1.9270   -1.1250   -0.9020 C   0  0  0  0  0  0  0  0  0  0  0  0
    1.1820   -0.6160    0.3290 C   0  0  2  0  0  0  0  0  0  0  0  0
    1.1860   -1.7330    1.2700 N   0  0  0  0  0  0  0  0  0  0  0  0
   -0.1910   -0.2790   -0.1070 C   0  0  0  0  0  0  0  0  0  0  0  0
   -1.1390   -0.9620    0.3580 O   0  0  0  0  0  0  0  0  0  0  0  0
    2.9550    0.0990   -2.0480 H   0  0  0  0  0  0  0  0  0  0  0  0
    1.3380   -2.0150   -1.2510 H   0  0  0  0  0  0  0  0  0  0  0  0
    2.9450   -1.4930   -0.6060 H   0  0  0  0  0  0  0  0  0  0  0  0
    1.7510    0.2420    0.7130 H   0  0  0  0  0  0  0  0  0  0  0  0
    0.6820   -2.6140    1.0330 H   0  0  0  0  0  0  0  0  0  0  0  0
   -1.2940    3.3180   -1.7820 O   0  0  0  0  0  0  0  0  0  0  0  0
   -2.2110    2.5080   -1.0890 C   0  0  0  0  0  0  0  0  0  0  0  0
   -1.8470    1.0720   -1.4230 C   0  0  2  0  0  0  0  0  0  0  0  0
   -0.4960    0.7610   -1.0110 N   0  0  0  0  0  0  0  0  0  0  0  0
   -1.9510    0.9300   -2.8910 C   0  0  0  0  0  0  0  0  0  0  0  0
   -3.0100    1.1380   -3.5270 O   0  0  0  0  0  0  0  0  0  0  0  0
   -0.8370    0.5510   -3.6230 O   0  0  0  0  0  0  0  0  0  0  0  0
   -1.6150    3.4630   -2.7060 H   0  0  0  0  0  0  0  0  0  0  0  0
   -2.1830    2.6950   -0.0050 H   0  0  0  0  0  0  0  0  0  0  0  0
   -3.2520    2.6800   -1.4310 H   0  0  0  0  0  0  0  0  0  0  0  0
   -2.5930    0.4030   -0.9460 H   0  0  0  0  0  0  0  0  0  0  0  0
    0.2830    1.3280   -1.3970 H   0  0  0  0  0  0  0  0  0  0  0  0
  1  7  1  0  0  0  0
  2  9  1  6  0  0  0
  2  3  1  0  0  0  0
  2  1  1  0  0  0  0
  3 10  1  0  0  0  0
  3  4  1  0  0  0  0
  5  6  2  0  0  0  0
  5  2  1  0  0  0  0
  8  1  1  0  0  0  0
 11  3  1  0  0  0  0
 12  4  1  0  0  0  0
 13 14  1  0  0  0  0
 14 21  1  0  0  0  0
 14 15  1  0  0  0  0
 15 22  1  1  0  0  0
 15 16  1  0  0  0  0
 16  5  1  0  0  0  0
 17 15  1  0  0  0  0
 17 18  2  0  0  0  0
 19 13  1  0  0  0  0
 20 14  1  0  0  0  0
 23 16  1  0  0  0  0
 24 25  1  0  0  0  0
 25 32  1  0  0  0  0
 26 25  1  0  0  0  0
 26 27  1  0  0  0  0
 26 34  1  1  0  0  0
 27 17  1  0  0  0  0
 28 26  1  0  0  0  0
 29 28  1  0  0  0  0
 30 28  2  0  0  0  0
 31 24  1  0  0  0  0
 33 25  1  0  0  0  0
 35 27  1  0  0  0  0
M  END
$$$$
