CST.pdb
 OpenBabel07022418293D

 38 37  0  0  1  0  0  0  0  0999 V2000
    1.1130   -4.8120    3.9240 N   0  0  0  0  0  0  0  0  0  0  0  0
    1.2930   -4.2470    2.5760 C   0  0  1  0  0  0  0  0  0  0  0  0
    0.0710   -4.7680    1.8060 C   0  0  0  0  0  0  0  0  0  0  0  0
    0.0420   -4.2200    0.1020 S   0  0  0  0  0  0  0  0  0  0  0  0
    1.2650   -2.7750    2.7280 C   0  0  0  0  0  0  0  0  0  0  0  0
    1.0590   -2.2620    3.8360 O   0  0  0  0  0  0  0  0  0  0  0  0
    0.2170   -4.4000    4.2730 H   0  0  0  0  0  0  0  0  0  0  0  0
    1.8730   -4.3860    4.5050 H   0  0  0  0  0  0  0  0  0  0  0  0
    2.2170   -4.6050    2.1040 H   0  0  0  0  0  0  0  0  0  0  0  0
   -0.8330   -4.4230    2.3770 H   0  0  0  0  0  0  0  0  0  0  0  0
    0.0750   -5.8700    1.8990 H   0  0  0  0  0  0  0  0  0  0  0  0
   -1.3110   -4.1920   -0.3210 H   0  0  0  0  0  0  0  0  0  0  0  0
    3.1710   -0.0600    0.1500 O   0  0  0  0  0  0  0  0  0  0  0  0
    2.7800    0.1850    1.4420 C   0  0  0  0  0  0  0  0  0  0  0  0
    1.4410   -0.4490    1.7780 C   0  0  2  0  0  0  0  0  0  0  0  0
    1.4710   -1.8900    1.6220 N   0  0  0  0  0  0  0  0  0  0  0  0
    0.3750    0.0800    0.8710 C   0  0  0  0  0  0  0  0  0  0  0  0
   -0.2790   -0.7280    0.1710 O   0  0  0  0  0  0  0  0  0  0  0  0
    3.8950   -0.7130    0.0480 H   0  0  0  0  0  0  0  0  0  0  0  0
    2.6560    1.2770    1.6710 H   0  0  0  0  0  0  0  0  0  0  0  0
    3.5270   -0.1810    2.1760 H   0  0  0  0  0  0  0  0  0  0  0  0
    1.2430   -0.2010    2.8410 H   0  0  0  0  0  0  0  0  0  0  0  0
    1.6450   -2.3550    0.7030 H   0  0  0  0  0  0  0  0  0  0  0  0
   -1.7010    3.2050   -2.0430 C   0  0  0  0  0  0  0  0  0  0  0  0
   -0.5460    2.3910   -1.4400 C   0  0  1  0  0  0  0  0  0  0  0  0
    0.5530    3.2380   -1.4400 O   0  0  0  0  0  0  0  0  0  0  0  0
   -0.9170    2.0830   -0.0380 C   0  0  2  0  0  0  0  0  0  0  0  0
    0.0680    1.4430    0.7650 N   0  0  0  0  0  0  0  0  0  0  0  0
   -2.2240    1.3410    0.0640 C   0  0  0  0  0  0  0  0  0  0  0  0
   -2.4270    0.3730    0.8170 O   0  0  0  0  0  0  0  0  0  0  0  0
   -3.3140    1.7410   -0.7330 O   0  0  0  0  0  0  0  0  0  0  0  0
   -2.3410    2.5700   -2.6890 H   0  0  0  0  0  0  0  0  0  0  0  0
   -1.2770    3.9860   -2.7390 H   0  0  0  0  0  0  0  0  0  0  0  0
   -2.2360    3.7460   -1.2620 H   0  0  0  0  0  0  0  0  0  0  0  0
   -0.4260    1.5210   -2.0920 H   0  0  0  0  0  0  0  0  0  0  0  0
    1.1180    2.9680   -2.2140 H   0  0  0  0  0  0  0  0  0  0  0  0
   -1.1880    3.0810    0.4660 H   0  0  0  0  0  0  0  0  0  0  0  0
    0.6720    2.0750    1.3800 H   0  0  0  0  0  0  0  0  0  0  0  0
  1  7  1  0  0  0  0
  1  8  1  0  0  0  0
  2  9  1  6  0  0  0
  2  5  1  0  0  0  0
  2  1  1  0  0  0  0
  3 11  1  0  0  0  0
  3 10  1  0  0  0  0
  3  2  1  0  0  0  0
  4  3  1  0  0  0  0
  5  6  2  0  0  0  0
 12  4  1  0  0  0  0
 13 14  1  0  0  0  0
 14 20  1  0  0  0  0
 14 15  1  0  0  0  0
 14 21  1  0  0  0  0
 15 22  1  1  0  0  0
 16 15  1  0  0  0  0
 16  5  1  0  0  0  0
 17 15  1  0  0  0  0
 18 17  2  0  0  0  0
 19 13  1  0  0  0  0
 23 16  1  0  0  0  0
 24 25  1  0  0  0  0
 24 34  1  0  0  0  0
 25 35  1  6  0  0  0
 25 26  1  0  0  0  0
 25 27  1  0  0  0  0
 27 29  1  0  0  0  0
 27 37  1  1  0  0  0
 27 28  1  0  0  0  0
 28 17  1  0  0  0  0
 28 38  1  0  0  0  0
 29 30  1  0  0  0  0
 31 29  2  0  0  0  0
 32 24  1  0  0  0  0
 33 24  1  0  0  0  0
 36 26  1  0  0  0  0
M  END
$$$$
