CSY.pdb
 OpenBabel07022418293D

 45 45  0  0  1  0  0  0  0  0999 V2000
    4.2800   -2.0080    3.4990 N   0  0  0  0  0  0  0  0  0  0  0  0
    3.3310   -2.6540    2.6260 C   0  0  1  0  0  0  0  0  0  0  0  0
    2.1190   -3.0320    3.4210 C   0  0  0  0  0  0  0  0  0  0  0  0
    2.4820   -4.1570    4.7720 S   0  0  0  0  0  0  0  0  0  0  0  0
    2.8920   -1.6500    1.5990 C   0  0  0  0  0  0  0  0  0  0  0  0
    3.3360   -0.4730    1.5900 O   0  0  0  0  0  0  0  0  0  0  0  0
    3.9080   -1.1000    3.8570 H   0  0  0  0  0  0  0  0  0  0  0  0
    4.3550   -2.6240    4.3620 H   0  0  0  0  0  0  0  0  0  0  0  0
    3.8140   -3.5270    2.1500 H   0  0  0  0  0  0  0  0  0  0  0  0
    1.6540   -2.0860    3.7980 H   0  0  0  0  0  0  0  0  0  0  0  0
    1.3720   -3.4480    2.6980 H   0  0  0  0  0  0  0  0  0  0  0  0
    2.3770   -5.4830    4.2610 H   0  0  0  0  0  0  0  0  0  0  0  0
    1.2670   -2.9260   -1.8700 O   0  0  0  0  0  0  0  0  0  0  0  0
    1.8980   -1.6910   -1.7730 C   0  0  0  0  0  0  0  0  0  0  0  0
    1.4830   -1.0950   -0.4220 C   0  0  2  0  0  0  0  0  0  0  0  0
    1.9370   -2.0290    0.5900 N   0  0  0  0  0  0  0  0  0  0  0  0
    0.0030   -1.0080   -0.3490 C   0  0  0  0  0  0  0  0  0  0  0  0
   -0.6300   -1.6860    0.4970 O   0  0  0  0  0  0  0  0  0  0  0  0
    1.7190   -3.5180   -2.5360 H   0  0  0  0  0  0  0  0  0  0  0  0
    1.6890   -1.0190   -2.6050 H   0  0  0  0  0  0  0  0  0  0  0  0
    3.0040   -1.8850   -1.6650 H   0  0  0  0  0  0  0  0  0  0  0  0
    1.9560   -0.1130   -0.3020 H   0  0  0  0  0  0  0  0  0  0  0  0
    1.5980   -3.0130    0.6370 H   0  0  0  0  0  0  0  0  0  0  0  0
   -0.5420    2.9630    4.0900 O   0  0  0  0  0  0  0  0  0  0  0  0
   -1.0680    2.5580    2.8880 C   0  0  0  0  0  0  0  0  0  0  0  0
   -2.3080    1.9290    2.8550 C   0  0  0  0  0  0  0  0  0  0  0  0
   -2.8510    1.5170    1.6560 C   0  0  0  0  0  0  0  0  0  0  0  0
   -2.1220    1.7530    0.5120 C   0  0  0  0  0  0  0  0  0  0  0  0
   -2.6480    1.3340   -0.8110 C   0  0  0  0  0  0  0  0  0  0  0  0
   -2.2100   -0.0760   -1.1550 C   0  0  2  0  0  0  0  0  0  0  0  0
   -0.7660   -0.1800   -1.2040 N   0  0  0  0  0  0  0  0  0  0  0  0
   -2.8560   -0.4770   -2.4050 C   0  0  0  0  0  0  0  0  0  0  0  0
   -4.1080   -0.4360   -2.5020 O   0  0  0  0  0  0  0  0  0  0  0  0
   -0.8920    2.3770    0.5470 C   0  0  0  0  0  0  0  0  0  0  0  0
   -0.3410    2.7930    1.7430 C   0  0  0  0  0  0  0  0  0  0  0  0
   -2.1460   -0.9100   -3.5160 O   0  0  0  0  0  0  0  0  0  0  0  0
   -0.3170    3.9210    4.2730 H   0  0  0  0  0  0  0  0  0  0  0  0
   -2.8530    1.7630    3.7980 H   0  0  0  0  0  0  0  0  0  0  0  0
   -3.8120    1.0320    1.6590 H   0  0  0  0  0  0  0  0  0  0  0  0
   -3.7530    1.3510   -0.8000 H   0  0  0  0  0  0  0  0  0  0  0  0
   -2.2890    2.0590   -1.5630 H   0  0  0  0  0  0  0  0  0  0  0  0
   -2.5530   -0.7520   -0.3450 H   0  0  0  0  0  0  0  0  0  0  0  0
   -0.2690    0.3920   -1.9130 H   0  0  0  0  0  0  0  0  0  0  0  0
   -0.3080    2.5670   -0.3670 H   0  0  0  0  0  0  0  0  0  0  0  0
    0.6320    3.2880    1.7780 H   0  0  0  0  0  0  0  0  0  0  0  0
  1  7  1  0  0  0  0
  1  8  1  0  0  0  0
  2  9  1  6  0  0  0
  2  3  1  0  0  0  0
  2  1  1  0  0  0  0
  3 10  1  0  0  0  0
  3  4  1  0  0  0  0
  5  2  1  0  0  0  0
  6  5  2  0  0  0  0
 11  3  1  0  0  0  0
 12  4  1  0  0  0  0
 13 14  1  0  0  0  0
 14 21  1  0  0  0  0
 14 15  1  0  0  0  0
 15 17  1  0  0  0  0
 15 22  1  1  0  0  0
 15 16  1  0  0  0  0
 16 23  1  0  0  0  0
 16  5  1  0  0  0  0
 17 18  2  0  0  0  0
 19 13  1  0  0  0  0
 20 14  1  0  0  0  0
 24 37  1  0  0  0  0
 25 24  1  0  0  0  0
 26 25  1  0  0  0  0
 26 38  1  0  0  0  0
 27 39  1  0  0  0  0
 27 26  2  0  0  0  0
 28 34  2  0  0  0  0
 28 27  1  0  0  0  0
 29 40  1  0  0  0  0
 29 28  1  0  0  0  0
 30 29  1  0  0  0  0
 30 42  1  1  0  0  0
 31 30  1  0  0  0  0
 31 17  1  0  0  0  0
 32 30  1  0  0  0  0
 33 32  1  0  0  0  0
 34 35  1  0  0  0  0
 35 45  1  0  0  0  0
 35 25  2  0  0  0  0
 36 32  2  0  0  0  0
 41 29  1  0  0  0  0
 43 31  1  0  0  0  0
 44 34  1  0  0  0  0
M  END
$$$$
