CTA.pdb
 OpenBabel07022418293D

 37 36  0  0  1  0  0  0  0  0999 V2000
    0.8690   -2.6130    4.1630 N   0  0  0  0  0  0  0  0  0  0  0  0
    2.1390   -2.5840    3.4740 C   0  0  1  0  0  0  0  0  0  0  0  0
    2.6490   -3.9900    3.2920 C   0  0  0  0  0  0  0  0  0  0  0  0
    1.5420   -5.0230    2.3350 S   0  0  0  0  0  0  0  0  0  0  0  0
    1.9480   -1.9230    2.1370 C   0  0  0  0  0  0  0  0  0  0  0  0
    2.9050   -1.7710    1.3370 O   0  0  0  0  0  0  0  0  0  0  0  0
    0.1120   -3.0710    3.6420 H   0  0  0  0  0  0  0  0  0  0  0  0
    0.5860   -1.6720    4.5160 H   0  0  0  0  0  0  0  0  0  0  0  0
    2.8420   -2.0030    4.0690 H   0  0  0  0  0  0  0  0  0  0  0  0
    2.7420   -4.4280    4.3160 H   0  0  0  0  0  0  0  0  0  0  0  0
    3.6320   -3.9520    2.8050 H   0  0  0  0  0  0  0  0  0  0  0  0
    0.1950   -4.8150    2.5890 H   0  0  0  0  0  0  0  0  0  0  0  0
   -0.6800   -1.3200   -1.7500 C   0  0  0  0  0  0  0  0  0  0  0  0
   -0.4280   -1.7080   -0.3350 C   0  0  1  0  0  0  0  0  0  0  0  0
    0.2130   -2.9730   -0.3420 O   0  0  0  0  0  0  0  0  0  0  0  0
    0.5490   -0.8000    0.3980 C   0  0  2  0  0  0  0  0  0  0  0  0
    0.6790   -1.4410    1.7210 N   0  0  0  0  0  0  0  0  0  0  0  0
   -0.0630    0.5370    0.5310 C   0  0  0  0  0  0  0  0  0  0  0  0
   -0.4260    0.9280    1.6940 O   0  0  0  0  0  0  0  0  0  0  0  0
   -1.5080   -0.6160   -1.8690 H   0  0  0  0  0  0  0  0  0  0  0  0
    0.2690   -1.0360   -2.2410 H   0  0  0  0  0  0  0  0  0  0  0  0
   -1.0050   -2.2560   -2.2780 H   0  0  0  0  0  0  0  0  0  0  0  0
   -1.3740   -1.8190    0.2370 H   0  0  0  0  0  0  0  0  0  0  0  0
    0.6340   -3.1410   -1.2040 H   0  0  0  0  0  0  0  0  0  0  0  0
    1.4910   -0.7660   -0.1380 H   0  0  0  0  0  0  0  0  0  0  0  0
   -0.1610   -1.5320    2.3320 H   0  0  0  0  0  0  0  0  0  0  0  0
    0.0480    3.8780   -0.6160 C   0  0  0  0  0  0  0  0  0  0  0  0
   -0.9030    2.7480   -0.2990 C   0  0  2  0  0  0  0  0  0  0  0  0
   -0.2930    1.4510   -0.5180 N   0  0  0  0  0  0  0  0  0  0  0  0
   -2.1260    2.9370   -1.0810 C   0  0  0  0  0  0  0  0  0  0  0  0
   -2.5700    2.0510   -1.8490 O   0  0  0  0  0  0  0  0  0  0  0  0
   -2.8270    4.1270   -0.9820 O   0  0  0  0  0  0  0  0  0  0  0  0
    1.0850    3.6530   -0.3610 H   0  0  0  0  0  0  0  0  0  0  0  0
   -0.2750    4.7520   -0.0140 H   0  0  0  0  0  0  0  0  0  0  0  0
   -0.0630    4.2060   -1.6860 H   0  0  0  0  0  0  0  0  0  0  0  0
   -1.1170    2.8220    0.7930 H   0  0  0  0  0  0  0  0  0  0  0  0
   -0.0190    1.1980   -1.4700 H   0  0  0  0  0  0  0  0  0  0  0  0
  1  8  1  0  0  0  0
  2  9  1  1  0  0  0
  2  1  1  0  0  0  0
  3  2  1  0  0  0  0
  3 10  1  0  0  0  0
  4 12  1  0  0  0  0
  4  3  1  0  0  0  0
  5  2  1  0  0  0  0
  6  5  2  0  0  0  0
  7  1  1  0  0  0  0
 11  3  1  0  0  0  0
 13 14  1  0  0  0  0
 14 23  1  1  0  0  0
 14 16  1  0  0  0  0
 15 14  1  0  0  0  0
 16 25  1  6  0  0  0
 16 18  1  0  0  0  0
 16 17  1  0  0  0  0
 17  5  1  0  0  0  0
 17 26  1  0  0  0  0
 18 19  2  0  0  0  0
 20 13  1  0  0  0  0
 21 13  1  0  0  0  0
 22 13  1  0  0  0  0
 24 15  1  0  0  0  0
 27 33  1  0  0  0  0
 27 28  1  0  0  0  0
 27 34  1  0  0  0  0
 28 36  1  1  0  0  0
 29 28  1  0  0  0  0
 29 18  1  0  0  0  0
 30 32  1  0  0  0  0
 30 28  1  0  0  0  0
 31 30  2  0  0  0  0
 35 27  1  0  0  0  0
 37 29  1  0  0  0  0
M  END
$$$$
