CTD.pdb
 OpenBabel07022418293D

 40 39  0  0  1  0  0  0  0  0999 V2000
    1.8980   -1.8050   -3.1040 N   0  0  0  0  0  0  0  0  0  0  0  0
    1.4340   -2.1150   -1.7680 C   0  0  1  0  0  0  0  0  0  0  0  0
    2.5610   -1.9080   -0.8010 C   0  0  0  0  0  0  0  0  0  0  0  0
    3.0910   -0.1810   -0.8930 S   0  0  0  0  0  0  0  0  0  0  0  0
    0.2690   -1.2390   -1.4770 C   0  0  0  0  0  0  0  0  0  0  0  0
   -0.1680   -0.4470   -2.3360 O   0  0  0  0  0  0  0  0  0  0  0  0
    1.4340   -2.4150   -3.8260 H   0  0  0  0  0  0  0  0  0  0  0  0
    1.6130   -0.8240   -3.3510 H   0  0  0  0  0  0  0  0  0  0  0  0
    1.1140   -3.1820   -1.7970 H   0  0  0  0  0  0  0  0  0  0  0  0
    2.2760   -2.1940    0.2400 H   0  0  0  0  0  0  0  0  0  0  0  0
    3.4210   -2.5440   -1.0930 H   0  0  0  0  0  0  0  0  0  0  0  0
    4.3480   -0.1030   -0.2510 H   0  0  0  0  0  0  0  0  0  0  0  0
   -2.9650   -2.3460   -0.5230 C   0  0  0  0  0  0  0  0  0  0  0  0
   -2.6200   -1.4120    0.6100 C   0  0  1  0  0  0  0  0  0  0  0  0
   -2.2250   -2.2060    1.6980 O   0  0  0  0  0  0  0  0  0  0  0  0
   -1.5080   -0.4870    0.1770 C   0  0  2  0  0  0  0  0  0  0  0  0
   -0.3860   -1.2730   -0.2090 N   0  0  0  0  0  0  0  0  0  0  0  0
   -1.2000    0.4510    1.2910 C   0  0  0  0  0  0  0  0  0  0  0  0
   -2.1100    1.1940    1.7270 O   0  0  0  0  0  0  0  0  0  0  0  0
   -2.4950   -3.3260   -0.3190 H   0  0  0  0  0  0  0  0  0  0  0  0
   -2.5080   -1.9320   -1.4500 H   0  0  0  0  0  0  0  0  0  0  0  0
   -4.0670   -2.4460   -0.6320 H   0  0  0  0  0  0  0  0  0  0  0  0
   -3.4970   -0.7860    0.9120 H   0  0  0  0  0  0  0  0  0  0  0  0
   -3.0300   -2.3190    2.2630 H   0  0  0  0  0  0  0  0  0  0  0  0
   -1.9070    0.1540   -0.6400 H   0  0  0  0  0  0  0  0  0  0  0  0
    0.0200   -1.9480    0.4800 H   0  0  0  0  0  0  0  0  0  0  0  0
    0.0800    0.5560    1.8970 N   0  0  0  0  0  0  0  0  0  0  0  0
    0.3970    1.4530    2.9690 C   0  0  1  0  0  0  0  0  0  0  0  0
    0.7630    0.7160    4.2570 C   0  0  0  0  0  0  0  0  0  0  0  0
    1.9300   -0.1570    4.0850 C   0  0  0  0  0  0  0  0  0  0  0  0
    1.8090   -1.2730    3.5210 O   0  0  0  0  0  0  0  0  0  0  0  0
    1.4490    2.4330    2.6000 C   0  0  0  0  0  0  0  0  0  0  0  0
    1.8600    3.3020    3.4110 O   0  0  0  0  0  0  0  0  0  0  0  0
    3.1920    0.1970    4.5250 O   0  0  0  0  0  0  0  0  0  0  0  0
    2.0550    2.4620    1.3350 O   0  0  0  0  0  0  0  0  0  0  0  0
    0.8290   -0.0860    1.5050 H   0  0  0  0  0  0  0  0  0  0  0  0
   -0.5210    2.0280    3.2150 H   0  0  0  0  0  0  0  0  0  0  0  0
   -0.1490    0.1130    4.5240 H   0  0  0  0  0  0  0  0  0  0  0  0
    0.8690    1.4780    5.0410 H   0  0  0  0  0  0  0  0  0  0  0  0
    3.9950   -0.0100    3.9100 H   0  0  0  0  0  0  0  0  0  0  0  0
  1  2  1  0  0  0  0
  2  9  1  1  0  0  0
  2  5  1  0  0  0  0
  2  3  1  0  0  0  0
  3 10  1  0  0  0  0
  4  3  1  0  0  0  0
  4 12  1  0  0  0  0
  5 17  1  0  0  0  0
  6  5  2  0  0  0  0
  7  1  1  0  0  0  0
  8  1  1  0  0  0  0
 11  3  1  0  0  0  0
 13 20  1  0  0  0  0
 13 14  1  0  0  0  0
 14 23  1  1  0  0  0
 14 15  1  0  0  0  0
 15 24  1  0  0  0  0
 16 25  1  6  0  0  0
 16 14  1  0  0  0  0
 16 18  1  0  0  0  0
 17 16  1  0  0  0  0
 17 26  1  0  0  0  0
 18 19  2  0  0  0  0
 18 27  1  0  0  0  0
 21 13  1  0  0  0  0
 22 13  1  0  0  0  0
 27 28  1  0  0  0  0
 28 37  1  1  0  0  0
 28 29  1  0  0  0  0
 29 38  1  0  0  0  0
 29 39  1  0  0  0  0
 30 29  1  0  0  0  0
 30 34  1  0  0  0  0
 31 30  2  0  0  0  0
 32 28  1  0  0  0  0
 32 33  1  0  0  0  0
 35 32  2  0  0  0  0
 36 27  1  0  0  0  0
 40 34  1  0  0  0  0
M  END
$$$$
