CTG.pdb
 OpenBabel07022418293D

 34 33  0  0  1  0  0  0  0  0999 V2000
   -2.6540   -1.6940    2.1390 N   0  0  0  0  0  0  0  0  0  0  0  0
   -1.3750   -1.9610    2.7630 C   0  0  1  0  0  0  0  0  0  0  0  0
   -1.3060   -3.4450    3.0430 C   0  0  0  0  0  0  0  0  0  0  0  0
    0.2600   -3.9070    3.8290 S   0  0  0  0  0  0  0  0  0  0  0  0
   -0.2370   -1.5810    1.9150 C   0  0  0  0  0  0  0  0  0  0  0  0
    0.9210   -1.7730    2.3660 O   0  0  0  0  0  0  0  0  0  0  0  0
   -2.7080   -1.9920    1.1630 H   0  0  0  0  0  0  0  0  0  0  0  0
   -3.0260   -0.7590    2.3500 H   0  0  0  0  0  0  0  0  0  0  0  0
   -1.3200   -1.4310    3.7350 H   0  0  0  0  0  0  0  0  0  0  0  0
   -2.1180   -3.7750    3.7290 H   0  0  0  0  0  0  0  0  0  0  0  0
   -1.4140   -3.9880    2.0910 H   0  0  0  0  0  0  0  0  0  0  0  0
    1.2480   -4.1710    2.8350 H   0  0  0  0  0  0  0  0  0  0  0  0
    2.1570   -1.1140   -2.1600 C   0  0  0  0  0  0  0  0  0  0  0  0
    0.8670   -1.4570   -1.4610 C   0  0  1  0  0  0  0  0  0  0  0  0
    0.9650   -2.8070   -1.0760 O   0  0  0  0  0  0  0  0  0  0  0  0
    0.7880   -0.6520   -0.1850 C   0  0  2  0  0  0  0  0  0  0  0  0
   -0.3530   -1.0110    0.6180 N   0  0  0  0  0  0  0  0  0  0  0  0
    0.7990    0.7920   -0.4140 C   0  0  0  0  0  0  0  0  0  0  0  0
    1.6850    1.3870   -1.0870 O   0  0  0  0  0  0  0  0  0  0  0  0
    2.9490   -1.0190   -1.3830 H   0  0  0  0  0  0  0  0  0  0  0  0
    2.4680   -1.9430   -2.8380 H   0  0  0  0  0  0  0  0  0  0  0  0
    2.0940   -0.1920   -2.7610 H   0  0  0  0  0  0  0  0  0  0  0  0
   -0.0180   -1.3420   -2.0990 H   0  0  0  0  0  0  0  0  0  0  0  0
    0.2240   -3.0330   -0.4500 H   0  0  0  0  0  0  0  0  0  0  0  0
    1.7270   -0.8990    0.3880 H   0  0  0  0  0  0  0  0  0  0  0  0
   -1.3090   -0.8440    0.2240 H   0  0  0  0  0  0  0  0  0  0  0  0
   -0.2320    1.5930    0.1370 N   0  0  0  0  0  0  0  0  0  0  0  0
   -0.2670    3.0300   -0.0610 C   0  0  0  0  0  0  0  0  0  0  0  0
    0.9480    3.6880    0.4820 C   0  0  0  0  0  0  0  0  0  0  0  0
    1.8290    3.0030    1.0220 O   0  0  0  0  0  0  0  0  0  0  0  0
    1.0310    5.0660    0.3520 O   0  0  0  0  0  0  0  0  0  0  0  0
   -0.9860    1.1180    0.7040 H   0  0  0  0  0  0  0  0  0  0  0  0
   -0.3770    3.2040   -1.1490 H   0  0  0  0  0  0  0  0  0  0  0  0
   -1.1370    3.4510    0.4610 H   0  0  0  0  0  0  0  0  0  0  0  0
  1  8  1  0  0  0  0
  1  2  1  0  0  0  0
  2  3  1  0  0  0  0
  2  9  1  1  0  0  0
  3 10  1  0  0  0  0
  3  4  1  0  0  0  0
  5  6  2  0  0  0  0
  5  2  1  0  0  0  0
  7  1  1  0  0  0  0
 11  3  1  0  0  0  0
 12  4  1  0  0  0  0
 13 14  1  0  0  0  0
 13 20  1  0  0  0  0
 14 23  1  6  0  0  0
 14 15  1  0  0  0  0
 14 16  1  0  0  0  0
 15 24  1  0  0  0  0
 16 25  1  1  0  0  0
 16 17  1  0  0  0  0
 17  5  1  0  0  0  0
 18 16  1  0  0  0  0
 18 27  1  0  0  0  0
 19 18  2  0  0  0  0
 21 13  1  0  0  0  0
 22 13  1  0  0  0  0
 26 17  1  0  0  0  0
 27 32  1  0  0  0  0
 28 27  1  0  0  0  0
 28 34  1  0  0  0  0
 28 29  1  0  0  0  0
 29 30  1  0  0  0  0
 31 29  2  0  0  0  0
 33 28  1  0  0  0  0
M  END
$$$$
