CTI.pdb
 OpenBabel07022418293D

 46 45  0  0  1  0  0  0  0  0999 V2000
   -0.4400   -2.5920   -2.2290 N   0  0  0  0  0  0  0  0  0  0  0  0
    0.2410   -3.7160   -1.6670 C   0  0  1  0  0  0  0  0  0  0  0  0
    1.0460   -4.3650   -2.7870 C   0  0  0  0  0  0  0  0  0  0  0  0
    2.2350   -3.1650   -3.4470 S   0  0  0  0  0  0  0  0  0  0  0  0
    1.1220   -3.3290   -0.5400 C   0  0  0  0  0  0  0  0  0  0  0  0
    1.7930   -4.1810    0.0720 O   0  0  0  0  0  0  0  0  0  0  0  0
    0.1120   -2.0330   -2.9030 H   0  0  0  0  0  0  0  0  0  0  0  0
   -1.0370   -2.0620   -1.5880 H   0  0  0  0  0  0  0  0  0  0  0  0
   -0.4890   -4.4550   -1.3040 H   0  0  0  0  0  0  0  0  0  0  0  0
    1.5360   -5.2980   -2.4430 H   0  0  0  0  0  0  0  0  0  0  0  0
    0.3160   -4.6030   -3.5900 H   0  0  0  0  0  0  0  0  0  0  0  0
    2.2740   -3.2840   -4.8330 H   0  0  0  0  0  0  0  0  0  0  0  0
    2.4560    0.4560   -0.5810 C   0  0  0  0  0  0  0  0  0  0  0  0
    3.1000   -0.6020    0.2930 C   0  0  1  0  0  0  0  0  0  0  0  0
    3.9610   -0.0840    1.2310 O   0  0  0  0  0  0  0  0  0  0  0  0
    2.0220   -1.4920    0.9230 C   0  0  2  0  0  0  0  0  0  0  0  0
    1.1980   -1.9620   -0.1550 N   0  0  0  0  0  0  0  0  0  0  0  0
    1.2820   -0.7520    1.9520 C   0  0  0  0  0  0  0  0  0  0  0  0
    1.9400   -0.3070    2.9330 O   0  0  0  0  0  0  0  0  0  0  0  0
    1.6060    0.9210   -0.0530 H   0  0  0  0  0  0  0  0  0  0  0  0
    3.2330    1.1790   -0.8740 H   0  0  0  0  0  0  0  0  0  0  0  0
    2.1010   -0.0240   -1.5240 H   0  0  0  0  0  0  0  0  0  0  0  0
    3.6630   -1.2780   -0.3950 H   0  0  0  0  0  0  0  0  0  0  0  0
    4.1720    0.8690    1.0250 H   0  0  0  0  0  0  0  0  0  0  0  0
    2.5750   -2.3240    1.4030 H   0  0  0  0  0  0  0  0  0  0  0  0
    0.6200   -1.2790   -0.6920 H   0  0  0  0  0  0  0  0  0  0  0  0
   -2.3470    3.7500    3.0580 C   0  0  0  0  0  0  0  0  0  0  0  0
   -2.0030    2.3590    3.5710 C   0  0  0  0  0  0  0  0  0  0  0  0
   -1.3150    1.5440    2.5000 C   0  0  2  0  0  0  0  0  0  0  0  0
   -2.2470    1.4180    1.3320 C   0  0  0  0  0  0  0  0  0  0  0  0
   -0.7610    0.2550    3.0140 C   0  0  2  0  0  0  0  0  0  0  0  0
   -0.1010   -0.5000    1.9340 N   0  0  0  0  0  0  0  0  0  0  0  0
   -1.7270   -0.6040    3.7230 C   0  0  0  0  0  0  0  0  0  0  0  0
   -1.9060   -1.8110    3.3420 O   0  0  0  0  0  0  0  0  0  0  0  0
   -2.4830   -0.1990    4.8060 O   0  0  0  0  0  0  0  0  0  0  0  0
   -1.6800    3.9420    2.2040 H   0  0  0  0  0  0  0  0  0  0  0  0
   -2.2070    4.4610    3.8970 H   0  0  0  0  0  0  0  0  0  0  0  0
   -3.4120    3.7370    2.7250 H   0  0  0  0  0  0  0  0  0  0  0  0
   -2.9580    1.8410    3.8640 H   0  0  0  0  0  0  0  0  0  0  0  0
   -1.3350    2.4480    4.4320 H   0  0  0  0  0  0  0  0  0  0  0  0
   -0.4550    2.1670    2.1400 H   0  0  0  0  0  0  0  0  0  0  0  0
   -1.9460    2.0300    0.4560 H   0  0  0  0  0  0  0  0  0  0  0  0
   -3.2860    1.7720    1.5880 H   0  0  0  0  0  0  0  0  0  0  0  0
   -2.3660    0.3830    0.9750 H   0  0  0  0  0  0  0  0  0  0  0  0
    0.0480    0.5190    3.7310 H   0  0  0  0  0  0  0  0  0  0  0  0
   -0.6650   -0.8600    1.1300 H   0  0  0  0  0  0  0  0  0  0  0  0
  1  2  1  0  0  0  0
  1  8  1  0  0  0  0
  2  9  1  1  0  0  0
  2  5  1  0  0  0  0
  3 10  1  0  0  0  0
  3  2  1  0  0  0  0
  4  3  1  0  0  0  0
  5 17  1  0  0  0  0
  5  6  2  0  0  0  0
  7  1  1  0  0  0  0
 11  3  1  0  0  0  0
 12  4  1  0  0  0  0
 13 20  1  0  0  0  0
 13 14  1  0  0  0  0
 14 23  1  6  0  0  0
 14 16  1  0  0  0  0
 14 15  1  0  0  0  0
 16 25  1  1  0  0  0
 16 18  1  0  0  0  0
 17 16  1  0  0  0  0
 18 19  2  0  0  0  0
 21 13  1  0  0  0  0
 22 13  1  0  0  0  0
 24 15  1  0  0  0  0
 26 17  1  0  0  0  0
 27 28  1  0  0  0  0
 27 37  1  0  0  0  0
 28 39  1  0  0  0  0
 28 40  1  0  0  0  0
 29 41  1  6  0  0  0
 29 31  1  0  0  0  0
 29 28  1  0  0  0  0
 30 43  1  0  0  0  0
 30 29  1  0  0  0  0
 31 33  1  0  0  0  0
 31 45  1  1  0  0  0
 32 18  1  0  0  0  0
 32 31  1  0  0  0  0
 33 35  1  0  0  0  0
 34 33  2  0  0  0  0
 36 27  1  0  0  0  0
 38 27  1  0  0  0  0
 42 30  1  0  0  0  0
 44 30  1  0  0  0  0
 46 32  1  0  0  0  0
M  END
$$$$
