CTM.pdb
 OpenBabel07022418293D

 44 43  0  0  1  0  0  0  0  0999 V2000
   -0.4910   -2.6470   -1.9600 N   0  0  0  0  0  0  0  0  0  0  0  0
    0.0980   -3.8490   -1.3810 C   0  0  1  0  0  0  0  0  0  0  0  0
    0.8690   -4.5900   -2.4570 C   0  0  0  0  0  0  0  0  0  0  0  0
    2.1950   -3.5540   -3.1370 S   0  0  0  0  0  0  0  0  0  0  0  0
    0.9910   -3.4270   -0.2740 C   0  0  0  0  0  0  0  0  0  0  0  0
    1.6260   -4.2670    0.4340 O   0  0  0  0  0  0  0  0  0  0  0  0
   -0.9900   -2.8810   -2.8420 H   0  0  0  0  0  0  0  0  0  0  0  0
   -1.1090   -2.1710   -1.2740 H   0  0  0  0  0  0  0  0  0  0  0  0
   -0.6820   -4.5300   -0.9990 H   0  0  0  0  0  0  0  0  0  0  0  0
    1.2460   -5.5410   -2.0350 H   0  0  0  0  0  0  0  0  0  0  0  0
    0.1370   -4.8450   -3.2540 H   0  0  0  0  0  0  0  0  0  0  0  0
    2.9150   -4.3170   -4.0620 H   0  0  0  0  0  0  0  0  0  0  0  0
    2.5970    0.2530   -0.5220 C   0  0  0  0  0  0  0  0  0  0  0  0
    3.1450   -0.7820    0.4160 C   0  0  1  0  0  0  0  0  0  0  0  0
    4.0240   -0.2570    1.3320 O   0  0  0  0  0  0  0  0  0  0  0  0
    2.0170   -1.5680    1.0940 C   0  0  2  0  0  0  0  0  0  0  0  0
    1.1760   -2.0550    0.0460 N   0  0  0  0  0  0  0  0  0  0  0  0
    1.2870   -0.7030    2.0590 C   0  0  0  0  0  0  0  0  0  0  0  0
    1.8280   -0.1730    3.0460 O   0  0  0  0  0  0  0  0  0  0  0  0
    1.5620    0.5400   -0.2940 H   0  0  0  0  0  0  0  0  0  0  0  0
    2.6220   -0.0540   -1.5830 H   0  0  0  0  0  0  0  0  0  0  0  0
    3.2480    1.1680   -0.4520 H   0  0  0  0  0  0  0  0  0  0  0  0
    3.6800   -1.5350   -0.2140 H   0  0  0  0  0  0  0  0  0  0  0  0
    4.4140    0.6060    1.0810 H   0  0  0  0  0  0  0  0  0  0  0  0
    2.4760   -2.4290    1.6180 H   0  0  0  0  0  0  0  0  0  0  0  0
    0.6360   -1.3660   -0.5580 H   0  0  0  0  0  0  0  0  0  0  0  0
   -1.4120    4.9710    1.8250 C   0  0  0  0  0  0  0  0  0  0  0  0
   -2.8600    3.9210    2.1770 S   0  0  0  0  0  0  0  0  0  0  0  0
   -2.2760    2.3890    3.0270 C   0  0  0  0  0  0  0  0  0  0  0  0
   -1.4350    1.5810    2.0780 C   0  0  0  0  0  0  0  0  0  0  0  0
   -0.9190    0.3650    2.7270 C   0  0  2  0  0  0  0  0  0  0  0  0
   -0.0920   -0.4610    1.8600 N   0  0  0  0  0  0  0  0  0  0  0  0
   -1.9080   -0.4490    3.4520 C   0  0  0  0  0  0  0  0  0  0  0  0
   -1.9580   -1.7000    3.1880 O   0  0  0  0  0  0  0  0  0  0  0  0
   -2.8050   -0.0290    4.4030 O   0  0  0  0  0  0  0  0  0  0  0  0
   -1.1130    4.8570    0.7740 H   0  0  0  0  0  0  0  0  0  0  0  0
   -0.5560    4.6880    2.4800 H   0  0  0  0  0  0  0  0  0  0  0  0
   -1.7270    6.0200    1.9940 H   0  0  0  0  0  0  0  0  0  0  0  0
   -1.7760    2.6350    3.9830 H   0  0  0  0  0  0  0  0  0  0  0  0
   -3.2370    1.8630    3.2990 H   0  0  0  0  0  0  0  0  0  0  0  0
   -2.0360    1.4320    1.1680 H   0  0  0  0  0  0  0  0  0  0  0  0
   -0.6120    2.2860    1.7520 H   0  0  0  0  0  0  0  0  0  0  0  0
   -0.1960    0.7270    3.5240 H   0  0  0  0  0  0  0  0  0  0  0  0
   -0.5740   -0.8930    1.0400 H   0  0  0  0  0  0  0  0  0  0  0  0
  1  2  1  0  0  0  0
  1  8  1  0  0  0  0
  2  9  1  1  0  0  0
  2  5  1  0  0  0  0
  3 10  1  0  0  0  0
  3  2  1  0  0  0  0
  4  3  1  0  0  0  0
  5 17  1  0  0  0  0
  5  6  2  0  0  0  0
  7  1  1  0  0  0  0
 11  3  1  0  0  0  0
 12  4  1  0  0  0  0
 13 22  1  0  0  0  0
 13 20  1  0  0  0  0
 13 14  1  0  0  0  0
 14 23  1  6  0  0  0
 14 16  1  0  0  0  0
 14 15  1  0  0  0  0
 16 25  1  1  0  0  0
 16 18  1  0  0  0  0
 17 16  1  0  0  0  0
 18 19  2  0  0  0  0
 21 13  1  0  0  0  0
 24 15  1  0  0  0  0
 26 17  1  0  0  0  0
 27 38  1  0  0  0  0
 27 28  1  0  0  0  0
 27 37  1  0  0  0  0
 28 29  1  0  0  0  0
 29 40  1  0  0  0  0
 29 39  1  0  0  0  0
 30 31  1  0  0  0  0
 30 29  1  0  0  0  0
 31 33  1  0  0  0  0
 31 43  1  1  0  0  0
 32 18  1  0  0  0  0
 32 31  1  0  0  0  0
 33 35  1  0  0  0  0
 34 33  2  0  0  0  0
 36 27  1  0  0  0  0
 41 30  1  0  0  0  0
 42 30  1  0  0  0  0
 44 32  1  0  0  0  0
M  END
$$$$
