CTP.pdb
 OpenBabel07022418293D

 41 41  0  0  1  0  0  0  0  0999 V2000
    0.1680   -3.2500    1.9760 N   0  0  0  0  0  0  0  0  0  0  0  0
    1.1970   -3.5860    1.0410 C   0  0  1  0  0  0  0  0  0  0  0  0
    0.8030   -4.8890    0.3560 C   0  0  0  0  0  0  0  0  0  0  0  0
    2.0720   -5.3470   -0.8290 S   0  0  0  0  0  0  0  0  0  0  0  0
    1.2710   -2.5510   -0.0030 C   0  0  0  0  0  0  0  0  0  0  0  0
    2.1030   -2.6120   -0.9530 O   0  0  0  0  0  0  0  0  0  0  0  0
   -0.4690   -4.0310    2.2010 H   0  0  0  0  0  0  0  0  0  0  0  0
    0.5370   -2.7930    2.8500 H   0  0  0  0  0  0  0  0  0  0  0  0
    2.1960   -3.6720    1.5140 H   0  0  0  0  0  0  0  0  0  0  0  0
    0.6220   -5.6430    1.1330 H   0  0  0  0  0  0  0  0  0  0  0  0
   -0.1820   -4.6780   -0.1530 H   0  0  0  0  0  0  0  0  0  0  0  0
    1.5350   -5.3390   -2.1420 H   0  0  0  0  0  0  0  0  0  0  0  0
   -2.1260   -0.2000   -0.9350 C   0  0  0  0  0  0  0  0  0  0  0  0
   -0.8890   -0.3620   -1.7630 C   0  0  1  0  0  0  0  0  0  0  0  0
   -0.8210    0.6710   -2.6930 O   0  0  0  0  0  0  0  0  0  0  0  0
    0.3800   -0.3800   -0.9270 C   0  0  2  0  0  0  0  0  0  0  0  0
    0.3680   -1.4250    0.0520 N   0  0  0  0  0  0  0  0  0  0  0  0
    0.7170    0.9670   -0.4260 C   0  0  0  0  0  0  0  0  0  0  0  0
    0.6970    1.8880   -1.3370 O   0  0  0  0  0  0  0  0  0  0  0  0
   -1.9900    0.4710   -0.0840 H   0  0  0  0  0  0  0  0  0  0  0  0
   -2.5560   -1.1850   -0.6210 H   0  0  0  0  0  0  0  0  0  0  0  0
   -2.9060    0.2720   -1.5890 H   0  0  0  0  0  0  0  0  0  0  0  0
   -1.0000   -1.2980   -2.3480 H   0  0  0  0  0  0  0  0  0  0  0  0
   -1.4210    1.4190   -2.4890 H   0  0  0  0  0  0  0  0  0  0  0  0
    1.1850   -0.6690   -1.6730 H   0  0  0  0  0  0  0  0  0  0  0  0
   -0.3310   -1.3670    0.8260 H   0  0  0  0  0  0  0  0  0  0  0  0
    1.0440    1.3240    0.8970 N   0  0  0  0  0  0  0  0  0  0  0  0
    1.3580    2.7090    1.2890 C   0  0  0  0  0  0  0  0  0  0  0  0
    1.6470    2.6930    2.7500 C   0  0  0  0  0  0  0  0  0  0  0  0
    2.1930    1.2910    2.9290 C   0  0  0  0  0  0  0  0  0  0  0  0
    1.1490    0.5220    2.0850 C   0  0  1  0  0  0  0  0  0  0  0  0
   -0.0810    0.5820    2.9210 C   0  0  0  0  0  0  0  0  0  0  0  0
   -0.0750   -0.0930    3.9830 O   0  0  0  0  0  0  0  0  0  0  0  0
   -1.1910    1.3110    2.6090 O   0  0  0  0  0  0  0  0  0  0  0  0
    0.5410    3.3980    1.0000 H   0  0  0  0  0  0  0  0  0  0  0  0
    2.2860    3.0040    0.7550 H   0  0  0  0  0  0  0  0  0  0  0  0
    2.4020    3.4530    3.0440 H   0  0  0  0  0  0  0  0  0  0  0  0
    0.6980    2.7810    3.3050 H   0  0  0  0  0  0  0  0  0  0  0  0
    3.1980    1.1670    2.5280 H   0  0  0  0  0  0  0  0  0  0  0  0
    2.0860    1.0370    4.0010 H   0  0  0  0  0  0  0  0  0  0  0  0
    1.5570   -0.4790    1.9500 H   0  0  0  0  0  0  0  0  0  0  0  0
  1  7  1  0  0  0  0
  1  8  1  0  0  0  0
  2  9  1  1  0  0  0
  2  1  1  0  0  0  0
  3  2  1  0  0  0  0
  3 10  1  0  0  0  0
  4  3  1  0  0  0  0
  5 17  1  0  0  0  0
  5  2  1  0  0  0  0
  6  5  2  0  0  0  0
 11  3  1  0  0  0  0
 12  4  1  0  0  0  0
 13 21  1  0  0  0  0
 13 20  1  0  0  0  0
 14 23  1  6  0  0  0
 14 13  1  0  0  0  0
 14 16  1  0  0  0  0
 15 24  1  0  0  0  0
 15 14  1  0  0  0  0
 16 25  1  6  0  0  0
 16 18  1  0  0  0  0
 16 17  1  0  0  0  0
 17 26  1  0  0  0  0
 18 27  1  0  0  0  0
 19 18  2  0  0  0  0
 22 13  1  0  0  0  0
 27 28  1  0  0  0  0
 27 31  1  0  0  0  0
 28 29  1  0  0  0  0
 29 30  1  0  0  0  0
 29 37  1  0  0  0  0
 29 38  1  0  0  0  0
 30 40  1  0  0  0  0
 31 41  1  6  0  0  0
 31 32  1  0  0  0  0
 31 30  1  0  0  0  0
 32 33  1  0  0  0  0
 34 32  2  0  0  0  0
 35 28  1  0  0  0  0
 36 28  1  0  0  0  0
 39 30  1  0  0  0  0
M  END
$$$$
