CTR.pdb
 OpenBabel07022418293D

 50 49  0  0  1  0  0  0  0  0999 V2000
    0.9370   -4.8940    0.6780 N   0  0  0  0  0  0  0  0  0  0  0  0
    1.9590   -4.1310    1.3240 C   0  0  1  0  0  0  0  0  0  0  0  0
    3.3000   -4.7260    0.8820 C   0  0  0  0  0  0  0  0  0  0  0  0
    3.4500   -6.4550    1.3480 S   0  0  0  0  0  0  0  0  0  0  0  0
    1.9430   -2.7380    0.8140 C   0  0  0  0  0  0  0  0  0  0  0  0
    2.7650   -1.8660    1.2100 O   0  0  0  0  0  0  0  0  0  0  0  0
   -0.0380   -4.5750    0.8600 H   0  0  0  0  0  0  0  0  0  0  0  0
    1.0530   -4.9680   -0.3520 H   0  0  0  0  0  0  0  0  0  0  0  0
    1.8660   -4.1630    2.4240 H   0  0  0  0  0  0  0  0  0  0  0  0
    3.2840   -4.6570   -0.2390 H   0  0  0  0  0  0  0  0  0  0  0  0
    4.1280   -4.1000    1.2250 H   0  0  0  0  0  0  0  0  0  0  0  0
    2.9650   -6.6760    2.6510 H   0  0  0  0  0  0  0  0  0  0  0  0
    0.9800    0.1950   -2.9010 C   0  0  0  0  0  0  0  0  0  0  0  0
    1.0650   -1.1010   -2.1730 C   0  0  1  0  0  0  0  0  0  0  0  0
    2.3050   -1.6840   -2.4310 O   0  0  0  0  0  0  0  0  0  0  0  0
    0.9130   -1.0070   -0.6900 C   0  0  2  0  0  0  0  0  0  0  0  0
    0.9830   -2.3470   -0.1510 N   0  0  0  0  0  0  0  0  0  0  0  0
   -0.3590   -0.3560   -0.2660 C   0  0  0  0  0  0  0  0  0  0  0  0
   -0.6390    0.8200   -0.6130 O   0  0  0  0  0  0  0  0  0  0  0  0
    1.6630    0.1470   -3.7820 H   0  0  0  0  0  0  0  0  0  0  0  0
   -0.0250    0.4050   -3.3140 H   0  0  0  0  0  0  0  0  0  0  0  0
    1.3590    1.0330   -2.2650 H   0  0  0  0  0  0  0  0  0  0  0  0
    0.2870   -1.7890   -2.6010 H   0  0  0  0  0  0  0  0  0  0  0  0
    2.6450   -1.4630   -3.3280 H   0  0  0  0  0  0  0  0  0  0  0  0
    1.7200   -0.3720   -0.2640 H   0  0  0  0  0  0  0  0  0  0  0  0
    0.3000   -3.0840   -0.4770 H   0  0  0  0  0  0  0  0  0  0  0  0
    1.5150    3.3630    3.5430 N   0  0  0  0  0  0  0  0  0  0  0  0
    0.4960    3.4650    2.5400 C   0  0  0  0  0  0  0  0  0  0  0  0
    0.8240    3.4900    1.2990 N   0  0  0  0  0  0  0  0  0  0  0  0
   -0.8710    3.5400    2.9020 N   0  0  0  0  0  0  0  0  0  0  0  0
   -1.8700    3.0070    2.0200 C   0  0  0  0  0  0  0  0  0  0  0  0
   -1.7070    1.4950    2.0030 C   0  0  0  0  0  0  0  0  0  0  0  0
   -2.7100    0.8380    1.1030 C   0  0  0  0  0  0  0  0  0  0  0  0
   -2.4930   -0.6740    1.0760 C   0  0  2  0  0  0  0  0  0  0  0  0
   -1.2440   -1.1000    0.5400 N   0  0  0  0  0  0  0  0  0  0  0  0
   -3.6690   -1.4440    0.6970 C   0  0  0  0  0  0  0  0  0  0  0  0
   -3.5750   -2.4480   -0.0790 O   0  0  0  0  0  0  0  0  0  0  0  0
   -4.9470   -1.1430    1.1440 O   0  0  0  0  0  0  0  0  0  0  0  0
    2.2190    2.6030    3.5520 H   0  0  0  0  0  0  0  0  0  0  0  0
    1.5500    4.0750    4.2870 H   0  0  0  0  0  0  0  0  0  0  0  0
    1.8080    3.4370    1.0150 H   0  0  0  0  0  0  0  0  0  0  0  0
   -1.1520    3.9750    3.7990 H   0  0  0  0  0  0  0  0  0  0  0  0
   -2.8630    3.2730    2.3820 H   0  0  0  0  0  0  0  0  0  0  0  0
   -1.7130    3.4100    0.9820 H   0  0  0  0  0  0  0  0  0  0  0  0
   -1.9310    1.1940    3.0940 H   0  0  0  0  0  0  0  0  0  0  0  0
   -0.6610    1.2330    1.8880 H   0  0  0  0  0  0  0  0  0  0  0  0
   -3.7100    0.9810    1.6330 H   0  0  0  0  0  0  0  0  0  0  0  0
   -2.7530    1.2280    0.0930 H   0  0  0  0  0  0  0  0  0  0  0  0
   -2.3620   -0.8400    2.2320 H   0  0  0  0  0  0  0  0  0  0  0  0
   -0.9610   -2.1150    0.7940 H   0  0  0  0  0  0  0  0  0  0  0  0
  1  7  1  0  0  0  0
  1  2  1  0  0  0  0
  2  9  1  1  0  0  0
  3 11  1  0  0  0  0
  3  2  1  0  0  0  0
  3  4  1  0  0  0  0
  4 12  1  0  0  0  0
  5  6  2  0  0  0  0
  5  2  1  0  0  0  0
  8  1  1  0  0  0  0
 10  3  1  0  0  0  0
 13 22  1  0  0  0  0
 13 14  1  0  0  0  0
 14 23  1  6  0  0  0
 14 16  1  0  0  0  0
 15 14  1  0  0  0  0
 16 18  1  0  0  0  0
 16 25  1  1  0  0  0
 16 17  1  0  0  0  0
 17  5  1  0  0  0  0
 18 35  1  0  0  0  0
 19 18  2  0  0  0  0
 20 13  1  0  0  0  0
 21 13  1  0  0  0  0
 24 15  1  0  0  0  0
 26 17  1  0  0  0  0
 27 39  1  0  0  0  0
 27 40  1  0  0  0  0
 28 30  1  0  0  0  0
 28 27  1  0  0  0  0
 29 28  2  0  0  0  0
 30 42  1  0  0  0  0
 31 43  1  0  0  0  0
 31 30  1  0  0  0  0
 32 31  1  0  0  0  0
 32 45  1  0  0  0  0
 33 47  1  0  0  0  0
 33 32  1  0  0  0  0
 34 33  1  0  0  0  0
 34 49  1  1  0  0  0
 35 50  1  0  0  0  0
 35 34  1  0  0  0  0
 36 34  1  0  0  0  0
 36 38  1  0  0  0  0
 37 36  2  0  0  0  0
 41 29  1  0  0  0  0
 44 31  1  0  0  0  0
 46 32  1  0  0  0  0
 48 33  1  0  0  0  0
M  END
$$$$
