CTT.pdb
 OpenBabel07022418293D

 41 40  0  0  1  0  0  0  0  0999 V2000
    1.1330   -3.1380    2.8580 N   0  0  0  0  0  0  0  0  0  0  0  0
    1.2140   -3.7840    1.5820 C   0  0  1  0  0  0  0  0  0  0  0  0
    0.6370   -5.1850    1.6250 C   0  0  0  0  0  0  0  0  0  0  0  0
    0.7860   -5.9170   -0.0370 S   0  0  0  0  0  0  0  0  0  0  0  0
    0.5200   -3.0500    0.5060 C   0  0  0  0  0  0  0  0  0  0  0  0
    0.5400   -3.5460   -0.6460 O   0  0  0  0  0  0  0  0  0  0  0  0
    0.1610   -2.9210    3.1540 H   0  0  0  0  0  0  0  0  0  0  0  0
    1.8100   -2.3890    3.0140 H   0  0  0  0  0  0  0  0  0  0  0  0
    2.3040   -3.9070    1.3480 H   0  0  0  0  0  0  0  0  0  0  0  0
   -0.4140   -5.2020    1.9540 H   0  0  0  0  0  0  0  0  0  0  0  0
    1.2360   -5.7860    2.3490 H   0  0  0  0  0  0  0  0  0  0  0  0
   -0.4700   -6.0100   -0.6620 H   0  0  0  0  0  0  0  0  0  0  0  0
   -2.4690   -0.0650    1.1270 C   0  0  0  0  0  0  0  0  0  0  0  0
   -2.3150   -0.9500   -0.1000 C   0  0  1  0  0  0  0  0  0  0  0  0
   -2.8610   -0.2810   -1.1880 O   0  0  0  0  0  0  0  0  0  0  0  0
   -0.8370   -1.1310   -0.3800 C   0  0  2  0  0  0  0  0  0  0  0  0
   -0.1640   -1.8260    0.7030 N   0  0  0  0  0  0  0  0  0  0  0  0
   -0.2300    0.1960   -0.6210 C   0  0  0  0  0  0  0  0  0  0  0  0
   -0.7240    0.9020   -1.5380 O   0  0  0  0  0  0  0  0  0  0  0  0
   -2.1860    0.9730    0.9090 H   0  0  0  0  0  0  0  0  0  0  0  0
   -1.9100   -0.4530    1.9810 H   0  0  0  0  0  0  0  0  0  0  0  0
   -3.5740   -0.0650    1.3560 H   0  0  0  0  0  0  0  0  0  0  0  0
   -2.8160   -1.9180    0.0750 H   0  0  0  0  0  0  0  0  0  0  0  0
   -3.3410    0.5330   -0.9290 H   0  0  0  0  0  0  0  0  0  0  0  0
   -0.6950   -1.7340   -1.2950 H   0  0  0  0  0  0  0  0  0  0  0  0
   -0.1540   -1.4490    1.6870 H   0  0  0  0  0  0  0  0  0  0  0  0
    1.9060    2.2520    2.2970 C   0  0  0  0  0  0  0  0  0  0  0  0
    1.2320    2.8810    1.0900 C   0  0  1  0  0  0  0  0  0  0  0  0
    1.7710    4.1470    0.9320 O   0  0  0  0  0  0  0  0  0  0  0  0
    1.4480    2.0150   -0.1330 C   0  0  2  0  0  0  0  0  0  0  0  0
    0.8590    0.7130    0.1100 N   0  0  0  0  0  0  0  0  0  0  0  0
    2.8570    1.9290   -0.5220 C   0  0  0  0  0  0  0  0  0  0  0  0
    3.4960    2.9830   -0.7630 O   0  0  0  0  0  0  0  0  0  0  0  0
    3.5360    0.7250   -0.6390 O   0  0  0  0  0  0  0  0  0  0  0  0
    2.1240    3.0390    3.0240 H   0  0  0  0  0  0  0  0  0  0  0  0
    2.8610    1.7820    1.9720 H   0  0  0  0  0  0  0  0  0  0  0  0
    1.2790    1.4500    2.7480 H   0  0  0  0  0  0  0  0  0  0  0  0
    0.1660    3.0040    1.3240 H   0  0  0  0  0  0  0  0  0  0  0  0
    2.7260    4.1010    1.2040 H   0  0  0  0  0  0  0  0  0  0  0  0
    0.8760    2.4680   -0.9680 H   0  0  0  0  0  0  0  0  0  0  0  0
    1.2690    0.1340    0.8670 H   0  0  0  0  0  0  0  0  0  0  0  0
  1  8  1  0  0  0  0
  1  7  1  0  0  0  0
  2  9  1  6  0  0  0
  2  3  1  0  0  0  0
  2  1  1  0  0  0  0
  3 10  1  0  0  0  0
  3 11  1  0  0  0  0
  4  3  1  0  0  0  0
  5 17  1  0  0  0  0
  5  2  1  0  0  0  0
  6  5  2  0  0  0  0
 12  4  1  0  0  0  0
 13 22  1  0  0  0  0
 13 21  1  0  0  0  0
 14 23  1  1  0  0  0
 14 13  1  0  0  0  0
 15 24  1  0  0  0  0
 15 14  1  0  0  0  0
 16 25  1  6  0  0  0
 16 14  1  0  0  0  0
 16 17  1  0  0  0  0
 17 26  1  0  0  0  0
 18 16  1  0  0  0  0
 18 31  1  0  0  0  0
 19 18  2  0  0  0  0
 20 13  1  0  0  0  0
 27 37  1  0  0  0  0
 27 35  1  0  0  0  0
 28 38  1  1  0  0  0
 28 27  1  0  0  0  0
 29 28  1  0  0  0  0
 29 39  1  0  0  0  0
 30 40  1  6  0  0  0
 30 31  1  0  0  0  0
 30 28  1  0  0  0  0
 31 41  1  0  0  0  0
 32 30  1  0  0  0  0
 33 32  2  0  0  0  0
 34 32  1  0  0  0  0
 36 27  1  0  0  0  0
M  END
$$$$
