CTW.pdb
 OpenBabel07022418293D

 51 52  0  0  1  0  0  0  0  0999 V2000
   -1.1020    4.1830    2.1980 N   0  0  0  0  0  0  0  0  0  0  0  0
   -1.3230    3.3980    0.9650 C   0  0  1  0  0  0  0  0  0  0  0  0
   -1.2420    4.3990   -0.1680 C   0  0  0  0  0  0  0  0  0  0  0  0
   -1.4960    3.6040   -1.7720 S   0  0  0  0  0  0  0  0  0  0  0  0
   -0.3270    2.3190    0.8680 C   0  0  0  0  0  0  0  0  0  0  0  0
    0.5870    2.2800    1.7620 O   0  0  0  0  0  0  0  0  0  0  0  0
   -1.9830    4.7280    2.3380 H   0  0  0  0  0  0  0  0  0  0  0  0
   -0.9420    3.5650    3.0160 H   0  0  0  0  0  0  0  0  0  0  0  0
   -2.3690    3.0390    1.0310 H   0  0  0  0  0  0  0  0  0  0  0  0
   -1.9920    5.2020   -0.0300 H   0  0  0  0  0  0  0  0  0  0  0  0
   -0.2460    4.9230   -0.1440 H   0  0  0  0  0  0  0  0  0  0  0  0
   -2.8370    3.8210   -2.1520 H   0  0  0  0  0  0  0  0  0  0  0  0
    3.1660   -0.1460   -0.5720 C   0  0  0  0  0  0  0  0  0  0  0  0
    2.1210    0.9080   -0.2720 C   0  0  1  0  0  0  0  0  0  0  0  0
    2.0480    1.6680   -1.4730 O   0  0  0  0  0  0  0  0  0  0  0  0
    0.7600    0.2620   -0.1490 C   0  0  2  0  0  0  0  0  0  0  0  0
   -0.2760    1.3200   -0.1090 N   0  0  0  0  0  0  0  0  0  0  0  0
    0.5710   -0.5590    1.0550 C   0  0  0  0  0  0  0  0  0  0  0  0
   -0.3310   -0.2030    1.8910 O   0  0  0  0  0  0  0  0  0  0  0  0
    3.6880   -0.4660    0.3580 H   0  0  0  0  0  0  0  0  0  0  0  0
    3.9810    0.3860   -1.1590 H   0  0  0  0  0  0  0  0  0  0  0  0
    2.7460   -0.9580   -1.1680 H   0  0  0  0  0  0  0  0  0  0  0  0
    2.4070    1.5650    0.5400 H   0  0  0  0  0  0  0  0  0  0  0  0
    2.5250    2.5110   -1.3870 H   0  0  0  0  0  0  0  0  0  0  0  0
    0.6120   -0.3390   -1.0470 H   0  0  0  0  0  0  0  0  0  0  0  0
   -1.0100    1.3150   -0.8490 H   0  0  0  0  0  0  0  0  0  0  0  0
    1.2710   -1.7210    1.4230 N   0  0  0  0  0  0  0  0  0  0  0  0
    1.0400   -2.4780    2.6160 C   0  0  1  0  0  0  0  0  0  0  0  0
    0.5250   -3.8800    2.3730 C   0  0  0  0  0  0  0  0  0  0  0  0
   -0.7710   -3.9050    1.6490 C   0  0  0  0  0  0  0  0  0  0  0  0
   -2.0110   -4.0830    2.2670 C   0  0  0  0  0  0  0  0  0  0  0  0
   -2.9550   -4.0320    1.3200 N   0  0  0  0  0  0  0  0  0  0  0  0
   -2.3970   -3.8300    0.1150 C   0  0  0  0  0  0  0  0  0  0  0  0
   -2.9720   -3.7160   -1.1270 C   0  0  0  0  0  0  0  0  0  0  0  0
   -2.1530   -3.5150   -2.2190 C   0  0  0  0  0  0  0  0  0  0  0  0
   -0.7830   -3.4310   -2.0550 C   0  0  0  0  0  0  0  0  0  0  0  0
   -0.2430   -3.5530   -0.7720 C   0  0  0  0  0  0  0  0  0  0  0  0
   -1.0380   -3.7520    0.3220 C   0  0  0  0  0  0  0  0  0  0  0  0
    2.2560   -2.4990    3.4680 C   0  0  0  0  0  0  0  0  0  0  0  0
    2.3220   -3.0900    4.5650 O   0  0  0  0  0  0  0  0  0  0  0  0
    3.4160   -1.8250    3.0420 O   0  0  0  0  0  0  0  0  0  0  0  0
    2.0140   -2.0660    0.7840 H   0  0  0  0  0  0  0  0  0  0  0  0
    0.2400   -2.0080    3.2640 H   0  0  0  0  0  0  0  0  0  0  0  0
    0.3590   -4.3540    3.3660 H   0  0  0  0  0  0  0  0  0  0  0  0
    1.2780   -4.4980    1.8330 H   0  0  0  0  0  0  0  0  0  0  0  0
   -2.1540   -4.2330    3.3250 H   0  0  0  0  0  0  0  0  0  0  0  0
   -3.9850   -4.1320    1.4780 H   0  0  0  0  0  0  0  0  0  0  0  0
   -4.0300   -3.7780   -1.2780 H   0  0  0  0  0  0  0  0  0  0  0  0
   -2.5530   -3.4190   -3.2150 H   0  0  0  0  0  0  0  0  0  0  0  0
   -0.1740   -3.2730   -2.9330 H   0  0  0  0  0  0  0  0  0  0  0  0
    0.8240   -3.4900   -0.6800 H   0  0  0  0  0  0  0  0  0  0  0  0
  1  7  1  0  0  0  0
  1  8  1  0  0  0  0
  2  9  1  1  0  0  0
  2  1  1  0  0  0  0
  3 11  1  0  0  0  0
  3 10  1  0  0  0  0
  3  2  1  0  0  0  0
  4  3  1  0  0  0  0
  5  2  1  0  0  0  0
  5  6  2  0  0  0  0
 12  4  1  0  0  0  0
 13 14  1  0  0  0  0
 13 20  1  0  0  0  0
 14 16  1  0  0  0  0
 14 23  1  1  0  0  0
 15 24  1  0  0  0  0
 15 14  1  0  0  0  0
 16 25  1  6  0  0  0
 16 17  1  0  0  0  0
 16 18  1  0  0  0  0
 17  5  1  0  0  0  0
 18 27  1  0  0  0  0
 18 19  2  0  0  0  0
 21 13  1  0  0  0  0
 22 13  1  0  0  0  0
 26 17  1  0  0  0  0
 27 28  1  0  0  0  0
 28 43  1  1  0  0  0
 28 39  1  0  0  0  0
 29 28  1  0  0  0  0
 29 44  1  0  0  0  0
 30 31  2  0  0  0  0
 30 29  1  0  0  0  0
 31 46  1  0  0  0  0
 32 47  1  0  0  0  0
 32 31  1  0  0  0  0
 33 38  1  0  0  0  0
 33 32  1  0  0  0  0
 34 33  2  0  0  0  0
 35 36  2  0  0  0  0
 35 34  1  0  0  0  0
 36 37  1  0  0  0  0
 37 51  1  0  0  0  0
 37 38  2  0  0  0  0
 38 30  1  0  0  0  0
 39 40  1  0  0  0  0
 41 39  2  0  0  0  0
 42 27  1  0  0  0  0
 45 29  1  0  0  0  0
 48 34  1  0  0  0  0
 49 35  1  0  0  0  0
 50 36  1  0  0  0  0
M  END
$$$$
