CTY.pdb
 OpenBabel07022418293D

 48 48  0  0  1  0  0  0  0  0999 V2000
    5.3830   -3.4520    0.3250 N   0  0  0  0  0  0  0  0  0  0  0  0
    4.4420   -2.9250   -0.6690 C   0  0  1  0  0  0  0  0  0  0  0  0
    3.8100   -4.1040   -1.3970 C   0  0  0  0  0  0  0  0  0  0  0  0
    2.6330   -3.6180   -2.6530 S   0  0  0  0  0  0  0  0  0  0  0  0
    3.4770   -2.0690    0.0180 C   0  0  0  0  0  0  0  0  0  0  0  0
    3.5300   -1.9820    1.2870 O   0  0  0  0  0  0  0  0  0  0  0  0
    4.8840   -4.1740    0.8950 H   0  0  0  0  0  0  0  0  0  0  0  0
    5.6940   -2.7190    0.9820 H   0  0  0  0  0  0  0  0  0  0  0  0
    5.0050   -2.3070   -1.3990 H   0  0  0  0  0  0  0  0  0  0  0  0
    4.6290   -4.7220   -1.8140 H   0  0  0  0  0  0  0  0  0  0  0  0
    3.2960   -4.7510   -0.6470 H   0  0  0  0  0  0  0  0  0  0  0  0
    2.6340   -4.5110   -3.7360 H   0  0  0  0  0  0  0  0  0  0  0  0
    0.9540    1.9930    0.2840 C   0  0  0  0  0  0  0  0  0  0  0  0
    1.8070    0.9340   -0.3390 C   0  0  1  0  0  0  0  0  0  0  0  0
    3.1710    1.1590   -0.0190 O   0  0  0  0  0  0  0  0  0  0  0  0
    1.5230   -0.4680    0.1440 C   0  0  2  0  0  0  0  0  0  0  0  0
    2.4730   -1.3160   -0.6070 N   0  0  0  0  0  0  0  0  0  0  0  0
    0.1580   -0.9420   -0.2050 C   0  0  0  0  0  0  0  0  0  0  0  0
   -0.0200   -1.8810   -1.0590 O   0  0  0  0  0  0  0  0  0  0  0  0
   -0.0290    2.1010   -0.1950 H   0  0  0  0  0  0  0  0  0  0  0  0
    1.5190    2.9750    0.2540 H   0  0  0  0  0  0  0  0  0  0  0  0
    0.8380    1.7930    1.3690 H   0  0  0  0  0  0  0  0  0  0  0  0
    1.7480    0.9610   -1.4440 H   0  0  0  0  0  0  0  0  0  0  0  0
    3.5770    1.8220   -0.6230 H   0  0  0  0  0  0  0  0  0  0  0  0
    1.7080   -0.5110    1.2140 H   0  0  0  0  0  0  0  0  0  0  0  0
    2.3680   -1.3300   -1.6330 H   0  0  0  0  0  0  0  0  0  0  0  0
   -3.4710    2.5580    5.1950 O   0  0  0  0  0  0  0  0  0  0  0  0
   -3.3310    1.5550    4.2270 C   0  0  0  0  0  0  0  0  0  0  0  0
   -2.1990    0.7790    4.1620 C   0  0  0  0  0  0  0  0  0  0  0  0
   -2.0980   -0.1990    3.1950 C   0  0  0  0  0  0  0  0  0  0  0  0
   -3.1090   -0.4370    2.2680 C   0  0  0  0  0  0  0  0  0  0  0  0
   -2.9870   -1.4940    1.2310 C   0  0  0  0  0  0  0  0  0  0  0  0
   -2.3550   -0.9240   -0.0270 C   0  0  2  0  0  0  0  0  0  0  0  0
   -1.0410   -0.4280    0.3480 N   0  0  0  0  0  0  0  0  0  0  0  0
   -3.2150    0.1350   -0.5690 C   0  0  0  0  0  0  0  0  0  0  0  0
   -2.8770    1.3360   -0.7010 O   0  0  0  0  0  0  0  0  0  0  0  0
   -4.2290    0.3730    2.3770 C   0  0  0  0  0  0  0  0  0  0  0  0
   -4.3550    1.3560    3.3330 C   0  0  0  0  0  0  0  0  0  0  0  0
   -4.4990   -0.2110   -0.9670 O   0  0  0  0  0  0  0  0  0  0  0  0
   -3.2810    2.3850    6.1770 H   0  0  0  0  0  0  0  0  0  0  0  0
   -1.3850    0.9340    4.8690 H   0  0  0  0  0  0  0  0  0  0  0  0
   -1.1890   -0.8180    3.1480 H   0  0  0  0  0  0  0  0  0  0  0  0
   -2.3050   -2.2780    1.6580 H   0  0  0  0  0  0  0  0  0  0  0  0
   -3.9760   -1.9430    0.9760 H   0  0  0  0  0  0  0  0  0  0  0  0
   -2.2540   -1.7280   -0.7840 H   0  0  0  0  0  0  0  0  0  0  0  0
   -1.0010    0.3240    1.0490 H   0  0  0  0  0  0  0  0  0  0  0  0
   -5.0570    0.2420    1.6860 H   0  0  0  0  0  0  0  0  0  0  0  0
   -5.2350    1.9840    3.4100 H   0  0  0  0  0  0  0  0  0  0  0  0
  1  7  1  0  0  0  0
  1  8  1  0  0  0  0
  2  9  1  6  0  0  0
  2  5  1  0  0  0  0
  2  1  1  0  0  0  0
  3  2  1  0  0  0  0
  3 11  1  0  0  0  0
  4  3  1  0  0  0  0
  5  6  2  0  0  0  0
 10  3  1  0  0  0  0
 12  4  1  0  0  0  0
 13 22  1  0  0  0  0
 14 23  1  6  0  0  0
 14 15  1  0  0  0  0
 14 16  1  0  0  0  0
 14 13  1  0  0  0  0
 16 25  1  1  0  0  0
 17  5  1  0  0  0  0
 17 16  1  0  0  0  0
 18 16  1  0  0  0  0
 18 34  1  0  0  0  0
 19 18  2  0  0  0  0
 20 13  1  0  0  0  0
 21 13  1  0  0  0  0
 24 15  1  0  0  0  0
 26 17  1  0  0  0  0
 27 40  1  0  0  0  0
 28 27  1  0  0  0  0
 29 28  1  0  0  0  0
 29 41  1  0  0  0  0
 30 29  2  0  0  0  0
 31 37  2  0  0  0  0
 31 30  1  0  0  0  0
 32 43  1  0  0  0  0
 32 31  1  0  0  0  0
 33 45  1  6  0  0  0
 33 34  1  0  0  0  0
 33 32  1  0  0  0  0
 34 46  1  0  0  0  0
 35 33  1  0  0  0  0
 36 35  1  0  0  0  0
 37 38  1  0  0  0  0
 38 48  1  0  0  0  0
 38 28  2  0  0  0  0
 39 35  2  0  0  0  0
 42 30  1  0  0  0  0
 44 32  1  0  0  0  0
 47 37  1  0  0  0  0
M  END
$$$$
