CVC.pdb
 OpenBabel07022418303D

 40 39  0  0  1  0  0  0  0  0999 V2000
    3.9200   -2.0870    3.4460 N   0  0  0  0  0  0  0  0  0  0  0  0
    2.6380   -2.3780    2.7690 C   0  0  1  0  0  0  0  0  0  0  0  0
    1.6260   -2.5490    3.8430 C   0  0  0  0  0  0  0  0  0  0  0  0
   -0.0320   -2.9440    3.3220 S   0  0  0  0  0  0  0  0  0  0  0  0
    2.3830   -1.3740    1.7470 C   0  0  0  0  0  0  0  0  0  0  0  0
    3.2150   -0.4010    1.5900 O   0  0  0  0  0  0  0  0  0  0  0  0
    3.9400   -1.0920    3.7790 H   0  0  0  0  0  0  0  0  0  0  0  0
    3.9250   -2.7100    4.2890 H   0  0  0  0  0  0  0  0  0  0  0  0
    2.7910   -3.3570    2.2720 H   0  0  0  0  0  0  0  0  0  0  0  0
    1.9830   -3.4210    4.4720 H   0  0  0  0  0  0  0  0  0  0  0  0
    1.5760   -1.6730    4.5410 H   0  0  0  0  0  0  0  0  0  0  0  0
   -0.9660   -1.9640    3.7610 H   0  0  0  0  0  0  0  0  0  0  0  0
    2.4790   -1.7800   -1.5940 C   0  0  0  0  0  0  0  0  0  0  0  0
    1.1510   -1.0890   -1.4490 C   0  0  0  0  0  0  0  0  0  0  0  0
    0.8400   -0.1980   -2.6040 C   0  0  0  0  0  0  0  0  0  0  0  0
    1.0820   -0.3780   -0.1110 C   0  0  2  0  0  0  0  0  0  0  0  0
    1.2470   -1.4210    0.9000 N   0  0  0  0  0  0  0  0  0  0  0  0
   -0.2030    0.3460   -0.0040 C   0  0  0  0  0  0  0  0  0  0  0  0
   -0.4880    1.2820   -0.8270 O   0  0  0  0  0  0  0  0  0  0  0  0
    3.3320   -1.1720   -1.2690 H   0  0  0  0  0  0  0  0  0  0  0  0
    2.4690   -2.7980   -1.1060 H   0  0  0  0  0  0  0  0  0  0  0  0
    2.6090   -2.0050   -2.6860 H   0  0  0  0  0  0  0  0  0  0  0  0
    0.3760   -1.9080   -1.3990 H   0  0  0  0  0  0  0  0  0  0  0  0
    1.2310   -0.7050   -3.5300 H   0  0  0  0  0  0  0  0  0  0  0  0
   -0.2800   -0.1930   -2.7530 H   0  0  0  0  0  0  0  0  0  0  0  0
    1.2520    0.8080   -2.5430 H   0  0  0  0  0  0  0  0  0  0  0  0
    1.9400    0.3260   -0.0550 H   0  0  0  0  0  0  0  0  0  0  0  0
    0.5510   -2.1910    1.0040 H   0  0  0  0  0  0  0  0  0  0  0  0
   -1.1830    0.0680    0.9840 N   0  0  0  0  0  0  0  0  0  0  0  0
   -2.4360    0.7410    1.1070 C   0  0  1  0  0  0  0  0  0  0  0  0
   -2.3930    2.0490    1.8320 C   0  0  0  0  0  0  0  0  0  0  0  0
   -1.3160    3.2530    1.0490 S   0  0  0  0  0  0  0  0  0  0  0  0
   -3.2020    0.8450   -0.1760 C   0  0  0  0  0  0  0  0  0  0  0  0
   -2.7830    0.3040   -1.2140 O   0  0  0  0  0  0  0  0  0  0  0  0
   -4.3890    1.5580   -0.1830 O   0  0  0  0  0  0  0  0  0  0  0  0
   -0.9730   -0.7020    1.6960 H   0  0  0  0  0  0  0  0  0  0  0  0
   -3.1290    0.0640    1.7290 H   0  0  0  0  0  0  0  0  0  0  0  0
   -3.4550    2.4290    1.9080 H   0  0  0  0  0  0  0  0  0  0  0  0
   -2.0710    1.9460    2.8890 H   0  0  0  0  0  0  0  0  0  0  0  0
   -0.5950    3.9940    2.0240 H   0  0  0  0  0  0  0  0  0  0  0  0
  1  7  1  0  0  0  0
  1  8  1  0  0  0  0
  2  9  1  6  0  0  0
  2  1  1  0  0  0  0
  2  3  1  0  0  0  0
  3 10  1  0  0  0  0
  3 11  1  0  0  0  0
  4 12  1  0  0  0  0
  4  3  1  0  0  0  0
  5  2  1  0  0  0  0
  6  5  2  0  0  0  0
 13 14  1  0  0  0  0
 13 20  1  0  0  0  0
 13 21  1  0  0  0  0
 14 23  1  0  0  0  0
 14 16  1  0  0  0  0
 15 26  1  0  0  0  0
 15 14  1  0  0  0  0
 16 27  1  1  0  0  0
 16 18  1  0  0  0  0
 16 17  1  0  0  0  0
 17 28  1  0  0  0  0
 17  5  1  0  0  0  0
 18 29  1  0  0  0  0
 19 18  2  0  0  0  0
 22 13  1  0  0  0  0
 24 15  1  0  0  0  0
 25 15  1  0  0  0  0
 29 30  1  0  0  0  0
 29 36  1  0  0  0  0
 30 37  1  1  0  0  0
 30 31  1  0  0  0  0
 31 38  1  0  0  0  0
 31 39  1  0  0  0  0
 32 31  1  0  0  0  0
 32 40  1  0  0  0  0
 33 30  1  0  0  0  0
 34 33  2  0  0  0  0
 35 33  1  0  0  0  0
M  END
$$$$
