CVD.pdb
 OpenBabel07022418303D

 42 41  0  0  1  0  0  0  0  0999 V2000
   -1.8190   -4.4750    1.1940 N   0  0  0  0  0  0  0  0  0  0  0  0
   -0.6590   -4.5320    2.0250 C   0  0  1  0  0  0  0  0  0  0  0  0
    0.1120   -5.7940    1.6720 C   0  0  0  0  0  0  0  0  0  0  0  0
    0.5790   -5.7060   -0.0730 S   0  0  0  0  0  0  0  0  0  0  0  0
    0.2170   -3.3490    1.8640 C   0  0  0  0  0  0  0  0  0  0  0  0
    1.2690   -3.2740    2.5380 O   0  0  0  0  0  0  0  0  0  0  0  0
   -2.3940   -3.6290    1.2950 H   0  0  0  0  0  0  0  0  0  0  0  0
   -1.6840   -4.7360    0.2110 H   0  0  0  0  0  0  0  0  0  0  0  0
   -1.0110   -4.6000    3.0810 H   0  0  0  0  0  0  0  0  0  0  0  0
   -0.5270   -6.6820    1.8220 H   0  0  0  0  0  0  0  0  0  0  0  0
    0.9990   -5.8160    2.3370 H   0  0  0  0  0  0  0  0  0  0  0  0
    1.9710   -5.9630   -0.1860 H   0  0  0  0  0  0  0  0  0  0  0  0
    0.2590   -1.1210   -1.6690 C   0  0  0  0  0  0  0  0  0  0  0  0
    1.3090   -1.2030   -0.6120 C   0  0  0  0  0  0  0  0  0  0  0  0
    2.3550   -0.1670   -0.7940 C   0  0  0  0  0  0  0  0  0  0  0  0
    0.7320   -1.1680    0.8100 C   0  0  2  0  0  0  0  0  0  0  0  0
   -0.1620   -2.3390    0.9520 N   0  0  0  0  0  0  0  0  0  0  0  0
   -0.0460    0.0600    1.0480 C   0  0  0  0  0  0  0  0  0  0  0  0
   -1.3150   -0.0380    1.2220 O   0  0  0  0  0  0  0  0  0  0  0  0
    0.4540   -1.8410   -2.5050 H   0  0  0  0  0  0  0  0  0  0  0  0
   -0.7720   -1.1930   -1.2940 H   0  0  0  0  0  0  0  0  0  0  0  0
    0.3410   -0.1050   -2.1410 H   0  0  0  0  0  0  0  0  0  0  0  0
    1.7690   -2.2430   -0.7090 H   0  0  0  0  0  0  0  0  0  0  0  0
    3.0170   -0.5470   -1.6420 H   0  0  0  0  0  0  0  0  0  0  0  0
    1.9300    0.7810   -1.1810 H   0  0  0  0  0  0  0  0  0  0  0  0
    2.9920   -0.0060    0.1110 H   0  0  0  0  0  0  0  0  0  0  0  0
    1.5790   -1.3320    1.4880 H   0  0  0  0  0  0  0  0  0  0  0  0
   -1.0480   -2.3990    0.3820 H   0  0  0  0  0  0  0  0  0  0  0  0
    0.4470    1.3790    1.1130 N   0  0  0  0  0  0  0  0  0  0  0  0
   -0.4150    2.5190    1.3500 C   0  0  1  0  0  0  0  0  0  0  0  0
   -0.0500    3.3160    2.5650 C   0  0  0  0  0  0  0  0  0  0  0  0
    1.3140    3.8810    2.4800 C   0  0  0  0  0  0  0  0  0  0  0  0
    1.9900    3.7040    1.4490 O   0  0  0  0  0  0  0  0  0  0  0  0
   -0.2910    3.4270    0.1810 C   0  0  0  0  0  0  0  0  0  0  0  0
    0.4700    3.1050   -0.7570 O   0  0  0  0  0  0  0  0  0  0  0  0
    1.8730    4.6160    3.5320 O   0  0  0  0  0  0  0  0  0  0  0  0
   -0.9910    4.6230    0.0890 O   0  0  0  0  0  0  0  0  0  0  0  0
    1.4580    1.5380    0.9950 H   0  0  0  0  0  0  0  0  0  0  0  0
   -1.4860    2.1820    1.4560 H   0  0  0  0  0  0  0  0  0  0  0  0
   -0.7730    4.1340    2.7370 H   0  0  0  0  0  0  0  0  0  0  0  0
   -0.1080    2.6610    3.4610 H   0  0  0  0  0  0  0  0  0  0  0  0
    2.8840    4.6840    3.6620 H   0  0  0  0  0  0  0  0  0  0  0  0
  1  7  1  0  0  0  0
  1  2  1  0  0  0  0
  2  9  1  1  0  0  0
  3 10  1  0  0  0  0
  3  2  1  0  0  0  0
  3 11  1  0  0  0  0
  4  3  1  0  0  0  0
  5  2  1  0  0  0  0
  5  6  2  0  0  0  0
  8  1  1  0  0  0  0
 12  4  1  0  0  0  0
 13 21  1  0  0  0  0
 13 14  1  0  0  0  0
 14 16  1  0  0  0  0
 15 14  1  0  0  0  0
 15 26  1  0  0  0  0
 16 17  1  0  0  0  0
 16 18  1  0  0  0  0
 16 27  1  1  0  0  0
 17  5  1  0  0  0  0
 18 29  1  0  0  0  0
 18 19  2  0  0  0  0
 20 13  1  0  0  0  0
 22 13  1  0  0  0  0
 23 14  1  0  0  0  0
 24 15  1  0  0  0  0
 25 15  1  0  0  0  0
 28 17  1  0  0  0  0
 29 30  1  0  0  0  0
 30 39  1  1  0  0  0
 30 31  1  0  0  0  0
 31 40  1  0  0  0  0
 31 41  1  0  0  0  0
 32 31  1  0  0  0  0
 32 36  1  0  0  0  0
 33 32  2  0  0  0  0
 34 30  1  0  0  0  0
 35 34  2  0  0  0  0
 36 42  1  0  0  0  0
 37 34  1  0  0  0  0
 38 29  1  0  0  0  0
M  END
$$$$
