CVE.pdb
 OpenBabel07022418303D

 45 44  0  0  1  0  0  0  0  0999 V2000
    0.4580   -4.2260    4.7200 N   0  0  0  0  0  0  0  0  0  0  0  0
    1.2670   -3.1130    4.2740 C   0  0  1  0  0  0  0  0  0  0  0  0
    2.5320   -3.6660    3.6810 C   0  0  0  0  0  0  0  0  0  0  0  0
    2.1210   -4.7410    2.2830 S   0  0  0  0  0  0  0  0  0  0  0  0
    0.4920   -2.2780    3.3660 C   0  0  0  0  0  0  0  0  0  0  0  0
   -0.6940   -2.6140    3.1090 O   0  0  0  0  0  0  0  0  0  0  0  0
    0.5080   -5.0520    4.1120 H   0  0  0  0  0  0  0  0  0  0  0  0
   -0.5040   -3.9540    4.9810 H   0  0  0  0  0  0  0  0  0  0  0  0
    1.4860   -2.5010    5.1890 H   0  0  0  0  0  0  0  0  0  0  0  0
    3.2790   -2.9050    3.4220 H   0  0  0  0  0  0  0  0  0  0  0  0
    3.0030   -4.3100    4.4660 H   0  0  0  0  0  0  0  0  0  0  0  0
    2.8470   -4.3250    1.1710 H   0  0  0  0  0  0  0  0  0  0  0  0
   -0.7650    1.0070    3.7020 C   0  0  0  0  0  0  0  0  0  0  0  0
   -0.0920    1.0640    2.3500 C   0  0  0  0  0  0  0  0  0  0  0  0
    1.1300    1.9300    2.3510 C   0  0  0  0  0  0  0  0  0  0  0  0
    0.1710   -0.3420    1.8740 C   0  0  2  0  0  0  0  0  0  0  0  0
    1.0150   -1.0890    2.7480 N   0  0  0  0  0  0  0  0  0  0  0  0
    0.7470   -0.3610    0.5000 C   0  0  0  0  0  0  0  0  0  0  0  0
    1.8190   -0.9720    0.2610 O   0  0  0  0  0  0  0  0  0  0  0  0
   -0.7450    1.9810    4.2220 H   0  0  0  0  0  0  0  0  0  0  0  0
   -1.8380    0.7640    3.5100 H   0  0  0  0  0  0  0  0  0  0  0  0
   -0.3760    0.1770    4.3250 H   0  0  0  0  0  0  0  0  0  0  0  0
   -0.8210    1.5120    1.6400 H   0  0  0  0  0  0  0  0  0  0  0  0
    1.5250    1.9310    3.4070 H   0  0  0  0  0  0  0  0  0  0  0  0
    0.8920    3.0050    2.1470 H   0  0  0  0  0  0  0  0  0  0  0  0
    1.8960    1.6390    1.6230 H   0  0  0  0  0  0  0  0  0  0  0  0
   -0.8150   -0.8400    1.8130 H   0  0  0  0  0  0  0  0  0  0  0  0
    1.9830   -0.8430    2.9780 H   0  0  0  0  0  0  0  0  0  0  0  0
    0.0920    0.3210   -0.5930 N   0  0  0  0  0  0  0  0  0  0  0  0
    0.6560    0.3000   -1.9260 C   0  0  1  0  0  0  0  0  0  0  0  0
   -0.3370   -0.3360   -2.8620 C   0  0  0  0  0  0  0  0  0  0  0  0
   -1.6100    0.4530   -2.8820 C   0  0  0  0  0  0  0  0  0  0  0  0
   -2.6120   -0.1320   -3.8000 C   0  0  0  0  0  0  0  0  0  0  0  0
   -2.3730   -1.1660   -4.4600 O   0  0  0  0  0  0  0  0  0  0  0  0
    0.8420    1.7130   -2.3590 C   0  0  0  0  0  0  0  0  0  0  0  0
    0.5340    2.6820   -1.6260 O   0  0  0  0  0  0  0  0  0  0  0  0
   -3.8430    0.4760   -3.9350 O   0  0  0  0  0  0  0  0  0  0  0  0
    1.3740    1.9810   -3.6130 O   0  0  0  0  0  0  0  0  0  0  0  0
   -0.7830    0.8080   -0.3170 H   0  0  0  0  0  0  0  0  0  0  0  0
    1.6340   -0.2340   -1.9430 H   0  0  0  0  0  0  0  0  0  0  0  0
   -0.5070   -1.4120   -2.6090 H   0  0  0  0  0  0  0  0  0  0  0  0
    0.1100   -0.3280   -3.8970 H   0  0  0  0  0  0  0  0  0  0  0  0
   -2.0060    0.5780   -1.8590 H   0  0  0  0  0  0  0  0  0  0  0  0
   -1.3530    1.4720   -3.2590 H   0  0  0  0  0  0  0  0  0  0  0  0
   -4.6620    0.0370   -4.3030 H   0  0  0  0  0  0  0  0  0  0  0  0
  1  8  1  0  0  0  0
  2  1  1  0  0  0  0
  2  9  1  1  0  0  0
  3  2  1  0  0  0  0
  3 11  1  0  0  0  0
  4  3  1  0  0  0  0
  5  2  1  0  0  0  0
  6  5  2  0  0  0  0
  7  1  1  0  0  0  0
 10  3  1  0  0  0  0
 12  4  1  0  0  0  0
 13 20  1  0  0  0  0
 13 22  1  0  0  0  0
 14 15  1  0  0  0  0
 14 13  1  0  0  0  0
 15 24  1  0  0  0  0
 16 27  1  6  0  0  0
 16 14  1  0  0  0  0
 16 17  1  0  0  0  0
 17 28  1  0  0  0  0
 17  5  1  0  0  0  0
 18 16  1  0  0  0  0
 19 18  2  0  0  0  0
 21 13  1  0  0  0  0
 23 14  1  0  0  0  0
 25 15  1  0  0  0  0
 26 15  1  0  0  0  0
 29 39  1  0  0  0  0
 29 18  1  0  0  0  0
 30 40  1  6  0  0  0
 30 29  1  0  0  0  0
 31 41  1  0  0  0  0
 31 30  1  0  0  0  0
 32 31  1  0  0  0  0
 32 43  1  0  0  0  0
 33 32  1  0  0  0  0
 34 33  2  0  0  0  0
 35 30  1  0  0  0  0
 35 36  1  0  0  0  0
 37 33  1  0  0  0  0
 38 35  2  0  0  0  0
 42 31  1  0  0  0  0
 44 32  1  0  0  0  0
 45 37  1  0  0  0  0
M  END
$$$$
