CVF.pdb
 OpenBabel07022418303D

 49 49  0  0  1  0  0  0  0  0999 V2000
    0.0830   -4.3600   -0.3320 N   0  0  0  0  0  0  0  0  0  0  0  0
    1.1810   -3.5450   -0.8510 C   0  0  1  0  0  0  0  0  0  0  0  0
    1.3740   -3.9520   -2.2710 C   0  0  0  0  0  0  0  0  0  0  0  0
    2.7000   -3.0420   -3.0570 S   0  0  0  0  0  0  0  0  0  0  0  0
    0.8370   -2.0910   -0.6840 C   0  0  0  0  0  0  0  0  0  0  0  0
   -0.3190   -1.7640   -0.3160 O   0  0  0  0  0  0  0  0  0  0  0  0
   -0.7700   -3.8230   -0.1510 H   0  0  0  0  0  0  0  0  0  0  0  0
    0.3700   -4.8230    0.5700 H   0  0  0  0  0  0  0  0  0  0  0  0
    2.0720   -3.7690   -0.2690 H   0  0  0  0  0  0  0  0  0  0  0  0
    0.4330   -3.8810   -2.8750 H   0  0  0  0  0  0  0  0  0  0  0  0
    1.6740   -5.0390   -2.2490 H   0  0  0  0  0  0  0  0  0  0  0  0
    2.1960   -2.3420   -4.1520 H   0  0  0  0  0  0  0  0  0  0  0  0
   -0.6600    0.5190   -2.0870 C   0  0  0  0  0  0  0  0  0  0  0  0
    0.7180    0.9970   -1.8650 C   0  0  0  0  0  0  0  0  0  0  0  0
    0.8220    2.5040   -1.7430 C   0  0  0  0  0  0  0  0  0  0  0  0
    1.5270    0.3610   -0.7900 C   0  0  2  0  0  0  0  0  0  0  0  0
    1.7630   -1.0440   -0.9220 N   0  0  0  0  0  0  0  0  0  0  0  0
    1.1820    0.8050    0.5900 C   0  0  0  0  0  0  0  0  0  0  0  0
    0.8840    2.0250    0.8210 O   0  0  0  0  0  0  0  0  0  0  0  0
   -1.1250    1.2650   -2.8170 H   0  0  0  0  0  0  0  0  0  0  0  0
   -0.6700   -0.4240   -2.6330 H   0  0  0  0  0  0  0  0  0  0  0  0
   -1.3430    0.5600   -1.2240 H   0  0  0  0  0  0  0  0  0  0  0  0
    1.2810    0.7660   -2.8280 H   0  0  0  0  0  0  0  0  0  0  0  0
    0.8860    2.9830   -2.7540 H   0  0  0  0  0  0  0  0  0  0  0  0
    1.7720    2.7240   -1.2180 H   0  0  0  0  0  0  0  0  0  0  0  0
   -0.0200    2.8650   -1.1540 H   0  0  0  0  0  0  0  0  0  0  0  0
    2.5860    0.8190   -0.9860 H   0  0  0  0  0  0  0  0  0  0  0  0
    2.7370   -1.3520   -1.2250 H   0  0  0  0  0  0  0  0  0  0  0  0
    1.1520   -0.0250    1.7420 N   0  0  0  0  0  0  0  0  0  0  0  0
    0.8230    0.4910    3.0540 C   0  0  1  0  0  0  0  0  0  0  0  0
   -0.1970   -0.2490    3.8260 C   0  0  0  0  0  0  0  0  0  0  0  0
   -1.5170   -0.3460    3.2160 C   0  0  0  0  0  0  0  0  0  0  0  0
   -1.9280   -1.3850    2.4190 C   0  0  0  0  0  0  0  0  0  0  0  0
   -3.2000   -1.4240    1.8610 C   0  0  0  0  0  0  0  0  0  0  0  0
   -4.0730   -0.3960    2.1110 C   0  0  0  0  0  0  0  0  0  0  0  0
   -3.6850    0.6570    2.9070 C   0  0  0  0  0  0  0  0  0  0  0  0
   -2.4330    0.6750    3.4440 C   0  0  0  0  0  0  0  0  0  0  0  0
    2.1020    0.4530    3.8560 C   0  0  0  0  0  0  0  0  0  0  0  0
    3.1600    0.0280    3.3400 O   0  0  0  0  0  0  0  0  0  0  0  0
    2.1550    0.8780    5.1680 O   0  0  0  0  0  0  0  0  0  0  0  0
    1.3800   -1.0320    1.6470 H   0  0  0  0  0  0  0  0  0  0  0  0
    0.5710    1.5940    2.9770 H   0  0  0  0  0  0  0  0  0  0  0  0
    0.2000   -1.2710    4.0410 H   0  0  0  0  0  0  0  0  0  0  0  0
   -0.2360    0.2390    4.8490 H   0  0  0  0  0  0  0  0  0  0  0  0
   -1.2080   -2.1970    2.2380 H   0  0  0  0  0  0  0  0  0  0  0  0
   -3.5050   -2.2550    1.2330 H   0  0  0  0  0  0  0  0  0  0  0  0
   -5.0470   -0.4460    1.6710 H   0  0  0  0  0  0  0  0  0  0  0  0
   -4.3820    1.4750    3.1050 H   0  0  0  0  0  0  0  0  0  0  0  0
   -2.1580    1.5220    4.0690 H   0  0  0  0  0  0  0  0  0  0  0  0
  1  7  1  0  0  0  0
  1  8  1  0  0  0  0
  2  5  1  0  0  0  0
  2  1  1  0  0  0  0
  2  9  1  1  0  0  0
  3 11  1  0  0  0  0
  3  2  1  0  0  0  0
  4  3  1  0  0  0  0
  5  6  2  0  0  0  0
 10  3  1  0  0  0  0
 12  4  1  0  0  0  0
 13 14  1  0  0  0  0
 13 22  1  0  0  0  0
 14 15  1  0  0  0  0
 14 16  1  0  0  0  0
 15 25  1  0  0  0  0
 15 26  1  0  0  0  0
 16 27  1  6  0  0  0
 16 18  1  0  0  0  0
 17 16  1  0  0  0  0
 17  5  1  0  0  0  0
 18 19  2  0  0  0  0
 18 29  1  0  0  0  0
 20 13  1  0  0  0  0
 21 13  1  0  0  0  0
 23 14  1  0  0  0  0
 24 15  1  0  0  0  0
 28 17  1  0  0  0  0
 29 30  1  0  0  0  0
 30 42  1  6  0  0  0
 30 31  1  0  0  0  0
 30 38  1  0  0  0  0
 31 43  1  0  0  0  0
 31 44  1  0  0  0  0
 32 37  1  0  0  0  0
 32 31  1  0  0  0  0
 33 32  2  0  0  0  0
 34 35  2  0  0  0  0
 34 33  1  0  0  0  0
 35 36  1  0  0  0  0
 36 48  1  0  0  0  0
 36 37  2  0  0  0  0
 37 49  1  0  0  0  0
 38 40  1  0  0  0  0
 39 38  2  0  0  0  0
 41 29  1  0  0  0  0
 45 33  1  0  0  0  0
 46 34  1  0  0  0  0
 47 35  1  0  0  0  0
M  END
$$$$
