CVG.pdb
 OpenBabel07022418303D

 36 35  0  0  1  0  0  0  0  0999 V2000
   -1.5370   -1.7460    2.7340 N   0  0  0  0  0  0  0  0  0  0  0  0
   -0.4320   -2.6350    2.5290 C   0  0  1  0  0  0  0  0  0  0  0  0
   -0.9700   -4.0220    2.3010 C   0  0  0  0  0  0  0  0  0  0  0  0
    0.4160   -5.1460    2.0430 S   0  0  0  0  0  0  0  0  0  0  0  0
    0.4330   -2.1790    1.4120 C   0  0  0  0  0  0  0  0  0  0  0  0
    1.4470   -2.8120    1.0730 O   0  0  0  0  0  0  0  0  0  0  0  0
   -2.2600   -1.7820    2.0030 H   0  0  0  0  0  0  0  0  0  0  0  0
   -1.2440   -0.7670    2.9710 H   0  0  0  0  0  0  0  0  0  0  0  0
    0.1860   -2.6180    3.4620 H   0  0  0  0  0  0  0  0  0  0  0  0
   -1.4850   -4.3260    3.2430 H   0  0  0  0  0  0  0  0  0  0  0  0
   -1.6860   -4.0060    1.4660 H   0  0  0  0  0  0  0  0  0  0  0  0
    0.7660   -5.1040    0.6800 H   0  0  0  0  0  0  0  0  0  0  0  0
   -0.4250   -1.9900   -1.7740 C   0  0  0  0  0  0  0  0  0  0  0  0
   -0.0920   -0.5270   -1.5690 C   0  0  0  0  0  0  0  0  0  0  0  0
   -1.3800    0.2430   -1.3000 C   0  0  0  0  0  0  0  0  0  0  0  0
    0.8390   -0.4430   -0.3740 C   0  0  2  0  0  0  0  0  0  0  0  0
    0.0850   -1.0060    0.7360 N   0  0  0  0  0  0  0  0  0  0  0  0
    1.2490    0.9560   -0.0970 C   0  0  0  0  0  0  0  0  0  0  0  0
    1.9090    1.5510   -0.9860 O   0  0  0  0  0  0  0  0  0  0  0  0
    0.3680   -2.6700   -1.4530 H   0  0  0  0  0  0  0  0  0  0  0  0
   -0.6170   -2.2020   -2.8500 H   0  0  0  0  0  0  0  0  0  0  0  0
   -1.3500   -2.2810   -1.2070 H   0  0  0  0  0  0  0  0  0  0  0  0
    0.3600   -0.1050   -2.4820 H   0  0  0  0  0  0  0  0  0  0  0  0
   -1.1530    1.1160   -0.6520 H   0  0  0  0  0  0  0  0  0  0  0  0
   -2.1420   -0.4110   -0.8130 H   0  0  0  0  0  0  0  0  0  0  0  0
   -1.7920    0.5420   -2.2680 H   0  0  0  0  0  0  0  0  0  0  0  0
    1.7260   -1.0630   -0.6170 H   0  0  0  0  0  0  0  0  0  0  0  0
   -0.7770   -0.4490    1.0100 H   0  0  0  0  0  0  0  0  0  0  0  0
    0.9500    1.6560    1.0880 N   0  0  0  0  0  0  0  0  0  0  0  0
    1.3550    3.0200    1.3480 C   0  0  0  0  0  0  0  0  0  0  0  0
    2.8350    3.0830    1.3020 C   0  0  0  0  0  0  0  0  0  0  0  0
    3.4750    4.1520    1.4920 O   0  0  0  0  0  0  0  0  0  0  0  0
    3.5720    1.9420    1.0420 O   0  0  0  0  0  0  0  0  0  0  0  0
    0.3990    1.1410    1.8160 H   0  0  0  0  0  0  0  0  0  0  0  0
    0.9460    3.7220    0.5930 H   0  0  0  0  0  0  0  0  0  0  0  0
    1.0510    3.3250    2.3590 H   0  0  0  0  0  0  0  0  0  0  0  0
  1  8  1  0  0  0  0
  2  1  1  0  0  0  0
  2  9  1  1  0  0  0
  3  2  1  0  0  0  0
  3 10  1  0  0  0  0
  4  3  1  0  0  0  0
  5  2  1  0  0  0  0
  6  5  2  0  0  0  0
  7  1  1  0  0  0  0
 11  3  1  0  0  0  0
 12  4  1  0  0  0  0
 13 14  1  0  0  0  0
 13 20  1  0  0  0  0
 13 22  1  0  0  0  0
 14 15  1  0  0  0  0
 14 16  1  0  0  0  0
 15 25  1  0  0  0  0
 15 24  1  0  0  0  0
 16 27  1  6  0  0  0
 16 18  1  0  0  0  0
 16 17  1  0  0  0  0
 17 28  1  0  0  0  0
 17  5  1  0  0  0  0
 18 29  1  0  0  0  0
 19 18  2  0  0  0  0
 21 13  1  0  0  0  0
 23 14  1  0  0  0  0
 26 15  1  0  0  0  0
 29 30  1  0  0  0  0
 29 34  1  0  0  0  0
 30 36  1  0  0  0  0
 31 30  1  0  0  0  0
 31 32  1  0  0  0  0
 33 31  2  0  0  0  0
 35 30  1  0  0  0  0
M  END
$$$$
