CVH.pdb
 OpenBabel07022418303D

 46 46  0  0  1  0  0  0  0  0999 V2000
    3.6410   -2.3240    4.0810 N   0  0  0  0  0  0  0  0  0  0  0  0
    3.1840   -1.9080    2.7710 C   0  0  1  0  0  0  0  0  0  0  0  0
    2.3720   -3.0510    2.2020 C   0  0  0  0  0  0  0  0  0  0  0  0
    3.4620   -4.4940    2.1000 S   0  0  0  0  0  0  0  0  0  0  0  0
    2.4220   -0.6710    2.9020 C   0  0  0  0  0  0  0  0  0  0  0  0
    2.2610   -0.1490    4.0340 O   0  0  0  0  0  0  0  0  0  0  0  0
    2.8750   -2.1130    4.7570 H   0  0  0  0  0  0  0  0  0  0  0  0
    3.9620   -3.3090    4.1010 H   0  0  0  0  0  0  0  0  0  0  0  0
    4.0840   -1.8130    2.1280 H   0  0  0  0  0  0  0  0  0  0  0  0
    1.5490   -3.3170    2.8990 H   0  0  0  0  0  0  0  0  0  0  0  0
    1.9650   -2.8080    1.1930 H   0  0  0  0  0  0  0  0  0  0  0  0
    3.1570   -5.3220    1.0170 H   0  0  0  0  0  0  0  0  0  0  0  0
    1.8160    1.9130   -0.3560 C   0  0  0  0  0  0  0  0  0  0  0  0
    1.7550    2.2930    1.0820 C   0  0  0  0  0  0  0  0  0  0  0  0
    3.1680    2.4970    1.5850 C   0  0  0  0  0  0  0  0  0  0  0  0
    1.0740    1.2380    1.9390 C   0  0  2  0  0  0  0  0  0  0  0  0
    1.8220    0.0240    1.8170 N   0  0  0  0  0  0  0  0  0  0  0  0
   -0.3350    1.0290    1.4910 C   0  0  0  0  0  0  0  0  0  0  0  0
   -1.1590    1.9780    1.5200 O   0  0  0  0  0  0  0  0  0  0  0  0
    0.9560    1.3170   -0.7110 H   0  0  0  0  0  0  0  0  0  0  0  0
    1.8800    2.8580   -0.9530 H   0  0  0  0  0  0  0  0  0  0  0  0
    2.7260    1.3160   -0.6070 H   0  0  0  0  0  0  0  0  0  0  0  0
    1.2050    3.2410    1.2450 H   0  0  0  0  0  0  0  0  0  0  0  0
    3.2200    2.4580    2.6920 H   0  0  0  0  0  0  0  0  0  0  0  0
    3.4960    3.4970    1.1950 H   0  0  0  0  0  0  0  0  0  0  0  0
    3.8290    1.7450    1.1000 H   0  0  0  0  0  0  0  0  0  0  0  0
    1.0380    1.5460    3.0030 H   0  0  0  0  0  0  0  0  0  0  0  0
    1.9360   -0.3830    0.8590 H   0  0  0  0  0  0  0  0  0  0  0  0
   -0.8140   -0.2100    1.0210 N   0  0  0  0  0  0  0  0  0  0  0  0
   -2.2050   -0.3550    0.5950 C   0  0  1  0  0  0  0  0  0  0  0  0
   -2.1070   -0.6170   -0.8940 C   0  0  0  0  0  0  0  0  0  0  0  0
   -3.4140   -0.7910   -1.5400 C   0  0  0  0  0  0  0  0  0  0  0  0
   -3.5120   -1.0430   -2.9110 C   0  0  0  0  0  0  0  0  0  0  0  0
   -4.8090   -1.1600   -3.2420 N   0  0  0  0  0  0  0  0  0  0  0  0
   -5.5030   -0.9850   -2.1110 C   0  0  0  0  0  0  0  0  0  0  0  0
   -4.6590   -0.7630   -1.0880 N   0  0  0  0  0  0  0  0  0  0  0  0
   -2.7970   -1.4590    1.3530 C   0  0  0  0  0  0  0  0  0  0  0  0
   -3.9870   -1.8530    1.2400 O   0  0  0  0  0  0  0  0  0  0  0  0
   -2.0220   -2.1470    2.2750 O   0  0  0  0  0  0  0  0  0  0  0  0
   -0.1950   -1.0400    0.9670 H   0  0  0  0  0  0  0  0  0  0  0  0
   -2.7590    0.5990    0.7000 H   0  0  0  0  0  0  0  0  0  0  0  0
   -1.6420    0.3000   -1.3350 H   0  0  0  0  0  0  0  0  0  0  0  0
   -1.4050   -1.4570   -1.0890 H   0  0  0  0  0  0  0  0  0  0  0  0
   -2.7140   -1.1390   -3.6330 H   0  0  0  0  0  0  0  0  0  0  0  0
   -5.1960   -1.3510   -4.2040 H   0  0  0  0  0  0  0  0  0  0  0  0
   -6.5850   -1.0240   -2.0660 H   0  0  0  0  0  0  0  0  0  0  0  0
  1  8  1  0  0  0  0
  1  7  1  0  0  0  0
  2  9  1  6  0  0  0
  2  5  1  0  0  0  0
  2  1  1  0  0  0  0
  3  2  1  0  0  0  0
  3 10  1  0  0  0  0
  4  3  1  0  0  0  0
  5  6  2  0  0  0  0
 11  3  1  0  0  0  0
 12  4  1  0  0  0  0
 13 14  1  0  0  0  0
 14 23  1  0  0  0  0
 14 15  1  0  0  0  0
 14 16  1  0  0  0  0
 15 24  1  0  0  0  0
 16 27  1  1  0  0  0
 17 16  1  0  0  0  0
 17  5  1  0  0  0  0
 18 19  2  0  0  0  0
 18 16  1  0  0  0  0
 20 13  1  0  0  0  0
 21 13  1  0  0  0  0
 22 13  1  0  0  0  0
 25 15  1  0  0  0  0
 26 15  1  0  0  0  0
 28 17  1  0  0  0  0
 29 18  1  0  0  0  0
 30 41  1  1  0  0  0
 30 29  1  0  0  0  0
 30 37  1  0  0  0  0
 31 30  1  0  0  0  0
 32 36  1  0  0  0  0
 32 31  1  0  0  0  0
 33 32  2  0  0  0  0
 34 33  1  0  0  0  0
 34 35  1  0  0  0  0
 35 46  1  0  0  0  0
 35 36  2  0  0  0  0
 37 39  1  0  0  0  0
 38 37  2  0  0  0  0
 40 29  1  0  0  0  0
 42 31  1  0  0  0  0
 43 31  1  0  0  0  0
 44 33  1  0  0  0  0
 45 34  1  0  0  0  0
M  END
$$$$
