CVI.pdb
 OpenBabel07022418303D

 48 47  0  0  1  0  0  0  0  0999 V2000
    0.8080   -4.6620    0.1700 N   0  0  0  0  0  0  0  0  0  0  0  0
    1.9110   -4.3000    1.0110 C   0  0  1  0  0  0  0  0  0  0  0  0
    3.1590   -5.0680    0.7190 C   0  0  0  0  0  0  0  0  0  0  0  0
    3.6780   -4.7750   -1.0110 S   0  0  0  0  0  0  0  0  0  0  0  0
    2.1430   -2.8280    0.9820 C   0  0  0  0  0  0  0  0  0  0  0  0
    3.0460   -2.2650    1.6300 O   0  0  0  0  0  0  0  0  0  0  0  0
   -0.1020   -4.3670    0.5780 H   0  0  0  0  0  0  0  0  0  0  0  0
    0.9400   -4.3950   -0.8230 H   0  0  0  0  0  0  0  0  0  0  0  0
    1.6130   -4.5370    2.0650 H   0  0  0  0  0  0  0  0  0  0  0  0
    3.0090   -6.1290    0.9310 H   0  0  0  0  0  0  0  0  0  0  0  0
    3.9550   -4.6890    1.4090 H   0  0  0  0  0  0  0  0  0  0  0  0
    4.9330   -5.3400   -1.2510 H   0  0  0  0  0  0  0  0  0  0  0  0
    0.7340   -0.6700   -2.3160 C   0  0  0  0  0  0  0  0  0  0  0  0
    1.7870   -0.2420   -1.3500 C   0  0  0  0  0  0  0  0  0  0  0  0
    1.9420    1.2670   -1.4410 C   0  0  0  0  0  0  0  0  0  0  0  0
    1.4540   -0.5760    0.0900 C   0  0  2  0  0  0  0  0  0  0  0  0
    1.3020   -2.0130    0.1790 N   0  0  0  0  0  0  0  0  0  0  0  0
    0.2260    0.1450    0.5390 C   0  0  0  0  0  0  0  0  0  0  0  0
    0.2340    1.3770    0.5080 O   0  0  0  0  0  0  0  0  0  0  0  0
   -0.1130   -1.1940   -1.8680 H   0  0  0  0  0  0  0  0  0  0  0  0
    0.3140    0.1980   -2.8790 H   0  0  0  0  0  0  0  0  0  0  0  0
    1.2080   -1.3170   -3.1070 H   0  0  0  0  0  0  0  0  0  0  0  0
    2.7700   -0.6860   -1.5950 H   0  0  0  0  0  0  0  0  0  0  0  0
    2.6180    1.4620   -2.3190 H   0  0  0  0  0  0  0  0  0  0  0  0
    0.9920    1.7750   -1.6800 H   0  0  0  0  0  0  0  0  0  0  0  0
    2.4050    1.6120   -0.5000 H   0  0  0  0  0  0  0  0  0  0  0  0
    2.2880   -0.2780    0.7210 H   0  0  0  0  0  0  0  0  0  0  0  0
    0.5230   -2.4470   -0.3890 H   0  0  0  0  0  0  0  0  0  0  0  0
   -1.1380    3.0600    3.5590 C   0  0  0  0  0  0  0  0  0  0  0  0
   -1.2380    1.6390    3.0810 C   0  0  0  0  0  0  0  0  0  0  0  0
   -2.1400    1.4700    1.8910 C   0  0  2  0  0  0  0  0  0  0  0  0
   -3.5260    1.9150    2.2940 C   0  0  0  0  0  0  0  0  0  0  0  0
   -2.1180    0.0320    1.4490 C   0  0  2  0  0  0  0  0  0  0  0  0
   -0.9230   -0.5210    0.9890 N   0  0  0  0  0  0  0  0  0  0  0  0
   -3.2330   -0.2500    0.5510 C   0  0  0  0  0  0  0  0  0  0  0  0
   -2.9920   -0.9310   -0.5040 O   0  0  0  0  0  0  0  0  0  0  0  0
   -4.5450    0.1340    0.7030 O   0  0  0  0  0  0  0  0  0  0  0  0
   -1.1980    3.7950    2.7310 H   0  0  0  0  0  0  0  0  0  0  0  0
   -1.9430    3.2820    4.2700 H   0  0  0  0  0  0  0  0  0  0  0  0
   -0.1750    3.2230    4.1030 H   0  0  0  0  0  0  0  0  0  0  0  0
   -1.6940    1.0930    3.9870 H   0  0  0  0  0  0  0  0  0  0  0  0
   -0.2480    1.2000    3.0110 H   0  0  0  0  0  0  0  0  0  0  0  0
   -1.8740    2.1690    1.0640 H   0  0  0  0  0  0  0  0  0  0  0  0
   -4.1220    2.2980    1.4410 H   0  0  0  0  0  0  0  0  0  0  0  0
   -3.4730    2.7580    3.0440 H   0  0  0  0  0  0  0  0  0  0  0  0
   -4.0970    1.0910    2.7780 H   0  0  0  0  0  0  0  0  0  0  0  0
   -2.3540   -0.5610    2.4350 H   0  0  0  0  0  0  0  0  0  0  0  0
   -0.8510   -1.5860    0.9680 H   0  0  0  0  0  0  0  0  0  0  0  0
  1  7  1  0  0  0  0
  1  2  1  0  0  0  0
  2  9  1  1  0  0  0
  3 10  1  0  0  0  0
  3  2  1  0  0  0  0
  3 11  1  0  0  0  0
  4  3  1  0  0  0  0
  5  2  1  0  0  0  0
  5  6  2  0  0  0  0
  8  1  1  0  0  0  0
 12  4  1  0  0  0  0
 13 20  1  0  0  0  0
 13 14  1  0  0  0  0
 14 16  1  0  0  0  0
 15 14  1  0  0  0  0
 15 26  1  0  0  0  0
 16 17  1  0  0  0  0
 16 18  1  0  0  0  0
 16 27  1  1  0  0  0
 17  5  1  0  0  0  0
 18 34  1  0  0  0  0
 19 18  2  0  0  0  0
 21 13  1  0  0  0  0
 22 13  1  0  0  0  0
 23 14  1  0  0  0  0
 24 15  1  0  0  0  0
 25 15  1  0  0  0  0
 28 17  1  0  0  0  0
 29 40  1  0  0  0  0
 29 39  1  0  0  0  0
 30 29  1  0  0  0  0
 30 41  1  0  0  0  0
 31 43  1  6  0  0  0
 31 32  1  0  0  0  0
 31 30  1  0  0  0  0
 32 46  1  0  0  0  0
 32 45  1  0  0  0  0
 33 31  1  0  0  0  0
 33 47  1  1  0  0  0
 34 33  1  0  0  0  0
 35 37  1  0  0  0  0
 35 33  1  0  0  0  0
 36 35  2  0  0  0  0
 38 29  1  0  0  0  0
 42 30  1  0  0  0  0
 44 32  1  0  0  0  0
 48 34  1  0  0  0  0
M  END
$$$$
