CVK.pdb
 OpenBabel07022418303D

 50 49  0  0  1  0  0  0  0  0999 V2000
    2.3720   -3.3800    1.4480 N   0  0  0  0  0  0  0  0  0  0  0  0
    3.5210   -2.6550    0.9950 C   0  0  1  0  0  0  0  0  0  0  0  0
    4.4540   -3.5580    0.2380 C   0  0  0  0  0  0  0  0  0  0  0  0
    3.6640   -4.2880   -1.2140 S   0  0  0  0  0  0  0  0  0  0  0  0
    3.1630   -1.4370    0.2240 C   0  0  0  0  0  0  0  0  0  0  0  0
    4.0470   -0.6820   -0.2490 O   0  0  0  0  0  0  0  0  0  0  0  0
    2.6770   -4.2360    1.9270 H   0  0  0  0  0  0  0  0  0  0  0  0
    1.6710   -3.5800    0.7220 H   0  0  0  0  0  0  0  0  0  0  0  0
    4.0710   -2.3020    1.8970 H   0  0  0  0  0  0  0  0  0  0  0  0
    4.7760   -4.3570    0.9380 H   0  0  0  0  0  0  0  0  0  0  0  0
    5.3560   -2.9760   -0.0400 H   0  0  0  0  0  0  0  0  0  0  0  0
    2.3470   -4.6950   -0.8570 H   0  0  0  0  0  0  0  0  0  0  0  0
   -0.7320   -0.7650   -1.6340 C   0  0  0  0  0  0  0  0  0  0  0  0
    0.5820   -0.1260   -1.9590 C   0  0  0  0  0  0  0  0  0  0  0  0
    1.3240   -0.8820   -3.0600 C   0  0  0  0  0  0  0  0  0  0  0  0
    1.4580    0.1140   -0.7660 C   0  0  2  0  0  0  0  0  0  0  0  0
    1.8210   -1.0460   -0.0300 N   0  0  0  0  0  0  0  0  0  0  0  0
    0.7270    1.0530    0.1470 C   0  0  0  0  0  0  0  0  0  0  0  0
    0.3100    2.1620   -0.3080 O   0  0  0  0  0  0  0  0  0  0  0  0
   -1.5480   -0.0050   -1.4570 H   0  0  0  0  0  0  0  0  0  0  0  0
   -0.6530   -1.3250   -0.6780 H   0  0  0  0  0  0  0  0  0  0  0  0
   -1.1180   -1.4030   -2.4610 H   0  0  0  0  0  0  0  0  0  0  0  0
    0.3580    0.8770   -2.4000 H   0  0  0  0  0  0  0  0  0  0  0  0
    2.2670   -0.3710   -3.3310 H   0  0  0  0  0  0  0  0  0  0  0  0
    0.7230   -0.9280   -3.9910 H   0  0  0  0  0  0  0  0  0  0  0  0
    1.4950   -1.9430   -2.7600 H   0  0  0  0  0  0  0  0  0  0  0  0
    2.3400    0.6990   -1.1320 H   0  0  0  0  0  0  0  0  0  0  0  0
    1.0730   -1.6620    0.3560 H   0  0  0  0  0  0  0  0  0  0  0  0
    0.4740    0.7650    1.5050 N   0  0  0  0  0  0  0  0  0  0  0  0
   -0.2390    1.6850    2.3890 C   0  0  1  0  0  0  0  0  0  0  0  0
   -1.4900    0.9670    2.8490 C   0  0  0  0  0  0  0  0  0  0  0  0
   -2.3730    0.5900    1.6780 C   0  0  0  0  0  0  0  0  0  0  0  0
   -3.6070   -0.1240    2.1860 C   0  0  0  0  0  0  0  0  0  0  0  0
   -4.4970   -0.5050    1.0240 C   0  0  0  0  0  0  0  0  0  0  0  0
   -5.6730   -1.1860    1.5180 N   0  0  0  0  0  0  0  0  0  0  0  0
    0.5720    2.0090    3.5850 C   0  0  0  0  0  0  0  0  0  0  0  0
    1.7020    1.5150    3.7320 O   0  0  0  0  0  0  0  0  0  0  0  0
    0.0730    2.8610    4.5400 O   0  0  0  0  0  0  0  0  0  0  0  0
    0.8200   -0.1520    1.8740 H   0  0  0  0  0  0  0  0  0  0  0  0
   -0.5170    2.5850    1.8210 H   0  0  0  0  0  0  0  0  0  0  0  0
   -2.0510    1.6560    3.5260 H   0  0  0  0  0  0  0  0  0  0  0  0
   -1.2520    0.0760    3.4590 H   0  0  0  0  0  0  0  0  0  0  0  0
   -2.6870    1.5240    1.1720 H   0  0  0  0  0  0  0  0  0  0  0  0
   -1.8040   -0.0120    0.9680 H   0  0  0  0  0  0  0  0  0  0  0  0
   -3.3460   -1.0220    2.7620 H   0  0  0  0  0  0  0  0  0  0  0  0
   -4.1590    0.5970    2.8190 H   0  0  0  0  0  0  0  0  0  0  0  0
   -3.9630   -1.1700    0.3160 H   0  0  0  0  0  0  0  0  0  0  0  0
   -4.8410    0.4180    0.4910 H   0  0  0  0  0  0  0  0  0  0  0  0
   -5.4780   -2.1940    1.7040 H   0  0  0  0  0  0  0  0  0  0  0  0
   -6.4110   -1.1770    0.7590 H   0  0  0  0  0  0  0  0  0  0  0  0
  1  7  1  0  0  0  0
  2  1  1  0  0  0  0
  2  9  1  1  0  0  0
  3 10  1  0  0  0  0
  3  2  1  0  0  0  0
  4 12  1  0  0  0  0
  4  3  1  0  0  0  0
  5  2  1  0  0  0  0
  6  5  2  0  0  0  0
  8  1  1  0  0  0  0
 11  3  1  0  0  0  0
 13 20  1  0  0  0  0
 13 21  1  0  0  0  0
 14 13  1  0  0  0  0
 14 16  1  0  0  0  0
 15 26  1  0  0  0  0
 15 14  1  0  0  0  0
 16 27  1  6  0  0  0
 16 17  1  0  0  0  0
 16 18  1  0  0  0  0
 17  5  1  0  0  0  0
 17 28  1  0  0  0  0
 18 29  1  0  0  0  0
 19 18  2  0  0  0  0
 22 13  1  0  0  0  0
 23 14  1  0  0  0  0
 24 15  1  0  0  0  0
 25 15  1  0  0  0  0
 29 39  1  0  0  0  0
 29 30  1  0  0  0  0
 30 40  1  6  0  0  0
 30 31  1  0  0  0  0
 30 36  1  0  0  0  0
 31 42  1  0  0  0  0
 31 41  1  0  0  0  0
 32 33  1  0  0  0  0
 32 31  1  0  0  0  0
 33 45  1  0  0  0  0
 33 46  1  0  0  0  0
 34 35  1  0  0  0  0
 34 33  1  0  0  0  0
 35 49  1  0  0  0  0
 36 37  2  0  0  0  0
 36 38  1  0  0  0  0
 43 32  1  0  0  0  0
 44 32  1  0  0  0  0
 47 34  1  0  0  0  0
 48 34  1  0  0  0  0
 50 35  1  0  0  0  0
M  END
$$$$
