CVN.pdb
 OpenBabel07022418303D

 43 42  0  0  1  0  0  0  0  0999 V2000
    2.9670   -3.6170   -2.8420 N   0  0  0  0  0  0  0  0  0  0  0  0
    1.6940   -3.0380   -2.5440 C   0  0  1  0  0  0  0  0  0  0  0  0
    0.7540   -4.1490   -2.1130 C   0  0  0  0  0  0  0  0  0  0  0  0
    0.5450   -5.3820   -3.3980 S   0  0  0  0  0  0  0  0  0  0  0  0
    1.7700   -1.9650   -1.5280 C   0  0  0  0  0  0  0  0  0  0  0  0
    2.8920   -1.6780   -1.0450 O   0  0  0  0  0  0  0  0  0  0  0  0
    3.7140   -2.9360   -3.0400 H   0  0  0  0  0  0  0  0  0  0  0  0
    3.2430   -4.3860   -2.1940 H   0  0  0  0  0  0  0  0  0  0  0  0
    1.2750   -2.6440   -3.5060 H   0  0  0  0  0  0  0  0  0  0  0  0
   -0.2220   -3.7390   -1.7470 H   0  0  0  0  0  0  0  0  0  0  0  0
    1.2220   -4.6370   -1.2220 H   0  0  0  0  0  0  0  0  0  0  0  0
    1.6550   -6.2430   -3.4320 H   0  0  0  0  0  0  0  0  0  0  0  0
   -1.0430    1.0370   -1.2850 C   0  0  0  0  0  0  0  0  0  0  0  0
    0.3680    1.0840   -0.7640 C   0  0  0  0  0  0  0  0  0  0  0  0
    0.6600    2.3450   -0.0200 C   0  0  0  0  0  0  0  0  0  0  0  0
    0.7770   -0.1810   -0.0510 C   0  0  2  0  0  0  0  0  0  0  0  0
    0.6490   -1.2420   -1.0670 N   0  0  0  0  0  0  0  0  0  0  0  0
   -0.0270   -0.4990    1.1380 C   0  0  0  0  0  0  0  0  0  0  0  0
   -0.7220   -1.5760    1.1290 O   0  0  0  0  0  0  0  0  0  0  0  0
   -1.7970    0.9100   -0.4820 H   0  0  0  0  0  0  0  0  0  0  0  0
   -1.1250    0.2920   -2.0930 H   0  0  0  0  0  0  0  0  0  0  0  0
   -1.2490    2.0240   -1.7460 H   0  0  0  0  0  0  0  0  0  0  0  0
    1.0170    1.1030   -1.6930 H   0  0  0  0  0  0  0  0  0  0  0  0
    0.8610    3.1480   -0.7930 H   0  0  0  0  0  0  0  0  0  0  0  0
   -0.1840    2.7010    0.6090 H   0  0  0  0  0  0  0  0  0  0  0  0
    1.6190    2.2590    0.5270 H   0  0  0  0  0  0  0  0  0  0  0  0
    1.8300   -0.0890    0.2370 H   0  0  0  0  0  0  0  0  0  0  0  0
   -0.2930   -1.4530   -1.4430 H   0  0  0  0  0  0  0  0  0  0  0  0
    0.7970    2.2050    4.5060 N   0  0  0  0  0  0  0  0  0  0  0  0
    0.7080    0.9460    5.1520 C   0  0  0  0  0  0  0  0  0  0  0  0
    1.4080    0.8470    6.2180 O   0  0  0  0  0  0  0  0  0  0  0  0
   -0.0900   -0.2020    4.7100 C   0  0  0  0  0  0  0  0  0  0  0  0
   -0.8710   -0.0000    3.4560 C   0  0  2  0  0  0  0  0  0  0  0  0
   -0.0840    0.3130    2.3010 N   0  0  0  0  0  0  0  0  0  0  0  0
   -1.9070    1.0400    3.7060 C   0  0  0  0  0  0  0  0  0  0  0  0
   -2.0330    2.0500    2.9390 O   0  0  0  0  0  0  0  0  0  0  0  0
   -2.7870    0.9800    4.7680 O   0  0  0  0  0  0  0  0  0  0  0  0
    1.6870    2.4270    3.9740 H   0  0  0  0  0  0  0  0  0  0  0  0
    0.0060    2.8590    4.5740 H   0  0  0  0  0  0  0  0  0  0  0  0
    0.6090   -1.0830    4.5850 H   0  0  0  0  0  0  0  0  0  0  0  0
   -0.7580   -0.5120    5.5570 H   0  0  0  0  0  0  0  0  0  0  0  0
   -1.4290   -0.9740    3.2840 H   0  0  0  0  0  0  0  0  0  0  0  0
    0.4750    1.1910    2.3300 H   0  0  0  0  0  0  0  0  0  0  0  0
  1  2  1  0  0  0  0
  1  8  1  0  0  0  0
  2  9  1  6  0  0  0
  2  3  1  0  0  0  0
  2  5  1  0  0  0  0
  3 10  1  0  0  0  0
  3 11  1  0  0  0  0
  4  3  1  0  0  0  0
  5 17  1  0  0  0  0
  5  6  2  0  0  0  0
  7  1  1  0  0  0  0
 12  4  1  0  0  0  0
 13 14  1  0  0  0  0
 13 20  1  0  0  0  0
 14 16  1  0  0  0  0
 14 15  1  0  0  0  0
 15 26  1  0  0  0  0
 15 25  1  0  0  0  0
 16 27  1  1  0  0  0
 16 18  1  0  0  0  0
 17 16  1  0  0  0  0
 18 34  1  0  0  0  0
 19 18  2  0  0  0  0
 21 13  1  0  0  0  0
 22 13  1  0  0  0  0
 23 14  1  0  0  0  0
 24 15  1  0  0  0  0
 28 17  1  0  0  0  0
 29 39  1  0  0  0  0
 29 30  1  0  0  0  0
 30 31  2  0  0  0  0
 32 30  1  0  0  0  0
 32 41  1  0  0  0  0
 33 42  1  6  0  0  0
 33 35  1  0  0  0  0
 33 32  1  0  0  0  0
 34 43  1  0  0  0  0
 34 33  1  0  0  0  0
 35 37  1  0  0  0  0
 36 35  2  0  0  0  0
 38 29  1  0  0  0  0
 40 32  1  0  0  0  0
M  END
$$$$
