CVP.pdb
 OpenBabel07022418303D

 43 43  0  0  1  0  0  0  0  0999 V2000
    0.0970   -3.5810    1.7440 N   0  0  0  0  0  0  0  0  0  0  0  0
    1.2290   -3.5400    0.8650 C   0  0  1  0  0  0  0  0  0  0  0  0
    1.1470   -4.7620   -0.0490 C   0  0  0  0  0  0  0  0  0  0  0  0
    2.5760   -4.7090   -1.1580 S   0  0  0  0  0  0  0  0  0  0  0  0
    1.2840   -2.3450    0.0230 C   0  0  0  0  0  0  0  0  0  0  0  0
    2.2280   -2.1970   -0.7880 O   0  0  0  0  0  0  0  0  0  0  0  0
   -0.1990   -4.5430    1.9930 H   0  0  0  0  0  0  0  0  0  0  0  0
    0.1920   -2.9420    2.5590 H   0  0  0  0  0  0  0  0  0  0  0  0
    2.1460   -3.6420    1.4970 H   0  0  0  0  0  0  0  0  0  0  0  0
    0.1930   -4.6580   -0.6320 H   0  0  0  0  0  0  0  0  0  0  0  0
    1.1470   -5.6630    0.5860 H   0  0  0  0  0  0  0  0  0  0  0  0
    3.7010   -4.1350   -0.5270 H   0  0  0  0  0  0  0  0  0  0  0  0
   -2.1360   -0.0400   -1.0030 C   0  0  0  0  0  0  0  0  0  0  0  0
   -0.8070   -0.0810   -1.7080 C   0  0  0  0  0  0  0  0  0  0  0  0
   -0.7270    1.0730   -2.6470 C   0  0  0  0  0  0  0  0  0  0  0  0
    0.3540   -0.1590   -0.7430 C   0  0  2  0  0  0  0  0  0  0  0  0
    0.2960   -1.3270    0.0840 N   0  0  0  0  0  0  0  0  0  0  0  0
    0.5610    1.1200   -0.0430 C   0  0  0  0  0  0  0  0  0  0  0  0
    0.5790    2.1280   -0.7960 O   0  0  0  0  0  0  0  0  0  0  0  0
   -2.1200    0.5690   -0.0790 H   0  0  0  0  0  0  0  0  0  0  0  0
   -2.5450   -1.0640   -0.8100 H   0  0  0  0  0  0  0  0  0  0  0  0
   -2.8970    0.4530   -1.6690 H   0  0  0  0  0  0  0  0  0  0  0  0
   -0.7970   -1.0170   -2.3170 H   0  0  0  0  0  0  0  0  0  0  0  0
    0.3020    1.2670   -3.0310 H   0  0  0  0  0  0  0  0  0  0  0  0
   -1.3120    0.7840   -3.5720 H   0  0  0  0  0  0  0  0  0  0  0  0
   -1.2200    1.9960   -2.2830 H   0  0  0  0  0  0  0  0  0  0  0  0
    1.2900   -0.2680   -1.3780 H   0  0  0  0  0  0  0  0  0  0  0  0
   -0.4890   -1.5000    0.7800 H   0  0  0  0  0  0  0  0  0  0  0  0
    0.7320    1.3000    1.3370 N   0  0  0  0  0  0  0  0  0  0  0  0
    0.9150    2.6440    1.9260 C   0  0  0  0  0  0  0  0  0  0  0  0
    1.4840    2.4790    3.2810 C   0  0  0  0  0  0  0  0  0  0  0  0
    1.9250    1.0360    3.2920 C   0  0  0  0  0  0  0  0  0  0  0  0
    0.7850    0.4180    2.4650 C   0  0  1  0  0  0  0  0  0  0  0  0
   -0.4480    0.5790    3.2620 C   0  0  0  0  0  0  0  0  0  0  0  0
   -0.6720   -0.0790    4.3200 O   0  0  0  0  0  0  0  0  0  0  0  0
   -1.4380    1.4770    2.8810 O   0  0  0  0  0  0  0  0  0  0  0  0
   -0.0530    3.1900    1.9470 H   0  0  0  0  0  0  0  0  0  0  0  0
    1.6540    3.2160    1.2980 H   0  0  0  0  0  0  0  0  0  0  0  0
    0.6780    2.5580    4.0670 H   0  0  0  0  0  0  0  0  0  0  0  0
    2.3350    3.1610    3.5130 H   0  0  0  0  0  0  0  0  0  0  0  0
    2.8580    0.8550    2.7430 H   0  0  0  0  0  0  0  0  0  0  0  0
    1.9190    0.5980    4.3070 H   0  0  0  0  0  0  0  0  0  0  0  0
    1.0870   -0.6030    2.2880 H   0  0  0  0  0  0  0  0  0  0  0  0
  1  7  1  0  0  0  0
  1  8  1  0  0  0  0
  2  9  1  1  0  0  0
  2  1  1  0  0  0  0
  3 11  1  0  0  0  0
  3  2  1  0  0  0  0
  4 12  1  0  0  0  0
  4  3  1  0  0  0  0
  5 17  1  0  0  0  0
  5  2  1  0  0  0  0
  6  5  2  0  0  0  0
 10  3  1  0  0  0  0
 13 21  1  0  0  0  0
 13 20  1  0  0  0  0
 14 13  1  0  0  0  0
 14 16  1  0  0  0  0
 15 26  1  0  0  0  0
 15 14  1  0  0  0  0
 16 27  1  6  0  0  0
 16 18  1  0  0  0  0
 16 17  1  0  0  0  0
 17 28  1  0  0  0  0
 18 29  1  0  0  0  0
 19 18  2  0  0  0  0
 22 13  1  0  0  0  0
 23 14  1  0  0  0  0
 24 15  1  0  0  0  0
 25 15  1  0  0  0  0
 29 30  1  0  0  0  0
 29 33  1  0  0  0  0
 30 37  1  0  0  0  0
 30 31  1  0  0  0  0
 31 32  1  0  0  0  0
 31 40  1  0  0  0  0
 31 39  1  0  0  0  0
 32 42  1  0  0  0  0
 33 43  1  6  0  0  0
 33 34  1  0  0  0  0
 33 32  1  0  0  0  0
 34 35  1  0  0  0  0
 36 34  2  0  0  0  0
 38 30  1  0  0  0  0
 41 32  1  0  0  0  0
M  END
$$$$
