CVQ.pdb
 OpenBabel07022418303D

 46 45  0  0  1  0  0  0  0  0999 V2000
    3.4950   -3.9980    0.9790 N   0  0  0  0  0  0  0  0  0  0  0  0
    2.4050   -3.4980    0.1990 C   0  0  1  0  0  0  0  0  0  0  0  0
    1.0990   -4.1980    0.5060 C   0  0  0  0  0  0  0  0  0  0  0  0
    0.6450   -3.9850    2.2620 S   0  0  0  0  0  0  0  0  0  0  0  0
    2.2940   -2.0270    0.3810 C   0  0  0  0  0  0  0  0  0  0  0  0
    3.0900   -1.3960    1.1340 O   0  0  0  0  0  0  0  0  0  0  0  0
    3.3050   -4.8630    1.4960 H   0  0  0  0  0  0  0  0  0  0  0  0
    3.9480   -3.2540    1.5630 H   0  0  0  0  0  0  0  0  0  0  0  0
    2.6250   -3.6910   -0.8660 H   0  0  0  0  0  0  0  0  0  0  0  0
    0.2930   -3.8970   -0.1610 H   0  0  0  0  0  0  0  0  0  0  0  0
    1.2530   -5.2880    0.3650 H   0  0  0  0  0  0  0  0  0  0  0  0
   -0.7180   -4.3070    2.4090 H   0  0  0  0  0  0  0  0  0  0  0  0
    0.3310    0.6200   -2.4000 C   0  0  0  0  0  0  0  0  0  0  0  0
    1.3650    0.9560   -1.3690 C   0  0  0  0  0  0  0  0  0  0  0  0
    2.7660    0.7900   -1.9120 C   0  0  0  0  0  0  0  0  0  0  0  0
    1.2050    0.1730   -0.0890 C   0  0  2  0  0  0  0  0  0  0  0  0
    1.3000   -1.2460   -0.2730 N   0  0  0  0  0  0  0  0  0  0  0  0
   -0.1020    0.5710    0.5600 C   0  0  0  0  0  0  0  0  0  0  0  0
   -0.2820    1.7720    0.7640 O   0  0  0  0  0  0  0  0  0  0  0  0
    0.0900   -0.4610   -2.4520 H   0  0  0  0  0  0  0  0  0  0  0  0
   -0.5890    1.2460   -2.2670 H   0  0  0  0  0  0  0  0  0  0  0  0
    0.7400    0.8930   -3.3980 H   0  0  0  0  0  0  0  0  0  0  0  0
    1.2490    2.0300   -1.1090 H   0  0  0  0  0  0  0  0  0  0  0  0
    3.4800    0.9950   -1.0790 H   0  0  0  0  0  0  0  0  0  0  0  0
    2.9840    1.4800   -2.7260 H   0  0  0  0  0  0  0  0  0  0  0  0
    2.9580   -0.2600   -2.2300 H   0  0  0  0  0  0  0  0  0  0  0  0
    1.9910    0.5280    0.6100 H   0  0  0  0  0  0  0  0  0  0  0  0
    0.6420   -1.7570   -0.8940 H   0  0  0  0  0  0  0  0  0  0  0  0
   -0.6380    2.6750    5.2730 N   0  0  0  0  0  0  0  0  0  0  0  0
   -1.4720    2.4210    4.1800 C   0  0  0  0  0  0  0  0  0  0  0  0
   -2.2790    3.3060    3.8170 O   0  0  0  0  0  0  0  0  0  0  0  0
   -1.4650    1.1490    3.4060 C   0  0  0  0  0  0  0  0  0  0  0  0
   -2.4550    1.1470    2.2960 C   0  0  0  0  0  0  0  0  0  0  0  0
   -2.3280   -0.1900    1.5450 C   0  0  2  0  0  0  0  0  0  0  0  0
   -1.0680   -0.3930    0.9150 N   0  0  0  0  0  0  0  0  0  0  0  0
   -3.5120   -0.5520    0.7840 C   0  0  0  0  0  0  0  0  0  0  0  0
   -4.6860   -0.4320    1.1990 O   0  0  0  0  0  0  0  0  0  0  0  0
   -3.3720   -1.0750   -0.5120 O   0  0  0  0  0  0  0  0  0  0  0  0
   -0.9550    2.4090    6.2280 H   0  0  0  0  0  0  0  0  0  0  0  0
    0.2980    3.1220    5.1880 H   0  0  0  0  0  0  0  0  0  0  0  0
   -1.7630    0.3260    4.1590 H   0  0  0  0  0  0  0  0  0  0  0  0
   -0.4420    0.9050    3.1440 H   0  0  0  0  0  0  0  0  0  0  0  0
   -3.5090    1.1280    2.6940 H   0  0  0  0  0  0  0  0  0  0  0  0
   -2.3840    2.0120    1.6250 H   0  0  0  0  0  0  0  0  0  0  0  0
   -2.2970   -0.9020    2.4730 H   0  0  0  0  0  0  0  0  0  0  0  0
   -0.7770   -1.4010    0.6610 H   0  0  0  0  0  0  0  0  0  0  0  0
  1  7  1  0  0  0  0
  1  8  1  0  0  0  0
  2  9  1  6  0  0  0
  2  5  1  0  0  0  0
  2  3  1  0  0  0  0
  2  1  1  0  0  0  0
  3  4  1  0  0  0  0
  4 12  1  0  0  0  0
  5  6  2  0  0  0  0
 10  3  1  0  0  0  0
 11  3  1  0  0  0  0
 13 21  1  0  0  0  0
 13 14  1  0  0  0  0
 14 23  1  0  0  0  0
 14 16  1  0  0  0  0
 15 14  1  0  0  0  0
 15 24  1  0  0  0  0
 16 18  1  0  0  0  0
 16 27  1  1  0  0  0
 17 16  1  0  0  0  0
 17  5  1  0  0  0  0
 18 19  2  0  0  0  0
 18 35  1  0  0  0  0
 20 13  1  0  0  0  0
 22 13  1  0  0  0  0
 25 15  1  0  0  0  0
 26 15  1  0  0  0  0
 28 17  1  0  0  0  0
 29 39  1  0  0  0  0
 30 29  1  0  0  0  0
 31 30  2  0  0  0  0
 32 41  1  0  0  0  0
 32 30  1  0  0  0  0
 33 43  1  0  0  0  0
 33 32  1  0  0  0  0
 34 33  1  0  0  0  0
 34 45  1  1  0  0  0
 35 34  1  0  0  0  0
 36 37  1  0  0  0  0
 36 34  1  0  0  0  0
 38 36  2  0  0  0  0
 40 29  1  0  0  0  0
 42 32  1  0  0  0  0
 44 33  1  0  0  0  0
 46 35  1  0  0  0  0
M  END
$$$$
