CVR.pdb
 OpenBabel07022418303D

 52 51  0  0  1  0  0  0  0  0999 V2000
    1.8860   -1.8280    2.6380 N   0  0  0  0  0  0  0  0  0  0  0  0
    2.5300   -0.5530    2.8550 C   0  0  1  0  0  0  0  0  0  0  0  0
    4.0110   -0.7380    3.1470 C   0  0  0  0  0  0  0  0  0  0  0  0
    4.1380   -1.7590    4.6430 S   0  0  0  0  0  0  0  0  0  0  0  0
    2.3070    0.3260    1.6930 C   0  0  0  0  0  0  0  0  0  0  0  0
    2.7830    1.4870    1.6010 O   0  0  0  0  0  0  0  0  0  0  0  0
    1.6610   -2.3200    3.5390 H   0  0  0  0  0  0  0  0  0  0  0  0
    2.4320   -2.4290    1.9890 H   0  0  0  0  0  0  0  0  0  0  0  0
    2.1130   -0.0560    3.7750 H   0  0  0  0  0  0  0  0  0  0  0  0
    4.4900   -1.2950    2.3240 H   0  0  0  0  0  0  0  0  0  0  0  0
    4.4790    0.2440    3.3460 H   0  0  0  0  0  0  0  0  0  0  0  0
    2.9770   -1.5760    5.4110 H   0  0  0  0  0  0  0  0  0  0  0  0
    1.4230   -1.4860   -1.9370 C   0  0  0  0  0  0  0  0  0  0  0  0
    1.9040   -0.0850   -1.7360 C   0  0  0  0  0  0  0  0  0  0  0  0
    3.3910   -0.1540   -1.4040 C   0  0  0  0  0  0  0  0  0  0  0  0
    1.2320    0.6100   -0.5640 C   0  0  2  0  0  0  0  0  0  0  0  0
    1.5180   -0.1420    0.6140 N   0  0  0  0  0  0  0  0  0  0  0  0
   -0.1640    0.9380   -0.8050 C   0  0  0  0  0  0  0  0  0  0  0  0
   -0.4800    1.6150   -1.8230 O   0  0  0  0  0  0  0  0  0  0  0  0
    0.3450   -1.6320   -1.7790 H   0  0  0  0  0  0  0  0  0  0  0  0
    1.6070   -1.7480   -3.0210 H   0  0  0  0  0  0  0  0  0  0  0  0
    2.0460   -2.2050   -1.3660 H   0  0  0  0  0  0  0  0  0  0  0  0
    1.8110    0.4810   -2.6710 H   0  0  0  0  0  0  0  0  0  0  0  0
    4.0020   -0.2690   -2.3150 H   0  0  0  0  0  0  0  0  0  0  0  0
    3.5870   -1.0400   -0.7590 H   0  0  0  0  0  0  0  0  0  0  0  0
    3.6750    0.7990   -0.9070 H   0  0  0  0  0  0  0  0  0  0  0  0
    1.7830    1.5860   -0.4500 H   0  0  0  0  0  0  0  0  0  0  0  0
    1.1220   -1.1040    0.6880 H   0  0  0  0  0  0  0  0  0  0  0  0
   -1.2670   -2.3010    2.8050 N   0  0  0  0  0  0  0  0  0  0  0  0
   -2.2820   -2.4080    1.8180 C   0  0  0  0  0  0  0  0  0  0  0  0
   -3.5190   -2.5640    2.0850 N   0  0  0  0  0  0  0  0  0  0  0  0
   -1.9200   -2.3390    0.4320 N   0  0  0  0  0  0  0  0  0  0  0  0
   -2.8740   -2.4250   -0.6240 C   0  0  0  0  0  0  0  0  0  0  0  0
   -3.8380   -1.3130   -0.7820 C   0  0  0  0  0  0  0  0  0  0  0  0
   -3.4440    0.0390   -1.0970 C   0  0  0  0  0  0  0  0  0  0  0  0
   -2.6200    0.9300   -0.2800 C   0  0  2  0  0  0  0  0  0  0  0  0
   -1.2750    0.5550    0.0340 N   0  0  0  0  0  0  0  0  0  0  0  0
   -3.3330    1.4810    0.9150 C   0  0  0  0  0  0  0  0  0  0  0  0
   -4.5160    1.8610    0.8330 O   0  0  0  0  0  0  0  0  0  0  0  0
   -2.6820    1.5730    2.1250 O   0  0  0  0  0  0  0  0  0  0  0  0
   -0.8440   -1.3780    3.0770 H   0  0  0  0  0  0  0  0  0  0  0  0
   -0.9430   -3.1890    3.2670 H   0  0  0  0  0  0  0  0  0  0  0  0
   -3.9370   -2.6320    3.0300 H   0  0  0  0  0  0  0  0  0  0  0  0
   -0.9160   -2.2260    0.1730 H   0  0  0  0  0  0  0  0  0  0  0  0
   -3.4780   -3.3700   -0.4770 H   0  0  0  0  0  0  0  0  0  0  0  0
   -2.3510   -2.6540   -1.6180 H   0  0  0  0  0  0  0  0  0  0  0  0
   -4.5440   -1.3830    0.1140 H   0  0  0  0  0  0  0  0  0  0  0  0
   -4.5240   -1.6580   -1.6480 H   0  0  0  0  0  0  0  0  0  0  0  0
   -4.3830    0.6160   -1.4790 H   0  0  0  0  0  0  0  0  0  0  0  0
   -2.8920   -0.0300   -2.1230 H   0  0  0  0  0  0  0  0  0  0  0  0
   -2.5350    1.8900   -0.9560 H   0  0  0  0  0  0  0  0  0  0  0  0
   -1.0290    0.0350    0.8890 H   0  0  0  0  0  0  0  0  0  0  0  0
  1  2  1  0  0  0  0
  1  7  1  0  0  0  0
  2  3  1  0  0  0  0
  2  9  1  1  0  0  0
  3 11  1  0  0  0  0
  3  4  1  0  0  0  0
  4 12  1  0  0  0  0
  5  2  1  0  0  0  0
  6  5  2  0  0  0  0
  8  1  1  0  0  0  0
 10  3  1  0  0  0  0
 13 20  1  0  0  0  0
 13 14  1  0  0  0  0
 13 22  1  0  0  0  0
 14 15  1  0  0  0  0
 14 16  1  0  0  0  0
 15 26  1  0  0  0  0
 15 25  1  0  0  0  0
 16 27  1  1  0  0  0
 16 17  1  0  0  0  0
 17 28  1  0  0  0  0
 17  5  1  0  0  0  0
 18 16  1  0  0  0  0
 18 37  1  0  0  0  0
 19 18  2  0  0  0  0
 21 13  1  0  0  0  0
 23 14  1  0  0  0  0
 24 15  1  0  0  0  0
 29 41  1  0  0  0  0
 29 42  1  0  0  0  0
 30 31  2  0  0  0  0
 30 29  1  0  0  0  0
 31 43  1  0  0  0  0
 32 30  1  0  0  0  0
 33 45  1  0  0  0  0
 33 32  1  0  0  0  0
 34 33  1  0  0  0  0
 34 47  1  0  0  0  0
 35 34  1  0  0  0  0
 35 36  1  0  0  0  0
 36 51  1  6  0  0  0
 36 37  1  0  0  0  0
 36 38  1  0  0  0  0
 37 52  1  0  0  0  0
 38 40  1  0  0  0  0
 39 38  2  0  0  0  0
 44 32  1  0  0  0  0
 46 33  1  0  0  0  0
 48 34  1  0  0  0  0
 49 35  1  0  0  0  0
 50 35  1  0  0  0  0
M  END
$$$$
