CVS.pdb
 OpenBabel07022418303D

 40 39  0  0  1  0  0  0  0  0999 V2000
    4.6380   -2.6800    2.0320 N   0  0  0  0  0  0  0  0  0  0  0  0
    3.2000   -2.9560    1.8570 C   0  0  1  0  0  0  0  0  0  0  0  0
    2.6630   -3.0060    3.2950 C   0  0  0  0  0  0  0  0  0  0  0  0
    0.9060   -3.3390    3.3310 S   0  0  0  0  0  0  0  0  0  0  0  0
    2.6060   -1.7540    1.1990 C   0  0  0  0  0  0  0  0  0  0  0  0
    3.3070   -0.7250    0.9810 O   0  0  0  0  0  0  0  0  0  0  0  0
    5.1270   -3.5530    2.3440 H   0  0  0  0  0  0  0  0  0  0  0  0
    4.7250   -1.9790    2.8210 H   0  0  0  0  0  0  0  0  0  0  0  0
    3.0050   -3.8860    1.3280 H   0  0  0  0  0  0  0  0  0  0  0  0
    2.9020   -2.0650    3.8300 H   0  0  0  0  0  0  0  0  0  0  0  0
    3.1770   -3.8140    3.8660 H   0  0  0  0  0  0  0  0  0  0  0  0
    0.2980   -2.8400    4.4860 H   0  0  0  0  0  0  0  0  0  0  0  0
    1.6070   -1.5020   -1.9430 C   0  0  0  0  0  0  0  0  0  0  0  0
    0.3560   -0.9820   -1.2470 C   0  0  0  0  0  0  0  0  0  0  0  0
   -0.1310    0.1690   -2.1050 C   0  0  0  0  0  0  0  0  0  0  0  0
    0.7220   -0.5330    0.1680 C   0  0  2  0  0  0  0  0  0  0  0  0
    1.2610   -1.7430    0.8120 N   0  0  0  0  0  0  0  0  0  0  0  0
   -0.4560   -0.0680    0.9290 C   0  0  0  0  0  0  0  0  0  0  0  0
   -0.8670   -0.7500    1.9170 O   0  0  0  0  0  0  0  0  0  0  0  0
    1.8460   -2.5290   -1.6690 H   0  0  0  0  0  0  0  0  0  0  0  0
    2.4050   -0.7770   -1.7660 H   0  0  0  0  0  0  0  0  0  0  0  0
    1.3810   -1.4930   -3.0370 H   0  0  0  0  0  0  0  0  0  0  0  0
   -0.3710   -1.8060   -1.2570 H   0  0  0  0  0  0  0  0  0  0  0  0
   -1.2200    0.2890   -2.0030 H   0  0  0  0  0  0  0  0  0  0  0  0
    0.0090   -0.1180   -3.1960 H   0  0  0  0  0  0  0  0  0  0  0  0
    0.4650    1.0810   -1.9520 H   0  0  0  0  0  0  0  0  0  0  0  0
    1.5270    0.2020    0.1010 H   0  0  0  0  0  0  0  0  0  0  0  0
    0.6030   -2.5600    0.9510 H   0  0  0  0  0  0  0  0  0  0  0  0
   -1.0160    2.7960    2.9010 O   0  0  0  0  0  0  0  0  0  0  0  0
   -2.1740    2.8260    2.0940 C   0  0  0  0  0  0  0  0  0  0  0  0
   -2.3280    1.4590    1.4620 C   0  0  2  0  0  0  0  0  0  0  0  0
   -1.1910    1.1090    0.6460 N   0  0  0  0  0  0  0  0  0  0  0  0
   -3.5230    1.5000    0.5800 C   0  0  0  0  0  0  0  0  0  0  0  0
   -4.6330    1.7960    1.1360 O   0  0  0  0  0  0  0  0  0  0  0  0
   -3.4880    1.2380   -0.7780 O   0  0  0  0  0  0  0  0  0  0  0  0
   -0.9610    1.9490    3.4120 H   0  0  0  0  0  0  0  0  0  0  0  0
   -3.0140    2.9940    2.7980 H   0  0  0  0  0  0  0  0  0  0  0  0
   -2.0570    3.6300    1.3630 H   0  0  0  0  0  0  0  0  0  0  0  0
   -2.5320    0.7500    2.2630 H   0  0  0  0  0  0  0  0  0  0  0  0
   -0.9150    1.7300   -0.1440 H   0  0  0  0  0  0  0  0  0  0  0  0
  1  7  1  0  0  0  0
  1  8  1  0  0  0  0
  2  9  1  6  0  0  0
  2  1  1  0  0  0  0
  2  3  1  0  0  0  0
  3  4  1  0  0  0  0
  3 10  1  0  0  0  0
  3 11  1  0  0  0  0
  4 12  1  0  0  0  0
  5  2  1  0  0  0  0
  6  5  2  0  0  0  0
 13 21  1  0  0  0  0
 13 20  1  0  0  0  0
 13 14  1  0  0  0  0
 14 16  1  0  0  0  0
 15 24  1  0  0  0  0
 15 26  1  0  0  0  0
 15 14  1  0  0  0  0
 16 27  1  6  0  0  0
 16 17  1  0  0  0  0
 16 18  1  0  0  0  0
 17 28  1  0  0  0  0
 17  5  1  0  0  0  0
 18 19  2  0  0  0  0
 22 13  1  0  0  0  0
 23 14  1  0  0  0  0
 25 15  1  0  0  0  0
 29 36  1  0  0  0  0
 30 37  1  0  0  0  0
 30 29  1  0  0  0  0
 31 30  1  0  0  0  0
 31 39  1  1  0  0  0
 32 18  1  0  0  0  0
 32 31  1  0  0  0  0
 33 34  1  0  0  0  0
 33 31  1  0  0  0  0
 35 33  2  0  0  0  0
 38 30  1  0  0  0  0
 40 32  1  0  0  0  0
M  END
$$$$
