CVT.pdb
 OpenBabel07022418303D

 43 42  0  0  1  0  0  0  0  0999 V2000
    4.7330   -1.8380    2.4500 N   0  0  0  0  0  0  0  0  0  0  0  0
    3.2710   -2.0050    2.3730 C   0  0  1  0  0  0  0  0  0  0  0  0
    2.7250   -1.2310    3.5270 C   0  0  0  0  0  0  0  0  0  0  0  0
    0.9410   -1.2790    3.6960 S   0  0  0  0  0  0  0  0  0  0  0  0
    2.8600   -1.5220    1.0400 C   0  0  0  0  0  0  0  0  0  0  0  0
    3.7230   -1.0440    0.2270 O   0  0  0  0  0  0  0  0  0  0  0  0
    5.1270   -2.3170    3.2840 H   0  0  0  0  0  0  0  0  0  0  0  0
    4.9780   -0.8270    2.5340 H   0  0  0  0  0  0  0  0  0  0  0  0
    3.0870   -3.0870    2.5110 H   0  0  0  0  0  0  0  0  0  0  0  0
    3.1110   -0.1770    3.5310 H   0  0  0  0  0  0  0  0  0  0  0  0
    3.1510   -1.6790    4.4590 H   0  0  0  0  0  0  0  0  0  0  0  0
    0.4490   -2.5800    3.6580 H   0  0  0  0  0  0  0  0  0  0  0  0
   -0.7760   -2.8460   -0.4950 C   0  0  0  0  0  0  0  0  0  0  0  0
    0.3830   -2.3390   -1.3190 C   0  0  0  0  0  0  0  0  0  0  0  0
    0.0130   -2.0760   -2.7360 C   0  0  0  0  0  0  0  0  0  0  0  0
    1.0350   -1.1430   -0.6450 C   0  0  2  0  0  0  0  0  0  0  0  0
    1.5020   -1.5870    0.6460 N   0  0  0  0  0  0  0  0  0  0  0  0
    0.1720    0.0490   -0.6200 C   0  0  0  0  0  0  0  0  0  0  0  0
   -0.2770    0.4500   -1.7270 O   0  0  0  0  0  0  0  0  0  0  0  0
   -1.0870   -2.0180    0.1740 H   0  0  0  0  0  0  0  0  0  0  0  0
   -0.5140   -3.7370    0.0810 H   0  0  0  0  0  0  0  0  0  0  0  0
   -1.5800   -3.1060   -1.2210 H   0  0  0  0  0  0  0  0  0  0  0  0
    1.1600   -3.1430   -1.2920 H   0  0  0  0  0  0  0  0  0  0  0  0
    0.5640   -1.1900   -3.1650 H   0  0  0  0  0  0  0  0  0  0  0  0
    0.3320   -2.9390   -3.3550 H   0  0  0  0  0  0  0  0  0  0  0  0
   -1.0670   -1.9430   -2.9310 H   0  0  0  0  0  0  0  0  0  0  0  0
    1.9670   -0.8790   -1.2250 H   0  0  0  0  0  0  0  0  0  0  0  0
    0.8100   -1.9780    1.3120 H   0  0  0  0  0  0  0  0  0  0  0  0
   -3.2190    0.7240    0.6790 C   0  0  0  0  0  0  0  0  0  0  0  0
   -2.3270    1.8150    1.2350 C   0  0  1  0  0  0  0  0  0  0  0  0
   -2.1580    1.6020    2.5760 O   0  0  0  0  0  0  0  0  0  0  0  0
   -1.0530    1.9490    0.4490 C   0  0  2  0  0  0  0  0  0  0  0  0
   -0.2040    0.7910    0.5180 N   0  0  0  0  0  0  0  0  0  0  0  0
   -0.3230    3.1860    0.8910 C   0  0  0  0  0  0  0  0  0  0  0  0
    0.8830    3.1450    1.2630 O   0  0  0  0  0  0  0  0  0  0  0  0
   -0.9500    4.4050    0.9030 O   0  0  0  0  0  0  0  0  0  0  0  0
   -2.6900   -0.2790    0.6860 H   0  0  0  0  0  0  0  0  0  0  0  0
   -4.1410    0.6030    1.2560 H   0  0  0  0  0  0  0  0  0  0  0  0
   -3.4090    0.9580   -0.3970 H   0  0  0  0  0  0  0  0  0  0  0  0
   -2.9000    2.7670    1.0900 H   0  0  0  0  0  0  0  0  0  0  0  0
   -1.2440    1.7810    2.9110 H   0  0  0  0  0  0  0  0  0  0  0  0
   -1.3540    2.1610   -0.6090 H   0  0  0  0  0  0  0  0  0  0  0  0
    0.1570    0.4750    1.4410 H   0  0  0  0  0  0  0  0  0  0  0  0
  1  8  1  0  0  0  0
  1  7  1  0  0  0  0
  2  1  1  0  0  0  0
  2  9  1  1  0  0  0
  2  3  1  0  0  0  0
  3 10  1  0  0  0  0
  3  4  1  0  0  0  0
  3 11  1  0  0  0  0
  5  2  1  0  0  0  0
  6  5  2  0  0  0  0
 12  4  1  0  0  0  0
 13 21  1  0  0  0  0
 13 20  1  0  0  0  0
 14 23  1  0  0  0  0
 14 16  1  0  0  0  0
 14 13  1  0  0  0  0
 15 14  1  0  0  0  0
 16 27  1  6  0  0  0
 16 18  1  0  0  0  0
 16 17  1  0  0  0  0
 17  5  1  0  0  0  0
 17 28  1  0  0  0  0
 18 33  1  0  0  0  0
 19 18  2  0  0  0  0
 22 13  1  0  0  0  0
 24 15  1  0  0  0  0
 25 15  1  0  0  0  0
 26 15  1  0  0  0  0
 29 37  1  0  0  0  0
 29 30  1  0  0  0  0
 29 38  1  0  0  0  0
 30 40  1  6  0  0  0
 30 31  1  0  0  0  0
 31 41  1  0  0  0  0
 32 42  1  6  0  0  0
 32 33  1  0  0  0  0
 32 34  1  0  0  0  0
 32 30  1  0  0  0  0
 33 43  1  0  0  0  0
 34 36  2  0  0  0  0
 34 35  1  0  0  0  0
 39 29  1  0  0  0  0
M  END
$$$$
