CVV.pdb
 OpenBabel07022418303D

 45 44  0  0  1  0  0  0  0  0999 V2000
   -0.4740   -5.1630   -0.9110 N   0  0  0  0  0  0  0  0  0  0  0  0
   -0.8820   -4.0300   -0.1110 C   0  0  1  0  0  0  0  0  0  0  0  0
   -0.2440   -4.1830    1.2470 C   0  0  0  0  0  0  0  0  0  0  0  0
    1.5700   -4.2220    1.1280 S   0  0  0  0  0  0  0  0  0  0  0  0
   -0.5240   -2.7590   -0.7700 C   0  0  0  0  0  0  0  0  0  0  0  0
    0.0600   -2.7860   -1.8840 O   0  0  0  0  0  0  0  0  0  0  0  0
   -0.8960   -5.1400   -1.8700 H   0  0  0  0  0  0  0  0  0  0  0  0
    0.5650   -5.1830   -1.0030 H   0  0  0  0  0  0  0  0  0  0  0  0
   -1.9790   -4.0600    0.0460 H   0  0  0  0  0  0  0  0  0  0  0  0
   -0.5830   -3.4250    1.9770 H   0  0  0  0  0  0  0  0  0  0  0  0
   -0.5570   -5.1760    1.6400 H   0  0  0  0  0  0  0  0  0  0  0  0
    2.1460   -3.5770    2.2410 H   0  0  0  0  0  0  0  0  0  0  0  0
   -2.5330   -0.2690   -2.1060 C   0  0  0  0  0  0  0  0  0  0  0  0
   -1.7370    0.5630   -1.1180 C   0  0  0  0  0  0  0  0  0  0  0  0
   -1.3890    1.8880   -1.7050 C   0  0  0  0  0  0  0  0  0  0  0  0
   -0.5020   -0.2390   -0.7650 C   0  0  2  0  0  0  0  0  0  0  0  0
   -0.8250   -1.5050   -0.1720 N   0  0  0  0  0  0  0  0  0  0  0  0
    0.4540    0.5490    0.0480 C   0  0  0  0  0  0  0  0  0  0  0  0
    0.8050    1.6750   -0.3820 O   0  0  0  0  0  0  0  0  0  0  0  0
   -3.2080    0.4340   -2.6380 H   0  0  0  0  0  0  0  0  0  0  0  0
   -3.0600   -1.0370   -1.5310 H   0  0  0  0  0  0  0  0  0  0  0  0
   -1.8150   -0.7150   -2.8400 H   0  0  0  0  0  0  0  0  0  0  0  0
   -2.3280    0.7160   -0.1950 H   0  0  0  0  0  0  0  0  0  0  0  0
   -0.4800    1.8780   -2.3240 H   0  0  0  0  0  0  0  0  0  0  0  0
   -2.2260    2.1640   -2.4120 H   0  0  0  0  0  0  0  0  0  0  0  0
   -1.3950    2.6890   -0.9340 H   0  0  0  0  0  0  0  0  0  0  0  0
    0.0080   -0.4590   -1.7390 H   0  0  0  0  0  0  0  0  0  0  0  0
   -1.3190   -1.5680    0.7690 H   0  0  0  0  0  0  0  0  0  0  0  0
    0.0120    1.9790    3.1220 C   0  0  0  0  0  0  0  0  0  0  0  0
    1.3270    1.2590    3.3920 C   0  0  0  0  0  0  0  0  0  0  0  0
    2.2460    2.0900    4.2320 C   0  0  0  0  0  0  0  0  0  0  0  0
    1.9410    0.9610    2.0200 C   0  0  2  0  0  0  0  0  0  0  0  0
    1.0070    0.1230    1.2840 N   0  0  0  0  0  0  0  0  0  0  0  0
    3.2420    0.2680    2.2190 C   0  0  0  0  0  0  0  0  0  0  0  0
    4.1940    0.8130    2.8310 O   0  0  0  0  0  0  0  0  0  0  0  0
    3.4550   -1.0180    1.7330 O   0  0  0  0  0  0  0  0  0  0  0  0
   -0.7430    1.2900    2.7260 H   0  0  0  0  0  0  0  0  0  0  0  0
    0.1740    2.7990    2.3750 H   0  0  0  0  0  0  0  0  0  0  0  0
   -0.3310    2.4350    4.0590 H   0  0  0  0  0  0  0  0  0  0  0  0
    1.1050    0.3120    3.9230 H   0  0  0  0  0  0  0  0  0  0  0  0
    2.9930    1.4390    4.7370 H   0  0  0  0  0  0  0  0  0  0  0  0
    2.7680    2.8770    3.6340 H   0  0  0  0  0  0  0  0  0  0  0  0
    1.6630    2.6370    5.0040 H   0  0  0  0  0  0  0  0  0  0  0  0
    2.1220    1.9100    1.4780 H   0  0  0  0  0  0  0  0  0  0  0  0
    0.7060   -0.8130    1.6260 H   0  0  0  0  0  0  0  0  0  0  0  0
  1  2  1  0  0  0  0
  2  9  1  1  0  0  0
  2  3  1  0  0  0  0
  3 11  1  0  0  0  0
  3 10  1  0  0  0  0
  4  3  1  0  0  0  0
  4 12  1  0  0  0  0
  5 17  1  0  0  0  0
  5  2  1  0  0  0  0
  6  5  2  0  0  0  0
  7  1  1  0  0  0  0
  8  1  1  0  0  0  0
 13 21  1  0  0  0  0
 13 14  1  0  0  0  0
 14 16  1  0  0  0  0
 14 23  1  0  0  0  0
 15 14  1  0  0  0  0
 15 26  1  0  0  0  0
 16 27  1  6  0  0  0
 16 17  1  0  0  0  0
 16 18  1  0  0  0  0
 17 28  1  0  0  0  0
 18 33  1  0  0  0  0
 19 18  2  0  0  0  0
 20 13  1  0  0  0  0
 22 13  1  0  0  0  0
 24 15  1  0  0  0  0
 25 15  1  0  0  0  0
 29 30  1  0  0  0  0
 29 39  1  0  0  0  0
 30 40  1  0  0  0  0
 30 31  1  0  0  0  0
 31 41  1  0  0  0  0
 31 43  1  0  0  0  0
 32 44  1  6  0  0  0
 32 34  1  0  0  0  0
 32 30  1  0  0  0  0
 33 45  1  0  0  0  0
 33 32  1  0  0  0  0
 34 35  1  0  0  0  0
 36 34  2  0  0  0  0
 37 29  1  0  0  0  0
 38 29  1  0  0  0  0
 42 31  1  0  0  0  0
M  END
$$$$
