CVW.pdb
 OpenBabel07022418303D

 53 54  0  0  1  0  0  0  0  0999 V2000
    4.3430   -2.9230    3.8280 N   0  0  0  0  0  0  0  0  0  0  0  0
    3.8710   -2.0220    2.7880 C   0  0  1  0  0  0  0  0  0  0  0  0
    3.3850   -2.9280    1.6510 C   0  0  0  0  0  0  0  0  0  0  0  0
    4.7270   -3.9690    1.0390 S   0  0  0  0  0  0  0  0  0  0  0  0
    2.6860   -1.2450    3.2660 C   0  0  0  0  0  0  0  0  0  0  0  0
    2.1890   -1.3810    4.4020 O   0  0  0  0  0  0  0  0  0  0  0  0
    3.5180   -3.3580    4.2870 H   0  0  0  0  0  0  0  0  0  0  0  0
    4.8610   -3.6900    3.3570 H   0  0  0  0  0  0  0  0  0  0  0  0
    4.6630   -1.3880    2.3770 H   0  0  0  0  0  0  0  0  0  0  0  0
    2.5440   -3.5490    2.0180 H   0  0  0  0  0  0  0  0  0  0  0  0
    3.1000   -2.2450    0.8250 H   0  0  0  0  0  0  0  0  0  0  0  0
    4.5630   -5.2700    1.5510 H   0  0  0  0  0  0  0  0  0  0  0  0
    1.5370    2.5070    1.3310 C   0  0  0  0  0  0  0  0  0  0  0  0
    1.1250    1.9800    2.6650 C   0  0  0  0  0  0  0  0  0  0  0  0
    2.0070    2.5170    3.7810 C   0  0  0  0  0  0  0  0  0  0  0  0
    0.9470    0.5030    2.7260 C   0  0  2  0  0  0  0  0  0  0  0  0
    2.0640   -0.3020    2.4250 N   0  0  0  0  0  0  0  0  0  0  0  0
   -0.1650    0.1380    1.8040 C   0  0  0  0  0  0  0  0  0  0  0  0
   -1.2900    0.7220    1.8690 O   0  0  0  0  0  0  0  0  0  0  0  0
    2.6390    2.7420    1.3920 H   0  0  0  0  0  0  0  0  0  0  0  0
    1.0730    3.5120    1.1000 H   0  0  0  0  0  0  0  0  0  0  0  0
    1.2940    1.8670    0.4820 H   0  0  0  0  0  0  0  0  0  0  0  0
    0.1000    2.4140    2.8710 H   0  0  0  0  0  0  0  0  0  0  0  0
    1.7660    3.5860    4.0060 H   0  0  0  0  0  0  0  0  0  0  0  0
    3.0850    2.5190    3.4960 H   0  0  0  0  0  0  0  0  0  0  0  0
    1.9430    1.8760    4.6890 H   0  0  0  0  0  0  0  0  0  0  0  0
    0.6080    0.2600    3.7660 H   0  0  0  0  0  0  0  0  0  0  0  0
    2.4870   -0.1850    1.4530 H   0  0  0  0  0  0  0  0  0  0  0  0
   -0.0520   -0.8700    0.8040 N   0  0  0  0  0  0  0  0  0  0  0  0
   -1.1410   -1.2170   -0.0890 C   0  0  1  0  0  0  0  0  0  0  0  0
   -0.8150   -0.9180   -1.5280 C   0  0  0  0  0  0  0  0  0  0  0  0
   -1.9770   -1.3010   -2.3560 C   0  0  0  0  0  0  0  0  0  0  0  0
   -2.1200   -2.4120   -3.1570 C   0  0  0  0  0  0  0  0  0  0  0  0
   -3.3280   -2.3990   -3.7470 N   0  0  0  0  0  0  0  0  0  0  0  0
   -3.9890   -1.3010   -3.3530 C   0  0  0  0  0  0  0  0  0  0  0  0
   -5.2470   -0.7740   -3.6310 C   0  0  0  0  0  0  0  0  0  0  0  0
   -5.6870    0.4090   -3.0720 C   0  0  0  0  0  0  0  0  0  0  0  0
   -4.8420    1.0740   -2.2150 C   0  0  0  0  0  0  0  0  0  0  0  0
   -3.5930    0.5730   -1.9250 C   0  0  0  0  0  0  0  0  0  0  0  0
   -3.1610   -0.6150   -2.4910 C   0  0  0  0  0  0  0  0  0  0  0  0
   -1.6140   -2.5980    0.1290 C   0  0  0  0  0  0  0  0  0  0  0  0
   -2.5470   -3.1220   -0.5260 O   0  0  0  0  0  0  0  0  0  0  0  0
   -1.0210   -3.4140    1.1120 O   0  0  0  0  0  0  0  0  0  0  0  0
    0.8760   -1.3530    0.7500 H   0  0  0  0  0  0  0  0  0  0  0  0
   -1.9980   -0.5460    0.1890 H   0  0  0  0  0  0  0  0  0  0  0  0
    0.0800   -1.4840   -1.8120 H   0  0  0  0  0  0  0  0  0  0  0  0
   -0.6520    0.1960   -1.5840 H   0  0  0  0  0  0  0  0  0  0  0  0
   -1.3720   -3.1740   -3.2880 H   0  0  0  0  0  0  0  0  0  0  0  0
   -3.7370   -3.1080   -4.4160 H   0  0  0  0  0  0  0  0  0  0  0  0
   -5.8870   -1.3220   -4.3080 H   0  0  0  0  0  0  0  0  0  0  0  0
   -6.6800    0.7600   -3.3330 H   0  0  0  0  0  0  0  0  0  0  0  0
   -5.1910    2.0030   -1.7770 H   0  0  0  0  0  0  0  0  0  0  0  0
   -2.9670    1.1380   -1.2430 H   0  0  0  0  0  0  0  0  0  0  0  0
  1  7  1  0  0  0  0
  2  9  1  6  0  0  0
  2  5  1  0  0  0  0
  2  1  1  0  0  0  0
  3 10  1  0  0  0  0
  3  2  1  0  0  0  0
  4 12  1  0  0  0  0
  4  3  1  0  0  0  0
  5  6  2  0  0  0  0
  8  1  1  0  0  0  0
 11  3  1  0  0  0  0
 13 20  1  0  0  0  0
 13 14  1  0  0  0  0
 14 16  1  0  0  0  0
 14 23  1  0  0  0  0
 14 15  1  0  0  0  0
 15 24  1  0  0  0  0
 15 26  1  0  0  0  0
 16 27  1  1  0  0  0
 17 16  1  0  0  0  0
 17  5  1  0  0  0  0
 18 19  2  0  0  0  0
 18 16  1  0  0  0  0
 21 13  1  0  0  0  0
 22 13  1  0  0  0  0
 25 15  1  0  0  0  0
 28 17  1  0  0  0  0
 29 18  1  0  0  0  0
 30 41  1  0  0  0  0
 30 45  1  1  0  0  0
 30 29  1  0  0  0  0
 31 30  1  0  0  0  0
 32 31  1  0  0  0  0
 33 32  2  0  0  0  0
 34 35  1  0  0  0  0
 34 33  1  0  0  0  0
 35 40  1  0  0  0  0
 36 35  2  0  0  0  0
 36 37  1  0  0  0  0
 37 38  2  0  0  0  0
 38 39  1  0  0  0  0
 38 52  1  0  0  0  0
 39 53  1  0  0  0  0
 40 32  1  0  0  0  0
 40 39  2  0  0  0  0
 41 43  1  0  0  0  0
 42 41  2  0  0  0  0
 44 29  1  0  0  0  0
 46 31  1  0  0  0  0
 47 31  1  0  0  0  0
 48 33  1  0  0  0  0
 49 34  1  0  0  0  0
 50 36  1  0  0  0  0
 51 37  1  0  0  0  0
M  END
$$$$
