CWA.pdb
 OpenBabel07022418293D

 47 48  0  0  1  0  0  0  0  0999 V2000
   -0.0410   -4.4180    3.3060 N   0  0  0  0  0  0  0  0  0  0  0  0
    0.3310   -3.4420    2.3120 C   0  0  1  0  0  0  0  0  0  0  0  0
   -0.1070   -3.9550    0.9640 C   0  0  0  0  0  0  0  0  0  0  0  0
    0.7250   -5.5420    0.6370 S   0  0  0  0  0  0  0  0  0  0  0  0
   -0.3550   -2.1440    2.5900 C   0  0  0  0  0  0  0  0  0  0  0  0
   -1.1070   -2.0510    3.5930 O   0  0  0  0  0  0  0  0  0  0  0  0
   -0.3990   -3.9990    4.1850 H   0  0  0  0  0  0  0  0  0  0  0  0
    0.6850   -5.1320    3.4320 H   0  0  0  0  0  0  0  0  0  0  0  0
    1.4400   -3.3130    2.3610 H   0  0  0  0  0  0  0  0  0  0  0  0
    0.2340   -3.1980    0.2110 H   0  0  0  0  0  0  0  0  0  0  0  0
   -1.1930   -4.0830    0.9670 H   0  0  0  0  0  0  0  0  0  0  0  0
   -0.2330   -6.4270    0.1150 H   0  0  0  0  0  0  0  0  0  0  0  0
   -0.1850   -1.0090    1.7560 N   0  0  0  0  0  0  0  0  0  0  0  0
   -0.8470    0.2160    2.0410 C   0  0  1  0  0  0  0  0  0  0  0  0
    0.0520    1.3320    2.4330 C   0  0  0  0  0  0  0  0  0  0  0  0
    1.0660    1.7370    1.4730 C   0  0  0  0  0  0  0  0  0  0  0  0
    0.9760    2.8090    0.5880 C   0  0  0  0  0  0  0  0  0  0  0  0
    2.0920    2.8530   -0.1550 N   0  0  0  0  0  0  0  0  0  0  0  0
    2.9090    1.8410    0.2210 C   0  0  0  0  0  0  0  0  0  0  0  0
    4.1580    1.4580   -0.2210 C   0  0  0  0  0  0  0  0  0  0  0  0
    4.7530    0.3710    0.3710 C   0  0  0  0  0  0  0  0  0  0  0  0
    4.1460   -0.3390    1.3800 C   0  0  0  0  0  0  0  0  0  0  0  0
    2.9030    0.0410    1.8200 C   0  0  0  0  0  0  0  0  0  0  0  0
    2.2790    1.1240    1.2480 C   0  0  0  0  0  0  0  0  0  0  0  0
   -1.8210    0.6090    0.9890 C   0  0  0  0  0  0  0  0  0  0  0  0
   -2.4560    1.6730    1.1440 O   0  0  0  0  0  0  0  0  0  0  0  0
    0.4560   -1.1590    0.9280 H   0  0  0  0  0  0  0  0  0  0  0  0
   -1.4990    0.0390    2.9560 H   0  0  0  0  0  0  0  0  0  0  0  0
   -0.6220    2.1860    2.7450 H   0  0  0  0  0  0  0  0  0  0  0  0
    0.5390    1.0330    3.3960 H   0  0  0  0  0  0  0  0  0  0  0  0
    0.1150    3.4590    0.5610 H   0  0  0  0  0  0  0  0  0  0  0  0
    2.2690    3.5800   -0.9050 H   0  0  0  0  0  0  0  0  0  0  0  0
    4.6390    2.0120   -1.0120 H   0  0  0  0  0  0  0  0  0  0  0  0
    5.7500    0.0380    0.0420 H   0  0  0  0  0  0  0  0  0  0  0  0
    4.6240   -1.2020    1.8460 H   0  0  0  0  0  0  0  0  0  0  0  0
    2.3760   -0.4750    2.6160 H   0  0  0  0  0  0  0  0  0  0  0  0
   -2.2500    0.4400   -2.4580 C   0  0  0  0  0  0  0  0  0  0  0  0
   -3.0100    0.2740   -1.1370 C   0  0  2  0  0  0  0  0  0  0  0  0
   -2.0380   -0.1760   -0.1510 N   0  0  0  0  0  0  0  0  0  0  0  0
   -4.1030   -0.7070   -1.3090 C   0  0  0  0  0  0  0  0  0  0  0  0
   -4.1090   -1.7660   -0.6480 O   0  0  0  0  0  0  0  0  0  0  0  0
   -5.1310   -0.4760   -2.1960 O   0  0  0  0  0  0  0  0  0  0  0  0
   -2.1570   -0.5670   -2.9460 H   0  0  0  0  0  0  0  0  0  0  0  0
   -1.2710    0.8770   -2.2090 H   0  0  0  0  0  0  0  0  0  0  0  0
   -2.7750    1.1360   -3.1270 H   0  0  0  0  0  0  0  0  0  0  0  0
   -3.4680    1.2320   -0.8370 H   0  0  0  0  0  0  0  0  0  0  0  0
   -1.5280   -1.0820   -0.3290 H   0  0  0  0  0  0  0  0  0  0  0  0
  1  8  1  0  0  0  0
  1  7  1  0  0  0  0
  2  9  1  1  0  0  0
  2  5  1  0  0  0  0
  2  1  1  0  0  0  0
  3 11  1  0  0  0  0
  3  2  1  0  0  0  0
  4  3  1  0  0  0  0
  5  6  2  0  0  0  0
 10  3  1  0  0  0  0
 12  4  1  0  0  0  0
 13 14  1  0  0  0  0
 13  5  1  0  0  0  0
 14 15  1  0  0  0  0
 14 28  1  1  0  0  0
 15 29  1  0  0  0  0
 15 30  1  0  0  0  0
 16 15  1  0  0  0  0
 17 16  2  0  0  0  0
 18 19  1  0  0  0  0
 18 17  1  0  0  0  0
 19 24  1  0  0  0  0
 20 19  2  0  0  0  0
 20 21  1  0  0  0  0
 21 22  2  0  0  0  0
 22 23  1  0  0  0  0
 22 35  1  0  0  0  0
 23 36  1  0  0  0  0
 24 16  1  0  0  0  0
 24 23  2  0  0  0  0
 25 26  2  0  0  0  0
 25 14  1  0  0  0  0
 27 13  1  0  0  0  0
 31 17  1  0  0  0  0
 32 18  1  0  0  0  0
 33 20  1  0  0  0  0
 34 21  1  0  0  0  0
 37 44  1  0  0  0  0
 37 38  1  0  0  0  0
 38 46  1  1  0  0  0
 38 39  1  0  0  0  0
 39 25  1  0  0  0  0
 40 38  1  0  0  0  0
 40 41  1  0  0  0  0
 42 40  2  0  0  0  0
 43 37  1  0  0  0  0
 45 37  1  0  0  0  0
 47 39  1  0  0  0  0
M  END
$$$$
