CWC.pdb
 OpenBabel07022418293D

 48 49  0  0  1  0  0  0  0  0999 V2000
    4.7970   -2.5030    1.0330 N   0  0  0  0  0  0  0  0  0  0  0  0
    3.7630   -1.6580    0.4960 C   0  0  1  0  0  0  0  0  0  0  0  0
    3.5400   -2.0650   -0.9670 C   0  0  0  0  0  0  0  0  0  0  0  0
    3.0330   -3.8000   -1.0730 S   0  0  0  0  0  0  0  0  0  0  0  0
    2.4560   -1.8900    1.1690 C   0  0  0  0  0  0  0  0  0  0  0  0
    2.3800   -2.7500    2.0640 O   0  0  0  0  0  0  0  0  0  0  0  0
    5.1980   -3.1840    0.3700 H   0  0  0  0  0  0  0  0  0  0  0  0
    5.5830   -1.9300    1.4180 H   0  0  0  0  0  0  0  0  0  0  0  0
    4.0130   -0.5930    0.5090 H   0  0  0  0  0  0  0  0  0  0  0  0
    2.7210   -1.4480   -1.3810 H   0  0  0  0  0  0  0  0  0  0  0  0
    4.4760   -1.9260   -1.5190 H   0  0  0  0  0  0  0  0  0  0  0  0
    2.4490   -4.2500    0.1240 H   0  0  0  0  0  0  0  0  0  0  0  0
    1.2800   -1.1910    0.8540 N   0  0  0  0  0  0  0  0  0  0  0  0
   -0.0060   -1.3530    1.4470 C   0  0  1  0  0  0  0  0  0  0  0  0
   -0.5030   -0.2380    2.2880 C   0  0  0  0  0  0  0  0  0  0  0  0
   -0.6510    1.0700    1.6820 C   0  0  0  0  0  0  0  0  0  0  0  0
   -1.7860    1.6850    1.2240 C   0  0  0  0  0  0  0  0  0  0  0  0
   -1.4640    2.8940    0.7230 N   0  0  0  0  0  0  0  0  0  0  0  0
   -0.1380    3.0650    0.8520 C   0  0  0  0  0  0  0  0  0  0  0  0
    0.6940    4.1130    0.5100 C   0  0  0  0  0  0  0  0  0  0  0  0
    2.0490    4.0680    0.7490 C   0  0  0  0  0  0  0  0  0  0  0  0
    2.5820    2.9580    1.3410 C   0  0  0  0  0  0  0  0  0  0  0  0
    1.7380    1.9200    1.6760 C   0  0  0  0  0  0  0  0  0  0  0  0
    0.3830    1.9470    1.4450 C   0  0  0  0  0  0  0  0  0  0  0  0
   -0.9580   -1.8390    0.4150 C   0  0  0  0  0  0  0  0  0  0  0  0
   -0.5660   -2.0070   -0.7930 O   0  0  0  0  0  0  0  0  0  0  0  0
    1.3580   -0.4600    0.0860 H   0  0  0  0  0  0  0  0  0  0  0  0
    0.1470   -2.2050    2.1940 H   0  0  0  0  0  0  0  0  0  0  0  0
   -1.5270   -0.5510    2.6550 H   0  0  0  0  0  0  0  0  0  0  0  0
    0.1080   -0.2060    3.2160 H   0  0  0  0  0  0  0  0  0  0  0  0
   -2.8120    1.3350    1.2250 H   0  0  0  0  0  0  0  0  0  0  0  0
   -2.0900    3.6160    0.2950 H   0  0  0  0  0  0  0  0  0  0  0  0
    0.2960    5.0200    0.0330 H   0  0  0  0  0  0  0  0  0  0  0  0
    2.7130    4.9000    0.4770 H   0  0  0  0  0  0  0  0  0  0  0  0
    3.6640    2.8990    1.5430 H   0  0  0  0  0  0  0  0  0  0  0  0
    2.2080    1.0610    2.1500 H   0  0  0  0  0  0  0  0  0  0  0  0
   -2.3210   -2.1530    0.6390 N   0  0  0  0  0  0  0  0  0  0  0  0
   -3.2160   -2.6260   -0.3790 C   0  0  1  0  0  0  0  0  0  0  0  0
   -3.7800   -3.9940   -0.0840 C   0  0  0  0  0  0  0  0  0  0  0  0
   -4.7220   -3.9790    1.4900 S   0  0  0  0  0  0  0  0  0  0  0  0
   -4.3690   -1.6980   -0.4640 C   0  0  0  0  0  0  0  0  0  0  0  0
   -5.3030   -1.9080   -1.3140 O   0  0  0  0  0  0  0  0  0  0  0  0
   -4.5430   -0.5760    0.3240 O   0  0  0  0  0  0  0  0  0  0  0  0
   -2.6940   -2.0330    1.6050 H   0  0  0  0  0  0  0  0  0  0  0  0
   -2.7240   -2.6610   -1.3550 H   0  0  0  0  0  0  0  0  0  0  0  0
   -4.5340   -4.2100   -0.8690 H   0  0  0  0  0  0  0  0  0  0  0  0
   -3.0490   -4.8010   -0.1030 H   0  0  0  0  0  0  0  0  0  0  0  0
   -3.8460   -3.7010    2.5420 H   0  0  0  0  0  0  0  0  0  0  0  0
  1  8  1  0  0  0  0
  2  9  1  1  0  0  0
  2  1  1  0  0  0  0
  2  5  1  0  0  0  0
  3  2  1  0  0  0  0
  4  3  1  0  0  0  0
  4 12  1  0  0  0  0
  5  6  2  0  0  0  0
  7  1  1  0  0  0  0
 10  3  1  0  0  0  0
 11  3  1  0  0  0  0
 13  5  1  0  0  0  0
 13 14  1  0  0  0  0
 14 28  1  1  0  0  0
 14 15  1  0  0  0  0
 15 29  1  0  0  0  0
 15 30  1  0  0  0  0
 16 15  1  0  0  0  0
 17 31  1  0  0  0  0
 17 16  2  0  0  0  0
 18 19  1  0  0  0  0
 18 17  1  0  0  0  0
 19 24  1  0  0  0  0
 20 21  1  0  0  0  0
 20 19  2  0  0  0  0
 21 22  2  0  0  0  0
 22 35  1  0  0  0  0
 22 23  1  0  0  0  0
 23 36  1  0  0  0  0
 24 23  2  0  0  0  0
 24 16  1  0  0  0  0
 25 37  1  0  0  0  0
 25 14  1  0  0  0  0
 26 25  2  0  0  0  0
 27 13  1  0  0  0  0
 32 18  1  0  0  0  0
 33 20  1  0  0  0  0
 34 21  1  0  0  0  0
 37 44  1  0  0  0  0
 38 45  1  6  0  0  0
 38 39  1  0  0  0  0
 38 37  1  0  0  0  0
 39 40  1  0  0  0  0
 40 48  1  0  0  0  0
 41 38  1  0  0  0  0
 41 43  1  0  0  0  0
 42 41  2  0  0  0  0
 46 39  1  0  0  0  0
 47 39  1  0  0  0  0
M  END
$$$$
