CWE.pdb
 OpenBabel07022418293D

 53 54  0  0  1  0  0  0  0  0999 V2000
    0.9800   -0.2360   -3.9760 N   0  0  0  0  0  0  0  0  0  0  0  0
    2.0370    0.4400   -3.2910 C   0  0  1  0  0  0  0  0  0  0  0  0
    2.2670    1.7830   -3.9020 C   0  0  0  0  0  0  0  0  0  0  0  0
    0.7930    2.8240   -3.8160 S   0  0  0  0  0  0  0  0  0  0  0  0
    1.7510    0.5790   -1.8210 C   0  0  0  0  0  0  0  0  0  0  0  0
    2.5800    1.1730   -1.0860 O   0  0  0  0  0  0  0  0  0  0  0  0
    0.7740   -1.1720   -3.5650 H   0  0  0  0  0  0  0  0  0  0  0  0
    0.1290    0.3680   -4.0690 H   0  0  0  0  0  0  0  0  0  0  0  0
    2.9850   -0.1540   -3.4400 H   0  0  0  0  0  0  0  0  0  0  0  0
    3.1580    2.2680   -3.4170 H   0  0  0  0  0  0  0  0  0  0  0  0
    2.5900    1.6160   -4.9620 H   0  0  0  0  0  0  0  0  0  0  0  0
    1.2270    4.1500   -3.5390 H   0  0  0  0  0  0  0  0  0  0  0  0
    0.5850    0.0680   -1.2330 N   0  0  0  0  0  0  0  0  0  0  0  0
    0.2410    0.1660    0.1780 C   0  0  1  0  0  0  0  0  0  0  0  0
   -1.0290    0.9460    0.2550 C   0  0  0  0  0  0  0  0  0  0  0  0
   -1.5320    1.1370    1.6510 C   0  0  0  0  0  0  0  0  0  0  0  0
   -2.5940    0.4590    2.2450 C   0  0  0  0  0  0  0  0  0  0  0  0
   -2.7430    0.9050    3.5020 N   0  0  0  0  0  0  0  0  0  0  0  0
   -1.8150    1.8670    3.7840 C   0  0  0  0  0  0  0  0  0  0  0  0
   -1.5550    2.6160    4.9090 C   0  0  0  0  0  0  0  0  0  0  0  0
   -0.5340    3.5310    4.9120 C   0  0  0  0  0  0  0  0  0  0  0  0
    0.2090    3.6630    3.7530 C   0  0  0  0  0  0  0  0  0  0  0  0
   -0.0450    2.9150    2.6220 C   0  0  0  0  0  0  0  0  0  0  0  0
   -1.0750    1.9950    2.6250 C   0  0  0  0  0  0  0  0  0  0  0  0
    0.1420   -1.2020    0.7070 C   0  0  0  0  0  0  0  0  0  0  0  0
   -0.1530   -1.3170    1.9370 O   0  0  0  0  0  0  0  0  0  0  0  0
   -0.0960   -0.4310   -1.8790 H   0  0  0  0  0  0  0  0  0  0  0  0
    1.0400    0.7370    0.7040 H   0  0  0  0  0  0  0  0  0  0  0  0
   -1.8210    0.5960   -0.4170 H   0  0  0  0  0  0  0  0  0  0  0  0
   -0.7780    1.9930   -0.0920 H   0  0  0  0  0  0  0  0  0  0  0  0
   -3.1630   -0.2960    1.7120 H   0  0  0  0  0  0  0  0  0  0  0  0
   -3.4560    0.5840    4.1920 H   0  0  0  0  0  0  0  0  0  0  0  0
   -2.1490    2.4920    5.7930 H   0  0  0  0  0  0  0  0  0  0  0  0
   -0.3020    4.1440    5.7960 H   0  0  0  0  0  0  0  0  0  0  0  0
    1.0300    4.3770    3.7110 H   0  0  0  0  0  0  0  0  0  0  0  0
    0.5330    3.0140    1.7130 H   0  0  0  0  0  0  0  0  0  0  0  0
    0.3430   -2.3950   -0.0130 N   0  0  0  0  0  0  0  0  0  0  0  0
    0.2170   -3.7210    0.6280 C   0  0  1  0  0  0  0  0  0  0  0  0
   -0.8260   -4.5350   -0.0980 C   0  0  0  0  0  0  0  0  0  0  0  0
   -1.0640   -5.8960    0.4380 C   0  0  0  0  0  0  0  0  0  0  0  0
   -1.5390   -5.8790    1.8350 C   0  0  0  0  0  0  0  0  0  0  0  0
   -1.6930   -6.9780    2.4220 O   0  0  0  0  0  0  0  0  0  0  0  0
    1.5420   -4.3940    0.5240 C   0  0  0  0  0  0  0  0  0  0  0  0
    2.5160   -3.8330   -0.0610 O   0  0  0  0  0  0  0  0  0  0  0  0
   -1.8290   -4.7330    2.5460 O   0  0  0  0  0  0  0  0  0  0  0  0
    1.7890   -5.6490    1.0490 O   0  0  0  0  0  0  0  0  0  0  0  0
    0.5850   -2.3050   -1.0210 H   0  0  0  0  0  0  0  0  0  0  0  0
   -0.0410   -3.5990    1.6760 H   0  0  0  0  0  0  0  0  0  0  0  0
   -1.7810   -3.9360   -0.0510 H   0  0  0  0  0  0  0  0  0  0  0  0
   -0.6020   -4.5640   -1.2040 H   0  0  0  0  0  0  0  0  0  0  0  0
   -0.1920   -6.5770    0.3190 H   0  0  0  0  0  0  0  0  0  0  0  0
   -1.9300   -6.3290   -0.1600 H   0  0  0  0  0  0  0  0  0  0  0  0
   -2.5080   -4.7030    3.3100 H   0  0  0  0  0  0  0  0  0  0  0  0
  1  7  1  0  0  0  0
  1  2  1  0  0  0  0
  2  9  1  6  0  0  0
  2  5  1  0  0  0  0
  3  4  1  0  0  0  0
  3 10  1  0  0  0  0
  3  2  1  0  0  0  0
  4 12  1  0  0  0  0
  5 13  1  0  0  0  0
  5  6  2  0  0  0  0
  8  1  1  0  0  0  0
 11  3  1  0  0  0  0
 13 14  1  0  0  0  0
 14 15  1  0  0  0  0
 14 28  1  1  0  0  0
 14 25  1  0  0  0  0
 15 16  1  0  0  0  0
 16 17  2  0  0  0  0
 16 24  1  0  0  0  0
 17 18  1  0  0  0  0
 18 19  1  0  0  0  0
 18 32  1  0  0  0  0
 19 20  1  0  0  0  0
 20 21  2  0  0  0  0
 20 33  1  0  0  0  0
 21 34  1  0  0  0  0
 22 21  1  0  0  0  0
 23 24  1  0  0  0  0
 23 22  2  0  0  0  0
 24 19  2  0  0  0  0
 25 26  2  0  0  0  0
 27 13  1  0  0  0  0
 29 15  1  0  0  0  0
 30 15  1  0  0  0  0
 31 17  1  0  0  0  0
 35 22  1  0  0  0  0
 36 23  1  0  0  0  0
 37 38  1  0  0  0  0
 37 25  1  0  0  0  0
 38 48  1  1  0  0  0
 39 49  1  0  0  0  0
 39 40  1  0  0  0  0
 39 38  1  0  0  0  0
 40 41  1  0  0  0  0
 41 42  2  0  0  0  0
 41 45  1  0  0  0  0
 43 38  1  0  0  0  0
 43 46  1  0  0  0  0
 44 43  2  0  0  0  0
 45 53  1  0  0  0  0
 47 37  1  0  0  0  0
 50 39  1  0  0  0  0
 51 40  1  0  0  0  0
 52 40  1  0  0  0  0
M  END
$$$$
