CWG.pdb
 OpenBabel07022418293D

 44 45  0  0  1  0  0  0  0  0999 V2000
    1.3870   -2.6890    2.8060 N   0  0  0  0  0  0  0  0  0  0  0  0
    1.9050   -2.9150    1.4810 C   0  0  1  0  0  0  0  0  0  0  0  0
    1.5770   -4.3640    1.1230 C   0  0  0  0  0  0  0  0  0  0  0  0
    2.1770   -4.7870   -0.5330 S   0  0  0  0  0  0  0  0  0  0  0  0
    1.2220   -2.0460    0.4780 C   0  0  0  0  0  0  0  0  0  0  0  0
    1.5080   -2.0770   -0.7350 O   0  0  0  0  0  0  0  0  0  0  0  0
    0.3870   -2.9290    2.8870 H   0  0  0  0  0  0  0  0  0  0  0  0
    1.5350   -1.7410    3.1860 H   0  0  0  0  0  0  0  0  0  0  0  0
    2.9940   -2.7670    1.4980 H   0  0  0  0  0  0  0  0  0  0  0  0
    0.4720   -4.4500    1.1760 H   0  0  0  0  0  0  0  0  0  0  0  0
    2.0160   -5.0310    1.9000 H   0  0  0  0  0  0  0  0  0  0  0  0
    1.1340   -4.7490   -1.4860 H   0  0  0  0  0  0  0  0  0  0  0  0
    0.2130   -1.1630    0.9530 N   0  0  0  0  0  0  0  0  0  0  0  0
   -0.5550   -0.2780    0.1570 C   0  0  1  0  0  0  0  0  0  0  0  0
   -0.0250    1.0900   -0.0570 C   0  0  0  0  0  0  0  0  0  0  0  0
    0.1480    1.8510    1.2150 C   0  0  0  0  0  0  0  0  0  0  0  0
   -0.7280    2.8120    1.7190 C   0  0  0  0  0  0  0  0  0  0  0  0
   -0.2340    3.2380    2.8720 N   0  0  0  0  0  0  0  0  0  0  0  0
    0.9180    2.6070    3.1500 C   0  0  0  0  0  0  0  0  0  0  0  0
    1.7920    2.7250    4.2370 C   0  0  0  0  0  0  0  0  0  0  0  0
    2.9250    1.9620    4.2880 C   0  0  0  0  0  0  0  0  0  0  0  0
    3.2040    1.0700    3.2560 C   0  0  0  0  0  0  0  0  0  0  0  0
    2.3140    0.9830    2.1970 C   0  0  0  0  0  0  0  0  0  0  0  0
    1.1600    1.7350    2.1080 C   0  0  0  0  0  0  0  0  0  0  0  0
   -1.0470   -0.9530   -1.0930 C   0  0  0  0  0  0  0  0  0  0  0  0
   -0.8780   -2.1670   -1.3400 O   0  0  0  0  0  0  0  0  0  0  0  0
   -0.0010   -1.1450    2.0100 H   0  0  0  0  0  0  0  0  0  0  0  0
   -1.5410   -0.1160    0.7490 H   0  0  0  0  0  0  0  0  0  0  0  0
   -0.7220    1.6890   -0.6690 H   0  0  0  0  0  0  0  0  0  0  0  0
    0.9750    1.1130   -0.5440 H   0  0  0  0  0  0  0  0  0  0  0  0
   -1.6420    3.1390    1.2420 H   0  0  0  0  0  0  0  0  0  0  0  0
   -0.6690    3.9640    3.4910 H   0  0  0  0  0  0  0  0  0  0  0  0
    1.5410    3.4320    5.0240 H   0  0  0  0  0  0  0  0  0  0  0  0
    3.6220    2.0300    5.1180 H   0  0  0  0  0  0  0  0  0  0  0  0
    4.1110    0.4670    3.3070 H   0  0  0  0  0  0  0  0  0  0  0  0
    2.5430    0.3060    1.4150 H   0  0  0  0  0  0  0  0  0  0  0  0
   -1.7630   -0.2290   -2.1120 N   0  0  0  0  0  0  0  0  0  0  0  0
   -2.2360   -0.8950   -3.3180 C   0  0  0  0  0  0  0  0  0  0  0  0
   -3.1760   -1.9680   -2.9160 C   0  0  0  0  0  0  0  0  0  0  0  0
   -3.7120   -2.6970   -3.7960 O   0  0  0  0  0  0  0  0  0  0  0  0
   -3.4880   -2.1970   -1.6020 O   0  0  0  0  0  0  0  0  0  0  0  0
   -1.9340    0.7760   -1.9600 H   0  0  0  0  0  0  0  0  0  0  0  0
   -2.8140   -0.1680   -3.9100 H   0  0  0  0  0  0  0  0  0  0  0  0
   -1.3910   -1.2860   -3.9220 H   0  0  0  0  0  0  0  0  0  0  0  0
  1  7  1  0  0  0  0
  1  8  1  0  0  0  0
  2  9  1  6  0  0  0
  2  1  1  0  0  0  0
  3 10  1  0  0  0  0
  3  2  1  0  0  0  0
  3 11  1  0  0  0  0
  4  3  1  0  0  0  0
  5 13  1  0  0  0  0
  5  2  1  0  0  0  0
  6  5  2  0  0  0  0
 12  4  1  0  0  0  0
 13 27  1  0  0  0  0
 14 28  1  1  0  0  0
 14 13  1  0  0  0  0
 15 14  1  0  0  0  0
 15 16  1  0  0  0  0
 16 17  2  0  0  0  0
 16 24  1  0  0  0  0
 17 18  1  0  0  0  0
 18 19  1  0  0  0  0
 18 32  1  0  0  0  0
 19 20  1  0  0  0  0
 20 21  2  0  0  0  0
 20 33  1  0  0  0  0
 21 34  1  0  0  0  0
 22 35  1  0  0  0  0
 22 21  1  0  0  0  0
 23 22  2  0  0  0  0
 24 23  1  0  0  0  0
 24 19  2  0  0  0  0
 25 14  1  0  0  0  0
 26 25  2  0  0  0  0
 29 15  1  0  0  0  0
 30 15  1  0  0  0  0
 31 17  1  0  0  0  0
 36 23  1  0  0  0  0
 37 42  1  0  0  0  0
 37 25  1  0  0  0  0
 38 39  1  0  0  0  0
 38 37  1  0  0  0  0
 39 41  1  0  0  0  0
 40 39  2  0  0  0  0
 43 38  1  0  0  0  0
 44 38  1  0  0  0  0
M  END
$$$$
