CWI.pdb
 OpenBabel07022418293D

 56 57  0  0  1  0  0  0  0  0999 V2000
    3.8730   -1.3130    2.4090 N   0  0  0  0  0  0  0  0  0  0  0  0
    2.8040   -0.5360    2.9450 C   0  0  1  0  0  0  0  0  0  0  0  0
    3.2600    0.8810    3.3120 C   0  0  0  0  0  0  0  0  0  0  0  0
    4.5660    0.8560    4.5410 S   0  0  0  0  0  0  0  0  0  0  0  0
    1.6380   -0.3950    2.0740 C   0  0  0  0  0  0  0  0  0  0  0  0
    0.6670    0.2900    2.5050 O   0  0  0  0  0  0  0  0  0  0  0  0
    3.5520   -2.1660    1.9420 H   0  0  0  0  0  0  0  0  0  0  0  0
    4.5980   -0.7660    1.9110 H   0  0  0  0  0  0  0  0  0  0  0  0
    2.4990   -1.0060    3.9220 H   0  0  0  0  0  0  0  0  0  0  0  0
    3.5560    1.3630    2.3550 H   0  0  0  0  0  0  0  0  0  0  0  0
    2.3890    1.4220    3.7680 H   0  0  0  0  0  0  0  0  0  0  0  0
    4.5140   -0.2970    5.3400 H   0  0  0  0  0  0  0  0  0  0  0  0
    1.5210   -0.9710    0.7810 N   0  0  0  0  0  0  0  0  0  0  0  0
    0.3270   -0.7840   -0.0230 C   0  0  1  0  0  0  0  0  0  0  0  0
    0.7510    0.0030   -1.2410 C   0  0  0  0  0  0  0  0  0  0  0  0
    1.3060    1.2930   -0.7550 C   0  0  0  0  0  0  0  0  0  0  0  0
    2.6370    1.6500   -0.6780 C   0  0  0  0  0  0  0  0  0  0  0  0
    2.7400    2.9130   -0.1810 N   0  0  0  0  0  0  0  0  0  0  0  0
    1.5140    3.3930    0.0700 C   0  0  0  0  0  0  0  0  0  0  0  0
    1.0730    4.5970    0.5700 C   0  0  0  0  0  0  0  0  0  0  0  0
   -0.2820    4.8100    0.7210 C   0  0  0  0  0  0  0  0  0  0  0  0
   -1.1950    3.8180    0.3710 C   0  0  0  0  0  0  0  0  0  0  0  0
   -0.7380    2.6320   -0.1230 C   0  0  0  0  0  0  0  0  0  0  0  0
    0.6200    2.4040   -0.2800 C   0  0  0  0  0  0  0  0  0  0  0  0
   -0.2210   -2.1090   -0.3550 C   0  0  0  0  0  0  0  0  0  0  0  0
    0.3430   -3.1610    0.0410 O   0  0  0  0  0  0  0  0  0  0  0  0
    2.3310   -1.5340    0.4400 H   0  0  0  0  0  0  0  0  0  0  0  0
   -0.3690   -0.1510    0.5530 H   0  0  0  0  0  0  0  0  0  0  0  0
   -0.1820    0.1920   -1.8320 H   0  0  0  0  0  0  0  0  0  0  0  0
    1.4880   -0.5080   -1.8670 H   0  0  0  0  0  0  0  0  0  0  0  0
    3.4530    1.0150   -0.9710 H   0  0  0  0  0  0  0  0  0  0  0  0
    3.6370    3.4050   -0.0300 H   0  0  0  0  0  0  0  0  0  0  0  0
    1.7320    5.4050    0.8580 H   0  0  0  0  0  0  0  0  0  0  0  0
   -0.6730    5.7330    1.1070 H   0  0  0  0  0  0  0  0  0  0  0  0
   -2.2570    3.9960    0.4930 H   0  0  0  0  0  0  0  0  0  0  0  0
   -1.4070    1.8110   -0.4160 H   0  0  0  0  0  0  0  0  0  0  0  0
   -4.1210   -3.8780    1.6360 C   0  0  0  0  0  0  0  0  0  0  0  0
   -2.9540   -3.5980    0.7460 C   0  0  0  0  0  0  0  0  0  0  0  0
   -3.2890   -3.7320   -0.7330 C   0  0  2  0  0  0  0  0  0  0  0  0
   -3.7480   -5.1580   -0.9520 C   0  0  0  0  0  0  0  0  0  0  0  0
   -1.9440   -3.5930   -1.4610 C   0  0  2  0  0  0  0  0  0  0  0  0
   -1.4040   -2.2930   -1.1320 N   0  0  0  0  0  0  0  0  0  0  0  0
   -2.0850   -3.7980   -2.9130 C   0  0  0  0  0  0  0  0  0  0  0  0
   -2.5380   -4.8740   -3.3710 O   0  0  0  0  0  0  0  0  0  0  0  0
   -1.7170   -2.8020   -3.7740 O   0  0  0  0  0  0  0  0  0  0  0  0
   -4.2620   -4.9470    1.8790 H   0  0  0  0  0  0  0  0  0  0  0  0
   -3.9070   -3.3790    2.6210 H   0  0  0  0  0  0  0  0  0  0  0  0
   -5.0380   -3.3930    1.2430 H   0  0  0  0  0  0  0  0  0  0  0  0
   -2.1140   -4.2640    1.0280 H   0  0  0  0  0  0  0  0  0  0  0  0
   -2.6050   -2.5590    0.9670 H   0  0  0  0  0  0  0  0  0  0  0  0
   -4.0060   -2.9860   -1.0670 H   0  0  0  0  0  0  0  0  0  0  0  0
   -4.3670   -5.2550   -1.8660 H   0  0  0  0  0  0  0  0  0  0  0  0
   -4.3250   -5.5390   -0.0720 H   0  0  0  0  0  0  0  0  0  0  0  0
   -2.8850   -5.8420   -1.0790 H   0  0  0  0  0  0  0  0  0  0  0  0
   -1.3260   -4.4230   -1.0630 H   0  0  0  0  0  0  0  0  0  0  0  0
   -1.8750   -1.4220   -1.4620 H   0  0  0  0  0  0  0  0  0  0  0  0
  1  2  1  0  0  0  0
  2  3  1  0  0  0  0
  2  9  1  1  0  0  0
  3 11  1  0  0  0  0
  3  4  1  0  0  0  0
  4 12  1  0  0  0  0
  5  6  2  0  0  0  0
  5  2  1  0  0  0  0
  7  1  1  0  0  0  0
  8  1  1  0  0  0  0
 10  3  1  0  0  0  0
 13  5  1  0  0  0  0
 14 28  1  1  0  0  0
 14 13  1  0  0  0  0
 15 16  1  0  0  0  0
 15 14  1  0  0  0  0
 16 17  2  0  0  0  0
 16 24  1  0  0  0  0
 17 18  1  0  0  0  0
 18 32  1  0  0  0  0
 18 19  1  0  0  0  0
 19 20  1  0  0  0  0
 20 21  2  0  0  0  0
 20 33  1  0  0  0  0
 21 34  1  0  0  0  0
 22 35  1  0  0  0  0
 22 21  1  0  0  0  0
 23 22  2  0  0  0  0
 24 23  1  0  0  0  0
 24 19  2  0  0  0  0
 25 14  1  0  0  0  0
 25 26  2  0  0  0  0
 27 13  1  0  0  0  0
 29 15  1  0  0  0  0
 30 15  1  0  0  0  0
 31 17  1  0  0  0  0
 36 23  1  0  0  0  0
 37 46  1  0  0  0  0
 37 47  1  0  0  0  0
 38 50  1  0  0  0  0
 38 49  1  0  0  0  0
 38 37  1  0  0  0  0
 39 51  1  6  0  0  0
 39 38  1  0  0  0  0
 40 39  1  0  0  0  0
 40 53  1  0  0  0  0
 41 42  1  0  0  0  0
 41 55  1  1  0  0  0
 41 39  1  0  0  0  0
 42 25  1  0  0  0  0
 43 41  1  0  0  0  0
 44 43  1  0  0  0  0
 45 43  2  0  0  0  0
 48 37  1  0  0  0  0
 52 40  1  0  0  0  0
 54 40  1  0  0  0  0
 56 42  1  0  0  0  0
M  END
$$$$
