CWK.pdb
 OpenBabel07022418293D

 58 59  0  0  1  0  0  0  0  0999 V2000
    4.7330    1.6160   -0.2490 N   0  0  0  0  0  0  0  0  0  0  0  0
    3.3030    1.6970   -0.4580 C   0  0  1  0  0  0  0  0  0  0  0  0
    3.0030    1.6160   -1.9380 C   0  0  0  0  0  0  0  0  0  0  0  0
    3.8470    3.0180   -2.7450 S   0  0  0  0  0  0  0  0  0  0  0  0
    2.6050    0.6500    0.3180 C   0  0  0  0  0  0  0  0  0  0  0  0
    3.2870   -0.1330    1.0220 O   0  0  0  0  0  0  0  0  0  0  0  0
    5.1320    2.5760   -0.1760 H   0  0  0  0  0  0  0  0  0  0  0  0
    4.9430    1.1280    0.6640 H   0  0  0  0  0  0  0  0  0  0  0  0
    2.9690    2.6940   -0.1150 H   0  0  0  0  0  0  0  0  0  0  0  0
    3.3710    0.7010   -2.4130 H   0  0  0  0  0  0  0  0  0  0  0  0
    1.9110    1.7000   -2.1220 H   0  0  0  0  0  0  0  0  0  0  0  0
    3.8290    2.8950   -4.1400 H   0  0  0  0  0  0  0  0  0  0  0  0
    1.2050    0.4800    0.3140 N   0  0  0  0  0  0  0  0  0  0  0  0
    0.5160   -0.5380    1.0680 C   0  0  1  0  0  0  0  0  0  0  0  0
   -0.3460    0.0350    2.1380 C   0  0  0  0  0  0  0  0  0  0  0  0
    0.4730    0.8270    3.1130 C   0  0  0  0  0  0  0  0  0  0  0  0
    0.9470    0.3280    4.3340 C   0  0  0  0  0  0  0  0  0  0  0  0
    1.6630    1.2900    4.9250 N   0  0  0  0  0  0  0  0  0  0  0  0
    1.6870    2.3990    4.1610 C   0  0  0  0  0  0  0  0  0  0  0  0
    2.2890    3.6470    4.3550 C   0  0  0  0  0  0  0  0  0  0  0  0
    2.1440    4.6240    3.4010 C   0  0  0  0  0  0  0  0  0  0  0  0
    1.4040    4.3310    2.2790 C   0  0  0  0  0  0  0  0  0  0  0  0
    0.8010    3.0910    2.0790 C   0  0  0  0  0  0  0  0  0  0  0  0
    0.9480    2.1110    3.0370 C   0  0  0  0  0  0  0  0  0  0  0  0
   -0.3580   -1.3120    0.1190 C   0  0  0  0  0  0  0  0  0  0  0  0
   -0.3930   -1.0190   -1.1160 O   0  0  0  0  0  0  0  0  0  0  0  0
    0.6220    1.1090   -0.2670 H   0  0  0  0  0  0  0  0  0  0  0  0
    1.2490   -1.2130    1.5720 H   0  0  0  0  0  0  0  0  0  0  0  0
   -1.0850    0.7830    1.7260 H   0  0  0  0  0  0  0  0  0  0  0  0
   -0.8910   -0.7820    2.6490 H   0  0  0  0  0  0  0  0  0  0  0  0
    0.7430   -0.6780    4.7000 H   0  0  0  0  0  0  0  0  0  0  0  0
    2.1600    1.2470    5.8540 H   0  0  0  0  0  0  0  0  0  0  0  0
    2.8590    3.8510    5.2340 H   0  0  0  0  0  0  0  0  0  0  0  0
    2.6010    5.6200    3.5120 H   0  0  0  0  0  0  0  0  0  0  0  0
    1.2800    5.0980    1.5140 H   0  0  0  0  0  0  0  0  0  0  0  0
    0.2220    2.9010    1.2000 H   0  0  0  0  0  0  0  0  0  0  0  0
   -1.1640   -2.3810    0.5520 N   0  0  0  0  0  0  0  0  0  0  0  0
   -2.0360   -3.1480   -0.4140 C   0  0  1  0  0  0  0  0  0  0  0  0
   -1.7470   -4.5710   -0.1740 C   0  0  0  0  0  0  0  0  0  0  0  0
   -2.1900   -5.6740   -0.9860 C   0  0  0  0  0  0  0  0  0  0  0  0
   -3.5310   -5.9310   -1.5020 C   0  0  0  0  0  0  0  0  0  0  0  0
   -4.0120   -5.0650   -2.6310 C   0  0  0  0  0  0  0  0  0  0  0  0
   -3.0830   -5.2970   -3.7490 N   0  0  0  0  0  0  0  0  0  0  0  0
   -3.3860   -2.8550    0.2180 C   0  0  0  0  0  0  0  0  0  0  0  0
   -4.4440   -3.3630   -0.0960 O   0  0  0  0  0  0  0  0  0  0  0  0
   -3.4350   -1.9170    1.2550 O   0  0  0  0  0  0  0  0  0  0  0  0
   -1.2070   -2.6930    1.5140 H   0  0  0  0  0  0  0  0  0  0  0  0
   -1.9020   -2.7320   -1.3860 H   0  0  0  0  0  0  0  0  0  0  0  0
   -0.5870   -4.6350   -0.1480 H   0  0  0  0  0  0  0  0  0  0  0  0
   -1.9550   -4.7580    0.9410 H   0  0  0  0  0  0  0  0  0  0  0  0
   -1.8510   -6.6340   -0.4050 H   0  0  0  0  0  0  0  0  0  0  0  0
   -1.4360   -5.7900   -1.8750 H   0  0  0  0  0  0  0  0  0  0  0  0
   -4.3180   -6.0260   -0.7010 H   0  0  0  0  0  0  0  0  0  0  0  0
   -3.5260   -6.9860   -1.9390 H   0  0  0  0  0  0  0  0  0  0  0  0
   -4.1830   -4.0260   -2.4660 H   0  0  0  0  0  0  0  0  0  0  0  0
   -4.9970   -5.5120   -2.9610 H   0  0  0  0  0  0  0  0  0  0  0  0
   -3.4920   -4.9460   -4.6230 H   0  0  0  0  0  0  0  0  0  0  0  0
   -2.1750   -4.8400   -3.6000 H   0  0  0  0  0  0  0  0  0  0  0  0
  1  7  1  0  0  0  0
  1  8  1  0  0  0  0
  2  1  1  0  0  0  0
  2  9  1  1  0  0  0
  2  5  1  0  0  0  0
  3  2  1  0  0  0  0
  4  3  1  0  0  0  0
  5  6  2  0  0  0  0
 10  3  1  0  0  0  0
 11  3  1  0  0  0  0
 12  4  1  0  0  0  0
 13  5  1  0  0  0  0
 13 14  1  0  0  0  0
 14 28  1  1  0  0  0
 14 15  1  0  0  0  0
 15 30  1  0  0  0  0
 15 16  1  0  0  0  0
 16 17  2  0  0  0  0
 17 31  1  0  0  0  0
 17 18  1  0  0  0  0
 18 32  1  0  0  0  0
 19 20  1  0  0  0  0
 19 18  1  0  0  0  0
 20 33  1  0  0  0  0
 21 34  1  0  0  0  0
 21 20  2  0  0  0  0
 22 21  1  0  0  0  0
 23 22  2  0  0  0  0
 23 24  1  0  0  0  0
 24 16  1  0  0  0  0
 24 19  2  0  0  0  0
 25 37  1  0  0  0  0
 25 14  1  0  0  0  0
 26 25  2  0  0  0  0
 27 13  1  0  0  0  0
 29 15  1  0  0  0  0
 35 22  1  0  0  0  0
 36 23  1  0  0  0  0
 37 47  1  0  0  0  0
 38 48  1  6  0  0  0
 38 39  1  0  0  0  0
 38 44  1  0  0  0  0
 38 37  1  0  0  0  0
 39 49  1  0  0  0  0
 39 50  1  0  0  0  0
 40 51  1  0  0  0  0
 40 39  1  0  0  0  0
 41 40  1  0  0  0  0
 41 53  1  0  0  0  0
 42 55  1  0  0  0  0
 42 41  1  0  0  0  0
 43 58  1  0  0  0  0
 43 42  1  0  0  0  0
 44 46  1  0  0  0  0
 45 44  2  0  0  0  0
 52 40  1  0  0  0  0
 54 41  1  0  0  0  0
 56 42  1  0  0  0  0
 57 43  1  0  0  0  0
M  END
$$$$
