CWM.pdb
 OpenBabel07022418293D

 54 55  0  0  1  0  0  0  0  0999 V2000
    2.1980   -2.1110   -2.8700 N   0  0  0  0  0  0  0  0  0  0  0  0
    1.2700   -1.1150   -2.4430 C   0  0  1  0  0  0  0  0  0  0  0  0
   -0.0840   -1.2270   -3.0750 C   0  0  0  0  0  0  0  0  0  0  0  0
   -0.0300   -1.0860   -4.8830 S   0  0  0  0  0  0  0  0  0  0  0  0
    1.0970   -1.0410   -0.9730 C   0  0  0  0  0  0  0  0  0  0  0  0
    0.2500   -0.1970   -0.5530 O   0  0  0  0  0  0  0  0  0  0  0  0
    3.1760   -1.9270   -2.6270 H   0  0  0  0  0  0  0  0  0  0  0  0
    2.1530   -2.2090   -3.9090 H   0  0  0  0  0  0  0  0  0  0  0  0
    1.7130   -0.1140   -2.7350 H   0  0  0  0  0  0  0  0  0  0  0  0
   -0.7090   -0.3930   -2.6630 H   0  0  0  0  0  0  0  0  0  0  0  0
   -0.5580   -2.1880   -2.7980 H   0  0  0  0  0  0  0  0  0  0  0  0
   -1.1640   -0.3490   -5.3230 H   0  0  0  0  0  0  0  0  0  0  0  0
    1.8620   -1.8880   -0.1300 N   0  0  0  0  0  0  0  0  0  0  0  0
    1.6930   -1.8060    1.3010 C   0  0  1  0  0  0  0  0  0  0  0  0
    2.4660   -0.7300    1.9430 C   0  0  0  0  0  0  0  0  0  0  0  0
    2.2390    0.6480    1.5350 C   0  0  0  0  0  0  0  0  0  0  0  0
    2.9380    1.2690    0.4950 C   0  0  0  0  0  0  0  0  0  0  0  0
    2.4300    2.4860    0.3810 N   0  0  0  0  0  0  0  0  0  0  0  0
    1.4610    2.7040    1.2630 C   0  0  0  0  0  0  0  0  0  0  0  0
    0.6740    3.8130    1.5200 C   0  0  0  0  0  0  0  0  0  0  0  0
   -0.2670    3.7990    2.5240 C   0  0  0  0  0  0  0  0  0  0  0  0
   -0.4260    2.6630    3.2850 C   0  0  0  0  0  0  0  0  0  0  0  0
    0.3680    1.5750    3.0080 C   0  0  0  0  0  0  0  0  0  0  0  0
    1.3170    1.5380    2.0200 C   0  0  0  0  0  0  0  0  0  0  0  0
    0.3500   -2.0640    1.8020 C   0  0  0  0  0  0  0  0  0  0  0  0
    0.0560   -1.8480    2.9960 O   0  0  0  0  0  0  0  0  0  0  0  0
    2.5250   -2.5390   -0.6040 H   0  0  0  0  0  0  0  0  0  0  0  0
    2.2410   -2.8140    1.6350 H   0  0  0  0  0  0  0  0  0  0  0  0
    2.3830   -0.8240    3.0800 H   0  0  0  0  0  0  0  0  0  0  0  0
    3.5750   -0.9370    1.7920 H   0  0  0  0  0  0  0  0  0  0  0  0
    3.7240    0.8230   -0.0780 H   0  0  0  0  0  0  0  0  0  0  0  0
    2.7380    3.2150   -0.3150 H   0  0  0  0  0  0  0  0  0  0  0  0
    0.7890    4.7170    0.9270 H   0  0  0  0  0  0  0  0  0  0  0  0
   -0.8950    4.6540    2.7450 H   0  0  0  0  0  0  0  0  0  0  0  0
   -1.1780    2.6480    4.0910 H   0  0  0  0  0  0  0  0  0  0  0  0
    0.2510    0.6970    3.6120 H   0  0  0  0  0  0  0  0  0  0  0  0
   -2.6070    0.3880    1.6880 C   0  0  0  0  0  0  0  0  0  0  0  0
   -3.6780   -0.2280    0.4030 S   0  0  0  0  0  0  0  0  0  0  0  0
   -3.0740   -1.6440   -0.4970 C   0  0  0  0  0  0  0  0  0  0  0  0
   -2.9630   -2.9120    0.2820 C   0  0  0  0  0  0  0  0  0  0  0  0
   -2.0020   -2.8630    1.4100 C   0  0  2  0  0  0  0  0  0  0  0  0
   -0.6550   -2.5880    0.9120 N   0  0  0  0  0  0  0  0  0  0  0  0
   -1.9620   -4.2210    2.1060 C   0  0  0  0  0  0  0  0  0  0  0  0
   -0.9130   -4.8920    2.1750 O   0  0  0  0  0  0  0  0  0  0  0  0
   -3.1190   -4.7100    2.6690 O   0  0  0  0  0  0  0  0  0  0  0  0
   -3.0590    0.1250    2.6890 H   0  0  0  0  0  0  0  0  0  0  0  0
   -1.5860    0.0170    1.6490 H   0  0  0  0  0  0  0  0  0  0  0  0
   -2.5290    1.5050    1.6930 H   0  0  0  0  0  0  0  0  0  0  0  0
   -2.1450   -1.3990   -1.0590 H   0  0  0  0  0  0  0  0  0  0  0  0
   -3.8190   -1.8650   -1.3260 H   0  0  0  0  0  0  0  0  0  0  0  0
   -2.5750   -3.6900   -0.4370 H   0  0  0  0  0  0  0  0  0  0  0  0
   -3.9970   -3.1980    0.6090 H   0  0  0  0  0  0  0  0  0  0  0  0
   -2.3290   -2.1920    2.2040 H   0  0  0  0  0  0  0  0  0  0  0  0
   -0.4340   -2.7810   -0.0870 H   0  0  0  0  0  0  0  0  0  0  0  0
  1  7  1  0  0  0  0
  1  2  1  0  0  0  0
  2  9  1  6  0  0  0
  2  5  1  0  0  0  0
  3 11  1  0  0  0  0
  3 10  1  0  0  0  0
  3  2  1  0  0  0  0
  4  3  1  0  0  0  0
  5  6  2  0  0  0  0
  5 13  1  0  0  0  0
  8  1  1  0  0  0  0
 12  4  1  0  0  0  0
 13 14  1  0  0  0  0
 14 28  1  1  0  0  0
 14 25  1  0  0  0  0
 14 15  1  0  0  0  0
 15 29  1  0  0  0  0
 16 15  1  0  0  0  0
 16 24  1  0  0  0  0
 17 16  2  0  0  0  0
 18 17  1  0  0  0  0
 18 19  1  0  0  0  0
 19 20  2  0  0  0  0
 19 24  1  0  0  0  0
 20 21  1  0  0  0  0
 21 34  1  0  0  0  0
 21 22  2  0  0  0  0
 22 35  1  0  0  0  0
 23 22  1  0  0  0  0
 23 36  1  0  0  0  0
 24 23  2  0  0  0  0
 25 26  2  0  0  0  0
 27 13  1  0  0  0  0
 30 15  1  0  0  0  0
 31 17  1  0  0  0  0
 32 18  1  0  0  0  0
 33 20  1  0  0  0  0
 37 48  1  0  0  0  0
 37 46  1  0  0  0  0
 38 37  1  0  0  0  0
 39 40  1  0  0  0  0
 39 38  1  0  0  0  0
 40 52  1  0  0  0  0
 40 41  1  0  0  0  0
 41 43  1  0  0  0  0
 41 53  1  1  0  0  0
 42 41  1  0  0  0  0
 42 25  1  0  0  0  0
 43 44  2  0  0  0  0
 43 45  1  0  0  0  0
 47 37  1  0  0  0  0
 49 39  1  0  0  0  0
 50 39  1  0  0  0  0
 51 40  1  0  0  0  0
 54 42  1  0  0  0  0
M  END
$$$$
