CWR.pdb
 OpenBabel07022418293D

 60 61  0  0  1  0  0  0  0  0999 V2000
    1.4130    0.5370    3.5140 N   0  0  0  0  0  0  0  0  0  0  0  0
    2.3250    0.1360    2.4670 C   0  0  1  0  0  0  0  0  0  0  0  0
    2.8830   -1.2200    2.8240 C   0  0  0  0  0  0  0  0  0  0  0  0
    1.5750   -2.4370    2.9740 S   0  0  0  0  0  0  0  0  0  0  0  0
    1.5890    0.1270    1.1590 C   0  0  0  0  0  0  0  0  0  0  0  0
    2.1940   -0.2180    0.1080 O   0  0  0  0  0  0  0  0  0  0  0  0
    0.6920   -0.2110    3.6050 H   0  0  0  0  0  0  0  0  0  0  0  0
    1.9520    0.5690    4.4200 H   0  0  0  0  0  0  0  0  0  0  0  0
    3.1910    0.8340    2.4030 H   0  0  0  0  0  0  0  0  0  0  0  0
    3.6900   -1.5350    2.1320 H   0  0  0  0  0  0  0  0  0  0  0  0
    3.3690   -1.1100    3.8220 H   0  0  0  0  0  0  0  0  0  0  0  0
    0.8270   -2.1760    4.1560 H   0  0  0  0  0  0  0  0  0  0  0  0
    0.2270    0.5010    1.0940 N   0  0  0  0  0  0  0  0  0  0  0  0
   -0.6180    0.5740   -0.0410 C   0  0  1  0  0  0  0  0  0  0  0  0
    0.1380    1.0340   -1.2860 C   0  0  0  0  0  0  0  0  0  0  0  0
    0.6550    2.3940   -1.0260 C   0  0  0  0  0  0  0  0  0  0  0  0
    1.8940    2.8790   -0.7030 C   0  0  0  0  0  0  0  0  0  0  0  0
    1.8490    4.2140   -0.5640 N   0  0  0  0  0  0  0  0  0  0  0  0
    0.5970    4.6420   -0.7890 C   0  0  0  0  0  0  0  0  0  0  0  0
    0.0010    5.8860   -0.7860 C   0  0  0  0  0  0  0  0  0  0  0  0
   -1.3310    6.0810   -1.0610 C   0  0  0  0  0  0  0  0  0  0  0  0
   -2.0830    4.9670   -1.3510 C   0  0  0  0  0  0  0  0  0  0  0  0
   -1.4990    3.7140   -1.3570 C   0  0  0  0  0  0  0  0  0  0  0  0
   -0.1640    3.5300   -1.0790 C   0  0  0  0  0  0  0  0  0  0  0  0
   -1.4920   -0.5680   -0.2850 C   0  0  0  0  0  0  0  0  0  0  0  0
   -2.2960   -0.6300   -1.2650 O   0  0  0  0  0  0  0  0  0  0  0  0
   -0.2010    0.7580    2.0500 H   0  0  0  0  0  0  0  0  0  0  0  0
   -1.2780    1.5150    0.1500 H   0  0  0  0  0  0  0  0  0  0  0  0
    0.8810    0.3180   -1.6080 H   0  0  0  0  0  0  0  0  0  0  0  0
   -0.5860    1.1300   -2.1460 H   0  0  0  0  0  0  0  0  0  0  0  0
    2.7950    2.2780   -0.5810 H   0  0  0  0  0  0  0  0  0  0  0  0
    2.6570    4.8120   -0.3210 H   0  0  0  0  0  0  0  0  0  0  0  0
    0.5880    6.7640   -0.5600 H   0  0  0  0  0  0  0  0  0  0  0  0
   -1.8010    7.0600   -1.0590 H   0  0  0  0  0  0  0  0  0  0  0  0
   -3.1480    5.0440   -1.5790 H   0  0  0  0  0  0  0  0  0  0  0  0
   -2.1040    2.8260   -1.5990 H   0  0  0  0  0  0  0  0  0  0  0  0
    1.1640   -5.9990    1.8670 N   0  0  0  0  0  0  0  0  0  0  0  0
    0.5330   -6.2790    0.6310 C   0  0  0  0  0  0  0  0  0  0  0  0
   -0.4640   -7.1220    0.5580 N   0  0  0  0  0  0  0  0  0  0  0  0
    0.9400   -5.6780   -0.5850 N   0  0  0  0  0  0  0  0  0  0  0  0
   -0.0050   -5.2080   -1.5520 C   0  0  0  0  0  0  0  0  0  0  0  0
   -0.7720   -3.9890   -1.1420 C   0  0  0  0  0  0  0  0  0  0  0  0
   -1.5970   -4.1300    0.1100 C   0  0  0  0  0  0  0  0  0  0  0  0
   -2.3350   -2.8420    0.3760 C   0  0  2  0  0  0  0  0  0  0  0  0
   -1.5100   -1.7070    0.5630 N   0  0  0  0  0  0  0  0  0  0  0  0
   -3.2480   -2.9770    1.5340 C   0  0  0  0  0  0  0  0  0  0  0  0
   -3.1910   -2.1390    2.4670 O   0  0  0  0  0  0  0  0  0  0  0  0
   -4.1900   -4.0190    1.6340 O   0  0  0  0  0  0  0  0  0  0  0  0
    0.6150   -5.7200    2.6970 H   0  0  0  0  0  0  0  0  0  0  0  0
    2.1910   -6.0750    1.9410 H   0  0  0  0  0  0  0  0  0  0  0  0
   -0.7850   -7.5810    1.4180 H   0  0  0  0  0  0  0  0  0  0  0  0
    1.9690   -5.5800   -0.7580 H   0  0  0  0  0  0  0  0  0  0  0  0
   -0.7490   -6.0010   -1.8100 H   0  0  0  0  0  0  0  0  0  0  0  0
    0.5090   -4.9200   -2.5210 H   0  0  0  0  0  0  0  0  0  0  0  0
   -1.4390   -3.7240   -2.0000 H   0  0  0  0  0  0  0  0  0  0  0  0
   -0.0170   -3.1750   -1.0600 H   0  0  0  0  0  0  0  0  0  0  0  0
   -2.3510   -4.9140   -0.0850 H   0  0  0  0  0  0  0  0  0  0  0  0
   -1.0110   -4.4600    0.9850 H   0  0  0  0  0  0  0  0  0  0  0  0
   -2.9980   -2.6960   -0.5280 H   0  0  0  0  0  0  0  0  0  0  0  0
   -0.8610   -1.7180    1.4030 H   0  0  0  0  0  0  0  0  0  0  0  0
  1  7  1  0  0  0  0
  1  8  1  0  0  0  0
  2  9  1  6  0  0  0
  2  3  1  0  0  0  0
  2  1  1  0  0  0  0
  3  4  1  0  0  0  0
  3 11  1  0  0  0  0
  4 12  1  0  0  0  0
  5  2  1  0  0  0  0
  6  5  2  0  0  0  0
 10  3  1  0  0  0  0
 13  5  1  0  0  0  0
 13 27  1  0  0  0  0
 14 28  1  1  0  0  0
 14 13  1  0  0  0  0
 15 16  1  0  0  0  0
 15 14  1  0  0  0  0
 16 17  2  0  0  0  0
 17 31  1  0  0  0  0
 17 18  1  0  0  0  0
 18 32  1  0  0  0  0
 19 20  1  0  0  0  0
 19 18  1  0  0  0  0
 20 33  1  0  0  0  0
 21 34  1  0  0  0  0
 21 20  2  0  0  0  0
 22 21  1  0  0  0  0
 23 22  2  0  0  0  0
 23 24  1  0  0  0  0
 24 16  1  0  0  0  0
 24 19  2  0  0  0  0
 25 14  1  0  0  0  0
 25 45  1  0  0  0  0
 26 25  2  0  0  0  0
 29 15  1  0  0  0  0
 30 15  1  0  0  0  0
 35 22  1  0  0  0  0
 36 23  1  0  0  0  0
 37 50  1  0  0  0  0
 37 49  1  0  0  0  0
 38 37  1  0  0  0  0
 39 38  2  0  0  0  0
 39 51  1  0  0  0  0
 40 38  1  0  0  0  0
 41 42  1  0  0  0  0
 41 40  1  0  0  0  0
 42 56  1  0  0  0  0
 42 43  1  0  0  0  0
 43 44  1  0  0  0  0
 43 58  1  0  0  0  0
 44 59  1  6  0  0  0
 44 45  1  0  0  0  0
 44 46  1  0  0  0  0
 45 60  1  0  0  0  0
 46 48  2  0  0  0  0
 46 47  1  0  0  0  0
 52 40  1  0  0  0  0
 53 41  1  0  0  0  0
 54 41  1  0  0  0  0
 55 42  1  0  0  0  0
 57 43  1  0  0  0  0
M  END
$$$$
