CWS.pdb
 OpenBabel07022418293D

 48 49  0  0  1  0  0  0  0  0999 V2000
    0.4910   -1.9340    3.4880 N   0  0  0  0  0  0  0  0  0  0  0  0
   -0.5420   -0.9440    3.5000 C   0  0  1  0  0  0  0  0  0  0  0  0
   -0.2550    0.1770    4.4690 C   0  0  0  0  0  0  0  0  0  0  0  0
   -1.6160    1.4080    4.4360 S   0  0  0  0  0  0  0  0  0  0  0  0
   -0.8130   -0.3790    2.1570 C   0  0  0  0  0  0  0  0  0  0  0  0
   -1.5640    0.6190    2.0560 O   0  0  0  0  0  0  0  0  0  0  0  0
    0.4960   -2.3860    4.4500 H   0  0  0  0  0  0  0  0  0  0  0  0
    1.4210   -1.4830    3.4060 H   0  0  0  0  0  0  0  0  0  0  0  0
   -1.4820   -1.4340    3.8990 H   0  0  0  0  0  0  0  0  0  0  0  0
   -0.2150   -0.1910    5.5200 H   0  0  0  0  0  0  0  0  0  0  0  0
    0.6750    0.7360    4.2500 H   0  0  0  0  0  0  0  0  0  0  0  0
   -2.8650    0.7560    4.5120 H   0  0  0  0  0  0  0  0  0  0  0  0
   -0.2660   -0.9060    0.9440 N   0  0  0  0  0  0  0  0  0  0  0  0
   -0.5270   -0.3580   -0.3400 C   0  0  1  0  0  0  0  0  0  0  0  0
    0.6680    0.0290   -1.1590 C   0  0  0  0  0  0  0  0  0  0  0  0
    1.5380    1.0540   -0.5480 C   0  0  0  0  0  0  0  0  0  0  0  0
    1.5140    2.4230   -0.8490 C   0  0  0  0  0  0  0  0  0  0  0  0
    2.4230    3.0540   -0.0930 N   0  0  0  0  0  0  0  0  0  0  0  0
    3.0750    2.1690    0.7190 C   0  0  0  0  0  0  0  0  0  0  0  0
    4.0780    2.3260    1.6530 C   0  0  0  0  0  0  0  0  0  0  0  0
    4.5620    1.2350    2.3330 C   0  0  0  0  0  0  0  0  0  0  0  0
    4.0050    0.0110    2.0370 C   0  0  0  0  0  0  0  0  0  0  0  0
    2.9990   -0.1620    1.1040 C   0  0  0  0  0  0  0  0  0  0  0  0
    2.5110    0.9400    0.4200 C   0  0  0  0  0  0  0  0  0  0  0  0
   -1.3910   -1.3390   -1.1000 C   0  0  0  0  0  0  0  0  0  0  0  0
   -1.7470   -1.0250   -2.2460 O   0  0  0  0  0  0  0  0  0  0  0  0
    0.3400   -1.7430    1.0650 H   0  0  0  0  0  0  0  0  0  0  0  0
   -1.1910    0.5590   -0.2850 H   0  0  0  0  0  0  0  0  0  0  0  0
    1.3180   -0.8840   -1.3060 H   0  0  0  0  0  0  0  0  0  0  0  0
    0.3920    0.3580   -2.1820 H   0  0  0  0  0  0  0  0  0  0  0  0
    0.8430    2.8360   -1.5850 H   0  0  0  0  0  0  0  0  0  0  0  0
    2.6510    4.0720   -0.0760 H   0  0  0  0  0  0  0  0  0  0  0  0
    4.4970    3.2920    1.8660 H   0  0  0  0  0  0  0  0  0  0  0  0
    5.3630    1.3370    3.0810 H   0  0  0  0  0  0  0  0  0  0  0  0
    4.3770   -0.8570    2.5640 H   0  0  0  0  0  0  0  0  0  0  0  0
    2.5770   -1.1190    0.8730 H   0  0  0  0  0  0  0  0  0  0  0  0
   -4.3290   -1.9710   -1.5050 O   0  0  0  0  0  0  0  0  0  0  0  0
   -4.0480   -3.2270   -0.9690 C   0  0  0  0  0  0  0  0  0  0  0  0
   -2.5990   -3.5760   -1.1900 C   0  0  2  0  0  0  0  0  0  0  0  0
   -1.7860   -2.5740   -0.5370 N   0  0  0  0  0  0  0  0  0  0  0  0
   -2.2420   -3.8390   -2.5890 C   0  0  0  0  0  0  0  0  0  0  0  0
   -2.9890   -4.6450   -3.2250 O   0  0  0  0  0  0  0  0  0  0  0  0
   -1.1660   -3.2720   -3.2220 O   0  0  0  0  0  0  0  0  0  0  0  0
   -4.8090   -1.3980   -0.8750 H   0  0  0  0  0  0  0  0  0  0  0  0
   -4.7070   -4.0050   -1.4110 H   0  0  0  0  0  0  0  0  0  0  0  0
   -4.2000   -3.1670    0.1300 H   0  0  0  0  0  0  0  0  0  0  0  0
   -2.4340   -4.5730   -0.6280 H   0  0  0  0  0  0  0  0  0  0  0  0
   -1.4280   -2.7340    0.4570 H   0  0  0  0  0  0  0  0  0  0  0  0
  1  2  1  0  0  0  0
  1  7  1  0  0  0  0
  2  9  1  1  0  0  0
  2  3  1  0  0  0  0
  3 10  1  0  0  0  0
  4  3  1  0  0  0  0
  4 12  1  0  0  0  0
  5  2  1  0  0  0  0
  6  5  2  0  0  0  0
  8  1  1  0  0  0  0
 11  3  1  0  0  0  0
 13 27  1  0  0  0  0
 13  5  1  0  0  0  0
 14 28  1  1  0  0  0
 14 13  1  0  0  0  0
 15 16  1  0  0  0  0
 15 14  1  0  0  0  0
 16 24  1  0  0  0  0
 17 16  2  0  0  0  0
 17 18  1  0  0  0  0
 18 32  1  0  0  0  0
 18 19  1  0  0  0  0
 19 20  1  0  0  0  0
 20 33  1  0  0  0  0
 20 21  2  0  0  0  0
 21 34  1  0  0  0  0
 22 21  1  0  0  0  0
 22 35  1  0  0  0  0
 23 22  2  0  0  0  0
 24 19  2  0  0  0  0
 24 23  1  0  0  0  0
 25 40  1  0  0  0  0
 25 14  1  0  0  0  0
 26 25  2  0  0  0  0
 29 15  1  0  0  0  0
 30 15  1  0  0  0  0
 31 17  1  0  0  0  0
 36 23  1  0  0  0  0
 37 38  1  0  0  0  0
 37 44  1  0  0  0  0
 38 46  1  0  0  0  0
 39 38  1  0  0  0  0
 39 47  1  1  0  0  0
 39 40  1  0  0  0  0
 40 48  1  0  0  0  0
 41 39  1  0  0  0  0
 42 41  2  0  0  0  0
 43 41  1  0  0  0  0
 45 38  1  0  0  0  0
M  END
$$$$
