CWV.pdb
 OpenBabel07022418293D

 53 54  0  0  1  0  0  0  0  0999 V2000
   -1.6650    0.3750    5.3010 N   0  0  0  0  0  0  0  0  0  0  0  0
   -0.6140    0.0460    4.3780 C   0  0  1  0  0  0  0  0  0  0  0  0
   -0.0190   -1.3200    4.6720 C   0  0  0  0  0  0  0  0  0  0  0  0
    0.6780   -1.3630    6.3450 S   0  0  0  0  0  0  0  0  0  0  0  0
   -1.1940    0.0550    3.0100 C   0  0  0  0  0  0  0  0  0  0  0  0
   -2.4020    0.3120    2.7850 O   0  0  0  0  0  0  0  0  0  0  0  0
   -2.4100   -0.3530    5.3550 H   0  0  0  0  0  0  0  0  0  0  0  0
   -1.3260    0.6880    6.2310 H   0  0  0  0  0  0  0  0  0  0  0  0
    0.1580    0.8380    4.4600 H   0  0  0  0  0  0  0  0  0  0  0  0
    0.7940   -1.5730    3.9760 H   0  0  0  0  0  0  0  0  0  0  0  0
   -0.8050   -2.0960    4.6190 H   0  0  0  0  0  0  0  0  0  0  0  0
   -0.2120   -0.7530    7.2220 H   0  0  0  0  0  0  0  0  0  0  0  0
   -0.3840   -0.2360    1.8550 N   0  0  0  0  0  0  0  0  0  0  0  0
   -0.9450   -0.2280    0.5260 C   0  0  1  0  0  0  0  0  0  0  0  0
   -0.4690    0.9940   -0.2250 C   0  0  0  0  0  0  0  0  0  0  0  0
    0.9830    1.1090   -0.3830 C   0  0  0  0  0  0  0  0  0  0  0  0
    1.6890    0.7380   -1.5040 C   0  0  0  0  0  0  0  0  0  0  0  0
    2.9910    0.9590   -1.2960 N   0  0  0  0  0  0  0  0  0  0  0  0
    3.1410    1.4650   -0.0680 C   0  0  0  0  0  0  0  0  0  0  0  0
    4.2970    1.8660    0.6090 C   0  0  0  0  0  0  0  0  0  0  0  0
    4.2170    2.3730    1.8780 C   0  0  0  0  0  0  0  0  0  0  0  0
    2.9830    2.4850    2.4830 C   0  0  0  0  0  0  0  0  0  0  0  0
    1.8610    2.0830    1.7980 C   0  0  0  0  0  0  0  0  0  0  0  0
    1.9020    1.5690    0.5270 C   0  0  0  0  0  0  0  0  0  0  0  0
   -0.6850   -1.4840   -0.2050 C   0  0  0  0  0  0  0  0  0  0  0  0
   -0.0010   -2.3900    0.3820 O   0  0  0  0  0  0  0  0  0  0  0  0
    0.6130   -0.4590    2.0490 H   0  0  0  0  0  0  0  0  0  0  0  0
   -2.0760   -0.0780    0.5870 H   0  0  0  0  0  0  0  0  0  0  0  0
   -0.8220    1.9370    0.2860 H   0  0  0  0  0  0  0  0  0  0  0  0
   -0.9950    1.0540   -1.2260 H   0  0  0  0  0  0  0  0  0  0  0  0
    1.3250    0.3280   -2.4390 H   0  0  0  0  0  0  0  0  0  0  0  0
    3.7760    0.7710   -1.9770 H   0  0  0  0  0  0  0  0  0  0  0  0
    5.2660    1.7750    0.1240 H   0  0  0  0  0  0  0  0  0  0  0  0
    5.1310    2.6680    2.3570 H   0  0  0  0  0  0  0  0  0  0  0  0
    2.8880    2.8830    3.4870 H   0  0  0  0  0  0  0  0  0  0  0  0
    0.9000    2.1750    2.2690 H   0  0  0  0  0  0  0  0  0  0  0  0
   -2.7310   -3.9550   -0.9510 C   0  0  0  0  0  0  0  0  0  0  0  0
   -2.2170   -3.6950   -2.3480 C   0  0  0  0  0  0  0  0  0  0  0  0
   -3.2380   -2.9140   -3.1010 C   0  0  0  0  0  0  0  0  0  0  0  0
   -0.8860   -2.9850   -2.2190 C   0  0  2  0  0  0  0  0  0  0  0  0
   -1.1380   -1.7550   -1.5050 N   0  0  0  0  0  0  0  0  0  0  0  0
   -0.2270   -2.7780   -3.5080 C   0  0  0  0  0  0  0  0  0  0  0  0
    0.0420   -1.6090   -3.8800 O   0  0  0  0  0  0  0  0  0  0  0  0
    0.1240   -3.8150   -4.3570 O   0  0  0  0  0  0  0  0  0  0  0  0
   -1.9270   -4.2460   -0.2500 H   0  0  0  0  0  0  0  0  0  0  0  0
   -3.4970   -4.7830   -0.9740 H   0  0  0  0  0  0  0  0  0  0  0  0
   -3.3080   -3.0580   -0.5820 H   0  0  0  0  0  0  0  0  0  0  0  0
   -2.1040   -4.6810   -2.8520 H   0  0  0  0  0  0  0  0  0  0  0  0
   -3.7920   -3.5080   -3.8590 H   0  0  0  0  0  0  0  0  0  0  0  0
   -3.9910   -2.5170   -2.3920 H   0  0  0  0  0  0  0  0  0  0  0  0
   -2.7920   -1.9940   -3.5830 H   0  0  0  0  0  0  0  0  0  0  0  0
   -0.2690   -3.6220   -1.5430 H   0  0  0  0  0  0  0  0  0  0  0  0
   -1.6970   -1.0290   -2.0070 H   0  0  0  0  0  0  0  0  0  0  0  0
  1  7  1  0  0  0  0
  1  8  1  0  0  0  0
  2  9  1  1  0  0  0
  2  3  1  0  0  0  0
  2  1  1  0  0  0  0
  3  4  1  0  0  0  0
  4 12  1  0  0  0  0
  5  2  1  0  0  0  0
  6  5  2  0  0  0  0
 10  3  1  0  0  0  0
 11  3  1  0  0  0  0
 13 27  1  0  0  0  0
 13  5  1  0  0  0  0
 14 28  1  1  0  0  0
 14 13  1  0  0  0  0
 15 29  1  0  0  0  0
 15 14  1  0  0  0  0
 16 15  1  0  0  0  0
 16 24  1  0  0  0  0
 17 18  1  0  0  0  0
 17 16  2  0  0  0  0
 18 19  1  0  0  0  0
 19 24  2  0  0  0  0
 19 20  1  0  0  0  0
 20 21  2  0  0  0  0
 21 34  1  0  0  0  0
 21 22  1  0  0  0  0
 22 35  1  0  0  0  0
 23 36  1  0  0  0  0
 23 22  2  0  0  0  0
 24 23  1  0  0  0  0
 25 26  2  0  0  0  0
 25 14  1  0  0  0  0
 30 15  1  0  0  0  0
 31 17  1  0  0  0  0
 32 18  1  0  0  0  0
 33 20  1  0  0  0  0
 37 47  1  0  0  0  0
 37 45  1  0  0  0  0
 38 40  1  0  0  0  0
 38 37  1  0  0  0  0
 39 50  1  0  0  0  0
 39 38  1  0  0  0  0
 40 52  1  1  0  0  0
 40 41  1  0  0  0  0
 41 25  1  0  0  0  0
 42 40  1  0  0  0  0
 43 42  1  0  0  0  0
 44 42  2  0  0  0  0
 46 37  1  0  0  0  0
 48 38  1  0  0  0  0
 49 39  1  0  0  0  0
 51 39  1  0  0  0  0
 53 41  1  0  0  0  0
M  END
$$$$
