CWW.pdb
 OpenBabel07022418293D

 61 64  0  0  1  0  0  0  0  0999 V2000
    1.9170   -1.1780    0.4520 N   0  0  0  0  0  0  0  0  0  0  0  0
    1.7420   -0.5290    1.7150 C   0  0  1  0  0  0  0  0  0  0  0  0
    3.0200    0.1130    2.2080 C   0  0  0  0  0  0  0  0  0  0  0  0
    4.2990   -1.1630    2.3990 S   0  0  0  0  0  0  0  0  0  0  0  0
    0.6310    0.4570    1.6120 C   0  0  0  0  0  0  0  0  0  0  0  0
    0.3520    1.1300    2.6160 O   0  0  0  0  0  0  0  0  0  0  0  0
    2.4010   -2.0780    0.4920 H   0  0  0  0  0  0  0  0  0  0  0  0
    2.4390   -0.5810   -0.2250 H   0  0  0  0  0  0  0  0  0  0  0  0
    1.4540   -1.3080    2.4650 H   0  0  0  0  0  0  0  0  0  0  0  0
    2.8660    0.5800    3.1970 H   0  0  0  0  0  0  0  0  0  0  0  0
    3.3780    0.8880    1.4820 H   0  0  0  0  0  0  0  0  0  0  0  0
    5.5740   -0.5530    2.4440 H   0  0  0  0  0  0  0  0  0  0  0  0
   -0.0820    0.6030    0.3700 N   0  0  0  0  0  0  0  0  0  0  0  0
   -1.1610    1.5420    0.2310 C   0  0  1  0  0  0  0  0  0  0  0  0
   -0.9310    2.6550   -0.7330 C   0  0  0  0  0  0  0  0  0  0  0  0
    0.2240    3.5240   -0.4150 C   0  0  0  0  0  0  0  0  0  0  0  0
    0.1500    4.7870    0.1920 C   0  0  0  0  0  0  0  0  0  0  0  0
    1.3760    5.2730    0.3350 N   0  0  0  0  0  0  0  0  0  0  0  0
    2.2960    4.4090   -0.1430 C   0  0  0  0  0  0  0  0  0  0  0  0
    3.6680    4.4860   -0.2100 C   0  0  0  0  0  0  0  0  0  0  0  0
    4.3760    3.4370   -0.7660 C   0  0  0  0  0  0  0  0  0  0  0  0
    3.6640    2.3560   -1.2300 C   0  0  0  0  0  0  0  0  0  0  0  0
    2.2800    2.2760   -1.1640 C   0  0  0  0  0  0  0  0  0  0  0  0
    1.5780    3.3280   -0.6060 C   0  0  0  0  0  0  0  0  0  0  0  0
   -2.4460    0.8320    0.0450 C   0  0  0  0  0  0  0  0  0  0  0  0
   -3.4860    1.5240   -0.1460 O   0  0  0  0  0  0  0  0  0  0  0  0
    0.2460   -0.0240   -0.4050 H   0  0  0  0  0  0  0  0  0  0  0  0
   -1.2630    2.0520    1.2400 H   0  0  0  0  0  0  0  0  0  0  0  0
   -0.7750    2.3150   -1.7800 H   0  0  0  0  0  0  0  0  0  0  0  0
   -1.8230    3.3350   -0.8080 H   0  0  0  0  0  0  0  0  0  0  0  0
   -0.8070    5.2390    0.4760 H   0  0  0  0  0  0  0  0  0  0  0  0
    1.5970    6.2040    0.7620 H   0  0  0  0  0  0  0  0  0  0  0  0
    4.1690    5.3710    0.1770 H   0  0  0  0  0  0  0  0  0  0  0  0
    5.4540    3.5250   -0.8050 H   0  0  0  0  0  0  0  0  0  0  0  0
    4.2190    1.5260   -1.6700 H   0  0  0  0  0  0  0  0  0  0  0  0
    1.7570    1.4300   -1.5360 H   0  0  0  0  0  0  0  0  0  0  0  0
   -2.6030   -0.5730    0.0650 N   0  0  0  0  0  0  0  0  0  0  0  0
   -3.8450   -1.2670   -0.1190 C   0  0  1  0  0  0  0  0  0  0  0  0
   -3.6850   -2.4340   -1.0470 C   0  0  0  0  0  0  0  0  0  0  0  0
   -3.2260   -2.1340   -2.3900 C   0  0  0  0  0  0  0  0  0  0  0  0
   -2.9610   -0.9650   -3.0460 C   0  0  0  0  0  0  0  0  0  0  0  0
   -2.5580   -1.2050   -4.2900 N   0  0  0  0  0  0  0  0  0  0  0  0
   -2.5500   -2.5510   -4.4820 C   0  0  0  0  0  0  0  0  0  0  0  0
   -2.2220   -3.3430   -5.5710 C   0  0  0  0  0  0  0  0  0  0  0  0
   -2.3000   -4.7160   -5.5090 C   0  0  0  0  0  0  0  0  0  0  0  0
   -2.7080   -5.3140   -4.3530 C   0  0  0  0  0  0  0  0  0  0  0  0
   -3.0350   -4.5330   -3.2680 C   0  0  0  0  0  0  0  0  0  0  0  0
   -2.9590   -3.1450   -3.3210 C   0  0  0  0  0  0  0  0  0  0  0  0
   -4.2940   -1.8940    1.1930 C   0  0  0  0  0  0  0  0  0  0  0  0
   -5.3660   -2.5470    1.2100 O   0  0  0  0  0  0  0  0  0  0  0  0
   -3.5870   -1.7830    2.3590 O   0  0  0  0  0  0  0  0  0  0  0  0
   -1.7290   -1.1320    0.2290 H   0  0  0  0  0  0  0  0  0  0  0  0
   -4.6350   -0.5730   -0.4510 H   0  0  0  0  0  0  0  0  0  0  0  0
   -2.9110   -3.0990   -0.5630 H   0  0  0  0  0  0  0  0  0  0  0  0
   -4.6110   -3.0500   -1.0890 H   0  0  0  0  0  0  0  0  0  0  0  0
   -3.0640    0.0160   -2.6230 H   0  0  0  0  0  0  0  0  0  0  0  0
   -2.2790   -0.5450   -5.0490 H   0  0  0  0  0  0  0  0  0  0  0  0
   -1.8940   -2.8830   -6.5010 H   0  0  0  0  0  0  0  0  0  0  0  0
   -2.0390   -5.3330   -6.3750 H   0  0  0  0  0  0  0  0  0  0  0  0
   -2.7800   -6.4010   -4.2750 H   0  0  0  0  0  0  0  0  0  0  0  0
   -3.3640   -4.9800   -2.3280 H   0  0  0  0  0  0  0  0  0  0  0  0
  1  7  1  0  0  0  0
  1  2  1  0  0  0  0
  2  3  1  0  0  0  0
  2  9  1  1  0  0  0
  3  4  1  0  0  0  0
  3 10  1  0  0  0  0
  4 12  1  0  0  0  0
  5  2  1  0  0  0  0
  5  6  2  0  0  0  0
  8  1  1  0  0  0  0
 11  3  1  0  0  0  0
 13  5  1  0  0  0  0
 14 13  1  0  0  0  0
 14 28  1  1  0  0  0
 15 16  1  0  0  0  0
 15 14  1  0  0  0  0
 16 17  2  0  0  0  0
 17 18  1  0  0  0  0
 17 31  1  0  0  0  0
 18 32  1  0  0  0  0
 19 18  1  0  0  0  0
 20 19  1  0  0  0  0
 20 33  1  0  0  0  0
 21 20  2  0  0  0  0
 22 23  2  0  0  0  0
 22 21  1  0  0  0  0
 23 24  1  0  0  0  0
 24 16  1  0  0  0  0
 24 19  2  0  0  0  0
 25 37  1  0  0  0  0
 25 14  1  0  0  0  0
 26 25  2  0  0  0  0
 27 13  1  0  0  0  0
 29 15  1  0  0  0  0
 30 15  1  0  0  0  0
 34 21  1  0  0  0  0
 35 22  1  0  0  0  0
 36 23  1  0  0  0  0
 37 52  1  0  0  0  0
 38 53  1  6  0  0  0
 38 37  1  0  0  0  0
 38 49  1  0  0  0  0
 39 54  1  0  0  0  0
 39 38  1  0  0  0  0
 40 39  1  0  0  0  0
 41 56  1  0  0  0  0
 41 40  2  0  0  0  0
 42 41  1  0  0  0  0
 43 42  1  0  0  0  0
 43 48  1  0  0  0  0
 44 45  1  0  0  0  0
 44 43  2  0  0  0  0
 45 46  2  0  0  0  0
 46 60  1  0  0  0  0
 46 47  1  0  0  0  0
 47 61  1  0  0  0  0
 48 47  2  0  0  0  0
 48 40  1  0  0  0  0
 49 50  2  0  0  0  0
 49 51  1  0  0  0  0
 55 39  1  0  0  0  0
 57 42  1  0  0  0  0
 58 44  1  0  0  0  0
 59 45  1  0  0  0  0
M  END
$$$$
