CYA.pdb
 OpenBabel07022418293D

 44 44  0  0  1  0  0  0  0  0999 V2000
    4.5120    0.6140    3.1540 N   0  0  0  0  0  0  0  0  0  0  0  0
    4.1470   -0.7820    3.2720 C   0  0  1  0  0  0  0  0  0  0  0  0
    3.8990   -1.0560    4.7480 C   0  0  0  0  0  0  0  0  0  0  0  0
    3.4390   -2.8120    4.9020 S   0  0  0  0  0  0  0  0  0  0  0  0
    2.8900   -1.0940    2.5580 C   0  0  0  0  0  0  0  0  0  0  0  0
    2.4810   -2.2860    2.5970 O   0  0  0  0  0  0  0  0  0  0  0  0
    3.6990    1.1790    3.5380 H   0  0  0  0  0  0  0  0  0  0  0  0
    5.2950    0.7840    3.8300 H   0  0  0  0  0  0  0  0  0  0  0  0
    4.9870   -1.4320    2.9530 H   0  0  0  0  0  0  0  0  0  0  0  0
    4.7720   -0.7980    5.3730 H   0  0  0  0  0  0  0  0  0  0  0  0
    2.9980   -0.4780    5.0960 H   0  0  0  0  0  0  0  0  0  0  0  0
    2.3870   -2.9740    5.8470 H   0  0  0  0  0  0  0  0  0  0  0  0
   -5.5750   -0.7160    0.2170 O   0  0  0  0  0  0  0  0  0  0  0  0
   -4.2570   -0.4700    0.5980 C   0  0  0  0  0  0  0  0  0  0  0  0
   -3.5350    0.5950    0.1050 C   0  0  0  0  0  0  0  0  0  0  0  0
   -2.2140    0.8310    0.4950 C   0  0  0  0  0  0  0  0  0  0  0  0
   -1.5880   -0.0000    1.3920 C   0  0  0  0  0  0  0  0  0  0  0  0
   -0.2190    0.1980    1.8540 C   0  0  0  0  0  0  0  0  0  0  0  0
    0.8580   -0.5490    1.1410 C   0  0  2  0  0  0  0  0  0  0  0  0
    2.1260   -0.1630    1.8440 N   0  0  0  0  0  0  0  0  0  0  0  0
    1.0230   -0.2620   -0.2860 C   0  0  0  0  0  0  0  0  0  0  0  0
    2.0600    0.3520   -0.7150 O   0  0  0  0  0  0  0  0  0  0  0  0
   -2.3300   -1.0750    1.8840 C   0  0  0  0  0  0  0  0  0  0  0  0
   -3.6290   -1.2970    1.4920 C   0  0  0  0  0  0  0  0  0  0  0  0
   -6.0980    0.0330   -0.2250 H   0  0  0  0  0  0  0  0  0  0  0  0
   -4.0360    1.2430   -0.6000 H   0  0  0  0  0  0  0  0  0  0  0  0
   -1.7010    1.6940    0.0630 H   0  0  0  0  0  0  0  0  0  0  0  0
    0.0270    1.3140    1.8880 H   0  0  0  0  0  0  0  0  0  0  0  0
   -0.1080   -0.0760    2.9540 H   0  0  0  0  0  0  0  0  0  0  0  0
    0.6870   -1.6320    1.3040 H   0  0  0  0  0  0  0  0  0  0  0  0
    2.4430    0.8230    1.7980 H   0  0  0  0  0  0  0  0  0  0  0  0
   -1.8880   -1.7650    2.5940 H   0  0  0  0  0  0  0  0  0  0  0  0
   -4.2090   -2.1330    1.8740 H   0  0  0  0  0  0  0  0  0  0  0  0
    0.6690   -1.6080   -3.4430 C   0  0  0  0  0  0  0  0  0  0  0  0
    0.3770   -0.3100   -2.6830 C   0  0  2  0  0  0  0  0  0  0  0  0
    0.0840   -0.6350   -1.2780 N   0  0  0  0  0  0  0  0  0  0  0  0
   -0.7970    0.2880   -3.3030 C   0  0  0  0  0  0  0  0  0  0  0  0
   -0.7000    0.6510   -4.5220 O   0  0  0  0  0  0  0  0  0  0  0  0
   -2.0050    0.4990   -2.6930 O   0  0  0  0  0  0  0  0  0  0  0  0
    1.7760   -1.8120   -3.4300 H   0  0  0  0  0  0  0  0  0  0  0  0
    0.0930   -2.4330   -2.9830 H   0  0  0  0  0  0  0  0  0  0  0  0
    0.4030   -1.4290   -4.4960 H   0  0  0  0  0  0  0  0  0  0  0  0
    1.2870    0.3050   -2.7640 H   0  0  0  0  0  0  0  0  0  0  0  0
   -0.7970   -1.1340   -1.0350 H   0  0  0  0  0  0  0  0  0  0  0  0
  1  2  1  0  0  0  0
  1  7  1  0  0  0  0
  1  8  1  0  0  0  0
  2  9  1  6  0  0  0
  2  3  1  0  0  0  0
  3  4  1  0  0  0  0
  3 11  1  0  0  0  0
  3 10  1  0  0  0  0
  4 12  1  0  0  0  0
  5  6  2  0  0  0  0
  5  2  1  0  0  0  0
 13 14  1  0  0  0  0
 14 24  1  0  0  0  0
 15 16  1  0  0  0  0
 15 14  2  0  0  0  0
 16 17  2  0  0  0  0
 17 18  1  0  0  0  0
 17 23  1  0  0  0  0
 18 28  1  0  0  0  0
 18 29  1  0  0  0  0
 19 30  1  1  0  0  0
 19 20  1  0  0  0  0
 19 18  1  0  0  0  0
 20  5  1  0  0  0  0
 21 19  1  0  0  0  0
 22 21  2  0  0  0  0
 23 32  1  0  0  0  0
 24 33  1  0  0  0  0
 24 23  2  0  0  0  0
 25 13  1  0  0  0  0
 26 15  1  0  0  0  0
 27 16  1  0  0  0  0
 31 20  1  0  0  0  0
 34 40  1  0  0  0  0
 34 41  1  0  0  0  0
 34 35  1  0  0  0  0
 35 43  1  6  0  0  0
 35 36  1  0  0  0  0
 36 44  1  0  0  0  0
 36 21  1  0  0  0  0
 37 39  1  0  0  0  0
 37 35  1  0  0  0  0
 38 37  2  0  0  0  0
 42 34  1  0  0  0  0
M  END
$$$$
