CYC.pdb
 OpenBabel07022418293D

 45 45  0  0  1  0  0  0  0  0999 V2000
    1.1390   -4.1660    2.7020 N   0  0  0  0  0  0  0  0  0  0  0  0
    2.0260   -3.1330    3.1540 C   0  0  1  0  0  0  0  0  0  0  0  0
    3.4650   -3.6560    3.1570 C   0  0  0  0  0  0  0  0  0  0  0  0
    4.6120   -2.3810    3.7200 S   0  0  0  0  0  0  0  0  0  0  0  0
    1.9070   -1.8850    2.3990 C   0  0  0  0  0  0  0  0  0  0  0  0
    2.6390   -0.9190    2.7150 O   0  0  0  0  0  0  0  0  0  0  0  0
    1.3940   -4.5540    1.7700 H   0  0  0  0  0  0  0  0  0  0  0  0
    1.1320   -4.9530    3.3770 H   0  0  0  0  0  0  0  0  0  0  0  0
    1.7840   -2.9300    4.2230 H   0  0  0  0  0  0  0  0  0  0  0  0
    3.6900   -3.9120    2.0970 H   0  0  0  0  0  0  0  0  0  0  0  0
    3.5580   -4.5370    3.8220 H   0  0  0  0  0  0  0  0  0  0  0  0
    5.5340   -2.0530    2.6970 H   0  0  0  0  0  0  0  0  0  0  0  0
    0.9200    4.0910   -3.9930 O   0  0  0  0  0  0  0  0  0  0  0  0
    1.0040    2.9240   -3.2220 C   0  0  0  0  0  0  0  0  0  0  0  0
    2.1580    2.6120   -2.5400 C   0  0  0  0  0  0  0  0  0  0  0  0
    2.2250    1.4590   -1.7840 C   0  0  0  0  0  0  0  0  0  0  0  0
    1.1570    0.5740   -1.6750 C   0  0  0  0  0  0  0  0  0  0  0  0
    1.2680   -0.6390   -0.8680 C   0  0  0  0  0  0  0  0  0  0  0  0
    0.8830   -0.4730    0.5710 C   0  0  2  0  0  0  0  0  0  0  0  0
    1.0070   -1.6900    1.3170 N   0  0  0  0  0  0  0  0  0  0  0  0
   -0.4740    0.0870    0.7790 C   0  0  0  0  0  0  0  0  0  0  0  0
   -0.8590    1.1610    0.2500 O   0  0  0  0  0  0  0  0  0  0  0  0
    0.0080    0.9020   -2.3650 C   0  0  0  0  0  0  0  0  0  0  0  0
   -0.0700    2.0520   -3.1230 C   0  0  0  0  0  0  0  0  0  0  0  0
    1.4390    4.0720   -4.8680 H   0  0  0  0  0  0  0  0  0  0  0  0
    3.0050    3.3030   -2.6200 H   0  0  0  0  0  0  0  0  0  0  0  0
    3.1570    1.2430   -1.2560 H   0  0  0  0  0  0  0  0  0  0  0  0
    2.3240   -0.9800   -0.8790 H   0  0  0  0  0  0  0  0  0  0  0  0
    0.5830   -1.4010   -1.3040 H   0  0  0  0  0  0  0  0  0  0  0  0
    1.6210    0.2610    1.0110 H   0  0  0  0  0  0  0  0  0  0  0  0
    0.4010   -2.5020    1.0620 H   0  0  0  0  0  0  0  0  0  0  0  0
   -0.8690    0.2710   -2.3390 H   0  0  0  0  0  0  0  0  0  0  0  0
   -0.9760    2.3280   -3.6780 H   0  0  0  0  0  0  0  0  0  0  0  0
   -1.4290   -0.5890    1.6110 N   0  0  0  0  0  0  0  0  0  0  0  0
   -2.7570   -0.0730    1.8330 C   0  0  1  0  0  0  0  0  0  0  0  0
   -3.8290   -1.0720    1.4650 C   0  0  0  0  0  0  0  0  0  0  0  0
   -5.4440   -0.3130    1.7860 S   0  0  0  0  0  0  0  0  0  0  0  0
   -2.9240    0.2410    3.2710 C   0  0  0  0  0  0  0  0  0  0  0  0
   -1.9690    0.0360    4.0590 O   0  0  0  0  0  0  0  0  0  0  0  0
   -4.0880    0.7540    3.8070 O   0  0  0  0  0  0  0  0  0  0  0  0
   -1.0880   -1.4790    2.0390 H   0  0  0  0  0  0  0  0  0  0  0  0
   -2.8810    0.8730    1.2790 H   0  0  0  0  0  0  0  0  0  0  0  0
   -3.7160   -1.9380    2.1680 H   0  0  0  0  0  0  0  0  0  0  0  0
   -3.7690   -1.4310    0.4370 H   0  0  0  0  0  0  0  0  0  0  0  0
   -5.5880    0.8930    1.0940 H   0  0  0  0  0  0  0  0  0  0  0  0
  1  2  1  0  0  0  0
  1  8  1  0  0  0  0
  2  3  1  0  0  0  0
  2  9  1  1  0  0  0
  3  4  1  0  0  0  0
  3 11  1  0  0  0  0
  5  6  2  0  0  0  0
  5  2  1  0  0  0  0
  7  1  1  0  0  0  0
 10  3  1  0  0  0  0
 12  4  1  0  0  0  0
 13 14  1  0  0  0  0
 14 24  2  0  0  0  0
 14 15  1  0  0  0  0
 15 16  2  0  0  0  0
 16 17  1  0  0  0  0
 16 27  1  0  0  0  0
 17 18  1  0  0  0  0
 18 19  1  0  0  0  0
 19 21  1  0  0  0  0
 19 30  1  1  0  0  0
 19 20  1  0  0  0  0
 20  5  1  0  0  0  0
 21 34  1  0  0  0  0
 22 21  2  0  0  0  0
 23 32  1  0  0  0  0
 23 17  2  0  0  0  0
 24 23  1  0  0  0  0
 25 13  1  0  0  0  0
 26 15  1  0  0  0  0
 28 18  1  0  0  0  0
 29 18  1  0  0  0  0
 31 20  1  0  0  0  0
 33 24  1  0  0  0  0
 34 35  1  0  0  0  0
 34 41  1  0  0  0  0
 35 42  1  6  0  0  0
 35 38  1  0  0  0  0
 36 37  1  0  0  0  0
 36 35  1  0  0  0  0
 36 43  1  0  0  0  0
 38 40  2  0  0  0  0
 38 39  1  0  0  0  0
 44 36  1  0  0  0  0
 45 37  1  0  0  0  0
M  END
$$$$
