CYD.pdb
 OpenBabel07022418293D

 47 47  0  0  1  0  0  0  0  0999 V2000
    1.5990    2.2270    3.6530 N   0  0  0  0  0  0  0  0  0  0  0  0
    1.0030    0.9450    3.2390 C   0  0  1  0  0  0  0  0  0  0  0  0
   -0.2820    0.8210    3.9730 C   0  0  0  0  0  0  0  0  0  0  0  0
   -1.2060   -0.6900    3.6550 S   0  0  0  0  0  0  0  0  0  0  0  0
    0.9690    0.8360    1.7870 C   0  0  0  0  0  0  0  0  0  0  0  0
    1.3790    1.7850    1.0180 O   0  0  0  0  0  0  0  0  0  0  0  0
    1.7320    2.1430    4.6840 H   0  0  0  0  0  0  0  0  0  0  0  0
    0.8340    2.9390    3.5150 H   0  0  0  0  0  0  0  0  0  0  0  0
    1.7100    0.1720    3.6390 H   0  0  0  0  0  0  0  0  0  0  0  0
   -0.9010    1.7340    3.7580 H   0  0  0  0  0  0  0  0  0  0  0  0
   -0.0460    0.8260    5.0820 H   0  0  0  0  0  0  0  0  0  0  0  0
   -0.5320   -1.8330    4.0830 H   0  0  0  0  0  0  0  0  0  0  0  0
    6.6930   -1.3700    0.9140 O   0  0  0  0  0  0  0  0  0  0  0  0
    5.3510   -1.4460    0.5190 C   0  0  0  0  0  0  0  0  0  0  0  0
    4.9520   -0.9720   -0.7110 C   0  0  0  0  0  0  0  0  0  0  0  0
    3.6230   -1.0580   -1.0800 C   0  0  0  0  0  0  0  0  0  0  0  0
    2.6620   -1.6020   -0.2620 C   0  0  0  0  0  0  0  0  0  0  0  0
    1.2520   -1.6700   -0.7020 C   0  0  0  0  0  0  0  0  0  0  0  0
    0.4580   -0.4450   -0.3120 C   0  0  2  0  0  0  0  0  0  0  0  0
    0.4860   -0.3190    1.1360 N   0  0  0  0  0  0  0  0  0  0  0  0
   -0.8720   -0.5040   -0.9030 C   0  0  0  0  0  0  0  0  0  0  0  0
   -0.9410   -0.6540   -2.1600 O   0  0  0  0  0  0  0  0  0  0  0  0
    3.0590   -2.0820    0.9800 C   0  0  0  0  0  0  0  0  0  0  0  0
    4.3870   -1.9910    1.3360 C   0  0  0  0  0  0  0  0  0  0  0  0
    7.3960   -1.6270    0.2440 H   0  0  0  0  0  0  0  0  0  0  0  0
    5.6990   -0.5420   -1.3620 H   0  0  0  0  0  0  0  0  0  0  0  0
    3.3740   -0.6640   -2.0660 H   0  0  0  0  0  0  0  0  0  0  0  0
    1.1930   -1.7130   -1.8310 H   0  0  0  0  0  0  0  0  0  0  0  0
    0.7670   -2.6100   -0.3680 H   0  0  0  0  0  0  0  0  0  0  0  0
    0.9800    0.4330   -0.7960 H   0  0  0  0  0  0  0  0  0  0  0  0
    0.1300   -1.1540    1.6460 H   0  0  0  0  0  0  0  0  0  0  0  0
    2.3230   -2.5200    1.6530 H   0  0  0  0  0  0  0  0  0  0  0  0
    4.7130   -2.3640    2.3070 H   0  0  0  0  0  0  0  0  0  0  0  0
   -2.0510   -0.4050   -0.1710 N   0  0  0  0  0  0  0  0  0  0  0  0
   -3.4070   -0.4600   -0.7350 C   0  0  1  0  0  0  0  0  0  0  0  0
   -4.0760   -1.6780   -0.1560 C   0  0  0  0  0  0  0  0  0  0  0  0
   -5.4560   -1.9000   -0.6100 C   0  0  0  0  0  0  0  0  0  0  0  0
   -6.4080   -1.2570   -0.1160 O   0  0  0  0  0  0  0  0  0  0  0  0
   -4.1270    0.7940   -0.4690 C   0  0  0  0  0  0  0  0  0  0  0  0
   -5.2890    0.9620   -0.8730 O   0  0  0  0  0  0  0  0  0  0  0  0
   -5.7560   -2.8320   -1.6040 O   0  0  0  0  0  0  0  0  0  0  0  0
   -3.5120    1.8100    0.2410 O   0  0  0  0  0  0  0  0  0  0  0  0
   -2.0230   -0.2790    0.8520 H   0  0  0  0  0  0  0  0  0  0  0  0
   -3.2600   -0.6170   -1.8280 H   0  0  0  0  0  0  0  0  0  0  0  0
   -3.4140   -2.5620   -0.4020 H   0  0  0  0  0  0  0  0  0  0  0  0
   -4.0060   -1.5870    0.9570 H   0  0  0  0  0  0  0  0  0  0  0  0
   -6.6870   -2.9910   -1.9430 H   0  0  0  0  0  0  0  0  0  0  0  0
  1  7  1  0  0  0  0
  2  9  1  1  0  0  0
  2  1  1  0  0  0  0
  2  3  1  0  0  0  0
  3 11  1  0  0  0  0
  4  3  1  0  0  0  0
  4 12  1  0  0  0  0
  5  2  1  0  0  0  0
  6  5  2  0  0  0  0
  8  1  1  0  0  0  0
 10  3  1  0  0  0  0
 14 13  1  0  0  0  0
 14 24  1  0  0  0  0
 15 14  2  0  0  0  0
 16 15  1  0  0  0  0
 16 17  2  0  0  0  0
 17 23  1  0  0  0  0
 18 29  1  0  0  0  0
 18 19  1  0  0  0  0
 18 17  1  0  0  0  0
 19 30  1  6  0  0  0
 19 20  1  0  0  0  0
 20 31  1  0  0  0  0
 20  5  1  0  0  0  0
 21 19  1  0  0  0  0
 21 34  1  0  0  0  0
 22 21  2  0  0  0  0
 23 24  2  0  0  0  0
 23 32  1  0  0  0  0
 24 33  1  0  0  0  0
 25 13  1  0  0  0  0
 26 15  1  0  0  0  0
 27 16  1  0  0  0  0
 28 18  1  0  0  0  0
 34 43  1  0  0  0  0
 35 44  1  6  0  0  0
 35 39  1  0  0  0  0
 35 34  1  0  0  0  0
 35 36  1  0  0  0  0
 36 46  1  0  0  0  0
 37 36  1  0  0  0  0
 37 38  2  0  0  0  0
 39 42  1  0  0  0  0
 40 39  2  0  0  0  0
 41 37  1  0  0  0  0
 45 36  1  0  0  0  0
 47 41  1  0  0  0  0
M  END
$$$$
