CYE.pdb
 OpenBabel07022418293D

 50 50  0  0  1  0  0  0  0  0999 V2000
    1.2310   -1.4850    4.7920 N   0  0  0  0  0  0  0  0  0  0  0  0
    1.0870   -1.7190    3.3780 C   0  0  1  0  0  0  0  0  0  0  0  0
    0.0360   -2.7790    3.1440 C   0  0  0  0  0  0  0  0  0  0  0  0
    0.4990   -4.3480    3.9480 S   0  0  0  0  0  0  0  0  0  0  0  0
    0.6620   -0.5030    2.6360 C   0  0  0  0  0  0  0  0  0  0  0  0
    0.4950    0.6090    3.2110 O   0  0  0  0  0  0  0  0  0  0  0  0
    2.2490   -1.4080    5.0060 H   0  0  0  0  0  0  0  0  0  0  0  0
    0.8500   -2.2620    5.3850 H   0  0  0  0  0  0  0  0  0  0  0  0
    2.0280   -2.1140    2.9270 H   0  0  0  0  0  0  0  0  0  0  0  0
   -0.9720   -2.4690    3.4600 H   0  0  0  0  0  0  0  0  0  0  0  0
   -0.0250   -2.9700    2.0340 H   0  0  0  0  0  0  0  0  0  0  0  0
    1.2040   -5.1320    3.0130 H   0  0  0  0  0  0  0  0  0  0  0  0
    6.2210    2.0030    0.9720 O   0  0  0  0  0  0  0  0  0  0  0  0
    4.9090    1.7240    0.5590 C   0  0  0  0  0  0  0  0  0  0  0  0
    4.5310    0.4290    0.2850 C   0  0  0  0  0  0  0  0  0  0  0  0
    3.2360    0.1990   -0.1160 C   0  0  0  0  0  0  0  0  0  0  0  0
    2.3100    1.2040   -0.2540 C   0  0  0  0  0  0  0  0  0  0  0  0
    0.9430    0.8630   -0.6900 C   0  0  0  0  0  0  0  0  0  0  0  0
    0.0220    0.5460    0.4480 C   0  0  2  0  0  0  0  0  0  0  0  0
    0.4280   -0.5560    1.2490 N   0  0  0  0  0  0  0  0  0  0  0  0
   -1.4030    0.4250   -0.0140 C   0  0  0  0  0  0  0  0  0  0  0  0
   -1.9160    1.3000   -0.7460 O   0  0  0  0  0  0  0  0  0  0  0  0
    2.6820    2.4990    0.0190 C   0  0  0  0  0  0  0  0  0  0  0  0
    3.9790    2.7310    0.4210 C   0  0  0  0  0  0  0  0  0  0  0  0
    6.8310    1.2770    1.3200 H   0  0  0  0  0  0  0  0  0  0  0  0
    5.2690   -0.3600    0.3970 H   0  0  0  0  0  0  0  0  0  0  0  0
    2.9960   -0.8440   -0.3180 H   0  0  0  0  0  0  0  0  0  0  0  0
    1.0110   -0.0510   -1.3180 H   0  0  0  0  0  0  0  0  0  0  0  0
    0.5290    1.7250   -1.2770 H   0  0  0  0  0  0  0  0  0  0  0  0
    0.0130    1.4500    1.1250 H   0  0  0  0  0  0  0  0  0  0  0  0
    0.5650   -1.4860    0.7520 H   0  0  0  0  0  0  0  0  0  0  0  0
    1.9570    3.3120   -0.0860 H   0  0  0  0  0  0  0  0  0  0  0  0
    4.2620    3.7710    0.6350 H   0  0  0  0  0  0  0  0  0  0  0  0
   -2.2120   -0.6760    0.3610 N   0  0  0  0  0  0  0  0  0  0  0  0
   -3.5640   -0.7630   -0.0920 C   0  0  1  0  0  0  0  0  0  0  0  0
   -3.8580   -1.8860   -1.0390 C   0  0  0  0  0  0  0  0  0  0  0  0
   -3.1470   -1.9240   -2.3280 C   0  0  0  0  0  0  0  0  0  0  0  0
   -1.7000   -2.1180   -2.3300 C   0  0  0  0  0  0  0  0  0  0  0  0
   -1.0780   -2.4360   -1.3080 O   0  0  0  0  0  0  0  0  0  0  0  0
   -4.5270   -0.7700    1.0570 C   0  0  0  0  0  0  0  0  0  0  0  0
   -5.7410   -0.8550    0.8440 O   0  0  0  0  0  0  0  0  0  0  0  0
   -0.9300   -1.9540   -3.4930 O   0  0  0  0  0  0  0  0  0  0  0  0
   -4.0340   -0.6810    2.3280 O   0  0  0  0  0  0  0  0  0  0  0  0
   -1.8070   -1.4300    1.0070 H   0  0  0  0  0  0  0  0  0  0  0  0
   -3.7700    0.1770   -0.7120 H   0  0  0  0  0  0  0  0  0  0  0  0
   -4.9700   -1.9670   -1.1450 H   0  0  0  0  0  0  0  0  0  0  0  0
   -3.5850   -2.8590   -0.5040 H   0  0  0  0  0  0  0  0  0  0  0  0
   -3.4140   -1.0460   -2.9900 H   0  0  0  0  0  0  0  0  0  0  0  0
   -3.5600   -2.8370   -2.8790 H   0  0  0  0  0  0  0  0  0  0  0  0
    0.0440   -2.2270   -3.4970 H   0  0  0  0  0  0  0  0  0  0  0  0
  1  7  1  0  0  0  0
  1  8  1  0  0  0  0
  2  9  1  6  0  0  0
  2  1  1  0  0  0  0
  3  2  1  0  0  0  0
  3 10  1  0  0  0  0
  3  4  1  0  0  0  0
  5  6  2  0  0  0  0
  5  2  1  0  0  0  0
 11  3  1  0  0  0  0
 12  4  1  0  0  0  0
 13 25  1  0  0  0  0
 14 13  1  0  0  0  0
 15 26  1  0  0  0  0
 15 14  2  0  0  0  0
 16 15  1  0  0  0  0
 17 16  2  0  0  0  0
 17 23  1  0  0  0  0
 18 17  1  0  0  0  0
 18 19  1  0  0  0  0
 19 30  1  1  0  0  0
 19 20  1  0  0  0  0
 20  5  1  0  0  0  0
 21 34  1  0  0  0  0
 21 19  1  0  0  0  0
 22 21  2  0  0  0  0
 23 24  2  0  0  0  0
 24 14  1  0  0  0  0
 24 33  1  0  0  0  0
 27 16  1  0  0  0  0
 28 18  1  0  0  0  0
 29 18  1  0  0  0  0
 31 20  1  0  0  0  0
 32 23  1  0  0  0  0
 34 44  1  0  0  0  0
 35 45  1  6  0  0  0
 35 34  1  0  0  0  0
 35 40  1  0  0  0  0
 36 47  1  0  0  0  0
 36 35  1  0  0  0  0
 37 36  1  0  0  0  0
 38 37  1  0  0  0  0
 38 39  2  0  0  0  0
 40 43  1  0  0  0  0
 41 40  2  0  0  0  0
 42 38  1  0  0  0  0
 46 36  1  0  0  0  0
 48 37  1  0  0  0  0
 49 37  1  0  0  0  0
 50 42  1  0  0  0  0
M  END
$$$$
