CYF.pdb
 OpenBabel07022418303D

 54 55  0  0  1  0  0  0  0  0999 V2000
    4.3160   -0.2560    2.4320 N   0  0  0  0  0  0  0  0  0  0  0  0
    3.6230   -1.3880    2.9770 C   0  0  1  0  0  0  0  0  0  0  0  0
    3.6850   -1.3110    4.5020 C   0  0  0  0  0  0  0  0  0  0  0  0
    2.8060   -2.7460    5.2200 S   0  0  0  0  0  0  0  0  0  0  0  0
    2.2040   -1.4080    2.5400 C   0  0  0  0  0  0  0  0  0  0  0  0
    1.4400   -2.3310    2.9230 O   0  0  0  0  0  0  0  0  0  0  0  0
    4.2910    0.5810    3.0380 H   0  0  0  0  0  0  0  0  0  0  0  0
    5.2780   -0.4670    2.0920 H   0  0  0  0  0  0  0  0  0  0  0  0
    4.1480   -2.3420    2.7130 H   0  0  0  0  0  0  0  0  0  0  0  0
    3.2010   -0.3830    4.8770 H   0  0  0  0  0  0  0  0  0  0  0  0
    4.7130   -1.3320    4.8610 H   0  0  0  0  0  0  0  0  0  0  0  0
    2.7820   -3.7520    4.2470 H   0  0  0  0  0  0  0  0  0  0  0  0
   -0.2530    0.9500    7.4280 O   0  0  0  0  0  0  0  0  0  0  0  0
   -0.2730    0.9460    6.0390 C   0  0  0  0  0  0  0  0  0  0  0  0
    0.7220    1.5180    5.2760 C   0  0  0  0  0  0  0  0  0  0  0  0
    0.6820    1.5030    3.8970 C   0  0  0  0  0  0  0  0  0  0  0  0
   -0.3580    0.9130    3.2090 C   0  0  0  0  0  0  0  0  0  0  0  0
   -0.3930    0.9020    1.7190 C   0  0  0  0  0  0  0  0  0  0  0  0
    0.3200   -0.3680    1.2340 C   0  0  2  0  0  0  0  0  0  0  0  0
    1.6920   -0.3880    1.6840 N   0  0  0  0  0  0  0  0  0  0  0  0
    0.2330   -0.4660   -0.2520 C   0  0  0  0  0  0  0  0  0  0  0  0
    1.2780   -0.5520   -0.9690 O   0  0  0  0  0  0  0  0  0  0  0  0
   -1.3540    0.3410    3.9720 C   0  0  0  0  0  0  0  0  0  0  0  0
   -1.3140    0.3560    5.3510 C   0  0  0  0  0  0  0  0  0  0  0  0
   -1.1250    0.8830    7.9480 H   0  0  0  0  0  0  0  0  0  0  0  0
    1.5420    1.9830    5.7990 H   0  0  0  0  0  0  0  0  0  0  0  0
    1.4670    1.9540    3.2890 H   0  0  0  0  0  0  0  0  0  0  0  0
    0.1130    1.7940    1.3250 H   0  0  0  0  0  0  0  0  0  0  0  0
   -1.4620    0.8520    1.4330 H   0  0  0  0  0  0  0  0  0  0  0  0
   -0.1910   -1.2500    1.6710 H   0  0  0  0  0  0  0  0  0  0  0  0
    2.3550    0.3640    1.3850 H   0  0  0  0  0  0  0  0  0  0  0  0
   -2.1860   -0.1310    3.4410 H   0  0  0  0  0  0  0  0  0  0  0  0
   -2.1130   -0.1030    5.9460 H   0  0  0  0  0  0  0  0  0  0  0  0
   -1.0080   -0.4680   -0.9370 N   0  0  0  0  0  0  0  0  0  0  0  0
   -1.0960   -0.5650   -2.4040 C   0  0  1  0  0  0  0  0  0  0  0  0
   -1.9220   -1.8050   -2.6670 C   0  0  0  0  0  0  0  0  0  0  0  0
   -2.1430   -2.1000   -4.0820 C   0  0  0  0  0  0  0  0  0  0  0  0
   -1.2570   -2.8720   -4.8010 C   0  0  0  0  0  0  0  0  0  0  0  0
   -1.4400   -3.1720   -6.1320 C   0  0  0  0  0  0  0  0  0  0  0  0
   -2.5520   -2.6860   -6.7800 C   0  0  0  0  0  0  0  0  0  0  0  0
   -3.4610   -1.9090   -6.0890 C   0  0  0  0  0  0  0  0  0  0  0  0
   -3.2520   -1.6180   -4.7360 C   0  0  0  0  0  0  0  0  0  0  0  0
   -1.8160    0.6440   -2.8610 C   0  0  0  0  0  0  0  0  0  0  0  0
   -2.0400    0.8730   -4.0840 O   0  0  0  0  0  0  0  0  0  0  0  0
   -2.3020    1.6200   -1.9790 O   0  0  0  0  0  0  0  0  0  0  0  0
   -1.9030   -0.4010   -0.4230 H   0  0  0  0  0  0  0  0  0  0  0  0
   -0.0920   -0.6270   -2.8460 H   0  0  0  0  0  0  0  0  0  0  0  0
   -2.9210   -1.6700   -2.1700 H   0  0  0  0  0  0  0  0  0  0  0  0
   -1.4830   -2.7000   -2.1640 H   0  0  0  0  0  0  0  0  0  0  0  0
   -0.3610   -3.2770   -4.3210 H   0  0  0  0  0  0  0  0  0  0  0  0
   -0.7370   -3.7780   -6.6830 H   0  0  0  0  0  0  0  0  0  0  0  0
   -2.7040   -2.9210   -7.8440 H   0  0  0  0  0  0  0  0  0  0  0  0
   -4.3200   -1.5420   -6.6190 H   0  0  0  0  0  0  0  0  0  0  0  0
   -4.0040   -1.0150   -4.2750 H   0  0  0  0  0  0  0  0  0  0  0  0
  1  2  1  0  0  0  0
  1  7  1  0  0  0  0
  2  9  1  6  0  0  0
  2  3  1  0  0  0  0
  3 11  1  0  0  0  0
  3 10  1  0  0  0  0
  3  4  1  0  0  0  0
  5  6  2  0  0  0  0
  5  2  1  0  0  0  0
  8  1  1  0  0  0  0
 12  4  1  0  0  0  0
 13 25  1  0  0  0  0
 14 13  1  0  0  0  0
 15 26  1  0  0  0  0
 15 14  2  0  0  0  0
 16 15  1  0  0  0  0
 17 16  2  0  0  0  0
 17 23  1  0  0  0  0
 18 17  1  0  0  0  0
 19 30  1  1  0  0  0
 19 20  1  0  0  0  0
 19 18  1  0  0  0  0
 20  5  1  0  0  0  0
 21 19  1  0  0  0  0
 22 21  2  0  0  0  0
 23 24  2  0  0  0  0
 24 33  1  0  0  0  0
 24 14  1  0  0  0  0
 27 16  1  0  0  0  0
 28 18  1  0  0  0  0
 29 18  1  0  0  0  0
 31 20  1  0  0  0  0
 32 23  1  0  0  0  0
 34 46  1  0  0  0  0
 34 21  1  0  0  0  0
 35 47  1  6  0  0  0
 35 34  1  0  0  0  0
 36 35  1  0  0  0  0
 36 48  1  0  0  0  0
 36 49  1  0  0  0  0
 37 36  1  0  0  0  0
 38 50  1  0  0  0  0
 38 37  2  0  0  0  0
 39 38  1  0  0  0  0
 40 39  2  0  0  0  0
 40 41  1  0  0  0  0
 41 42  2  0  0  0  0
 42 54  1  0  0  0  0
 42 37  1  0  0  0  0
 43 35  1  0  0  0  0
 43 45  1  0  0  0  0
 44 43  2  0  0  0  0
 51 39  1  0  0  0  0
 52 40  1  0  0  0  0
 53 41  1  0  0  0  0
M  END
$$$$
