CYG.pdb
 OpenBabel07022418293D

 41 41  0  0  1  0  0  0  0  0999 V2000
    5.4590   -0.6850    2.4190 N   0  0  0  0  0  0  0  0  0  0  0  0
    4.6890   -0.8830    1.1910 C   0  0  1  0  0  0  0  0  0  0  0  0
    4.7620   -2.3950    0.9360 C   0  0  0  0  0  0  0  0  0  0  0  0
    3.8660   -2.8720   -0.5610 S   0  0  0  0  0  0  0  0  0  0  0  0
    3.2820   -0.5380    1.4010 C   0  0  0  0  0  0  0  0  0  0  0  0
    2.9060   -0.2200    2.5820 O   0  0  0  0  0  0  0  0  0  0  0  0
    6.4530   -0.6570    2.1580 H   0  0  0  0  0  0  0  0  0  0  0  0
    5.2180   -1.3660    3.1520 H   0  0  0  0  0  0  0  0  0  0  0  0
    5.2040   -0.3540    0.3940 H   0  0  0  0  0  0  0  0  0  0  0  0
    5.8250   -2.7260    0.8780 H   0  0  0  0  0  0  0  0  0  0  0  0
    4.3220   -2.9530    1.7870 H   0  0  0  0  0  0  0  0  0  0  0  0
    2.7710   -3.7260   -0.2540 H   0  0  0  0  0  0  0  0  0  0  0  0
   -4.9130    2.5530    0.8410 O   0  0  0  0  0  0  0  0  0  0  0  0
   -3.5760    2.2000    0.6350 C   0  0  0  0  0  0  0  0  0  0  0  0
   -3.1840    1.4690   -0.4660 C   0  0  0  0  0  0  0  0  0  0  0  0
   -1.8660    1.1210   -0.6690 C   0  0  0  0  0  0  0  0  0  0  0  0
   -0.8610    1.4950    0.2360 C   0  0  0  0  0  0  0  0  0  0  0  0
    0.5270    1.1040   -0.0180 C   0  0  0  0  0  0  0  0  0  0  0  0
    0.8670   -0.1510    0.7370 C   0  0  2  0  0  0  0  0  0  0  0  0
    2.2760   -0.5150    0.4270 N   0  0  0  0  0  0  0  0  0  0  0  0
    0.0440   -1.2780    0.3010 C   0  0  0  0  0  0  0  0  0  0  0  0
    0.5170   -2.1560   -0.4530 O   0  0  0  0  0  0  0  0  0  0  0  0
   -1.2750    2.2240    1.3270 C   0  0  0  0  0  0  0  0  0  0  0  0
   -2.5940    2.5710    1.5280 C   0  0  0  0  0  0  0  0  0  0  0  0
   -5.4720    2.0440    1.5320 H   0  0  0  0  0  0  0  0  0  0  0  0
   -3.9720    1.1830   -1.1620 H   0  0  0  0  0  0  0  0  0  0  0  0
   -1.5640    0.5480   -1.5320 H   0  0  0  0  0  0  0  0  0  0  0  0
    0.6370    0.9770   -1.1190 H   0  0  0  0  0  0  0  0  0  0  0  0
    1.2320    1.9250    0.2460 H   0  0  0  0  0  0  0  0  0  0  0  0
    0.7900    0.0790    1.8170 H   0  0  0  0  0  0  0  0  0  0  0  0
    2.5040   -0.7530   -0.5490 H   0  0  0  0  0  0  0  0  0  0  0  0
   -0.5020    2.5240    2.0430 H   0  0  0  0  0  0  0  0  0  0  0  0
   -2.9100    3.1490    2.3950 H   0  0  0  0  0  0  0  0  0  0  0  0
   -1.2970   -1.3950    0.7290 N   0  0  0  0  0  0  0  0  0  0  0  0
   -2.0690   -2.5350    0.2530 C   0  0  0  0  0  0  0  0  0  0  0  0
   -1.4310   -3.8040    0.6820 C   0  0  0  0  0  0  0  0  0  0  0  0
   -1.9420   -4.9080    0.3710 O   0  0  0  0  0  0  0  0  0  0  0  0
   -0.2660   -3.8170    1.4320 O   0  0  0  0  0  0  0  0  0  0  0  0
   -1.7620   -0.7180    1.3890 H   0  0  0  0  0  0  0  0  0  0  0  0
   -2.0740   -2.4910   -0.8540 H   0  0  0  0  0  0  0  0  0  0  0  0
   -3.1270   -2.4570    0.6010 H   0  0  0  0  0  0  0  0  0  0  0  0
  1  8  1  0  0  0  0
  2  9  1  6  0  0  0
  2  5  1  0  0  0  0
  2  1  1  0  0  0  0
  3  2  1  0  0  0  0
  3 11  1  0  0  0  0
  4 12  1  0  0  0  0
  4  3  1  0  0  0  0
  5  6  2  0  0  0  0
  7  1  1  0  0  0  0
 10  3  1  0  0  0  0
 13 25  1  0  0  0  0
 14 13  1  0  0  0  0
 14 24  1  0  0  0  0
 15 14  2  0  0  0  0
 16 15  1  0  0  0  0
 16 17  2  0  0  0  0
 17 23  1  0  0  0  0
 18 17  1  0  0  0  0
 18 29  1  0  0  0  0
 18 19  1  0  0  0  0
 19 30  1  1  0  0  0
 20 19  1  0  0  0  0
 20  5  1  0  0  0  0
 21 34  1  0  0  0  0
 21 19  1  0  0  0  0
 22 21  2  0  0  0  0
 23 24  2  0  0  0  0
 23 32  1  0  0  0  0
 24 33  1  0  0  0  0
 26 15  1  0  0  0  0
 27 16  1  0  0  0  0
 28 18  1  0  0  0  0
 31 20  1  0  0  0  0
 34 39  1  0  0  0  0
 35 41  1  0  0  0  0
 35 36  1  0  0  0  0
 35 34  1  0  0  0  0
 36 38  1  0  0  0  0
 37 36  2  0  0  0  0
 40 35  1  0  0  0  0
M  END
$$$$
