CYH.pdb
 OpenBabel07022418303D

 51 52  0  0  1  0  0  0  0  0999 V2000
    3.5110   -2.4390    4.0180 N   0  0  0  0  0  0  0  0  0  0  0  0
    3.2950   -1.5600    2.8540 C   0  0  1  0  0  0  0  0  0  0  0  0
    3.8300   -2.3620    1.6800 C   0  0  0  0  0  0  0  0  0  0  0  0
    3.6750   -1.4740    0.1160 S   0  0  0  0  0  0  0  0  0  0  0  0
    1.8280   -1.3580    2.7380 C   0  0  0  0  0  0  0  0  0  0  0  0
    1.0500   -2.0100    3.5220 O   0  0  0  0  0  0  0  0  0  0  0  0
    3.0620   -2.0420    4.8640 H   0  0  0  0  0  0  0  0  0  0  0  0
    3.1500   -3.3720    3.7410 H   0  0  0  0  0  0  0  0  0  0  0  0
    3.8650   -0.6370    2.9510 H   0  0  0  0  0  0  0  0  0  0  0  0
    3.3330   -3.3640    1.6230 H   0  0  0  0  0  0  0  0  0  0  0  0
    4.9050   -2.5780    1.8380 H   0  0  0  0  0  0  0  0  0  0  0  0
    3.3690   -2.3750   -0.9300 H   0  0  0  0  0  0  0  0  0  0  0  0
    1.7530    5.1310   -1.1990 O   0  0  0  0  0  0  0  0  0  0  0  0
    1.1750    4.1460   -0.4100 C   0  0  0  0  0  0  0  0  0  0  0  0
    1.7560    3.6860    0.7610 C   0  0  0  0  0  0  0  0  0  0  0  0
    1.1990    2.7130    1.5530 C   0  0  0  0  0  0  0  0  0  0  0  0
    0.0020    2.1480    1.1900 C   0  0  0  0  0  0  0  0  0  0  0  0
   -0.5900    1.0900    2.0670 C   0  0  0  0  0  0  0  0  0  0  0  0
   -0.1310   -0.2920    1.6990 C   0  0  2  0  0  0  0  0  0  0  0  0
    1.2850   -0.4540    1.7750 N   0  0  0  0  0  0  0  0  0  0  0  0
   -0.6790   -0.7940    0.4170 C   0  0  0  0  0  0  0  0  0  0  0  0
    0.0760   -1.2350   -0.4870 O   0  0  0  0  0  0  0  0  0  0  0  0
   -0.6100    2.5680    0.0440 C   0  0  0  0  0  0  0  0  0  0  0  0
   -0.0300    3.5410   -0.7270 C   0  0  0  0  0  0  0  0  0  0  0  0
    1.4610    5.1940   -2.1710 H   0  0  0  0  0  0  0  0  0  0  0  0
    2.7030    4.1410    1.0390 H   0  0  0  0  0  0  0  0  0  0  0  0
    1.7140    2.3850    2.4830 H   0  0  0  0  0  0  0  0  0  0  0  0
   -0.2320    1.3010    3.0930 H   0  0  0  0  0  0  0  0  0  0  0  0
   -1.6880    1.1210    2.0910 H   0  0  0  0  0  0  0  0  0  0  0  0
   -0.5890   -0.9680    2.4810 H   0  0  0  0  0  0  0  0  0  0  0  0
    1.9750    0.0560    1.1660 H   0  0  0  0  0  0  0  0  0  0  0  0
   -1.5760    2.1110   -0.2470 H   0  0  0  0  0  0  0  0  0  0  0  0
   -0.5220    3.8800   -1.6510 H   0  0  0  0  0  0  0  0  0  0  0  0
   -2.0750   -0.8090    0.1430 N   0  0  0  0  0  0  0  0  0  0  0  0
   -2.6070   -1.3090   -1.1130 C   0  0  1  0  0  0  0  0  0  0  0  0
   -3.3800   -2.6030   -0.8910 C   0  0  0  0  0  0  0  0  0  0  0  0
   -2.4760   -3.6160   -0.3140 C   0  0  0  0  0  0  0  0  0  0  0  0
   -1.7050   -4.5110   -1.0050 C   0  0  0  0  0  0  0  0  0  0  0  0
   -1.0190   -5.2670   -0.0980 N   0  0  0  0  0  0  0  0  0  0  0  0
   -1.3720   -4.8310    1.1290 C   0  0  0  0  0  0  0  0  0  0  0  0
   -2.2710   -3.8130    0.9890 N   0  0  0  0  0  0  0  0  0  0  0  0
   -3.5030   -0.3050   -1.7170 C   0  0  0  0  0  0  0  0  0  0  0  0
   -3.7560    0.7890   -1.1770 O   0  0  0  0  0  0  0  0  0  0  0  0
   -4.1160   -0.5520   -2.9460 O   0  0  0  0  0  0  0  0  0  0  0  0
   -2.6970   -0.4410    0.8950 H   0  0  0  0  0  0  0  0  0  0  0  0
   -1.8010   -1.5400   -1.8030 H   0  0  0  0  0  0  0  0  0  0  0  0
   -3.7490   -2.9350   -1.8820 H   0  0  0  0  0  0  0  0  0  0  0  0
   -4.2370   -2.3530   -0.2420 H   0  0  0  0  0  0  0  0  0  0  0  0
   -1.6090   -4.6490   -2.0610 H   0  0  0  0  0  0  0  0  0  0  0  0
   -0.3570   -6.0250   -0.3260 H   0  0  0  0  0  0  0  0  0  0  0  0
   -1.0030   -5.2260    2.0610 H   0  0  0  0  0  0  0  0  0  0  0  0
  1  7  1  0  0  0  0
  2  9  1  1  0  0  0
  2  1  1  0  0  0  0
  3 11  1  0  0  0  0
  3  2  1  0  0  0  0
  4  3  1  0  0  0  0
  5  2  1  0  0  0  0
  5  6  2  0  0  0  0
  8  1  1  0  0  0  0
 10  3  1  0  0  0  0
 12  4  1  0  0  0  0
 13 14  1  0  0  0  0
 14 15  1  0  0  0  0
 15 26  1  0  0  0  0
 15 16  2  0  0  0  0
 16 27  1  0  0  0  0
 17 16  1  0  0  0  0
 17 18  1  0  0  0  0
 18 29  1  0  0  0  0
 18 28  1  0  0  0  0
 19 20  1  0  0  0  0
 19 18  1  0  0  0  0
 19 30  1  1  0  0  0
 20  5  1  0  0  0  0
 21 19  1  0  0  0  0
 22 21  2  0  0  0  0
 23 17  2  0  0  0  0
 24 14  2  0  0  0  0
 24 23  1  0  0  0  0
 25 13  1  0  0  0  0
 31 20  1  0  0  0  0
 32 23  1  0  0  0  0
 33 24  1  0  0  0  0
 34 21  1  0  0  0  0
 34 45  1  0  0  0  0
 35 46  1  6  0  0  0
 35 36  1  0  0  0  0
 35 34  1  0  0  0  0
 36 37  1  0  0  0  0
 36 48  1  0  0  0  0
 37 41  1  0  0  0  0
 38 37  2  0  0  0  0
 38 39  1  0  0  0  0
 39 40  1  0  0  0  0
 40 51  1  0  0  0  0
 41 40  2  0  0  0  0
 42 43  1  0  0  0  0
 42 35  1  0  0  0  0
 44 42  2  0  0  0  0
 47 36  1  0  0  0  0
 49 38  1  0  0  0  0
 50 39  1  0  0  0  0
M  END
$$$$
