CYL.pdb
 OpenBabel07022418303D

 53 53  0  0  1  0  0  0  0  0999 V2000
    2.6550   -3.3990    4.7410 N   0  0  0  0  0  0  0  0  0  0  0  0
    2.7270   -2.6070    3.5130 C   0  0  1  0  0  0  0  0  0  0  0  0
    3.1200   -3.6180    2.4330 C   0  0  0  0  0  0  0  0  0  0  0  0
    3.2790   -2.8740    0.8050 S   0  0  0  0  0  0  0  0  0  0  0  0
    1.4200   -1.9730    3.2240 C   0  0  0  0  0  0  0  0  0  0  0  0
    0.4300   -2.2450    3.9430 O   0  0  0  0  0  0  0  0  0  0  0  0
    2.7080   -2.7970    5.5910 H   0  0  0  0  0  0  0  0  0  0  0  0
    1.8540   -4.0380    4.7150 H   0  0  0  0  0  0  0  0  0  0  0  0
    3.5650   -1.8990    3.6020 H   0  0  0  0  0  0  0  0  0  0  0  0
    2.3180   -4.3960    2.4200 H   0  0  0  0  0  0  0  0  0  0  0  0
    4.0700   -4.1180    2.6960 H   0  0  0  0  0  0  0  0  0  0  0  0
    2.2980   -3.4030   -0.0590 H   0  0  0  0  0  0  0  0  0  0  0  0
    4.3770    2.9260   -1.3310 O   0  0  0  0  0  0  0  0  0  0  0  0
    3.3540    2.4720   -0.5260 C   0  0  0  0  0  0  0  0  0  0  0  0
    2.0420    2.4600   -0.9600 C   0  0  0  0  0  0  0  0  0  0  0  0
    1.0450    2.0000   -0.1310 C   0  0  0  0  0  0  0  0  0  0  0  0
    1.3060    1.5410    1.1370 C   0  0  0  0  0  0  0  0  0  0  0  0
    0.2190    1.0470    2.0400 C   0  0  0  0  0  0  0  0  0  0  0  0
   -0.0210   -0.4320    1.8540 C   0  0  2  0  0  0  0  0  0  0  0  0
    1.2650   -1.0750    2.1640 N   0  0  0  0  0  0  0  0  0  0  0  0
   -0.3190   -0.6970    0.4370 C   0  0  0  0  0  0  0  0  0  0  0  0
    0.4960   -1.3000   -0.2830 O   0  0  0  0  0  0  0  0  0  0  0  0
    2.6240    1.5540    1.5690 C   0  0  0  0  0  0  0  0  0  0  0  0
    3.6280    2.0120    0.7480 C   0  0  0  0  0  0  0  0  0  0  0  0
    5.3160    2.5370   -1.2780 H   0  0  0  0  0  0  0  0  0  0  0  0
    1.8310    2.8250   -1.9680 H   0  0  0  0  0  0  0  0  0  0  0  0
    0.0200    2.0030   -0.4940 H   0  0  0  0  0  0  0  0  0  0  0  0
    0.4670    1.3040    3.0830 H   0  0  0  0  0  0  0  0  0  0  0  0
   -0.7160    1.5970    1.7330 H   0  0  0  0  0  0  0  0  0  0  0  0
   -0.8130   -0.8060    2.5370 H   0  0  0  0  0  0  0  0  0  0  0  0
    2.0400   -0.8160    1.5470 H   0  0  0  0  0  0  0  0  0  0  0  0
    2.8390    1.1930    2.5730 H   0  0  0  0  0  0  0  0  0  0  0  0
    4.6740    2.0250    1.0830 H   0  0  0  0  0  0  0  0  0  0  0  0
   -4.1820   -1.4510    0.3330 C   0  0  0  0  0  0  0  0  0  0  0  0
   -4.1100   -1.6230   -1.1360 C   0  0  0  0  0  0  0  0  0  0  0  0
   -4.8630   -2.9150   -1.4900 C   0  0  0  0  0  0  0  0  0  0  0  0
   -2.7780   -1.7300   -1.7580 C   0  0  0  0  0  0  0  0  0  0  0  0
   -1.8470   -0.5520   -1.5780 C   0  0  2  0  0  0  0  0  0  0  0  0
   -1.5570   -0.2830   -0.1830 N   0  0  0  0  0  0  0  0  0  0  0  0
   -2.2390    0.6110   -2.3600 C   0  0  0  0  0  0  0  0  0  0  0  0
   -2.3310    1.7330   -1.8270 O   0  0  0  0  0  0  0  0  0  0  0  0
   -2.5140    0.4890   -3.7050 O   0  0  0  0  0  0  0  0  0  0  0  0
   -3.2900   -1.8600    0.8580 H   0  0  0  0  0  0  0  0  0  0  0  0
   -4.4690   -0.4310    0.6630 H   0  0  0  0  0  0  0  0  0  0  0  0
   -5.0280   -2.0960    0.7180 H   0  0  0  0  0  0  0  0  0  0  0  0
   -4.7120   -0.8070   -1.6270 H   0  0  0  0  0  0  0  0  0  0  0  0
   -4.7460   -3.1600   -2.5570 H   0  0  0  0  0  0  0  0  0  0  0  0
   -5.8950   -2.7620   -1.1710 H   0  0  0  0  0  0  0  0  0  0  0  0
   -4.4170   -3.7070   -0.8490 H   0  0  0  0  0  0  0  0  0  0  0  0
   -2.2250   -2.6290   -1.4300 H   0  0  0  0  0  0  0  0  0  0  0  0
   -2.9300   -1.8270   -2.8640 H   0  0  0  0  0  0  0  0  0  0  0  0
   -0.8670   -0.9270   -2.0100 H   0  0  0  0  0  0  0  0  0  0  0  0
   -2.1970    0.2240    0.4680 H   0  0  0  0  0  0  0  0  0  0  0  0
  1  7  1  0  0  0  0
  2  9  1  1  0  0  0
  2  1  1  0  0  0  0
  3 11  1  0  0  0  0
  3  2  1  0  0  0  0
  4  3  1  0  0  0  0
  5  2  1  0  0  0  0
  5  6  2  0  0  0  0
  8  1  1  0  0  0  0
 10  3  1  0  0  0  0
 12  4  1  0  0  0  0
 13 25  1  0  0  0  0
 13 14  1  0  0  0  0
 14 24  1  0  0  0  0
 15 14  2  0  0  0  0
 15 16  1  0  0  0  0
 16 17  2  0  0  0  0
 17 23  1  0  0  0  0
 17 18  1  0  0  0  0
 18 28  1  0  0  0  0
 19 18  1  0  0  0  0
 19 20  1  0  0  0  0
 19 30  1  1  0  0  0
 20  5  1  0  0  0  0
 21 19  1  0  0  0  0
 22 21  2  0  0  0  0
 23 32  1  0  0  0  0
 24 33  1  0  0  0  0
 24 23  2  0  0  0  0
 26 15  1  0  0  0  0
 27 16  1  0  0  0  0
 29 18  1  0  0  0  0
 31 20  1  0  0  0  0
 34 44  1  0  0  0  0
 34 45  1  0  0  0  0
 34 43  1  0  0  0  0
 35 34  1  0  0  0  0
 36 48  1  0  0  0  0
 36 35  1  0  0  0  0
 36 49  1  0  0  0  0
 37 38  1  0  0  0  0
 37 50  1  0  0  0  0
 37 35  1  0  0  0  0
 38 52  1  6  0  0  0
 38 39  1  0  0  0  0
 39 21  1  0  0  0  0
 39 53  1  0  0  0  0
 40 41  1  0  0  0  0
 40 38  1  0  0  0  0
 42 40  2  0  0  0  0
 46 35  1  0  0  0  0
 47 36  1  0  0  0  0
 51 37  1  0  0  0  0
M  END
$$$$
