CYN.pdb
 OpenBabel07022418293D

 48 48  0  0  1  0  0  0  0  0999 V2000
   -0.1410   -2.4610    5.2860 N   0  0  0  0  0  0  0  0  0  0  0  0
    0.4780   -2.3940    3.9460 C   0  0  1  0  0  0  0  0  0  0  0  0
   -0.2470   -3.4390    3.1450 C   0  0  0  0  0  0  0  0  0  0  0  0
    0.3250   -3.6290    1.4590 S   0  0  0  0  0  0  0  0  0  0  0  0
    0.2760   -1.0240    3.4030 C   0  0  0  0  0  0  0  0  0  0  0  0
   -0.3350   -0.1480    4.1070 O   0  0  0  0  0  0  0  0  0  0  0  0
    0.3040   -1.8490    5.9700 H   0  0  0  0  0  0  0  0  0  0  0  0
   -0.2850   -3.4420    5.5300 H   0  0  0  0  0  0  0  0  0  0  0  0
    1.5270   -2.6720    4.0340 H   0  0  0  0  0  0  0  0  0  0  0  0
   -1.3480   -3.2240    3.0900 H   0  0  0  0  0  0  0  0  0  0  0  0
   -0.2060   -4.4080    3.7200 H   0  0  0  0  0  0  0  0  0  0  0  0
   -0.4590   -4.5440    0.7390 H   0  0  0  0  0  0  0  0  0  0  0  0
    4.0910   -1.7360   -3.1660 O   0  0  0  0  0  0  0  0  0  0  0  0
    3.5400   -0.9960   -2.1280 C   0  0  0  0  0  0  0  0  0  0  0  0
    2.6460    0.0280   -2.3540 C   0  0  0  0  0  0  0  0  0  0  0  0
    2.0980    0.7620   -1.3110 C   0  0  0  0  0  0  0  0  0  0  0  0
    2.4330    0.4900   -0.0080 C   0  0  0  0  0  0  0  0  0  0  0  0
    1.8330    1.2680    1.0990 C   0  0  0  0  0  0  0  0  0  0  0  0
    0.5670    0.6600    1.6150 C   0  0  2  0  0  0  0  0  0  0  0  0
    0.7530   -0.6890    2.1350 N   0  0  0  0  0  0  0  0  0  0  0  0
   -0.5650    0.7490    0.6490 C   0  0  0  0  0  0  0  0  0  0  0  0
   -0.7720    1.8300    0.0550 O   0  0  0  0  0  0  0  0  0  0  0  0
    3.3280   -0.5340    0.2040 C   0  0  0  0  0  0  0  0  0  0  0  0
    3.8760   -1.2690   -0.8300 C   0  0  0  0  0  0  0  0  0  0  0  0
    5.0600   -1.6360   -3.4320 H   0  0  0  0  0  0  0  0  0  0  0  0
    2.3900    0.2310   -3.3970 H   0  0  0  0  0  0  0  0  0  0  0  0
    1.4030    1.5510   -1.5800 H   0  0  0  0  0  0  0  0  0  0  0  0
    1.6930    2.3300    0.8080 H   0  0  0  0  0  0  0  0  0  0  0  0
    2.5390    1.3300    1.9790 H   0  0  0  0  0  0  0  0  0  0  0  0
    0.2190    1.2770    2.4860 H   0  0  0  0  0  0  0  0  0  0  0  0
    1.2600   -1.3340    1.4900 H   0  0  0  0  0  0  0  0  0  0  0  0
    3.6210   -0.7900    1.2080 H   0  0  0  0  0  0  0  0  0  0  0  0
    4.5820   -2.0820   -0.6670 H   0  0  0  0  0  0  0  0  0  0  0  0
   -3.4180    2.2460    1.1740 N   0  0  0  0  0  0  0  0  0  0  0  0
   -3.9630    1.5370    0.0840 C   0  0  0  0  0  0  0  0  0  0  0  0
   -5.2700    1.5970    0.1030 O   0  0  0  0  0  0  0  0  0  0  0  0
   -3.2810    0.7950   -0.9840 C   0  0  0  0  0  0  0  0  0  0  0  0
   -2.5390   -0.3960   -0.5020 C   0  0  2  0  0  0  0  0  0  0  0  0
   -1.4340   -0.3030    0.3470 N   0  0  0  0  0  0  0  0  0  0  0  0
   -2.3610   -1.4360   -1.5140 C   0  0  0  0  0  0  0  0  0  0  0  0
   -3.2750   -1.6310   -2.3590 O   0  0  0  0  0  0  0  0  0  0  0  0
   -1.2370   -2.2570   -1.6320 O   0  0  0  0  0  0  0  0  0  0  0  0
   -2.9830    3.1940    1.1030 H   0  0  0  0  0  0  0  0  0  0  0  0
   -3.4200    1.8450    2.1480 H   0  0  0  0  0  0  0  0  0  0  0  0
   -4.1000    0.3720   -1.6470 H   0  0  0  0  0  0  0  0  0  0  0  0
   -2.7230    1.4460   -1.6860 H   0  0  0  0  0  0  0  0  0  0  0  0
   -3.3660   -0.8500    0.2250 H   0  0  0  0  0  0  0  0  0  0  0  0
   -1.2040   -1.2140    0.8720 H   0  0  0  0  0  0  0  0  0  0  0  0
  1  8  1  0  0  0  0
  1  7  1  0  0  0  0
  2  9  1  1  0  0  0
  2  1  1  0  0  0  0
  3 11  1  0  0  0  0
  3  2  1  0  0  0  0
  4  3  1  0  0  0  0
  5  2  1  0  0  0  0
  5  6  2  0  0  0  0
 10  3  1  0  0  0  0
 12  4  1  0  0  0  0
 13 14  1  0  0  0  0
 14 24  1  0  0  0  0
 15 14  2  0  0  0  0
 15 16  1  0  0  0  0
 16 17  2  0  0  0  0
 17 23  1  0  0  0  0
 17 18  1  0  0  0  0
 18 19  1  0  0  0  0
 18 29  1  0  0  0  0
 19 20  1  0  0  0  0
 19 30  1  1  0  0  0
 20  5  1  0  0  0  0
 21 19  1  0  0  0  0
 22 21  2  0  0  0  0
 23 32  1  0  0  0  0
 24 33  1  0  0  0  0
 24 23  2  0  0  0  0
 25 13  1  0  0  0  0
 26 15  1  0  0  0  0
 27 16  1  0  0  0  0
 28 18  1  0  0  0  0
 31 20  1  0  0  0  0
 34 44  1  0  0  0  0
 35 36  2  0  0  0  0
 35 34  1  0  0  0  0
 37 38  1  0  0  0  0
 37 35  1  0  0  0  0
 38 47  1  1  0  0  0
 38 39  1  0  0  0  0
 39 21  1  0  0  0  0
 39 48  1  0  0  0  0
 40 38  1  0  0  0  0
 41 40  2  0  0  0  0
 42 40  1  0  0  0  0
 43 34  1  0  0  0  0
 45 37  1  0  0  0  0
 46 37  1  0  0  0  0
M  END
$$$$
