CYP.pdb
 OpenBabel07022418303D

 48 49  0  0  1  0  0  0  0  0999 V2000
    1.6970   -3.9010    3.8170 N   0  0  0  0  0  0  0  0  0  0  0  0
    1.4270   -3.2240    2.5650 C   0  0  1  0  0  0  0  0  0  0  0  0
    0.4800   -4.0470    1.7480 C   0  0  0  0  0  0  0  0  0  0  0  0
    1.2370   -5.6840    1.4170 S   0  0  0  0  0  0  0  0  0  0  0  0
    0.9980   -1.8590    2.8520 C   0  0  0  0  0  0  0  0  0  0  0  0
    0.9780   -1.4060    4.0460 O   0  0  0  0  0  0  0  0  0  0  0  0
    2.4730   -4.6050    3.7340 H   0  0  0  0  0  0  0  0  0  0  0  0
    0.7930   -4.3520    4.1170 H   0  0  0  0  0  0  0  0  0  0  0  0
    2.4180   -3.2540    2.0150 H   0  0  0  0  0  0  0  0  0  0  0  0
    0.2390   -3.5510    0.7850 H   0  0  0  0  0  0  0  0  0  0  0  0
   -0.4770   -4.2620    2.2550 H   0  0  0  0  0  0  0  0  0  0  0  0
    1.4300   -5.8190    0.0300 H   0  0  0  0  0  0  0  0  0  0  0  0
    3.2720    1.3280   -3.3680 O   0  0  0  0  0  0  0  0  0  0  0  0
    2.7970    1.3450   -2.0470 C   0  0  0  0  0  0  0  0  0  0  0  0
    1.8130    2.2400   -1.6900 C   0  0  0  0  0  0  0  0  0  0  0  0
    1.3600    2.2330   -0.3650 C   0  0  0  0  0  0  0  0  0  0  0  0
    1.8640    1.3690    0.5770 C   0  0  0  0  0  0  0  0  0  0  0  0
    1.3600    1.3920    1.9500 C   0  0  0  0  0  0  0  0  0  0  0  0
    0.1690    0.4110    2.1530 C   0  0  2  0  0  0  0  0  0  0  0  0
    0.5670   -0.9070    1.8560 N   0  0  0  0  0  0  0  0  0  0  0  0
   -1.0480    0.9800    1.6110 C   0  0  0  0  0  0  0  0  0  0  0  0
   -1.1700    2.3000    1.8030 O   0  0  0  0  0  0  0  0  0  0  0  0
    2.8490    0.4740    0.2170 C   0  0  0  0  0  0  0  0  0  0  0  0
    3.2850    0.4910   -1.0900 C   0  0  0  0  0  0  0  0  0  0  0  0
    2.6320    1.0080   -4.1090 H   0  0  0  0  0  0  0  0  0  0  0  0
    1.4080    2.9270   -2.4260 H   0  0  0  0  0  0  0  0  0  0  0  0
    0.5860    2.9710   -0.1670 H   0  0  0  0  0  0  0  0  0  0  0  0
    2.1400    1.1240    2.6900 H   0  0  0  0  0  0  0  0  0  0  0  0
    0.9570    2.3730    2.2330 H   0  0  0  0  0  0  0  0  0  0  0  0
    0.0660    0.4540    3.2920 H   0  0  0  0  0  0  0  0  0  0  0  0
    0.5690   -1.2640    0.8730 H   0  0  0  0  0  0  0  0  0  0  0  0
    3.2750   -0.2340    0.9460 H   0  0  0  0  0  0  0  0  0  0  0  0
    4.0580   -0.2050   -1.3910 H   0  0  0  0  0  0  0  0  0  0  0  0
   -2.1410    0.4730    0.9170 N   0  0  0  0  0  0  0  0  0  0  0  0
   -3.1970    1.3910    0.2940 C   0  0  0  0  0  0  0  0  0  0  0  0
   -3.1720    0.8130   -1.1230 C   0  0  0  0  0  0  0  0  0  0  0  0
   -2.6090   -0.6260   -0.9810 C   0  0  0  0  0  0  0  0  0  0  0  0
   -2.7380   -0.7580    0.5200 C   0  0  1  0  0  0  0  0  0  0  0  0
   -2.4280   -2.0040    1.1370 C   0  0  0  0  0  0  0  0  0  0  0  0
   -2.1180   -2.0740    2.3390 O   0  0  0  0  0  0  0  0  0  0  0  0
   -2.4430   -3.2420    0.4590 O   0  0  0  0  0  0  0  0  0  0  0  0
   -2.9000    2.4160    0.3750 H   0  0  0  0  0  0  0  0  0  0  0  0
   -4.1170    1.1010    0.8150 H   0  0  0  0  0  0  0  0  0  0  0  0
   -2.5700    1.4070   -1.8080 H   0  0  0  0  0  0  0  0  0  0  0  0
   -4.2100    0.6770   -1.4870 H   0  0  0  0  0  0  0  0  0  0  0  0
   -3.2060   -1.3410   -1.5430 H   0  0  0  0  0  0  0  0  0  0  0  0
   -1.5560   -0.5540   -1.2540 H   0  0  0  0  0  0  0  0  0  0  0  0
   -3.8920   -0.5570    0.6830 H   0  0  0  0  0  0  0  0  0  0  0  0
  1  8  1  0  0  0  0
  2  9  1  6  0  0  0
  2  5  1  0  0  0  0
  2  1  1  0  0  0  0
  3 11  1  0  0  0  0
  3  2  1  0  0  0  0
  4  3  1  0  0  0  0
  5  6  2  0  0  0  0
  7  1  1  0  0  0  0
 10  3  1  0  0  0  0
 12  4  1  0  0  0  0
 13 14  1  0  0  0  0
 14 15  2  0  0  0  0
 14 24  1  0  0  0  0
 15 16  1  0  0  0  0
 16 27  1  0  0  0  0
 16 17  2  0  0  0  0
 17 18  1  0  0  0  0
 18 19  1  0  0  0  0
 18 29  1  0  0  0  0
 18 28  1  0  0  0  0
 19 30  1  1  0  0  0
 20 19  1  0  0  0  0
 20  5  1  0  0  0  0
 21 22  2  0  0  0  0
 21 19  1  0  0  0  0
 23 17  1  0  0  0  0
 23 32  1  0  0  0  0
 24 23  2  0  0  0  0
 25 13  1  0  0  0  0
 26 15  1  0  0  0  0
 31 20  1  0  0  0  0
 33 24  1  0  0  0  0
 34 21  1  0  0  0  0
 35 42  1  0  0  0  0
 35 43  1  0  0  0  0
 35 34  1  0  0  0  0
 36 37  1  0  0  0  0
 36 35  1  0  0  0  0
 37 38  1  0  0  0  0
 38 48  1  1  0  0  0
 38 34  1  0  0  0  0
 38 39  1  0  0  0  0
 39 40  1  0  0  0  0
 41 39  2  0  0  0  0
 44 36  1  0  0  0  0
 45 36  1  0  0  0  0
 46 37  1  0  0  0  0
 47 37  1  0  0  0  0
M  END
$$$$
