CYQ.pdb
 OpenBabel07022418303D

 51 51  0  0  1  0  0  0  0  0999 V2000
    1.4040    1.8340    3.7900 N   0  0  0  0  0  0  0  0  0  0  0  0
    0.7350    0.6280    3.2460 C   0  0  1  0  0  0  0  0  0  0  0  0
   -0.7520    0.7920    3.3690 C   0  0  0  0  0  0  0  0  0  0  0  0
   -1.7140   -0.6010    2.7900 S   0  0  0  0  0  0  0  0  0  0  0  0
    1.1890    0.4630    1.8540 C   0  0  0  0  0  0  0  0  0  0  0  0
    2.0000    1.3080    1.3550 O   0  0  0  0  0  0  0  0  0  0  0  0
    1.5980    1.7160    4.8050 H   0  0  0  0  0  0  0  0  0  0  0  0
    2.3570    1.8730    3.3280 H   0  0  0  0  0  0  0  0  0  0  0  0
    1.0720   -0.2100    3.8850 H   0  0  0  0  0  0  0  0  0  0  0  0
   -1.0900    1.6880    2.7690 H   0  0  0  0  0  0  0  0  0  0  0  0
   -1.0610    1.0310    4.4130 H   0  0  0  0  0  0  0  0  0  0  0  0
   -2.6580   -0.9940    3.7340 H   0  0  0  0  0  0  0  0  0  0  0  0
    5.8070   -4.0780    2.7010 O   0  0  0  0  0  0  0  0  0  0  0  0
    4.8580   -3.5650    1.8370 C   0  0  0  0  0  0  0  0  0  0  0  0
    3.5210   -3.7430    2.1140 C   0  0  0  0  0  0  0  0  0  0  0  0
    2.5920   -3.2380    1.2630 C   0  0  0  0  0  0  0  0  0  0  0  0
    2.9180   -2.5390    0.1070 C   0  0  0  0  0  0  0  0  0  0  0  0
    1.8020   -2.0590   -0.7050 C   0  0  0  0  0  0  0  0  0  0  0  0
    1.2980   -0.6980   -0.3680 C   0  0  2  0  0  0  0  0  0  0  0  0
    0.8140   -0.5660    0.9820 N   0  0  0  0  0  0  0  0  0  0  0  0
    0.2240   -0.3510   -1.3140 C   0  0  0  0  0  0  0  0  0  0  0  0
    0.5030   -0.4360   -2.5630 O   0  0  0  0  0  0  0  0  0  0  0  0
    4.2420   -2.3620   -0.1680 C   0  0  0  0  0  0  0  0  0  0  0  0
    5.1930   -2.8710    0.6890 C   0  0  0  0  0  0  0  0  0  0  0  0
    6.4190   -3.4820    3.2570 H   0  0  0  0  0  0  0  0  0  0  0  0
    3.1870   -4.2850    3.0100 H   0  0  0  0  0  0  0  0  0  0  0  0
    1.5350   -3.4040    1.5230 H   0  0  0  0  0  0  0  0  0  0  0  0
    0.9230   -2.7420   -0.7270 H   0  0  0  0  0  0  0  0  0  0  0  0
    2.1620   -2.0210   -1.7670 H   0  0  0  0  0  0  0  0  0  0  0  0
    2.0620    0.1160   -0.5020 H   0  0  0  0  0  0  0  0  0  0  0  0
    0.1520   -1.3010    1.3030 H   0  0  0  0  0  0  0  0  0  0  0  0
    4.5040   -1.8220   -1.0590 H   0  0  0  0  0  0  0  0  0  0  0  0
    6.2430   -2.7470    0.4970 H   0  0  0  0  0  0  0  0  0  0  0  0
   -5.4020   -0.2770    1.0540 N   0  0  0  0  0  0  0  0  0  0  0  0
   -4.7020    0.0640   -0.1740 C   0  0  0  0  0  0  0  0  0  0  0  0
   -4.8080    1.2290   -0.5320 O   0  0  0  0  0  0  0  0  0  0  0  0
   -3.9540   -0.9610   -0.8670 C   0  0  0  0  0  0  0  0  0  0  0  0
   -3.1950   -0.6010   -2.0680 C   0  0  0  0  0  0  0  0  0  0  0  0
   -2.1080    0.3980   -1.9810 C   0  0  2  0  0  0  0  0  0  0  0  0
   -1.0820    0.0660   -1.0250 N   0  0  0  0  0  0  0  0  0  0  0  0
   -2.5670    1.7670   -2.0140 C   0  0  0  0  0  0  0  0  0  0  0  0
   -3.3650    2.1930   -2.9020 O   0  0  0  0  0  0  0  0  0  0  0  0
   -2.1570    2.7050   -1.0660 O   0  0  0  0  0  0  0  0  0  0  0  0
   -5.2850    0.3030    1.8900 H   0  0  0  0  0  0  0  0  0  0  0  0
   -5.9970   -1.1270    0.9820 H   0  0  0  0  0  0  0  0  0  0  0  0
   -4.7230   -1.7750   -1.1310 H   0  0  0  0  0  0  0  0  0  0  0  0
   -3.2760   -1.4620   -0.1100 H   0  0  0  0  0  0  0  0  0  0  0  0
   -3.9530   -0.2830   -2.8590 H   0  0  0  0  0  0  0  0  0  0  0  0
   -2.8000   -1.5660   -2.5300 H   0  0  0  0  0  0  0  0  0  0  0  0
   -1.5330    0.2760   -2.9950 H   0  0  0  0  0  0  0  0  0  0  0  0
   -1.3310    0.1470   -0.0160 H   0  0  0  0  0  0  0  0  0  0  0  0
  1  7  1  0  0  0  0
  2  3  1  0  0  0  0
  2  1  1  0  0  0  0
  2  9  1  1  0  0  0
  3 11  1  0  0  0  0
  4  3  1  0  0  0  0
  4 12  1  0  0  0  0
  5  2  1  0  0  0  0
  6  5  2  0  0  0  0
  8  1  1  0  0  0  0
 10  3  1  0  0  0  0
 13 25  1  0  0  0  0
 14 15  1  0  0  0  0
 14 13  1  0  0  0  0
 15 26  1  0  0  0  0
 16 27  1  0  0  0  0
 16 15  2  0  0  0  0
 17 16  1  0  0  0  0
 18 19  1  0  0  0  0
 18 17  1  0  0  0  0
 19 30  1  6  0  0  0
 19 20  1  0  0  0  0
 20 31  1  0  0  0  0
 20  5  1  0  0  0  0
 21 40  1  0  0  0  0
 21 19  1  0  0  0  0
 22 21  2  0  0  0  0
 23 17  2  0  0  0  0
 23 24  1  0  0  0  0
 24 14  2  0  0  0  0
 28 18  1  0  0  0  0
 29 18  1  0  0  0  0
 32 23  1  0  0  0  0
 33 24  1  0  0  0  0
 34 44  1  0  0  0  0
 35 34  1  0  0  0  0
 36 35  2  0  0  0  0
 37 35  1  0  0  0  0
 37 47  1  0  0  0  0
 38 39  1  0  0  0  0
 38 37  1  0  0  0  0
 39 50  1  6  0  0  0
 39 40  1  0  0  0  0
 40 51  1  0  0  0  0
 41 39  1  0  0  0  0
 41 43  1  0  0  0  0
 42 41  2  0  0  0  0
 45 34  1  0  0  0  0
 46 37  1  0  0  0  0
 48 38  1  0  0  0  0
 49 38  1  0  0  0  0
M  END
$$$$
