CYR.pdb
 OpenBabel07022418293D

 57 57  0  0  1  0  0  0  0  0999 V2000
    3.6080    2.8940    2.1670 N   0  0  0  0  0  0  0  0  0  0  0  0
    2.8120    1.6560    2.1370 C   0  0  1  0  0  0  0  0  0  0  0  0
    1.3940    2.0910    2.4200 C   0  0  0  0  0  0  0  0  0  0  0  0
    0.2040    0.7600    2.4430 S   0  0  0  0  0  0  0  0  0  0  0  0
    3.0130    1.0530    0.8190 C   0  0  0  0  0  0  0  0  0  0  0  0
    3.7580    1.5890   -0.0730 O   0  0  0  0  0  0  0  0  0  0  0  0
    3.8400    3.2000    1.2150 H   0  0  0  0  0  0  0  0  0  0  0  0
    4.3820    2.8500    2.8350 H   0  0  0  0  0  0  0  0  0  0  0  0
    3.1940    1.0390    2.9760 H   0  0  0  0  0  0  0  0  0  0  0  0
    1.0610    2.8870    1.7250 H   0  0  0  0  0  0  0  0  0  0  0  0
    1.4240    2.5820    3.4310 H   0  0  0  0  0  0  0  0  0  0  0  0
   -0.9950    1.1030    1.8160 H   0  0  0  0  0  0  0  0  0  0  0  0
    0.2290   -5.5000    2.5410 O   0  0  0  0  0  0  0  0  0  0  0  0
    0.9940   -4.6590    1.7150 C   0  0  0  0  0  0  0  0  0  0  0  0
    1.8830   -3.8040    2.3240 C   0  0  0  0  0  0  0  0  0  0  0  0
    2.6370   -2.9750    1.5150 C   0  0  0  0  0  0  0  0  0  0  0  0
    2.5190   -2.9860    0.1270 C   0  0  0  0  0  0  0  0  0  0  0  0
    3.3560   -2.0710   -0.6920 C   0  0  0  0  0  0  0  0  0  0  0  0
    2.6320   -0.7360   -0.9060 C   0  0  2  0  0  0  0  0  0  0  0  0
    2.4070   -0.1810    0.3940 N   0  0  0  0  0  0  0  0  0  0  0  0
    1.4180   -0.9430   -1.7110 C   0  0  0  0  0  0  0  0  0  0  0  0
    1.6040   -1.4380   -2.8690 O   0  0  0  0  0  0  0  0  0  0  0  0
    1.6140   -3.8600   -0.4420 C   0  0  0  0  0  0  0  0  0  0  0  0
    0.8580   -4.6910    0.3560 C   0  0  0  0  0  0  0  0  0  0  0  0
   -0.3990   -4.9980    3.1830 H   0  0  0  0  0  0  0  0  0  0  0  0
    1.9660   -3.8050    3.3980 H   0  0  0  0  0  0  0  0  0  0  0  0
    3.3460   -2.2890    1.9410 H   0  0  0  0  0  0  0  0  0  0  0  0
    3.5980   -2.5400   -1.6710 H   0  0  0  0  0  0  0  0  0  0  0  0
    4.2910   -1.8750   -0.1310 H   0  0  0  0  0  0  0  0  0  0  0  0
    3.3190   -0.1000   -1.5170 H   0  0  0  0  0  0  0  0  0  0  0  0
    1.7850   -0.6790    1.0620 H   0  0  0  0  0  0  0  0  0  0  0  0
    1.5330   -3.8580   -1.5200 H   0  0  0  0  0  0  0  0  0  0  0  0
    0.1430   -5.3810   -0.0940 H   0  0  0  0  0  0  0  0  0  0  0  0
   -5.3310    0.8090    2.9350 N   0  0  0  0  0  0  0  0  0  0  0  0
   -4.7090    0.8730    1.6670 C   0  0  0  0  0  0  0  0  0  0  0  0
   -4.8500    1.9130    0.8950 N   0  0  0  0  0  0  0  0  0  0  0  0
   -3.9130   -0.2260    1.2270 N   0  0  0  0  0  0  0  0  0  0  0  0
   -3.4130   -0.3230   -0.1290 C   0  0  0  0  0  0  0  0  0  0  0  0
   -2.6240   -1.5760   -0.2630 C   0  0  0  0  0  0  0  0  0  0  0  0
   -2.0320   -1.8510   -1.5890 C   0  0  0  0  0  0  0  0  0  0  0  0
   -1.0700   -0.8630   -2.1290 C   0  0  2  0  0  0  0  0  0  0  0  0
    0.1020   -0.6480   -1.3170 N   0  0  0  0  0  0  0  0  0  0  0  0
   -1.6670    0.4280   -2.5280 C   0  0  0  0  0  0  0  0  0  0  0  0
   -2.7090    0.4850   -3.2290 O   0  0  0  0  0  0  0  0  0  0  0  0
   -1.1060    1.6390   -2.1490 O   0  0  0  0  0  0  0  0  0  0  0  0
   -4.9010    1.2620    3.7630 H   0  0  0  0  0  0  0  0  0  0  0  0
   -6.2320    0.3000    3.0390 H   0  0  0  0  0  0  0  0  0  0  0  0
   -4.3790    1.9300   -0.0350 H   0  0  0  0  0  0  0  0  0  0  0  0
   -3.6930   -0.9740    1.9160 H   0  0  0  0  0  0  0  0  0  0  0  0
   -2.8350    0.5990   -0.3030 H   0  0  0  0  0  0  0  0  0  0  0  0
   -4.3030   -0.2820   -0.7930 H   0  0  0  0  0  0  0  0  0  0  0  0
   -1.8910   -1.6070    0.5750 H   0  0  0  0  0  0  0  0  0  0  0  0
   -3.3320   -2.4270   -0.0360 H   0  0  0  0  0  0  0  0  0  0  0  0
   -1.5870   -2.8710   -1.5820 H   0  0  0  0  0  0  0  0  0  0  0  0
   -2.8640   -1.9300   -2.3500 H   0  0  0  0  0  0  0  0  0  0  0  0
   -0.6760   -1.3030   -3.0980 H   0  0  0  0  0  0  0  0  0  0  0  0
   -0.0460   -0.2430   -0.3670 H   0  0  0  0  0  0  0  0  0  0  0  0
  1  8  1  0  0  0  0
  2  1  1  0  0  0  0
  2  3  1  0  0  0  0
  2  9  1  1  0  0  0
  3  4  1  0  0  0  0
  3 11  1  0  0  0  0
  5  2  1  0  0  0  0
  6  5  2  0  0  0  0
  7  1  1  0  0  0  0
 10  3  1  0  0  0  0
 12  4  1  0  0  0  0
 13 25  1  0  0  0  0
 14 15  1  0  0  0  0
 14 13  1  0  0  0  0
 15 26  1  0  0  0  0
 16 27  1  0  0  0  0
 16 15  2  0  0  0  0
 17 16  1  0  0  0  0
 18 29  1  0  0  0  0
 18 17  1  0  0  0  0
 19 30  1  6  0  0  0
 19 18  1  0  0  0  0
 19 20  1  0  0  0  0
 20  5  1  0  0  0  0
 20 31  1  0  0  0  0
 21 42  1  0  0  0  0
 21 19  1  0  0  0  0
 22 21  2  0  0  0  0
 23 17  2  0  0  0  0
 23 24  1  0  0  0  0
 24 14  2  0  0  0  0
 28 18  1  0  0  0  0
 32 23  1  0  0  0  0
 33 24  1  0  0  0  0
 34 47  1  0  0  0  0
 34 46  1  0  0  0  0
 35 34  1  0  0  0  0
 36 35  2  0  0  0  0
 37 35  1  0  0  0  0
 37 49  1  0  0  0  0
 38 37  1  0  0  0  0
 39 38  1  0  0  0  0
 39 53  1  0  0  0  0
 39 52  1  0  0  0  0
 40 54  1  0  0  0  0
 40 39  1  0  0  0  0
 41 56  1  6  0  0  0
 41 40  1  0  0  0  0
 41 42  1  0  0  0  0
 42 57  1  0  0  0  0
 43 45  1  0  0  0  0
 43 41  1  0  0  0  0
 44 43  2  0  0  0  0
 48 36  1  0  0  0  0
 50 38  1  0  0  0  0
 51 38  1  0  0  0  0
 55 40  1  0  0  0  0
M  END
$$$$
