CYS.pdb
 OpenBabel07022418303D

 45 45  0  0  1  0  0  0  0  0999 V2000
    1.0660   -1.0390    4.8220 N   0  0  0  0  0  0  0  0  0  0  0  0
    1.7680    0.1650    4.4220 C   0  0  1  0  0  0  0  0  0  0  0  0
    3.2660   -0.0110    4.7090 C   0  0  0  0  0  0  0  0  0  0  0  0
    3.4890   -0.3040    6.4920 S   0  0  0  0  0  0  0  0  0  0  0  0
    1.6560    0.4030    2.9610 C   0  0  0  0  0  0  0  0  0  0  0  0
    2.1540    1.4770    2.5150 O   0  0  0  0  0  0  0  0  0  0  0  0
    1.3760   -1.8680    4.2480 H   0  0  0  0  0  0  0  0  0  0  0  0
    0.0470   -0.9130    4.5710 H   0  0  0  0  0  0  0  0  0  0  0  0
    1.3570    1.0190    4.9800 H   0  0  0  0  0  0  0  0  0  0  0  0
    3.8500    0.8860    4.4470 H   0  0  0  0  0  0  0  0  0  0  0  0
    3.6410   -0.8970    4.1420 H   0  0  0  0  0  0  0  0  0  0  0  0
    2.5430    0.5000    7.1800 H   0  0  0  0  0  0  0  0  0  0  0  0
    1.4820    0.1950   -5.6660 O   0  0  0  0  0  0  0  0  0  0  0  0
    1.5830   -0.1380   -4.3040 C   0  0  0  0  0  0  0  0  0  0  0  0
    0.9340   -1.2460   -3.7980 C   0  0  0  0  0  0  0  0  0  0  0  0
    1.0430   -1.5560   -2.4690 C   0  0  0  0  0  0  0  0  0  0  0  0
    1.7820   -0.8090   -1.5810 C   0  0  0  0  0  0  0  0  0  0  0  0
    1.9270   -1.0860   -0.1420 C   0  0  0  0  0  0  0  0  0  0  0  0
    0.9310   -0.2530    0.6260 C   0  0  2  0  0  0  0  0  0  0  0  0
    1.0350   -0.4930    2.0540 N   0  0  0  0  0  0  0  0  0  0  0  0
   -0.4510   -0.3740    0.2000 C   0  0  0  0  0  0  0  0  0  0  0  0
   -0.8130   -0.2040   -1.0100 O   0  0  0  0  0  0  0  0  0  0  0  0
    2.4360    0.3120   -2.1070 C   0  0  0  0  0  0  0  0  0  0  0  0
    2.3200    0.6110   -3.4290 C   0  0  0  0  0  0  0  0  0  0  0  0
    1.1540    1.1400   -5.8580 H   0  0  0  0  0  0  0  0  0  0  0  0
    0.3450   -1.8460   -4.4860 H   0  0  0  0  0  0  0  0  0  0  0  0
    0.5180   -2.4420   -2.0990 H   0  0  0  0  0  0  0  0  0  0  0  0
    2.9750   -0.7920    0.1260 H   0  0  0  0  0  0  0  0  0  0  0  0
    1.8380   -2.1660    0.0910 H   0  0  0  0  0  0  0  0  0  0  0  0
    1.2950    0.8120    0.4880 H   0  0  0  0  0  0  0  0  0  0  0  0
    0.6360   -1.3670    2.4370 H   0  0  0  0  0  0  0  0  0  0  0  0
    3.0370    0.9520   -1.4780 H   0  0  0  0  0  0  0  0  0  0  0  0
    2.8200    1.4810   -3.8430 H   0  0  0  0  0  0  0  0  0  0  0  0
   -4.8140   -2.1300    0.6240 O   0  0  0  0  0  0  0  0  0  0  0  0
   -3.4940   -2.1590    1.0820 C   0  0  0  0  0  0  0  0  0  0  0  0
   -2.8950   -0.8190    0.6890 C   0  0  2  0  0  0  0  0  0  0  0  0
   -1.5230   -0.6910    1.0920 N   0  0  0  0  0  0  0  0  0  0  0  0
   -3.6900    0.2420    1.3360 C   0  0  0  0  0  0  0  0  0  0  0  0
   -3.1260    1.0750    2.0760 O   0  0  0  0  0  0  0  0  0  0  0  0
   -5.0480    0.3280    1.1320 O   0  0  0  0  0  0  0  0  0  0  0  0
   -5.0980   -2.9520    0.1960 H   0  0  0  0  0  0  0  0  0  0  0  0
   -2.9610   -3.0120    0.6560 H   0  0  0  0  0  0  0  0  0  0  0  0
   -3.5180   -2.1920    2.1900 H   0  0  0  0  0  0  0  0  0  0  0  0
   -3.0280   -0.7010   -0.4110 H   0  0  0  0  0  0  0  0  0  0  0  0
   -1.2910   -0.8360    2.0940 H   0  0  0  0  0  0  0  0  0  0  0  0
  2  3  1  0  0  0  0
  2  1  1  0  0  0  0
  2  9  1  1  0  0  0
  3  4  1  0  0  0  0
  4 12  1  0  0  0  0
  5  2  1  0  0  0  0
  6  5  2  0  0  0  0
  7  1  1  0  0  0  0
  8  1  1  0  0  0  0
 10  3  1  0  0  0  0
 11  3  1  0  0  0  0
 13 14  1  0  0  0  0
 14 15  2  0  0  0  0
 14 24  1  0  0  0  0
 15 16  1  0  0  0  0
 16 27  1  0  0  0  0
 16 17  2  0  0  0  0
 17 18  1  0  0  0  0
 18 29  1  0  0  0  0
 18 28  1  0  0  0  0
 18 19  1  0  0  0  0
 19 30  1  6  0  0  0
 19 20  1  0  0  0  0
 20 31  1  0  0  0  0
 20  5  1  0  0  0  0
 21 19  1  0  0  0  0
 21 37  1  0  0  0  0
 22 21  2  0  0  0  0
 23 17  1  0  0  0  0
 23 32  1  0  0  0  0
 24 23  2  0  0  0  0
 25 13  1  0  0  0  0
 26 15  1  0  0  0  0
 33 24  1  0  0  0  0
 34 35  1  0  0  0  0
 35 43  1  0  0  0  0
 36 44  1  6  0  0  0
 36 35  1  0  0  0  0
 36 37  1  0  0  0  0
 36 38  1  0  0  0  0
 37 45  1  0  0  0  0
 38 39  1  0  0  0  0
 40 38  2  0  0  0  0
 41 34  1  0  0  0  0
 42 35  1  0  0  0  0
M  END
$$$$
