CYT.pdb
 OpenBabel07022418303D

 48 48  0  0  1  0  0  0  0  0999 V2000
    1.7370   -2.6320    5.3350 N   0  0  0  0  0  0  0  0  0  0  0  0
    1.5920   -2.5930    3.8910 C   0  0  1  0  0  0  0  0  0  0  0  0
    0.6680   -3.7230    3.5070 C   0  0  0  0  0  0  0  0  0  0  0  0
    1.3930   -5.2990    4.0360 S   0  0  0  0  0  0  0  0  0  0  0  0
    1.1300   -1.2900    3.4050 C   0  0  0  0  0  0  0  0  0  0  0  0
    0.9020   -0.3480    4.2060 O   0  0  0  0  0  0  0  0  0  0  0  0
    2.2540   -3.5190    5.5530 H   0  0  0  0  0  0  0  0  0  0  0  0
    0.7710   -2.7460    5.7330 H   0  0  0  0  0  0  0  0  0  0  0  0
    2.5790   -2.8200    3.4510 H   0  0  0  0  0  0  0  0  0  0  0  0
   -0.2850   -3.5940    4.0570 H   0  0  0  0  0  0  0  0  0  0  0  0
    0.4890   -3.7890    2.4280 H   0  0  0  0  0  0  0  0  0  0  0  0
    2.6500   -5.5150    3.4550 H   0  0  0  0  0  0  0  0  0  0  0  0
    3.1710   -2.3840   -3.8080 O   0  0  0  0  0  0  0  0  0  0  0  0
    2.7520   -1.5930   -2.7300 C   0  0  0  0  0  0  0  0  0  0  0  0
    1.6770   -0.7530   -2.8810 C   0  0  0  0  0  0  0  0  0  0  0  0
    1.2670    0.0320   -1.8010 C   0  0  0  0  0  0  0  0  0  0  0  0
    1.9270   -0.0360   -0.6040 C   0  0  0  0  0  0  0  0  0  0  0  0
    1.5040    0.7770    0.5260 C   0  0  0  0  0  0  0  0  0  0  0  0
    0.4930    0.1350    1.4300 C   0  0  2  0  0  0  0  0  0  0  0  0
    0.9390   -1.0920    2.0150 N   0  0  0  0  0  0  0  0  0  0  0  0
   -0.8200   -0.0580    0.8000 C   0  0  0  0  0  0  0  0  0  0  0  0
   -1.3350   -1.2330    0.7890 O   0  0  0  0  0  0  0  0  0  0  0  0
    2.9990   -0.8900   -0.4900 C   0  0  0  0  0  0  0  0  0  0  0  0
    3.4130   -1.6640   -1.5390 C   0  0  0  0  0  0  0  0  0  0  0  0
    3.5890   -1.9620   -4.6370 H   0  0  0  0  0  0  0  0  0  0  0  0
    1.1750   -0.7180   -3.8330 H   0  0  0  0  0  0  0  0  0  0  0  0
    0.4180    0.6680   -1.9940 H   0  0  0  0  0  0  0  0  0  0  0  0
    1.0030    1.7000    0.1070 H   0  0  0  0  0  0  0  0  0  0  0  0
    2.3820    1.1390    1.0620 H   0  0  0  0  0  0  0  0  0  0  0  0
    0.3430    0.8480    2.2940 H   0  0  0  0  0  0  0  0  0  0  0  0
    1.1380   -1.8930    1.3760 H   0  0  0  0  0  0  0  0  0  0  0  0
    3.5470   -0.9660    0.4540 H   0  0  0  0  0  0  0  0  0  0  0  0
    4.2600   -2.3280   -1.4230 H   0  0  0  0  0  0  0  0  0  0  0  0
   -3.9960    0.6690    1.8010 C   0  0  0  0  0  0  0  0  0  0  0  0
   -3.9950    1.3000    0.4200 C   0  0  1  0  0  0  0  0  0  0  0  0
   -3.8900    2.6690    0.4740 O   0  0  0  0  0  0  0  0  0  0  0  0
   -2.8620    0.6740   -0.3930 C   0  0  2  0  0  0  0  0  0  0  0  0
   -1.5770    0.9900    0.1900 N   0  0  0  0  0  0  0  0  0  0  0  0
   -2.9720    1.2730   -1.7390 C   0  0  0  0  0  0  0  0  0  0  0  0
   -3.9680    1.1390   -2.4840 O   0  0  0  0  0  0  0  0  0  0  0  0
   -1.9200    2.0320   -2.2160 O   0  0  0  0  0  0  0  0  0  0  0  0
   -3.8350   -0.4090    1.7400 H   0  0  0  0  0  0  0  0  0  0  0  0
   -4.9410    0.8440    2.3400 H   0  0  0  0  0  0  0  0  0  0  0  0
   -3.1720    1.1330    2.3760 H   0  0  0  0  0  0  0  0  0  0  0  0
   -4.9740    1.0540   -0.0410 H   0  0  0  0  0  0  0  0  0  0  0  0
   -3.0930    2.9540   -0.0090 H   0  0  0  0  0  0  0  0  0  0  0  0
   -3.0200   -0.4330   -0.3850 H   0  0  0  0  0  0  0  0  0  0  0  0
   -1.1560    1.9400    0.1990 H   0  0  0  0  0  0  0  0  0  0  0  0
  1  7  1  0  0  0  0
  1  8  1  0  0  0  0
  2  9  1  6  0  0  0
  2  1  1  0  0  0  0
  3  2  1  0  0  0  0
  3  4  1  0  0  0  0
  3 10  1  0  0  0  0
  5  2  1  0  0  0  0
  5  6  2  0  0  0  0
 11  3  1  0  0  0  0
 12  4  1  0  0  0  0
 13 14  1  0  0  0  0
 14 24  1  0  0  0  0
 15 14  2  0  0  0  0
 15 16  1  0  0  0  0
 16 17  2  0  0  0  0
 17 23  1  0  0  0  0
 17 18  1  0  0  0  0
 18 29  1  0  0  0  0
 18 19  1  0  0  0  0
 19 20  1  0  0  0  0
 19 30  1  1  0  0  0
 20  5  1  0  0  0  0
 21 19  1  0  0  0  0
 22 21  2  0  0  0  0
 23 32  1  0  0  0  0
 24 33  1  0  0  0  0
 24 23  2  0  0  0  0
 25 13  1  0  0  0  0
 26 15  1  0  0  0  0
 27 16  1  0  0  0  0
 28 18  1  0  0  0  0
 31 20  1  0  0  0  0
 34 43  1  0  0  0  0
 34 44  1  0  0  0  0
 35 45  1  6  0  0  0
 35 36  1  0  0  0  0
 35 34  1  0  0  0  0
 37 47  1  6  0  0  0
 37 38  1  0  0  0  0
 37 35  1  0  0  0  0
 38 48  1  0  0  0  0
 38 21  1  0  0  0  0
 39 37  1  0  0  0  0
 40 39  2  0  0  0  0
 41 39  1  0  0  0  0
 42 34  1  0  0  0  0
 46 36  1  0  0  0  0
M  END
$$$$
