CYW.pdb
 OpenBabel07022418303D

 58 60  0  0  1  0  0  0  0  0999 V2000
   -0.9460    3.8390    4.5470 N   0  0  0  0  0  0  0  0  0  0  0  0
   -0.1600    2.8120    3.9280 C   0  0  1  0  0  0  0  0  0  0  0  0
   -0.5730    1.4120    4.3760 C   0  0  0  0  0  0  0  0  0  0  0  0
   -0.3900    1.2140    6.1580 S   0  0  0  0  0  0  0  0  0  0  0  0
   -0.2350    2.9670    2.4770 C   0  0  0  0  0  0  0  0  0  0  0  0
   -0.8820    3.8870    1.8870 O   0  0  0  0  0  0  0  0  0  0  0  0
   -1.5760    3.4920    5.2930 H   0  0  0  0  0  0  0  0  0  0  0  0
   -0.4010    4.6860    4.8150 H   0  0  0  0  0  0  0  0  0  0  0  0
    0.8900    2.9360    4.3260 H   0  0  0  0  0  0  0  0  0  0  0  0
    0.1090    0.6900    3.8950 H   0  0  0  0  0  0  0  0  0  0  0  0
   -1.5980    1.1670    4.0460 H   0  0  0  0  0  0  0  0  0  0  0  0
   -0.2430   -0.1050    6.5510 H   0  0  0  0  0  0  0  0  0  0  0  0
    5.4020   -1.7920    0.5070 O   0  0  0  0  0  0  0  0  0  0  0  0
    4.4800   -0.7830    0.2430 C   0  0  0  0  0  0  0  0  0  0  0  0
    4.4250    0.3140    1.0740 C   0  0  0  0  0  0  0  0  0  0  0  0
    3.5020    1.2970    0.7880 C   0  0  0  0  0  0  0  0  0  0  0  0
    2.6570    1.2030   -0.2840 C   0  0  0  0  0  0  0  0  0  0  0  0
    1.7090    2.3100   -0.5030 C   0  0  0  0  0  0  0  0  0  0  0  0
    0.3970    2.1700    0.1700 C   0  0  2  0  0  0  0  0  0  0  0  0
    0.4350    2.0680    1.5890 N   0  0  0  0  0  0  0  0  0  0  0  0
   -0.3270    1.0100   -0.4370 C   0  0  0  0  0  0  0  0  0  0  0  0
   -0.4810    0.8960   -1.6800 O   0  0  0  0  0  0  0  0  0  0  0  0
    2.7350    0.1010   -1.0920 C   0  0  0  0  0  0  0  0  0  0  0  0
    3.6400   -0.9000   -0.8430 C   0  0  0  0  0  0  0  0  0  0  0  0
    6.3680   -1.6930    0.2350 H   0  0  0  0  0  0  0  0  0  0  0  0
    5.1020    0.3960    1.9380 H   0  0  0  0  0  0  0  0  0  0  0  0
    3.4760    2.1670    1.4680 H   0  0  0  0  0  0  0  0  0  0  0  0
    2.2430    3.2570   -0.2950 H   0  0  0  0  0  0  0  0  0  0  0  0
    1.5070    2.3330   -1.6150 H   0  0  0  0  0  0  0  0  0  0  0  0
   -0.2200    3.0680   -0.1250 H   0  0  0  0  0  0  0  0  0  0  0  0
    0.9910    1.2810    2.0110 H   0  0  0  0  0  0  0  0  0  0  0  0
    2.0950   -0.0070   -1.9370 H   0  0  0  0  0  0  0  0  0  0  0  0
    3.6850   -1.7780   -1.5060 H   0  0  0  0  0  0  0  0  0  0  0  0
   -0.8840   -0.0320    0.3670 N   0  0  0  0  0  0  0  0  0  0  0  0
   -1.5950   -1.1740   -0.1880 C   0  0  1  0  0  0  0  0  0  0  0  0
   -0.8430   -2.4110    0.2650 C   0  0  0  0  0  0  0  0  0  0  0  0
   -1.4780   -3.6560   -0.2410 C   0  0  0  0  0  0  0  0  0  0  0  0
   -2.2500   -4.5280    0.5010 C   0  0  0  0  0  0  0  0  0  0  0  0
   -2.6300   -5.5160   -0.3160 N   0  0  0  0  0  0  0  0  0  0  0  0
   -2.1310   -5.3110   -1.5550 C   0  0  0  0  0  0  0  0  0  0  0  0
   -2.2030   -5.9900   -2.7450 C   0  0  0  0  0  0  0  0  0  0  0  0
   -1.5640   -5.5170   -3.8850 C   0  0  0  0  0  0  0  0  0  0  0  0
   -0.8400   -4.3520   -3.8430 C   0  0  0  0  0  0  0  0  0  0  0  0
   -0.7680   -3.6700   -2.6470 C   0  0  0  0  0  0  0  0  0  0  0  0
   -1.4130   -4.1500   -1.5030 C   0  0  0  0  0  0  0  0  0  0  0  0
   -2.9690   -1.2810    0.3680 C   0  0  0  0  0  0  0  0  0  0  0  0
   -3.4020   -0.4600    1.2070 O   0  0  0  0  0  0  0  0  0  0  0  0
   -3.7990   -2.3050   -0.0430 O   0  0  0  0  0  0  0  0  0  0  0  0
   -0.7510    0.0710    1.3970 H   0  0  0  0  0  0  0  0  0  0  0  0
   -1.6470   -1.1510   -1.2760 H   0  0  0  0  0  0  0  0  0  0  0  0
    0.2350   -2.3820   -0.0540 H   0  0  0  0  0  0  0  0  0  0  0  0
   -0.8270   -2.3770    1.3750 H   0  0  0  0  0  0  0  0  0  0  0  0
   -2.4690   -4.3730    1.5600 H   0  0  0  0  0  0  0  0  0  0  0  0
   -3.2270   -6.3260   -0.0320 H   0  0  0  0  0  0  0  0  0  0  0  0
   -2.7690   -6.9110   -2.7990 H   0  0  0  0  0  0  0  0  0  0  0  0
   -1.6070   -6.0380   -4.8370 H   0  0  0  0  0  0  0  0  0  0  0  0
   -0.3340   -3.9630   -4.7160 H   0  0  0  0  0  0  0  0  0  0  0  0
   -0.2030   -2.7430   -2.5770 H   0  0  0  0  0  0  0  0  0  0  0  0
  1  8  1  0  0  0  0
  1  7  1  0  0  0  0
  2  9  1  1  0  0  0
  2  3  1  0  0  0  0
  2  1  1  0  0  0  0
  3  4  1  0  0  0  0
  4 12  1  0  0  0  0
  5  2  1  0  0  0  0
  6  5  2  0  0  0  0
 10  3  1  0  0  0  0
 11  3  1  0  0  0  0
 14 13  1  0  0  0  0
 14 15  1  0  0  0  0
 15 26  1  0  0  0  0
 16 15  2  0  0  0  0
 16 27  1  0  0  0  0
 17 16  1  0  0  0  0
 18 28  1  0  0  0  0
 18 17  1  0  0  0  0
 18 19  1  0  0  0  0
 19 30  1  6  0  0  0
 19 20  1  0  0  0  0
 20 31  1  0  0  0  0
 20  5  1  0  0  0  0
 21 19  1  0  0  0  0
 21 34  1  0  0  0  0
 22 21  2  0  0  0  0
 23 24  1  0  0  0  0
 23 17  2  0  0  0  0
 24 14  2  0  0  0  0
 25 13  1  0  0  0  0
 29 18  1  0  0  0  0
 32 23  1  0  0  0  0
 33 24  1  0  0  0  0
 34 49  1  0  0  0  0
 35 50  1  6  0  0  0
 35 36  1  0  0  0  0
 35 34  1  0  0  0  0
 35 46  1  0  0  0  0
 36 52  1  0  0  0  0
 37 36  1  0  0  0  0
 37 38  2  0  0  0  0
 38 53  1  0  0  0  0
 39 54  1  0  0  0  0
 39 38  1  0  0  0  0
 40 45  1  0  0  0  0
 40 39  1  0  0  0  0
 41 40  2  0  0  0  0
 42 43  2  0  0  0  0
 42 41  1  0  0  0  0
 43 44  1  0  0  0  0
 44 58  1  0  0  0  0
 44 45  2  0  0  0  0
 45 37  1  0  0  0  0
 46 47  1  0  0  0  0
 48 46  2  0  0  0  0
 51 36  1  0  0  0  0
 55 41  1  0  0  0  0
 56 42  1  0  0  0  0
 57 43  1  0  0  0  0
M  END
$$$$
