DAA.pdb
 OpenBabel07022418123D

 35 34  0  0  1  0  0  0  0  0999 V2000
   -0.7730   -2.4350    1.6310 N   0  0  0  0  0  0  0  0  0  0  0  0
    0.6350   -2.5760    1.9510 C   0  0  1  0  0  0  0  0  0  0  0  0
    0.9650   -4.0480    1.8530 C   0  0  0  0  0  0  0  0  0  0  0  0
    0.1480   -4.8170    2.7990 C   0  0  0  0  0  0  0  0  0  0  0  0
   -0.6830   -4.2110    3.5390 O   0  0  0  0  0  0  0  0  0  0  0  0
    1.4690   -1.8010    0.9640 C   0  0  0  0  0  0  0  0  0  0  0  0
    2.7090   -1.7690    1.0310 O   0  0  0  0  0  0  0  0  0  0  0  0
    0.2390   -6.2010    2.9270 O   0  0  0  0  0  0  0  0  0  0  0  0
   -0.9520   -2.8610    0.6840 H   0  0  0  0  0  0  0  0  0  0  0  0
   -1.1280   -1.4790    1.7200 H   0  0  0  0  0  0  0  0  0  0  0  0
    0.8330   -2.2280    2.9740 H   0  0  0  0  0  0  0  0  0  0  0  0
    0.8420   -4.4430    0.8380 H   0  0  0  0  0  0  0  0  0  0  0  0
    2.0320   -4.2070    2.1300 H   0  0  0  0  0  0  0  0  0  0  0  0
   -0.5950   -6.7370    3.1130 H   0  0  0  0  0  0  0  0  0  0  0  0
    1.1670   -0.9110   -2.4280 C   0  0  0  0  0  0  0  0  0  0  0  0
    1.5310   -0.3090   -1.0780 C   0  0  2  0  0  0  0  0  0  0  0  0
    0.8330   -1.0870   -0.0730 N   0  0  0  0  0  0  0  0  0  0  0  0
    1.0370    1.1140   -1.0460 C   0  0  0  0  0  0  0  0  0  0  0  0
    1.4970    1.9810   -1.8310 O   0  0  0  0  0  0  0  0  0  0  0  0
    1.4560   -0.2580   -3.2640 H   0  0  0  0  0  0  0  0  0  0  0  0
    1.6600   -1.8840   -2.5460 H   0  0  0  0  0  0  0  0  0  0  0  0
    0.0760   -1.0920   -2.4710 H   0  0  0  0  0  0  0  0  0  0  0  0
    2.6280   -0.3420   -0.9360 H   0  0  0  0  0  0  0  0  0  0  0  0
   -0.2080   -1.1200   -0.1220 H   0  0  0  0  0  0  0  0  0  0  0  0
   -1.9130    3.0120   -0.4300 C   0  0  0  0  0  0  0  0  0  0  0  0
   -0.4500    2.9050   -0.0940 C   0  0  2  0  0  0  0  0  0  0  0  0
    0.0340    1.5430   -0.1350 N   0  0  0  0  0  0  0  0  0  0  0  0
   -0.1420    3.5670    1.1990 C   0  0  0  0  0  0  0  0  0  0  0  0
   -0.5220    4.7580    1.3370 O   0  0  0  0  0  0  0  0  0  0  0  0
    0.5200    2.9720    2.2390 O   0  0  0  0  0  0  0  0  0  0  0  0
   -2.3600    3.9160    0.0470 H   0  0  0  0  0  0  0  0  0  0  0  0
   -2.0470    3.1490   -1.5220 H   0  0  0  0  0  0  0  0  0  0  0  0
   -2.4870    2.1490   -0.0310 H   0  0  0  0  0  0  0  0  0  0  0  0
    0.1050    3.4690   -0.8750 H   0  0  0  0  0  0  0  0  0  0  0  0
   -0.3500    0.8090    0.5240 H   0  0  0  0  0  0  0  0  0  0  0  0
  1 10  1  0  0  0  0
  1  2  1  0  0  0  0
  2 11  1  1  0  0  0
  3  2  1  0  0  0  0
  3 13  1  0  0  0  0
  3  4  1  0  0  0  0
  4  8  1  0  0  0  0
  4  5  2  0  0  0  0
  6  7  2  0  0  0  0
  6  2  1  0  0  0  0
  8 14  1  0  0  0  0
  9  1  1  0  0  0  0
 12  3  1  0  0  0  0
 15 16  1  0  0  0  0
 16 18  1  0  0  0  0
 16 23  1  1  0  0  0
 16 17  1  0  0  0  0
 17  6  1  0  0  0  0
 18 27  1  0  0  0  0
 19 18  2  0  0  0  0
 20 15  1  0  0  0  0
 21 15  1  0  0  0  0
 22 15  1  0  0  0  0
 24 17  1  0  0  0  0
 25 26  1  0  0  0  0
 25 33  1  0  0  0  0
 25 31  1  0  0  0  0
 26 34  1  6  0  0  0
 26 28  1  0  0  0  0
 27 26  1  0  0  0  0
 27 35  1  0  0  0  0
 28 29  2  0  0  0  0
 28 30  1  0  0  0  0
 32 25  1  0  0  0  0
M  END
$$$$
