DAE.pdb
 OpenBabel07022418123D

 41 40  0  0  1  0  0  0  0  0999 V2000
    1.7180   -4.6330    1.3970 N   0  0  0  0  0  0  0  0  0  0  0  0
    0.8630   -3.4420    1.4970 C   0  0  1  0  0  0  0  0  0  0  0  0
    1.5770   -2.3740    2.2940 C   0  0  0  0  0  0  0  0  0  0  0  0
    1.8940   -2.8390    3.6640 C   0  0  0  0  0  0  0  0  0  0  0  0
    2.5080   -2.0820    4.4520 O   0  0  0  0  0  0  0  0  0  0  0  0
    0.5940   -3.0070    0.1060 C   0  0  0  0  0  0  0  0  0  0  0  0
    1.0970   -3.5620   -0.9060 O   0  0  0  0  0  0  0  0  0  0  0  0
    1.5210   -4.1030    4.0870 O   0  0  0  0  0  0  0  0  0  0  0  0
    2.6450   -4.4130    1.8390 H   0  0  0  0  0  0  0  0  0  0  0  0
    1.2660   -5.4710    1.8160 H   0  0  0  0  0  0  0  0  0  0  0  0
   -0.0370   -3.7360    2.0640 H   0  0  0  0  0  0  0  0  0  0  0  0
    1.0600   -1.4160    2.3070 H   0  0  0  0  0  0  0  0  0  0  0  0
    2.5760   -2.2420    1.7850 H   0  0  0  0  0  0  0  0  0  0  0  0
    1.4200   -4.2330    5.0970 H   0  0  0  0  0  0  0  0  0  0  0  0
   -2.0270   -1.4070   -1.8390 C   0  0  0  0  0  0  0  0  0  0  0  0
   -0.5570   -1.4530   -1.5080 C   0  0  2  0  0  0  0  0  0  0  0  0
   -0.2790   -1.8970   -0.1810 N   0  0  0  0  0  0  0  0  0  0  0  0
   -0.0520   -0.0640   -1.6440 C   0  0  0  0  0  0  0  0  0  0  0  0
   -0.1110    0.5600   -2.7430 O   0  0  0  0  0  0  0  0  0  0  0  0
   -2.6160   -1.0350   -0.9570 H   0  0  0  0  0  0  0  0  0  0  0  0
   -2.1600   -0.6380   -2.6290 H   0  0  0  0  0  0  0  0  0  0  0  0
   -2.4240   -2.3450   -2.2430 H   0  0  0  0  0  0  0  0  0  0  0  0
   -0.0710   -2.0900   -2.2840 H   0  0  0  0  0  0  0  0  0  0  0  0
   -0.6900   -1.4620    0.6710 H   0  0  0  0  0  0  0  0  0  0  0  0
    0.5140    0.6010   -0.5270 N   0  0  0  0  0  0  0  0  0  0  0  0
    1.0410    1.9320   -0.5480 C   0  0  1  0  0  0  0  0  0  0  0  0
    0.1300    2.9880   -0.0010 C   0  0  0  0  0  0  0  0  0  0  0  0
   -0.3070    2.8160    1.4000 C   0  0  0  0  0  0  0  0  0  0  0  0
   -1.2030    1.6770    1.6840 C   0  0  0  0  0  0  0  0  0  0  0  0
   -1.8090    0.9840    0.8530 O   0  0  0  0  0  0  0  0  0  0  0  0
    2.3510    1.9720    0.1760 C   0  0  0  0  0  0  0  0  0  0  0  0
    3.0210    3.0270    0.2960 O   0  0  0  0  0  0  0  0  0  0  0  0
   -1.3840    1.3480    3.0310 O   0  0  0  0  0  0  0  0  0  0  0  0
    2.8560    0.8130    0.7380 O   0  0  0  0  0  0  0  0  0  0  0  0
    0.5830    0.0790    0.3730 H   0  0  0  0  0  0  0  0  0  0  0  0
    1.2830    2.2360   -1.6200 H   0  0  0  0  0  0  0  0  0  0  0  0
   -0.7240    3.1680   -0.7060 H   0  0  0  0  0  0  0  0  0  0  0  0
    0.7520    3.9430   -0.0170 H   0  0  0  0  0  0  0  0  0  0  0  0
   -0.8730    3.7320    1.7490 H   0  0  0  0  0  0  0  0  0  0  0  0
    0.5720    2.7940    2.1100 H   0  0  0  0  0  0  0  0  0  0  0  0
   -2.0620    0.6600    3.2980 H   0  0  0  0  0  0  0  0  0  0  0  0
  1  2  1  0  0  0  0
  1 10  1  0  0  0  0
  1  9  1  0  0  0  0
  2 11  1  1  0  0  0
  2  3  1  0  0  0  0
  3 12  1  0  0  0  0
  3  4  1  0  0  0  0
  4  8  1  0  0  0  0
  4  5  2  0  0  0  0
  6  2  1  0  0  0  0
  7  6  2  0  0  0  0
  8 14  1  0  0  0  0
 13  3  1  0  0  0  0
 15 16  1  0  0  0  0
 15 20  1  0  0  0  0
 16 23  1  6  0  0  0
 16 17  1  0  0  0  0
 17  6  1  0  0  0  0
 17 24  1  0  0  0  0
 18 16  1  0  0  0  0
 18 25  1  0  0  0  0
 19 18  2  0  0  0  0
 21 15  1  0  0  0  0
 22 15  1  0  0  0  0
 25 35  1  0  0  0  0
 26 36  1  6  0  0  0
 26 25  1  0  0  0  0
 26 27  1  0  0  0  0
 26 31  1  0  0  0  0
 27 28  1  0  0  0  0
 28 29  1  0  0  0  0
 28 39  1  0  0  0  0
 28 40  1  0  0  0  0
 29 33  1  0  0  0  0
 30 29  2  0  0  0  0
 31 32  2  0  0  0  0
 31 34  1  0  0  0  0
 33 41  1  0  0  0  0
 37 27  1  0  0  0  0
 38 27  1  0  0  0  0
M  END
$$$$
