DAF.pdb
 OpenBabel07022418123D

 45 45  0  0  1  0  0  0  0  0999 V2000
    0.3600   -2.9520    0.3150 N   0  0  0  0  0  0  0  0  0  0  0  0
    1.3300   -3.1700    1.3470 C   0  0  1  0  0  0  0  0  0  0  0  0
    1.9940   -4.5230    1.2420 C   0  0  0  0  0  0  0  0  0  0  0  0
    0.9160   -5.5460    1.3560 C   0  0  0  0  0  0  0  0  0  0  0  0
    1.1750   -6.7870    1.3020 O   0  0  0  0  0  0  0  0  0  0  0  0
    2.2770   -2.0600    1.4470 C   0  0  0  0  0  0  0  0  0  0  0  0
    3.2260   -2.0010    2.2690 O   0  0  0  0  0  0  0  0  0  0  0  0
   -0.4230   -5.2090    1.5260 O   0  0  0  0  0  0  0  0  0  0  0  0
   -0.3230   -2.2130    0.5520 H   0  0  0  0  0  0  0  0  0  0  0  0
    0.7570   -2.8320   -0.6220 H   0  0  0  0  0  0  0  0  0  0  0  0
    0.7550   -3.1930    2.3200 H   0  0  0  0  0  0  0  0  0  0  0  0
    2.6880   -4.6090    2.1040 H   0  0  0  0  0  0  0  0  0  0  0  0
    2.5560   -4.6580    0.3070 H   0  0  0  0  0  0  0  0  0  0  0  0
   -1.1910   -5.8080    1.2850 H   0  0  0  0  0  0  0  0  0  0  0  0
    3.6130    0.3390   -0.7900 C   0  0  0  0  0  0  0  0  0  0  0  0
    3.0410    0.1830    0.6040 C   0  0  2  0  0  0  0  0  0  0  0  0
    2.1290   -0.9600    0.5590 N   0  0  0  0  0  0  0  0  0  0  0  0
    2.2220    1.4140    0.8710 C   0  0  0  0  0  0  0  0  0  0  0  0
    2.7850    2.5400    0.9540 O   0  0  0  0  0  0  0  0  0  0  0  0
    2.7430    0.3050   -1.4940 H   0  0  0  0  0  0  0  0  0  0  0  0
    4.2790   -0.5150   -1.0300 H   0  0  0  0  0  0  0  0  0  0  0  0
    4.1170    1.3170   -0.9310 H   0  0  0  0  0  0  0  0  0  0  0  0
    3.8100    0.0600    1.3790 H   0  0  0  0  0  0  0  0  0  0  0  0
    1.3630   -0.9430   -0.1490 H   0  0  0  0  0  0  0  0  0  0  0  0
    0.8310    1.3600    1.0360 N   0  0  0  0  0  0  0  0  0  0  0  0
    0.0060    2.5310    1.2960 C   0  0  1  0  0  0  0  0  0  0  0  0
   -1.0370    2.7380    0.2450 C   0  0  0  0  0  0  0  0  0  0  0  0
   -1.9750    1.5970    0.1190 C   0  0  0  0  0  0  0  0  0  0  0  0
   -1.6360    0.5890   -0.7580 C   0  0  0  0  0  0  0  0  0  0  0  0
   -2.4550   -0.4960   -0.9280 C   0  0  0  0  0  0  0  0  0  0  0  0
   -3.6540   -0.6080   -0.2160 C   0  0  0  0  0  0  0  0  0  0  0  0
   -3.9900    0.4030    0.6630 C   0  0  0  0  0  0  0  0  0  0  0  0
   -3.1650    1.5010    0.8370 C   0  0  0  0  0  0  0  0  0  0  0  0
   -0.6420    2.4140    2.6080 C   0  0  0  0  0  0  0  0  0  0  0  0
   -1.3980    3.3130    3.0560 O   0  0  0  0  0  0  0  0  0  0  0  0
   -0.4650    1.3000    3.4450 O   0  0  0  0  0  0  0  0  0  0  0  0
    0.3580    0.4320    0.9690 H   0  0  0  0  0  0  0  0  0  0  0  0
    0.6750    3.4110    1.3320 H   0  0  0  0  0  0  0  0  0  0  0  0
   -0.5490    2.9360   -0.7520 H   0  0  0  0  0  0  0  0  0  0  0  0
   -1.5940    3.6520    0.4870 H   0  0  0  0  0  0  0  0  0  0  0  0
   -0.7150    0.6610   -1.3150 H   0  0  0  0  0  0  0  0  0  0  0  0
   -2.2010   -1.2890   -1.6110 H   0  0  0  0  0  0  0  0  0  0  0  0
   -4.2970   -1.4450   -0.3390 H   0  0  0  0  0  0  0  0  0  0  0  0
   -4.9160    0.3230    1.2170 H   0  0  0  0  0  0  0  0  0  0  0  0
   -3.4260    2.2940    1.5220 H   0  0  0  0  0  0  0  0  0  0  0  0
  1  9  1  0  0  0  0
  1  2  1  0  0  0  0
  2  6  1  0  0  0  0
  2 11  1  1  0  0  0
  3  2  1  0  0  0  0
  3  4  1  0  0  0  0
  3 12  1  0  0  0  0
  4  8  1  0  0  0  0
  5  4  2  0  0  0  0
  6  7  2  0  0  0  0
 10  1  1  0  0  0  0
 13  3  1  0  0  0  0
 14  8  1  0  0  0  0
 15 16  1  0  0  0  0
 16 18  1  0  0  0  0
 16 23  1  1  0  0  0
 17 16  1  0  0  0  0
 17  6  1  0  0  0  0
 18 19  2  0  0  0  0
 18 25  1  0  0  0  0
 20 15  1  0  0  0  0
 21 15  1  0  0  0  0
 22 15  1  0  0  0  0
 24 17  1  0  0  0  0
 25 26  1  0  0  0  0
 26 38  1  1  0  0  0
 26 34  1  0  0  0  0
 27 40  1  0  0  0  0
 27 26  1  0  0  0  0
 28 27  1  0  0  0  0
 28 33  1  0  0  0  0
 29 28  2  0  0  0  0
 30 29  1  0  0  0  0
 30 31  2  0  0  0  0
 31 32  1  0  0  0  0
 32 33  2  0  0  0  0
 32 44  1  0  0  0  0
 33 45  1  0  0  0  0
 34 35  2  0  0  0  0
 34 36  1  0  0  0  0
 37 25  1  0  0  0  0
 39 27  1  0  0  0  0
 41 29  1  0  0  0  0
 42 30  1  0  0  0  0
 43 31  1  0  0  0  0
M  END
$$$$
