DAG.pdb
 OpenBabel07022418123D

 32 31  0  0  1  0  0  0  0  0999 V2000
    0.7540   -4.2630    2.4080 N   0  0  0  0  0  0  0  0  0  0  0  0
    0.1690   -2.8690    2.3790 C   0  0  1  0  0  0  0  0  0  0  0  0
    1.0480   -2.1290    3.3210 C   0  0  0  0  0  0  0  0  0  0  0  0
    0.7630   -0.7320    3.5860 C   0  0  0  0  0  0  0  0  0  0  0  0
   -0.2510   -0.1670    3.1490 O   0  0  0  0  0  0  0  0  0  0  0  0
    0.2760   -2.5050    0.9560 C   0  0  0  0  0  0  0  0  0  0  0  0
    1.0850   -3.1400    0.1740 O   0  0  0  0  0  0  0  0  0  0  0  0
    1.6150    0.0830    4.3580 O   0  0  0  0  0  0  0  0  0  0  0  0
    1.6560   -4.1730    1.8860 H   0  0  0  0  0  0  0  0  0  0  0  0
    0.0990   -4.7790    1.7520 H   0  0  0  0  0  0  0  0  0  0  0  0
   -0.8240   -2.9840    2.7850 H   0  0  0  0  0  0  0  0  0  0  0  0
    0.9370   -2.6750    4.3140 H   0  0  0  0  0  0  0  0  0  0  0  0
    2.1410   -2.3000    3.0910 H   0  0  0  0  0  0  0  0  0  0  0  0
    1.4040    1.0350    4.5570 H   0  0  0  0  0  0  0  0  0  0  0  0
   -1.5150   -1.5060   -1.9230 C   0  0  0  0  0  0  0  0  0  0  0  0
   -0.2400   -1.2270   -1.1510 C   0  0  2  0  0  0  0  0  0  0  0  0
   -0.4400   -1.4850    0.2800 N   0  0  0  0  0  0  0  0  0  0  0  0
    0.0420    0.2110   -1.3370 C   0  0  0  0  0  0  0  0  0  0  0  0
    0.2700    0.6520   -2.5180 O   0  0  0  0  0  0  0  0  0  0  0  0
   -2.3690   -1.0590   -1.3650 H   0  0  0  0  0  0  0  0  0  0  0  0
   -1.4340   -0.9280   -2.8680 H   0  0  0  0  0  0  0  0  0  0  0  0
   -1.6480   -2.5670   -2.1440 H   0  0  0  0  0  0  0  0  0  0  0  0
    0.5200   -1.8980   -1.5640 H   0  0  0  0  0  0  0  0  0  0  0  0
   -1.1190   -0.9200    0.7810 H   0  0  0  0  0  0  0  0  0  0  0  0
    0.0900    1.1840   -0.3190 N   0  0  0  0  0  0  0  0  0  0  0  0
    0.3730    2.5820   -0.5620 C   0  0  0  0  0  0  0  0  0  0  0  0
   -0.6260    3.1920   -1.4800 C   0  0  0  0  0  0  0  0  0  0  0  0
   -0.4840    4.4010   -1.7650 O   0  0  0  0  0  0  0  0  0  0  0  0
   -1.6480    2.3930   -1.9610 O   0  0  0  0  0  0  0  0  0  0  0  0
   -0.0880    0.8860    0.6600 H   0  0  0  0  0  0  0  0  0  0  0  0
    0.3350    3.1340    0.4010 H   0  0  0  0  0  0  0  0  0  0  0  0
    1.4240    2.7190   -0.9340 H   0  0  0  0  0  0  0  0  0  0  0  0
  2  1  1  0  0  0  0
  2 11  1  1  0  0  0
  2  3  1  0  0  0  0
  3  4  1  0  0  0  0
  3 12  1  0  0  0  0
  4  8  1  0  0  0  0
  5  4  2  0  0  0  0
  6  2  1  0  0  0  0
  7  6  2  0  0  0  0
  8 14  1  0  0  0  0
  9  1  1  0  0  0  0
 10  1  1  0  0  0  0
 13  3  1  0  0  0  0
 15 20  1  0  0  0  0
 15 16  1  0  0  0  0
 16 23  1  6  0  0  0
 16 17  1  0  0  0  0
 17 24  1  0  0  0  0
 17  6  1  0  0  0  0
 18 16  1  0  0  0  0
 18 25  1  0  0  0  0
 19 18  2  0  0  0  0
 21 15  1  0  0  0  0
 22 15  1  0  0  0  0
 25 30  1  0  0  0  0
 26 25  1  0  0  0  0
 26 31  1  0  0  0  0
 27 26  1  0  0  0  0
 28 27  1  0  0  0  0
 29 27  2  0  0  0  0
 32 26  1  0  0  0  0
M  END
$$$$
