DAH.pdb
 OpenBabel07022418123D

 42 42  0  0  1  0  0  0  0  0999 V2000
    2.1300   -4.9420    0.2320 N   0  0  0  0  0  0  0  0  0  0  0  0
    1.3900   -3.7890    0.7710 C   0  0  1  0  0  0  0  0  0  0  0  0
    2.2930   -3.1310    1.8000 C   0  0  0  0  0  0  0  0  0  0  0  0
    2.6580   -4.0480    2.8920 C   0  0  0  0  0  0  0  0  0  0  0  0
    3.1290   -5.2010    2.6290 O   0  0  0  0  0  0  0  0  0  0  0  0
    1.1550   -2.8620   -0.3840 C   0  0  0  0  0  0  0  0  0  0  0  0
    1.7270   -3.0330   -1.4950 O   0  0  0  0  0  0  0  0  0  0  0  0
    2.5160   -3.7360    4.2460 O   0  0  0  0  0  0  0  0  0  0  0  0
    1.8240   -5.7810    0.7990 H   0  0  0  0  0  0  0  0  0  0  0  0
    1.8790   -5.0430   -0.7810 H   0  0  0  0  0  0  0  0  0  0  0  0
    0.4810   -4.1500    1.2460 H   0  0  0  0  0  0  0  0  0  0  0  0
    1.8540   -2.2320    2.2330 H   0  0  0  0  0  0  0  0  0  0  0  0
    3.2710   -2.8570    1.2910 H   0  0  0  0  0  0  0  0  0  0  0  0
    2.3780   -4.5080    4.8990 H   0  0  0  0  0  0  0  0  0  0  0  0
   -1.4140   -0.8630   -1.8350 C   0  0  0  0  0  0  0  0  0  0  0  0
    0.0320   -0.8180   -1.3870 C   0  0  2  0  0  0  0  0  0  0  0  0
    0.2740   -1.7370   -0.2930 N   0  0  0  0  0  0  0  0  0  0  0  0
    0.2920    0.5790   -0.9360 C   0  0  0  0  0  0  0  0  0  0  0  0
    0.1680    1.5380   -1.7460 O   0  0  0  0  0  0  0  0  0  0  0  0
   -2.0600   -0.9370   -0.9410 H   0  0  0  0  0  0  0  0  0  0  0  0
   -1.6340    0.1020   -2.3460 H   0  0  0  0  0  0  0  0  0  0  0  0
   -1.6030   -1.6710   -2.5590 H   0  0  0  0  0  0  0  0  0  0  0  0
    0.6440   -1.0480   -2.2710 H   0  0  0  0  0  0  0  0  0  0  0  0
   -0.2130   -1.5930    0.6070 H   0  0  0  0  0  0  0  0  0  0  0  0
    0.6750    0.8430    0.3910 N   0  0  0  0  0  0  0  0  0  0  0  0
    0.9370    2.1990    0.8750 C   0  0  1  0  0  0  0  0  0  0  0  0
    0.0490    2.4220    2.0680 C   0  0  0  0  0  0  0  0  0  0  0  0
   -1.4060    2.3080    1.7190 C   0  0  0  0  0  0  0  0  0  0  0  0
   -2.4750    2.4420    2.5810 C   0  0  0  0  0  0  0  0  0  0  0  0
   -3.6010    2.2670    1.8810 N   0  0  0  0  0  0  0  0  0  0  0  0
   -3.2550    2.0270    0.6050 C   0  0  0  0  0  0  0  0  0  0  0  0
   -1.9300    2.0530    0.5120 N   0  0  0  0  0  0  0  0  0  0  0  0
    2.3800    2.2250    1.2820 C   0  0  0  0  0  0  0  0  0  0  0  0
    2.8650    3.3080    1.7380 O   0  0  0  0  0  0  0  0  0  0  0  0
    3.2080    1.1340    1.1860 O   0  0  0  0  0  0  0  0  0  0  0  0
    0.7980    0.0690    1.1040 H   0  0  0  0  0  0  0  0  0  0  0  0
    0.7730    2.9020    0.0620 H   0  0  0  0  0  0  0  0  0  0  0  0
    0.2380    1.6790    2.8550 H   0  0  0  0  0  0  0  0  0  0  0  0
    0.2710    3.4320    2.4680 H   0  0  0  0  0  0  0  0  0  0  0  0
   -2.4010    2.6540    3.6400 H   0  0  0  0  0  0  0  0  0  0  0  0
   -4.5760    2.3110    2.2710 H   0  0  0  0  0  0  0  0  0  0  0  0
   -3.9770    1.8440   -0.1920 H   0  0  0  0  0  0  0  0  0  0  0  0
  1  2  1  0  0  0  0
  1  9  1  0  0  0  0
  2 11  1  1  0  0  0
  2  3  1  0  0  0  0
  3 12  1  0  0  0  0
  3  4  1  0  0  0  0
  4  8  1  0  0  0  0
  5  4  2  0  0  0  0
  6 17  1  0  0  0  0
  6  2  1  0  0  0  0
  7  6  2  0  0  0  0
  8 14  1  0  0  0  0
 10  1  1  0  0  0  0
 13  3  1  0  0  0  0
 15 16  1  0  0  0  0
 15 20  1  0  0  0  0
 16 23  1  6  0  0  0
 16 18  1  0  0  0  0
 16 17  1  0  0  0  0
 17 24  1  0  0  0  0
 18 25  1  0  0  0  0
 19 18  2  0  0  0  0
 21 15  1  0  0  0  0
 22 15  1  0  0  0  0
 25 26  1  0  0  0  0
 25 36  1  0  0  0  0
 26 37  1  6  0  0  0
 26 33  1  0  0  0  0
 26 27  1  0  0  0  0
 27 39  1  0  0  0  0
 27 38  1  0  0  0  0
 28 27  1  0  0  0  0
 28 29  2  0  0  0  0
 29 40  1  0  0  0  0
 30 41  1  0  0  0  0
 30 29  1  0  0  0  0
 31 30  1  0  0  0  0
 32 31  2  0  0  0  0
 32 28  1  0  0  0  0
 33 34  1  0  0  0  0
 35 33  2  0  0  0  0
 42 31  1  0  0  0  0
M  END
$$$$
