DAN.pdb
 OpenBabel07022418123D

 39 38  0  0  1  0  0  0  0  0999 V2000
    2.2620   -2.4540    1.0790 N   0  0  0  0  0  0  0  0  0  0  0  0
    1.7620   -2.8940   -0.1870 C   0  0  1  0  0  0  0  0  0  0  0  0
    1.9020   -4.3700   -0.3580 C   0  0  0  0  0  0  0  0  0  0  0  0
    1.1890   -5.1660    0.6450 C   0  0  0  0  0  0  0  0  0  0  0  0
    0.5150   -4.6860    1.5750 O   0  0  0  0  0  0  0  0  0  0  0  0
    0.3990   -2.3900   -0.4080 C   0  0  0  0  0  0  0  0  0  0  0  0
   -0.2660   -2.6370   -1.4570 O   0  0  0  0  0  0  0  0  0  0  0  0
    1.2710   -6.5500    0.5520 O   0  0  0  0  0  0  0  0  0  0  0  0
    2.5780   -1.4560    0.9720 H   0  0  0  0  0  0  0  0  0  0  0  0
    3.0370   -3.0120    1.4550 H   0  0  0  0  0  0  0  0  0  0  0  0
    2.4100   -2.4170   -0.9770 H   0  0  0  0  0  0  0  0  0  0  0  0
    1.6020   -4.6850   -1.3760 H   0  0  0  0  0  0  0  0  0  0  0  0
    2.9880   -4.6130   -0.2670 H   0  0  0  0  0  0  0  0  0  0  0  0
    1.0550   -7.1800    1.3010 H   0  0  0  0  0  0  0  0  0  0  0  0
   -2.5640   -1.6240    1.4070 C   0  0  0  0  0  0  0  0  0  0  0  0
   -1.5760   -1.0640    0.4150 C   0  0  2  0  0  0  0  0  0  0  0  0
   -0.2460   -1.5820    0.5780 N   0  0  0  0  0  0  0  0  0  0  0  0
   -1.6590    0.3980    0.3780 C   0  0  0  0  0  0  0  0  0  0  0  0
   -2.7890    0.9340    0.2370 O   0  0  0  0  0  0  0  0  0  0  0  0
   -2.9320   -2.6330    1.1150 H   0  0  0  0  0  0  0  0  0  0  0  0
   -3.4630   -0.9420    1.3660 H   0  0  0  0  0  0  0  0  0  0  0  0
   -2.1890   -1.6980    2.4250 H   0  0  0  0  0  0  0  0  0  0  0  0
   -1.9390   -1.4180   -0.5820 H   0  0  0  0  0  0  0  0  0  0  0  0
    0.3140   -1.3870    1.4390 H   0  0  0  0  0  0  0  0  0  0  0  0
    1.7070    3.5650    3.2900 N   0  0  0  0  0  0  0  0  0  0  0  0
    1.1760    3.0530    2.0790 C   0  0  0  0  0  0  0  0  0  0  0  0
    1.9280    2.3840    1.3330 O   0  0  0  0  0  0  0  0  0  0  0  0
   -0.2270    3.3240    1.7450 C   0  0  0  0  0  0  0  0  0  0  0  0
   -0.6780    2.7150    0.4480 C   0  0  2  0  0  0  0  0  0  0  0  0
   -0.5420    1.2840    0.4910 N   0  0  0  0  0  0  0  0  0  0  0  0
    0.0620    3.2380   -0.7070 C   0  0  0  0  0  0  0  0  0  0  0  0
    0.1100    4.4660   -0.9820 O   0  0  0  0  0  0  0  0  0  0  0  0
    0.7370    2.3600   -1.5350 O   0  0  0  0  0  0  0  0  0  0  0  0
    1.5710    4.5820    3.4870 H   0  0  0  0  0  0  0  0  0  0  0  0
    2.1980    2.9200    3.9170 H   0  0  0  0  0  0  0  0  0  0  0  0
   -0.8610    2.9280    2.5670 H   0  0  0  0  0  0  0  0  0  0  0  0
   -0.4470    4.4300    1.7230 H   0  0  0  0  0  0  0  0  0  0  0  0
   -1.7650    2.9650    0.3050 H   0  0  0  0  0  0  0  0  0  0  0  0
    0.3720    0.8320    0.6040 H   0  0  0  0  0  0  0  0  0  0  0  0
  1 10  1  0  0  0  0
  2 11  1  6  0  0  0
  2  1  1  0  0  0  0
  3 13  1  0  0  0  0
  3  2  1  0  0  0  0
  3  4  1  0  0  0  0
  4  5  2  0  0  0  0
  6  2  1  0  0  0  0
  6 17  1  0  0  0  0
  7  6  2  0  0  0  0
  8  4  1  0  0  0  0
  8 14  1  0  0  0  0
  9  1  1  0  0  0  0
 12  3  1  0  0  0  0
 15 22  1  0  0  0  0
 16 23  1  6  0  0  0
 16 17  1  0  0  0  0
 16 15  1  0  0  0  0
 17 24  1  0  0  0  0
 18 16  1  0  0  0  0
 18 30  1  0  0  0  0
 19 18  2  0  0  0  0
 20 15  1  0  0  0  0
 21 15  1  0  0  0  0
 25 34  1  0  0  0  0
 25 35  1  0  0  0  0
 26 25  1  0  0  0  0
 27 26  2  0  0  0  0
 28 26  1  0  0  0  0
 28 36  1  0  0  0  0
 29 38  1  6  0  0  0
 29 30  1  0  0  0  0
 29 28  1  0  0  0  0
 30 39  1  0  0  0  0
 31 29  1  0  0  0  0
 32 31  1  0  0  0  0
 33 31  2  0  0  0  0
 37 28  1  0  0  0  0
M  END
$$$$
