DAS.pdb
 OpenBabel07022418123D

 36 35  0  0  1  0  0  0  0  0999 V2000
   -0.5370   -4.1690    1.8540 N   0  0  0  0  0  0  0  0  0  0  0  0
    0.0840   -3.2910    2.8400 C   0  0  1  0  0  0  0  0  0  0  0  0
    1.2300   -3.9940    3.5310 C   0  0  0  0  0  0  0  0  0  0  0  0
    1.8280   -3.0760    4.5190 C   0  0  0  0  0  0  0  0  0  0  0  0
    2.8250   -2.3410    4.3330 O   0  0  0  0  0  0  0  0  0  0  0  0
    0.5820   -2.0540    2.2230 C   0  0  0  0  0  0  0  0  0  0  0  0
    1.1190   -1.1040    2.8440 O   0  0  0  0  0  0  0  0  0  0  0  0
    1.2360   -3.0100    5.7920 O   0  0  0  0  0  0  0  0  0  0  0  0
   -1.5120   -3.8590    1.6490 H   0  0  0  0  0  0  0  0  0  0  0  0
   -0.6310   -5.1120    2.3290 H   0  0  0  0  0  0  0  0  0  0  0  0
   -0.6890   -3.0990    3.6310 H   0  0  0  0  0  0  0  0  0  0  0  0
    2.0070   -4.2540    2.7800 H   0  0  0  0  0  0  0  0  0  0  0  0
    0.8800   -4.9170    4.0410 H   0  0  0  0  0  0  0  0  0  0  0  0
    1.2100   -2.1090    6.2930 H   0  0  0  0  0  0  0  0  0  0  0  0
    2.0510   -0.9090   -0.8490 C   0  0  0  0  0  0  0  0  0  0  0  0
    0.9820   -0.6060    0.1820 C   0  0  2  0  0  0  0  0  0  0  0  0
    0.4910   -1.8220    0.7980 N   0  0  0  0  0  0  0  0  0  0  0  0
   -0.1770    0.0950   -0.4150 C   0  0  0  0  0  0  0  0  0  0  0  0
   -1.3180   -0.4070   -0.2990 O   0  0  0  0  0  0  0  0  0  0  0  0
    2.1720   -0.0050   -1.4770 H   0  0  0  0  0  0  0  0  0  0  0  0
    1.8310   -1.8150   -1.4410 H   0  0  0  0  0  0  0  0  0  0  0  0
    3.0060   -1.0650   -0.2970 H   0  0  0  0  0  0  0  0  0  0  0  0
    1.4550    0.0710    0.9310 H   0  0  0  0  0  0  0  0  0  0  0  0
    0.0540   -2.5660    0.2140 H   0  0  0  0  0  0  0  0  0  0  0  0
   -0.1680    4.0840   -1.0680 O   0  0  0  0  0  0  0  0  0  0  0  0
   -1.3300    3.3320   -0.9530 C   0  0  0  0  0  0  0  0  0  0  0  0
   -1.1880    2.0200   -1.7060 C   0  0  2  0  0  0  0  0  0  0  0  0
   -0.0770    1.3120   -1.1160 N   0  0  0  0  0  0  0  0  0  0  0  0
   -1.0720    2.2120   -3.1420 C   0  0  0  0  0  0  0  0  0  0  0  0
   -1.9660    2.8120   -3.7750 O   0  0  0  0  0  0  0  0  0  0  0  0
    0.0220    1.7400   -3.8330 O   0  0  0  0  0  0  0  0  0  0  0  0
    0.2170    4.2940   -0.1770 H   0  0  0  0  0  0  0  0  0  0  0  0
   -2.1900    3.8720   -1.3890 H   0  0  0  0  0  0  0  0  0  0  0  0
   -1.5500    3.1620    0.1190 H   0  0  0  0  0  0  0  0  0  0  0  0
   -2.1080    1.4300   -1.4850 H   0  0  0  0  0  0  0  0  0  0  0  0
    0.8680    1.7330   -1.2180 H   0  0  0  0  0  0  0  0  0  0  0  0
  1 10  1  0  0  0  0
  1  2  1  0  0  0  0
  2  3  1  0  0  0  0
  2 11  1  1  0  0  0
  3 13  1  0  0  0  0
  3  4  1  0  0  0  0
  4  8  1  0  0  0  0
  5  4  2  0  0  0  0
  6  2  1  0  0  0  0
  6  7  2  0  0  0  0
  8 14  1  0  0  0  0
  9  1  1  0  0  0  0
 12  3  1  0  0  0  0
 15 22  1  0  0  0  0
 15 16  1  0  0  0  0
 16 17  1  0  0  0  0
 16 23  1  1  0  0  0
 17  6  1  0  0  0  0
 18 19  2  0  0  0  0
 18 16  1  0  0  0  0
 20 15  1  0  0  0  0
 21 15  1  0  0  0  0
 24 17  1  0  0  0  0
 25 26  1  0  0  0  0
 25 32  1  0  0  0  0
 26 34  1  0  0  0  0
 27 35  1  1  0  0  0
 27 28  1  0  0  0  0
 27 26  1  0  0  0  0
 28 18  1  0  0  0  0
 29 27  1  0  0  0  0
 30 29  1  0  0  0  0
 31 29  2  0  0  0  0
 33 26  1  0  0  0  0
 36 28  1  0  0  0  0
M  END
$$$$
