DAV.pdb
 OpenBabel07022418123D

 41 40  0  0  1  0  0  0  0  0999 V2000
    1.5860   -2.8350    2.1330 N   0  0  0  0  0  0  0  0  0  0  0  0
    1.5260   -3.6760    0.9580 C   0  0  1  0  0  0  0  0  0  0  0  0
    1.0610   -5.0500    1.4280 C   0  0  0  0  0  0  0  0  0  0  0  0
    2.0550   -5.5750    2.4250 C   0  0  0  0  0  0  0  0  0  0  0  0
    3.0620   -4.8890    2.7310 O   0  0  0  0  0  0  0  0  0  0  0  0
    0.5110   -3.1260    0.0360 C   0  0  0  0  0  0  0  0  0  0  0  0
    0.2390   -3.6540   -1.0770 O   0  0  0  0  0  0  0  0  0  0  0  0
    1.9010   -6.7960    3.0240 O   0  0  0  0  0  0  0  0  0  0  0  0
    2.5410   -2.6100    2.4360 H   0  0  0  0  0  0  0  0  0  0  0  0
    1.0680   -3.2230    2.9440 H   0  0  0  0  0  0  0  0  0  0  0  0
    2.5320   -3.7310    0.4960 H   0  0  0  0  0  0  0  0  0  0  0  0
    0.9500   -5.7460    0.5770 H   0  0  0  0  0  0  0  0  0  0  0  0
    0.1020   -4.9470    1.9400 H   0  0  0  0  0  0  0  0  0  0  0  0
    2.1060   -6.9230    4.0100 H   0  0  0  0  0  0  0  0  0  0  0  0
   -2.4930   -1.3420    0.4140 C   0  0  0  0  0  0  0  0  0  0  0  0
   -1.2070   -1.3380   -0.4220 C   0  0  2  0  0  0  0  0  0  0  0  0
   -0.1970   -1.9720    0.3840 N   0  0  0  0  0  0  0  0  0  0  0  0
   -0.8810    0.0950   -0.6510 C   0  0  0  0  0  0  0  0  0  0  0  0
   -1.6550    0.8050   -1.3360 O   0  0  0  0  0  0  0  0  0  0  0  0
   -2.1900   -0.8590    1.3900 H   0  0  0  0  0  0  0  0  0  0  0  0
   -3.2330   -0.6680   -0.0830 H   0  0  0  0  0  0  0  0  0  0  0  0
   -2.8700   -2.3560    0.5460 H   0  0  0  0  0  0  0  0  0  0  0  0
   -1.3680   -1.8810   -1.3780 H   0  0  0  0  0  0  0  0  0  0  0  0
    0.0150   -1.5130    1.3120 H   0  0  0  0  0  0  0  0  0  0  0  0
    0.8870    4.2800    0.8800 C   0  0  0  0  0  0  0  0  0  0  0  0
    0.5890    2.8090    0.9710 C   0  0  0  0  0  0  0  0  0  0  0  0
   -0.7760    2.6120    1.5960 C   0  0  0  0  0  0  0  0  0  0  0  0
    0.5930    2.1190   -0.3580 C   0  0  2  0  0  0  0  0  0  0  0  0
    0.2930    0.7140   -0.1210 N   0  0  0  0  0  0  0  0  0  0  0  0
    1.8670    2.2870   -1.0940 C   0  0  0  0  0  0  0  0  0  0  0  0
    2.5300    1.2710   -1.4270 O   0  0  0  0  0  0  0  0  0  0  0  0
    2.3770    3.5240   -1.4430 O   0  0  0  0  0  0  0  0  0  0  0  0
    0.1630    4.7890    0.2250 H   0  0  0  0  0  0  0  0  0  0  0  0
    1.9380    4.4830    0.6480 H   0  0  0  0  0  0  0  0  0  0  0  0
    0.7160    4.6990    1.9140 H   0  0  0  0  0  0  0  0  0  0  0  0
    1.3190    2.3390    1.6790 H   0  0  0  0  0  0  0  0  0  0  0  0
   -1.2550    1.6670    1.2440 H   0  0  0  0  0  0  0  0  0  0  0  0
   -1.4330    3.4370    1.2000 H   0  0  0  0  0  0  0  0  0  0  0  0
   -0.7310    2.6370    2.7030 H   0  0  0  0  0  0  0  0  0  0  0  0
   -0.2050    2.5730   -0.9800 H   0  0  0  0  0  0  0  0  0  0  0  0
    0.9160    0.0980    0.4440 H   0  0  0  0  0  0  0  0  0  0  0  0
  1  9  1  0  0  0  0
  1 10  1  0  0  0  0
  2 11  1  6  0  0  0
  2  3  1  0  0  0  0
  2  1  1  0  0  0  0
  3 13  1  0  0  0  0
  3  4  1  0  0  0  0
  4  5  2  0  0  0  0
  4  8  1  0  0  0  0
  6 17  1  0  0  0  0
  6  2  1  0  0  0  0
  7  6  2  0  0  0  0
  8 14  1  0  0  0  0
 12  3  1  0  0  0  0
 15 22  1  0  0  0  0
 15 20  1  0  0  0  0
 16 23  1  6  0  0  0
 16 17  1  0  0  0  0
 16 15  1  0  0  0  0
 17 24  1  0  0  0  0
 18 16  1  0  0  0  0
 18 29  1  0  0  0  0
 19 18  2  0  0  0  0
 21 15  1  0  0  0  0
 25 26  1  0  0  0  0
 25 35  1  0  0  0  0
 26 27  1  0  0  0  0
 26 36  1  0  0  0  0
 27 39  1  0  0  0  0
 28 40  1  6  0  0  0
 28 29  1  0  0  0  0
 28 26  1  0  0  0  0
 29 41  1  0  0  0  0
 30 28  1  0  0  0  0
 31 30  1  0  0  0  0
 32 30  2  0  0  0  0
 33 25  1  0  0  0  0
 34 25  1  0  0  0  0
 37 27  1  0  0  0  0
 38 27  1  0  0  0  0
M  END
$$$$
