DAY.pdb
 OpenBabel07022418123D

 46 46  0  0  1  0  0  0  0  0999 V2000
    4.7430   -1.2810    1.1350 N   0  0  0  0  0  0  0  0  0  0  0  0
    3.3370   -1.6200    1.1790 C   0  0  1  0  0  0  0  0  0  0  0  0
    2.6030   -0.8190    2.2060 C   0  0  0  0  0  0  0  0  0  0  0  0
    2.6500    0.6250    1.9950 C   0  0  0  0  0  0  0  0  0  0  0  0
    3.2540    1.1550    1.0350 O   0  0  0  0  0  0  0  0  0  0  0  0
    2.7800   -1.6130   -0.1540 C   0  0  0  0  0  0  0  0  0  0  0  0
    3.5300   -1.3320   -1.1270 O   0  0  0  0  0  0  0  0  0  0  0  0
    1.9980    1.4510    2.8950 O   0  0  0  0  0  0  0  0  0  0  0  0
    5.2640   -1.9970    0.5770 H   0  0  0  0  0  0  0  0  0  0  0  0
    5.1480   -1.2830    2.0890 H   0  0  0  0  0  0  0  0  0  0  0  0
    3.3100   -2.6910    1.5470 H   0  0  0  0  0  0  0  0  0  0  0  0
    3.1350   -1.0140    3.1860 H   0  0  0  0  0  0  0  0  0  0  0  0
    1.5980   -1.2400    2.3350 H   0  0  0  0  0  0  0  0  0  0  0  0
    2.2700    2.4060    3.0790 H   0  0  0  0  0  0  0  0  0  0  0  0
    0.3600   -3.2460   -2.2500 C   0  0  0  0  0  0  0  0  0  0  0  0
    0.9060   -1.8820   -1.8310 C   0  0  2  0  0  0  0  0  0  0  0  0
    1.4290   -1.8980   -0.4910 N   0  0  0  0  0  0  0  0  0  0  0  0
   -0.2660   -0.9520   -1.9050 C   0  0  0  0  0  0  0  0  0  0  0  0
   -0.8710   -0.7940   -2.9960 O   0  0  0  0  0  0  0  0  0  0  0  0
    1.1500   -3.9060   -2.6390 H   0  0  0  0  0  0  0  0  0  0  0  0
   -0.2570   -3.7070   -1.4620 H   0  0  0  0  0  0  0  0  0  0  0  0
   -0.3270   -3.0390   -3.1080 H   0  0  0  0  0  0  0  0  0  0  0  0
    1.6720   -1.6210   -2.5850 H   0  0  0  0  0  0  0  0  0  0  0  0
    0.7960   -2.1310    0.2920 H   0  0  0  0  0  0  0  0  0  0  0  0
   -1.3620   -0.5700    5.4710 O   0  0  0  0  0  0  0  0  0  0  0  0
   -1.7650   -0.3440    4.1480 C   0  0  0  0  0  0  0  0  0  0  0  0
   -2.3120    0.8580    3.7510 C   0  0  0  0  0  0  0  0  0  0  0  0
   -2.6820    1.0110    2.4500 C   0  0  0  0  0  0  0  0  0  0  0  0
   -2.5460    0.0300    1.4900 C   0  0  0  0  0  0  0  0  0  0  0  0
   -2.9310    0.1610    0.0980 C   0  0  0  0  0  0  0  0  0  0  0  0
   -1.8670    0.6810   -0.8200 C   0  0  2  0  0  0  0  0  0  0  0  0
   -0.7370   -0.2250   -0.7790 N   0  0  0  0  0  0  0  0  0  0  0  0
   -1.4650    2.0740   -0.4840 C   0  0  0  0  0  0  0  0  0  0  0  0
   -0.2790    2.3310   -0.2150 O   0  0  0  0  0  0  0  0  0  0  0  0
   -1.9970   -1.1670    1.9050 C   0  0  0  0  0  0  0  0  0  0  0  0
   -1.6060   -1.3590    3.2290 C   0  0  0  0  0  0  0  0  0  0  0  0
   -2.4210    3.0570   -0.4780 O   0  0  0  0  0  0  0  0  0  0  0  0
   -1.3370    0.2180    6.1230 H   0  0  0  0  0  0  0  0  0  0  0  0
   -2.4440    1.6660    4.4580 H   0  0  0  0  0  0  0  0  0  0  0  0
   -3.1090    1.9450    2.1340 H   0  0  0  0  0  0  0  0  0  0  0  0
   -3.2860   -0.8010   -0.3050 H   0  0  0  0  0  0  0  0  0  0  0  0
   -3.8000    0.8690    0.0180 H   0  0  0  0  0  0  0  0  0  0  0  0
   -2.3160    0.7350   -1.8340 H   0  0  0  0  0  0  0  0  0  0  0  0
   -0.2210   -0.3720    0.1140 H   0  0  0  0  0  0  0  0  0  0  0  0
   -1.8410   -2.0090    1.2440 H   0  0  0  0  0  0  0  0  0  0  0  0
   -1.1780   -2.2910    3.5550 H   0  0  0  0  0  0  0  0  0  0  0  0
  1  2  1  0  0  0  0
  1 10  1  0  0  0  0
  2 11  1  1  0  0  0
  2  3  1  0  0  0  0
  3 13  1  0  0  0  0
  3 12  1  0  0  0  0
  4  3  1  0  0  0  0
  4  8  1  0  0  0  0
  5  4  2  0  0  0  0
  6  2  1  0  0  0  0
  7  6  2  0  0  0  0
  8 14  1  0  0  0  0
  9  1  1  0  0  0  0
 15 16  1  0  0  0  0
 15 21  1  0  0  0  0
 16 23  1  6  0  0  0
 16 17  1  0  0  0  0
 17  6  1  0  0  0  0
 17 24  1  0  0  0  0
 18 16  1  0  0  0  0
 18 32  1  0  0  0  0
 19 18  2  0  0  0  0
 20 15  1  0  0  0  0
 22 15  1  0  0  0  0
 25 38  1  0  0  0  0
 26 25  1  0  0  0  0
 27 26  1  0  0  0  0
 27 39  1  0  0  0  0
 28 27  2  0  0  0  0
 29 35  2  0  0  0  0
 29 28  1  0  0  0  0
 30 29  1  0  0  0  0
 31 43  1  6  0  0  0
 31 32  1  0  0  0  0
 31 33  1  0  0  0  0
 31 30  1  0  0  0  0
 32 44  1  0  0  0  0
 33 37  2  0  0  0  0
 33 34  1  0  0  0  0
 35 36  1  0  0  0  0
 36 46  1  0  0  0  0
 36 26  2  0  0  0  0
 40 28  1  0  0  0  0
 41 30  1  0  0  0  0
 42 30  1  0  0  0  0
 45 35  1  0  0  0  0
M  END
$$$$
