DCA.pdb
 OpenBabel07022418133D

 36 35  0  0  1  0  0  0  0  0999 V2000
    1.7000   -3.2310    3.3160 N   0  0  0  0  0  0  0  0  0  0  0  0
    1.3470   -2.8490    1.9610 C   0  0  1  0  0  0  0  0  0  0  0  0
   -0.1780   -2.9080    1.8880 C   0  0  0  0  0  0  0  0  0  0  0  0
   -0.6510   -4.2710    2.1860 C   0  0  0  0  0  0  0  0  0  0  0  0
    0.1470   -5.2000    2.4540 O   0  0  0  0  0  0  0  0  0  0  0  0
    1.8230   -1.4590    1.7390 C   0  0  0  0  0  0  0  0  0  0  0  0
    2.4230   -0.8140    2.6500 O   0  0  0  0  0  0  0  0  0  0  0  0
   -2.0130   -4.5190    2.1680 O   0  0  0  0  0  0  0  0  0  0  0  0
    1.3100   -2.5630    4.0050 H   0  0  0  0  0  0  0  0  0  0  0  0
    2.7260   -3.3240    3.4480 H   0  0  0  0  0  0  0  0  0  0  0  0
    1.8130   -3.5600    1.2610 H   0  0  0  0  0  0  0  0  0  0  0  0
   -0.5070   -2.6230    0.8860 H   0  0  0  0  0  0  0  0  0  0  0  0
   -0.5630   -2.2050    2.6640 H   0  0  0  0  0  0  0  0  0  0  0  0
   -2.4050   -5.3140    2.6720 H   0  0  0  0  0  0  0  0  0  0  0  0
    1.6200   -0.7940    0.4820 N   0  0  0  0  0  0  0  0  0  0  0  0
    2.0990    0.5710    0.2940 C   0  0  1  0  0  0  0  0  0  0  0  0
    3.1020    0.5640   -0.8410 C   0  0  0  0  0  0  0  0  0  0  0  0
    3.7600    2.2010   -1.1610 S   0  0  0  0  0  0  0  0  0  0  0  0
    0.9410    1.4230   -0.1140 C   0  0  0  0  0  0  0  0  0  0  0  0
    1.0900    2.6550   -0.3430 O   0  0  0  0  0  0  0  0  0  0  0  0
    1.1300   -1.3230   -0.2630 H   0  0  0  0  0  0  0  0  0  0  0  0
    2.5980    0.9560    1.1880 H   0  0  0  0  0  0  0  0  0  0  0  0
    2.6670    0.0980   -1.7640 H   0  0  0  0  0  0  0  0  0  0  0  0
    3.9480   -0.1060   -0.5500 H   0  0  0  0  0  0  0  0  0  0  0  0
    3.9560    2.4730   -2.5130 H   0  0  0  0  0  0  0  0  0  0  0  0
   -2.1280    1.1290   -1.9420 C   0  0  0  0  0  0  0  0  0  0  0  0
   -1.5170    1.6740   -0.6520 C   0  0  2  0  0  0  0  0  0  0  0  0
   -0.3610    0.8990   -0.2600 N   0  0  0  0  0  0  0  0  0  0  0  0
   -2.5600    1.5550    0.4010 C   0  0  0  0  0  0  0  0  0  0  0  0
   -3.6680    2.1260    0.3220 O   0  0  0  0  0  0  0  0  0  0  0  0
   -2.3340    0.7820    1.5450 O   0  0  0  0  0  0  0  0  0  0  0  0
   -1.9640    0.0520   -2.0470 H   0  0  0  0  0  0  0  0  0  0  0  0
   -3.1940    1.4090   -1.9310 H   0  0  0  0  0  0  0  0  0  0  0  0
   -1.6550    1.6540   -2.8070 H   0  0  0  0  0  0  0  0  0  0  0  0
   -1.2990    2.7250   -0.8290 H   0  0  0  0  0  0  0  0  0  0  0  0
   -0.4990   -0.1180   -0.0740 H   0  0  0  0  0  0  0  0  0  0  0  0
  1 10  1  0  0  0  0
  1  9  1  0  0  0  0
  2 11  1  6  0  0  0
  2  1  1  0  0  0  0
  3  2  1  0  0  0  0
  3  4  1  0  0  0  0
  3 13  1  0  0  0  0
  4  5  2  0  0  0  0
  6  2  1  0  0  0  0
  6  7  2  0  0  0  0
  8  4  1  0  0  0  0
  8 14  1  0  0  0  0
 12  3  1  0  0  0  0
 15  6  1  0  0  0  0
 16 15  1  0  0  0  0
 16 22  1  1  0  0  0
 17 24  1  0  0  0  0
 17 16  1  0  0  0  0
 18 17  1  0  0  0  0
 19 16  1  0  0  0  0
 20 19  2  0  0  0  0
 21 15  1  0  0  0  0
 23 17  1  0  0  0  0
 25 18  1  0  0  0  0
 26 33  1  0  0  0  0
 26 27  1  0  0  0  0
 27 35  1  6  0  0  0
 27 28  1  0  0  0  0
 27 29  1  0  0  0  0
 28 19  1  0  0  0  0
 28 36  1  0  0  0  0
 29 31  1  0  0  0  0
 30 29  2  0  0  0  0
 32 26  1  0  0  0  0
 34 26  1  0  0  0  0
M  END
$$$$
