DCC.pdb
 OpenBabel07022418133D

 37 36  0  0  1  0  0  0  0  0999 V2000
   -0.0280   -1.8540    2.7940 N   0  0  0  0  0  0  0  0  0  0  0  0
    1.1000   -2.4960    2.1710 C   0  0  1  0  0  0  0  0  0  0  0  0
    1.0240   -3.9720    2.4850 C   0  0  0  0  0  0  0  0  0  0  0  0
    1.0710   -4.1140    3.9690 C   0  0  0  0  0  0  0  0  0  0  0  0
    1.1590   -3.1330    4.7500 O   0  0  0  0  0  0  0  0  0  0  0  0
    1.1450   -2.2000    0.7400 C   0  0  0  0  0  0  0  0  0  0  0  0
    2.0220   -2.6280   -0.0540 O   0  0  0  0  0  0  0  0  0  0  0  0
    1.0180   -5.3830    4.5750 O   0  0  0  0  0  0  0  0  0  0  0  0
    0.2090   -1.3060    3.6420 H   0  0  0  0  0  0  0  0  0  0  0  0
   -0.8030   -2.5020    3.0390 H   0  0  0  0  0  0  0  0  0  0  0  0
    2.0280   -2.1060    2.6390 H   0  0  0  0  0  0  0  0  0  0  0  0
    1.8260   -4.5530    2.0160 H   0  0  0  0  0  0  0  0  0  0  0  0
    0.0550   -4.4170    2.1660 H   0  0  0  0  0  0  0  0  0  0  0  0
    0.9140   -5.4480    5.5920 H   0  0  0  0  0  0  0  0  0  0  0  0
    0.1370   -1.3700    0.1780 N   0  0  0  0  0  0  0  0  0  0  0  0
    0.0740   -1.0110   -1.1990 C   0  0  1  0  0  0  0  0  0  0  0  0
   -1.1790   -1.4620   -1.8980 C   0  0  0  0  0  0  0  0  0  0  0  0
   -1.0540   -0.9050   -3.6300 S   0  0  0  0  0  0  0  0  0  0  0  0
    0.1630    0.4500   -1.3210 C   0  0  0  0  0  0  0  0  0  0  0  0
    0.1250    0.9760   -2.4480 O   0  0  0  0  0  0  0  0  0  0  0  0
   -0.6300   -0.9810    0.8050 H   0  0  0  0  0  0  0  0  0  0  0  0
    0.9310   -1.4920   -1.7300 H   0  0  0  0  0  0  0  0  0  0  0  0
   -1.1990   -2.5740   -1.9320 H   0  0  0  0  0  0  0  0  0  0  0  0
   -2.0970   -1.0210   -1.4890 H   0  0  0  0  0  0  0  0  0  0  0  0
   -2.0360    0.0530   -3.9370 H   0  0  0  0  0  0  0  0  0  0  0  0
    0.2900    1.2640   -0.1820 N   0  0  0  0  0  0  0  0  0  0  0  0
    0.3820    2.7030   -0.2190 C   0  0  1  0  0  0  0  0  0  0  0  0
   -0.8930    3.2310    0.4510 C   0  0  0  0  0  0  0  0  0  0  0  0
   -2.3000    2.6040   -0.5250 S   0  0  0  0  0  0  0  0  0  0  0  0
    1.5800    3.2320    0.4220 C   0  0  0  0  0  0  0  0  0  0  0  0
    2.4160    2.4610    0.9390 O   0  0  0  0  0  0  0  0  0  0  0  0
    1.8170    4.5890    0.4720 O   0  0  0  0  0  0  0  0  0  0  0  0
    0.3220    0.8200    0.7670 H   0  0  0  0  0  0  0  0  0  0  0  0
    0.3330    3.0000   -1.2900 H   0  0  0  0  0  0  0  0  0  0  0  0
   -0.8890    4.3220    0.5200 H   0  0  0  0  0  0  0  0  0  0  0  0
   -0.9930    2.7870    1.4660 H   0  0  0  0  0  0  0  0  0  0  0  0
   -2.9750    1.5840    0.1450 H   0  0  0  0  0  0  0  0  0  0  0  0
  1 10  1  0  0  0  0
  1  9  1  0  0  0  0
  2  3  1  0  0  0  0
  2 11  1  1  0  0  0
  2  1  1  0  0  0  0
  3  4  1  0  0  0  0
  4  8  1  0  0  0  0
  4  5  2  0  0  0  0
  6  2  1  0  0  0  0
  7  6  2  0  0  0  0
  8 14  1  0  0  0  0
 12  3  1  0  0  0  0
 13  3  1  0  0  0  0
 15  6  1  0  0  0  0
 15 21  1  0  0  0  0
 16 22  1  6  0  0  0
 16 15  1  0  0  0  0
 17 24  1  0  0  0  0
 17 16  1  0  0  0  0
 18 17  1  0  0  0  0
 19 16  1  0  0  0  0
 19 26  1  0  0  0  0
 20 19  2  0  0  0  0
 23 17  1  0  0  0  0
 25 18  1  0  0  0  0
 26 33  1  0  0  0  0
 27 34  1  6  0  0  0
 27 26  1  0  0  0  0
 27 30  1  0  0  0  0
 27 28  1  0  0  0  0
 28 35  1  0  0  0  0
 28 36  1  0  0  0  0
 29 37  1  0  0  0  0
 29 28  1  0  0  0  0
 30 32  2  0  0  0  0
 30 31  1  0  0  0  0
M  END
$$$$
