DCD.pdb
 OpenBabel07022418133D

 39 38  0  0  1  0  0  0  0  0999 V2000
    1.2820   -3.5290    0.8780 N   0  0  0  0  0  0  0  0  0  0  0  0
    2.4910   -2.7100    1.0330 C   0  0  1  0  0  0  0  0  0  0  0  0
    3.6300   -3.4550    0.3910 C   0  0  0  0  0  0  0  0  0  0  0  0
    4.9260   -2.7450    0.4730 C   0  0  0  0  0  0  0  0  0  0  0  0
    5.2430   -1.9270   -0.4220 O   0  0  0  0  0  0  0  0  0  0  0  0
    2.3190   -1.3870    0.4220 C   0  0  0  0  0  0  0  0  0  0  0  0
    3.2300   -0.5240    0.4670 O   0  0  0  0  0  0  0  0  0  0  0  0
    5.8130   -2.9690    1.5400 O   0  0  0  0  0  0  0  0  0  0  0  0
    1.4680   -4.3890    1.4600 H   0  0  0  0  0  0  0  0  0  0  0  0
    0.4780   -3.0420    1.3430 H   0  0  0  0  0  0  0  0  0  0  0  0
    2.7020   -2.5930    2.1160 H   0  0  0  0  0  0  0  0  0  0  0  0
    3.3720   -3.6950   -0.6790 H   0  0  0  0  0  0  0  0  0  0  0  0
    3.7990   -4.4510    0.8740 H   0  0  0  0  0  0  0  0  0  0  0  0
    6.3310   -2.1760    1.9140 H   0  0  0  0  0  0  0  0  0  0  0  0
    1.1250   -0.9910   -0.2570 N   0  0  0  0  0  0  0  0  0  0  0  0
    0.9810    0.3220   -0.8520 C   0  0  1  0  0  0  0  0  0  0  0  0
    0.6250    0.1940   -2.3040 C   0  0  0  0  0  0  0  0  0  0  0  0
    0.4390    1.8140   -3.0720 S   0  0  0  0  0  0  0  0  0  0  0  0
   -0.1330    1.0740   -0.1700 C   0  0  0  0  0  0  0  0  0  0  0  0
   -0.4420    2.2370   -0.5190 O   0  0  0  0  0  0  0  0  0  0  0  0
    0.3370   -1.6700   -0.3230 H   0  0  0  0  0  0  0  0  0  0  0  0
    1.8990    0.9240   -0.7080 H   0  0  0  0  0  0  0  0  0  0  0  0
   -0.2970   -0.3840   -2.4220 H   0  0  0  0  0  0  0  0  0  0  0  0
    1.4350   -0.3880   -2.8260 H   0  0  0  0  0  0  0  0  0  0  0  0
   -0.9160    2.1120   -3.3310 H   0  0  0  0  0  0  0  0  0  0  0  0
   -0.8750    0.4980    0.8910 N   0  0  0  0  0  0  0  0  0  0  0  0
   -1.9360    1.2600    1.5140 C   0  0  1  0  0  0  0  0  0  0  0  0
   -3.2170    0.4420    1.3070 C   0  0  0  0  0  0  0  0  0  0  0  0
   -4.3840    1.1000    1.8930 C   0  0  0  0  0  0  0  0  0  0  0  0
   -4.9200    2.0480    1.2400 O   0  0  0  0  0  0  0  0  0  0  0  0
   -1.6850    1.4790    2.9600 C   0  0  0  0  0  0  0  0  0  0  0  0
   -0.6580    1.0350    3.5420 O   0  0  0  0  0  0  0  0  0  0  0  0
   -4.9670    0.7800    3.1110 O   0  0  0  0  0  0  0  0  0  0  0  0
   -2.5850    2.1900    3.7380 O   0  0  0  0  0  0  0  0  0  0  0  0
   -0.6750   -0.4620    1.2340 H   0  0  0  0  0  0  0  0  0  0  0  0
   -2.0210    2.2380    1.0450 H   0  0  0  0  0  0  0  0  0  0  0  0
   -3.0460   -0.5920    1.6350 H   0  0  0  0  0  0  0  0  0  0  0  0
   -3.3630    0.4130    0.1940 H   0  0  0  0  0  0  0  0  0  0  0  0
   -5.3360    1.5090    3.7410 H   0  0  0  0  0  0  0  0  0  0  0  0
  1  2  1  0  0  0  0
  1 10  1  0  0  0  0
  1  9  1  0  0  0  0
  2 11  1  1  0  0  0
  3  4  1  0  0  0  0
  3 13  1  0  0  0  0
  3  2  1  0  0  0  0
  4  8  1  0  0  0  0
  5  4  2  0  0  0  0
  6  7  2  0  0  0  0
  6  2  1  0  0  0  0
  8 14  1  0  0  0  0
 12  3  1  0  0  0  0
 15  6  1  0  0  0  0
 16 22  1  1  0  0  0
 16 15  1  0  0  0  0
 16 19  1  0  0  0  0
 17 16  1  0  0  0  0
 18 17  1  0  0  0  0
 19 26  1  0  0  0  0
 20 19  2  0  0  0  0
 21 15  1  0  0  0  0
 23 17  1  0  0  0  0
 24 17  1  0  0  0  0
 25 18  1  0  0  0  0
 26 35  1  0  0  0  0
 26 27  1  0  0  0  0
 27 36  1  6  0  0  0
 27 31  1  0  0  0  0
 28 27  1  0  0  0  0
 28 37  1  0  0  0  0
 28 29  1  0  0  0  0
 29 33  1  0  0  0  0
 30 29  2  0  0  0  0
 31 32  2  0  0  0  0
 31 34  1  0  0  0  0
 33 39  1  0  0  0  0
 38 28  1  0  0  0  0
M  END
$$$$
