DCE.pdb
 OpenBabel07022418133D

 42 41  0  0  1  0  0  0  0  0999 V2000
   -4.0240   -3.6540    0.5020 N   0  0  0  0  0  0  0  0  0  0  0  0
   -3.2980   -2.3910    0.7270 C   0  0  1  0  0  0  0  0  0  0  0  0
   -2.8750   -2.4060    2.2050 C   0  0  0  0  0  0  0  0  0  0  0  0
   -2.0190   -3.5890    2.4410 C   0  0  0  0  0  0  0  0  0  0  0  0
   -2.3780   -4.7430    2.1290 O   0  0  0  0  0  0  0  0  0  0  0  0
   -2.1210   -2.2960   -0.1460 C   0  0  0  0  0  0  0  0  0  0  0  0
   -1.7600   -3.2870   -0.8250 O   0  0  0  0  0  0  0  0  0  0  0  0
   -0.7760   -3.4020    3.0300 O   0  0  0  0  0  0  0  0  0  0  0  0
   -3.2890   -4.2930    0.0610 H   0  0  0  0  0  0  0  0  0  0  0  0
   -4.7280   -3.4210   -0.2670 H   0  0  0  0  0  0  0  0  0  0  0  0
   -3.9970   -1.5450    0.6100 H   0  0  0  0  0  0  0  0  0  0  0  0
   -3.8340   -2.4420    2.7820 H   0  0  0  0  0  0  0  0  0  0  0  0
   -2.3680   -1.4740    2.4720 H   0  0  0  0  0  0  0  0  0  0  0  0
   -0.0390   -4.0730    2.8370 H   0  0  0  0  0  0  0  0  0  0  0  0
   -1.3850   -1.1020   -0.2320 N   0  0  0  0  0  0  0  0  0  0  0  0
   -0.2250   -1.0100   -1.0740 C   0  0  1  0  0  0  0  0  0  0  0  0
   -0.5820   -0.2070   -2.3240 C   0  0  0  0  0  0  0  0  0  0  0  0
    0.8570   -0.0550   -3.4080 S   0  0  0  0  0  0  0  0  0  0  0  0
    0.9660   -0.4670   -0.4180 C   0  0  0  0  0  0  0  0  0  0  0  0
    2.0190   -0.4050   -1.0990 O   0  0  0  0  0  0  0  0  0  0  0  0
   -1.7070   -0.2670    0.3380 H   0  0  0  0  0  0  0  0  0  0  0  0
    0.0030   -2.0260   -1.4500 H   0  0  0  0  0  0  0  0  0  0  0  0
   -1.3850   -0.7350   -2.9070 H   0  0  0  0  0  0  0  0  0  0  0  0
   -0.9680    0.7920   -2.0820 H   0  0  0  0  0  0  0  0  0  0  0  0
    1.0670    1.2790   -3.7210 H   0  0  0  0  0  0  0  0  0  0  0  0
    1.0200   -0.0060    0.9260 N   0  0  0  0  0  0  0  0  0  0  0  0
    2.2730    0.5080    1.4460 C   0  0  1  0  0  0  0  0  0  0  0  0
    2.1930    1.9780    1.7690 C   0  0  0  0  0  0  0  0  0  0  0  0
    3.4740    2.5680    2.2950 C   0  0  0  0  0  0  0  0  0  0  0  0
    4.6130    2.4360    1.3890 C   0  0  0  0  0  0  0  0  0  0  0  0
    5.2100    1.3550    1.2150 O   0  0  0  0  0  0  0  0  0  0  0  0
    2.6190   -0.2840    2.6370 C   0  0  0  0  0  0  0  0  0  0  0  0
    1.8660   -1.2630    2.9830 O   0  0  0  0  0  0  0  0  0  0  0  0
    5.0590    3.5440    0.6900 O   0  0  0  0  0  0  0  0  0  0  0  0
    3.7170   -0.0800    3.4610 O   0  0  0  0  0  0  0  0  0  0  0  0
    0.1470   -0.0610    1.4820 H   0  0  0  0  0  0  0  0  0  0  0  0
    3.1000    0.3260    0.6880 H   0  0  0  0  0  0  0  0  0  0  0  0
    1.7790    2.5720    0.9210 H   0  0  0  0  0  0  0  0  0  0  0  0
    1.4410    2.1310    2.5820 H   0  0  0  0  0  0  0  0  0  0  0  0
    3.2200    3.6720    2.4640 H   0  0  0  0  0  0  0  0  0  0  0  0
    3.7200    2.2070    3.3110 H   0  0  0  0  0  0  0  0  0  0  0  0
    5.8080    3.4900   -0.0130 H   0  0  0  0  0  0  0  0  0  0  0  0
  1  2  1  0  0  0  0
  2 11  1  6  0  0  0
  2  3  1  0  0  0  0
  3  4  1  0  0  0  0
  3 13  1  0  0  0  0
  3 12  1  0  0  0  0
  4  8  1  0  0  0  0
  5  4  2  0  0  0  0
  6  2  1  0  0  0  0
  7  6  2  0  0  0  0
  9  1  1  0  0  0  0
 10  1  1  0  0  0  0
 14  8  1  0  0  0  0
 15  6  1  0  0  0  0
 15 21  1  0  0  0  0
 16 22  1  6  0  0  0
 16 19  1  0  0  0  0
 16 15  1  0  0  0  0
 17 24  1  0  0  0  0
 17 16  1  0  0  0  0
 18 17  1  0  0  0  0
 19 26  1  0  0  0  0
 20 19  2  0  0  0  0
 23 17  1  0  0  0  0
 25 18  1  0  0  0  0
 26 27  1  0  0  0  0
 26 36  1  0  0  0  0
 27 37  1  6  0  0  0
 27 28  1  0  0  0  0
 27 32  1  0  0  0  0
 28 29  1  0  0  0  0
 28 39  1  0  0  0  0
 29 40  1  0  0  0  0
 29 41  1  0  0  0  0
 30 29  1  0  0  0  0
 31 30  2  0  0  0  0
 32 33  2  0  0  0  0
 32 35  1  0  0  0  0
 34 30  1  0  0  0  0
 38 28  1  0  0  0  0
 42 34  1  0  0  0  0
M  END
$$$$
