DCF.pdb
 OpenBabel07022418133D

 46 46  0  0  1  0  0  0  0  0999 V2000
    1.7760   -3.3050    1.6050 N   0  0  0  0  0  0  0  0  0  0  0  0
    2.4880   -2.4620    2.5760 C   0  0  1  0  0  0  0  0  0  0  0  0
    3.9620   -2.8620    2.5220 C   0  0  0  0  0  0  0  0  0  0  0  0
    4.8100   -2.1030    3.4430 C   0  0  0  0  0  0  0  0  0  0  0  0
    5.2900   -0.9680    3.1920 O   0  0  0  0  0  0  0  0  0  0  0  0
    2.2880   -1.0340    2.2890 C   0  0  0  0  0  0  0  0  0  0  0  0
    2.8020   -0.1530    3.0250 O   0  0  0  0  0  0  0  0  0  0  0  0
    5.1420   -2.6270    4.7050 O   0  0  0  0  0  0  0  0  0  0  0  0
    0.7450   -3.0830    1.6910 H   0  0  0  0  0  0  0  0  0  0  0  0
    1.8690   -4.2900    1.9890 H   0  0  0  0  0  0  0  0  0  0  0  0
    2.1160   -2.7800    3.5700 H   0  0  0  0  0  0  0  0  0  0  0  0
    4.3410   -2.6680    1.4830 H   0  0  0  0  0  0  0  0  0  0  0  0
    4.1050   -3.9270    2.7050 H   0  0  0  0  0  0  0  0  0  0  0  0
    5.1870   -2.0330    5.5270 H   0  0  0  0  0  0  0  0  0  0  0  0
    1.5210   -0.5430    1.1910 N   0  0  0  0  0  0  0  0  0  0  0  0
    1.3270    0.8630    0.9120 C   0  0  1  0  0  0  0  0  0  0  0  0
    1.8380    1.2450   -0.4570 C   0  0  0  0  0  0  0  0  0  0  0  0
    1.5740    3.0120   -0.7630 S   0  0  0  0  0  0  0  0  0  0  0  0
   -0.1180    1.1620    1.0270 C   0  0  0  0  0  0  0  0  0  0  0  0
   -0.5210    2.3390    0.8190 O   0  0  0  0  0  0  0  0  0  0  0  0
    1.0850   -1.2510    0.5650 H   0  0  0  0  0  0  0  0  0  0  0  0
    1.8450    1.5100    1.6480 H   0  0  0  0  0  0  0  0  0  0  0  0
    1.1990    0.6990   -1.2010 H   0  0  0  0  0  0  0  0  0  0  0  0
    2.8800    0.9710   -0.6110 H   0  0  0  0  0  0  0  0  0  0  0  0
    2.6770    3.7850   -0.3490 H   0  0  0  0  0  0  0  0  0  0  0  0
   -1.0370    0.1450    1.3650 N   0  0  0  0  0  0  0  0  0  0  0  0
   -2.4660    0.3830    1.4920 C   0  0  1  0  0  0  0  0  0  0  0  0
   -3.2370   -0.4990    0.5120 C   0  0  0  0  0  0  0  0  0  0  0  0
   -2.8480   -0.2210   -0.8830 C   0  0  0  0  0  0  0  0  0  0  0  0
   -3.5330    0.7530   -1.6100 C   0  0  0  0  0  0  0  0  0  0  0  0
   -3.1270    0.9690   -2.9010 C   0  0  0  0  0  0  0  0  0  0  0  0
   -2.0900    0.2780   -3.5000 C   0  0  0  0  0  0  0  0  0  0  0  0
   -1.4200   -0.6820   -2.7690 C   0  0  0  0  0  0  0  0  0  0  0  0
   -1.8080   -0.9160   -1.4760 C   0  0  0  0  0  0  0  0  0  0  0  0
   -2.8810   -0.0090    2.8650 C   0  0  0  0  0  0  0  0  0  0  0  0
   -2.0490   -0.4640    3.7100 O   0  0  0  0  0  0  0  0  0  0  0  0
   -4.1930    0.1010    3.2950 O   0  0  0  0  0  0  0  0  0  0  0  0
   -0.6550   -0.8120    1.5290 H   0  0  0  0  0  0  0  0  0  0  0  0
   -2.7130    1.4290    1.2930 H   0  0  0  0  0  0  0  0  0  0  0  0
   -2.9840   -1.5560    0.7570 H   0  0  0  0  0  0  0  0  0  0  0  0
   -4.3260   -0.4030    0.6620 H   0  0  0  0  0  0  0  0  0  0  0  0
   -4.3440    1.2880   -1.1310 H   0  0  0  0  0  0  0  0  0  0  0  0
   -3.6790    1.7390   -3.4540 H   0  0  0  0  0  0  0  0  0  0  0  0
   -1.8300    0.5140   -4.5380 H   0  0  0  0  0  0  0  0  0  0  0  0
   -0.6110   -1.2080   -3.2650 H   0  0  0  0  0  0  0  0  0  0  0  0
   -1.2750   -1.6730   -0.9140 H   0  0  0  0  0  0  0  0  0  0  0  0
  1  9  1  0  0  0  0
  1 10  1  0  0  0  0
  1  2  1  0  0  0  0
  2 11  1  1  0  0  0
  3  2  1  0  0  0  0
  3 13  1  0  0  0  0
  3  4  1  0  0  0  0
  4  8  1  0  0  0  0
  5  4  2  0  0  0  0
  6  2  1  0  0  0  0
  6  7  2  0  0  0  0
  8 14  1  0  0  0  0
 12  3  1  0  0  0  0
 15  6  1  0  0  0  0
 16 19  1  0  0  0  0
 16 15  1  0  0  0  0
 16 22  1  1  0  0  0
 17 16  1  0  0  0  0
 18 17  1  0  0  0  0
 18 25  1  0  0  0  0
 19 26  1  0  0  0  0
 20 19  2  0  0  0  0
 21 15  1  0  0  0  0
 23 17  1  0  0  0  0
 24 17  1  0  0  0  0
 26 27  1  0  0  0  0
 26 38  1  0  0  0  0
 27 39  1  6  0  0  0
 27 35  1  0  0  0  0
 28 41  1  0  0  0  0
 28 40  1  0  0  0  0
 28 27  1  0  0  0  0
 29 28  1  0  0  0  0
 30 42  1  0  0  0  0
 30 29  2  0  0  0  0
 31 30  1  0  0  0  0
 32 31  2  0  0  0  0
 32 33  1  0  0  0  0
 33 34  2  0  0  0  0
 34 46  1  0  0  0  0
 34 29  1  0  0  0  0
 35 37  2  0  0  0  0
 35 36  1  0  0  0  0
 43 31  1  0  0  0  0
 44 32  1  0  0  0  0
 45 33  1  0  0  0  0
M  END
$$$$
