DCG.pdb
 OpenBabel07022418133D

 33 32  0  0  1  0  0  0  0  0999 V2000
   -0.9220   -3.0460    0.7140 N   0  0  0  0  0  0  0  0  0  0  0  0
   -0.3340   -2.4690    1.9130 C   0  0  1  0  0  0  0  0  0  0  0  0
    0.3960   -3.4840    2.7270 C   0  0  0  0  0  0  0  0  0  0  0  0
    1.0030   -2.9240    3.9500 C   0  0  0  0  0  0  0  0  0  0  0  0
    2.1490   -2.4390    3.8920 O   0  0  0  0  0  0  0  0  0  0  0  0
    0.4620   -1.2700    1.5590 C   0  0  0  0  0  0  0  0  0  0  0  0
    1.0250   -0.5880    2.4440 O   0  0  0  0  0  0  0  0  0  0  0  0
    0.3220   -2.9350    5.1350 O   0  0  0  0  0  0  0  0  0  0  0  0
   -1.5880   -2.3650    0.2850 H   0  0  0  0  0  0  0  0  0  0  0  0
   -1.4640   -3.8920    0.9380 H   0  0  0  0  0  0  0  0  0  0  0  0
   -1.1880   -2.0900    2.5460 H   0  0  0  0  0  0  0  0  0  0  0  0
   -0.3150   -4.2740    3.0560 H   0  0  0  0  0  0  0  0  0  0  0  0
    1.1620   -4.0130    2.1100 H   0  0  0  0  0  0  0  0  0  0  0  0
    0.5160   -2.2640    5.8950 H   0  0  0  0  0  0  0  0  0  0  0  0
    0.6320   -0.8270    0.2090 N   0  0  0  0  0  0  0  0  0  0  0  0
    1.3980    0.3310   -0.1490 C   0  0  1  0  0  0  0  0  0  0  0  0
    2.5830    0.0020   -1.0230 C   0  0  0  0  0  0  0  0  0  0  0  0
    3.4290    1.5910   -1.3710 S   0  0  0  0  0  0  0  0  0  0  0  0
    0.5430    1.3970   -0.7550 C   0  0  0  0  0  0  0  0  0  0  0  0
    1.0360    2.4880   -1.1320 O   0  0  0  0  0  0  0  0  0  0  0  0
    0.1620   -1.3980   -0.5260 H   0  0  0  0  0  0  0  0  0  0  0  0
    1.8200    0.7980    0.7880 H   0  0  0  0  0  0  0  0  0  0  0  0
    3.2830   -0.6090   -0.4410 H   0  0  0  0  0  0  0  0  0  0  0  0
    2.3020   -0.4530   -1.9790 H   0  0  0  0  0  0  0  0  0  0  0  0
    3.2620    2.4690   -0.2750 H   0  0  0  0  0  0  0  0  0  0  0  0
   -0.8680    1.2350   -0.9350 N   0  0  0  0  0  0  0  0  0  0  0  0
   -1.6910    2.2650   -1.5190 C   0  0  0  0  0  0  0  0  0  0  0  0
   -3.0950    1.7910   -1.5650 C   0  0  0  0  0  0  0  0  0  0  0  0
   -3.9820    2.5490   -2.0460 O   0  0  0  0  0  0  0  0  0  0  0  0
   -3.4390    0.5340   -1.0890 O   0  0  0  0  0  0  0  0  0  0  0  0
   -1.3030    0.3520   -0.6350 H   0  0  0  0  0  0  0  0  0  0  0  0
   -1.5890    3.2390   -1.0060 H   0  0  0  0  0  0  0  0  0  0  0  0
   -1.3430    2.3730   -2.5850 H   0  0  0  0  0  0  0  0  0  0  0  0
  1 10  1  0  0  0  0
  1  2  1  0  0  0  0
  2 11  1  1  0  0  0
  2  3  1  0  0  0  0
  3 12  1  0  0  0  0
  3  4  1  0  0  0  0
  4  8  1  0  0  0  0
  5  4  2  0  0  0  0
  6  2  1  0  0  0  0
  6  7  2  0  0  0  0
  8 14  1  0  0  0  0
  9  1  1  0  0  0  0
 13  3  1  0  0  0  0
 15  6  1  0  0  0  0
 16 15  1  0  0  0  0
 16 22  1  1  0  0  0
 17 23  1  0  0  0  0
 17 16  1  0  0  0  0
 18 17  1  0  0  0  0
 18 25  1  0  0  0  0
 19 16  1  0  0  0  0
 20 19  2  0  0  0  0
 21 15  1  0  0  0  0
 24 17  1  0  0  0  0
 26 19  1  0  0  0  0
 26 31  1  0  0  0  0
 27 32  1  0  0  0  0
 27 26  1  0  0  0  0
 28 27  1  0  0  0  0
 28 30  1  0  0  0  0
 29 28  2  0  0  0  0
 33 27  1  0  0  0  0
M  END
$$$$
