DCH.pdb
 OpenBabel07022418133D

 43 43  0  0  1  0  0  0  0  0999 V2000
   -0.6510   -3.0420   -0.5740 N   0  0  0  0  0  0  0  0  0  0  0  0
    0.1760   -3.0320    0.6220 C   0  0  1  0  0  0  0  0  0  0  0  0
    0.7320   -4.3700    0.9680 C   0  0  0  0  0  0  0  0  0  0  0  0
    1.6000   -4.9900   -0.0250 C   0  0  0  0  0  0  0  0  0  0  0  0
    2.5440   -4.3170   -0.5390 O   0  0  0  0  0  0  0  0  0  0  0  0
    1.1710   -1.9350    0.5670 C   0  0  0  0  0  0  0  0  0  0  0  0
    2.1250   -1.7680    1.3190 O   0  0  0  0  0  0  0  0  0  0  0  0
    1.4450   -6.3020   -0.4470 O   0  0  0  0  0  0  0  0  0  0  0  0
   -1.5770   -2.5880   -0.4100 H   0  0  0  0  0  0  0  0  0  0  0  0
   -0.8380   -4.0620   -0.8130 H   0  0  0  0  0  0  0  0  0  0  0  0
   -0.5130   -2.7540    1.4750 H   0  0  0  0  0  0  0  0  0  0  0  0
    1.2760   -4.2530    1.9580 H   0  0  0  0  0  0  0  0  0  0  0  0
   -0.1430   -5.0320    1.2360 H   0  0  0  0  0  0  0  0  0  0  0  0
    2.2230   -6.8890   -0.7400 H   0  0  0  0  0  0  0  0  0  0  0  0
    0.9920   -0.9740   -0.4790 N   0  0  0  0  0  0  0  0  0  0  0  0
    1.8740    0.1570   -0.6810 C   0  0  1  0  0  0  0  0  0  0  0  0
    2.2620    0.2340   -2.1160 C   0  0  0  0  0  0  0  0  0  0  0  0
    3.1180   -1.2840   -2.5850 S   0  0  0  0  0  0  0  0  0  0  0  0
    1.1830    1.4070   -0.1870 C   0  0  0  0  0  0  0  0  0  0  0  0
    1.7800    2.5000   -0.3370 O   0  0  0  0  0  0  0  0  0  0  0  0
    0.1970   -1.0630   -1.1570 H   0  0  0  0  0  0  0  0  0  0  0  0
    2.8030    0.0020   -0.0750 H   0  0  0  0  0  0  0  0  0  0  0  0
    1.3540    0.3240   -2.7440 H   0  0  0  0  0  0  0  0  0  0  0  0
    2.9580    1.0920   -2.2760 H   0  0  0  0  0  0  0  0  0  0  0  0
    4.3540   -1.0170   -3.2020 H   0  0  0  0  0  0  0  0  0  0  0  0
   -0.0950    1.3390    0.4210 N   0  0  0  0  0  0  0  0  0  0  0  0
   -0.8730    2.4280    0.9260 C   0  0  1  0  0  0  0  0  0  0  0  0
   -0.6370    2.7510    2.3810 C   0  0  0  0  0  0  0  0  0  0  0  0
   -0.9530    1.5620    3.2240 C   0  0  0  0  0  0  0  0  0  0  0  0
   -0.0600    0.5800    3.5770 C   0  0  0  0  0  0  0  0  0  0  0  0
   -0.6460   -0.3430    4.3330 N   0  0  0  0  0  0  0  0  0  0  0  0
   -1.9310    0.0290    4.4810 C   0  0  0  0  0  0  0  0  0  0  0  0
   -2.1260    1.2020    3.8000 N   0  0  0  0  0  0  0  0  0  0  0  0
   -0.8570    3.6550    0.0820 C   0  0  0  0  0  0  0  0  0  0  0  0
   -0.2830    3.7360   -1.0250 O   0  0  0  0  0  0  0  0  0  0  0  0
   -1.5060    4.8220    0.5000 O   0  0  0  0  0  0  0  0  0  0  0  0
   -0.4750    0.3320    0.4910 H   0  0  0  0  0  0  0  0  0  0  0  0
   -1.9590    2.0680    0.8560 H   0  0  0  0  0  0  0  0  0  0  0  0
    0.4010    3.0840    2.5630 H   0  0  0  0  0  0  0  0  0  0  0  0
   -1.3370    3.5660    2.6300 H   0  0  0  0  0  0  0  0  0  0  0  0
    0.9880    0.6120    3.2360 H   0  0  0  0  0  0  0  0  0  0  0  0
   -0.2350   -1.1980    4.7470 H   0  0  0  0  0  0  0  0  0  0  0  0
   -2.6900   -0.5090    5.0480 H   0  0  0  0  0  0  0  0  0  0  0  0
  1  9  1  0  0  0  0
  1  2  1  0  0  0  0
  2  3  1  0  0  0  0
  2 11  1  1  0  0  0
  3 13  1  0  0  0  0
  3 12  1  0  0  0  0
  4  3  1  0  0  0  0
  5  4  2  0  0  0  0
  6  2  1  0  0  0  0
  6  7  2  0  0  0  0
  8  4  1  0  0  0  0
 10  1  1  0  0  0  0
 14  8  1  0  0  0  0
 15  6  1  0  0  0  0
 16 15  1  0  0  0  0
 16 19  1  0  0  0  0
 16 22  1  1  0  0  0
 17 16  1  0  0  0  0
 18 17  1  0  0  0  0
 19 26  1  0  0  0  0
 20 19  2  0  0  0  0
 21 15  1  0  0  0  0
 23 17  1  0  0  0  0
 24 17  1  0  0  0  0
 25 18  1  0  0  0  0
 26 37  1  0  0  0  0
 26 27  1  0  0  0  0
 27 38  1  6  0  0  0
 27 28  1  0  0  0  0
 28 39  1  0  0  0  0
 28 40  1  0  0  0  0
 28 29  1  0  0  0  0
 29 30  2  0  0  0  0
 29 33  1  0  0  0  0
 30 31  1  0  0  0  0
 31 32  1  0  0  0  0
 31 42  1  0  0  0  0
 32 43  1  0  0  0  0
 33 32  2  0  0  0  0
 34 36  1  0  0  0  0
 34 27  1  0  0  0  0
 35 34  2  0  0  0  0
 41 30  1  0  0  0  0
M  END
$$$$
