DCI.pdb
 OpenBabel07022418133D

 45 44  0  0  1  0  0  0  0  0999 V2000
    2.3220   -2.9620    0.6140 N   0  0  0  0  0  0  0  0  0  0  0  0
    2.4440   -2.6050   -0.7890 C   0  0  1  0  0  0  0  0  0  0  0  0
    2.7740   -3.8260   -1.6190 C   0  0  0  0  0  0  0  0  0  0  0  0
    4.0560   -4.4680   -1.2070 C   0  0  0  0  0  0  0  0  0  0  0  0
    4.3980   -5.4850   -1.8310 O   0  0  0  0  0  0  0  0  0  0  0  0
    1.1590   -2.0740   -1.3220 C   0  0  0  0  0  0  0  0  0  0  0  0
    1.0720   -1.7610   -2.5360 O   0  0  0  0  0  0  0  0  0  0  0  0
    4.7910   -3.9290   -0.1840 O   0  0  0  0  0  0  0  0  0  0  0  0
    2.2860   -4.0110    0.6670 H   0  0  0  0  0  0  0  0  0  0  0  0
    3.1490   -2.6660    1.1740 H   0  0  0  0  0  0  0  0  0  0  0  0
    3.2840   -1.8990   -0.8600 H   0  0  0  0  0  0  0  0  0  0  0  0
    2.8930   -3.5790   -2.6940 H   0  0  0  0  0  0  0  0  0  0  0  0
    1.9560   -4.5870   -1.5810 H   0  0  0  0  0  0  0  0  0  0  0  0
    5.3850   -4.5300    0.3600 H   0  0  0  0  0  0  0  0  0  0  0  0
    0.0070   -1.8990   -0.5250 N   0  0  0  0  0  0  0  0  0  0  0  0
   -1.2560   -1.3890   -1.0180 C   0  0  1  0  0  0  0  0  0  0  0  0
   -2.3620   -2.3810   -0.7770 C   0  0  0  0  0  0  0  0  0  0  0  0
   -3.9560   -1.8190   -1.3610 S   0  0  0  0  0  0  0  0  0  0  0  0
   -1.5540   -0.0580   -0.4100 C   0  0  0  0  0  0  0  0  0  0  0  0
   -2.6220    0.5230   -0.7300 O   0  0  0  0  0  0  0  0  0  0  0  0
    0.0480   -2.1470    0.4870 H   0  0  0  0  0  0  0  0  0  0  0  0
   -1.1780   -1.2180   -2.1060 H   0  0  0  0  0  0  0  0  0  0  0  0
   -2.0960   -3.3030   -1.3370 H   0  0  0  0  0  0  0  0  0  0  0  0
   -2.4070   -2.6940    0.3030 H   0  0  0  0  0  0  0  0  0  0  0  0
   -4.9300   -1.7370   -0.3470 H   0  0  0  0  0  0  0  0  0  0  0  0
   -1.4990    2.6380    4.8200 C   0  0  0  0  0  0  0  0  0  0  0  0
   -1.2650    2.9600    3.3340 C   0  0  0  0  0  0  0  0  0  0  0  0
   -1.0220    1.6710    2.6140 C   0  0  2  0  0  0  0  0  0  0  0  0
    0.2190    1.0450    3.2620 C   0  0  0  0  0  0  0  0  0  0  0  0
   -0.8570    1.7980    1.1290 C   0  0  2  0  0  0  0  0  0  0  0  0
   -0.6270    0.5020    0.5030 N   0  0  0  0  0  0  0  0  0  0  0  0
    0.1770    2.7770    0.7240 C   0  0  0  0  0  0  0  0  0  0  0  0
    0.1600    3.9600    1.1240 O   0  0  0  0  0  0  0  0  0  0  0  0
    1.2070    2.3970   -0.1210 O   0  0  0  0  0  0  0  0  0  0  0  0
   -2.2450    3.3310    5.2600 H   0  0  0  0  0  0  0  0  0  0  0  0
   -0.5610    2.7770    5.3970 H   0  0  0  0  0  0  0  0  0  0  0  0
   -1.8030    1.5790    4.9560 H   0  0  0  0  0  0  0  0  0  0  0  0
   -2.2230    3.4520    3.0070 H   0  0  0  0  0  0  0  0  0  0  0  0
   -0.4070    3.6550    3.3310 H   0  0  0  0  0  0  0  0  0  0  0  0
   -1.8520    0.9870    2.8900 H   0  0  0  0  0  0  0  0  0  0  0  0
   -0.0110    0.7060    4.2940 H   0  0  0  0  0  0  0  0  0  0  0  0
    1.0130    1.8270    3.3730 H   0  0  0  0  0  0  0  0  0  0  0  0
    0.5690    0.1640    2.7120 H   0  0  0  0  0  0  0  0  0  0  0  0
   -1.8240    2.1920    0.7380 H   0  0  0  0  0  0  0  0  0  0  0  0
    0.2290   -0.0430    0.7140 H   0  0  0  0  0  0  0  0  0  0  0  0
  1  9  1  0  0  0  0
  1 10  1  0  0  0  0
  2 11  1  6  0  0  0
  2  1  1  0  0  0  0
  3 13  1  0  0  0  0
  3  4  1  0  0  0  0
  3  2  1  0  0  0  0
  4  8  1  0  0  0  0
  5  4  2  0  0  0  0
  6  2  1  0  0  0  0
  6 15  1  0  0  0  0
  7  6  2  0  0  0  0
  8 14  1  0  0  0  0
 12  3  1  0  0  0  0
 15 21  1  0  0  0  0
 16 22  1  6  0  0  0
 16 17  1  0  0  0  0
 16 15  1  0  0  0  0
 16 19  1  0  0  0  0
 17 24  1  0  0  0  0
 18 17  1  0  0  0  0
 18 25  1  0  0  0  0
 19 31  1  0  0  0  0
 20 19  2  0  0  0  0
 23 17  1  0  0  0  0
 26 37  1  0  0  0  0
 26 35  1  0  0  0  0
 26 36  1  0  0  0  0
 27 26  1  0  0  0  0
 28 40  1  1  0  0  0
 28 29  1  0  0  0  0
 28 27  1  0  0  0  0
 29 42  1  0  0  0  0
 29 41  1  0  0  0  0
 30 44  1  6  0  0  0
 30 28  1  0  0  0  0
 31 45  1  0  0  0  0
 31 30  1  0  0  0  0
 32 33  1  0  0  0  0
 32 30  1  0  0  0  0
 34 32  2  0  0  0  0
 38 27  1  0  0  0  0
 39 27  1  0  0  0  0
 43 29  1  0  0  0  0
M  END
$$$$
