DCK.pdb
 OpenBabel07022418133D

 47 46  0  0  1  0  0  0  0  0999 V2000
    0.0160   -4.8720   -2.4590 N   0  0  0  0  0  0  0  0  0  0  0  0
   -0.2720   -3.8760   -1.3920 C   0  0  1  0  0  0  0  0  0  0  0  0
    0.1810   -4.5060   -0.1350 C   0  0  0  0  0  0  0  0  0  0  0  0
    0.0290   -3.7560    1.1010 C   0  0  0  0  0  0  0  0  0  0  0  0
    0.9980   -3.0380    1.5260 O   0  0  0  0  0  0  0  0  0  0  0  0
    0.3710   -2.6490   -1.8190 C   0  0  0  0  0  0  0  0  0  0  0  0
    1.2060   -2.5740   -2.7830 O   0  0  0  0  0  0  0  0  0  0  0  0
   -1.1160   -3.7540    1.8820 O   0  0  0  0  0  0  0  0  0  0  0  0
   -0.6460   -5.6460   -2.2820 H   0  0  0  0  0  0  0  0  0  0  0  0
    0.9740   -5.2260   -2.2360 H   0  0  0  0  0  0  0  0  0  0  0  0
   -1.3700   -3.7250   -1.3950 H   0  0  0  0  0  0  0  0  0  0  0  0
    1.2250   -4.8710   -0.2210 H   0  0  0  0  0  0  0  0  0  0  0  0
   -0.4270   -5.4530   -0.0140 H   0  0  0  0  0  0  0  0  0  0  0  0
   -1.0860   -3.3610    2.8130 H   0  0  0  0  0  0  0  0  0  0  0  0
    0.0810   -1.4220   -1.1540 N   0  0  0  0  0  0  0  0  0  0  0  0
    0.7160   -0.1730   -1.5810 C   0  0  1  0  0  0  0  0  0  0  0  0
   -0.3350    0.5190   -2.4460 C   0  0  0  0  0  0  0  0  0  0  0  0
    0.1980    2.0810   -3.0970 S   0  0  0  0  0  0  0  0  0  0  0  0
    1.2140    0.6660   -0.5150 C   0  0  0  0  0  0  0  0  0  0  0  0
    1.8390    1.7370   -0.8310 O   0  0  0  0  0  0  0  0  0  0  0  0
   -0.5970   -1.4340   -0.3550 H   0  0  0  0  0  0  0  0  0  0  0  0
    1.5120   -0.4540   -2.3000 H   0  0  0  0  0  0  0  0  0  0  0  0
   -1.2540    0.6540   -1.8420 H   0  0  0  0  0  0  0  0  0  0  0  0
   -0.6020   -0.1550   -3.2850 H   0  0  0  0  0  0  0  0  0  0  0  0
    0.1370    3.1390   -2.1990 H   0  0  0  0  0  0  0  0  0  0  0  0
    1.0940    0.4470    0.8940 N   0  0  0  0  0  0  0  0  0  0  0  0
    1.6400    1.3640    1.8570 C   0  0  1  0  0  0  0  0  0  0  0  0
    0.6060    2.1270    2.6110 C   0  0  0  0  0  0  0  0  0  0  0  0
   -0.3630    1.4310    3.4500 C   0  0  0  0  0  0  0  0  0  0  0  0
   -1.3120    0.4530    2.9110 C   0  0  0  0  0  0  0  0  0  0  0  0
   -2.2240    0.9600    1.8200 C   0  0  0  0  0  0  0  0  0  0  0  0
   -3.0440    2.0610    2.2710 N   0  0  0  0  0  0  0  0  0  0  0  0
    2.4810    0.6460    2.8690 C   0  0  0  0  0  0  0  0  0  0  0  0
    2.5930   -0.5810    2.7560 O   0  0  0  0  0  0  0  0  0  0  0  0
    3.1180    1.2840    3.8970 O   0  0  0  0  0  0  0  0  0  0  0  0
    0.6170   -0.3940    1.1820 H   0  0  0  0  0  0  0  0  0  0  0  0
    2.3230    2.1130    1.3420 H   0  0  0  0  0  0  0  0  0  0  0  0
    0.1400    2.8480    1.8780 H   0  0  0  0  0  0  0  0  0  0  0  0
    1.1790    2.8510    3.2930 H   0  0  0  0  0  0  0  0  0  0  0  0
    0.2450    0.8690    4.2450 H   0  0  0  0  0  0  0  0  0  0  0  0
   -0.9210    2.1740    4.1220 H   0  0  0  0  0  0  0  0  0  0  0  0
   -0.9930   -0.5570    2.6900 H   0  0  0  0  0  0  0  0  0  0  0  0
   -2.0640    0.2720    3.7850 H   0  0  0  0  0  0  0  0  0  0  0  0
   -1.7060    1.1480    0.8740 H   0  0  0  0  0  0  0  0  0  0  0  0
   -2.9420    0.1120    1.6110 H   0  0  0  0  0  0  0  0  0  0  0  0
   -3.7700    1.7400    2.9290 H   0  0  0  0  0  0  0  0  0  0  0  0
   -2.5010    2.8790    2.5930 H   0  0  0  0  0  0  0  0  0  0  0  0
  1  9  1  0  0  0  0
  1 10  1  0  0  0  0
  1  2  1  0  0  0  0
  2 11  1  1  0  0  0
  2  3  1  0  0  0  0
  3 13  1  0  0  0  0
  3  4  1  0  0  0  0
  4  5  2  0  0  0  0
  4  8  1  0  0  0  0
  6  2  1  0  0  0  0
  6 15  1  0  0  0  0
  7  6  2  0  0  0  0
  8 14  1  0  0  0  0
 12  3  1  0  0  0  0
 15 21  1  0  0  0  0
 16 22  1  6  0  0  0
 16 15  1  0  0  0  0
 16 19  1  0  0  0  0
 17 23  1  0  0  0  0
 17 16  1  0  0  0  0
 18 17  1  0  0  0  0
 18 25  1  0  0  0  0
 19 26  1  0  0  0  0
 20 19  2  0  0  0  0
 24 17  1  0  0  0  0
 26 36  1  0  0  0  0
 26 27  1  0  0  0  0
 27 37  1  6  0  0  0
 27 28  1  0  0  0  0
 27 33  1  0  0  0  0
 28 39  1  0  0  0  0
 28 29  1  0  0  0  0
 29 41  1  0  0  0  0
 29 40  1  0  0  0  0
 30 29  1  0  0  0  0
 30 43  1  0  0  0  0
 31 32  1  0  0  0  0
 31 30  1  0  0  0  0
 32 47  1  0  0  0  0
 32 46  1  0  0  0  0
 33 35  1  0  0  0  0
 34 33  2  0  0  0  0
 38 28  1  0  0  0  0
 42 30  1  0  0  0  0
 44 31  1  0  0  0  0
 45 31  1  0  0  0  0
M  END
$$$$
