DCM.pdb
 OpenBabel07022418133D

 43 42  0  0  1  0  0  0  0  0999 V2000
   -0.3170   -5.2770   -0.7890 N   0  0  0  0  0  0  0  0  0  0  0  0
   -0.8470   -4.2210    0.1080 C   0  0  1  0  0  0  0  0  0  0  0  0
   -0.0400   -4.3300    1.3430 C   0  0  0  0  0  0  0  0  0  0  0  0
   -0.3390   -3.4110    2.4310 C   0  0  0  0  0  0  0  0  0  0  0  0
    0.5160   -2.5700    2.7860 O   0  0  0  0  0  0  0  0  0  0  0  0
   -0.8200   -2.9910   -0.6580 C   0  0  0  0  0  0  0  0  0  0  0  0
   -0.4220   -2.9650   -1.8800 O   0  0  0  0  0  0  0  0  0  0  0  0
   -1.5560   -3.3970    3.1300 O   0  0  0  0  0  0  0  0  0  0  0  0
   -0.6760   -5.1130   -1.7340 H   0  0  0  0  0  0  0  0  0  0  0  0
    0.7360   -5.2170   -0.7590 H   0  0  0  0  0  0  0  0  0  0  0  0
   -1.9170   -4.4740    0.3520 H   0  0  0  0  0  0  0  0  0  0  0  0
   -0.1980   -5.3730    1.7570 H   0  0  0  0  0  0  0  0  0  0  0  0
    1.0690   -4.2730    1.1320 H   0  0  0  0  0  0  0  0  0  0  0  0
   -2.0210   -2.4960    3.3300 H   0  0  0  0  0  0  0  0  0  0  0  0
   -1.2290   -1.6960   -0.1520 N   0  0  0  0  0  0  0  0  0  0  0  0
   -1.2030   -0.5300   -0.9710 C   0  0  1  0  0  0  0  0  0  0  0  0
   -2.5990    0.0370   -1.1650 C   0  0  0  0  0  0  0  0  0  0  0  0
   -3.3650    0.5010    0.3920 S   0  0  0  0  0  0  0  0  0  0  0  0
   -0.2950    0.5560   -0.5250 C   0  0  0  0  0  0  0  0  0  0  0  0
   -0.2170    1.6470   -1.1490 O   0  0  0  0  0  0  0  0  0  0  0  0
   -1.5430   -1.6720    0.8470 H   0  0  0  0  0  0  0  0  0  0  0  0
   -0.8530   -0.8270   -1.9990 H   0  0  0  0  0  0  0  0  0  0  0  0
   -3.2660   -0.6920   -1.6680 H   0  0  0  0  0  0  0  0  0  0  0  0
   -2.5750    0.9370   -1.8150 H   0  0  0  0  0  0  0  0  0  0  0  0
   -3.9730    1.7770    0.2990 H   0  0  0  0  0  0  0  0  0  0  0  0
    4.0020    1.9560    3.3930 C   0  0  0  0  0  0  0  0  0  0  0  0
    4.6420    2.1280    1.7540 S   0  0  0  0  0  0  0  0  0  0  0  0
    3.5420    2.6260    0.4640 C   0  0  0  0  0  0  0  0  0  0  0  0
    2.4580    1.6780    0.0880 C   0  0  0  0  0  0  0  0  0  0  0  0
    1.4430    1.3740    1.1560 C   0  0  2  0  0  0  0  0  0  0  0  0
    0.5100    0.4020    0.6110 N   0  0  0  0  0  0  0  0  0  0  0  0
    0.7160    2.5760    1.6290 C   0  0  0  0  0  0  0  0  0  0  0  0
    1.3320    3.5340    2.1110 O   0  0  0  0  0  0  0  0  0  0  0  0
   -0.6870    2.6040    1.5200 O   0  0  0  0  0  0  0  0  0  0  0  0
    3.2750    2.6910    3.7400 H   0  0  0  0  0  0  0  0  0  0  0  0
    3.7050    0.8920    3.5910 H   0  0  0  0  0  0  0  0  0  0  0  0
    4.8860    2.0880    4.1040 H   0  0  0  0  0  0  0  0  0  0  0  0
    3.1040    3.6300    0.6610 H   0  0  0  0  0  0  0  0  0  0  0  0
    4.1630    2.7640   -0.4750 H   0  0  0  0  0  0  0  0  0  0  0  0
    2.0030    1.9260   -0.9040 H   0  0  0  0  0  0  0  0  0  0  0  0
    2.9590    0.6760   -0.1160 H   0  0  0  0  0  0  0  0  0  0  0  0
    1.9990    0.8820    1.9710 H   0  0  0  0  0  0  0  0  0  0  0  0
    0.4350   -0.4970    1.1180 H   0  0  0  0  0  0  0  0  0  0  0  0
  1 10  1  0  0  0  0
  1  2  1  0  0  0  0
  2 11  1  1  0  0  0
  2  3  1  0  0  0  0
  3 12  1  0  0  0  0
  3  4  1  0  0  0  0
  4  5  2  0  0  0  0
  4  8  1  0  0  0  0
  6 15  1  0  0  0  0
  6  2  1  0  0  0  0
  7  6  2  0  0  0  0
  8 14  1  0  0  0  0
  9  1  1  0  0  0  0
 13  3  1  0  0  0  0
 15 21  1  0  0  0  0
 16 22  1  6  0  0  0
 16 19  1  0  0  0  0
 16 15  1  0  0  0  0
 17 16  1  0  0  0  0
 17 18  1  0  0  0  0
 19 31  1  0  0  0  0
 20 19  2  0  0  0  0
 23 17  1  0  0  0  0
 24 17  1  0  0  0  0
 25 18  1  0  0  0  0
 26 36  1  0  0  0  0
 26 35  1  0  0  0  0
 26 37  1  0  0  0  0
 27 26  1  0  0  0  0
 28 38  1  0  0  0  0
 28 27  1  0  0  0  0
 29 28  1  0  0  0  0
 29 30  1  0  0  0  0
 30 32  1  0  0  0  0
 30 42  1  1  0  0  0
 31 43  1  0  0  0  0
 31 30  1  0  0  0  0
 32 33  1  0  0  0  0
 34 32  2  0  0  0  0
 39 28  1  0  0  0  0
 40 29  1  0  0  0  0
 41 29  1  0  0  0  0
M  END
$$$$
