DCP.pdb
 OpenBabel07022418133D

 40 40  0  0  1  0  0  0  0  0999 V2000
    1.2260   -4.6950    0.0870 N   0  0  0  0  0  0  0  0  0  0  0  0
    0.3470   -3.5400    0.2320 C   0  0  1  0  0  0  0  0  0  0  0  0
    0.0160   -3.2800    1.6620 C   0  0  0  0  0  0  0  0  0  0  0  0
    1.2060   -3.0130    2.5000 C   0  0  0  0  0  0  0  0  0  0  0  0
    2.3770   -2.9970    2.1050 O   0  0  0  0  0  0  0  0  0  0  0  0
    0.8270   -2.3800   -0.5250 C   0  0  0  0  0  0  0  0  0  0  0  0
    1.9340   -2.4510   -1.1140 O   0  0  0  0  0  0  0  0  0  0  0  0
    0.9770   -2.7600    3.8540 O   0  0  0  0  0  0  0  0  0  0  0  0
    0.8430   -5.4710    0.6360 H   0  0  0  0  0  0  0  0  0  0  0  0
    2.2030   -4.5000    0.3240 H   0  0  0  0  0  0  0  0  0  0  0  0
   -0.6180   -3.8600   -0.2620 H   0  0  0  0  0  0  0  0  0  0  0  0
   -0.7170   -2.4640    1.7260 H   0  0  0  0  0  0  0  0  0  0  0  0
   -0.4730   -4.1850    2.0680 H   0  0  0  0  0  0  0  0  0  0  0  0
    1.6230   -2.1990    4.4140 H   0  0  0  0  0  0  0  0  0  0  0  0
    0.0730   -1.1730   -0.6140 N   0  0  0  0  0  0  0  0  0  0  0  0
    0.5740   -0.0750   -1.3640 C   0  0  1  0  0  0  0  0  0  0  0  0
   -0.3210    0.2430   -2.5750 C   0  0  0  0  0  0  0  0  0  0  0  0
   -2.0000    0.6610   -2.0460 S   0  0  0  0  0  0  0  0  0  0  0  0
    0.8090    1.1810   -0.6590 C   0  0  0  0  0  0  0  0  0  0  0  0
    1.2560    2.1280   -1.4230 O   0  0  0  0  0  0  0  0  0  0  0  0
   -0.8550   -1.0860   -0.1420 H   0  0  0  0  0  0  0  0  0  0  0  0
    1.5810   -0.3540   -1.8220 H   0  0  0  0  0  0  0  0  0  0  0  0
   -0.3680   -0.6490   -3.2440 H   0  0  0  0  0  0  0  0  0  0  0  0
    0.0830    1.1300   -3.0990 H   0  0  0  0  0  0  0  0  0  0  0  0
   -2.9770   -0.0160   -2.7790 H   0  0  0  0  0  0  0  0  0  0  0  0
    0.6260    1.4930    0.6860 N   0  0  0  0  0  0  0  0  0  0  0  0
    0.9370    2.8330    1.2510 C   0  0  0  0  0  0  0  0  0  0  0  0
    1.7140    2.3520    2.4830 C   0  0  0  0  0  0  0  0  0  0  0  0
    0.8280    1.2680    3.0150 C   0  0  0  0  0  0  0  0  0  0  0  0
    0.1470    0.6950    1.7940 C   0  0  1  0  0  0  0  0  0  0  0  0
   -1.3280    0.7970    1.9430 C   0  0  0  0  0  0  0  0  0  0  0  0
   -1.9850    1.5290    1.1750 O   0  0  0  0  0  0  0  0  0  0  0  0
   -1.9850    0.0870    2.9270 O   0  0  0  0  0  0  0  0  0  0  0  0
    0.0100    3.3360    1.5900 H   0  0  0  0  0  0  0  0  0  0  0  0
    1.5500    3.4240    0.5700 H   0  0  0  0  0  0  0  0  0  0  0  0
    2.6610    1.9140    2.1020 H   0  0  0  0  0  0  0  0  0  0  0  0
    1.8820    3.1760    3.1960 H   0  0  0  0  0  0  0  0  0  0  0  0
    1.3920    0.4900    3.5760 H   0  0  0  0  0  0  0  0  0  0  0  0
    0.0420    1.7380    3.6480 H   0  0  0  0  0  0  0  0  0  0  0  0
    0.4360   -0.3600    1.7250 H   0  0  0  0  0  0  0  0  0  0  0  0
  1  2  1  0  0  0  0
  1 10  1  0  0  0  0
  1  9  1  0  0  0  0
  2 11  1  6  0  0  0
  2  3  1  0  0  0  0
  3 12  1  0  0  0  0
  3 13  1  0  0  0  0
  3  4  1  0  0  0  0
  4  8  1  0  0  0  0
  5  4  2  0  0  0  0
  6  2  1  0  0  0  0
  7  6  2  0  0  0  0
  8 14  1  0  0  0  0
 15  6  1  0  0  0  0
 15 21  1  0  0  0  0
 16 22  1  6  0  0  0
 16 19  1  0  0  0  0
 16 15  1  0  0  0  0
 17 18  1  0  0  0  0
 17 16  1  0  0  0  0
 19 26  1  0  0  0  0
 20 19  2  0  0  0  0
 23 17  1  0  0  0  0
 24 17  1  0  0  0  0
 25 18  1  0  0  0  0
 26 27  1  0  0  0  0
 26 30  1  0  0  0  0
 27 34  1  0  0  0  0
 27 28  1  0  0  0  0
 28 29  1  0  0  0  0
 28 37  1  0  0  0  0
 29 38  1  0  0  0  0
 29 39  1  0  0  0  0
 30 40  1  6  0  0  0
 30 31  1  0  0  0  0
 30 29  1  0  0  0  0
 31 33  1  0  0  0  0
 32 31  2  0  0  0  0
 35 27  1  0  0  0  0
 36 28  1  0  0  0  0
M  END
$$$$
