DCQ.pdb
 OpenBabel07022418133D

 43 42  0  0  1  0  0  0  0  0999 V2000
   -0.2350   -4.1680   -2.3560 N   0  0  0  0  0  0  0  0  0  0  0  0
   -0.7230   -3.4170   -1.1810 C   0  0  1  0  0  0  0  0  0  0  0  0
    0.0770   -3.9070   -0.0290 C   0  0  0  0  0  0  0  0  0  0  0  0
   -0.2410   -3.3150    1.2830 C   0  0  0  0  0  0  0  0  0  0  0  0
    0.4540   -2.5120    1.9180 O   0  0  0  0  0  0  0  0  0  0  0  0
   -0.7310   -1.9880   -1.4570 C   0  0  0  0  0  0  0  0  0  0  0  0
   -0.3560   -1.5520   -2.6040 O   0  0  0  0  0  0  0  0  0  0  0  0
   -1.4570   -3.7070    1.8650 O   0  0  0  0  0  0  0  0  0  0  0  0
   -0.4880   -5.1630   -2.1700 H   0  0  0  0  0  0  0  0  0  0  0  0
   -0.8050   -3.8570   -3.1690 H   0  0  0  0  0  0  0  0  0  0  0  0
   -1.7730   -3.8250   -1.0490 H   0  0  0  0  0  0  0  0  0  0  0  0
    1.1840   -3.7790   -0.2230 H   0  0  0  0  0  0  0  0  0  0  0  0
   -0.0270   -5.0230    0.1060 H   0  0  0  0  0  0  0  0  0  0  0  0
   -1.8800   -3.2020    2.6300 H   0  0  0  0  0  0  0  0  0  0  0  0
   -1.1380   -1.0180   -0.5250 N   0  0  0  0  0  0  0  0  0  0  0  0
   -1.1640    0.4070   -0.8120 C   0  0  1  0  0  0  0  0  0  0  0  0
   -2.4870    0.9930   -0.3900 C   0  0  0  0  0  0  0  0  0  0  0  0
   -2.5920    2.7560   -0.7150 S   0  0  0  0  0  0  0  0  0  0  0  0
    0.0050    1.1480   -0.3120 C   0  0  0  0  0  0  0  0  0  0  0  0
    0.0290    2.4220   -0.4040 O   0  0  0  0  0  0  0  0  0  0  0  0
   -1.4470   -1.3520    0.4190 H   0  0  0  0  0  0  0  0  0  0  0  0
   -1.0650    0.4540   -1.9430 H   0  0  0  0  0  0  0  0  0  0  0  0
   -3.2720    0.4110   -0.9560 H   0  0  0  0  0  0  0  0  0  0  0  0
   -2.6160    0.7520    0.6980 H   0  0  0  0  0  0  0  0  0  0  0  0
   -2.0270    3.4480    0.3670 H   0  0  0  0  0  0  0  0  0  0  0  0
    0.7670    1.3600    5.5180 N   0  0  0  0  0  0  0  0  0  0  0  0
    1.7350    1.1280    4.5200 C   0  0  0  0  0  0  0  0  0  0  0  0
    2.8570    0.6910    4.8380 O   0  0  0  0  0  0  0  0  0  0  0  0
    1.4170    1.4000    3.1080 C   0  0  0  0  0  0  0  0  0  0  0  0
    2.5850    1.0950    2.1940 C   0  0  0  0  0  0  0  0  0  0  0  0
    2.2640    1.3670    0.7540 C   0  0  2  0  0  0  0  0  0  0  0  0
    1.1510    0.5720    0.2820 N   0  0  0  0  0  0  0  0  0  0  0  0
    3.5060    1.0570   -0.0350 C   0  0  0  0  0  0  0  0  0  0  0  0
    4.5860    1.6300    0.2080 O   0  0  0  0  0  0  0  0  0  0  0  0
    3.4060    0.1150   -1.0370 O   0  0  0  0  0  0  0  0  0  0  0  0
    0.5730    0.6940    6.2940 H   0  0  0  0  0  0  0  0  0  0  0  0
    0.2160    2.2390    5.4850 H   0  0  0  0  0  0  0  0  0  0  0  0
    1.0440    2.4330    2.9810 H   0  0  0  0  0  0  0  0  0  0  0  0
    0.5570    0.7370    2.8320 H   0  0  0  0  0  0  0  0  0  0  0  0
    3.4650    1.6480    2.5320 H   0  0  0  0  0  0  0  0  0  0  0  0
    2.8220    0.0160    2.2860 H   0  0  0  0  0  0  0  0  0  0  0  0
    1.9980    2.4350    0.5950 H   0  0  0  0  0  0  0  0  0  0  0  0
    1.2070   -0.4570    0.3780 H   0  0  0  0  0  0  0  0  0  0  0  0
  1  9  1  0  0  0  0
  1  2  1  0  0  0  0
  2 11  1  1  0  0  0
  2  3  1  0  0  0  0
  3 13  1  0  0  0  0
  3  4  1  0  0  0  0
  4  8  1  0  0  0  0
  4  5  2  0  0  0  0
  6  2  1  0  0  0  0
  6 15  1  0  0  0  0
  7  6  2  0  0  0  0
  8 14  1  0  0  0  0
 10  1  1  0  0  0  0
 12  3  1  0  0  0  0
 15 21  1  0  0  0  0
 16 22  1  6  0  0  0
 16 15  1  0  0  0  0
 16 17  1  0  0  0  0
 16 19  1  0  0  0  0
 17 24  1  0  0  0  0
 18 17  1  0  0  0  0
 18 25  1  0  0  0  0
 19 32  1  0  0  0  0
 20 19  2  0  0  0  0
 23 17  1  0  0  0  0
 26 36  1  0  0  0  0
 27 28  2  0  0  0  0
 27 26  1  0  0  0  0
 29 27  1  0  0  0  0
 30 41  1  0  0  0  0
 30 40  1  0  0  0  0
 30 29  1  0  0  0  0
 31 42  1  6  0  0  0
 31 30  1  0  0  0  0
 32 43  1  0  0  0  0
 32 31  1  0  0  0  0
 33 34  1  0  0  0  0
 33 31  1  0  0  0  0
 35 33  2  0  0  0  0
 37 26  1  0  0  0  0
 38 29  1  0  0  0  0
 39 29  1  0  0  0  0
M  END
$$$$
