DCR.pdb
 OpenBabel07022418133D

 49 48  0  0  1  0  0  0  0  0999 V2000
    2.2480   -3.7160    3.1980 N   0  0  0  0  0  0  0  0  0  0  0  0
    1.6200   -3.6580    1.8960 C   0  0  1  0  0  0  0  0  0  0  0  0
    0.0940   -3.6340    2.0380 C   0  0  0  0  0  0  0  0  0  0  0  0
   -0.3210   -2.4590    2.8160 C   0  0  0  0  0  0  0  0  0  0  0  0
    0.5700   -1.6550    3.2520 O   0  0  0  0  0  0  0  0  0  0  0  0
    2.0420   -2.4550    1.1470 C   0  0  0  0  0  0  0  0  0  0  0  0
    2.8120   -1.6020    1.6280 O   0  0  0  0  0  0  0  0  0  0  0  0
   -1.6400   -2.2130    3.0800 O   0  0  0  0  0  0  0  0  0  0  0  0
    2.5050   -4.6940    3.4660 H   0  0  0  0  0  0  0  0  0  0  0  0
    3.1410   -3.1530    3.1990 H   0  0  0  0  0  0  0  0  0  0  0  0
    1.8930   -4.5760    1.3390 H   0  0  0  0  0  0  0  0  0  0  0  0
   -0.3650   -3.6320    1.0310 H   0  0  0  0  0  0  0  0  0  0  0  0
   -0.2450   -4.5720    2.5370 H   0  0  0  0  0  0  0  0  0  0  0  0
   -1.9540   -1.6730    3.8810 H   0  0  0  0  0  0  0  0  0  0  0  0
    1.5500   -2.2540   -0.1930 N   0  0  0  0  0  0  0  0  0  0  0  0
    1.9110   -1.1250   -0.9740 C   0  0  1  0  0  0  0  0  0  0  0  0
    2.6520   -1.5210   -2.2520 C   0  0  0  0  0  0  0  0  0  0  0  0
    4.1510   -2.4080   -1.7220 S   0  0  0  0  0  0  0  0  0  0  0  0
    0.7040   -0.3930   -1.4170 C   0  0  0  0  0  0  0  0  0  0  0  0
    0.7850    0.6360   -2.1570 O   0  0  0  0  0  0  0  0  0  0  0  0
    0.9110   -2.9820   -0.5830 H   0  0  0  0  0  0  0  0  0  0  0  0
    2.6000   -0.4660   -0.3980 H   0  0  0  0  0  0  0  0  0  0  0  0
    2.8810   -0.6140   -2.8160 H   0  0  0  0  0  0  0  0  0  0  0  0
    1.9540   -2.1940   -2.7990 H   0  0  0  0  0  0  0  0  0  0  0  0
    4.6470   -1.7010   -0.5880 H   0  0  0  0  0  0  0  0  0  0  0  0
   -0.8290    3.1460    4.4210 N   0  0  0  0  0  0  0  0  0  0  0  0
   -0.6780    2.8330    3.0420 C   0  0  0  0  0  0  0  0  0  0  0  0
   -0.5080    3.7930    2.2120 N   0  0  0  0  0  0  0  0  0  0  0  0
   -0.7090    1.4960    2.5740 N   0  0  0  0  0  0  0  0  0  0  0  0
   -0.6670    1.1420    1.1690 C   0  0  0  0  0  0  0  0  0  0  0  0
   -1.8930    1.5380    0.4370 C   0  0  0  0  0  0  0  0  0  0  0  0
   -1.9210    1.2480   -1.0240 C   0  0  0  0  0  0  0  0  0  0  0  0
   -1.7990   -0.1870   -1.4070 C   0  0  2  0  0  0  0  0  0  0  0  0
   -0.5810   -0.8420   -1.0130 N   0  0  0  0  0  0  0  0  0  0  0  0
   -1.9440   -0.3330   -2.8920 C   0  0  0  0  0  0  0  0  0  0  0  0
   -2.9570    0.1840   -3.4200 O   0  0  0  0  0  0  0  0  0  0  0  0
   -1.0330   -0.9970   -3.6900 O   0  0  0  0  0  0  0  0  0  0  0  0
   -1.6850    3.6270    4.8080 H   0  0  0  0  0  0  0  0  0  0  0  0
   -0.1010    2.9200    5.1410 H   0  0  0  0  0  0  0  0  0  0  0  0
   -0.4710    4.7950    2.4640 H   0  0  0  0  0  0  0  0  0  0  0  0
   -0.7690    0.7340    3.2710 H   0  0  0  0  0  0  0  0  0  0  0  0
    0.2330    1.6150    0.7440 H   0  0  0  0  0  0  0  0  0  0  0  0
   -0.4930    0.0470    1.1470 H   0  0  0  0  0  0  0  0  0  0  0  0
   -2.2300    2.5760    0.6650 H   0  0  0  0  0  0  0  0  0  0  0  0
   -2.7430    0.9150    0.8750 H   0  0  0  0  0  0  0  0  0  0  0  0
   -2.9270    1.5980   -1.4000 H   0  0  0  0  0  0  0  0  0  0  0  0
   -1.1150    1.7900   -1.5840 H   0  0  0  0  0  0  0  0  0  0  0  0
   -2.6460   -0.7320   -0.8990 H   0  0  0  0  0  0  0  0  0  0  0  0
   -0.6230   -1.7090   -0.3960 H   0  0  0  0  0  0  0  0  0  0  0  0
  1 10  1  0  0  0  0
  1  9  1  0  0  0  0
  2 11  1  6  0  0  0
  2  3  1  0  0  0  0
  2  1  1  0  0  0  0
  3 13  1  0  0  0  0
  3  4  1  0  0  0  0
  4  8  1  0  0  0  0
  4  5  2  0  0  0  0
  6  7  2  0  0  0  0
  6  2  1  0  0  0  0
  8 14  1  0  0  0  0
 12  3  1  0  0  0  0
 15  6  1  0  0  0  0
 16 22  1  1  0  0  0
 16 15  1  0  0  0  0
 17 18  1  0  0  0  0
 17 16  1  0  0  0  0
 18 25  1  0  0  0  0
 19 34  1  0  0  0  0
 19 16  1  0  0  0  0
 20 19  2  0  0  0  0
 21 15  1  0  0  0  0
 23 17  1  0  0  0  0
 24 17  1  0  0  0  0
 26 38  1  0  0  0  0
 26 39  1  0  0  0  0
 27 26  1  0  0  0  0
 28 40  1  0  0  0  0
 28 27  2  0  0  0  0
 29 27  1  0  0  0  0
 29 41  1  0  0  0  0
 30 29  1  0  0  0  0
 31 44  1  0  0  0  0
 31 45  1  0  0  0  0
 31 30  1  0  0  0  0
 32 31  1  0  0  0  0
 33 32  1  0  0  0  0
 33 34  1  0  0  0  0
 33 48  1  1  0  0  0
 34 49  1  0  0  0  0
 35 33  1  0  0  0  0
 36 35  1  0  0  0  0
 37 35  2  0  0  0  0
 42 30  1  0  0  0  0
 43 30  1  0  0  0  0
 46 32  1  0  0  0  0
 47 32  1  0  0  0  0
M  END
$$$$
