DCT.pdb
 OpenBabel07022418133D

 40 39  0  0  1  0  0  0  0  0999 V2000
   -0.1030   -4.7820   -1.1860 N   0  0  0  0  0  0  0  0  0  0  0  0
   -0.3880   -3.3790   -1.0940 C   0  0  1  0  0  0  0  0  0  0  0  0
   -1.4440   -3.0620   -0.0760 C   0  0  0  0  0  0  0  0  0  0  0  0
   -1.0900   -3.4770    1.2820 C   0  0  0  0  0  0  0  0  0  0  0  0
    0.0010   -4.0380    1.5100 O   0  0  0  0  0  0  0  0  0  0  0  0
    0.8420   -2.5710   -0.9060 C   0  0  0  0  0  0  0  0  0  0  0  0
    1.9380   -3.1780   -0.8530 O   0  0  0  0  0  0  0  0  0  0  0  0
   -1.9630   -3.2510    2.3230 O   0  0  0  0  0  0  0  0  0  0  0  0
   -0.4360   -5.2210   -2.0720 H   0  0  0  0  0  0  0  0  0  0  0  0
   -0.4940   -5.3430   -0.4080 H   0  0  0  0  0  0  0  0  0  0  0  0
   -0.8170   -3.0780   -2.0950 H   0  0  0  0  0  0  0  0  0  0  0  0
   -2.3580   -3.6380   -0.3730 H   0  0  0  0  0  0  0  0  0  0  0  0
   -1.7070   -1.9870   -0.1630 H   0  0  0  0  0  0  0  0  0  0  0  0
   -1.9480   -3.8010    3.1920 H   0  0  0  0  0  0  0  0  0  0  0  0
    0.8510   -1.1640   -0.7850 N   0  0  0  0  0  0  0  0  0  0  0  0
    2.0850   -0.4380   -0.6040 C   0  0  1  0  0  0  0  0  0  0  0  0
    2.3500    0.5110   -1.7560 C   0  0  0  0  0  0  0  0  0  0  0  0
    1.0450    1.7360   -1.9430 S   0  0  0  0  0  0  0  0  0  0  0  0
    2.0440    0.3760    0.6330 C   0  0  0  0  0  0  0  0  0  0  0  0
    3.0200    1.0740    0.9600 O   0  0  0  0  0  0  0  0  0  0  0  0
   -0.0410   -0.6320   -0.8250 H   0  0  0  0  0  0  0  0  0  0  0  0
    2.9210   -1.1570   -0.5850 H   0  0  0  0  0  0  0  0  0  0  0  0
    2.4710   -0.0430   -2.7220 H   0  0  0  0  0  0  0  0  0  0  0  0
    3.3070    1.0430   -1.5960 H   0  0  0  0  0  0  0  0  0  0  0  0
   -0.0360    1.2310   -2.6830 H   0  0  0  0  0  0  0  0  0  0  0  0
    0.0720    3.4200    1.8760 C   0  0  0  0  0  0  0  0  0  0  0  0
   -0.1570    2.2200    2.8070 C   0  0  1  0  0  0  0  0  0  0  0  0
   -1.4510    1.7680    2.7530 O   0  0  0  0  0  0  0  0  0  0  0  0
    0.8900    1.1820    2.6640 C   0  0  2  0  0  0  0  0  0  0  0  0
    0.9350    0.4160    1.4950 N   0  0  0  0  0  0  0  0  0  0  0  0
    0.8350    0.3020    3.8520 C   0  0  0  0  0  0  0  0  0  0  0  0
    0.8350   -0.9370    3.6900 O   0  0  0  0  0  0  0  0  0  0  0  0
    0.7840    0.7950    5.1420 O   0  0  0  0  0  0  0  0  0  0  0  0
   -0.3500    4.3500    2.3110 H   0  0  0  0  0  0  0  0  0  0  0  0
   -0.5110    3.2030    0.9640 H   0  0  0  0  0  0  0  0  0  0  0  0
    1.1320    3.6000    1.7000 H   0  0  0  0  0  0  0  0  0  0  0  0
   -0.0360    2.6470    3.8300 H   0  0  0  0  0  0  0  0  0  0  0  0
   -2.0580    2.3950    2.3150 H   0  0  0  0  0  0  0  0  0  0  0  0
    1.8790    1.7290    2.7620 H   0  0  0  0  0  0  0  0  0  0  0  0
    0.0830   -0.1590    1.2600 H   0  0  0  0  0  0  0  0  0  0  0  0
  1  2  1  0  0  0  0
  1 10  1  0  0  0  0
  2 11  1  6  0  0  0
  2  6  1  0  0  0  0
  2  3  1  0  0  0  0
  3  4  1  0  0  0  0
  4  5  2  0  0  0  0
  4  8  1  0  0  0  0
  6  7  2  0  0  0  0
  6 15  1  0  0  0  0
  8 14  1  0  0  0  0
  9  1  1  0  0  0  0
 12  3  1  0  0  0  0
 13  3  1  0  0  0  0
 15 16  1  0  0  0  0
 16 22  1  1  0  0  0
 16 19  1  0  0  0  0
 17 24  1  0  0  0  0
 17 16  1  0  0  0  0
 18 17  1  0  0  0  0
 19 20  2  0  0  0  0
 19 30  1  0  0  0  0
 21 15  1  0  0  0  0
 23 17  1  0  0  0  0
 25 18  1  0  0  0  0
 26 34  1  0  0  0  0
 26 27  1  0  0  0  0
 27 37  1  1  0  0  0
 28 27  1  0  0  0  0
 29 39  1  1  0  0  0
 29 27  1  0  0  0  0
 29 31  1  0  0  0  0
 30 29  1  0  0  0  0
 31 33  1  0  0  0  0
 32 31  2  0  0  0  0
 35 26  1  0  0  0  0
 36 26  1  0  0  0  0
 38 28  1  0  0  0  0
 40 30  1  0  0  0  0
M  END
$$$$
