DCW.pdb
 OpenBabel07022418133D

 50 51  0  0  1  0  0  0  0  0999 V2000
   -0.3150    0.5210    6.9630 N   0  0  0  0  0  0  0  0  0  0  0  0
    0.2520    1.1770    5.8240 C   0  0  1  0  0  0  0  0  0  0  0  0
    1.7400    1.1150    5.7900 C   0  0  0  0  0  0  0  0  0  0  0  0
    2.3120   -0.2370    5.7480 C   0  0  0  0  0  0  0  0  0  0  0  0
    1.5970   -1.2640    5.7310 O   0  0  0  0  0  0  0  0  0  0  0  0
   -0.4050    0.7730    4.5570 C   0  0  0  0  0  0  0  0  0  0  0  0
   -1.3860   -0.0410    4.5340 O   0  0  0  0  0  0  0  0  0  0  0  0
    3.6840   -0.3980    5.7250 O   0  0  0  0  0  0  0  0  0  0  0  0
    0.1970   -0.2880    7.3250 H   0  0  0  0  0  0  0  0  0  0  0  0
   -1.3360    0.4670    6.9660 H   0  0  0  0  0  0  0  0  0  0  0  0
   -0.0100    2.2720    5.9420 H   0  0  0  0  0  0  0  0  0  0  0  0
    2.1100    1.7700    4.9730 H   0  0  0  0  0  0  0  0  0  0  0  0
    2.0980    1.6200    6.7340 H   0  0  0  0  0  0  0  0  0  0  0  0
    4.1420   -1.1690    5.2450 H   0  0  0  0  0  0  0  0  0  0  0  0
    0.0360    1.2790    3.3220 N   0  0  0  0  0  0  0  0  0  0  0  0
   -0.5860    0.9090    2.0360 C   0  0  1  0  0  0  0  0  0  0  0  0
   -1.0850    2.1780    1.3930 C   0  0  0  0  0  0  0  0  0  0  0  0
   -1.8760    1.8840   -0.1830 S   0  0  0  0  0  0  0  0  0  0  0  0
    0.4590    0.2120    1.2480 C   0  0  0  0  0  0  0  0  0  0  0  0
    1.6250    0.0860    1.7400 O   0  0  0  0  0  0  0  0  0  0  0  0
    0.8390    1.9450    3.3100 H   0  0  0  0  0  0  0  0  0  0  0  0
   -1.4380    0.2400    2.1900 H   0  0  0  0  0  0  0  0  0  0  0  0
   -1.8030    2.6320    2.1100 H   0  0  0  0  0  0  0  0  0  0  0  0
   -0.2580    2.9350    1.2940 H   0  0  0  0  0  0  0  0  0  0  0  0
   -2.6640    2.9650   -0.5860 H   0  0  0  0  0  0  0  0  0  0  0  0
    0.2870   -0.3450   -0.0310 N   0  0  0  0  0  0  0  0  0  0  0  0
    1.3340   -1.0220   -0.7750 C   0  0  1  0  0  0  0  0  0  0  0  0
    0.9370   -2.4600   -0.9410 C   0  0  0  0  0  0  0  0  0  0  0  0
   -0.3450   -2.6870   -1.6270 C   0  0  0  0  0  0  0  0  0  0  0  0
   -1.5680   -2.8870   -0.9590 C   0  0  0  0  0  0  0  0  0  0  0  0
   -2.5450   -3.0200   -1.8650 N   0  0  0  0  0  0  0  0  0  0  0  0
   -2.0340   -2.9200   -3.1090 C   0  0  0  0  0  0  0  0  0  0  0  0
   -2.5770   -2.9890   -4.3660 C   0  0  0  0  0  0  0  0  0  0  0  0
   -1.7670   -2.8550   -5.4770 C   0  0  0  0  0  0  0  0  0  0  0  0
   -0.4050   -2.6510   -5.3480 C   0  0  0  0  0  0  0  0  0  0  0  0
    0.1460   -2.5800   -4.0860 C   0  0  0  0  0  0  0  0  0  0  0  0
   -0.6510   -2.7110   -2.9600 C   0  0  0  0  0  0  0  0  0  0  0  0
    1.7260   -0.3610   -2.0190 C   0  0  0  0  0  0  0  0  0  0  0  0
    1.1150    0.6230   -2.5000 O   0  0  0  0  0  0  0  0  0  0  0  0
    2.8400   -0.8260   -2.7270 O   0  0  0  0  0  0  0  0  0  0  0  0
   -0.6450   -0.2800   -0.4850 H   0  0  0  0  0  0  0  0  0  0  0  0
    2.2880   -1.0540   -0.1510 H   0  0  0  0  0  0  0  0  0  0  0  0
    1.7840   -2.9940   -1.4730 H   0  0  0  0  0  0  0  0  0  0  0  0
    0.9210   -2.9880    0.0590 H   0  0  0  0  0  0  0  0  0  0  0  0
   -1.6230   -2.9150    0.1160 H   0  0  0  0  0  0  0  0  0  0  0  0
   -3.5680   -3.1800   -1.6690 H   0  0  0  0  0  0  0  0  0  0  0  0
   -3.6410   -3.1480   -4.5000 H   0  0  0  0  0  0  0  0  0  0  0  0
   -2.1750   -2.9060   -6.4790 H   0  0  0  0  0  0  0  0  0  0  0  0
    0.2700   -2.5410   -6.1780 H   0  0  0  0  0  0  0  0  0  0  0  0
    1.2040   -2.4380   -3.9650 H   0  0  0  0  0  0  0  0  0  0  0  0
  1 10  1  0  0  0  0
  1  9  1  0  0  0  0
  2 11  1  1  0  0  0
  2  1  1  0  0  0  0
  3  2  1  0  0  0  0
  3 13  1  0  0  0  0
  4  3  1  0  0  0  0
  5  4  2  0  0  0  0
  6  2  1  0  0  0  0
  7  6  2  0  0  0  0
  8  4  1  0  0  0  0
 12  3  1  0  0  0  0
 14  8  1  0  0  0  0
 15  6  1  0  0  0  0
 16 22  1  1  0  0  0
 16 15  1  0  0  0  0
 17 16  1  0  0  0  0
 17 23  1  0  0  0  0
 18 17  1  0  0  0  0
 19 20  2  0  0  0  0
 19 16  1  0  0  0  0
 21 15  1  0  0  0  0
 24 17  1  0  0  0  0
 25 18  1  0  0  0  0
 26 19  1  0  0  0  0
 27 42  1  1  0  0  0
 27 26  1  0  0  0  0
 28 27  1  0  0  0  0
 28 44  1  0  0  0  0
 29 30  2  0  0  0  0
 29 28  1  0  0  0  0
 30 45  1  0  0  0  0
 31 46  1  0  0  0  0
 31 30  1  0  0  0  0
 32 37  1  0  0  0  0
 32 31  1  0  0  0  0
 33 32  2  0  0  0  0
 34 35  2  0  0  0  0
 34 33  1  0  0  0  0
 35 36  1  0  0  0  0
 36 50  1  0  0  0  0
 36 37  2  0  0  0  0
 37 29  1  0  0  0  0
 38 27  1  0  0  0  0
 39 38  1  0  0  0  0
 40 38  2  0  0  0  0
 41 26  1  0  0  0  0
 43 28  1  0  0  0  0
 47 33  1  0  0  0  0
 48 34  1  0  0  0  0
 49 35  1  0  0  0  0
M  END
$$$$
