DCY.pdb
 OpenBabel07022418133D

 47 47  0  0  1  0  0  0  0  0999 V2000
    2.4200    1.5400    4.0850 N   0  0  0  0  0  0  0  0  0  0  0  0
    1.9270    0.4220    3.3270 C   0  0  1  0  0  0  0  0  0  0  0  0
    0.4150    0.4230    3.2650 C   0  0  0  0  0  0  0  0  0  0  0  0
   -0.1070    1.6520    2.6270 C   0  0  0  0  0  0  0  0  0  0  0  0
    0.6800    2.5220    2.2220 O   0  0  0  0  0  0  0  0  0  0  0  0
    2.5390    0.3240    1.9930 C   0  0  0  0  0  0  0  0  0  0  0  0
    3.3960    1.1550    1.6060 O   0  0  0  0  0  0  0  0  0  0  0  0
   -1.4770    1.8070    2.4920 O   0  0  0  0  0  0  0  0  0  0  0  0
    2.6260    2.3850    3.5080 H   0  0  0  0  0  0  0  0  0  0  0  0
    3.2780    1.2270    4.6060 H   0  0  0  0  0  0  0  0  0  0  0  0
    2.1990   -0.5140    3.8960 H   0  0  0  0  0  0  0  0  0  0  0  0
    0.0960   -0.5020    2.7330 H   0  0  0  0  0  0  0  0  0  0  0  0
    0.0460    0.3590    4.3090 H   0  0  0  0  0  0  0  0  0  0  0  0
   -1.8310    2.7530    2.2790 H   0  0  0  0  0  0  0  0  0  0  0  0
    2.1540   -0.7330    1.1240 N   0  0  0  0  0  0  0  0  0  0  0  0
    2.7360   -0.8450   -0.1740 C   0  0  1  0  0  0  0  0  0  0  0  0
    3.5320   -2.1370   -0.3350 C   0  0  0  0  0  0  0  0  0  0  0  0
    4.8450   -2.1120    0.9140 S   0  0  0  0  0  0  0  0  0  0  0  0
    1.6990   -0.7400   -1.2610 C   0  0  0  0  0  0  0  0  0  0  0  0
    2.0710   -0.8230   -2.4600 O   0  0  0  0  0  0  0  0  0  0  0  0
    1.4260   -1.4370    1.4550 H   0  0  0  0  0  0  0  0  0  0  0  0
    3.4640   -0.0230   -0.3270 H   0  0  0  0  0  0  0  0  0  0  0  0
    4.0320   -2.0990   -1.3250 H   0  0  0  0  0  0  0  0  0  0  0  0
    2.9230   -3.0260   -0.1810 H   0  0  0  0  0  0  0  0  0  0  0  0
    6.1070   -1.8950    0.3430 H   0  0  0  0  0  0  0  0  0  0  0  0
   -3.9610   -2.1600    3.2170 O   0  0  0  0  0  0  0  0  0  0  0  0
   -3.3690   -2.0320    1.9440 C   0  0  0  0  0  0  0  0  0  0  0  0
   -2.1490   -2.6280    1.7060 C   0  0  0  0  0  0  0  0  0  0  0  0
   -1.6020   -2.4810    0.4500 C   0  0  0  0  0  0  0  0  0  0  0  0
   -2.2370   -1.7690   -0.5410 C   0  0  0  0  0  0  0  0  0  0  0  0
   -1.6070   -1.6480   -1.8530 C   0  0  0  0  0  0  0  0  0  0  0  0
   -0.7020   -0.4470   -1.9810 C   0  0  2  0  0  0  0  0  0  0  0  0
    0.3330   -0.5540   -1.0060 N   0  0  0  0  0  0  0  0  0  0  0  0
   -1.4310    0.8340   -1.9430 C   0  0  0  0  0  0  0  0  0  0  0  0
   -1.1710    1.7550   -1.1260 O   0  0  0  0  0  0  0  0  0  0  0  0
   -3.4520   -1.1880   -0.2680 C   0  0  0  0  0  0  0  0  0  0  0  0
   -4.0280   -1.3130    0.9710 C   0  0  0  0  0  0  0  0  0  0  0  0
   -2.4670    1.0880   -2.8310 O   0  0  0  0  0  0  0  0  0  0  0  0
   -4.6020   -1.4340    3.5090 H   0  0  0  0  0  0  0  0  0  0  0  0
   -1.6410   -3.1960    2.4910 H   0  0  0  0  0  0  0  0  0  0  0  0
   -0.6290   -2.9710    0.2990 H   0  0  0  0  0  0  0  0  0  0  0  0
   -2.4330   -1.5570   -2.6160 H   0  0  0  0  0  0  0  0  0  0  0  0
   -1.0260   -2.5440   -2.1600 H   0  0  0  0  0  0  0  0  0  0  0  0
   -0.2120   -0.5390   -2.9880 H   0  0  0  0  0  0  0  0  0  0  0  0
    0.0400   -0.4870    0.0150 H   0  0  0  0  0  0  0  0  0  0  0  0
   -4.0020   -0.6100   -1.0180 H   0  0  0  0  0  0  0  0  0  0  0  0
   -5.0010   -0.8580    1.2170 H   0  0  0  0  0  0  0  0  0  0  0  0
  1 10  1  0  0  0  0
  2 11  1  1  0  0  0
  2  1  1  0  0  0  0
  3  2  1  0  0  0  0
  3 13  1  0  0  0  0
  4  3  1  0  0  0  0
  5  4  2  0  0  0  0
  6  2  1  0  0  0  0
  7  6  2  0  0  0  0
  8  4  1  0  0  0  0
  9  1  1  0  0  0  0
 12  3  1  0  0  0  0
 14  8  1  0  0  0  0
 15 21  1  0  0  0  0
 15  6  1  0  0  0  0
 16 22  1  6  0  0  0
 16 15  1  0  0  0  0
 17 24  1  0  0  0  0
 17 16  1  0  0  0  0
 17 18  1  0  0  0  0
 19 33  1  0  0  0  0
 19 16  1  0  0  0  0
 20 19  2  0  0  0  0
 23 17  1  0  0  0  0
 25 18  1  0  0  0  0
 26 39  1  0  0  0  0
 27 26  1  0  0  0  0
 28 27  1  0  0  0  0
 28 40  1  0  0  0  0
 29 28  2  0  0  0  0
 30 36  2  0  0  0  0
 30 29  1  0  0  0  0
 31 30  1  0  0  0  0
 32 44  1  6  0  0  0
 32 34  1  0  0  0  0
 32 31  1  0  0  0  0
 32 33  1  0  0  0  0
 33 45  1  0  0  0  0
 34 35  1  0  0  0  0
 36 37  1  0  0  0  0
 37 47  1  0  0  0  0
 37 27  2  0  0  0  0
 38 34  2  0  0  0  0
 41 29  1  0  0  0  0
 42 31  1  0  0  0  0
 43 31  1  0  0  0  0
 46 36  1  0  0  0  0
M  END
$$$$
