DDC.pdb
 OpenBabel07022418133D

 39 38  0  0  1  0  0  0  0  0999 V2000
    1.6490   -2.6980    2.4140 N   0  0  0  0  0  0  0  0  0  0  0  0
    2.3480   -1.4400    2.5990 C   0  0  1  0  0  0  0  0  0  0  0  0
    3.8170   -1.7420    2.4350 C   0  0  0  0  0  0  0  0  0  0  0  0
    4.6930   -0.5620    2.5950 C   0  0  0  0  0  0  0  0  0  0  0  0
    4.9930    0.2420    1.6750 O   0  0  0  0  0  0  0  0  0  0  0  0
    1.9480   -0.4310    1.6000 C   0  0  0  0  0  0  0  0  0  0  0  0
    2.4270    0.7320    1.6140 O   0  0  0  0  0  0  0  0  0  0  0  0
    5.2610   -0.2690    3.8460 O   0  0  0  0  0  0  0  0  0  0  0  0
    2.2430   -3.5000    2.6900 H   0  0  0  0  0  0  0  0  0  0  0  0
    0.7700   -2.6850    2.9720 H   0  0  0  0  0  0  0  0  0  0  0  0
    2.1890   -1.1170    3.6360 H   0  0  0  0  0  0  0  0  0  0  0  0
    3.9970   -2.2730    1.4760 H   0  0  0  0  0  0  0  0  0  0  0  0
    4.0980   -2.4630    3.2580 H   0  0  0  0  0  0  0  0  0  0  0  0
    5.3820    0.7020    4.1090 H   0  0  0  0  0  0  0  0  0  0  0  0
    1.0100   -0.6850    0.5630 N   0  0  0  0  0  0  0  0  0  0  0  0
    0.6280    0.3300   -0.4150 C   0  0  1  0  0  0  0  0  0  0  0  0
    0.9380   -0.2380   -1.7760 C   0  0  0  0  0  0  0  0  0  0  0  0
    0.6000    0.6940   -2.8600 C   0  0  0  0  0  0  0  0  0  0  0  0
   -0.5370    0.7790   -3.4100 O   0  0  0  0  0  0  0  0  0  0  0  0
   -0.8440    0.5760   -0.3340 C   0  0  0  0  0  0  0  0  0  0  0  0
   -1.4270    1.4250   -1.0520 O   0  0  0  0  0  0  0  0  0  0  0  0
    1.6250    1.5460   -3.3070 O   0  0  0  0  0  0  0  0  0  0  0  0
    0.5670   -1.6170    0.4750 H   0  0  0  0  0  0  0  0  0  0  0  0
    1.1930    1.2760   -0.2320 H   0  0  0  0  0  0  0  0  0  0  0  0
    1.9710   -0.6330   -1.8450 H   0  0  0  0  0  0  0  0  0  0  0  0
    0.2570   -1.1310   -1.9010 H   0  0  0  0  0  0  0  0  0  0  0  0
    1.5630    1.9830   -4.2290 H   0  0  0  0  0  0  0  0  0  0  0  0
   -1.6750   -0.1590    0.5820 N   0  0  0  0  0  0  0  0  0  0  0  0
   -3.1140    0.0600    0.6830 C   0  0  1  0  0  0  0  0  0  0  0  0
   -3.8070   -1.2130    0.2130 C   0  0  0  0  0  0  0  0  0  0  0  0
   -3.3640   -1.5930   -1.5040 S   0  0  0  0  0  0  0  0  0  0  0  0
   -3.5260    0.4290    2.0390 C   0  0  0  0  0  0  0  0  0  0  0  0
   -4.7470    0.6380    2.2480 O   0  0  0  0  0  0  0  0  0  0  0  0
   -2.6580    0.5630    3.1100 O   0  0  0  0  0  0  0  0  0  0  0  0
   -1.1820   -0.8610    1.1730 H   0  0  0  0  0  0  0  0  0  0  0  0
   -3.4180    0.8640   -0.0180 H   0  0  0  0  0  0  0  0  0  0  0  0
   -3.5030   -2.0930    0.8180 H   0  0  0  0  0  0  0  0  0  0  0  0
   -4.8960   -1.0780    0.2790 H   0  0  0  0  0  0  0  0  0  0  0  0
   -4.4860   -1.4850   -2.3250 H   0  0  0  0  0  0  0  0  0  0  0  0
  1  2  1  0  0  0  0
  1  9  1  0  0  0  0
  1 10  1  0  0  0  0
  2 11  1  1  0  0  0
  3  4  1  0  0  0  0
  3  2  1  0  0  0  0
  3 13  1  0  0  0  0
  4  8  1  0  0  0  0
  5  4  2  0  0  0  0
  6  7  2  0  0  0  0
  6  2  1  0  0  0  0
  8 14  1  0  0  0  0
 12  3  1  0  0  0  0
 15  6  1  0  0  0  0
 16 20  1  0  0  0  0
 16 24  1  1  0  0  0
 16 15  1  0  0  0  0
 17 16  1  0  0  0  0
 18 17  1  0  0  0  0
 19 18  2  0  0  0  0
 20 28  1  0  0  0  0
 21 20  2  0  0  0  0
 22 18  1  0  0  0  0
 23 15  1  0  0  0  0
 25 17  1  0  0  0  0
 26 17  1  0  0  0  0
 27 22  1  0  0  0  0
 28 29  1  0  0  0  0
 28 35  1  0  0  0  0
 29 36  1  6  0  0  0
 29 32  1  0  0  0  0
 30 38  1  0  0  0  0
 30 29  1  0  0  0  0
 30 37  1  0  0  0  0
 31 30  1  0  0  0  0
 32 33  2  0  0  0  0
 32 34  1  0  0  0  0
 39 31  1  0  0  0  0
M  END
$$$$
