DDD.pdb
 OpenBabel07022418133D

 41 40  0  0  1  0  0  0  0  0999 V2000
    0.4910   -3.5570   -2.1300 N   0  0  0  0  0  0  0  0  0  0  0  0
    0.8200   -4.0230   -0.8010 C   0  0  1  0  0  0  0  0  0  0  0  0
    2.1380   -4.7940   -0.9370 C   0  0  0  0  0  0  0  0  0  0  0  0
    1.9660   -5.9290   -1.8650 C   0  0  0  0  0  0  0  0  0  0  0  0
    0.8710   -6.1640   -2.4240 O   0  0  0  0  0  0  0  0  0  0  0  0
    0.9850   -2.9500    0.1810 C   0  0  0  0  0  0  0  0  0  0  0  0
    1.2770   -3.2400    1.3680 O   0  0  0  0  0  0  0  0  0  0  0  0
    3.0320   -6.7670   -2.1370 O   0  0  0  0  0  0  0  0  0  0  0  0
   -0.5470   -3.4650   -2.1800 H   0  0  0  0  0  0  0  0  0  0  0  0
    0.9870   -2.7150   -2.4370 H   0  0  0  0  0  0  0  0  0  0  0  0
    0.0140   -4.7530   -0.5090 H   0  0  0  0  0  0  0  0  0  0  0  0
    2.4960   -5.1400    0.0450 H   0  0  0  0  0  0  0  0  0  0  0  0
    2.8910   -4.0800   -1.3440 H   0  0  0  0  0  0  0  0  0  0  0  0
    2.9510   -7.6510   -2.6180 H   0  0  0  0  0  0  0  0  0  0  0  0
    0.8400   -1.5510   -0.0950 N   0  0  0  0  0  0  0  0  0  0  0  0
    1.0220   -0.5510    0.9390 C   0  0  1  0  0  0  0  0  0  0  0  0
    2.2140    0.3400    0.6430 C   0  0  0  0  0  0  0  0  0  0  0  0
    2.0830    1.0720   -0.6290 C   0  0  0  0  0  0  0  0  0  0  0  0
    1.0920    0.9730   -1.3800 O   0  0  0  0  0  0  0  0  0  0  0  0
   -0.2310    0.2310    1.0380 C   0  0  0  0  0  0  0  0  0  0  0  0
   -1.2060   -0.0270    0.2980 O   0  0  0  0  0  0  0  0  0  0  0  0
    3.1230    1.9300   -1.0300 O   0  0  0  0  0  0  0  0  0  0  0  0
    0.5990   -1.2740   -1.0570 H   0  0  0  0  0  0  0  0  0  0  0  0
    1.2670   -1.0530    1.9020 H   0  0  0  0  0  0  0  0  0  0  0  0
    3.1170   -0.3110    0.5460 H   0  0  0  0  0  0  0  0  0  0  0  0
    2.3780    1.0240    1.4830 H   0  0  0  0  0  0  0  0  0  0  0  0
    3.1780    2.1760   -1.9980 H   0  0  0  0  0  0  0  0  0  0  0  0
   -0.4030    1.3090    1.9690 N   0  0  0  0  0  0  0  0  0  0  0  0
   -1.5980    2.0740    2.0820 C   0  0  1  0  0  0  0  0  0  0  0  0
   -2.1820    1.8900    3.4560 C   0  0  0  0  0  0  0  0  0  0  0  0
   -1.2590    2.3530    4.5040 C   0  0  0  0  0  0  0  0  0  0  0  0
   -0.1610    2.8970    4.2360 O   0  0  0  0  0  0  0  0  0  0  0  0
   -1.3820    3.5300    1.8880 C   0  0  0  0  0  0  0  0  0  0  0  0
   -0.2760    4.0450    1.6490 O   0  0  0  0  0  0  0  0  0  0  0  0
   -1.5390    2.2210    5.8650 O   0  0  0  0  0  0  0  0  0  0  0  0
   -2.5100    4.3420    1.9850 O   0  0  0  0  0  0  0  0  0  0  0  0
    0.4180    1.5020    2.5640 H   0  0  0  0  0  0  0  0  0  0  0  0
   -2.3820    1.7830    1.3480 H   0  0  0  0  0  0  0  0  0  0  0  0
   -3.1900    2.3500    3.5390 H   0  0  0  0  0  0  0  0  0  0  0  0
   -2.2940    0.7770    3.5880 H   0  0  0  0  0  0  0  0  0  0  0  0
   -0.7690    2.0250    6.5070 H   0  0  0  0  0  0  0  0  0  0  0  0
  1  2  1  0  0  0  0
  2 11  1  1  0  0  0
  2  6  1  0  0  0  0
  3  2  1  0  0  0  0
  3 12  1  0  0  0  0
  4  3  1  0  0  0  0
  5  4  2  0  0  0  0
  6  7  2  0  0  0  0
  8  4  1  0  0  0  0
  9  1  1  0  0  0  0
 10  1  1  0  0  0  0
 13  3  1  0  0  0  0
 14  8  1  0  0  0  0
 15  6  1  0  0  0  0
 15 16  1  0  0  0  0
 16 20  1  0  0  0  0
 16 24  1  1  0  0  0
 17 16  1  0  0  0  0
 17 26  1  0  0  0  0
 18 17  1  0  0  0  0
 19 18  2  0  0  0  0
 20 28  1  0  0  0  0
 21 20  2  0  0  0  0
 22 18  1  0  0  0  0
 23 15  1  0  0  0  0
 25 17  1  0  0  0  0
 27 22  1  0  0  0  0
 28 29  1  0  0  0  0
 28 37  1  0  0  0  0
 29 38  1  6  0  0  0
 29 30  1  0  0  0  0
 30 39  1  0  0  0  0
 30 40  1  0  0  0  0
 30 31  1  0  0  0  0
 31 35  1  0  0  0  0
 32 31  2  0  0  0  0
 33 36  1  0  0  0  0
 33 29  1  0  0  0  0
 34 33  2  0  0  0  0
 35 41  1  0  0  0  0
M  END
$$$$
