DDE.pdb
 OpenBabel07022418133D

 44 43  0  0  1  0  0  0  0  0999 V2000
    4.8260   -2.0090    2.1640 N   0  0  0  0  0  0  0  0  0  0  0  0
    3.5770   -1.9260    1.4410 C   0  0  1  0  0  0  0  0  0  0  0  0
    2.5080   -2.7910    2.1460 C   0  0  0  0  0  0  0  0  0  0  0  0
    2.3380   -2.3090    3.5410 C   0  0  0  0  0  0  0  0  0  0  0  0
    3.4180   -2.2000    4.2260 O   0  0  0  0  0  0  0  0  0  0  0  0
    3.0560   -0.5340    1.3510 C   0  0  0  0  0  0  0  0  0  0  0  0
    3.6410    0.3790    1.9910 O   0  0  0  0  0  0  0  0  0  0  0  0
    1.1690   -1.9740    4.1610 O   0  0  0  0  0  0  0  0  0  0  0  0
    5.6000   -1.9090    1.4550 H   0  0  0  0  0  0  0  0  0  0  0  0
    4.8900   -3.0140    2.5090 H   0  0  0  0  0  0  0  0  0  0  0  0
    3.7370   -2.4010    0.4530 H   0  0  0  0  0  0  0  0  0  0  0  0
    2.9360   -3.8110    2.1620 H   0  0  0  0  0  0  0  0  0  0  0  0
    1.5510   -2.7950    1.6170 H   0  0  0  0  0  0  0  0  0  0  0  0
    1.0730   -1.1680    4.7740 H   0  0  0  0  0  0  0  0  0  0  0  0
    1.9340   -0.1630    0.5840 N   0  0  0  0  0  0  0  0  0  0  0  0
    1.3910    1.1690    0.4650 C   0  0  1  0  0  0  0  0  0  0  0  0
    1.6280    1.7300   -0.9460 C   0  0  0  0  0  0  0  0  0  0  0  0
    1.0060    0.9180   -1.9950 C   0  0  0  0  0  0  0  0  0  0  0  0
   -0.2200    1.0600   -2.2290 O   0  0  0  0  0  0  0  0  0  0  0  0
   -0.0610    1.1600    0.7550 C   0  0  0  0  0  0  0  0  0  0  0  0
   -0.7220    2.2510    0.6950 O   0  0  0  0  0  0  0  0  0  0  0  0
    1.7070   -0.0130   -2.7540 O   0  0  0  0  0  0  0  0  0  0  0  0
    1.4460   -0.9190    0.0440 H   0  0  0  0  0  0  0  0  0  0  0  0
    1.8820    1.8970    1.1270 H   0  0  0  0  0  0  0  0  0  0  0  0
    1.0870    2.7280   -0.9370 H   0  0  0  0  0  0  0  0  0  0  0  0
    2.7070    1.9390   -1.0990 H   0  0  0  0  0  0  0  0  0  0  0  0
    1.2260   -0.8200   -3.0810 H   0  0  0  0  0  0  0  0  0  0  0  0
   -0.8000   -0.0010    1.1050 N   0  0  0  0  0  0  0  0  0  0  0  0
   -2.2420    0.0170    1.3820 C   0  0  1  0  0  0  0  0  0  0  0  0
   -2.9270   -1.0050    0.5460 C   0  0  0  0  0  0  0  0  0  0  0  0
   -2.7890   -0.8390   -0.9350 C   0  0  0  0  0  0  0  0  0  0  0  0
   -3.3380    0.4410   -1.4260 C   0  0  0  0  0  0  0  0  0  0  0  0
   -3.8780    1.3120   -0.7100 O   0  0  0  0  0  0  0  0  0  0  0  0
   -2.4380   -0.3430    2.8040 C   0  0  0  0  0  0  0  0  0  0  0  0
   -1.4630   -0.5870    3.5510 O   0  0  0  0  0  0  0  0  0  0  0  0
   -3.2270    0.6610   -2.8170 O   0  0  0  0  0  0  0  0  0  0  0  0
   -3.7020   -0.4370    3.4000 O   0  0  0  0  0  0  0  0  0  0  0  0
   -0.2580   -0.9000    1.1600 H   0  0  0  0  0  0  0  0  0  0  0  0
   -2.6450    1.0420    1.2560 H   0  0  0  0  0  0  0  0  0  0  0  0
   -4.0240   -0.9540    0.7750 H   0  0  0  0  0  0  0  0  0  0  0  0
   -2.4840   -1.9970    0.8040 H   0  0  0  0  0  0  0  0  0  0  0  0
   -1.7550   -1.0120   -1.2750 H   0  0  0  0  0  0  0  0  0  0  0  0
   -3.3900   -1.6580   -1.4190 H   0  0  0  0  0  0  0  0  0  0  0  0
   -3.2520    1.5810   -3.2040 H   0  0  0  0  0  0  0  0  0  0  0  0
  1 10  1  0  0  0  0
  2 11  1  6  0  0  0
  2  3  1  0  0  0  0
  2  1  1  0  0  0  0
  3 12  1  0  0  0  0
  3  4  1  0  0  0  0
  4  8  1  0  0  0  0
  4  5  2  0  0  0  0
  6  2  1  0  0  0  0
  6  7  2  0  0  0  0
  8 14  1  0  0  0  0
  9  1  1  0  0  0  0
 13  3  1  0  0  0  0
 15  6  1  0  0  0  0
 16 15  1  0  0  0  0
 16 20  1  0  0  0  0
 16 24  1  1  0  0  0
 17 25  1  0  0  0  0
 17 16  1  0  0  0  0
 18 17  1  0  0  0  0
 19 18  2  0  0  0  0
 20 28  1  0  0  0  0
 21 20  2  0  0  0  0
 22 18  1  0  0  0  0
 23 15  1  0  0  0  0
 26 17  1  0  0  0  0
 27 22  1  0  0  0  0
 28 38  1  0  0  0  0
 28 29  1  0  0  0  0
 29 39  1  6  0  0  0
 29 34  1  0  0  0  0
 30 40  1  0  0  0  0
 30 41  1  0  0  0  0
 30 29  1  0  0  0  0
 31 30  1  0  0  0  0
 32 31  1  0  0  0  0
 32 33  2  0  0  0  0
 34 37  2  0  0  0  0
 34 35  1  0  0  0  0
 36 32  1  0  0  0  0
 42 31  1  0  0  0  0
 43 31  1  0  0  0  0
 44 36  1  0  0  0  0
M  END
$$$$
