DDF.pdb
 OpenBabel07022418133D

 48 48  0  0  1  0  0  0  0  0999 V2000
    0.4140    2.1290    4.5320 N   0  0  0  0  0  0  0  0  0  0  0  0
    0.1710    0.9210    3.7410 C   0  0  1  0  0  0  0  0  0  0  0  0
   -1.1550    1.0420    2.9990 C   0  0  0  0  0  0  0  0  0  0  0  0
   -1.1610    2.1990    2.0880 C   0  0  0  0  0  0  0  0  0  0  0  0
   -0.1550    2.9330    1.9650 O   0  0  0  0  0  0  0  0  0  0  0  0
    1.2870    0.6660    2.8190 C   0  0  0  0  0  0  0  0  0  0  0  0
    2.2090    1.5340    2.7520 O   0  0  0  0  0  0  0  0  0  0  0  0
   -2.2920    2.4840    1.3540 O   0  0  0  0  0  0  0  0  0  0  0  0
   -0.0550    1.9940    5.4650 H   0  0  0  0  0  0  0  0  0  0  0  0
    1.4530    2.1550    4.7730 H   0  0  0  0  0  0  0  0  0  0  0  0
    0.0770    0.0850    4.4540 H   0  0  0  0  0  0  0  0  0  0  0  0
   -1.2870    0.0900    2.4320 H   0  0  0  0  0  0  0  0  0  0  0  0
   -1.9590    1.1200    3.7610 H   0  0  0  0  0  0  0  0  0  0  0  0
   -2.3630    3.4270    0.9460 H   0  0  0  0  0  0  0  0  0  0  0  0
    1.4060   -0.4730    2.0030 N   0  0  0  0  0  0  0  0  0  0  0  0
    2.5650   -0.6390    1.0960 C   0  0  1  0  0  0  0  0  0  0  0  0
    3.3270   -1.8690    1.4600 C   0  0  0  0  0  0  0  0  0  0  0  0
    4.5130   -2.0310    0.6210 C   0  0  0  0  0  0  0  0  0  0  0  0
    4.8930   -1.1480   -0.1640 O   0  0  0  0  0  0  0  0  0  0  0  0
    2.0450   -0.6800   -0.3090 C   0  0  0  0  0  0  0  0  0  0  0  0
    2.7640   -0.7830   -1.3370 O   0  0  0  0  0  0  0  0  0  0  0  0
    5.2990   -3.2020    0.6540 O   0  0  0  0  0  0  0  0  0  0  0  0
    0.6760   -1.2060    2.0440 H   0  0  0  0  0  0  0  0  0  0  0  0
    3.2050    0.2460    1.2160 H   0  0  0  0  0  0  0  0  0  0  0  0
    2.7080   -2.7940    1.3950 H   0  0  0  0  0  0  0  0  0  0  0  0
    3.6990   -1.7500    2.5210 H   0  0  0  0  0  0  0  0  0  0  0  0
    6.3130   -3.0860    0.5330 H   0  0  0  0  0  0  0  0  0  0  0  0
    0.6230   -0.5940   -0.4970 N   0  0  0  0  0  0  0  0  0  0  0  0
    0.0270   -0.6270   -1.8210 C   0  0  1  0  0  0  0  0  0  0  0  0
   -0.6670   -1.9420   -2.0500 C   0  0  0  0  0  0  0  0  0  0  0  0
   -1.7400   -2.2490   -1.0970 C   0  0  0  0  0  0  0  0  0  0  0  0
   -1.5130   -2.9430    0.0810 C   0  0  0  0  0  0  0  0  0  0  0  0
   -2.5410   -3.2300    0.9620 C   0  0  0  0  0  0  0  0  0  0  0  0
   -3.8330   -2.8230    0.6820 C   0  0  0  0  0  0  0  0  0  0  0  0
   -4.0760   -2.1280   -0.4900 C   0  0  0  0  0  0  0  0  0  0  0  0
   -3.0290   -1.8530   -1.3580 C   0  0  0  0  0  0  0  0  0  0  0  0
   -0.7780    0.5540   -2.1420 C   0  0  0  0  0  0  0  0  0  0  0  0
   -0.8750    1.4910   -1.3210 O   0  0  0  0  0  0  0  0  0  0  0  0
   -1.4370    0.6490   -3.3480 O   0  0  0  0  0  0  0  0  0  0  0  0
    0.0130   -0.5020    0.3210 H   0  0  0  0  0  0  0  0  0  0  0  0
    0.8900   -0.6400   -2.5710 H   0  0  0  0  0  0  0  0  0  0  0  0
   -1.0080   -1.9410   -3.1060 H   0  0  0  0  0  0  0  0  0  0  0  0
    0.1360   -2.7330   -2.0270 H   0  0  0  0  0  0  0  0  0  0  0  0
   -0.5170   -3.2830    0.3480 H   0  0  0  0  0  0  0  0  0  0  0  0
   -2.3510   -3.7800    1.8890 H   0  0  0  0  0  0  0  0  0  0  0  0
   -4.6640   -3.0350    1.3630 H   0  0  0  0  0  0  0  0  0  0  0  0
   -5.0980   -1.8260   -0.6770 H   0  0  0  0  0  0  0  0  0  0  0  0
   -3.3000   -1.3020   -2.2500 H   0  0  0  0  0  0  0  0  0  0  0  0
  1 10  1  0  0  0  0
  1  9  1  0  0  0  0
  2 11  1  1  0  0  0
  2  1  1  0  0  0  0
  3  2  1  0  0  0  0
  3 13  1  0  0  0  0
  4  3  1  0  0  0  0
  5  4  2  0  0  0  0
  6  2  1  0  0  0  0
  7  6  2  0  0  0  0
  8  4  1  0  0  0  0
 12  3  1  0  0  0  0
 14  8  1  0  0  0  0
 15 23  1  0  0  0  0
 15  6  1  0  0  0  0
 16 24  1  1  0  0  0
 16 17  1  0  0  0  0
 16 15  1  0  0  0  0
 17 26  1  0  0  0  0
 18 22  1  0  0  0  0
 18 17  1  0  0  0  0
 19 18  2  0  0  0  0
 20 16  1  0  0  0  0
 21 20  2  0  0  0  0
 25 17  1  0  0  0  0
 27 22  1  0  0  0  0
 28 20  1  0  0  0  0
 28 40  1  0  0  0  0
 29 41  1  6  0  0  0
 29 28  1  0  0  0  0
 30 43  1  0  0  0  0
 30 29  1  0  0  0  0
 30 31  1  0  0  0  0
 31 32  1  0  0  0  0
 32 44  1  0  0  0  0
 32 33  2  0  0  0  0
 33 45  1  0  0  0  0
 34 33  1  0  0  0  0
 34 46  1  0  0  0  0
 35 34  2  0  0  0  0
 36 31  2  0  0  0  0
 36 35  1  0  0  0  0
 37 29  1  0  0  0  0
 37 38  1  0  0  0  0
 39 37  2  0  0  0  0
 42 30  1  0  0  0  0
 47 35  1  0  0  0  0
 48 36  1  0  0  0  0
M  END
$$$$
