DDM.pdb
 OpenBabel07022418133D

 45 44  0  0  1  0  0  0  0  0999 V2000
    2.2860   -4.2710    2.3330 N   0  0  0  0  0  0  0  0  0  0  0  0
    1.2340   -3.8440    1.4350 C   0  0  1  0  0  0  0  0  0  0  0  0
   -0.0710   -3.6260    2.1670 C   0  0  0  0  0  0  0  0  0  0  0  0
   -0.5350   -4.8690    2.8310 C   0  0  0  0  0  0  0  0  0  0  0  0
    0.1730   -5.9040    2.7170 O   0  0  0  0  0  0  0  0  0  0  0  0
    1.6850   -2.6130    0.7380 C   0  0  0  0  0  0  0  0  0  0  0  0
    2.8310   -2.1060    0.9770 O   0  0  0  0  0  0  0  0  0  0  0  0
   -1.6890   -4.9590    3.5610 O   0  0  0  0  0  0  0  0  0  0  0  0
    2.4280   -5.3080    2.3260 H   0  0  0  0  0  0  0  0  0  0  0  0
    3.2090   -3.8390    2.0990 H   0  0  0  0  0  0  0  0  0  0  0  0
    1.0660   -4.6910    0.7230 H   0  0  0  0  0  0  0  0  0  0  0  0
    0.1130   -2.8670    2.9540 H   0  0  0  0  0  0  0  0  0  0  0  0
   -0.8690   -3.2580    1.5290 H   0  0  0  0  0  0  0  0  0  0  0  0
   -1.7110   -5.4800    4.4480 H   0  0  0  0  0  0  0  0  0  0  0  0
    0.9020   -1.9170   -0.2240 N   0  0  0  0  0  0  0  0  0  0  0  0
    1.3830   -0.7210   -0.8780 C   0  0  1  0  0  0  0  0  0  0  0  0
    1.4610   -0.8630   -2.3660 C   0  0  0  0  0  0  0  0  0  0  0  0
    0.1950   -1.1580   -3.0200 C   0  0  0  0  0  0  0  0  0  0  0  0
    0.1420   -1.3050   -4.2600 O   0  0  0  0  0  0  0  0  0  0  0  0
    0.5090    0.4360   -0.4690 C   0  0  0  0  0  0  0  0  0  0  0  0
    0.7460    1.5730   -0.9180 O   0  0  0  0  0  0  0  0  0  0  0  0
   -0.9710   -1.2820   -2.2930 O   0  0  0  0  0  0  0  0  0  0  0  0
   -0.0370   -2.3230   -0.4280 H   0  0  0  0  0  0  0  0  0  0  0  0
    2.3930   -0.4820   -0.4880 H   0  0  0  0  0  0  0  0  0  0  0  0
    2.2480   -1.6450   -2.5580 H   0  0  0  0  0  0  0  0  0  0  0  0
    1.8820    0.0680   -2.8020 H   0  0  0  0  0  0  0  0  0  0  0  0
   -1.7160   -1.9140   -2.5610 H   0  0  0  0  0  0  0  0  0  0  0  0
    2.3470    4.6680    2.4900 C   0  0  0  0  0  0  0  0  0  0  0  0
    0.8480    4.5150    1.4630 S   0  0  0  0  0  0  0  0  0  0  0  0
    0.2210    2.8020    1.6370 C   0  0  0  0  0  0  0  0  0  0  0  0
   -1.0130    2.6220    0.8130 C   0  0  0  0  0  0  0  0  0  0  0  0
   -1.4870    1.1570    0.9400 C   0  0  2  0  0  0  0  0  0  0  0  0
   -0.5650    0.2150    0.4170 N   0  0  0  0  0  0  0  0  0  0  0  0
   -2.8900    0.9810    0.6240 C   0  0  0  0  0  0  0  0  0  0  0  0
   -3.2690    0.0250   -0.0880 O   0  0  0  0  0  0  0  0  0  0  0  0
   -3.8340    1.8650    1.1030 O   0  0  0  0  0  0  0  0  0  0  0  0
    2.7310    3.6560    2.7300 H   0  0  0  0  0  0  0  0  0  0  0  0
    2.1340    5.1990    3.4220 H   0  0  0  0  0  0  0  0  0  0  0  0
    3.1500    5.2120    1.9150 H   0  0  0  0  0  0  0  0  0  0  0  0
   -0.1180    2.7090    2.7390 H   0  0  0  0  0  0  0  0  0  0  0  0
    0.9940    2.0480    1.5580 H   0  0  0  0  0  0  0  0  0  0  0  0
   -1.8620    3.1900    1.3050 H   0  0  0  0  0  0  0  0  0  0  0  0
   -0.9610    2.9580   -0.2180 H   0  0  0  0  0  0  0  0  0  0  0  0
   -1.3970    1.0290    2.1020 H   0  0  0  0  0  0  0  0  0  0  0  0
   -0.7130   -0.7910    0.7430 H   0  0  0  0  0  0  0  0  0  0  0  0
  2 11  1  6  0  0  0
  2  3  1  0  0  0  0
  2  1  1  0  0  0  0
  3  4  1  0  0  0  0
  3 12  1  0  0  0  0
  4  8  1  0  0  0  0
  5  4  2  0  0  0  0
  6  7  2  0  0  0  0
  6  2  1  0  0  0  0
  8 14  1  0  0  0  0
  9  1  1  0  0  0  0
 10  1  1  0  0  0  0
 13  3  1  0  0  0  0
 15  6  1  0  0  0  0
 16 24  1  1  0  0  0
 16 20  1  0  0  0  0
 16 15  1  0  0  0  0
 17 16  1  0  0  0  0
 18 17  1  0  0  0  0
 18 22  1  0  0  0  0
 19 18  2  0  0  0  0
 20 33  1  0  0  0  0
 21 20  2  0  0  0  0
 23 15  1  0  0  0  0
 25 17  1  0  0  0  0
 26 17  1  0  0  0  0
 27 22  1  0  0  0  0
 28 37  1  0  0  0  0
 28 38  1  0  0  0  0
 29 30  1  0  0  0  0
 29 28  1  0  0  0  0
 30 40  1  0  0  0  0
 31 32  1  0  0  0  0
 31 42  1  0  0  0  0
 31 30  1  0  0  0  0
 32 44  1  1  0  0  0
 33 45  1  0  0  0  0
 33 32  1  0  0  0  0
 34 32  1  0  0  0  0
 34 36  1  0  0  0  0
 35 34  2  0  0  0  0
 39 28  1  0  0  0  0
 41 30  1  0  0  0  0
 43 31  1  0  0  0  0
M  END
$$$$
