DDP.pdb
 OpenBabel07022418133D

 42 42  0  0  1  0  0  0  0  0999 V2000
   -0.0590   -3.7110    1.2470 N   0  0  0  0  0  0  0  0  0  0  0  0
    1.1760   -3.2630    1.9130 C   0  0  1  0  0  0  0  0  0  0  0  0
    2.2100   -4.3550    1.8320 C   0  0  0  0  0  0  0  0  0  0  0  0
    3.4500   -3.9130    2.4980 C   0  0  0  0  0  0  0  0  0  0  0  0
    4.3770   -3.3150    1.8700 O   0  0  0  0  0  0  0  0  0  0  0  0
    1.6340   -1.9800    1.3720 C   0  0  0  0  0  0  0  0  0  0  0  0
    2.6410   -1.3790    1.8230 O   0  0  0  0  0  0  0  0  0  0  0  0
    3.5830   -4.1780    3.8730 O   0  0  0  0  0  0  0  0  0  0  0  0
   -0.1360   -4.7340    1.4740 H   0  0  0  0  0  0  0  0  0  0  0  0
   -0.8560   -3.2450    1.7460 H   0  0  0  0  0  0  0  0  0  0  0  0
    0.8970   -3.1920    3.0040 H   0  0  0  0  0  0  0  0  0  0  0  0
    2.3830   -4.6790    0.7840 H   0  0  0  0  0  0  0  0  0  0  0  0
    1.8100   -5.2340    2.3930 H   0  0  0  0  0  0  0  0  0  0  0  0
    4.1840   -3.5310    4.4040 H   0  0  0  0  0  0  0  0  0  0  0  0
    0.9070   -1.3700    0.2780 N   0  0  0  0  0  0  0  0  0  0  0  0
    1.3700   -0.0970   -0.2490 C   0  0  1  0  0  0  0  0  0  0  0  0
    1.7440   -0.2960   -1.6970 C   0  0  0  0  0  0  0  0  0  0  0  0
    2.2170    0.9510   -2.2800 C   0  0  0  0  0  0  0  0  0  0  0  0
    1.5140    1.7610   -2.9650 O   0  0  0  0  0  0  0  0  0  0  0  0
    0.4430    1.0170   -0.1030 C   0  0  0  0  0  0  0  0  0  0  0  0
    0.8620    2.1510   -0.5240 O   0  0  0  0  0  0  0  0  0  0  0  0
    3.5550    1.3190   -2.0910 O   0  0  0  0  0  0  0  0  0  0  0  0
    0.0900   -1.8980   -0.0810 H   0  0  0  0  0  0  0  0  0  0  0  0
    2.3430    0.1790    0.2740 H   0  0  0  0  0  0  0  0  0  0  0  0
    2.5200   -1.0860   -1.8140 H   0  0  0  0  0  0  0  0  0  0  0  0
    0.8520   -0.6310   -2.2710 H   0  0  0  0  0  0  0  0  0  0  0  0
    4.0430    1.8890   -2.7900 H   0  0  0  0  0  0  0  0  0  0  0  0
   -0.8530    0.9930    0.4430 N   0  0  0  0  0  0  0  0  0  0  0  0
   -1.5140   -0.1720    0.9830 C   0  0  0  0  0  0  0  0  0  0  0  0
   -2.6960    0.3860    1.7830 C   0  0  0  0  0  0  0  0  0  0  0  0
   -3.0930    1.5490    0.9000 C   0  0  0  0  0  0  0  0  0  0  0  0
   -1.7610    2.1380    0.5560 C   0  0  1  0  0  0  0  0  0  0  0  0
   -1.3520    3.0430    1.6430 C   0  0  0  0  0  0  0  0  0  0  0  0
   -0.3510    2.7830    2.3290 O   0  0  0  0  0  0  0  0  0  0  0  0
   -2.0750    4.1940    1.9150 O   0  0  0  0  0  0  0  0  0  0  0  0
   -1.9470   -0.7420    0.1350 H   0  0  0  0  0  0  0  0  0  0  0  0
   -0.9330   -0.7480    1.7000 H   0  0  0  0  0  0  0  0  0  0  0  0
   -3.4500   -0.4130    1.8190 H   0  0  0  0  0  0  0  0  0  0  0  0
   -2.4190    0.6850    2.7920 H   0  0  0  0  0  0  0  0  0  0  0  0
   -3.6630    1.1850    0.0250 H   0  0  0  0  0  0  0  0  0  0  0  0
   -3.7390    2.2130    1.5000 H   0  0  0  0  0  0  0  0  0  0  0  0
   -1.8440    2.6970   -0.3770 H   0  0  0  0  0  0  0  0  0  0  0  0
  1  9  1  0  0  0  0
  1 10  1  0  0  0  0
  1  2  1  0  0  0  0
  2 11  1  1  0  0  0
  3  2  1  0  0  0  0
  3 13  1  0  0  0  0
  3  4  1  0  0  0  0
  4  8  1  0  0  0  0
  5  4  2  0  0  0  0
  6  7  2  0  0  0  0
  6  2  1  0  0  0  0
  8 14  1  0  0  0  0
 12  3  1  0  0  0  0
 15  6  1  0  0  0  0
 16 20  1  0  0  0  0
 16 24  1  1  0  0  0
 16 15  1  0  0  0  0
 17 16  1  0  0  0  0
 18 22  1  0  0  0  0
 18 17  1  0  0  0  0
 19 18  2  0  0  0  0
 20 28  1  0  0  0  0
 21 20  2  0  0  0  0
 23 15  1  0  0  0  0
 25 17  1  0  0  0  0
 26 17  1  0  0  0  0
 27 22  1  0  0  0  0
 28 32  1  0  0  0  0
 28 29  1  0  0  0  0
 29 37  1  0  0  0  0
 29 30  1  0  0  0  0
 30 38  1  0  0  0  0
 30 39  1  0  0  0  0
 31 41  1  0  0  0  0
 31 30  1  0  0  0  0
 32 42  1  6  0  0  0
 32 31  1  0  0  0  0
 32 33  1  0  0  0  0
 33 35  2  0  0  0  0
 33 34  1  0  0  0  0
 36 29  1  0  0  0  0
 40 31  1  0  0  0  0
M  END
$$$$
