DDQ.pdb
 OpenBabel07022418133D

 45 44  0  0  1  0  0  0  0  0999 V2000
    4.3000    2.2770    2.1270 N   0  0  0  0  0  0  0  0  0  0  0  0
    3.6990    0.9990    1.8100 C   0  0  1  0  0  0  0  0  0  0  0  0
    2.6870    0.6120    2.8630 C   0  0  0  0  0  0  0  0  0  0  0  0
    1.6010    1.6190    2.9590 C   0  0  0  0  0  0  0  0  0  0  0  0
    1.6540    2.6180    2.1920 O   0  0  0  0  0  0  0  0  0  0  0  0
    3.0610    1.0110    0.4690 C   0  0  0  0  0  0  0  0  0  0  0  0
    3.1050    2.0470   -0.2380 O   0  0  0  0  0  0  0  0  0  0  0  0
    0.5570    1.4810    3.8560 O   0  0  0  0  0  0  0  0  0  0  0  0
    4.9040    2.5200    1.2890 H   0  0  0  0  0  0  0  0  0  0  0  0
    4.9550    2.1410    2.9210 H   0  0  0  0  0  0  0  0  0  0  0  0
    4.5210    0.2450    1.8730 H   0  0  0  0  0  0  0  0  0  0  0  0
    2.3100   -0.4140    2.6810 H   0  0  0  0  0  0  0  0  0  0  0  0
    3.2480    0.5550    3.8310 H   0  0  0  0  0  0  0  0  0  0  0  0
    0.1820    2.3290    4.3070 H   0  0  0  0  0  0  0  0  0  0  0  0
    2.3850   -0.1120   -0.0750 N   0  0  0  0  0  0  0  0  0  0  0  0
    1.7560   -0.1320   -1.3750 C   0  0  1  0  0  0  0  0  0  0  0  0
    2.2840   -1.1690   -2.3020 C   0  0  0  0  0  0  0  0  0  0  0  0
    2.1010   -2.5320   -1.7590 C   0  0  0  0  0  0  0  0  0  0  0  0
    1.5510   -2.8030   -0.6670 O   0  0  0  0  0  0  0  0  0  0  0  0
    0.2680   -0.2490   -1.1880 C   0  0  0  0  0  0  0  0  0  0  0  0
   -0.5130   -0.2890   -2.1730 O   0  0  0  0  0  0  0  0  0  0  0  0
    2.5770   -3.5920   -2.5240 O   0  0  0  0  0  0  0  0  0  0  0  0
    2.3410   -0.9750    0.5000 H   0  0  0  0  0  0  0  0  0  0  0  0
    1.8950    0.8630   -1.8710 H   0  0  0  0  0  0  0  0  0  0  0  0
    3.3940   -1.0040   -2.3800 H   0  0  0  0  0  0  0  0  0  0  0  0
    1.8060   -1.0540   -3.2900 H   0  0  0  0  0  0  0  0  0  0  0  0
    2.6920   -4.5000   -2.0690 H   0  0  0  0  0  0  0  0  0  0  0  0
   -5.2530   -3.5420    2.0420 N   0  0  0  0  0  0  0  0  0  0  0  0
   -3.8740   -3.2740    1.7670 C   0  0  0  0  0  0  0  0  0  0  0  0
   -2.9550   -4.0760    1.9890 O   0  0  0  0  0  0  0  0  0  0  0  0
   -3.5910   -1.9210    1.1740 C   0  0  0  0  0  0  0  0  0  0  0  0
   -2.1190   -1.7430    0.9270 C   0  0  0  0  0  0  0  0  0  0  0  0
   -1.7700   -0.4340    0.3160 C   0  0  2  0  0  0  0  0  0  0  0  0
   -0.3170   -0.3190    0.0980 N   0  0  0  0  0  0  0  0  0  0  0  0
   -2.3010    0.7490    0.9780 C   0  0  0  0  0  0  0  0  0  0  0  0
   -1.4870    1.6720    1.3220 O   0  0  0  0  0  0  0  0  0  0  0  0
   -3.6250    0.9720    1.2720 O   0  0  0  0  0  0  0  0  0  0  0  0
   -5.7200   -3.2050    2.9130 H   0  0  0  0  0  0  0  0  0  0  0  0
   -5.8410   -4.0860    1.3750 H   0  0  0  0  0  0  0  0  0  0  0  0
   -3.9530   -1.1660    1.9360 H   0  0  0  0  0  0  0  0  0  0  0  0
   -4.2210   -1.8300    0.2840 H   0  0  0  0  0  0  0  0  0  0  0  0
   -1.8230   -2.5720    0.2260 H   0  0  0  0  0  0  0  0  0  0  0  0
   -1.6170   -1.9060    1.9220 H   0  0  0  0  0  0  0  0  0  0  0  0
   -2.2050   -0.4460   -0.7270 H   0  0  0  0  0  0  0  0  0  0  0  0
    0.3040   -0.2890    0.9370 H   0  0  0  0  0  0  0  0  0  0  0  0
  1 10  1  0  0  0  0
  2 11  1  6  0  0  0
  2  1  1  0  0  0  0
  2  3  1  0  0  0  0
  3  4  1  0  0  0  0
  3 13  1  0  0  0  0
  4  8  1  0  0  0  0
  5  4  2  0  0  0  0
  6  2  1  0  0  0  0
  7  6  2  0  0  0  0
  8 14  1  0  0  0  0
  9  1  1  0  0  0  0
 12  3  1  0  0  0  0
 15  6  1  0  0  0  0
 15 23  1  0  0  0  0
 16 24  1  6  0  0  0
 16 20  1  0  0  0  0
 16 15  1  0  0  0  0
 17 18  1  0  0  0  0
 17 16  1  0  0  0  0
 18 19  2  0  0  0  0
 20 34  1  0  0  0  0
 21 20  2  0  0  0  0
 22 27  1  0  0  0  0
 22 18  1  0  0  0  0
 25 17  1  0  0  0  0
 26 17  1  0  0  0  0
 28 38  1  0  0  0  0
 29 30  2  0  0  0  0
 29 28  1  0  0  0  0
 31 29  1  0  0  0  0
 31 40  1  0  0  0  0
 32 31  1  0  0  0  0
 32 43  1  0  0  0  0
 33 44  1  6  0  0  0
 33 32  1  0  0  0  0
 33 35  1  0  0  0  0
 34 33  1  0  0  0  0
 34 45  1  0  0  0  0
 35 37  2  0  0  0  0
 35 36  1  0  0  0  0
 39 28  1  0  0  0  0
 41 31  1  0  0  0  0
 42 32  1  0  0  0  0
M  END
$$$$
