DDR.pdb
 OpenBabel07022418133D

 51 50  0  0  1  0  0  0  0  0999 V2000
    5.1300    0.0070    2.2060 N   0  0  0  0  0  0  0  0  0  0  0  0
    4.5550   -1.2100    1.7010 C   0  0  1  0  0  0  0  0  0  0  0  0
    4.0170   -2.0830    2.8140 C   0  0  0  0  0  0  0  0  0  0  0  0
    2.9630   -1.4030    3.5970 C   0  0  0  0  0  0  0  0  0  0  0  0
    2.5430   -0.2440    3.3880 O   0  0  0  0  0  0  0  0  0  0  0  0
    3.4680   -0.9190    0.6950 C   0  0  0  0  0  0  0  0  0  0  0  0
    2.8520   -1.8430    0.1370 O   0  0  0  0  0  0  0  0  0  0  0  0
    2.3870   -2.0990    4.6510 O   0  0  0  0  0  0  0  0  0  0  0  0
    6.0480    0.1950    1.7480 H   0  0  0  0  0  0  0  0  0  0  0  0
    5.3610   -0.1540    3.2270 H   0  0  0  0  0  0  0  0  0  0  0  0
    5.3420   -1.7800    1.1850 H   0  0  0  0  0  0  0  0  0  0  0  0
    3.6340   -3.0290    2.4310 H   0  0  0  0  0  0  0  0  0  0  0  0
    4.8500   -2.3050    3.5110 H   0  0  0  0  0  0  0  0  0  0  0  0
    1.5670   -1.7980    5.1410 H   0  0  0  0  0  0  0  0  0  0  0  0
    3.1260    0.4180    0.3670 N   0  0  0  0  0  0  0  0  0  0  0  0
    2.1170    0.7760   -0.5560 C   0  0  1  0  0  0  0  0  0  0  0  0
    2.4620    0.6680   -1.9960 C   0  0  0  0  0  0  0  0  0  0  0  0
    3.6090    1.5500   -2.2820 C   0  0  0  0  0  0  0  0  0  0  0  0
    4.1040    1.6450   -3.4370 O   0  0  0  0  0  0  0  0  0  0  0  0
    0.8220    0.1310   -0.1950 C   0  0  0  0  0  0  0  0  0  0  0  0
    0.7830   -0.5390    0.8600 O   0  0  0  0  0  0  0  0  0  0  0  0
    4.2030    2.3240   -1.2920 O   0  0  0  0  0  0  0  0  0  0  0  0
    3.6790    1.1540    0.8590 H   0  0  0  0  0  0  0  0  0  0  0  0
    1.8880    1.8830   -0.3670 H   0  0  0  0  0  0  0  0  0  0  0  0
    1.5870    1.0950   -2.5720 H   0  0  0  0  0  0  0  0  0  0  0  0
    2.5850   -0.3540   -2.3710 H   0  0  0  0  0  0  0  0  0  0  0  0
    5.0050    2.9050   -1.4500 H   0  0  0  0  0  0  0  0  0  0  0  0
   -6.3820   -3.2740    2.3610 N   0  0  0  0  0  0  0  0  0  0  0  0
   -5.6580   -2.3460    1.5640 C   0  0  0  0  0  0  0  0  0  0  0  0
   -5.6350   -2.5450    0.2920 N   0  0  0  0  0  0  0  0  0  0  0  0
   -4.9730   -1.2310    2.0960 N   0  0  0  0  0  0  0  0  0  0  0  0
   -3.7940   -0.6860    1.5080 C   0  0  0  0  0  0  0  0  0  0  0  0
   -3.9670   -0.0240    0.1880 C   0  0  0  0  0  0  0  0  0  0  0  0
   -2.6650    0.5370   -0.2980 C   0  0  0  0  0  0  0  0  0  0  0  0
   -1.5610   -0.4540   -0.4970 C   0  0  2  0  0  0  0  0  0  0  0  0
   -0.3410    0.2360   -0.9680 N   0  0  0  0  0  0  0  0  0  0  0  0
   -1.9010   -1.5240   -1.4840 C   0  0  0  0  0  0  0  0  0  0  0  0
   -1.1910   -1.6830   -2.5110 O   0  0  0  0  0  0  0  0  0  0  0  0
   -2.9780   -2.3710   -1.3280 O   0  0  0  0  0  0  0  0  0  0  0  0
   -6.0640   -3.5560    3.3110 H   0  0  0  0  0  0  0  0  0  0  0  0
   -7.2520   -3.6850    1.9920 H   0  0  0  0  0  0  0  0  0  0  0  0
   -6.0960   -3.3210   -0.2040 H   0  0  0  0  0  0  0  0  0  0  0  0
   -5.3630   -0.8010    2.9590 H   0  0  0  0  0  0  0  0  0  0  0  0
   -3.0040   -1.4880    1.4230 H   0  0  0  0  0  0  0  0  0  0  0  0
   -3.3280    0.0670    2.1920 H   0  0  0  0  0  0  0  0  0  0  0  0
   -4.3910   -0.6780   -0.5980 H   0  0  0  0  0  0  0  0  0  0  0  0
   -4.6840    0.8370    0.2620 H   0  0  0  0  0  0  0  0  0  0  0  0
   -2.3030    1.3290    0.4190 H   0  0  0  0  0  0  0  0  0  0  0  0
   -2.8590    1.0160   -1.2860 H   0  0  0  0  0  0  0  0  0  0  0  0
   -1.3460   -0.9560    0.4500 H   0  0  0  0  0  0  0  0  0  0  0  0
   -0.3490    0.7730   -1.8350 H   0  0  0  0  0  0  0  0  0  0  0  0
  1 10  1  0  0  0  0
  2 11  1  6  0  0  0
  2  1  1  0  0  0  0
  2  3  1  0  0  0  0
  3 13  1  0  0  0  0
  3  4  1  0  0  0  0
  4  8  1  0  0  0  0
  5  4  2  0  0  0  0
  6  2  1  0  0  0  0
  7  6  2  0  0  0  0
  8 14  1  0  0  0  0
  9  1  1  0  0  0  0
 12  3  1  0  0  0  0
 15  6  1  0  0  0  0
 15 23  1  0  0  0  0
 16 24  1  1  0  0  0
 16 20  1  0  0  0  0
 16 15  1  0  0  0  0
 17 16  1  0  0  0  0
 18 17  1  0  0  0  0
 18 22  1  0  0  0  0
 19 18  2  0  0  0  0
 20 21  2  0  0  0  0
 25 17  1  0  0  0  0
 26 17  1  0  0  0  0
 27 22  1  0  0  0  0
 28 40  1  0  0  0  0
 29 31  1  0  0  0  0
 29 28  1  0  0  0  0
 30 29  2  0  0  0  0
 31 43  1  0  0  0  0
 32 31  1  0  0  0  0
 32 45  1  0  0  0  0
 33 47  1  0  0  0  0
 33 32  1  0  0  0  0
 34 33  1  0  0  0  0
 34 48  1  0  0  0  0
 35 34  1  0  0  0  0
 35 50  1  1  0  0  0
 36 35  1  0  0  0  0
 36 20  1  0  0  0  0
 37 39  1  0  0  0  0
 37 35  1  0  0  0  0
 38 37  2  0  0  0  0
 41 28  1  0  0  0  0
 42 30  1  0  0  0  0
 44 32  1  0  0  0  0
 46 33  1  0  0  0  0
 49 34  1  0  0  0  0
 51 36  1  0  0  0  0
M  END
$$$$
