DDS.pdb
 OpenBabel07022418133D

 39 38  0  0  1  0  0  0  0  0999 V2000
    1.8630   -2.8640    2.1160 N   0  0  0  0  0  0  0  0  0  0  0  0
    2.7550   -2.0770    1.2840 C   0  0  1  0  0  0  0  0  0  0  0  0
    3.5260   -3.0660    0.4380 C   0  0  0  0  0  0  0  0  0  0  0  0
    4.4930   -2.4540   -0.4790 C   0  0  0  0  0  0  0  0  0  0  0  0
    4.1890   -2.0710   -1.6350 O   0  0  0  0  0  0  0  0  0  0  0  0
    2.0060   -1.1820    0.3720 C   0  0  0  0  0  0  0  0  0  0  0  0
    2.6530   -0.3970   -0.3650 O   0  0  0  0  0  0  0  0  0  0  0  0
    5.8400   -2.2530   -0.1220 O   0  0  0  0  0  0  0  0  0  0  0  0
    1.3200   -2.2700    2.7810 H   0  0  0  0  0  0  0  0  0  0  0  0
    1.2860   -3.5290    1.5780 H   0  0  0  0  0  0  0  0  0  0  0  0
    3.4730   -1.5540    1.9260 H   0  0  0  0  0  0  0  0  0  0  0  0
    2.7700   -3.5960   -0.1870 H   0  0  0  0  0  0  0  0  0  0  0  0
    4.0380   -3.7650    1.1340 H   0  0  0  0  0  0  0  0  0  0  0  0
    6.3080   -1.4370   -0.4980 H   0  0  0  0  0  0  0  0  0  0  0  0
    0.6020   -1.1460    0.2690 N   0  0  0  0  0  0  0  0  0  0  0  0
   -0.1130   -0.2490   -0.6430 C   0  0  1  0  0  0  0  0  0  0  0  0
   -0.8130   -1.1430   -1.6270 C   0  0  0  0  0  0  0  0  0  0  0  0
   -1.5580   -0.3210   -2.5850 C   0  0  0  0  0  0  0  0  0  0  0  0
   -2.7350    0.0590   -2.3580 O   0  0  0  0  0  0  0  0  0  0  0  0
   -0.9950    0.6720    0.0900 C   0  0  0  0  0  0  0  0  0  0  0  0
   -1.6950    1.5440   -0.4820 O   0  0  0  0  0  0  0  0  0  0  0  0
   -0.9230    0.0400   -3.7840 O   0  0  0  0  0  0  0  0  0  0  0  0
    0.0460   -1.7870    0.8680 H   0  0  0  0  0  0  0  0  0  0  0  0
    0.6080    0.3760   -1.2200 H   0  0  0  0  0  0  0  0  0  0  0  0
   -0.0040   -1.6940   -2.1760 H   0  0  0  0  0  0  0  0  0  0  0  0
   -1.4450   -1.9050   -1.1230 H   0  0  0  0  0  0  0  0  0  0  0  0
   -1.3720    0.7560   -4.3450 H   0  0  0  0  0  0  0  0  0  0  0  0
   -3.8970    1.6590    3.6640 O   0  0  0  0  0  0  0  0  0  0  0  0
   -3.0910    0.7860    2.9760 C   0  0  0  0  0  0  0  0  0  0  0  0
   -1.9780    1.5300    2.2510 C   0  0  2  0  0  0  0  0  0  0  0  0
   -1.1220    0.6390    1.5250 N   0  0  0  0  0  0  0  0  0  0  0  0
   -1.2530    2.3970    3.2000 C   0  0  0  0  0  0  0  0  0  0  0  0
   -1.8870    3.2250    3.9030 O   0  0  0  0  0  0  0  0  0  0  0  0
    0.1280    2.3680    3.3820 O   0  0  0  0  0  0  0  0  0  0  0  0
   -4.1310    1.2610    4.5400 H   0  0  0  0  0  0  0  0  0  0  0  0
   -2.6290    0.0690    3.6920 H   0  0  0  0  0  0  0  0  0  0  0  0
   -3.7100    0.1970    2.2810 H   0  0  0  0  0  0  0  0  0  0  0  0
   -2.4890    2.2060    1.5190 H   0  0  0  0  0  0  0  0  0  0  0  0
   -0.5420   -0.0850    2.0070 H   0  0  0  0  0  0  0  0  0  0  0  0
  1  9  1  0  0  0  0
  2 11  1  1  0  0  0
  2  1  1  0  0  0  0
  3 13  1  0  0  0  0
  3  2  1  0  0  0  0
  4  8  1  0  0  0  0
  4  3  1  0  0  0  0
  5  4  2  0  0  0  0
  6  2  1  0  0  0  0
  7  6  2  0  0  0  0
 10  1  1  0  0  0  0
 12  3  1  0  0  0  0
 14  8  1  0  0  0  0
 15  6  1  0  0  0  0
 15 23  1  0  0  0  0
 16 24  1  6  0  0  0
 16 20  1  0  0  0  0
 16 15  1  0  0  0  0
 17 26  1  0  0  0  0
 17 16  1  0  0  0  0
 18 19  2  0  0  0  0
 18 17  1  0  0  0  0
 20 31  1  0  0  0  0
 21 20  2  0  0  0  0
 22 18  1  0  0  0  0
 25 17  1  0  0  0  0
 27 22  1  0  0  0  0
 28 35  1  0  0  0  0
 29 28  1  0  0  0  0
 29 36  1  0  0  0  0
 30 38  1  6  0  0  0
 30 29  1  0  0  0  0
 30 32  1  0  0  0  0
 31 39  1  0  0  0  0
 31 30  1  0  0  0  0
 32 34  2  0  0  0  0
 32 33  1  0  0  0  0
 37 29  1  0  0  0  0
M  END
$$$$
