DDT.pdb
 OpenBabel07022418133D

 42 41  0  0  1  0  0  0  0  0999 V2000
    2.5970   -2.0800    1.4620 N   0  0  0  0  0  0  0  0  0  0  0  0
    2.6760   -1.0200    2.4820 C   0  0  1  0  0  0  0  0  0  0  0  0
    4.1080   -0.6160    2.5450 C   0  0  0  0  0  0  0  0  0  0  0  0
    4.4420    0.4340    3.5020 C   0  0  0  0  0  0  0  0  0  0  0  0
    5.6440    0.8080    3.5590 O   0  0  0  0  0  0  0  0  0  0  0  0
    1.7730    0.0580    2.0110 C   0  0  0  0  0  0  0  0  0  0  0  0
    1.5840    1.1340    2.6470 O   0  0  0  0  0  0  0  0  0  0  0  0
    3.5640    1.0720    4.3670 O   0  0  0  0  0  0  0  0  0  0  0  0
    1.7400   -2.6490    1.6200 H   0  0  0  0  0  0  0  0  0  0  0  0
    3.4120   -2.7340    1.5550 H   0  0  0  0  0  0  0  0  0  0  0  0
    2.3820   -1.4150    3.4690 H   0  0  0  0  0  0  0  0  0  0  0  0
    4.5260   -0.3530    1.5380 H   0  0  0  0  0  0  0  0  0  0  0  0
    4.6860   -1.5340    2.8460 H   0  0  0  0  0  0  0  0  0  0  0  0
    3.7510    2.0520    4.5570 H   0  0  0  0  0  0  0  0  0  0  0  0
    1.0300   -0.0310    0.7760 N   0  0  0  0  0  0  0  0  0  0  0  0
    0.1550    1.0030    0.3090 C   0  0  1  0  0  0  0  0  0  0  0  0
    0.5250    1.5480   -1.0430 C   0  0  0  0  0  0  0  0  0  0  0  0
    1.8800    2.1420   -1.0780 C   0  0  0  0  0  0  0  0  0  0  0  0
    2.2610    2.6220   -2.1770 O   0  0  0  0  0  0  0  0  0  0  0  0
   -1.2250    0.4500    0.1920 C   0  0  0  0  0  0  0  0  0  0  0  0
   -2.2030    1.1370   -0.2010 O   0  0  0  0  0  0  0  0  0  0  0  0
    2.7430    2.2080   -0.0160 O   0  0  0  0  0  0  0  0  0  0  0  0
    1.1630   -0.9050    0.2270 H   0  0  0  0  0  0  0  0  0  0  0  0
    0.1450    1.8570    1.0160 H   0  0  0  0  0  0  0  0  0  0  0  0
    0.3880    0.8160   -1.8630 H   0  0  0  0  0  0  0  0  0  0  0  0
   -0.1880    2.3850   -1.2550 H   0  0  0  0  0  0  0  0  0  0  0  0
    3.5160    2.8750   -0.0260 H   0  0  0  0  0  0  0  0  0  0  0  0
   -2.3750   -2.2160   -1.9140 C   0  0  0  0  0  0  0  0  0  0  0  0
   -2.8080   -2.6300   -0.5180 C   0  0  1  0  0  0  0  0  0  0  0  0
   -1.9550   -3.5720    0.0260 O   0  0  0  0  0  0  0  0  0  0  0  0
   -2.8240   -1.4380    0.4150 C   0  0  2  0  0  0  0  0  0  0  0  0
   -1.4900   -0.9050    0.5290 N   0  0  0  0  0  0  0  0  0  0  0  0
   -3.3510   -1.9090    1.7200 C   0  0  0  0  0  0  0  0  0  0  0  0
   -4.5120   -2.3940    1.7320 O   0  0  0  0  0  0  0  0  0  0  0  0
   -2.6600   -1.8520    2.9090 O   0  0  0  0  0  0  0  0  0  0  0  0
   -1.2710   -2.1800   -2.0130 H   0  0  0  0  0  0  0  0  0  0  0  0
   -2.7140   -2.9830   -2.6570 H   0  0  0  0  0  0  0  0  0  0  0  0
   -2.8360   -1.2600   -2.2060 H   0  0  0  0  0  0  0  0  0  0  0  0
   -3.7990   -3.0960   -0.6190 H   0  0  0  0  0  0  0  0  0  0  0  0
   -1.0130   -3.4090   -0.1870 H   0  0  0  0  0  0  0  0  0  0  0  0
   -3.5520   -0.6810    0.0430 H   0  0  0  0  0  0  0  0  0  0  0  0
   -0.7490   -1.5570    0.8650 H   0  0  0  0  0  0  0  0  0  0  0  0
  1 10  1  0  0  0  0
  1  9  1  0  0  0  0
  1  2  1  0  0  0  0
  2  3  1  0  0  0  0
  2 11  1  1  0  0  0
  3 13  1  0  0  0  0
  3  4  1  0  0  0  0
  4  5  2  0  0  0  0
  4  8  1  0  0  0  0
  6  2  1  0  0  0  0
  6  7  2  0  0  0  0
  8 14  1  0  0  0  0
 12  3  1  0  0  0  0
 15  6  1  0  0  0  0
 16 15  1  0  0  0  0
 16 24  1  1  0  0  0
 17 16  1  0  0  0  0
 18 17  1  0  0  0  0
 18 22  1  0  0  0  0
 19 18  2  0  0  0  0
 20 16  1  0  0  0  0
 20 32  1  0  0  0  0
 21 20  2  0  0  0  0
 23 15  1  0  0  0  0
 25 17  1  0  0  0  0
 26 17  1  0  0  0  0
 27 22  1  0  0  0  0
 28 29  1  0  0  0  0
 29 39  1  6  0  0  0
 29 30  1  0  0  0  0
 29 31  1  0  0  0  0
 31 41  1  6  0  0  0
 31 32  1  0  0  0  0
 31 33  1  0  0  0  0
 32 42  1  0  0  0  0
 33 34  2  0  0  0  0
 33 35  1  0  0  0  0
 36 28  1  0  0  0  0
 37 28  1  0  0  0  0
 38 28  1  0  0  0  0
 40 30  1  0  0  0  0
M  END
$$$$
