DDW.pdb
 OpenBabel07022418133D

 52 53  0  0  1  0  0  0  0  0999 V2000
    2.3160   -0.8880    3.7390 N   0  0  0  0  0  0  0  0  0  0  0  0
    2.8590    0.3930    3.3590 C   0  0  1  0  0  0  0  0  0  0  0  0
    4.3500    0.3360    3.6430 C   0  0  0  0  0  0  0  0  0  0  0  0
    4.5150    0.0770    5.0930 C   0  0  0  0  0  0  0  0  0  0  0  0
    4.4110    1.0470    5.8830 O   0  0  0  0  0  0  0  0  0  0  0  0
    2.5660    0.7640    1.9700 C   0  0  0  0  0  0  0  0  0  0  0  0
    2.9740    1.8570    1.5230 O   0  0  0  0  0  0  0  0  0  0  0  0
    4.7760   -1.1740    5.6250 O   0  0  0  0  0  0  0  0  0  0  0  0
    1.2700   -0.8160    3.6610 H   0  0  0  0  0  0  0  0  0  0  0  0
    2.6140   -1.5730    3.0120 H   0  0  0  0  0  0  0  0  0  0  0  0
    2.4370    1.1470    4.0540 H   0  0  0  0  0  0  0  0  0  0  0  0
    4.8500    1.3090    3.4260 H   0  0  0  0  0  0  0  0  0  0  0  0
    4.8420   -0.4590    3.0480 H   0  0  0  0  0  0  0  0  0  0  0  0
    5.2200   -1.3270    6.5260 H   0  0  0  0  0  0  0  0  0  0  0  0
    1.8340   -0.0320    1.0480 N   0  0  0  0  0  0  0  0  0  0  0  0
    1.5480    0.3140   -0.2860 C   0  0  1  0  0  0  0  0  0  0  0  0
    2.0580   -0.5040   -1.3880 C   0  0  0  0  0  0  0  0  0  0  0  0
    1.6480   -1.9220   -1.4240 C   0  0  0  0  0  0  0  0  0  0  0  0
    0.9150   -2.4980   -0.5860 O   0  0  0  0  0  0  0  0  0  0  0  0
    0.1030    0.5850   -0.4590 C   0  0  0  0  0  0  0  0  0  0  0  0
   -0.4280    0.8770   -1.5580 O   0  0  0  0  0  0  0  0  0  0  0  0
    2.0960   -2.7200   -2.4660 O   0  0  0  0  0  0  0  0  0  0  0  0
    1.4850   -0.9530    1.4090 H   0  0  0  0  0  0  0  0  0  0  0  0
    2.0220    1.3500   -0.4360 H   0  0  0  0  0  0  0  0  0  0  0  0
    3.1620   -0.4110   -1.5670 H   0  0  0  0  0  0  0  0  0  0  0  0
    1.6270   -0.0570   -2.3400 H   0  0  0  0  0  0  0  0  0  0  0  0
    2.2190   -3.7160   -2.3180 H   0  0  0  0  0  0  0  0  0  0  0  0
   -0.7560    0.5210    0.6710 N   0  0  0  0  0  0  0  0  0  0  0  0
   -2.1550    0.7830    0.5690 C   0  0  1  0  0  0  0  0  0  0  0  0
   -3.0200   -0.3360    1.0740 C   0  0  0  0  0  0  0  0  0  0  0  0
   -2.7500   -1.5640    0.2930 C   0  0  0  0  0  0  0  0  0  0  0  0
   -2.0430   -2.6900    0.6630 C   0  0  0  0  0  0  0  0  0  0  0  0
   -2.0480   -3.5830   -0.3540 N   0  0  0  0  0  0  0  0  0  0  0  0
   -2.7380   -3.0850   -1.3900 C   0  0  0  0  0  0  0  0  0  0  0  0
   -3.0230   -3.6070   -2.6340 C   0  0  0  0  0  0  0  0  0  0  0  0
   -3.7720   -2.8340   -3.4940 C   0  0  0  0  0  0  0  0  0  0  0  0
   -4.2280   -1.5780   -3.1350 C   0  0  0  0  0  0  0  0  0  0  0  0
   -3.9280   -1.0740   -1.8760 C   0  0  0  0  0  0  0  0  0  0  0  0
   -3.1850   -1.8240   -1.0050 C   0  0  0  0  0  0  0  0  0  0  0  0
   -2.5330    2.0870    1.1910 C   0  0  0  0  0  0  0  0  0  0  0  0
   -1.7390    2.8620    1.7380 O   0  0  0  0  0  0  0  0  0  0  0  0
   -3.8840    2.4360    1.1420 O   0  0  0  0  0  0  0  0  0  0  0  0
   -0.3490    0.2720    1.6220 H   0  0  0  0  0  0  0  0  0  0  0  0
   -2.4060    0.9260   -0.5240 H   0  0  0  0  0  0  0  0  0  0  0  0
   -2.7330   -0.5380    2.1290 H   0  0  0  0  0  0  0  0  0  0  0  0
   -4.0950   -0.0710    1.0420 H   0  0  0  0  0  0  0  0  0  0  0  0
   -1.5550   -2.8440    1.6190 H   0  0  0  0  0  0  0  0  0  0  0  0
   -1.5970   -4.5270   -0.3730 H   0  0  0  0  0  0  0  0  0  0  0  0
   -2.7020   -4.5760   -2.9800 H   0  0  0  0  0  0  0  0  0  0  0  0
   -4.0260   -3.1980   -4.4870 H   0  0  0  0  0  0  0  0  0  0  0  0
   -4.8250   -0.9570   -3.8160 H   0  0  0  0  0  0  0  0  0  0  0  0
   -4.2910   -0.0870   -1.6030 H   0  0  0  0  0  0  0  0  0  0  0  0
  2  3  1  0  0  0  0
  2  1  1  0  0  0  0
  2 11  1  1  0  0  0
  3  4  1  0  0  0  0
  4  8  1  0  0  0  0
  4  5  2  0  0  0  0
  6  2  1  0  0  0  0
  7  6  2  0  0  0  0
  8 14  1  0  0  0  0
  9  1  1  0  0  0  0
 10  1  1  0  0  0  0
 12  3  1  0  0  0  0
 13  3  1  0  0  0  0
 15 23  1  0  0  0  0
 15  6  1  0  0  0  0
 16 24  1  6  0  0  0
 16 15  1  0  0  0  0
 17 16  1  0  0  0  0
 18 17  1  0  0  0  0
 18 19  2  0  0  0  0
 20 16  1  0  0  0  0
 20 28  1  0  0  0  0
 21 20  2  0  0  0  0
 22 27  1  0  0  0  0
 22 18  1  0  0  0  0
 25 17  1  0  0  0  0
 26 17  1  0  0  0  0
 28 43  1  0  0  0  0
 29 44  1  6  0  0  0
 29 28  1  0  0  0  0
 29 30  1  0  0  0  0
 29 40  1  0  0  0  0
 30 45  1  0  0  0  0
 31 32  2  0  0  0  0
 31 30  1  0  0  0  0
 32 47  1  0  0  0  0
 33 32  1  0  0  0  0
 34 39  1  0  0  0  0
 34 33  1  0  0  0  0
 35 34  2  0  0  0  0
 36 37  2  0  0  0  0
 36 35  1  0  0  0  0
 37 38  1  0  0  0  0
 38 52  1  0  0  0  0
 38 39  2  0  0  0  0
 39 31  1  0  0  0  0
 40 41  1  0  0  0  0
 42 40  2  0  0  0  0
 46 30  1  0  0  0  0
 48 33  1  0  0  0  0
 49 35  1  0  0  0  0
 50 36  1  0  0  0  0
 51 37  1  0  0  0  0
M  END
$$$$
