DEA.pdb
 OpenBabel07022418133D

 41 40  0  0  1  0  0  0  0  0999 V2000
    0.3210   -3.6490   -0.7060 N   0  0  0  0  0  0  0  0  0  0  0  0
    1.4170   -3.5380    0.2220 C   0  0  1  0  0  0  0  0  0  0  0  0
    2.6900   -4.1760   -0.2800 C   0  0  0  0  0  0  0  0  0  0  0  0
    3.7100   -3.9580    0.7950 C   0  0  0  0  0  0  0  0  0  0  0  0
    4.6960   -3.2070    0.6570 O   0  0  0  0  0  0  0  0  0  0  0  0
    1.6990   -2.1420    0.6220 C   0  0  0  0  0  0  0  0  0  0  0  0
    2.6070   -1.9030    1.4650 O   0  0  0  0  0  0  0  0  0  0  0  0
    3.4990   -4.6550    1.9980 O   0  0  0  0  0  0  0  0  0  0  0  0
    0.1990   -4.6580   -0.9360 H   0  0  0  0  0  0  0  0  0  0  0  0
   -0.5500   -3.3840   -0.1530 H   0  0  0  0  0  0  0  0  0  0  0  0
    1.1180   -4.1660    1.1070 H   0  0  0  0  0  0  0  0  0  0  0  0
    2.6050   -5.2620   -0.4290 H   0  0  0  0  0  0  0  0  0  0  0  0
    2.9930   -3.6330   -1.2050 H   0  0  0  0  0  0  0  0  0  0  0  0
    3.8150   -4.2430    2.8670 H   0  0  0  0  0  0  0  0  0  0  0  0
    1.0050   -1.0270    0.1150 N   0  0  0  0  0  0  0  0  0  0  0  0
    1.3220    0.3590    0.5560 C   0  0  1  0  0  0  0  0  0  0  0  0
    1.7650    1.1490   -0.6010 C   0  0  0  0  0  0  0  0  0  0  0  0
    2.0840    2.5670   -0.3310 C   0  0  0  0  0  0  0  0  0  0  0  0
    0.9360    3.4240   -0.0030 C   0  0  0  0  0  0  0  0  0  0  0  0
    1.0340    4.4350    0.7570 O   0  0  0  0  0  0  0  0  0  0  0  0
    0.1620    0.8030    1.3040 C   0  0  0  0  0  0  0  0  0  0  0  0
    0.2080    1.8280    2.0380 O   0  0  0  0  0  0  0  0  0  0  0  0
   -0.3330    3.1530   -0.5320 O   0  0  0  0  0  0  0  0  0  0  0  0
    0.2570   -1.1160   -0.5840 H   0  0  0  0  0  0  0  0  0  0  0  0
    2.2130    0.2480    1.2420 H   0  0  0  0  0  0  0  0  0  0  0  0
    0.9160    1.1540   -1.3510 H   0  0  0  0  0  0  0  0  0  0  0  0
    2.6450    0.6760   -1.1250 H   0  0  0  0  0  0  0  0  0  0  0  0
    2.6690    3.0460   -1.1720 H   0  0  0  0  0  0  0  0  0  0  0  0
    2.7860    2.5690    0.5770 H   0  0  0  0  0  0  0  0  0  0  0  0
   -0.9350    3.8940   -0.8670 H   0  0  0  0  0  0  0  0  0  0  0  0
   -3.3810    1.0880    1.1910 C   0  0  0  0  0  0  0  0  0  0  0  0
   -2.2470    0.6470    2.0680 C   0  0  2  0  0  0  0  0  0  0  0  0
   -1.1050    0.1480    1.2850 N   0  0  0  0  0  0  0  0  0  0  0  0
   -2.6660   -0.4040    3.0040 C   0  0  0  0  0  0  0  0  0  0  0  0
   -3.6370   -0.2160    3.7660 O   0  0  0  0  0  0  0  0  0  0  0  0
   -2.0060   -1.6210    3.0680 O   0  0  0  0  0  0  0  0  0  0  0  0
   -3.4160    0.4630    0.2800 H   0  0  0  0  0  0  0  0  0  0  0  0
   -4.3390    0.9570    1.7430 H   0  0  0  0  0  0  0  0  0  0  0  0
   -3.2730    2.1760    0.9420 H   0  0  0  0  0  0  0  0  0  0  0  0
   -1.9060    1.5680    2.6150 H   0  0  0  0  0  0  0  0  0  0  0  0
   -1.2010   -0.7040    0.6980 H   0  0  0  0  0  0  0  0  0  0  0  0
  1 10  1  0  0  0  0
  1  2  1  0  0  0  0
  2  6  1  0  0  0  0
  2 11  1  1  0  0  0
  3  2  1  0  0  0  0
  3  4  1  0  0  0  0
  4  8  1  0  0  0  0
  5  4  2  0  0  0  0
  6  7  2  0  0  0  0
  8 14  1  0  0  0  0
  9  1  1  0  0  0  0
 12  3  1  0  0  0  0
 13  3  1  0  0  0  0
 15 16  1  0  0  0  0
 15  6  1  0  0  0  0
 16 25  1  1  0  0  0
 16 21  1  0  0  0  0
 17 18  1  0  0  0  0
 17 16  1  0  0  0  0
 18 19  1  0  0  0  0
 18 29  1  0  0  0  0
 19 20  2  0  0  0  0
 21 22  2  0  0  0  0
 23 19  1  0  0  0  0
 24 15  1  0  0  0  0
 26 17  1  0  0  0  0
 27 17  1  0  0  0  0
 28 18  1  0  0  0  0
 30 23  1  0  0  0  0
 31 38  1  0  0  0  0
 31 32  1  0  0  0  0
 32 40  1  1  0  0  0
 32 34  1  0  0  0  0
 33 21  1  0  0  0  0
 33 32  1  0  0  0  0
 34 36  2  0  0  0  0
 34 35  1  0  0  0  0
 37 31  1  0  0  0  0
 39 31  1  0  0  0  0
 41 33  1  0  0  0  0
M  END
$$$$
