DEC.pdb
 OpenBabel07022418133D

 42 41  0  0  1  0  0  0  0  0999 V2000
   -3.2160   -3.2430   -1.0020 N   0  0  0  0  0  0  0  0  0  0  0  0
   -2.6410   -2.3010   -0.0160 C   0  0  1  0  0  0  0  0  0  0  0  0
   -2.6650   -3.0260    1.2830 C   0  0  0  0  0  0  0  0  0  0  0  0
   -2.1440   -2.3150    2.4430 C   0  0  0  0  0  0  0  0  0  0  0  0
   -0.9260   -2.4560    2.7210 O   0  0  0  0  0  0  0  0  0  0  0  0
   -1.2870   -1.9560   -0.4880 C   0  0  0  0  0  0  0  0  0  0  0  0
   -0.7700   -2.6070   -1.4330 O   0  0  0  0  0  0  0  0  0  0  0  0
   -2.9030   -1.4920    3.2620 O   0  0  0  0  0  0  0  0  0  0  0  0
   -4.0520   -3.6560   -0.5050 H   0  0  0  0  0  0  0  0  0  0  0  0
   -2.5180   -4.0240   -1.0710 H   0  0  0  0  0  0  0  0  0  0  0  0
   -3.2860   -1.3880   -0.0010 H   0  0  0  0  0  0  0  0  0  0  0  0
   -2.1140   -3.9850    1.1700 H   0  0  0  0  0  0  0  0  0  0  0  0
   -3.7440   -3.2670    1.5090 H   0  0  0  0  0  0  0  0  0  0  0  0
   -2.4120   -0.8660    3.8840 H   0  0  0  0  0  0  0  0  0  0  0  0
   -0.5300   -0.9020    0.0790 N   0  0  0  0  0  0  0  0  0  0  0  0
    0.8080   -0.6590   -0.4980 C   0  0  1  0  0  0  0  0  0  0  0  0
    0.6710    0.6180   -1.3440 C   0  0  0  0  0  0  0  0  0  0  0  0
    1.9400    1.0030   -2.0100 C   0  0  0  0  0  0  0  0  0  0  0  0
    1.7490    2.2370   -2.8570 C   0  0  0  0  0  0  0  0  0  0  0  0
    0.6480    2.8040   -2.9390 O   0  0  0  0  0  0  0  0  0  0  0  0
    1.8270   -0.4140    0.5290 C   0  0  0  0  0  0  0  0  0  0  0  0
    3.0580   -0.3480    0.1950 O   0  0  0  0  0  0  0  0  0  0  0  0
    2.8290    2.7490   -3.5610 O   0  0  0  0  0  0  0  0  0  0  0  0
   -0.8790   -0.3190    0.8560 H   0  0  0  0  0  0  0  0  0  0  0  0
    1.0920   -1.4580   -1.1980 H   0  0  0  0  0  0  0  0  0  0  0  0
   -0.0640    0.3550   -2.1570 H   0  0  0  0  0  0  0  0  0  0  0  0
    0.2420    1.4350   -0.7340 H   0  0  0  0  0  0  0  0  0  0  0  0
    2.7420    1.2770   -1.2770 H   0  0  0  0  0  0  0  0  0  0  0  0
    2.3480    0.2030   -2.6490 H   0  0  0  0  0  0  0  0  0  0  0  0
    2.7450    3.4530   -4.2720 H   0  0  0  0  0  0  0  0  0  0  0  0
    1.5740   -0.2360    1.9090 N   0  0  0  0  0  0  0  0  0  0  0  0
    2.6290    0.0040    2.8750 C   0  0  1  0  0  0  0  0  0  0  0  0
    2.4530    1.2960    3.6150 C   0  0  0  0  0  0  0  0  0  0  0  0
    0.8950    1.3410    4.5340 S   0  0  0  0  0  0  0  0  0  0  0  0
    2.7330   -1.1270    3.8230 C   0  0  0  0  0  0  0  0  0  0  0  0
    1.9730   -2.1240    3.7270 O   0  0  0  0  0  0  0  0  0  0  0  0
    3.6590   -1.1530    4.8560 O   0  0  0  0  0  0  0  0  0  0  0  0
    0.5920   -0.2750    2.2330 H   0  0  0  0  0  0  0  0  0  0  0  0
    3.6330    0.0500    2.3680 H   0  0  0  0  0  0  0  0  0  0  0  0
    3.2970    1.3770    4.3340 H   0  0  0  0  0  0  0  0  0  0  0  0
    2.5280    2.1620    2.9360 H   0  0  0  0  0  0  0  0  0  0  0  0
    0.0550    2.3370    3.9670 H   0  0  0  0  0  0  0  0  0  0  0  0
  1  9  1  0  0  0  0
  1  2  1  0  0  0  0
  2 11  1  1  0  0  0
  2  3  1  0  0  0  0
  3 13  1  0  0  0  0
  3  4  1  0  0  0  0
  4  5  2  0  0  0  0
  4  8  1  0  0  0  0
  6  2  1  0  0  0  0
  6 15  1  0  0  0  0
  7  6  2  0  0  0  0
  8 14  1  0  0  0  0
 10  1  1  0  0  0  0
 12  3  1  0  0  0  0
 15 24  1  0  0  0  0
 16 25  1  6  0  0  0
 16 15  1  0  0  0  0
 16 21  1  0  0  0  0
 17 27  1  0  0  0  0
 17 16  1  0  0  0  0
 18 17  1  0  0  0  0
 18 28  1  0  0  0  0
 19 18  1  0  0  0  0
 20 19  2  0  0  0  0
 21 31  1  0  0  0  0
 22 21  2  0  0  0  0
 23 19  1  0  0  0  0
 26 17  1  0  0  0  0
 29 18  1  0  0  0  0
 30 23  1  0  0  0  0
 31 38  1  0  0  0  0
 31 32  1  0  0  0  0
 32 39  1  6  0  0  0
 32 33  1  0  0  0  0
 32 35  1  0  0  0  0
 33 40  1  0  0  0  0
 33 34  1  0  0  0  0
 35 37  1  0  0  0  0
 36 35  2  0  0  0  0
 41 33  1  0  0  0  0
 42 34  1  0  0  0  0
M  END
$$$$
