DED.pdb
 OpenBabel07022418133D

 44 43  0  0  1  0  0  0  0  0999 V2000
    4.5580   -0.8880    0.6930 N   0  0  0  0  0  0  0  0  0  0  0  0
    3.5310   -0.3990    1.6160 C   0  0  1  0  0  0  0  0  0  0  0  0
    3.8490    0.9900    2.0930 C   0  0  0  0  0  0  0  0  0  0  0  0
    5.1410    1.0510    2.8040 C   0  0  0  0  0  0  0  0  0  0  0  0
    6.1790    0.6650    2.2290 O   0  0  0  0  0  0  0  0  0  0  0  0
    2.1930   -0.4340    1.0080 C   0  0  0  0  0  0  0  0  0  0  0  0
    2.1040   -0.9160   -0.1420 O   0  0  0  0  0  0  0  0  0  0  0  0
    5.2060    1.5290    4.0960 O   0  0  0  0  0  0  0  0  0  0  0  0
    4.1690   -1.5970    0.0320 H   0  0  0  0  0  0  0  0  0  0  0  0
    5.2620   -1.4140    1.2980 H   0  0  0  0  0  0  0  0  0  0  0  0
    3.4900   -1.1160    2.5010 H   0  0  0  0  0  0  0  0  0  0  0  0
    3.8860    1.6320    1.1640 H   0  0  0  0  0  0  0  0  0  0  0  0
    3.0100    1.3550    2.6950 H   0  0  0  0  0  0  0  0  0  0  0  0
    5.9020    1.1940    4.7690 H   0  0  0  0  0  0  0  0  0  0  0  0
    1.0390    0.0400    1.6650 N   0  0  0  0  0  0  0  0  0  0  0  0
   -0.2570   -0.0450    1.0990 C   0  0  1  0  0  0  0  0  0  0  0  0
   -0.8260    0.9970    0.2560 C   0  0  0  0  0  0  0  0  0  0  0  0
   -1.0140    2.3390    0.8890 C   0  0  0  0  0  0  0  0  0  0  0  0
    0.2340    2.9920    1.2660 C   0  0  0  0  0  0  0  0  0  0  0  0
    1.3620    2.6030    0.9370 O   0  0  0  0  0  0  0  0  0  0  0  0
   -0.4990   -1.4660    0.6160 C   0  0  0  0  0  0  0  0  0  0  0  0
    0.3630   -2.3540    0.8080 O   0  0  0  0  0  0  0  0  0  0  0  0
    0.2030    4.1570    2.0650 O   0  0  0  0  0  0  0  0  0  0  0  0
    1.1820    0.4750    2.6350 H   0  0  0  0  0  0  0  0  0  0  0  0
   -0.9770   -0.0230    2.0520 H   0  0  0  0  0  0  0  0  0  0  0  0
   -1.8270    0.6420   -0.1160 H   0  0  0  0  0  0  0  0  0  0  0  0
   -0.2360    1.1970   -0.6850 H   0  0  0  0  0  0  0  0  0  0  0  0
   -1.5650    2.1420    1.8600 H   0  0  0  0  0  0  0  0  0  0  0  0
   -1.6600    2.9890    0.2400 H   0  0  0  0  0  0  0  0  0  0  0  0
    1.0180    4.7900    2.0360 H   0  0  0  0  0  0  0  0  0  0  0  0
   -1.6710   -1.8730   -0.0590 N   0  0  0  0  0  0  0  0  0  0  0  0
   -1.8420   -3.2710   -0.5050 C   0  0  1  0  0  0  0  0  0  0  0  0
   -3.0220   -3.8160    0.2590 C   0  0  0  0  0  0  0  0  0  0  0  0
   -4.2800   -3.0940    0.0290 C   0  0  0  0  0  0  0  0  0  0  0  0
   -5.2920   -3.4120    0.7220 O   0  0  0  0  0  0  0  0  0  0  0  0
   -2.1020   -3.3150   -1.9580 C   0  0  0  0  0  0  0  0  0  0  0  0
   -2.2710   -4.4380   -2.4910 O   0  0  0  0  0  0  0  0  0  0  0  0
   -4.4570   -2.0790   -0.8990 O   0  0  0  0  0  0  0  0  0  0  0  0
   -2.1530   -2.1590   -2.6880 O   0  0  0  0  0  0  0  0  0  0  0  0
   -2.4190   -1.1790   -0.2390 H   0  0  0  0  0  0  0  0  0  0  0  0
   -0.9020   -3.8170   -0.2290 H   0  0  0  0  0  0  0  0  0  0  0  0
   -3.1260   -4.9150    0.1490 H   0  0  0  0  0  0  0  0  0  0  0  0
   -2.7770   -3.6810    1.3550 H   0  0  0  0  0  0  0  0  0  0  0  0
   -5.1160   -1.3180   -0.6870 H   0  0  0  0  0  0  0  0  0  0  0  0
  1 10  1  0  0  0  0
  1  2  1  0  0  0  0
  2  3  1  0  0  0  0
  2 11  1  1  0  0  0
  3 13  1  0  0  0  0
  3  4  1  0  0  0  0
  4  8  1  0  0  0  0
  5  4  2  0  0  0  0
  6  2  1  0  0  0  0
  6 15  1  0  0  0  0
  7  6  2  0  0  0  0
  8 14  1  0  0  0  0
  9  1  1  0  0  0  0
 12  3  1  0  0  0  0
 15 24  1  0  0  0  0
 16 15  1  0  0  0  0
 16 25  1  1  0  0  0
 17 18  1  0  0  0  0
 17 16  1  0  0  0  0
 18 19  1  0  0  0  0
 18 28  1  0  0  0  0
 19 23  1  0  0  0  0
 20 19  2  0  0  0  0
 21 22  2  0  0  0  0
 21 16  1  0  0  0  0
 26 17  1  0  0  0  0
 27 17  1  0  0  0  0
 29 18  1  0  0  0  0
 30 23  1  0  0  0  0
 31 21  1  0  0  0  0
 32 41  1  1  0  0  0
 32 31  1  0  0  0  0
 32 33  1  0  0  0  0
 33 43  1  0  0  0  0
 34 33  1  0  0  0  0
 34 35  2  0  0  0  0
 36 32  1  0  0  0  0
 37 36  1  0  0  0  0
 38 44  1  0  0  0  0
 38 34  1  0  0  0  0
 39 36  2  0  0  0  0
 40 31  1  0  0  0  0
 42 33  1  0  0  0  0
M  END
$$$$
