DEE.pdb
 OpenBabel07022418133D

 47 46  0  0  1  0  0  0  0  0999 V2000
   -2.0850    1.7970    3.3220 N   0  0  0  0  0  0  0  0  0  0  0  0
   -1.4080    1.8720    2.0280 C   0  0  1  0  0  0  0  0  0  0  0  0
   -0.8790    3.2620    1.9030 C   0  0  0  0  0  0  0  0  0  0  0  0
   -0.1580    3.5010    0.6440 C   0  0  0  0  0  0  0  0  0  0  0  0
    1.1120    3.3990    0.5770 O   0  0  0  0  0  0  0  0  0  0  0  0
   -0.3410    0.8310    2.0320 C   0  0  0  0  0  0  0  0  0  0  0  0
   -0.0290    0.2260    3.1040 O   0  0  0  0  0  0  0  0  0  0  0  0
   -0.8650    3.8440   -0.5030 O   0  0  0  0  0  0  0  0  0  0  0  0
   -2.3880    0.8210    3.4450 H   0  0  0  0  0  0  0  0  0  0  0  0
   -1.3640    2.0110    4.0420 H   0  0  0  0  0  0  0  0  0  0  0  0
   -2.1340    1.6220    1.2370 H   0  0  0  0  0  0  0  0  0  0  0  0
   -1.7110    4.0100    1.9570 H   0  0  0  0  0  0  0  0  0  0  0  0
   -0.2240    3.5090    2.7770 H   0  0  0  0  0  0  0  0  0  0  0  0
   -0.3820    4.2280   -1.2870 H   0  0  0  0  0  0  0  0  0  0  0  0
    0.3470    0.4920    0.8460 N   0  0  0  0  0  0  0  0  0  0  0  0
    1.4020   -0.4600    0.7000 C   0  0  1  0  0  0  0  0  0  0  0  0
    2.1890   -0.7610    1.9530 C   0  0  0  0  0  0  0  0  0  0  0  0
    2.9210    0.4110    2.4810 C   0  0  0  0  0  0  0  0  0  0  0  0
    3.9930    0.9420    1.5940 C   0  0  0  0  0  0  0  0  0  0  0  0
    4.3440    0.3950    0.5350 O   0  0  0  0  0  0  0  0  0  0  0  0
    1.0940   -1.6380   -0.1090 C   0  0  0  0  0  0  0  0  0  0  0  0
    1.9230   -2.5670   -0.3330 O   0  0  0  0  0  0  0  0  0  0  0  0
    4.6350    2.1140    1.9740 O   0  0  0  0  0  0  0  0  0  0  0  0
    0.0060    1.0220   -0.0250 H   0  0  0  0  0  0  0  0  0  0  0  0
    2.2000    0.1350    0.0970 H   0  0  0  0  0  0  0  0  0  0  0  0
    1.6250   -1.3290    2.7130 H   0  0  0  0  0  0  0  0  0  0  0  0
    2.9780   -1.5050    1.6050 H   0  0  0  0  0  0  0  0  0  0  0  0
    2.2940    1.2650    2.8430 H   0  0  0  0  0  0  0  0  0  0  0  0
    3.4710    0.1020    3.4310 H   0  0  0  0  0  0  0  0  0  0  0  0
    5.1560    2.6270    1.2640 H   0  0  0  0  0  0  0  0  0  0  0  0
   -0.2200   -1.7590   -0.6880 N   0  0  0  0  0  0  0  0  0  0  0  0
   -0.5650   -2.9110   -1.4980 C   0  0  1  0  0  0  0  0  0  0  0  0
   -1.7570   -3.6420   -0.9220 C   0  0  0  0  0  0  0  0  0  0  0  0
   -1.4680   -4.1300    0.4790 C   0  0  0  0  0  0  0  0  0  0  0  0
   -2.6640   -4.8380    1.0120 C   0  0  0  0  0  0  0  0  0  0  0  0
   -3.7360   -4.9740    0.3340 O   0  0  0  0  0  0  0  0  0  0  0  0
   -0.8730   -2.4870   -2.9060 C   0  0  0  0  0  0  0  0  0  0  0  0
   -1.1960   -3.3020   -3.8010 O   0  0  0  0  0  0  0  0  0  0  0  0
   -2.6460   -5.3740    2.2730 O   0  0  0  0  0  0  0  0  0  0  0  0
   -0.8010   -1.1450   -3.2470 O   0  0  0  0  0  0  0  0  0  0  0  0
   -0.9010   -0.9900   -0.5000 H   0  0  0  0  0  0  0  0  0  0  0  0
    0.2920   -3.5820   -1.5590 H   0  0  0  0  0  0  0  0  0  0  0  0
   -2.6840   -3.0500   -0.9780 H   0  0  0  0  0  0  0  0  0  0  0  0
   -1.9350   -4.5450   -1.5480 H   0  0  0  0  0  0  0  0  0  0  0  0
   -1.1160   -3.3190    1.1540 H   0  0  0  0  0  0  0  0  0  0  0  0
   -0.6680   -4.9000    0.4110 H   0  0  0  0  0  0  0  0  0  0  0  0
   -3.4700   -5.5810    2.8210 H   0  0  0  0  0  0  0  0  0  0  0  0
  1  9  1  0  0  0  0
  1 10  1  0  0  0  0
  2 11  1  6  0  0  0
  2  6  1  0  0  0  0
  2  1  1  0  0  0  0
  3 12  1  0  0  0  0
  3  2  1  0  0  0  0
  3 13  1  0  0  0  0
  4  3  1  0  0  0  0
  5  4  2  0  0  0  0
  6  7  2  0  0  0  0
  8  4  1  0  0  0  0
 14  8  1  0  0  0  0
 15  6  1  0  0  0  0
 16 25  1  6  0  0  0
 16 15  1  0  0  0  0
 16 17  1  0  0  0  0
 17 18  1  0  0  0  0
 17 26  1  0  0  0  0
 18 28  1  0  0  0  0
 18 29  1  0  0  0  0
 19 23  1  0  0  0  0
 19 18  1  0  0  0  0
 20 19  2  0  0  0  0
 21 16  1  0  0  0  0
 22 21  2  0  0  0  0
 24 15  1  0  0  0  0
 27 17  1  0  0  0  0
 30 23  1  0  0  0  0
 31 41  1  0  0  0  0
 31 21  1  0  0  0  0
 32 42  1  6  0  0  0
 32 33  1  0  0  0  0
 32 31  1  0  0  0  0
 33 34  1  0  0  0  0
 34 35  1  0  0  0  0
 34 45  1  0  0  0  0
 35 39  1  0  0  0  0
 36 35  2  0  0  0  0
 37 32  1  0  0  0  0
 38 37  2  0  0  0  0
 39 47  1  0  0  0  0
 40 37  1  0  0  0  0
 43 33  1  0  0  0  0
 44 33  1  0  0  0  0
 46 34  1  0  0  0  0
M  END
$$$$
