DEF.pdb
 OpenBabel07022418133D

 51 51  0  0  1  0  0  0  0  0999 V2000
    0.0400    1.6500    5.3690 N   0  0  0  0  0  0  0  0  0  0  0  0
    0.7900    0.7260    4.5440 C   0  0  1  0  0  0  0  0  0  0  0  0
    0.3160   -0.6890    4.6910 C   0  0  0  0  0  0  0  0  0  0  0  0
    0.4660   -1.1100    6.1080 C   0  0  0  0  0  0  0  0  0  0  0  0
    0.1350   -2.2680    6.5010 O   0  0  0  0  0  0  0  0  0  0  0  0
    0.8270    1.1670    3.1240 C   0  0  0  0  0  0  0  0  0  0  0  0
    0.2500    2.2550    2.7840 O   0  0  0  0  0  0  0  0  0  0  0  0
    0.9810   -0.2350    7.0500 O   0  0  0  0  0  0  0  0  0  0  0  0
   -0.9040    1.2730    5.5950 H   0  0  0  0  0  0  0  0  0  0  0  0
   -0.0450    2.5430    4.8310 H   0  0  0  0  0  0  0  0  0  0  0  0
    1.8480    0.7660    4.9180 H   0  0  0  0  0  0  0  0  0  0  0  0
    0.7710   -1.3840    3.9870 H   0  0  0  0  0  0  0  0  0  0  0  0
   -0.7950   -0.7240    4.4880 H   0  0  0  0  0  0  0  0  0  0  0  0
    1.1770   -0.5190    8.0140 H   0  0  0  0  0  0  0  0  0  0  0  0
    1.4730    0.4440    2.1030 N   0  0  0  0  0  0  0  0  0  0  0  0
    1.4890    0.9160    0.7000 C   0  0  1  0  0  0  0  0  0  0  0  0
    2.8790    0.9930    0.1950 C   0  0  0  0  0  0  0  0  0  0  0  0
    2.9490    1.4740   -1.2180 C   0  0  0  0  0  0  0  0  0  0  0  0
    2.4030    2.8280   -1.3950 C   0  0  0  0  0  0  0  0  0  0  0  0
    1.9990    3.5320   -0.4480 O   0  0  0  0  0  0  0  0  0  0  0  0
    0.7050   -0.0640   -0.1000 C   0  0  0  0  0  0  0  0  0  0  0  0
    0.4970    0.1180   -1.3180 O   0  0  0  0  0  0  0  0  0  0  0  0
    2.3310    3.3560   -2.7010 O   0  0  0  0  0  0  0  0  0  0  0  0
    1.9510   -0.4400    2.3330 H   0  0  0  0  0  0  0  0  0  0  0  0
    0.9470    1.8690    0.6160 H   0  0  0  0  0  0  0  0  0  0  0  0
    3.5320    1.6730    0.7920 H   0  0  0  0  0  0  0  0  0  0  0  0
    3.3590   -0.0230    0.2870 H   0  0  0  0  0  0  0  0  0  0  0  0
    2.5330    0.7560   -1.9710 H   0  0  0  0  0  0  0  0  0  0  0  0
    4.0520    1.5830   -1.5340 H   0  0  0  0  0  0  0  0  0  0  0  0
    2.1940    4.3580   -2.8130 H   0  0  0  0  0  0  0  0  0  0  0  0
    0.1660   -1.2390    0.4980 N   0  0  0  0  0  0  0  0  0  0  0  0
   -0.5950   -2.1620   -0.3540 C   0  0  1  0  0  0  0  0  0  0  0  0
   -1.8920   -1.5610   -0.7840 C   0  0  0  0  0  0  0  0  0  0  0  0
   -2.6530   -2.4870   -1.6400 C   0  0  0  0  0  0  0  0  0  0  0  0
   -2.5560   -2.4770   -3.0030 C   0  0  0  0  0  0  0  0  0  0  0  0
   -3.2730   -3.3520   -3.7590 C   0  0  0  0  0  0  0  0  0  0  0  0
   -4.1020   -4.2530   -3.1620 C   0  0  0  0  0  0  0  0  0  0  0  0
   -4.2010   -4.2640   -1.7860 C   0  0  0  0  0  0  0  0  0  0  0  0
   -3.4970   -3.4030   -0.9980 C   0  0  0  0  0  0  0  0  0  0  0  0
    0.2510   -2.6700   -1.4480 C   0  0  0  0  0  0  0  0  0  0  0  0
   -0.1150   -3.4860   -2.3250 O   0  0  0  0  0  0  0  0  0  0  0  0
    1.5880   -2.2440   -1.5710 O   0  0  0  0  0  0  0  0  0  0  0  0
    0.3100   -1.4340    1.5120 H   0  0  0  0  0  0  0  0  0  0  0  0
   -0.8370   -3.0600    0.2930 H   0  0  0  0  0  0  0  0  0  0  0  0
   -2.5380   -1.2810    0.0820 H   0  0  0  0  0  0  0  0  0  0  0  0
   -1.7290   -0.6070   -1.3340 H   0  0  0  0  0  0  0  0  0  0  0  0
   -1.8870   -1.7420   -3.4590 H   0  0  0  0  0  0  0  0  0  0  0  0
   -3.1840   -3.3300   -4.8420 H   0  0  0  0  0  0  0  0  0  0  0  0
   -4.6830   -4.9600   -3.7530 H   0  0  0  0  0  0  0  0  0  0  0  0
   -4.8700   -4.9940   -1.3430 H   0  0  0  0  0  0  0  0  0  0  0  0
   -3.5730   -3.4090    0.0770 H   0  0  0  0  0  0  0  0  0  0  0  0
  1  9  1  0  0  0  0
  2  3  1  0  0  0  0
  2 11  1  1  0  0  0
  2  1  1  0  0  0  0
  3  4  1  0  0  0  0
  4  5  2  0  0  0  0
  4  8  1  0  0  0  0
  6  2  1  0  0  0  0
  7  6  2  0  0  0  0
  8 14  1  0  0  0  0
 10  1  1  0  0  0  0
 12  3  1  0  0  0  0
 13  3  1  0  0  0  0
 15 24  1  0  0  0  0
 15  6  1  0  0  0  0
 16 25  1  6  0  0  0
 16 15  1  0  0  0  0
 17 27  1  0  0  0  0
 17 16  1  0  0  0  0
 17 26  1  0  0  0  0
 18 17  1  0  0  0  0
 19 18  1  0  0  0  0
 19 20  2  0  0  0  0
 21 31  1  0  0  0  0
 21 16  1  0  0  0  0
 22 21  2  0  0  0  0
 23 19  1  0  0  0  0
 28 18  1  0  0  0  0
 29 18  1  0  0  0  0
 30 23  1  0  0  0  0
 31 43  1  0  0  0  0
 32 44  1  1  0  0  0
 32 31  1  0  0  0  0
 33 32  1  0  0  0  0
 33 45  1  0  0  0  0
 34 39  1  0  0  0  0
 34 33  1  0  0  0  0
 35 34  2  0  0  0  0
 36 37  2  0  0  0  0
 36 35  1  0  0  0  0
 37 38  1  0  0  0  0
 38 50  1  0  0  0  0
 38 39  2  0  0  0  0
 39 51  1  0  0  0  0
 40 32  1  0  0  0  0
 41 40  2  0  0  0  0
 42 40  1  0  0  0  0
 46 33  1  0  0  0  0
 47 35  1  0  0  0  0
 48 36  1  0  0  0  0
 49 37  1  0  0  0  0
M  END
$$$$
