DEH.pdb
 OpenBabel07022418133D

 48 48  0  0  1  0  0  0  0  0999 V2000
   -2.6100    2.1380    2.1270 N   0  0  0  0  0  0  0  0  0  0  0  0
   -1.7740    1.8680    1.0170 C   0  0  1  0  0  0  0  0  0  0  0  0
   -1.1690    3.1250    0.4460 C   0  0  0  0  0  0  0  0  0  0  0  0
   -0.3610    3.8400    1.4480 C   0  0  0  0  0  0  0  0  0  0  0  0
   -0.2260    3.4530    2.6390 O   0  0  0  0  0  0  0  0  0  0  0  0
   -0.6440    0.9280    1.3540 C   0  0  0  0  0  0  0  0  0  0  0  0
   -0.5670    0.5590    2.5290 O   0  0  0  0  0  0  0  0  0  0  0  0
    0.2930    4.9990    1.0800 O   0  0  0  0  0  0  0  0  0  0  0  0
   -2.3840    1.5890    3.0040 H   0  0  0  0  0  0  0  0  0  0  0  0
   -3.6360    2.1340    1.9490 H   0  0  0  0  0  0  0  0  0  0  0  0
   -2.3440    1.3390    0.2120 H   0  0  0  0  0  0  0  0  0  0  0  0
   -2.0050    3.7880    0.1480 H   0  0  0  0  0  0  0  0  0  0  0  0
   -0.5680    2.9430   -0.4570 H   0  0  0  0  0  0  0  0  0  0  0  0
    0.5620    5.6570    1.8010 H   0  0  0  0  0  0  0  0  0  0  0  0
    0.2330    0.5310    0.3490 N   0  0  0  0  0  0  0  0  0  0  0  0
    1.3660   -0.3300    0.4660 C   0  0  1  0  0  0  0  0  0  0  0  0
    1.8460   -0.5830    1.8850 C   0  0  0  0  0  0  0  0  0  0  0  0
    2.3150    0.6880    2.4930 C   0  0  0  0  0  0  0  0  0  0  0  0
    2.7700    0.5030    3.9180 C   0  0  0  0  0  0  0  0  0  0  0  0
    3.6480   -0.3290    4.2510 O   0  0  0  0  0  0  0  0  0  0  0  0
    1.2740   -1.5330   -0.3660 C   0  0  0  0  0  0  0  0  0  0  0  0
    2.1870   -2.4070   -0.4380 O   0  0  0  0  0  0  0  0  0  0  0  0
    2.1980    1.2830    4.9110 O   0  0  0  0  0  0  0  0  0  0  0  0
    0.0260    0.9240   -0.6220 H   0  0  0  0  0  0  0  0  0  0  0  0
    2.2800    0.2720    0.0500 H   0  0  0  0  0  0  0  0  0  0  0  0
    1.0920   -1.0540    2.5160 H   0  0  0  0  0  0  0  0  0  0  0  0
    2.7410   -1.2510    1.7670 H   0  0  0  0  0  0  0  0  0  0  0  0
    1.7390    1.5910    2.3580 H   0  0  0  0  0  0  0  0  0  0  0  0
    3.3310    0.9800    1.9910 H   0  0  0  0  0  0  0  0  0  0  0  0
    2.3790    1.1890    5.8840 H   0  0  0  0  0  0  0  0  0  0  0  0
    0.1240   -1.8390   -1.1880 N   0  0  0  0  0  0  0  0  0  0  0  0
    0.0500   -3.0260   -2.0040 C   0  0  1  0  0  0  0  0  0  0  0  0
   -1.1460   -3.8450   -1.5330 C   0  0  0  0  0  0  0  0  0  0  0  0
   -1.0490   -4.2450   -0.1280 C   0  0  0  0  0  0  0  0  0  0  0  0
   -1.5030   -3.5770    1.0030 C   0  0  0  0  0  0  0  0  0  0  0  0
   -1.2050   -4.3140    2.0860 N   0  0  0  0  0  0  0  0  0  0  0  0
   -0.5810   -5.4130    1.6420 C   0  0  0  0  0  0  0  0  0  0  0  0
   -0.4810   -5.3850    0.3120 N   0  0  0  0  0  0  0  0  0  0  0  0
   -0.1510   -2.6880   -3.4550 C   0  0  0  0  0  0  0  0  0  0  0  0
   -0.2390   -1.5100   -3.8680 O   0  0  0  0  0  0  0  0  0  0  0  0
   -0.2440   -3.7260   -4.3660 O   0  0  0  0  0  0  0  0  0  0  0  0
   -0.6620   -1.1550   -1.1650 H   0  0  0  0  0  0  0  0  0  0  0  0
    0.9320   -3.6610   -1.9450 H   0  0  0  0  0  0  0  0  0  0  0  0
   -2.1060   -3.2810   -1.6710 H   0  0  0  0  0  0  0  0  0  0  0  0
   -1.2610   -4.7750   -2.1680 H   0  0  0  0  0  0  0  0  0  0  0  0
   -2.0060   -2.6280    1.0040 H   0  0  0  0  0  0  0  0  0  0  0  0
   -1.3970   -4.1180    3.0890 H   0  0  0  0  0  0  0  0  0  0  0  0
   -0.2150   -6.2050    2.2670 H   0  0  0  0  0  0  0  0  0  0  0  0
  1  9  1  0  0  0  0
  2 11  1  6  0  0  0
  2  6  1  0  0  0  0
  2  1  1  0  0  0  0
  3  2  1  0  0  0  0
  3  4  1  0  0  0  0
  4  5  2  0  0  0  0
  6  7  2  0  0  0  0
  8  4  1  0  0  0  0
  8 14  1  0  0  0  0
 10  1  1  0  0  0  0
 12  3  1  0  0  0  0
 13  3  1  0  0  0  0
 15 16  1  0  0  0  0
 15  6  1  0  0  0  0
 16 25  1  6  0  0  0
 16 17  1  0  0  0  0
 17 18  1  0  0  0  0
 17 26  1  0  0  0  0
 18 19  1  0  0  0  0
 19 20  2  0  0  0  0
 19 23  1  0  0  0  0
 21 16  1  0  0  0  0
 22 21  2  0  0  0  0
 23 30  1  0  0  0  0
 24 15  1  0  0  0  0
 27 17  1  0  0  0  0
 28 18  1  0  0  0  0
 29 18  1  0  0  0  0
 31 42  1  0  0  0  0
 31 21  1  0  0  0  0
 32 43  1  1  0  0  0
 32 33  1  0  0  0  0
 32 31  1  0  0  0  0
 33 34  1  0  0  0  0
 34 38  1  0  0  0  0
 34 35  2  0  0  0  0
 35 46  1  0  0  0  0
 35 36  1  0  0  0  0
 36 47  1  0  0  0  0
 37 36  1  0  0  0  0
 37 48  1  0  0  0  0
 38 37  2  0  0  0  0
 39 32  1  0  0  0  0
 40 39  1  0  0  0  0
 41 39  2  0  0  0  0
 44 33  1  0  0  0  0
 45 33  1  0  0  0  0
M  END
$$$$
