DEI.pdb
 OpenBabel07022418133D

 50 49  0  0  1  0  0  0  0  0999 V2000
    3.8820   -1.9050    3.4880 N   0  0  0  0  0  0  0  0  0  0  0  0
    3.4030   -2.0380    2.1400 C   0  0  1  0  0  0  0  0  0  0  0  0
    2.3580   -3.1270    2.1170 C   0  0  0  0  0  0  0  0  0  0  0  0
    1.2280   -2.7850    3.0140 C   0  0  0  0  0  0  0  0  0  0  0  0
    1.2650   -1.7010    3.6470 O   0  0  0  0  0  0  0  0  0  0  0  0
    2.7400   -0.7780    1.6740 C   0  0  0  0  0  0  0  0  0  0  0  0
    2.6800    0.1870    2.4600 O   0  0  0  0  0  0  0  0  0  0  0  0
    0.1420   -3.6290    3.1670 O   0  0  0  0  0  0  0  0  0  0  0  0
    4.9290   -1.8220    3.4980 H   0  0  0  0  0  0  0  0  0  0  0  0
    3.6710   -2.7720    4.0460 H   0  0  0  0  0  0  0  0  0  0  0  0
    4.1990   -2.3140    1.4130 H   0  0  0  0  0  0  0  0  0  0  0  0
    1.9920   -3.3130    1.0790 H   0  0  0  0  0  0  0  0  0  0  0  0
    2.8710   -4.0660    2.4460 H   0  0  0  0  0  0  0  0  0  0  0  0
   -0.3880   -3.6560    4.0520 H   0  0  0  0  0  0  0  0  0  0  0  0
    2.1880   -0.6670    0.3700 N   0  0  0  0  0  0  0  0  0  0  0  0
    1.5350    0.5560   -0.1090 C   0  0  1  0  0  0  0  0  0  0  0  0
    2.1950    1.0600   -1.3410 C   0  0  0  0  0  0  0  0  0  0  0  0
    1.5730    2.3080   -1.8770 C   0  0  0  0  0  0  0  0  0  0  0  0
    1.6090    3.4650   -0.9590 C   0  0  0  0  0  0  0  0  0  0  0  0
    2.1910    3.3620    0.1410 O   0  0  0  0  0  0  0  0  0  0  0  0
    0.0740    0.2560   -0.2700 C   0  0  0  0  0  0  0  0  0  0  0  0
   -0.7340    1.1520   -0.6310 O   0  0  0  0  0  0  0  0  0  0  0  0
    0.9990    4.6680   -1.3130 O   0  0  0  0  0  0  0  0  0  0  0  0
    2.2700   -1.5090   -0.2420 H   0  0  0  0  0  0  0  0  0  0  0  0
    1.5950    1.2720    0.7220 H   0  0  0  0  0  0  0  0  0  0  0  0
    2.2110    0.3090   -2.1660 H   0  0  0  0  0  0  0  0  0  0  0  0
    3.2760    1.2820   -1.0800 H   0  0  0  0  0  0  0  0  0  0  0  0
    2.1480    2.6460   -2.8110 H   0  0  0  0  0  0  0  0  0  0  0  0
    0.5340    2.0980   -2.2440 H   0  0  0  0  0  0  0  0  0  0  0  0
    1.0620    5.4580   -0.6790 H   0  0  0  0  0  0  0  0  0  0  0  0
   -2.9560   -0.8060    2.5200 C   0  0  0  0  0  0  0  0  0  0  0  0
   -2.7920    0.2100    1.3970 C   0  0  0  0  0  0  0  0  0  0  0  0
   -2.8400   -0.4490    0.0600 C   0  0  2  0  0  0  0  0  0  0  0  0
   -4.1940   -1.1370   -0.0430 C   0  0  0  0  0  0  0  0  0  0  0  0
   -1.7760   -1.5050   -0.0950 C   0  0  2  0  0  0  0  0  0  0  0  0
   -0.4240   -1.0420   -0.0170 N   0  0  0  0  0  0  0  0  0  0  0  0
   -2.0140   -2.4760   -1.1470 C   0  0  0  0  0  0  0  0  0  0  0  0
   -1.0480   -2.8130   -1.9130 O   0  0  0  0  0  0  0  0  0  0  0  0
   -3.2260   -3.0720   -1.3850 O   0  0  0  0  0  0  0  0  0  0  0  0
   -2.0060   -1.2900    2.7900 H   0  0  0  0  0  0  0  0  0  0  0  0
   -3.2490   -0.2100    3.4260 H   0  0  0  0  0  0  0  0  0  0  0  0
   -3.7840   -1.5020    2.3320 H   0  0  0  0  0  0  0  0  0  0  0  0
   -3.6920    0.8870    1.4900 H   0  0  0  0  0  0  0  0  0  0  0  0
   -1.9040    0.7800    1.6110 H   0  0  0  0  0  0  0  0  0  0  0  0
   -2.8460    0.3110   -0.7480 H   0  0  0  0  0  0  0  0  0  0  0  0
   -4.9150   -0.4230    0.4430 H   0  0  0  0  0  0  0  0  0  0  0  0
   -4.4610   -1.1590   -1.1180 H   0  0  0  0  0  0  0  0  0  0  0  0
   -4.2140   -2.1200    0.4500 H   0  0  0  0  0  0  0  0  0  0  0  0
   -1.9060   -2.0720    0.9170 H   0  0  0  0  0  0  0  0  0  0  0  0
    0.3180   -1.7650    0.2710 H   0  0  0  0  0  0  0  0  0  0  0  0
  1  9  1  0  0  0  0
  1 10  1  0  0  0  0
  2 11  1  6  0  0  0
  2  1  1  0  0  0  0
  3  2  1  0  0  0  0
  3 13  1  0  0  0  0
  3  4  1  0  0  0  0
  4  8  1  0  0  0  0
  4  5  2  0  0  0  0
  6  2  1  0  0  0  0
  6  7  2  0  0  0  0
  8 14  1  0  0  0  0
 12  3  1  0  0  0  0
 15  6  1  0  0  0  0
 16 15  1  0  0  0  0
 16 25  1  1  0  0  0
 17 27  1  0  0  0  0
 17 16  1  0  0  0  0
 18 17  1  0  0  0  0
 18 19  1  0  0  0  0
 19 20  2  0  0  0  0
 21 16  1  0  0  0  0
 21 36  1  0  0  0  0
 22 21  2  0  0  0  0
 23 19  1  0  0  0  0
 23 30  1  0  0  0  0
 24 15  1  0  0  0  0
 26 17  1  0  0  0  0
 28 18  1  0  0  0  0
 29 18  1  0  0  0  0
 31 40  1  0  0  0  0
 31 41  1  0  0  0  0
 32 43  1  0  0  0  0
 32 44  1  0  0  0  0
 32 31  1  0  0  0  0
 33 45  1  6  0  0  0
 33 32  1  0  0  0  0
 34 33  1  0  0  0  0
 34 46  1  0  0  0  0
 34 48  1  0  0  0  0
 35 36  1  0  0  0  0
 35 33  1  0  0  0  0
 35 49  1  1  0  0  0
 36 50  1  0  0  0  0
 37 35  1  0  0  0  0
 38 37  2  0  0  0  0
 39 37  1  0  0  0  0
 42 31  1  0  0  0  0
 47 34  1  0  0  0  0
M  END
$$$$
