DEK.pdb
 OpenBabel07022418133D

 52 51  0  0  1  0  0  0  0  0999 V2000
    1.1320    1.0820    5.3890 N   0  0  0  0  0  0  0  0  0  0  0  0
    0.1490    0.8370    4.2790 C   0  0  1  0  0  0  0  0  0  0  0  0
   -0.4760    2.1460    4.0110 C   0  0  0  0  0  0  0  0  0  0  0  0
   -1.5650    2.1220    3.0230 C   0  0  0  0  0  0  0  0  0  0  0  0
   -2.1510    1.0570    2.6800 O   0  0  0  0  0  0  0  0  0  0  0  0
    1.0520    0.3210    3.1910 C   0  0  0  0  0  0  0  0  0  0  0  0
    2.0820   -0.3490    3.5490 O   0  0  0  0  0  0  0  0  0  0  0  0
   -2.0350    3.2760    2.3870 O   0  0  0  0  0  0  0  0  0  0  0  0
    0.5590    1.5560    6.1220 H   0  0  0  0  0  0  0  0  0  0  0  0
    1.3700    0.1270    5.7300 H   0  0  0  0  0  0  0  0  0  0  0  0
   -0.5260    0.0650    4.6770 H   0  0  0  0  0  0  0  0  0  0  0  0
   -0.9220    2.6060    4.9460 H   0  0  0  0  0  0  0  0  0  0  0  0
    0.2970    2.9130    3.6960 H   0  0  0  0  0  0  0  0  0  0  0  0
   -2.5950    3.2130    1.5560 H   0  0  0  0  0  0  0  0  0  0  0  0
    0.8970    0.4920    1.8130 N   0  0  0  0  0  0  0  0  0  0  0  0
    1.7750   -0.0010    0.7750 C   0  0  1  0  0  0  0  0  0  0  0  0
    3.1990   -0.1970    1.1540 C   0  0  0  0  0  0  0  0  0  0  0  0
    3.8880    1.0490    1.5650 C   0  0  0  0  0  0  0  0  0  0  0  0
    4.0210    2.0860    0.5330 C   0  0  0  0  0  0  0  0  0  0  0  0
    3.6610    1.8580   -0.6410 O   0  0  0  0  0  0  0  0  0  0  0  0
    1.2000   -1.1770    0.0440 C   0  0  0  0  0  0  0  0  0  0  0  0
    1.8280   -1.6950   -0.9110 O   0  0  0  0  0  0  0  0  0  0  0  0
    4.5390    3.3480    0.7870 O   0  0  0  0  0  0  0  0  0  0  0  0
    0.0520    1.0630    1.4950 H   0  0  0  0  0  0  0  0  0  0  0  0
    1.8040    0.8460    0.0150 H   0  0  0  0  0  0  0  0  0  0  0  0
    3.3930   -1.0610    1.8200 H   0  0  0  0  0  0  0  0  0  0  0  0
    3.7180   -0.5200    0.1850 H   0  0  0  0  0  0  0  0  0  0  0  0
    4.9280    0.7810    1.9420 H   0  0  0  0  0  0  0  0  0  0  0  0
    3.4470    1.5740    2.4540 H   0  0  0  0  0  0  0  0  0  0  0  0
    4.2530    4.1930    0.2940 H   0  0  0  0  0  0  0  0  0  0  0  0
   -0.0480   -1.7230    0.4110 N   0  0  0  0  0  0  0  0  0  0  0  0
   -0.7460   -2.8320   -0.1300 C   0  0  1  0  0  0  0  0  0  0  0  0
   -1.9400   -2.4790   -0.9200 C   0  0  0  0  0  0  0  0  0  0  0  0
   -2.7390   -3.5810   -1.5360 C   0  0  0  0  0  0  0  0  0  0  0  0
   -3.9400   -2.9370   -2.2310 C   0  0  0  0  0  0  0  0  0  0  0  0
   -3.5380   -1.9670   -3.3000 C   0  0  0  0  0  0  0  0  0  0  0  0
   -2.7550   -2.6430   -4.3170 N   0  0  0  0  0  0  0  0  0  0  0  0
    0.0670   -3.9600   -0.6370 C   0  0  0  0  0  0  0  0  0  0  0  0
    1.3200   -3.9560   -0.4920 O   0  0  0  0  0  0  0  0  0  0  0  0
   -0.4560   -5.0730   -1.2840 O   0  0  0  0  0  0  0  0  0  0  0  0
   -0.5290   -1.2020    1.2230 H   0  0  0  0  0  0  0  0  0  0  0  0
   -1.1780   -3.3510    0.8460 H   0  0  0  0  0  0  0  0  0  0  0  0
   -1.6040   -1.7260   -1.6880 H   0  0  0  0  0  0  0  0  0  0  0  0
   -2.6670   -1.9690   -0.2080 H   0  0  0  0  0  0  0  0  0  0  0  0
   -3.1370   -4.2240   -0.7340 H   0  0  0  0  0  0  0  0  0  0  0  0
   -2.1840   -4.2010   -2.2760 H   0  0  0  0  0  0  0  0  0  0  0  0
   -4.5510   -3.7370   -2.7170 H   0  0  0  0  0  0  0  0  0  0  0  0
   -4.5860   -2.4260   -1.4980 H   0  0  0  0  0  0  0  0  0  0  0  0
   -3.0640   -1.0540   -2.9390 H   0  0  0  0  0  0  0  0  0  0  0  0
   -4.4910   -1.6600   -3.8120 H   0  0  0  0  0  0  0  0  0  0  0  0
   -3.0700   -3.6070   -4.4750 H   0  0  0  0  0  0  0  0  0  0  0  0
   -1.7260   -2.5400   -4.1700 H   0  0  0  0  0  0  0  0  0  0  0  0
  1 10  1  0  0  0  0
  1  9  1  0  0  0  0
  2 11  1  1  0  0  0
  2  1  1  0  0  0  0
  3  2  1  0  0  0  0
  3 12  1  0  0  0  0
  4  3  1  0  0  0  0
  5  4  2  0  0  0  0
  6  7  2  0  0  0  0
  6  2  1  0  0  0  0
  8  4  1  0  0  0  0
 13  3  1  0  0  0  0
 14  8  1  0  0  0  0
 15  6  1  0  0  0  0
 16 25  1  6  0  0  0
 16 17  1  0  0  0  0
 16 15  1  0  0  0  0
 17 18  1  0  0  0  0
 17 26  1  0  0  0  0
 18 28  1  0  0  0  0
 18 29  1  0  0  0  0
 19 23  1  0  0  0  0
 19 18  1  0  0  0  0
 20 19  2  0  0  0  0
 21 31  1  0  0  0  0
 21 16  1  0  0  0  0
 22 21  2  0  0  0  0
 24 15  1  0  0  0  0
 27 17  1  0  0  0  0
 30 23  1  0  0  0  0
 31 41  1  0  0  0  0
 32 31  1  0  0  0  0
 32 42  1  1  0  0  0
 33 44  1  0  0  0  0
 33 32  1  0  0  0  0
 34 33  1  0  0  0  0
 34 45  1  0  0  0  0
 35 34  1  0  0  0  0
 35 48  1  0  0  0  0
 36 49  1  0  0  0  0
 36 35  1  0  0  0  0
 37 52  1  0  0  0  0
 37 36  1  0  0  0  0
 38 39  1  0  0  0  0
 38 32  1  0  0  0  0
 40 38  2  0  0  0  0
 43 33  1  0  0  0  0
 46 34  1  0  0  0  0
 47 35  1  0  0  0  0
 50 36  1  0  0  0  0
 51 37  1  0  0  0  0
M  END
$$$$
