DEL.pdb
 OpenBabel07022418133D

 50 49  0  0  1  0  0  0  0  0999 V2000
    0.7150   -2.8850    3.3480 N   0  0  0  0  0  0  0  0  0  0  0  0
    0.1100   -1.8410    4.1650 C   0  0  1  0  0  0  0  0  0  0  0  0
    0.9940   -1.5680    5.3590 C   0  0  0  0  0  0  0  0  0  0  0  0
    0.5010   -0.5390    6.2670 C   0  0  0  0  0  0  0  0  0  0  0  0
    0.7280    0.6880    6.1170 O   0  0  0  0  0  0  0  0  0  0  0  0
    0.0590   -0.5690    3.3600 C   0  0  0  0  0  0  0  0  0  0  0  0
   -0.4470    0.4760    3.7980 O   0  0  0  0  0  0  0  0  0  0  0  0
   -0.2790   -0.8780    7.3900 O   0  0  0  0  0  0  0  0  0  0  0  0
   -0.0300   -3.3050    2.7600 H   0  0  0  0  0  0  0  0  0  0  0  0
    1.1810   -3.5620    3.9750 H   0  0  0  0  0  0  0  0  0  0  0  0
   -0.8900   -2.1260    4.4810 H   0  0  0  0  0  0  0  0  0  0  0  0
    1.9970   -1.2430    4.9630 H   0  0  0  0  0  0  0  0  0  0  0  0
    1.1650   -2.5180    5.9330 H   0  0  0  0  0  0  0  0  0  0  0  0
   -1.1020   -0.3220    7.6520 H   0  0  0  0  0  0  0  0  0  0  0  0
    0.5990   -0.5180    2.0440 N   0  0  0  0  0  0  0  0  0  0  0  0
    0.5490    0.7300    1.2520 C   0  0  1  0  0  0  0  0  0  0  0  0
    1.9490    1.1290    0.8750 C   0  0  0  0  0  0  0  0  0  0  0  0
    2.0010    2.3900    0.0740 C   0  0  0  0  0  0  0  0  0  0  0  0
    1.4700    3.5890    0.7520 C   0  0  0  0  0  0  0  0  0  0  0  0
    1.0780    3.5540    1.9350 O   0  0  0  0  0  0  0  0  0  0  0  0
   -0.3110    0.3940    0.0850 C   0  0  0  0  0  0  0  0  0  0  0  0
   -0.5450    1.3060   -0.7620 O   0  0  0  0  0  0  0  0  0  0  0  0
    1.3750    4.8240    0.1130 O   0  0  0  0  0  0  0  0  0  0  0  0
    1.0370   -1.3610    1.6330 H   0  0  0  0  0  0  0  0  0  0  0  0
    0.1050    1.5370    1.8600 H   0  0  0  0  0  0  0  0  0  0  0  0
    2.5820    1.1850    1.7900 H   0  0  0  0  0  0  0  0  0  0  0  0
    2.4120    0.3340    0.2190 H   0  0  0  0  0  0  0  0  0  0  0  0
    3.0950    2.5800   -0.2250 H   0  0  0  0  0  0  0  0  0  0  0  0
    1.4730    2.3080   -0.9040 H   0  0  0  0  0  0  0  0  0  0  0  0
    0.6170    5.4260    0.3900 H   0  0  0  0  0  0  0  0  0  0  0  0
    0.3550   -1.0570   -3.5870 C   0  0  0  0  0  0  0  0  0  0  0  0
    0.0640   -2.2270   -2.7040 C   0  0  0  0  0  0  0  0  0  0  0  0
    0.2180   -3.4860   -3.5710 C   0  0  0  0  0  0  0  0  0  0  0  0
   -1.3060   -2.2650   -2.1370 C   0  0  0  0  0  0  0  0  0  0  0  0
   -1.6900   -1.1040   -1.2810 C   0  0  2  0  0  0  0  0  0  0  0  0
   -0.8860   -0.8980   -0.1310 N   0  0  0  0  0  0  0  0  0  0  0  0
   -3.1180   -1.3510   -0.8590 C   0  0  0  0  0  0  0  0  0  0  0  0
   -3.4710   -1.3580    0.3460 O   0  0  0  0  0  0  0  0  0  0  0  0
   -4.0980   -1.5810   -1.8140 O   0  0  0  0  0  0  0  0  0  0  0  0
   -0.2340   -0.1640   -3.3650 H   0  0  0  0  0  0  0  0  0  0  0  0
    1.4610   -0.8490   -3.5150 H   0  0  0  0  0  0  0  0  0  0  0  0
    0.1970   -1.2860   -4.6780 H   0  0  0  0  0  0  0  0  0  0  0  0
    0.8400   -2.3550   -1.8980 H   0  0  0  0  0  0  0  0  0  0  0  0
   -0.4310   -3.3140   -4.4590 H   0  0  0  0  0  0  0  0  0  0  0  0
    1.2600   -3.6200   -3.9010 H   0  0  0  0  0  0  0  0  0  0  0  0
   -0.1920   -4.3290   -3.0050 H   0  0  0  0  0  0  0  0  0  0  0  0
   -1.4230   -3.2040   -1.5650 H   0  0  0  0  0  0  0  0  0  0  0  0
   -2.0280   -2.2880   -2.9970 H   0  0  0  0  0  0  0  0  0  0  0  0
   -1.7240   -0.1750   -1.8790 H   0  0  0  0  0  0  0  0  0  0  0  0
   -0.6660   -1.6140    0.5950 H   0  0  0  0  0  0  0  0  0  0  0  0
  1 10  1  0  0  0  0
  1  2  1  0  0  0  0
  2 11  1  1  0  0  0
  2  3  1  0  0  0  0
  3 13  1  0  0  0  0
  3  4  1  0  0  0  0
  4  8  1  0  0  0  0
  5  4  2  0  0  0  0
  6  7  2  0  0  0  0
  6  2  1  0  0  0  0
  8 14  1  0  0  0  0
  9  1  1  0  0  0  0
 12  3  1  0  0  0  0
 15  6  1  0  0  0  0
 16 25  1  1  0  0  0
 16 15  1  0  0  0  0
 17 16  1  0  0  0  0
 17 26  1  0  0  0  0
 18 19  1  0  0  0  0
 18 17  1  0  0  0  0
 19 20  2  0  0  0  0
 21 16  1  0  0  0  0
 22 21  2  0  0  0  0
 23 30  1  0  0  0  0
 23 19  1  0  0  0  0
 24 15  1  0  0  0  0
 27 17  1  0  0  0  0
 28 18  1  0  0  0  0
 29 18  1  0  0  0  0
 31 41  1  0  0  0  0
 31 40  1  0  0  0  0
 31 32  1  0  0  0  0
 32 34  1  0  0  0  0
 32 43  1  0  0  0  0
 33 46  1  0  0  0  0
 33 32  1  0  0  0  0
 34 47  1  0  0  0  0
 34 35  1  0  0  0  0
 35 49  1  6  0  0  0
 35 37  1  0  0  0  0
 35 36  1  0  0  0  0
 36 21  1  0  0  0  0
 36 50  1  0  0  0  0
 37 38  1  0  0  0  0
 39 37  2  0  0  0  0
 42 31  1  0  0  0  0
 44 33  1  0  0  0  0
 45 33  1  0  0  0  0
 48 34  1  0  0  0  0
M  END
$$$$
