DEM.pdb
 OpenBabel07022418133D

 48 47  0  0  1  0  0  0  0  0999 V2000
    3.9510   -1.9070    3.2070 N   0  0  0  0  0  0  0  0  0  0  0  0
    3.0980   -1.7810    2.0600 C   0  0  1  0  0  0  0  0  0  0  0  0
    2.0350   -2.8910    2.1160 C   0  0  0  0  0  0  0  0  0  0  0  0
    1.2310   -2.7550    3.3660 C   0  0  0  0  0  0  0  0  0  0  0  0
    1.7650   -3.0800    4.4550 O   0  0  0  0  0  0  0  0  0  0  0  0
    2.3210   -0.5070    2.0760 C   0  0  0  0  0  0  0  0  0  0  0  0
    2.3700    0.2580    3.0830 O   0  0  0  0  0  0  0  0  0  0  0  0
   -0.0710   -2.2910    3.4030 O   0  0  0  0  0  0  0  0  0  0  0  0
    4.9280   -1.6610    2.9190 H   0  0  0  0  0  0  0  0  0  0  0  0
    3.9470   -2.8250    3.6690 H   0  0  0  0  0  0  0  0  0  0  0  0
    3.6980   -1.8740    1.1500 H   0  0  0  0  0  0  0  0  0  0  0  0
    1.3670   -2.7290    1.2710 H   0  0  0  0  0  0  0  0  0  0  0  0
    2.5060   -3.9030    2.0490 H   0  0  0  0  0  0  0  0  0  0  0  0
   -0.4160   -1.7200    4.1800 H   0  0  0  0  0  0  0  0  0  0  0  0
    1.5020   -0.0810    0.9960 N   0  0  0  0  0  0  0  0  0  0  0  0
    0.7530    1.1860    1.0680 C   0  0  1  0  0  0  0  0  0  0  0  0
    1.4110    2.1620    0.1100 C   0  0  0  0  0  0  0  0  0  0  0  0
    0.7770    3.5040    0.0600 C   0  0  0  0  0  0  0  0  0  0  0  0
    0.7520    4.2460    1.3230 C   0  0  0  0  0  0  0  0  0  0  0  0
    1.2090    3.8560    2.4130 O   0  0  0  0  0  0  0  0  0  0  0  0
   -0.6590    0.9220    0.7170 C   0  0  0  0  0  0  0  0  0  0  0  0
   -1.4970    1.8710    0.7820 O   0  0  0  0  0  0  0  0  0  0  0  0
    0.1610    5.5220    1.3200 O   0  0  0  0  0  0  0  0  0  0  0  0
    1.4620   -0.7030    0.1610 H   0  0  0  0  0  0  0  0  0  0  0  0
    0.8980    1.5860    2.0670 H   0  0  0  0  0  0  0  0  0  0  0  0
    2.4690    2.2710    0.4150 H   0  0  0  0  0  0  0  0  0  0  0  0
    1.3890    1.7400   -0.9350 H   0  0  0  0  0  0  0  0  0  0  0  0
    1.3180    4.1750   -0.6750 H   0  0  0  0  0  0  0  0  0  0  0  0
   -0.2750    3.4870   -0.3390 H   0  0  0  0  0  0  0  0  0  0  0  0
   -0.0580    5.9710    2.1850 H   0  0  0  0  0  0  0  0  0  0  0  0
   -1.5130   -4.8880   -1.8330 C   0  0  0  0  0  0  0  0  0  0  0  0
   -2.4380   -3.4400   -1.2640 S   0  0  0  0  0  0  0  0  0  0  0  0
   -1.8870   -1.9270   -2.0500 C   0  0  0  0  0  0  0  0  0  0  0  0
   -2.6950   -0.7510   -1.5560 C   0  0  0  0  0  0  0  0  0  0  0  0
   -2.5550   -0.5710   -0.0380 C   0  0  2  0  0  0  0  0  0  0  0  0
   -1.1690   -0.3460    0.2980 N   0  0  0  0  0  0  0  0  0  0  0  0
   -3.1410   -1.7420    0.6390 C   0  0  0  0  0  0  0  0  0  0  0  0
   -2.4230   -2.4180    1.4090 O   0  0  0  0  0  0  0  0  0  0  0  0
   -4.4510   -2.1400    0.4700 O   0  0  0  0  0  0  0  0  0  0  0  0
   -1.4860   -4.8890   -2.9430 H   0  0  0  0  0  0  0  0  0  0  0  0
   -0.5050   -4.9430   -1.3910 H   0  0  0  0  0  0  0  0  0  0  0  0
   -2.0590   -5.7860   -1.4790 H   0  0  0  0  0  0  0  0  0  0  0  0
   -0.8070   -1.7030   -1.8900 H   0  0  0  0  0  0  0  0  0  0  0  0
   -2.1010   -2.0000   -3.1450 H   0  0  0  0  0  0  0  0  0  0  0  0
   -2.4210    0.1880   -2.0760 H   0  0  0  0  0  0  0  0  0  0  0  0
   -3.7750   -0.9360   -1.7260 H   0  0  0  0  0  0  0  0  0  0  0  0
   -3.1170    0.3760    0.2030 H   0  0  0  0  0  0  0  0  0  0  0  0
   -0.5120   -1.1460    0.2340 H   0  0  0  0  0  0  0  0  0  0  0  0
  1 10  1  0  0  0  0
  2 11  1  6  0  0  0
  2  6  1  0  0  0  0
  2  3  1  0  0  0  0
  2  1  1  0  0  0  0
  3  4  1  0  0  0  0
  4  8  1  0  0  0  0
  4  5  2  0  0  0  0
  6  7  2  0  0  0  0
  8 14  1  0  0  0  0
  9  1  1  0  0  0  0
 12  3  1  0  0  0  0
 13  3  1  0  0  0  0
 15 16  1  0  0  0  0
 15  6  1  0  0  0  0
 16 25  1  1  0  0  0
 17 26  1  0  0  0  0
 17 16  1  0  0  0  0
 18 17  1  0  0  0  0
 18 19  1  0  0  0  0
 19 20  2  0  0  0  0
 21 22  2  0  0  0  0
 21 16  1  0  0  0  0
 23 19  1  0  0  0  0
 23 30  1  0  0  0  0
 24 15  1  0  0  0  0
 27 17  1  0  0  0  0
 28 18  1  0  0  0  0
 29 18  1  0  0  0  0
 31 42  1  0  0  0  0
 31 41  1  0  0  0  0
 31 32  1  0  0  0  0
 33 43  1  0  0  0  0
 33 34  1  0  0  0  0
 33 32  1  0  0  0  0
 34 35  1  0  0  0  0
 35 47  1  1  0  0  0
 35 36  1  0  0  0  0
 35 37  1  0  0  0  0
 36 21  1  0  0  0  0
 37 38  1  0  0  0  0
 39 37  2  0  0  0  0
 40 31  1  0  0  0  0
 44 33  1  0  0  0  0
 45 34  1  0  0  0  0
 46 34  1  0  0  0  0
 48 36  1  0  0  0  0
M  END
$$$$
