DEQ.pdb
 OpenBabel07022418133D

 48 47  0  0  1  0  0  0  0  0999 V2000
   -0.1670    0.6380    4.9450 N   0  0  0  0  0  0  0  0  0  0  0  0
   -0.9160    1.1760    3.7830 C   0  0  1  0  0  0  0  0  0  0  0  0
   -0.9040    2.6550    3.7600 C   0  0  0  0  0  0  0  0  0  0  0  0
   -1.7270    3.1470    2.6300 C   0  0  0  0  0  0  0  0  0  0  0  0
   -1.6390    4.3460    2.2440 O   0  0  0  0  0  0  0  0  0  0  0  0
   -0.2470    0.5340    2.6240 C   0  0  0  0  0  0  0  0  0  0  0  0
    0.0210   -0.7090    2.7430 O   0  0  0  0  0  0  0  0  0  0  0  0
   -2.6390    2.3410    1.9290 O   0  0  0  0  0  0  0  0  0  0  0  0
    0.8210    0.9760    4.7700 H   0  0  0  0  0  0  0  0  0  0  0  0
   -0.1530   -0.4060    4.8190 H   0  0  0  0  0  0  0  0  0  0  0  0
   -1.9860    0.8440    3.8550 H   0  0  0  0  0  0  0  0  0  0  0  0
   -1.2800    3.0670    4.7390 H   0  0  0  0  0  0  0  0  0  0  0  0
    0.1410    3.0730    3.6960 H   0  0  0  0  0  0  0  0  0  0  0  0
   -2.9610    2.5710    1.0030 H   0  0  0  0  0  0  0  0  0  0  0  0
    0.1210    1.1600    1.4200 N   0  0  0  0  0  0  0  0  0  0  0  0
    0.7670    0.3900    0.3570 C   0  0  1  0  0  0  0  0  0  0  0  0
    2.0940   -0.1440    0.7480 C   0  0  0  0  0  0  0  0  0  0  0  0
    3.0660    0.9110    1.1270 C   0  0  0  0  0  0  0  0  0  0  0  0
    3.4180    1.8880    0.1060 C   0  0  0  0  0  0  0  0  0  0  0  0
    2.9580    1.8270   -1.0510 O   0  0  0  0  0  0  0  0  0  0  0  0
   -0.1700   -0.7020   -0.1030 C   0  0  0  0  0  0  0  0  0  0  0  0
   -1.2680   -0.8290    0.4590 O   0  0  0  0  0  0  0  0  0  0  0  0
    4.3020    2.9100    0.4740 O   0  0  0  0  0  0  0  0  0  0  0  0
   -0.0540    2.1790    1.3040 H   0  0  0  0  0  0  0  0  0  0  0  0
    0.8630    1.0520   -0.5120 H   0  0  0  0  0  0  0  0  0  0  0  0
    2.5100   -0.6950   -0.1320 H   0  0  0  0  0  0  0  0  0  0  0  0
    2.0580   -0.8720    1.5880 H   0  0  0  0  0  0  0  0  0  0  0  0
    2.6820    1.4040    2.0650 H   0  0  0  0  0  0  0  0  0  0  0  0
    3.9990    0.3830    1.4840 H   0  0  0  0  0  0  0  0  0  0  0  0
    4.4150    3.6690   -0.1980 H   0  0  0  0  0  0  0  0  0  0  0  0
   -0.9970   -5.4530    1.2710 N   0  0  0  0  0  0  0  0  0  0  0  0
   -1.1860   -4.9670   -0.0470 C   0  0  0  0  0  0  0  0  0  0  0  0
   -0.7240   -5.5060   -1.0720 O   0  0  0  0  0  0  0  0  0  0  0  0
   -2.0190   -3.7030   -0.1840 C   0  0  0  0  0  0  0  0  0  0  0  0
   -1.7540   -3.1230   -1.5080 C   0  0  0  0  0  0  0  0  0  0  0  0
   -0.3930   -2.6420   -1.7840 C   0  0  2  0  0  0  0  0  0  0  0  0
    0.2120   -1.5510   -1.1510 N   0  0  0  0  0  0  0  0  0  0  0  0
   -0.0690   -2.7780   -3.2220 C   0  0  0  0  0  0  0  0  0  0  0  0
    0.7020   -1.9490   -3.7560 O   0  0  0  0  0  0  0  0  0  0  0  0
   -0.5930   -3.7970   -3.9990 O   0  0  0  0  0  0  0  0  0  0  0  0
   -0.0980   -5.3240    1.7570 H   0  0  0  0  0  0  0  0  0  0  0  0
   -1.7850   -5.9530    1.7610 H   0  0  0  0  0  0  0  0  0  0  0  0
   -3.0960   -4.1140   -0.2360 H   0  0  0  0  0  0  0  0  0  0  0  0
   -1.8990   -3.1230    0.7090 H   0  0  0  0  0  0  0  0  0  0  0  0
   -2.5560   -2.3970   -1.8380 H   0  0  0  0  0  0  0  0  0  0  0  0
   -1.9240   -3.9760   -2.2560 H   0  0  0  0  0  0  0  0  0  0  0  0
    0.2310   -3.5430   -1.2900 H   0  0  0  0  0  0  0  0  0  0  0  0
    1.2040   -1.3240   -1.5850 H   0  0  0  0  0  0  0  0  0  0  0  0
  2 11  1  1  0  0  0
  2  1  1  0  0  0  0
  3  2  1  0  0  0  0
  3 12  1  0  0  0  0
  4  3  1  0  0  0  0
  5  4  2  0  0  0  0
  6  7  2  0  0  0  0
  6  2  1  0  0  0  0
  8  4  1  0  0  0  0
  9  1  1  0  0  0  0
 10  1  1  0  0  0  0
 13  3  1  0  0  0  0
 14  8  1  0  0  0  0
 15  6  1  0  0  0  0
 16 25  1  6  0  0  0
 16 17  1  0  0  0  0
 16 15  1  0  0  0  0
 17 18  1  0  0  0  0
 17 27  1  0  0  0  0
 18 29  1  0  0  0  0
 18 28  1  0  0  0  0
 19 23  1  0  0  0  0
 19 18  1  0  0  0  0
 20 19  2  0  0  0  0
 21 16  1  0  0  0  0
 21 22  2  0  0  0  0
 24 15  1  0  0  0  0
 26 17  1  0  0  0  0
 30 23  1  0  0  0  0
 31 41  1  0  0  0  0
 31 42  1  0  0  0  0
 32 31  1  0  0  0  0
 33 32  2  0  0  0  0
 34 32  1  0  0  0  0
 34 44  1  0  0  0  0
 35 34  1  0  0  0  0
 36 35  1  0  0  0  0
 36 47  1  1  0  0  0
 36 37  1  0  0  0  0
 37 21  1  0  0  0  0
 38 36  1  0  0  0  0
 39 38  1  0  0  0  0
 40 38  2  0  0  0  0
 43 34  1  0  0  0  0
 45 35  1  0  0  0  0
 46 35  1  0  0  0  0
 48 37  1  0  0  0  0
M  END
$$$$
