DER.pdb
 OpenBabel07022418133D

 54 53  0  0  1  0  0  0  0  0999 V2000
    3.9720    0.9250    2.8580 N   0  0  0  0  0  0  0  0  0  0  0  0
    3.2720    0.2600    1.7750 C   0  0  1  0  0  0  0  0  0  0  0  0
    3.2800   -1.2200    2.0770 C   0  0  0  0  0  0  0  0  0  0  0  0
    4.6980   -1.6570    2.1550 C   0  0  0  0  0  0  0  0  0  0  0  0
    4.9960   -2.8750    2.3810 O   0  0  0  0  0  0  0  0  0  0  0  0
    1.9150    0.8100    1.6560 C   0  0  0  0  0  0  0  0  0  0  0  0
    1.5310    1.7200    2.4490 O   0  0  0  0  0  0  0  0  0  0  0  0
    5.7420   -0.7740    1.9870 O   0  0  0  0  0  0  0  0  0  0  0  0
    4.2180    1.8910    2.6040 H   0  0  0  0  0  0  0  0  0  0  0  0
    3.3480    0.9570    3.6800 H   0  0  0  0  0  0  0  0  0  0  0  0
    3.8880    0.4100    0.8670 H   0  0  0  0  0  0  0  0  0  0  0  0
    2.8280   -1.4450    3.0670 H   0  0  0  0  0  0  0  0  0  0  0  0
    2.7800   -1.8070    1.2630 H   0  0  0  0  0  0  0  0  0  0  0  0
    6.7110   -0.9570    2.1840 H   0  0  0  0  0  0  0  0  0  0  0  0
    0.9630    0.3970    0.6950 N   0  0  0  0  0  0  0  0  0  0  0  0
   -0.3680    0.9690    0.6140 C   0  0  1  0  0  0  0  0  0  0  0  0
   -0.5550    1.5570   -0.7350 C   0  0  0  0  0  0  0  0  0  0  0  0
    0.4270    2.6460   -1.0810 C   0  0  0  0  0  0  0  0  0  0  0  0
    0.3710    3.8190   -0.1960 C   0  0  0  0  0  0  0  0  0  0  0  0
   -0.4630    3.9300    0.7450 O   0  0  0  0  0  0  0  0  0  0  0  0
   -1.4180   -0.0570    0.8490 C   0  0  0  0  0  0  0  0  0  0  0  0
   -2.6080    0.3290    0.8010 O   0  0  0  0  0  0  0  0  0  0  0  0
    1.2420    4.9030   -0.3330 O   0  0  0  0  0  0  0  0  0  0  0  0
    1.2430   -0.3470    0.0260 H   0  0  0  0  0  0  0  0  0  0  0  0
   -0.5330    1.7420    1.3860 H   0  0  0  0  0  0  0  0  0  0  0  0
   -1.6150    1.9060   -0.8960 H   0  0  0  0  0  0  0  0  0  0  0  0
   -0.4300    0.7220   -1.4760 H   0  0  0  0  0  0  0  0  0  0  0  0
    0.3410    2.9540   -2.1460 H   0  0  0  0  0  0  0  0  0  0  0  0
    1.4830    2.2540   -0.9970 H   0  0  0  0  0  0  0  0  0  0  0  0
    1.0990    5.7570    0.2020 H   0  0  0  0  0  0  0  0  0  0  0  0
   -2.9810   -0.0970   -2.2570 N   0  0  0  0  0  0  0  0  0  0  0  0
   -2.4130   -1.4070   -2.2540 C   0  0  0  0  0  0  0  0  0  0  0  0
   -1.2730   -1.6010   -2.7870 N   0  0  0  0  0  0  0  0  0  0  0  0
   -3.1340   -2.4700   -1.6710 N   0  0  0  0  0  0  0  0  0  0  0  0
   -2.6520   -3.8020   -1.4940 C   0  0  0  0  0  0  0  0  0  0  0  0
   -1.6000   -4.0500   -0.4880 C   0  0  0  0  0  0  0  0  0  0  0  0
   -1.8940   -3.7530    0.9250 C   0  0  0  0  0  0  0  0  0  0  0  0
   -2.1960   -2.3730    1.3440 C   0  0  2  0  0  0  0  0  0  0  0  0
   -1.1420   -1.4090    1.1170 N   0  0  0  0  0  0  0  0  0  0  0  0
   -2.3970   -2.3880    2.8560 C   0  0  0  0  0  0  0  0  0  0  0  0
   -1.7070   -1.6530    3.5980 O   0  0  0  0  0  0  0  0  0  0  0  0
   -3.3320   -3.2000    3.4520 O   0  0  0  0  0  0  0  0  0  0  0  0
   -2.5870    0.6590   -2.8610 H   0  0  0  0  0  0  0  0  0  0  0  0
   -3.7980    0.1510   -1.6660 H   0  0  0  0  0  0  0  0  0  0  0  0
   -0.7270   -2.4530   -2.8750 H   0  0  0  0  0  0  0  0  0  0  0  0
   -4.1220   -2.2250   -1.3450 H   0  0  0  0  0  0  0  0  0  0  0  0
   -2.2200   -4.1010   -2.5040 H   0  0  0  0  0  0  0  0  0  0  0  0
   -3.5300   -4.4900   -1.3980 H   0  0  0  0  0  0  0  0  0  0  0  0
   -1.3760   -5.1680   -0.5380 H   0  0  0  0  0  0  0  0  0  0  0  0
   -0.6240   -3.6130   -0.8380 H   0  0  0  0  0  0  0  0  0  0  0  0
   -2.7110   -4.4450    1.3070 H   0  0  0  0  0  0  0  0  0  0  0  0
   -1.0010   -4.1070    1.5340 H   0  0  0  0  0  0  0  0  0  0  0  0
   -3.1430   -1.9280    0.9840 H   0  0  0  0  0  0  0  0  0  0  0  0
   -0.1150   -1.6900    1.1460 H   0  0  0  0  0  0  0  0  0  0  0  0
  1 10  1  0  0  0  0
  2 11  1  6  0  0  0
  2  3  1  0  0  0  0
  2  1  1  0  0  0  0
  3  4  1  0  0  0  0
  3 12  1  0  0  0  0
  4  5  2  0  0  0  0
  6  2  1  0  0  0  0
  6  7  2  0  0  0  0
  8  4  1  0  0  0  0
  8 14  1  0  0  0  0
  9  1  1  0  0  0  0
 13  3  1  0  0  0  0
 15  6  1  0  0  0  0
 16 15  1  0  0  0  0
 16 21  1  0  0  0  0
 16 25  1  1  0  0  0
 17 16  1  0  0  0  0
 18 29  1  0  0  0  0
 18 17  1  0  0  0  0
 18 19  1  0  0  0  0
 19 20  2  0  0  0  0
 21 39  1  0  0  0  0
 22 21  2  0  0  0  0
 23 19  1  0  0  0  0
 23 30  1  0  0  0  0
 24 15  1  0  0  0  0
 26 17  1  0  0  0  0
 27 17  1  0  0  0  0
 28 18  1  0  0  0  0
 31 32  1  0  0  0  0
 31 44  1  0  0  0  0
 32 34  1  0  0  0  0
 33 32  2  0  0  0  0
 34 35  1  0  0  0  0
 34 46  1  0  0  0  0
 35 48  1  0  0  0  0
 35 36  1  0  0  0  0
 36 37  1  0  0  0  0
 37 51  1  0  0  0  0
 37 38  1  0  0  0  0
 37 52  1  0  0  0  0
 38 53  1  6  0  0  0
 38 40  1  0  0  0  0
 39 54  1  0  0  0  0
 39 38  1  0  0  0  0
 40 42  2  0  0  0  0
 40 41  1  0  0  0  0
 43 31  1  0  0  0  0
 45 33  1  0  0  0  0
 47 35  1  0  0  0  0
 49 36  1  0  0  0  0
 50 36  1  0  0  0  0
M  END
$$$$
