DES.pdb
 OpenBabel07022418133D

 42 41  0  0  1  0  0  0  0  0999 V2000
   -0.3960   -3.6580    0.0770 N   0  0  0  0  0  0  0  0  0  0  0  0
    0.9670   -3.5660    0.5730 C   0  0  1  0  0  0  0  0  0  0  0  0
    1.8130   -4.4640   -0.2970 C   0  0  0  0  0  0  0  0  0  0  0  0
    3.2290   -4.4540    0.1120 C   0  0  0  0  0  0  0  0  0  0  0  0
    4.0350   -3.6200   -0.3670 O   0  0  0  0  0  0  0  0  0  0  0  0
    1.4640   -2.1750    0.5610 C   0  0  0  0  0  0  0  0  0  0  0  0
    2.6160   -1.9200    1.0000 O   0  0  0  0  0  0  0  0  0  0  0  0
    3.7370   -5.3620    1.0400 O   0  0  0  0  0  0  0  0  0  0  0  0
   -0.6680   -4.6650    0.0900 H   0  0  0  0  0  0  0  0  0  0  0  0
   -1.0370   -3.1460    0.7010 H   0  0  0  0  0  0  0  0  0  0  0  0
    0.9580   -4.0240    1.5930 H   0  0  0  0  0  0  0  0  0  0  0  0
    1.6680   -4.2580   -1.3790 H   0  0  0  0  0  0  0  0  0  0  0  0
    1.4450   -5.5170   -0.1140 H   0  0  0  0  0  0  0  0  0  0  0  0
    4.3670   -5.0360    1.7840 H   0  0  0  0  0  0  0  0  0  0  0  0
    0.7170   -1.0770    0.0760 N   0  0  0  0  0  0  0  0  0  0  0  0
    1.3010    0.3120    0.0990 C   0  0  1  0  0  0  0  0  0  0  0  0
    1.2940    0.8380   -1.2670 C   0  0  0  0  0  0  0  0  0  0  0  0
    1.8440    2.1900   -1.4700 C   0  0  0  0  0  0  0  0  0  0  0  0
    1.1900    3.3460   -0.8910 C   0  0  0  0  0  0  0  0  0  0  0  0
    1.8360    4.2700   -0.2980 O   0  0  0  0  0  0  0  0  0  0  0  0
    0.5170    1.0390    1.1010 C   0  0  0  0  0  0  0  0  0  0  0  0
    0.8010    2.1770    1.5230 O   0  0  0  0  0  0  0  0  0  0  0  0
   -0.1950    3.5330   -0.9440 O   0  0  0  0  0  0  0  0  0  0  0  0
   -0.2360   -1.2390   -0.3000 H   0  0  0  0  0  0  0  0  0  0  0  0
    2.3430    0.1860    0.4650 H   0  0  0  0  0  0  0  0  0  0  0  0
    0.2500    0.8360   -1.7130 H   0  0  0  0  0  0  0  0  0  0  0  0
    1.8520    0.1370   -1.9630 H   0  0  0  0  0  0  0  0  0  0  0  0
    2.9390    2.2470   -1.1290 H   0  0  0  0  0  0  0  0  0  0  0  0
    1.9580    2.4070   -2.5910 H   0  0  0  0  0  0  0  0  0  0  0  0
   -0.6560    4.0770   -0.2080 H   0  0  0  0  0  0  0  0  0  0  0  0
   -3.3900   -0.0670    2.1460 O   0  0  0  0  0  0  0  0  0  0  0  0
   -2.9100    1.2330    2.2670 C   0  0  0  0  0  0  0  0  0  0  0  0
   -1.4520    1.1770    2.6770 C   0  0  2  0  0  0  0  0  0  0  0  0
   -0.6680    0.4700    1.6850 N   0  0  0  0  0  0  0  0  0  0  0  0
   -1.4140    0.4150    3.9540 C   0  0  0  0  0  0  0  0  0  0  0  0
   -0.7500   -0.6710    3.9930 O   0  0  0  0  0  0  0  0  0  0  0  0
   -2.0590    0.8210    5.1020 O   0  0  0  0  0  0  0  0  0  0  0  0
   -2.7560   -0.6850    2.5720 H   0  0  0  0  0  0  0  0  0  0  0  0
   -3.4640    1.7230    3.0910 H   0  0  0  0  0  0  0  0  0  0  0  0
   -3.0710    1.8380    1.3600 H   0  0  0  0  0  0  0  0  0  0  0  0
   -1.0400    2.2020    2.8640 H   0  0  0  0  0  0  0  0  0  0  0  0
   -0.9870   -0.4750    1.4020 H   0  0  0  0  0  0  0  0  0  0  0  0
  1  9  1  0  0  0  0
  1  2  1  0  0  0  0
  1 10  1  0  0  0  0
  2 11  1  1  0  0  0
  3 13  1  0  0  0  0
  3  4  1  0  0  0  0
  3  2  1  0  0  0  0
  4  8  1  0  0  0  0
  5  4  2  0  0  0  0
  6  2  1  0  0  0  0
  6  7  2  0  0  0  0
  8 14  1  0  0  0  0
 12  3  1  0  0  0  0
 15 16  1  0  0  0  0
 15  6  1  0  0  0  0
 16 25  1  1  0  0  0
 16 21  1  0  0  0  0
 17 16  1  0  0  0  0
 18 17  1  0  0  0  0
 18 28  1  0  0  0  0
 18 19  1  0  0  0  0
 19 20  2  0  0  0  0
 21 22  2  0  0  0  0
 21 34  1  0  0  0  0
 23 19  1  0  0  0  0
 23 30  1  0  0  0  0
 24 15  1  0  0  0  0
 26 17  1  0  0  0  0
 27 17  1  0  0  0  0
 29 18  1  0  0  0  0
 31 32  1  0  0  0  0
 31 38  1  0  0  0  0
 32 33  1  0  0  0  0
 32 39  1  0  0  0  0
 33 41  1  1  0  0  0
 33 35  1  0  0  0  0
 34 33  1  0  0  0  0
 35 36  2  0  0  0  0
 35 37  1  0  0  0  0
 40 32  1  0  0  0  0
 42 34  1  0  0  0  0
M  END
$$$$
