DET.pdb
 OpenBabel07022418133D

 45 44  0  0  1  0  0  0  0  0999 V2000
    0.3120   -2.3500    3.1690 N   0  0  0  0  0  0  0  0  0  0  0  0
   -0.6850   -1.3100    3.4560 C   0  0  1  0  0  0  0  0  0  0  0  0
   -0.3460   -0.7930    4.8270 C   0  0  0  0  0  0  0  0  0  0  0  0
   -1.2400    0.2520    5.3310 C   0  0  0  0  0  0  0  0  0  0  0  0
   -0.8900    0.8440    6.4010 O   0  0  0  0  0  0  0  0  0  0  0  0
   -0.6450   -0.2750    2.3960 C   0  0  0  0  0  0  0  0  0  0  0  0
   -1.4370    0.6840    2.3430 O   0  0  0  0  0  0  0  0  0  0  0  0
   -2.4070    0.6060    4.7110 O   0  0  0  0  0  0  0  0  0  0  0  0
    0.1340   -2.7910    2.2520 H   0  0  0  0  0  0  0  0  0  0  0  0
    1.2740   -1.9910    3.3150 H   0  0  0  0  0  0  0  0  0  0  0  0
   -1.6550   -1.7910    3.4840 H   0  0  0  0  0  0  0  0  0  0  0  0
   -0.4050   -1.6980    5.5030 H   0  0  0  0  0  0  0  0  0  0  0  0
    0.7260   -0.4940    4.8740 H   0  0  0  0  0  0  0  0  0  0  0  0
   -2.8540    1.4830    5.0070 H   0  0  0  0  0  0  0  0  0  0  0  0
    0.3420   -0.3270    1.3430 N   0  0  0  0  0  0  0  0  0  0  0  0
    0.3840    0.6720    0.3150 C   0  0  1  0  0  0  0  0  0  0  0  0
    1.6700    1.4230    0.2530 C   0  0  0  0  0  0  0  0  0  0  0  0
    2.0480    2.1770    1.4800 C   0  0  0  0  0  0  0  0  0  0  0  0
    1.0840    3.2230    1.8810 C   0  0  0  0  0  0  0  0  0  0  0  0
    0.0240    3.4980    1.2760 O   0  0  0  0  0  0  0  0  0  0  0  0
    0.1740    0.0780   -1.0490 C   0  0  0  0  0  0  0  0  0  0  0  0
    0.1750    0.7870   -2.0820 O   0  0  0  0  0  0  0  0  0  0  0  0
    1.3610    3.9720    3.0190 O   0  0  0  0  0  0  0  0  0  0  0  0
    1.0220   -1.1170    1.3590 H   0  0  0  0  0  0  0  0  0  0  0  0
   -0.4490    1.3960    0.4460 H   0  0  0  0  0  0  0  0  0  0  0  0
    1.5450    2.1890   -0.5690 H   0  0  0  0  0  0  0  0  0  0  0  0
    2.5000    0.7760   -0.1180 H   0  0  0  0  0  0  0  0  0  0  0  0
    2.3000    1.5110    2.3350 H   0  0  0  0  0  0  0  0  0  0  0  0
    3.0040    2.7220    1.2310 H   0  0  0  0  0  0  0  0  0  0  0  0
    0.6070    4.3610    3.5840 H   0  0  0  0  0  0  0  0  0  0  0  0
    2.1480   -2.6090   -2.8500 C   0  0  0  0  0  0  0  0  0  0  0  0
    0.7070   -2.9840   -2.8270 C   0  0  1  0  0  0  0  0  0  0  0  0
    0.4870   -4.0000   -1.9150 O   0  0  0  0  0  0  0  0  0  0  0  0
   -0.2300   -1.8540   -2.5300 C   0  0  2  0  0  0  0  0  0  0  0  0
   -0.0310   -1.3200   -1.1790 N   0  0  0  0  0  0  0  0  0  0  0  0
   -1.6070   -2.4020   -2.5790 C   0  0  0  0  0  0  0  0  0  0  0  0
   -2.0000   -2.9210   -3.6480 O   0  0  0  0  0  0  0  0  0  0  0  0
   -2.4770   -2.3710   -1.5060 O   0  0  0  0  0  0  0  0  0  0  0  0
    2.7370   -3.5640   -2.7180 H   0  0  0  0  0  0  0  0  0  0  0  0
    2.4860   -2.2010   -3.8270 H   0  0  0  0  0  0  0  0  0  0  0  0
    2.4470   -1.9630   -2.0000 H   0  0  0  0  0  0  0  0  0  0  0  0
    0.4240   -3.3860   -3.8250 H   0  0  0  0  0  0  0  0  0  0  0  0
   -0.1600   -3.7930   -1.2230 H   0  0  0  0  0  0  0  0  0  0  0  0
   -0.1750   -1.0480   -3.2840 H   0  0  0  0  0  0  0  0  0  0  0  0
   -0.0390   -1.9410   -0.3410 H   0  0  0  0  0  0  0  0  0  0  0  0
  1 10  1  0  0  0  0
  1  2  1  0  0  0  0
  2 11  1  1  0  0  0
  2  3  1  0  0  0  0
  3 13  1  0  0  0  0
  3  4  1  0  0  0  0
  3 12  1  0  0  0  0
  4  5  2  0  0  0  0
  6  2  1  0  0  0  0
  7  6  2  0  0  0  0
  8 14  1  0  0  0  0
  8  4  1  0  0  0  0
  9  1  1  0  0  0  0
 15 24  1  0  0  0  0
 15  6  1  0  0  0  0
 16 25  1  1  0  0  0
 16 15  1  0  0  0  0
 17 16  1  0  0  0  0
 17 18  1  0  0  0  0
 18 19  1  0  0  0  0
 18 28  1  0  0  0  0
 19 23  1  0  0  0  0
 20 19  2  0  0  0  0
 21 16  1  0  0  0  0
 22 21  2  0  0  0  0
 23 30  1  0  0  0  0
 26 17  1  0  0  0  0
 27 17  1  0  0  0  0
 29 18  1  0  0  0  0
 31 32  1  0  0  0  0
 31 39  1  0  0  0  0
 31 41  1  0  0  0  0
 32 42  1  6  0  0  0
 32 34  1  0  0  0  0
 32 33  1  0  0  0  0
 33 43  1  0  0  0  0
 34 44  1  6  0  0  0
 34 35  1  0  0  0  0
 35 21  1  0  0  0  0
 35 45  1  0  0  0  0
 36 34  1  0  0  0  0
 36 38  1  0  0  0  0
 37 36  2  0  0  0  0
 40 31  1  0  0  0  0
M  END
$$$$
