DFD.pdb
 OpenBabel07022418153D

 48 48  0  0  1  0  0  0  0  0999 V2000
    4.1130    1.4120   -0.0080 N   0  0  0  0  0  0  0  0  0  0  0  0
    2.6850    1.7480   -0.2040 C   0  0  1  0  0  0  0  0  0  0  0  0
    2.5610    2.0700   -1.6800 C   0  0  0  0  0  0  0  0  0  0  0  0
    1.1980    2.4390   -2.0890 C   0  0  0  0  0  0  0  0  0  0  0  0
    0.3390    1.5440   -2.2430 O   0  0  0  0  0  0  0  0  0  0  0  0
    1.9090    0.5860    0.2240 C   0  0  0  0  0  0  0  0  0  0  0  0
    2.5000   -0.5420    0.3650 O   0  0  0  0  0  0  0  0  0  0  0  0
    0.8310    3.7560   -2.3120 O   0  0  0  0  0  0  0  0  0  0  0  0
    4.6010    1.2550   -0.9090 H   0  0  0  0  0  0  0  0  0  0  0  0
    4.2070    0.5420    0.5640 H   0  0  0  0  0  0  0  0  0  0  0  0
    2.5090    2.6810    0.3540 H   0  0  0  0  0  0  0  0  0  0  0  0
    2.9990    1.2750   -2.3200 H   0  0  0  0  0  0  0  0  0  0  0  0
    3.2210    2.9670   -1.8490 H   0  0  0  0  0  0  0  0  0  0  0  0
   -0.1270    3.9610   -2.6380 H   0  0  0  0  0  0  0  0  0  0  0  0
    0.5190    0.5530    0.5190 N   0  0  0  0  0  0  0  0  0  0  0  0
   -0.1510   -0.6540    0.9310 C   0  0  1  0  0  0  0  0  0  0  0  0
   -0.5720   -0.4210    2.3890 C   0  0  0  0  0  0  0  0  0  0  0  0
    0.6500   -0.1840    3.1580 C   0  0  0  0  0  0  0  0  0  0  0  0
    1.1730    1.0980    3.2820 C   0  0  0  0  0  0  0  0  0  0  0  0
    2.3150    1.2630    4.0200 C   0  0  0  0  0  0  0  0  0  0  0  0
    2.9280    0.2010    4.6200 C   0  0  0  0  0  0  0  0  0  0  0  0
    2.4040   -1.0880    4.4960 C   0  0  0  0  0  0  0  0  0  0  0  0
    1.2620   -1.2820    3.7640 C   0  0  0  0  0  0  0  0  0  0  0  0
   -1.3640   -0.9630    0.1420 C   0  0  0  0  0  0  0  0  0  0  0  0
   -1.7760   -0.1510   -0.7520 O   0  0  0  0  0  0  0  0  0  0  0  0
   -0.0150    1.4380    0.4380 H   0  0  0  0  0  0  0  0  0  0  0  0
    0.5030   -1.5460    0.9040 H   0  0  0  0  0  0  0  0  0  0  0  0
   -1.1160   -1.3300    2.7510 H   0  0  0  0  0  0  0  0  0  0  0  0
   -1.2910    0.4010    2.3730 H   0  0  0  0  0  0  0  0  0  0  0  0
    0.6560    1.9130    2.7900 H   0  0  0  0  0  0  0  0  0  0  0  0
    2.7330    2.2450    4.1250 H   0  0  0  0  0  0  0  0  0  0  0  0
    3.8280    0.2960    5.2080 H   0  0  0  0  0  0  0  0  0  0  0  0
    2.9060   -1.8990    4.9780 H   0  0  0  0  0  0  0  0  0  0  0  0
    0.8760   -2.2950    3.6840 H   0  0  0  0  0  0  0  0  0  0  0  0
   -2.1450   -2.1340    0.2960 N   0  0  0  0  0  0  0  0  0  0  0  0
   -3.3180   -2.4490   -0.4460 C   0  0  1  0  0  0  0  0  0  0  0  0
   -3.1040   -3.5020   -1.5160 C   0  0  0  0  0  0  0  0  0  0  0  0
   -2.6330   -4.7690   -0.9050 C   0  0  0  0  0  0  0  0  0  0  0  0
   -2.4480   -4.9070    0.3270 O   0  0  0  0  0  0  0  0  0  0  0  0
   -4.5120   -2.7810    0.3290 C   0  0  0  0  0  0  0  0  0  0  0  0
   -5.5570   -3.0480   -0.3100 O   0  0  0  0  0  0  0  0  0  0  0  0
   -2.3810   -5.8620   -1.7260 O   0  0  0  0  0  0  0  0  0  0  0  0
   -4.5470   -2.8180    1.7040 O   0  0  0  0  0  0  0  0  0  0  0  0
   -1.7740   -2.7960    1.0470 H   0  0  0  0  0  0  0  0  0  0  0  0
   -3.5610   -1.5110   -1.0400 H   0  0  0  0  0  0  0  0  0  0  0  0
   -4.0780   -3.7180   -2.0050 H   0  0  0  0  0  0  0  0  0  0  0  0
   -2.4510   -3.1240   -2.3260 H   0  0  0  0  0  0  0  0  0  0  0  0
   -1.6970   -6.5340   -1.4110 H   0  0  0  0  0  0  0  0  0  0  0  0
  1 10  1  0  0  0  0
  2  1  1  0  0  0  0
  2  6  1  0  0  0  0
  2 11  1  1  0  0  0
  3  2  1  0  0  0  0
  4  3  1  0  0  0  0
  5  4  2  0  0  0  0
  6  7  2  0  0  0  0
  6 15  1  0  0  0  0
  8  4  1  0  0  0  0
  9  1  1  0  0  0  0
 12  3  1  0  0  0  0
 13  3  1  0  0  0  0
 14  8  1  0  0  0  0
 15 16  1  0  0  0  0
 16 27  1  6  0  0  0
 16 17  1  0  0  0  0
 17 28  1  0  0  0  0
 17 18  1  0  0  0  0
 18 19  2  0  0  0  0
 18 23  1  0  0  0  0
 19 20  1  0  0  0  0
 20 31  1  0  0  0  0
 20 21  2  0  0  0  0
 21 32  1  0  0  0  0
 22 21  1  0  0  0  0
 22 33  1  0  0  0  0
 23 22  2  0  0  0  0
 24 35  1  0  0  0  0
 24 16  1  0  0  0  0
 25 24  2  0  0  0  0
 26 15  1  0  0  0  0
 29 17  1  0  0  0  0
 30 19  1  0  0  0  0
 34 23  1  0  0  0  0
 35 44  1  0  0  0  0
 36 45  1  6  0  0  0
 36 35  1  0  0  0  0
 36 40  1  0  0  0  0
 37 38  1  0  0  0  0
 37 36  1  0  0  0  0
 38 39  2  0  0  0  0
 40 43  1  0  0  0  0
 41 40  2  0  0  0  0
 42 48  1  0  0  0  0
 42 38  1  0  0  0  0
 46 37  1  0  0  0  0
 47 37  1  0  0  0  0
M  END
$$$$
