DFE.pdb
 OpenBabel07022418153D

 51 51  0  0  1  0  0  0  0  0999 V2000
    4.0870   -1.6020    1.0820 N   0  0  0  0  0  0  0  0  0  0  0  0
    3.1520   -1.7080    2.1510 C   0  0  1  0  0  0  0  0  0  0  0  0
    3.5470   -0.9880    3.4170 C   0  0  0  0  0  0  0  0  0  0  0  0
    3.7310    0.4630    3.2610 C   0  0  0  0  0  0  0  0  0  0  0  0
    3.5620    1.0320    2.1630 O   0  0  0  0  0  0  0  0  0  0  0  0
    1.7760   -1.3040    1.7960 C   0  0  0  0  0  0  0  0  0  0  0  0
    0.8800   -1.2760    2.6780 O   0  0  0  0  0  0  0  0  0  0  0  0
    4.1030    1.2020    4.3700 O   0  0  0  0  0  0  0  0  0  0  0  0
    4.9170   -2.2230    1.3220 H   0  0  0  0  0  0  0  0  0  0  0  0
    4.5090   -0.6660    0.9250 H   0  0  0  0  0  0  0  0  0  0  0  0
    3.1700   -2.8130    2.4450 H   0  0  0  0  0  0  0  0  0  0  0  0
    2.7460   -1.1080    4.2060 H   0  0  0  0  0  0  0  0  0  0  0  0
    4.4430   -1.4620    3.8940 H   0  0  0  0  0  0  0  0  0  0  0  0
    4.4470    2.1670    4.3020 H   0  0  0  0  0  0  0  0  0  0  0  0
    1.3690   -0.9280    0.4660 N   0  0  0  0  0  0  0  0  0  0  0  0
    0.0220   -0.5470    0.1530 C   0  0  1  0  0  0  0  0  0  0  0  0
   -0.1370    0.7360   -0.5870 C   0  0  0  0  0  0  0  0  0  0  0  0
    0.3870    1.9310    0.1050 C   0  0  0  0  0  0  0  0  0  0  0  0
    1.6770    2.3890   -0.0680 C   0  0  0  0  0  0  0  0  0  0  0  0
    2.1450    3.5070    0.5880 C   0  0  0  0  0  0  0  0  0  0  0  0
    1.3580    4.2370    1.4550 C   0  0  0  0  0  0  0  0  0  0  0  0
    0.0690    3.7750    1.6240 C   0  0  0  0  0  0  0  0  0  0  0  0
   -0.4140    2.6640    0.9790 C   0  0  0  0  0  0  0  0  0  0  0  0
   -0.5900   -1.6920   -0.6130 C   0  0  0  0  0  0  0  0  0  0  0  0
    0.1070   -2.7060   -0.8380 O   0  0  0  0  0  0  0  0  0  0  0  0
    2.1270   -0.9530   -0.2500 H   0  0  0  0  0  0  0  0  0  0  0  0
   -0.6200   -0.4830    1.0760 H   0  0  0  0  0  0  0  0  0  0  0  0
   -1.2070    0.9110   -0.7950 H   0  0  0  0  0  0  0  0  0  0  0  0
    0.3580    0.7190   -1.5940 H   0  0  0  0  0  0  0  0  0  0  0  0
    2.3170    1.8360   -0.7420 H   0  0  0  0  0  0  0  0  0  0  0  0
    3.1710    3.8720    0.4510 H   0  0  0  0  0  0  0  0  0  0  0  0
    1.7090    5.1140    1.9770 H   0  0  0  0  0  0  0  0  0  0  0  0
   -0.5960    4.3230    2.3050 H   0  0  0  0  0  0  0  0  0  0  0  0
   -1.4290    2.2890    1.1040 H   0  0  0  0  0  0  0  0  0  0  0  0
   -1.9330   -1.6400   -1.0790 N   0  0  0  0  0  0  0  0  0  0  0  0
   -2.5520   -2.7240   -1.8190 C   0  0  1  0  0  0  0  0  0  0  0  0
   -3.7050   -3.2250   -0.9750 C   0  0  0  0  0  0  0  0  0  0  0  0
   -3.1860   -3.7230    0.3800 C   0  0  0  0  0  0  0  0  0  0  0  0
   -4.3260   -4.2130    1.2040 C   0  0  0  0  0  0  0  0  0  0  0  0
   -5.5060   -4.1800    0.7650 O   0  0  0  0  0  0  0  0  0  0  0  0
   -3.1040   -2.2730   -3.1130 C   0  0  0  0  0  0  0  0  0  0  0  0
   -3.6630   -3.1410   -3.8320 O   0  0  0  0  0  0  0  0  0  0  0  0
   -4.1370   -4.7210    2.4790 O   0  0  0  0  0  0  0  0  0  0  0  0
   -3.0540   -0.9850   -3.5870 O   0  0  0  0  0  0  0  0  0  0  0  0
   -2.4600   -0.7670   -0.8580 H   0  0  0  0  0  0  0  0  0  0  0  0
   -1.8720   -3.5700   -1.9730 H   0  0  0  0  0  0  0  0  0  0  0  0
   -4.4200   -2.3960   -0.7250 H   0  0  0  0  0  0  0  0  0  0  0  0
   -4.2870   -4.0240   -1.4690 H   0  0  0  0  0  0  0  0  0  0  0  0
   -2.4980   -4.5900    0.2450 H   0  0  0  0  0  0  0  0  0  0  0  0
   -2.6460   -2.8960    0.8820 H   0  0  0  0  0  0  0  0  0  0  0  0
   -4.8510   -4.7570    3.1910 H   0  0  0  0  0  0  0  0  0  0  0  0
  1  9  1  0  0  0  0
  1  2  1  0  0  0  0
  2 11  1  1  0  0  0
  2  3  1  0  0  0  0
  3 13  1  0  0  0  0
  3 12  1  0  0  0  0
  4  3  1  0  0  0  0
  4  8  1  0  0  0  0
  5  4  2  0  0  0  0
  6  2  1  0  0  0  0
  6  7  2  0  0  0  0
 10  1  1  0  0  0  0
 14  8  1  0  0  0  0
 15  6  1  0  0  0  0
 16 15  1  0  0  0  0
 16 27  1  1  0  0  0
 17 18  1  0  0  0  0
 17 16  1  0  0  0  0
 18 23  1  0  0  0  0
 19 18  2  0  0  0  0
 19 20  1  0  0  0  0
 20 21  2  0  0  0  0
 21 22  1  0  0  0  0
 21 32  1  0  0  0  0
 22 33  1  0  0  0  0
 23 34  1  0  0  0  0
 23 22  2  0  0  0  0
 24 16  1  0  0  0  0
 25 24  2  0  0  0  0
 26 15  1  0  0  0  0
 28 17  1  0  0  0  0
 29 17  1  0  0  0  0
 30 19  1  0  0  0  0
 31 20  1  0  0  0  0
 35 45  1  0  0  0  0
 35 24  1  0  0  0  0
 36 46  1  6  0  0  0
 36 35  1  0  0  0  0
 36 37  1  0  0  0  0
 37 47  1  0  0  0  0
 37 38  1  0  0  0  0
 38 50  1  0  0  0  0
 38 39  1  0  0  0  0
 39 43  1  0  0  0  0
 40 39  2  0  0  0  0
 41 36  1  0  0  0  0
 42 41  2  0  0  0  0
 43 51  1  0  0  0  0
 44 41  1  0  0  0  0
 48 37  1  0  0  0  0
 49 38  1  0  0  0  0
M  END
$$$$
