DFF.pdb
 OpenBabel07022418153D

 55 56  0  0  1  0  0  0  0  0999 V2000
    4.8720    0.6450    1.8600 N   0  0  0  0  0  0  0  0  0  0  0  0
    4.4540   -0.5250    2.5920 C   0  0  1  0  0  0  0  0  0  0  0  0
    4.6730   -0.2990    4.0600 C   0  0  0  0  0  0  0  0  0  0  0  0
    3.8820    0.8830    4.5490 C   0  0  0  0  0  0  0  0  0  0  0  0
    3.1580    1.5330    3.7430 O   0  0  0  0  0  0  0  0  0  0  0  0
    3.0170   -0.7960    2.2840 C   0  0  0  0  0  0  0  0  0  0  0  0
    2.4310   -1.7860    2.8210 O   0  0  0  0  0  0  0  0  0  0  0  0
    3.9240    1.2850    5.8680 O   0  0  0  0  0  0  0  0  0  0  0  0
    5.7220    1.0970    2.2600 H   0  0  0  0  0  0  0  0  0  0  0  0
    4.8950    0.5310    0.8430 H   0  0  0  0  0  0  0  0  0  0  0  0
    5.0910   -1.3780    2.2820 H   0  0  0  0  0  0  0  0  0  0  0  0
    4.3940   -1.1830    4.6630 H   0  0  0  0  0  0  0  0  0  0  0  0
    5.7540   -0.1000    4.2040 H   0  0  0  0  0  0  0  0  0  0  0  0
    3.8380    2.2780    6.0860 H   0  0  0  0  0  0  0  0  0  0  0  0
    2.2570    0.0010    1.4130 N   0  0  0  0  0  0  0  0  0  0  0  0
    0.8360   -0.2830    1.1200 C   0  0  1  0  0  0  0  0  0  0  0  0
    0.1230    0.9530    1.5990 C   0  0  0  0  0  0  0  0  0  0  0  0
   -1.3190    0.9820    1.4590 C   0  0  0  0  0  0  0  0  0  0  0  0
   -1.9130    1.5620    0.3690 C   0  0  0  0  0  0  0  0  0  0  0  0
   -3.2790    1.6190    0.1960 C   0  0  0  0  0  0  0  0  0  0  0  0
   -4.0840    1.0720    1.1570 C   0  0  0  0  0  0  0  0  0  0  0  0
   -3.5340    0.4790    2.2710 C   0  0  0  0  0  0  0  0  0  0  0  0
   -2.1670    0.4320    2.4230 C   0  0  0  0  0  0  0  0  0  0  0  0
    0.7280   -0.4620   -0.3280 C   0  0  0  0  0  0  0  0  0  0  0  0
    1.7650   -0.2150   -1.0430 O   0  0  0  0  0  0  0  0  0  0  0  0
    2.6720    0.8150    0.9470 H   0  0  0  0  0  0  0  0  0  0  0  0
    0.5380   -1.1880    1.6960 H   0  0  0  0  0  0  0  0  0  0  0  0
    0.5430    1.8050    0.9770 H   0  0  0  0  0  0  0  0  0  0  0  0
    0.4670    1.2150    2.6360 H   0  0  0  0  0  0  0  0  0  0  0  0
   -1.2890    2.0070   -0.4150 H   0  0  0  0  0  0  0  0  0  0  0  0
   -3.6710    2.0980   -0.6980 H   0  0  0  0  0  0  0  0  0  0  0  0
   -5.1630    1.1300    0.9980 H   0  0  0  0  0  0  0  0  0  0  0  0
   -4.2080    0.0490    3.0230 H   0  0  0  0  0  0  0  0  0  0  0  0
   -1.7270   -0.0310    3.2920 H   0  0  0  0  0  0  0  0  0  0  0  0
   -0.4480   -0.8970   -0.9970 N   0  0  0  0  0  0  0  0  0  0  0  0
   -0.4440   -1.0550   -2.4250 C   0  0  1  0  0  0  0  0  0  0  0  0
   -0.5000   -2.5440   -2.7240 C   0  0  0  0  0  0  0  0  0  0  0  0
   -1.6930   -3.1950   -2.1870 C   0  0  0  0  0  0  0  0  0  0  0  0
   -1.7020   -3.7360   -0.9200 C   0  0  0  0  0  0  0  0  0  0  0  0
   -2.8680   -4.3330   -0.4880 C   0  0  0  0  0  0  0  0  0  0  0  0
   -4.0000   -4.4090   -1.2560 C   0  0  0  0  0  0  0  0  0  0  0  0
   -3.9890   -3.8670   -2.5230 C   0  0  0  0  0  0  0  0  0  0  0  0
   -2.8220   -3.2600   -2.9760 C   0  0  0  0  0  0  0  0  0  0  0  0
   -1.4370   -0.2940   -3.1660 C   0  0  0  0  0  0  0  0  0  0  0  0
   -2.2730    0.4650   -2.6340 O   0  0  0  0  0  0  0  0  0  0  0  0
   -1.4890   -0.3880   -4.5550 O   0  0  0  0  0  0  0  0  0  0  0  0
   -1.2960   -1.1020   -0.4130 H   0  0  0  0  0  0  0  0  0  0  0  0
    0.5670   -0.7380   -2.7990 H   0  0  0  0  0  0  0  0  0  0  0  0
   -0.4880   -2.6790   -3.8270 H   0  0  0  0  0  0  0  0  0  0  0  0
    0.4270   -2.9980   -2.3120 H   0  0  0  0  0  0  0  0  0  0  0  0
   -0.8450   -3.7130   -0.2610 H   0  0  0  0  0  0  0  0  0  0  0  0
   -2.9360   -4.7830    0.5120 H   0  0  0  0  0  0  0  0  0  0  0  0
   -4.9100   -4.8840   -0.8970 H   0  0  0  0  0  0  0  0  0  0  0  0
   -4.8650   -3.9050   -3.1640 H   0  0  0  0  0  0  0  0  0  0  0  0
   -2.8560   -2.8440   -3.9830 H   0  0  0  0  0  0  0  0  0  0  0  0
  1  9  1  0  0  0  0
  1  2  1  0  0  0  0
  2 11  1  6  0  0  0
  2  3  1  0  0  0  0
  3 13  1  0  0  0  0
  3  4  1  0  0  0  0
  3 12  1  0  0  0  0
  4  8  1  0  0  0  0
  5  4  2  0  0  0  0
  6  2  1  0  0  0  0
  6  7  2  0  0  0  0
  8 14  1  0  0  0  0
 10  1  1  0  0  0  0
 15  6  1  0  0  0  0
 16 15  1  0  0  0  0
 16 17  1  0  0  0  0
 16 27  1  1  0  0  0
 17 29  1  0  0  0  0
 18 17  1  0  0  0  0
 18 23  1  0  0  0  0
 19 18  2  0  0  0  0
 20 19  1  0  0  0  0
 20 21  2  0  0  0  0
 21 22  1  0  0  0  0
 22 23  2  0  0  0  0
 22 33  1  0  0  0  0
 23 34  1  0  0  0  0
 24 16  1  0  0  0  0
 25 24  2  0  0  0  0
 26 15  1  0  0  0  0
 28 17  1  0  0  0  0
 30 19  1  0  0  0  0
 31 20  1  0  0  0  0
 32 21  1  0  0  0  0
 35 47  1  0  0  0  0
 35 24  1  0  0  0  0
 36 48  1  6  0  0  0
 36 35  1  0  0  0  0
 37 36  1  0  0  0  0
 37 50  1  0  0  0  0
 37 38  1  0  0  0  0
 38 39  1  0  0  0  0
 39 40  2  0  0  0  0
 39 51  1  0  0  0  0
 40 52  1  0  0  0  0
 41 53  1  0  0  0  0
 41 40  1  0  0  0  0
 42 41  2  0  0  0  0
 43 42  1  0  0  0  0
 43 38  2  0  0  0  0
 44 45  1  0  0  0  0
 44 36  1  0  0  0  0
 46 44  2  0  0  0  0
 49 37  1  0  0  0  0
 54 42  1  0  0  0  0
 55 43  1  0  0  0  0
M  END
$$$$
