DFG.pdb
 OpenBabel07022418153D

 42 42  0  0  1  0  0  0  0  0999 V2000
   -2.5620   -2.8130   -0.3190 N   0  0  0  0  0  0  0  0  0  0  0  0
   -1.3460   -3.0680    0.3870 C   0  0  1  0  0  0  0  0  0  0  0  0
   -1.1450   -4.5310    0.6000 C   0  0  0  0  0  0  0  0  0  0  0  0
    0.1010   -4.8400    1.3310 C   0  0  0  0  0  0  0  0  0  0  0  0
    1.1960   -4.8850    0.7220 O   0  0  0  0  0  0  0  0  0  0  0  0
   -0.1700   -2.4530   -0.2890 C   0  0  0  0  0  0  0  0  0  0  0  0
    0.5510   -3.1080   -1.0900 O   0  0  0  0  0  0  0  0  0  0  0  0
    0.0820   -5.0830    2.6940 O   0  0  0  0  0  0  0  0  0  0  0  0
   -3.1730   -3.6600   -0.2260 H   0  0  0  0  0  0  0  0  0  0  0  0
   -3.0660   -1.9560   -0.0440 H   0  0  0  0  0  0  0  0  0  0  0  0
   -1.4340   -2.6030    1.4080 H   0  0  0  0  0  0  0  0  0  0  0  0
   -1.2300   -5.0890   -0.3620 H   0  0  0  0  0  0  0  0  0  0  0  0
   -2.0030   -4.9100    1.2280 H   0  0  0  0  0  0  0  0  0  0  0  0
    0.9310   -4.8430    3.2090 H   0  0  0  0  0  0  0  0  0  0  0  0
    0.2130   -1.1030   -0.0760 N   0  0  0  0  0  0  0  0  0  0  0  0
    1.3710   -0.5150   -0.7460 C   0  0  1  0  0  0  0  0  0  0  0  0
    0.8870    0.6810   -1.5390 C   0  0  0  0  0  0  0  0  0  0  0  0
    0.2480    1.7190   -0.7000 C   0  0  0  0  0  0  0  0  0  0  0  0
    0.9830    2.7560   -0.1690 C   0  0  0  0  0  0  0  0  0  0  0  0
    0.3970    3.7460    0.6290 C   0  0  0  0  0  0  0  0  0  0  0  0
   -0.9490    3.6690    0.8820 C   0  0  0  0  0  0  0  0  0  0  0  0
   -1.7240    2.6560    0.3750 C   0  0  0  0  0  0  0  0  0  0  0  0
   -1.1140    1.6950   -0.4090 C   0  0  0  0  0  0  0  0  0  0  0  0
    2.3440   -0.0380    0.2610 C   0  0  0  0  0  0  0  0  0  0  0  0
    3.4030    0.4930   -0.1420 O   0  0  0  0  0  0  0  0  0  0  0  0
   -0.3570   -0.5260    0.5760 H   0  0  0  0  0  0  0  0  0  0  0  0
    1.8330   -1.2560   -1.4430 H   0  0  0  0  0  0  0  0  0  0  0  0
    1.7300    1.1750   -2.0820 H   0  0  0  0  0  0  0  0  0  0  0  0
    0.1580    0.3600   -2.3300 H   0  0  0  0  0  0  0  0  0  0  0  0
    2.0460    2.8470   -0.3520 H   0  0  0  0  0  0  0  0  0  0  0  0
    1.0090    4.5470    1.0300 H   0  0  0  0  0  0  0  0  0  0  0  0
   -1.4090    4.4250    1.4940 H   0  0  0  0  0  0  0  0  0  0  0  0
   -2.7890    2.5760    0.5620 H   0  0  0  0  0  0  0  0  0  0  0  0
   -1.7100    0.8930   -0.8130 H   0  0  0  0  0  0  0  0  0  0  0  0
    2.0430   -0.1980    1.6360 N   0  0  0  0  0  0  0  0  0  0  0  0
    2.9720    0.2560    2.6590 C   0  0  0  0  0  0  0  0  0  0  0  0
    2.4340   -0.0230    4.0000 C   0  0  0  0  0  0  0  0  0  0  0  0
    1.3110   -0.5810    4.0990 O   0  0  0  0  0  0  0  0  0  0  0  0
    3.0940    0.2950    5.1750 O   0  0  0  0  0  0  0  0  0  0  0  0
    1.1320   -0.6560    1.9420 H   0  0  0  0  0  0  0  0  0  0  0  0
    3.9200   -0.3110    2.4880 H   0  0  0  0  0  0  0  0  0  0  0  0
    3.1640    1.3480    2.6020 H   0  0  0  0  0  0  0  0  0  0  0  0
  1  9  1  0  0  0  0
  1 10  1  0  0  0  0
  1  2  1  0  0  0  0
  2  3  1  0  0  0  0
  2 11  1  1  0  0  0
  3 13  1  0  0  0  0
  3  4  1  0  0  0  0
  4  8  1  0  0  0  0
  5  4  2  0  0  0  0
  6 15  1  0  0  0  0
  6  2  1  0  0  0  0
  7  6  2  0  0  0  0
  8 14  1  0  0  0  0
 12  3  1  0  0  0  0
 15 26  1  0  0  0  0
 16 27  1  6  0  0  0
 16 15  1  0  0  0  0
 16 24  1  0  0  0  0
 17 16  1  0  0  0  0
 17 18  1  0  0  0  0
 18 23  2  0  0  0  0
 18 19  1  0  0  0  0
 19 20  2  0  0  0  0
 20 21  1  0  0  0  0
 20 31  1  0  0  0  0
 21 32  1  0  0  0  0
 22 33  1  0  0  0  0
 22 21  2  0  0  0  0
 23 22  1  0  0  0  0
 24 35  1  0  0  0  0
 25 24  2  0  0  0  0
 28 17  1  0  0  0  0
 29 17  1  0  0  0  0
 30 19  1  0  0  0  0
 34 23  1  0  0  0  0
 35 40  1  0  0  0  0
 35 36  1  0  0  0  0
 36 37  1  0  0  0  0
 37 38  2  0  0  0  0
 37 39  1  0  0  0  0
 41 36  1  0  0  0  0
 42 36  1  0  0  0  0
M  END
$$$$
