DFH.pdb
 OpenBabel07022418153D

 52 53  0  0  1  0  0  0  0  0999 V2000
    3.5780   -2.1030    1.7570 N   0  0  0  0  0  0  0  0  0  0  0  0
    2.8050   -1.4230    2.7280 C   0  0  1  0  0  0  0  0  0  0  0  0
    3.5830   -0.3970    3.5300 C   0  0  0  0  0  0  0  0  0  0  0  0
    4.1750    0.6440    2.6870 C   0  0  0  0  0  0  0  0  0  0  0  0
    4.7560    1.6150    3.2240 O   0  0  0  0  0  0  0  0  0  0  0  0
    1.5100   -0.8930    2.3480 C   0  0  0  0  0  0  0  0  0  0  0  0
    0.8690   -0.2820    3.2740 O   0  0  0  0  0  0  0  0  0  0  0  0
    4.1030    0.5730    1.3190 O   0  0  0  0  0  0  0  0  0  0  0  0
    3.1310   -2.3790    0.8880 H   0  0  0  0  0  0  0  0  0  0  0  0
    4.1470   -2.8760    2.1770 H   0  0  0  0  0  0  0  0  0  0  0  0
    2.5670   -2.2250    3.5160 H   0  0  0  0  0  0  0  0  0  0  0  0
    2.8450    0.0580    4.2470 H   0  0  0  0  0  0  0  0  0  0  0  0
    4.3580   -0.9640    4.1040 H   0  0  0  0  0  0  0  0  0  0  0  0
    4.6410    1.1520    0.6980 H   0  0  0  0  0  0  0  0  0  0  0  0
    0.8630   -0.9620    1.0980 N   0  0  0  0  0  0  0  0  0  0  0  0
   -0.4430   -0.3920    0.8790 C   0  0  1  0  0  0  0  0  0  0  0  0
   -0.5230    0.5690   -0.2320 C   0  0  0  0  0  0  0  0  0  0  0  0
    0.3740    1.7180   -0.0010 C   0  0  0  0  0  0  0  0  0  0  0  0
    1.6760    1.7860   -0.4410 C   0  0  0  0  0  0  0  0  0  0  0  0
    2.4640    2.9020   -0.1940 C   0  0  0  0  0  0  0  0  0  0  0  0
    1.9840    3.9890    0.5010 C   0  0  0  0  0  0  0  0  0  0  0  0
    0.6760    3.9360    0.9510 C   0  0  0  0  0  0  0  0  0  0  0  0
   -0.1040    2.8270    0.7040 C   0  0  0  0  0  0  0  0  0  0  0  0
   -1.4180   -1.5130    0.7850 C   0  0  0  0  0  0  0  0  0  0  0  0
   -0.9700   -2.6730    0.9010 O   0  0  0  0  0  0  0  0  0  0  0  0
    1.4010   -1.4570    0.3440 H   0  0  0  0  0  0  0  0  0  0  0  0
   -0.7350    0.1390    1.8380 H   0  0  0  0  0  0  0  0  0  0  0  0
   -0.2030    0.1100   -1.1930 H   0  0  0  0  0  0  0  0  0  0  0  0
   -1.5280    0.9860   -0.4240 H   0  0  0  0  0  0  0  0  0  0  0  0
    2.0530    0.9300   -0.9880 H   0  0  0  0  0  0  0  0  0  0  0  0
    3.4820    2.9380   -0.5470 H   0  0  0  0  0  0  0  0  0  0  0  0
    2.5780    4.8660    0.7050 H   0  0  0  0  0  0  0  0  0  0  0  0
    0.3070    4.8010    1.5000 H   0  0  0  0  0  0  0  0  0  0  0  0
   -1.1360    2.7930    1.0630 H   0  0  0  0  0  0  0  0  0  0  0  0
   -2.7890   -1.3350    0.5760 N   0  0  0  0  0  0  0  0  0  0  0  0
   -3.7760   -2.3520    0.4620 C   0  0  1  0  0  0  0  0  0  0  0  0
   -3.3400   -3.5980   -0.2970 C   0  0  0  0  0  0  0  0  0  0  0  0
   -2.9660   -3.3670   -1.6800 C   0  0  0  0  0  0  0  0  0  0  0  0
   -1.7690   -3.0830   -2.2340 C   0  0  0  0  0  0  0  0  0  0  0  0
   -1.9400   -2.9680   -3.5660 N   0  0  0  0  0  0  0  0  0  0  0  0
   -3.2300   -3.1760   -3.8580 C   0  0  0  0  0  0  0  0  0  0  0  0
   -3.8610   -3.4200   -2.7130 N   0  0  0  0  0  0  0  0  0  0  0  0
   -4.3790   -2.7930    1.7310 C   0  0  0  0  0  0  0  0  0  0  0  0
   -5.2560   -3.6900    1.6970 O   0  0  0  0  0  0  0  0  0  0  0  0
   -4.0310   -2.2720    2.9670 O   0  0  0  0  0  0  0  0  0  0  0  0
   -3.1130   -0.3400    0.4980 H   0  0  0  0  0  0  0  0  0  0  0  0
   -4.6300   -1.9500   -0.1790 H   0  0  0  0  0  0  0  0  0  0  0  0
   -4.2590   -4.2700   -0.2520 H   0  0  0  0  0  0  0  0  0  0  0  0
   -2.5830   -4.1540    0.2840 H   0  0  0  0  0  0  0  0  0  0  0  0
   -0.8250   -2.9660   -1.7370 H   0  0  0  0  0  0  0  0  0  0  0  0
   -1.1580   -2.7490   -4.2360 H   0  0  0  0  0  0  0  0  0  0  0  0
   -3.6580   -3.1440   -4.8720 H   0  0  0  0  0  0  0  0  0  0  0  0
  1 10  1  0  0  0  0
  1  2  1  0  0  0  0
  2 11  1  1  0  0  0
  2  3  1  0  0  0  0
  3 13  1  0  0  0  0
  3 12  1  0  0  0  0
  4  5  2  0  0  0  0
  4  3  1  0  0  0  0
  6  2  1  0  0  0  0
  6  7  2  0  0  0  0
  8  4  1  0  0  0  0
  9  1  1  0  0  0  0
 14  8  1  0  0  0  0
 15  6  1  0  0  0  0
 16 15  1  0  0  0  0
 16 27  1  1  0  0  0
 17 18  1  0  0  0  0
 17 16  1  0  0  0  0
 18 23  1  0  0  0  0
 19 20  1  0  0  0  0
 19 18  2  0  0  0  0
 20 21  2  0  0  0  0
 21 32  1  0  0  0  0
 21 22  1  0  0  0  0
 22 33  1  0  0  0  0
 23 22  2  0  0  0  0
 23 34  1  0  0  0  0
 24 16  1  0  0  0  0
 24 25  2  0  0  0  0
 26 15  1  0  0  0  0
 28 17  1  0  0  0  0
 29 17  1  0  0  0  0
 30 19  1  0  0  0  0
 31 20  1  0  0  0  0
 35 24  1  0  0  0  0
 36 47  1  6  0  0  0
 36 35  1  0  0  0  0
 36 43  1  0  0  0  0
 37 48  1  0  0  0  0
 37 49  1  0  0  0  0
 37 36  1  0  0  0  0
 38 37  1  0  0  0  0
 39 50  1  0  0  0  0
 39 38  2  0  0  0  0
 40 39  1  0  0  0  0
 41 40  1  0  0  0  0
 41 42  2  0  0  0  0
 42 38  1  0  0  0  0
 43 45  1  0  0  0  0
 44 43  2  0  0  0  0
 46 35  1  0  0  0  0
 51 40  1  0  0  0  0
 52 41  1  0  0  0  0
M  END
$$$$
