DFK.pdb
 OpenBabel07022418153D

 56 56  0  0  1  0  0  0  0  0999 V2000
    3.9110   -2.3180    3.9430 N   0  0  0  0  0  0  0  0  0  0  0  0
    3.5360   -1.0550    3.3330 C   0  0  1  0  0  0  0  0  0  0  0  0
    4.6140   -0.4870    2.5020 C   0  0  0  0  0  0  0  0  0  0  0  0
    5.0680   -1.3160    1.3690 C   0  0  0  0  0  0  0  0  0  0  0  0
    4.5610   -2.4280    1.1640 O   0  0  0  0  0  0  0  0  0  0  0  0
    2.1810   -1.0550    2.7380 C   0  0  0  0  0  0  0  0  0  0  0  0
    1.2440   -1.5740    3.3810 O   0  0  0  0  0  0  0  0  0  0  0  0
    6.0590   -0.8300    0.5490 O   0  0  0  0  0  0  0  0  0  0  0  0
    3.8360   -3.1210    3.2880 H   0  0  0  0  0  0  0  0  0  0  0  0
    3.2870   -2.4620    4.7850 H   0  0  0  0  0  0  0  0  0  0  0  0
    3.4190   -0.3150    4.2180 H   0  0  0  0  0  0  0  0  0  0  0  0
    4.4250    0.5710    2.2060 H   0  0  0  0  0  0  0  0  0  0  0  0
    5.5280   -0.4160    3.1830 H   0  0  0  0  0  0  0  0  0  0  0  0
    6.4390   -1.3160   -0.2620 H   0  0  0  0  0  0  0  0  0  0  0  0
    1.8890   -0.4950    1.4690 N   0  0  0  0  0  0  0  0  0  0  0  0
    0.5920   -0.4550    0.8720 C   0  0  1  0  0  0  0  0  0  0  0  0
    0.3270    0.6790   -0.0530 C   0  0  0  0  0  0  0  0  0  0  0  0
    0.4460    2.0180    0.5690 C   0  0  0  0  0  0  0  0  0  0  0  0
    1.6470    2.7310    0.6210 C   0  0  0  0  0  0  0  0  0  0  0  0
    1.7480    3.9820    1.1900 C   0  0  0  0  0  0  0  0  0  0  0  0
    0.6370    4.6040    1.7490 C   0  0  0  0  0  0  0  0  0  0  0  0
   -0.5580    3.9170    1.7080 C   0  0  0  0  0  0  0  0  0  0  0  0
   -0.6490    2.6640    1.1360 C   0  0  0  0  0  0  0  0  0  0  0  0
    0.1600   -1.7900    0.3410 C   0  0  0  0  0  0  0  0  0  0  0  0
    0.9270   -2.7580    0.5550 O   0  0  0  0  0  0  0  0  0  0  0  0
    2.6980   -0.0850    0.9340 H   0  0  0  0  0  0  0  0  0  0  0  0
   -0.1170   -0.3420    1.7710 H   0  0  0  0  0  0  0  0  0  0  0  0
    1.0010    0.6620   -0.9610 H   0  0  0  0  0  0  0  0  0  0  0  0
   -0.6980    0.6140   -0.5000 H   0  0  0  0  0  0  0  0  0  0  0  0
    2.5140    2.2360    0.1830 H   0  0  0  0  0  0  0  0  0  0  0  0
    2.6740    4.5350    1.2330 H   0  0  0  0  0  0  0  0  0  0  0  0
    0.7240    5.5860    2.1900 H   0  0  0  0  0  0  0  0  0  0  0  0
   -1.4340    4.4120    2.1520 H   0  0  0  0  0  0  0  0  0  0  0  0
   -1.6030    2.1420    1.1100 H   0  0  0  0  0  0  0  0  0  0  0  0
   -1.0280   -1.9870   -0.3540 N   0  0  0  0  0  0  0  0  0  0  0  0
   -1.4990   -3.2740   -0.8630 C   0  0  1  0  0  0  0  0  0  0  0  0
   -2.8330   -3.6440   -0.3410 C   0  0  0  0  0  0  0  0  0  0  0  0
   -3.9670   -2.7340   -0.6080 C   0  0  0  0  0  0  0  0  0  0  0  0
   -4.2340   -2.6030   -2.0820 C   0  0  0  0  0  0  0  0  0  0  0  0
   -5.3960   -1.6550   -2.3470 C   0  0  0  0  0  0  0  0  0  0  0  0
   -4.9930   -0.3620   -1.8070 N   0  0  0  0  0  0  0  0  0  0  0  0
   -1.2830   -3.4170   -2.3080 C   0  0  0  0  0  0  0  0  0  0  0  0
   -0.7240   -2.5890   -3.0690 O   0  0  0  0  0  0  0  0  0  0  0  0
   -1.7580   -4.6070   -2.8890 O   0  0  0  0  0  0  0  0  0  0  0  0
   -1.6730   -1.1790   -0.5540 H   0  0  0  0  0  0  0  0  0  0  0  0
   -0.7850   -4.0670   -0.4080 H   0  0  0  0  0  0  0  0  0  0  0  0
   -3.0530   -4.6850   -0.7460 H   0  0  0  0  0  0  0  0  0  0  0  0
   -2.7950   -3.8390    0.7800 H   0  0  0  0  0  0  0  0  0  0  0  0
   -3.8490   -1.7410   -0.1130 H   0  0  0  0  0  0  0  0  0  0  0  0
   -4.9160   -3.1620   -0.1530 H   0  0  0  0  0  0  0  0  0  0  0  0
   -4.5550   -3.6280   -2.4410 H   0  0  0  0  0  0  0  0  0  0  0  0
   -3.3770   -2.2530   -2.6630 H   0  0  0  0  0  0  0  0  0  0  0  0
   -6.3060   -2.0460   -1.8510 H   0  0  0  0  0  0  0  0  0  0  0  0
   -5.5800   -1.5540   -3.4190 H   0  0  0  0  0  0  0  0  0  0  0  0
   -5.8350    0.1500   -1.4410 H   0  0  0  0  0  0  0  0  0  0  0  0
   -4.4000    0.1740   -2.4510 H   0  0  0  0  0  0  0  0  0  0  0  0
  1 10  1  0  0  0  0
  2  1  1  0  0  0  0
  2 11  1  1  0  0  0
  3 13  1  0  0  0  0
  3  2  1  0  0  0  0
  4  3  1  0  0  0  0
  5  4  2  0  0  0  0
  6  2  1  0  0  0  0
  6  7  2  0  0  0  0
  8  4  1  0  0  0  0
  9  1  1  0  0  0  0
 12  3  1  0  0  0  0
 14  8  1  0  0  0  0
 15  6  1  0  0  0  0
 16 15  1  0  0  0  0
 16 27  1  1  0  0  0
 17 18  1  0  0  0  0
 17 16  1  0  0  0  0
 18 19  2  0  0  0  0
 18 23  1  0  0  0  0
 19 20  1  0  0  0  0
 20 31  1  0  0  0  0
 20 21  2  0  0  0  0
 21 32  1  0  0  0  0
 22 21  1  0  0  0  0
 22 33  1  0  0  0  0
 23 22  2  0  0  0  0
 24 25  2  0  0  0  0
 24 16  1  0  0  0  0
 26 15  1  0  0  0  0
 28 17  1  0  0  0  0
 29 17  1  0  0  0  0
 30 19  1  0  0  0  0
 34 23  1  0  0  0  0
 35 24  1  0  0  0  0
 36 46  1  1  0  0  0
 36 35  1  0  0  0  0
 36 37  1  0  0  0  0
 37 48  1  0  0  0  0
 38 37  1  0  0  0  0
 38 50  1  0  0  0  0
 38 49  1  0  0  0  0
 39 38  1  0  0  0  0
 40 39  1  0  0  0  0
 40 53  1  0  0  0  0
 40 41  1  0  0  0  0
 41 55  1  0  0  0  0
 42 36  1  0  0  0  0
 43 42  2  0  0  0  0
 44 42  1  0  0  0  0
 45 35  1  0  0  0  0
 47 37  1  0  0  0  0
 51 39  1  0  0  0  0
 52 39  1  0  0  0  0
 54 40  1  0  0  0  0
 56 41  1  0  0  0  0
M  END
$$$$
