DFM.pdb
 OpenBabel07022418153D

 52 52  0  0  1  0  0  0  0  0999 V2000
    4.2220   -0.1970   -0.6140 N   0  0  0  0  0  0  0  0  0  0  0  0
    2.7960    0.1830   -0.4700 C   0  0  1  0  0  0  0  0  0  0  0  0
    2.2630    0.3330   -1.8420 C   0  0  0  0  0  0  0  0  0  0  0  0
    0.8420    0.7120   -1.9240 C   0  0  0  0  0  0  0  0  0  0  0  0
    0.0050   -0.0730   -2.4060 O   0  0  0  0  0  0  0  0  0  0  0  0
    2.1740   -0.7600    0.4340 C   0  0  0  0  0  0  0  0  0  0  0  0
    2.8450   -1.7530    0.8990 O   0  0  0  0  0  0  0  0  0  0  0  0
    0.4250    1.9490   -1.4630 O   0  0  0  0  0  0  0  0  0  0  0  0
    4.7070    0.0000    0.3080 H   0  0  0  0  0  0  0  0  0  0  0  0
    4.2540   -1.2510   -0.6870 H   0  0  0  0  0  0  0  0  0  0  0  0
    2.8750    1.2270   -0.0370 H   0  0  0  0  0  0  0  0  0  0  0  0
    2.8220    1.2080   -2.3060 H   0  0  0  0  0  0  0  0  0  0  0  0
    2.5080   -0.5240   -2.5150 H   0  0  0  0  0  0  0  0  0  0  0  0
   -0.5430    2.2090   -1.6240 H   0  0  0  0  0  0  0  0  0  0  0  0
    0.8310   -0.7300    0.9140 N   0  0  0  0  0  0  0  0  0  0  0  0
    0.3130   -1.7110    1.8390 C   0  0  1  0  0  0  0  0  0  0  0  0
   -0.0160   -0.9110    3.1120 C   0  0  0  0  0  0  0  0  0  0  0  0
    1.2260   -0.2630    3.6200 C   0  0  0  0  0  0  0  0  0  0  0  0
    1.5930    1.0010    3.2140 C   0  0  0  0  0  0  0  0  0  0  0  0
    2.7440    1.6020    3.6740 C   0  0  0  0  0  0  0  0  0  0  0  0
    3.5190    0.8990    4.5540 C   0  0  0  0  0  0  0  0  0  0  0  0
    3.1630   -0.3730    4.9720 C   0  0  0  0  0  0  0  0  0  0  0  0
    2.0040   -0.9690    4.5050 C   0  0  0  0  0  0  0  0  0  0  0  0
   -0.9180   -2.3860    1.4170 C   0  0  0  0  0  0  0  0  0  0  0  0
   -1.4410   -3.1820    2.2380 O   0  0  0  0  0  0  0  0  0  0  0  0
    0.2040    0.0270    0.5850 H   0  0  0  0  0  0  0  0  0  0  0  0
    1.0980   -2.4710    2.0780 H   0  0  0  0  0  0  0  0  0  0  0  0
   -0.5130   -1.5500    3.8470 H   0  0  0  0  0  0  0  0  0  0  0  0
   -0.7190   -0.1180    2.7910 H   0  0  0  0  0  0  0  0  0  0  0  0
    0.9560    1.5220    2.5200 H   0  0  0  0  0  0  0  0  0  0  0  0
    3.0040    2.5880    3.3390 H   0  0  0  0  0  0  0  0  0  0  0  0
    4.4440    1.3410    4.9450 H   0  0  0  0  0  0  0  0  0  0  0  0
    3.7630   -0.9360    5.6620 H   0  0  0  0  0  0  0  0  0  0  0  0
    1.7180   -1.9780    4.8330 H   0  0  0  0  0  0  0  0  0  0  0  0
   -4.2310    1.3360   -2.2080 C   0  0  0  0  0  0  0  0  0  0  0  0
   -5.0790    0.4910   -0.8720 S   0  0  0  0  0  0  0  0  0  0  0  0
   -4.0240   -0.7170   -0.0290 C   0  0  0  0  0  0  0  0  0  0  0  0
   -3.6560   -1.8520   -0.9350 C   0  0  0  0  0  0  0  0  0  0  0  0
   -2.7730   -2.8690   -0.2570 C   0  0  2  0  0  0  0  0  0  0  0  0
   -1.5570   -2.2160    0.1750 N   0  0  0  0  0  0  0  0  0  0  0  0
   -2.4250   -3.9540   -1.2620 C   0  0  0  0  0  0  0  0  0  0  0  0
   -1.2330   -4.1590   -1.5840 O   0  0  0  0  0  0  0  0  0  0  0  0
   -3.3950   -4.7330   -1.8390 O   0  0  0  0  0  0  0  0  0  0  0  0
   -3.1750    1.0460   -2.3290 H   0  0  0  0  0  0  0  0  0  0  0  0
   -4.7890    1.2370   -3.1750 H   0  0  0  0  0  0  0  0  0  0  0  0
   -4.2210    2.4370   -1.9860 H   0  0  0  0  0  0  0  0  0  0  0  0
   -3.1240   -0.1970    0.3240 H   0  0  0  0  0  0  0  0  0  0  0  0
   -4.5730   -1.1080    0.8510 H   0  0  0  0  0  0  0  0  0  0  0  0
   -3.1310   -1.4070   -1.8080 H   0  0  0  0  0  0  0  0  0  0  0  0
   -4.5430   -2.3660   -1.3460 H   0  0  0  0  0  0  0  0  0  0  0  0
   -3.3130   -3.3900    0.5250 H   0  0  0  0  0  0  0  0  0  0  0  0
   -1.0880   -1.5460   -0.4800 H   0  0  0  0  0  0  0  0  0  0  0  0
  1  2  1  0  0  0  0
  1  9  1  0  0  0  0
  2 11  1  1  0  0  0
  2  6  1  0  0  0  0
  3  2  1  0  0  0  0
  4  3  1  0  0  0  0
  4  8  1  0  0  0  0
  5  4  2  0  0  0  0
  6  7  2  0  0  0  0
  6 15  1  0  0  0  0
 10  1  1  0  0  0  0
 12  3  1  0  0  0  0
 13  3  1  0  0  0  0
 14  8  1  0  0  0  0
 15 16  1  0  0  0  0
 16 27  1  1  0  0  0
 16 17  1  0  0  0  0
 17 18  1  0  0  0  0
 17 28  1  0  0  0  0
 18 23  1  0  0  0  0
 19 18  2  0  0  0  0
 19 20  1  0  0  0  0
 20 21  2  0  0  0  0
 21 32  1  0  0  0  0
 21 22  1  0  0  0  0
 22 33  1  0  0  0  0
 23 34  1  0  0  0  0
 23 22  2  0  0  0  0
 24 16  1  0  0  0  0
 24 25  2  0  0  0  0
 26 15  1  0  0  0  0
 29 17  1  0  0  0  0
 30 19  1  0  0  0  0
 31 20  1  0  0  0  0
 35 46  1  0  0  0  0
 35 36  1  0  0  0  0
 36 37  1  0  0  0  0
 37 47  1  0  0  0  0
 37 48  1  0  0  0  0
 38 39  1  0  0  0  0
 38 37  1  0  0  0  0
 39 40  1  0  0  0  0
 39 51  1  1  0  0  0
 40 24  1  0  0  0  0
 41 39  1  0  0  0  0
 42 41  1  0  0  0  0
 43 41  2  0  0  0  0
 44 35  1  0  0  0  0
 45 35  1  0  0  0  0
 49 38  1  0  0  0  0
 50 38  1  0  0  0  0
 52 40  1  0  0  0  0
M  END
$$$$
