DFR.pdb
 OpenBabel07022418153D

 58 58  0  0  1  0  0  0  0  0999 V2000
    2.7300   -1.8400    2.7190 N   0  0  0  0  0  0  0  0  0  0  0  0
    1.6260   -1.5600    3.5830 C   0  0  1  0  0  0  0  0  0  0  0  0
    2.0850   -1.3100    4.9770 C   0  0  0  0  0  0  0  0  0  0  0  0
    3.0130   -0.1760    5.1330 C   0  0  0  0  0  0  0  0  0  0  0  0
    3.3550    0.4840    4.1410 O   0  0  0  0  0  0  0  0  0  0  0  0
    0.6850   -0.5740    3.0330 C   0  0  0  0  0  0  0  0  0  0  0  0
   -0.3080   -0.1300    3.6790 O   0  0  0  0  0  0  0  0  0  0  0  0
    3.5120    0.1650    6.3690 O   0  0  0  0  0  0  0  0  0  0  0  0
    3.1900   -1.0210    2.3080 H   0  0  0  0  0  0  0  0  0  0  0  0
    3.3650   -2.5040    3.2150 H   0  0  0  0  0  0  0  0  0  0  0  0
    1.0370   -2.5320    3.6300 H   0  0  0  0  0  0  0  0  0  0  0  0
    1.2620   -1.2540    5.7150 H   0  0  0  0  0  0  0  0  0  0  0  0
    2.6650   -2.2330    5.2790 H   0  0  0  0  0  0  0  0  0  0  0  0
    3.7620    1.1080    6.6300 H   0  0  0  0  0  0  0  0  0  0  0  0
    0.8410   -0.0580    1.7190 N   0  0  0  0  0  0  0  0  0  0  0  0
   -0.0770    0.9050    1.1680 C   0  0  1  0  0  0  0  0  0  0  0  0
    0.5610    2.1430    0.6280 C   0  0  0  0  0  0  0  0  0  0  0  0
    1.3310    2.9180    1.6310 C   0  0  0  0  0  0  0  0  0  0  0  0
    2.6770    2.7000    1.8640 C   0  0  0  0  0  0  0  0  0  0  0  0
    3.3880    3.4370    2.8060 C   0  0  0  0  0  0  0  0  0  0  0  0
    2.7760    4.4080    3.5370 C   0  0  0  0  0  0  0  0  0  0  0  0
    1.4330    4.6500    3.3270 C   0  0  0  0  0  0  0  0  0  0  0  0
    0.7280    3.9060    2.3810 C   0  0  0  0  0  0  0  0  0  0  0  0
   -0.8920    0.2730    0.0580 C   0  0  0  0  0  0  0  0  0  0  0  0
   -1.7480    0.9870   -0.5240 O   0  0  0  0  0  0  0  0  0  0  0  0
    1.6380   -0.3730    1.1160 H   0  0  0  0  0  0  0  0  0  0  0  0
   -0.7880    1.1930    1.9770 H   0  0  0  0  0  0  0  0  0  0  0  0
   -0.2130    2.7690    0.1290 H   0  0  0  0  0  0  0  0  0  0  0  0
    1.2830    1.8370   -0.1790 H   0  0  0  0  0  0  0  0  0  0  0  0
    3.1630    1.9360    1.2920 H   0  0  0  0  0  0  0  0  0  0  0  0
    4.4490    3.2530    2.9780 H   0  0  0  0  0  0  0  0  0  0  0  0
    3.3290    4.9910    4.2780 H   0  0  0  0  0  0  0  0  0  0  0  0
    0.9790    5.4250    3.9210 H   0  0  0  0  0  0  0  0  0  0  0  0
   -0.3230    4.1330    2.2530 H   0  0  0  0  0  0  0  0  0  0  0  0
   -5.3370   -4.4180   -4.5230 N   0  0  0  0  0  0  0  0  0  0  0  0
   -3.9870   -4.6980   -4.2470 C   0  0  0  0  0  0  0  0  0  0  0  0
   -3.5790   -5.9090   -4.2140 N   0  0  0  0  0  0  0  0  0  0  0  0
   -3.0750   -3.6470   -4.0040 N   0  0  0  0  0  0  0  0  0  0  0  0
   -1.6520   -3.7750   -4.1570 C   0  0  0  0  0  0  0  0  0  0  0  0
   -0.8380   -2.6230   -3.7800 C   0  0  0  0  0  0  0  0  0  0  0  0
   -0.5960   -2.0960   -2.4710 C   0  0  0  0  0  0  0  0  0  0  0  0
   -1.5640   -1.6660   -1.4490 C   0  0  2  0  0  0  0  0  0  0  0  0
   -0.7230   -1.0480   -0.3230 N   0  0  0  0  0  0  0  0  0  0  0  0
   -2.2150   -2.7840   -0.7180 C   0  0  0  0  0  0  0  0  0  0  0  0
   -3.0890   -3.4910   -1.1920 O   0  0  0  0  0  0  0  0  0  0  0  0
   -1.8470   -3.1050    0.6130 O   0  0  0  0  0  0  0  0  0  0  0  0
   -6.1260   -4.9780   -4.1060 H   0  0  0  0  0  0  0  0  0  0  0  0
   -5.5710   -3.6290   -5.1630 H   0  0  0  0  0  0  0  0  0  0  0  0
   -4.1730   -6.7500   -4.3780 H   0  0  0  0  0  0  0  0  0  0  0  0
   -3.4310   -2.6920   -3.7090 H   0  0  0  0  0  0  0  0  0  0  0  0
   -1.5030   -3.9680   -5.2720 H   0  0  0  0  0  0  0  0  0  0  0  0
   -1.2830   -4.7440   -3.7120 H   0  0  0  0  0  0  0  0  0  0  0  0
    0.2260   -2.8170   -4.2400 H   0  0  0  0  0  0  0  0  0  0  0  0
   -1.1400   -1.7680   -4.5300 H   0  0  0  0  0  0  0  0  0  0  0  0
    0.0760   -1.1520   -2.6290 H   0  0  0  0  0  0  0  0  0  0  0  0
    0.1740   -2.7770   -1.9250 H   0  0  0  0  0  0  0  0  0  0  0  0
   -2.2640   -0.9440   -1.8240 H   0  0  0  0  0  0  0  0  0  0  0  0
   -0.0420   -1.6740    0.1150 H   0  0  0  0  0  0  0  0  0  0  0  0
  1 10  1  0  0  0  0
  1  2  1  0  0  0  0
  2 11  1  1  0  0  0
  2  3  1  0  0  0  0
  3  4  1  0  0  0  0
  3 13  1  0  0  0  0
  3 12  1  0  0  0  0
  4  8  1  0  0  0  0
  5  4  2  0  0  0  0
  6  2  1  0  0  0  0
  6  7  2  0  0  0  0
  8 14  1  0  0  0  0
  9  1  1  0  0  0  0
 15  6  1  0  0  0  0
 16 15  1  0  0  0  0
 16 27  1  1  0  0  0
 17 16  1  0  0  0  0
 17 18  1  0  0  0  0
 18 19  2  0  0  0  0
 18 23  1  0  0  0  0
 19 20  1  0  0  0  0
 20 31  1  0  0  0  0
 20 21  2  0  0  0  0
 21 32  1  0  0  0  0
 22 21  1  0  0  0  0
 22 33  1  0  0  0  0
 23 22  2  0  0  0  0
 24 16  1  0  0  0  0
 25 24  2  0  0  0  0
 26 15  1  0  0  0  0
 28 17  1  0  0  0  0
 29 17  1  0  0  0  0
 30 19  1  0  0  0  0
 34 23  1  0  0  0  0
 35 36  1  0  0  0  0
 35 47  1  0  0  0  0
 36 37  2  0  0  0  0
 36 38  1  0  0  0  0
 38 50  1  0  0  0  0
 39 38  1  0  0  0  0
 39 40  1  0  0  0  0
 39 52  1  0  0  0  0
 40 41  1  0  0  0  0
 41 56  1  0  0  0  0
 41 42  1  0  0  0  0
 42 57  1  6  0  0  0
 42 44  1  0  0  0  0
 42 43  1  0  0  0  0
 43 24  1  0  0  0  0
 43 58  1  0  0  0  0
 44 46  1  0  0  0  0
 45 44  2  0  0  0  0
 48 35  1  0  0  0  0
 49 37  1  0  0  0  0
 51 39  1  0  0  0  0
 53 40  1  0  0  0  0
 54 40  1  0  0  0  0
 55 41  1  0  0  0  0
M  END
$$$$
