DFS.pdb
 OpenBabel07022418153D

 46 46  0  0  1  0  0  0  0  0999 V2000
   -0.2360   -2.6170    2.6640 N   0  0  0  0  0  0  0  0  0  0  0  0
   -1.0990   -1.4900    2.8000 C   0  0  1  0  0  0  0  0  0  0  0  0
   -1.0430   -0.8240    4.1330 C   0  0  0  0  0  0  0  0  0  0  0  0
   -1.4090   -1.6980    5.2550 C   0  0  0  0  0  0  0  0  0  0  0  0
   -1.7440   -2.8990    5.1280 O   0  0  0  0  0  0  0  0  0  0  0  0
   -0.8320   -0.4420    1.7590 C   0  0  0  0  0  0  0  0  0  0  0  0
   -1.5140    0.6120    1.7500 O   0  0  0  0  0  0  0  0  0  0  0  0
   -1.3830   -1.1560    6.5330 O   0  0  0  0  0  0  0  0  0  0  0  0
   -0.6670   -3.4430    3.1240 H   0  0  0  0  0  0  0  0  0  0  0  0
    0.7470   -2.4490    2.8980 H   0  0  0  0  0  0  0  0  0  0  0  0
   -2.1490   -1.8340    2.6360 H   0  0  0  0  0  0  0  0  0  0  0  0
    0.0240   -0.4990    4.3010 H   0  0  0  0  0  0  0  0  0  0  0  0
   -1.6300    0.1080    4.1010 H   0  0  0  0  0  0  0  0  0  0  0  0
   -1.9790   -1.4790    7.2840 H   0  0  0  0  0  0  0  0  0  0  0  0
    0.1540   -0.5640    0.7670 N   0  0  0  0  0  0  0  0  0  0  0  0
    0.4160    0.4430   -0.2400 C   0  0  1  0  0  0  0  0  0  0  0  0
    1.8010    1.0550   -0.0510 C   0  0  0  0  0  0  0  0  0  0  0  0
    1.8770    1.6820    1.2850 C   0  0  0  0  0  0  0  0  0  0  0  0
    1.5140    3.0050    1.4170 C   0  0  0  0  0  0  0  0  0  0  0  0
    1.5540    3.6690    2.6250 C   0  0  0  0  0  0  0  0  0  0  0  0
    1.9670    3.0120    3.7580 C   0  0  0  0  0  0  0  0  0  0  0  0
    2.3360    1.6880    3.6570 C   0  0  0  0  0  0  0  0  0  0  0  0
    2.2900    1.0270    2.4210 C   0  0  0  0  0  0  0  0  0  0  0  0
    0.1980   -0.0340   -1.6060 C   0  0  0  0  0  0  0  0  0  0  0  0
    0.3720    0.6900   -2.6170 O   0  0  0  0  0  0  0  0  0  0  0  0
    0.7420   -1.4230    0.7390 H   0  0  0  0  0  0  0  0  0  0  0  0
   -0.3030    1.2700   -0.0450 H   0  0  0  0  0  0  0  0  0  0  0  0
    2.5120    0.1820   -0.1350 H   0  0  0  0  0  0  0  0  0  0  0  0
    2.0410    1.7620   -0.8430 H   0  0  0  0  0  0  0  0  0  0  0  0
    1.1840    3.5400    0.5210 H   0  0  0  0  0  0  0  0  0  0  0  0
    1.2690    4.7000    2.7100 H   0  0  0  0  0  0  0  0  0  0  0  0
    2.0100    3.5140    4.7370 H   0  0  0  0  0  0  0  0  0  0  0  0
    2.6590    1.1850    4.5590 H   0  0  0  0  0  0  0  0  0  0  0  0
    2.5770   -0.0060    2.3390 H   0  0  0  0  0  0  0  0  0  0  0  0
    0.0040   -3.4910   -4.8060 O   0  0  0  0  0  0  0  0  0  0  0  0
    0.3610   -3.1100   -3.5070 C   0  0  0  0  0  0  0  0  0  0  0  0
   -0.4610   -1.8960   -3.1690 C   0  0  2  0  0  0  0  0  0  0  0  0
   -0.2300   -1.3650   -1.8740 N   0  0  0  0  0  0  0  0  0  0  0  0
   -1.8840   -2.2790   -3.2850 C   0  0  0  0  0  0  0  0  0  0  0  0
   -2.3640   -2.7780   -4.3310 O   0  0  0  0  0  0  0  0  0  0  0  0
   -2.7260   -2.0850   -2.2090 O   0  0  0  0  0  0  0  0  0  0  0  0
    0.4050   -2.7960   -5.4030 H   0  0  0  0  0  0  0  0  0  0  0  0
    0.1340   -3.9740   -2.8630 H   0  0  0  0  0  0  0  0  0  0  0  0
    1.4530   -2.8830   -3.5550 H   0  0  0  0  0  0  0  0  0  0  0  0
   -0.2740   -1.1580   -3.9890 H   0  0  0  0  0  0  0  0  0  0  0  0
   -0.3930   -2.0230   -1.0560 H   0  0  0  0  0  0  0  0  0  0  0  0
  1  2  1  0  0  0  0
  1 10  1  0  0  0  0
  1  9  1  0  0  0  0
  2 11  1  6  0  0  0
  2  3  1  0  0  0  0
  3 12  1  0  0  0  0
  3  4  1  0  0  0  0
  4  8  1  0  0  0  0
  5  4  2  0  0  0  0
  6  2  1  0  0  0  0
  7  6  2  0  0  0  0
  8 14  1  0  0  0  0
 13  3  1  0  0  0  0
 15  6  1  0  0  0  0
 16 17  1  0  0  0  0
 16 27  1  1  0  0  0
 16 15  1  0  0  0  0
 17 18  1  0  0  0  0
 18 19  2  0  0  0  0
 18 23  1  0  0  0  0
 19 20  1  0  0  0  0
 20 31  1  0  0  0  0
 20 21  2  0  0  0  0
 21 32  1  0  0  0  0
 22 21  1  0  0  0  0
 22 33  1  0  0  0  0
 23 22  2  0  0  0  0
 24 16  1  0  0  0  0
 25 24  2  0  0  0  0
 26 15  1  0  0  0  0
 28 17  1  0  0  0  0
 29 17  1  0  0  0  0
 30 19  1  0  0  0  0
 34 23  1  0  0  0  0
 35 36  1  0  0  0  0
 36 37  1  0  0  0  0
 36 43  1  0  0  0  0
 37 45  1  6  0  0  0
 37 38  1  0  0  0  0
 38 24  1  0  0  0  0
 38 46  1  0  0  0  0
 39 37  1  0  0  0  0
 39 41  1  0  0  0  0
 40 39  2  0  0  0  0
 42 35  1  0  0  0  0
 44 36  1  0  0  0  0
M  END
$$$$
