DFT.pdb
 OpenBabel07022418153D

 49 49  0  0  1  0  0  0  0  0999 V2000
   -0.4310    1.1580    3.5000 N   0  0  0  0  0  0  0  0  0  0  0  0
   -0.2440   -0.2810    3.5720 C   0  0  1  0  0  0  0  0  0  0  0  0
   -1.4900   -1.0050    3.9620 C   0  0  0  0  0  0  0  0  0  0  0  0
   -2.6200   -0.8170    3.0500 C   0  0  0  0  0  0  0  0  0  0  0  0
   -2.6850   -1.4700    1.9760 O   0  0  0  0  0  0  0  0  0  0  0  0
    0.3630   -0.7560    2.3020 C   0  0  0  0  0  0  0  0  0  0  0  0
    0.5970   -2.0010    2.1930 O   0  0  0  0  0  0  0  0  0  0  0  0
   -3.6530    0.0740    3.3220 O   0  0  0  0  0  0  0  0  0  0  0  0
    0.5500    1.5740    3.4650 H   0  0  0  0  0  0  0  0  0  0  0  0
   -0.8510    1.5400    4.3610 H   0  0  0  0  0  0  0  0  0  0  0  0
    0.5040   -0.4600    4.3920 H   0  0  0  0  0  0  0  0  0  0  0  0
   -1.2630   -2.0650    4.1220 H   0  0  0  0  0  0  0  0  0  0  0  0
   -1.8000   -0.5880    4.9550 H   0  0  0  0  0  0  0  0  0  0  0  0
   -4.0430    0.6460    2.5570 H   0  0  0  0  0  0  0  0  0  0  0  0
    0.6740    0.1400    1.2470 N   0  0  0  0  0  0  0  0  0  0  0  0
    1.2630   -0.2310    0.0190 C   0  0  1  0  0  0  0  0  0  0  0  0
    2.4370   -1.2220    0.1390 C   0  0  0  0  0  0  0  0  0  0  0  0
    3.5070   -0.6000    0.9160 C   0  0  0  0  0  0  0  0  0  0  0  0
    4.4080    0.2070    0.2140 C   0  0  0  0  0  0  0  0  0  0  0  0
    5.4630    0.8330    0.8280 C   0  0  0  0  0  0  0  0  0  0  0  0
    5.6790    0.6880    2.1750 C   0  0  0  0  0  0  0  0  0  0  0  0
    4.8030   -0.1020    2.8840 C   0  0  0  0  0  0  0  0  0  0  0  0
    3.7310   -0.7370    2.2580 C   0  0  0  0  0  0  0  0  0  0  0  0
    0.3860   -0.5520   -1.0960 C   0  0  0  0  0  0  0  0  0  0  0  0
    0.9350   -0.8850   -2.1890 O   0  0  0  0  0  0  0  0  0  0  0  0
    0.4220    1.1570    1.4520 H   0  0  0  0  0  0  0  0  0  0  0  0
    1.8600    0.7050   -0.3260 H   0  0  0  0  0  0  0  0  0  0  0  0
    2.7840   -1.3620   -0.9300 H   0  0  0  0  0  0  0  0  0  0  0  0
    2.1240   -2.2130    0.4730 H   0  0  0  0  0  0  0  0  0  0  0  0
    4.2650    0.3410   -0.8470 H   0  0  0  0  0  0  0  0  0  0  0  0
    6.1710    1.4630    0.2890 H   0  0  0  0  0  0  0  0  0  0  0  0
    6.5180    1.1800    2.6870 H   0  0  0  0  0  0  0  0  0  0  0  0
    4.9840   -0.2070    3.9410 H   0  0  0  0  0  0  0  0  0  0  0  0
    3.0980   -1.3430    2.8670 H   0  0  0  0  0  0  0  0  0  0  0  0
   -3.5770   -2.5080   -2.9400 C   0  0  0  0  0  0  0  0  0  0  0  0
   -2.6230   -2.1320   -1.8400 C   0  0  1  0  0  0  0  0  0  0  0  0
   -1.6860   -3.1490   -1.6190 O   0  0  0  0  0  0  0  0  0  0  0  0
   -1.8650   -0.8400   -2.1600 C   0  0  2  0  0  0  0  0  0  0  0  0
   -1.0250   -0.5160   -1.0370 N   0  0  0  0  0  0  0  0  0  0  0  0
   -2.7890    0.2630   -2.5050 C   0  0  0  0  0  0  0  0  0  0  0  0
   -2.7570    1.3220   -1.8220 O   0  0  0  0  0  0  0  0  0  0  0  0
   -3.6710    0.1450   -3.5490 O   0  0  0  0  0  0  0  0  0  0  0  0
   -3.5750   -3.6240   -3.0460 H   0  0  0  0  0  0  0  0  0  0  0  0
   -4.5970   -2.1330   -2.7330 H   0  0  0  0  0  0  0  0  0  0  0  0
   -3.2510   -2.1210   -3.9260 H   0  0  0  0  0  0  0  0  0  0  0  0
   -3.1690   -2.0000   -0.8910 H   0  0  0  0  0  0  0  0  0  0  0  0
   -1.7720   -3.5540   -0.7170 H   0  0  0  0  0  0  0  0  0  0  0  0
   -1.2060   -1.0980   -3.0310 H   0  0  0  0  0  0  0  0  0  0  0  0
   -1.4640   -0.2450   -0.1540 H   0  0  0  0  0  0  0  0  0  0  0  0
  1  2  1  0  0  0  0
  1 10  1  0  0  0  0
  2  3  1  0  0  0  0
  2 11  1  1  0  0  0
  3 12  1  0  0  0  0
  3 13  1  0  0  0  0
  4  8  1  0  0  0  0
  4  3  1  0  0  0  0
  5  4  2  0  0  0  0
  6  2  1  0  0  0  0
  7  6  2  0  0  0  0
  9  1  1  0  0  0  0
 14  8  1  0  0  0  0
 15 26  1  0  0  0  0
 15  6  1  0  0  0  0
 16 27  1  6  0  0  0
 16 17  1  0  0  0  0
 16 15  1  0  0  0  0
 17 29  1  0  0  0  0
 17 18  1  0  0  0  0
 18 23  1  0  0  0  0
 19 20  1  0  0  0  0
 19 18  2  0  0  0  0
 20 21  2  0  0  0  0
 21 32  1  0  0  0  0
 21 22  1  0  0  0  0
 22 33  1  0  0  0  0
 23 34  1  0  0  0  0
 23 22  2  0  0  0  0
 24 39  1  0  0  0  0
 24 16  1  0  0  0  0
 25 24  2  0  0  0  0
 28 17  1  0  0  0  0
 30 19  1  0  0  0  0
 31 20  1  0  0  0  0
 35 44  1  0  0  0  0
 35 36  1  0  0  0  0
 36 37  1  0  0  0  0
 36 46  1  1  0  0  0
 37 47  1  0  0  0  0
 38 48  1  6  0  0  0
 38 36  1  0  0  0  0
 38 39  1  0  0  0  0
 39 49  1  0  0  0  0
 40 38  1  0  0  0  0
 40 41  1  0  0  0  0
 42 40  2  0  0  0  0
 43 35  1  0  0  0  0
 45 35  1  0  0  0  0
M  END
$$$$
