DFW.pdb
 OpenBabel07022418153D

 59 61  0  0  1  0  0  0  0  0999 V2000
    4.1610    0.3810    1.3720 N   0  0  0  0  0  0  0  0  0  0  0  0
    3.4380   -0.7420    1.8790 C   0  0  1  0  0  0  0  0  0  0  0  0
    3.6410   -1.0310    3.3350 C   0  0  0  0  0  0  0  0  0  0  0  0
    3.2630    0.0530    4.2360 C   0  0  0  0  0  0  0  0  0  0  0  0
    3.3330   -0.1020    5.4740 O   0  0  0  0  0  0  0  0  0  0  0  0
    2.0090   -0.7730    1.4730 C   0  0  0  0  0  0  0  0  0  0  0  0
    1.2240   -1.6640    1.9020 O   0  0  0  0  0  0  0  0  0  0  0  0
    2.8270    1.2610    3.7320 O   0  0  0  0  0  0  0  0  0  0  0  0
    4.7600    0.8590    2.0790 H   0  0  0  0  0  0  0  0  0  0  0  0
    4.7650    0.1710    0.5440 H   0  0  0  0  0  0  0  0  0  0  0  0
    3.8840   -1.6500    1.3390 H   0  0  0  0  0  0  0  0  0  0  0  0
    2.9640   -1.9030    3.5800 H   0  0  0  0  0  0  0  0  0  0  0  0
    4.6660   -1.4350    3.5430 H   0  0  0  0  0  0  0  0  0  0  0  0
    3.0320    2.1450    4.2180 H   0  0  0  0  0  0  0  0  0  0  0  0
    1.4110    0.1750    0.5810 N   0  0  0  0  0  0  0  0  0  0  0  0
    0.0210    0.1070    0.2000 C   0  0  1  0  0  0  0  0  0  0  0  0
   -0.6470    1.4190    0.3920 C   0  0  0  0  0  0  0  0  0  0  0  0
   -0.6580    1.9510    1.7630 C   0  0  0  0  0  0  0  0  0  0  0  0
    0.3520    2.7930    2.2090 C   0  0  0  0  0  0  0  0  0  0  0  0
    0.3720    3.3160    3.4730 C   0  0  0  0  0  0  0  0  0  0  0  0
   -0.6280    3.0250    4.3790 C   0  0  0  0  0  0  0  0  0  0  0  0
   -1.6380    2.1840    3.9420 C   0  0  0  0  0  0  0  0  0  0  0  0
   -1.6540    1.6620    2.6720 C   0  0  0  0  0  0  0  0  0  0  0  0
   -0.0780   -0.3640   -1.2190 C   0  0  0  0  0  0  0  0  0  0  0  0
    0.9820   -0.6230   -1.8300 O   0  0  0  0  0  0  0  0  0  0  0  0
    1.9970    0.9370    0.1940 H   0  0  0  0  0  0  0  0  0  0  0  0
   -0.5270   -0.6790    0.7790 H   0  0  0  0  0  0  0  0  0  0  0  0
   -0.1330    2.2130   -0.2330 H   0  0  0  0  0  0  0  0  0  0  0  0
   -1.6930    1.4250   -0.0440 H   0  0  0  0  0  0  0  0  0  0  0  0
    1.1550    3.0500    1.5360 H   0  0  0  0  0  0  0  0  0  0  0  0
    1.1740    3.9730    3.7930 H   0  0  0  0  0  0  0  0  0  0  0  0
   -0.5920    3.4490    5.3710 H   0  0  0  0  0  0  0  0  0  0  0  0
   -2.4230    1.9470    4.6340 H   0  0  0  0  0  0  0  0  0  0  0  0
   -2.4490    1.0130    2.3600 H   0  0  0  0  0  0  0  0  0  0  0  0
   -1.3470   -0.5190   -1.8710 N   0  0  0  0  0  0  0  0  0  0  0  0
   -1.4570   -0.9710   -3.2340 C   0  0  1  0  0  0  0  0  0  0  0  0
   -2.1990   -2.2610   -3.4200 C   0  0  0  0  0  0  0  0  0  0  0  0
   -1.6520   -3.4300   -2.7570 C   0  0  0  0  0  0  0  0  0  0  0  0
   -0.8460   -4.4120   -3.3270 C   0  0  0  0  0  0  0  0  0  0  0  0
   -0.5310   -5.3030   -2.3770 N   0  0  0  0  0  0  0  0  0  0  0  0
   -1.0930   -4.9560   -1.2020 C   0  0  0  0  0  0  0  0  0  0  0  0
   -1.1040   -5.4980    0.0640 C   0  0  0  0  0  0  0  0  0  0  0  0
   -1.7860   -4.9320    1.1220 C   0  0  0  0  0  0  0  0  0  0  0  0
   -2.4810   -3.7700    0.8770 C   0  0  0  0  0  0  0  0  0  0  0  0
   -2.4880   -3.2070   -0.3750 C   0  0  0  0  0  0  0  0  0  0  0  0
   -1.7920   -3.7880   -1.4410 C   0  0  0  0  0  0  0  0  0  0  0  0
   -2.1950    0.0660   -4.0030 C   0  0  0  0  0  0  0  0  0  0  0  0
   -2.4160   -0.1040   -5.2210 O   0  0  0  0  0  0  0  0  0  0  0  0
   -2.6490    1.2270   -3.4030 O   0  0  0  0  0  0  0  0  0  0  0  0
   -2.1630   -0.2640   -1.2760 H   0  0  0  0  0  0  0  0  0  0  0  0
   -0.4280   -1.0650   -3.6980 H   0  0  0  0  0  0  0  0  0  0  0  0
   -3.2630   -2.0530   -3.1600 H   0  0  0  0  0  0  0  0  0  0  0  0
   -2.2250   -2.4690   -4.5240 H   0  0  0  0  0  0  0  0  0  0  0  0
   -0.5080   -4.4770   -4.3650 H   0  0  0  0  0  0  0  0  0  0  0  0
    0.0670   -6.1760   -2.4610 H   0  0  0  0  0  0  0  0  0  0  0  0
   -0.5440   -6.4230    0.2350 H   0  0  0  0  0  0  0  0  0  0  0  0
   -1.7920   -5.3610    2.1140 H   0  0  0  0  0  0  0  0  0  0  0  0
   -3.0350   -3.2800    1.6680 H   0  0  0  0  0  0  0  0  0  0  0  0
   -3.0570   -2.2880   -0.5490 H   0  0  0  0  0  0  0  0  0  0  0  0
  1  2  1  0  0  0  0
  1  9  1  0  0  0  0
  2 11  1  6  0  0  0
  2  3  1  0  0  0  0
  3 13  1  0  0  0  0
  3 12  1  0  0  0  0
  3  4  1  0  0  0  0
  4  5  2  0  0  0  0
  6  2  1  0  0  0  0
  6  7  2  0  0  0  0
  8 14  1  0  0  0  0
  8  4  1  0  0  0  0
 10  1  1  0  0  0  0
 15  6  1  0  0  0  0
 16 17  1  0  0  0  0
 16 15  1  0  0  0  0
 16 27  1  1  0  0  0
 17 18  1  0  0  0  0
 18 19  2  0  0  0  0
 18 23  1  0  0  0  0
 19 20  1  0  0  0  0
 20 31  1  0  0  0  0
 20 21  2  0  0  0  0
 21 32  1  0  0  0  0
 22 21  1  0  0  0  0
 22 33  1  0  0  0  0
 23 22  2  0  0  0  0
 24 16  1  0  0  0  0
 25 24  2  0  0  0  0
 26 15  1  0  0  0  0
 28 17  1  0  0  0  0
 29 17  1  0  0  0  0
 30 19  1  0  0  0  0
 34 23  1  0  0  0  0
 35 50  1  0  0  0  0
 35 24  1  0  0  0  0
 36 51  1  6  0  0  0
 36 35  1  0  0  0  0
 37 36  1  0  0  0  0
 37 52  1  0  0  0  0
 37 38  1  0  0  0  0
 38 46  1  0  0  0  0
 39 38  2  0  0  0  0
 39 40  1  0  0  0  0
 40 41  1  0  0  0  0
 41 42  1  0  0  0  0
 42 56  1  0  0  0  0
 42 43  2  0  0  0  0
 43 57  1  0  0  0  0
 44 43  1  0  0  0  0
 44 58  1  0  0  0  0
 45 44  2  0  0  0  0
 46 41  2  0  0  0  0
 46 45  1  0  0  0  0
 47 49  1  0  0  0  0
 47 36  1  0  0  0  0
 48 47  2  0  0  0  0
 53 37  1  0  0  0  0
 54 39  1  0  0  0  0
 55 40  1  0  0  0  0
 59 45  1  0  0  0  0
M  END
$$$$
