DGA.pdb
 OpenBabel07022418133D

 32 31  0  0  1  0  0  0  0  0999 V2000
   -1.9260   -3.3420    2.2200 N   0  0  0  0  0  0  0  0  0  0  0  0
   -0.8420   -2.5370    2.7910 C   0  0  1  0  0  0  0  0  0  0  0  0
    0.0530   -3.4920    3.5020 C   0  0  0  0  0  0  0  0  0  0  0  0
    1.2150   -2.9210    4.1740 C   0  0  0  0  0  0  0  0  0  0  0  0
    1.4190   -1.6930    4.1770 O   0  0  0  0  0  0  0  0  0  0  0  0
   -0.1950   -1.8480    1.6370 C   0  0  0  0  0  0  0  0  0  0  0  0
    0.7710   -1.0450    1.7550 O   0  0  0  0  0  0  0  0  0  0  0  0
    2.1120   -3.7490    4.8220 O   0  0  0  0  0  0  0  0  0  0  0  0
   -1.4910   -4.0820    1.6630 H   0  0  0  0  0  0  0  0  0  0  0  0
   -2.6600   -2.7820    1.7760 H   0  0  0  0  0  0  0  0  0  0  0  0
   -1.2280   -1.7530    3.4630 H   0  0  0  0  0  0  0  0  0  0  0  0
   -0.5820   -3.9620    4.3080 H   0  0  0  0  0  0  0  0  0  0  0  0
    0.3010   -4.3430    2.8310 H   0  0  0  0  0  0  0  0  0  0  0  0
    2.6410   -3.4540    5.6450 H   0  0  0  0  0  0  0  0  0  0  0  0
   -0.6470   -2.0690    0.3100 N   0  0  0  0  0  0  0  0  0  0  0  0
   -0.0580   -1.4260   -0.8390 C   0  0  0  0  0  0  0  0  0  0  0  0
   -0.2160    0.0370   -0.6840 C   0  0  0  0  0  0  0  0  0  0  0  0
   -0.7950    0.4780    0.3310 O   0  0  0  0  0  0  0  0  0  0  0  0
   -1.4390   -2.7220    0.1470 H   0  0  0  0  0  0  0  0  0  0  0  0
   -0.5260   -1.7990   -1.7750 H   0  0  0  0  0  0  0  0  0  0  0  0
    1.0250   -1.7080   -0.9120 H   0  0  0  0  0  0  0  0  0  0  0  0
    1.4970    3.0120   -1.4470 C   0  0  0  0  0  0  0  0  0  0  0  0
    0.1150    2.4020   -1.5060 C   0  0  2  0  0  0  0  0  0  0  0  0
    0.2630    0.9680   -1.6450 N   0  0  0  0  0  0  0  0  0  0  0  0
   -0.6660    2.9910   -2.6220 C   0  0  0  0  0  0  0  0  0  0  0  0
   -0.8560    4.2330   -2.6030 O   0  0  0  0  0  0  0  0  0  0  0  0
   -1.1930    2.2800   -3.6700 O   0  0  0  0  0  0  0  0  0  0  0  0
    2.2110    2.4410   -2.0950 H   0  0  0  0  0  0  0  0  0  0  0  0
    1.9260    2.9710   -0.4210 H   0  0  0  0  0  0  0  0  0  0  0  0
    1.4510    4.0530   -1.7750 H   0  0  0  0  0  0  0  0  0  0  0  0
   -0.4110    2.6770   -0.5700 H   0  0  0  0  0  0  0  0  0  0  0  0
    0.7400    0.5560   -2.4770 H   0  0  0  0  0  0  0  0  0  0  0  0
  1  2  1  0  0  0  0
  2 11  1  1  0  0  0
  2  3  1  0  0  0  0
  3  4  1  0  0  0  0
  3 12  1  0  0  0  0
  4  5  2  0  0  0  0
  4  8  1  0  0  0  0
  6  7  2  0  0  0  0
  6  2  1  0  0  0  0
  8 14  1  0  0  0  0
  9  1  1  0  0  0  0
 10  1  1  0  0  0  0
 13  3  1  0  0  0  0
 15  6  1  0  0  0  0
 16 17  1  0  0  0  0
 16 15  1  0  0  0  0
 17 18  2  0  0  0  0
 19 15  1  0  0  0  0
 20 16  1  0  0  0  0
 21 16  1  0  0  0  0
 22 29  1  0  0  0  0
 23 22  1  0  0  0  0
 23 31  1  1  0  0  0
 24 23  1  0  0  0  0
 24 17  1  0  0  0  0
 25 26  1  0  0  0  0
 25 23  1  0  0  0  0
 27 25  2  0  0  0  0
 28 22  1  0  0  0  0
 30 22  1  0  0  0  0
 32 24  1  0  0  0  0
M  END
$$$$
