DGC.pdb
 OpenBabel07022418133D

 33 32  0  0  1  0  0  0  0  0999 V2000
    0.0720   -3.4240    3.1160 N   0  0  0  0  0  0  0  0  0  0  0  0
    0.9980   -2.3940    2.8110 C   0  0  1  0  0  0  0  0  0  0  0  0
    2.4130   -2.9660    2.9710 C   0  0  0  0  0  0  0  0  0  0  0  0
    2.5230   -3.4030    4.3730 C   0  0  0  0  0  0  0  0  0  0  0  0
    2.6840   -2.5520    5.2720 O   0  0  0  0  0  0  0  0  0  0  0  0
    0.8060   -1.7500    1.5090 C   0  0  0  0  0  0  0  0  0  0  0  0
    1.5950   -0.8320    1.1710 O   0  0  0  0  0  0  0  0  0  0  0  0
    2.4500   -4.7420    4.6800 O   0  0  0  0  0  0  0  0  0  0  0  0
   -0.9200   -3.2090    2.9690 H   0  0  0  0  0  0  0  0  0  0  0  0
    0.3710   -4.3830    2.9240 H   0  0  0  0  0  0  0  0  0  0  0  0
    0.9100   -1.5990    3.6010 H   0  0  0  0  0  0  0  0  0  0  0  0
    3.1670   -2.1970    2.7010 H   0  0  0  0  0  0  0  0  0  0  0  0
    2.4720   -3.8580    2.3200 H   0  0  0  0  0  0  0  0  0  0  0  0
    2.1250   -5.0680    5.6000 H   0  0  0  0  0  0  0  0  0  0  0  0
   -0.2220   -2.1070    0.6090 N   0  0  0  0  0  0  0  0  0  0  0  0
   -0.4240   -1.4800   -0.6790 C   0  0  0  0  0  0  0  0  0  0  0  0
   -0.6730   -0.0290   -0.4570 C   0  0  0  0  0  0  0  0  0  0  0  0
   -0.6810    0.4440    0.6940 O   0  0  0  0  0  0  0  0  0  0  0  0
   -0.8630   -2.8750    0.9180 H   0  0  0  0  0  0  0  0  0  0  0  0
   -1.3620   -1.8730   -1.1280 H   0  0  0  0  0  0  0  0  0  0  0  0
    0.4450   -1.6190   -1.3580 H   0  0  0  0  0  0  0  0  0  0  0  0
   -0.9100    0.8560   -1.5660 N   0  0  0  0  0  0  0  0  0  0  0  0
   -1.1430    2.2420   -1.2800 C   0  0  1  0  0  0  0  0  0  0  0  0
   -0.1300    3.1440   -1.9770 C   0  0  0  0  0  0  0  0  0  0  0  0
   -0.2260    2.9220   -3.7750 S   0  0  0  0  0  0  0  0  0  0  0  0
   -2.5070    2.6460   -1.7480 C   0  0  0  0  0  0  0  0  0  0  0  0
   -3.2340    1.8040   -2.2910 O   0  0  0  0  0  0  0  0  0  0  0  0
   -2.8930    3.9560   -1.5480 O   0  0  0  0  0  0  0  0  0  0  0  0
   -0.8950    0.4290   -2.4970 H   0  0  0  0  0  0  0  0  0  0  0  0
   -1.1020    2.4440   -0.1990 H   0  0  0  0  0  0  0  0  0  0  0  0
   -0.4040    4.1860   -1.7170 H   0  0  0  0  0  0  0  0  0  0  0  0
    0.8830    2.9430   -1.5830 H   0  0  0  0  0  0  0  0  0  0  0  0
   -1.5140    2.5100   -4.1200 H   0  0  0  0  0  0  0  0  0  0  0  0
  2  3  1  0  0  0  0
  2  1  1  0  0  0  0
  2 11  1  1  0  0  0
  3  4  1  0  0  0  0
  4  8  1  0  0  0  0
  4  5  2  0  0  0  0
  6  2  1  0  0  0  0
  7  6  2  0  0  0  0
  8 14  1  0  0  0  0
  9  1  1  0  0  0  0
 10  1  1  0  0  0  0
 12  3  1  0  0  0  0
 13  3  1  0  0  0  0
 15 19  1  0  0  0  0
 15  6  1  0  0  0  0
 16 17  1  0  0  0  0
 16 15  1  0  0  0  0
 17 18  2  0  0  0  0
 20 16  1  0  0  0  0
 21 16  1  0  0  0  0
 22 23  1  0  0  0  0
 22 17  1  0  0  0  0
 23 30  1  1  0  0  0
 24 31  1  0  0  0  0
 24 32  1  0  0  0  0
 24 23  1  0  0  0  0
 25 24  1  0  0  0  0
 26 28  1  0  0  0  0
 26 23  1  0  0  0  0
 27 26  2  0  0  0  0
 29 22  1  0  0  0  0
 33 25  1  0  0  0  0
M  END
$$$$
