DGD.pdb
 OpenBabel07022418133D

 35 34  0  0  1  0  0  0  0  0999 V2000
    0.5920   -2.2720    2.7720 N   0  0  0  0  0  0  0  0  0  0  0  0
    0.3450   -3.4910    2.0410 C   0  0  1  0  0  0  0  0  0  0  0  0
   -0.8770   -4.1890    2.5590 C   0  0  0  0  0  0  0  0  0  0  0  0
   -0.8350   -4.5990    3.9570 C   0  0  0  0  0  0  0  0  0  0  0  0
    0.1200   -4.4550    4.7380 O   0  0  0  0  0  0  0  0  0  0  0  0
    0.2700   -3.2550    0.5790 C   0  0  0  0  0  0  0  0  0  0  0  0
    0.0950   -4.1620   -0.2590 O   0  0  0  0  0  0  0  0  0  0  0  0
   -1.9810   -5.2230    4.4980 O   0  0  0  0  0  0  0  0  0  0  0  0
    1.4900   -1.8450    2.4340 H   0  0  0  0  0  0  0  0  0  0  0  0
    0.7610   -2.4950    3.7670 H   0  0  0  0  0  0  0  0  0  0  0  0
    1.2640   -4.1280    2.1870 H   0  0  0  0  0  0  0  0  0  0  0  0
   -1.1150   -5.0520    1.9040 H   0  0  0  0  0  0  0  0  0  0  0  0
   -1.7340   -3.4670    2.4160 H   0  0  0  0  0  0  0  0  0  0  0  0
   -2.0870   -5.2680    5.4910 H   0  0  0  0  0  0  0  0  0  0  0  0
    0.4000   -1.9200    0.0500 N   0  0  0  0  0  0  0  0  0  0  0  0
    0.3300   -1.6790   -1.3640 C   0  0  0  0  0  0  0  0  0  0  0  0
    0.4790   -0.2720   -1.7480 C   0  0  0  0  0  0  0  0  0  0  0  0
    0.4270    0.0200   -3.0000 O   0  0  0  0  0  0  0  0  0  0  0  0
    0.5420   -1.1920    0.7670 H   0  0  0  0  0  0  0  0  0  0  0  0
    1.0960   -2.3000   -1.9120 H   0  0  0  0  0  0  0  0  0  0  0  0
   -0.6540   -2.0430   -1.7900 H   0  0  0  0  0  0  0  0  0  0  0  0
    0.6760    0.7890   -0.8510 N   0  0  0  0  0  0  0  0  0  0  0  0
    0.8170    2.1880   -1.3360 C   0  0  1  0  0  0  0  0  0  0  0  0
   -0.3380    2.9170   -0.6840 C   0  0  0  0  0  0  0  0  0  0  0  0
   -0.4060    4.3360   -1.0230 C   0  0  0  0  0  0  0  0  0  0  0  0
    0.2470    5.1920   -0.3990 O   0  0  0  0  0  0  0  0  0  0  0  0
    2.0680    2.7730   -0.7870 C   0  0  0  0  0  0  0  0  0  0  0  0
    2.4490    3.9400   -1.0440 O   0  0  0  0  0  0  0  0  0  0  0  0
   -1.2210    4.7460   -2.0720 O   0  0  0  0  0  0  0  0  0  0  0  0
    2.9130    2.0380    0.0680 O   0  0  0  0  0  0  0  0  0  0  0  0
    0.7250    0.6050    0.1650 H   0  0  0  0  0  0  0  0  0  0  0  0
    0.7480    2.2240   -2.4210 H   0  0  0  0  0  0  0  0  0  0  0  0
   -0.1950    2.7720    0.4270 H   0  0  0  0  0  0  0  0  0  0  0  0
   -1.2750    2.3630   -0.9160 H   0  0  0  0  0  0  0  0  0  0  0  0
   -1.2570    5.7370   -2.2840 H   0  0  0  0  0  0  0  0  0  0  0  0
  1 10  1  0  0  0  0
  2 11  1  1  0  0  0
  2  3  1  0  0  0  0
  2  1  1  0  0  0  0
  3  4  1  0  0  0  0
  4  8  1  0  0  0  0
  4  5  2  0  0  0  0
  6  2  1  0  0  0  0
  7  6  2  0  0  0  0
  8 14  1  0  0  0  0
  9  1  1  0  0  0  0
 12  3  1  0  0  0  0
 13  3  1  0  0  0  0
 15  6  1  0  0  0  0
 15 19  1  0  0  0  0
 16 15  1  0  0  0  0
 17 16  1  0  0  0  0
 17 22  1  0  0  0  0
 18 17  2  0  0  0  0
 20 16  1  0  0  0  0
 21 16  1  0  0  0  0
 22 31  1  0  0  0  0
 23 32  1  6  0  0  0
 23 22  1  0  0  0  0
 23 27  1  0  0  0  0
 23 24  1  0  0  0  0
 24 33  1  0  0  0  0
 25 24  1  0  0  0  0
 25 26  2  0  0  0  0
 27 30  1  0  0  0  0
 28 27  2  0  0  0  0
 29 25  1  0  0  0  0
 34 24  1  0  0  0  0
 35 29  1  0  0  0  0
M  END
$$$$
