DGE.pdb
 OpenBabel07022418133D

 38 37  0  0  1  0  0  0  0  0999 V2000
   -0.2100   -4.2520    1.0710 N   0  0  0  0  0  0  0  0  0  0  0  0
    0.8290   -3.4050    1.6660 C   0  0  1  0  0  0  0  0  0  0  0  0
    2.0560   -4.2530    1.9580 C   0  0  0  0  0  0  0  0  0  0  0  0
    3.1030   -3.4020    2.5400 C   0  0  0  0  0  0  0  0  0  0  0  0
    4.0230   -2.9170    1.8040 O   0  0  0  0  0  0  0  0  0  0  0  0
    1.1780   -2.3130    0.7450 C   0  0  0  0  0  0  0  0  0  0  0  0
    0.8550   -2.4370   -0.4640 O   0  0  0  0  0  0  0  0  0  0  0  0
    3.1380   -3.0940    3.8820 O   0  0  0  0  0  0  0  0  0  0  0  0
   -0.0530   -4.4260    0.0760 H   0  0  0  0  0  0  0  0  0  0  0  0
   -1.1160   -3.8410    1.3350 H   0  0  0  0  0  0  0  0  0  0  0  0
    0.4330   -3.0720    2.6450 H   0  0  0  0  0  0  0  0  0  0  0  0
    2.3940   -4.7020    0.9800 H   0  0  0  0  0  0  0  0  0  0  0  0
    1.7890   -5.0910    2.6560 H   0  0  0  0  0  0  0  0  0  0  0  0
    3.9900   -2.8220    4.3750 H   0  0  0  0  0  0  0  0  0  0  0  0
    1.8600   -1.1640    1.2440 N   0  0  0  0  0  0  0  0  0  0  0  0
    2.2150   -0.0850    0.4030 C   0  0  0  0  0  0  0  0  0  0  0  0
    1.0230    0.6020   -0.1490 C   0  0  0  0  0  0  0  0  0  0  0  0
    1.2800    1.5480   -0.9810 O   0  0  0  0  0  0  0  0  0  0  0  0
    2.0740   -1.1450    2.2690 H   0  0  0  0  0  0  0  0  0  0  0  0
    2.8510    0.6310    0.9770 H   0  0  0  0  0  0  0  0  0  0  0  0
    2.7970   -0.5130   -0.4550 H   0  0  0  0  0  0  0  0  0  0  0  0
   -0.2750    0.2540    0.2090 N   0  0  0  0  0  0  0  0  0  0  0  0
   -1.4580    0.8840   -0.2790 C   0  0  1  0  0  0  0  0  0  0  0  0
   -1.3030    2.3080   -0.7330 C   0  0  0  0  0  0  0  0  0  0  0  0
   -0.8690    3.2510    0.3310 C   0  0  0  0  0  0  0  0  0  0  0  0
   -1.8680    3.3680    1.4290 C   0  0  0  0  0  0  0  0  0  0  0  0
   -2.9770    2.8420    1.4900 O   0  0  0  0  0  0  0  0  0  0  0  0
   -2.1690    0.0600   -1.2660 C   0  0  0  0  0  0  0  0  0  0  0  0
   -3.2360    0.4840   -1.7860 O   0  0  0  0  0  0  0  0  0  0  0  0
   -1.4950    4.1780    2.5220 O   0  0  0  0  0  0  0  0  0  0  0  0
   -1.7060   -1.1790   -1.6530 O   0  0  0  0  0  0  0  0  0  0  0  0
   -0.3860   -0.5400    0.9320 H   0  0  0  0  0  0  0  0  0  0  0  0
   -2.1350    0.9550    0.6420 H   0  0  0  0  0  0  0  0  0  0  0  0
   -0.6620    2.3830   -1.6090 H   0  0  0  0  0  0  0  0  0  0  0  0
   -2.3680    2.6500   -1.0290 H   0  0  0  0  0  0  0  0  0  0  0  0
    0.0920    2.9900    0.8150 H   0  0  0  0  0  0  0  0  0  0  0  0
   -0.7080    4.2610   -0.1140 H   0  0  0  0  0  0  0  0  0  0  0  0
   -2.1080    4.2670    3.3190 H   0  0  0  0  0  0  0  0  0  0  0  0
  1 10  1  0  0  0  0
  1  2  1  0  0  0  0
  2  3  1  0  0  0  0
  2 11  1  1  0  0  0
  3  4  1  0  0  0  0
  3 13  1  0  0  0  0
  4  8  1  0  0  0  0
  5  4  2  0  0  0  0
  6 15  1  0  0  0  0
  6  2  1  0  0  0  0
  7  6  2  0  0  0  0
  8 14  1  0  0  0  0
  9  1  1  0  0  0  0
 12  3  1  0  0  0  0
 15 19  1  0  0  0  0
 16 20  1  0  0  0  0
 16 15  1  0  0  0  0
 17 22  1  0  0  0  0
 17 16  1  0  0  0  0
 18 17  2  0  0  0  0
 21 16  1  0  0  0  0
 22 32  1  0  0  0  0
 23 22  1  0  0  0  0
 23 33  1  1  0  0  0
 24 23  1  0  0  0  0
 24 25  1  0  0  0  0
 25 36  1  0  0  0  0
 25 26  1  0  0  0  0
 26 27  2  0  0  0  0
 26 30  1  0  0  0  0
 28 23  1  0  0  0  0
 29 28  2  0  0  0  0
 30 38  1  0  0  0  0
 31 28  1  0  0  0  0
 34 24  1  0  0  0  0
 35 24  1  0  0  0  0
 37 25  1  0  0  0  0
M  END
$$$$
