DGG.pdb
 OpenBabel07022418133D

 29 28  0  0  1  0  0  0  0  0999 V2000
    0.6240   -4.0710    1.1580 N   0  0  0  0  0  0  0  0  0  0  0  0
    0.1420   -2.8910    1.8750 C   0  0  1  0  0  0  0  0  0  0  0  0
    1.3530   -2.3750    2.6080 C   0  0  0  0  0  0  0  0  0  0  0  0
    1.0490   -1.2070    3.3980 C   0  0  0  0  0  0  0  0  0  0  0  0
    1.9610   -0.5120    3.9630 O   0  0  0  0  0  0  0  0  0  0  0  0
   -0.4390   -1.9180    0.9120 C   0  0  0  0  0  0  0  0  0  0  0  0
   -1.1480   -0.9430    1.2540 O   0  0  0  0  0  0  0  0  0  0  0  0
   -0.2360   -0.7630    3.6000 O   0  0  0  0  0  0  0  0  0  0  0  0
    1.6290   -4.2220    1.2050 H   0  0  0  0  0  0  0  0  0  0  0  0
    0.0050   -4.8770    1.2510 H   0  0  0  0  0  0  0  0  0  0  0  0
   -0.6410   -3.2030    2.5650 H   0  0  0  0  0  0  0  0  0  0  0  0
    2.2010   -2.2410    1.8940 H   0  0  0  0  0  0  0  0  0  0  0  0
    1.6800   -3.1880    3.3100 H   0  0  0  0  0  0  0  0  0  0  0  0
   -0.4230    0.2260    3.7450 H   0  0  0  0  0  0  0  0  0  0  0  0
   -0.2020   -2.0630   -0.4860 N   0  0  0  0  0  0  0  0  0  0  0  0
   -0.7330   -1.1500   -1.4650 C   0  0  0  0  0  0  0  0  0  0  0  0
   -0.2510    0.2410   -1.3280 C   0  0  0  0  0  0  0  0  0  0  0  0
   -0.6850    1.1590   -2.1070 O   0  0  0  0  0  0  0  0  0  0  0  0
    0.3780   -2.8590   -0.8200 H   0  0  0  0  0  0  0  0  0  0  0  0
   -1.8400   -1.1660   -1.3800 H   0  0  0  0  0  0  0  0  0  0  0  0
   -0.5400   -1.5240   -2.5100 H   0  0  0  0  0  0  0  0  0  0  0  0
    0.6880    0.6610   -0.3700 N   0  0  0  0  0  0  0  0  0  0  0  0
    1.1210    2.0510   -0.2650 C   0  0  0  0  0  0  0  0  0  0  0  0
   -0.0180    2.9420    0.0260 C   0  0  0  0  0  0  0  0  0  0  0  0
    0.1490    4.1710    0.1840 O   0  0  0  0  0  0  0  0  0  0  0  0
   -1.2880    2.4080    0.1250 O   0  0  0  0  0  0  0  0  0  0  0  0
    1.1160   -0.0030    0.2840 H   0  0  0  0  0  0  0  0  0  0  0  0
    1.5970    2.3060   -1.2460 H   0  0  0  0  0  0  0  0  0  0  0  0
    1.9340    2.1390    0.4840 H   0  0  0  0  0  0  0  0  0  0  0  0
  1  9  1  0  0  0  0
  1 10  1  0  0  0  0
  1  2  1  0  0  0  0
  2 11  1  1  0  0  0
  2  3  1  0  0  0  0
  3 13  1  0  0  0  0
  3  4  1  0  0  0  0
  4  8  1  0  0  0  0
  4  5  2  0  0  0  0
  6  7  2  0  0  0  0
  6  2  1  0  0  0  0
  8 14  1  0  0  0  0
 12  3  1  0  0  0  0
 15  6  1  0  0  0  0
 16 20  1  0  0  0  0
 16 17  1  0  0  0  0
 16 15  1  0  0  0  0
 17 22  1  0  0  0  0
 18 17  2  0  0  0  0
 19 15  1  0  0  0  0
 21 16  1  0  0  0  0
 22 23  1  0  0  0  0
 22 27  1  0  0  0  0
 23 24  1  0  0  0  0
 23 29  1  0  0  0  0
 24 26  2  0  0  0  0
 24 25  1  0  0  0  0
 28 23  1  0  0  0  0
M  END
$$$$
