DGK.pdb
 OpenBabel07022418133D

 43 42  0  0  1  0  0  0  0  0999 V2000
    1.2250   -4.1830    2.3220 N   0  0  0  0  0  0  0  0  0  0  0  0
    0.5510   -4.1470    1.0630 C   0  0  1  0  0  0  0  0  0  0  0  0
   -0.9190   -4.4430    1.2820 C   0  0  0  0  0  0  0  0  0  0  0  0
   -1.1050   -5.7840    1.8930 C   0  0  0  0  0  0  0  0  0  0  0  0
   -0.1130   -6.4980    2.1520 O   0  0  0  0  0  0  0  0  0  0  0  0
    0.7710   -2.8560    0.4050 C   0  0  0  0  0  0  0  0  0  0  0  0
    1.4780   -1.9900    0.9870 O   0  0  0  0  0  0  0  0  0  0  0  0
   -2.3610   -6.2530    2.1780 O   0  0  0  0  0  0  0  0  0  0  0  0
    1.7090   -5.0590    2.5470 H   0  0  0  0  0  0  0  0  0  0  0  0
    0.7350   -3.7330    3.1040 H   0  0  0  0  0  0  0  0  0  0  0  0
    1.0230   -4.9300    0.4140 H   0  0  0  0  0  0  0  0  0  0  0  0
   -1.3640   -3.6550    1.8900 H   0  0  0  0  0  0  0  0  0  0  0  0
   -1.3900   -4.4350    0.2650 H   0  0  0  0  0  0  0  0  0  0  0  0
   -2.4540   -6.8970    2.9710 H   0  0  0  0  0  0  0  0  0  0  0  0
    0.2160   -2.5320   -0.8710 N   0  0  0  0  0  0  0  0  0  0  0  0
    0.4620   -1.2530   -1.4690 C   0  0  0  0  0  0  0  0  0  0  0  0
   -0.0430   -0.1370   -0.6190 C   0  0  0  0  0  0  0  0  0  0  0  0
   -0.5910   -0.3970    0.4700 O   0  0  0  0  0  0  0  0  0  0  0  0
   -0.3610   -3.2510   -1.3360 H   0  0  0  0  0  0  0  0  0  0  0  0
    1.5600   -1.0980   -1.5980 H   0  0  0  0  0  0  0  0  0  0  0  0
    0.0100   -1.2260   -2.4690 H   0  0  0  0  0  0  0  0  0  0  0  0
    0.0870    1.2130   -1.0220 N   0  0  0  0  0  0  0  0  0  0  0  0
   -0.3930    2.3310   -0.2260 C   0  0  1  0  0  0  0  0  0  0  0  0
    0.6190    3.4000   -0.1320 C   0  0  0  0  0  0  0  0  0  0  0  0
    1.9450    3.1460    0.4280 C   0  0  0  0  0  0  0  0  0  0  0  0
    2.1620    2.7190    1.8130 C   0  0  0  0  0  0  0  0  0  0  0  0
    1.6270    1.4250    2.2880 C   0  0  0  0  0  0  0  0  0  0  0  0
    2.0350    1.2250    3.7050 N   0  0  0  0  0  0  0  0  0  0  0  0
   -1.5820    2.9320   -0.9690 C   0  0  0  0  0  0  0  0  0  0  0  0
   -2.1770    3.9110   -0.4920 O   0  0  0  0  0  0  0  0  0  0  0  0
   -1.9660    2.3720   -2.1520 O   0  0  0  0  0  0  0  0  0  0  0  0
    0.5480    1.4060   -1.9330 H   0  0  0  0  0  0  0  0  0  0  0  0
   -0.8020    2.0450    0.7250 H   0  0  0  0  0  0  0  0  0  0  0  0
    0.1460    4.2820    0.4130 H   0  0  0  0  0  0  0  0  0  0  0  0
    0.7740    3.7790   -1.1930 H   0  0  0  0  0  0  0  0  0  0  0  0
    2.4460    2.3390   -0.2290 H   0  0  0  0  0  0  0  0  0  0  0  0
    2.5610    4.0990    0.2080 H   0  0  0  0  0  0  0  0  0  0  0  0
    1.8380    3.5680    2.5170 H   0  0  0  0  0  0  0  0  0  0  0  0
    3.2830    2.7250    1.9850 H   0  0  0  0  0  0  0  0  0  0  0  0
    0.5280    1.3740    2.2930 H   0  0  0  0  0  0  0  0  0  0  0  0
    2.0790    0.5660    1.7510 H   0  0  0  0  0  0  0  0  0  0  0  0
    1.6970    2.0800    4.2400 H   0  0  0  0  0  0  0  0  0  0  0  0
    1.5610    0.3620    4.0550 H   0  0  0  0  0  0  0  0  0  0  0  0
  1  9  1  0  0  0  0
  1 10  1  0  0  0  0
  2 11  1  6  0  0  0
  2  3  1  0  0  0  0
  2  1  1  0  0  0  0
  3 12  1  0  0  0  0
  3  4  1  0  0  0  0
  4  5  2  0  0  0  0
  4  8  1  0  0  0  0
  6  7  2  0  0  0  0
  6  2  1  0  0  0  0
  8 14  1  0  0  0  0
 13  3  1  0  0  0  0
 15  6  1  0  0  0  0
 16 15  1  0  0  0  0
 16 17  1  0  0  0  0
 17 18  2  0  0  0  0
 19 15  1  0  0  0  0
 20 16  1  0  0  0  0
 21 16  1  0  0  0  0
 22 17  1  0  0  0  0
 22 23  1  0  0  0  0
 23 24  1  0  0  0  0
 23 33  1  1  0  0  0
 24 34  1  0  0  0  0
 24 25  1  0  0  0  0
 25 26  1  0  0  0  0
 26 39  1  0  0  0  0
 26 27  1  0  0  0  0
 26 38  1  0  0  0  0
 27 40  1  0  0  0  0
 27 28  1  0  0  0  0
 28 43  1  0  0  0  0
 28 42  1  0  0  0  0
 29 30  1  0  0  0  0
 29 23  1  0  0  0  0
 31 29  2  0  0  0  0
 32 22  1  0  0  0  0
 35 24  1  0  0  0  0
 36 25  1  0  0  0  0
 37 25  1  0  0  0  0
 41 27  1  0  0  0  0
M  END
$$$$
