DGL.pdb
 OpenBabel07022418133D

 41 40  0  0  1  0  0  0  0  0999 V2000
    3.4540   -2.4940    2.2220 N   0  0  0  0  0  0  0  0  0  0  0  0
    2.0470   -2.5030    2.5430 C   0  0  1  0  0  0  0  0  0  0  0  0
    1.6100   -1.2510    3.2340 C   0  0  0  0  0  0  0  0  0  0  0  0
    2.3250   -1.0250    4.5110 C   0  0  0  0  0  0  0  0  0  0  0  0
    3.1800   -1.8740    4.8510 O   0  0  0  0  0  0  0  0  0  0  0  0
    1.2700   -2.6970    1.2890 C   0  0  0  0  0  0  0  0  0  0  0  0
    0.0210   -2.7080    1.3420 O   0  0  0  0  0  0  0  0  0  0  0  0
    2.0620    0.0740    5.2940 O   0  0  0  0  0  0  0  0  0  0  0  0
    3.9780   -3.0300    2.9530 H   0  0  0  0  0  0  0  0  0  0  0  0
    3.7880   -1.5060    2.2050 H   0  0  0  0  0  0  0  0  0  0  0  0
    1.8480   -3.4080    3.1640 H   0  0  0  0  0  0  0  0  0  0  0  0
    0.5120   -1.3170    3.4450 H   0  0  0  0  0  0  0  0  0  0  0  0
    1.7570   -0.3730    2.5770 H   0  0  0  0  0  0  0  0  0  0  0  0
    2.2250    0.0460    6.3000 H   0  0  0  0  0  0  0  0  0  0  0  0
    1.9160   -2.8700    0.0480 N   0  0  0  0  0  0  0  0  0  0  0  0
    1.2680   -3.0580   -1.2050 C   0  0  0  0  0  0  0  0  0  0  0  0
    0.4140   -1.9720   -1.6810 C   0  0  0  0  0  0  0  0  0  0  0  0
   -0.1680   -2.1650   -2.7900 O   0  0  0  0  0  0  0  0  0  0  0  0
    2.9680   -2.8570    0.0500 H   0  0  0  0  0  0  0  0  0  0  0  0
    0.5860   -3.9550   -1.0780 H   0  0  0  0  0  0  0  0  0  0  0  0
    1.9870   -3.3480   -2.0110 H   0  0  0  0  0  0  0  0  0  0  0  0
   -1.2290    2.3510    0.6090 C   0  0  0  0  0  0  0  0  0  0  0  0
   -1.9600    1.0350    0.4360 C   0  0  0  0  0  0  0  0  0  0  0  0
   -1.5950    0.1030    1.5310 C   0  0  0  0  0  0  0  0  0  0  0  0
   -1.9750    0.5330   -0.9420 C   0  0  0  0  0  0  0  0  0  0  0  0
   -0.7010    0.2520   -1.6440 C   0  0  2  0  0  0  0  0  0  0  0  0
    0.1580   -0.7340   -1.0620 N   0  0  0  0  0  0  0  0  0  0  0  0
    0.0240    1.4850   -2.0490 C   0  0  0  0  0  0  0  0  0  0  0  0
   -0.6330    2.4130   -2.5710 O   0  0  0  0  0  0  0  0  0  0  0  0
    1.3760    1.7070   -1.9020 O   0  0  0  0  0  0  0  0  0  0  0  0
   -1.3420    2.7530    1.6370 H   0  0  0  0  0  0  0  0  0  0  0  0
   -1.7320    3.0790   -0.0620 H   0  0  0  0  0  0  0  0  0  0  0  0
   -0.1410    2.2640    0.4220 H   0  0  0  0  0  0  0  0  0  0  0  0
   -3.0490    1.3190    0.6530 H   0  0  0  0  0  0  0  0  0  0  0  0
   -0.5410    0.0670    1.8080 H   0  0  0  0  0  0  0  0  0  0  0  0
   -2.0340   -0.9160    1.4090 H   0  0  0  0  0  0  0  0  0  0  0  0
   -2.1070    0.4790    2.4730 H   0  0  0  0  0  0  0  0  0  0  0  0
   -2.5720   -0.4280   -0.9700 H   0  0  0  0  0  0  0  0  0  0  0  0
   -2.5590    1.2230   -1.5830 H   0  0  0  0  0  0  0  0  0  0  0  0
   -1.0380   -0.1880   -2.6400 H   0  0  0  0  0  0  0  0  0  0  0  0
    0.6170   -0.5330   -0.1610 H   0  0  0  0  0  0  0  0  0  0  0  0
  1  2  1  0  0  0  0
  1  9  1  0  0  0  0
  2 11  1  1  0  0  0
  2  3  1  0  0  0  0
  3 12  1  0  0  0  0
  3  4  1  0  0  0  0
  4  5  2  0  0  0  0
  4  8  1  0  0  0  0
  6  7  2  0  0  0  0
  6  2  1  0  0  0  0
  8 14  1  0  0  0  0
 10  1  1  0  0  0  0
 13  3  1  0  0  0  0
 15 19  1  0  0  0  0
 15  6  1  0  0  0  0
 16 20  1  0  0  0  0
 16 15  1  0  0  0  0
 17 16  1  0  0  0  0
 17 27  1  0  0  0  0
 18 17  2  0  0  0  0
 21 16  1  0  0  0  0
 22 31  1  0  0  0  0
 23 22  1  0  0  0  0
 23 34  1  0  0  0  0
 23 24  1  0  0  0  0
 24 35  1  0  0  0  0
 24 37  1  0  0  0  0
 25 23  1  0  0  0  0
 26 40  1  6  0  0  0
 26 27  1  0  0  0  0
 26 25  1  0  0  0  0
 27 41  1  0  0  0  0
 28 30  1  0  0  0  0
 28 26  1  0  0  0  0
 29 28  2  0  0  0  0
 32 22  1  0  0  0  0
 33 22  1  0  0  0  0
 36 24  1  0  0  0  0
 38 25  1  0  0  0  0
 39 25  1  0  0  0  0
M  END
$$$$
