DGN.pdb
 OpenBabel07022418133D

 36 35  0  0  1  0  0  0  0  0999 V2000
    1.7140   -3.4080    2.4930 N   0  0  0  0  0  0  0  0  0  0  0  0
    1.1420   -3.3770    1.1640 C   0  0  1  0  0  0  0  0  0  0  0  0
   -0.3430   -3.1450    1.2990 C   0  0  0  0  0  0  0  0  0  0  0  0
   -0.9040   -4.2680    2.0940 C   0  0  0  0  0  0  0  0  0  0  0  0
   -0.2180   -5.2110    2.5430 O   0  0  0  0  0  0  0  0  0  0  0  0
    1.7880   -2.2840    0.3820 C   0  0  0  0  0  0  0  0  0  0  0  0
    1.4450   -2.0500   -0.8160 O   0  0  0  0  0  0  0  0  0  0  0  0
   -2.2870   -4.2320    2.3320 O   0  0  0  0  0  0  0  0  0  0  0  0
    1.9620   -4.3900    2.7170 H   0  0  0  0  0  0  0  0  0  0  0  0
    1.0770   -2.9350    3.1350 H   0  0  0  0  0  0  0  0  0  0  0  0
    1.3540   -4.3120    0.6160 H   0  0  0  0  0  0  0  0  0  0  0  0
   -0.8530   -3.0310    0.3400 H   0  0  0  0  0  0  0  0  0  0  0  0
   -0.5250   -2.2240    1.9170 H   0  0  0  0  0  0  0  0  0  0  0  0
   -2.7400   -4.8960    2.9390 H   0  0  0  0  0  0  0  0  0  0  0  0
    2.7940   -1.4870    0.9540 N   0  0  0  0  0  0  0  0  0  0  0  0
    3.4660   -0.4020    0.2810 C   0  0  0  0  0  0  0  0  0  0  0  0
    2.4940    0.6510   -0.0430 C   0  0  0  0  0  0  0  0  0  0  0  0
    2.9370    1.6590   -0.6910 O   0  0  0  0  0  0  0  0  0  0  0  0
    3.0680   -1.7060    1.9440 H   0  0  0  0  0  0  0  0  0  0  0  0
    3.9120   -0.7800   -0.6670 H   0  0  0  0  0  0  0  0  0  0  0  0
    4.2890    0.0110    0.9180 H   0  0  0  0  0  0  0  0  0  0  0  0
   -3.0610    1.8600   -1.9790 N   0  0  0  0  0  0  0  0  0  0  0  0
   -1.8440    2.2580   -1.3170 C   0  0  0  0  0  0  0  0  0  0  0  0
   -1.6710    3.4770   -1.1770 O   0  0  0  0  0  0  0  0  0  0  0  0
   -0.9160    1.2060   -0.8650 C   0  0  0  0  0  0  0  0  0  0  0  0
    0.2330    1.7670   -0.0880 C   0  0  2  0  0  0  0  0  0  0  0  0
    1.1330    0.6630    0.2890 N   0  0  0  0  0  0  0  0  0  0  0  0
   -0.2010    2.3790    1.2120 C   0  0  0  0  0  0  0  0  0  0  0  0
    0.1960    1.9100    2.3310 O   0  0  0  0  0  0  0  0  0  0  0  0
   -1.0360    3.4600    1.2610 O   0  0  0  0  0  0  0  0  0  0  0  0
   -3.9590    2.3000   -1.6860 H   0  0  0  0  0  0  0  0  0  0  0  0
   -2.9730    1.1470   -2.7200 H   0  0  0  0  0  0  0  0  0  0  0  0
   -0.5270    0.6730   -1.7640 H   0  0  0  0  0  0  0  0  0  0  0  0
   -1.4810    0.4860   -0.2320 H   0  0  0  0  0  0  0  0  0  0  0  0
    0.7600    2.5500   -0.6520 H   0  0  0  0  0  0  0  0  0  0  0  0
    0.7210   -0.1090    0.8310 H   0  0  0  0  0  0  0  0  0  0  0  0
  1  9  1  0  0  0  0
  1 10  1  0  0  0  0
  2 11  1  6  0  0  0
  2  3  1  0  0  0  0
  2  1  1  0  0  0  0
  3 13  1  0  0  0  0
  3  4  1  0  0  0  0
  4  8  1  0  0  0  0
  4  5  2  0  0  0  0
  6 15  1  0  0  0  0
  6  2  1  0  0  0  0
  7  6  2  0  0  0  0
  8 14  1  0  0  0  0
 12  3  1  0  0  0  0
 15 19  1  0  0  0  0
 16 21  1  0  0  0  0
 16 15  1  0  0  0  0
 17 16  1  0  0  0  0
 17 27  1  0  0  0  0
 18 17  2  0  0  0  0
 20 16  1  0  0  0  0
 22 31  1  0  0  0  0
 22 23  1  0  0  0  0
 23 24  2  0  0  0  0
 23 25  1  0  0  0  0
 25 34  1  0  0  0  0
 25 26  1  0  0  0  0
 26 35  1  6  0  0  0
 26 27  1  0  0  0  0
 26 28  1  0  0  0  0
 27 36  1  0  0  0  0
 28 30  2  0  0  0  0
 28 29  1  0  0  0  0
 32 22  1  0  0  0  0
 33 25  1  0  0  0  0
M  END
$$$$
