DGP.pdb
 OpenBabel07022418133D

 36 36  0  0  1  0  0  0  0  0999 V2000
    1.4220   -1.8150    4.1170 N   0  0  0  0  0  0  0  0  0  0  0  0
    1.7330   -2.2200    2.7570 C   0  0  1  0  0  0  0  0  0  0  0  0
    0.7220   -3.2110    2.3180 C   0  0  0  0  0  0  0  0  0  0  0  0
   -0.6820   -2.7480    2.3550 C   0  0  0  0  0  0  0  0  0  0  0  0
   -1.0560   -1.6200    2.7660 O   0  0  0  0  0  0  0  0  0  0  0  0
    1.9820   -1.0610    1.9190 C   0  0  0  0  0  0  0  0  0  0  0  0
    1.7250    0.1290    2.2830 O   0  0  0  0  0  0  0  0  0  0  0  0
   -1.6580   -3.6220    1.9020 O   0  0  0  0  0  0  0  0  0  0  0  0
    0.9320   -0.9120    4.1090 H   0  0  0  0  0  0  0  0  0  0  0  0
    0.8590   -2.5490    4.6000 H   0  0  0  0  0  0  0  0  0  0  0  0
    2.7240   -2.7970    2.7950 H   0  0  0  0  0  0  0  0  0  0  0  0
    0.9710   -3.6350    1.3210 H   0  0  0  0  0  0  0  0  0  0  0  0
    0.7720   -4.0860    3.0240 H   0  0  0  0  0  0  0  0  0  0  0  0
   -2.6160   -3.3390    1.7320 H   0  0  0  0  0  0  0  0  0  0  0  0
    2.5590   -1.1590    0.5930 N   0  0  0  0  0  0  0  0  0  0  0  0
    2.8340   -0.0560   -0.2190 C   0  0  0  0  0  0  0  0  0  0  0  0
    1.8420    0.8300   -0.7610 C   0  0  0  0  0  0  0  0  0  0  0  0
    2.3880    1.8480   -1.3990 O   0  0  0  0  0  0  0  0  0  0  0  0
    2.7590   -2.1580    0.2820 H   0  0  0  0  0  0  0  0  0  0  0  0
    3.4400   -0.4770   -1.1110 H   0  0  0  0  0  0  0  0  0  0  0  0
    3.6890    0.5540    0.2820 H   0  0  0  0  0  0  0  0  0  0  0  0
    0.4460    0.8560   -0.7680 N   0  0  0  0  0  0  0  0  0  0  0  0
   -0.3500    1.9790   -1.3400 C   0  0  0  0  0  0  0  0  0  0  0  0
   -1.6210    2.0100   -0.5380 C   0  0  0  0  0  0  0  0  0  0  0  0
   -1.5150    0.8400    0.4310 C   0  0  0  0  0  0  0  0  0  0  0  0
   -0.5840   -0.0610   -0.3530 C   0  0  1  0  0  0  0  0  0  0  0  0
   -1.3470   -0.6460   -1.5010 C   0  0  0  0  0  0  0  0  0  0  0  0
   -2.3330   -1.3670   -1.2310 O   0  0  0  0  0  0  0  0  0  0  0  0
   -1.0190   -0.4320   -2.8150 O   0  0  0  0  0  0  0  0  0  0  0  0
   -0.5120    1.7310   -2.3890 H   0  0  0  0  0  0  0  0  0  0  0  0
    0.2490    2.9130   -1.2080 H   0  0  0  0  0  0  0  0  0  0  0  0
   -2.4880    1.7830   -1.2100 H   0  0  0  0  0  0  0  0  0  0  0  0
   -1.7660    2.9690   -0.0050 H   0  0  0  0  0  0  0  0  0  0  0  0
   -2.4910    0.3770    0.6290 H   0  0  0  0  0  0  0  0  0  0  0  0
   -0.9800    1.1730    1.3260 H   0  0  0  0  0  0  0  0  0  0  0  0
   -0.2200   -0.8600    0.3050 H   0  0  0  0  0  0  0  0  0  0  0  0
  1 10  1  0  0  0  0
  2 11  1  1  0  0  0
  2  1  1  0  0  0  0
  3  4  1  0  0  0  0
  3  2  1  0  0  0  0
  3 13  1  0  0  0  0
  4  5  2  0  0  0  0
  6  7  2  0  0  0  0
  6  2  1  0  0  0  0
  8  4  1  0  0  0  0
  9  1  1  0  0  0  0
 12  3  1  0  0  0  0
 14  8  1  0  0  0  0
 15  6  1  0  0  0  0
 16 21  1  0  0  0  0
 16 15  1  0  0  0  0
 17 16  1  0  0  0  0
 18 17  2  0  0  0  0
 19 15  1  0  0  0  0
 20 16  1  0  0  0  0
 22 17  1  0  0  0  0
 22 26  1  0  0  0  0
 23 31  1  0  0  0  0
 23 22  1  0  0  0  0
 23 24  1  0  0  0  0
 24 33  1  0  0  0  0
 24 25  1  0  0  0  0
 25 34  1  0  0  0  0
 25 35  1  0  0  0  0
 26 36  1  1  0  0  0
 26 25  1  0  0  0  0
 27 28  1  0  0  0  0
 27 26  1  0  0  0  0
 29 27  2  0  0  0  0
 30 23  1  0  0  0  0
 32 24  1  0  0  0  0
M  END
$$$$
