DGQ.pdb
 OpenBabel07022418133D

 39 38  0  0  1  0  0  0  0  0999 V2000
    2.6450   -4.6430    1.1290 N   0  0  0  0  0  0  0  0  0  0  0  0
    1.3920   -4.3730    1.7990 C   0  0  1  0  0  0  0  0  0  0  0  0
    1.7030   -3.9470    3.2160 C   0  0  0  0  0  0  0  0  0  0  0  0
    2.4280   -4.9850    3.9660 C   0  0  0  0  0  0  0  0  0  0  0  0
    2.7180   -6.0790    3.4240 O   0  0  0  0  0  0  0  0  0  0  0  0
    0.6300   -3.3060    1.0860 C   0  0  0  0  0  0  0  0  0  0  0  0
   -0.4860   -2.9570    1.5490 O   0  0  0  0  0  0  0  0  0  0  0  0
    2.8110   -4.7940    5.2820 O   0  0  0  0  0  0  0  0  0  0  0  0
    2.8110   -5.6610    1.1330 H   0  0  0  0  0  0  0  0  0  0  0  0
    3.3980   -4.1550    1.6390 H   0  0  0  0  0  0  0  0  0  0  0  0
    0.7570   -5.3050    1.8380 H   0  0  0  0  0  0  0  0  0  0  0  0
    0.7190   -3.7850    3.7110 H   0  0  0  0  0  0  0  0  0  0  0  0
    2.2110   -2.9600    3.2460 H   0  0  0  0  0  0  0  0  0  0  0  0
    3.6510   -5.2430    5.6740 H   0  0  0  0  0  0  0  0  0  0  0  0
    1.1120   -2.6820   -0.0730 N   0  0  0  0  0  0  0  0  0  0  0  0
    0.3910   -1.6400   -0.7870 C   0  0  0  0  0  0  0  0  0  0  0  0
    0.2000   -0.5060    0.1710 C   0  0  0  0  0  0  0  0  0  0  0  0
    0.6250   -0.5490    1.3570 O   0  0  0  0  0  0  0  0  0  0  0  0
    2.0470   -2.9620   -0.4750 H   0  0  0  0  0  0  0  0  0  0  0  0
   -0.6070   -2.0350   -1.0630 H   0  0  0  0  0  0  0  0  0  0  0  0
    0.9250   -1.3280   -1.7040 H   0  0  0  0  0  0  0  0  0  0  0  0
   -1.6690    4.6610   -2.7560 N   0  0  0  0  0  0  0  0  0  0  0  0
   -1.5410    4.0680   -1.4400 C   0  0  0  0  0  0  0  0  0  0  0  0
   -2.6100    3.9730   -0.8320 O   0  0  0  0  0  0  0  0  0  0  0  0
   -0.2220    3.6740   -1.0120 C   0  0  0  0  0  0  0  0  0  0  0  0
   -0.0180    3.0660    0.3250 C   0  0  0  0  0  0  0  0  0  0  0  0
   -0.6950    1.8200    0.6660 C   0  0  2  0  0  0  0  0  0  0  0  0
   -0.4650    0.6880   -0.1770 N   0  0  0  0  0  0  0  0  0  0  0  0
   -2.0880    2.0100    1.0590 C   0  0  0  0  0  0  0  0  0  0  0  0
   -2.3860    2.8940    1.9040 O   0  0  0  0  0  0  0  0  0  0  0  0
   -3.1010    1.2370    0.5220 O   0  0  0  0  0  0  0  0  0  0  0  0
   -2.3530    4.3200   -3.4420 H   0  0  0  0  0  0  0  0  0  0  0  0
   -1.0250    5.4450   -2.9470 H   0  0  0  0  0  0  0  0  0  0  0  0
    0.4970    4.5560   -1.1710 H   0  0  0  0  0  0  0  0  0  0  0  0
    0.2300    2.9350   -1.7680 H   0  0  0  0  0  0  0  0  0  0  0  0
   -0.4170    3.8390    1.0640 H   0  0  0  0  0  0  0  0  0  0  0  0
    1.0810    3.0810    0.6140 H   0  0  0  0  0  0  0  0  0  0  0  0
   -0.1980    1.4790    1.6630 H   0  0  0  0  0  0  0  0  0  0  0  0
   -0.8360    0.7670   -1.1560 H   0  0  0  0  0  0  0  0  0  0  0  0
  1  9  1  0  0  0  0
  1 10  1  0  0  0  0
  1  2  1  0  0  0  0
  2 11  1  1  0  0  0
  2  3  1  0  0  0  0
  3 13  1  0  0  0  0
  3 12  1  0  0  0  0
  3  4  1  0  0  0  0
  4  8  1  0  0  0  0
  5  4  2  0  0  0  0
  6  7  2  0  0  0  0
  6  2  1  0  0  0  0
  8 14  1  0  0  0  0
 15  6  1  0  0  0  0
 16 15  1  0  0  0  0
 16 17  1  0  0  0  0
 17 18  2  0  0  0  0
 19 15  1  0  0  0  0
 20 16  1  0  0  0  0
 21 16  1  0  0  0  0
 22 23  1  0  0  0  0
 23 25  1  0  0  0  0
 23 24  2  0  0  0  0
 25 26  1  0  0  0  0
 26 37  1  0  0  0  0
 26 27  1  0  0  0  0
 26 36  1  0  0  0  0
 27 29  1  0  0  0  0
 27 38  1  1  0  0  0
 28 17  1  0  0  0  0
 28 27  1  0  0  0  0
 29 30  1  0  0  0  0
 31 29  2  0  0  0  0
 32 22  1  0  0  0  0
 33 22  1  0  0  0  0
 34 25  1  0  0  0  0
 35 25  1  0  0  0  0
 39 28  1  0  0  0  0
M  END
$$$$
