DGR.pdb
 OpenBabel07022418133D

 45 44  0  0  1  0  0  0  0  0999 V2000
   -0.1360   -5.1070    0.2690 N   0  0  0  0  0  0  0  0  0  0  0  0
    0.5350   -4.1790    1.1190 C   0  0  1  0  0  0  0  0  0  0  0  0
    1.8650   -4.6000    1.6330 C   0  0  0  0  0  0  0  0  0  0  0  0
    1.8350   -5.8320    2.4520 C   0  0  0  0  0  0  0  0  0  0  0  0
    2.9280   -6.2910    2.8850 O   0  0  0  0  0  0  0  0  0  0  0  0
    0.6740   -2.8290    0.4810 C   0  0  0  0  0  0  0  0  0  0  0  0
    1.2490   -1.9090    1.1170 O   0  0  0  0  0  0  0  0  0  0  0  0
    0.6770   -6.5140    2.7750 O   0  0  0  0  0  0  0  0  0  0  0  0
   -0.3170   -5.9840    0.7710 H   0  0  0  0  0  0  0  0  0  0  0  0
   -1.0960   -4.6990    0.0510 H   0  0  0  0  0  0  0  0  0  0  0  0
   -0.1270   -4.0520    2.0290 H   0  0  0  0  0  0  0  0  0  0  0  0
    2.2670   -3.7800    2.2960 H   0  0  0  0  0  0  0  0  0  0  0  0
    2.6090   -4.7870    0.8170 H   0  0  0  0  0  0  0  0  0  0  0  0
    0.5440   -6.8750    3.7120 H   0  0  0  0  0  0  0  0  0  0  0  0
    0.1740   -2.5510   -0.8270 N   0  0  0  0  0  0  0  0  0  0  0  0
    0.2610   -1.2790   -1.4880 C   0  0  0  0  0  0  0  0  0  0  0  0
   -0.4770   -0.1780   -0.8280 C   0  0  0  0  0  0  0  0  0  0  0  0
   -0.3930    0.9900   -1.3490 O   0  0  0  0  0  0  0  0  0  0  0  0
   -0.2850   -3.4000   -1.2840 H   0  0  0  0  0  0  0  0  0  0  0  0
    1.3110   -0.9900   -1.7220 H   0  0  0  0  0  0  0  0  0  0  0  0
   -0.2570   -1.4100   -2.4860 H   0  0  0  0  0  0  0  0  0  0  0  0
    3.8400    3.5620    0.9920 N   0  0  0  0  0  0  0  0  0  0  0  0
    2.5400    3.5290    0.4480 C   0  0  0  0  0  0  0  0  0  0  0  0
    2.3600    2.9510   -0.6920 N   0  0  0  0  0  0  0  0  0  0  0  0
    1.4890    4.1340    1.1790 N   0  0  0  0  0  0  0  0  0  0  0  0
    0.1260    3.8210    0.8290 C   0  0  0  0  0  0  0  0  0  0  0  0
   -0.2060    2.3670    1.1740 C   0  0  0  0  0  0  0  0  0  0  0  0
   -1.6240    2.0420    0.7980 C   0  0  0  0  0  0  0  0  0  0  0  0
   -1.9890    0.5950    1.0800 C   0  0  2  0  0  0  0  0  0  0  0  0
   -1.2530   -0.3710    0.3240 N   0  0  0  0  0  0  0  0  0  0  0  0
   -3.4150    0.3360    1.0540 C   0  0  0  0  0  0  0  0  0  0  0  0
   -4.2180    1.0820    1.6610 O   0  0  0  0  0  0  0  0  0  0  0  0
   -3.9200   -0.7450    0.3530 O   0  0  0  0  0  0  0  0  0  0  0  0
    4.1790    4.4060    1.4750 H   0  0  0  0  0  0  0  0  0  0  0  0
    4.4530    2.7390    0.9050 H   0  0  0  0  0  0  0  0  0  0  0  0
    3.1370    2.5240   -1.1980 H   0  0  0  0  0  0  0  0  0  0  0  0
    1.7080    4.7910    1.9530 H   0  0  0  0  0  0  0  0  0  0  0  0
   -0.1260    4.0480   -0.2290 H   0  0  0  0  0  0  0  0  0  0  0  0
   -0.5540    4.4900    1.4290 H   0  0  0  0  0  0  0  0  0  0  0  0
    0.5750    1.7040    0.8690 H   0  0  0  0  0  0  0  0  0  0  0  0
   -0.1790    2.3310    2.3260 H   0  0  0  0  0  0  0  0  0  0  0  0
   -1.9090    2.3190   -0.2260 H   0  0  0  0  0  0  0  0  0  0  0  0
   -2.2640    2.6860    1.4790 H   0  0  0  0  0  0  0  0  0  0  0  0
   -1.6500    0.5110    2.1990 H   0  0  0  0  0  0  0  0  0  0  0  0
   -1.2990   -1.3960    0.6510 H   0  0  0  0  0  0  0  0  0  0  0  0
  1  9  1  0  0  0  0
  1  2  1  0  0  0  0
  2  3  1  0  0  0  0
  2 11  1  1  0  0  0
  3 12  1  0  0  0  0
  3  4  1  0  0  0  0
  4  8  1  0  0  0  0
  4  5  2  0  0  0  0
  6  7  2  0  0  0  0
  6  2  1  0  0  0  0
  8 14  1  0  0  0  0
 10  1  1  0  0  0  0
 13  3  1  0  0  0  0
 15  6  1  0  0  0  0
 16 17  1  0  0  0  0
 16 15  1  0  0  0  0
 17 30  1  0  0  0  0
 18 17  2  0  0  0  0
 19 15  1  0  0  0  0
 20 16  1  0  0  0  0
 21 16  1  0  0  0  0
 22 34  1  0  0  0  0
 23 22  1  0  0  0  0
 23 25  1  0  0  0  0
 24 23  2  0  0  0  0
 25 37  1  0  0  0  0
 26 27  1  0  0  0  0
 26 25  1  0  0  0  0
 26 39  1  0  0  0  0
 27 41  1  0  0  0  0
 28 29  1  0  0  0  0
 28 27  1  0  0  0  0
 28 43  1  0  0  0  0
 29 44  1  1  0  0  0
 30 45  1  0  0  0  0
 30 29  1  0  0  0  0
 31 29  1  0  0  0  0
 31 32  1  0  0  0  0
 33 31  2  0  0  0  0
 35 22  1  0  0  0  0
 36 24  1  0  0  0  0
 38 26  1  0  0  0  0
 40 27  1  0  0  0  0
 42 28  1  0  0  0  0
M  END
$$$$
