DGS.pdb
 OpenBabel07022418133D

 33 32  0  0  1  0  0  0  0  0999 V2000
   -1.2890   -3.3430    0.1380 N   0  0  0  0  0  0  0  0  0  0  0  0
   -0.5580   -2.6500    1.1450 C   0  0  1  0  0  0  0  0  0  0  0  0
   -0.2000   -3.6480    2.2260 C   0  0  0  0  0  0  0  0  0  0  0  0
   -1.4620   -4.1950    2.7660 C   0  0  0  0  0  0  0  0  0  0  0  0
   -2.1560   -3.5050    3.5440 O   0  0  0  0  0  0  0  0  0  0  0  0
    0.5690   -1.8350    0.6930 C   0  0  0  0  0  0  0  0  0  0  0  0
    1.2050   -1.1900    1.5860 O   0  0  0  0  0  0  0  0  0  0  0  0
   -1.8770   -5.4650    2.4160 O   0  0  0  0  0  0  0  0  0  0  0  0
   -0.7910   -3.6100   -0.7120 H   0  0  0  0  0  0  0  0  0  0  0  0
   -2.2760   -3.0560    0.0240 H   0  0  0  0  0  0  0  0  0  0  0  0
   -1.2890   -1.9370    1.6350 H   0  0  0  0  0  0  0  0  0  0  0  0
    0.3350   -4.4790    1.6790 H   0  0  0  0  0  0  0  0  0  0  0  0
    0.4790   -3.2310    2.9980 H   0  0  0  0  0  0  0  0  0  0  0  0
   -2.5540   -6.0020    2.9620 H   0  0  0  0  0  0  0  0  0  0  0  0
    1.0280   -1.6900   -0.6330 N   0  0  0  0  0  0  0  0  0  0  0  0
    2.1420   -0.8610   -1.0390 C   0  0  0  0  0  0  0  0  0  0  0  0
    1.9290    0.5830   -0.7770 C   0  0  0  0  0  0  0  0  0  0  0  0
    2.8940    1.3510   -1.0760 O   0  0  0  0  0  0  0  0  0  0  0  0
    0.5270   -2.2150   -1.3780 H   0  0  0  0  0  0  0  0  0  0  0  0
    2.3640   -1.0390   -2.1240 H   0  0  0  0  0  0  0  0  0  0  0  0
    3.0770   -1.1690   -0.5210 H   0  0  0  0  0  0  0  0  0  0  0  0
   -1.7590    2.5680   -0.5430 O   0  0  0  0  0  0  0  0  0  0  0  0
   -0.5470    3.1560   -0.8060 C   0  0  0  0  0  0  0  0  0  0  0  0
    0.5990    2.5890    0.0030 C   0  0  2  0  0  0  0  0  0  0  0  0
    0.7750    1.1700   -0.2410 N   0  0  0  0  0  0  0  0  0  0  0  0
    0.3700    2.7740    1.4530 C   0  0  0  0  0  0  0  0  0  0  0  0
    0.3580    1.7920    2.2620 O   0  0  0  0  0  0  0  0  0  0  0  0
    0.1530    4.0250    2.0360 O   0  0  0  0  0  0  0  0  0  0  0  0
   -2.2180    2.3960   -1.4120 H   0  0  0  0  0  0  0  0  0  0  0  0
   -0.6270    4.2280   -0.5350 H   0  0  0  0  0  0  0  0  0  0  0  0
   -0.2500    3.0830   -1.8900 H   0  0  0  0  0  0  0  0  0  0  0  0
    1.4930    3.1770   -0.2730 H   0  0  0  0  0  0  0  0  0  0  0  0
   -0.0290    0.5490   -0.0090 H   0  0  0  0  0  0  0  0  0  0  0  0
  1  2  1  0  0  0  0
  2 11  1  1  0  0  0
  2  3  1  0  0  0  0
  3  4  1  0  0  0  0
  3 13  1  0  0  0  0
  4  5  2  0  0  0  0
  6  2  1  0  0  0  0
  6  7  2  0  0  0  0
  8  4  1  0  0  0  0
  8 14  1  0  0  0  0
  9  1  1  0  0  0  0
 10  1  1  0  0  0  0
 12  3  1  0  0  0  0
 15  6  1  0  0  0  0
 16 17  1  0  0  0  0
 16 15  1  0  0  0  0
 16 21  1  0  0  0  0
 17 25  1  0  0  0  0
 18 17  2  0  0  0  0
 19 15  1  0  0  0  0
 20 16  1  0  0  0  0
 23 22  1  0  0  0  0
 23 30  1  0  0  0  0
 23 24  1  0  0  0  0
 24 32  1  6  0  0  0
 24 26  1  0  0  0  0
 25 33  1  0  0  0  0
 25 24  1  0  0  0  0
 26 28  2  0  0  0  0
 26 27  1  0  0  0  0
 29 22  1  0  0  0  0
 31 23  1  0  0  0  0
M  END
$$$$
