DGY.pdb
 OpenBabel07022418133D

 43 43  0  0  1  0  0  0  0  0999 V2000
   -5.7540   -2.8410    1.7840 N   0  0  0  0  0  0  0  0  0  0  0  0
   -4.6540   -1.9330    2.0130 C   0  0  1  0  0  0  0  0  0  0  0  0
   -4.1430   -2.2110    3.4110 C   0  0  0  0  0  0  0  0  0  0  0  0
   -5.2390   -1.9720    4.3640 C   0  0  0  0  0  0  0  0  0  0  0  0
   -5.0450   -2.1530    5.5850 O   0  0  0  0  0  0  0  0  0  0  0  0
   -3.6010   -2.1640    0.9910 C   0  0  0  0  0  0  0  0  0  0  0  0
   -3.7400   -3.0450    0.1010 O   0  0  0  0  0  0  0  0  0  0  0  0
   -6.4740   -1.5510    3.9300 O   0  0  0  0  0  0  0  0  0  0  0  0
   -6.6310   -2.3000    1.7270 H   0  0  0  0  0  0  0  0  0  0  0  0
   -5.6030   -3.2960    0.8590 H   0  0  0  0  0  0  0  0  0  0  0  0
   -5.0370   -0.9100    2.0070 H   0  0  0  0  0  0  0  0  0  0  0  0
   -3.2260   -1.6470    3.6570 H   0  0  0  0  0  0  0  0  0  0  0  0
   -3.8520   -3.2980    3.5040 H   0  0  0  0  0  0  0  0  0  0  0  0
   -7.1180   -1.0220    4.5390 H   0  0  0  0  0  0  0  0  0  0  0  0
   -2.3900   -1.4150    0.9580 N   0  0  0  0  0  0  0  0  0  0  0  0
   -1.3710   -1.6440   -0.0380 C   0  0  0  0  0  0  0  0  0  0  0  0
   -0.2590   -0.7010    0.2190 C   0  0  0  0  0  0  0  0  0  0  0  0
   -0.3140    0.1060    1.1660 O   0  0  0  0  0  0  0  0  0  0  0  0
   -2.2580   -0.6900    1.6770 H   0  0  0  0  0  0  0  0  0  0  0  0
   -1.7640   -1.4640   -1.0750 H   0  0  0  0  0  0  0  0  0  0  0  0
   -1.0340   -2.7010   -0.0450 H   0  0  0  0  0  0  0  0  0  0  0  0
    7.6430    3.0910    0.4480 O   0  0  0  0  0  0  0  0  0  0  0  0
    6.5800    2.2060    0.2970 C   0  0  0  0  0  0  0  0  0  0  0  0
    6.3100    1.6440   -0.9320 C   0  0  0  0  0  0  0  0  0  0  0  0
    5.2580    0.7670   -1.0900 C   0  0  0  0  0  0  0  0  0  0  0  0
    4.4170    0.3930   -0.0590 C   0  0  0  0  0  0  0  0  0  0  0  0
    3.2810   -0.5410   -0.2130 C   0  0  0  0  0  0  0  0  0  0  0  0
    2.0200    0.1770   -0.4460 C   0  0  2  0  0  0  0  0  0  0  0  0
    0.8750   -0.7020   -0.6050 N   0  0  0  0  0  0  0  0  0  0  0  0
    2.1190    1.0810   -1.6050 C   0  0  0  0  0  0  0  0  0  0  0  0
    2.9560    1.9980   -1.7240 O   0  0  0  0  0  0  0  0  0  0  0  0
    4.7100    0.9760    1.1830 C   0  0  0  0  0  0  0  0  0  0  0  0
    5.7590    1.8530    1.3470 C   0  0  0  0  0  0  0  0  0  0  0  0
    1.2240    0.9440   -2.6920 O   0  0  0  0  0  0  0  0  0  0  0  0
    8.6020    2.8330    0.1720 H   0  0  0  0  0  0  0  0  0  0  0  0
    6.9620    1.9230   -1.7700 H   0  0  0  0  0  0  0  0  0  0  0  0
    5.0800    0.3360   -2.0830 H   0  0  0  0  0  0  0  0  0  0  0  0
    3.2640   -1.1840    0.7010 H   0  0  0  0  0  0  0  0  0  0  0  0
    3.5460   -1.1710   -1.1160 H   0  0  0  0  0  0  0  0  0  0  0  0
    1.8010    0.8290    0.4460 H   0  0  0  0  0  0  0  0  0  0  0  0
    0.9120   -1.3770   -1.3920 H   0  0  0  0  0  0  0  0  0  0  0  0
    4.0510    0.6850    1.9990 H   0  0  0  0  0  0  0  0  0  0  0  0
    5.9650    2.2900    2.3130 H   0  0  0  0  0  0  0  0  0  0  0  0
  1  2  1  0  0  0  0
  2 11  1  6  0  0  0
  2  3  1  0  0  0  0
  3 13  1  0  0  0  0
  3 12  1  0  0  0  0
  3  4  1  0  0  0  0
  4  5  2  0  0  0  0
  6  2  1  0  0  0  0
  7  6  2  0  0  0  0
  8  4  1  0  0  0  0
  8 14  1  0  0  0  0
  9  1  1  0  0  0  0
 10  1  1  0  0  0  0
 15  6  1  0  0  0  0
 15 19  1  0  0  0  0
 16 17  1  0  0  0  0
 16 15  1  0  0  0  0
 17 18  2  0  0  0  0
 20 16  1  0  0  0  0
 21 16  1  0  0  0  0
 23 22  1  0  0  0  0
 23 33  1  0  0  0  0
 24 23  2  0  0  0  0
 25 24  1  0  0  0  0
 25 26  2  0  0  0  0
 26 32  1  0  0  0  0
 27 26  1  0  0  0  0
 27 38  1  0  0  0  0
 28 27  1  0  0  0  0
 28 40  1  1  0  0  0
 29 28  1  0  0  0  0
 29 17  1  0  0  0  0
 30 28  1  0  0  0  0
 31 30  1  0  0  0  0
 32 33  2  0  0  0  0
 32 42  1  0  0  0  0
 33 43  1  0  0  0  0
 34 30  2  0  0  0  0
 35 22  1  0  0  0  0
 36 24  1  0  0  0  0
 37 25  1  0  0  0  0
 39 27  1  0  0  0  0
 41 29  1  0  0  0  0
M  END
$$$$
