DHA.pdb
 OpenBabel07022418143D

 42 42  0  0  1  0  0  0  0  0999 V2000
    0.8000   -3.3180   -1.4010 N   0  0  0  0  0  0  0  0  0  0  0  0
    1.2710   -3.5190   -0.0630 C   0  0  1  0  0  0  0  0  0  0  0  0
    2.6490   -4.1930   -0.0300 C   0  0  0  0  0  0  0  0  0  0  0  0
    3.1160   -4.3850    1.3410 C   0  0  0  0  0  0  0  0  0  0  0  0
    4.0710   -3.7430    1.8960 O   0  0  0  0  0  0  0  0  0  0  0  0
    1.3500   -2.3000    0.7490 C   0  0  0  0  0  0  0  0  0  0  0  0
    1.7870   -2.3030    1.9240 O   0  0  0  0  0  0  0  0  0  0  0  0
    2.5030   -5.3410    2.1760 O   0  0  0  0  0  0  0  0  0  0  0  0
    0.9980   -4.1810   -1.9540 H   0  0  0  0  0  0  0  0  0  0  0  0
   -0.2630   -3.2800   -1.3750 H   0  0  0  0  0  0  0  0  0  0  0  0
    0.5930   -4.2900    0.3940 H   0  0  0  0  0  0  0  0  0  0  0  0
    3.3510   -3.4600   -0.5080 H   0  0  0  0  0  0  0  0  0  0  0  0
    2.6640   -5.1380   -0.5710 H   0  0  0  0  0  0  0  0  0  0  0  0
    2.2620   -5.0510    3.1230 H   0  0  0  0  0  0  0  0  0  0  0  0
    0.9250   -1.0170    0.2440 N   0  0  0  0  0  0  0  0  0  0  0  0
    0.9900    0.1960    1.0340 C   0  0  1  0  0  0  0  0  0  0  0  0
    1.9180    1.2150    0.4420 C   0  0  0  0  0  0  0  0  0  0  0  0
    1.9700    2.4500    1.2580 C   0  0  0  0  0  0  0  0  0  0  0  0
    2.8070    2.7670    2.3070 C   0  0  0  0  0  0  0  0  0  0  0  0
    2.5000    4.0070    2.7590 N   0  0  0  0  0  0  0  0  0  0  0  0
    1.4870    4.4660    2.0100 C   0  0  0  0  0  0  0  0  0  0  0  0
    1.1760    3.5140    1.1050 N   0  0  0  0  0  0  0  0  0  0  0  0
   -0.3890    0.6840    1.2270 C   0  0  0  0  0  0  0  0  0  0  0  0
   -0.6020    1.7280    1.8990 O   0  0  0  0  0  0  0  0  0  0  0  0
    0.5600   -0.9990   -0.7280 H   0  0  0  0  0  0  0  0  0  0  0  0
    1.4140   -0.0270    2.0620 H   0  0  0  0  0  0  0  0  0  0  0  0
    1.6530    1.4610   -0.6200 H   0  0  0  0  0  0  0  0  0  0  0  0
    2.9480    0.7930    0.3660 H   0  0  0  0  0  0  0  0  0  0  0  0
    3.5750    2.1560    2.7120 H   0  0  0  0  0  0  0  0  0  0  0  0
    2.9700    4.5230    3.5560 H   0  0  0  0  0  0  0  0  0  0  0  0
    1.0210    5.4240    2.1250 H   0  0  0  0  0  0  0  0  0  0  0  0
   -3.3610    0.8970   -0.5700 C   0  0  0  0  0  0  0  0  0  0  0  0
   -2.8760    0.3880    0.7910 C   0  0  2  0  0  0  0  0  0  0  0  0
   -1.4810    0.0250    0.6850 N   0  0  0  0  0  0  0  0  0  0  0  0
   -3.7360   -0.6900    1.2310 C   0  0  0  0  0  0  0  0  0  0  0  0
   -4.9610   -0.5210    1.3990 O   0  0  0  0  0  0  0  0  0  0  0  0
   -3.2180   -1.9530    1.4790 O   0  0  0  0  0  0  0  0  0  0  0  0
   -4.4400    0.7880   -0.6350 H   0  0  0  0  0  0  0  0  0  0  0  0
   -3.0960    1.9670   -0.6530 H   0  0  0  0  0  0  0  0  0  0  0  0
   -2.8460    0.2540   -1.3390 H   0  0  0  0  0  0  0  0  0  0  0  0
   -2.9510    1.2500    1.4690 H   0  0  0  0  0  0  0  0  0  0  0  0
   -1.2820   -0.8570    0.1240 H   0  0  0  0  0  0  0  0  0  0  0  0
  1 10  1  0  0  0  0
  1  2  1  0  0  0  0
  2  3  1  0  0  0  0
  2 11  1  1  0  0  0
  2  6  1  0  0  0  0
  3  4  1  0  0  0  0
  4  5  2  0  0  0  0
  4  8  1  0  0  0  0
  6  7  2  0  0  0  0
  8 14  1  0  0  0  0
  9  1  1  0  0  0  0
 12  3  1  0  0  0  0
 13  3  1  0  0  0  0
 15  6  1  0  0  0  0
 15 16  1  0  0  0  0
 16 23  1  0  0  0  0
 16 26  1  1  0  0  0
 17 16  1  0  0  0  0
 17 18  1  0  0  0  0
 18 19  2  0  0  0  0
 19 29  1  0  0  0  0
 19 20  1  0  0  0  0
 20 30  1  0  0  0  0
 21 31  1  0  0  0  0
 21 20  1  0  0  0  0
 22 18  1  0  0  0  0
 22 21  2  0  0  0  0
 23 24  2  0  0  0  0
 25 15  1  0  0  0  0
 27 17  1  0  0  0  0
 28 17  1  0  0  0  0
 32 33  1  0  0  0  0
 33 35  1  0  0  0  0
 33 41  1  1  0  0  0
 34 33  1  0  0  0  0
 34 23  1  0  0  0  0
 35 36  2  0  0  0  0
 35 37  1  0  0  0  0
 38 32  1  0  0  0  0
 39 32  1  0  0  0  0
 40 32  1  0  0  0  0
 42 34  1  0  0  0  0
M  END
$$$$
