DHD.pdb
 OpenBabel07022418143D

 45 45  0  0  1  0  0  0  0  0999 V2000
    2.5060   -0.9950    4.1470 N   0  0  0  0  0  0  0  0  0  0  0  0
    1.3210   -0.1730    4.2050 C   0  0  1  0  0  0  0  0  0  0  0  0
    1.5460    1.1340    4.9140 C   0  0  0  0  0  0  0  0  0  0  0  0
    0.2770    1.9020    4.9170 C   0  0  0  0  0  0  0  0  0  0  0  0
   -0.6560    1.5590    5.6760 O   0  0  0  0  0  0  0  0  0  0  0  0
    0.6410   -0.0170    2.9090 C   0  0  0  0  0  0  0  0  0  0  0  0
   -0.3920    0.6960    2.8400 O   0  0  0  0  0  0  0  0  0  0  0  0
    0.1140    3.0070    4.0770 O   0  0  0  0  0  0  0  0  0  0  0  0
    2.2040   -1.9480    3.8240 H   0  0  0  0  0  0  0  0  0  0  0  0
    2.8390   -1.1030    5.1350 H   0  0  0  0  0  0  0  0  0  0  0  0
    0.5960   -0.7460    4.8590 H   0  0  0  0  0  0  0  0  0  0  0  0
    2.3710    1.7350    4.5340 H   0  0  0  0  0  0  0  0  0  0  0  0
    1.7740    0.8930    5.9890 H   0  0  0  0  0  0  0  0  0  0  0  0
   -0.8180    3.3790    3.9010 H   0  0  0  0  0  0  0  0  0  0  0  0
    1.0740   -0.6280    1.6930 N   0  0  0  0  0  0  0  0  0  0  0  0
    0.3410   -0.4210    0.4500 C   0  0  1  0  0  0  0  0  0  0  0  0
    1.2080    0.3130   -0.5650 C   0  0  0  0  0  0  0  0  0  0  0  0
    1.6220    1.6340   -0.0390 C   0  0  0  0  0  0  0  0  0  0  0  0
    2.7800    1.8470    0.6950 C   0  0  0  0  0  0  0  0  0  0  0  0
    2.8850    3.1500    1.0320 N   0  0  0  0  0  0  0  0  0  0  0  0
    1.7920    3.7650    0.5120 C   0  0  0  0  0  0  0  0  0  0  0  0
    1.0430    2.8430   -0.1290 N   0  0  0  0  0  0  0  0  0  0  0  0
   -0.1160   -1.7220   -0.0780 C   0  0  0  0  0  0  0  0  0  0  0  0
    0.1190   -2.8280    0.4660 O   0  0  0  0  0  0  0  0  0  0  0  0
    1.9200   -1.2140    1.7350 H   0  0  0  0  0  0  0  0  0  0  0  0
   -0.5140    0.2420    0.6850 H   0  0  0  0  0  0  0  0  0  0  0  0
    0.7100    0.3590   -1.5310 H   0  0  0  0  0  0  0  0  0  0  0  0
    2.1310   -0.3180   -0.7130 H   0  0  0  0  0  0  0  0  0  0  0  0
    3.4910    1.0780    0.9550 H   0  0  0  0  0  0  0  0  0  0  0  0
    3.6440    3.6120    1.5810 H   0  0  0  0  0  0  0  0  0  0  0  0
    1.6170    4.8270    0.6320 H   0  0  0  0  0  0  0  0  0  0  0  0
   -0.8770   -1.7730   -1.2860 N   0  0  0  0  0  0  0  0  0  0  0  0
   -1.3370   -3.0580   -1.8240 C   0  0  1  0  0  0  0  0  0  0  0  0
   -2.8650   -2.9820   -1.7550 C   0  0  0  0  0  0  0  0  0  0  0  0
   -3.5090   -4.2030   -2.2610 C   0  0  0  0  0  0  0  0  0  0  0  0
   -3.6700   -4.3650   -3.4840 O   0  0  0  0  0  0  0  0  0  0  0  0
   -0.8410   -3.1800   -3.1930 C   0  0  0  0  0  0  0  0  0  0  0  0
   -1.0770   -4.1900   -3.9060 O   0  0  0  0  0  0  0  0  0  0  0  0
   -3.9350   -5.1710   -1.3820 O   0  0  0  0  0  0  0  0  0  0  0  0
   -0.0710   -2.1780   -3.7930 O   0  0  0  0  0  0  0  0  0  0  0  0
   -1.1250   -0.9130   -1.8110 H   0  0  0  0  0  0  0  0  0  0  0  0
   -0.9770   -3.8970   -1.1950 H   0  0  0  0  0  0  0  0  0  0  0  0
   -3.1620   -2.8470   -0.6840 H   0  0  0  0  0  0  0  0  0  0  0  0
   -3.2380   -2.1320   -2.3640 H   0  0  0  0  0  0  0  0  0  0  0  0
   -4.3990   -6.0130   -1.6880 H   0  0  0  0  0  0  0  0  0  0  0  0
  1  2  1  0  0  0  0
  1 10  1  0  0  0  0
  2 11  1  1  0  0  0
  2  3  1  0  0  0  0
  3  4  1  0  0  0  0
  3 13  1  0  0  0  0
  4  5  2  0  0  0  0
  6  2  1  0  0  0  0
  7  6  2  0  0  0  0
  8  4  1  0  0  0  0
  9  1  1  0  0  0  0
 12  3  1  0  0  0  0
 14  8  1  0  0  0  0
 15 25  1  0  0  0  0
 15  6  1  0  0  0  0
 16 26  1  1  0  0  0
 16 15  1  0  0  0  0
 17 18  1  0  0  0  0
 17 16  1  0  0  0  0
 18 19  2  0  0  0  0
 19 29  1  0  0  0  0
 19 20  1  0  0  0  0
 20 30  1  0  0  0  0
 21 31  1  0  0  0  0
 21 20  1  0  0  0  0
 22 18  1  0  0  0  0
 22 21  2  0  0  0  0
 23 16  1  0  0  0  0
 23 24  2  0  0  0  0
 27 17  1  0  0  0  0
 28 17  1  0  0  0  0
 32 23  1  0  0  0  0
 33 34  1  0  0  0  0
 33 32  1  0  0  0  0
 33 42  1  1  0  0  0
 34 43  1  0  0  0  0
 35 34  1  0  0  0  0
 35 39  1  0  0  0  0
 36 35  2  0  0  0  0
 37 33  1  0  0  0  0
 38 37  2  0  0  0  0
 40 37  1  0  0  0  0
 41 32  1  0  0  0  0
 44 34  1  0  0  0  0
 45 39  1  0  0  0  0
M  END
$$$$
