DHE.pdb
 OpenBabel07022418143D

 48 48  0  0  1  0  0  0  0  0999 V2000
    1.1610    0.9900   -1.7010 N   0  0  0  0  0  0  0  0  0  0  0  0
    0.8910    1.6980   -0.4500 C   0  0  1  0  0  0  0  0  0  0  0  0
   -0.5160    2.2390   -0.4360 C   0  0  0  0  0  0  0  0  0  0  0  0
   -0.8350    2.9590    0.7970 C   0  0  0  0  0  0  0  0  0  0  0  0
   -1.4080    2.4530    1.8120 O   0  0  0  0  0  0  0  0  0  0  0  0
    1.0110    0.7160    0.7000 C   0  0  0  0  0  0  0  0  0  0  0  0
    0.8680    1.2450    1.8240 O   0  0  0  0  0  0  0  0  0  0  0  0
   -0.5150    4.3180    0.9440 O   0  0  0  0  0  0  0  0  0  0  0  0
    0.2750    0.4810   -1.9390 H   0  0  0  0  0  0  0  0  0  0  0  0
    1.2850    1.7490   -2.4250 H   0  0  0  0  0  0  0  0  0  0  0  0
    1.6170    2.5010   -0.2640 H   0  0  0  0  0  0  0  0  0  0  0  0
   -1.2690    1.4100   -0.5380 H   0  0  0  0  0  0  0  0  0  0  0  0
   -0.6730    2.9490   -1.2890 H   0  0  0  0  0  0  0  0  0  0  0  0
   -0.6320    4.8150    1.8270 H   0  0  0  0  0  0  0  0  0  0  0  0
    1.2620   -0.6440    0.4430 N   0  0  0  0  0  0  0  0  0  0  0  0
    1.4200   -1.6570    1.4230 C   0  0  1  0  0  0  0  0  0  0  0  0
    1.5180   -1.0460    2.8130 C   0  0  0  0  0  0  0  0  0  0  0  0
    2.7380   -0.2040    2.9090 C   0  0  0  0  0  0  0  0  0  0  0  0
    3.7110   -0.0410    1.9100 C   0  0  0  0  0  0  0  0  0  0  0  0
    4.6800    0.7630    2.3690 N   0  0  0  0  0  0  0  0  0  0  0  0
    4.3590    1.1160    3.6200 C   0  0  0  0  0  0  0  0  0  0  0  0
    3.1920    0.5310    3.9330 N   0  0  0  0  0  0  0  0  0  0  0  0
    0.4150   -2.7090    1.3040 C   0  0  0  0  0  0  0  0  0  0  0  0
    0.3630   -3.7190    2.0640 O   0  0  0  0  0  0  0  0  0  0  0  0
    1.3390   -0.9370   -0.5700 H   0  0  0  0  0  0  0  0  0  0  0  0
    2.4630   -2.1590    1.2720 H   0  0  0  0  0  0  0  0  0  0  0  0
    0.6050   -0.5920    3.1760 H   0  0  0  0  0  0  0  0  0  0  0  0
    1.7370   -1.9330    3.4860 H   0  0  0  0  0  0  0  0  0  0  0  0
    3.6670   -0.4990    0.9390 H   0  0  0  0  0  0  0  0  0  0  0  0
    5.5280    1.0620    1.8550 H   0  0  0  0  0  0  0  0  0  0  0  0
    4.9690    1.7770    4.2580 H   0  0  0  0  0  0  0  0  0  0  0  0
   -0.6120   -2.6840    0.3000 N   0  0  0  0  0  0  0  0  0  0  0  0
   -1.5970   -3.7240    0.1860 C   0  0  1  0  0  0  0  0  0  0  0  0
   -2.9440   -3.4350    0.7070 C   0  0  0  0  0  0  0  0  0  0  0  0
   -3.7550   -2.3340    0.1950 C   0  0  0  0  0  0  0  0  0  0  0  0
   -3.3320   -0.9610    0.3740 C   0  0  0  0  0  0  0  0  0  0  0  0
   -2.3520   -0.6120    1.0610 O   0  0  0  0  0  0  0  0  0  0  0  0
   -1.6180   -4.3210   -1.1820 C   0  0  0  0  0  0  0  0  0  0  0  0
   -2.4420   -5.2300   -1.4180 O   0  0  0  0  0  0  0  0  0  0  0  0
   -4.0280    0.1010   -0.2420 O   0  0  0  0  0  0  0  0  0  0  0  0
   -0.7680   -3.9000   -2.1580 O   0  0  0  0  0  0  0  0  0  0  0  0
   -0.5880   -1.8820   -0.3620 H   0  0  0  0  0  0  0  0  0  0  0  0
   -1.2530   -4.6240    0.8290 H   0  0  0  0  0  0  0  0  0  0  0  0
   -2.8530   -3.3860    1.8330 H   0  0  0  0  0  0  0  0  0  0  0  0
   -3.5530   -4.3900    0.5650 H   0  0  0  0  0  0  0  0  0  0  0  0
   -4.0790   -2.4910   -0.8900 H   0  0  0  0  0  0  0  0  0  0  0  0
   -4.7660   -2.4250    0.7230 H   0  0  0  0  0  0  0  0  0  0  0  0
   -3.6190    1.0140   -0.3850 H   0  0  0  0  0  0  0  0  0  0  0  0
  1  2  1  0  0  0  0
  2  3  1  0  0  0  0
  2 11  1  1  0  0  0
  2  6  1  0  0  0  0
  3  4  1  0  0  0  0
  4  8  1  0  0  0  0
  4  5  2  0  0  0  0
  6  7  2  0  0  0  0
  8 14  1  0  0  0  0
  9  1  1  0  0  0  0
 10  1  1  0  0  0  0
 12  3  1  0  0  0  0
 13  3  1  0  0  0  0
 15  6  1  0  0  0  0
 15 16  1  0  0  0  0
 16 26  1  6  0  0  0
 16 17  1  0  0  0  0
 17 18  1  0  0  0  0
 17 27  1  0  0  0  0
 17 28  1  0  0  0  0
 18 22  1  0  0  0  0
 19 20  1  0  0  0  0
 19 18  2  0  0  0  0
 20 21  1  0  0  0  0
 21 22  2  0  0  0  0
 21 31  1  0  0  0  0
 23 16  1  0  0  0  0
 23 24  2  0  0  0  0
 25 15  1  0  0  0  0
 29 19  1  0  0  0  0
 30 20  1  0  0  0  0
 32 23  1  0  0  0  0
 33 32  1  0  0  0  0
 33 34  1  0  0  0  0
 33 43  1  1  0  0  0
 34 44  1  0  0  0  0
 35 36  1  0  0  0  0
 35 34  1  0  0  0  0
 35 47  1  0  0  0  0
 36 37  2  0  0  0  0
 38 33  1  0  0  0  0
 39 38  1  0  0  0  0
 40 36  1  0  0  0  0
 41 38  2  0  0  0  0
 42 32  1  0  0  0  0
 45 34  1  0  0  0  0
 46 35  1  0  0  0  0
 48 40  1  0  0  0  0
M  END
$$$$
