DHF.pdb
 OpenBabel07022418143D

 52 53  0  0  1  0  0  0  0  0999 V2000
    1.9320   -2.8220    2.1450 N   0  0  0  0  0  0  0  0  0  0  0  0
    1.3010   -2.2000    3.2940 C   0  0  1  0  0  0  0  0  0  0  0  0
    2.2920   -2.1090    4.4270 C   0  0  0  0  0  0  0  0  0  0  0  0
    3.4510   -1.3090    4.0110 C   0  0  0  0  0  0  0  0  0  0  0  0
    4.3780   -1.0580    4.8480 O   0  0  0  0  0  0  0  0  0  0  0  0
    0.6310   -0.9340    2.9750 C   0  0  0  0  0  0  0  0  0  0  0  0
    0.2400   -0.2290    3.9560 O   0  0  0  0  0  0  0  0  0  0  0  0
    3.5570   -0.8230    2.7310 O   0  0  0  0  0  0  0  0  0  0  0  0
    2.6610   -3.4780    2.5030 H   0  0  0  0  0  0  0  0  0  0  0  0
    1.2340   -3.3790    1.6000 H   0  0  0  0  0  0  0  0  0  0  0  0
    0.5180   -2.9820    3.6040 H   0  0  0  0  0  0  0  0  0  0  0  0
    1.7820   -1.7110    5.3340 H   0  0  0  0  0  0  0  0  0  0  0  0
    2.6070   -3.1730    4.6400 H   0  0  0  0  0  0  0  0  0  0  0  0
    4.4290   -0.4220    2.3940 H   0  0  0  0  0  0  0  0  0  0  0  0
    0.4220   -0.5130    1.6390 N   0  0  0  0  0  0  0  0  0  0  0  0
   -0.2470    0.7270    1.3470 C   0  0  1  0  0  0  0  0  0  0  0  0
    0.4340    1.4600    0.2280 C   0  0  0  0  0  0  0  0  0  0  0  0
    1.8260    1.8020    0.5050 C   0  0  0  0  0  0  0  0  0  0  0  0
    2.9470    1.0550    0.2130 C   0  0  0  0  0  0  0  0  0  0  0  0
    4.0270    1.7160    0.6120 N   0  0  0  0  0  0  0  0  0  0  0  0
    3.6180    2.8730    1.1540 C   0  0  0  0  0  0  0  0  0  0  0  0
    2.2570    2.9210    1.0860 N   0  0  0  0  0  0  0  0  0  0  0  0
   -1.6360    0.4250    0.8280 C   0  0  0  0  0  0  0  0  0  0  0  0
   -2.4240    1.3250    0.4920 O   0  0  0  0  0  0  0  0  0  0  0  0
    0.7610   -1.1180    0.8710 H   0  0  0  0  0  0  0  0  0  0  0  0
   -0.3330    1.3190    2.2860 H   0  0  0  0  0  0  0  0  0  0  0  0
    0.3270    0.8220   -0.6980 H   0  0  0  0  0  0  0  0  0  0  0  0
   -0.1570    2.3860   -0.0470 H   0  0  0  0  0  0  0  0  0  0  0  0
    2.9510    0.0820   -0.2650 H   0  0  0  0  0  0  0  0  0  0  0  0
    5.0160    1.4120    0.5300 H   0  0  0  0  0  0  0  0  0  0  0  0
    4.2370    3.6590    1.5830 H   0  0  0  0  0  0  0  0  0  0  0  0
   -2.0070   -0.9310    0.7410 N   0  0  0  0  0  0  0  0  0  0  0  0
   -3.2880   -1.3680    0.2720 C   0  0  1  0  0  0  0  0  0  0  0  0
   -3.2120   -2.2360   -0.9580 C   0  0  0  0  0  0  0  0  0  0  0  0
   -2.5820   -1.5420   -2.1060 C   0  0  0  0  0  0  0  0  0  0  0  0
   -1.2230   -1.6250   -2.2680 C   0  0  0  0  0  0  0  0  0  0  0  0
   -0.5300   -1.0280   -3.2950 C   0  0  0  0  0  0  0  0  0  0  0  0
   -1.2570   -0.3010   -4.2180 C   0  0  0  0  0  0  0  0  0  0  0  0
   -2.6160   -0.1970   -4.0880 C   0  0  0  0  0  0  0  0  0  0  0  0
   -3.2890   -0.8160   -3.0310 C   0  0  0  0  0  0  0  0  0  0  0  0
   -4.0700   -2.0470    1.3420 C   0  0  0  0  0  0  0  0  0  0  0  0
   -3.5330   -2.1410    2.4810 O   0  0  0  0  0  0  0  0  0  0  0  0
   -5.3290   -2.5650    1.1410 O   0  0  0  0  0  0  0  0  0  0  0  0
   -1.3460   -1.7190    1.0260 H   0  0  0  0  0  0  0  0  0  0  0  0
   -3.8660   -0.4600   -0.0040 H   0  0  0  0  0  0  0  0  0  0  0  0
   -4.2700   -2.4880   -1.2440 H   0  0  0  0  0  0  0  0  0  0  0  0
   -2.6600   -3.1750   -0.7930 H   0  0  0  0  0  0  0  0  0  0  0  0
   -0.6600   -2.1930   -1.5440 H   0  0  0  0  0  0  0  0  0  0  0  0
    0.5420   -1.1470   -3.3450 H   0  0  0  0  0  0  0  0  0  0  0  0
   -0.6860    0.1680   -5.0320 H   0  0  0  0  0  0  0  0  0  0  0  0
   -3.1860    0.3730   -4.8110 H   0  0  0  0  0  0  0  0  0  0  0  0
   -4.3610   -0.7340   -2.9260 H   0  0  0  0  0  0  0  0  0  0  0  0
  1  9  1  0  0  0  0
  1  2  1  0  0  0  0
  2 11  1  1  0  0  0
  2  3  1  0  0  0  0
  3 13  1  0  0  0  0
  3 12  1  0  0  0  0
  4  3  1  0  0  0  0
  4  5  2  0  0  0  0
  6  2  1  0  0  0  0
  6  7  2  0  0  0  0
  8  4  1  0  0  0  0
 10  1  1  0  0  0  0
 14  8  1  0  0  0  0
 15  6  1  0  0  0  0
 16 15  1  0  0  0  0
 16 26  1  1  0  0  0
 17 18  1  0  0  0  0
 17 16  1  0  0  0  0
 18 22  1  0  0  0  0
 19 18  2  0  0  0  0
 19 20  1  0  0  0  0
 20 21  1  0  0  0  0
 21 31  1  0  0  0  0
 22 21  2  0  0  0  0
 23 16  1  0  0  0  0
 24 23  2  0  0  0  0
 25 15  1  0  0  0  0
 27 17  1  0  0  0  0
 28 17  1  0  0  0  0
 29 19  1  0  0  0  0
 30 20  1  0  0  0  0
 32 23  1  0  0  0  0
 32 44  1  0  0  0  0
 33 45  1  6  0  0  0
 33 32  1  0  0  0  0
 33 41  1  0  0  0  0
 34 47  1  0  0  0  0
 34 33  1  0  0  0  0
 35 34  1  0  0  0  0
 36 35  1  0  0  0  0
 36 48  1  0  0  0  0
 37 36  2  0  0  0  0
 38 39  2  0  0  0  0
 38 37  1  0  0  0  0
 39 40  1  0  0  0  0
 40 52  1  0  0  0  0
 40 35  2  0  0  0  0
 41 42  1  0  0  0  0
 43 41  2  0  0  0  0
 46 34  1  0  0  0  0
 49 37  1  0  0  0  0
 50 38  1  0  0  0  0
 51 39  1  0  0  0  0
M  END
$$$$
