DHG.pdb
 OpenBabel07022418143D

 39 39  0  0  1  0  0  0  0  0999 V2000
    1.8030   -4.1710    1.1290 N   0  0  0  0  0  0  0  0  0  0  0  0
    1.5310   -2.8380    1.7000 C   0  0  1  0  0  0  0  0  0  0  0  0
    2.8440   -2.2540    2.1570 C   0  0  0  0  0  0  0  0  0  0  0  0
    2.6200   -0.9160    2.7260 C   0  0  0  0  0  0  0  0  0  0  0  0
    2.7720    0.1020    1.9970 O   0  0  0  0  0  0  0  0  0  0  0  0
    0.8480   -2.0140    0.6590 C   0  0  0  0  0  0  0  0  0  0  0  0
    0.8820   -2.4150   -0.5340 O   0  0  0  0  0  0  0  0  0  0  0  0
    2.2440   -0.7100    4.0400 O   0  0  0  0  0  0  0  0  0  0  0  0
    2.8180   -4.3340    1.0380 H   0  0  0  0  0  0  0  0  0  0  0  0
    1.2680   -4.8750    1.6490 H   0  0  0  0  0  0  0  0  0  0  0  0
    0.9070   -3.0020    2.5970 H   0  0  0  0  0  0  0  0  0  0  0  0
    3.5350   -2.2380    1.2890 H   0  0  0  0  0  0  0  0  0  0  0  0
    3.2250   -2.9060    2.9620 H   0  0  0  0  0  0  0  0  0  0  0  0
    2.4710    0.1700    4.4800 H   0  0  0  0  0  0  0  0  0  0  0  0
    0.1670   -0.8070    0.9680 N   0  0  0  0  0  0  0  0  0  0  0  0
   -0.4940    0.0680    0.0660 C   0  0  1  0  0  0  0  0  0  0  0  0
    0.0480    0.0920   -1.3540 C   0  0  0  0  0  0  0  0  0  0  0  0
    1.4380    0.5780   -1.3140 C   0  0  0  0  0  0  0  0  0  0  0  0
    1.7790    1.9310   -1.4120 C   0  0  0  0  0  0  0  0  0  0  0  0
    3.1070    2.0760   -1.3450 N   0  0  0  0  0  0  0  0  0  0  0  0
    3.6230    0.8510   -1.2070 C   0  0  0  0  0  0  0  0  0  0  0  0
    2.5930   -0.0510   -1.1900 N   0  0  0  0  0  0  0  0  0  0  0  0
   -1.9560    0.1320    0.1530 C   0  0  0  0  0  0  0  0  0  0  0  0
   -2.5680    0.8960   -0.6360 O   0  0  0  0  0  0  0  0  0  0  0  0
    0.1800   -0.5920    2.0200 H   0  0  0  0  0  0  0  0  0  0  0  0
   -0.1320    1.1230    0.4170 H   0  0  0  0  0  0  0  0  0  0  0  0
   -0.0820   -0.8350   -1.9060 H   0  0  0  0  0  0  0  0  0  0  0  0
   -0.6200    0.8420   -1.8810 H   0  0  0  0  0  0  0  0  0  0  0  0
    1.0470    2.7170   -1.5250 H   0  0  0  0  0  0  0  0  0  0  0  0
    3.6220    2.9650   -1.3920 H   0  0  0  0  0  0  0  0  0  0  0  0
    4.6700    0.5700   -1.1200 H   0  0  0  0  0  0  0  0  0  0  0  0
   -2.7310   -0.6260    1.0850 N   0  0  0  0  0  0  0  0  0  0  0  0
   -4.1640   -0.5550    1.1590 C   0  0  0  0  0  0  0  0  0  0  0  0
   -4.5660    0.8280    1.4660 C   0  0  0  0  0  0  0  0  0  0  0  0
   -5.7770    1.1020    1.5750 O   0  0  0  0  0  0  0  0  0  0  0  0
   -3.6240    1.8110    1.6320 O   0  0  0  0  0  0  0  0  0  0  0  0
   -2.1620   -1.2470    1.7180 H   0  0  0  0  0  0  0  0  0  0  0  0
   -4.6600   -0.9520    0.2450 H   0  0  0  0  0  0  0  0  0  0  0  0
   -4.4790   -1.1730    2.0510 H   0  0  0  0  0  0  0  0  0  0  0  0
  1 10  1  0  0  0  0
  1  2  1  0  0  0  0
  2  3  1  0  0  0  0
  2 11  1  1  0  0  0
  3  4  1  0  0  0  0
  3 13  1  0  0  0  0
  4  8  1  0  0  0  0
  5  4  2  0  0  0  0
  6 15  1  0  0  0  0
  6  2  1  0  0  0  0
  7  6  2  0  0  0  0
  8 14  1  0  0  0  0
  9  1  1  0  0  0  0
 12  3  1  0  0  0  0
 15 25  1  0  0  0  0
 16 23  1  0  0  0  0
 16 26  1  1  0  0  0
 16 15  1  0  0  0  0
 17 18  1  0  0  0  0
 17 16  1  0  0  0  0
 18 22  1  0  0  0  0
 19 20  1  0  0  0  0
 19 18  2  0  0  0  0
 20 21  1  0  0  0  0
 21 22  2  0  0  0  0
 21 31  1  0  0  0  0
 23 32  1  0  0  0  0
 24 23  2  0  0  0  0
 27 17  1  0  0  0  0
 28 17  1  0  0  0  0
 29 19  1  0  0  0  0
 30 20  1  0  0  0  0
 32 33  1  0  0  0  0
 32 37  1  0  0  0  0
 33 34  1  0  0  0  0
 33 39  1  0  0  0  0
 34 35  2  0  0  0  0
 34 36  1  0  0  0  0
 38 33  1  0  0  0  0
M  END
$$$$
