DHI.pdb
 OpenBabel07022418143D

 51 51  0  0  1  0  0  0  0  0999 V2000
    3.3070   -3.2940   -1.0130 N   0  0  0  0  0  0  0  0  0  0  0  0
    2.0550   -3.9300   -1.3350 C   0  0  1  0  0  0  0  0  0  0  0  0
    2.1370   -5.3760   -0.8980 C   0  0  0  0  0  0  0  0  0  0  0  0
    2.3830   -5.4670    0.5780 C   0  0  0  0  0  0  0  0  0  0  0  0
    2.4940   -4.4280    1.2760 O   0  0  0  0  0  0  0  0  0  0  0  0
    0.9010   -3.3100   -0.6850 C   0  0  0  0  0  0  0  0  0  0  0  0
   -0.2450   -3.8000   -0.9020 O   0  0  0  0  0  0  0  0  0  0  0  0
    2.4980   -6.6870    1.2240 O   0  0  0  0  0  0  0  0  0  0  0  0
    4.1120   -3.6720   -1.5170 H   0  0  0  0  0  0  0  0  0  0  0  0
    3.2250   -2.2540   -1.0520 H   0  0  0  0  0  0  0  0  0  0  0  0
    1.9650   -3.9510   -2.4520 H   0  0  0  0  0  0  0  0  0  0  0  0
    1.2000   -5.9290   -1.1230 H   0  0  0  0  0  0  0  0  0  0  0  0
    2.9710   -5.8760   -1.4240 H   0  0  0  0  0  0  0  0  0  0  0  0
    2.9790   -6.7010    2.1140 H   0  0  0  0  0  0  0  0  0  0  0  0
    0.9480   -2.1900    0.1830 N   0  0  0  0  0  0  0  0  0  0  0  0
   -0.2640   -1.6590    0.7730 C   0  0  1  0  0  0  0  0  0  0  0  0
   -0.1060   -1.8930    2.2770 C   0  0  0  0  0  0  0  0  0  0  0  0
    1.0740   -1.2220    2.8290 C   0  0  0  0  0  0  0  0  0  0  0  0
    1.1920    0.0380    3.3530 C   0  0  0  0  0  0  0  0  0  0  0  0
    2.4750    0.2510    3.7500 N   0  0  0  0  0  0  0  0  0  0  0  0
    3.1620   -0.8710    3.4790 C   0  0  0  0  0  0  0  0  0  0  0  0
    2.3230   -1.7530    2.9270 N   0  0  0  0  0  0  0  0  0  0  0  0
   -0.4400   -0.2180    0.5460 C   0  0  0  0  0  0  0  0  0  0  0  0
    0.4660    0.4030   -0.0810 O   0  0  0  0  0  0  0  0  0  0  0  0
    1.8630   -1.7640    0.3840 H   0  0  0  0  0  0  0  0  0  0  0  0
   -1.1470   -2.2490    0.4480 H   0  0  0  0  0  0  0  0  0  0  0  0
   -0.0180   -2.9850    2.4660 H   0  0  0  0  0  0  0  0  0  0  0  0
   -1.0210   -1.5380    2.7720 H   0  0  0  0  0  0  0  0  0  0  0  0
    0.3810    0.7470    3.4310 H   0  0  0  0  0  0  0  0  0  0  0  0
    2.7760    1.1350    4.1710 H   0  0  0  0  0  0  0  0  0  0  0  0
    4.2130   -1.0370    3.6720 H   0  0  0  0  0  0  0  0  0  0  0  0
   -1.6710    2.0980   -2.1990 C   0  0  0  0  0  0  0  0  0  0  0  0
   -2.8490    1.5270   -1.4460 C   0  0  0  0  0  0  0  0  0  0  0  0
   -3.0020    2.1720   -0.0860 C   0  0  2  0  0  0  0  0  0  0  0  0
   -3.2130    3.6510   -0.2990 C   0  0  0  0  0  0  0  0  0  0  0  0
   -1.7710    1.9160    0.7820 C   0  0  2  0  0  0  0  0  0  0  0  0
   -1.5610    0.5110    0.9850 N   0  0  0  0  0  0  0  0  0  0  0  0
   -2.0520    2.5720    2.0800 C   0  0  0  0  0  0  0  0  0  0  0  0
   -2.2480    3.8090    2.0940 O   0  0  0  0  0  0  0  0  0  0  0  0
   -2.1060    1.8710    3.2740 O   0  0  0  0  0  0  0  0  0  0  0  0
   -1.2560    3.0090   -1.6890 H   0  0  0  0  0  0  0  0  0  0  0  0
   -0.8640    1.3480   -2.3290 H   0  0  0  0  0  0  0  0  0  0  0  0
   -1.9490    2.4390   -3.2280 H   0  0  0  0  0  0  0  0  0  0  0  0
   -3.7590    1.7880   -2.0220 H   0  0  0  0  0  0  0  0  0  0  0  0
   -2.7930    0.4250   -1.3420 H   0  0  0  0  0  0  0  0  0  0  0  0
   -3.8480    1.6770    0.4140 H   0  0  0  0  0  0  0  0  0  0  0  0
   -3.7200    3.7790   -1.2880 H   0  0  0  0  0  0  0  0  0  0  0  0
   -2.2270    4.1570   -0.2710 H   0  0  0  0  0  0  0  0  0  0  0  0
   -3.9060    4.0850    0.4600 H   0  0  0  0  0  0  0  0  0  0  0  0
   -0.9400    2.4290    0.2990 H   0  0  0  0  0  0  0  0  0  0  0  0
   -2.3010   -0.0200    1.5030 H   0  0  0  0  0  0  0  0  0  0  0  0
  2 11  1  6  0  0  0
  2  1  1  0  0  0  0
  2  3  1  0  0  0  0
  2  6  1  0  0  0  0
  3  4  1  0  0  0  0
  4  8  1  0  0  0  0
  4  5  2  0  0  0  0
  6 15  1  0  0  0  0
  7  6  2  0  0  0  0
  8 14  1  0  0  0  0
  9  1  1  0  0  0  0
 10  1  1  0  0  0  0
 12  3  1  0  0  0  0
 13  3  1  0  0  0  0
 15 25  1  0  0  0  0
 15 16  1  0  0  0  0
 16 26  1  6  0  0  0
 16 17  1  0  0  0  0
 17 27  1  0  0  0  0
 17 28  1  0  0  0  0
 17 18  1  0  0  0  0
 18 22  1  0  0  0  0
 18 19  2  0  0  0  0
 19 29  1  0  0  0  0
 19 20  1  0  0  0  0
 20 30  1  0  0  0  0
 21 31  1  0  0  0  0
 21 20  1  0  0  0  0
 22 21  2  0  0  0  0
 23 16  1  0  0  0  0
 23 37  1  0  0  0  0
 24 23  2  0  0  0  0
 32 41  1  0  0  0  0
 32 33  1  0  0  0  0
 33 45  1  0  0  0  0
 33 34  1  0  0  0  0
 34 46  1  1  0  0  0
 34 36  1  0  0  0  0
 35 48  1  0  0  0  0
 35 34  1  0  0  0  0
 35 49  1  0  0  0  0
 36 50  1  6  0  0  0
 36 37  1  0  0  0  0
 36 38  1  0  0  0  0
 37 51  1  0  0  0  0
 38 39  2  0  0  0  0
 38 40  1  0  0  0  0
 42 32  1  0  0  0  0
 43 32  1  0  0  0  0
 44 33  1  0  0  0  0
 47 35  1  0  0  0  0
M  END
$$$$
