DHK.pdb
 OpenBabel07022418143D

 53 53  0  0  1  0  0  0  0  0999 V2000
    3.8190   -3.8510    2.5620 N   0  0  0  0  0  0  0  0  0  0  0  0
    3.3680   -3.0350    1.4860 C   0  0  1  0  0  0  0  0  0  0  0  0
    2.3540   -3.6680    0.5940 C   0  0  0  0  0  0  0  0  0  0  0  0
    1.1140   -4.0580    1.3090 C   0  0  0  0  0  0  0  0  0  0  0  0
    0.9320   -3.8670    2.5470 O   0  0  0  0  0  0  0  0  0  0  0  0
    2.8920   -1.6920    1.9530 C   0  0  0  0  0  0  0  0  0  0  0  0
    2.9020   -1.3600    3.1690 O   0  0  0  0  0  0  0  0  0  0  0  0
    0.0650   -4.6670    0.6320 O   0  0  0  0  0  0  0  0  0  0  0  0
    3.1300   -4.5460    2.9190 H   0  0  0  0  0  0  0  0  0  0  0  0
    4.7270   -4.2850    2.3090 H   0  0  0  0  0  0  0  0  0  0  0  0
    4.2580   -2.8030    0.8370 H   0  0  0  0  0  0  0  0  0  0  0  0
    2.0580   -2.9270   -0.1770 H   0  0  0  0  0  0  0  0  0  0  0  0
    2.8130   -4.5160    0.0460 H   0  0  0  0  0  0  0  0  0  0  0  0
   -0.5670   -5.3190    1.1130 H   0  0  0  0  0  0  0  0  0  0  0  0
    2.4020   -0.7150    1.0450 N   0  0  0  0  0  0  0  0  0  0  0  0
    1.9360    0.5950    1.4710 C   0  0  1  0  0  0  0  0  0  0  0  0
    2.7790    1.6970    0.9010 C   0  0  0  0  0  0  0  0  0  0  0  0
    2.3350    3.0450    1.3130 C   0  0  0  0  0  0  0  0  0  0  0  0
    1.4350    3.8360    0.6440 C   0  0  0  0  0  0  0  0  0  0  0  0
    1.2910    4.9840    1.3180 N   0  0  0  0  0  0  0  0  0  0  0  0
    2.0760    4.9570    2.4080 C   0  0  0  0  0  0  0  0  0  0  0  0
    2.7060    3.7680    2.3910 N   0  0  0  0  0  0  0  0  0  0  0  0
    0.4940    0.6980    1.1430 C   0  0  0  0  0  0  0  0  0  0  0  0
   -0.1740    1.7520    1.4210 O   0  0  0  0  0  0  0  0  0  0  0  0
    2.3640   -0.9210    0.0240 H   0  0  0  0  0  0  0  0  0  0  0  0
    2.0220    0.6810    2.5910 H   0  0  0  0  0  0  0  0  0  0  0  0
    2.8580    1.6580   -0.2030 H   0  0  0  0  0  0  0  0  0  0  0  0
    3.8070    1.5440    1.2890 H   0  0  0  0  0  0  0  0  0  0  0  0
    0.8950    3.6290   -0.2790 H   0  0  0  0  0  0  0  0  0  0  0  0
    0.6820    5.7980    1.0790 H   0  0  0  0  0  0  0  0  0  0  0  0
    2.1760    5.7550    3.1590 H   0  0  0  0  0  0  0  0  0  0  0  0
   -0.2330   -0.3350    0.5140 N   0  0  0  0  0  0  0  0  0  0  0  0
   -1.6990   -0.1820    0.2000 C   0  0  1  0  0  0  0  0  0  0  0  0
   -1.8620   -0.3840   -1.2500 C   0  0  0  0  0  0  0  0  0  0  0  0
   -3.1570   -0.2290   -1.8800 C   0  0  0  0  0  0  0  0  0  0  0  0
   -4.3350   -1.0530   -1.5680 C   0  0  0  0  0  0  0  0  0  0  0  0
   -4.1720   -2.5370   -1.7510 C   0  0  0  0  0  0  0  0  0  0  0  0
   -5.3950   -3.2370   -1.4090 N   0  0  0  0  0  0  0  0  0  0  0  0
   -2.3190   -1.2290    1.0140 C   0  0  0  0  0  0  0  0  0  0  0  0
   -3.5290   -1.3400    1.1860 O   0  0  0  0  0  0  0  0  0  0  0  0
   -1.5250   -2.1970    1.6630 O   0  0  0  0  0  0  0  0  0  0  0  0
    0.2200   -1.2210    0.2530 H   0  0  0  0  0  0  0  0  0  0  0  0
   -2.0550    0.7980    0.5180 H   0  0  0  0  0  0  0  0  0  0  0  0
   -1.3340   -1.3570   -1.5700 H   0  0  0  0  0  0  0  0  0  0  0  0
   -1.1600    0.3820   -1.7450 H   0  0  0  0  0  0  0  0  0  0  0  0
   -3.4940    0.8560   -1.6510 H   0  0  0  0  0  0  0  0  0  0  0  0
   -3.0500   -0.1340   -3.0290 H   0  0  0  0  0  0  0  0  0  0  0  0
   -4.9280   -0.7230   -0.7300 H   0  0  0  0  0  0  0  0  0  0  0  0
   -5.0800   -0.7870   -2.4550 H   0  0  0  0  0  0  0  0  0  0  0  0
   -3.3840   -2.8910   -1.0640 H   0  0  0  0  0  0  0  0  0  0  0  0
   -3.8640   -2.7370   -2.8010 H   0  0  0  0  0  0  0  0  0  0  0  0
   -6.2210   -2.7890   -1.8110 H   0  0  0  0  0  0  0  0  0  0  0  0
   -5.5110   -3.3780   -0.3980 H   0  0  0  0  0  0  0  0  0  0  0  0
  1  9  1  0  0  0  0
  2 11  1  6  0  0  0
  2  6  1  0  0  0  0
  2  1  1  0  0  0  0
  3  4  1  0  0  0  0
  3  2  1  0  0  0  0
  4  5  2  0  0  0  0
  6  7  2  0  0  0  0
  8 14  1  0  0  0  0
  8  4  1  0  0  0  0
 10  1  1  0  0  0  0
 12  3  1  0  0  0  0
 13  3  1  0  0  0  0
 15 16  1  0  0  0  0
 15  6  1  0  0  0  0
 16 26  1  1  0  0  0
 17 28  1  0  0  0  0
 17 18  1  0  0  0  0
 17 16  1  0  0  0  0
 18 22  1  0  0  0  0
 19 18  2  0  0  0  0
 19 20  1  0  0  0  0
 20 21  1  0  0  0  0
 21 31  1  0  0  0  0
 22 21  2  0  0  0  0
 23 24  2  0  0  0  0
 23 16  1  0  0  0  0
 25 15  1  0  0  0  0
 27 17  1  0  0  0  0
 29 19  1  0  0  0  0
 30 20  1  0  0  0  0
 32 23  1  0  0  0  0
 33 32  1  0  0  0  0
 33 43  1  1  0  0  0
 33 39  1  0  0  0  0
 34 33  1  0  0  0  0
 35 46  1  0  0  0  0
 35 36  1  0  0  0  0
 35 34  1  0  0  0  0
 36 48  1  0  0  0  0
 37 36  1  0  0  0  0
 37 38  1  0  0  0  0
 37 50  1  0  0  0  0
 38 53  1  0  0  0  0
 39 40  2  0  0  0  0
 39 41  1  0  0  0  0
 42 32  1  0  0  0  0
 44 34  1  0  0  0  0
 45 34  1  0  0  0  0
 47 35  1  0  0  0  0
 49 36  1  0  0  0  0
 51 37  1  0  0  0  0
 52 38  1  0  0  0  0
M  END
$$$$
