DHN.pdb
 OpenBabel07022418143D

 46 46  0  0  1  0  0  0  0  0999 V2000
    0.5400    2.5900    3.2570 N   0  0  0  0  0  0  0  0  0  0  0  0
    0.4510    1.1710    3.6330 C   0  0  1  0  0  0  0  0  0  0  0  0
   -0.8160    0.9100    4.4160 C   0  0  0  0  0  0  0  0  0  0  0  0
   -2.0320    1.2390    3.6610 C   0  0  0  0  0  0  0  0  0  0  0  0
   -1.9420    1.6880    2.4780 O   0  0  0  0  0  0  0  0  0  0  0  0
    0.5790    0.3280    2.4460 C   0  0  0  0  0  0  0  0  0  0  0  0
    0.5880   -0.9160    2.5670 O   0  0  0  0  0  0  0  0  0  0  0  0
   -3.2990    1.0810    4.1880 O   0  0  0  0  0  0  0  0  0  0  0  0
    1.5780    2.7620    3.1130 H   0  0  0  0  0  0  0  0  0  0  0  0
    0.3060    3.1330    4.1420 H   0  0  0  0  0  0  0  0  0  0  0  0
    1.2920    0.9850    4.3230 H   0  0  0  0  0  0  0  0  0  0  0  0
   -0.7940   -0.1540    4.7490 H   0  0  0  0  0  0  0  0  0  0  0  0
   -0.7780    1.5290    5.3270 H   0  0  0  0  0  0  0  0  0  0  0  0
   -4.0980    1.6490    3.8760 H   0  0  0  0  0  0  0  0  0  0  0  0
    0.6920    0.8780    1.1410 N   0  0  0  0  0  0  0  0  0  0  0  0
    0.8040    0.0170   -0.0140 C   0  0  1  0  0  0  0  0  0  0  0  0
    2.0800   -0.7550   -0.0520 C   0  0  0  0  0  0  0  0  0  0  0  0
    3.2200    0.2080   -0.0770 C   0  0  0  0  0  0  0  0  0  0  0  0
    3.9090    0.7510    0.9940 C   0  0  0  0  0  0  0  0  0  0  0  0
    4.8800    1.5820    0.5110 N   0  0  0  0  0  0  0  0  0  0  0  0
    4.7940    1.5550   -0.8200 C   0  0  0  0  0  0  0  0  0  0  0  0
    3.7960    0.7290   -1.1780 N   0  0  0  0  0  0  0  0  0  0  0  0
   -0.3960   -0.8950   -0.1350 C   0  0  0  0  0  0  0  0  0  0  0  0
   -1.2460   -0.7900    0.7710 O   0  0  0  0  0  0  0  0  0  0  0  0
    0.6970    1.9370    0.9940 H   0  0  0  0  0  0  0  0  0  0  0  0
    0.7450    0.6450   -0.9350 H   0  0  0  0  0  0  0  0  0  0  0  0
    2.1270   -1.3300   -0.9990 H   0  0  0  0  0  0  0  0  0  0  0  0
    2.2160   -1.4190    0.8260 H   0  0  0  0  0  0  0  0  0  0  0  0
    3.6890    0.5310    2.0310 H   0  0  0  0  0  0  0  0  0  0  0  0
    5.5480    2.1220    1.1260 H   0  0  0  0  0  0  0  0  0  0  0  0
    5.4260    2.1070   -1.4930 H   0  0  0  0  0  0  0  0  0  0  0  0
   -1.4560   -3.7170    1.2270 N   0  0  0  0  0  0  0  0  0  0  0  0
   -2.6000   -3.0280    0.7070 C   0  0  0  0  0  0  0  0  0  0  0  0
   -3.4910   -2.7030    1.5430 O   0  0  0  0  0  0  0  0  0  0  0  0
   -2.7650   -2.7070   -0.7110 C   0  0  0  0  0  0  0  0  0  0  0  0
   -1.4940   -2.7240   -1.4950 C   0  0  2  0  0  0  0  0  0  0  0  0
   -0.4850   -1.7780   -1.2200 N   0  0  0  0  0  0  0  0  0  0  0  0
   -1.6880   -2.8960   -2.9420 C   0  0  0  0  0  0  0  0  0  0  0  0
   -0.9850   -2.2220   -3.7510 O   0  0  0  0  0  0  0  0  0  0  0  0
   -2.6390   -3.7940   -3.4540 O   0  0  0  0  0  0  0  0  0  0  0  0
   -0.9440   -3.2780    2.0220 H   0  0  0  0  0  0  0  0  0  0  0  0
   -1.1420   -4.6210    0.8290 H   0  0  0  0  0  0  0  0  0  0  0  0
   -3.4540   -3.4710   -1.1520 H   0  0  0  0  0  0  0  0  0  0  0  0
   -3.2890   -1.7340   -0.8790 H   0  0  0  0  0  0  0  0  0  0  0  0
   -1.0000   -3.7330   -1.1140 H   0  0  0  0  0  0  0  0  0  0  0  0
    0.3520   -1.6860   -1.9140 H   0  0  0  0  0  0  0  0  0  0  0  0
  1  2  1  0  0  0  0
  1 10  1  0  0  0  0
  2 11  1  1  0  0  0
  2  3  1  0  0  0  0
  3 12  1  0  0  0  0
  3 13  1  0  0  0  0
  4  8  1  0  0  0  0
  4  3  1  0  0  0  0
  5  4  2  0  0  0  0
  6  7  2  0  0  0  0
  6  2  1  0  0  0  0
  9  1  1  0  0  0  0
 14  8  1  0  0  0  0
 15  6  1  0  0  0  0
 16 26  1  6  0  0  0
 16 15  1  0  0  0  0
 17 16  1  0  0  0  0
 17 28  1  0  0  0  0
 18 17  1  0  0  0  0
 18 19  2  0  0  0  0
 19 29  1  0  0  0  0
 20 19  1  0  0  0  0
 20 30  1  0  0  0  0
 21 20  1  0  0  0  0
 22 21  2  0  0  0  0
 22 18  1  0  0  0  0
 23 16  1  0  0  0  0
 23 24  2  0  0  0  0
 25 15  1  0  0  0  0
 27 17  1  0  0  0  0
 31 21  1  0  0  0  0
 32 41  1  0  0  0  0
 33 32  1  0  0  0  0
 33 34  2  0  0  0  0
 35 33  1  0  0  0  0
 36 37  1  0  0  0  0
 36 45  1  1  0  0  0
 36 35  1  0  0  0  0
 37 23  1  0  0  0  0
 38 36  1  0  0  0  0
 39 38  2  0  0  0  0
 40 38  1  0  0  0  0
 42 32  1  0  0  0  0
 43 35  1  0  0  0  0
 44 35  1  0  0  0  0
 46 37  1  0  0  0  0
M  END
$$$$
