DHP.pdb
 OpenBabel07022418143D

 46 47  0  0  1  0  0  0  0  0999 V2000
    1.5460   -1.9840    4.4130 N   0  0  0  0  0  0  0  0  0  0  0  0
    0.8610   -1.0130    3.6100 C   0  0  1  0  0  0  0  0  0  0  0  0
    1.2440    0.3580    4.0630 C   0  0  0  0  0  0  0  0  0  0  0  0
    2.6910    0.6210    3.9630 C   0  0  0  0  0  0  0  0  0  0  0  0
    3.4420   -0.2990    3.5530 O   0  0  0  0  0  0  0  0  0  0  0  0
    1.0250   -1.2690    2.1650 C   0  0  0  0  0  0  0  0  0  0  0  0
    1.7110   -2.2620    1.8280 O   0  0  0  0  0  0  0  0  0  0  0  0
    3.1850    1.8620    4.3200 O   0  0  0  0  0  0  0  0  0  0  0  0
    2.1420   -2.6060    3.8020 H   0  0  0  0  0  0  0  0  0  0  0  0
    0.8420   -2.5750    4.9000 H   0  0  0  0  0  0  0  0  0  0  0  0
   -0.2600   -1.0810    3.7840 H   0  0  0  0  0  0  0  0  0  0  0  0
    0.6070    1.1760    3.6610 H   0  0  0  0  0  0  0  0  0  0  0  0
    1.0220    0.3700    5.1730 H   0  0  0  0  0  0  0  0  0  0  0  0
    4.0960    2.1640    4.0100 H   0  0  0  0  0  0  0  0  0  0  0  0
    0.4410   -0.4480    1.1700 N   0  0  0  0  0  0  0  0  0  0  0  0
    0.5020   -0.5330   -0.2250 C   0  0  1  0  0  0  0  0  0  0  0  0
    1.6830   -1.2880   -0.8330 C   0  0  0  0  0  0  0  0  0  0  0  0
    2.9380   -0.6060   -0.5020 C   0  0  0  0  0  0  0  0  0  0  0  0
    3.4480    0.4290   -1.3190 C   0  0  0  0  0  0  0  0  0  0  0  0
    4.5790    0.8970   -0.8090 N   0  0  0  0  0  0  0  0  0  0  0  0
    4.8310    0.2060    0.3130 C   0  0  0  0  0  0  0  0  0  0  0  0
    3.8320   -0.6890    0.4750 N   0  0  0  0  0  0  0  0  0  0  0  0
   -0.7270   -0.6910   -0.9920 C   0  0  0  0  0  0  0  0  0  0  0  0
   -0.5960   -0.7540   -2.2660 O   0  0  0  0  0  0  0  0  0  0  0  0
   -0.1230    0.3720    1.5780 H   0  0  0  0  0  0  0  0  0  0  0  0
    0.8650    0.5570   -0.5350 H   0  0  0  0  0  0  0  0  0  0  0  0
    1.5320   -1.2540   -1.9300 H   0  0  0  0  0  0  0  0  0  0  0  0
    1.6670   -2.3580   -0.5550 H   0  0  0  0  0  0  0  0  0  0  0  0
    2.9740    0.7780   -2.2240 H   0  0  0  0  0  0  0  0  0  0  0  0
    5.1930    1.6710   -1.1920 H   0  0  0  0  0  0  0  0  0  0  0  0
    5.6880    0.3370    0.9840 H   0  0  0  0  0  0  0  0  0  0  0  0
   -2.0460   -0.7830   -0.4920 N   0  0  0  0  0  0  0  0  0  0  0  0
   -2.5130   -0.7730    0.8760 C   0  0  0  0  0  0  0  0  0  0  0  0
   -3.8390   -1.4860    0.9010 C   0  0  0  0  0  0  0  0  0  0  0  0
   -4.1420   -1.7860   -0.5310 C   0  0  0  0  0  0  0  0  0  0  0  0
   -3.2500   -0.8830   -1.3180 C   0  0  1  0  0  0  0  0  0  0  0  0
   -3.8290    0.4320   -1.6040 C   0  0  0  0  0  0  0  0  0  0  0  0
   -3.2900    1.4720   -1.1680 O   0  0  0  0  0  0  0  0  0  0  0  0
   -4.9780    0.5420   -2.3580 O   0  0  0  0  0  0  0  0  0  0  0  0
   -1.7500   -1.3130    1.4840 H   0  0  0  0  0  0  0  0  0  0  0  0
   -2.6930    0.2540    1.2500 H   0  0  0  0  0  0  0  0  0  0  0  0
   -4.6530   -0.8910    1.3580 H   0  0  0  0  0  0  0  0  0  0  0  0
   -3.7120   -2.4020    1.5200 H   0  0  0  0  0  0  0  0  0  0  0  0
   -3.9700   -2.8690   -0.7090 H   0  0  0  0  0  0  0  0  0  0  0  0
   -5.2200   -1.5760   -0.7140 H   0  0  0  0  0  0  0  0  0  0  0  0
   -2.9330   -1.3970   -2.2570 H   0  0  0  0  0  0  0  0  0  0  0  0
  1 10  1  0  0  0  0
  2 11  1  1  0  0  0
  2  3  1  0  0  0  0
  2  1  1  0  0  0  0
  3 13  1  0  0  0  0
  4  3  1  0  0  0  0
  4  8  1  0  0  0  0
  5  4  2  0  0  0  0
  6  2  1  0  0  0  0
  7  6  2  0  0  0  0
  9  1  1  0  0  0  0
 12  3  1  0  0  0  0
 14  8  1  0  0  0  0
 15 25  1  0  0  0  0
 15  6  1  0  0  0  0
 16 26  1  6  0  0  0
 16 15  1  0  0  0  0
 17 28  1  0  0  0  0
 17 18  1  0  0  0  0
 17 16  1  0  0  0  0
 18 22  1  0  0  0  0
 19 20  1  0  0  0  0
 19 18  2  0  0  0  0
 20 21  1  0  0  0  0
 21 22  2  0  0  0  0
 21 31  1  0  0  0  0
 23 32  1  0  0  0  0
 23 16  1  0  0  0  0
 24 23  2  0  0  0  0
 27 17  1  0  0  0  0
 29 19  1  0  0  0  0
 30 20  1  0  0  0  0
 32 33  1  0  0  0  0
 33 34  1  0  0  0  0
 33 41  1  0  0  0  0
 33 40  1  0  0  0  0
 34 42  1  0  0  0  0
 34 43  1  0  0  0  0
 35 34  1  0  0  0  0
 36 46  1  6  0  0  0
 36 35  1  0  0  0  0
 36 32  1  0  0  0  0
 37 36  1  0  0  0  0
 37 38  1  0  0  0  0
 39 37  2  0  0  0  0
 44 35  1  0  0  0  0
 45 35  1  0  0  0  0
M  END
$$$$
