DHR.pdb
 OpenBabel07022418143D

 55 55  0  0  1  0  0  0  0  0999 V2000
    2.9280   -2.1340    1.4980 N   0  0  0  0  0  0  0  0  0  0  0  0
    1.9040   -1.8220    2.4460 C   0  0  1  0  0  0  0  0  0  0  0  0
    2.5230   -1.3490    3.7230 C   0  0  0  0  0  0  0  0  0  0  0  0
    3.3700   -0.1670    3.6250 C   0  0  0  0  0  0  0  0  0  0  0  0
    3.8310    0.2970    4.7220 O   0  0  0  0  0  0  0  0  0  0  0  0
    0.8760   -0.9270    1.8740 C   0  0  0  0  0  0  0  0  0  0  0  0
   -0.0460   -0.4210    2.6030 O   0  0  0  0  0  0  0  0  0  0  0  0
    3.7400    0.5200    2.4980 O   0  0  0  0  0  0  0  0  0  0  0  0
    2.5770   -2.7150    0.6870 H   0  0  0  0  0  0  0  0  0  0  0  0
    3.7900   -2.5170    1.8960 H   0  0  0  0  0  0  0  0  0  0  0  0
    1.3200   -2.7940    2.6490 H   0  0  0  0  0  0  0  0  0  0  0  0
    1.6700   -1.1710    4.4410 H   0  0  0  0  0  0  0  0  0  0  0  0
    3.1240   -2.1940    4.1440 H   0  0  0  0  0  0  0  0  0  0  0  0
    4.6760    0.8980    2.4450 H   0  0  0  0  0  0  0  0  0  0  0  0
    0.9310   -0.6420    0.4720 N   0  0  0  0  0  0  0  0  0  0  0  0
   -0.0690    0.2110   -0.1270 C   0  0  1  0  0  0  0  0  0  0  0  0
    0.5130    1.3380   -0.9270 C   0  0  0  0  0  0  0  0  0  0  0  0
    1.3650    2.2650   -0.1840 C   0  0  0  0  0  0  0  0  0  0  0  0
    2.7220    2.2260    0.0020 C   0  0  0  0  0  0  0  0  0  0  0  0
    3.0750    3.2870    0.7350 N   0  0  0  0  0  0  0  0  0  0  0  0
    1.9570    3.9780    1.0020 C   0  0  0  0  0  0  0  0  0  0  0  0
    0.9100    3.3630    0.4460 N   0  0  0  0  0  0  0  0  0  0  0  0
   -0.9130   -0.5650   -1.0970 C   0  0  0  0  0  0  0  0  0  0  0  0
   -1.8230    0.0130   -1.7330 O   0  0  0  0  0  0  0  0  0  0  0  0
    1.6950   -1.0530   -0.1070 H   0  0  0  0  0  0  0  0  0  0  0  0
   -0.7070    0.6210    0.6930 H   0  0  0  0  0  0  0  0  0  0  0  0
    1.1560    0.8430   -1.7180 H   0  0  0  0  0  0  0  0  0  0  0  0
   -0.3400    1.8560   -1.4170 H   0  0  0  0  0  0  0  0  0  0  0  0
    3.3960    1.4560   -0.3840 H   0  0  0  0  0  0  0  0  0  0  0  0
    4.0510    3.5430    1.0500 H   0  0  0  0  0  0  0  0  0  0  0  0
    1.9800    4.8950    1.5910 H   0  0  0  0  0  0  0  0  0  0  0  0
   -3.2990    0.5920    1.6860 N   0  0  0  0  0  0  0  0  0  0  0  0
   -3.2440   -0.8100    1.8220 C   0  0  0  0  0  0  0  0  0  0  0  0
   -3.0040   -1.4170    2.9450 N   0  0  0  0  0  0  0  0  0  0  0  0
   -3.4630   -1.6250    0.6870 N   0  0  0  0  0  0  0  0  0  0  0  0
   -2.7920   -2.9290    0.5640 C   0  0  0  0  0  0  0  0  0  0  0  0
   -3.2230   -3.6280   -0.6920 C   0  0  0  0  0  0  0  0  0  0  0  0
   -2.9310   -2.9320   -1.9620 C   0  0  0  0  0  0  0  0  0  0  0  0
   -1.4850   -2.7230   -2.2530 C   0  0  2  0  0  0  0  0  0  0  0  0
   -0.7230   -1.9550   -1.3340 N   0  0  0  0  0  0  0  0  0  0  0  0
   -1.3680   -2.0760   -3.6090 C   0  0  0  0  0  0  0  0  0  0  0  0
   -1.9880   -2.5290   -4.6150 O   0  0  0  0  0  0  0  0  0  0  0  0
   -0.5710   -0.9630   -3.7760 O   0  0  0  0  0  0  0  0  0  0  0  0
   -4.0450    1.0660    1.1140 H   0  0  0  0  0  0  0  0  0  0  0  0
   -2.5990    1.1920    2.1510 H   0  0  0  0  0  0  0  0  0  0  0  0
   -2.8420   -0.8310    3.7970 H   0  0  0  0  0  0  0  0  0  0  0  0
   -4.1020   -1.3320   -0.0960 H   0  0  0  0  0  0  0  0  0  0  0  0
   -1.7220   -2.8280    0.7090 H   0  0  0  0  0  0  0  0  0  0  0  0
   -3.1620   -3.5170    1.4540 H   0  0  0  0  0  0  0  0  0  0  0  0
   -2.7830   -4.6620   -0.7070 H   0  0  0  0  0  0  0  0  0  0  0  0
   -4.3300   -3.7830   -0.6370 H   0  0  0  0  0  0  0  0  0  0  0  0
   -3.3540   -3.4840   -2.8540 H   0  0  0  0  0  0  0  0  0  0  0  0
   -3.4200   -1.9210   -1.9640 H   0  0  0  0  0  0  0  0  0  0  0  0
   -0.9440   -3.7060   -2.3840 H   0  0  0  0  0  0  0  0  0  0  0  0
    0.0480   -2.4050   -0.7810 H   0  0  0  0  0  0  0  0  0  0  0  0
  1 10  1  0  0  0  0
  1  2  1  0  0  0  0
  2 11  1  1  0  0  0
  2  3  1  0  0  0  0
  3 13  1  0  0  0  0
  3 12  1  0  0  0  0
  4  3  1  0  0  0  0
  4  5  2  0  0  0  0
  6  2  1  0  0  0  0
  6  7  2  0  0  0  0
  8  4  1  0  0  0  0
  9  1  1  0  0  0  0
 14  8  1  0  0  0  0
 15  6  1  0  0  0  0
 16 15  1  0  0  0  0
 16 26  1  1  0  0  0
 17 18  1  0  0  0  0
 17 16  1  0  0  0  0
 18 19  2  0  0  0  0
 18 22  1  0  0  0  0
 19 20  1  0  0  0  0
 20 21  1  0  0  0  0
 20 30  1  0  0  0  0
 21 31  1  0  0  0  0
 22 21  2  0  0  0  0
 23 16  1  0  0  0  0
 24 23  2  0  0  0  0
 25 15  1  0  0  0  0
 27 17  1  0  0  0  0
 28 17  1  0  0  0  0
 29 19  1  0  0  0  0
 32 33  1  0  0  0  0
 32 45  1  0  0  0  0
 33 34  2  0  0  0  0
 34 46  1  0  0  0  0
 35 33  1  0  0  0  0
 36 35  1  0  0  0  0
 36 48  1  0  0  0  0
 36 49  1  0  0  0  0
 37 51  1  0  0  0  0
 37 36  1  0  0  0  0
 38 37  1  0  0  0  0
 39 54  1  6  0  0  0
 39 38  1  0  0  0  0
 39 40  1  0  0  0  0
 40 23  1  0  0  0  0
 40 55  1  0  0  0  0
 41 39  1  0  0  0  0
 42 41  2  0  0  0  0
 43 41  1  0  0  0  0
 44 32  1  0  0  0  0
 47 35  1  0  0  0  0
 50 37  1  0  0  0  0
 52 38  1  0  0  0  0
 53 38  1  0  0  0  0
M  END
$$$$
