DHW.pdb
 OpenBabel07022418143D

 56 58  0  0  1  0  0  0  0  0999 V2000
    4.9680   -0.1880    1.9200 N   0  0  0  0  0  0  0  0  0  0  0  0
    4.1320   -1.1940    2.5150 C   0  0  1  0  0  0  0  0  0  0  0  0
    4.3520   -1.1370    4.0300 C   0  0  0  0  0  0  0  0  0  0  0  0
    3.9790    0.2210    4.4820 C   0  0  0  0  0  0  0  0  0  0  0  0
    3.5590    1.0670    3.6610 O   0  0  0  0  0  0  0  0  0  0  0  0
    2.7020   -0.9190    2.2740 C   0  0  0  0  0  0  0  0  0  0  0  0
    1.8290   -1.6940    2.8140 O   0  0  0  0  0  0  0  0  0  0  0  0
    4.0920    0.5710    5.8310 O   0  0  0  0  0  0  0  0  0  0  0  0
    5.3650   -0.4530    0.9990 H   0  0  0  0  0  0  0  0  0  0  0  0
    5.7910    0.0560    2.5450 H   0  0  0  0  0  0  0  0  0  0  0  0
    4.4140   -2.2250    2.1680 H   0  0  0  0  0  0  0  0  0  0  0  0
    5.4260   -1.3250    4.1990 H   0  0  0  0  0  0  0  0  0  0  0  0
    3.7190   -1.9130    4.5420 H   0  0  0  0  0  0  0  0  0  0  0  0
    4.2460    1.5670    6.0320 H   0  0  0  0  0  0  0  0  0  0  0  0
    2.2000    0.1430    1.4840 N   0  0  0  0  0  0  0  0  0  0  0  0
    0.7240    0.3030    1.3310 C   0  0  1  0  0  0  0  0  0  0  0  0
    0.5160    1.7370    1.8450 C   0  0  0  0  0  0  0  0  0  0  0  0
   -0.8860    2.1440    1.8060 C   0  0  0  0  0  0  0  0  0  0  0  0
   -1.6040    2.7880    0.8270 C   0  0  0  0  0  0  0  0  0  0  0  0
   -2.8520    2.9620    1.2850 N   0  0  0  0  0  0  0  0  0  0  0  0
   -2.9260    2.4420    2.5230 C   0  0  0  0  0  0  0  0  0  0  0  0
   -1.7330    1.9380    2.8580 N   0  0  0  0  0  0  0  0  0  0  0  0
    0.4230    0.3000   -0.1140 C   0  0  0  0  0  0  0  0  0  0  0  0
    1.3790    0.4600   -0.9120 O   0  0  0  0  0  0  0  0  0  0  0  0
    2.8710    0.7850    1.0300 H   0  0  0  0  0  0  0  0  0  0  0  0
    0.1770   -0.4360    1.9040 H   0  0  0  0  0  0  0  0  0  0  0  0
    1.1520    2.4270    1.2170 H   0  0  0  0  0  0  0  0  0  0  0  0
    0.9260    1.8140    2.8790 H   0  0  0  0  0  0  0  0  0  0  0  0
   -1.1790    3.0800   -0.1280 H   0  0  0  0  0  0  0  0  0  0  0  0
   -3.6400    3.4240    0.7650 H   0  0  0  0  0  0  0  0  0  0  0  0
   -3.8390    2.4510    3.1400 H   0  0  0  0  0  0  0  0  0  0  0  0
   -0.8560    0.1240   -0.6840 N   0  0  0  0  0  0  0  0  0  0  0  0
   -1.2030    0.1150   -2.0620 C   0  0  1  0  0  0  0  0  0  0  0  0
   -1.2450   -1.2340   -2.7260 C   0  0  0  0  0  0  0  0  0  0  0  0
   -2.1670   -2.1680   -2.1180 C   0  0  0  0  0  0  0  0  0  0  0  0
   -3.3350   -1.9740   -1.4360 C   0  0  0  0  0  0  0  0  0  0  0  0
   -3.8490   -3.1540   -1.0220 N   0  0  0  0  0  0  0  0  0  0  0  0
   -3.0280   -4.1470   -1.4250 C   0  0  0  0  0  0  0  0  0  0  0  0
   -3.1070   -5.5170   -1.2670 C   0  0  0  0  0  0  0  0  0  0  0  0
   -2.1140   -6.3190   -1.8040 C   0  0  0  0  0  0  0  0  0  0  0  0
   -1.0560   -5.7620   -2.4900 C   0  0  0  0  0  0  0  0  0  0  0  0
   -1.0140   -4.3730   -2.6260 C   0  0  0  0  0  0  0  0  0  0  0  0
   -1.9790   -3.5640   -2.1060 C   0  0  0  0  0  0  0  0  0  0  0  0
   -2.4120    0.8570   -2.4320 C   0  0  0  0  0  0  0  0  0  0  0  0
   -3.1440    1.5130   -1.6250 O   0  0  0  0  0  0  0  0  0  0  0  0
   -2.8800    0.9080   -3.7610 O   0  0  0  0  0  0  0  0  0  0  0  0
   -1.6490   -0.0180    0.0070 H   0  0  0  0  0  0  0  0  0  0  0  0
   -0.3460    0.6830   -2.6130 H   0  0  0  0  0  0  0  0  0  0  0  0
   -0.2260   -1.6440   -2.9070 H   0  0  0  0  0  0  0  0  0  0  0  0
   -1.6260   -1.0230   -3.7720 H   0  0  0  0  0  0  0  0  0  0  0  0
   -3.8560   -1.0520   -1.2060 H   0  0  0  0  0  0  0  0  0  0  0  0
   -4.7300   -3.3050   -0.4780 H   0  0  0  0  0  0  0  0  0  0  0  0
   -3.9420   -5.9490   -0.7260 H   0  0  0  0  0  0  0  0  0  0  0  0
   -2.1310   -7.4020   -1.7110 H   0  0  0  0  0  0  0  0  0  0  0  0
   -0.2620   -6.3530   -2.9300 H   0  0  0  0  0  0  0  0  0  0  0  0
   -0.1860   -3.8980   -3.1700 H   0  0  0  0  0  0  0  0  0  0  0  0
  1  2  1  0  0  0  0
  1 10  1  0  0  0  0
  2 11  1  6  0  0  0
  2  3  1  0  0  0  0
  3 12  1  0  0  0  0
  3  4  1  0  0  0  0
  3 13  1  0  0  0  0
  4  8  1  0  0  0  0
  5  4  2  0  0  0  0
  6  2  1  0  0  0  0
  6  7  2  0  0  0  0
  8 14  1  0  0  0  0
  9  1  1  0  0  0  0
 15  6  1  0  0  0  0
 16 15  1  0  0  0  0
 16 17  1  0  0  0  0
 16 26  1  1  0  0  0
 17 28  1  0  0  0  0
 18 17  1  0  0  0  0
 18 22  1  0  0  0  0
 19 20  1  0  0  0  0
 19 18  2  0  0  0  0
 20 21  1  0  0  0  0
 21 22  2  0  0  0  0
 21 31  1  0  0  0  0
 23 16  1  0  0  0  0
 24 23  2  0  0  0  0
 25 15  1  0  0  0  0
 27 17  1  0  0  0  0
 29 19  1  0  0  0  0
 30 20  1  0  0  0  0
 32 23  1  0  0  0  0
 32 47  1  0  0  0  0
 33 48  1  6  0  0  0
 33 32  1  0  0  0  0
 34 35  1  0  0  0  0
 34 33  1  0  0  0  0
 35 43  1  0  0  0  0
 35 36  2  0  0  0  0
 36 51  1  0  0  0  0
 36 37  1  0  0  0  0
 37 52  1  0  0  0  0
 38 39  1  0  0  0  0
 38 37  1  0  0  0  0
 39 53  1  0  0  0  0
 40 54  1  0  0  0  0
 40 39  2  0  0  0  0
 41 40  1  0  0  0  0
 42 41  2  0  0  0  0
 42 43  1  0  0  0  0
 43 38  2  0  0  0  0
 44 33  1  0  0  0  0
 44 45  1  0  0  0  0
 46 44  2  0  0  0  0
 49 34  1  0  0  0  0
 50 34  1  0  0  0  0
 55 41  1  0  0  0  0
 56 42  1  0  0  0  0
M  END
$$$$
