DIE.pdb
 OpenBabel07022418143D

 50 49  0  0  1  0  0  0  0  0999 V2000
    2.0160   -2.6770    4.1060 N   0  0  0  0  0  0  0  0  0  0  0  0
    0.6080   -2.4670    4.2550 C   0  0  1  0  0  0  0  0  0  0  0  0
    0.1820   -1.9140    5.5860 C   0  0  0  0  0  0  0  0  0  0  0  0
    0.7580   -0.6020    5.9200 C   0  0  0  0  0  0  0  0  0  0  0  0
    1.9990   -0.4270    5.9080 O   0  0  0  0  0  0  0  0  0  0  0  0
    0.0190   -1.6910    3.1270 C   0  0  0  0  0  0  0  0  0  0  0  0
   -1.2160   -1.3770    3.1740 O   0  0  0  0  0  0  0  0  0  0  0  0
   -0.0640    0.4640    6.2490 O   0  0  0  0  0  0  0  0  0  0  0  0
    2.2070   -3.4800    3.4360 H   0  0  0  0  0  0  0  0  0  0  0  0
    2.4230   -2.8470    5.0510 H   0  0  0  0  0  0  0  0  0  0  0  0
    0.1320   -3.4820    4.1890 H   0  0  0  0  0  0  0  0  0  0  0  0
    0.4020   -2.6940    6.3510 H   0  0  0  0  0  0  0  0  0  0  0  0
   -0.9330   -1.8390    5.5540 H   0  0  0  0  0  0  0  0  0  0  0  0
    0.2740    1.3060    6.6940 H   0  0  0  0  0  0  0  0  0  0  0  0
    2.7960    2.1180    0.2870 C   0  0  0  0  0  0  0  0  0  0  0  0
    2.2430    0.7070    0.3900 C   0  0  0  0  0  0  0  0  0  0  0  0
    0.7700    0.8400    0.7290 C   0  0  2  0  0  0  0  0  0  0  0  0
    0.6340    1.5820    2.0500 C   0  0  0  0  0  0  0  0  0  0  0  0
    0.1210   -0.5040    0.9140 C   0  0  2  0  0  0  0  0  0  0  0  0
    0.7360   -1.2620    1.9840 N   0  0  0  0  0  0  0  0  0  0  0  0
    0.1160   -1.3050   -0.3560 C   0  0  0  0  0  0  0  0  0  0  0  0
    0.6070   -2.4640   -0.4100 O   0  0  0  0  0  0  0  0  0  0  0  0
    3.4860    2.1910   -0.5840 H   0  0  0  0  0  0  0  0  0  0  0  0
    1.9790    2.8630    0.1680 H   0  0  0  0  0  0  0  0  0  0  0  0
    3.3510    2.4080    1.2170 H   0  0  0  0  0  0  0  0  0  0  0  0
    2.7580    0.2030    1.2400 H   0  0  0  0  0  0  0  0  0  0  0  0
    2.4190    0.1020   -0.4990 H   0  0  0  0  0  0  0  0  0  0  0  0
    0.2200    1.4000   -0.0260 H   0  0  0  0  0  0  0  0  0  0  0  0
    0.7810    0.8610    2.8820 H   0  0  0  0  0  0  0  0  0  0  0  0
   -0.3450    2.1150    2.1090 H   0  0  0  0  0  0  0  0  0  0  0  0
    1.4490    2.3440    2.1380 H   0  0  0  0  0  0  0  0  0  0  0  0
   -0.9310   -0.3400    1.2120 H   0  0  0  0  0  0  0  0  0  0  0  0
    1.7340   -1.4960    1.9050 H   0  0  0  0  0  0  0  0  0  0  0  0
   -0.4470   -0.7830   -1.5490 N   0  0  0  0  0  0  0  0  0  0  0  0
   -0.4710   -1.5010   -2.7590 C   0  0  1  0  0  0  0  0  0  0  0  0
   -1.7640   -2.1590   -3.1040 C   0  0  0  0  0  0  0  0  0  0  0  0
   -2.9690   -1.3230   -3.2390 C   0  0  0  0  0  0  0  0  0  0  0  0
   -3.4510   -0.6840   -2.0060 C   0  0  0  0  0  0  0  0  0  0  0  0
   -3.0460   -0.9870   -0.8840 O   0  0  0  0  0  0  0  0  0  0  0  0
    0.0480   -0.7710   -3.9380 C   0  0  0  0  0  0  0  0  0  0  0  0
    0.4920    0.4030   -3.9320 O   0  0  0  0  0  0  0  0  0  0  0  0
   -4.4170    0.3100   -2.1520 O   0  0  0  0  0  0  0  0  0  0  0  0
    0.0390   -1.4510   -5.1460 O   0  0  0  0  0  0  0  0  0  0  0  0
   -0.8280    0.1890   -1.5110 H   0  0  0  0  0  0  0  0  0  0  0  0
    0.2680   -2.3890   -2.6600 H   0  0  0  0  0  0  0  0  0  0  0  0
   -1.6830   -2.7780   -4.0380 H   0  0  0  0  0  0  0  0  0  0  0  0
   -1.9750   -2.9070   -2.2820 H   0  0  0  0  0  0  0  0  0  0  0  0
   -2.9030   -0.5790   -4.0790 H   0  0  0  0  0  0  0  0  0  0  0  0
   -3.8080   -2.0110   -3.5660 H   0  0  0  0  0  0  0  0  0  0  0  0
   -4.9090    0.7180   -1.3530 H   0  0  0  0  0  0  0  0  0  0  0  0
  1  2  1  0  0  0  0
  1 10  1  0  0  0  0
  2 11  1  6  0  0  0
  2  3  1  0  0  0  0
  3  4  1  0  0  0  0
  3 12  1  0  0  0  0
  4  8  1  0  0  0  0
  5  4  2  0  0  0  0
  6  7  2  0  0  0  0
  6  2  1  0  0  0  0
  8 14  1  0  0  0  0
  9  1  1  0  0  0  0
 13  3  1  0  0  0  0
 15 16  1  0  0  0  0
 15 25  1  0  0  0  0
 16 17  1  0  0  0  0
 16 26  1  0  0  0  0
 17 28  1  6  0  0  0
 17 19  1  0  0  0  0
 17 18  1  0  0  0  0
 18 30  1  0  0  0  0
 18 31  1  0  0  0  0
 18 29  1  0  0  0  0
 19 32  1  1  0  0  0
 19 20  1  0  0  0  0
 20  6  1  0  0  0  0
 21 19  1  0  0  0  0
 22 21  2  0  0  0  0
 23 15  1  0  0  0  0
 24 15  1  0  0  0  0
 27 16  1  0  0  0  0
 33 20  1  0  0  0  0
 34 44  1  0  0  0  0
 34 21  1  0  0  0  0
 35 45  1  1  0  0  0
 35 34  1  0  0  0  0
 36 35  1  0  0  0  0
 36 47  1  0  0  0  0
 37 36  1  0  0  0  0
 37 38  1  0  0  0  0
 38 39  2  0  0  0  0
 40 41  1  0  0  0  0
 40 35  1  0  0  0  0
 42 38  1  0  0  0  0
 42 50  1  0  0  0  0
 43 40  2  0  0  0  0
 46 36  1  0  0  0  0
 48 37  1  0  0  0  0
 49 37  1  0  0  0  0
M  END
$$$$
