DIF.pdb
 OpenBabel07022418143D

 54 54  0  0  1  0  0  0  0  0999 V2000
    3.1030   -2.5850    2.7100 N   0  0  0  0  0  0  0  0  0  0  0  0
    3.0280   -2.0590    1.3560 C   0  0  1  0  0  0  0  0  0  0  0  0
    2.5890   -3.1630    0.4390 C   0  0  0  0  0  0  0  0  0  0  0  0
    2.4920   -2.7440   -0.9720 C   0  0  0  0  0  0  0  0  0  0  0  0
    1.4710   -2.2240   -1.4750 O   0  0  0  0  0  0  0  0  0  0  0  0
    2.0600   -0.9400    1.3880 C   0  0  0  0  0  0  0  0  0  0  0  0
    1.7930   -0.3760    0.3150 O   0  0  0  0  0  0  0  0  0  0  0  0
    3.5810   -2.9230   -1.8190 O   0  0  0  0  0  0  0  0  0  0  0  0
    4.1030   -2.8210    2.8840 H   0  0  0  0  0  0  0  0  0  0  0  0
    2.4780   -3.4230    2.8150 H   0  0  0  0  0  0  0  0  0  0  0  0
    4.0040   -1.6260    1.0470 H   0  0  0  0  0  0  0  0  0  0  0  0
    1.5700   -3.4790    0.8010 H   0  0  0  0  0  0  0  0  0  0  0  0
    3.3130   -3.9980    0.5760 H   0  0  0  0  0  0  0  0  0  0  0  0
    3.8180   -2.2310   -2.5380 H   0  0  0  0  0  0  0  0  0  0  0  0
    2.5030    3.7850    1.7760 C   0  0  0  0  0  0  0  0  0  0  0  0
    2.0310    2.3320    1.5800 C   0  0  0  0  0  0  0  0  0  0  0  0
    1.1130    1.9260    2.6770 C   0  0  2  0  0  0  0  0  0  0  0  0
    1.8410    2.0260    4.0260 C   0  0  0  0  0  0  0  0  0  0  0  0
    0.5210    0.5700    2.5990 C   0  0  2  0  0  0  0  0  0  0  0  0
    1.4460   -0.5030    2.5840 N   0  0  0  0  0  0  0  0  0  0  0  0
   -0.6570    0.4290    1.7110 C   0  0  0  0  0  0  0  0  0  0  0  0
   -1.4300    1.4020    1.5010 O   0  0  0  0  0  0  0  0  0  0  0  0
    1.6600    4.4690    1.9100 H   0  0  0  0  0  0  0  0  0  0  0  0
    3.0470    4.0740    0.8620 H   0  0  0  0  0  0  0  0  0  0  0  0
    3.2230    3.7930    2.6150 H   0  0  0  0  0  0  0  0  0  0  0  0
    2.9540    1.7500    1.5150 H   0  0  0  0  0  0  0  0  0  0  0  0
    1.5350    2.3260    0.5910 H   0  0  0  0  0  0  0  0  0  0  0  0
    0.2670    2.6650    2.7830 H   0  0  0  0  0  0  0  0  0  0  0  0
    1.3540    1.3320    4.7360 H   0  0  0  0  0  0  0  0  0  0  0  0
    1.8170    3.0370    4.4320 H   0  0  0  0  0  0  0  0  0  0  0  0
    2.8630    1.6360    3.8370 H   0  0  0  0  0  0  0  0  0  0  0  0
    0.0050    0.4540    3.6500 H   0  0  0  0  0  0  0  0  0  0  0  0
    1.7380   -1.0410    3.4540 H   0  0  0  0  0  0  0  0  0  0  0  0
   -0.9550   -0.7770    1.0850 N   0  0  0  0  0  0  0  0  0  0  0  0
   -2.1050   -0.9710    0.1980 C   0  0  1  0  0  0  0  0  0  0  0  0
   -1.7170   -1.4460   -1.1470 C   0  0  0  0  0  0  0  0  0  0  0  0
   -2.9110   -1.6220   -1.9980 C   0  0  0  0  0  0  0  0  0  0  0  0
   -3.4490   -0.5260   -2.6870 C   0  0  0  0  0  0  0  0  0  0  0  0
   -4.5440   -0.6630   -3.5140 C   0  0  0  0  0  0  0  0  0  0  0  0
   -5.1620   -1.8810   -3.7030 C   0  0  0  0  0  0  0  0  0  0  0  0
   -4.6420   -2.9660   -3.0310 C   0  0  0  0  0  0  0  0  0  0  0  0
   -3.5400   -2.8370   -2.1970 C   0  0  0  0  0  0  0  0  0  0  0  0
   -2.9840   -1.9370    0.8570 C   0  0  0  0  0  0  0  0  0  0  0  0
   -2.6250   -2.4980    1.9110 O   0  0  0  0  0  0  0  0  0  0  0  0
   -4.2180   -2.2450    0.3360 O   0  0  0  0  0  0  0  0  0  0  0  0
   -0.3710   -1.6240    1.2280 H   0  0  0  0  0  0  0  0  0  0  0  0
   -2.6450    0.0150    0.0650 H   0  0  0  0  0  0  0  0  0  0  0  0
   -1.0630   -0.7090   -1.7030 H   0  0  0  0  0  0  0  0  0  0  0  0
   -1.2230   -2.4510   -1.1290 H   0  0  0  0  0  0  0  0  0  0  0  0
   -2.9670    0.4480   -2.5460 H   0  0  0  0  0  0  0  0  0  0  0  0
   -4.9670    0.1790   -4.0520 H   0  0  0  0  0  0  0  0  0  0  0  0
   -6.0210   -2.0310   -4.3410 H   0  0  0  0  0  0  0  0  0  0  0  0
   -5.0960   -3.9430   -3.1490 H   0  0  0  0  0  0  0  0  0  0  0  0
   -3.1250   -3.6950   -1.6720 H   0  0  0  0  0  0  0  0  0  0  0  0
  1 10  1  0  0  0  0
  1  9  1  0  0  0  0
  2 11  1  6  0  0  0
  2  6  1  0  0  0  0
  2  1  1  0  0  0  0
  3 13  1  0  0  0  0
  3 12  1  0  0  0  0
  3  2  1  0  0  0  0
  4  3  1  0  0  0  0
  5  4  2  0  0  0  0
  6 20  1  0  0  0  0
  7  6  2  0  0  0  0
  8  4  1  0  0  0  0
 14  8  1  0  0  0  0
 15 23  1  0  0  0  0
 15 25  1  0  0  0  0
 16 15  1  0  0  0  0
 16 17  1  0  0  0  0
 17 28  1  1  0  0  0
 17 18  1  0  0  0  0
 18 30  1  0  0  0  0
 18 29  1  0  0  0  0
 19 17  1  0  0  0  0
 19 32  1  1  0  0  0
 20 19  1  0  0  0  0
 20 33  1  0  0  0  0
 21 19  1  0  0  0  0
 22 21  2  0  0  0  0
 24 15  1  0  0  0  0
 26 16  1  0  0  0  0
 27 16  1  0  0  0  0
 31 18  1  0  0  0  0
 34 46  1  0  0  0  0
 34 21  1  0  0  0  0
 35 47  1  6  0  0  0
 35 43  1  0  0  0  0
 35 34  1  0  0  0  0
 36 49  1  0  0  0  0
 36 35  1  0  0  0  0
 37 36  1  0  0  0  0
 38 50  1  0  0  0  0
 38 37  2  0  0  0  0
 39 38  1  0  0  0  0
 40 39  2  0  0  0  0
 40 41  1  0  0  0  0
 41 42  2  0  0  0  0
 42 37  1  0  0  0  0
 42 54  1  0  0  0  0
 43 44  1  0  0  0  0
 45 43  2  0  0  0  0
 48 36  1  0  0  0  0
 51 39  1  0  0  0  0
 52 40  1  0  0  0  0
 53 41  1  0  0  0  0
M  END
$$$$
