DIG.pdb
 OpenBabel07022418143D

 41 40  0  0  1  0  0  0  0  0999 V2000
    0.0430   -1.0190    5.2180 N   0  0  0  0  0  0  0  0  0  0  0  0
    0.7810   -1.5390    4.0220 C   0  0  1  0  0  0  0  0  0  0  0  0
    0.5770   -3.0160    3.9790 C   0  0  0  0  0  0  0  0  0  0  0  0
    1.2730   -3.6890    2.8910 C   0  0  0  0  0  0  0  0  0  0  0  0
    2.0840   -3.1550    2.1040 O   0  0  0  0  0  0  0  0  0  0  0  0
    0.1210   -0.9090    2.8290 C   0  0  0  0  0  0  0  0  0  0  0  0
   -1.1410   -0.6880    2.9180 O   0  0  0  0  0  0  0  0  0  0  0  0
    1.0480   -5.0700    2.6590 O   0  0  0  0  0  0  0  0  0  0  0  0
   -0.9630   -0.9470    5.0020 H   0  0  0  0  0  0  0  0  0  0  0  0
    0.2670   -1.7340    5.9560 H   0  0  0  0  0  0  0  0  0  0  0  0
    1.8050   -1.2460    4.1250 H   0  0  0  0  0  0  0  0  0  0  0  0
    0.8280   -3.4960    4.9760 H   0  0  0  0  0  0  0  0  0  0  0  0
   -0.5320   -3.2090    3.8250 H   0  0  0  0  0  0  0  0  0  0  0  0
    1.4320   -5.5220    1.8400 H   0  0  0  0  0  0  0  0  0  0  0  0
   -1.8300    2.2520   -0.5580 C   0  0  0  0  0  0  0  0  0  0  0  0
   -0.3480    2.3530   -0.4840 C   0  0  0  0  0  0  0  0  0  0  0  0
    0.3300    1.5330    0.5520 C   0  0  2  0  0  0  0  0  0  0  0  0
    1.8160    1.7840    0.4540 C   0  0  0  0  0  0  0  0  0  0  0  0
   -0.0240    0.0710    0.5670 C   0  0  2  0  0  0  0  0  0  0  0  0
    0.7410   -0.5320    1.6360 N   0  0  0  0  0  0  0  0  0  0  0  0
    0.0440   -0.6020   -0.7170 C   0  0  0  0  0  0  0  0  0  0  0  0
   -0.6490   -0.1090   -1.6690 O   0  0  0  0  0  0  0  0  0  0  0  0
   -2.2240    2.1410   -1.5930 H   0  0  0  0  0  0  0  0  0  0  0  0
   -2.2770    1.5080    0.1360 H   0  0  0  0  0  0  0  0  0  0  0  0
   -2.2610    3.2330   -0.2090 H   0  0  0  0  0  0  0  0  0  0  0  0
    0.0430    2.1000   -1.5170 H   0  0  0  0  0  0  0  0  0  0  0  0
   -0.0800    3.4490   -0.3990 H   0  0  0  0  0  0  0  0  0  0  0  0
    0.0230    1.9210    1.5490 H   0  0  0  0  0  0  0  0  0  0  0  0
    2.2280    1.4850   -0.5420 H   0  0  0  0  0  0  0  0  0  0  0  0
    1.9590    2.8850    0.5080 H   0  0  0  0  0  0  0  0  0  0  0  0
    2.3820    1.3540    1.2930 H   0  0  0  0  0  0  0  0  0  0  0  0
   -1.0870    0.0670    0.8920 H   0  0  0  0  0  0  0  0  0  0  0  0
    1.7580   -0.6510    1.4880 H   0  0  0  0  0  0  0  0  0  0  0  0
    0.7900   -1.7510   -1.0580 N   0  0  0  0  0  0  0  0  0  0  0  0
    0.7820   -2.3410   -2.3790 C   0  0  0  0  0  0  0  0  0  0  0  0
    1.2620   -1.3960   -3.4150 C   0  0  0  0  0  0  0  0  0  0  0  0
    1.3040   -1.7860   -4.5970 O   0  0  0  0  0  0  0  0  0  0  0  0
    1.6570   -0.1140   -3.1080 O   0  0  0  0  0  0  0  0  0  0  0  0
    1.3750   -2.1970   -0.3270 H   0  0  0  0  0  0  0  0  0  0  0  0
    1.3570   -3.2610   -2.4480 H   0  0  0  0  0  0  0  0  0  0  0  0
   -0.2840   -2.5990   -2.6320 H   0  0  0  0  0  0  0  0  0  0  0  0
  1 10  1  0  0  0  0
  2 11  1  1  0  0  0
  2  1  1  0  0  0  0
  3  2  1  0  0  0  0
  3 12  1  0  0  0  0
  4  3  1  0  0  0  0
  5  4  2  0  0  0  0
  6  7  2  0  0  0  0
  6  2  1  0  0  0  0
  8  4  1  0  0  0  0
  9  1  1  0  0  0  0
 13  3  1  0  0  0  0
 14  8  1  0  0  0  0
 15 16  1  0  0  0  0
 15 25  1  0  0  0  0
 15 24  1  0  0  0  0
 16 27  1  0  0  0  0
 16 17  1  0  0  0  0
 17 19  1  0  0  0  0
 17 28  1  1  0  0  0
 18 30  1  0  0  0  0
 18 17  1  0  0  0  0
 18 31  1  0  0  0  0
 19 32  1  1  0  0  0
 19 20  1  0  0  0  0
 20  6  1  0  0  0  0
 21 19  1  0  0  0  0
 22 21  2  0  0  0  0
 23 15  1  0  0  0  0
 26 16  1  0  0  0  0
 29 18  1  0  0  0  0
 33 20  1  0  0  0  0
 34 21  1  0  0  0  0
 34 39  1  0  0  0  0
 35 34  1  0  0  0  0
 36 38  1  0  0  0  0
 36 35  1  0  0  0  0
 37 36  2  0  0  0  0
 40 35  1  0  0  0  0
 41 35  1  0  0  0  0
M  END
$$$$
