DIH.pdb
 OpenBabel07022418143D

 51 51  0  0  1  0  0  0  0  0999 V2000
    0.5540   -2.8360    2.0670 N   0  0  0  0  0  0  0  0  0  0  0  0
   -0.0890   -2.0680    3.1200 C   0  0  1  0  0  0  0  0  0  0  0  0
    0.7680   -2.0050    4.3590 C   0  0  0  0  0  0  0  0  0  0  0  0
    0.0650   -1.2150    5.3980 C   0  0  0  0  0  0  0  0  0  0  0  0
    0.2530    0.0120    5.6010 O   0  0  0  0  0  0  0  0  0  0  0  0
   -0.2460   -0.6910    2.5950 C   0  0  0  0  0  0  0  0  0  0  0  0
   -0.8320    0.1910    3.2610 O   0  0  0  0  0  0  0  0  0  0  0  0
   -0.8740   -1.8430    6.2240 O   0  0  0  0  0  0  0  0  0  0  0  0
    1.4170   -3.2990    2.3650 H   0  0  0  0  0  0  0  0  0  0  0  0
   -0.1340   -3.4160    1.5490 H   0  0  0  0  0  0  0  0  0  0  0  0
   -1.0490   -2.5380    3.4070 H   0  0  0  0  0  0  0  0  0  0  0  0
    1.7330   -1.4930    4.1480 H   0  0  0  0  0  0  0  0  0  0  0  0
    0.9490   -3.0190    4.7930 H   0  0  0  0  0  0  0  0  0  0  0  0
   -1.6540   -1.2590    6.5440 H   0  0  0  0  0  0  0  0  0  0  0  0
    3.6800    2.3320    1.1880 C   0  0  0  0  0  0  0  0  0  0  0  0
    2.3510    1.7610    1.6420 C   0  0  0  0  0  0  0  0  0  0  0  0
    1.4590    1.6510    0.4370 C   0  0  2  0  0  0  0  0  0  0  0  0
    1.2760    3.0340   -0.1440 C   0  0  0  0  0  0  0  0  0  0  0  0
    0.1150    1.0440    0.7790 C   0  0  2  0  0  0  0  0  0  0  0  0
    0.2510   -0.2900    1.3220 N   0  0  0  0  0  0  0  0  0  0  0  0
   -0.7420    0.9310   -0.4400 C   0  0  0  0  0  0  0  0  0  0  0  0
   -1.0140    1.9490   -1.0840 O   0  0  0  0  0  0  0  0  0  0  0  0
    4.4550    1.9370    1.9040 H   0  0  0  0  0  0  0  0  0  0  0  0
    3.7440    3.4330    1.2740 H   0  0  0  0  0  0  0  0  0  0  0  0
    3.9600    1.9980    0.1640 H   0  0  0  0  0  0  0  0  0  0  0  0
    2.5410    0.7680    2.1110 H   0  0  0  0  0  0  0  0  0  0  0  0
    1.9480    2.4880    2.3900 H   0  0  0  0  0  0  0  0  0  0  0  0
    1.9930    1.0430   -0.3310 H   0  0  0  0  0  0  0  0  0  0  0  0
    0.3310    3.4480    0.3120 H   0  0  0  0  0  0  0  0  0  0  0  0
    1.0880    3.0150   -1.2370 H   0  0  0  0  0  0  0  0  0  0  0  0
    2.0730    3.7140    0.1510 H   0  0  0  0  0  0  0  0  0  0  0  0
   -0.4000    1.7350    1.4550 H   0  0  0  0  0  0  0  0  0  0  0  0
    0.7410   -1.0240    0.7660 H   0  0  0  0  0  0  0  0  0  0  0  0
   -1.2580   -0.3020   -0.8880 N   0  0  0  0  0  0  0  0  0  0  0  0
   -2.0740   -0.4960   -2.0300 C   0  0  1  0  0  0  0  0  0  0  0  0
   -1.5080   -1.3510   -3.1060 C   0  0  0  0  0  0  0  0  0  0  0  0
   -1.1860   -2.7320   -2.6950 C   0  0  0  0  0  0  0  0  0  0  0  0
    0.0190   -3.1780   -2.1770 C   0  0  0  0  0  0  0  0  0  0  0  0
   -0.0530   -4.4940   -1.9150 N   0  0  0  0  0  0  0  0  0  0  0  0
   -1.2920   -4.8650   -2.2670 C   0  0  0  0  0  0  0  0  0  0  0  0
   -1.9790   -3.8130   -2.7360 N   0  0  0  0  0  0  0  0  0  0  0  0
   -3.3810   -1.0480   -1.6050 C   0  0  0  0  0  0  0  0  0  0  0  0
   -4.3010   -1.3360   -2.4140 O   0  0  0  0  0  0  0  0  0  0  0  0
   -3.6560   -1.2780   -0.2650 O   0  0  0  0  0  0  0  0  0  0  0  0
   -1.0180   -1.1740   -0.3270 H   0  0  0  0  0  0  0  0  0  0  0  0
   -2.2560    0.5080   -2.4850 H   0  0  0  0  0  0  0  0  0  0  0  0
   -0.6270   -0.8940   -3.6190 H   0  0  0  0  0  0  0  0  0  0  0  0
   -2.2850   -1.4300   -3.9060 H   0  0  0  0  0  0  0  0  0  0  0  0
    0.9130   -2.5740   -1.9970 H   0  0  0  0  0  0  0  0  0  0  0  0
    0.6760   -5.1400   -1.5190 H   0  0  0  0  0  0  0  0  0  0  0  0
   -1.6610   -5.8840   -2.1730 H   0  0  0  0  0  0  0  0  0  0  0  0
  1  9  1  0  0  0  0
  1  2  1  0  0  0  0
  2 11  1  1  0  0  0
  2  3  1  0  0  0  0
  3 13  1  0  0  0  0
  3  4  1  0  0  0  0
  4  5  2  0  0  0  0
  4  8  1  0  0  0  0
  6  2  1  0  0  0  0
  6  7  2  0  0  0  0
  8 14  1  0  0  0  0
 10  1  1  0  0  0  0
 12  3  1  0  0  0  0
 15 24  1  0  0  0  0
 15 16  1  0  0  0  0
 15 23  1  0  0  0  0
 16 26  1  0  0  0  0
 16 27  1  0  0  0  0
 17 28  1  6  0  0  0
 17 19  1  0  0  0  0
 17 16  1  0  0  0  0
 18 31  1  0  0  0  0
 18 29  1  0  0  0  0
 18 17  1  0  0  0  0
 19 20  1  0  0  0  0
 19 32  1  1  0  0  0
 20  6  1  0  0  0  0
 21 19  1  0  0  0  0
 22 21  2  0  0  0  0
 25 15  1  0  0  0  0
 30 18  1  0  0  0  0
 33 20  1  0  0  0  0
 34 21  1  0  0  0  0
 34 45  1  0  0  0  0
 35 46  1  6  0  0  0
 35 42  1  0  0  0  0
 35 34  1  0  0  0  0
 36 37  1  0  0  0  0
 36 35  1  0  0  0  0
 37 38  2  0  0  0  0
 38 49  1  0  0  0  0
 38 39  1  0  0  0  0
 39 50  1  0  0  0  0
 40 51  1  0  0  0  0
 40 39  1  0  0  0  0
 41 37  1  0  0  0  0
 41 40  2  0  0  0  0
 42 44  1  0  0  0  0
 43 42  2  0  0  0  0
 47 36  1  0  0  0  0
 48 36  1  0  0  0  0
M  END
$$$$
