DIM.pdb
 OpenBabel07022418143D

 51 50  0  0  1  0  0  0  0  0999 V2000
    0.6290   -2.0810    3.0030 N   0  0  0  0  0  0  0  0  0  0  0  0
    0.7110   -0.7240    3.4430 C   0  0  1  0  0  0  0  0  0  0  0  0
    1.7660   -0.6010    4.5100 C   0  0  0  0  0  0  0  0  0  0  0  0
    1.4430   -1.4600    5.6810 C   0  0  0  0  0  0  0  0  0  0  0  0
    2.2000   -1.4950    6.6630 O   0  0  0  0  0  0  0  0  0  0  0  0
    0.8580    0.2610    2.3670 C   0  0  0  0  0  0  0  0  0  0  0  0
    0.9360    1.4760    2.6930 O   0  0  0  0  0  0  0  0  0  0  0  0
    0.2880   -2.2410    5.7030 O   0  0  0  0  0  0  0  0  0  0  0  0
   -0.3110   -2.3100    2.5730 H   0  0  0  0  0  0  0  0  0  0  0  0
    1.4220   -2.3790    2.4210 H   0  0  0  0  0  0  0  0  0  0  0  0
   -0.2680   -0.4870    3.9570 H   0  0  0  0  0  0  0  0  0  0  0  0
    1.9220    0.4300    4.8630 H   0  0  0  0  0  0  0  0  0  0  0  0
    2.7640   -0.9460    4.1310 H   0  0  0  0  0  0  0  0  0  0  0  0
    0.1110   -2.9530    6.4000 H   0  0  0  0  0  0  0  0  0  0  0  0
    3.2790   -0.7510   -2.6840 C   0  0  0  0  0  0  0  0  0  0  0  0
    2.1410   -0.6750   -1.6750 C   0  0  0  0  0  0  0  0  0  0  0  0
    2.2240    0.6710   -0.9800 C   0  0  2  0  0  0  0  0  0  0  0  0
    3.5550    0.8110   -0.2690 C   0  0  0  0  0  0  0  0  0  0  0  0
    1.0610    0.9190   -0.0730 C   0  0  2  0  0  0  0  0  0  0  0  0
    0.9190   -0.0480    0.9870 N   0  0  0  0  0  0  0  0  0  0  0  0
   -0.1860    0.8550   -0.8980 C   0  0  0  0  0  0  0  0  0  0  0  0
   -0.3660    1.5780   -1.9130 O   0  0  0  0  0  0  0  0  0  0  0  0
    2.9080   -0.4310   -3.6730 H   0  0  0  0  0  0  0  0  0  0  0  0
    3.7120   -1.7750   -2.7420 H   0  0  0  0  0  0  0  0  0  0  0  0
    4.0690    0.0000   -2.3940 H   0  0  0  0  0  0  0  0  0  0  0  0
    1.1770   -0.8350   -2.1620 H   0  0  0  0  0  0  0  0  0  0  0  0
    2.2830   -1.4560   -0.9110 H   0  0  0  0  0  0  0  0  0  0  0  0
    2.1860    1.4430   -1.7810 H   0  0  0  0  0  0  0  0  0  0  0  0
    4.0390   -0.1920   -0.2530 H   0  0  0  0  0  0  0  0  0  0  0  0
    3.3830    1.0830    0.7960 H   0  0  0  0  0  0  0  0  0  0  0  0
    4.2480    1.4960   -0.7670 H   0  0  0  0  0  0  0  0  0  0  0  0
    1.1280    1.9590    0.3050 H   0  0  0  0  0  0  0  0  0  0  0  0
    0.8560   -1.0500    0.7220 H   0  0  0  0  0  0  0  0  0  0  0  0
   -3.7300   -2.0030    1.6550 C   0  0  0  0  0  0  0  0  0  0  0  0
   -3.7600   -2.9830    0.1740 S   0  0  0  0  0  0  0  0  0  0  0  0
   -2.5460   -2.6930   -1.0590 C   0  0  0  0  0  0  0  0  0  0  0  0
   -2.5830   -1.5020   -1.9160 C   0  0  0  0  0  0  0  0  0  0  0  0
   -2.4700   -0.1680   -1.2980 C   0  0  2  0  0  0  0  0  0  0  0  0
   -1.2340   -0.0420   -0.5580 N   0  0  0  0  0  0  0  0  0  0  0  0
   -3.5870    0.3250   -0.4900 C   0  0  0  0  0  0  0  0  0  0  0  0
   -3.4010    0.9450    0.6150 O   0  0  0  0  0  0  0  0  0  0  0  0
   -4.9110    0.1520   -0.8640 O   0  0  0  0  0  0  0  0  0  0  0  0
   -2.7920   -1.4080    1.7790 H   0  0  0  0  0  0  0  0  0  0  0  0
   -4.5740   -1.2840    1.6620 H   0  0  0  0  0  0  0  0  0  0  0  0
   -3.8930   -2.6140    2.5860 H   0  0  0  0  0  0  0  0  0  0  0  0
   -2.5660   -3.6060   -1.7680 H   0  0  0  0  0  0  0  0  0  0  0  0
   -1.4770   -2.8040   -0.6550 H   0  0  0  0  0  0  0  0  0  0  0  0
   -3.4570   -1.5430   -2.6500 H   0  0  0  0  0  0  0  0  0  0  0  0
   -1.6730   -1.5930   -2.6130 H   0  0  0  0  0  0  0  0  0  0  0  0
   -2.3570    0.5990   -2.1970 H   0  0  0  0  0  0  0  0  0  0  0  0
   -1.1010   -0.6440    0.2760 H   0  0  0  0  0  0  0  0  0  0  0  0
  1  2  1  0  0  0  0
  2 11  1  1  0  0  0
  2  3  1  0  0  0  0
  3 12  1  0  0  0  0
  3  4  1  0  0  0  0
  4  8  1  0  0  0  0
  4  5  2  0  0  0  0
  6  7  2  0  0  0  0
  6  2  1  0  0  0  0
  8 14  1  0  0  0  0
  9  1  1  0  0  0  0
 10  1  1  0  0  0  0
 13  3  1  0  0  0  0
 15 25  1  0  0  0  0
 15 16  1  0  0  0  0
 16 17  1  0  0  0  0
 16 27  1  0  0  0  0
 17 28  1  6  0  0  0
 17 18  1  0  0  0  0
 17 19  1  0  0  0  0
 18 29  1  0  0  0  0
 18 30  1  0  0  0  0
 19 32  1  1  0  0  0
 19 20  1  0  0  0  0
 20  6  1  0  0  0  0
 21 39  1  0  0  0  0
 21 19  1  0  0  0  0
 22 21  2  0  0  0  0
 23 15  1  0  0  0  0
 24 15  1  0  0  0  0
 26 16  1  0  0  0  0
 31 18  1  0  0  0  0
 33 20  1  0  0  0  0
 34 44  1  0  0  0  0
 34 43  1  0  0  0  0
 34 45  1  0  0  0  0
 35 34  1  0  0  0  0
 36 47  1  0  0  0  0
 36 35  1  0  0  0  0
 37 38  1  0  0  0  0
 37 36  1  0  0  0  0
 38 50  1  6  0  0  0
 38 39  1  0  0  0  0
 38 40  1  0  0  0  0
 39 51  1  0  0  0  0
 40 41  1  0  0  0  0
 42 40  2  0  0  0  0
 46 36  1  0  0  0  0
 48 37  1  0  0  0  0
 49 37  1  0  0  0  0
M  END
$$$$
