DIN.pdb
 OpenBabel07022418143D

 48 47  0  0  1  0  0  0  0  0999 V2000
    1.7960   -3.5540    3.5160 N   0  0  0  0  0  0  0  0  0  0  0  0
    1.8190   -2.1140    3.4030 C   0  0  1  0  0  0  0  0  0  0  0  0
    3.2510   -1.6320    3.4630 C   0  0  0  0  0  0  0  0  0  0  0  0
    3.8600   -2.0360    4.7500 C   0  0  0  0  0  0  0  0  0  0  0  0
    5.0540   -1.7280    4.9940 O   0  0  0  0  0  0  0  0  0  0  0  0
    1.1600   -1.6800    2.1350 C   0  0  0  0  0  0  0  0  0  0  0  0
    0.7020   -2.5810    1.3820 O   0  0  0  0  0  0  0  0  0  0  0  0
    3.1640   -2.7510    5.7210 O   0  0  0  0  0  0  0  0  0  0  0  0
    0.9140   -3.9160    3.9330 H   0  0  0  0  0  0  0  0  0  0  0  0
    2.0620   -4.0430    2.6350 H   0  0  0  0  0  0  0  0  0  0  0  0
    1.3000   -1.7070    4.2980 H   0  0  0  0  0  0  0  0  0  0  0  0
    3.2240   -0.5210    3.3690 H   0  0  0  0  0  0  0  0  0  0  0  0
    3.8110   -2.0780    2.6110 H   0  0  0  0  0  0  0  0  0  0  0  0
    3.6380   -3.3040    6.4420 H   0  0  0  0  0  0  0  0  0  0  0  0
    3.3000   -0.7280   -1.8340 C   0  0  0  0  0  0  0  0  0  0  0  0
    2.5660   -0.1530   -0.6440 C   0  0  0  0  0  0  0  0  0  0  0  0
    1.1070   -0.6060   -0.6690 C   0  0  2  0  0  0  0  0  0  0  0  0
    0.5630   -0.0690   -1.9750 C   0  0  0  0  0  0  0  0  0  0  0  0
    0.3700    0.0450    0.4790 C   0  0  2  0  0  0  0  0  0  0  0  0
    1.0280   -0.3440    1.7450 N   0  0  0  0  0  0  0  0  0  0  0  0
   -1.0460   -0.3260    0.5540 C   0  0  0  0  0  0  0  0  0  0  0  0
   -1.4280   -1.0370    1.5170 O   0  0  0  0  0  0  0  0  0  0  0  0
    4.3650   -0.9670   -1.5630 H   0  0  0  0  0  0  0  0  0  0  0  0
    2.8340   -1.6260   -2.2480 H   0  0  0  0  0  0  0  0  0  0  0  0
    3.3860    0.0180   -2.6640 H   0  0  0  0  0  0  0  0  0  0  0  0
    3.0120   -0.4360    0.3210 H   0  0  0  0  0  0  0  0  0  0  0  0
    2.5520    0.9530   -0.7440 H   0  0  0  0  0  0  0  0  0  0  0  0
    1.0880   -1.6820   -0.7060 H   0  0  0  0  0  0  0  0  0  0  0  0
   -0.2900   -0.6540   -2.3690 H   0  0  0  0  0  0  0  0  0  0  0  0
    0.3680    1.0040   -1.9730 H   0  0  0  0  0  0  0  0  0  0  0  0
    1.3610   -0.2020   -2.7730 H   0  0  0  0  0  0  0  0  0  0  0  0
    0.4550    1.1340    0.3480 H   0  0  0  0  0  0  0  0  0  0  0  0
    1.4000    0.4040    2.3580 H   0  0  0  0  0  0  0  0  0  0  0  0
   -4.5680    3.1650    0.6520 N   0  0  0  0  0  0  0  0  0  0  0  0
   -3.9260    1.9040    0.5790 C   0  0  0  0  0  0  0  0  0  0  0  0
   -3.0320    1.5920    1.4340 O   0  0  0  0  0  0  0  0  0  0  0  0
   -4.2460    0.9040   -0.4640 C   0  0  0  0  0  0  0  0  0  0  0  0
   -3.4150   -0.3170   -0.2850 C   0  0  2  0  0  0  0  0  0  0  0  0
   -2.0030    0.0750   -0.3920 N   0  0  0  0  0  0  0  0  0  0  0  0
   -3.6870   -1.3090   -1.3890 C   0  0  0  0  0  0  0  0  0  0  0  0
   -2.8270   -1.6820   -2.2030 O   0  0  0  0  0  0  0  0  0  0  0  0
   -4.9660   -1.8390   -1.5090 O   0  0  0  0  0  0  0  0  0  0  0  0
   -5.1050    3.4050    1.4990 H   0  0  0  0  0  0  0  0  0  0  0  0
   -4.5020    3.8370   -0.1260 H   0  0  0  0  0  0  0  0  0  0  0  0
   -5.3400    0.6800   -0.4850 H   0  0  0  0  0  0  0  0  0  0  0  0
   -3.9930    1.3700   -1.4390 H   0  0  0  0  0  0  0  0  0  0  0  0
   -3.6250   -0.8800    0.6410 H   0  0  0  0  0  0  0  0  0  0  0  0
   -1.7900    0.6780   -1.2070 H   0  0  0  0  0  0  0  0  0  0  0  0
  1  9  1  0  0  0  0
  2  3  1  0  0  0  0
  2  1  1  0  0  0  0
  2 11  1  1  0  0  0
  3  4  1  0  0  0  0
  4  5  2  0  0  0  0
  4  8  1  0  0  0  0
  6  2  1  0  0  0  0
  7  6  2  0  0  0  0
  8 14  1  0  0  0  0
 10  1  1  0  0  0  0
 12  3  1  0  0  0  0
 13  3  1  0  0  0  0
 15 23  1  0  0  0  0
 15 16  1  0  0  0  0
 16 26  1  0  0  0  0
 17 28  1  1  0  0  0
 17 16  1  0  0  0  0
 17 19  1  0  0  0  0
 18 30  1  0  0  0  0
 18 17  1  0  0  0  0
 19 32  1  6  0  0  0
 19 21  1  0  0  0  0
 19 20  1  0  0  0  0
 20  6  1  0  0  0  0
 20 33  1  0  0  0  0
 21 22  2  0  0  0  0
 24 15  1  0  0  0  0
 25 15  1  0  0  0  0
 27 16  1  0  0  0  0
 29 18  1  0  0  0  0
 31 18  1  0  0  0  0
 34 43  1  0  0  0  0
 35 34  1  0  0  0  0
 35 36  2  0  0  0  0
 37 38  1  0  0  0  0
 37 35  1  0  0  0  0
 38 47  1  1  0  0  0
 39 38  1  0  0  0  0
 39 21  1  0  0  0  0
 40 38  1  0  0  0  0
 41 40  2  0  0  0  0
 42 40  1  0  0  0  0
 44 34  1  0  0  0  0
 45 37  1  0  0  0  0
 46 37  1  0  0  0  0
 48 39  1  0  0  0  0
M  END
$$$$
