DIP.pdb
 OpenBabel07022418143D

 48 48  0  0  1  0  0  0  0  0999 V2000
    3.2720   -2.4650    2.5100 N   0  0  0  0  0  0  0  0  0  0  0  0
    2.1770   -2.4390    3.5000 C   0  0  1  0  0  0  0  0  0  0  0  0
    2.7250   -1.7630    4.7020 C   0  0  0  0  0  0  0  0  0  0  0  0
    1.8230   -1.6240    5.8440 C   0  0  0  0  0  0  0  0  0  0  0  0
    2.2290   -0.9670    6.8660 O   0  0  0  0  0  0  0  0  0  0  0  0
    1.0510   -1.7280    2.8420 C   0  0  0  0  0  0  0  0  0  0  0  0
   -0.0170   -1.6010    3.4740 O   0  0  0  0  0  0  0  0  0  0  0  0
    0.5410   -2.1400    5.9440 O   0  0  0  0  0  0  0  0  0  0  0  0
    4.0860   -2.8910    3.0100 H   0  0  0  0  0  0  0  0  0  0  0  0
    3.0150   -3.1680    1.7540 H   0  0  0  0  0  0  0  0  0  0  0  0
    1.8870   -3.4890    3.6750 H   0  0  0  0  0  0  0  0  0  0  0  0
    3.2010   -0.8050    4.4030 H   0  0  0  0  0  0  0  0  0  0  0  0
    3.5890   -2.4000    5.0540 H   0  0  0  0  0  0  0  0  0  0  0  0
   -0.0950   -1.8020    6.6580 H   0  0  0  0  0  0  0  0  0  0  0  0
    1.3970    0.9010   -1.4460 C   0  0  0  0  0  0  0  0  0  0  0  0
    1.5520    1.3060   -0.0080 C   0  0  0  0  0  0  0  0  0  0  0  0
    0.3440    0.9480    0.7690 C   0  0  2  0  0  0  0  0  0  0  0  0
    0.6250    1.4400    2.2190 C   0  0  0  0  0  0  0  0  0  0  0  0
   -0.0080   -0.4820    0.8990 C   0  0  2  0  0  0  0  0  0  0  0  0
    1.1090   -1.1870    1.5520 N   0  0  0  0  0  0  0  0  0  0  0  0
   -0.5170   -1.2090   -0.2430 C   0  0  0  0  0  0  0  0  0  0  0  0
    0.0280   -2.3110   -0.6340 O   0  0  0  0  0  0  0  0  0  0  0  0
    1.2640   -0.1540   -1.6400 H   0  0  0  0  0  0  0  0  0  0  0  0
    0.5830    1.4960   -1.9520 H   0  0  0  0  0  0  0  0  0  0  0  0
    2.3120    1.1990   -2.0510 H   0  0  0  0  0  0  0  0  0  0  0  0
    1.6550    2.4330   -0.0280 H   0  0  0  0  0  0  0  0  0  0  0  0
    2.5040    0.9620    0.4350 H   0  0  0  0  0  0  0  0  0  0  0  0
   -0.5320    1.5350    0.4590 H   0  0  0  0  0  0  0  0  0  0  0  0
   -0.1460    1.0840    2.8980 H   0  0  0  0  0  0  0  0  0  0  0  0
    0.5720    2.5500    2.1720 H   0  0  0  0  0  0  0  0  0  0  0  0
    1.6560    1.1430    2.4690 H   0  0  0  0  0  0  0  0  0  0  0  0
   -0.8280   -0.5200    1.6870 H   0  0  0  0  0  0  0  0  0  0  0  0
    1.9840   -1.2760    1.0020 H   0  0  0  0  0  0  0  0  0  0  0  0
   -1.6410   -0.8100   -1.0430 N   0  0  0  0  0  0  0  0  0  0  0  0
   -2.4800    0.3540   -0.8620 C   0  0  0  0  0  0  0  0  0  0  0  0
   -3.8310   -0.0380   -1.4120 C   0  0  0  0  0  0  0  0  0  0  0  0
   -3.6890   -1.3680   -2.0810 C   0  0  0  0  0  0  0  0  0  0  0  0
   -2.1720   -1.4950   -2.2070 C   0  0  1  0  0  0  0  0  0  0  0  0
   -1.7850   -0.9280   -3.4920 C   0  0  0  0  0  0  0  0  0  0  0  0
   -1.0480    0.0720   -3.6100 O   0  0  0  0  0  0  0  0  0  0  0  0
   -2.2580   -1.5260   -4.6430 O   0  0  0  0  0  0  0  0  0  0  0  0
   -2.6260    0.5300    0.2450 H   0  0  0  0  0  0  0  0  0  0  0  0
   -2.0840    1.2680   -1.3360 H   0  0  0  0  0  0  0  0  0  0  0  0
   -4.1200    0.7250   -2.1890 H   0  0  0  0  0  0  0  0  0  0  0  0
   -4.6170   -0.0340   -0.6460 H   0  0  0  0  0  0  0  0  0  0  0  0
   -4.0700   -2.2220   -1.5040 H   0  0  0  0  0  0  0  0  0  0  0  0
   -4.1590   -1.3510   -3.0960 H   0  0  0  0  0  0  0  0  0  0  0  0
   -1.9190   -2.5670   -2.0990 H   0  0  0  0  0  0  0  0  0  0  0  0
  1  9  1  0  0  0  0
  1  2  1  0  0  0  0
  2 11  1  1  0  0  0
  2  3  1  0  0  0  0
  3 13  1  0  0  0  0
  3  4  1  0  0  0  0
  4  8  1  0  0  0  0
  4  5  2  0  0  0  0
  6  7  2  0  0  0  0
  6  2  1  0  0  0  0
  8 14  1  0  0  0  0
 10  1  1  0  0  0  0
 12  3  1  0  0  0  0
 15 16  1  0  0  0  0
 16 27  1  0  0  0  0
 16 17  1  0  0  0  0
 17 28  1  6  0  0  0
 17 19  1  0  0  0  0
 17 18  1  0  0  0  0
 18 31  1  0  0  0  0
 18 29  1  0  0  0  0
 19 20  1  0  0  0  0
 19 32  1  1  0  0  0
 20  6  1  0  0  0  0
 21 19  1  0  0  0  0
 22 21  2  0  0  0  0
 23 15  1  0  0  0  0
 24 15  1  0  0  0  0
 25 15  1  0  0  0  0
 26 16  1  0  0  0  0
 30 18  1  0  0  0  0
 33 20  1  0  0  0  0
 34 35  1  0  0  0  0
 34 21  1  0  0  0  0
 35 42  1  0  0  0  0
 36 35  1  0  0  0  0
 36 45  1  0  0  0  0
 37 46  1  0  0  0  0
 37 36  1  0  0  0  0
 38 48  1  1  0  0  0
 38 37  1  0  0  0  0
 38 34  1  0  0  0  0
 39 38  1  0  0  0  0
 40 39  1  0  0  0  0
 41 39  2  0  0  0  0
 43 35  1  0  0  0  0
 44 36  1  0  0  0  0
 47 37  1  0  0  0  0
M  END
$$$$
