DIR.pdb
 OpenBabel07022418143D

 57 56  0  0  1  0  0  0  0  0999 V2000
   -0.9960   -2.5890    3.7060 N   0  0  0  0  0  0  0  0  0  0  0  0
   -1.0440   -1.1600    3.3400 C   0  0  1  0  0  0  0  0  0  0  0  0
   -0.8470   -0.3250    4.5550 C   0  0  0  0  0  0  0  0  0  0  0  0
   -0.8960    1.1050    4.2670 C   0  0  0  0  0  0  0  0  0  0  0  0
    0.1010    1.8650    4.2050 O   0  0  0  0  0  0  0  0  0  0  0  0
   -0.0200   -0.8750    2.3130 C   0  0  0  0  0  0  0  0  0  0  0  0
    0.8360   -1.8010    2.0990 O   0  0  0  0  0  0  0  0  0  0  0  0
   -2.1480    1.6810    4.0410 O   0  0  0  0  0  0  0  0  0  0  0  0
   -1.0070   -2.6680    4.7440 H   0  0  0  0  0  0  0  0  0  0  0  0
   -0.1450   -2.9950    3.2810 H   0  0  0  0  0  0  0  0  0  0  0  0
   -2.0630   -0.9730    2.9310 H   0  0  0  0  0  0  0  0  0  0  0  0
   -1.6440   -0.5950    5.3020 H   0  0  0  0  0  0  0  0  0  0  0  0
    0.1640   -0.6010    4.9880 H   0  0  0  0  0  0  0  0  0  0  0  0
   -2.3140    2.6530    3.9430 H   0  0  0  0  0  0  0  0  0  0  0  0
    4.2520    0.1290   -0.2950 C   0  0  0  0  0  0  0  0  0  0  0  0
    3.4520    1.2950    0.1630 C   0  0  0  0  0  0  0  0  0  0  0  0
    2.3390    1.0000    1.1270 C   0  0  2  0  0  0  0  0  0  0  0  0
    2.8350    0.3190    2.3700 C   0  0  0  0  0  0  0  0  0  0  0  0
    1.0400    0.6140    0.5740 C   0  0  2  0  0  0  0  0  0  0  0  0
    0.0240    0.3390    1.5940 N   0  0  0  0  0  0  0  0  0  0  0  0
    0.9470   -0.3180   -0.5350 C   0  0  0  0  0  0  0  0  0  0  0  0
    1.7870   -0.3100   -1.4560 O   0  0  0  0  0  0  0  0  0  0  0  0
    5.3250    0.2000    0.1110 H   0  0  0  0  0  0  0  0  0  0  0  0
    4.4230    0.0850   -1.3880 H   0  0  0  0  0  0  0  0  0  0  0  0
    3.9210   -0.8600    0.0420 H   0  0  0  0  0  0  0  0  0  0  0  0
    3.0060    1.8210   -0.7340 H   0  0  0  0  0  0  0  0  0  0  0  0
    4.1590    2.0670    0.5780 H   0  0  0  0  0  0  0  0  0  0  0  0
    2.1260    2.0880    1.5510 H   0  0  0  0  0  0  0  0  0  0  0  0
    3.2820   -0.6800    2.2000 H   0  0  0  0  0  0  0  0  0  0  0  0
    3.6410    1.0150    2.7770 H   0  0  0  0  0  0  0  0  0  0  0  0
    2.0650    0.3450    3.1530 H   0  0  0  0  0  0  0  0  0  0  0  0
    0.6440    1.6080    0.0670 H   0  0  0  0  0  0  0  0  0  0  0  0
   -0.7110    1.0500    1.8040 H   0  0  0  0  0  0  0  0  0  0  0  0
   -3.6810   -2.3150    0.5420 N   0  0  0  0  0  0  0  0  0  0  0  0
   -3.5800   -1.5550   -0.6740 C   0  0  0  0  0  0  0  0  0  0  0  0
   -3.7870   -0.2950   -0.5760 N   0  0  0  0  0  0  0  0  0  0  0  0
   -3.2740   -2.1780   -1.8900 N   0  0  0  0  0  0  0  0  0  0  0  0
   -2.9700   -1.4750   -3.0930 C   0  0  0  0  0  0  0  0  0  0  0  0
   -1.6810   -0.7260   -3.1550 C   0  0  0  0  0  0  0  0  0  0  0  0
   -0.4480   -1.5240   -3.0050 C   0  0  0  0  0  0  0  0  0  0  0  0
   -0.2030   -2.2110   -1.7110 C   0  0  2  0  0  0  0  0  0  0  0  0
   -0.1040   -1.2610   -0.6050 N   0  0  0  0  0  0  0  0  0  0  0  0
    1.0720   -2.9830   -1.8210 C   0  0  0  0  0  0  0  0  0  0  0  0
    1.1890   -3.8190   -2.7480 O   0  0  0  0  0  0  0  0  0  0  0  0
    2.1250   -2.8170   -0.9470 O   0  0  0  0  0  0  0  0  0  0  0  0
   -2.9320   -2.4070    1.2370 H   0  0  0  0  0  0  0  0  0  0  0  0
   -4.5940   -2.7950    0.7000 H   0  0  0  0  0  0  0  0  0  0  0  0
   -3.7580    0.3990   -1.3250 H   0  0  0  0  0  0  0  0  0  0  0  0
   -3.2820   -3.2360   -1.9030 H   0  0  0  0  0  0  0  0  0  0  0  0
   -3.0270   -2.1710   -3.9930 H   0  0  0  0  0  0  0  0  0  0  0  0
   -3.8230   -0.7470   -3.3250 H   0  0  0  0  0  0  0  0  0  0  0  0
   -1.6090   -0.1800   -4.1330 H   0  0  0  0  0  0  0  0  0  0  0  0
   -1.6600    0.1150   -2.4050 H   0  0  0  0  0  0  0  0  0  0  0  0
   -0.4130   -2.3150   -3.8260 H   0  0  0  0  0  0  0  0  0  0  0  0
    0.4200   -0.8360   -3.2140 H   0  0  0  0  0  0  0  0  0  0  0  0
   -0.9890   -2.9850   -1.5050 H   0  0  0  0  0  0  0  0  0  0  0  0
   -0.8640   -1.3330    0.1030 H   0  0  0  0  0  0  0  0  0  0  0  0
  1  9  1  0  0  0  0
  2 11  1  6  0  0  0
  2  1  1  0  0  0  0
  2  3  1  0  0  0  0
  3 13  1  0  0  0  0
  3 12  1  0  0  0  0
  4  3  1  0  0  0  0
  5  4  2  0  0  0  0
  6  2  1  0  0  0  0
  7  6  2  0  0  0  0
  8  4  1  0  0  0  0
 10  1  1  0  0  0  0
 14  8  1  0  0  0  0
 15 25  1  0  0  0  0
 15 23  1  0  0  0  0
 15 16  1  0  0  0  0
 16 27  1  0  0  0  0
 16 17  1  0  0  0  0
 17 28  1  1  0  0  0
 17 18  1  0  0  0  0
 18 30  1  0  0  0  0
 18 31  1  0  0  0  0
 19 32  1  6  0  0  0
 19 17  1  0  0  0  0
 19 20  1  0  0  0  0
 20 33  1  0  0  0  0
 20  6  1  0  0  0  0
 21 19  1  0  0  0  0
 22 21  2  0  0  0  0
 24 15  1  0  0  0  0
 26 16  1  0  0  0  0
 29 18  1  0  0  0  0
 34 47  1  0  0  0  0
 34 46  1  0  0  0  0
 35 36  2  0  0  0  0
 35 34  1  0  0  0  0
 37 35  1  0  0  0  0
 38 37  1  0  0  0  0
 39 38  1  0  0  0  0
 39 40  1  0  0  0  0
 39 53  1  0  0  0  0
 40 41  1  0  0  0  0
 41 56  1  1  0  0  0
 41 42  1  0  0  0  0
 42 21  1  0  0  0  0
 42 57  1  0  0  0  0
 43 41  1  0  0  0  0
 43 45  1  0  0  0  0
 44 43  2  0  0  0  0
 48 36  1  0  0  0  0
 49 37  1  0  0  0  0
 50 38  1  0  0  0  0
 51 38  1  0  0  0  0
 52 39  1  0  0  0  0
 54 40  1  0  0  0  0
 55 40  1  0  0  0  0
M  END
$$$$
