DIV.pdb
 OpenBabel07022418143D

 50 49  0  0  1  0  0  0  0  0999 V2000
    4.1080   -2.5530    3.1030 N   0  0  0  0  0  0  0  0  0  0  0  0
    2.6830   -2.2690    2.8460 C   0  0  1  0  0  0  0  0  0  0  0  0
    2.1390   -1.8710    4.2180 C   0  0  0  0  0  0  0  0  0  0  0  0
    0.7160   -1.5290    4.2010 C   0  0  0  0  0  0  0  0  0  0  0  0
    0.3700   -0.4510    3.6840 O   0  0  0  0  0  0  0  0  0  0  0  0
    2.5930   -1.1720    1.8620 C   0  0  0  0  0  0  0  0  0  0  0  0
    3.5550   -0.3480    1.7410 O   0  0  0  0  0  0  0  0  0  0  0  0
   -0.2410   -2.3630    4.7410 O   0  0  0  0  0  0  0  0  0  0  0  0
    4.1070   -3.3400    3.7950 H   0  0  0  0  0  0  0  0  0  0  0  0
    4.5380   -2.9370    2.2140 H   0  0  0  0  0  0  0  0  0  0  0  0
    2.1950   -3.1970    2.5410 H   0  0  0  0  0  0  0  0  0  0  0  0
    2.7570   -1.0420    4.6340 H   0  0  0  0  0  0  0  0  0  0  0  0
    2.3080   -2.7600    4.8650 H   0  0  0  0  0  0  0  0  0  0  0  0
   -1.0640   -1.9640    5.1780 H   0  0  0  0  0  0  0  0  0  0  0  0
    2.4540    0.2370   -3.5700 C   0  0  0  0  0  0  0  0  0  0  0  0
    1.7300    0.5940   -2.2790 C   0  0  0  0  0  0  0  0  0  0  0  0
    1.8090   -0.4920   -1.2700 C   0  0  2  0  0  0  0  0  0  0  0  0
    1.2120   -1.7970   -1.6560 C   0  0  0  0  0  0  0  0  0  0  0  0
    1.3390    0.0140    0.0930 C   0  0  2  0  0  0  0  0  0  0  0  0
    1.4250   -1.0610    1.0580 N   0  0  0  0  0  0  0  0  0  0  0  0
    0.0400    0.6360    0.0850 C   0  0  0  0  0  0  0  0  0  0  0  0
   -0.1190    1.7050   -0.6110 O   0  0  0  0  0  0  0  0  0  0  0  0
    1.8480   -0.3650   -4.2480 H   0  0  0  0  0  0  0  0  0  0  0  0
    2.6230    1.2260   -4.0840 H   0  0  0  0  0  0  0  0  0  0  0  0
    3.4350   -0.1480   -3.3010 H   0  0  0  0  0  0  0  0  0  0  0  0
    0.6660    0.8590   -2.5450 H   0  0  0  0  0  0  0  0  0  0  0  0
    2.1910    1.5160   -1.8930 H   0  0  0  0  0  0  0  0  0  0  0  0
    2.9140   -0.7140   -1.0850 H   0  0  0  0  0  0  0  0  0  0  0  0
    0.9080   -2.3720   -0.7470 H   0  0  0  0  0  0  0  0  0  0  0  0
    1.9660   -2.4810   -2.1520 H   0  0  0  0  0  0  0  0  0  0  0  0
    0.3780   -1.7250   -2.3900 H   0  0  0  0  0  0  0  0  0  0  0  0
    2.1240    0.7880    0.3550 H   0  0  0  0  0  0  0  0  0  0  0  0
    0.6720   -1.7550    1.1780 H   0  0  0  0  0  0  0  0  0  0  0  0
   -3.4330   -1.4110    0.2720 C   0  0  0  0  0  0  0  0  0  0  0  0
   -3.2440   -0.0010   -0.2060 C   0  0  0  0  0  0  0  0  0  0  0  0
   -4.5460    0.6850   -0.5260 C   0  0  0  0  0  0  0  0  0  0  0  0
   -2.3720    0.8320    0.7350 C   0  0  2  0  0  0  0  0  0  0  0  0
   -1.0830    0.1540    0.7900 N   0  0  0  0  0  0  0  0  0  0  0  0
   -2.9880    1.0570    2.0370 C   0  0  0  0  0  0  0  0  0  0  0  0
   -4.1000    1.6310    2.0910 O   0  0  0  0  0  0  0  0  0  0  0  0
   -2.4430    0.6820    3.2600 O   0  0  0  0  0  0  0  0  0  0  0  0
   -2.7770   -2.1140   -0.3020 H   0  0  0  0  0  0  0  0  0  0  0  0
   -3.1630   -1.5500    1.3330 H   0  0  0  0  0  0  0  0  0  0  0  0
   -4.4820   -1.7620    0.1740 H   0  0  0  0  0  0  0  0  0  0  0  0
   -2.6640   -0.0420   -1.1600 H   0  0  0  0  0  0  0  0  0  0  0  0
   -5.3800    0.1260   -0.0060 H   0  0  0  0  0  0  0  0  0  0  0  0
   -4.5020    1.7370   -0.2190 H   0  0  0  0  0  0  0  0  0  0  0  0
   -4.7710    0.6840   -1.6200 H   0  0  0  0  0  0  0  0  0  0  0  0
   -2.2040    1.7830    0.1780 H   0  0  0  0  0  0  0  0  0  0  0  0
   -1.0010   -0.7020    1.3550 H   0  0  0  0  0  0  0  0  0  0  0  0
  1  9  1  0  0  0  0
  2 11  1  6  0  0  0
  2  1  1  0  0  0  0
  2  3  1  0  0  0  0
  3 12  1  0  0  0  0
  3 13  1  0  0  0  0
  4  3  1  0  0  0  0
  4  8  1  0  0  0  0
  5  4  2  0  0  0  0
  6  2  1  0  0  0  0
  7  6  2  0  0  0  0
  8 14  1  0  0  0  0
 10  1  1  0  0  0  0
 15 25  1  0  0  0  0
 15 16  1  0  0  0  0
 16 27  1  0  0  0  0
 16 17  1  0  0  0  0
 17 28  1  1  0  0  0
 17 19  1  0  0  0  0
 18 17  1  0  0  0  0
 18 29  1  0  0  0  0
 19 32  1  1  0  0  0
 19 20  1  0  0  0  0
 20 33  1  0  0  0  0
 20  6  1  0  0  0  0
 21 19  1  0  0  0  0
 21 38  1  0  0  0  0
 22 21  2  0  0  0  0
 23 15  1  0  0  0  0
 24 15  1  0  0  0  0
 26 16  1  0  0  0  0
 30 18  1  0  0  0  0
 31 18  1  0  0  0  0
 34 43  1  0  0  0  0
 35 34  1  0  0  0  0
 35 37  1  0  0  0  0
 36 47  1  0  0  0  0
 36 35  1  0  0  0  0
 36 46  1  0  0  0  0
 37 49  1  6  0  0  0
 37 38  1  0  0  0  0
 37 39  1  0  0  0  0
 38 50  1  0  0  0  0
 39 40  2  0  0  0  0
 39 41  1  0  0  0  0
 42 34  1  0  0  0  0
 44 34  1  0  0  0  0
 45 35  1  0  0  0  0
 48 36  1  0  0  0  0
M  END
$$$$
