DIY.pdb
 OpenBabel07022418143D

 55 55  0  0  1  0  0  0  0  0999 V2000
   -0.8090    0.4860    2.9580 N   0  0  0  0  0  0  0  0  0  0  0  0
   -0.9440    1.7560    2.2710 C   0  0  1  0  0  0  0  0  0  0  0  0
   -0.5990    2.9170    3.1580 C   0  0  0  0  0  0  0  0  0  0  0  0
    0.7940    2.8570    3.6590 C   0  0  0  0  0  0  0  0  0  0  0  0
    1.5010    1.8840    3.3040 O   0  0  0  0  0  0  0  0  0  0  0  0
   -0.2020    1.7640    0.9840 C   0  0  0  0  0  0  0  0  0  0  0  0
   -0.2280    2.8180    0.2970 O   0  0  0  0  0  0  0  0  0  0  0  0
    1.3690    3.7980    4.4910 O   0  0  0  0  0  0  0  0  0  0  0  0
   -1.5180    0.5060    3.7380 H   0  0  0  0  0  0  0  0  0  0  0  0
   -1.1490   -0.2550    2.3030 H   0  0  0  0  0  0  0  0  0  0  0  0
   -2.0520    1.8530    2.0610 H   0  0  0  0  0  0  0  0  0  0  0  0
   -1.3290    2.8800    4.0150 H   0  0  0  0  0  0  0  0  0  0  0  0
   -0.7710    3.8900    2.6720 H   0  0  0  0  0  0  0  0  0  0  0  0
    2.3710    3.9790    4.5080 H   0  0  0  0  0  0  0  0  0  0  0  0
    2.9460   -1.0320    1.4040 C   0  0  0  0  0  0  0  0  0  0  0  0
    3.1090   -0.9270   -0.0650 C   0  0  0  0  0  0  0  0  0  0  0  0
    2.7140    0.3950   -0.6700 C   0  0  2  0  0  0  0  0  0  0  0  0
    3.5170    1.5390   -0.1100 C   0  0  0  0  0  0  0  0  0  0  0  0
    1.2490    0.6450   -0.7460 C   0  0  2  0  0  0  0  0  0  0  0  0
    0.5340    0.6540    0.4840 N   0  0  0  0  0  0  0  0  0  0  0  0
    0.6780   -0.3320   -1.7320 C   0  0  0  0  0  0  0  0  0  0  0  0
    1.2030   -0.4540   -2.8680 O   0  0  0  0  0  0  0  0  0  0  0  0
    3.9150   -1.4080    1.8470 H   0  0  0  0  0  0  0  0  0  0  0  0
    2.2010   -1.7930    1.7120 H   0  0  0  0  0  0  0  0  0  0  0  0
    2.7960   -0.0460    1.8400 H   0  0  0  0  0  0  0  0  0  0  0  0
    2.5250   -1.7650   -0.5320 H   0  0  0  0  0  0  0  0  0  0  0  0
    4.1620   -1.0960   -0.3390 H   0  0  0  0  0  0  0  0  0  0  0  0
    3.0570    0.3170   -1.7500 H   0  0  0  0  0  0  0  0  0  0  0  0
    3.2700    2.4470   -0.7000 H   0  0  0  0  0  0  0  0  0  0  0  0
    4.5960    1.3230   -0.3630 H   0  0  0  0  0  0  0  0  0  0  0  0
    3.4330    1.6780    0.9650 H   0  0  0  0  0  0  0  0  0  0  0  0
    1.1350    1.6480   -1.2530 H   0  0  0  0  0  0  0  0  0  0  0  0
    0.5310   -0.2020    1.0780 H   0  0  0  0  0  0  0  0  0  0  0  0
   -3.7390   -4.1470    2.8630 O   0  0  0  0  0  0  0  0  0  0  0  0
   -3.0510   -3.9880    1.6640 C   0  0  0  0  0  0  0  0  0  0  0  0
   -3.7320   -4.2110    0.4920 C   0  0  0  0  0  0  0  0  0  0  0  0
   -3.0400   -4.0510   -0.7030 C   0  0  0  0  0  0  0  0  0  0  0  0
   -1.7100   -3.6790   -0.6890 C   0  0  0  0  0  0  0  0  0  0  0  0
   -0.9120   -3.4890   -1.9340 C   0  0  0  0  0  0  0  0  0  0  0  0
   -0.9710   -2.0840   -2.4420 C   0  0  2  0  0  0  0  0  0  0  0  0
   -0.4510   -1.1470   -1.4480 N   0  0  0  0  0  0  0  0  0  0  0  0
   -2.3780   -1.7700   -2.7890 C   0  0  0  0  0  0  0  0  0  0  0  0
   -2.9150   -0.7960   -2.2050 O   0  0  0  0  0  0  0  0  0  0  0  0
   -1.0340   -3.4560    0.5060 C   0  0  0  0  0  0  0  0  0  0  0  0
   -1.7220   -3.6150    1.6930 C   0  0  0  0  0  0  0  0  0  0  0  0
   -3.1100   -2.4860   -3.7080 O   0  0  0  0  0  0  0  0  0  0  0  0
   -4.7330   -4.1600    2.9510 H   0  0  0  0  0  0  0  0  0  0  0  0
   -4.7650   -4.5010    0.4520 H   0  0  0  0  0  0  0  0  0  0  0  0
   -3.5450   -4.2190   -1.6300 H   0  0  0  0  0  0  0  0  0  0  0  0
    0.1140   -3.8860   -1.8420 H   0  0  0  0  0  0  0  0  0  0  0  0
   -1.4140   -4.1340   -2.7090 H   0  0  0  0  0  0  0  0  0  0  0  0
   -0.3760   -2.0420   -3.3730 H   0  0  0  0  0  0  0  0  0  0  0  0
   -0.8780   -1.0400   -0.5100 H   0  0  0  0  0  0  0  0  0  0  0  0
    0.0080   -3.1650    0.4920 H   0  0  0  0  0  0  0  0  0  0  0  0
   -1.2000   -3.4430    2.6360 H   0  0  0  0  0  0  0  0  0  0  0  0
  1  9  1  0  0  0  0
  2 11  1  6  0  0  0
  2  1  1  0  0  0  0
  2  3  1  0  0  0  0
  3  4  1  0  0  0  0
  3 12  1  0  0  0  0
  4  8  1  0  0  0  0
  5  4  2  0  0  0  0
  6  2  1  0  0  0  0
  7  6  2  0  0  0  0
  8 14  1  0  0  0  0
 10  1  1  0  0  0  0
 13  3  1  0  0  0  0
 15 24  1  0  0  0  0
 15 25  1  0  0  0  0
 15 23  1  0  0  0  0
 16 15  1  0  0  0  0
 17 28  1  6  0  0  0
 17 18  1  0  0  0  0
 17 16  1  0  0  0  0
 18 31  1  0  0  0  0
 19 32  1  6  0  0  0
 19 17  1  0  0  0  0
 19 20  1  0  0  0  0
 20  6  1  0  0  0  0
 20 33  1  0  0  0  0
 21 41  1  0  0  0  0
 21 19  1  0  0  0  0
 22 21  2  0  0  0  0
 26 16  1  0  0  0  0
 27 16  1  0  0  0  0
 29 18  1  0  0  0  0
 30 18  1  0  0  0  0
 34 47  1  0  0  0  0
 35 45  1  0  0  0  0
 35 34  1  0  0  0  0
 36 35  2  0  0  0  0
 37 38  2  0  0  0  0
 37 36  1  0  0  0  0
 38 44  1  0  0  0  0
 39 50  1  0  0  0  0
 39 38  1  0  0  0  0
 40 52  1  6  0  0  0
 40 39  1  0  0  0  0
 40 41  1  0  0  0  0
 41 53  1  0  0  0  0
 42 40  1  0  0  0  0
 42 43  1  0  0  0  0
 44 45  2  0  0  0  0
 45 55  1  0  0  0  0
 46 42  2  0  0  0  0
 48 36  1  0  0  0  0
 49 37  1  0  0  0  0
 51 39  1  0  0  0  0
 54 44  1  0  0  0  0
M  END
$$$$
