DKA.pdb
 OpenBabel07022418143D

 46 45  0  0  1  0  0  0  0  0999 V2000
   -0.1530   -4.1730    0.1740 N   0  0  0  0  0  0  0  0  0  0  0  0
    0.6940   -3.7470    1.2780 C   0  0  1  0  0  0  0  0  0  0  0  0
    2.0360   -4.4010    1.2350 C   0  0  0  0  0  0  0  0  0  0  0  0
    2.9140   -3.9860    2.3470 C   0  0  0  0  0  0  0  0  0  0  0  0
    3.7450   -3.0410    2.2700 O   0  0  0  0  0  0  0  0  0  0  0  0
    0.8540   -2.2660    1.2800 C   0  0  0  0  0  0  0  0  0  0  0  0
    1.5090   -1.7550    2.2190 O   0  0  0  0  0  0  0  0  0  0  0  0
    2.8780   -4.6340    3.5950 O   0  0  0  0  0  0  0  0  0  0  0  0
    0.3720   -4.5520   -0.6280 H   0  0  0  0  0  0  0  0  0  0  0  0
   -0.9340   -4.7600    0.4950 H   0  0  0  0  0  0  0  0  0  0  0  0
    0.1900   -4.0290    2.2210 H   0  0  0  0  0  0  0  0  0  0  0  0
    2.5660   -4.1310    0.2950 H   0  0  0  0  0  0  0  0  0  0  0  0
    1.9560   -5.5270    1.2570 H   0  0  0  0  0  0  0  0  0  0  0  0
    2.9410   -4.1080    4.4570 H   0  0  0  0  0  0  0  0  0  0  0  0
    0.2970   -1.4450    0.2700 N   0  0  0  0  0  0  0  0  0  0  0  0
    0.5050    0.0080    0.3530 C   0  0  1  0  0  0  0  0  0  0  0  0
    1.1360    0.5230   -0.8740 C   0  0  0  0  0  0  0  0  0  0  0  0
    1.4390    1.9170   -1.1020 C   0  0  0  0  0  0  0  0  0  0  0  0
    2.3500    2.7760   -0.3790 C   0  0  0  0  0  0  0  0  0  0  0  0
    2.2110    3.1380    1.0420 C   0  0  0  0  0  0  0  0  0  0  0  0
    2.2980    2.1630    2.0450 N   0  0  0  0  0  0  0  0  0  0  0  0
   -0.8210    0.6660    0.5880 C   0  0  0  0  0  0  0  0  0  0  0  0
   -0.8530    1.9000    0.6890 O   0  0  0  0  0  0  0  0  0  0  0  0
   -0.2400   -1.8930   -0.4930 H   0  0  0  0  0  0  0  0  0  0  0  0
    1.1130    0.1630    1.2270 H   0  0  0  0  0  0  0  0  0  0  0  0
    0.4270    0.2040   -1.7320 H   0  0  0  0  0  0  0  0  0  0  0  0
    2.0460   -0.1400   -1.1430 H   0  0  0  0  0  0  0  0  0  0  0  0
    0.4240    2.4770   -1.1720 H   0  0  0  0  0  0  0  0  0  0  0  0
    1.7070    1.9760   -2.2470 H   0  0  0  0  0  0  0  0  0  0  0  0
    2.3590    3.7970   -0.9370 H   0  0  0  0  0  0  0  0  0  0  0  0
    3.4530    2.4790   -0.5830 H   0  0  0  0  0  0  0  0  0  0  0  0
    1.1960    3.6600    1.1400 H   0  0  0  0  0  0  0  0  0  0  0  0
    2.9060    4.0050    1.3190 H   0  0  0  0  0  0  0  0  0  0  0  0
    1.5090    2.0790    2.6980 H   0  0  0  0  0  0  0  0  0  0  0  0
    3.2290    1.9980    2.4580 H   0  0  0  0  0  0  0  0  0  0  0  0
   -4.2130    0.1460   -0.2460 C   0  0  0  0  0  0  0  0  0  0  0  0
   -3.2790    0.4920    0.9150 C   0  0  2  0  0  0  0  0  0  0  0  0
   -2.0050   -0.1430    0.6890 N   0  0  0  0  0  0  0  0  0  0  0  0
   -3.9310   -0.0580    2.1330 C   0  0  0  0  0  0  0  0  0  0  0  0
   -3.3340   -0.9530    2.7780 O   0  0  0  0  0  0  0  0  0  0  0  0
   -5.1570    0.3700    2.5850 O   0  0  0  0  0  0  0  0  0  0  0  0
   -4.6070   -0.8760   -0.0350 H   0  0  0  0  0  0  0  0  0  0  0  0
   -5.0360    0.8840   -0.3010 H   0  0  0  0  0  0  0  0  0  0  0  0
   -3.6590    0.0700   -1.2060 H   0  0  0  0  0  0  0  0  0  0  0  0
   -3.1430    1.5810    0.9780 H   0  0  0  0  0  0  0  0  0  0  0  0
   -1.9010   -1.1730    0.5930 H   0  0  0  0  0  0  0  0  0  0  0  0
  1 10  1  0  0  0  0
  1  2  1  0  0  0  0
  2  6  1  0  0  0  0
  2 11  1  1  0  0  0
  3 13  1  0  0  0  0
  3  2  1  0  0  0  0
  3  4  1  0  0  0  0
  4  8  1  0  0  0  0
  5  4  2  0  0  0  0
  6  7  2  0  0  0  0
  8 14  1  0  0  0  0
  9  1  1  0  0  0  0
 12  3  1  0  0  0  0
 15 16  1  0  0  0  0
 15  6  1  0  0  0  0
 16 22  1  0  0  0  0
 16 25  1  1  0  0  0
 17 16  1  0  0  0  0
 18 17  1  0  0  0  0
 18 19  1  0  0  0  0
 19 20  1  0  0  0  0
 20 32  1  0  0  0  0
 20 33  1  0  0  0  0
 20 21  1  0  0  0  0
 21 35  1  0  0  0  0
 21 34  1  0  0  0  0
 22 23  2  0  0  0  0
 22 38  1  0  0  0  0
 24 15  1  0  0  0  0
 26 17  1  0  0  0  0
 27 17  1  0  0  0  0
 28 18  1  0  0  0  0
 29 18  1  0  0  0  0
 30 19  1  0  0  0  0
 31 19  1  0  0  0  0
 36 42  1  0  0  0  0
 36 37  1  0  0  0  0
 37 45  1  1  0  0  0
 37 39  1  0  0  0  0
 38 37  1  0  0  0  0
 39 41  2  0  0  0  0
 39 40  1  0  0  0  0
 43 36  1  0  0  0  0
 44 36  1  0  0  0  0
 46 38  1  0  0  0  0
M  END
$$$$
