DKD.pdb
 OpenBabel07022418143D

 49 48  0  0  1  0  0  0  0  0999 V2000
   -0.3920   -0.7680    4.4280 N   0  0  0  0  0  0  0  0  0  0  0  0
    0.9480   -1.2190    4.1040 C   0  0  1  0  0  0  0  0  0  0  0  0
    1.0290   -2.6850    4.5160 C   0  0  0  0  0  0  0  0  0  0  0  0
    0.7590   -2.7280    5.9800 C   0  0  0  0  0  0  0  0  0  0  0  0
    1.6970   -2.4320    6.7660 O   0  0  0  0  0  0  0  0  0  0  0  0
    1.2190   -1.0660    2.6340 C   0  0  0  0  0  0  0  0  0  0  0  0
    2.3450   -1.4050    2.2070 O   0  0  0  0  0  0  0  0  0  0  0  0
   -0.4750   -3.0770    6.5080 O   0  0  0  0  0  0  0  0  0  0  0  0
   -1.0530   -1.5430    4.1720 H   0  0  0  0  0  0  0  0  0  0  0  0
   -0.3950   -0.5500    5.4500 H   0  0  0  0  0  0  0  0  0  0  0  0
    1.6710   -0.6240    4.6640 H   0  0  0  0  0  0  0  0  0  0  0  0
    2.0320   -3.1130    4.3300 H   0  0  0  0  0  0  0  0  0  0  0  0
    0.2140   -3.2520    4.0230 H   0  0  0  0  0  0  0  0  0  0  0  0
   -0.7720   -2.8160    7.4470 H   0  0  0  0  0  0  0  0  0  0  0  0
    0.2050   -0.5520    1.8120 N   0  0  0  0  0  0  0  0  0  0  0  0
    0.3010   -0.3210    0.3780 C   0  0  1  0  0  0  0  0  0  0  0  0
    1.6820   -0.0580   -0.0950 C   0  0  0  0  0  0  0  0  0  0  0  0
    2.3170    1.1480    0.4450 C   0  0  0  0  0  0  0  0  0  0  0  0
    1.8960    2.4930    0.0560 C   0  0  0  0  0  0  0  0  0  0  0  0
    0.5180    2.9870    0.2470 C   0  0  0  0  0  0  0  0  0  0  0  0
    0.4800    4.4420   -0.1440 N   0  0  0  0  0  0  0  0  0  0  0  0
   -0.3850   -1.3990   -0.3670 C   0  0  0  0  0  0  0  0  0  0  0  0
   -0.9310   -2.3330    0.2700 O   0  0  0  0  0  0  0  0  0  0  0  0
   -0.7190   -0.3160    2.2940 H   0  0  0  0  0  0  0  0  0  0  0  0
   -0.2290    0.6750    0.2630 H   0  0  0  0  0  0  0  0  0  0  0  0
    1.6190    0.0940   -1.2220 H   0  0  0  0  0  0  0  0  0  0  0  0
    2.3530   -0.9530   -0.0170 H   0  0  0  0  0  0  0  0  0  0  0  0
    3.4700    1.0600    0.3600 H   0  0  0  0  0  0  0  0  0  0  0  0
    2.1750    1.0900    1.5910 H   0  0  0  0  0  0  0  0  0  0  0  0
    2.5680    3.2320    0.6390 H   0  0  0  0  0  0  0  0  0  0  0  0
    2.2560    2.7500   -1.0150 H   0  0  0  0  0  0  0  0  0  0  0  0
    0.0510    2.8500    1.2120 H   0  0  0  0  0  0  0  0  0  0  0  0
   -0.2000    2.5850   -0.5440 H   0  0  0  0  0  0  0  0  0  0  0  0
    0.7650    4.5010   -1.1430 H   0  0  0  0  0  0  0  0  0  0  0  0
   -0.5370    4.6710   -0.1150 H   0  0  0  0  0  0  0  0  0  0  0  0
   -0.4620   -1.4380   -1.7780 N   0  0  0  0  0  0  0  0  0  0  0  0
   -1.1430   -2.5140   -2.4970 C   0  0  1  0  0  0  0  0  0  0  0  0
   -2.2700   -1.8360   -3.2880 C   0  0  0  0  0  0  0  0  0  0  0  0
   -3.2060   -1.1370   -2.3420 C   0  0  0  0  0  0  0  0  0  0  0  0
   -2.9230   -0.0310   -1.8310 O   0  0  0  0  0  0  0  0  0  0  0  0
   -0.2070   -3.0820   -3.5020 C   0  0  0  0  0  0  0  0  0  0  0  0
   -0.5200   -4.0210   -4.2660 O   0  0  0  0  0  0  0  0  0  0  0  0
   -4.3980   -1.7970   -2.0740 O   0  0  0  0  0  0  0  0  0  0  0  0
    1.0930   -2.5800   -3.6380 O   0  0  0  0  0  0  0  0  0  0  0  0
   -0.0080   -0.6600   -2.3010 H   0  0  0  0  0  0  0  0  0  0  0  0
   -1.5460   -3.2590   -1.7980 H   0  0  0  0  0  0  0  0  0  0  0  0
   -2.7920   -2.5310   -3.9490 H   0  0  0  0  0  0  0  0  0  0  0  0
   -1.8230   -1.0420   -3.9170 H   0  0  0  0  0  0  0  0  0  0  0  0
   -4.9430   -1.5330   -1.2530 H   0  0  0  0  0  0  0  0  0  0  0  0
  1 10  1  0  0  0  0
  2  1  1  0  0  0  0
  2  3  1  0  0  0  0
  2 11  1  1  0  0  0
  3  4  1  0  0  0  0
  4  8  1  0  0  0  0
  4  5  2  0  0  0  0
  6  2  1  0  0  0  0
  7  6  2  0  0  0  0
  8 14  1  0  0  0  0
  9  1  1  0  0  0  0
 12  3  1  0  0  0  0
 13  3  1  0  0  0  0
 15 24  1  0  0  0  0
 15  6  1  0  0  0  0
 16 25  1  6  0  0  0
 16 15  1  0  0  0  0
 17 27  1  0  0  0  0
 17 16  1  0  0  0  0
 17 18  1  0  0  0  0
 18 29  1  0  0  0  0
 19 20  1  0  0  0  0
 19 18  1  0  0  0  0
 19 30  1  0  0  0  0
 20 32  1  0  0  0  0
 21 35  1  0  0  0  0
 21 20  1  0  0  0  0
 22 23  2  0  0  0  0
 22 16  1  0  0  0  0
 26 17  1  0  0  0  0
 28 18  1  0  0  0  0
 31 19  1  0  0  0  0
 33 20  1  0  0  0  0
 34 21  1  0  0  0  0
 36 22  1  0  0  0  0
 37 46  1  1  0  0  0
 37 36  1  0  0  0  0
 38 37  1  0  0  0  0
 38 39  1  0  0  0  0
 39 43  1  0  0  0  0
 39 40  2  0  0  0  0
 41 37  1  0  0  0  0
 42 41  2  0  0  0  0
 43 49  1  0  0  0  0
 44 41  1  0  0  0  0
 45 36  1  0  0  0  0
 47 38  1  0  0  0  0
 48 38  1  0  0  0  0
M  END
$$$$
