DKE.pdb
 OpenBabel07022418143D

 52 51  0  0  1  0  0  0  0  0999 V2000
   -3.2150    1.3040    0.1110 N   0  0  0  0  0  0  0  0  0  0  0  0
   -1.8010    1.6090   -0.2600 C   0  0  1  0  0  0  0  0  0  0  0  0
   -1.5920    3.0070    0.2290 C   0  0  0  0  0  0  0  0  0  0  0  0
   -0.2930    3.6070   -0.0000 C   0  0  0  0  0  0  0  0  0  0  0  0
    0.6890    3.1200   -0.5940 O   0  0  0  0  0  0  0  0  0  0  0  0
   -1.0060    0.5850    0.4830 C   0  0  0  0  0  0  0  0  0  0  0  0
   -1.5400    0.1360    1.5360 O   0  0  0  0  0  0  0  0  0  0  0  0
   -0.0930    4.9100    0.5050 O   0  0  0  0  0  0  0  0  0  0  0  0
   -3.3330    0.2800    0.2430 H   0  0  0  0  0  0  0  0  0  0  0  0
   -3.8570    1.7220   -0.5890 H   0  0  0  0  0  0  0  0  0  0  0  0
   -1.7010    1.4860   -1.3350 H   0  0  0  0  0  0  0  0  0  0  0  0
   -1.9030    3.0170    1.3060 H   0  0  0  0  0  0  0  0  0  0  0  0
   -2.3660    3.6390   -0.3090 H   0  0  0  0  0  0  0  0  0  0  0  0
    0.6110    5.5290    0.1150 H   0  0  0  0  0  0  0  0  0  0  0  0
    0.2490    0.1050    0.1010 N   0  0  0  0  0  0  0  0  0  0  0  0
    1.0580   -0.8500    0.7870 C   0  0  1  0  0  0  0  0  0  0  0  0
    0.8400   -0.9180    2.2930 C   0  0  0  0  0  0  0  0  0  0  0  0
    1.1570    0.3540    3.0210 C   0  0  0  0  0  0  0  0  0  0  0  0
    2.6230    0.7650    2.8850 C   0  0  0  0  0  0  0  0  0  0  0  0
    2.8150    2.0620    3.6910 C   0  0  0  0  0  0  0  0  0  0  0  0
    2.4850    1.8280    5.0800 N   0  0  0  0  0  0  0  0  0  0  0  0
    1.0300   -2.2100    0.2230 C   0  0  0  0  0  0  0  0  0  0  0  0
    1.6890   -3.1650    0.7150 O   0  0  0  0  0  0  0  0  0  0  0  0
    0.6300    0.4940   -0.8270 H   0  0  0  0  0  0  0  0  0  0  0  0
    2.1220   -0.4290    0.7210 H   0  0  0  0  0  0  0  0  0  0  0  0
    1.5660   -1.6960    2.7190 H   0  0  0  0  0  0  0  0  0  0  0  0
   -0.1510   -1.3270    2.5670 H   0  0  0  0  0  0  0  0  0  0  0  0
    0.5720    1.1820    2.5920 H   0  0  0  0  0  0  0  0  0  0  0  0
    0.8840    0.2810    4.1010 H   0  0  0  0  0  0  0  0  0  0  0  0
    3.2760   -0.0420    3.2600 H   0  0  0  0  0  0  0  0  0  0  0  0
    2.8680    1.0080    1.8340 H   0  0  0  0  0  0  0  0  0  0  0  0
    2.1590    2.8440    3.2930 H   0  0  0  0  0  0  0  0  0  0  0  0
    3.8590    2.3900    3.6130 H   0  0  0  0  0  0  0  0  0  0  0  0
    1.7090    2.4050    5.4250 H   0  0  0  0  0  0  0  0  0  0  0  0
    2.4370    0.8290    5.3320 H   0  0  0  0  0  0  0  0  0  0  0  0
    0.2450   -2.5460   -0.9360 N   0  0  0  0  0  0  0  0  0  0  0  0
    0.2390   -3.8790   -1.4620 C   0  0  1  0  0  0  0  0  0  0  0  0
   -1.1780   -4.4130   -1.4190 C   0  0  0  0  0  0  0  0  0  0  0  0
   -1.7200   -4.4450   -0.0070 C   0  0  0  0  0  0  0  0  0  0  0  0
   -3.1090   -4.9760   -0.0150 C   0  0  0  0  0  0  0  0  0  0  0  0
   -3.7800   -5.1050    1.0370 O   0  0  0  0  0  0  0  0  0  0  0  0
    0.6800   -3.9500   -2.8760 C   0  0  0  0  0  0  0  0  0  0  0  0
    0.7020   -5.0900   -3.4100 O   0  0  0  0  0  0  0  0  0  0  0  0
   -3.6980   -5.3470   -1.2320 O   0  0  0  0  0  0  0  0  0  0  0  0
    1.0610   -2.8820   -3.6390 O   0  0  0  0  0  0  0  0  0  0  0  0
   -0.3100   -1.7760   -1.3650 H   0  0  0  0  0  0  0  0  0  0  0  0
    0.8710   -4.5800   -0.8980 H   0  0  0  0  0  0  0  0  0  0  0  0
   -1.8080   -3.6640   -1.9790 H   0  0  0  0  0  0  0  0  0  0  0  0
   -1.3060   -5.3630   -1.9450 H   0  0  0  0  0  0  0  0  0  0  0  0
   -1.7850   -3.4230    0.4210 H   0  0  0  0  0  0  0  0  0  0  0  0
   -1.1030   -5.0840    0.6340 H   0  0  0  0  0  0  0  0  0  0  0  0
   -4.7010   -5.4090   -1.3580 H   0  0  0  0  0  0  0  0  0  0  0  0
  1  9  1  0  0  0  0
  2 11  1  6  0  0  0
  2  1  1  0  0  0  0
  2  3  1  0  0  0  0
  2  6  1  0  0  0  0
  3 12  1  0  0  0  0
  4  3  1  0  0  0  0
  4  8  1  0  0  0  0
  5  4  2  0  0  0  0
  6  7  2  0  0  0  0
 10  1  1  0  0  0  0
 13  3  1  0  0  0  0
 14  8  1  0  0  0  0
 15  6  1  0  0  0  0
 15 16  1  0  0  0  0
 16 25  1  6  0  0  0
 16 17  1  0  0  0  0
 17 27  1  0  0  0  0
 17 26  1  0  0  0  0
 17 18  1  0  0  0  0
 18 29  1  0  0  0  0
 19 18  1  0  0  0  0
 19 30  1  0  0  0  0
 19 20  1  0  0  0  0
 20 21  1  0  0  0  0
 21 35  1  0  0  0  0
 21 34  1  0  0  0  0
 22 23  2  0  0  0  0
 22 16  1  0  0  0  0
 24 15  1  0  0  0  0
 28 18  1  0  0  0  0
 31 19  1  0  0  0  0
 32 20  1  0  0  0  0
 33 20  1  0  0  0  0
 36 22  1  0  0  0  0
 37 38  1  0  0  0  0
 37 36  1  0  0  0  0
 37 47  1  1  0  0  0
 38 39  1  0  0  0  0
 39 50  1  0  0  0  0
 39 51  1  0  0  0  0
 40 39  1  0  0  0  0
 40 41  2  0  0  0  0
 42 37  1  0  0  0  0
 43 42  1  0  0  0  0
 44 40  1  0  0  0  0
 45 42  2  0  0  0  0
 46 36  1  0  0  0  0
 48 38  1  0  0  0  0
 49 38  1  0  0  0  0
 52 44  1  0  0  0  0
M  END
$$$$
