DKF.pdb
 OpenBabel07022418153D

 56 56  0  0  1  0  0  0  0  0999 V2000
   -0.2860   -2.7950    4.7150 N   0  0  0  0  0  0  0  0  0  0  0  0
    0.7680   -1.8100    4.3780 C   0  0  1  0  0  0  0  0  0  0  0  0
    2.1190   -2.4000    4.3590 C   0  0  0  0  0  0  0  0  0  0  0  0
    3.1480   -1.3580    4.0850 C   0  0  0  0  0  0  0  0  0  0  0  0
    4.2820   -1.6510    3.6490 O   0  0  0  0  0  0  0  0  0  0  0  0
    0.2980   -1.1960    3.1060 C   0  0  0  0  0  0  0  0  0  0  0  0
   -0.9710   -0.9610    3.0010 O   0  0  0  0  0  0  0  0  0  0  0  0
    2.8340   -0.0040    4.3290 O   0  0  0  0  0  0  0  0  0  0  0  0
   -1.2080   -2.2960    4.5330 H   0  0  0  0  0  0  0  0  0  0  0  0
   -0.2360   -3.5400    3.9760 H   0  0  0  0  0  0  0  0  0  0  0  0
    0.6690   -1.0500    5.2120 H   0  0  0  0  0  0  0  0  0  0  0  0
    2.1890   -3.1760    3.5710 H   0  0  0  0  0  0  0  0  0  0  0  0
    2.3400   -2.8160    5.3710 H   0  0  0  0  0  0  0  0  0  0  0  0
    3.6160    0.6670    4.3460 H   0  0  0  0  0  0  0  0  0  0  0  0
    1.0650   -0.8380    1.9960 N   0  0  0  0  0  0  0  0  0  0  0  0
    0.4510   -0.2070    0.7860 C   0  0  1  0  0  0  0  0  0  0  0  0
    1.2220    1.0430    0.5990 C   0  0  0  0  0  0  0  0  0  0  0  0
    0.8930    1.9580   -0.4940 C   0  0  0  0  0  0  0  0  0  0  0  0
   -0.5030    2.5220   -0.4860 C   0  0  0  0  0  0  0  0  0  0  0  0
   -0.6990    3.2980    0.8130 C   0  0  0  0  0  0  0  0  0  0  0  0
   -2.0000    3.8870    0.9380 N   0  0  0  0  0  0  0  0  0  0  0  0
    0.6110   -1.1490   -0.3520 C   0  0  0  0  0  0  0  0  0  0  0  0
    1.2310   -2.2590   -0.1950 O   0  0  0  0  0  0  0  0  0  0  0  0
    2.0850   -1.0260    1.9920 H   0  0  0  0  0  0  0  0  0  0  0  0
   -0.6000   -0.0930    1.0210 H   0  0  0  0  0  0  0  0  0  0  0  0
    1.2920    1.5860    1.5890 H   0  0  0  0  0  0  0  0  0  0  0  0
    2.2990    0.7230    0.4380 H   0  0  0  0  0  0  0  0  0  0  0  0
    1.1770    1.6250   -1.5070 H   0  0  0  0  0  0  0  0  0  0  0  0
    1.5490    2.8830   -0.3430 H   0  0  0  0  0  0  0  0  0  0  0  0
   -0.5390    3.2830   -1.3040 H   0  0  0  0  0  0  0  0  0  0  0  0
   -1.3060    1.8180   -0.6710 H   0  0  0  0  0  0  0  0  0  0  0  0
    0.0310    4.1590    0.8610 H   0  0  0  0  0  0  0  0  0  0  0  0
   -0.4350    2.6430    1.6690 H   0  0  0  0  0  0  0  0  0  0  0  0
   -2.6790    3.5140    0.2410 H   0  0  0  0  0  0  0  0  0  0  0  0
   -2.3340    3.6580    1.9250 H   0  0  0  0  0  0  0  0  0  0  0  0
    0.1140   -0.9100   -1.6360 N   0  0  0  0  0  0  0  0  0  0  0  0
    0.2560   -1.8150   -2.7660 C   0  0  1  0  0  0  0  0  0  0  0  0
   -1.0980   -2.0410   -3.3590 C   0  0  0  0  0  0  0  0  0  0  0  0
   -1.9880   -2.6310   -2.3460 C   0  0  0  0  0  0  0  0  0  0  0  0
   -2.7610   -1.8450   -1.4910 C   0  0  0  0  0  0  0  0  0  0  0  0
   -3.5740   -2.4390   -0.5600 C   0  0  0  0  0  0  0  0  0  0  0  0
   -3.6710   -3.7970   -0.4200 C   0  0  0  0  0  0  0  0  0  0  0  0
   -2.9160   -4.5810   -1.2540 C   0  0  0  0  0  0  0  0  0  0  0  0
   -2.0870   -3.9980   -2.2020 C   0  0  0  0  0  0  0  0  0  0  0  0
    1.2240   -1.2970   -3.7550 C   0  0  0  0  0  0  0  0  0  0  0  0
    1.4410   -1.9520   -4.7920 O   0  0  0  0  0  0  0  0  0  0  0  0
    1.8730   -0.1160   -3.5310 O   0  0  0  0  0  0  0  0  0  0  0  0
   -0.4120   -0.0410   -1.8400 H   0  0  0  0  0  0  0  0  0  0  0  0
    0.6690   -2.7690   -2.3820 H   0  0  0  0  0  0  0  0  0  0  0  0
   -0.9910   -2.7830   -4.1740 H   0  0  0  0  0  0  0  0  0  0  0  0
   -1.5050   -1.1010   -3.7890 H   0  0  0  0  0  0  0  0  0  0  0  0
   -2.6820   -0.7950   -1.6040 H   0  0  0  0  0  0  0  0  0  0  0  0
   -4.1780   -1.8160    0.1090 H   0  0  0  0  0  0  0  0  0  0  0  0
   -4.3270   -4.2600    0.3320 H   0  0  0  0  0  0  0  0  0  0  0  0
   -2.9780   -5.6410   -1.1600 H   0  0  0  0  0  0  0  0  0  0  0  0
   -1.4930   -4.6500   -2.8570 H   0  0  0  0  0  0  0  0  0  0  0  0
  2  1  1  0  0  0  0
  2 11  1  1  0  0  0
  3  2  1  0  0  0  0
  3 13  1  0  0  0  0
  4  8  1  0  0  0  0
  4  3  1  0  0  0  0
  5  4  2  0  0  0  0
  6  2  1  0  0  0  0
  7  6  2  0  0  0  0
  8 14  1  0  0  0  0
  9  1  1  0  0  0  0
 10  1  1  0  0  0  0
 12  3  1  0  0  0  0
 15  6  1  0  0  0  0
 16 25  1  1  0  0  0
 16 15  1  0  0  0  0
 17 16  1  0  0  0  0
 17 26  1  0  0  0  0
 18 19  1  0  0  0  0
 18 29  1  0  0  0  0
 18 17  1  0  0  0  0
 19 20  1  0  0  0  0
 20 32  1  0  0  0  0
 20 21  1  0  0  0  0
 20 33  1  0  0  0  0
 21 35  1  0  0  0  0
 22 23  2  0  0  0  0
 22 16  1  0  0  0  0
 24 15  1  0  0  0  0
 27 17  1  0  0  0  0
 28 18  1  0  0  0  0
 30 19  1  0  0  0  0
 31 19  1  0  0  0  0
 34 21  1  0  0  0  0
 36 22  1  0  0  0  0
 37 49  1  1  0  0  0
 37 36  1  0  0  0  0
 38 37  1  0  0  0  0
 38 39  1  0  0  0  0
 39 44  2  0  0  0  0
 39 40  1  0  0  0  0
 40 41  2  0  0  0  0
 41 42  1  0  0  0  0
 41 53  1  0  0  0  0
 42 54  1  0  0  0  0
 43 55  1  0  0  0  0
 43 42  2  0  0  0  0
 44 43  1  0  0  0  0
 45 47  1  0  0  0  0
 45 37  1  0  0  0  0
 46 45  2  0  0  0  0
 48 36  1  0  0  0  0
 50 38  1  0  0  0  0
 51 38  1  0  0  0  0
 52 40  1  0  0  0  0
 56 44  1  0  0  0  0
M  END
$$$$
