DKL.pdb
 OpenBabel07022418153D

 55 54  0  0  1  0  0  0  0  0999 V2000
    3.8110   -3.8770    1.5120 N   0  0  0  0  0  0  0  0  0  0  0  0
    3.1200   -3.1090    0.5040 C   0  0  1  0  0  0  0  0  0  0  0  0
    1.8770   -3.8830    0.0430 C   0  0  0  0  0  0  0  0  0  0  0  0
    2.2380   -5.1850   -0.5240 C   0  0  0  0  0  0  0  0  0  0  0  0
    3.4460   -5.5200   -0.5760 O   0  0  0  0  0  0  0  0  0  0  0  0
    2.6170   -1.8180    1.0520 C   0  0  0  0  0  0  0  0  0  0  0  0
    2.8360   -1.5410    2.2670 O   0  0  0  0  0  0  0  0  0  0  0  0
    1.2950   -6.0710   -1.0100 O   0  0  0  0  0  0  0  0  0  0  0  0
    4.6390   -4.3850    1.1310 H   0  0  0  0  0  0  0  0  0  0  0  0
    3.1560   -4.6040    1.8740 H   0  0  0  0  0  0  0  0  0  0  0  0
    3.7790   -2.9940   -0.3560 H   0  0  0  0  0  0  0  0  0  0  0  0
    1.1890   -3.9410    0.9180 H   0  0  0  0  0  0  0  0  0  0  0  0
    1.3300   -3.3080   -0.7340 H   0  0  0  0  0  0  0  0  0  0  0  0
    1.4390   -7.0670   -1.0760 H   0  0  0  0  0  0  0  0  0  0  0  0
    1.9050   -0.8760    0.2930 N   0  0  0  0  0  0  0  0  0  0  0  0
    1.4110    0.4050    0.8480 C   0  0  1  0  0  0  0  0  0  0  0  0
    1.9220    1.5420    0.0350 C   0  0  0  0  0  0  0  0  0  0  0  0
    1.5680    2.9050    0.4880 C   0  0  0  0  0  0  0  0  0  0  0  0
    2.1050    3.4500    1.7350 C   0  0  0  0  0  0  0  0  0  0  0  0
    1.8870    2.8470    3.0510 C   0  0  0  0  0  0  0  0  0  0  0  0
    0.5440    2.6890    3.5060 N   0  0  0  0  0  0  0  0  0  0  0  0
   -0.1050    0.3330    0.7850 C   0  0  0  0  0  0  0  0  0  0  0  0
   -0.7960    1.2870    1.1650 O   0  0  0  0  0  0  0  0  0  0  0  0
    1.7140   -1.0830   -0.7060 H   0  0  0  0  0  0  0  0  0  0  0  0
    1.6830    0.4830    1.8840 H   0  0  0  0  0  0  0  0  0  0  0  0
    1.5520    1.3890   -1.0360 H   0  0  0  0  0  0  0  0  0  0  0  0
    3.0590    1.4240   -0.0020 H   0  0  0  0  0  0  0  0  0  0  0  0
    0.4440    3.0560    0.4340 H   0  0  0  0  0  0  0  0  0  0  0  0
    1.9060    3.6330   -0.3490 H   0  0  0  0  0  0  0  0  0  0  0  0
    1.7450    4.5270    1.8130 H   0  0  0  0  0  0  0  0  0  0  0  0
    3.2320    3.5750    1.6220 H   0  0  0  0  0  0  0  0  0  0  0  0
    2.3060    3.6530    3.7970 H   0  0  0  0  0  0  0  0  0  0  0  0
    2.5220    1.9760    3.2710 H   0  0  0  0  0  0  0  0  0  0  0  0
    0.4240    2.7020    4.5230 H   0  0  0  0  0  0  0  0  0  0  0  0
   -0.1130    3.3370    3.0410 H   0  0  0  0  0  0  0  0  0  0  0  0
   -4.7490    0.0210   -0.6020 C   0  0  0  0  0  0  0  0  0  0  0  0
   -4.1750   -1.2550   -1.2110 C   0  0  0  0  0  0  0  0  0  0  0  0
   -4.7070   -1.3020   -2.6400 C   0  0  0  0  0  0  0  0  0  0  0  0
   -2.6770   -1.1220   -1.1910 C   0  0  0  0  0  0  0  0  0  0  0  0
   -2.2180   -0.9480    0.2090 C   0  0  2  0  0  0  0  0  0  0  0  0
   -0.7700   -0.8010    0.3020 N   0  0  0  0  0  0  0  0  0  0  0  0
   -2.6100   -2.0040    1.1520 C   0  0  0  0  0  0  0  0  0  0  0  0
   -1.6920   -2.6060    1.8010 O   0  0  0  0  0  0  0  0  0  0  0  0
   -3.8910   -2.4330    1.4280 O   0  0  0  0  0  0  0  0  0  0  0  0
   -4.1380    0.8970   -0.8450 H   0  0  0  0  0  0  0  0  0  0  0  0
   -5.7630    0.2030   -1.0680 H   0  0  0  0  0  0  0  0  0  0  0  0
   -4.9440   -0.0870    0.4760 H   0  0  0  0  0  0  0  0  0  0  0  0
   -4.5720   -2.1310   -0.6970 H   0  0  0  0  0  0  0  0  0  0  0  0
   -4.1510   -2.0610   -3.2530 H   0  0  0  0  0  0  0  0  0  0  0  0
   -4.6780   -0.3070   -3.1030 H   0  0  0  0  0  0  0  0  0  0  0  0
   -5.7470   -1.6800   -2.5670 H   0  0  0  0  0  0  0  0  0  0  0  0
   -2.1730   -1.9590   -1.7280 H   0  0  0  0  0  0  0  0  0  0  0  0
   -2.4510   -0.1720   -1.7560 H   0  0  0  0  0  0  0  0  0  0  0  0
   -2.6470    0.0100    0.5920 H   0  0  0  0  0  0  0  0  0  0  0  0
   -0.2100   -1.6150   -0.0230 H   0  0  0  0  0  0  0  0  0  0  0  0
  1 10  1  0  0  0  0
  2 11  1  6  0  0  0
  2  6  1  0  0  0  0
  2  1  1  0  0  0  0
  3  2  1  0  0  0  0
  3 12  1  0  0  0  0
  4  3  1  0  0  0  0
  5  4  2  0  0  0  0
  6  7  2  0  0  0  0
  8  4  1  0  0  0  0
  9  1  1  0  0  0  0
 13  3  1  0  0  0  0
 14  8  1  0  0  0  0
 15 16  1  0  0  0  0
 15  6  1  0  0  0  0
 16 25  1  1  0  0  0
 17 18  1  0  0  0  0
 17 16  1  0  0  0  0
 18 19  1  0  0  0  0
 19 30  1  0  0  0  0
 19 20  1  0  0  0  0
 20 33  1  0  0  0  0
 20 21  1  0  0  0  0
 20 32  1  0  0  0  0
 21 34  1  0  0  0  0
 22 16  1  0  0  0  0
 22 23  2  0  0  0  0
 24 15  1  0  0  0  0
 26 17  1  0  0  0  0
 27 17  1  0  0  0  0
 28 18  1  0  0  0  0
 29 18  1  0  0  0  0
 31 19  1  0  0  0  0
 35 21  1  0  0  0  0
 36 47  1  0  0  0  0
 37 39  1  0  0  0  0
 37 48  1  0  0  0  0
 37 36  1  0  0  0  0
 38 51  1  0  0  0  0
 38 37  1  0  0  0  0
 39 40  1  0  0  0  0
 40 41  1  0  0  0  0
 40 54  1  1  0  0  0
 40 42  1  0  0  0  0
 41 22  1  0  0  0  0
 42 44  2  0  0  0  0
 42 43  1  0  0  0  0
 45 36  1  0  0  0  0
 46 36  1  0  0  0  0
 49 38  1  0  0  0  0
 50 38  1  0  0  0  0
 52 39  1  0  0  0  0
 53 39  1  0  0  0  0
 55 41  1  0  0  0  0
M  END
$$$$
