DKM.pdb
 OpenBabel07022418153D

 53 52  0  0  1  0  0  0  0  0999 V2000
   -0.0500   -2.1790    2.7770 N   0  0  0  0  0  0  0  0  0  0  0  0
   -1.2850   -1.4320    2.8920 C   0  0  1  0  0  0  0  0  0  0  0  0
   -1.4780   -0.8560    4.2880 C   0  0  0  0  0  0  0  0  0  0  0  0
   -2.7670   -0.1270    4.3100 C   0  0  0  0  0  0  0  0  0  0  0  0
   -3.8350   -0.7160    3.9530 O   0  0  0  0  0  0  0  0  0  0  0  0
   -1.1870   -0.2390    1.9630 C   0  0  0  0  0  0  0  0  0  0  0  0
   -2.1140    0.6210    1.9400 O   0  0  0  0  0  0  0  0  0  0  0  0
   -2.7650    1.1990    4.7260 O   0  0  0  0  0  0  0  0  0  0  0  0
   -0.1860   -3.0460    2.2060 H   0  0  0  0  0  0  0  0  0  0  0  0
    0.3270   -2.4470    3.7270 H   0  0  0  0  0  0  0  0  0  0  0  0
   -2.1320   -2.0630    2.5690 H   0  0  0  0  0  0  0  0  0  0  0  0
   -1.4830   -1.6850    5.0470 H   0  0  0  0  0  0  0  0  0  0  0  0
   -0.6410   -0.1890    4.5370 H   0  0  0  0  0  0  0  0  0  0  0  0
   -3.5530    1.7970    4.4730 H   0  0  0  0  0  0  0  0  0  0  0  0
   -0.0490   -0.1010    1.1270 N   0  0  0  0  0  0  0  0  0  0  0  0
    0.1180    1.0200    0.2270 C   0  0  1  0  0  0  0  0  0  0  0  0
    1.5140    1.5900    0.3350 C   0  0  0  0  0  0  0  0  0  0  0  0
    1.8370    2.0680    1.7220 C   0  0  0  0  0  0  0  0  0  0  0  0
    3.2270    2.6350    1.8150 C   0  0  0  0  0  0  0  0  0  0  0  0
    4.3060    1.6730    1.4380 C   0  0  0  0  0  0  0  0  0  0  0  0
    4.2780    0.5140    2.2910 N   0  0  0  0  0  0  0  0  0  0  0  0
   -0.1400    0.5510   -1.1760 C   0  0  0  0  0  0  0  0  0  0  0  0
    0.0140    1.3430   -2.1550 O   0  0  0  0  0  0  0  0  0  0  0  0
    0.7170   -0.8360    1.1510 H   0  0  0  0  0  0  0  0  0  0  0  0
   -0.6540    1.7650    0.4470 H   0  0  0  0  0  0  0  0  0  0  0  0
    1.6470    2.4710   -0.3550 H   0  0  0  0  0  0  0  0  0  0  0  0
    2.2410    0.8360   -0.0360 H   0  0  0  0  0  0  0  0  0  0  0  0
    1.7330    1.2730    2.4720 H   0  0  0  0  0  0  0  0  0  0  0  0
    1.1420    2.9220    1.9820 H   0  0  0  0  0  0  0  0  0  0  0  0
    3.3720    2.8880    2.9090 H   0  0  0  0  0  0  0  0  0  0  0  0
    3.3450    3.6210    1.3090 H   0  0  0  0  0  0  0  0  0  0  0  0
    4.2570    1.3360    0.3920 H   0  0  0  0  0  0  0  0  0  0  0  0
    5.2790    2.2140    1.5970 H   0  0  0  0  0  0  0  0  0  0  0  0
    4.1370   -0.3460    1.7510 H   0  0  0  0  0  0  0  0  0  0  0  0
    3.5640    0.6290    3.0350 H   0  0  0  0  0  0  0  0  0  0  0  0
   -2.6310   -5.4050   -1.3030 C   0  0  0  0  0  0  0  0  0  0  0  0
   -2.2470   -4.0190   -2.3860 S   0  0  0  0  0  0  0  0  0  0  0  0
   -0.4750   -3.6540   -2.2540 C   0  0  0  0  0  0  0  0  0  0  0  0
   -0.0760   -2.5000   -3.1500 C   0  0  0  0  0  0  0  0  0  0  0  0
   -0.7990   -1.2340   -2.8240 C   0  0  2  0  0  0  0  0  0  0  0  0
   -0.5570   -0.7660   -1.4720 N   0  0  0  0  0  0  0  0  0  0  0  0
   -2.2480   -1.3290   -3.1280 C   0  0  0  0  0  0  0  0  0  0  0  0
   -3.1780   -1.0540   -2.3350 O   0  0  0  0  0  0  0  0  0  0  0  0
   -2.6120   -1.7540   -4.3940 O   0  0  0  0  0  0  0  0  0  0  0  0
   -2.4950   -6.3320   -1.8930 H   0  0  0  0  0  0  0  0  0  0  0  0
   -3.6490   -5.3930   -0.9110 H   0  0  0  0  0  0  0  0  0  0  0  0
   -1.9200   -5.4510   -0.4440 H   0  0  0  0  0  0  0  0  0  0  0  0
    0.0660   -4.5480   -2.6290 H   0  0  0  0  0  0  0  0  0  0  0  0
   -0.1580   -3.5100   -1.2000 H   0  0  0  0  0  0  0  0  0  0  0  0
   -0.3120   -2.7850   -4.1910 H   0  0  0  0  0  0  0  0  0  0  0  0
    1.0110   -2.3500   -2.9740 H   0  0  0  0  0  0  0  0  0  0  0  0
   -0.4180   -0.4410   -3.5000 H   0  0  0  0  0  0  0  0  0  0  0  0
   -0.6990   -1.4400   -0.6660 H   0  0  0  0  0  0  0  0  0  0  0  0
  1  2  1  0  0  0  0
  1 10  1  0  0  0  0
  2 11  1  6  0  0  0
  2  3  1  0  0  0  0
  3  4  1  0  0  0  0
  3 13  1  0  0  0  0
  3 12  1  0  0  0  0
  4  8  1  0  0  0  0
  5  4  2  0  0  0  0
  6  2  1  0  0  0  0
  7  6  2  0  0  0  0
  9  1  1  0  0  0  0
 14  8  1  0  0  0  0
 15 24  1  0  0  0  0
 15  6  1  0  0  0  0
 16 17  1  0  0  0  0
 16 25  1  1  0  0  0
 16 15  1  0  0  0  0
 17 18  1  0  0  0  0
 18 19  1  0  0  0  0
 18 29  1  0  0  0  0
 18 28  1  0  0  0  0
 19 30  1  0  0  0  0
 20 33  1  0  0  0  0
 20 19  1  0  0  0  0
 20 21  1  0  0  0  0
 21 35  1  0  0  0  0
 22 16  1  0  0  0  0
 23 22  2  0  0  0  0
 26 17  1  0  0  0  0
 27 17  1  0  0  0  0
 31 19  1  0  0  0  0
 32 20  1  0  0  0  0
 34 21  1  0  0  0  0
 36 46  1  0  0  0  0
 36 47  1  0  0  0  0
 37 38  1  0  0  0  0
 37 36  1  0  0  0  0
 38 49  1  0  0  0  0
 39 51  1  0  0  0  0
 39 40  1  0  0  0  0
 39 38  1  0  0  0  0
 40 52  1  6  0  0  0
 40 41  1  0  0  0  0
 41 22  1  0  0  0  0
 41 53  1  0  0  0  0
 42 40  1  0  0  0  0
 42 43  1  0  0  0  0
 44 42  2  0  0  0  0
 45 36  1  0  0  0  0
 48 38  1  0  0  0  0
 50 39  1  0  0  0  0
M  END
$$$$
