DKP.pdb
 OpenBabel07022418153D

 50 50  0  0  1  0  0  0  0  0999 V2000
    0.1740   -2.3270    4.2150 N   0  0  0  0  0  0  0  0  0  0  0  0
    1.4260   -2.5490    3.5310 C   0  0  1  0  0  0  0  0  0  0  0  0
    1.7040   -4.0150    3.5350 C   0  0  0  0  0  0  0  0  0  0  0  0
    1.7900   -4.4740    4.9400 C   0  0  0  0  0  0  0  0  0  0  0  0
    1.6340   -3.6560    5.8790 O   0  0  0  0  0  0  0  0  0  0  0  0
    1.3920   -1.9670    2.1610 C   0  0  0  0  0  0  0  0  0  0  0  0
    2.4280   -2.0780    1.4230 O   0  0  0  0  0  0  0  0  0  0  0  0
    2.0400   -5.7970    5.2800 O   0  0  0  0  0  0  0  0  0  0  0  0
   -0.5890   -2.8680    3.7740 H   0  0  0  0  0  0  0  0  0  0  0  0
   -0.0350   -1.3460    4.4200 H   0  0  0  0  0  0  0  0  0  0  0  0
    2.2400   -2.0270    4.0730 H   0  0  0  0  0  0  0  0  0  0  0  0
    2.6530   -4.2900    3.0370 H   0  0  0  0  0  0  0  0  0  0  0  0
    0.8330   -4.5620    3.0740 H   0  0  0  0  0  0  0  0  0  0  0  0
    1.7880   -6.1890    6.1870 H   0  0  0  0  0  0  0  0  0  0  0  0
    0.2230   -1.3210    1.7400 N   0  0  0  0  0  0  0  0  0  0  0  0
   -0.0360   -0.6770    0.4910 C   0  0  1  0  0  0  0  0  0  0  0  0
    1.2060   -0.1740   -0.2210 C   0  0  0  0  0  0  0  0  0  0  0  0
    1.9680    0.8690    0.5200 C   0  0  0  0  0  0  0  0  0  0  0  0
    1.1660    2.1360    0.7840 C   0  0  0  0  0  0  0  0  0  0  0  0
    2.1000    3.0760    1.5280 C   0  0  0  0  0  0  0  0  0  0  0  0
    1.4150    4.3150    1.8230 N   0  0  0  0  0  0  0  0  0  0  0  0
   -0.8940   -1.5320   -0.3310 C   0  0  0  0  0  0  0  0  0  0  0  0
   -1.0350   -2.7670   -0.0230 O   0  0  0  0  0  0  0  0  0  0  0  0
   -0.5830   -1.3100    2.4550 H   0  0  0  0  0  0  0  0  0  0  0  0
   -0.5920    0.2810    0.7160 H   0  0  0  0  0  0  0  0  0  0  0  0
    0.9360    0.2250   -1.2270 H   0  0  0  0  0  0  0  0  0  0  0  0
    1.9130   -1.0200   -0.4490 H   0  0  0  0  0  0  0  0  0  0  0  0
    2.3970    0.5070    1.4600 H   0  0  0  0  0  0  0  0  0  0  0  0
    2.8140    1.1780   -0.1660 H   0  0  0  0  0  0  0  0  0  0  0  0
    0.3170    1.9030    1.4480 H   0  0  0  0  0  0  0  0  0  0  0  0
    0.8650    2.6070   -0.1650 H   0  0  0  0  0  0  0  0  0  0  0  0
    2.4350    2.6180    2.4700 H   0  0  0  0  0  0  0  0  0  0  0  0
    2.9840    3.3350    0.9150 H   0  0  0  0  0  0  0  0  0  0  0  0
    1.7440    4.7520    2.6950 H   0  0  0  0  0  0  0  0  0  0  0  0
    0.3820    4.2400    1.7880 H   0  0  0  0  0  0  0  0  0  0  0  0
   -1.5710   -1.0250   -1.4530 N   0  0  0  0  0  0  0  0  0  0  0  0
   -2.3770   -1.8460   -2.3730 C   0  0  0  0  0  0  0  0  0  0  0  0
   -2.3550   -1.1330   -3.6870 C   0  0  0  0  0  0  0  0  0  0  0  0
   -1.4300    0.0620   -3.4500 C   0  0  0  0  0  0  0  0  0  0  0  0
   -1.7230    0.3110   -1.9710 C   0  0  1  0  0  0  0  0  0  0  0  0
   -3.1480    0.7830   -1.8200 C   0  0  0  0  0  0  0  0  0  0  0  0
   -3.4920    1.9090   -2.2560 O   0  0  0  0  0  0  0  0  0  0  0  0
   -4.0860   -0.0020   -1.2090 O   0  0  0  0  0  0  0  0  0  0  0  0
   -3.3560   -2.0560   -1.9520 H   0  0  0  0  0  0  0  0  0  0  0  0
   -1.8270   -2.8220   -2.4490 H   0  0  0  0  0  0  0  0  0  0  0  0
   -2.0260   -1.7490   -4.5380 H   0  0  0  0  0  0  0  0  0  0  0  0
   -3.3640   -0.7150   -3.9430 H   0  0  0  0  0  0  0  0  0  0  0  0
   -0.3940   -0.2670   -3.5300 H   0  0  0  0  0  0  0  0  0  0  0  0
   -1.7070    0.9340   -4.0430 H   0  0  0  0  0  0  0  0  0  0  0  0
   -1.1160    1.0800   -1.5180 H   0  0  0  0  0  0  0  0  0  0  0  0
  1 10  1  0  0  0  0
  2  3  1  0  0  0  0
  2 11  1  1  0  0  0
  2  1  1  0  0  0  0
  3  4  1  0  0  0  0
  4  8  1  0  0  0  0
  4  5  2  0  0  0  0
  6  2  1  0  0  0  0
  7  6  2  0  0  0  0
  8 14  1  0  0  0  0
  9  1  1  0  0  0  0
 12  3  1  0  0  0  0
 13  3  1  0  0  0  0
 15  6  1  0  0  0  0
 15 24  1  0  0  0  0
 16 25  1  1  0  0  0
 16 15  1  0  0  0  0
 17 16  1  0  0  0  0
 17 18  1  0  0  0  0
 18 19  1  0  0  0  0
 18 28  1  0  0  0  0
 19 30  1  0  0  0  0
 19 20  1  0  0  0  0
 20 21  1  0  0  0  0
 20 32  1  0  0  0  0
 21 34  1  0  0  0  0
 22 23  2  0  0  0  0
 22 16  1  0  0  0  0
 26 17  1  0  0  0  0
 27 17  1  0  0  0  0
 29 18  1  0  0  0  0
 31 19  1  0  0  0  0
 33 20  1  0  0  0  0
 35 21  1  0  0  0  0
 36 22  1  0  0  0  0
 37 44  1  0  0  0  0
 37 36  1  0  0  0  0
 38 39  1  0  0  0  0
 38 37  1  0  0  0  0
 39 40  1  0  0  0  0
 40 41  1  0  0  0  0
 40 50  1  1  0  0  0
 40 36  1  0  0  0  0
 41 43  1  0  0  0  0
 42 41  2  0  0  0  0
 45 37  1  0  0  0  0
 46 38  1  0  0  0  0
 47 38  1  0  0  0  0
 48 39  1  0  0  0  0
 49 39  1  0  0  0  0
M  END
$$$$
