DKQ.pdb
 OpenBabel07022418143D

 53 52  0  0  1  0  0  0  0  0999 V2000
   -1.1780   -0.0080    5.6300 N   0  0  0  0  0  0  0  0  0  0  0  0
   -1.8810    0.0770    4.3390 C   0  0  1  0  0  0  0  0  0  0  0  0
   -2.2750    1.4860    4.1090 C   0  0  0  0  0  0  0  0  0  0  0  0
   -3.0490    1.6000    2.8520 C   0  0  0  0  0  0  0  0  0  0  0  0
   -3.3770    0.5530    2.2500 O   0  0  0  0  0  0  0  0  0  0  0  0
   -0.9800   -0.5040    3.2870 C   0  0  0  0  0  0  0  0  0  0  0  0
   -0.6410   -1.7080    3.4750 O   0  0  0  0  0  0  0  0  0  0  0  0
   -3.4060    2.8240    2.3460 O   0  0  0  0  0  0  0  0  0  0  0  0
   -0.3760   -0.6540    5.5830 H   0  0  0  0  0  0  0  0  0  0  0  0
   -0.8570    0.9490    5.9300 H   0  0  0  0  0  0  0  0  0  0  0  0
   -2.7670   -0.5700    4.4230 H   0  0  0  0  0  0  0  0  0  0  0  0
   -1.4040    2.1790    4.1240 H   0  0  0  0  0  0  0  0  0  0  0  0
   -2.9790    1.8040    4.9320 H   0  0  0  0  0  0  0  0  0  0  0  0
   -4.2900    2.9300    1.8620 H   0  0  0  0  0  0  0  0  0  0  0  0
   -0.5060    0.1840    2.1560 N   0  0  0  0  0  0  0  0  0  0  0  0
    0.3730   -0.3690    1.1370 C   0  0  1  0  0  0  0  0  0  0  0  0
    1.3810   -1.3370    1.6180 C   0  0  0  0  0  0  0  0  0  0  0  0
    2.3720   -1.0010    2.6100 C   0  0  0  0  0  0  0  0  0  0  0  0
    3.4430   -0.0220    2.5250 C   0  0  0  0  0  0  0  0  0  0  0  0
    3.2710    1.4200    2.3780 C   0  0  0  0  0  0  0  0  0  0  0  0
    2.6900    1.9900    1.2320 N   0  0  0  0  0  0  0  0  0  0  0  0
   -0.4420   -0.9730    0.0290 C   0  0  0  0  0  0  0  0  0  0  0  0
   -1.6880   -0.9090    0.1330 O   0  0  0  0  0  0  0  0  0  0  0  0
   -0.8120    1.2060    2.0660 H   0  0  0  0  0  0  0  0  0  0  0  0
    0.9010    0.4640    0.6610 H   0  0  0  0  0  0  0  0  0  0  0  0
    1.9590   -1.6360    0.6580 H   0  0  0  0  0  0  0  0  0  0  0  0
    0.9010   -2.3220    1.9190 H   0  0  0  0  0  0  0  0  0  0  0  0
    1.8560   -0.8270    3.6390 H   0  0  0  0  0  0  0  0  0  0  0  0
    2.8710   -2.0340    2.8910 H   0  0  0  0  0  0  0  0  0  0  0  0
    4.2160   -0.3980    1.7350 H   0  0  0  0  0  0  0  0  0  0  0  0
    4.0970   -0.1480    3.4820 H   0  0  0  0  0  0  0  0  0  0  0  0
    4.2700    1.9740    2.5230 H   0  0  0  0  0  0  0  0  0  0  0  0
    2.7000    1.7990    3.3030 H   0  0  0  0  0  0  0  0  0  0  0  0
    3.3700    2.3480    0.5270 H   0  0  0  0  0  0  0  0  0  0  0  0
    1.8960    2.6190    1.4250 H   0  0  0  0  0  0  0  0  0  0  0  0
   -1.9020   -3.7140   -6.0120 N   0  0  0  0  0  0  0  0  0  0  0  0
   -0.8910   -3.0460   -5.2710 C   0  0  0  0  0  0  0  0  0  0  0  0
    0.2230   -3.6170   -5.1650 O   0  0  0  0  0  0  0  0  0  0  0  0
   -1.1080   -1.7480   -4.6550 C   0  0  0  0  0  0  0  0  0  0  0  0
   -0.4360   -1.4360   -3.3880 C   0  0  0  0  0  0  0  0  0  0  0  0
   -0.7910   -2.1640   -2.1520 C   0  0  2  0  0  0  0  0  0  0  0  0
    0.1070   -1.5990   -1.1060 N   0  0  0  0  0  0  0  0  0  0  0  0
   -0.6280   -3.6030   -2.2450 C   0  0  0  0  0  0  0  0  0  0  0  0
   -1.4020   -4.3520   -2.8960 O   0  0  0  0  0  0  0  0  0  0  0  0
    0.4620   -4.1870   -1.5660 O   0  0  0  0  0  0  0  0  0  0  0  0
   -2.4720   -4.4530   -5.5570 H   0  0  0  0  0  0  0  0  0  0  0  0
   -2.1180   -3.5030   -7.0160 H   0  0  0  0  0  0  0  0  0  0  0  0
   -2.2160   -1.5230   -4.5210 H   0  0  0  0  0  0  0  0  0  0  0  0
   -0.7910   -0.9460   -5.3990 H   0  0  0  0  0  0  0  0  0  0  0  0
    0.6990   -1.5490   -3.4930 H   0  0  0  0  0  0  0  0  0  0  0  0
   -0.5230   -0.3320   -3.1430 H   0  0  0  0  0  0  0  0  0  0  0  0
   -1.8420   -1.9300   -1.8260 H   0  0  0  0  0  0  0  0  0  0  0  0
    1.1420   -1.6630   -1.2090 H   0  0  0  0  0  0  0  0  0  0  0  0
  1 10  1  0  0  0  0
  2 11  1  1  0  0  0
  2  1  1  0  0  0  0
  3 12  1  0  0  0  0
  3  2  1  0  0  0  0
  3 13  1  0  0  0  0
  4  3  1  0  0  0  0
  5  4  2  0  0  0  0
  6  7  2  0  0  0  0
  6  2  1  0  0  0  0
  8  4  1  0  0  0  0
  9  1  1  0  0  0  0
 14  8  1  0  0  0  0
 15  6  1  0  0  0  0
 16 25  1  6  0  0  0
 16 17  1  0  0  0  0
 16 15  1  0  0  0  0
 17 27  1  0  0  0  0
 17 18  1  0  0  0  0
 18 29  1  0  0  0  0
 18 28  1  0  0  0  0
 19 18  1  0  0  0  0
 19 31  1  0  0  0  0
 20 32  1  0  0  0  0
 20 19  1  0  0  0  0
 20 33  1  0  0  0  0
 21 35  1  0  0  0  0
 21 20  1  0  0  0  0
 22 23  2  0  0  0  0
 22 16  1  0  0  0  0
 24 15  1  0  0  0  0
 26 17  1  0  0  0  0
 30 19  1  0  0  0  0
 34 21  1  0  0  0  0
 36 46  1  0  0  0  0
 36 37  1  0  0  0  0
 37 38  2  0  0  0  0
 37 39  1  0  0  0  0
 39 48  1  0  0  0  0
 39 40  1  0  0  0  0
 40 51  1  0  0  0  0
 40 41  1  0  0  0  0
 41 52  1  1  0  0  0
 41 42  1  0  0  0  0
 42 22  1  0  0  0  0
 43 41  1  0  0  0  0
 43 45  1  0  0  0  0
 44 43  2  0  0  0  0
 47 36  1  0  0  0  0
 49 39  1  0  0  0  0
 50 40  1  0  0  0  0
 53 42  1  0  0  0  0
M  END
$$$$
