DKS.pdb
 OpenBabel07022418153D

 47 46  0  0  1  0  0  0  0  0999 V2000
    1.3360   -2.8070   -0.4690 N   0  0  0  0  0  0  0  0  0  0  0  0
    1.2260   -2.9510    0.9850 C   0  0  1  0  0  0  0  0  0  0  0  0
    2.5730   -3.1020    1.6150 C   0  0  0  0  0  0  0  0  0  0  0  0
    2.4720   -3.2730    3.0590 C   0  0  0  0  0  0  0  0  0  0  0  0
    3.5560   -3.2270    3.7380 O   0  0  0  0  0  0  0  0  0  0  0  0
    0.5150   -1.7070    1.4450 C   0  0  0  0  0  0  0  0  0  0  0  0
    0.2330   -1.4830    2.6460 O   0  0  0  0  0  0  0  0  0  0  0  0
    1.3250   -3.4850    3.7960 O   0  0  0  0  0  0  0  0  0  0  0  0
    0.5420   -3.3100   -0.8980 H   0  0  0  0  0  0  0  0  0  0  0  0
    2.2390   -3.1530   -0.8380 H   0  0  0  0  0  0  0  0  0  0  0  0
    0.5670   -3.8110    1.1990 H   0  0  0  0  0  0  0  0  0  0  0  0
    3.1820   -2.1990    1.3400 H   0  0  0  0  0  0  0  0  0  0  0  0
    3.0330   -4.0150    1.1360 H   0  0  0  0  0  0  0  0  0  0  0  0
    1.2120   -3.1370    4.7380 H   0  0  0  0  0  0  0  0  0  0  0  0
    0.1100   -0.6830    0.5270 N   0  0  0  0  0  0  0  0  0  0  0  0
   -0.5750    0.5220    0.9440 C   0  0  1  0  0  0  0  0  0  0  0  0
    0.1620    1.7390    0.4370 C   0  0  0  0  0  0  0  0  0  0  0  0
    1.5660    1.8260    0.9450 C   0  0  0  0  0  0  0  0  0  0  0  0
    1.6590    1.9040    2.4500 C   0  0  0  0  0  0  0  0  0  0  0  0
    3.1460    1.9870    2.7910 C   0  0  0  0  0  0  0  0  0  0  0  0
    3.8640    0.8300    2.3130 N   0  0  0  0  0  0  0  0  0  0  0  0
   -1.9490    0.5840    0.3450 C   0  0  0  0  0  0  0  0  0  0  0  0
   -2.7420    1.5300    0.5610 O   0  0  0  0  0  0  0  0  0  0  0  0
    0.3180   -0.8160   -0.4670 H   0  0  0  0  0  0  0  0  0  0  0  0
   -0.7010    0.4870    2.0230 H   0  0  0  0  0  0  0  0  0  0  0  0
    0.2200    1.6570   -0.6710 H   0  0  0  0  0  0  0  0  0  0  0  0
   -0.3650    2.6780    0.6660 H   0  0  0  0  0  0  0  0  0  0  0  0
    2.0270    2.7320    0.5050 H   0  0  0  0  0  0  0  0  0  0  0  0
    2.1290    0.9580    0.5400 H   0  0  0  0  0  0  0  0  0  0  0  0
    1.1440    1.0940    2.9640 H   0  0  0  0  0  0  0  0  0  0  0  0
    1.2190    2.8590    2.8030 H   0  0  0  0  0  0  0  0  0  0  0  0
    3.3220    2.1360    3.8710 H   0  0  0  0  0  0  0  0  0  0  0  0
    3.5410    2.8690    2.2180 H   0  0  0  0  0  0  0  0  0  0  0  0
    4.0360    0.8450    1.2880 H   0  0  0  0  0  0  0  0  0  0  0  0
    3.4210   -0.0650    2.6160 H   0  0  0  0  0  0  0  0  0  0  0  0
   -2.9890    0.7490   -3.0190 O   0  0  0  0  0  0  0  0  0  0  0  0
   -3.6490   -0.4150   -2.6370 C   0  0  0  0  0  0  0  0  0  0  0  0
   -3.7140   -0.4630   -1.1220 C   0  0  2  0  0  0  0  0  0  0  0  0
   -2.4170   -0.4630   -0.5200 N   0  0  0  0  0  0  0  0  0  0  0  0
   -4.5240   -1.6390   -0.7540 C   0  0  0  0  0  0  0  0  0  0  0  0
   -5.6940   -1.7700   -1.2160 O   0  0  0  0  0  0  0  0  0  0  0  0
   -4.0720   -2.6520    0.0970 O   0  0  0  0  0  0  0  0  0  0  0  0
   -3.5880    1.5230   -2.8160 H   0  0  0  0  0  0  0  0  0  0  0  0
   -3.2110   -1.3220   -3.0740 H   0  0  0  0  0  0  0  0  0  0  0  0
   -4.6960   -0.3100   -2.9950 H   0  0  0  0  0  0  0  0  0  0  0  0
   -4.2630    0.4500   -0.8070 H   0  0  0  0  0  0  0  0  0  0  0  0
   -1.7360   -1.2520   -0.6930 H   0  0  0  0  0  0  0  0  0  0  0  0
  1  2  1  0  0  0  0
  2 11  1  1  0  0  0
  2  6  1  0  0  0  0
  2  3  1  0  0  0  0
  3  4  1  0  0  0  0
  4  5  2  0  0  0  0
  4  8  1  0  0  0  0
  6  7  2  0  0  0  0
  8 14  1  0  0  0  0
  9  1  1  0  0  0  0
 10  1  1  0  0  0  0
 12  3  1  0  0  0  0
 13  3  1  0  0  0  0
 15 16  1  0  0  0  0
 15  6  1  0  0  0  0
 16 25  1  1  0  0  0
 17 27  1  0  0  0  0
 17 16  1  0  0  0  0
 17 18  1  0  0  0  0
 18 19  1  0  0  0  0
 19 20  1  0  0  0  0
 19 31  1  0  0  0  0
 19 30  1  0  0  0  0
 20 32  1  0  0  0  0
 21 35  1  0  0  0  0
 21 20  1  0  0  0  0
 22 23  2  0  0  0  0
 22 16  1  0  0  0  0
 24 15  1  0  0  0  0
 26 17  1  0  0  0  0
 28 18  1  0  0  0  0
 29 18  1  0  0  0  0
 33 20  1  0  0  0  0
 34 21  1  0  0  0  0
 36 43  1  0  0  0  0
 36 37  1  0  0  0  0
 37 38  1  0  0  0  0
 38 46  1  1  0  0  0
 38 40  1  0  0  0  0
 38 39  1  0  0  0  0
 39 22  1  0  0  0  0
 40 42  1  0  0  0  0
 41 40  2  0  0  0  0
 44 37  1  0  0  0  0
 45 37  1  0  0  0  0
 47 39  1  0  0  0  0
M  END
$$$$
