DKT.pdb
 OpenBabel07022418153D

 50 49  0  0  1  0  0  0  0  0999 V2000
    0.7400   -1.6580    4.0840 N   0  0  0  0  0  0  0  0  0  0  0  0
    1.0170   -2.3190    2.8590 C   0  0  1  0  0  0  0  0  0  0  0  0
    0.1580   -3.5830    2.7880 C   0  0  0  0  0  0  0  0  0  0  0  0
   -1.2860   -3.2870    2.8820 C   0  0  0  0  0  0  0  0  0  0  0  0
   -1.7250   -2.5800    3.8620 O   0  0  0  0  0  0  0  0  0  0  0  0
    0.9640   -1.5130    1.6380 C   0  0  0  0  0  0  0  0  0  0  0  0
    1.3710   -2.0770    0.5620 O   0  0  0  0  0  0  0  0  0  0  0  0
   -2.2350   -3.7210    1.9720 O   0  0  0  0  0  0  0  0  0  0  0  0
    0.5170   -2.3750    4.8170 H   0  0  0  0  0  0  0  0  0  0  0  0
   -0.0520   -0.9860    4.0700 H   0  0  0  0  0  0  0  0  0  0  0  0
    2.0900   -2.6970    2.9440 H   0  0  0  0  0  0  0  0  0  0  0  0
    0.4480   -4.2470    3.6450 H   0  0  0  0  0  0  0  0  0  0  0  0
    0.3590   -4.1540    1.8820 H   0  0  0  0  0  0  0  0  0  0  0  0
   -3.1000   -3.1620    1.8910 H   0  0  0  0  0  0  0  0  0  0  0  0
    0.5050   -0.1700    1.5340 N   0  0  0  0  0  0  0  0  0  0  0  0
    0.4510    0.6240    0.3670 C   0  0  1  0  0  0  0  0  0  0  0  0
    1.7980    1.0100   -0.1850 C   0  0  0  0  0  0  0  0  0  0  0  0
    2.6560    1.8110    0.7460 C   0  0  0  0  0  0  0  0  0  0  0  0
    2.0310    3.1280    1.1510 C   0  0  0  0  0  0  0  0  0  0  0  0
    2.9750    3.8770    2.0840 C   0  0  0  0  0  0  0  0  0  0  0  0
    2.3680    5.1380    2.4750 N   0  0  0  0  0  0  0  0  0  0  0  0
   -0.3590    0.1440   -0.7600 C   0  0  0  0  0  0  0  0  0  0  0  0
   -0.3990    0.8350   -1.8580 O   0  0  0  0  0  0  0  0  0  0  0  0
    0.1890    0.2210    2.4820 H   0  0  0  0  0  0  0  0  0  0  0  0
   -0.0380    1.6070    0.6660 H   0  0  0  0  0  0  0  0  0  0  0  0
    1.6100    1.6130   -1.0920 H   0  0  0  0  0  0  0  0  0  0  0  0
    2.3340    0.0900   -0.4430 H   0  0  0  0  0  0  0  0  0  0  0  0
    2.9440    1.2760    1.6570 H   0  0  0  0  0  0  0  0  0  0  0  0
    3.5880    2.0620    0.2030 H   0  0  0  0  0  0  0  0  0  0  0  0
    1.0690    2.9790    1.6440 H   0  0  0  0  0  0  0  0  0  0  0  0
    1.8520    3.7860    0.2700 H   0  0  0  0  0  0  0  0  0  0  0  0
    3.9570    4.0500    1.6010 H   0  0  0  0  0  0  0  0  0  0  0  0
    3.1010    3.2390    2.9720 H   0  0  0  0  0  0  0  0  0  0  0  0
    1.3470    5.0250    2.4500 H   0  0  0  0  0  0  0  0  0  0  0  0
    2.6520    5.3600    3.4680 H   0  0  0  0  0  0  0  0  0  0  0  0
   -1.5670   -3.7690   -1.5300 C   0  0  0  0  0  0  0  0  0  0  0  0
   -1.2900   -2.7030   -2.5430 C   0  0  1  0  0  0  0  0  0  0  0  0
   -2.0080   -3.0810   -3.7020 O   0  0  0  0  0  0  0  0  0  0  0  0
   -1.9060   -1.4010   -1.9970 C   0  0  2  0  0  0  0  0  0  0  0  0
   -1.1400   -1.0280   -0.8010 N   0  0  0  0  0  0  0  0  0  0  0  0
   -3.3030   -1.7230   -1.6550 C   0  0  0  0  0  0  0  0  0  0  0  0
   -4.0790   -2.0800   -2.5740 O   0  0  0  0  0  0  0  0  0  0  0  0
   -3.7590   -1.6390   -0.3670 O   0  0  0  0  0  0  0  0  0  0  0  0
   -2.2760   -3.4300   -0.7430 H   0  0  0  0  0  0  0  0  0  0  0  0
   -2.0650   -4.6860   -1.9650 H   0  0  0  0  0  0  0  0  0  0  0  0
   -0.5940   -4.1260   -1.1330 H   0  0  0  0  0  0  0  0  0  0  0  0
   -0.2460   -2.5800   -2.8290 H   0  0  0  0  0  0  0  0  0  0  0  0
   -1.6740   -4.0020   -3.9050 H   0  0  0  0  0  0  0  0  0  0  0  0
   -1.8370   -0.6170   -2.7710 H   0  0  0  0  0  0  0  0  0  0  0  0
   -1.2100   -1.6730    0.0280 H   0  0  0  0  0  0  0  0  0  0  0  0
  1  9  1  0  0  0  0
  2 11  1  1  0  0  0
  2  1  1  0  0  0  0
  3  2  1  0  0  0  0
  3  4  1  0  0  0  0
  3 12  1  0  0  0  0
  4  5  2  0  0  0  0
  6  2  1  0  0  0  0
  7  6  2  0  0  0  0
  8  4  1  0  0  0  0
 10  1  1  0  0  0  0
 13  3  1  0  0  0  0
 14  8  1  0  0  0  0
 15  6  1  0  0  0  0
 15 24  1  0  0  0  0
 16 25  1  1  0  0  0
 16 15  1  0  0  0  0
 17 16  1  0  0  0  0
 17 18  1  0  0  0  0
 18 19  1  0  0  0  0
 18 28  1  0  0  0  0
 19 30  1  0  0  0  0
 19 20  1  0  0  0  0
 20 21  1  0  0  0  0
 20 33  1  0  0  0  0
 21 35  1  0  0  0  0
 22 16  1  0  0  0  0
 23 22  2  0  0  0  0
 26 17  1  0  0  0  0
 27 17  1  0  0  0  0
 29 18  1  0  0  0  0
 31 19  1  0  0  0  0
 32 20  1  0  0  0  0
 34 21  1  0  0  0  0
 36 46  1  0  0  0  0
 36 44  1  0  0  0  0
 37 47  1  6  0  0  0
 37 39  1  0  0  0  0
 37 36  1  0  0  0  0
 38 37  1  0  0  0  0
 39 49  1  6  0  0  0
 39 41  1  0  0  0  0
 39 40  1  0  0  0  0
 40 22  1  0  0  0  0
 40 50  1  0  0  0  0
 41 43  1  0  0  0  0
 42 41  2  0  0  0  0
 45 36  1  0  0  0  0
 48 38  1  0  0  0  0
M  END
$$$$
