DKV.pdb
 OpenBabel07022418153D

 52 51  0  0  1  0  0  0  0  0999 V2000
    2.4240   -3.6520    0.8580 N   0  0  0  0  0  0  0  0  0  0  0  0
    1.3680   -2.8300    1.3880 C   0  0  1  0  0  0  0  0  0  0  0  0
    1.5520   -2.6460    2.8670 C   0  0  0  0  0  0  0  0  0  0  0  0
    1.5160   -3.9950    3.4910 C   0  0  0  0  0  0  0  0  0  0  0  0
    1.3560   -5.0450    2.8290 O   0  0  0  0  0  0  0  0  0  0  0  0
    1.2990   -1.5190    0.6690 C   0  0  0  0  0  0  0  0  0  0  0  0
    2.1250   -1.3270   -0.2460 O   0  0  0  0  0  0  0  0  0  0  0  0
    1.6620   -4.1560    4.8820 O   0  0  0  0  0  0  0  0  0  0  0  0
    3.0420   -3.1680    0.1810 H   0  0  0  0  0  0  0  0  0  0  0  0
    2.0630   -4.5550    0.4700 H   0  0  0  0  0  0  0  0  0  0  0  0
    0.4030   -3.3860    1.2420 H   0  0  0  0  0  0  0  0  0  0  0  0
    2.6060   -2.2750    3.0210 H   0  0  0  0  0  0  0  0  0  0  0  0
    0.8480   -1.9510    3.3210 H   0  0  0  0  0  0  0  0  0  0  0  0
    1.2440   -4.9740    5.3490 H   0  0  0  0  0  0  0  0  0  0  0  0
    0.3460   -0.5610    1.0200 N   0  0  0  0  0  0  0  0  0  0  0  0
    0.1450    0.7390    0.4610 C   0  0  1  0  0  0  0  0  0  0  0  0
    1.3890    1.3000   -0.1880 C   0  0  0  0  0  0  0  0  0  0  0  0
    2.5080    1.4910    0.7620 C   0  0  0  0  0  0  0  0  0  0  0  0
    2.1860    2.4650    1.8830 C   0  0  0  0  0  0  0  0  0  0  0  0
    3.4030    2.6060    2.8100 C   0  0  0  0  0  0  0  0  0  0  0  0
    3.1270    3.5230    3.8830 N   0  0  0  0  0  0  0  0  0  0  0  0
   -1.0520    0.7660   -0.3850 C   0  0  0  0  0  0  0  0  0  0  0  0
   -1.3940    1.8000   -0.9570 O   0  0  0  0  0  0  0  0  0  0  0  0
   -0.3200   -0.8470    1.8130 H   0  0  0  0  0  0  0  0  0  0  0  0
   -0.0750    1.4410    1.3380 H   0  0  0  0  0  0  0  0  0  0  0  0
    1.1350    2.3350   -0.5920 H   0  0  0  0  0  0  0  0  0  0  0  0
    1.7100    0.7470   -1.0720 H   0  0  0  0  0  0  0  0  0  0  0  0
    2.9500    0.6220    1.2380 H   0  0  0  0  0  0  0  0  0  0  0  0
    3.3520    1.9700    0.1780 H   0  0  0  0  0  0  0  0  0  0  0  0
    1.3680    2.1630    2.5300 H   0  0  0  0  0  0  0  0  0  0  0  0
    1.9630    3.4750    1.4860 H   0  0  0  0  0  0  0  0  0  0  0  0
    4.2860    2.9710    2.2610 H   0  0  0  0  0  0  0  0  0  0  0  0
    3.6450    1.5840    3.2040 H   0  0  0  0  0  0  0  0  0  0  0  0
    2.2890    4.0920    3.6320 H   0  0  0  0  0  0  0  0  0  0  0  0
    2.9440    3.0850    4.7930 H   0  0  0  0  0  0  0  0  0  0  0  0
   -4.2760   -1.5440   -3.1490 C   0  0  0  0  0  0  0  0  0  0  0  0
   -2.9400   -1.5370   -2.4260 C   0  0  0  0  0  0  0  0  0  0  0  0
   -2.7970   -2.9560   -1.8900 C   0  0  0  0  0  0  0  0  0  0  0  0
   -3.0020   -0.5330   -1.3310 C   0  0  2  0  0  0  0  0  0  0  0  0
   -1.8140   -0.3910   -0.5460 N   0  0  0  0  0  0  0  0  0  0  0  0
   -4.1290   -0.8040   -0.4130 C   0  0  0  0  0  0  0  0  0  0  0  0
   -3.9410   -0.8850    0.8240 O   0  0  0  0  0  0  0  0  0  0  0  0
   -5.4280   -0.9800   -0.8560 O   0  0  0  0  0  0  0  0  0  0  0  0
   -4.7990   -0.5500   -3.0510 H   0  0  0  0  0  0  0  0  0  0  0  0
   -4.9670   -2.2930   -2.7110 H   0  0  0  0  0  0  0  0  0  0  0  0
   -4.1470   -1.7450   -4.2350 H   0  0  0  0  0  0  0  0  0  0  0  0
   -2.1960   -1.3170   -3.2050 H   0  0  0  0  0  0  0  0  0  0  0  0
   -1.9240   -3.0720   -1.2360 H   0  0  0  0  0  0  0  0  0  0  0  0
   -3.7460   -3.1430   -1.3090 H   0  0  0  0  0  0  0  0  0  0  0  0
   -2.7980   -3.6530   -2.7330 H   0  0  0  0  0  0  0  0  0  0  0  0
   -3.1980    0.4620   -1.7900 H   0  0  0  0  0  0  0  0  0  0  0  0
   -1.5020   -1.2610   -0.0470 H   0  0  0  0  0  0  0  0  0  0  0  0
  1  2  1  0  0  0  0
  2 11  1  6  0  0  0
  2  3  1  0  0  0  0
  3 12  1  0  0  0  0
  3 13  1  0  0  0  0
  3  4  1  0  0  0  0
  4  8  1  0  0  0  0
  5  4  2  0  0  0  0
  6 15  1  0  0  0  0
  6  2  1  0  0  0  0
  7  6  2  0  0  0  0
  8 14  1  0  0  0  0
  9  1  1  0  0  0  0
 10  1  1  0  0  0  0
 15 24  1  0  0  0  0
 16 15  1  0  0  0  0
 16 25  1  1  0  0  0
 17 16  1  0  0  0  0
 17 18  1  0  0  0  0
 18 28  1  0  0  0  0
 18 19  1  0  0  0  0
 19 30  1  0  0  0  0
 19 20  1  0  0  0  0
 20 33  1  0  0  0  0
 20 21  1  0  0  0  0
 21 35  1  0  0  0  0
 22 16  1  0  0  0  0
 23 22  2  0  0  0  0
 26 17  1  0  0  0  0
 27 17  1  0  0  0  0
 29 18  1  0  0  0  0
 31 19  1  0  0  0  0
 32 20  1  0  0  0  0
 34 21  1  0  0  0  0
 36 44  1  0  0  0  0
 36 45  1  0  0  0  0
 36 37  1  0  0  0  0
 37 38  1  0  0  0  0
 37 39  1  0  0  0  0
 38 49  1  0  0  0  0
 38 48  1  0  0  0  0
 39 51  1  6  0  0  0
 39 40  1  0  0  0  0
 39 41  1  0  0  0  0
 40 22  1  0  0  0  0
 40 52  1  0  0  0  0
 41 42  1  0  0  0  0
 43 41  2  0  0  0  0
 46 36  1  0  0  0  0
 47 37  1  0  0  0  0
 50 38  1  0  0  0  0
M  END
$$$$
