DKW.pdb
 OpenBabel07022418153D

 60 61  0  0  1  0  0  0  0  0999 V2000
   -0.4720   -1.6850    3.4790 N   0  0  0  0  0  0  0  0  0  0  0  0
   -1.5330   -0.7460    3.3360 C   0  0  1  0  0  0  0  0  0  0  0  0
   -1.7550    0.0770    4.5710 C   0  0  0  0  0  0  0  0  0  0  0  0
   -0.5880    0.8860    4.9730 C   0  0  0  0  0  0  0  0  0  0  0  0
    0.4680    0.8460    4.2780 O   0  0  0  0  0  0  0  0  0  0  0  0
   -1.3530    0.1510    2.1620 C   0  0  0  0  0  0  0  0  0  0  0  0
   -2.0080    1.1710    2.0440 O   0  0  0  0  0  0  0  0  0  0  0  0
   -0.6450    1.6830    6.1010 O   0  0  0  0  0  0  0  0  0  0  0  0
    0.4390   -1.2500    3.3030 H   0  0  0  0  0  0  0  0  0  0  0  0
   -0.6160   -2.4920    2.8380 H   0  0  0  0  0  0  0  0  0  0  0  0
   -2.4880   -1.3260    3.1480 H   0  0  0  0  0  0  0  0  0  0  0  0
   -2.5990    0.8040    4.3950 H   0  0  0  0  0  0  0  0  0  0  0  0
   -2.1150   -0.5710    5.4050 H   0  0  0  0  0  0  0  0  0  0  0  0
   -0.0240    2.4500    6.2750 H   0  0  0  0  0  0  0  0  0  0  0  0
   -0.3870   -0.1990    1.1500 N   0  0  0  0  0  0  0  0  0  0  0  0
   -0.1150    0.5830   -0.0200 C   0  0  1  0  0  0  0  0  0  0  0  0
    1.3120    0.6570   -0.4250 C   0  0  0  0  0  0  0  0  0  0  0  0
    2.2560    1.2450    0.5610 C   0  0  0  0  0  0  0  0  0  0  0  0
    1.9280    2.6660    0.9610 C   0  0  0  0  0  0  0  0  0  0  0  0
    2.9160    3.2250    1.9410 C   0  0  0  0  0  0  0  0  0  0  0  0
    3.0260    2.5060    3.1740 N   0  0  0  0  0  0  0  0  0  0  0  0
   -0.8790   -0.0030   -1.1820 C   0  0  0  0  0  0  0  0  0  0  0  0
   -0.6570    0.4640   -2.3210 O   0  0  0  0  0  0  0  0  0  0  0  0
    0.1250   -1.0930    1.3120 H   0  0  0  0  0  0  0  0  0  0  0  0
   -0.5920    1.5910    0.1830 H   0  0  0  0  0  0  0  0  0  0  0  0
    1.6860   -0.3880   -0.6260 H   0  0  0  0  0  0  0  0  0  0  0  0
    1.4530    1.1770   -1.4140 H   0  0  0  0  0  0  0  0  0  0  0  0
    2.4490    0.5890    1.4080 H   0  0  0  0  0  0  0  0  0  0  0  0
    3.2510    1.3300    0.0170 H   0  0  0  0  0  0  0  0  0  0  0  0
    1.8980    3.3430    0.0840 H   0  0  0  0  0  0  0  0  0  0  0  0
    0.9260    2.7350    1.4400 H   0  0  0  0  0  0  0  0  0  0  0  0
    3.9200    3.3920    1.4940 H   0  0  0  0  0  0  0  0  0  0  0  0
    2.5570    4.2600    2.2060 H   0  0  0  0  0  0  0  0  0  0  0  0
    3.9970    2.3520    3.5070 H   0  0  0  0  0  0  0  0  0  0  0  0
    2.3690    2.8290    3.9030 H   0  0  0  0  0  0  0  0  0  0  0  0
   -1.8320   -1.0410   -1.0610 N   0  0  0  0  0  0  0  0  0  0  0  0
   -2.5510   -1.5740   -2.1850 C   0  0  1  0  0  0  0  0  0  0  0  0
   -2.4570   -3.0350   -2.4100 C   0  0  0  0  0  0  0  0  0  0  0  0
   -1.1200   -3.5720   -2.6600 C   0  0  0  0  0  0  0  0  0  0  0  0
   -0.6180   -3.8990   -3.9350 C   0  0  0  0  0  0  0  0  0  0  0  0
    0.6350   -4.3600   -3.8130 N   0  0  0  0  0  0  0  0  0  0  0  0
    1.0070   -4.3620   -2.5210 C   0  0  0  0  0  0  0  0  0  0  0  0
    2.1890   -4.7550   -1.9260 C   0  0  0  0  0  0  0  0  0  0  0  0
    2.2780   -4.6470   -0.5560 C   0  0  0  0  0  0  0  0  0  0  0  0
    1.2060   -4.1590    0.1940 C   0  0  0  0  0  0  0  0  0  0  0  0
    0.0330   -3.7770   -0.4430 C   0  0  0  0  0  0  0  0  0  0  0  0
   -0.0820   -3.8730   -1.8050 C   0  0  0  0  0  0  0  0  0  0  0  0
   -3.9670   -1.0950   -2.1860 C   0  0  0  0  0  0  0  0  0  0  0  0
   -4.7700   -1.3980   -3.0940 O   0  0  0  0  0  0  0  0  0  0  0  0
   -4.4060   -0.2920   -1.1510 O   0  0  0  0  0  0  0  0  0  0  0  0
   -2.0180   -1.4170   -0.1080 H   0  0  0  0  0  0  0  0  0  0  0  0
   -2.1070   -1.0570   -3.0970 H   0  0  0  0  0  0  0  0  0  0  0  0
   -2.8330   -3.5590   -1.4670 H   0  0  0  0  0  0  0  0  0  0  0  0
   -3.1720   -3.3960   -3.1920 H   0  0  0  0  0  0  0  0  0  0  0  0
   -1.2050   -3.7720   -4.8290 H   0  0  0  0  0  0  0  0  0  0  0  0
    1.2350   -4.6760   -4.6240 H   0  0  0  0  0  0  0  0  0  0  0  0
    3.0420   -5.1420   -2.4590 H   0  0  0  0  0  0  0  0  0  0  0  0
    3.1630   -4.9310   -0.0140 H   0  0  0  0  0  0  0  0  0  0  0  0
    1.2220   -4.0570    1.2690 H   0  0  0  0  0  0  0  0  0  0  0  0
   -0.8200   -3.4010    0.1050 H   0  0  0  0  0  0  0  0  0  0  0  0
  2 11  1  6  0  0  0
  2  1  1  0  0  0  0
  2  3  1  0  0  0  0
  3  4  1  0  0  0  0
  3 13  1  0  0  0  0
  4  8  1  0  0  0  0
  5  4  2  0  0  0  0
  6  2  1  0  0  0  0
  7  6  2  0  0  0  0
  8 14  1  0  0  0  0
  9  1  1  0  0  0  0
 10  1  1  0  0  0  0
 12  3  1  0  0  0  0
 15 24  1  0  0  0  0
 15  6  1  0  0  0  0
 16 25  1  1  0  0  0
 16 15  1  0  0  0  0
 17 16  1  0  0  0  0
 17 18  1  0  0  0  0
 18 19  1  0  0  0  0
 18 28  1  0  0  0  0
 19 31  1  0  0  0  0
 19 20  1  0  0  0  0
 20 33  1  0  0  0  0
 20 21  1  0  0  0  0
 21 34  1  0  0  0  0
 21 35  1  0  0  0  0
 22 36  1  0  0  0  0
 22 16  1  0  0  0  0
 23 22  2  0  0  0  0
 26 17  1  0  0  0  0
 27 17  1  0  0  0  0
 29 18  1  0  0  0  0
 30 19  1  0  0  0  0
 32 20  1  0  0  0  0
 36 51  1  0  0  0  0
 37 52  1  6  0  0  0
 37 36  1  0  0  0  0
 38 37  1  0  0  0  0
 38 53  1  0  0  0  0
 39 38  1  0  0  0  0
 39 47  1  0  0  0  0
 40 41  1  0  0  0  0
 40 39  2  0  0  0  0
 41 42  1  0  0  0  0
 42 43  2  0  0  0  0
 42 47  1  0  0  0  0
 43 44  1  0  0  0  0
 44 58  1  0  0  0  0
 44 45  2  0  0  0  0
 45 59  1  0  0  0  0
 46 60  1  0  0  0  0
 46 45  1  0  0  0  0
 47 46  2  0  0  0  0
 48 37  1  0  0  0  0
 48 50  1  0  0  0  0
 49 48  2  0  0  0  0
 54 38  1  0  0  0  0
 55 40  1  0  0  0  0
 56 41  1  0  0  0  0
 57 43  1  0  0  0  0
M  END
$$$$
