DLD.pdb
 OpenBabel07022418143D

 47 46  0  0  1  0  0  0  0  0999 V2000
    2.6560   -3.6270    0.6890 N   0  0  0  0  0  0  0  0  0  0  0  0
    2.3060   -3.4070    2.0970 C   0  0  1  0  0  0  0  0  0  0  0  0
    3.5740   -3.2670    2.9240 C   0  0  0  0  0  0  0  0  0  0  0  0
    3.3110   -3.0450    4.3450 C   0  0  0  0  0  0  0  0  0  0  0  0
    3.1130   -1.8990    4.7910 O   0  0  0  0  0  0  0  0  0  0  0  0
    1.4200   -2.2090    2.2180 C   0  0  0  0  0  0  0  0  0  0  0  0
    0.9520   -1.8380    3.3230 O   0  0  0  0  0  0  0  0  0  0  0  0
    3.2770   -4.1100    5.2310 O   0  0  0  0  0  0  0  0  0  0  0  0
    3.4760   -4.2850    0.6900 H   0  0  0  0  0  0  0  0  0  0  0  0
    1.8730   -4.1680    0.2160 H   0  0  0  0  0  0  0  0  0  0  0  0
    1.8090   -4.3370    2.4370 H   0  0  0  0  0  0  0  0  0  0  0  0
    4.2090   -4.1640    2.7790 H   0  0  0  0  0  0  0  0  0  0  0  0
    4.1740   -2.4200    2.4830 H   0  0  0  0  0  0  0  0  0  0  0  0
    2.7180   -4.0220    6.0880 H   0  0  0  0  0  0  0  0  0  0  0  0
    0.6780    0.9880   -1.7130 C   0  0  0  0  0  0  0  0  0  0  0  0
    1.5650    1.1250   -0.5260 C   0  0  0  0  0  0  0  0  0  0  0  0
    2.8360    0.2950   -0.6480 C   0  0  0  0  0  0  0  0  0  0  0  0
    0.9130    1.0100    0.8030 C   0  0  0  0  0  0  0  0  0  0  0  0
    0.2120   -0.2600    1.1230 C   0  0  2  0  0  0  0  0  0  0  0  0
    1.0590   -1.4250    1.0900 N   0  0  0  0  0  0  0  0  0  0  0  0
   -1.0290   -0.5380    0.4170 C   0  0  0  0  0  0  0  0  0  0  0  0
   -1.2000   -1.6720   -0.0990 O   0  0  0  0  0  0  0  0  0  0  0  0
    0.0350    0.1200   -1.7560 H   0  0  0  0  0  0  0  0  0  0  0  0
    1.3350    0.9520   -2.6130 H   0  0  0  0  0  0  0  0  0  0  0  0
    0.0860    1.9240   -1.8130 H   0  0  0  0  0  0  0  0  0  0  0  0
    1.9340    2.2000   -0.5610 H   0  0  0  0  0  0  0  0  0  0  0  0
    3.1800   -0.0910    0.3330 H   0  0  0  0  0  0  0  0  0  0  0  0
    3.7040    0.9140   -1.0200 H   0  0  0  0  0  0  0  0  0  0  0  0
    2.7270   -0.4970   -1.4240 H   0  0  0  0  0  0  0  0  0  0  0  0
    1.7350    1.1450    1.5690 H   0  0  0  0  0  0  0  0  0  0  0  0
    0.2590    1.8880    0.9460 H   0  0  0  0  0  0  0  0  0  0  0  0
   -0.0950   -0.1650    2.2180 H   0  0  0  0  0  0  0  0  0  0  0  0
    1.4430   -1.7320    0.1770 H   0  0  0  0  0  0  0  0  0  0  0  0
   -2.1060    0.3810    0.2490 N   0  0  0  0  0  0  0  0  0  0  0  0
   -3.3170    0.1070   -0.4390 C   0  0  1  0  0  0  0  0  0  0  0  0
   -4.5630    0.2130    0.3940 C   0  0  0  0  0  0  0  0  0  0  0  0
   -4.7760    1.5580    0.9740 C   0  0  0  0  0  0  0  0  0  0  0  0
   -5.7820    1.7490    1.6980 O   0  0  0  0  0  0  0  0  0  0  0  0
   -3.4840    1.0360   -1.5880 C   0  0  0  0  0  0  0  0  0  0  0  0
   -2.6550    1.9320   -1.8830 O   0  0  0  0  0  0  0  0  0  0  0  0
   -3.9090    2.5820    0.7380 O   0  0  0  0  0  0  0  0  0  0  0  0
   -4.6200    0.9080   -2.3780 O   0  0  0  0  0  0  0  0  0  0  0  0
   -1.9570    1.3180    0.6780 H   0  0  0  0  0  0  0  0  0  0  0  0
   -3.3450   -0.9310   -0.8800 H   0  0  0  0  0  0  0  0  0  0  0  0
   -4.6620   -0.6020    1.1390 H   0  0  0  0  0  0  0  0  0  0  0  0
   -5.4200    0.0460   -0.3200 H   0  0  0  0  0  0  0  0  0  0  0  0
   -3.9250    3.4810    1.2450 H   0  0  0  0  0  0  0  0  0  0  0  0
  1  9  1  0  0  0  0
  1  2  1  0  0  0  0
  2  6  1  0  0  0  0
  2 11  1  1  0  0  0
  2  3  1  0  0  0  0
  3  4  1  0  0  0  0
  4  5  2  0  0  0  0
  4  8  1  0  0  0  0
  6  7  2  0  0  0  0
  8 14  1  0  0  0  0
 10  1  1  0  0  0  0
 12  3  1  0  0  0  0
 13  3  1  0  0  0  0
 15 16  1  0  0  0  0
 16 18  1  0  0  0  0
 17 16  1  0  0  0  0
 17 27  1  0  0  0  0
 18 31  1  0  0  0  0
 18 19  1  0  0  0  0
 18 30  1  0  0  0  0
 19 32  1  1  0  0  0
 20 19  1  0  0  0  0
 20  6  1  0  0  0  0
 21 19  1  0  0  0  0
 22 21  2  0  0  0  0
 23 15  1  0  0  0  0
 24 15  1  0  0  0  0
 25 15  1  0  0  0  0
 26 16  1  0  0  0  0
 28 17  1  0  0  0  0
 29 17  1  0  0  0  0
 33 20  1  0  0  0  0
 34 21  1  0  0  0  0
 34 43  1  0  0  0  0
 35 44  1  6  0  0  0
 35 34  1  0  0  0  0
 35 36  1  0  0  0  0
 36 37  1  0  0  0  0
 36 45  1  0  0  0  0
 37 38  2  0  0  0  0
 39 35  1  0  0  0  0
 40 39  1  0  0  0  0
 41 37  1  0  0  0  0
 41 47  1  0  0  0  0
 42 39  2  0  0  0  0
 46 36  1  0  0  0  0
M  END
$$$$
