DLE.pdb
 OpenBabel07022418143D

 50 49  0  0  1  0  0  0  0  0999 V2000
    1.7230   -2.8180    4.4530 N   0  0  0  0  0  0  0  0  0  0  0  0
    0.6370   -1.9320    4.6830 C   0  0  1  0  0  0  0  0  0  0  0  0
    0.7570   -1.0120    5.8530 C   0  0  0  0  0  0  0  0  0  0  0  0
    1.9120   -0.0890    5.7980 C   0  0  0  0  0  0  0  0  0  0  0  0
    3.0980   -0.4770    5.7150 O   0  0  0  0  0  0  0  0  0  0  0  0
    0.3050   -1.1940    3.4260 C   0  0  0  0  0  0  0  0  0  0  0  0
   -0.6240   -0.3110    3.4340 O   0  0  0  0  0  0  0  0  0  0  0  0
    1.7180    1.3110    5.8390 O   0  0  0  0  0  0  0  0  0  0  0  0
    1.5960   -3.6690    5.0370 H   0  0  0  0  0  0  0  0  0  0  0  0
    2.6660   -2.4580    4.5990 H   0  0  0  0  0  0  0  0  0  0  0  0
   -0.2740   -2.5730    4.8970 H   0  0  0  0  0  0  0  0  0  0  0  0
    0.6980   -1.5490    6.8260 H   0  0  0  0  0  0  0  0  0  0  0  0
   -0.1730   -0.3700    5.8390 H   0  0  0  0  0  0  0  0  0  0  0  0
    2.4750    1.9520    6.0630 H   0  0  0  0  0  0  0  0  0  0  0  0
    2.9090    1.8130   -0.9230 C   0  0  0  0  0  0  0  0  0  0  0  0
    1.5960    1.0750   -0.6310 C   0  0  0  0  0  0  0  0  0  0  0  0
    0.4800    2.0890   -0.4670 C   0  0  0  0  0  0  0  0  0  0  0  0
    1.7530    0.1910    0.5590 C   0  0  0  0  0  0  0  0  0  0  0  0
    0.5630   -0.6120    0.9680 C   0  0  2  0  0  0  0  0  0  0  0  0
    0.9510   -1.3960    2.1880 N   0  0  0  0  0  0  0  0  0  0  0  0
    0.0600   -1.5640   -0.0320 C   0  0  0  0  0  0  0  0  0  0  0  0
    0.2210   -2.8330    0.1230 O   0  0  0  0  0  0  0  0  0  0  0  0
    3.7570    1.1140   -0.8230 H   0  0  0  0  0  0  0  0  0  0  0  0
    2.9240    2.1790   -1.9760 H   0  0  0  0  0  0  0  0  0  0  0  0
    3.0550    2.6420   -0.2080 H   0  0  0  0  0  0  0  0  0  0  0  0
    1.3860    0.4800   -1.5280 H   0  0  0  0  0  0  0  0  0  0  0  0
   -0.3730    1.6370    0.0600 H   0  0  0  0  0  0  0  0  0  0  0  0
    0.1050    2.4420   -1.4590 H   0  0  0  0  0  0  0  0  0  0  0  0
    0.8310    2.9920    0.0740 H   0  0  0  0  0  0  0  0  0  0  0  0
    2.1430    0.7870    1.4360 H   0  0  0  0  0  0  0  0  0  0  0  0
    2.5890   -0.5390    0.3420 H   0  0  0  0  0  0  0  0  0  0  0  0
   -0.2440    0.0400    1.2970 H   0  0  0  0  0  0  0  0  0  0  0  0
    1.7120   -2.0990    2.1050 H   0  0  0  0  0  0  0  0  0  0  0  0
   -0.6280   -1.2240   -1.2170 N   0  0  0  0  0  0  0  0  0  0  0  0
   -1.0900   -2.1760   -2.1630 C   0  0  1  0  0  0  0  0  0  0  0  0
   -2.5200   -2.5180   -2.0260 C   0  0  0  0  0  0  0  0  0  0  0  0
   -3.5350   -1.4570   -2.1500 C   0  0  0  0  0  0  0  0  0  0  0  0
   -3.5770   -0.4160   -1.1320 C   0  0  0  0  0  0  0  0  0  0  0  0
   -2.9590   -0.4680   -0.0400 O   0  0  0  0  0  0  0  0  0  0  0  0
   -0.6900   -1.8700   -3.5580 C   0  0  0  0  0  0  0  0  0  0  0  0
   -0.0010   -0.8690   -3.8670 O   0  0  0  0  0  0  0  0  0  0  0  0
   -4.3400    0.7530   -1.3140 O   0  0  0  0  0  0  0  0  0  0  0  0
   -1.0780   -2.7060   -4.5940 O   0  0  0  0  0  0  0  0  0  0  0  0
   -0.8100   -0.2150   -1.4390 H   0  0  0  0  0  0  0  0  0  0  0  0
   -0.5330   -3.1510   -1.9120 H   0  0  0  0  0  0  0  0  0  0  0  0
   -2.7320   -3.3310   -2.7960 H   0  0  0  0  0  0  0  0  0  0  0  0
   -2.6540   -3.0800   -1.0430 H   0  0  0  0  0  0  0  0  0  0  0  0
   -3.4680   -0.9310   -3.1490 H   0  0  0  0  0  0  0  0  0  0  0  0
   -4.5720   -1.9220   -2.1990 H   0  0  0  0  0  0  0  0  0  0  0  0
   -4.1420    1.5500   -0.7400 H   0  0  0  0  0  0  0  0  0  0  0  0
  1 10  1  0  0  0  0
  1  2  1  0  0  0  0
  1  9  1  0  0  0  0
  2 11  1  1  0  0  0
  2  3  1  0  0  0  0
  3 12  1  0  0  0  0
  4  8  1  0  0  0  0
  4  3  1  0  0  0  0
  5  4  2  0  0  0  0
  6  7  2  0  0  0  0
  6  2  1  0  0  0  0
  8 14  1  0  0  0  0
 13  3  1  0  0  0  0
 15 23  1  0  0  0  0
 15 16  1  0  0  0  0
 15 25  1  0  0  0  0
 16 17  1  0  0  0  0
 16 18  1  0  0  0  0
 17 27  1  0  0  0  0
 17 29  1  0  0  0  0
 18 19  1  0  0  0  0
 18 30  1  0  0  0  0
 19 32  1  1  0  0  0
 19 20  1  0  0  0  0
 20  6  1  0  0  0  0
 21 22  2  0  0  0  0
 21 19  1  0  0  0  0
 24 15  1  0  0  0  0
 26 16  1  0  0  0  0
 28 17  1  0  0  0  0
 31 18  1  0  0  0  0
 33 20  1  0  0  0  0
 34 21  1  0  0  0  0
 35 36  1  0  0  0  0
 35 45  1  1  0  0  0
 35 34  1  0  0  0  0
 36 47  1  0  0  0  0
 37 36  1  0  0  0  0
 37 38  1  0  0  0  0
 38 39  2  0  0  0  0
 40 35  1  0  0  0  0
 41 40  1  0  0  0  0
 42 38  1  0  0  0  0
 42 50  1  0  0  0  0
 43 40  2  0  0  0  0
 44 34  1  0  0  0  0
 46 36  1  0  0  0  0
 48 37  1  0  0  0  0
 49 37  1  0  0  0  0
M  END
$$$$
