DLG.pdb
 OpenBabel07022418143D

 41 40  0  0  1  0  0  0  0  0999 V2000
    1.7550   -1.4570    4.4020 N   0  0  0  0  0  0  0  0  0  0  0  0
    0.6310   -2.2660    3.9570 C   0  0  1  0  0  0  0  0  0  0  0  0
   -0.5330   -1.9440    4.8910 C   0  0  0  0  0  0  0  0  0  0  0  0
   -0.1890   -2.2720    6.3020 C   0  0  0  0  0  0  0  0  0  0  0  0
    0.4970   -1.4810    6.9910 O   0  0  0  0  0  0  0  0  0  0  0  0
    0.1920   -1.8670    2.5890 C   0  0  0  0  0  0  0  0  0  0  0  0
   -0.7740   -2.4760    2.0570 O   0  0  0  0  0  0  0  0  0  0  0  0
   -0.6560   -3.4740    6.8090 O   0  0  0  0  0  0  0  0  0  0  0  0
    2.1110   -1.7330    5.3200 H   0  0  0  0  0  0  0  0  0  0  0  0
    1.4080   -0.4740    4.4650 H   0  0  0  0  0  0  0  0  0  0  0  0
    0.9370   -3.3110    4.0370 H   0  0  0  0  0  0  0  0  0  0  0  0
   -0.7690   -0.8560    4.8560 H   0  0  0  0  0  0  0  0  0  0  0  0
   -1.4590   -2.4640    4.6080 H   0  0  0  0  0  0  0  0  0  0  0  0
   -0.2720   -3.8130    7.6830 H   0  0  0  0  0  0  0  0  0  0  0  0
   -1.9220    0.7850   -1.3640 C   0  0  0  0  0  0  0  0  0  0  0  0
   -0.8140    1.5050   -0.6720 C   0  0  0  0  0  0  0  0  0  0  0  0
    0.1690    2.0640   -1.6600 C   0  0  0  0  0  0  0  0  0  0  0  0
   -0.2580    0.8770    0.5370 C   0  0  0  0  0  0  0  0  0  0  0  0
    0.3100   -0.4920    0.4850 C   0  0  2  0  0  0  0  0  0  0  0  0
    0.8070   -0.8360    1.8540 N   0  0  0  0  0  0  0  0  0  0  0  0
    1.4100   -0.6580   -0.4480 C   0  0  0  0  0  0  0  0  0  0  0  0
    2.6070   -0.7460   -0.0050 O   0  0  0  0  0  0  0  0  0  0  0  0
   -2.9390    1.1780   -1.1680 H   0  0  0  0  0  0  0  0  0  0  0  0
   -1.7810    0.9170   -2.4750 H   0  0  0  0  0  0  0  0  0  0  0  0
   -1.8710   -0.3220   -1.2230 H   0  0  0  0  0  0  0  0  0  0  0  0
   -1.3690    2.4730   -0.2750 H   0  0  0  0  0  0  0  0  0  0  0  0
    1.2200    1.9290   -1.2720 H   0  0  0  0  0  0  0  0  0  0  0  0
    0.1130    1.6160   -2.6710 H   0  0  0  0  0  0  0  0  0  0  0  0
    0.0620    3.1790   -1.7920 H   0  0  0  0  0  0  0  0  0  0  0  0
    0.5470    1.5770    0.9290 H   0  0  0  0  0  0  0  0  0  0  0  0
   -1.0310    0.8680    1.3680 H   0  0  0  0  0  0  0  0  0  0  0  0
   -0.5340   -1.1920    0.3130 H   0  0  0  0  0  0  0  0  0  0  0  0
    1.6020   -0.3090    2.2490 H   0  0  0  0  0  0  0  0  0  0  0  0
    1.2930   -0.7440   -1.8610 N   0  0  0  0  0  0  0  0  0  0  0  0
    2.4580   -0.9070   -2.7050 C   0  0  0  0  0  0  0  0  0  0  0  0
    2.0010   -0.9630   -4.1130 C   0  0  0  0  0  0  0  0  0  0  0  0
    0.7820   -0.8700   -4.4140 O   0  0  0  0  0  0  0  0  0  0  0  0
    2.9220   -1.1210   -5.1400 O   0  0  0  0  0  0  0  0  0  0  0  0
    0.3590   -0.7060   -2.2880 H   0  0  0  0  0  0  0  0  0  0  0  0
    3.1950   -0.0790   -2.5460 H   0  0  0  0  0  0  0  0  0  0  0  0
    3.0090   -1.8440   -2.4720 H   0  0  0  0  0  0  0  0  0  0  0  0
  1 10  1  0  0  0  0
  1  9  1  0  0  0  0
  2 11  1  1  0  0  0
  2  1  1  0  0  0  0
  2  3  1  0  0  0  0
  3  4  1  0  0  0  0
  4  8  1  0  0  0  0
  4  5  2  0  0  0  0
  6  2  1  0  0  0  0
  7  6  2  0  0  0  0
  8 14  1  0  0  0  0
 12  3  1  0  0  0  0
 13  3  1  0  0  0  0
 15 25  1  0  0  0  0
 15 23  1  0  0  0  0
 15 16  1  0  0  0  0
 16 26  1  0  0  0  0
 16 18  1  0  0  0  0
 17 27  1  0  0  0  0
 17 16  1  0  0  0  0
 18 30  1  0  0  0  0
 18 31  1  0  0  0  0
 19 32  1  6  0  0  0
 19 18  1  0  0  0  0
 19 20  1  0  0  0  0
 20 33  1  0  0  0  0
 20  6  1  0  0  0  0
 21 22  2  0  0  0  0
 21 19  1  0  0  0  0
 24 15  1  0  0  0  0
 28 17  1  0  0  0  0
 29 17  1  0  0  0  0
 34 21  1  0  0  0  0
 35 40  1  0  0  0  0
 35 41  1  0  0  0  0
 35 34  1  0  0  0  0
 36 35  1  0  0  0  0
 37 36  1  0  0  0  0
 38 36  2  0  0  0  0
 39 34  1  0  0  0  0
M  END
$$$$
