DLH.pdb
 OpenBabel07022418143D

 51 51  0  0  1  0  0  0  0  0999 V2000
    1.4510   -2.5020    4.6720 N   0  0  0  0  0  0  0  0  0  0  0  0
    1.5820   -2.1060    3.2800 C   0  0  1  0  0  0  0  0  0  0  0  0
    0.7690   -3.0610    2.4330 C   0  0  0  0  0  0  0  0  0  0  0  0
   -0.6690   -3.0180    2.8310 C   0  0  0  0  0  0  0  0  0  0  0  0
   -1.0510   -2.2560    3.7520 O   0  0  0  0  0  0  0  0  0  0  0  0
    1.0050   -0.7330    3.0780 C   0  0  0  0  0  0  0  0  0  0  0  0
    0.5080   -0.1230    4.0560 O   0  0  0  0  0  0  0  0  0  0  0  0
   -1.6250   -3.8060    2.2080 O   0  0  0  0  0  0  0  0  0  0  0  0
    1.8280   -1.7500    5.3110 H   0  0  0  0  0  0  0  0  0  0  0  0
    1.9550   -3.4030    4.8070 H   0  0  0  0  0  0  0  0  0  0  0  0
    2.6330   -2.0880    2.9920 H   0  0  0  0  0  0  0  0  0  0  0  0
    0.8140   -2.7660    1.3690 H   0  0  0  0  0  0  0  0  0  0  0  0
    1.1140   -4.1040    2.5490 H   0  0  0  0  0  0  0  0  0  0  0  0
   -2.5600   -3.8580    2.6160 H   0  0  0  0  0  0  0  0  0  0  0  0
    1.4390    1.7570   -1.3360 C   0  0  0  0  0  0  0  0  0  0  0  0
    2.2840    1.8790   -0.0910 C   0  0  0  0  0  0  0  0  0  0  0  0
    3.2270    3.0660   -0.3370 C   0  0  0  0  0  0  0  0  0  0  0  0
    1.5140    2.1890    1.1400 C   0  0  0  0  0  0  0  0  0  0  0  0
    0.4740    1.2050    1.5440 C   0  0  2  0  0  0  0  0  0  0  0  0
    1.0160   -0.1190    1.7970 N   0  0  0  0  0  0  0  0  0  0  0  0
   -0.7290    1.1720    0.6780 C   0  0  0  0  0  0  0  0  0  0  0  0
   -1.2810    2.2580    0.3900 O   0  0  0  0  0  0  0  0  0  0  0  0
    0.7370    2.6020   -1.4270 H   0  0  0  0  0  0  0  0  0  0  0  0
    2.0790    1.8200   -2.2630 H   0  0  0  0  0  0  0  0  0  0  0  0
    0.8900    0.8170   -1.3560 H   0  0  0  0  0  0  0  0  0  0  0  0
    2.9450    0.9950    0.0310 H   0  0  0  0  0  0  0  0  0  0  0  0
    4.0520    2.8010   -1.0050 H   0  0  0  0  0  0  0  0  0  0  0  0
    3.5300    3.4940    0.6320 H   0  0  0  0  0  0  0  0  0  0  0  0
    2.5990    3.8310   -0.8720 H   0  0  0  0  0  0  0  0  0  0  0  0
    2.2540    2.2400    1.9820 H   0  0  0  0  0  0  0  0  0  0  0  0
    1.0200    3.1740    1.0180 H   0  0  0  0  0  0  0  0  0  0  0  0
    0.0740    1.5860    2.5370 H   0  0  0  0  0  0  0  0  0  0  0  0
    1.4410   -0.6680    1.0140 H   0  0  0  0  0  0  0  0  0  0  0  0
   -1.2940   -0.0390    0.1520 N   0  0  0  0  0  0  0  0  0  0  0  0
   -2.4520   -0.0760   -0.6820 C   0  0  1  0  0  0  0  0  0  0  0  0
   -2.1960   -0.7300   -2.0220 C   0  0  0  0  0  0  0  0  0  0  0  0
   -1.7450   -2.1270   -1.9090 C   0  0  0  0  0  0  0  0  0  0  0  0
   -0.4580   -2.5790   -1.8130 C   0  0  0  0  0  0  0  0  0  0  0  0
   -0.4790   -3.9090   -1.7290 N   0  0  0  0  0  0  0  0  0  0  0  0
   -1.7660   -4.2850   -1.7730 C   0  0  0  0  0  0  0  0  0  0  0  0
   -2.5470   -3.1980   -1.8830 N   0  0  0  0  0  0  0  0  0  0  0  0
   -3.5320   -0.8440   -0.0150 C   0  0  0  0  0  0  0  0  0  0  0  0
   -4.6610   -1.0270   -0.5440 O   0  0  0  0  0  0  0  0  0  0  0  0
   -3.2840   -1.3770    1.2370 O   0  0  0  0  0  0  0  0  0  0  0  0
   -0.7860   -0.9070    0.4300 H   0  0  0  0  0  0  0  0  0  0  0  0
   -2.8770    0.9260   -0.8980 H   0  0  0  0  0  0  0  0  0  0  0  0
   -3.0960   -0.6760   -2.6680 H   0  0  0  0  0  0  0  0  0  0  0  0
   -1.4160   -0.1200   -2.5650 H   0  0  0  0  0  0  0  0  0  0  0  0
    0.3990   -1.8990   -1.8110 H   0  0  0  0  0  0  0  0  0  0  0  0
    0.3780   -4.5180   -1.6460 H   0  0  0  0  0  0  0  0  0  0  0  0
   -2.1340   -5.3180   -1.7260 H   0  0  0  0  0  0  0  0  0  0  0  0
  1 10  1  0  0  0  0
  1  9  1  0  0  0  0
  2 11  1  6  0  0  0
  2  1  1  0  0  0  0
  3 13  1  0  0  0  0
  3  4  1  0  0  0  0
  3  2  1  0  0  0  0
  4  5  2  0  0  0  0
  6  2  1  0  0  0  0
  6  7  2  0  0  0  0
  8 14  1  0  0  0  0
  8  4  1  0  0  0  0
 12  3  1  0  0  0  0
 15 16  1  0  0  0  0
 16 26  1  0  0  0  0
 16 18  1  0  0  0  0
 17 16  1  0  0  0  0
 17 28  1  0  0  0  0
 18 19  1  0  0  0  0
 18 30  1  0  0  0  0
 19 20  1  0  0  0  0
 19 32  1  1  0  0  0
 20  6  1  0  0  0  0
 21 19  1  0  0  0  0
 22 21  2  0  0  0  0
 23 15  1  0  0  0  0
 24 15  1  0  0  0  0
 25 15  1  0  0  0  0
 27 17  1  0  0  0  0
 29 17  1  0  0  0  0
 31 18  1  0  0  0  0
 33 20  1  0  0  0  0
 34 45  1  0  0  0  0
 34 21  1  0  0  0  0
 35 46  1  6  0  0  0
 35 42  1  0  0  0  0
 35 34  1  0  0  0  0
 36 37  1  0  0  0  0
 36 35  1  0  0  0  0
 37 41  1  0  0  0  0
 37 38  2  0  0  0  0
 38 49  1  0  0  0  0
 38 39  1  0  0  0  0
 39 50  1  0  0  0  0
 40 39  1  0  0  0  0
 40 51  1  0  0  0  0
 41 40  2  0  0  0  0
 42 44  1  0  0  0  0
 43 42  2  0  0  0  0
 47 36  1  0  0  0  0
 48 36  1  0  0  0  0
M  END
$$$$
