DLI.pdb
 OpenBabel07022418143D

 53 52  0  0  1  0  0  0  0  0999 V2000
    0.0940   -0.6630    5.7020 N   0  0  0  0  0  0  0  0  0  0  0  0
    0.9970   -1.0360    4.6370 C   0  0  1  0  0  0  0  0  0  0  0  0
    0.7780   -2.5320    4.4010 C   0  0  0  0  0  0  0  0  0  0  0  0
    1.0750   -3.3070    5.6300 C   0  0  0  0  0  0  0  0  0  0  0  0
    1.4490   -2.6990    6.6670 O   0  0  0  0  0  0  0  0  0  0  0  0
    0.5630   -0.3580    3.3930 C   0  0  0  0  0  0  0  0  0  0  0  0
   -0.4490    0.3810    3.4590 O   0  0  0  0  0  0  0  0  0  0  0  0
    0.9510   -4.6670    5.6630 O   0  0  0  0  0  0  0  0  0  0  0  0
   -0.1800    0.3430    5.5640 H   0  0  0  0  0  0  0  0  0  0  0  0
   -0.7780   -1.2410    5.5930 H   0  0  0  0  0  0  0  0  0  0  0  0
    2.0550   -0.8250    4.8850 H   0  0  0  0  0  0  0  0  0  0  0  0
   -0.2890   -2.6730    4.1450 H   0  0  0  0  0  0  0  0  0  0  0  0
    1.3810   -2.8870    3.5650 H   0  0  0  0  0  0  0  0  0  0  0  0
    1.1700   -5.1670    6.5360 H   0  0  0  0  0  0  0  0  0  0  0  0
    0.6200    3.0160   -0.5700 C   0  0  0  0  0  0  0  0  0  0  0  0
    1.7920    2.1050   -0.4800 C   0  0  0  0  0  0  0  0  0  0  0  0
    2.1360    1.4300   -1.7670 C   0  0  0  0  0  0  0  0  0  0  0  0
    1.8070    1.1750    0.6530 C   0  0  0  0  0  0  0  0  0  0  0  0
    0.7520    0.2040    0.9140 C   0  0  2  0  0  0  0  0  0  0  0  0
    1.2170   -0.4990    2.1670 N   0  0  0  0  0  0  0  0  0  0  0  0
    0.3380   -0.7880   -0.0430 C   0  0  0  0  0  0  0  0  0  0  0  0
    0.5640   -2.0510    0.1280 O   0  0  0  0  0  0  0  0  0  0  0  0
    0.0390    2.8440   -1.5240 H   0  0  0  0  0  0  0  0  0  0  0  0
    0.9250    4.0770   -0.6360 H   0  0  0  0  0  0  0  0  0  0  0  0
   -0.0700    2.9470    0.2970 H   0  0  0  0  0  0  0  0  0  0  0  0
    2.6910    2.8390   -0.3220 H   0  0  0  0  0  0  0  0  0  0  0  0
    3.1860    1.7410   -2.0620 H   0  0  0  0  0  0  0  0  0  0  0  0
    2.2160    0.3230   -1.7090 H   0  0  0  0  0  0  0  0  0  0  0  0
    1.5090    1.7880   -2.6170 H   0  0  0  0  0  0  0  0  0  0  0  0
    1.8820    1.8160    1.6020 H   0  0  0  0  0  0  0  0  0  0  0  0
    2.8060    0.6140    0.7180 H   0  0  0  0  0  0  0  0  0  0  0  0
   -0.1520    0.7720    1.2970 H   0  0  0  0  0  0  0  0  0  0  0  0
    2.0410   -1.0890    2.0740 H   0  0  0  0  0  0  0  0  0  0  0  0
   -2.8180   -0.8420    0.1770 C   0  0  0  0  0  0  0  0  0  0  0  0
   -2.9720   -1.8310   -0.9250 C   0  0  0  0  0  0  0  0  0  0  0  0
   -2.2790   -1.5550   -2.2120 C   0  0  2  0  0  0  0  0  0  0  0  0
   -2.6530   -2.7290   -3.1550 C   0  0  0  0  0  0  0  0  0  0  0  0
   -0.7740   -1.5210   -2.1570 C   0  0  2  0  0  0  0  0  0  0  0  0
   -0.3570   -0.4670   -1.2390 N   0  0  0  0  0  0  0  0  0  0  0  0
   -0.2460   -1.3600   -3.5150 C   0  0  0  0  0  0  0  0  0  0  0  0
    0.4360   -0.3430   -3.8470 O   0  0  0  0  0  0  0  0  0  0  0  0
   -0.5030   -2.3620   -4.4670 O   0  0  0  0  0  0  0  0  0  0  0  0
   -2.2410   -1.2720    1.0270 H   0  0  0  0  0  0  0  0  0  0  0  0
   -3.8240   -0.6060    0.6620 H   0  0  0  0  0  0  0  0  0  0  0  0
   -2.3910    0.1250   -0.0960 H   0  0  0  0  0  0  0  0  0  0  0  0
   -4.0770   -1.9540   -1.0970 H   0  0  0  0  0  0  0  0  0  0  0  0
   -2.6410   -2.8330   -0.5450 H   0  0  0  0  0  0  0  0  0  0  0  0
   -2.6770   -0.6170   -2.6700 H   0  0  0  0  0  0  0  0  0  0  0  0
   -3.6360   -3.1510   -2.8190 H   0  0  0  0  0  0  0  0  0  0  0  0
   -2.7570   -2.3050   -4.1580 H   0  0  0  0  0  0  0  0  0  0  0  0
   -1.8670   -3.4830   -3.0140 H   0  0  0  0  0  0  0  0  0  0  0  0
   -0.4690   -2.5270   -1.7580 H   0  0  0  0  0  0  0  0  0  0  0  0
   -0.5590    0.5280   -1.4570 H   0  0  0  0  0  0  0  0  0  0  0  0
  2 11  1  1  0  0  0
  2  1  1  0  0  0  0
  3  2  1  0  0  0  0
  3  4  1  0  0  0  0
  4  8  1  0  0  0  0
  4  5  2  0  0  0  0
  6  7  2  0  0  0  0
  6  2  1  0  0  0  0
  8 14  1  0  0  0  0
  9  1  1  0  0  0  0
 10  1  1  0  0  0  0
 12  3  1  0  0  0  0
 13  3  1  0  0  0  0
 15 16  1  0  0  0  0
 15 25  1  0  0  0  0
 16 26  1  0  0  0  0
 16 18  1  0  0  0  0
 17 28  1  0  0  0  0
 17 16  1  0  0  0  0
 18 31  1  0  0  0  0
 18 19  1  0  0  0  0
 18 30  1  0  0  0  0
 19 32  1  1  0  0  0
 19 20  1  0  0  0  0
 20  6  1  0  0  0  0
 21 22  2  0  0  0  0
 21 19  1  0  0  0  0
 23 15  1  0  0  0  0
 24 15  1  0  0  0  0
 27 17  1  0  0  0  0
 29 17  1  0  0  0  0
 33 20  1  0  0  0  0
 34 44  1  0  0  0  0
 34 43  1  0  0  0  0
 35 47  1  0  0  0  0
 35 34  1  0  0  0  0
 36 48  1  6  0  0  0
 36 38  1  0  0  0  0
 36 35  1  0  0  0  0
 37 51  1  0  0  0  0
 37 49  1  0  0  0  0
 37 36  1  0  0  0  0
 38 52  1  1  0  0  0
 38 39  1  0  0  0  0
 39 21  1  0  0  0  0
 40 38  1  0  0  0  0
 41 40  1  0  0  0  0
 42 40  2  0  0  0  0
 45 34  1  0  0  0  0
 46 35  1  0  0  0  0
 50 37  1  0  0  0  0
 53 39  1  0  0  0  0
M  END
$$$$
