DLL.pdb
 OpenBabel07022418143D

 53 52  0  0  1  0  0  0  0  0999 V2000
    2.5630   -4.3090    2.9600 N   0  0  0  0  0  0  0  0  0  0  0  0
    1.8840   -3.0790    3.3830 C   0  0  1  0  0  0  0  0  0  0  0  0
    2.7690   -2.4670    4.4320 C   0  0  0  0  0  0  0  0  0  0  0  0
    2.2950   -1.2090    5.0010 C   0  0  0  0  0  0  0  0  0  0  0  0
    2.7580   -0.1170    4.5730 O   0  0  0  0  0  0  0  0  0  0  0  0
    1.6510   -2.2070    2.2130 C   0  0  0  0  0  0  0  0  0  0  0  0
    2.1380   -2.5420    1.0890 O   0  0  0  0  0  0  0  0  0  0  0  0
    1.3460   -1.1570    6.0040 O   0  0  0  0  0  0  0  0  0  0  0  0
    1.9710   -5.1280    3.1480 H   0  0  0  0  0  0  0  0  0  0  0  0
    2.9220   -4.2580    1.9980 H   0  0  0  0  0  0  0  0  0  0  0  0
    0.9420   -3.3900    3.8770 H   0  0  0  0  0  0  0  0  0  0  0  0
    2.7940   -3.2090    5.2820 H   0  0  0  0  0  0  0  0  0  0  0  0
    3.8310   -2.3930    4.1060 H   0  0  0  0  0  0  0  0  0  0  0  0
    0.6900   -0.3610    5.9850 H   0  0  0  0  0  0  0  0  0  0  0  0
    1.4000    2.6110   -0.3100 C   0  0  0  0  0  0  0  0  0  0  0  0
    2.1550    1.3240   -0.4050 C   0  0  0  0  0  0  0  0  0  0  0  0
    2.1160    0.7070   -1.7720 C   0  0  0  0  0  0  0  0  0  0  0  0
    1.9850    0.3990    0.7340 C   0  0  0  0  0  0  0  0  0  0  0  0
    0.6740   -0.1270    1.1200 C   0  0  2  0  0  0  0  0  0  0  0  0
    0.9010   -1.0100    2.3040 N   0  0  0  0  0  0  0  0  0  0  0  0
   -0.1910   -0.7880    0.1720 C   0  0  0  0  0  0  0  0  0  0  0  0
   -0.4640   -2.0250    0.3800 O   0  0  0  0  0  0  0  0  0  0  0  0
    0.5680    2.7340   -1.0130 H   0  0  0  0  0  0  0  0  0  0  0  0
    2.1060    3.4540   -0.5720 H   0  0  0  0  0  0  0  0  0  0  0  0
    1.0990    2.7970    0.7420 H   0  0  0  0  0  0  0  0  0  0  0  0
    3.2630    1.6570   -0.3000 H   0  0  0  0  0  0  0  0  0  0  0  0
    3.0870    0.7940   -2.2970 H   0  0  0  0  0  0  0  0  0  0  0  0
    1.3860    1.2220   -2.4420 H   0  0  0  0  0  0  0  0  0  0  0  0
    1.8930   -0.3730   -1.6380 H   0  0  0  0  0  0  0  0  0  0  0  0
    2.7770   -0.4010    0.5970 H   0  0  0  0  0  0  0  0  0  0  0  0
    2.4070    0.9550    1.6420 H   0  0  0  0  0  0  0  0  0  0  0  0
    0.0920    0.7440    1.5530 H   0  0  0  0  0  0  0  0  0  0  0  0
    0.5050   -0.7760    3.2390 H   0  0  0  0  0  0  0  0  0  0  0  0
   -4.9850    0.4180   -0.6310 C   0  0  0  0  0  0  0  0  0  0  0  0
   -3.6330   -0.2810   -0.5330 C   0  0  0  0  0  0  0  0  0  0  0  0
   -3.8920   -1.6560    0.0520 C   0  0  0  0  0  0  0  0  0  0  0  0
   -3.0200   -0.4060   -1.9090 C   0  0  0  0  0  0  0  0  0  0  0  0
   -1.6770   -1.0860   -1.8410 C   0  0  2  0  0  0  0  0  0  0  0  0
   -0.8070   -0.2640   -0.9830 N   0  0  0  0  0  0  0  0  0  0  0  0
   -1.1050   -1.2750   -3.1950 C   0  0  0  0  0  0  0  0  0  0  0  0
   -0.0410   -0.8090   -3.6120 O   0  0  0  0  0  0  0  0  0  0  0  0
   -1.8410   -2.0610   -4.1000 O   0  0  0  0  0  0  0  0  0  0  0  0
   -5.2240    0.9730    0.2820 H   0  0  0  0  0  0  0  0  0  0  0  0
   -4.9660    1.1380   -1.4730 H   0  0  0  0  0  0  0  0  0  0  0  0
   -5.7790   -0.3240   -0.8420 H   0  0  0  0  0  0  0  0  0  0  0  0
   -2.9520    0.2530    0.1570 H   0  0  0  0  0  0  0  0  0  0  0  0
   -4.9130   -1.6770    0.5350 H   0  0  0  0  0  0  0  0  0  0  0  0
   -3.9390   -2.3790   -0.7880 H   0  0  0  0  0  0  0  0  0  0  0  0
   -3.1570   -1.9240    0.8250 H   0  0  0  0  0  0  0  0  0  0  0  0
   -3.7210   -0.9430   -2.5950 H   0  0  0  0  0  0  0  0  0  0  0  0
   -2.8990    0.6390   -2.3070 H   0  0  0  0  0  0  0  0  0  0  0  0
   -1.8190   -2.0760   -1.3650 H   0  0  0  0  0  0  0  0  0  0  0  0
   -0.6370    0.7350   -1.2010 H   0  0  0  0  0  0  0  0  0  0  0  0
  1  9  1  0  0  0  0
  1  2  1  0  0  0  0
  2 11  1  1  0  0  0
  2  3  1  0  0  0  0
  3  4  1  0  0  0  0
  3 12  1  0  0  0  0
  4  8  1  0  0  0  0
  5  4  2  0  0  0  0
  6 20  1  0  0  0  0
  6  2  1  0  0  0  0
  7  6  2  0  0  0  0
 10  1  1  0  0  0  0
 13  3  1  0  0  0  0
 14  8  1  0  0  0  0
 15 25  1  0  0  0  0
 16 15  1  0  0  0  0
 16 26  1  0  0  0  0
 16 18  1  0  0  0  0
 17 29  1  0  0  0  0
 17 16  1  0  0  0  0
 18 19  1  0  0  0  0
 18 31  1  0  0  0  0
 19 32  1  1  0  0  0
 19 20  1  0  0  0  0
 20 33  1  0  0  0  0
 21 22  2  0  0  0  0
 21 19  1  0  0  0  0
 23 15  1  0  0  0  0
 24 15  1  0  0  0  0
 27 17  1  0  0  0  0
 28 17  1  0  0  0  0
 30 18  1  0  0  0  0
 34 35  1  0  0  0  0
 34 43  1  0  0  0  0
 35 36  1  0  0  0  0
 35 46  1  0  0  0  0
 36 47  1  0  0  0  0
 36 49  1  0  0  0  0
 37 38  1  0  0  0  0
 37 35  1  0  0  0  0
 38 52  1  1  0  0  0
 38 39  1  0  0  0  0
 39 21  1  0  0  0  0
 40 38  1  0  0  0  0
 41 40  1  0  0  0  0
 42 40  2  0  0  0  0
 44 34  1  0  0  0  0
 45 34  1  0  0  0  0
 48 36  1  0  0  0  0
 50 37  1  0  0  0  0
 51 37  1  0  0  0  0
 53 39  1  0  0  0  0
M  END
$$$$
