DLM.pdb
 OpenBabel07022418143D

 51 50  0  0  1  0  0  0  0  0999 V2000
   -4.0230   -2.3850   -0.5270 N   0  0  0  0  0  0  0  0  0  0  0  0
   -3.6650   -2.7850    0.7890 C   0  0  1  0  0  0  0  0  0  0  0  0
   -4.0450   -4.2170    1.0210 C   0  0  0  0  0  0  0  0  0  0  0  0
   -5.4890   -4.4640    0.8910 C   0  0  0  0  0  0  0  0  0  0  0  0
   -6.2750   -3.5210    0.6610 O   0  0  0  0  0  0  0  0  0  0  0  0
   -2.2350   -2.5560    1.1160 C   0  0  0  0  0  0  0  0  0  0  0  0
   -1.8580   -2.7800    2.3060 O   0  0  0  0  0  0  0  0  0  0  0  0
   -6.0190   -5.7430    1.0180 O   0  0  0  0  0  0  0  0  0  0  0  0
   -5.0490   -2.1040   -0.6120 H   0  0  0  0  0  0  0  0  0  0  0  0
   -3.5300   -1.5170   -0.8550 H   0  0  0  0  0  0  0  0  0  0  0  0
   -4.3270   -2.1850    1.4870 H   0  0  0  0  0  0  0  0  0  0  0  0
   -3.5620   -4.8020    0.1810 H   0  0  0  0  0  0  0  0  0  0  0  0
   -3.6270   -4.6060    1.9760 H   0  0  0  0  0  0  0  0  0  0  0  0
   -6.8610   -6.0360    0.5610 H   0  0  0  0  0  0  0  0  0  0  0  0
    3.2150   -1.9410   -0.6030 C   0  0  0  0  0  0  0  0  0  0  0  0
    2.3430   -3.0670   -0.1290 C   0  0  0  0  0  0  0  0  0  0  0  0
    2.8460   -3.6130    1.2130 C   0  0  0  0  0  0  0  0  0  0  0  0
    0.9020   -2.8980   -0.1870 C   0  0  0  0  0  0  0  0  0  0  0  0
    0.1330   -1.8820    0.5280 C   0  0  2  0  0  0  0  0  0  0  0  0
   -1.3240   -2.1110    0.1640 N   0  0  0  0  0  0  0  0  0  0  0  0
    0.3670   -0.4660    0.3740 C   0  0  0  0  0  0  0  0  0  0  0  0
   -0.5170    0.2350   -0.2450 O   0  0  0  0  0  0  0  0  0  0  0  0
    3.8360   -1.5070    0.2060 H   0  0  0  0  0  0  0  0  0  0  0  0
    3.9760   -2.3540   -1.3280 H   0  0  0  0  0  0  0  0  0  0  0  0
    2.6710   -1.1810   -1.1790 H   0  0  0  0  0  0  0  0  0  0  0  0
    2.5950   -3.9340   -0.8320 H   0  0  0  0  0  0  0  0  0  0  0  0
    3.7680   -4.2150    1.0650 H   0  0  0  0  0  0  0  0  0  0  0  0
    3.1350   -2.7460    1.8340 H   0  0  0  0  0  0  0  0  0  0  0  0
    2.0900   -4.2660    1.6470 H   0  0  0  0  0  0  0  0  0  0  0  0
    0.6330   -2.8260   -1.3040 H   0  0  0  0  0  0  0  0  0  0  0  0
    0.4330   -3.9210    0.0380 H   0  0  0  0  0  0  0  0  0  0  0  0
    0.1300   -2.1580    1.6160 H   0  0  0  0  0  0  0  0  0  0  0  0
   -1.5970   -1.9250   -0.8180 H   0  0  0  0  0  0  0  0  0  0  0  0
    0.2310    6.3920    0.6110 C   0  0  0  0  0  0  0  0  0  0  0  0
    0.1280    4.5870    0.7250 S   0  0  0  0  0  0  0  0  0  0  0  0
    1.4560    3.9610    1.8190 C   0  0  0  0  0  0  0  0  0  0  0  0
    1.4030    2.4640    1.9270 C   0  0  0  0  0  0  0  0  0  0  0  0
    1.5360    1.7350    0.6080 C   0  0  2  0  0  0  0  0  0  0  0  0
    1.4600    0.2920    0.8310 N   0  0  0  0  0  0  0  0  0  0  0  0
    2.7840    2.0930   -0.0380 C   0  0  0  0  0  0  0  0  0  0  0  0
    3.0140    3.2640   -0.4100 O   0  0  0  0  0  0  0  0  0  0  0  0
    3.7790    1.1700   -0.2750 O   0  0  0  0  0  0  0  0  0  0  0  0
    0.7940    6.7810    1.4620 H   0  0  0  0  0  0  0  0  0  0  0  0
    0.7600    6.6160   -0.3480 H   0  0  0  0  0  0  0  0  0  0  0  0
   -0.7950    6.8560    0.6190 H   0  0  0  0  0  0  0  0  0  0  0  0
    2.4020    4.3750    1.4390 H   0  0  0  0  0  0  0  0  0  0  0  0
    1.2110    4.4340    2.8240 H   0  0  0  0  0  0  0  0  0  0  0  0
    2.0910    2.0820    2.6920 H   0  0  0  0  0  0  0  0  0  0  0  0
    0.3700    2.2110    2.3100 H   0  0  0  0  0  0  0  0  0  0  0  0
    0.6780    2.0670   -0.0470 H   0  0  0  0  0  0  0  0  0  0  0  0
    2.2190   -0.1750    1.3500 H   0  0  0  0  0  0  0  0  0  0  0  0
  1  2  1  0  0  0  0
  2  3  1  0  0  0  0
  2  6  1  0  0  0  0
  2 11  1  1  0  0  0
  3 13  1  0  0  0  0
  4  8  1  0  0  0  0
  4  3  1  0  0  0  0
  5  4  2  0  0  0  0
  6  7  2  0  0  0  0
  9  1  1  0  0  0  0
 10  1  1  0  0  0  0
 12  3  1  0  0  0  0
 14  8  1  0  0  0  0
 15 16  1  0  0  0  0
 15 23  1  0  0  0  0
 16 17  1  0  0  0  0
 17 29  1  0  0  0  0
 17 28  1  0  0  0  0
 18 16  1  0  0  0  0
 18 31  1  0  0  0  0
 18 19  1  0  0  0  0
 19 32  1  1  0  0  0
 20 19  1  0  0  0  0
 20  6  1  0  0  0  0
 21 19  1  0  0  0  0
 21 39  1  0  0  0  0
 22 21  2  0  0  0  0
 24 15  1  0  0  0  0
 25 15  1  0  0  0  0
 26 16  1  0  0  0  0
 27 17  1  0  0  0  0
 30 18  1  0  0  0  0
 33 20  1  0  0  0  0
 34 45  1  0  0  0  0
 34 35  1  0  0  0  0
 34 43  1  0  0  0  0
 35 36  1  0  0  0  0
 36 37  1  0  0  0  0
 36 47  1  0  0  0  0
 37 49  1  0  0  0  0
 37 48  1  0  0  0  0
 38 50  1  6  0  0  0
 38 39  1  0  0  0  0
 38 37  1  0  0  0  0
 39 51  1  0  0  0  0
 40 38  1  0  0  0  0
 41 40  2  0  0  0  0
 42 40  1  0  0  0  0
 44 34  1  0  0  0  0
 46 36  1  0  0  0  0
M  END
$$$$
