DLN.pdb
 OpenBabel07022418143D

 48 47  0  0  1  0  0  0  0  0999 V2000
   -1.4120   -0.7980    4.0660 N   0  0  0  0  0  0  0  0  0  0  0  0
   -0.7140    0.3110    3.4050 C   0  0  1  0  0  0  0  0  0  0  0  0
    0.1600    0.9730    4.4150 C   0  0  0  0  0  0  0  0  0  0  0  0
    0.9120    2.1010    3.8560 C   0  0  0  0  0  0  0  0  0  0  0  0
    2.1020    1.8970    3.4720 O   0  0  0  0  0  0  0  0  0  0  0  0
   -0.0010   -0.2700    2.2430 C   0  0  0  0  0  0  0  0  0  0  0  0
    0.0930   -1.5400    2.1120 O   0  0  0  0  0  0  0  0  0  0  0  0
    0.3980    3.3810    3.7200 O   0  0  0  0  0  0  0  0  0  0  0  0
   -2.2040   -1.1290    3.4490 H   0  0  0  0  0  0  0  0  0  0  0  0
   -0.6730   -1.5500    4.1730 H   0  0  0  0  0  0  0  0  0  0  0  0
   -1.5330    1.0120    3.0830 H   0  0  0  0  0  0  0  0  0  0  0  0
    0.8140    0.2130    4.8950 H   0  0  0  0  0  0  0  0  0  0  0  0
   -0.5280    1.3900    5.2010 H   0  0  0  0  0  0  0  0  0  0  0  0
    0.9200    4.1680    3.4070 H   0  0  0  0  0  0  0  0  0  0  0  0
    4.0190   -0.6180   -1.4200 C   0  0  0  0  0  0  0  0  0  0  0  0
    3.3930   -1.4900   -0.3630 C   0  0  0  0  0  0  0  0  0  0  0  0
    2.9020   -2.8130   -0.8720 C   0  0  0  0  0  0  0  0  0  0  0  0
    2.4900   -0.7920    0.5800 C   0  0  0  0  0  0  0  0  0  0  0  0
    1.3160   -0.0730    0.0860 C   0  0  2  0  0  0  0  0  0  0  0  0
    0.6090    0.5080    1.2190 N   0  0  0  0  0  0  0  0  0  0  0  0
    0.4300   -0.6790   -0.8900 C   0  0  0  0  0  0  0  0  0  0  0  0
    0.7330   -1.2590   -1.9400 O   0  0  0  0  0  0  0  0  0  0  0  0
    5.0940   -0.8310   -1.5960 H   0  0  0  0  0  0  0  0  0  0  0  0
    3.5220   -0.8390   -2.4110 H   0  0  0  0  0  0  0  0  0  0  0  0
    3.9550    0.4600   -1.1640 H   0  0  0  0  0  0  0  0  0  0  0  0
    4.3070   -1.7740    0.2910 H   0  0  0  0  0  0  0  0  0  0  0  0
    2.8840   -2.8780   -2.0000 H   0  0  0  0  0  0  0  0  0  0  0  0
    3.6030   -3.6670   -0.6060 H   0  0  0  0  0  0  0  0  0  0  0  0
    1.9360   -3.1430   -0.4200 H   0  0  0  0  0  0  0  0  0  0  0  0
    2.2310   -1.5360    1.3920 H   0  0  0  0  0  0  0  0  0  0  0  0
    3.0920   -0.0240    1.1730 H   0  0  0  0  0  0  0  0  0  0  0  0
    1.7370    0.8610   -0.4520 H   0  0  0  0  0  0  0  0  0  0  0  0
    0.5050    1.5600    1.3320 H   0  0  0  0  0  0  0  0  0  0  0  0
   -4.1170   -2.8580    1.2040 N   0  0  0  0  0  0  0  0  0  0  0  0
   -3.4260   -1.8810    0.3990 C   0  0  0  0  0  0  0  0  0  0  0  0
   -3.4640   -0.6800    0.7510 O   0  0  0  0  0  0  0  0  0  0  0  0
   -2.6900   -2.2830   -0.8130 C   0  0  0  0  0  0  0  0  0  0  0  0
   -1.9710   -1.1730   -1.5170 C   0  0  2  0  0  0  0  0  0  0  0  0
   -0.9880   -0.6050   -0.6220 N   0  0  0  0  0  0  0  0  0  0  0  0
   -2.8950   -0.1770   -2.0580 C   0  0  0  0  0  0  0  0  0  0  0  0
   -3.8010   -0.5200   -2.8420 O   0  0  0  0  0  0  0  0  0  0  0  0
   -2.7890    1.1560   -1.7180 O   0  0  0  0  0  0  0  0  0  0  0  0
   -3.6220   -3.7210    1.4800 H   0  0  0  0  0  0  0  0  0  0  0  0
   -5.0860   -2.7060    1.5010 H   0  0  0  0  0  0  0  0  0  0  0  0
   -1.9840   -3.0970   -0.5030 H   0  0  0  0  0  0  0  0  0  0  0  0
   -3.4400   -2.7540   -1.5010 H   0  0  0  0  0  0  0  0  0  0  0  0
   -1.3810   -1.6610   -2.3530 H   0  0  0  0  0  0  0  0  0  0  0  0
   -1.3180   -0.1290    0.2230 H   0  0  0  0  0  0  0  0  0  0  0  0
  1 10  1  0  0  0  0
  2 11  1  6  0  0  0
  2  1  1  0  0  0  0
  2  3  1  0  0  0  0
  3 12  1  0  0  0  0
  3 13  1  0  0  0  0
  4  3  1  0  0  0  0
  5  4  2  0  0  0  0
  6  2  1  0  0  0  0
  7  6  2  0  0  0  0
  8  4  1  0  0  0  0
  9  1  1  0  0  0  0
 14  8  1  0  0  0  0
 15 25  1  0  0  0  0
 15 16  1  0  0  0  0
 16 26  1  0  0  0  0
 16 18  1  0  0  0  0
 17 28  1  0  0  0  0
 17 29  1  0  0  0  0
 17 16  1  0  0  0  0
 18 31  1  0  0  0  0
 18 30  1  0  0  0  0
 19 32  1  6  0  0  0
 19 18  1  0  0  0  0
 19 20  1  0  0  0  0
 20 33  1  0  0  0  0
 20  6  1  0  0  0  0
 21 39  1  0  0  0  0
 21 19  1  0  0  0  0
 22 21  2  0  0  0  0
 23 15  1  0  0  0  0
 24 15  1  0  0  0  0
 27 17  1  0  0  0  0
 34 43  1  0  0  0  0
 34 44  1  0  0  0  0
 35 36  2  0  0  0  0
 35 34  1  0  0  0  0
 37 45  1  0  0  0  0
 37 35  1  0  0  0  0
 38 47  1  6  0  0  0
 38 37  1  0  0  0  0
 38 39  1  0  0  0  0
 39 48  1  0  0  0  0
 40 42  1  0  0  0  0
 40 38  1  0  0  0  0
 41 40  2  0  0  0  0
 46 37  1  0  0  0  0
M  END
$$$$
