DLP.pdb
 OpenBabel07022418143D

 48 48  0  0  1  0  0  0  0  0999 V2000
    3.2930   -2.5630    1.7260 N   0  0  0  0  0  0  0  0  0  0  0  0
    2.5700   -2.4830    3.0200 C   0  0  1  0  0  0  0  0  0  0  0  0
    3.4420   -1.8950    4.0670 C   0  0  0  0  0  0  0  0  0  0  0  0
    2.7590   -1.8350    5.3590 C   0  0  0  0  0  0  0  0  0  0  0  0
    3.3260   -1.1890    6.2960 O   0  0  0  0  0  0  0  0  0  0  0  0
    1.3420   -1.6950    2.7180 C   0  0  0  0  0  0  0  0  0  0  0  0
    0.4660   -1.4570    3.5810 O   0  0  0  0  0  0  0  0  0  0  0  0
    1.5510   -2.4070    5.6860 O   0  0  0  0  0  0  0  0  0  0  0  0
    2.6670   -3.1420    1.0890 H   0  0  0  0  0  0  0  0  0  0  0  0
    4.1520   -3.1560    1.8600 H   0  0  0  0  0  0  0  0  0  0  0  0
    2.2870   -3.5190    3.2650 H   0  0  0  0  0  0  0  0  0  0  0  0
    4.3230   -2.5810    4.1760 H   0  0  0  0  0  0  0  0  0  0  0  0
    3.7840   -0.8770    3.7340 H   0  0  0  0  0  0  0  0  0  0  0  0
    0.9850   -2.0320    6.4400 H   0  0  0  0  0  0  0  0  0  0  0  0
    0.7780    1.1020   -1.4920 C   0  0  0  0  0  0  0  0  0  0  0  0
    1.1780    1.4590   -0.0790 C   0  0  0  0  0  0  0  0  0  0  0  0
    2.5960    1.0900    0.1500 C   0  0  0  0  0  0  0  0  0  0  0  0
    0.2110    1.0650    0.9630 C   0  0  0  0  0  0  0  0  0  0  0  0
   -0.1460   -0.3770    1.1360 C   0  0  2  0  0  0  0  0  0  0  0  0
    1.0640   -1.1530    1.4420 N   0  0  0  0  0  0  0  0  0  0  0  0
   -0.9440   -1.0150    0.1080 C   0  0  0  0  0  0  0  0  0  0  0  0
   -0.3580   -1.9310   -0.5680 O   0  0  0  0  0  0  0  0  0  0  0  0
    1.1040    0.0900   -1.7870 H   0  0  0  0  0  0  0  0  0  0  0  0
    1.2860    1.7920   -2.2310 H   0  0  0  0  0  0  0  0  0  0  0  0
   -0.3070    1.2750   -1.6420 H   0  0  0  0  0  0  0  0  0  0  0  0
    1.1510    2.5960   -0.0890 H   0  0  0  0  0  0  0  0  0  0  0  0
    2.8220    0.7510    1.1810 H   0  0  0  0  0  0  0  0  0  0  0  0
    2.9040    0.3500   -0.6220 H   0  0  0  0  0  0  0  0  0  0  0  0
    3.2750    1.9580   -0.0100 H   0  0  0  0  0  0  0  0  0  0  0  0
   -0.6950    1.6570    0.8240 H   0  0  0  0  0  0  0  0  0  0  0  0
    0.6170    1.3930    1.9680 H   0  0  0  0  0  0  0  0  0  0  0  0
   -0.7280   -0.4110    2.0810 H   0  0  0  0  0  0  0  0  0  0  0  0
    1.7400   -1.3060    0.6680 H   0  0  0  0  0  0  0  0  0  0  0  0
   -2.2710   -0.7720   -0.2440 N   0  0  0  0  0  0  0  0  0  0  0  0
   -3.1940    0.1620    0.3630 C   0  0  0  0  0  0  0  0  0  0  0  0
   -3.9390    0.6800   -0.8770 C   0  0  0  0  0  0  0  0  0  0  0  0
   -4.3210   -0.6780   -1.4780 C   0  0  0  0  0  0  0  0  0  0  0  0
   -3.0540   -1.4330   -1.3130 C   0  0  1  0  0  0  0  0  0  0  0  0
   -2.3450   -1.4580   -2.6030 C   0  0  0  0  0  0  0  0  0  0  0  0
   -1.2190   -1.0130   -2.8490 O   0  0  0  0  0  0  0  0  0  0  0  0
   -3.0300   -2.0530   -3.6690 O   0  0  0  0  0  0  0  0  0  0  0  0
   -2.7940    0.9300    0.9920 H   0  0  0  0  0  0  0  0  0  0  0  0
   -3.9680   -0.4280    0.9330 H   0  0  0  0  0  0  0  0  0  0  0  0
   -4.8310    1.2410   -0.6040 H   0  0  0  0  0  0  0  0  0  0  0  0
   -3.2270    1.1890   -1.5400 H   0  0  0  0  0  0  0  0  0  0  0  0
   -4.6980   -0.6010   -2.4980 H   0  0  0  0  0  0  0  0  0  0  0  0
   -5.0830   -1.1050   -0.7690 H   0  0  0  0  0  0  0  0  0  0  0  0
   -3.1940   -2.5000   -1.0000 H   0  0  0  0  0  0  0  0  0  0  0  0
  1 10  1  0  0  0  0
  1  2  1  0  0  0  0
  2 11  1  1  0  0  0
  2  3  1  0  0  0  0
  3 12  1  0  0  0  0
  3  4  1  0  0  0  0
  4  8  1  0  0  0  0
  4  5  2  0  0  0  0
  6  2  1  0  0  0  0
  6  7  2  0  0  0  0
  8 14  1  0  0  0  0
  9  1  1  0  0  0  0
 13  3  1  0  0  0  0
 15 16  1  0  0  0  0
 16 17  1  0  0  0  0
 16 18  1  0  0  0  0
 17 27  1  0  0  0  0
 18 19  1  0  0  0  0
 18 31  1  0  0  0  0
 19 20  1  0  0  0  0
 19 32  1  1  0  0  0
 20  6  1  0  0  0  0
 21 19  1  0  0  0  0
 22 21  2  0  0  0  0
 23 15  1  0  0  0  0
 24 15  1  0  0  0  0
 25 15  1  0  0  0  0
 26 16  1  0  0  0  0
 28 17  1  0  0  0  0
 29 17  1  0  0  0  0
 30 18  1  0  0  0  0
 33 20  1  0  0  0  0
 34 21  1  0  0  0  0
 34 35  1  0  0  0  0
 35 43  1  0  0  0  0
 35 42  1  0  0  0  0
 36 44  1  0  0  0  0
 36 35  1  0  0  0  0
 37 38  1  0  0  0  0
 37 36  1  0  0  0  0
 37 47  1  0  0  0  0
 38 48  1  1  0  0  0
 38 34  1  0  0  0  0
 39 38  1  0  0  0  0
 40 39  1  0  0  0  0
 41 39  2  0  0  0  0
 45 36  1  0  0  0  0
 46 37  1  0  0  0  0
M  END
$$$$
