DLQ.pdb
 OpenBabel07022418143D

 51 50  0  0  1  0  0  0  0  0999 V2000
    0.6570   -4.1000    2.5120 N   0  0  0  0  0  0  0  0  0  0  0  0
   -0.0200   -2.9240    2.9630 C   0  0  1  0  0  0  0  0  0  0  0  0
    0.3860   -2.4830    4.3230 C   0  0  0  0  0  0  0  0  0  0  0  0
    1.8070   -2.1700    4.5000 C   0  0  0  0  0  0  0  0  0  0  0  0
    2.7060   -2.2750    3.6530 O   0  0  0  0  0  0  0  0  0  0  0  0
   -0.0820   -1.8360    1.9410 C   0  0  0  0  0  0  0  0  0  0  0  0
    0.4680   -2.0050    0.8470 O   0  0  0  0  0  0  0  0  0  0  0  0
    2.1990   -1.7020    5.7590 O   0  0  0  0  0  0  0  0  0  0  0  0
    0.0920   -4.6950    1.8680 H   0  0  0  0  0  0  0  0  0  0  0  0
    0.9320   -4.6520    3.3550 H   0  0  0  0  0  0  0  0  0  0  0  0
   -1.1130   -3.2450    3.0680 H   0  0  0  0  0  0  0  0  0  0  0  0
    0.1660   -3.3310    5.0330 H   0  0  0  0  0  0  0  0  0  0  0  0
   -0.2760   -1.6630    4.6740 H   0  0  0  0  0  0  0  0  0  0  0  0
    3.0160   -1.0790    5.8460 H   0  0  0  0  0  0  0  0  0  0  0  0
    2.1320    2.8300    1.3670 C   0  0  0  0  0  0  0  0  0  0  0  0
    1.3830    1.4840    1.2330 C   0  0  0  0  0  0  0  0  0  0  0  0
    2.0040    0.6020    2.2930 C   0  0  0  0  0  0  0  0  0  0  0  0
   -0.0720    1.6750    1.4910 C   0  0  0  0  0  0  0  0  0  0  0  0
   -0.9570    0.4940    1.3820 C   0  0  2  0  0  0  0  0  0  0  0  0
   -0.7610   -0.6190    2.2040 N   0  0  0  0  0  0  0  0  0  0  0  0
   -1.3830    0.2640   -0.0280 C   0  0  0  0  0  0  0  0  0  0  0  0
   -1.2970    1.3030   -0.7710 O   0  0  0  0  0  0  0  0  0  0  0  0
    1.7910    3.5460    0.5960 H   0  0  0  0  0  0  0  0  0  0  0  0
    1.9750    3.2460    2.3910 H   0  0  0  0  0  0  0  0  0  0  0  0
    3.2170    2.6620    1.2110 H   0  0  0  0  0  0  0  0  0  0  0  0
    1.6160    1.1320    0.2250 H   0  0  0  0  0  0  0  0  0  0  0  0
    2.3810   -0.3300    1.8060 H   0  0  0  0  0  0  0  0  0  0  0  0
    2.8740    1.1310    2.7870 H   0  0  0  0  0  0  0  0  0  0  0  0
    1.3270    0.3430    3.1180 H   0  0  0  0  0  0  0  0  0  0  0  0
   -0.4050    2.4790    0.7590 H   0  0  0  0  0  0  0  0  0  0  0  0
   -0.2240    2.1950    2.4860 H   0  0  0  0  0  0  0  0  0  0  0  0
   -2.0030    0.9280    1.7790 H   0  0  0  0  0  0  0  0  0  0  0  0
   -1.1670   -0.5960    3.2030 H   0  0  0  0  0  0  0  0  0  0  0  0
    1.7340    0.1400   -3.4290 N   0  0  0  0  0  0  0  0  0  0  0  0
    0.3920   -0.3360   -3.4280 C   0  0  0  0  0  0  0  0  0  0  0  0
   -0.4630    0.4290   -3.9280 O   0  0  0  0  0  0  0  0  0  0  0  0
   -0.0150   -1.6320   -2.8920 C   0  0  0  0  0  0  0  0  0  0  0  0
   -1.4760   -1.9000   -2.8440 C   0  0  0  0  0  0  0  0  0  0  0  0
   -2.2310   -0.9570   -1.9880 C   0  0  2  0  0  0  0  0  0  0  0  0
   -1.8570   -0.9290   -0.5900 N   0  0  0  0  0  0  0  0  0  0  0  0
   -3.7090   -1.2110   -2.0740 C   0  0  0  0  0  0  0  0  0  0  0  0
   -4.3740   -1.3530   -1.0330 O   0  0  0  0  0  0  0  0  0  0  0  0
   -4.3640   -1.2920   -3.2910 O   0  0  0  0  0  0  0  0  0  0  0  0
    2.0660    0.6770   -2.5900 H   0  0  0  0  0  0  0  0  0  0  0  0
    2.4050   -0.0080   -4.2030 H   0  0  0  0  0  0  0  0  0  0  0  0
    0.4410   -2.4910   -3.4750 H   0  0  0  0  0  0  0  0  0  0  0  0
    0.3630   -1.6790   -1.8300 H   0  0  0  0  0  0  0  0  0  0  0  0
   -1.8590   -1.7380   -3.8970 H   0  0  0  0  0  0  0  0  0  0  0  0
   -1.6630   -2.9710   -2.6220 H   0  0  0  0  0  0  0  0  0  0  0  0
   -2.0980    0.0660   -2.3900 H   0  0  0  0  0  0  0  0  0  0  0  0
   -1.9590   -1.7850    0.0230 H   0  0  0  0  0  0  0  0  0  0  0  0
  1  2  1  0  0  0  0
  1 10  1  0  0  0  0
  2 11  1  1  0  0  0
  2  3  1  0  0  0  0
  3  4  1  0  0  0  0
  3 13  1  0  0  0  0
  3 12  1  0  0  0  0
  4  8  1  0  0  0  0
  5  4  2  0  0  0  0
  6 20  1  0  0  0  0
  6  2  1  0  0  0  0
  7  6  2  0  0  0  0
  8 14  1  0  0  0  0
  9  1  1  0  0  0  0
 15 24  1  0  0  0  0
 16 15  1  0  0  0  0
 16 18  1  0  0  0  0
 16 17  1  0  0  0  0
 17 28  1  0  0  0  0
 17 29  1  0  0  0  0
 18 31  1  0  0  0  0
 19 18  1  0  0  0  0
 19 32  1  1  0  0  0
 19 20  1  0  0  0  0
 20 33  1  0  0  0  0
 21 19  1  0  0  0  0
 22 21  2  0  0  0  0
 23 15  1  0  0  0  0
 25 15  1  0  0  0  0
 26 16  1  0  0  0  0
 27 17  1  0  0  0  0
 30 18  1  0  0  0  0
 34 35  1  0  0  0  0
 34 44  1  0  0  0  0
 35 37  1  0  0  0  0
 36 35  2  0  0  0  0
 37 38  1  0  0  0  0
 37 47  1  0  0  0  0
 38 49  1  0  0  0  0
 38 39  1  0  0  0  0
 39 50  1  6  0  0  0
 39 40  1  0  0  0  0
 40 21  1  0  0  0  0
 40 51  1  0  0  0  0
 41 39  1  0  0  0  0
 41 42  1  0  0  0  0
 43 41  2  0  0  0  0
 45 34  1  0  0  0  0
 46 37  1  0  0  0  0
 48 38  1  0  0  0  0
M  END
$$$$
