DLR.pdb
 OpenBabel07022418143D

 57 56  0  0  1  0  0  0  0  0999 V2000
    1.3650   -2.5320    3.2020 N   0  0  0  0  0  0  0  0  0  0  0  0
    0.3060   -1.6470    3.7180 C   0  0  1  0  0  0  0  0  0  0  0  0
    0.7940   -0.9710    4.9550 C   0  0  0  0  0  0  0  0  0  0  0  0
   -0.2390   -0.0980    5.5280 C   0  0  0  0  0  0  0  0  0  0  0  0
    0.0910    0.7540    6.4190 O   0  0  0  0  0  0  0  0  0  0  0  0
   -0.0490   -0.6610    2.6510 C   0  0  0  0  0  0  0  0  0  0  0  0
   -0.9910    0.1490    2.7380 O   0  0  0  0  0  0  0  0  0  0  0  0
   -1.5830   -0.1070    5.1900 O   0  0  0  0  0  0  0  0  0  0  0  0
    2.2720   -2.0200    3.1250 H   0  0  0  0  0  0  0  0  0  0  0  0
    1.0470   -2.9740    2.3340 H   0  0  0  0  0  0  0  0  0  0  0  0
   -0.5620   -2.2700    3.9440 H   0  0  0  0  0  0  0  0  0  0  0  0
    1.0930   -1.7480    5.7140 H   0  0  0  0  0  0  0  0  0  0  0  0
    1.6990   -0.3560    4.7350 H   0  0  0  0  0  0  0  0  0  0  0  0
   -2.1750    0.7020    5.4110 H   0  0  0  0  0  0  0  0  0  0  0  0
    2.9740    0.3020   -1.2900 C   0  0  0  0  0  0  0  0  0  0  0  0
    2.7860    1.0490   -0.0010 C   0  0  0  0  0  0  0  0  0  0  0  0
    3.6790    2.2710   -0.0610 C   0  0  0  0  0  0  0  0  0  0  0  0
    1.3790    1.4450    0.2630 C   0  0  0  0  0  0  0  0  0  0  0  0
    0.3980    0.3350    0.3780 C   0  0  2  0  0  0  0  0  0  0  0  0
    0.7070   -0.5990    1.4370 N   0  0  0  0  0  0  0  0  0  0  0  0
    0.0650   -0.3710   -0.8750 C   0  0  0  0  0  0  0  0  0  0  0  0
   -0.1570    0.3030   -1.9090 O   0  0  0  0  0  0  0  0  0  0  0  0
    4.0630    0.0820   -1.4810 H   0  0  0  0  0  0  0  0  0  0  0  0
    2.6420    0.9070   -2.1390 H   0  0  0  0  0  0  0  0  0  0  0  0
    2.5000   -0.6870   -1.2400 H   0  0  0  0  0  0  0  0  0  0  0  0
    3.1140    0.3960    0.8610 H   0  0  0  0  0  0  0  0  0  0  0  0
    4.6810    1.9620    0.3130 H   0  0  0  0  0  0  0  0  0  0  0  0
    3.2960    3.0980    0.5610 H   0  0  0  0  0  0  0  0  0  0  0  0
    3.8140    2.5590   -1.1180 H   0  0  0  0  0  0  0  0  0  0  0  0
    1.3790    2.0670    1.2070 H   0  0  0  0  0  0  0  0  0  0  0  0
    1.0190    2.1780   -0.5210 H   0  0  0  0  0  0  0  0  0  0  0  0
   -0.6000    0.8270    0.6810 H   0  0  0  0  0  0  0  0  0  0  0  0
    1.5010   -1.2590    1.3410 H   0  0  0  0  0  0  0  0  0  0  0  0
   -3.7740   -1.0040    1.8780 N   0  0  0  0  0  0  0  0  0  0  0  0
   -3.4450   -0.4160    0.6110 C   0  0  0  0  0  0  0  0  0  0  0  0
   -3.6050    0.8520    0.4700 N   0  0  0  0  0  0  0  0  0  0  0  0
   -2.9620   -1.2850   -0.4200 N   0  0  0  0  0  0  0  0  0  0  0  0
   -3.1380   -0.8630   -1.7860 C   0  0  0  0  0  0  0  0  0  0  0  0
   -2.6130   -1.7340   -2.8360 C   0  0  0  0  0  0  0  0  0  0  0  0
   -1.2080   -2.0270   -3.0680 C   0  0  0  0  0  0  0  0  0  0  0  0
   -0.3190   -2.5730   -2.0200 C   0  0  2  0  0  0  0  0  0  0  0  0
    0.0000   -1.7820   -0.8890 N   0  0  0  0  0  0  0  0  0  0  0  0
    0.8250   -3.3630   -2.4950 C   0  0  0  0  0  0  0  0  0  0  0  0
    0.7530   -4.1130   -3.5030 O   0  0  0  0  0  0  0  0  0  0  0  0
    2.0280   -3.2930   -1.8220 O   0  0  0  0  0  0  0  0  0  0  0  0
   -3.3920   -1.9330    2.1140 H   0  0  0  0  0  0  0  0  0  0  0  0
   -4.3870   -0.5030    2.5480 H   0  0  0  0  0  0  0  0  0  0  0  0
   -3.4010    1.3670   -0.3860 H   0  0  0  0  0  0  0  0  0  0  0  0
   -2.5290   -2.1800   -0.1140 H   0  0  0  0  0  0  0  0  0  0  0  0
   -2.8420    0.2060   -1.9350 H   0  0  0  0  0  0  0  0  0  0  0  0
   -4.2770   -0.8270   -1.9440 H   0  0  0  0  0  0  0  0  0  0  0  0
   -3.2470   -2.6950   -2.8470 H   0  0  0  0  0  0  0  0  0  0  0  0
   -2.9930   -1.2680   -3.8310 H   0  0  0  0  0  0  0  0  0  0  0  0
   -1.1890   -2.8230   -3.9040 H   0  0  0  0  0  0  0  0  0  0  0  0
   -0.7380   -1.1550   -3.6160 H   0  0  0  0  0  0  0  0  0  0  0  0
   -1.0340   -3.4200   -1.5740 H   0  0  0  0  0  0  0  0  0  0  0  0
    0.2110   -2.2730    0.0250 H   0  0  0  0  0  0  0  0  0  0  0  0
  1  2  1  0  0  0  0
  2 11  1  1  0  0  0
  2  3  1  0  0  0  0
  3  4  1  0  0  0  0
  3 12  1  0  0  0  0
  4  5  2  0  0  0  0
  6  7  2  0  0  0  0
  6  2  1  0  0  0  0
  8 14  1  0  0  0  0
  8  4  1  0  0  0  0
  9  1  1  0  0  0  0
 10  1  1  0  0  0  0
 13  3  1  0  0  0  0
 15 25  1  0  0  0  0
 15 16  1  0  0  0  0
 16 18  1  0  0  0  0
 16 26  1  0  0  0  0
 17 16  1  0  0  0  0
 17 27  1  0  0  0  0
 17 28  1  0  0  0  0
 18 19  1  0  0  0  0
 18 30  1  0  0  0  0
 19 32  1  1  0  0  0
 19 20  1  0  0  0  0
 20  6  1  0  0  0  0
 21 19  1  0  0  0  0
 22 21  2  0  0  0  0
 23 15  1  0  0  0  0
 24 15  1  0  0  0  0
 29 17  1  0  0  0  0
 31 18  1  0  0  0  0
 33 20  1  0  0  0  0
 34 46  1  0  0  0  0
 34 47  1  0  0  0  0
 35 34  1  0  0  0  0
 36 35  2  0  0  0  0
 37 49  1  0  0  0  0
 37 35  1  0  0  0  0
 38 37  1  0  0  0  0
 39 38  1  0  0  0  0
 40 39  1  0  0  0  0
 40 41  1  0  0  0  0
 41 56  1  1  0  0  0
 41 42  1  0  0  0  0
 42 21  1  0  0  0  0
 42 57  1  0  0  0  0
 43 41  1  0  0  0  0
 43 45  1  0  0  0  0
 44 43  2  0  0  0  0
 48 36  1  0  0  0  0
 50 38  1  0  0  0  0
 51 38  1  0  0  0  0
 52 39  1  0  0  0  0
 53 39  1  0  0  0  0
 54 40  1  0  0  0  0
 55 40  1  0  0  0  0
M  END
$$$$
