DLT.pdb
 OpenBabel07022418143D

 48 47  0  0  1  0  0  0  0  0999 V2000
    2.6660   -3.4710    3.2280 N   0  0  0  0  0  0  0  0  0  0  0  0
    2.2380   -2.0970    3.4660 C   0  0  1  0  0  0  0  0  0  0  0  0
    3.4730   -1.2910    3.7080 C   0  0  0  0  0  0  0  0  0  0  0  0
    3.1170    0.1200    3.9550 C   0  0  0  0  0  0  0  0  0  0  0  0
    3.1930    1.0210    3.0510 O   0  0  0  0  0  0  0  0  0  0  0  0
    1.4100   -1.5960    2.3340 C   0  0  0  0  0  0  0  0  0  0  0  0
    1.4190   -2.2950    1.2740 O   0  0  0  0  0  0  0  0  0  0  0  0
    2.6730    0.5530    5.2060 O   0  0  0  0  0  0  0  0  0  0  0  0
    2.8240   -3.8810    4.1940 H   0  0  0  0  0  0  0  0  0  0  0  0
    1.9320   -4.0430    2.7710 H   0  0  0  0  0  0  0  0  0  0  0  0
    1.6140   -2.0900    4.3760 H   0  0  0  0  0  0  0  0  0  0  0  0
    4.2110   -1.3940    2.8800 H   0  0  0  0  0  0  0  0  0  0  0  0
    3.9830   -1.7620    4.5980 H   0  0  0  0  0  0  0  0  0  0  0  0
    1.9100    1.2190    5.2860 H   0  0  0  0  0  0  0  0  0  0  0  0
    1.9590    2.2210   -1.0170 C   0  0  0  0  0  0  0  0  0  0  0  0
    1.5980    0.9380   -0.2480 C   0  0  0  0  0  0  0  0  0  0  0  0
    1.5990   -0.1740   -1.2310 C   0  0  0  0  0  0  0  0  0  0  0  0
    0.3780    1.1710    0.5370 C   0  0  0  0  0  0  0  0  0  0  0  0
   -0.1680    0.0930    1.3660 C   0  0  2  0  0  0  0  0  0  0  0  0
    0.6440   -0.4280    2.3860 N   0  0  0  0  0  0  0  0  0  0  0  0
   -0.9790   -0.9320    0.6120 C   0  0  0  0  0  0  0  0  0  0  0  0
   -0.9950   -2.1530    0.8980 O   0  0  0  0  0  0  0  0  0  0  0  0
    2.4980    2.0130   -1.9420 H   0  0  0  0  0  0  0  0  0  0  0  0
    1.0240    2.7580   -1.2780 H   0  0  0  0  0  0  0  0  0  0  0  0
    2.5400    2.9130   -0.3740 H   0  0  0  0  0  0  0  0  0  0  0  0
    2.4770    0.7720    0.4230 H   0  0  0  0  0  0  0  0  0  0  0  0
    2.6430   -0.5640   -1.4330 H   0  0  0  0  0  0  0  0  0  0  0  0
    1.3040    0.2600   -2.2340 H   0  0  0  0  0  0  0  0  0  0  0  0
    0.8880   -0.9830   -1.0590 H   0  0  0  0  0  0  0  0  0  0  0  0
   -0.4120    1.5490   -0.1430 H   0  0  0  0  0  0  0  0  0  0  0  0
    0.5870    2.0840    1.1860 H   0  0  0  0  0  0  0  0  0  0  0  0
   -1.0560    0.5830    1.9500 H   0  0  0  0  0  0  0  0  0  0  0  0
    0.6960    0.0930    3.3180 H   0  0  0  0  0  0  0  0  0  0  0  0
   -4.4030   -1.4780    0.4650 C   0  0  0  0  0  0  0  0  0  0  0  0
   -4.0710   -1.3260   -1.0220 C   0  0  1  0  0  0  0  0  0  0  0  0
   -4.4690   -0.0880   -1.4650 O   0  0  0  0  0  0  0  0  0  0  0  0
   -2.5860   -1.5670   -1.2240 C   0  0  2  0  0  0  0  0  0  0  0  0
   -1.8020   -0.5740   -0.5010 N   0  0  0  0  0  0  0  0  0  0  0  0
   -2.2250   -1.6040   -2.6500 C   0  0  0  0  0  0  0  0  0  0  0  0
   -1.3480   -0.8620   -3.1410 O   0  0  0  0  0  0  0  0  0  0  0  0
   -2.8680   -2.4900   -3.5120 O   0  0  0  0  0  0  0  0  0  0  0  0
   -4.1930   -2.5230    0.7700 H   0  0  0  0  0  0  0  0  0  0  0  0
   -3.7210   -0.7480    0.9870 H   0  0  0  0  0  0  0  0  0  0  0  0
   -5.4670   -1.2600    0.6480 H   0  0  0  0  0  0  0  0  0  0  0  0
   -4.6190   -2.1250   -1.5650 H   0  0  0  0  0  0  0  0  0  0  0  0
   -4.8660    0.4370   -0.7400 H   0  0  0  0  0  0  0  0  0  0  0  0
   -2.3810   -2.5520   -0.7470 H   0  0  0  0  0  0  0  0  0  0  0  0
   -1.8700    0.3920   -0.8240 H   0  0  0  0  0  0  0  0  0  0  0  0
  1  2  1  0  0  0  0
  1  9  1  0  0  0  0
  2  3  1  0  0  0  0
  2 11  1  1  0  0  0
  3  4  1  0  0  0  0
  3 13  1  0  0  0  0
  4  8  1  0  0  0  0
  5  4  2  0  0  0  0
  6 20  1  0  0  0  0
  6  2  1  0  0  0  0
  7  6  2  0  0  0  0
  8 14  1  0  0  0  0
 10  1  1  0  0  0  0
 12  3  1  0  0  0  0
 15 25  1  0  0  0  0
 15 16  1  0  0  0  0
 16 26  1  0  0  0  0
 16 18  1  0  0  0  0
 17 29  1  0  0  0  0
 17 16  1  0  0  0  0
 18 31  1  0  0  0  0
 18 19  1  0  0  0  0
 19 32  1  1  0  0  0
 19 20  1  0  0  0  0
 20 33  1  0  0  0  0
 21 22  2  0  0  0  0
 21 19  1  0  0  0  0
 23 15  1  0  0  0  0
 24 15  1  0  0  0  0
 27 17  1  0  0  0  0
 28 17  1  0  0  0  0
 30 18  1  0  0  0  0
 34 44  1  0  0  0  0
 34 42  1  0  0  0  0
 34 43  1  0  0  0  0
 35 45  1  6  0  0  0
 35 34  1  0  0  0  0
 36 35  1  0  0  0  0
 36 46  1  0  0  0  0
 37 35  1  0  0  0  0
 37 47  1  1  0  0  0
 37 38  1  0  0  0  0
 38 21  1  0  0  0  0
 39 37  1  0  0  0  0
 40 39  1  0  0  0  0
 41 39  2  0  0  0  0
 48 38  1  0  0  0  0
M  END
$$$$
