DLW.pdb
 OpenBabel07022418143D

 58 59  0  0  1  0  0  0  0  0999 V2000
    2.7730    2.2700    4.1920 N   0  0  0  0  0  0  0  0  0  0  0  0
    3.4540    1.1060    3.6740 C   0  0  1  0  0  0  0  0  0  0  0  0
    3.5130    0.0720    4.7770 C   0  0  0  0  0  0  0  0  0  0  0  0
    4.2450    0.5770    5.9620 C   0  0  0  0  0  0  0  0  0  0  0  0
    4.7510    1.7430    6.0140 O   0  0  0  0  0  0  0  0  0  0  0  0
    2.6330    0.5480    2.5500 C   0  0  0  0  0  0  0  0  0  0  0  0
    3.0410   -0.4710    1.9440 O   0  0  0  0  0  0  0  0  0  0  0  0
    4.4140   -0.2130    7.0860 O   0  0  0  0  0  0  0  0  0  0  0  0
    2.6640    3.0230    3.4900 H   0  0  0  0  0  0  0  0  0  0  0  0
    1.8540    1.9590    4.5700 H   0  0  0  0  0  0  0  0  0  0  0  0
    4.4930    1.3150    3.3680 H   0  0  0  0  0  0  0  0  0  0  0  0
    3.9060   -0.9020    4.4120 H   0  0  0  0  0  0  0  0  0  0  0  0
    2.4650   -0.1390    5.1330 H   0  0  0  0  0  0  0  0  0  0  0  0
    5.3090   -0.1410    7.5950 H   0  0  0  0  0  0  0  0  0  0  0  0
   -0.4080    3.0680   -0.2430 C   0  0  0  0  0  0  0  0  0  0  0  0
    0.9590    2.4960   -0.4600 C   0  0  0  0  0  0  0  0  0  0  0  0
    1.3420    2.7940   -1.9100 C   0  0  0  0  0  0  0  0  0  0  0  0
    1.0250    1.0030   -0.2910 C   0  0  0  0  0  0  0  0  0  0  0  0
    0.6160    0.5950    1.0790 C   0  0  2  0  0  0  0  0  0  0  0  0
    1.4120    1.1320    2.1490 N   0  0  0  0  0  0  0  0  0  0  0  0
    0.3420   -0.8600    1.2310 C   0  0  0  0  0  0  0  0  0  0  0  0
    0.7300   -1.4630    2.2590 O   0  0  0  0  0  0  0  0  0  0  0  0
   -0.5770    3.9340   -0.9310 H   0  0  0  0  0  0  0  0  0  0  0  0
   -0.5280    3.5060    0.7880 H   0  0  0  0  0  0  0  0  0  0  0  0
   -1.2210    2.3530   -0.4080 H   0  0  0  0  0  0  0  0  0  0  0  0
    1.7150    3.0260    0.1610 H   0  0  0  0  0  0  0  0  0  0  0  0
    2.1330    2.1020   -2.2720 H   0  0  0  0  0  0  0  0  0  0  0  0
    1.6100    3.8650   -2.0450 H   0  0  0  0  0  0  0  0  0  0  0  0
    0.4650    2.6150   -2.5880 H   0  0  0  0  0  0  0  0  0  0  0  0
    2.0630    0.7000   -0.5540 H   0  0  0  0  0  0  0  0  0  0  0  0
    0.2820    0.5700   -1.0070 H   0  0  0  0  0  0  0  0  0  0  0  0
   -0.4250    1.0460    1.2560 H   0  0  0  0  0  0  0  0  0  0  0  0
    1.1070    1.9910    2.6750 H   0  0  0  0  0  0  0  0  0  0  0  0
   -0.3420   -1.6170    0.2680 N   0  0  0  0  0  0  0  0  0  0  0  0
   -0.5890   -3.0600    0.4660 C   0  0  1  0  0  0  0  0  0  0  0  0
   -2.0540   -3.3150    0.6040 C   0  0  0  0  0  0  0  0  0  0  0  0
   -2.8870   -2.8940   -0.5330 C   0  0  0  0  0  0  0  0  0  0  0  0
   -3.5540   -1.6740   -0.6480 C   0  0  0  0  0  0  0  0  0  0  0  0
   -4.1620   -1.6300   -1.8160 N   0  0  0  0  0  0  0  0  0  0  0  0
   -3.9460   -2.7730   -2.5200 C   0  0  0  0  0  0  0  0  0  0  0  0
   -4.3820   -3.1740   -3.7640 C   0  0  0  0  0  0  0  0  0  0  0  0
   -4.0310   -4.4070   -4.2610 C   0  0  0  0  0  0  0  0  0  0  0  0
   -3.2380   -5.1880   -3.4520 C   0  0  0  0  0  0  0  0  0  0  0  0
   -2.7910   -4.8080   -2.2070 C   0  0  0  0  0  0  0  0  0  0  0  0
   -3.1440   -3.5610   -1.7050 C   0  0  0  0  0  0  0  0  0  0  0  0
    0.1160   -3.7720   -0.6000 C   0  0  0  0  0  0  0  0  0  0  0  0
    0.6740   -3.1470   -1.5620 O   0  0  0  0  0  0  0  0  0  0  0  0
    0.2410   -5.1480   -0.6540 O   0  0  0  0  0  0  0  0  0  0  0  0
   -0.6910   -1.2050   -0.5950 H   0  0  0  0  0  0  0  0  0  0  0  0
   -0.1340   -3.3300    1.4770 H   0  0  0  0  0  0  0  0  0  0  0  0
   -2.3860   -2.8360    1.5430 H   0  0  0  0  0  0  0  0  0  0  0  0
   -2.1850   -4.4130    0.7520 H   0  0  0  0  0  0  0  0  0  0  0  0
   -3.5310   -0.9270    0.1410 H   0  0  0  0  0  0  0  0  0  0  0  0
   -4.7380   -0.8230   -2.1620 H   0  0  0  0  0  0  0  0  0  0  0  0
   -5.0040   -2.5430   -4.3830 H   0  0  0  0  0  0  0  0  0  0  0  0
   -4.3660   -4.7410   -5.2430 H   0  0  0  0  0  0  0  0  0  0  0  0
   -2.9680   -6.1700   -3.8620 H   0  0  0  0  0  0  0  0  0  0  0  0
   -2.1880   -5.4410   -1.5850 H   0  0  0  0  0  0  0  0  0  0  0  0
  1 10  1  0  0  0  0
  2 11  1  6  0  0  0
  2  1  1  0  0  0  0
  2  3  1  0  0  0  0
  3 13  1  0  0  0  0
  3  4  1  0  0  0  0
  4  5  2  0  0  0  0
  4  8  1  0  0  0  0
  6  2  1  0  0  0  0
  7  6  2  0  0  0  0
  8 14  1  0  0  0  0
  9  1  1  0  0  0  0
 12  3  1  0  0  0  0
 15 24  1  0  0  0  0
 16 18  1  0  0  0  0
 16 15  1  0  0  0  0
 16 26  1  0  0  0  0
 17 16  1  0  0  0  0
 18 19  1  0  0  0  0
 19 21  1  0  0  0  0
 19 32  1  1  0  0  0
 19 20  1  0  0  0  0
 20  6  1  0  0  0  0
 20 33  1  0  0  0  0
 21 22  2  0  0  0  0
 23 15  1  0  0  0  0
 25 15  1  0  0  0  0
 27 17  1  0  0  0  0
 28 17  1  0  0  0  0
 29 17  1  0  0  0  0
 30 18  1  0  0  0  0
 31 18  1  0  0  0  0
 34 35  1  0  0  0  0
 34 21  1  0  0  0  0
 35 36  1  0  0  0  0
 35 50  1  1  0  0  0
 36 52  1  0  0  0  0
 36 51  1  0  0  0  0
 37 36  1  0  0  0  0
 38 37  2  0  0  0  0
 38 53  1  0  0  0  0
 39 38  1  0  0  0  0
 40 39  1  0  0  0  0
 40 45  1  0  0  0  0
 41 40  2  0  0  0  0
 42 41  1  0  0  0  0
 42 43  2  0  0  0  0
 43 44  1  0  0  0  0
 44 45  2  0  0  0  0
 44 58  1  0  0  0  0
 45 37  1  0  0  0  0
 46 35  1  0  0  0  0
 47 46  2  0  0  0  0
 48 46  1  0  0  0  0
 49 34  1  0  0  0  0
 54 39  1  0  0  0  0
 55 41  1  0  0  0  0
 56 42  1  0  0  0  0
 57 43  1  0  0  0  0
M  END
$$$$
