DMC.pdb
 OpenBabel07022418153D

 43 42  0  0  1  0  0  0  0  0999 V2000
    3.4390   -3.4550    3.1770 N   0  0  0  0  0  0  0  0  0  0  0  0
    2.0750   -2.8690    3.0250 C   0  0  1  0  0  0  0  0  0  0  0  0
    1.8830   -2.1450    4.3280 C   0  0  0  0  0  0  0  0  0  0  0  0
    0.5860   -1.4790    4.4950 C   0  0  0  0  0  0  0  0  0  0  0  0
   -0.3870   -1.5400    3.7050 O   0  0  0  0  0  0  0  0  0  0  0  0
    2.1540   -1.9850    1.8390 C   0  0  0  0  0  0  0  0  0  0  0  0
    3.2940   -1.4800    1.5760 O   0  0  0  0  0  0  0  0  0  0  0  0
    0.3770   -0.6860    5.6430 O   0  0  0  0  0  0  0  0  0  0  0  0
    3.5430   -4.0320    2.3020 H   0  0  0  0  0  0  0  0  0  0  0  0
    3.3880   -4.1340    3.9630 H   0  0  0  0  0  0  0  0  0  0  0  0
    1.3860   -3.6970    2.9490 H   0  0  0  0  0  0  0  0  0  0  0  0
    1.9610   -2.8690    5.1950 H   0  0  0  0  0  0  0  0  0  0  0  0
    2.7360   -1.4400    4.5230 H   0  0  0  0  0  0  0  0  0  0  0  0
   -0.2210    0.1420    5.5810 H   0  0  0  0  0  0  0  0  0  0  0  0
    0.5660    0.9180   -4.8670 C   0  0  0  0  0  0  0  0  0  0  0  0
    0.2050    0.2040   -3.2670 S   0  0  0  0  0  0  0  0  0  0  0  0
    1.5110   -0.8950   -2.7490 C   0  0  0  0  0  0  0  0  0  0  0  0
    1.3340   -1.5600   -1.4370 C   0  0  0  0  0  0  0  0  0  0  0  0
    1.2960   -0.7610   -0.1910 C   0  0  2  0  0  0  0  0  0  0  0  0
    1.0970   -1.6530    0.9700 N   0  0  0  0  0  0  0  0  0  0  0  0
    0.3940    0.3820   -0.1550 C   0  0  0  0  0  0  0  0  0  0  0  0
    0.5640    1.3640   -0.9120 O   0  0  0  0  0  0  0  0  0  0  0  0
   -0.3340    0.8030   -5.5170 H   0  0  0  0  0  0  0  0  0  0  0  0
    1.3690    0.3330   -5.3980 H   0  0  0  0  0  0  0  0  0  0  0  0
    0.8670    1.9930   -4.8090 H   0  0  0  0  0  0  0  0  0  0  0  0
    1.5420   -1.7360   -3.5170 H   0  0  0  0  0  0  0  0  0  0  0  0
    2.5290   -0.4360   -2.8710 H   0  0  0  0  0  0  0  0  0  0  0  0
    2.1940   -2.3140   -1.3720 H   0  0  0  0  0  0  0  0  0  0  0  0
    0.4510   -2.2460   -1.5460 H   0  0  0  0  0  0  0  0  0  0  0  0
    2.3490   -0.3600   -0.0540 H   0  0  0  0  0  0  0  0  0  0  0  0
    0.1660   -2.0610    1.1540 H   0  0  0  0  0  0  0  0  0  0  0  0
   -0.7230    0.4640    0.7250 N   0  0  0  0  0  0  0  0  0  0  0  0
   -1.5610    1.6490    0.6880 C   0  0  1  0  0  0  0  0  0  0  0  0
   -2.9620    1.1680    0.3020 C   0  0  0  0  0  0  0  0  0  0  0  0
   -4.1110    2.5910    0.2250 S   0  0  0  0  0  0  0  0  0  0  0  0
   -1.5890    2.3380    1.9940 C   0  0  0  0  0  0  0  0  0  0  0  0
   -2.2680    3.3870    2.1180 O   0  0  0  0  0  0  0  0  0  0  0  0
   -0.8900    1.8720    3.1000 O   0  0  0  0  0  0  0  0  0  0  0  0
   -0.9390   -0.3110    1.3780 H   0  0  0  0  0  0  0  0  0  0  0  0
   -1.2090    2.3720   -0.0640 H   0  0  0  0  0  0  0  0  0  0  0  0
   -3.3290    0.5180    1.1000 H   0  0  0  0  0  0  0  0  0  0  0  0
   -2.8670    0.6710   -0.6860 H   0  0  0  0  0  0  0  0  0  0  0  0
   -5.4250    2.0870    0.1900 H   0  0  0  0  0  0  0  0  0  0  0  0
  1 10  1  0  0  0  0
  2 11  1  6  0  0  0
  2  1  1  0  0  0  0
  2  3  1  0  0  0  0
  3  4  1  0  0  0  0
  3 13  1  0  0  0  0
  3 12  1  0  0  0  0
  4  8  1  0  0  0  0
  5  4  2  0  0  0  0
  6  2  1  0  0  0  0
  7  6  2  0  0  0  0
  9  1  1  0  0  0  0
 14  8  1  0  0  0  0
 15 25  1  0  0  0  0
 15 16  1  0  0  0  0
 16 17  1  0  0  0  0
 17 18  1  0  0  0  0
 18 28  1  0  0  0  0
 18 19  1  0  0  0  0
 19 21  1  0  0  0  0
 19 30  1  1  0  0  0
 19 20  1  0  0  0  0
 20 31  1  0  0  0  0
 20  6  1  0  0  0  0
 21 32  1  0  0  0  0
 22 21  2  0  0  0  0
 23 15  1  0  0  0  0
 24 15  1  0  0  0  0
 26 17  1  0  0  0  0
 27 17  1  0  0  0  0
 29 18  1  0  0  0  0
 32 39  1  0  0  0  0
 33 40  1  6  0  0  0
 33 32  1  0  0  0  0
 33 36  1  0  0  0  0
 34 33  1  0  0  0  0
 34 41  1  0  0  0  0
 35 34  1  0  0  0  0
 36 37  2  0  0  0  0
 36 38  1  0  0  0  0
 42 34  1  0  0  0  0
 43 35  1  0  0  0  0
M  END
$$$$
