DMD.pdb
 OpenBabel07022418153D

 45 44  0  0  1  0  0  0  0  0999 V2000
    2.3850   -2.7210   -0.9620 N   0  0  0  0  0  0  0  0  0  0  0  0
    2.6210   -3.1540    0.4040 C   0  0  1  0  0  0  0  0  0  0  0  0
    4.1130   -3.2370    0.6480 C   0  0  0  0  0  0  0  0  0  0  0  0
    4.4030   -3.6710    2.0320 C   0  0  0  0  0  0  0  0  0  0  0  0
    4.5660   -2.8710    3.0080 O   0  0  0  0  0  0  0  0  0  0  0  0
    2.0350   -2.2160    1.3880 C   0  0  0  0  0  0  0  0  0  0  0  0
    2.0200   -2.4950    2.6200 O   0  0  0  0  0  0  0  0  0  0  0  0
    4.5260   -5.0290    2.3880 O   0  0  0  0  0  0  0  0  0  0  0  0
    1.3850   -2.9030   -1.2340 H   0  0  0  0  0  0  0  0  0  0  0  0
    2.6790   -1.7630   -1.1710 H   0  0  0  0  0  0  0  0  0  0  0  0
    2.2250   -4.1840    0.4940 H   0  0  0  0  0  0  0  0  0  0  0  0
    4.5760   -2.2460    0.4450 H   0  0  0  0  0  0  0  0  0  0  0  0
    4.5080   -4.0100   -0.0480 H   0  0  0  0  0  0  0  0  0  0  0  0
    4.1370   -5.3110    3.2950 H   0  0  0  0  0  0  0  0  0  0  0  0
   -0.6760    3.8670    1.4870 C   0  0  0  0  0  0  0  0  0  0  0  0
    0.1680    2.7130    0.3790 S   0  0  0  0  0  0  0  0  0  0  0  0
    1.7070    2.1010    1.0430 C   0  0  0  0  0  0  0  0  0  0  0  0
    1.6120    1.2100    2.2160 C   0  0  0  0  0  0  0  0  0  0  0  0
    0.8850   -0.0700    2.0550 C   0  0  2  0  0  0  0  0  0  0  0  0
    1.4570   -0.9600    1.0400 N   0  0  0  0  0  0  0  0  0  0  0  0
   -0.5350    0.1130    1.6910 C   0  0  0  0  0  0  0  0  0  0  0  0
   -1.2580    0.8300    2.4140 O   0  0  0  0  0  0  0  0  0  0  0  0
   -0.2730    4.9000    1.4150 H   0  0  0  0  0  0  0  0  0  0  0  0
   -1.7290    3.9390    1.1280 H   0  0  0  0  0  0  0  0  0  0  0  0
   -0.7070    3.5090    2.5350 H   0  0  0  0  0  0  0  0  0  0  0  0
    2.3160    2.9980    1.3650 H   0  0  0  0  0  0  0  0  0  0  0  0
    2.3030    1.6470    0.2270 H   0  0  0  0  0  0  0  0  0  0  0  0
    1.2080    1.7330    3.1090 H   0  0  0  0  0  0  0  0  0  0  0  0
    2.6730    0.9490    2.5140 H   0  0  0  0  0  0  0  0  0  0  0  0
    0.9400   -0.6440    3.0400 H   0  0  0  0  0  0  0  0  0  0  0  0
    1.4390   -0.6650    0.0430 H   0  0  0  0  0  0  0  0  0  0  0  0
   -1.1170   -0.4960    0.5500 N   0  0  0  0  0  0  0  0  0  0  0  0
   -2.5220   -0.3170    0.2010 C   0  0  1  0  0  0  0  0  0  0  0  0
   -2.6640    0.4700   -1.0860 C   0  0  0  0  0  0  0  0  0  0  0  0
   -4.1050    0.6200   -1.3850 C   0  0  0  0  0  0  0  0  0  0  0  0
   -4.7030   -0.0790   -2.2500 O   0  0  0  0  0  0  0  0  0  0  0  0
   -3.1400   -1.6430    0.0110 C   0  0  0  0  0  0  0  0  0  0  0  0
   -2.4420   -2.6950    0.1510 O   0  0  0  0  0  0  0  0  0  0  0  0
   -4.9170    1.5510   -0.7300 O   0  0  0  0  0  0  0  0  0  0  0  0
   -4.4730   -1.8140   -0.3190 O   0  0  0  0  0  0  0  0  0  0  0  0
   -0.5490   -1.1000   -0.0780 H   0  0  0  0  0  0  0  0  0  0  0  0
   -3.0360    0.2490    1.0310 H   0  0  0  0  0  0  0  0  0  0  0  0
   -2.1330    1.4430   -1.0570 H   0  0  0  0  0  0  0  0  0  0  0  0
   -2.2260   -0.2060   -1.8820 H   0  0  0  0  0  0  0  0  0  0  0  0
   -5.7880    1.2360   -0.2750 H   0  0  0  0  0  0  0  0  0  0  0  0
  1  2  1  0  0  0  0
  2 11  1  1  0  0  0
  2  3  1  0  0  0  0
  2  6  1  0  0  0  0
  3  4  1  0  0  0  0
  4  8  1  0  0  0  0
  4  5  2  0  0  0  0
  6  7  2  0  0  0  0
  8 14  1  0  0  0  0
  9  1  1  0  0  0  0
 10  1  1  0  0  0  0
 12  3  1  0  0  0  0
 13  3  1  0  0  0  0
 15 25  1  0  0  0  0
 16 17  1  0  0  0  0
 16 15  1  0  0  0  0
 17 26  1  0  0  0  0
 17 18  1  0  0  0  0
 18 29  1  0  0  0  0
 18 28  1  0  0  0  0
 19 18  1  0  0  0  0
 19 30  1  1  0  0  0
 20  6  1  0  0  0  0
 20 19  1  0  0  0  0
 21 19  1  0  0  0  0
 21 22  2  0  0  0  0
 23 15  1  0  0  0  0
 24 15  1  0  0  0  0
 27 17  1  0  0  0  0
 31 20  1  0  0  0  0
 32 21  1  0  0  0  0
 33 32  1  0  0  0  0
 33 42  1  1  0  0  0
 34 43  1  0  0  0  0
 34 33  1  0  0  0  0
 35 34  1  0  0  0  0
 35 39  1  0  0  0  0
 36 35  2  0  0  0  0
 37 38  1  0  0  0  0
 37 33  1  0  0  0  0
 39 45  1  0  0  0  0
 40 37  2  0  0  0  0
 41 32  1  0  0  0  0
 44 34  1  0  0  0  0
M  END
$$$$
