DME.pdb
 OpenBabel07022418153D

 48 47  0  0  1  0  0  0  0  0999 V2000
    2.2830   -1.9430    4.2240 N   0  0  0  0  0  0  0  0  0  0  0  0
    1.7080   -0.5940    4.4760 C   0  0  1  0  0  0  0  0  0  0  0  0
    2.7290    0.2260    5.1780 C   0  0  0  0  0  0  0  0  0  0  0  0
    2.2120    1.5580    5.5200 C   0  0  0  0  0  0  0  0  0  0  0  0
    1.0260    1.9090    5.3730 O   0  0  0  0  0  0  0  0  0  0  0  0
    1.3310   -0.0270    3.1320 C   0  0  0  0  0  0  0  0  0  0  0  0
    0.8940    1.1250    3.0310 O   0  0  0  0  0  0  0  0  0  0  0  0
    3.1090    2.4970    6.0440 O   0  0  0  0  0  0  0  0  0  0  0  0
    1.4870   -2.6160    4.3120 H   0  0  0  0  0  0  0  0  0  0  0  0
    2.9690   -2.0870    4.9970 H   0  0  0  0  0  0  0  0  0  0  0  0
    0.8400   -0.7470    5.1330 H   0  0  0  0  0  0  0  0  0  0  0  0
    3.6960    0.2890    4.6080 H   0  0  0  0  0  0  0  0  0  0  0  0
    2.9300   -0.3010    6.1630 H   0  0  0  0  0  0  0  0  0  0  0  0
    2.7100    3.2330    6.6180 H   0  0  0  0  0  0  0  0  0  0  0  0
    0.8880    2.2530   -1.8060 C   0  0  0  0  0  0  0  0  0  0  0  0
    2.3810    1.3400   -2.0760 S   0  0  0  0  0  0  0  0  0  0  0  0
    2.3900   -0.3850   -1.6220 C   0  0  0  0  0  0  0  0  0  0  0  0
    2.3120   -0.7080   -0.1910 C   0  0  0  0  0  0  0  0  0  0  0  0
    1.1350   -0.3490    0.6140 C   0  0  2  0  0  0  0  0  0  0  0  0
    1.4790   -0.8160    1.9890 N   0  0  0  0  0  0  0  0  0  0  0  0
   -0.1170   -1.1140    0.2590 C   0  0  0  0  0  0  0  0  0  0  0  0
   -0.6140   -1.9360    1.0690 O   0  0  0  0  0  0  0  0  0  0  0  0
    0.6430    2.4920   -0.7620 H   0  0  0  0  0  0  0  0  0  0  0  0
   -0.0040    1.8960   -2.3950 H   0  0  0  0  0  0  0  0  0  0  0  0
    1.0660    3.2810   -2.2890 H   0  0  0  0  0  0  0  0  0  0  0  0
    3.4230   -0.7680   -1.9550 H   0  0  0  0  0  0  0  0  0  0  0  0
    1.7170   -1.0050   -2.2710 H   0  0  0  0  0  0  0  0  0  0  0  0
    3.2110   -0.2750    0.3270 H   0  0  0  0  0  0  0  0  0  0  0  0
    2.4660   -1.8280   -0.0530 H   0  0  0  0  0  0  0  0  0  0  0  0
    0.8520    0.7020    0.6910 H   0  0  0  0  0  0  0  0  0  0  0  0
    1.8410   -1.7810    2.0460 H   0  0  0  0  0  0  0  0  0  0  0  0
   -0.7780   -0.9470   -0.9730 N   0  0  0  0  0  0  0  0  0  0  0  0
   -2.0020   -1.7120   -1.2830 C   0  0  1  0  0  0  0  0  0  0  0  0
   -3.1530   -0.7690   -1.4040 C   0  0  0  0  0  0  0  0  0  0  0  0
   -4.4560   -1.4380   -1.7240 C   0  0  0  0  0  0  0  0  0  0  0  0
   -4.9050   -2.4250   -0.7410 C   0  0  0  0  0  0  0  0  0  0  0  0
   -5.9690   -3.0740   -1.0070 O   0  0  0  0  0  0  0  0  0  0  0  0
   -1.7890   -2.5860   -2.4460 C   0  0  0  0  0  0  0  0  0  0  0  0
   -2.6900   -3.3480   -2.8760 O   0  0  0  0  0  0  0  0  0  0  0  0
   -4.2820   -2.7250    0.4580 O   0  0  0  0  0  0  0  0  0  0  0  0
   -0.5770   -2.6320   -3.1550 O   0  0  0  0  0  0  0  0  0  0  0  0
   -0.4530   -0.2940   -1.7170 H   0  0  0  0  0  0  0  0  0  0  0  0
   -2.1790   -2.3560   -0.4020 H   0  0  0  0  0  0  0  0  0  0  0  0
   -3.2670   -0.2610   -0.4160 H   0  0  0  0  0  0  0  0  0  0  0  0
   -2.9690    0.0250   -2.1810 H   0  0  0  0  0  0  0  0  0  0  0  0
   -4.4720   -1.9030   -2.7400 H   0  0  0  0  0  0  0  0  0  0  0  0
   -5.2220   -0.5940   -1.7260 H   0  0  0  0  0  0  0  0  0  0  0  0
   -4.7700   -3.2920    1.1280 H   0  0  0  0  0  0  0  0  0  0  0  0
  1  9  1  0  0  0  0
  1  2  1  0  0  0  0
  1 10  1  0  0  0  0
  2 11  1  1  0  0  0
  2  3  1  0  0  0  0
  3  4  1  0  0  0  0
  3 13  1  0  0  0  0
  4  8  1  0  0  0  0
  5  4  2  0  0  0  0
  6  2  1  0  0  0  0
  7  6  2  0  0  0  0
  8 14  1  0  0  0  0
 12  3  1  0  0  0  0
 15 23  1  0  0  0  0
 16 15  1  0  0  0  0
 16 17  1  0  0  0  0
 17 18  1  0  0  0  0
 18 29  1  0  0  0  0
 18 28  1  0  0  0  0
 18 19  1  0  0  0  0
 19 30  1  6  0  0  0
 19 20  1  0  0  0  0
 20 31  1  0  0  0  0
 20  6  1  0  0  0  0
 21 19  1  0  0  0  0
 21 22  2  0  0  0  0
 24 15  1  0  0  0  0
 25 15  1  0  0  0  0
 26 17  1  0  0  0  0
 27 17  1  0  0  0  0
 32 21  1  0  0  0  0
 33 32  1  0  0  0  0
 33 43  1  1  0  0  0
 34 33  1  0  0  0  0
 34 44  1  0  0  0  0
 35 34  1  0  0  0  0
 35 36  1  0  0  0  0
 36 40  1  0  0  0  0
 37 36  2  0  0  0  0
 38 33  1  0  0  0  0
 39 38  1  0  0  0  0
 40 48  1  0  0  0  0
 41 38  2  0  0  0  0
 42 32  1  0  0  0  0
 45 34  1  0  0  0  0
 46 35  1  0  0  0  0
 47 35  1  0  0  0  0
M  END
$$$$
