DMF.pdb
 OpenBabel07022418153D

 52 52  0  0  1  0  0  0  0  0999 V2000
    3.5480   -2.0730    0.9110 N   0  0  0  0  0  0  0  0  0  0  0  0
    2.4120   -1.5990    1.7170 C   0  0  1  0  0  0  0  0  0  0  0  0
    2.9340   -1.2940    3.0870 C   0  0  0  0  0  0  0  0  0  0  0  0
    1.9580   -0.7990    4.0500 C   0  0  0  0  0  0  0  0  0  0  0  0
    1.7590    0.4400    4.2120 O   0  0  0  0  0  0  0  0  0  0  0  0
    1.8740   -0.3730    1.0210 C   0  0  0  0  0  0  0  0  0  0  0  0
    2.5180    0.1620    0.0880 O   0  0  0  0  0  0  0  0  0  0  0  0
    1.2080   -1.6620    4.8290 O   0  0  0  0  0  0  0  0  0  0  0  0
    3.2710   -2.1070   -0.1010 H   0  0  0  0  0  0  0  0  0  0  0  0
    3.7960   -3.0610    1.2050 H   0  0  0  0  0  0  0  0  0  0  0  0
    1.6640   -2.4090    1.7700 H   0  0  0  0  0  0  0  0  0  0  0  0
    3.7950   -0.5840    3.0000 H   0  0  0  0  0  0  0  0  0  0  0  0
    3.3830   -2.2490    3.4680 H   0  0  0  0  0  0  0  0  0  0  0  0
    0.7760   -1.3000    5.6720 H   0  0  0  0  0  0  0  0  0  0  0  0
    3.8740    2.9210   -1.4390 C   0  0  0  0  0  0  0  0  0  0  0  0
    3.0150    3.9340   -0.2020 S   0  0  0  0  0  0  0  0  0  0  0  0
    1.9910    2.8840    0.8840 C   0  0  0  0  0  0  0  0  0  0  0  0
    0.8720    2.2680    0.0820 C   0  0  0  0  0  0  0  0  0  0  0  0
   -0.0090    1.3390    0.8990 C   0  0  2  0  0  0  0  0  0  0  0  0
    0.6370    0.1810    1.4170 N   0  0  0  0  0  0  0  0  0  0  0  0
   -1.3620    1.1590    0.3790 C   0  0  0  0  0  0  0  0  0  0  0  0
   -2.0620    2.0790   -0.1130 O   0  0  0  0  0  0  0  0  0  0  0  0
    4.2890    3.5810   -2.2250 H   0  0  0  0  0  0  0  0  0  0  0  0
    3.1000    2.2360   -1.8850 H   0  0  0  0  0  0  0  0  0  0  0  0
    4.7100    2.3500   -0.9940 H   0  0  0  0  0  0  0  0  0  0  0  0
    1.5330    3.6420    1.6280 H   0  0  0  0  0  0  0  0  0  0  0  0
    2.5880    2.2550    1.5080 H   0  0  0  0  0  0  0  0  0  0  0  0
    1.2200    1.8080   -0.8600 H   0  0  0  0  0  0  0  0  0  0  0  0
    0.2550    3.1530   -0.2700 H   0  0  0  0  0  0  0  0  0  0  0  0
   -0.1260    2.0070    1.8600 H   0  0  0  0  0  0  0  0  0  0  0  0
    0.1510   -0.3760    2.2030 H   0  0  0  0  0  0  0  0  0  0  0  0
   -1.9980   -0.1360    0.4010 N   0  0  0  0  0  0  0  0  0  0  0  0
   -3.3110   -0.3770   -0.0900 C   0  0  1  0  0  0  0  0  0  0  0  0
   -3.3380   -1.2700   -1.3130 C   0  0  0  0  0  0  0  0  0  0  0  0
   -2.7500   -2.6050   -1.0450 C   0  0  0  0  0  0  0  0  0  0  0  0
   -1.4150   -2.8090   -1.2420 C   0  0  0  0  0  0  0  0  0  0  0  0
   -0.8740   -4.0450   -0.9920 C   0  0  0  0  0  0  0  0  0  0  0  0
   -1.6130   -5.1190   -0.5440 C   0  0  0  0  0  0  0  0  0  0  0  0
   -2.9570   -4.8810   -0.3550 C   0  0  0  0  0  0  0  0  0  0  0  0
   -3.5160   -3.6490   -0.6000 C   0  0  0  0  0  0  0  0  0  0  0  0
   -4.2760   -0.8060    0.9490 C   0  0  0  0  0  0  0  0  0  0  0  0
   -3.9670   -0.9490    2.1630 O   0  0  0  0  0  0  0  0  0  0  0  0
   -5.6040   -1.0840    0.6490 O   0  0  0  0  0  0  0  0  0  0  0  0
   -1.4080   -0.9020    0.8140 H   0  0  0  0  0  0  0  0  0  0  0  0
   -3.6950    0.6180   -0.4690 H   0  0  0  0  0  0  0  0  0  0  0  0
   -4.4060   -1.4400   -1.5690 H   0  0  0  0  0  0  0  0  0  0  0  0
   -2.8200   -0.7410   -2.1190 H   0  0  0  0  0  0  0  0  0  0  0  0
   -0.7460   -2.0330   -1.5920 H   0  0  0  0  0  0  0  0  0  0  0  0
    0.2040   -4.2330   -1.1450 H   0  0  0  0  0  0  0  0  0  0  0  0
   -1.1560   -6.1000   -0.3520 H   0  0  0  0  0  0  0  0  0  0  0  0
   -3.6110   -5.6780   -0.0030 H   0  0  0  0  0  0  0  0  0  0  0  0
   -4.5970   -3.4830   -0.4410 H   0  0  0  0  0  0  0  0  0  0  0  0
  1 10  1  0  0  0  0
  1  2  1  0  0  0  0
  2 11  1  1  0  0  0
  2  3  1  0  0  0  0
  3 13  1  0  0  0  0
  3  4  1  0  0  0  0
  4  5  2  0  0  0  0
  4  8  1  0  0  0  0
  6 20  1  0  0  0  0
  6  2  1  0  0  0  0
  7  6  2  0  0  0  0
  8 14  1  0  0  0  0
  9  1  1  0  0  0  0
 12  3  1  0  0  0  0
 15 25  1  0  0  0  0
 15 16  1  0  0  0  0
 16 17  1  0  0  0  0
 17 27  1  0  0  0  0
 17 26  1  0  0  0  0
 18 17  1  0  0  0  0
 18 19  1  0  0  0  0
 19 20  1  0  0  0  0
 19 30  1  1  0  0  0
 20 31  1  0  0  0  0
 21 32  1  0  0  0  0
 21 19  1  0  0  0  0
 22 21  2  0  0  0  0
 23 15  1  0  0  0  0
 24 15  1  0  0  0  0
 28 18  1  0  0  0  0
 29 18  1  0  0  0  0
 32 44  1  0  0  0  0
 33 45  1  6  0  0  0
 33 32  1  0  0  0  0
 33 41  1  0  0  0  0
 34 35  1  0  0  0  0
 34 33  1  0  0  0  0
 35 40  1  0  0  0  0
 36 35  2  0  0  0  0
 36 37  1  0  0  0  0
 37 38  2  0  0  0  0
 38 39  1  0  0  0  0
 38 50  1  0  0  0  0
 39 51  1  0  0  0  0
 40 52  1  0  0  0  0
 40 39  2  0  0  0  0
 41 42  1  0  0  0  0
 43 41  2  0  0  0  0
 46 34  1  0  0  0  0
 47 34  1  0  0  0  0
 48 36  1  0  0  0  0
 49 37  1  0  0  0  0
M  END
$$$$
