DMG.pdb
 OpenBabel07022418153D

 39 38  0  0  1  0  0  0  0  0999 V2000
    0.0450   -2.5160    2.4810 N   0  0  0  0  0  0  0  0  0  0  0  0
    1.5060   -2.2490    2.3320 C   0  0  1  0  0  0  0  0  0  0  0  0
    2.0140   -3.4550    1.5900 C   0  0  0  0  0  0  0  0  0  0  0  0
    3.4530   -3.4240    1.3640 C   0  0  0  0  0  0  0  0  0  0  0  0
    4.2160   -2.5470    1.8160 O   0  0  0  0  0  0  0  0  0  0  0  0
    1.6660   -1.0480    1.4800 C   0  0  0  0  0  0  0  0  0  0  0  0
    2.7800   -0.5520    1.2680 O   0  0  0  0  0  0  0  0  0  0  0  0
    4.0690   -4.4320    0.5880 O   0  0  0  0  0  0  0  0  0  0  0  0
   -0.0370   -3.4000    3.0030 H   0  0  0  0  0  0  0  0  0  0  0  0
   -0.3040   -1.7530    3.0950 H   0  0  0  0  0  0  0  0  0  0  0  0
    2.0050   -2.1890    3.2990 H   0  0  0  0  0  0  0  0  0  0  0  0
    1.7310   -4.3650    2.1880 H   0  0  0  0  0  0  0  0  0  0  0  0
    1.4690   -3.5720    0.6170 H   0  0  0  0  0  0  0  0  0  0  0  0
    4.9440   -4.2640    0.1450 H   0  0  0  0  0  0  0  0  0  0  0  0
   -0.5550   -2.8690   -1.7820 C   0  0  0  0  0  0  0  0  0  0  0  0
   -1.4940   -1.4770   -1.1130 S   0  0  0  0  0  0  0  0  0  0  0  0
   -0.9830    0.0920   -1.7590 C   0  0  0  0  0  0  0  0  0  0  0  0
    0.3860    0.5600   -1.4080 C   0  0  0  0  0  0  0  0  0  0  0  0
    0.6830    0.7510    0.0430 C   0  0  2  0  0  0  0  0  0  0  0  0
    0.5540   -0.4010    0.8620 N   0  0  0  0  0  0  0  0  0  0  0  0
    0.0180    1.9290    0.6370 C   0  0  0  0  0  0  0  0  0  0  0  0
   -0.0110    3.0580    0.1100 O   0  0  0  0  0  0  0  0  0  0  0  0
   -1.0180   -3.8120   -1.4250 H   0  0  0  0  0  0  0  0  0  0  0  0
   -0.6770   -2.8470   -2.8830 H   0  0  0  0  0  0  0  0  0  0  0  0
    0.4990   -2.8580   -1.4650 H   0  0  0  0  0  0  0  0  0  0  0  0
   -1.7740    0.8480   -1.5080 H   0  0  0  0  0  0  0  0  0  0  0  0
   -1.0250    0.0550   -2.8880 H   0  0  0  0  0  0  0  0  0  0  0  0
    0.5120    1.5500   -1.9330 H   0  0  0  0  0  0  0  0  0  0  0  0
    1.1760   -0.0740   -1.8720 H   0  0  0  0  0  0  0  0  0  0  0  0
    1.7910    1.0210    0.0690 H   0  0  0  0  0  0  0  0  0  0  0  0
   -0.3790   -0.8400    1.0610 H   0  0  0  0  0  0  0  0  0  0  0  0
   -0.6290    1.7610    1.8890 N   0  0  0  0  0  0  0  0  0  0  0  0
   -1.2920    2.8510    2.5260 C   0  0  0  0  0  0  0  0  0  0  0  0
   -2.3980    3.4440    1.7430 C   0  0  0  0  0  0  0  0  0  0  0  0
   -2.7300    3.0220    0.6060 O   0  0  0  0  0  0  0  0  0  0  0  0
   -3.0900    4.4990    2.2820 O   0  0  0  0  0  0  0  0  0  0  0  0
   -0.6410    0.8230    2.3910 H   0  0  0  0  0  0  0  0  0  0  0  0
   -1.7250    2.5040    3.4820 H   0  0  0  0  0  0  0  0  0  0  0  0
   -0.5320    3.6280    2.8150 H   0  0  0  0  0  0  0  0  0  0  0  0
  1  9  1  0  0  0  0
  1 10  1  0  0  0  0
  2  1  1  0  0  0  0
  2 11  1  1  0  0  0
  3 12  1  0  0  0  0
  3  2  1  0  0  0  0
  4  3  1  0  0  0  0
  4  5  2  0  0  0  0
  6  2  1  0  0  0  0
  7  6  2  0  0  0  0
  8  4  1  0  0  0  0
 13  3  1  0  0  0  0
 14  8  1  0  0  0  0
 15 25  1  0  0  0  0
 15 23  1  0  0  0  0
 15 16  1  0  0  0  0
 17 26  1  0  0  0  0
 17 18  1  0  0  0  0
 17 16  1  0  0  0  0
 18 19  1  0  0  0  0
 19 30  1  1  0  0  0
 19 21  1  0  0  0  0
 19 20  1  0  0  0  0
 20 31  1  0  0  0  0
 20  6  1  0  0  0  0
 21 32  1  0  0  0  0
 22 21  2  0  0  0  0
 24 15  1  0  0  0  0
 27 17  1  0  0  0  0
 28 18  1  0  0  0  0
 29 18  1  0  0  0  0
 32 37  1  0  0  0  0
 32 33  1  0  0  0  0
 33 39  1  0  0  0  0
 33 38  1  0  0  0  0
 34 36  1  0  0  0  0
 34 33  1  0  0  0  0
 35 34  2  0  0  0  0
M  END
$$$$
