DMH.pdb
 OpenBabel07022418153D

 49 49  0  0  1  0  0  0  0  0999 V2000
    2.5050   -2.2770    4.3530 N   0  0  0  0  0  0  0  0  0  0  0  0
    1.6090   -1.2420    4.8940 C   0  0  1  0  0  0  0  0  0  0  0  0
    2.4100   -0.4170    5.8290 C   0  0  0  0  0  0  0  0  0  0  0  0
    1.7560    0.6690    6.5280 C   0  0  0  0  0  0  0  0  0  0  0  0
    2.4530    1.4890    7.1740 O   0  0  0  0  0  0  0  0  0  0  0  0
    0.9960   -0.4970    3.7600 C   0  0  0  0  0  0  0  0  0  0  0  0
    0.1100    0.3580    4.0190 O   0  0  0  0  0  0  0  0  0  0  0  0
    0.3940    0.8380    6.5130 O   0  0  0  0  0  0  0  0  0  0  0  0
    1.9910   -2.9090    3.6930 H   0  0  0  0  0  0  0  0  0  0  0  0
    2.9590   -2.7840    5.1340 H   0  0  0  0  0  0  0  0  0  0  0  0
    0.8040   -1.7600    5.4270 H   0  0  0  0  0  0  0  0  0  0  0  0
    2.8490   -1.0970    6.6260 H   0  0  0  0  0  0  0  0  0  0  0  0
    3.3350   -0.0860    5.2710 H   0  0  0  0  0  0  0  0  0  0  0  0
   -0.0130    1.6280    7.0300 H   0  0  0  0  0  0  0  0  0  0  0  0
    3.6190    2.4640   -1.7900 C   0  0  0  0  0  0  0  0  0  0  0  0
    2.2040    3.1430   -0.9400 S   0  0  0  0  0  0  0  0  0  0  0  0
    1.0870    1.8770   -0.2700 C   0  0  0  0  0  0  0  0  0  0  0  0
    1.6980    1.0800    0.8100 C   0  0  0  0  0  0  0  0  0  0  0  0
    0.6780    0.0940    1.3730 C   0  0  2  0  0  0  0  0  0  0  0  0
    1.3410   -0.6850    2.4250 N   0  0  0  0  0  0  0  0  0  0  0  0
    0.0690   -0.7740    0.3730 C   0  0  0  0  0  0  0  0  0  0  0  0
    0.4520   -2.0030    0.3820 O   0  0  0  0  0  0  0  0  0  0  0  0
    3.5810    2.8170   -2.8580 H   0  0  0  0  0  0  0  0  0  0  0  0
    4.5390    2.9570   -1.3730 H   0  0  0  0  0  0  0  0  0  0  0  0
    3.6810    1.3760   -1.7890 H   0  0  0  0  0  0  0  0  0  0  0  0
    0.8520    1.1460   -1.1100 H   0  0  0  0  0  0  0  0  0  0  0  0
    0.1640    2.3550    0.0750 H   0  0  0  0  0  0  0  0  0  0  0  0
    2.6390    0.5660    0.5290 H   0  0  0  0  0  0  0  0  0  0  0  0
    1.9860    1.7510    1.6600 H   0  0  0  0  0  0  0  0  0  0  0  0
   -0.0780    0.7250    1.8740 H   0  0  0  0  0  0  0  0  0  0  0  0
    2.0700   -1.3750    2.1540 H   0  0  0  0  0  0  0  0  0  0  0  0
   -0.8990   -0.4190   -0.6000 N   0  0  0  0  0  0  0  0  0  0  0  0
   -1.4320   -1.3890   -1.5510 C   0  0  1  0  0  0  0  0  0  0  0  0
   -2.9050   -1.6140   -1.3170 C   0  0  0  0  0  0  0  0  0  0  0  0
   -3.4590   -2.5930   -2.2640 C   0  0  0  0  0  0  0  0  0  0  0  0
   -4.0440   -2.3970   -3.4930 C   0  0  0  0  0  0  0  0  0  0  0  0
   -4.4320   -3.5750   -4.0180 N   0  0  0  0  0  0  0  0  0  0  0  0
   -4.0890   -4.5280   -3.1150 C   0  0  0  0  0  0  0  0  0  0  0  0
   -3.5100   -3.9380   -2.0710 N   0  0  0  0  0  0  0  0  0  0  0  0
   -1.1010   -1.0310   -2.9490 C   0  0  0  0  0  0  0  0  0  0  0  0
   -1.4380   -1.7620   -3.9280 O   0  0  0  0  0  0  0  0  0  0  0  0
   -0.4030    0.1220   -3.2920 O   0  0  0  0  0  0  0  0  0  0  0  0
   -1.2520    0.5550   -0.6070 H   0  0  0  0  0  0  0  0  0  0  0  0
   -0.9280   -2.3560   -1.3350 H   0  0  0  0  0  0  0  0  0  0  0  0
   -3.4880   -0.6710   -1.3650 H   0  0  0  0  0  0  0  0  0  0  0  0
   -3.0330   -1.9930   -0.2840 H   0  0  0  0  0  0  0  0  0  0  0  0
   -4.1890   -1.4480   -3.9940 H   0  0  0  0  0  0  0  0  0  0  0  0
   -4.8950   -3.7450   -4.9210 H   0  0  0  0  0  0  0  0  0  0  0  0
   -4.2860   -5.5870   -3.2770 H   0  0  0  0  0  0  0  0  0  0  0  0
  1  2  1  0  0  0  0
  1 10  1  0  0  0  0
  2 11  1  1  0  0  0
  2  3  1  0  0  0  0
  3  4  1  0  0  0  0
  3 12  1  0  0  0  0
  4  5  2  0  0  0  0
  6  7  2  0  0  0  0
  6  2  1  0  0  0  0
  8  4  1  0  0  0  0
  8 14  1  0  0  0  0
  9  1  1  0  0  0  0
 13  3  1  0  0  0  0
 15 25  1  0  0  0  0
 15 24  1  0  0  0  0
 15 16  1  0  0  0  0
 16 17  1  0  0  0  0
 17 27  1  0  0  0  0
 17 18  1  0  0  0  0
 18 19  1  0  0  0  0
 18 29  1  0  0  0  0
 19 30  1  1  0  0  0
 19 20  1  0  0  0  0
 20  6  1  0  0  0  0
 21 22  2  0  0  0  0
 21 19  1  0  0  0  0
 23 15  1  0  0  0  0
 26 17  1  0  0  0  0
 28 18  1  0  0  0  0
 31 20  1  0  0  0  0
 32 21  1  0  0  0  0
 33 44  1  1  0  0  0
 33 34  1  0  0  0  0
 33 32  1  0  0  0  0
 34 46  1  0  0  0  0
 35 39  1  0  0  0  0
 35 34  1  0  0  0  0
 36 35  2  0  0  0  0
 37 36  1  0  0  0  0
 37 38  1  0  0  0  0
 38 39  2  0  0  0  0
 40 33  1  0  0  0  0
 41 40  2  0  0  0  0
 42 40  1  0  0  0  0
 43 32  1  0  0  0  0
 45 34  1  0  0  0  0
 47 36  1  0  0  0  0
 48 37  1  0  0  0  0
 49 38  1  0  0  0  0
M  END
$$$$
