DMI.pdb
 OpenBabel07022418153D

 51 50  0  0  1  0  0  0  0  0999 V2000
    0.1790   -2.2350    3.9040 N   0  0  0  0  0  0  0  0  0  0  0  0
    0.6680   -0.8710    3.6890 C   0  0  1  0  0  0  0  0  0  0  0  0
    1.8960   -0.6860    4.5060 C   0  0  0  0  0  0  0  0  0  0  0  0
    2.4360    0.6750    4.3300 C   0  0  0  0  0  0  0  0  0  0  0  0
    3.4200    0.8670    3.5950 O   0  0  0  0  0  0  0  0  0  0  0  0
    0.8030   -0.6550    2.2450 C   0  0  0  0  0  0  0  0  0  0  0  0
    0.6900   -1.6490    1.4490 O   0  0  0  0  0  0  0  0  0  0  0  0
    1.8240    1.7090    4.9960 O   0  0  0  0  0  0  0  0  0  0  0  0
    0.2950   -2.7680    3.0170 H   0  0  0  0  0  0  0  0  0  0  0  0
    0.7860   -2.6820    4.6170 H   0  0  0  0  0  0  0  0  0  0  0  0
   -0.1330   -0.2290    4.1650 H   0  0  0  0  0  0  0  0  0  0  0  0
    2.6630   -1.4720    4.3220 H   0  0  0  0  0  0  0  0  0  0  0  0
    1.5750   -0.7680    5.5810 H   0  0  0  0  0  0  0  0  0  0  0  0
    2.2900    2.6040    5.0530 H   0  0  0  0  0  0  0  0  0  0  0  0
    4.1030   -0.6630   -3.1770 C   0  0  0  0  0  0  0  0  0  0  0  0
    4.4310   -1.0640   -1.4250 S   0  0  0  0  0  0  0  0  0  0  0  0
    2.8630   -0.9480   -0.4540 C   0  0  0  0  0  0  0  0  0  0  0  0
    2.4400    0.4640   -0.4550 C   0  0  0  0  0  0  0  0  0  0  0  0
    1.1930    0.8510    0.2280 C   0  0  2  0  0  0  0  0  0  0  0  0
    1.0560    0.6000    1.6130 N   0  0  0  0  0  0  0  0  0  0  0  0
   -0.0600    0.6160   -0.5660 C   0  0  0  0  0  0  0  0  0  0  0  0
   -0.0880    0.7050   -1.7950 O   0  0  0  0  0  0  0  0  0  0  0  0
    3.9100   -1.6450   -3.6740 H   0  0  0  0  0  0  0  0  0  0  0  0
    4.9980   -0.1910   -3.6310 H   0  0  0  0  0  0  0  0  0  0  0  0
    3.2010    0.0050   -3.2140 H   0  0  0  0  0  0  0  0  0  0  0  0
    3.1880   -1.2950    0.5740 H   0  0  0  0  0  0  0  0  0  0  0  0
    2.1890   -1.6910   -0.8610 H   0  0  0  0  0  0  0  0  0  0  0  0
    3.2680    1.0640    0.0030 H   0  0  0  0  0  0  0  0  0  0  0  0
    2.3900    0.8510   -1.5040 H   0  0  0  0  0  0  0  0  0  0  0  0
    1.2240    2.0240    0.1720 H   0  0  0  0  0  0  0  0  0  0  0  0
    1.1300    1.4050    2.3150 H   0  0  0  0  0  0  0  0  0  0  0  0
   -2.0980   -3.7350   -0.6080 C   0  0  0  0  0  0  0  0  0  0  0  0
   -1.8330   -2.2670   -0.9550 C   0  0  0  0  0  0  0  0  0  0  0  0
   -2.8670   -1.3880   -0.2850 C   0  0  2  0  0  0  0  0  0  0  0  0
   -4.2280   -1.7820   -0.7920 C   0  0  0  0  0  0  0  0  0  0  0  0
   -2.5170    0.0490   -0.4700 C   0  0  2  0  0  0  0  0  0  0  0  0
   -1.2250    0.2890    0.1510 N   0  0  0  0  0  0  0  0  0  0  0  0
   -3.5390    0.9940   -0.0350 C   0  0  0  0  0  0  0  0  0  0  0  0
   -3.2540    1.8930    0.7860 O   0  0  0  0  0  0  0  0  0  0  0  0
   -4.8320    0.9240   -0.5080 O   0  0  0  0  0  0  0  0  0  0  0  0
   -2.5800   -4.2870   -1.4240 H   0  0  0  0  0  0  0  0  0  0  0  0
   -1.1580   -4.2560   -0.3500 H   0  0  0  0  0  0  0  0  0  0  0  0
   -2.8140   -3.7520    0.2510 H   0  0  0  0  0  0  0  0  0  0  0  0
   -0.7940   -1.9770   -0.7710 H   0  0  0  0  0  0  0  0  0  0  0  0
   -1.9420   -2.2170   -2.0810 H   0  0  0  0  0  0  0  0  0  0  0  0
   -2.8660   -1.6390    0.8250 H   0  0  0  0  0  0  0  0  0  0  0  0
   -4.3670   -1.4010   -1.8020 H   0  0  0  0  0  0  0  0  0  0  0  0
   -4.3230   -2.8860   -0.8120 H   0  0  0  0  0  0  0  0  0  0  0  0
   -5.0280   -1.4370   -0.0730 H   0  0  0  0  0  0  0  0  0  0  0  0
   -2.4070    0.1970   -1.5880 H   0  0  0  0  0  0  0  0  0  0  0  0
   -1.2590    0.2000    1.2150 H   0  0  0  0  0  0  0  0  0  0  0  0
  1 10  1  0  0  0  0
  2  1  1  0  0  0  0
  2 11  1  1  0  0  0
  2  3  1  0  0  0  0
  3 13  1  0  0  0  0
  4  3  1  0  0  0  0
  4  8  1  0  0  0  0
  5  4  2  0  0  0  0
  6  2  1  0  0  0  0
  7  6  2  0  0  0  0
  8 14  1  0  0  0  0
  9  1  1  0  0  0  0
 12  3  1  0  0  0  0
 15 16  1  0  0  0  0
 16 17  1  0  0  0  0
 17 26  1  0  0  0  0
 18 17  1  0  0  0  0
 18 28  1  0  0  0  0
 18 19  1  0  0  0  0
 19 30  1  6  0  0  0
 19 20  1  0  0  0  0
 20  6  1  0  0  0  0
 20 31  1  0  0  0  0
 21 37  1  0  0  0  0
 21 19  1  0  0  0  0
 22 21  2  0  0  0  0
 23 15  1  0  0  0  0
 24 15  1  0  0  0  0
 25 15  1  0  0  0  0
 27 17  1  0  0  0  0
 29 18  1  0  0  0  0
 32 42  1  0  0  0  0
 32 43  1  0  0  0  0
 33 44  1  0  0  0  0
 33 32  1  0  0  0  0
 33 34  1  0  0  0  0
 34 46  1  1  0  0  0
 35 34  1  0  0  0  0
 35 49  1  0  0  0  0
 36 50  1  6  0  0  0
 36 34  1  0  0  0  0
 36 38  1  0  0  0  0
 36 37  1  0  0  0  0
 37 51  1  0  0  0  0
 38 39  1  0  0  0  0
 40 38  2  0  0  0  0
 41 32  1  0  0  0  0
 45 33  1  0  0  0  0
 47 35  1  0  0  0  0
 48 35  1  0  0  0  0
M  END
$$$$
