DML.pdb
 OpenBabel07022418153D

 51 50  0  0  1  0  0  0  0  0999 V2000
    2.7330   -2.8020    2.1720 N   0  0  0  0  0  0  0  0  0  0  0  0
    2.5650   -1.7470    3.1800 C   0  0  1  0  0  0  0  0  0  0  0  0
    3.9050   -1.6110    3.8640 C   0  0  0  0  0  0  0  0  0  0  0  0
    4.2140   -2.9320    4.4750 C   0  0  0  0  0  0  0  0  0  0  0  0
    5.2940   -3.1260    5.1280 O   0  0  0  0  0  0  0  0  0  0  0  0
    2.1120   -0.5200    2.5230 C   0  0  0  0  0  0  0  0  0  0  0  0
    1.9080    0.4970    3.2620 O   0  0  0  0  0  0  0  0  0  0  0  0
    3.3650   -4.0290    4.3800 O   0  0  0  0  0  0  0  0  0  0  0  0
    1.7700   -2.9120    1.7440 H   0  0  0  0  0  0  0  0  0  0  0  0
    3.3470   -2.4860    1.3990 H   0  0  0  0  0  0  0  0  0  0  0  0
    1.8630   -2.1600    3.9260 H   0  0  0  0  0  0  0  0  0  0  0  0
    4.7080   -1.3070    3.1520 H   0  0  0  0  0  0  0  0  0  0  0  0
    3.9010   -0.8600    4.6830 H   0  0  0  0  0  0  0  0  0  0  0  0
    3.3260   -4.7680    5.0610 H   0  0  0  0  0  0  0  0  0  0  0  0
    1.0390    1.8630   -3.4110 C   0  0  0  0  0  0  0  0  0  0  0  0
    1.5300    0.2760   -2.6300 S   0  0  0  0  0  0  0  0  0  0  0  0
    2.9070    0.6650   -1.5280 C   0  0  0  0  0  0  0  0  0  0  0  0
    2.4260    1.4830   -0.3840 C   0  0  0  0  0  0  0  0  0  0  0  0
    1.4270    0.8720    0.5140 C   0  0  2  0  0  0  0  0  0  0  0  0
    1.8770   -0.3520    1.1480 N   0  0  0  0  0  0  0  0  0  0  0  0
    0.0360    0.7650   -0.0200 C   0  0  0  0  0  0  0  0  0  0  0  0
   -0.4950    1.7540   -0.5700 O   0  0  0  0  0  0  0  0  0  0  0  0
    1.8750    2.1130   -4.1210 H   0  0  0  0  0  0  0  0  0  0  0  0
    0.0930    1.7900   -3.9530 H   0  0  0  0  0  0  0  0  0  0  0  0
    1.0890    2.6300   -2.6250 H   0  0  0  0  0  0  0  0  0  0  0  0
    3.6420    1.2520   -2.1540 H   0  0  0  0  0  0  0  0  0  0  0  0
    3.4720   -0.2360   -1.2250 H   0  0  0  0  0  0  0  0  0  0  0  0
    3.3330    1.7830    0.2210 H   0  0  0  0  0  0  0  0  0  0  0  0
    2.0110    2.4780   -0.7110 H   0  0  0  0  0  0  0  0  0  0  0  0
    1.3220    1.6000    1.3850 H   0  0  0  0  0  0  0  0  0  0  0  0
    2.0370   -1.1700    0.5200 H   0  0  0  0  0  0  0  0  0  0  0  0
   -5.2960   -1.1680    1.6600 C   0  0  0  0  0  0  0  0  0  0  0  0
   -4.4210   -1.0970    0.3800 C   0  0  0  0  0  0  0  0  0  0  0  0
   -4.5690   -2.4280   -0.2950 C   0  0  0  0  0  0  0  0  0  0  0  0
   -3.0040   -0.8030    0.7540 C   0  0  0  0  0  0  0  0  0  0  0  0
   -2.0340   -0.7280   -0.3700 C   0  0  2  0  0  0  0  0  0  0  0  0
   -0.7010   -0.4350    0.0850 N   0  0  0  0  0  0  0  0  0  0  0  0
   -2.4780   -0.0680   -1.5990 C   0  0  0  0  0  0  0  0  0  0  0  0
   -1.7550    0.6850   -2.2660 O   0  0  0  0  0  0  0  0  0  0  0  0
   -3.7740   -0.2410   -2.1300 O   0  0  0  0  0  0  0  0  0  0  0  0
   -5.6340   -0.1470    1.9050 H   0  0  0  0  0  0  0  0  0  0  0  0
   -4.6720   -1.6200    2.4590 H   0  0  0  0  0  0  0  0  0  0  0  0
   -6.1650   -1.8250    1.4810 H   0  0  0  0  0  0  0  0  0  0  0  0
   -4.8530   -0.2650   -0.2200 H   0  0  0  0  0  0  0  0  0  0  0  0
   -4.6390   -3.1980    0.5210 H   0  0  0  0  0  0  0  0  0  0  0  0
   -3.7490   -2.7180   -0.9500 H   0  0  0  0  0  0  0  0  0  0  0  0
   -5.5640   -2.4490   -0.7870 H   0  0  0  0  0  0  0  0  0  0  0  0
   -3.0190    0.1190    1.3840 H   0  0  0  0  0  0  0  0  0  0  0  0
   -2.7060   -1.6060    1.5010 H   0  0  0  0  0  0  0  0  0  0  0  0
   -1.9320   -1.8530   -0.7170 H   0  0  0  0  0  0  0  0  0  0  0  0
   -0.1460   -1.2290    0.5900 H   0  0  0  0  0  0  0  0  0  0  0  0
  1  2  1  0  0  0  0
  2  3  1  0  0  0  0
  2 11  1  1  0  0  0
  3  4  1  0  0  0  0
  3 13  1  0  0  0  0
  4  5  2  0  0  0  0
  6  2  1  0  0  0  0
  6  7  2  0  0  0  0
  8  4  1  0  0  0  0
  8 14  1  0  0  0  0
  9  1  1  0  0  0  0
 10  1  1  0  0  0  0
 12  3  1  0  0  0  0
 15 16  1  0  0  0  0
 15 25  1  0  0  0  0
 16 17  1  0  0  0  0
 17 27  1  0  0  0  0
 17 18  1  0  0  0  0
 18 28  1  0  0  0  0
 18 19  1  0  0  0  0
 19 20  1  0  0  0  0
 19 30  1  1  0  0  0
 20  6  1  0  0  0  0
 21 37  1  0  0  0  0
 21 19  1  0  0  0  0
 22 21  2  0  0  0  0
 23 15  1  0  0  0  0
 24 15  1  0  0  0  0
 26 17  1  0  0  0  0
 29 18  1  0  0  0  0
 31 20  1  0  0  0  0
 32 41  1  0  0  0  0
 32 42  1  0  0  0  0
 33 35  1  0  0  0  0
 33 32  1  0  0  0  0
 34 33  1  0  0  0  0
 34 45  1  0  0  0  0
 35 48  1  0  0  0  0
 35 49  1  0  0  0  0
 36 50  1  6  0  0  0
 36 37  1  0  0  0  0
 36 35  1  0  0  0  0
 37 51  1  0  0  0  0
 38 36  1  0  0  0  0
 39 38  2  0  0  0  0
 40 38  1  0  0  0  0
 43 32  1  0  0  0  0
 44 33  1  0  0  0  0
 46 34  1  0  0  0  0
 47 34  1  0  0  0  0
M  END
$$$$
