DMM.pdb
 OpenBabel07022418153D

 49 48  0  0  1  0  0  0  0  0999 V2000
    0.8570   -2.4540    5.2830 N   0  0  0  0  0  0  0  0  0  0  0  0
    1.6030   -2.0790    4.1000 C   0  0  1  0  0  0  0  0  0  0  0  0
    2.0660   -3.3090    3.3500 C   0  0  0  0  0  0  0  0  0  0  0  0
    2.9350   -4.0780    4.2990 C   0  0  0  0  0  0  0  0  0  0  0  0
    3.4570   -5.1530    3.8940 O   0  0  0  0  0  0  0  0  0  0  0  0
    0.7810   -1.1650    3.2870 C   0  0  0  0  0  0  0  0  0  0  0  0
   -0.3680   -0.8330    3.7200 O   0  0  0  0  0  0  0  0  0  0  0  0
    3.1930   -3.6740    5.5860 O   0  0  0  0  0  0  0  0  0  0  0  0
    0.8250   -3.4900    5.4280 H   0  0  0  0  0  0  0  0  0  0  0  0
   -0.1330   -2.1200    5.2650 H   0  0  0  0  0  0  0  0  0  0  0  0
    2.5370   -1.5920    4.4700 H   0  0  0  0  0  0  0  0  0  0  0  0
    2.7270   -2.9420    2.5200 H   0  0  0  0  0  0  0  0  0  0  0  0
    1.2610   -3.9570    2.9980 H   0  0  0  0  0  0  0  0  0  0  0  0
    3.5460   -4.2970    6.3230 H   0  0  0  0  0  0  0  0  0  0  0  0
    1.7060    2.6740   -2.1440 C   0  0  0  0  0  0  0  0  0  0  0  0
    2.5760    1.5590   -1.0140 S   0  0  0  0  0  0  0  0  0  0  0  0
    2.2540    1.9170    0.7010 C   0  0  0  0  0  0  0  0  0  0  0  0
    0.8970    1.6510    1.2090 C   0  0  0  0  0  0  0  0  0  0  0  0
    0.3600    0.2910    1.2380 C   0  0  2  0  0  0  0  0  0  0  0  0
    1.1680   -0.6220    2.0560 N   0  0  0  0  0  0  0  0  0  0  0  0
   -0.1700   -0.3530    0.0510 C   0  0  0  0  0  0  0  0  0  0  0  0
    0.0060   -1.6150   -0.1760 O   0  0  0  0  0  0  0  0  0  0  0  0
    1.8790    2.3030   -3.1750 H   0  0  0  0  0  0  0  0  0  0  0  0
    0.6090    2.6640   -1.9850 H   0  0  0  0  0  0  0  0  0  0  0  0
    2.1160    3.7020   -2.1200 H   0  0  0  0  0  0  0  0  0  0  0  0
    2.4090    3.0380    0.8120 H   0  0  0  0  0  0  0  0  0  0  0  0
    3.0690    1.5230    1.3830 H   0  0  0  0  0  0  0  0  0  0  0  0
    0.8430    2.0510    2.2760 H   0  0  0  0  0  0  0  0  0  0  0  0
    0.2020    2.3590    0.6710 H   0  0  0  0  0  0  0  0  0  0  0  0
   -0.5830    0.3960    1.9210 H   0  0  0  0  0  0  0  0  0  0  0  0
    2.1020   -0.8730    1.6650 H   0  0  0  0  0  0  0  0  0  0  0  0
   -3.4070   -2.3030   -0.1430 C   0  0  0  0  0  0  0  0  0  0  0  0
   -4.4290   -1.2260   -1.1200 S   0  0  0  0  0  0  0  0  0  0  0  0
   -3.7790    0.3480   -1.5880 C   0  0  0  0  0  0  0  0  0  0  0  0
   -2.6920    0.2730   -2.5940 C   0  0  0  0  0  0  0  0  0  0  0  0
   -1.4720   -0.4300   -2.1240 C   0  0  2  0  0  0  0  0  0  0  0  0
   -0.9220    0.2670   -0.9780 N   0  0  0  0  0  0  0  0  0  0  0  0
   -0.4800   -0.6110   -3.2320 C   0  0  0  0  0  0  0  0  0  0  0  0
   -0.9030   -1.1630   -4.2770 O   0  0  0  0  0  0  0  0  0  0  0  0
    0.8260   -0.2210   -3.1740 O   0  0  0  0  0  0  0  0  0  0  0  0
   -2.6390   -1.7400    0.4020 H   0  0  0  0  0  0  0  0  0  0  0  0
   -4.0280   -2.8620    0.6350 H   0  0  0  0  0  0  0  0  0  0  0  0
   -2.9190   -3.1160   -0.7190 H   0  0  0  0  0  0  0  0  0  0  0  0
   -3.4920    0.9910   -0.7050 H   0  0  0  0  0  0  0  0  0  0  0  0
   -4.6450    0.9500   -2.0280 H   0  0  0  0  0  0  0  0  0  0  0  0
   -3.0850   -0.1910   -3.5600 H   0  0  0  0  0  0  0  0  0  0  0  0
   -2.4090    1.3340   -2.8510 H   0  0  0  0  0  0  0  0  0  0  0  0
   -1.6680   -1.4640   -1.7610 H   0  0  0  0  0  0  0  0  0  0  0  0
   -1.0880    1.3140   -0.8910 H   0  0  0  0  0  0  0  0  0  0  0  0
  1  9  1  0  0  0  0
  2 11  1  1  0  0  0
  2  1  1  0  0  0  0
  3  2  1  0  0  0  0
  3  4  1  0  0  0  0
  4  8  1  0  0  0  0
  5  4  2  0  0  0  0
  6  7  2  0  0  0  0
  6  2  1  0  0  0  0
  8 14  1  0  0  0  0
 10  1  1  0  0  0  0
 12  3  1  0  0  0  0
 13  3  1  0  0  0  0
 15 25  1  0  0  0  0
 15 24  1  0  0  0  0
 15 16  1  0  0  0  0
 16 17  1  0  0  0  0
 17 26  1  0  0  0  0
 17 18  1  0  0  0  0
 17 27  1  0  0  0  0
 18 19  1  0  0  0  0
 18 28  1  0  0  0  0
 19 30  1  1  0  0  0
 19 20  1  0  0  0  0
 20  6  1  0  0  0  0
 21 19  1  0  0  0  0
 22 21  2  0  0  0  0
 23 15  1  0  0  0  0
 29 18  1  0  0  0  0
 31 20  1  0  0  0  0
 32 41  1  0  0  0  0
 32 42  1  0  0  0  0
 33 32  1  0  0  0  0
 34 33  1  0  0  0  0
 34 44  1  0  0  0  0
 35 36  1  0  0  0  0
 35 34  1  0  0  0  0
 36 48  1  1  0  0  0
 36 37  1  0  0  0  0
 37 49  1  0  0  0  0
 37 21  1  0  0  0  0
 38 40  1  0  0  0  0
 38 36  1  0  0  0  0
 39 38  2  0  0  0  0
 43 32  1  0  0  0  0
 45 34  1  0  0  0  0
 46 35  1  0  0  0  0
 47 35  1  0  0  0  0
M  END
$$$$
