DMP.pdb
 OpenBabel07022418153D

 46 46  0  0  1  0  0  0  0  0999 V2000
    3.8890   -3.3440    2.3500 N   0  0  0  0  0  0  0  0  0  0  0  0
    2.4870   -2.9260    2.3560 C   0  0  1  0  0  0  0  0  0  0  0  0
    2.0820   -2.7500    3.8330 C   0  0  0  0  0  0  0  0  0  0  0  0
    0.6700   -2.3230    3.8470 C   0  0  0  0  0  0  0  0  0  0  0  0
    0.3780   -1.1100    3.7570 O   0  0  0  0  0  0  0  0  0  0  0  0
    2.3780   -1.6480    1.6540 C   0  0  0  0  0  0  0  0  0  0  0  0
    3.3890   -0.9210    1.5850 O   0  0  0  0  0  0  0  0  0  0  0  0
   -0.3070   -3.3120    3.9630 O   0  0  0  0  0  0  0  0  0  0  0  0
    4.0050   -4.3620    2.4220 H   0  0  0  0  0  0  0  0  0  0  0  0
    4.3680   -3.0200    1.4700 H   0  0  0  0  0  0  0  0  0  0  0  0
    1.8980   -3.7460    1.9390 H   0  0  0  0  0  0  0  0  0  0  0  0
    2.2440   -3.7130    4.3510 H   0  0  0  0  0  0  0  0  0  0  0  0
    2.7460   -1.9750    4.2740 H   0  0  0  0  0  0  0  0  0  0  0  0
   -1.1960   -3.0740    4.4210 H   0  0  0  0  0  0  0  0  0  0  0  0
    0.7520    0.2390   -4.4730 C   0  0  0  0  0  0  0  0  0  0  0  0
    2.0260    1.1080   -3.5680 S   0  0  0  0  0  0  0  0  0  0  0  0
    1.5900    1.2920   -1.7860 C   0  0  0  0  0  0  0  0  0  0  0  0
    1.5660   -0.0410   -1.1150 C   0  0  0  0  0  0  0  0  0  0  0  0
    1.2240    0.1200    0.3720 C   0  0  2  0  0  0  0  0  0  0  0  0
    1.1940   -1.1420    1.0200 N   0  0  0  0  0  0  0  0  0  0  0  0
    0.0760    1.0160    0.5520 C   0  0  0  0  0  0  0  0  0  0  0  0
    0.2840    2.2970    0.3840 O   0  0  0  0  0  0  0  0  0  0  0  0
    0.9300   -0.8560   -4.4860 H   0  0  0  0  0  0  0  0  0  0  0  0
   -0.2700    0.4640   -4.0990 H   0  0  0  0  0  0  0  0  0  0  0  0
    0.8400    0.5510   -5.5540 H   0  0  0  0  0  0  0  0  0  0  0  0
    0.6060    1.8060   -1.7900 H   0  0  0  0  0  0  0  0  0  0  0  0
    2.3260    2.0140   -1.3850 H   0  0  0  0  0  0  0  0  0  0  0  0
    2.5840   -0.4730   -1.1400 H   0  0  0  0  0  0  0  0  0  0  0  0
    0.8480   -0.6710   -1.6520 H   0  0  0  0  0  0  0  0  0  0  0  0
    2.1390    0.6560    0.7350 H   0  0  0  0  0  0  0  0  0  0  0  0
    0.3750   -1.7710    1.0870 H   0  0  0  0  0  0  0  0  0  0  0  0
   -1.2560    0.6880    0.8850 N   0  0  0  0  0  0  0  0  0  0  0  0
   -1.8890   -0.5870    1.0650 C   0  0  0  0  0  0  0  0  0  0  0  0
   -3.4080   -0.3630    0.9110 C   0  0  0  0  0  0  0  0  0  0  0  0
   -3.4480    1.0560    0.3410 C   0  0  0  0  0  0  0  0  0  0  0  0
   -2.3200    1.6630    1.1490 C   0  0  1  0  0  0  0  0  0  0  0  0
   -2.6630    1.6920    2.5920 C   0  0  0  0  0  0  0  0  0  0  0  0
   -3.5790    2.4310    3.0150 O   0  0  0  0  0  0  0  0  0  0  0  0
   -1.9650    0.8990    3.4620 O   0  0  0  0  0  0  0  0  0  0  0  0
   -1.6650   -1.2930    0.2280 H   0  0  0  0  0  0  0  0  0  0  0  0
   -1.7050   -0.9800    2.0600 H   0  0  0  0  0  0  0  0  0  0  0  0
   -3.9080   -0.3810    1.8980 H   0  0  0  0  0  0  0  0  0  0  0  0
   -3.8720   -1.0760    0.2220 H   0  0  0  0  0  0  0  0  0  0  0  0
   -3.1600    0.9820   -0.7120 H   0  0  0  0  0  0  0  0  0  0  0  0
   -4.4260    1.5440    0.5110 H   0  0  0  0  0  0  0  0  0  0  0  0
   -2.0350    2.6490    0.7440 H   0  0  0  0  0  0  0  0  0  0  0  0
  1  2  1  0  0  0  0
  1  9  1  0  0  0  0
  2 11  1  6  0  0  0
  2  3  1  0  0  0  0
  3  4  1  0  0  0  0
  3 13  1  0  0  0  0
  3 12  1  0  0  0  0
  4  8  1  0  0  0  0
  5  4  2  0  0  0  0
  6  2  1  0  0  0  0
  7  6  2  0  0  0  0
  8 14  1  0  0  0  0
 10  1  1  0  0  0  0
 15 24  1  0  0  0  0
 15 16  1  0  0  0  0
 16 17  1  0  0  0  0
 17 27  1  0  0  0  0
 17 18  1  0  0  0  0
 18 19  1  0  0  0  0
 19 21  1  0  0  0  0
 19 30  1  1  0  0  0
 19 20  1  0  0  0  0
 20 31  1  0  0  0  0
 20  6  1  0  0  0  0
 21 32  1  0  0  0  0
 22 21  2  0  0  0  0
 23 15  1  0  0  0  0
 25 15  1  0  0  0  0
 26 17  1  0  0  0  0
 28 18  1  0  0  0  0
 29 18  1  0  0  0  0
 32 33  1  0  0  0  0
 32 36  1  0  0  0  0
 33 41  1  0  0  0  0
 34 33  1  0  0  0  0
 34 42  1  0  0  0  0
 35 45  1  0  0  0  0
 35 34  1  0  0  0  0
 35 36  1  0  0  0  0
 36 46  1  6  0  0  0
 36 37  1  0  0  0  0
 37 38  2  0  0  0  0
 37 39  1  0  0  0  0
 40 33  1  0  0  0  0
 43 34  1  0  0  0  0
 44 35  1  0  0  0  0
M  END
$$$$
