DMQ.pdb
 OpenBabel07022418153D

 49 48  0  0  1  0  0  0  0  0999 V2000
    3.3400   -1.2150    4.2580 N   0  0  0  0  0  0  0  0  0  0  0  0
    2.6340   -1.8490    3.1610 C   0  0  1  0  0  0  0  0  0  0  0  0
    1.3540   -2.4650    3.6640 C   0  0  0  0  0  0  0  0  0  0  0  0
    0.4400   -1.4920    4.2670 C   0  0  0  0  0  0  0  0  0  0  0  0
    0.7000   -0.2750    4.3470 O   0  0  0  0  0  0  0  0  0  0  0  0
    2.4230   -0.9270    2.0270 C   0  0  0  0  0  0  0  0  0  0  0  0
    2.8270    0.2650    2.1260 O   0  0  0  0  0  0  0  0  0  0  0  0
   -0.7710   -1.9410    4.7720 O   0  0  0  0  0  0  0  0  0  0  0  0
    4.3650   -1.2910    4.0650 H   0  0  0  0  0  0  0  0  0  0  0  0
    3.1720   -1.8300    5.1060 H   0  0  0  0  0  0  0  0  0  0  0  0
    3.2780   -2.6770    2.8010 H   0  0  0  0  0  0  0  0  0  0  0  0
    1.6390   -3.2000    4.4570 H   0  0  0  0  0  0  0  0  0  0  0  0
    0.8890   -3.0380    2.8400 H   0  0  0  0  0  0  0  0  0  0  0  0
   -1.2470   -1.4730    5.5320 H   0  0  0  0  0  0  0  0  0  0  0  0
    4.3070    1.9640   -2.2350 C   0  0  0  0  0  0  0  0  0  0  0  0
    4.4960    0.6820   -0.9880 S   0  0  0  0  0  0  0  0  0  0  0  0
    3.7460   -0.8740   -1.4740 C   0  0  0  0  0  0  0  0  0  0  0  0
    2.2370   -0.7910   -1.5760 C   0  0  0  0  0  0  0  0  0  0  0  0
    1.5820   -0.4070   -0.2850 C   0  0  2  0  0  0  0  0  0  0  0  0
    1.7960   -1.2690    0.8150 N   0  0  0  0  0  0  0  0  0  0  0  0
    0.1240   -0.2270   -0.6020 C   0  0  0  0  0  0  0  0  0  0  0  0
   -0.2800    0.5000   -1.5390 O   0  0  0  0  0  0  0  0  0  0  0  0
    4.6440    1.6550   -3.2350 H   0  0  0  0  0  0  0  0  0  0  0  0
    3.2750    2.4040   -2.2580 H   0  0  0  0  0  0  0  0  0  0  0  0
    4.9800    2.8160   -1.9430 H   0  0  0  0  0  0  0  0  0  0  0  0
    4.0740   -1.7210   -0.8460 H   0  0  0  0  0  0  0  0  0  0  0  0
    4.1210   -1.1080   -2.5110 H   0  0  0  0  0  0  0  0  0  0  0  0
    2.0520    0.0940   -2.2630 H   0  0  0  0  0  0  0  0  0  0  0  0
    1.7940   -1.6350   -2.0940 H   0  0  0  0  0  0  0  0  0  0  0  0
    1.9630    0.6060   -0.0310 H   0  0  0  0  0  0  0  0  0  0  0  0
    1.4600   -2.2770    0.7390 H   0  0  0  0  0  0  0  0  0  0  0  0
   -6.4120   -0.1440    0.7820 N   0  0  0  0  0  0  0  0  0  0  0  0
   -4.9780   -0.0470    0.9330 C   0  0  0  0  0  0  0  0  0  0  0  0
   -4.4910   -0.6850    1.8920 O   0  0  0  0  0  0  0  0  0  0  0  0
   -4.2260    0.7780   -0.0340 C   0  0  0  0  0  0  0  0  0  0  0  0
   -2.7590    0.5880    0.1600 C   0  0  0  0  0  0  0  0  0  0  0  0
   -2.2840   -0.8060   -0.0340 C   0  0  2  0  0  0  0  0  0  0  0  0
   -0.8330   -0.9010    0.1840 N   0  0  0  0  0  0  0  0  0  0  0  0
   -2.6070   -1.2650   -1.4110 C   0  0  0  0  0  0  0  0  0  0  0  0
   -3.7630   -1.3220   -1.8130 O   0  0  0  0  0  0  0  0  0  0  0  0
   -1.5770   -1.6460   -2.2830 O   0  0  0  0  0  0  0  0  0  0  0  0
   -7.0460    0.6520    0.9640 H   0  0  0  0  0  0  0  0  0  0  0  0
   -6.8390   -1.0440    0.4780 H   0  0  0  0  0  0  0  0  0  0  0  0
   -4.5960    0.6050   -1.0590 H   0  0  0  0  0  0  0  0  0  0  0  0
   -4.4480    1.8710    0.2370 H   0  0  0  0  0  0  0  0  0  0  0  0
   -2.5550    0.8810    1.2350 H   0  0  0  0  0  0  0  0  0  0  0  0
   -2.2200    1.2940   -0.5240 H   0  0  0  0  0  0  0  0  0  0  0  0
   -2.7510   -1.4870    0.6940 H   0  0  0  0  0  0  0  0  0  0  0  0
   -0.4880   -1.4990    0.9600 H   0  0  0  0  0  0  0  0  0  0  0  0
  1 10  1  0  0  0  0
  2 11  1  6  0  0  0
  2  3  1  0  0  0  0
  2  1  1  0  0  0  0
  3  4  1  0  0  0  0
  3 12  1  0  0  0  0
  4  5  2  0  0  0  0
  4  8  1  0  0  0  0
  6  7  2  0  0  0  0
  6  2  1  0  0  0  0
  8 14  1  0  0  0  0
  9  1  1  0  0  0  0
 13  3  1  0  0  0  0
 15 25  1  0  0  0  0
 15 16  1  0  0  0  0
 17 16  1  0  0  0  0
 17 26  1  0  0  0  0
 18 17  1  0  0  0  0
 18 19  1  0  0  0  0
 19 30  1  1  0  0  0
 19 20  1  0  0  0  0
 20  6  1  0  0  0  0
 21 19  1  0  0  0  0
 21 38  1  0  0  0  0
 22 21  2  0  0  0  0
 23 15  1  0  0  0  0
 24 15  1  0  0  0  0
 27 17  1  0  0  0  0
 28 18  1  0  0  0  0
 29 18  1  0  0  0  0
 31 20  1  0  0  0  0
 32 33  1  0  0  0  0
 32 42  1  0  0  0  0
 33 34  2  0  0  0  0
 35 36  1  0  0  0  0
 35 45  1  0  0  0  0
 35 33  1  0  0  0  0
 36 46  1  0  0  0  0
 37 36  1  0  0  0  0
 37 38  1  0  0  0  0
 37 48  1  1  0  0  0
 38 49  1  0  0  0  0
 39 37  1  0  0  0  0
 40 39  1  0  0  0  0
 41 39  2  0  0  0  0
 43 32  1  0  0  0  0
 44 35  1  0  0  0  0
 47 36  1  0  0  0  0
M  END
$$$$
