DMR.pdb
 OpenBabel07022418153D

 55 54  0  0  1  0  0  0  0  0999 V2000
   -2.3340    0.7510    3.4780 N   0  0  0  0  0  0  0  0  0  0  0  0
   -0.8980    0.5050    3.6130 C   0  0  1  0  0  0  0  0  0  0  0  0
   -0.6520   -0.9360    3.7460 C   0  0  0  0  0  0  0  0  0  0  0  0
    0.7480   -1.3520    3.9560 C   0  0  0  0  0  0  0  0  0  0  0  0
    1.0230   -2.5750    3.8180 O   0  0  0  0  0  0  0  0  0  0  0  0
   -0.2720    1.1660    2.4430 C   0  0  0  0  0  0  0  0  0  0  0  0
   -0.5980    2.3630    2.1620 O   0  0  0  0  0  0  0  0  0  0  0  0
    1.7890   -0.4960    4.2980 O   0  0  0  0  0  0  0  0  0  0  0  0
   -2.9070    0.0380    3.9410 H   0  0  0  0  0  0  0  0  0  0  0  0
   -2.5920    1.7300    3.7150 H   0  0  0  0  0  0  0  0  0  0  0  0
   -0.5440    1.0080    4.5650 H   0  0  0  0  0  0  0  0  0  0  0  0
   -1.2460   -1.3200    4.6180 H   0  0  0  0  0  0  0  0  0  0  0  0
   -1.0740   -1.5000    2.8660 H   0  0  0  0  0  0  0  0  0  0  0  0
    2.7710   -0.8100    4.2790 H   0  0  0  0  0  0  0  0  0  0  0  0
    4.7300   -0.5070   -1.7380 C   0  0  0  0  0  0  0  0  0  0  0  0
    4.0290    1.1000   -1.6410 S   0  0  0  0  0  0  0  0  0  0  0  0
    3.7520    1.7940   -0.0570 C   0  0  0  0  0  0  0  0  0  0  0  0
    2.7630    1.2090    0.8550 C   0  0  0  0  0  0  0  0  0  0  0  0
    1.3240    1.1790    0.4690 C   0  0  2  0  0  0  0  0  0  0  0  0
    0.6590    0.5320    1.6340 N   0  0  0  0  0  0  0  0  0  0  0  0
    0.9460    0.4750   -0.7350 C   0  0  0  0  0  0  0  0  0  0  0  0
    1.3720    0.7340   -1.8990 O   0  0  0  0  0  0  0  0  0  0  0  0
    5.7330   -0.4460   -2.2490 H   0  0  0  0  0  0  0  0  0  0  0  0
    4.1160   -1.1830   -2.3820 H   0  0  0  0  0  0  0  0  0  0  0  0
    4.9070   -1.0330   -0.7840 H   0  0  0  0  0  0  0  0  0  0  0  0
    3.5420    2.9110   -0.1310 H   0  0  0  0  0  0  0  0  0  0  0  0
    4.7490    1.8030    0.4940 H   0  0  0  0  0  0  0  0  0  0  0  0
    3.0600    0.1580    1.1840 H   0  0  0  0  0  0  0  0  0  0  0  0
    2.7790    1.7470    1.8610 H   0  0  0  0  0  0  0  0  0  0  0  0
    0.9050    2.2210    0.4920 H   0  0  0  0  0  0  0  0  0  0  0  0
    0.9570   -0.4520    1.7620 H   0  0  0  0  0  0  0  0  0  0  0  0
   -3.7920   -0.3300    0.3650 N   0  0  0  0  0  0  0  0  0  0  0  0
   -3.4580   -1.7030    0.3560 C   0  0  0  0  0  0  0  0  0  0  0  0
   -3.2840   -2.3570    1.4700 N   0  0  0  0  0  0  0  0  0  0  0  0
   -3.3250   -2.3710   -0.8910 N   0  0  0  0  0  0  0  0  0  0  0  0
   -2.5850   -3.5650   -1.0190 C   0  0  0  0  0  0  0  0  0  0  0  0
   -1.1160   -3.5790   -0.8570 C   0  0  0  0  0  0  0  0  0  0  0  0
   -0.3070   -2.8080   -1.7950 C   0  0  0  0  0  0  0  0  0  0  0  0
   -0.3600   -1.3460   -1.8860 C   0  0  2  0  0  0  0  0  0  0  0  0
    0.0090   -0.6210   -0.6670 N   0  0  0  0  0  0  0  0  0  0  0  0
   -1.5360   -0.7530   -2.5660 C   0  0  0  0  0  0  0  0  0  0  0  0
   -2.1380    0.2650   -2.1920 O   0  0  0  0  0  0  0  0  0  0  0  0
   -1.9930   -1.4040   -3.7180 O   0  0  0  0  0  0  0  0  0  0  0  0
   -3.2450    0.3830    0.8790 H   0  0  0  0  0  0  0  0  0  0  0  0
   -4.6390    0.0040   -0.1770 H   0  0  0  0  0  0  0  0  0  0  0  0
   -3.3930   -1.8630    2.3660 H   0  0  0  0  0  0  0  0  0  0  0  0
   -3.8520   -1.9100   -1.6930 H   0  0  0  0  0  0  0  0  0  0  0  0
   -2.8710   -4.0120   -2.0270 H   0  0  0  0  0  0  0  0  0  0  0  0
   -3.0830   -4.3140   -0.3060 H   0  0  0  0  0  0  0  0  0  0  0  0
   -0.8110   -3.4300    0.2250 H   0  0  0  0  0  0  0  0  0  0  0  0
   -0.8060   -4.6780   -0.9980 H   0  0  0  0  0  0  0  0  0  0  0  0
    0.7870   -3.1770   -1.7600 H   0  0  0  0  0  0  0  0  0  0  0  0
   -0.5810   -3.1830   -2.8510 H   0  0  0  0  0  0  0  0  0  0  0  0
    0.4810   -1.0750   -2.6490 H   0  0  0  0  0  0  0  0  0  0  0  0
   -0.4080   -0.9010    0.2400 H   0  0  0  0  0  0  0  0  0  0  0  0
  1  2  1  0  0  0  0
  1 10  1  0  0  0  0
  1  9  1  0  0  0  0
  2  3  1  0  0  0  0
  2 11  1  1  0  0  0
  3  4  1  0  0  0  0
  3 12  1  0  0  0  0
  4  8  1  0  0  0  0
  5  4  2  0  0  0  0
  6  2  1  0  0  0  0
  7  6  2  0  0  0  0
 13  3  1  0  0  0  0
 14  8  1  0  0  0  0
 15 16  1  0  0  0  0
 15 25  1  0  0  0  0
 16 17  1  0  0  0  0
 17 27  1  0  0  0  0
 17 18  1  0  0  0  0
 18 28  1  0  0  0  0
 18 29  1  0  0  0  0
 19 30  1  6  0  0  0
 19 18  1  0  0  0  0
 19 20  1  0  0  0  0
 20 31  1  0  0  0  0
 20  6  1  0  0  0  0
 21 40  1  0  0  0  0
 21 19  1  0  0  0  0
 22 21  2  0  0  0  0
 23 15  1  0  0  0  0
 24 15  1  0  0  0  0
 26 17  1  0  0  0  0
 32 44  1  0  0  0  0
 33 32  1  0  0  0  0
 33 34  2  0  0  0  0
 34 46  1  0  0  0  0
 35 33  1  0  0  0  0
 36 35  1  0  0  0  0
 36 37  1  0  0  0  0
 36 49  1  0  0  0  0
 37 50  1  0  0  0  0
 38 52  1  0  0  0  0
 38 37  1  0  0  0  0
 39 54  1  6  0  0  0
 39 38  1  0  0  0  0
 39 40  1  0  0  0  0
 40 55  1  0  0  0  0
 41 42  1  0  0  0  0
 41 39  1  0  0  0  0
 43 41  2  0  0  0  0
 45 32  1  0  0  0  0
 47 35  1  0  0  0  0
 48 36  1  0  0  0  0
 51 37  1  0  0  0  0
 53 38  1  0  0  0  0
M  END
$$$$
