DMS.pdb
 OpenBabel07022418153D

 43 42  0  0  1  0  0  0  0  0999 V2000
   -0.1190   -2.7160    3.2130 N   0  0  0  0  0  0  0  0  0  0  0  0
    1.2510   -2.9810    2.8850 C   0  0  1  0  0  0  0  0  0  0  0  0
    1.3800   -4.4840    2.6250 C   0  0  0  0  0  0  0  0  0  0  0  0
    0.5220   -4.9160    1.5190 C   0  0  0  0  0  0  0  0  0  0  0  0
   -0.2110   -4.1160    0.8940 O   0  0  0  0  0  0  0  0  0  0  0  0
    1.6930   -2.2110    1.6790 C   0  0  0  0  0  0  0  0  0  0  0  0
    2.8730   -2.3480    1.2730 O   0  0  0  0  0  0  0  0  0  0  0  0
    0.5120   -6.2470    1.1440 O   0  0  0  0  0  0  0  0  0  0  0  0
   -0.3030   -1.7800    3.5990 H   0  0  0  0  0  0  0  0  0  0  0  0
   -0.4970   -3.4960    3.7960 H   0  0  0  0  0  0  0  0  0  0  0  0
    1.9180   -2.6900    3.7210 H   0  0  0  0  0  0  0  0  0  0  0  0
    2.4490   -4.7740    2.4850 H   0  0  0  0  0  0  0  0  0  0  0  0
    1.0620   -4.9690    3.5820 H   0  0  0  0  0  0  0  0  0  0  0  0
   -0.3290   -6.7000    0.7690 H   0  0  0  0  0  0  0  0  0  0  0  0
   -2.0200   -0.3410   -3.7400 C   0  0  0  0  0  0  0  0  0  0  0  0
   -0.2820   -0.7810   -4.0100 S   0  0  0  0  0  0  0  0  0  0  0  0
    0.7430   -0.2080   -2.6040 C   0  0  0  0  0  0  0  0  0  0  0  0
    0.3720   -0.9610   -1.3600 C   0  0  0  0  0  0  0  0  0  0  0  0
    1.2050   -0.5680   -0.1890 C   0  0  2  0  0  0  0  0  0  0  0  0
    0.8090   -1.3410    0.9980 N   0  0  0  0  0  0  0  0  0  0  0  0
    1.1360    0.8630    0.0770 C   0  0  0  0  0  0  0  0  0  0  0  0
    1.5260    1.7040   -0.7500 O   0  0  0  0  0  0  0  0  0  0  0  0
   -2.4320   -1.0380   -2.9660 H   0  0  0  0  0  0  0  0  0  0  0  0
   -2.5850   -0.5460   -4.6720 H   0  0  0  0  0  0  0  0  0  0  0  0
   -2.1460    0.6870   -3.3860 H   0  0  0  0  0  0  0  0  0  0  0  0
    1.8040   -0.3330   -2.8840 H   0  0  0  0  0  0  0  0  0  0  0  0
    0.5600    0.8950   -2.5370 H   0  0  0  0  0  0  0  0  0  0  0  0
    0.5000   -2.0680   -1.5670 H   0  0  0  0  0  0  0  0  0  0  0  0
   -0.7240   -0.7840   -1.1270 H   0  0  0  0  0  0  0  0  0  0  0  0
    2.2580   -0.8340   -0.3930 H   0  0  0  0  0  0  0  0  0  0  0  0
   -0.1600   -1.2510    1.3610 H   0  0  0  0  0  0  0  0  0  0  0  0
   -0.8050    4.6890    1.9770 O   0  0  0  0  0  0  0  0  0  0  0  0
   -0.8770    3.3180    1.7050 C   0  0  0  0  0  0  0  0  0  0  0  0
    0.5410    2.8180    1.5810 C   0  0  2  0  0  0  0  0  0  0  0  0
    0.6190    1.4160    1.2990 N   0  0  0  0  0  0  0  0  0  0  0  0
    1.3530    3.2330    2.7340 C   0  0  0  0  0  0  0  0  0  0  0  0
    2.0590    2.4230    3.4180 O   0  0  0  0  0  0  0  0  0  0  0  0
    1.3490    4.5730    3.0940 O   0  0  0  0  0  0  0  0  0  0  0  0
   -1.5700    5.1770    1.6200 H   0  0  0  0  0  0  0  0  0  0  0  0
   -1.3880    2.8410    2.5430 H   0  0  0  0  0  0  0  0  0  0  0  0
   -1.4210    3.2260    0.7410 H   0  0  0  0  0  0  0  0  0  0  0  0
    0.9670    3.3450    0.6750 H   0  0  0  0  0  0  0  0  0  0  0  0
    0.2860    0.7420    2.0070 H   0  0  0  0  0  0  0  0  0  0  0  0
  1  9  1  0  0  0  0
  1 10  1  0  0  0  0
  2  1  1  0  0  0  0
  2 11  1  1  0  0  0
  3  2  1  0  0  0  0
  3 13  1  0  0  0  0
  4  3  1  0  0  0  0
  5  4  2  0  0  0  0
  6  2  1  0  0  0  0
  7  6  2  0  0  0  0
  8  4  1  0  0  0  0
 12  3  1  0  0  0  0
 14  8  1  0  0  0  0
 15 25  1  0  0  0  0
 15 23  1  0  0  0  0
 16 15  1  0  0  0  0
 16 17  1  0  0  0  0
 17 27  1  0  0  0  0
 17 18  1  0  0  0  0
 18 29  1  0  0  0  0
 18 19  1  0  0  0  0
 19 30  1  6  0  0  0
 19 21  1  0  0  0  0
 19 20  1  0  0  0  0
 20 31  1  0  0  0  0
 20  6  1  0  0  0  0
 21 35  1  0  0  0  0
 22 21  2  0  0  0  0
 24 15  1  0  0  0  0
 26 17  1  0  0  0  0
 28 18  1  0  0  0  0
 33 32  1  0  0  0  0
 33 40  1  0  0  0  0
 34 42  1  6  0  0  0
 34 33  1  0  0  0  0
 34 36  1  0  0  0  0
 35 34  1  0  0  0  0
 35 43  1  0  0  0  0
 36 38  2  0  0  0  0
 36 37  1  0  0  0  0
 39 32  1  0  0  0  0
 41 33  1  0  0  0  0
M  END
$$$$
