DMT.pdb
 OpenBabel07022418153D

 46 45  0  0  1  0  0  0  0  0999 V2000
    3.8300   -2.7560    3.2570 N   0  0  0  0  0  0  0  0  0  0  0  0
    2.4120   -2.4430    2.9370 C   0  0  1  0  0  0  0  0  0  0  0  0
    1.7850   -2.3470    4.3090 C   0  0  0  0  0  0  0  0  0  0  0  0
    0.3690   -2.0120    4.3470 C   0  0  0  0  0  0  0  0  0  0  0  0
   -0.0170   -0.9690    3.7360 O   0  0  0  0  0  0  0  0  0  0  0  0
    2.3590   -1.2450    2.1210 C   0  0  0  0  0  0  0  0  0  0  0  0
    3.3330   -0.4130    2.2280 O   0  0  0  0  0  0  0  0  0  0  0  0
   -0.5750   -2.7590    5.0060 O   0  0  0  0  0  0  0  0  0  0  0  0
    3.8160   -3.4910    4.0020 H   0  0  0  0  0  0  0  0  0  0  0  0
    4.3130   -3.0500    2.3850 H   0  0  0  0  0  0  0  0  0  0  0  0
    2.0300   -3.3700    2.4620 H   0  0  0  0  0  0  0  0  0  0  0  0
    2.3800   -1.6670    4.9470 H   0  0  0  0  0  0  0  0  0  0  0  0
    1.9200   -3.3630    4.7650 H   0  0  0  0  0  0  0  0  0  0  0  0
   -1.3520   -2.2790    5.4520 H   0  0  0  0  0  0  0  0  0  0  0  0
    1.7030   -0.1450   -4.3600 C   0  0  0  0  0  0  0  0  0  0  0  0
    2.7690    0.9500   -3.4100 S   0  0  0  0  0  0  0  0  0  0  0  0
    2.0260    1.3100   -1.7700 C   0  0  0  0  0  0  0  0  0  0  0  0
    1.9720    0.0630   -0.9490 C   0  0  0  0  0  0  0  0  0  0  0  0
    1.3900    0.3440    0.4300 C   0  0  2  0  0  0  0  0  0  0  0  0
    1.3530   -0.8730    1.2020 N   0  0  0  0  0  0  0  0  0  0  0  0
    0.1100    1.0150    0.4150 C   0  0  0  0  0  0  0  0  0  0  0  0
   -0.0410    2.2080   -0.0670 O   0  0  0  0  0  0  0  0  0  0  0  0
    1.8010   -1.1710   -3.9260 H   0  0  0  0  0  0  0  0  0  0  0  0
    0.6450    0.1380   -4.3240 H   0  0  0  0  0  0  0  0  0  0  0  0
    1.9730   -0.1860   -5.4300 H   0  0  0  0  0  0  0  0  0  0  0  0
    1.0400    1.7580   -2.0050 H   0  0  0  0  0  0  0  0  0  0  0  0
    2.6340    2.1290   -1.3360 H   0  0  0  0  0  0  0  0  0  0  0  0
    1.3020   -0.6530   -1.4620 H   0  0  0  0  0  0  0  0  0  0  0  0
    2.9820   -0.3110   -0.7930 H   0  0  0  0  0  0  0  0  0  0  0  0
    2.1650    1.0070    0.9110 H   0  0  0  0  0  0  0  0  0  0  0  0
    0.5570   -1.5140    1.0690 H   0  0  0  0  0  0  0  0  0  0  0  0
   -3.2460   -0.9680   -0.0610 C   0  0  0  0  0  0  0  0  0  0  0  0
   -3.1810    0.5190   -0.2440 C   0  0  1  0  0  0  0  0  0  0  0  0
   -4.3940    1.1400   -0.4020 O   0  0  0  0  0  0  0  0  0  0  0  0
   -2.3390    1.2080    0.8510 C   0  0  2  0  0  0  0  0  0  0  0  0
   -1.0930    0.4340    0.9220 N   0  0  0  0  0  0  0  0  0  0  0  0
   -3.1120    1.1070    2.0870 C   0  0  0  0  0  0  0  0  0  0  0  0
   -4.2180    1.7410    2.1130 O   0  0  0  0  0  0  0  0  0  0  0  0
   -2.7190    0.3770    3.2050 O   0  0  0  0  0  0  0  0  0  0  0  0
   -4.2070   -1.3630   -0.4040 H   0  0  0  0  0  0  0  0  0  0  0  0
   -3.1450   -1.2630    1.0240 H   0  0  0  0  0  0  0  0  0  0  0  0
   -2.4020   -1.4970   -0.5740 H   0  0  0  0  0  0  0  0  0  0  0  0
   -2.6250    0.6960   -1.2180 H   0  0  0  0  0  0  0  0  0  0  0  0
   -4.9930    0.4880   -0.8600 H   0  0  0  0  0  0  0  0  0  0  0  0
   -2.1890    2.2310    0.5110 H   0  0  0  0  0  0  0  0  0  0  0  0
   -1.0920   -0.5250    1.3260 H   0  0  0  0  0  0  0  0  0  0  0  0
  1  9  1  0  0  0  0
  2 11  1  6  0  0  0
  2  1  1  0  0  0  0
  2  3  1  0  0  0  0
  3  4  1  0  0  0  0
  3 13  1  0  0  0  0
  3 12  1  0  0  0  0
  4  8  1  0  0  0  0
  5  4  2  0  0  0  0
  6  7  2  0  0  0  0
  6  2  1  0  0  0  0
  8 14  1  0  0  0  0
 10  1  1  0  0  0  0
 15 24  1  0  0  0  0
 15 23  1  0  0  0  0
 15 16  1  0  0  0  0
 16 17  1  0  0  0  0
 17 27  1  0  0  0  0
 17 18  1  0  0  0  0
 18 29  1  0  0  0  0
 18 19  1  0  0  0  0
 19 30  1  1  0  0  0
 19 20  1  0  0  0  0
 20  6  1  0  0  0  0
 21 19  1  0  0  0  0
 21 36  1  0  0  0  0
 22 21  2  0  0  0  0
 25 15  1  0  0  0  0
 26 17  1  0  0  0  0
 28 18  1  0  0  0  0
 31 20  1  0  0  0  0
 32 41  1  0  0  0  0
 33 43  1  6  0  0  0
 33 32  1  0  0  0  0
 33 35  1  0  0  0  0
 34 33  1  0  0  0  0
 35 45  1  6  0  0  0
 35 36  1  0  0  0  0
 35 37  1  0  0  0  0
 36 46  1  0  0  0  0
 37 38  2  0  0  0  0
 37 39  1  0  0  0  0
 40 32  1  0  0  0  0
 42 32  1  0  0  0  0
 44 34  1  0  0  0  0
M  END
$$$$
