DMW.pdb
 OpenBabel07022418153D

 56 57  0  0  1  0  0  0  0  0999 V2000
    4.7610   -0.6510    1.1790 N   0  0  0  0  0  0  0  0  0  0  0  0
    4.0480   -1.6340    1.9650 C   0  0  1  0  0  0  0  0  0  0  0  0
    4.6300   -1.6460    3.3650 C   0  0  0  0  0  0  0  0  0  0  0  0
    4.5340   -0.3650    4.0610 C   0  0  0  0  0  0  0  0  0  0  0  0
    5.3860    0.5290    3.8210 O   0  0  0  0  0  0  0  0  0  0  0  0
    2.5890   -1.3920    1.9760 C   0  0  0  0  0  0  0  0  0  0  0  0
    1.8120   -2.1560    2.5880 O   0  0  0  0  0  0  0  0  0  0  0  0
    3.5450   -0.0740    4.9840 O   0  0  0  0  0  0  0  0  0  0  0  0
    4.4120   -0.6460    0.1970 H   0  0  0  0  0  0  0  0  0  0  0  0
    4.7030    0.3100    1.5910 H   0  0  0  0  0  0  0  0  0  0  0  0
    4.2490   -2.6110    1.4690 H   0  0  0  0  0  0  0  0  0  0  0  0
    5.7010   -2.0030    3.3020 H   0  0  0  0  0  0  0  0  0  0  0  0
    4.1380   -2.4490    3.9700 H   0  0  0  0  0  0  0  0  0  0  0  0
    3.8280    0.5050    5.7710 H   0  0  0  0  0  0  0  0  0  0  0  0
   -0.8340    4.5490    1.2150 C   0  0  0  0  0  0  0  0  0  0  0  0
    0.9150    4.1200    1.4330 S   0  0  0  0  0  0  0  0  0  0  0  0
    1.1750    2.3910    0.8520 C   0  0  0  0  0  0  0  0  0  0  0  0
    0.4360    1.4370    1.7660 C   0  0  0  0  0  0  0  0  0  0  0  0
    0.6440    0.0170    1.2440 C   0  0  2  0  0  0  0  0  0  0  0  0
    2.0790   -0.2510    1.2630 N   0  0  0  0  0  0  0  0  0  0  0  0
    0.1280    0.0540   -0.1610 C   0  0  0  0  0  0  0  0  0  0  0  0
    0.9380    0.0310   -1.1120 O   0  0  0  0  0  0  0  0  0  0  0  0
   -0.9880    5.6280    1.2120 H   0  0  0  0  0  0  0  0  0  0  0  0
   -1.3860    4.0830    2.0820 H   0  0  0  0  0  0  0  0  0  0  0  0
   -1.2080    4.0390    0.3040 H   0  0  0  0  0  0  0  0  0  0  0  0
    0.7910    2.3080   -0.1890 H   0  0  0  0  0  0  0  0  0  0  0  0
    2.2730    2.2610    0.9080 H   0  0  0  0  0  0  0  0  0  0  0  0
    0.9420    1.4940    2.7740 H   0  0  0  0  0  0  0  0  0  0  0  0
   -0.6380    1.6740    1.8350 H   0  0  0  0  0  0  0  0  0  0  0  0
    0.0820   -0.7140    1.8350 H   0  0  0  0  0  0  0  0  0  0  0  0
    2.7730    0.3390    0.7820 H   0  0  0  0  0  0  0  0  0  0  0  0
   -1.2620    0.1130   -0.4220 N   0  0  0  0  0  0  0  0  0  0  0  0
   -1.7220    0.1570   -1.7870 C   0  0  1  0  0  0  0  0  0  0  0  0
   -1.8540   -1.2440   -2.3020 C   0  0  0  0  0  0  0  0  0  0  0  0
   -2.7720   -2.0950   -1.5410 C   0  0  0  0  0  0  0  0  0  0  0  0
   -3.8160   -1.8240   -0.6940 C   0  0  0  0  0  0  0  0  0  0  0  0
   -4.3480   -2.9770   -0.2300 N   0  0  0  0  0  0  0  0  0  0  0  0
   -3.6770   -4.0240   -0.7550 C   0  0  0  0  0  0  0  0  0  0  0  0
   -3.8430   -5.4000   -0.5850 C   0  0  0  0  0  0  0  0  0  0  0  0
   -2.9780   -6.2290   -1.2720 C   0  0  0  0  0  0  0  0  0  0  0  0
   -1.9830   -5.7070   -2.0980 C   0  0  0  0  0  0  0  0  0  0  0  0
   -1.8380   -4.3290   -2.2500 C   0  0  0  0  0  0  0  0  0  0  0  0
   -2.7000   -3.5060   -1.5660 C   0  0  0  0  0  0  0  0  0  0  0  0
   -2.8820    0.9800   -2.0460 C   0  0  0  0  0  0  0  0  0  0  0  0
   -3.4010    1.6430   -1.0980 O   0  0  0  0  0  0  0  0  0  0  0  0
   -3.5020    1.1180   -3.2740 O   0  0  0  0  0  0  0  0  0  0  0  0
   -1.9600    0.1230    0.3940 H   0  0  0  0  0  0  0  0  0  0  0  0
   -0.8210    0.5790   -2.3700 H   0  0  0  0  0  0  0  0  0  0  0  0
   -2.2100   -1.2410   -3.3790 H   0  0  0  0  0  0  0  0  0  0  0  0
   -0.8630   -1.7610   -2.3300 H   0  0  0  0  0  0  0  0  0  0  0  0
   -4.1760   -0.8650   -0.4240 H   0  0  0  0  0  0  0  0  0  0  0  0
   -5.1580   -3.0510    0.4360 H   0  0  0  0  0  0  0  0  0  0  0  0
   -4.6220   -5.7760    0.0660 H   0  0  0  0  0  0  0  0  0  0  0  0
   -3.1130   -7.2960   -1.1320 H   0  0  0  0  0  0  0  0  0  0  0  0
   -1.3130   -6.3510   -2.6310 H   0  0  0  0  0  0  0  0  0  0  0  0
   -1.0640   -3.9520   -2.8950 H   0  0  0  0  0  0  0  0  0  0  0  0
  1 10  1  0  0  0  0
  1  2  1  0  0  0  0
  2 11  1  6  0  0  0
  2  6  1  0  0  0  0
  2  3  1  0  0  0  0
  3 13  1  0  0  0  0
  3  4  1  0  0  0  0
  4  8  1  0  0  0  0
  5  4  2  0  0  0  0
  6  7  2  0  0  0  0
  8 14  1  0  0  0  0
  9  1  1  0  0  0  0
 12  3  1  0  0  0  0
 15 16  1  0  0  0  0
 15 24  1  0  0  0  0
 17 27  1  0  0  0  0
 17 16  1  0  0  0  0
 17 18  1  0  0  0  0
 18 29  1  0  0  0  0
 18 28  1  0  0  0  0
 19 20  1  0  0  0  0
 19 18  1  0  0  0  0
 19 30  1  1  0  0  0
 20  6  1  0  0  0  0
 21 19  1  0  0  0  0
 22 21  2  0  0  0  0
 23 15  1  0  0  0  0
 25 15  1  0  0  0  0
 26 17  1  0  0  0  0
 31 20  1  0  0  0  0
 32 21  1  0  0  0  0
 32 47  1  0  0  0  0
 33 48  1  6  0  0  0
 33 32  1  0  0  0  0
 34 33  1  0  0  0  0
 34 35  1  0  0  0  0
 35 36  2  0  0  0  0
 36 51  1  0  0  0  0
 36 37  1  0  0  0  0
 37 52  1  0  0  0  0
 38 39  1  0  0  0  0
 38 37  1  0  0  0  0
 39 53  1  0  0  0  0
 40 54  1  0  0  0  0
 40 39  2  0  0  0  0
 41 40  1  0  0  0  0
 42 41  2  0  0  0  0
 42 43  1  0  0  0  0
 43 35  1  0  0  0  0
 43 38  2  0  0  0  0
 44 33  1  0  0  0  0
 44 45  1  0  0  0  0
 46 44  2  0  0  0  0
 49 34  1  0  0  0  0
 50 34  1  0  0  0  0
 55 41  1  0  0  0  0
 56 42  1  0  0  0  0
M  END
$$$$
