DMY.pdb
 OpenBabel07022418153D

 53 53  0  0  1  0  0  0  0  0999 V2000
   -0.4180    2.1630    3.2960 N   0  0  0  0  0  0  0  0  0  0  0  0
   -0.5190    2.2070    1.8710 C   0  0  1  0  0  0  0  0  0  0  0  0
   -0.0970    3.5350    1.3260 C   0  0  0  0  0  0  0  0  0  0  0  0
    1.3070    3.7990    1.7000 C   0  0  0  0  0  0  0  0  0  0  0  0
    1.9650    2.9730    2.3750 O   0  0  0  0  0  0  0  0  0  0  0  0
    0.2570    1.0630    1.2890 C   0  0  0  0  0  0  0  0  0  0  0  0
    0.8680    0.2470    2.0150 O   0  0  0  0  0  0  0  0  0  0  0  0
    1.8580    5.0050    1.2670 O   0  0  0  0  0  0  0  0  0  0  0  0
    0.4550    1.6880    3.6190 H   0  0  0  0  0  0  0  0  0  0  0  0
   -1.2590    1.7440    3.7440 H   0  0  0  0  0  0  0  0  0  0  0  0
   -1.6100    2.0820    1.6160 H   0  0  0  0  0  0  0  0  0  0  0  0
   -0.2500    3.5650    0.2170 H   0  0  0  0  0  0  0  0  0  0  0  0
   -0.7750    4.2950    1.7490 H   0  0  0  0  0  0  0  0  0  0  0  0
    2.8360    5.1710    1.3490 H   0  0  0  0  0  0  0  0  0  0  0  0
    3.5880   -1.6490    2.9060 C   0  0  0  0  0  0  0  0  0  0  0  0
    4.3770   -1.0900    1.3780 S   0  0  0  0  0  0  0  0  0  0  0  0
    3.2430   -0.0120    0.4290 C   0  0  0  0  0  0  0  0  0  0  0  0
    2.1040   -0.8690   -0.0100 C   0  0  0  0  0  0  0  0  0  0  0  0
    1.0280   -0.1470   -0.7890 C   0  0  2  0  0  0  0  0  0  0  0  0
    0.3210    0.8710   -0.1070 N   0  0  0  0  0  0  0  0  0  0  0  0
    0.0930   -1.0570   -1.4490 C   0  0  0  0  0  0  0  0  0  0  0  0
    0.4600   -2.0620   -2.1310 O   0  0  0  0  0  0  0  0  0  0  0  0
    4.2520   -2.4170    3.3540 H   0  0  0  0  0  0  0  0  0  0  0  0
    2.6170   -2.1480    2.7260 H   0  0  0  0  0  0  0  0  0  0  0  0
    3.4970   -0.8080    3.6320 H   0  0  0  0  0  0  0  0  0  0  0  0
    3.0530    0.9410    0.8790 H   0  0  0  0  0  0  0  0  0  0  0  0
    3.8320    0.2250   -0.5350 H   0  0  0  0  0  0  0  0  0  0  0  0
    2.5440   -1.6020   -0.7550 H   0  0  0  0  0  0  0  0  0  0  0  0
    1.6970   -1.5390    0.7830 H   0  0  0  0  0  0  0  0  0  0  0  0
    1.6520    0.3660   -1.6320 H   0  0  0  0  0  0  0  0  0  0  0  0
   -0.2230    1.5730   -0.7150 H   0  0  0  0  0  0  0  0  0  0  0  0
   -0.0860   -5.3620    2.6870 O   0  0  0  0  0  0  0  0  0  0  0  0
   -0.8440   -4.6720    1.7500 C   0  0  0  0  0  0  0  0  0  0  0  0
   -1.1820   -3.3540    2.0090 C   0  0  0  0  0  0  0  0  0  0  0  0
   -1.9370   -2.6790    1.0670 C   0  0  0  0  0  0  0  0  0  0  0  0
   -2.3540   -3.2880   -0.1120 C   0  0  0  0  0  0  0  0  0  0  0  0
   -3.1540   -2.5070   -1.0640 C   0  0  0  0  0  0  0  0  0  0  0  0
   -2.2470   -1.8050   -2.0400 C   0  0  2  0  0  0  0  0  0  0  0  0
   -1.3310   -0.8990   -1.3850 N   0  0  0  0  0  0  0  0  0  0  0  0
   -3.0020   -1.1210   -3.1180 C   0  0  0  0  0  0  0  0  0  0  0  0
   -3.8430   -1.7220   -3.8040 O   0  0  0  0  0  0  0  0  0  0  0  0
   -2.0020   -4.5950   -0.3380 C   0  0  0  0  0  0  0  0  0  0  0  0
   -1.2480   -5.2960    0.5850 C   0  0  0  0  0  0  0  0  0  0  0  0
   -2.7460    0.2380   -3.3550 O   0  0  0  0  0  0  0  0  0  0  0  0
   -0.5740   -5.7320    3.4990 H   0  0  0  0  0  0  0  0  0  0  0  0
   -0.8740   -2.8420    2.9220 H   0  0  0  0  0  0  0  0  0  0  0  0
   -2.2150   -1.6630    1.2360 H   0  0  0  0  0  0  0  0  0  0  0  0
   -3.7420   -1.7240   -0.5460 H   0  0  0  0  0  0  0  0  0  0  0  0
   -3.8200   -3.1920   -1.6110 H   0  0  0  0  0  0  0  0  0  0  0  0
   -1.6360   -2.5820   -2.5410 H   0  0  0  0  0  0  0  0  0  0  0  0
   -1.7090   -0.0970   -0.8420 H   0  0  0  0  0  0  0  0  0  0  0  0
   -2.2980   -5.1110   -1.2320 H   0  0  0  0  0  0  0  0  0  0  0  0
   -0.9440   -6.3230    0.4560 H   0  0  0  0  0  0  0  0  0  0  0  0
  1  9  1  0  0  0  0
  1 10  1  0  0  0  0
  2 11  1  6  0  0  0
  2  1  1  0  0  0  0
  3  4  1  0  0  0  0
  3 13  1  0  0  0  0
  3  2  1  0  0  0  0
  4  5  2  0  0  0  0
  6  2  1  0  0  0  0
  6  7  2  0  0  0  0
  8 14  1  0  0  0  0
  8  4  1  0  0  0  0
 12  3  1  0  0  0  0
 15 23  1  0  0  0  0
 15 25  1  0  0  0  0
 16 15  1  0  0  0  0
 17 26  1  0  0  0  0
 17 16  1  0  0  0  0
 18 17  1  0  0  0  0
 18 29  1  0  0  0  0
 19 30  1  6  0  0  0
 19 20  1  0  0  0  0
 19 18  1  0  0  0  0
 20  6  1  0  0  0  0
 21 39  1  0  0  0  0
 21 19  1  0  0  0  0
 22 21  2  0  0  0  0
 24 15  1  0  0  0  0
 27 17  1  0  0  0  0
 28 18  1  0  0  0  0
 31 20  1  0  0  0  0
 32 45  1  0  0  0  0
 33 34  1  0  0  0  0
 33 32  1  0  0  0  0
 34 46  1  0  0  0  0
 35 47  1  0  0  0  0
 35 34  2  0  0  0  0
 36 35  1  0  0  0  0
 37 48  1  0  0  0  0
 37 36  1  0  0  0  0
 38 50  1  6  0  0  0
 38 39  1  0  0  0  0
 38 37  1  0  0  0  0
 39 51  1  0  0  0  0
 40 38  1  0  0  0  0
 41 40  2  0  0  0  0
 42 36  2  0  0  0  0
 42 43  1  0  0  0  0
 43 33  2  0  0  0  0
 44 40  1  0  0  0  0
 49 37  1  0  0  0  0
 52 42  1  0  0  0  0
 53 43  1  0  0  0  0
M  END
$$$$
