DNA.pdb
 OpenBabel07022418123D

 39 38  0  0  1  0  0  0  0  0999 V2000
    2.2000   -3.6720    1.4600 N   0  0  0  0  0  0  0  0  0  0  0  0
    2.1120   -2.3130    0.9720 C   0  0  1  0  0  0  0  0  0  0  0  0
    2.8870   -2.2740   -0.3450 C   0  0  0  0  0  0  0  0  0  0  0  0
    4.2720   -2.6660   -0.0310 C   0  0  0  0  0  0  0  0  0  0  0  0
    5.0360   -1.8630    0.5330 O   0  0  0  0  0  0  0  0  0  0  0  0
    0.6850   -1.9690    0.7110 C   0  0  0  0  0  0  0  0  0  0  0  0
   -0.1770   -2.8250    0.9270 O   0  0  0  0  0  0  0  0  0  0  0  0
    4.7180   -3.9240   -0.3630 O   0  0  0  0  0  0  0  0  0  0  0  0
    1.6870   -4.2850    0.7710 H   0  0  0  0  0  0  0  0  0  0  0  0
    1.6570   -3.7610    2.3570 H   0  0  0  0  0  0  0  0  0  0  0  0
    2.5830   -1.6610    1.7170 H   0  0  0  0  0  0  0  0  0  0  0  0
    2.8500   -1.2050   -0.6860 H   0  0  0  0  0  0  0  0  0  0  0  0
    2.4330   -2.9410   -1.0890 H   0  0  0  0  0  0  0  0  0  0  0  0
    5.5690   -4.3440   -0.0180 H   0  0  0  0  0  0  0  0  0  0  0  0
   -2.0280   -1.2850   -2.8950 N   0  0  0  0  0  0  0  0  0  0  0  0
   -1.6950   -1.9570   -1.6560 C   0  0  0  0  0  0  0  0  0  0  0  0
   -1.1310   -3.0510   -1.8070 O   0  0  0  0  0  0  0  0  0  0  0  0
   -2.0680   -1.2570   -0.4360 C   0  0  0  0  0  0  0  0  0  0  0  0
   -1.0070   -0.2440   -0.0790 C   0  0  2  0  0  0  0  0  0  0  0  0
    0.2830   -0.7050    0.2290 N   0  0  0  0  0  0  0  0  0  0  0  0
   -1.4960    0.8810    0.7420 C   0  0  0  0  0  0  0  0  0  0  0  0
   -2.6380    1.4020    0.5830 O   0  0  0  0  0  0  0  0  0  0  0  0
   -3.0180   -0.9910   -2.9970 H   0  0  0  0  0  0  0  0  0  0  0  0
   -1.3490   -1.0970   -3.6420 H   0  0  0  0  0  0  0  0  0  0  0  0
   -2.9950   -0.6710   -0.6290 H   0  0  0  0  0  0  0  0  0  0  0  0
   -2.3310   -1.9180    0.4100 H   0  0  0  0  0  0  0  0  0  0  0  0
   -0.8700    0.2210   -1.1530 H   0  0  0  0  0  0  0  0  0  0  0  0
    1.0880   -0.0200    0.0860 H   0  0  0  0  0  0  0  0  0  0  0  0
   -1.1630    2.1190    4.0660 C   0  0  0  0  0  0  0  0  0  0  0  0
   -1.0590    2.5280    2.6220 C   0  0  2  0  0  0  0  0  0  0  0  0
   -0.6810    1.4280    1.7610 N   0  0  0  0  0  0  0  0  0  0  0  0
   -0.1990    3.7010    2.4290 C   0  0  0  0  0  0  0  0  0  0  0  0
   -0.4080    4.7200    3.1240 O   0  0  0  0  0  0  0  0  0  0  0  0
    0.8090    3.6730    1.5020 O   0  0  0  0  0  0  0  0  0  0  0  0
   -1.5330    2.9830    4.6530 H   0  0  0  0  0  0  0  0  0  0  0  0
   -1.8990    1.3070    4.2230 H   0  0  0  0  0  0  0  0  0  0  0  0
   -0.2000    1.7640    4.4770 H   0  0  0  0  0  0  0  0  0  0  0  0
   -2.1010    2.8160    2.2950 H   0  0  0  0  0  0  0  0  0  0  0  0
    0.2780    0.9800    1.8830 H   0  0  0  0  0  0  0  0  0  0  0  0
  1 10  1  0  0  0  0
  2  1  1  0  0  0  0
  2 11  1  1  0  0  0
  3  4  1  0  0  0  0
  3  2  1  0  0  0  0
  4  5  2  0  0  0  0
  6  7  2  0  0  0  0
  6  2  1  0  0  0  0
  8  4  1  0  0  0  0
  8 14  1  0  0  0  0
  9  1  1  0  0  0  0
 12  3  1  0  0  0  0
 13  3  1  0  0  0  0
 15 16  1  0  0  0  0
 16 18  1  0  0  0  0
 17 16  2  0  0  0  0
 18 19  1  0  0  0  0
 18 26  1  0  0  0  0
 19 27  1  6  0  0  0
 19 20  1  0  0  0  0
 19 21  1  0  0  0  0
 20  6  1  0  0  0  0
 21 31  1  0  0  0  0
 22 21  2  0  0  0  0
 23 15  1  0  0  0  0
 24 15  1  0  0  0  0
 25 18  1  0  0  0  0
 28 20  1  0  0  0  0
 29 36  1  0  0  0  0
 29 37  1  0  0  0  0
 29 35  1  0  0  0  0
 30 38  1  6  0  0  0
 30 29  1  0  0  0  0
 31 39  1  0  0  0  0
 31 30  1  0  0  0  0
 32 30  1  0  0  0  0
 32 33  1  0  0  0  0
 34 32  2  0  0  0  0
M  END
$$$$
