DND.pdb
 OpenBabel07022418123D

 42 41  0  0  1  0  0  0  0  0999 V2000
    2.8950   -2.6140    3.6630 N   0  0  0  0  0  0  0  0  0  0  0  0
    1.8050   -2.4980    2.7140 C   0  0  1  0  0  0  0  0  0  0  0  0
    0.5370   -2.0570    3.4180 C   0  0  0  0  0  0  0  0  0  0  0  0
    0.1870   -3.0650    4.4500 C   0  0  0  0  0  0  0  0  0  0  0  0
   -0.8330   -2.9110    5.1650 O   0  0  0  0  0  0  0  0  0  0  0  0
    2.1810   -1.5530    1.6330 C   0  0  0  0  0  0  0  0  0  0  0  0
    3.3060   -1.0010    1.6660 O   0  0  0  0  0  0  0  0  0  0  0  0
    0.9530   -4.2070    4.6710 O   0  0  0  0  0  0  0  0  0  0  0  0
    3.0890   -3.6070    3.9420 H   0  0  0  0  0  0  0  0  0  0  0  0
    3.7930   -2.2270    3.2700 H   0  0  0  0  0  0  0  0  0  0  0  0
    1.6220   -3.5280    2.3210 H   0  0  0  0  0  0  0  0  0  0  0  0
   -0.2600   -1.8780    2.6830 H   0  0  0  0  0  0  0  0  0  0  0  0
    0.8150   -1.1170    3.9680 H   0  0  0  0  0  0  0  0  0  0  0  0
    0.5720   -5.0320    5.1520 H   0  0  0  0  0  0  0  0  0  0  0  0
    1.9280   -0.5640   -4.2920 N   0  0  0  0  0  0  0  0  0  0  0  0
    2.0500   -0.0950   -2.9540 C   0  0  0  0  0  0  0  0  0  0  0  0
    2.5020    1.0510   -2.7840 O   0  0  0  0  0  0  0  0  0  0  0  0
    1.6520   -0.9540   -1.8450 C   0  0  0  0  0  0  0  0  0  0  0  0
    1.7120   -0.2950   -0.5130 C   0  0  2  0  0  0  0  0  0  0  0  0
    1.3380   -1.2300    0.5520 N   0  0  0  0  0  0  0  0  0  0  0  0
    0.7730    0.8690   -0.4320 C   0  0  0  0  0  0  0  0  0  0  0  0
    0.7730    1.8680   -1.1560 O   0  0  0  0  0  0  0  0  0  0  0  0
    1.1790   -1.2090   -4.6010 H   0  0  0  0  0  0  0  0  0  0  0  0
    2.6320   -0.2430   -5.0110 H   0  0  0  0  0  0  0  0  0  0  0  0
    0.5930   -1.2850   -2.0750 H   0  0  0  0  0  0  0  0  0  0  0  0
    2.3140   -1.8640   -1.7930 H   0  0  0  0  0  0  0  0  0  0  0  0
    2.7240    0.0910   -0.3290 H   0  0  0  0  0  0  0  0  0  0  0  0
    0.4030   -1.6730    0.4960 H   0  0  0  0  0  0  0  0  0  0  0  0
   -0.2480    0.8560    0.5800 N   0  0  0  0  0  0  0  0  0  0  0  0
   -1.1950    1.9500    0.7160 C   0  0  1  0  0  0  0  0  0  0  0  0
   -2.5830    1.3510    0.7070 C   0  0  0  0  0  0  0  0  0  0  0  0
   -2.8800    0.6140   -0.5360 C   0  0  0  0  0  0  0  0  0  0  0  0
   -2.0040    0.5450   -1.4280 O   0  0  0  0  0  0  0  0  0  0  0  0
   -0.9590    2.5100    2.0860 C   0  0  0  0  0  0  0  0  0  0  0  0
   -1.6670    3.4830    2.4390 O   0  0  0  0  0  0  0  0  0  0  0  0
   -4.0970   -0.0060   -0.7510 O   0  0  0  0  0  0  0  0  0  0  0  0
   -0.0170    2.0190    2.9670 O   0  0  0  0  0  0  0  0  0  0  0  0
   -0.3350    0.0730    1.2350 H   0  0  0  0  0  0  0  0  0  0  0  0
   -1.0600    2.7200   -0.0450 H   0  0  0  0  0  0  0  0  0  0  0  0
   -3.3570    2.1580    0.8230 H   0  0  0  0  0  0  0  0  0  0  0  0
   -2.7500    0.6630    1.5480 H   0  0  0  0  0  0  0  0  0  0  0  0
   -4.2030   -0.8220   -1.3450 H   0  0  0  0  0  0  0  0  0  0  0  0
  1  9  1  0  0  0  0
  2 11  1  6  0  0  0
  2  3  1  0  0  0  0
  2  1  1  0  0  0  0
  3 13  1  0  0  0  0
  3  4  1  0  0  0  0
  4  8  1  0  0  0  0
  4  5  2  0  0  0  0
  6  7  2  0  0  0  0
  6  2  1  0  0  0  0
  8 14  1  0  0  0  0
 10  1  1  0  0  0  0
 12  3  1  0  0  0  0
 15 16  1  0  0  0  0
 16 17  2  0  0  0  0
 16 18  1  0  0  0  0
 18 26  1  0  0  0  0
 18 19  1  0  0  0  0
 19 21  1  0  0  0  0
 19 27  1  1  0  0  0
 19 20  1  0  0  0  0
 20  6  1  0  0  0  0
 21 29  1  0  0  0  0
 22 21  2  0  0  0  0
 23 15  1  0  0  0  0
 24 15  1  0  0  0  0
 25 18  1  0  0  0  0
 28 20  1  0  0  0  0
 29 30  1  0  0  0  0
 29 38  1  0  0  0  0
 30 39  1  6  0  0  0
 30 34  1  0  0  0  0
 31 30  1  0  0  0  0
 31 40  1  0  0  0  0
 31 41  1  0  0  0  0
 32 31  1  0  0  0  0
 33 32  2  0  0  0  0
 34 35  2  0  0  0  0
 34 37  1  0  0  0  0
 36 32  1  0  0  0  0
 42 36  1  0  0  0  0
M  END
$$$$
