DNE.pdb
 OpenBabel07022418123D

 45 44  0  0  1  0  0  0  0  0999 V2000
    2.8390    0.5110    4.9580 N   0  0  0  0  0  0  0  0  0  0  0  0
    1.6430    0.2580    4.0930 C   0  0  1  0  0  0  0  0  0  0  0  0
    0.6880    1.3500    4.5170 C   0  0  0  0  0  0  0  0  0  0  0  0
   -0.5960    1.3420    3.8340 C   0  0  0  0  0  0  0  0  0  0  0  0
   -0.9540    0.5030    3.0050 O   0  0  0  0  0  0  0  0  0  0  0  0
    2.0590    0.3080    2.6980 C   0  0  0  0  0  0  0  0  0  0  0  0
    3.0320    1.1000    2.4250 O   0  0  0  0  0  0  0  0  0  0  0  0
   -1.5000    2.3770    4.1480 O   0  0  0  0  0  0  0  0  0  0  0  0
    3.6090   -0.0160    4.5250 H   0  0  0  0  0  0  0  0  0  0  0  0
    2.6200    0.2510    5.9410 H   0  0  0  0  0  0  0  0  0  0  0  0
    1.2200   -0.7060    4.3570 H   0  0  0  0  0  0  0  0  0  0  0  0
    0.4700    1.1380    5.6080 H   0  0  0  0  0  0  0  0  0  0  0  0
    1.1820    2.3460    4.5390 H   0  0  0  0  0  0  0  0  0  0  0  0
   -2.1890    2.6640    3.4510 H   0  0  0  0  0  0  0  0  0  0  0  0
    3.9670   -0.2620   -1.8820 N   0  0  0  0  0  0  0  0  0  0  0  0
    3.4320   -1.4700   -1.3600 C   0  0  0  0  0  0  0  0  0  0  0  0
    3.4350   -2.5160   -2.0520 O   0  0  0  0  0  0  0  0  0  0  0  0
    2.8580   -1.5370    0.0070 C   0  0  0  0  0  0  0  0  0  0  0  0
    2.0430   -0.2500    0.2520 C   0  0  2  0  0  0  0  0  0  0  0  0
    1.5290   -0.4080    1.6120 N   0  0  0  0  0  0  0  0  0  0  0  0
    0.9890   -0.2280   -0.7610 C   0  0  0  0  0  0  0  0  0  0  0  0
    1.2600   -0.0640   -1.9990 O   0  0  0  0  0  0  0  0  0  0  0  0
    3.8550   -0.0290   -2.8870 H   0  0  0  0  0  0  0  0  0  0  0  0
    4.4840    0.4070   -1.2510 H   0  0  0  0  0  0  0  0  0  0  0  0
    3.7090   -1.5110    0.7180 H   0  0  0  0  0  0  0  0  0  0  0  0
    2.2380   -2.4300    0.1160 H   0  0  0  0  0  0  0  0  0  0  0  0
    2.7770    0.5500    0.2240 H   0  0  0  0  0  0  0  0  0  0  0  0
    0.7600   -1.0850    1.7670 H   0  0  0  0  0  0  0  0  0  0  0  0
   -0.4120   -0.3820   -0.5030 N   0  0  0  0  0  0  0  0  0  0  0  0
   -1.4000   -0.3500   -1.5640 C   0  0  1  0  0  0  0  0  0  0  0  0
   -1.9140   -1.7830   -1.6730 C   0  0  0  0  0  0  0  0  0  0  0  0
   -2.5400   -2.2600   -0.3840 C   0  0  0  0  0  0  0  0  0  0  0  0
   -3.0150   -3.6520   -0.5400 C   0  0  0  0  0  0  0  0  0  0  0  0
   -2.1810   -4.5790   -0.4660 O   0  0  0  0  0  0  0  0  0  0  0  0
   -2.4640    0.6340   -1.3540 C   0  0  0  0  0  0  0  0  0  0  0  0
   -3.4050    0.8050   -2.1690 O   0  0  0  0  0  0  0  0  0  0  0  0
   -4.3380   -3.9700   -0.7640 O   0  0  0  0  0  0  0  0  0  0  0  0
   -2.4990    1.4580   -0.2130 O   0  0  0  0  0  0  0  0  0  0  0  0
   -0.7150   -0.5200    0.4800 H   0  0  0  0  0  0  0  0  0  0  0  0
   -0.9250   -0.1450   -2.5550 H   0  0  0  0  0  0  0  0  0  0  0  0
   -1.0110   -2.4050   -1.8500 H   0  0  0  0  0  0  0  0  0  0  0  0
   -2.5950   -1.9170   -2.5190 H   0  0  0  0  0  0  0  0  0  0  0  0
   -3.4300   -1.5860   -0.2160 H   0  0  0  0  0  0  0  0  0  0  0  0
   -1.8450   -2.2480    0.4590 H   0  0  0  0  0  0  0  0  0  0  0  0
   -4.6860   -4.9300   -0.7370 H   0  0  0  0  0  0  0  0  0  0  0  0
  1 10  1  0  0  0  0
  2 11  1  1  0  0  0
  2  3  1  0  0  0  0
  2  1  1  0  0  0  0
  3 13  1  0  0  0  0
  3 12  1  0  0  0  0
  4  8  1  0  0  0  0
  4  3  1  0  0  0  0
  5  4  2  0  0  0  0
  6  2  1  0  0  0  0
  7  6  2  0  0  0  0
  9  1  1  0  0  0  0
 14  8  1  0  0  0  0
 15 16  1  0  0  0  0
 15 24  1  0  0  0  0
 16 18  1  0  0  0  0
 17 16  2  0  0  0  0
 18 26  1  0  0  0  0
 18 19  1  0  0  0  0
 18 25  1  0  0  0  0
 19 27  1  6  0  0  0
 19 20  1  0  0  0  0
 20 28  1  0  0  0  0
 20  6  1  0  0  0  0
 21 29  1  0  0  0  0
 21 19  1  0  0  0  0
 22 21  2  0  0  0  0
 23 15  1  0  0  0  0
 29 39  1  0  0  0  0
 30 40  1  6  0  0  0
 30 35  1  0  0  0  0
 30 29  1  0  0  0  0
 31 30  1  0  0  0  0
 31 32  1  0  0  0  0
 32 43  1  0  0  0  0
 32 44  1  0  0  0  0
 33 34  2  0  0  0  0
 33 32  1  0  0  0  0
 35 38  1  0  0  0  0
 36 35  2  0  0  0  0
 37 45  1  0  0  0  0
 37 33  1  0  0  0  0
 41 31  1  0  0  0  0
 42 31  1  0  0  0  0
M  END
$$$$
