DNG.pdb
 OpenBabel07022418123D

 36 35  0  0  1  0  0  0  0  0999 V2000
    3.8790   -1.9580    2.1690 N   0  0  0  0  0  0  0  0  0  0  0  0
    2.7550   -2.2520    1.2930 C   0  0  1  0  0  0  0  0  0  0  0  0
    1.9770   -3.3710    1.9470 C   0  0  0  0  0  0  0  0  0  0  0  0
    2.8840   -4.5290    2.0820 C   0  0  0  0  0  0  0  0  0  0  0  0
    4.0660   -4.4920    1.6780 O   0  0  0  0  0  0  0  0  0  0  0  0
    1.9570   -1.0230    1.1400 C   0  0  0  0  0  0  0  0  0  0  0  0
    2.2680    0.0190    1.7490 O   0  0  0  0  0  0  0  0  0  0  0  0
    2.4250   -5.6900    2.6690 O   0  0  0  0  0  0  0  0  0  0  0  0
    4.2430   -0.9840    2.0510 H   0  0  0  0  0  0  0  0  0  0  0  0
    3.5910   -2.1250    3.1700 H   0  0  0  0  0  0  0  0  0  0  0  0
    3.1550   -2.6510    0.3340 H   0  0  0  0  0  0  0  0  0  0  0  0
    1.5730   -3.0500    2.9380 H   0  0  0  0  0  0  0  0  0  0  0  0
    1.1250   -3.7170    1.2870 H   0  0  0  0  0  0  0  0  0  0  0  0
    2.8210   -6.6160    2.4770 H   0  0  0  0  0  0  0  0  0  0  0  0
    1.9240    2.3140   -1.9670 N   0  0  0  0  0  0  0  0  0  0  0  0
    1.5890    1.0010   -1.5490 C   0  0  0  0  0  0  0  0  0  0  0  0
    2.5100    0.1450   -1.3950 O   0  0  0  0  0  0  0  0  0  0  0  0
    0.1630    0.6700   -1.3020 C   0  0  0  0  0  0  0  0  0  0  0  0
   -0.0070    0.1600    0.0990 C   0  0  2  0  0  0  0  0  0  0  0  0
    0.8110   -1.0210    0.2840 N   0  0  0  0  0  0  0  0  0  0  0  0
   -1.3940   -0.0440    0.5090 C   0  0  0  0  0  0  0  0  0  0  0  0
   -1.6930   -1.1780    0.9720 O   0  0  0  0  0  0  0  0  0  0  0  0
    1.3420    3.1280   -1.7700 H   0  0  0  0  0  0  0  0  0  0  0  0
    2.8230    2.4900   -2.5170 H   0  0  0  0  0  0  0  0  0  0  0  0
   -0.4470    1.5180   -1.5820 H   0  0  0  0  0  0  0  0  0  0  0  0
   -0.0990   -0.1920   -1.9870 H   0  0  0  0  0  0  0  0  0  0  0  0
    0.4320    0.9540    0.7690 H   0  0  0  0  0  0  0  0  0  0  0  0
    0.6000   -1.9230   -0.2030 H   0  0  0  0  0  0  0  0  0  0  0  0
   -2.4180    0.9160    0.4280 N   0  0  0  0  0  0  0  0  0  0  0  0
   -3.7720    0.6310    0.8580 C   0  0  0  0  0  0  0  0  0  0  0  0
   -4.6260    1.8140    0.6590 C   0  0  0  0  0  0  0  0  0  0  0  0
   -4.1870    2.9010    0.1570 O   0  0  0  0  0  0  0  0  0  0  0  0
   -5.9490    1.7710    1.0170 O   0  0  0  0  0  0  0  0  0  0  0  0
   -2.1890    1.8570    0.0470 H   0  0  0  0  0  0  0  0  0  0  0  0
   -3.7860    0.2810    1.8980 H   0  0  0  0  0  0  0  0  0  0  0  0
   -4.1840   -0.2380    0.2610 H   0  0  0  0  0  0  0  0  0  0  0  0
  1 10  1  0  0  0  0
  2 11  1  6  0  0  0
  2  3  1  0  0  0  0
  2  1  1  0  0  0  0
  3  4  1  0  0  0  0
  3 12  1  0  0  0  0
  4  8  1  0  0  0  0
  5  4  2  0  0  0  0
  6  2  1  0  0  0  0
  6  7  2  0  0  0  0
  9  1  1  0  0  0  0
 13  3  1  0  0  0  0
 14  8  1  0  0  0  0
 15 23  1  0  0  0  0
 15 16  1  0  0  0  0
 16 17  2  0  0  0  0
 16 18  1  0  0  0  0
 18 19  1  0  0  0  0
 19 20  1  0  0  0  0
 19 21  1  0  0  0  0
 19 27  1  1  0  0  0
 20  6  1  0  0  0  0
 21 22  2  0  0  0  0
 24 15  1  0  0  0  0
 25 18  1  0  0  0  0
 26 18  1  0  0  0  0
 28 20  1  0  0  0  0
 29 21  1  0  0  0  0
 29 30  1  0  0  0  0
 30 35  1  0  0  0  0
 31 30  1  0  0  0  0
 31 33  1  0  0  0  0
 32 31  2  0  0  0  0
 34 29  1  0  0  0  0
 36 30  1  0  0  0  0
M  END
$$$$
