DNH.pdb
 OpenBabel07022418133D

 46 46  0  0  1  0  0  0  0  0999 V2000
    2.7190   -0.4460    4.0430 N   0  0  0  0  0  0  0  0  0  0  0  0
    1.7280   -1.3690    3.6040 C   0  0  1  0  0  0  0  0  0  0  0  0
    0.4540   -1.1950    4.4390 C   0  0  0  0  0  0  0  0  0  0  0  0
   -0.0740    0.1720    4.3080 C   0  0  0  0  0  0  0  0  0  0  0  0
    0.6800    1.1320    4.6020 O   0  0  0  0  0  0  0  0  0  0  0  0
    1.3880   -1.2180    2.1500 C   0  0  0  0  0  0  0  0  0  0  0  0
    0.5460   -1.9920    1.6260 O   0  0  0  0  0  0  0  0  0  0  0  0
   -1.3580    0.4640    3.8790 O   0  0  0  0  0  0  0  0  0  0  0  0
    3.6710   -0.8690    3.8750 H   0  0  0  0  0  0  0  0  0  0  0  0
    2.6340   -0.2880    5.0740 H   0  0  0  0  0  0  0  0  0  0  0  0
    2.0360   -2.4240    3.7350 H   0  0  0  0  0  0  0  0  0  0  0  0
   -0.2930   -1.9480    4.2250 H   0  0  0  0  0  0  0  0  0  0  0  0
    0.8070   -1.3810    5.4990 H   0  0  0  0  0  0  0  0  0  0  0  0
   -1.4550    1.3530    3.3750 H   0  0  0  0  0  0  0  0  0  0  0  0
    4.3450   -0.5760   -0.1110 N   0  0  0  0  0  0  0  0  0  0  0  0
    3.5340   -1.4670   -0.8540 C   0  0  0  0  0  0  0  0  0  0  0  0
    4.0700   -2.4270   -1.4440 O   0  0  0  0  0  0  0  0  0  0  0  0
    2.0710   -1.2210   -0.8980 C   0  0  0  0  0  0  0  0  0  0  0  0
    1.6630   -0.0530   -0.0600 C   0  0  2  0  0  0  0  0  0  0  0  0
    1.9970   -0.2120    1.3410 N   0  0  0  0  0  0  0  0  0  0  0  0
    0.1710    0.2000   -0.1830 C   0  0  0  0  0  0  0  0  0  0  0  0
   -0.5330    0.2540    0.8520 O   0  0  0  0  0  0  0  0  0  0  0  0
    4.3560    0.4530   -0.3520 H   0  0  0  0  0  0  0  0  0  0  0  0
    4.9640   -0.8540    0.6920 H   0  0  0  0  0  0  0  0  0  0  0  0
    1.7330   -1.0450   -1.9370 H   0  0  0  0  0  0  0  0  0  0  0  0
    1.5930   -2.1730   -0.5780 H   0  0  0  0  0  0  0  0  0  0  0  0
    2.2160    0.8470   -0.4340 H   0  0  0  0  0  0  0  0  0  0  0  0
    2.7080    0.4150    1.8200 H   0  0  0  0  0  0  0  0  0  0  0  0
   -0.4410    0.3760   -1.4310 N   0  0  0  0  0  0  0  0  0  0  0  0
   -1.8230    0.5980   -1.7390 C   0  0  1  0  0  0  0  0  0  0  0  0
   -2.7640    0.4950   -0.5470 C   0  0  0  0  0  0  0  0  0  0  0  0
   -2.7500   -0.8950   -0.0160 C   0  0  0  0  0  0  0  0  0  0  0  0
   -3.4550   -1.3540    1.0740 C   0  0  0  0  0  0  0  0  0  0  0  0
   -3.1890   -2.6600    1.2470 N   0  0  0  0  0  0  0  0  0  0  0  0
   -2.3350   -3.0210    0.2870 C   0  0  0  0  0  0  0  0  0  0  0  0
   -2.0550   -1.9650   -0.4900 N   0  0  0  0  0  0  0  0  0  0  0  0
   -2.0110    1.8800   -2.3890 C   0  0  0  0  0  0  0  0  0  0  0  0
   -3.1450    2.2610   -2.7440 O   0  0  0  0  0  0  0  0  0  0  0  0
   -0.9260    2.7160   -2.6320 O   0  0  0  0  0  0  0  0  0  0  0  0
    0.2500    0.3400   -2.2630 H   0  0  0  0  0  0  0  0  0  0  0  0
   -2.1760   -0.2670   -2.4400 H   0  0  0  0  0  0  0  0  0  0  0  0
   -2.5030    1.2660    0.1760 H   0  0  0  0  0  0  0  0  0  0  0  0
   -3.7990    0.6980   -0.8850 H   0  0  0  0  0  0  0  0  0  0  0  0
   -4.1280   -0.7330    1.6890 H   0  0  0  0  0  0  0  0  0  0  0  0
   -3.6160   -3.2360    2.0290 H   0  0  0  0  0  0  0  0  0  0  0  0
   -1.9590   -4.0520    0.2090 H   0  0  0  0  0  0  0  0  0  0  0  0
  1 10  1  0  0  0  0
  2 11  1  1  0  0  0
  2  1  1  0  0  0  0
  2  3  1  0  0  0  0
  3 13  1  0  0  0  0
  4  3  1  0  0  0  0
  4  5  2  0  0  0  0
  6  2  1  0  0  0  0
  7  6  2  0  0  0  0
  8  4  1  0  0  0  0
  9  1  1  0  0  0  0
 12  3  1  0  0  0  0
 14  8  1  0  0  0  0
 15 24  1  0  0  0  0
 16 15  1  0  0  0  0
 17 16  2  0  0  0  0
 18 16  1  0  0  0  0
 18 26  1  0  0  0  0
 18 19  1  0  0  0  0
 19 27  1  6  0  0  0
 19 20  1  0  0  0  0
 20 28  1  0  0  0  0
 20  6  1  0  0  0  0
 21 19  1  0  0  0  0
 21 22  2  0  0  0  0
 23 15  1  0  0  0  0
 25 18  1  0  0  0  0
 29 21  1  0  0  0  0
 30 41  1  6  0  0  0
 30 29  1  0  0  0  0
 30 31  1  0  0  0  0
 31 32  1  0  0  0  0
 31 42  1  0  0  0  0
 32 33  2  0  0  0  0
 33 34  1  0  0  0  0
 33 44  1  0  0  0  0
 34 45  1  0  0  0  0
 35 34  1  0  0  0  0
 36 32  1  0  0  0  0
 36 35  2  0  0  0  0
 37 30  1  0  0  0  0
 38 37  2  0  0  0  0
 39 37  1  0  0  0  0
 40 29  1  0  0  0  0
 43 31  1  0  0  0  0
 46 35  1  0  0  0  0
M  END
$$$$
