DNI.pdb
 OpenBabel07022418133D

 48 47  0  0  1  0  0  0  0  0999 V2000
    2.2990   -2.5920    4.0290 N   0  0  0  0  0  0  0  0  0  0  0  0
    3.0330   -1.7960    3.0720 C   0  0  1  0  0  0  0  0  0  0  0  0
    4.1360   -2.6910    2.5280 C   0  0  0  0  0  0  0  0  0  0  0  0
    4.9930   -3.1050    3.6630 C   0  0  0  0  0  0  0  0  0  0  0  0
    4.7480   -2.7030    4.8270 O   0  0  0  0  0  0  0  0  0  0  0  0
    2.0900   -1.4020    1.9900 C   0  0  0  0  0  0  0  0  0  0  0  0
    0.9110   -1.8160    2.0890 O   0  0  0  0  0  0  0  0  0  0  0  0
    6.0970   -3.9460    3.5210 O   0  0  0  0  0  0  0  0  0  0  0  0
    2.2730   -3.6030    3.7830 H   0  0  0  0  0  0  0  0  0  0  0  0
    1.3040   -2.2800    4.1010 H   0  0  0  0  0  0  0  0  0  0  0  0
    3.4580   -0.8940    3.5690 H   0  0  0  0  0  0  0  0  0  0  0  0
    4.7680   -2.1140    1.8020 H   0  0  0  0  0  0  0  0  0  0  0  0
    3.6350   -3.5490    2.0430 H   0  0  0  0  0  0  0  0  0  0  0  0
    6.2460   -4.7290    4.1760 H   0  0  0  0  0  0  0  0  0  0  0  0
    0.6800   -1.1670   -3.7110 N   0  0  0  0  0  0  0  0  0  0  0  0
    0.9850   -0.3600   -2.5760 C   0  0  0  0  0  0  0  0  0  0  0  0
    0.5930    0.8490   -2.5780 O   0  0  0  0  0  0  0  0  0  0  0  0
    1.7400   -0.9190   -1.4250 C   0  0  0  0  0  0  0  0  0  0  0  0
    1.6610   -0.1390   -0.1970 C   0  0  2  0  0  0  0  0  0  0  0  0
    2.4790   -0.6060    0.9040 N   0  0  0  0  0  0  0  0  0  0  0  0
    0.3080    0.0860    0.3930 C   0  0  0  0  0  0  0  0  0  0  0  0
    0.2840    0.4910    1.6110 O   0  0  0  0  0  0  0  0  0  0  0  0
   -0.1190   -0.8760   -4.3060 H   0  0  0  0  0  0  0  0  0  0  0  0
    1.2540   -2.0240   -3.9250 H   0  0  0  0  0  0  0  0  0  0  0  0
    1.5380   -2.0080   -1.3140 H   0  0  0  0  0  0  0  0  0  0  0  0
    2.8190   -0.8990   -1.7740 H   0  0  0  0  0  0  0  0  0  0  0  0
    2.0100    0.9330   -0.3980 H   0  0  0  0  0  0  0  0  0  0  0  0
    3.5030   -0.3090    0.8840 H   0  0  0  0  0  0  0  0  0  0  0  0
   -4.0480    1.8720    2.0660 C   0  0  0  0  0  0  0  0  0  0  0  0
   -4.2310    1.6370    0.5700 C   0  0  0  0  0  0  0  0  0  0  0  0
   -2.9330    1.3270   -0.1270 C   0  0  2  0  0  0  0  0  0  0  0  0
   -3.2390    1.1120   -1.5880 C   0  0  0  0  0  0  0  0  0  0  0  0
   -2.2050    0.1840    0.5090 C   0  0  2  0  0  0  0  0  0  0  0  0
   -0.9420   -0.0880   -0.1900 N   0  0  0  0  0  0  0  0  0  0  0  0
   -2.9620   -1.0870    0.5360 C   0  0  0  0  0  0  0  0  0  0  0  0
   -2.4890   -2.1460   -0.0000 O   0  0  0  0  0  0  0  0  0  0  0  0
   -4.2080   -1.2530    1.1210 O   0  0  0  0  0  0  0  0  0  0  0  0
   -3.3930    2.7360    2.2630 H   0  0  0  0  0  0  0  0  0  0  0  0
   -3.6870    0.9840    2.6030 H   0  0  0  0  0  0  0  0  0  0  0  0
   -5.0820    2.0610    2.4810 H   0  0  0  0  0  0  0  0  0  0  0  0
   -4.7270    2.5290    0.1140 H   0  0  0  0  0  0  0  0  0  0  0  0
   -4.9670    0.8190    0.4590 H   0  0  0  0  0  0  0  0  0  0  0  0
   -2.2980    2.2460   -0.0520 H   0  0  0  0  0  0  0  0  0  0  0  0
   -3.4200    2.1050   -2.0730 H   0  0  0  0  0  0  0  0  0  0  0  0
   -4.1750    0.5350   -1.7510 H   0  0  0  0  0  0  0  0  0  0  0  0
   -2.4440    0.6100   -2.1390 H   0  0  0  0  0  0  0  0  0  0  0  0
   -2.0170    0.4780    1.5620 H   0  0  0  0  0  0  0  0  0  0  0  0
   -1.0120   -0.4560   -1.1530 H   0  0  0  0  0  0  0  0  0  0  0  0
  1 10  1  0  0  0  0
  2 11  1  1  0  0  0
  2  1  1  0  0  0  0
  3  2  1  0  0  0  0
  3  4  1  0  0  0  0
  4  5  2  0  0  0  0
  6  7  2  0  0  0  0
  6  2  1  0  0  0  0
  8  4  1  0  0  0  0
  8 14  1  0  0  0  0
  9  1  1  0  0  0  0
 12  3  1  0  0  0  0
 13  3  1  0  0  0  0
 15 16  1  0  0  0  0
 16 18  1  0  0  0  0
 17 16  2  0  0  0  0
 18 25  1  0  0  0  0
 18 19  1  0  0  0  0
 19 27  1  6  0  0  0
 19 21  1  0  0  0  0
 19 20  1  0  0  0  0
 20  6  1  0  0  0  0
 21 22  2  0  0  0  0
 23 15  1  0  0  0  0
 24 15  1  0  0  0  0
 26 18  1  0  0  0  0
 28 20  1  0  0  0  0
 29 38  1  0  0  0  0
 29 40  1  0  0  0  0
 29 39  1  0  0  0  0
 30 29  1  0  0  0  0
 31 43  1  1  0  0  0
 31 33  1  0  0  0  0
 31 30  1  0  0  0  0
 32 31  1  0  0  0  0
 33 35  1  0  0  0  0
 33 47  1  1  0  0  0
 34 21  1  0  0  0  0
 34 33  1  0  0  0  0
 35 37  1  0  0  0  0
 36 35  2  0  0  0  0
 41 30  1  0  0  0  0
 42 30  1  0  0  0  0
 44 32  1  0  0  0  0
 45 32  1  0  0  0  0
 46 32  1  0  0  0  0
 48 34  1  0  0  0  0
M  END
$$$$
