DNL.pdb
 OpenBabel07022418133D

 48 47  0  0  1  0  0  0  0  0999 V2000
    2.5980   -4.0640    2.7110 N   0  0  0  0  0  0  0  0  0  0  0  0
    2.6910   -2.6280    2.8210 C   0  0  1  0  0  0  0  0  0  0  0  0
    4.1570   -2.2390    2.8250 C   0  0  0  0  0  0  0  0  0  0  0  0
    4.7910   -2.9030    3.9920 C   0  0  0  0  0  0  0  0  0  0  0  0
    4.7320   -2.4120    5.1460 O   0  0  0  0  0  0  0  0  0  0  0  0
    1.9770   -2.0150    1.6700 C   0  0  0  0  0  0  0  0  0  0  0  0
    1.4700   -2.7720    0.8060 O   0  0  0  0  0  0  0  0  0  0  0  0
    5.4870   -4.1110    3.8680 O   0  0  0  0  0  0  0  0  0  0  0  0
    1.7540   -4.4520    3.1730 H   0  0  0  0  0  0  0  0  0  0  0  0
    2.7290   -4.4140    1.7450 H   0  0  0  0  0  0  0  0  0  0  0  0
    2.2610   -2.3540    3.8040 H   0  0  0  0  0  0  0  0  0  0  0  0
    4.2850   -1.1500    2.9440 H   0  0  0  0  0  0  0  0  0  0  0  0
    4.5930   -2.6540    1.8960 H   0  0  0  0  0  0  0  0  0  0  0  0
    5.3500   -4.8600    4.5420 H   0  0  0  0  0  0  0  0  0  0  0  0
    1.2610    1.6760   -2.3910 N   0  0  0  0  0  0  0  0  0  0  0  0
    1.2570    0.2770   -2.1140 C   0  0  0  0  0  0  0  0  0  0  0  0
    0.6790   -0.4540   -2.9930 O   0  0  0  0  0  0  0  0  0  0  0  0
    1.8710   -0.2930   -0.9070 C   0  0  0  0  0  0  0  0  0  0  0  0
    1.1330   -0.0140    0.3480 C   0  0  2  0  0  0  0  0  0  0  0  0
    1.8400   -0.6250    1.4950 N   0  0  0  0  0  0  0  0  0  0  0  0
   -0.2590   -0.4820    0.4290 C   0  0  0  0  0  0  0  0  0  0  0  0
   -0.5980   -1.2810    1.3390 O   0  0  0  0  0  0  0  0  0  0  0  0
    2.0280    2.2570   -1.9720 H   0  0  0  0  0  0  0  0  0  0  0  0
    0.5310    2.0970   -2.9860 H   0  0  0  0  0  0  0  0  0  0  0  0
    2.1460   -1.3630   -1.0390 H   0  0  0  0  0  0  0  0  0  0  0  0
    2.8790    0.2170   -0.7940 H   0  0  0  0  0  0  0  0  0  0  0  0
    1.1510    1.0940    0.5190 H   0  0  0  0  0  0  0  0  0  0  0  0
    2.2450    0.0190    2.1890 H   0  0  0  0  0  0  0  0  0  0  0  0
   -2.4970    2.4120    0.4970 C   0  0  0  0  0  0  0  0  0  0  0  0
   -3.7480    1.5380    0.5250 C   0  0  0  0  0  0  0  0  0  0  0  0
   -3.9560    1.1450    1.9520 C   0  0  0  0  0  0  0  0  0  0  0  0
   -3.7250    0.4290   -0.4420 C   0  0  0  0  0  0  0  0  0  0  0  0
   -2.6590   -0.5870   -0.3400 C   0  0  2  0  0  0  0  0  0  0  0  0
   -1.3060   -0.0970   -0.4640 N   0  0  0  0  0  0  0  0  0  0  0  0
   -2.8410   -1.5880   -1.4590 C   0  0  0  0  0  0  0  0  0  0  0  0
   -1.9380   -1.8750   -2.2760 O   0  0  0  0  0  0  0  0  0  0  0  0
   -4.0560   -2.2470   -1.6270 O   0  0  0  0  0  0  0  0  0  0  0  0
   -2.7070    3.4150    0.9350 H   0  0  0  0  0  0  0  0  0  0  0  0
   -1.6500    1.9720    1.0410 H   0  0  0  0  0  0  0  0  0  0  0  0
   -2.2040    2.5470   -0.5660 H   0  0  0  0  0  0  0  0  0  0  0  0
   -4.5810    2.2530    0.2580 H   0  0  0  0  0  0  0  0  0  0  0  0
   -4.6130    0.2400    2.0690 H   0  0  0  0  0  0  0  0  0  0  0  0
   -4.5080    1.9650    2.4580 H   0  0  0  0  0  0  0  0  0  0  0  0
   -3.0020    1.0560    2.5210 H   0  0  0  0  0  0  0  0  0  0  0  0
   -4.7310   -0.0840   -0.4330 H   0  0  0  0  0  0  0  0  0  0  0  0
   -3.6840    0.8810   -1.4730 H   0  0  0  0  0  0  0  0  0  0  0  0
   -2.8090   -1.2000    0.5650 H   0  0  0  0  0  0  0  0  0  0  0  0
   -1.0270    0.5700   -1.2080 H   0  0  0  0  0  0  0  0  0  0  0  0
  1  2  1  0  0  0  0
  1  9  1  0  0  0  0
  2  3  1  0  0  0  0
  2 11  1  1  0  0  0
  3 12  1  0  0  0  0
  3  4  1  0  0  0  0
  4  5  2  0  0  0  0
  6  2  1  0  0  0  0
  7  6  2  0  0  0  0
  8  4  1  0  0  0  0
  8 14  1  0  0  0  0
 10  1  1  0  0  0  0
 13  3  1  0  0  0  0
 15 16  1  0  0  0  0
 15 23  1  0  0  0  0
 16 18  1  0  0  0  0
 17 16  2  0  0  0  0
 18 26  1  0  0  0  0
 18 19  1  0  0  0  0
 19 21  1  0  0  0  0
 19 27  1  1  0  0  0
 19 20  1  0  0  0  0
 20  6  1  0  0  0  0
 20 28  1  0  0  0  0
 21 22  2  0  0  0  0
 24 15  1  0  0  0  0
 25 18  1  0  0  0  0
 29 30  1  0  0  0  0
 29 38  1  0  0  0  0
 29 39  1  0  0  0  0
 30 31  1  0  0  0  0
 31 42  1  0  0  0  0
 31 43  1  0  0  0  0
 31 44  1  0  0  0  0
 32 45  1  0  0  0  0
 32 33  1  0  0  0  0
 32 30  1  0  0  0  0
 33 47  1  1  0  0  0
 34 33  1  0  0  0  0
 34 21  1  0  0  0  0
 35 33  1  0  0  0  0
 36 35  2  0  0  0  0
 37 35  1  0  0  0  0
 40 29  1  0  0  0  0
 41 30  1  0  0  0  0
 46 32  1  0  0  0  0
 48 34  1  0  0  0  0
M  END
$$$$
