DNM.pdb
 OpenBabel07022418133D

 46 45  0  0  1  0  0  0  0  0999 V2000
    3.8690   -3.3860    2.3830 N   0  0  0  0  0  0  0  0  0  0  0  0
    2.9340   -3.0180    1.3650 C   0  0  1  0  0  0  0  0  0  0  0  0
    1.6170   -3.6680    1.6900 C   0  0  0  0  0  0  0  0  0  0  0  0
    1.0770   -3.2500    3.0000 C   0  0  0  0  0  0  0  0  0  0  0  0
    1.7100   -2.4380    3.6980 O   0  0  0  0  0  0  0  0  0  0  0  0
    2.8700   -1.5890    1.1000 C   0  0  0  0  0  0  0  0  0  0  0  0
    3.5910   -0.8050    1.7630 O   0  0  0  0  0  0  0  0  0  0  0  0
   -0.1150   -3.7570    3.4360 O   0  0  0  0  0  0  0  0  0  0  0  0
    4.8350   -3.3560    1.9590 H   0  0  0  0  0  0  0  0  0  0  0  0
    3.6810   -4.4080    2.6150 H   0  0  0  0  0  0  0  0  0  0  0  0
    3.2920   -3.5120    0.4130 H   0  0  0  0  0  0  0  0  0  0  0  0
    1.8240   -4.7710    1.7790 H   0  0  0  0  0  0  0  0  0  0  0  0
    0.8830   -3.5890    0.8650 H   0  0  0  0  0  0  0  0  0  0  0  0
   -0.3200   -3.7940    4.4190 H   0  0  0  0  0  0  0  0  0  0  0  0
    2.1820    2.8770   -2.9980 N   0  0  0  0  0  0  0  0  0  0  0  0
    2.1820    2.2640   -1.7150 C   0  0  0  0  0  0  0  0  0  0  0  0
    2.1920    3.0960   -0.7430 O   0  0  0  0  0  0  0  0  0  0  0  0
    2.1730    0.7950   -1.5430 C   0  0  0  0  0  0  0  0  0  0  0  0
    1.9940    0.4400   -0.1170 C   0  0  2  0  0  0  0  0  0  0  0  0
    2.0330   -0.9980    0.1240 N   0  0  0  0  0  0  0  0  0  0  0  0
    0.5780    0.8110    0.2520 C   0  0  0  0  0  0  0  0  0  0  0  0
    0.1440    1.9920    0.1400 O   0  0  0  0  0  0  0  0  0  0  0  0
    2.6690    3.7680   -3.1630 H   0  0  0  0  0  0  0  0  0  0  0  0
    1.6800    2.4090   -3.7660 H   0  0  0  0  0  0  0  0  0  0  0  0
    3.1070    0.4210   -2.0020 H   0  0  0  0  0  0  0  0  0  0  0  0
    1.2760    0.4280   -2.1020 H   0  0  0  0  0  0  0  0  0  0  0  0
    2.7060    1.0080    0.5050 H   0  0  0  0  0  0  0  0  0  0  0  0
    1.4060   -1.5800   -0.4750 H   0  0  0  0  0  0  0  0  0  0  0  0
   -3.9580    2.5340    1.1790 C   0  0  0  0  0  0  0  0  0  0  0  0
   -4.6280    1.1870    0.2470 S   0  0  0  0  0  0  0  0  0  0  0  0
   -4.0840   -0.4610    0.6870 C   0  0  0  0  0  0  0  0  0  0  0  0
   -2.6520   -0.7430    0.3810 C   0  0  0  0  0  0  0  0  0  0  0  0
   -1.7170    0.1350    1.1190 C   0  0  2  0  0  0  0  0  0  0  0  0
   -0.3170   -0.1660    0.7430 N   0  0  0  0  0  0  0  0  0  0  0  0
   -1.7830   -0.1600    2.5630 C   0  0  0  0  0  0  0  0  0  0  0  0
   -0.7630   -0.5850    3.1540 O   0  0  0  0  0  0  0  0  0  0  0  0
   -2.9090    0.0030    3.3240 O   0  0  0  0  0  0  0  0  0  0  0  0
   -4.7940    3.2950    1.3320 H   0  0  0  0  0  0  0  0  0  0  0  0
   -3.5890    2.3310    2.1820 H   0  0  0  0  0  0  0  0  0  0  0  0
   -3.2300    3.1300    0.5480 H   0  0  0  0  0  0  0  0  0  0  0  0
   -4.7310   -1.1990    0.1120 H   0  0  0  0  0  0  0  0  0  0  0  0
   -4.3460   -0.6370    1.7590 H   0  0  0  0  0  0  0  0  0  0  0  0
   -2.5510   -0.6630   -0.7320 H   0  0  0  0  0  0  0  0  0  0  0  0
   -2.4390   -1.8050    0.7040 H   0  0  0  0  0  0  0  0  0  0  0  0
   -1.9250    1.2040    0.9310 H   0  0  0  0  0  0  0  0  0  0  0  0
   -0.0280   -1.1460    0.8640 H   0  0  0  0  0  0  0  0  0  0  0  0
  1 10  1  0  0  0  0
  2 11  1  6  0  0  0
  2  3  1  0  0  0  0
  2  1  1  0  0  0  0
  3 12  1  0  0  0  0
  3  4  1  0  0  0  0
  4  8  1  0  0  0  0
  4  5  2  0  0  0  0
  6  2  1  0  0  0  0
  6  7  2  0  0  0  0
  8 14  1  0  0  0  0
  9  1  1  0  0  0  0
 13  3  1  0  0  0  0
 15 16  1  0  0  0  0
 16 18  1  0  0  0  0
 16 17  2  0  0  0  0
 18 19  1  0  0  0  0
 19 20  1  0  0  0  0
 19 21  1  0  0  0  0
 19 27  1  1  0  0  0
 20  6  1  0  0  0  0
 21 34  1  0  0  0  0
 22 21  2  0  0  0  0
 23 15  1  0  0  0  0
 24 15  1  0  0  0  0
 25 18  1  0  0  0  0
 26 18  1  0  0  0  0
 28 20  1  0  0  0  0
 29 38  1  0  0  0  0
 29 39  1  0  0  0  0
 30 31  1  0  0  0  0
 30 29  1  0  0  0  0
 31 42  1  0  0  0  0
 32 31  1  0  0  0  0
 32 44  1  0  0  0  0
 32 33  1  0  0  0  0
 33 45  1  6  0  0  0
 33 35  1  0  0  0  0
 34 46  1  0  0  0  0
 34 33  1  0  0  0  0
 35 36  2  0  0  0  0
 35 37  1  0  0  0  0
 40 29  1  0  0  0  0
 41 31  1  0  0  0  0
 43 32  1  0  0  0  0
M  END
$$$$
