DNP.pdb
 OpenBabel07022418133D

 43 43  0  0  1  0  0  0  0  0999 V2000
   -2.0340   -0.8570    4.3930 N   0  0  0  0  0  0  0  0  0  0  0  0
   -1.5050   -1.4140    3.1640 C   0  0  1  0  0  0  0  0  0  0  0  0
   -2.4830   -1.3890    2.0420 C   0  0  0  0  0  0  0  0  0  0  0  0
   -2.9540   -0.0380    1.6900 C   0  0  0  0  0  0  0  0  0  0  0  0
   -2.5520    0.9830    2.2950 O   0  0  0  0  0  0  0  0  0  0  0  0
   -0.1600   -0.9090    2.8520 C   0  0  0  0  0  0  0  0  0  0  0  0
    0.3170   -0.0220    3.6430 O   0  0  0  0  0  0  0  0  0  0  0  0
   -3.8680    0.1650    0.6660 O   0  0  0  0  0  0  0  0  0  0  0  0
   -1.7880    0.1280    4.5560 H   0  0  0  0  0  0  0  0  0  0  0  0
   -3.0030   -1.1390    4.5530 H   0  0  0  0  0  0  0  0  0  0  0  0
   -1.3530   -2.5120    3.4080 H   0  0  0  0  0  0  0  0  0  0  0  0
   -3.3690   -1.9900    2.3330 H   0  0  0  0  0  0  0  0  0  0  0  0
   -2.0240   -1.9220    1.1840 H   0  0  0  0  0  0  0  0  0  0  0  0
   -4.4610    0.9810    0.5800 H   0  0  0  0  0  0  0  0  0  0  0  0
    4.9270   -0.5950    2.4220 N   0  0  0  0  0  0  0  0  0  0  0  0
    4.3120   -1.4040    1.4350 C   0  0  0  0  0  0  0  0  0  0  0  0
    4.9910   -1.6430    0.3890 O   0  0  0  0  0  0  0  0  0  0  0  0
    2.9580   -1.9140    1.6640 C   0  0  0  0  0  0  0  0  0  0  0  0
    1.8860   -0.8390    1.5040 C   0  0  2  0  0  0  0  0  0  0  0  0
    0.5890   -1.3700    1.7370 N   0  0  0  0  0  0  0  0  0  0  0  0
    2.1300   -0.1090    0.2730 C   0  0  0  0  0  0  0  0  0  0  0  0
    3.3750    0.2860    0.1930 O   0  0  0  0  0  0  0  0  0  0  0  0
    5.3480   -1.1000    3.2480 H   0  0  0  0  0  0  0  0  0  0  0  0
    4.9890    0.4380    2.3890 H   0  0  0  0  0  0  0  0  0  0  0  0
    2.7160   -2.6610    0.8480 H   0  0  0  0  0  0  0  0  0  0  0  0
    2.8570   -2.4280    2.6560 H   0  0  0  0  0  0  0  0  0  0  0  0
    2.1220   -0.1150    2.3510 H   0  0  0  0  0  0  0  0  0  0  0  0
    0.1190   -2.1050    1.1550 H   0  0  0  0  0  0  0  0  0  0  0  0
    1.2690    0.2130   -0.7820 N   0  0  0  0  0  0  0  0  0  0  0  0
    1.6630    0.9070   -1.9790 C   0  0  0  0  0  0  0  0  0  0  0  0
    0.5000    1.8390   -2.2070 C   0  0  0  0  0  0  0  0  0  0  0  0
   -0.6350    1.3520   -1.3400 C   0  0  0  0  0  0  0  0  0  0  0  0
   -0.1170   -0.0190   -0.9330 C   0  0  1  0  0  0  0  0  0  0  0  0
   -0.5010   -1.0720   -1.8850 C   0  0  0  0  0  0  0  0  0  0  0  0
   -1.7300   -1.2950   -2.0250 O   0  0  0  0  0  0  0  0  0  0  0  0
    0.3830   -1.8290   -2.6300 O   0  0  0  0  0  0  0  0  0  0  0  0
    1.8290    0.2240   -2.8360 H   0  0  0  0  0  0  0  0  0  0  0  0
    2.5800    1.5080   -1.7750 H   0  0  0  0  0  0  0  0  0  0  0  0
    0.7480    2.8990   -2.0010 H   0  0  0  0  0  0  0  0  0  0  0  0
    0.1790    1.7840   -3.2850 H   0  0  0  0  0  0  0  0  0  0  0  0
   -0.7790    2.0070   -0.4480 H   0  0  0  0  0  0  0  0  0  0  0  0
   -1.5960    1.2760   -1.8640 H   0  0  0  0  0  0  0  0  0  0  0  0
   -0.5800   -0.1820    0.0790 H   0  0  0  0  0  0  0  0  0  0  0  0
  1 10  1  0  0  0  0
  1  9  1  0  0  0  0
  2 11  1  1  0  0  0
  2  1  1  0  0  0  0
  3 12  1  0  0  0  0
  3  2  1  0  0  0  0
  4  3  1  0  0  0  0
  4  5  2  0  0  0  0
  6  2  1  0  0  0  0
  6  7  2  0  0  0  0
  8  4  1  0  0  0  0
 13  3  1  0  0  0  0
 14  8  1  0  0  0  0
 15 23  1  0  0  0  0
 16 18  1  0  0  0  0
 16 15  1  0  0  0  0
 17 16  2  0  0  0  0
 18 26  1  0  0  0  0
 19 18  1  0  0  0  0
 19 20  1  0  0  0  0
 19 27  1  1  0  0  0
 20  6  1  0  0  0  0
 21 19  1  0  0  0  0
 22 21  2  0  0  0  0
 24 15  1  0  0  0  0
 25 18  1  0  0  0  0
 28 20  1  0  0  0  0
 29 21  1  0  0  0  0
 30 38  1  0  0  0  0
 30 29  1  0  0  0  0
 31 39  1  0  0  0  0
 31 30  1  0  0  0  0
 31 32  1  0  0  0  0
 32 33  1  0  0  0  0
 32 41  1  0  0  0  0
 33 29  1  0  0  0  0
 33 43  1  1  0  0  0
 34 33  1  0  0  0  0
 35 34  1  0  0  0  0
 36 34  2  0  0  0  0
 37 30  1  0  0  0  0
 40 31  1  0  0  0  0
 42 32  1  0  0  0  0
M  END
$$$$
