DNR.pdb
 OpenBabel07022418123D

 52 51  0  0  1  0  0  0  0  0999 V2000
    3.4540    3.5480    2.6030 N   0  0  0  0  0  0  0  0  0  0  0  0
    2.5970    2.4480    2.9910 C   0  0  1  0  0  0  0  0  0  0  0  0
    1.2330    3.0210    3.2900 C   0  0  0  0  0  0  0  0  0  0  0  0
    1.3190    4.0130    4.3970 C   0  0  0  0  0  0  0  0  0  0  0  0
    2.4120    4.2740    4.9670 O   0  0  0  0  0  0  0  0  0  0  0  0
    2.5450    1.3910    1.9560 C   0  0  0  0  0  0  0  0  0  0  0  0
    3.2220    1.6000    0.9060 O   0  0  0  0  0  0  0  0  0  0  0  0
    0.2060    4.7000    4.8580 O   0  0  0  0  0  0  0  0  0  0  0  0
    4.0820    3.7660    3.4020 H   0  0  0  0  0  0  0  0  0  0  0  0
    4.0760    3.3030    1.7970 H   0  0  0  0  0  0  0  0  0  0  0  0
    3.0080    1.9960    3.9040 H   0  0  0  0  0  0  0  0  0  0  0  0
    0.8080    3.5640    2.4210 H   0  0  0  0  0  0  0  0  0  0  0  0
    0.5350    2.2250    3.6110 H   0  0  0  0  0  0  0  0  0  0  0  0
    0.2790    5.3400    5.6540 H   0  0  0  0  0  0  0  0  0  0  0  0
    4.9140   -2.0540    0.6810 N   0  0  0  0  0  0  0  0  0  0  0  0
    3.9100   -1.7430    1.6420 C   0  0  0  0  0  0  0  0  0  0  0  0
    4.3040   -1.1660    2.6920 O   0  0  0  0  0  0  0  0  0  0  0  0
    2.4970   -2.0880    1.3920 C   0  0  0  0  0  0  0  0  0  0  0  0
    1.7840   -0.8190    1.0080 C   0  0  2  0  0  0  0  0  0  0  0  0
    1.8270    0.1960    2.0230 N   0  0  0  0  0  0  0  0  0  0  0  0
    0.3970   -1.0830    0.5270 C   0  0  0  0  0  0  0  0  0  0  0  0
   -0.6000   -0.4800    1.0060 O   0  0  0  0  0  0  0  0  0  0  0  0
    5.7820   -1.4770    0.5690 H   0  0  0  0  0  0  0  0  0  0  0  0
    4.8200   -2.8690    0.0550 H   0  0  0  0  0  0  0  0  0  0  0  0
    2.4630   -2.7530    0.5060 H   0  0  0  0  0  0  0  0  0  0  0  0
    2.0230   -2.6430    2.2170 H   0  0  0  0  0  0  0  0  0  0  0  0
    2.3530   -0.4230    0.1400 H   0  0  0  0  0  0  0  0  0  0  0  0
    1.2660    0.0140    2.8860 H   0  0  0  0  0  0  0  0  0  0  0  0
   -4.7830   -2.5580    0.7680 N   0  0  0  0  0  0  0  0  0  0  0  0
   -4.8590   -2.3040   -0.6150 C   0  0  0  0  0  0  0  0  0  0  0  0
   -5.6110   -3.0560   -1.3680 N   0  0  0  0  0  0  0  0  0  0  0  0
   -4.1460   -1.2580   -1.2480 N   0  0  0  0  0  0  0  0  0  0  0  0
   -3.7470   -1.2160   -2.6050 C   0  0  0  0  0  0  0  0  0  0  0  0
   -2.6700   -2.1280   -3.0770 C   0  0  0  0  0  0  0  0  0  0  0  0
   -1.3470   -1.9800   -2.4310 C   0  0  0  0  0  0  0  0  0  0  0  0
   -1.2330   -2.3110   -0.9880 C   0  0  2  0  0  0  0  0  0  0  0  0
    0.1280   -2.0300   -0.4980 N   0  0  0  0  0  0  0  0  0  0  0  0
   -1.4910   -3.7740   -0.7370 C   0  0  0  0  0  0  0  0  0  0  0  0
   -0.6320   -4.4940   -0.1260 O   0  0  0  0  0  0  0  0  0  0  0  0
   -2.6330   -4.3960   -1.1450 O   0  0  0  0  0  0  0  0  0  0  0  0
   -4.5430   -1.8370    1.4800 H   0  0  0  0  0  0  0  0  0  0  0  0
   -4.9760   -3.5200    1.1160 H   0  0  0  0  0  0  0  0  0  0  0  0
   -6.1530   -3.8370   -0.9580 H   0  0  0  0  0  0  0  0  0  0  0  0
   -3.9130   -0.4400   -0.5920 H   0  0  0  0  0  0  0  0  0  0  0  0
   -3.5000   -0.1440   -2.8740 H   0  0  0  0  0  0  0  0  0  0  0  0
   -4.6550   -1.4320   -3.2470 H   0  0  0  0  0  0  0  0  0  0  0  0
   -2.5180   -1.8750   -4.1750 H   0  0  0  0  0  0  0  0  0  0  0  0
   -2.9710   -3.1970   -3.0870 H   0  0  0  0  0  0  0  0  0  0  0  0
   -0.6070   -2.5890   -3.0090 H   0  0  0  0  0  0  0  0  0  0  0  0
   -1.0740   -0.8810   -2.5160 H   0  0  0  0  0  0  0  0  0  0  0  0
   -1.9260   -1.7370   -0.3900 H   0  0  0  0  0  0  0  0  0  0  0  0
    0.9250   -2.5460   -0.9210 H   0  0  0  0  0  0  0  0  0  0  0  0
  1  2  1  0  0  0  0
  1  9  1  0  0  0  0
  2  3  1  0  0  0  0
  2 11  1  1  0  0  0
  3 13  1  0  0  0  0
  3  4  1  0  0  0  0
  4  8  1  0  0  0  0
  4  5  2  0  0  0  0
  6 20  1  0  0  0  0
  6  2  1  0  0  0  0
  7  6  2  0  0  0  0
  8 14  1  0  0  0  0
 10  1  1  0  0  0  0
 12  3  1  0  0  0  0
 15 16  1  0  0  0  0
 16 17  2  0  0  0  0
 18 16  1  0  0  0  0
 18 26  1  0  0  0  0
 19 27  1  6  0  0  0
 19 18  1  0  0  0  0
 19 20  1  0  0  0  0
 20 28  1  0  0  0  0
 21 22  2  0  0  0  0
 21 19  1  0  0  0  0
 23 15  1  0  0  0  0
 24 15  1  0  0  0  0
 25 18  1  0  0  0  0
 29 42  1  0  0  0  0
 29 41  1  0  0  0  0
 30 29  1  0  0  0  0
 31 43  1  0  0  0  0
 31 30  2  0  0  0  0
 32 30  1  0  0  0  0
 32 44  1  0  0  0  0
 33 32  1  0  0  0  0
 34 33  1  0  0  0  0
 34 35  1  0  0  0  0
 35 36  1  0  0  0  0
 36 38  1  0  0  0  0
 36 37  1  0  0  0  0
 36 51  1  1  0  0  0
 37 21  1  0  0  0  0
 38 39  1  0  0  0  0
 40 38  2  0  0  0  0
 45 33  1  0  0  0  0
 46 33  1  0  0  0  0
 47 34  1  0  0  0  0
 48 34  1  0  0  0  0
 49 35  1  0  0  0  0
 50 35  1  0  0  0  0
 52 37  1  0  0  0  0
M  END
$$$$
