DNS.pdb
 OpenBabel07022418133D

 40 39  0  0  1  0  0  0  0  0999 V2000
    4.5060   -2.0880   -0.3280 N   0  0  0  0  0  0  0  0  0  0  0  0
    3.2230   -2.0260    0.4620 C   0  0  1  0  0  0  0  0  0  0  0  0
    3.7010   -1.6270    1.8170 C   0  0  0  0  0  0  0  0  0  0  0  0
    2.6700   -1.5160    2.8310 C   0  0  0  0  0  0  0  0  0  0  0  0
    1.4910   -1.8290    2.6160 O   0  0  0  0  0  0  0  0  0  0  0  0
    2.3600   -1.0430   -0.2220 C   0  0  0  0  0  0  0  0  0  0  0  0
    2.9670   -0.1070   -0.8480 O   0  0  0  0  0  0  0  0  0  0  0  0
    2.9410   -1.0450    4.1280 O   0  0  0  0  0  0  0  0  0  0  0  0
    5.0500   -2.9100   -0.0410 H   0  0  0  0  0  0  0  0  0  0  0  0
    4.2470   -2.0890   -1.3410 H   0  0  0  0  0  0  0  0  0  0  0  0
    2.7540   -3.0110    0.4250 H   0  0  0  0  0  0  0  0  0  0  0  0
    4.3610   -0.7140    1.7620 H   0  0  0  0  0  0  0  0  0  0  0  0
    4.4250   -2.4210    2.1820 H   0  0  0  0  0  0  0  0  0  0  0  0
    2.1840   -0.5270    4.5920 H   0  0  0  0  0  0  0  0  0  0  0  0
   -1.6820   -2.0570   -1.0050 N   0  0  0  0  0  0  0  0  0  0  0  0
   -1.2690   -1.4950   -2.2420 C   0  0  0  0  0  0  0  0  0  0  0  0
   -1.7900   -1.9620   -3.2840 O   0  0  0  0  0  0  0  0  0  0  0  0
   -0.2940   -0.4310   -2.3240 C   0  0  0  0  0  0  0  0  0  0  0  0
    0.2790    0.0250   -0.9940 C   0  0  2  0  0  0  0  0  0  0  0  0
    0.9530   -1.0070   -0.2790 N   0  0  0  0  0  0  0  0  0  0  0  0
   -0.7190    0.8000   -0.2160 C   0  0  0  0  0  0  0  0  0  0  0  0
   -1.3500    1.7770   -0.7630 O   0  0  0  0  0  0  0  0  0  0  0  0
   -1.3660   -3.0130   -0.7560 H   0  0  0  0  0  0  0  0  0  0  0  0
   -2.2920   -1.5610   -0.3190 H   0  0  0  0  0  0  0  0  0  0  0  0
    0.5330   -0.7600   -3.0050 H   0  0  0  0  0  0  0  0  0  0  0  0
   -0.7070    0.4850   -2.8050 H   0  0  0  0  0  0  0  0  0  0  0  0
    1.0460    0.7580   -1.3240 H   0  0  0  0  0  0  0  0  0  0  0  0
    0.4420   -1.7900    0.2200 H   0  0  0  0  0  0  0  0  0  0  0  0
   -2.8680   -0.6040    3.1140 O   0  0  0  0  0  0  0  0  0  0  0  0
   -3.1710    0.4480    2.2910 C   0  0  0  0  0  0  0  0  0  0  0  0
   -1.9650    1.2440    1.8570 C   0  0  2  0  0  0  0  0  0  0  0  0
   -1.0010    0.4850    1.1370 N   0  0  0  0  0  0  0  0  0  0  0  0
   -1.4310    1.9020    3.0650 C   0  0  0  0  0  0  0  0  0  0  0  0
   -2.1900    2.5890    3.7740 O   0  0  0  0  0  0  0  0  0  0  0  0
   -0.1110    1.7790    3.4360 O   0  0  0  0  0  0  0  0  0  0  0  0
   -1.9820   -0.4460    3.5320 H   0  0  0  0  0  0  0  0  0  0  0  0
   -3.9160    1.0910    2.8020 H   0  0  0  0  0  0  0  0  0  0  0  0
   -3.7030    0.0240    1.3940 H   0  0  0  0  0  0  0  0  0  0  0  0
   -2.3600    2.0540    1.1860 H   0  0  0  0  0  0  0  0  0  0  0  0
   -0.4930   -0.3050    1.5790 H   0  0  0  0  0  0  0  0  0  0  0  0
  1  9  1  0  0  0  0
  1  2  1  0  0  0  0
  2 11  1  1  0  0  0
  2  3  1  0  0  0  0
  3 13  1  0  0  0  0
  3  4  1  0  0  0  0
  4  8  1  0  0  0  0
  5  4  2  0  0  0  0
  6  2  1  0  0  0  0
  7  6  2  0  0  0  0
  8 14  1  0  0  0  0
 10  1  1  0  0  0  0
 12  3  1  0  0  0  0
 15 23  1  0  0  0  0
 15 24  1  0  0  0  0
 16 15  1  0  0  0  0
 17 16  2  0  0  0  0
 18 16  1  0  0  0  0
 18 19  1  0  0  0  0
 19 27  1  6  0  0  0
 19 20  1  0  0  0  0
 19 21  1  0  0  0  0
 20  6  1  0  0  0  0
 20 28  1  0  0  0  0
 21 32  1  0  0  0  0
 22 21  2  0  0  0  0
 25 18  1  0  0  0  0
 26 18  1  0  0  0  0
 29 36  1  0  0  0  0
 30 37  1  0  0  0  0
 30 29  1  0  0  0  0
 31 39  1  6  0  0  0
 31 30  1  0  0  0  0
 31 33  1  0  0  0  0
 32 40  1  0  0  0  0
 32 31  1  0  0  0  0
 33 35  2  0  0  0  0
 33 34  1  0  0  0  0
 38 30  1  0  0  0  0
M  END
$$$$
