DNV.pdb
 OpenBabel07022418133D

 45 44  0  0  1  0  0  0  0  0999 V2000
    5.2560   -0.3870    0.0180 N   0  0  0  0  0  0  0  0  0  0  0  0
    4.0130   -1.0870    0.4100 C   0  0  1  0  0  0  0  0  0  0  0  0
    4.0810   -1.2170    1.8860 C   0  0  0  0  0  0  0  0  0  0  0  0
    2.9510   -1.8840    2.5400 C   0  0  0  0  0  0  0  0  0  0  0  0
    2.0240   -1.1840    3.0150 O   0  0  0  0  0  0  0  0  0  0  0  0
    2.9140   -0.3220   -0.1570 C   0  0  0  0  0  0  0  0  0  0  0  0
    3.0940    0.8540   -0.6400 O   0  0  0  0  0  0  0  0  0  0  0  0
    2.8700   -3.2620    2.6520 O   0  0  0  0  0  0  0  0  0  0  0  0
    6.0820   -0.8460    0.4430 H   0  0  0  0  0  0  0  0  0  0  0  0
    5.3190   -0.3400   -1.0390 H   0  0  0  0  0  0  0  0  0  0  0  0
    4.1260   -2.1110   -0.0330 H   0  0  0  0  0  0  0  0  0  0  0  0
    4.3130   -0.2580    2.3990 H   0  0  0  0  0  0  0  0  0  0  0  0
    4.9820   -1.8690    2.1000 H   0  0  0  0  0  0  0  0  0  0  0  0
    2.2570   -3.6170    3.4020 H   0  0  0  0  0  0  0  0  0  0  0  0
   -0.5010   -2.1950   -3.7560 N   0  0  0  0  0  0  0  0  0  0  0  0
   -0.2070   -1.7000   -2.4620 C   0  0  0  0  0  0  0  0  0  0  0  0
   -0.3530   -2.4910   -1.5030 O   0  0  0  0  0  0  0  0  0  0  0  0
    0.2420   -0.3360   -2.2830 C   0  0  0  0  0  0  0  0  0  0  0  0
    0.5150    0.0630   -0.8440 C   0  0  2  0  0  0  0  0  0  0  0  0
    1.5410   -0.7650   -0.2540 N   0  0  0  0  0  0  0  0  0  0  0  0
   -0.7120    0.2180   -0.0420 C   0  0  0  0  0  0  0  0  0  0  0  0
   -1.6290    0.9860   -0.4430 O   0  0  0  0  0  0  0  0  0  0  0  0
   -0.1290   -3.1280   -4.0080 H   0  0  0  0  0  0  0  0  0  0  0  0
   -1.0720   -1.6250   -4.4140 H   0  0  0  0  0  0  0  0  0  0  0  0
   -0.4980    0.3420   -2.7570 H   0  0  0  0  0  0  0  0  0  0  0  0
    1.2000   -0.1550   -2.8290 H   0  0  0  0  0  0  0  0  0  0  0  0
    0.9560    1.0740   -0.9650 H   0  0  0  0  0  0  0  0  0  0  0  0
    1.3690   -1.7210    0.1380 H   0  0  0  0  0  0  0  0  0  0  0  0
   -1.9870    2.0490    2.6850 C   0  0  0  0  0  0  0  0  0  0  0  0
   -2.0940    0.6190    3.1070 C   0  0  0  0  0  0  0  0  0  0  0  0
   -3.3510    0.4790    3.9380 C   0  0  0  0  0  0  0  0  0  0  0  0
   -2.1060   -0.3760    2.0280 C   0  0  2  0  0  0  0  0  0  0  0  0
   -0.9770   -0.4320    1.1760 N   0  0  0  0  0  0  0  0  0  0  0  0
   -3.3780   -0.4870    1.2560 C   0  0  0  0  0  0  0  0  0  0  0  0
   -4.5240   -0.3520    1.7510 O   0  0  0  0  0  0  0  0  0  0  0  0
   -3.3540   -0.7600   -0.0950 O   0  0  0  0  0  0  0  0  0  0  0  0
   -2.2720    2.7450    3.4980 H   0  0  0  0  0  0  0  0  0  0  0  0
   -2.5240    2.3150    1.7860 H   0  0  0  0  0  0  0  0  0  0  0  0
   -0.8960    2.2470    2.4830 H   0  0  0  0  0  0  0  0  0  0  0  0
   -1.2640    0.3290    3.8130 H   0  0  0  0  0  0  0  0  0  0  0  0
   -3.7380   -0.5680    3.9210 H   0  0  0  0  0  0  0  0  0  0  0  0
   -4.1640    1.1140    3.5090 H   0  0  0  0  0  0  0  0  0  0  0  0
   -3.1750    0.7830    4.9960 H   0  0  0  0  0  0  0  0  0  0  0  0
   -2.1130   -1.4030    2.5660 H   0  0  0  0  0  0  0  0  0  0  0  0
   -0.1760   -1.0720    1.4880 H   0  0  0  0  0  0  0  0  0  0  0  0
  1  2  1  0  0  0  0
  1  9  1  0  0  0  0
  2 11  1  6  0  0  0
  2  3  1  0  0  0  0
  3 13  1  0  0  0  0
  3 12  1  0  0  0  0
  3  4  1  0  0  0  0
  4  8  1  0  0  0  0
  4  5  2  0  0  0  0
  6  2  1  0  0  0  0
  7  6  2  0  0  0  0
  8 14  1  0  0  0  0
 10  1  1  0  0  0  0
 15 16  1  0  0  0  0
 16 18  1  0  0  0  0
 16 17  2  0  0  0  0
 18 19  1  0  0  0  0
 19 27  1  6  0  0  0
 19 20  1  0  0  0  0
 19 21  1  0  0  0  0
 20  6  1  0  0  0  0
 20 28  1  0  0  0  0
 21 33  1  0  0  0  0
 22 21  2  0  0  0  0
 23 15  1  0  0  0  0
 24 15  1  0  0  0  0
 25 18  1  0  0  0  0
 26 18  1  0  0  0  0
 29 30  1  0  0  0  0
 29 37  1  0  0  0  0
 30 40  1  0  0  0  0
 30 31  1  0  0  0  0
 31 43  1  0  0  0  0
 32 44  1  1  0  0  0
 32 30  1  0  0  0  0
 33 45  1  0  0  0  0
 33 32  1  0  0  0  0
 34 35  1  0  0  0  0
 34 32  1  0  0  0  0
 36 34  2  0  0  0  0
 38 29  1  0  0  0  0
 39 29  1  0  0  0  0
 41 31  1  0  0  0  0
 42 31  1  0  0  0  0
M  END
$$$$
