DNW.pdb
 OpenBabel07022418133D

 53 54  0  0  1  0  0  0  0  0999 V2000
    0.6350   -0.1310    4.1760 N   0  0  0  0  0  0  0  0  0  0  0  0
    1.6010    0.9290    3.8660 C   0  0  1  0  0  0  0  0  0  0  0  0
    2.8900    0.5630    4.5790 C   0  0  0  0  0  0  0  0  0  0  0  0
    2.5540    0.5410    6.0510 C   0  0  0  0  0  0  0  0  0  0  0  0
    1.5160    1.1630    6.4640 O   0  0  0  0  0  0  0  0  0  0  0  0
    1.7000    1.0320    2.4120 C   0  0  0  0  0  0  0  0  0  0  0  0
    2.4190    1.9020    1.8100 O   0  0  0  0  0  0  0  0  0  0  0  0
    3.3320   -0.1340    6.9960 O   0  0  0  0  0  0  0  0  0  0  0  0
    0.1920    0.0520    5.0890 H   0  0  0  0  0  0  0  0  0  0  0  0
    1.1180   -1.0350    4.1560 H   0  0  0  0  0  0  0  0  0  0  0  0
    1.2050    1.8460    4.3170 H   0  0  0  0  0  0  0  0  0  0  0  0
    3.3060   -0.3990    4.3320 H   0  0  0  0  0  0  0  0  0  0  0  0
    3.6150    1.3940    4.4760 H   0  0  0  0  0  0  0  0  0  0  0  0
    3.1240   -0.1710    7.9750 H   0  0  0  0  0  0  0  0  0  0  0  0
    4.3450   -0.4820   -0.7210 N   0  0  0  0  0  0  0  0  0  0  0  0
    3.2420   -0.9000    0.0960 C   0  0  0  0  0  0  0  0  0  0  0  0
    3.5820   -1.2460    1.2880 O   0  0  0  0  0  0  0  0  0  0  0  0
    1.8960   -0.9030   -0.4360 C   0  0  0  0  0  0  0  0  0  0  0  0
    1.0600    0.2550    0.1220 C   0  0  2  0  0  0  0  0  0  0  0  0
    0.9830    0.1530    1.5740 N   0  0  0  0  0  0  0  0  0  0  0  0
   -0.2930    0.2690   -0.4780 C   0  0  0  0  0  0  0  0  0  0  0  0
   -0.4460    0.3120   -1.7520 O   0  0  0  0  0  0  0  0  0  0  0  0
    5.3040   -0.8180   -0.5260 H   0  0  0  0  0  0  0  0  0  0  0  0
    4.1680    0.1850   -1.5350 H   0  0  0  0  0  0  0  0  0  0  0  0
    1.9360   -0.8590   -1.5250 H   0  0  0  0  0  0  0  0  0  0  0  0
    1.3510   -1.8320   -0.1120 H   0  0  0  0  0  0  0  0  0  0  0  0
    1.5760    1.1840   -0.1360 H   0  0  0  0  0  0  0  0  0  0  0  0
    0.3640   -0.6100    1.9230 H   0  0  0  0  0  0  0  0  0  0  0  0
   -1.5180    0.2350    0.2410 N   0  0  0  0  0  0  0  0  0  0  0  0
   -2.7970    0.2320   -0.4240 C   0  0  1  0  0  0  0  0  0  0  0  0
   -3.4460   -1.1710   -0.2420 C   0  0  0  0  0  0  0  0  0  0  0  0
   -2.5160   -2.1750   -0.8220 C   0  0  0  0  0  0  0  0  0  0  0  0
   -1.6360   -3.0110   -0.1440 C   0  0  0  0  0  0  0  0  0  0  0  0
   -0.9510   -3.7500   -1.0400 N   0  0  0  0  0  0  0  0  0  0  0  0
   -1.3540   -3.4270   -2.3020 C   0  0  0  0  0  0  0  0  0  0  0  0
   -0.9800   -3.8720   -3.5510 C   0  0  0  0  0  0  0  0  0  0  0  0
   -1.6040   -3.3120   -4.6530 C   0  0  0  0  0  0  0  0  0  0  0  0
   -2.5630   -2.3480   -4.5160 C   0  0  0  0  0  0  0  0  0  0  0  0
   -2.9480   -1.8920   -3.2620 C   0  0  0  0  0  0  0  0  0  0  0  0
   -2.3280   -2.4450   -2.1520 C   0  0  0  0  0  0  0  0  0  0  0  0
   -3.7220    1.3050    0.0120 C   0  0  0  0  0  0  0  0  0  0  0  0
   -4.8640    1.4410   -0.4770 O   0  0  0  0  0  0  0  0  0  0  0  0
   -3.3060    2.1830    0.9930 O   0  0  0  0  0  0  0  0  0  0  0  0
   -1.4840    0.2190    1.2680 H   0  0  0  0  0  0  0  0  0  0  0  0
   -2.6580    0.3280   -1.5240 H   0  0  0  0  0  0  0  0  0  0  0  0
   -3.5730   -1.3660    0.8360 H   0  0  0  0  0  0  0  0  0  0  0  0
   -4.4090   -1.1990   -0.7580 H   0  0  0  0  0  0  0  0  0  0  0  0
   -1.5530   -3.0340    0.9340 H   0  0  0  0  0  0  0  0  0  0  0  0
   -0.2240   -4.4570   -0.8390 H   0  0  0  0  0  0  0  0  0  0  0  0
   -0.2130   -4.6310   -3.6510 H   0  0  0  0  0  0  0  0  0  0  0  0
   -1.2770   -3.7000   -5.6120 H   0  0  0  0  0  0  0  0  0  0  0  0
   -3.0500   -1.9110   -5.3750 H   0  0  0  0  0  0  0  0  0  0  0  0
   -3.7060   -1.1360   -3.1660 H   0  0  0  0  0  0  0  0  0  0  0  0
  1  9  1  0  0  0  0
  2  1  1  0  0  0  0
  2 11  1  1  0  0  0
  2  3  1  0  0  0  0
  3  4  1  0  0  0  0
  4  5  2  0  0  0  0
  4  8  1  0  0  0  0
  6  2  1  0  0  0  0
  7  6  2  0  0  0  0
  8 14  1  0  0  0  0
 10  1  1  0  0  0  0
 12  3  1  0  0  0  0
 13  3  1  0  0  0  0
 15 23  1  0  0  0  0
 15 16  1  0  0  0  0
 16 17  2  0  0  0  0
 18 26  1  0  0  0  0
 18 16  1  0  0  0  0
 18 19  1  0  0  0  0
 19 27  1  6  0  0  0
 19 20  1  0  0  0  0
 20 28  1  0  0  0  0
 20  6  1  0  0  0  0
 21 19  1  0  0  0  0
 21 29  1  0  0  0  0
 22 21  2  0  0  0  0
 24 15  1  0  0  0  0
 25 18  1  0  0  0  0
 29 44  1  0  0  0  0
 30 45  1  6  0  0  0
 30 31  1  0  0  0  0
 30 41  1  0  0  0  0
 30 29  1  0  0  0  0
 31 46  1  0  0  0  0
 32 31  1  0  0  0  0
 32 33  2  0  0  0  0
 33 48  1  0  0  0  0
 34 49  1  0  0  0  0
 34 33  1  0  0  0  0
 35 40  1  0  0  0  0
 35 34  1  0  0  0  0
 36 35  2  0  0  0  0
 37 38  2  0  0  0  0
 37 36  1  0  0  0  0
 38 39  1  0  0  0  0
 39 53  1  0  0  0  0
 39 40  2  0  0  0  0
 40 32  1  0  0  0  0
 41 43  1  0  0  0  0
 42 41  2  0  0  0  0
 47 31  1  0  0  0  0
 50 36  1  0  0  0  0
 51 37  1  0  0  0  0
 52 38  1  0  0  0  0
M  END
$$$$
