DNY.pdb
 OpenBabel07022418133D

 50 50  0  0  1  0  0  0  0  0999 V2000
    2.5560    2.4290    5.0400 N   0  0  0  0  0  0  0  0  0  0  0  0
    1.8190    1.2650    4.6040 C   0  0  1  0  0  0  0  0  0  0  0  0
    0.3930    1.2790    5.0850 C   0  0  0  0  0  0  0  0  0  0  0  0
   -0.3610    2.4530    4.5980 C   0  0  0  0  0  0  0  0  0  0  0  0
    0.1730    3.3150    3.8710 O   0  0  0  0  0  0  0  0  0  0  0  0
    1.9390    1.0910    3.1460 C   0  0  0  0  0  0  0  0  0  0  0  0
    2.6050    1.9520    2.5190 O   0  0  0  0  0  0  0  0  0  0  0  0
   -1.6920    2.6200    4.9450 O   0  0  0  0  0  0  0  0  0  0  0  0
    3.5370    2.3350    4.6990 H   0  0  0  0  0  0  0  0  0  0  0  0
    2.6040    2.4330    6.0820 H   0  0  0  0  0  0  0  0  0  0  0  0
    2.3020    0.3770    5.0770 H   0  0  0  0  0  0  0  0  0  0  0  0
   -0.0850    0.3410    4.8160 H   0  0  0  0  0  0  0  0  0  0  0  0
    0.4290    1.3580    6.1930 H   0  0  0  0  0  0  0  0  0  0  0  0
   -2.1480    3.5350    4.7980 H   0  0  0  0  0  0  0  0  0  0  0  0
    3.2090   -3.0000   -0.9350 N   0  0  0  0  0  0  0  0  0  0  0  0
    2.6190   -1.7250   -0.6790 C   0  0  0  0  0  0  0  0  0  0  0  0
    2.4400   -1.0070   -1.6720 O   0  0  0  0  0  0  0  0  0  0  0  0
    2.2700   -1.3400    0.6720 C   0  0  0  0  0  0  0  0  0  0  0  0
    1.5190   -0.0840    0.9250 C   0  0  2  0  0  0  0  0  0  0  0  0
    1.3750    0.0550    2.4080 N   0  0  0  0  0  0  0  0  0  0  0  0
    0.1240   -0.0370    0.4530 C   0  0  0  0  0  0  0  0  0  0  0  0
   -0.7910   -0.1780    1.3590 O   0  0  0  0  0  0  0  0  0  0  0  0
    2.6060   -3.8180   -1.0730 H   0  0  0  0  0  0  0  0  0  0  0  0
    4.2320   -3.0790   -0.9770 H   0  0  0  0  0  0  0  0  0  0  0  0
    1.7430   -2.2090    1.2090 H   0  0  0  0  0  0  0  0  0  0  0  0
    3.2700   -1.2110    1.2120 H   0  0  0  0  0  0  0  0  0  0  0  0
    2.0900    0.7820    0.5950 H   0  0  0  0  0  0  0  0  0  0  0  0
    0.8200   -0.6830    2.8550 H   0  0  0  0  0  0  0  0  0  0  0  0
   -0.4650   -5.3930   -3.9330 O   0  0  0  0  0  0  0  0  0  0  0  0
   -0.9790   -4.3490   -3.1890 C   0  0  0  0  0  0  0  0  0  0  0  0
   -2.0470   -3.6090   -3.6410 C   0  0  0  0  0  0  0  0  0  0  0  0
   -2.4980   -2.5860   -2.8380 C   0  0  0  0  0  0  0  0  0  0  0  0
   -1.9270   -2.2760   -1.6120 C   0  0  0  0  0  0  0  0  0  0  0  0
   -2.4500   -1.1670   -0.7790 C   0  0  0  0  0  0  0  0  0  0  0  0
   -1.8070    0.1600   -1.0710 C   0  0  2  0  0  0  0  0  0  0  0  0
   -0.3640    0.1460   -0.8390 N   0  0  0  0  0  0  0  0  0  0  0  0
   -2.5060    1.2040   -0.2880 C   0  0  0  0  0  0  0  0  0  0  0  0
   -1.8670    1.9840    0.4460 O   0  0  0  0  0  0  0  0  0  0  0  0
   -0.8670   -3.0280   -1.1890 C   0  0  0  0  0  0  0  0  0  0  0  0
   -0.3860   -4.0600   -1.9610 C   0  0  0  0  0  0  0  0  0  0  0  0
   -3.8820    1.3030   -0.3810 O   0  0  0  0  0  0  0  0  0  0  0  0
    0.5130   -5.5780   -3.8930 H   0  0  0  0  0  0  0  0  0  0  0  0
   -2.4990   -3.8410   -4.5920 H   0  0  0  0  0  0  0  0  0  0  0  0
   -3.3430   -1.9780   -3.1650 H   0  0  0  0  0  0  0  0  0  0  0  0
   -2.3670   -1.4690    0.2660 H   0  0  0  0  0  0  0  0  0  0  0  0
   -3.5460   -1.0170   -0.9780 H   0  0  0  0  0  0  0  0  0  0  0  0
   -2.0110    0.4210   -2.1500 H   0  0  0  0  0  0  0  0  0  0  0  0
    0.2900    0.2930   -1.6230 H   0  0  0  0  0  0  0  0  0  0  0  0
   -0.3730   -2.8350   -0.2330 H   0  0  0  0  0  0  0  0  0  0  0  0
    0.4530   -4.6750   -1.6480 H   0  0  0  0  0  0  0  0  0  0  0  0
  1 10  1  0  0  0  0
  2  1  1  0  0  0  0
  2 11  1  1  0  0  0
  2  3  1  0  0  0  0
  3 13  1  0  0  0  0
  4  8  1  0  0  0  0
  4  3  1  0  0  0  0
  5  4  2  0  0  0  0
  6  2  1  0  0  0  0
  7  6  2  0  0  0  0
  9  1  1  0  0  0  0
 12  3  1  0  0  0  0
 14  8  1  0  0  0  0
 15 16  1  0  0  0  0
 16 18  1  0  0  0  0
 17 16  2  0  0  0  0
 18 19  1  0  0  0  0
 18 25  1  0  0  0  0
 18 26  1  0  0  0  0
 19 27  1  6  0  0  0
 19 20  1  0  0  0  0
 20 28  1  0  0  0  0
 20  6  1  0  0  0  0
 21 19  1  0  0  0  0
 21 22  2  0  0  0  0
 23 15  1  0  0  0  0
 24 15  1  0  0  0  0
 29 42  1  0  0  0  0
 29 30  1  0  0  0  0
 30 40  1  0  0  0  0
 31 30  2  0  0  0  0
 31 32  1  0  0  0  0
 32 33  2  0  0  0  0
 33 39  1  0  0  0  0
 33 34  1  0  0  0  0
 34 45  1  0  0  0  0
 35 47  1  6  0  0  0
 35 36  1  0  0  0  0
 35 34  1  0  0  0  0
 35 37  1  0  0  0  0
 36 21  1  0  0  0  0
 37 38  1  0  0  0  0
 39 49  1  0  0  0  0
 40 50  1  0  0  0  0
 40 39  2  0  0  0  0
 41 37  2  0  0  0  0
 43 31  1  0  0  0  0
 44 32  1  0  0  0  0
 46 34  1  0  0  0  0
 48 36  1  0  0  0  0
M  END
$$$$
