DPA.pdb
 OpenBabel07022418153D

 39 39  0  0  1  0  0  0  0  0999 V2000
   -1.8850   -0.4140    0.4960 N   0  0  0  0  0  0  0  0  0  0  0  0
   -1.3300   -1.6770    0.9210 C   0  0  1  0  0  0  0  0  0  0  0  0
   -2.4630   -2.6740    1.0990 C   0  0  0  0  0  0  0  0  0  0  0  0
   -1.9440   -3.9960    1.5690 C   0  0  0  0  0  0  0  0  0  0  0  0
   -2.6890   -5.0200    1.5580 O   0  0  0  0  0  0  0  0  0  0  0  0
   -0.2510   -2.1410    0.0540 C   0  0  0  0  0  0  0  0  0  0  0  0
   -0.4970   -3.3530   -0.4090 O   0  0  0  0  0  0  0  0  0  0  0  0
   -0.6370   -4.1010    2.0200 O   0  0  0  0  0  0  0  0  0  0  0  0
   -2.9270   -0.3880    0.6470 H   0  0  0  0  0  0  0  0  0  0  0  0
   -1.6350   -0.1510   -0.4850 H   0  0  0  0  0  0  0  0  0  0  0  0
   -0.9120   -1.5540    1.9510 H   0  0  0  0  0  0  0  0  0  0  0  0
   -3.1190   -2.3180    1.9250 H   0  0  0  0  0  0  0  0  0  0  0  0
   -3.0990   -2.7760    0.2160 H   0  0  0  0  0  0  0  0  0  0  0  0
   -0.1140   -4.9660    1.9630 H   0  0  0  0  0  0  0  0  0  0  0  0
    0.9360   -1.5970   -0.3700 N   0  0  0  0  0  0  0  0  0  0  0  0
    1.7590   -2.4360   -1.3730 C   0  0  0  0  0  0  0  0  0  0  0  0
    2.2000   -1.4220   -2.3680 C   0  0  0  0  0  0  0  0  0  0  0  0
    1.8700   -0.0880   -1.7590 C   0  0  0  0  0  0  0  0  0  0  0  0
    1.7880   -0.5040   -0.2460 C   0  0  1  0  0  0  0  0  0  0  0  0
    1.6570    0.6920    0.4980 C   0  0  0  0  0  0  0  0  0  0  0  0
    2.5200    1.6300    0.1150 O   0  0  0  0  0  0  0  0  0  0  0  0
    2.6340   -2.7910   -0.7980 H   0  0  0  0  0  0  0  0  0  0  0  0
    1.1510   -3.2290   -1.7740 H   0  0  0  0  0  0  0  0  0  0  0  0
    3.3170   -1.4310   -2.5280 H   0  0  0  0  0  0  0  0  0  0  0  0
    1.7270   -1.5470   -3.3660 H   0  0  0  0  0  0  0  0  0  0  0  0
    0.8370    0.2130   -2.0160 H   0  0  0  0  0  0  0  0  0  0  0  0
    2.6390    0.6670   -1.9000 H   0  0  0  0  0  0  0  0  0  0  0  0
    2.8770   -0.9420   -0.0560 H   0  0  0  0  0  0  0  0  0  0  0  0
   -0.3660    3.1740    1.8840 C   0  0  0  0  0  0  0  0  0  0  0  0
    0.9650    2.4710    2.1020 C   0  0  2  0  0  0  0  0  0  0  0  0
    0.8280    1.1100    1.5440 N   0  0  0  0  0  0  0  0  0  0  0  0
    1.1360    2.2830    3.5700 C   0  0  0  0  0  0  0  0  0  0  0  0
    1.1160    1.1260    4.1070 O   0  0  0  0  0  0  0  0  0  0  0  0
    1.3260    3.3530    4.4310 O   0  0  0  0  0  0  0  0  0  0  0  0
   -0.8240    3.4760    2.8600 H   0  0  0  0  0  0  0  0  0  0  0  0
   -0.2410    4.0840    1.2640 H   0  0  0  0  0  0  0  0  0  0  0  0
   -1.1110    2.5490    1.3630 H   0  0  0  0  0  0  0  0  0  0  0  0
    1.7810    3.0220    1.6300 H   0  0  0  0  0  0  0  0  0  0  0  0
    0.1320    0.4880    1.9610 H   0  0  0  0  0  0  0  0  0  0  0  0
  1  9  1  0  0  0  0
  1  2  1  0  0  0  0
  2  3  1  0  0  0  0
  2 11  1  1  0  0  0
  3  4  1  0  0  0  0
  3 12  1  0  0  0  0
  4  8  1  0  0  0  0
  5  4  2  0  0  0  0
  6  2  1  0  0  0  0
  7  6  2  0  0  0  0
 10  1  1  0  0  0  0
 13  3  1  0  0  0  0
 14  8  1  0  0  0  0
 15 19  1  0  0  0  0
 15  6  1  0  0  0  0
 16 22  1  0  0  0  0
 16 15  1  0  0  0  0
 17 18  1  0  0  0  0
 17 16  1  0  0  0  0
 18 19  1  0  0  0  0
 19 28  1  1  0  0  0
 19 20  1  0  0  0  0
 20 31  1  0  0  0  0
 21 20  2  0  0  0  0
 23 16  1  0  0  0  0
 24 17  1  0  0  0  0
 25 17  1  0  0  0  0
 26 18  1  0  0  0  0
 27 18  1  0  0  0  0
 29 30  1  0  0  0  0
 29 35  1  0  0  0  0
 30 38  1  6  0  0  0
 30 32  1  0  0  0  0
 31 39  1  0  0  0  0
 31 30  1  0  0  0  0
 32 33  2  0  0  0  0
 32 34  1  0  0  0  0
 36 29  1  0  0  0  0
 37 29  1  0  0  0  0
M  END
$$$$
