DPC.pdb
 OpenBabel07022418153D

 40 40  0  0  1  0  0  0  0  0999 V2000
    2.5580   -1.3620    1.0620 N   0  0  0  0  0  0  0  0  0  0  0  0
    1.8720   -2.2790    0.2120 C   0  0  1  0  0  0  0  0  0  0  0  0
    1.2930   -3.4460    0.9680 C   0  0  0  0  0  0  0  0  0  0  0  0
    2.3810   -4.1900    1.6530 C   0  0  0  0  0  0  0  0  0  0  0  0
    3.5630   -3.7950    1.5360 O   0  0  0  0  0  0  0  0  0  0  0  0
    0.9010   -1.6440   -0.7040 C   0  0  0  0  0  0  0  0  0  0  0  0
    0.1560   -2.4180   -1.4020 O   0  0  0  0  0  0  0  0  0  0  0  0
    2.1370   -5.3170    2.4260 O   0  0  0  0  0  0  0  0  0  0  0  0
    3.5790   -1.3530    0.9660 H   0  0  0  0  0  0  0  0  0  0  0  0
    2.2090   -1.3290    2.0430 H   0  0  0  0  0  0  0  0  0  0  0  0
    2.6780   -2.7400   -0.4450 H   0  0  0  0  0  0  0  0  0  0  0  0
    0.5180   -3.1950    1.6930 H   0  0  0  0  0  0  0  0  0  0  0  0
    0.8650   -4.1790    0.2190 H   0  0  0  0  0  0  0  0  0  0  0  0
    2.8860   -5.6700    3.0210 H   0  0  0  0  0  0  0  0  0  0  0  0
    0.7180   -0.2540   -0.8830 N   0  0  0  0  0  0  0  0  0  0  0  0
   -0.2840    0.3060   -1.8100 C   0  0  0  0  0  0  0  0  0  0  0  0
    0.2980    1.5900   -2.3030 C   0  0  0  0  0  0  0  0  0  0  0  0
    1.2670    2.0180   -1.2440 C   0  0  0  0  0  0  0  0  0  0  0  0
    1.4150    0.8590   -0.2700 C   0  0  1  0  0  0  0  0  0  0  0  0
    0.7150    1.2710    0.9650 C   0  0  0  0  0  0  0  0  0  0  0  0
    1.1100    2.2640    1.6230 O   0  0  0  0  0  0  0  0  0  0  0  0
   -1.2300    0.5150   -1.3120 H   0  0  0  0  0  0  0  0  0  0  0  0
   -0.4790   -0.3730   -2.6520 H   0  0  0  0  0  0  0  0  0  0  0  0
   -0.5070    2.3330   -2.4790 H   0  0  0  0  0  0  0  0  0  0  0  0
    0.8580    1.4810   -3.2540 H   0  0  0  0  0  0  0  0  0  0  0  0
    0.8590    2.9300   -0.7670 H   0  0  0  0  0  0  0  0  0  0  0  0
    2.2600    2.2680   -1.6620 H   0  0  0  0  0  0  0  0  0  0  0  0
    2.4980    0.6640   -0.1080 H   0  0  0  0  0  0  0  0  0  0  0  0
   -0.4150    0.5690    1.4460 N   0  0  0  0  0  0  0  0  0  0  0  0
   -1.1560    0.8880    2.6110 C   0  0  1  0  0  0  0  0  0  0  0  0
   -2.6260    1.0400    2.4390 C   0  0  0  0  0  0  0  0  0  0  0  0
   -3.3750   -0.4750    1.8210 S   0  0  0  0  0  0  0  0  0  0  0  0
   -0.9450   -0.1940    3.6120 C   0  0  0  0  0  0  0  0  0  0  0  0
   -0.2120   -1.1900    3.3950 O   0  0  0  0  0  0  0  0  0  0  0  0
   -1.5640   -0.1580    4.8720 O   0  0  0  0  0  0  0  0  0  0  0  0
   -0.7150   -0.2550    0.8850 H   0  0  0  0  0  0  0  0  0  0  0  0
   -0.7200    1.8190    3.0700 H   0  0  0  0  0  0  0  0  0  0  0  0
   -2.9410    1.9130    1.8540 H   0  0  0  0  0  0  0  0  0  0  0  0
   -3.0500    1.2070    3.4740 H   0  0  0  0  0  0  0  0  0  0  0  0
   -4.0870   -0.1710    0.6480 H   0  0  0  0  0  0  0  0  0  0  0  0
  1 10  1  0  0  0  0
  2 11  1  6  0  0  0
  2  3  1  0  0  0  0
  2  1  1  0  0  0  0
  3  4  1  0  0  0  0
  3 12  1  0  0  0  0
  4  8  1  0  0  0  0
  5  4  2  0  0  0  0
  6  2  1  0  0  0  0
  7  6  2  0  0  0  0
  8 14  1  0  0  0  0
  9  1  1  0  0  0  0
 13  3  1  0  0  0  0
 15  6  1  0  0  0  0
 15 19  1  0  0  0  0
 16 22  1  0  0  0  0
 16 15  1  0  0  0  0
 17 16  1  0  0  0  0
 17 18  1  0  0  0  0
 18 26  1  0  0  0  0
 18 19  1  0  0  0  0
 19 28  1  1  0  0  0
 19 20  1  0  0  0  0
 20 29  1  0  0  0  0
 20 21  2  0  0  0  0
 23 16  1  0  0  0  0
 24 17  1  0  0  0  0
 25 17  1  0  0  0  0
 27 18  1  0  0  0  0
 29 30  1  0  0  0  0
 30 37  1  1  0  0  0
 30 33  1  0  0  0  0
 31 30  1  0  0  0  0
 31 39  1  0  0  0  0
 32 31  1  0  0  0  0
 33 35  1  0  0  0  0
 34 33  2  0  0  0  0
 36 29  1  0  0  0  0
 38 31  1  0  0  0  0
 40 32  1  0  0  0  0
M  END
$$$$
