DPD.pdb
 OpenBabel07022418153D

 42 42  0  0  1  0  0  0  0  0999 V2000
    4.3690   -2.4980    1.5810 N   0  0  0  0  0  0  0  0  0  0  0  0
    3.4200   -1.3880    1.7970 C   0  0  1  0  0  0  0  0  0  0  0  0
    4.0970   -0.5750    2.9080 C   0  0  0  0  0  0  0  0  0  0  0  0
    3.2610    0.5850    3.2210 C   0  0  0  0  0  0  0  0  0  0  0  0
    3.3580    1.6720    2.5530 O   0  0  0  0  0  0  0  0  0  0  0  0
    3.3460   -0.6010    0.5510 C   0  0  0  0  0  0  0  0  0  0  0  0
    4.3530   -0.5960   -0.2030 O   0  0  0  0  0  0  0  0  0  0  0  0
    2.3330    0.5490    4.2540 O   0  0  0  0  0  0  0  0  0  0  0  0
    4.3640   -3.0750    2.4520 H   0  0  0  0  0  0  0  0  0  0  0  0
    4.0590   -3.0770    0.7490 H   0  0  0  0  0  0  0  0  0  0  0  0
    2.4510   -1.7370    2.1660 H   0  0  0  0  0  0  0  0  0  0  0  0
    5.1210   -0.3020    2.5970 H   0  0  0  0  0  0  0  0  0  0  0  0
    4.1130   -1.2670    3.7900 H   0  0  0  0  0  0  0  0  0  0  0  0
    1.7050    1.3460    4.3870 H   0  0  0  0  0  0  0  0  0  0  0  0
    2.1860    0.1480    0.1660 N   0  0  0  0  0  0  0  0  0  0  0  0
    2.0760    0.9820   -1.0330 C   0  0  0  0  0  0  0  0  0  0  0  0
    1.4130    2.2040   -0.4380 C   0  0  0  0  0  0  0  0  0  0  0  0
    0.5520    1.6850    0.6930 C   0  0  0  0  0  0  0  0  0  0  0  0
    0.8910    0.2360    0.7880 C   0  0  1  0  0  0  0  0  0  0  0  0
   -0.1000   -0.6080    0.0330 C   0  0  0  0  0  0  0  0  0  0  0  0
    0.1800   -1.3110   -0.9530 O   0  0  0  0  0  0  0  0  0  0  0  0
    1.4210    0.4580   -1.7410 H   0  0  0  0  0  0  0  0  0  0  0  0
    3.0720    1.2070   -1.4560 H   0  0  0  0  0  0  0  0  0  0  0  0
    2.1440    2.9640   -0.1070 H   0  0  0  0  0  0  0  0  0  0  0  0
    0.7350    2.6650   -1.1870 H   0  0  0  0  0  0  0  0  0  0  0  0
   -0.5290    1.8700    0.4990 H   0  0  0  0  0  0  0  0  0  0  0  0
    0.8310    2.1650    1.6730 H   0  0  0  0  0  0  0  0  0  0  0  0
    0.8930   -0.1440    1.8350 H   0  0  0  0  0  0  0  0  0  0  0  0
   -1.4470   -0.6020    0.4750 N   0  0  0  0  0  0  0  0  0  0  0  0
   -2.4630   -1.4160   -0.2370 C   0  0  1  0  0  0  0  0  0  0  0  0
   -2.9890   -2.3710    0.8110 C   0  0  0  0  0  0  0  0  0  0  0  0
   -4.0110   -3.3110    0.3190 C   0  0  0  0  0  0  0  0  0  0  0  0
   -4.3660   -3.3680   -0.8770 O   0  0  0  0  0  0  0  0  0  0  0  0
   -3.5450   -0.4740   -0.6210 C   0  0  0  0  0  0  0  0  0  0  0  0
   -4.5500   -0.8390   -1.2610 O   0  0  0  0  0  0  0  0  0  0  0  0
   -4.6120   -4.1760    1.2210 O   0  0  0  0  0  0  0  0  0  0  0  0
   -3.4680    0.8590   -0.2730 O   0  0  0  0  0  0  0  0  0  0  0  0
   -1.7490   -0.0350    1.2940 H   0  0  0  0  0  0  0  0  0  0  0  0
   -2.0090   -1.9410   -1.0800 H   0  0  0  0  0  0  0  0  0  0  0  0
   -2.1540   -2.9220    1.3150 H   0  0  0  0  0  0  0  0  0  0  0  0
   -3.4730   -1.8040    1.6590 H   0  0  0  0  0  0  0  0  0  0  0  0
   -5.0590   -5.0410    0.9490 H   0  0  0  0  0  0  0  0  0  0  0  0
  1  2  1  0  0  0  0
  1  9  1  0  0  0  0
  2 11  1  1  0  0  0
  2  3  1  0  0  0  0
  3  4  1  0  0  0  0
  3 13  1  0  0  0  0
  4  8  1  0  0  0  0
  5  4  2  0  0  0  0
  6  2  1  0  0  0  0
  7  6  2  0  0  0  0
  8 14  1  0  0  0  0
 10  1  1  0  0  0  0
 12  3  1  0  0  0  0
 15  6  1  0  0  0  0
 15 19  1  0  0  0  0
 16 17  1  0  0  0  0
 16 15  1  0  0  0  0
 17 24  1  0  0  0  0
 17 18  1  0  0  0  0
 18 19  1  0  0  0  0
 18 27  1  0  0  0  0
 19 28  1  1  0  0  0
 20 29  1  0  0  0  0
 20 19  1  0  0  0  0
 21 20  2  0  0  0  0
 22 16  1  0  0  0  0
 23 16  1  0  0  0  0
 25 17  1  0  0  0  0
 26 18  1  0  0  0  0
 29 38  1  0  0  0  0
 30 39  1  6  0  0  0
 30 29  1  0  0  0  0
 30 31  1  0  0  0  0
 31 40  1  0  0  0  0
 31 41  1  0  0  0  0
 32 31  1  0  0  0  0
 32 36  1  0  0  0  0
 33 32  2  0  0  0  0
 34 37  1  0  0  0  0
 34 30  1  0  0  0  0
 35 34  2  0  0  0  0
 42 36  1  0  0  0  0
M  END
$$$$
