DPE.pdb
 OpenBabel07022418153D

 45 45  0  0  1  0  0  0  0  0999 V2000
    3.5550   -3.6800   -0.8070 N   0  0  0  0  0  0  0  0  0  0  0  0
    2.9370   -2.8710    0.2800 C   0  0  1  0  0  0  0  0  0  0  0  0
    3.6050   -3.4240    1.5330 C   0  0  0  0  0  0  0  0  0  0  0  0
    3.1890   -2.8030    2.7820 C   0  0  0  0  0  0  0  0  0  0  0  0
    3.7140   -1.7070    3.1450 O   0  0  0  0  0  0  0  0  0  0  0  0
    3.3250   -1.4560    0.0780 C   0  0  0  0  0  0  0  0  0  0  0  0
    4.4070   -1.2660   -0.5850 O   0  0  0  0  0  0  0  0  0  0  0  0
    2.2250   -3.3520    3.6250 O   0  0  0  0  0  0  0  0  0  0  0  0
    3.0840   -4.5990   -0.7790 H   0  0  0  0  0  0  0  0  0  0  0  0
    4.5820   -3.7750   -0.6230 H   0  0  0  0  0  0  0  0  0  0  0  0
    1.8720   -3.0760    0.2440 H   0  0  0  0  0  0  0  0  0  0  0  0
    3.3840   -4.5170    1.5950 H   0  0  0  0  0  0  0  0  0  0  0  0
    4.7120   -3.2710    1.3990 H   0  0  0  0  0  0  0  0  0  0  0  0
    1.6560   -2.6750    4.1550 H   0  0  0  0  0  0  0  0  0  0  0  0
    2.6040   -0.3410    0.5510 N   0  0  0  0  0  0  0  0  0  0  0  0
    3.0110    1.0490    0.3890 C   0  0  0  0  0  0  0  0  0  0  0  0
    2.5430    1.7560    1.6430 C   0  0  0  0  0  0  0  0  0  0  0  0
    1.5240    0.8290    2.2770 C   0  0  0  0  0  0  0  0  0  0  0  0
    1.3410   -0.2670    1.2440 C   0  0  1  0  0  0  0  0  0  0  0  0
    0.2340    0.0950    0.2930 C   0  0  0  0  0  0  0  0  0  0  0  0
    0.5030    0.2850   -0.9010 O   0  0  0  0  0  0  0  0  0  0  0  0
    4.1080    1.1360    0.3370 H   0  0  0  0  0  0  0  0  0  0  0  0
    2.5800    1.5260   -0.4920 H   0  0  0  0  0  0  0  0  0  0  0  0
    2.0010    2.7060    1.3840 H   0  0  0  0  0  0  0  0  0  0  0  0
    3.3830    1.9950    2.3270 H   0  0  0  0  0  0  0  0  0  0  0  0
    0.5880    1.3270    2.5460 H   0  0  0  0  0  0  0  0  0  0  0  0
    1.9760    0.4110    3.1970 H   0  0  0  0  0  0  0  0  0  0  0  0
    1.1010   -1.1920    1.7900 H   0  0  0  0  0  0  0  0  0  0  0  0
   -1.0800    0.2100    0.7810 N   0  0  0  0  0  0  0  0  0  0  0  0
   -2.2220    0.5710   -0.1300 C   0  0  1  0  0  0  0  0  0  0  0  0
   -3.1520   -0.6020   -0.1020 C   0  0  0  0  0  0  0  0  0  0  0  0
   -4.3710   -0.6030   -0.9080 C   0  0  0  0  0  0  0  0  0  0  0  0
   -5.4080    0.3900   -0.6650 C   0  0  0  0  0  0  0  0  0  0  0  0
   -5.8200    1.1040   -1.6440 O   0  0  0  0  0  0  0  0  0  0  0  0
   -2.7910    1.7750    0.4580 C   0  0  0  0  0  0  0  0  0  0  0  0
   -3.6610    2.4380   -0.1220 O   0  0  0  0  0  0  0  0  0  0  0  0
   -5.9930    0.6250    0.5620 O   0  0  0  0  0  0  0  0  0  0  0  0
   -2.3820    2.2290    1.6970 O   0  0  0  0  0  0  0  0  0  0  0  0
   -1.2510    0.0400    1.7910 H   0  0  0  0  0  0  0  0  0  0  0  0
   -1.8220    0.7110   -1.1480 H   0  0  0  0  0  0  0  0  0  0  0  0
   -3.4810   -0.8080    0.9790 H   0  0  0  0  0  0  0  0  0  0  0  0
   -2.5540   -1.5370   -0.3820 H   0  0  0  0  0  0  0  0  0  0  0  0
   -4.1270   -0.6440   -2.0260 H   0  0  0  0  0  0  0  0  0  0  0  0
   -4.8710   -1.6260   -0.7690 H   0  0  0  0  0  0  0  0  0  0  0  0
   -6.9760    0.8960    0.6660 H   0  0  0  0  0  0  0  0  0  0  0  0
  1  9  1  0  0  0  0
  1 10  1  0  0  0  0
  1  2  1  0  0  0  0
  2 11  1  1  0  0  0
  2  3  1  0  0  0  0
  3 12  1  0  0  0  0
  3  4  1  0  0  0  0
  4  5  2  0  0  0  0
  4  8  1  0  0  0  0
  6  2  1  0  0  0  0
  6 15  1  0  0  0  0
  7  6  2  0  0  0  0
  8 14  1  0  0  0  0
 13  3  1  0  0  0  0
 15 19  1  0  0  0  0
 16 15  1  0  0  0  0
 16 17  1  0  0  0  0
 17 18  1  0  0  0  0
 17 25  1  0  0  0  0
 18 26  1  0  0  0  0
 18 27  1  0  0  0  0
 19 28  1  1  0  0  0
 19 18  1  0  0  0  0
 20 29  1  0  0  0  0
 20 19  1  0  0  0  0
 21 20  2  0  0  0  0
 22 16  1  0  0  0  0
 23 16  1  0  0  0  0
 24 17  1  0  0  0  0
 29 39  1  0  0  0  0
 30 40  1  6  0  0  0
 30 31  1  0  0  0  0
 30 35  1  0  0  0  0
 30 29  1  0  0  0  0
 31 41  1  0  0  0  0
 32 44  1  0  0  0  0
 32 33  1  0  0  0  0
 32 31  1  0  0  0  0
 33 37  1  0  0  0  0
 34 33  2  0  0  0  0
 35 38  1  0  0  0  0
 36 35  2  0  0  0  0
 37 45  1  0  0  0  0
 42 31  1  0  0  0  0
 43 32  1  0  0  0  0
M  END
$$$$
