DPG.pdb
 OpenBabel07022418153D

 36 36  0  0  1  0  0  0  0  0999 V2000
   -1.5830   -3.7160    1.7300 N   0  0  0  0  0  0  0  0  0  0  0  0
   -1.7170   -2.2480    1.5650 C   0  0  1  0  0  0  0  0  0  0  0  0
   -1.7130   -1.7540    3.0130 C   0  0  0  0  0  0  0  0  0  0  0  0
   -1.8140   -0.2990    3.1640 C   0  0  0  0  0  0  0  0  0  0  0  0
   -1.0010    0.5060    2.6490 O   0  0  0  0  0  0  0  0  0  0  0  0
   -0.5230   -1.7930    0.8120 C   0  0  0  0  0  0  0  0  0  0  0  0
    0.5640   -2.3760    0.9620 O   0  0  0  0  0  0  0  0  0  0  0  0
   -2.8550    0.2360    3.9110 O   0  0  0  0  0  0  0  0  0  0  0  0
   -2.5030   -4.1320    2.0240 H   0  0  0  0  0  0  0  0  0  0  0  0
   -0.8570   -3.8700    2.4660 H   0  0  0  0  0  0  0  0  0  0  0  0
   -2.6750   -2.0430    1.0710 H   0  0  0  0  0  0  0  0  0  0  0  0
   -0.7330   -2.1010    3.4310 H   0  0  0  0  0  0  0  0  0  0  0  0
   -2.4740   -2.2920    3.6040 H   0  0  0  0  0  0  0  0  0  0  0  0
   -2.8460    1.1810    4.2940 H   0  0  0  0  0  0  0  0  0  0  0  0
   -0.5900   -0.6730   -0.1080 N   0  0  0  0  0  0  0  0  0  0  0  0
   -1.8450    0.0010   -0.4330 C   0  0  0  0  0  0  0  0  0  0  0  0
   -1.4800    1.1950   -1.2870 C   0  0  0  0  0  0  0  0  0  0  0  0
   -0.0150    1.4010   -0.9910 C   0  0  0  0  0  0  0  0  0  0  0  0
    0.4470   -0.0540   -0.8390 C   0  0  1  0  0  0  0  0  0  0  0  0
    1.7990   -0.0740   -0.2400 C   0  0  0  0  0  0  0  0  0  0  0  0
    1.9900   -0.3620    0.9350 O   0  0  0  0  0  0  0  0  0  0  0  0
   -2.4630    0.2580    0.4200 H   0  0  0  0  0  0  0  0  0  0  0  0
   -2.3780   -0.7570   -1.1020 H   0  0  0  0  0  0  0  0  0  0  0  0
   -2.0980    2.0780   -1.0610 H   0  0  0  0  0  0  0  0  0  0  0  0
   -1.5440    0.9230   -2.3810 H   0  0  0  0  0  0  0  0  0  0  0  0
    0.0350    1.9200   -0.0080 H   0  0  0  0  0  0  0  0  0  0  0  0
    0.5320    1.9300   -1.7780 H   0  0  0  0  0  0  0  0  0  0  0  0
    0.4450   -0.4620   -1.8710 H   0  0  0  0  0  0  0  0  0  0  0  0
    2.9540    0.2470   -1.0200 N   0  0  0  0  0  0  0  0  0  0  0  0
    4.2890    0.2330   -0.4550 C   0  0  0  0  0  0  0  0  0  0  0  0
    4.5450   -1.1500    0.0320 C   0  0  0  0  0  0  0  0  0  0  0  0
    3.7130   -2.0840   -0.0620 O   0  0  0  0  0  0  0  0  0  0  0  0
    5.7670   -1.4330    0.6250 O   0  0  0  0  0  0  0  0  0  0  0  0
    2.8440    0.4980   -2.0160 H   0  0  0  0  0  0  0  0  0  0  0  0
    5.0530    0.4780   -1.2170 H   0  0  0  0  0  0  0  0  0  0  0  0
    4.3820    0.9020    0.4310 H   0  0  0  0  0  0  0  0  0  0  0  0
  1  9  1  0  0  0  0
  1 10  1  0  0  0  0
  2 11  1  6  0  0  0
  2  1  1  0  0  0  0
  2  3  1  0  0  0  0
  3  4  1  0  0  0  0
  3 12  1  0  0  0  0
  3 13  1  0  0  0  0
  4  8  1  0  0  0  0
  5  4  2  0  0  0  0
  6  7  2  0  0  0  0
  6  2  1  0  0  0  0
  8 14  1  0  0  0  0
 15  6  1  0  0  0  0
 16 15  1  0  0  0  0
 16 22  1  0  0  0  0
 17 24  1  0  0  0  0
 17 18  1  0  0  0  0
 17 16  1  0  0  0  0
 18 19  1  0  0  0  0
 18 26  1  0  0  0  0
 19 28  1  6  0  0  0
 19 20  1  0  0  0  0
 19 15  1  0  0  0  0
 20 21  2  0  0  0  0
 23 16  1  0  0  0  0
 25 17  1  0  0  0  0
 27 18  1  0  0  0  0
 29 30  1  0  0  0  0
 29 20  1  0  0  0  0
 30 31  1  0  0  0  0
 30 36  1  0  0  0  0
 31 33  1  0  0  0  0
 32 31  2  0  0  0  0
 34 29  1  0  0  0  0
 35 30  1  0  0  0  0
M  END
$$$$
