DPH.pdb
 OpenBabel07022418153D

 46 47  0  0  1  0  0  0  0  0999 V2000
    2.6050   -3.7320    2.1870 N   0  0  0  0  0  0  0  0  0  0  0  0
    2.4300   -2.2760    2.2960 C   0  0  1  0  0  0  0  0  0  0  0  0
    3.3760   -1.8550    3.4060 C   0  0  0  0  0  0  0  0  0  0  0  0
    2.9650   -2.5690    4.6420 C   0  0  0  0  0  0  0  0  0  0  0  0
    3.5780   -2.4140    5.7410 O   0  0  0  0  0  0  0  0  0  0  0  0
    2.7150   -1.6090    1.0130 C   0  0  0  0  0  0  0  0  0  0  0  0
    3.2800   -2.3050    0.1280 O   0  0  0  0  0  0  0  0  0  0  0  0
    1.8890   -3.4420    4.6500 O   0  0  0  0  0  0  0  0  0  0  0  0
    2.6090   -3.9360    1.1430 H   0  0  0  0  0  0  0  0  0  0  0  0
    3.4740   -4.0620    2.6190 H   0  0  0  0  0  0  0  0  0  0  0  0
    1.3770   -2.0830    2.5620 H   0  0  0  0  0  0  0  0  0  0  0  0
    3.5190   -0.7870    3.5160 H   0  0  0  0  0  0  0  0  0  0  0  0
    4.4010   -2.2590    3.1350 H   0  0  0  0  0  0  0  0  0  0  0  0
    1.5450   -3.9050    5.4710 H   0  0  0  0  0  0  0  0  0  0  0  0
    2.3690   -0.2520    0.7840 N   0  0  0  0  0  0  0  0  0  0  0  0
    2.6810    0.4170   -0.4980 C   0  0  0  0  0  0  0  0  0  0  0  0
    2.6640    1.8830   -0.2300 C   0  0  0  0  0  0  0  0  0  0  0  0
    2.2760    2.0700    1.2200 C   0  0  0  0  0  0  0  0  0  0  0  0
    1.7000    0.7140    1.5950 C   0  0  1  0  0  0  0  0  0  0  0  0
    0.2320    0.7470    1.3660 C   0  0  0  0  0  0  0  0  0  0  0  0
   -0.4240    1.5890    2.0370 O   0  0  0  0  0  0  0  0  0  0  0  0
    2.0110    0.0680   -1.2840 H   0  0  0  0  0  0  0  0  0  0  0  0
    3.7250    0.1160   -0.7390 H   0  0  0  0  0  0  0  0  0  0  0  0
    1.8830    2.3350   -0.9020 H   0  0  0  0  0  0  0  0  0  0  0  0
    3.6120    2.3990   -0.4860 H   0  0  0  0  0  0  0  0  0  0  0  0
    1.5510    2.8830    1.3750 H   0  0  0  0  0  0  0  0  0  0  0  0
    3.2100    2.2860    1.7750 H   0  0  0  0  0  0  0  0  0  0  0  0
    1.8290    0.6040    2.6850 H   0  0  0  0  0  0  0  0  0  0  0  0
   -0.4440   -0.0900    0.4640 N   0  0  0  0  0  0  0  0  0  0  0  0
   -1.8920    0.0070    0.2980 C   0  0  1  0  0  0  0  0  0  0  0  0
   -2.2370    0.3870   -1.1120 C   0  0  0  0  0  0  0  0  0  0  0  0
   -3.6830    0.5020   -1.3560 C   0  0  0  0  0  0  0  0  0  0  0  0
   -4.5860   -0.4420   -1.7910 C   0  0  0  0  0  0  0  0  0  0  0  0
   -5.8020    0.0990   -1.8850 N   0  0  0  0  0  0  0  0  0  0  0  0
   -5.6680    1.3800   -1.5110 C   0  0  0  0  0  0  0  0  0  0  0  0
   -4.3960    1.6440   -1.1870 N   0  0  0  0  0  0  0  0  0  0  0  0
   -2.5270   -1.2490    0.6890 C   0  0  0  0  0  0  0  0  0  0  0  0
   -1.8070   -2.2220    1.0700 O   0  0  0  0  0  0  0  0  0  0  0  0
   -3.8830   -1.4390    0.6700 O   0  0  0  0  0  0  0  0  0  0  0  0
    0.1250   -0.7780   -0.0760 H   0  0  0  0  0  0  0  0  0  0  0  0
   -2.2710    0.8060    0.9770 H   0  0  0  0  0  0  0  0  0  0  0  0
   -1.7840   -0.3900   -1.7750 H   0  0  0  0  0  0  0  0  0  0  0  0
   -1.7570    1.3460   -1.4200 H   0  0  0  0  0  0  0  0  0  0  0  0
   -4.3360   -1.4660   -2.0220 H   0  0  0  0  0  0  0  0  0  0  0  0
   -6.6680   -0.3950   -2.1900 H   0  0  0  0  0  0  0  0  0  0  0  0
   -6.5320    2.0570   -1.4980 H   0  0  0  0  0  0  0  0  0  0  0  0
  1  2  1  0  0  0  0
  1 10  1  0  0  0  0
  2 11  1  1  0  0  0
  2  3  1  0  0  0  0
  3 12  1  0  0  0  0
  3  4  1  0  0  0  0
  4  8  1  0  0  0  0
  4  5  2  0  0  0  0
  6  2  1  0  0  0  0
  7  6  2  0  0  0  0
  8 14  1  0  0  0  0
  9  1  1  0  0  0  0
 13  3  1  0  0  0  0
 15  6  1  0  0  0  0
 15 19  1  0  0  0  0
 16 17  1  0  0  0  0
 16 15  1  0  0  0  0
 17 18  1  0  0  0  0
 18 26  1  0  0  0  0
 18 19  1  0  0  0  0
 18 27  1  0  0  0  0
 19 28  1  1  0  0  0
 20 19  1  0  0  0  0
 20 21  2  0  0  0  0
 22 16  1  0  0  0  0
 23 16  1  0  0  0  0
 24 17  1  0  0  0  0
 25 17  1  0  0  0  0
 29 20  1  0  0  0  0
 30 29  1  0  0  0  0
 30 37  1  0  0  0  0
 30 41  1  1  0  0  0
 31 30  1  0  0  0  0
 32 36  1  0  0  0  0
 32 31  1  0  0  0  0
 33 32  2  0  0  0  0
 34 33  1  0  0  0  0
 34 35  1  0  0  0  0
 35 46  1  0  0  0  0
 35 36  2  0  0  0  0
 37 38  1  0  0  0  0
 39 37  2  0  0  0  0
 40 29  1  0  0  0  0
 42 31  1  0  0  0  0
 43 31  1  0  0  0  0
 44 33  1  0  0  0  0
 45 34  1  0  0  0  0
M  END
$$$$
