DPL.pdb
 OpenBabel07022418153D

 48 48  0  0  1  0  0  0  0  0999 V2000
    1.4810   -3.4310   -1.3810 N   0  0  0  0  0  0  0  0  0  0  0  0
    1.7960   -3.3470    0.0270 C   0  0  1  0  0  0  0  0  0  0  0  0
    3.1360   -4.0540    0.2300 C   0  0  0  0  0  0  0  0  0  0  0  0
    3.5760   -4.0400    1.6390 C   0  0  0  0  0  0  0  0  0  0  0  0
    4.1830   -3.0410    2.0950 O   0  0  0  0  0  0  0  0  0  0  0  0
    1.9120   -1.9470    0.4860 C   0  0  0  0  0  0  0  0  0  0  0  0
    1.9580   -1.7150    1.7440 O   0  0  0  0  0  0  0  0  0  0  0  0
    3.3410   -5.1050    2.4930 O   0  0  0  0  0  0  0  0  0  0  0  0
    1.9980   -4.2430   -1.8250 H   0  0  0  0  0  0  0  0  0  0  0  0
    0.4680   -3.6550   -1.5570 H   0  0  0  0  0  0  0  0  0  0  0  0
    1.0200   -3.9060    0.5970 H   0  0  0  0  0  0  0  0  0  0  0  0
    3.8550   -3.5260   -0.4600 H   0  0  0  0  0  0  0  0  0  0  0  0
    3.0700   -5.0970   -0.1300 H   0  0  0  0  0  0  0  0  0  0  0  0
    3.7350   -5.0670    3.4390 H   0  0  0  0  0  0  0  0  0  0  0  0
    1.9770   -0.8270   -0.3800 N   0  0  0  0  0  0  0  0  0  0  0  0
    2.0030   -0.7640   -1.8340 C   0  0  0  0  0  0  0  0  0  0  0  0
    2.8260    0.5210   -2.0400 C   0  0  0  0  0  0  0  0  0  0  0  0
    2.1400    1.4490   -1.0710 C   0  0  0  0  0  0  0  0  0  0  0  0
    2.0020    0.5520    0.1320 C   0  0  1  0  0  0  0  0  0  0  0  0
    0.7870    0.8560    0.9190 C   0  0  0  0  0  0  0  0  0  0  0  0
    0.7490    1.9540    1.5380 O   0  0  0  0  0  0  0  0  0  0  0  0
    0.9870   -0.6510   -2.2190 H   0  0  0  0  0  0  0  0  0  0  0  0
    2.5690   -1.6260   -2.2580 H   0  0  0  0  0  0  0  0  0  0  0  0
    2.7650    0.8540   -3.0910 H   0  0  0  0  0  0  0  0  0  0  0  0
    3.8560    0.2760   -1.7060 H   0  0  0  0  0  0  0  0  0  0  0  0
    1.1500    1.7400   -1.4910 H   0  0  0  0  0  0  0  0  0  0  0  0
    2.7960    2.3140   -0.8990 H   0  0  0  0  0  0  0  0  0  0  0  0
    2.9120    0.6400    0.7410 H   0  0  0  0  0  0  0  0  0  0  0  0
   -5.1250    1.2230    0.8280 C   0  0  0  0  0  0  0  0  0  0  0  0
   -3.9410    1.0250    1.7870 C   0  0  0  0  0  0  0  0  0  0  0  0
   -3.7670    2.2710    2.5870 C   0  0  0  0  0  0  0  0  0  0  0  0
   -2.7190    0.6190    1.0110 C   0  0  0  0  0  0  0  0  0  0  0  0
   -1.5120    0.4150    1.8500 C   0  0  2  0  0  0  0  0  0  0  0  0
   -0.3500    0.0270    1.0450 N   0  0  0  0  0  0  0  0  0  0  0  0
   -1.6850   -0.6150    2.8870 C   0  0  0  0  0  0  0  0  0  0  0  0
   -0.9420   -1.6550    2.9230 O   0  0  0  0  0  0  0  0  0  0  0  0
   -2.6350   -0.5600    3.8890 O   0  0  0  0  0  0  0  0  0  0  0  0
   -5.9030    0.4740    1.0100 H   0  0  0  0  0  0  0  0  0  0  0  0
   -5.5770    2.2250    0.9560 H   0  0  0  0  0  0  0  0  0  0  0  0
   -4.7430    1.1870   -0.2280 H   0  0  0  0  0  0  0  0  0  0  0  0
   -4.2190    0.1850    2.4680 H   0  0  0  0  0  0  0  0  0  0  0  0
   -3.4380    2.1050    3.6400 H   0  0  0  0  0  0  0  0  0  0  0  0
   -4.7790    2.7630    2.6750 H   0  0  0  0  0  0  0  0  0  0  0  0
   -3.1190    3.0250    2.0930 H   0  0  0  0  0  0  0  0  0  0  0  0
   -2.5480    1.2950    0.1430 H   0  0  0  0  0  0  0  0  0  0  0  0
   -2.9830   -0.3670    0.5250 H   0  0  0  0  0  0  0  0  0  0  0  0
   -1.3140    1.3810    2.3710 H   0  0  0  0  0  0  0  0  0  0  0  0
   -0.3390   -0.8810    0.5370 H   0  0  0  0  0  0  0  0  0  0  0  0
  1  2  1  0  0  0  0
  2  3  1  0  0  0  0
  2  6  1  0  0  0  0
  2 11  1  1  0  0  0
  3  4  1  0  0  0  0
  4  5  2  0  0  0  0
  4  8  1  0  0  0  0
  6  7  2  0  0  0  0
  8 14  1  0  0  0  0
  9  1  1  0  0  0  0
 10  1  1  0  0  0  0
 12  3  1  0  0  0  0
 13  3  1  0  0  0  0
 15 19  1  0  0  0  0
 15  6  1  0  0  0  0
 16 15  1  0  0  0  0
 17 16  1  0  0  0  0
 17 25  1  0  0  0  0
 17 18  1  0  0  0  0
 18 27  1  0  0  0  0
 18 19  1  0  0  0  0
 19 28  1  1  0  0  0
 19 20  1  0  0  0  0
 20 34  1  0  0  0  0
 20 21  2  0  0  0  0
 22 16  1  0  0  0  0
 23 16  1  0  0  0  0
 24 17  1  0  0  0  0
 26 18  1  0  0  0  0
 29 39  1  0  0  0  0
 29 38  1  0  0  0  0
 29 30  1  0  0  0  0
 30 41  1  0  0  0  0
 30 31  1  0  0  0  0
 31 43  1  0  0  0  0
 31 42  1  0  0  0  0
 32 30  1  0  0  0  0
 32 33  1  0  0  0  0
 33 47  1  1  0  0  0
 33 35  1  0  0  0  0
 34 33  1  0  0  0  0
 35 36  2  0  0  0  0
 35 37  1  0  0  0  0
 40 29  1  0  0  0  0
 44 31  1  0  0  0  0
 45 32  1  0  0  0  0
 46 32  1  0  0  0  0
 48 34  1  0  0  0  0
M  END
$$$$
