DPM.pdb
 OpenBabel07022418153D

 46 46  0  0  1  0  0  0  0  0999 V2000
    0.9510   -3.8280    1.9380 N   0  0  0  0  0  0  0  0  0  0  0  0
    1.0840   -2.3720    2.0910 C   0  0  1  0  0  0  0  0  0  0  0  0
    1.2090   -2.1860    3.6050 C   0  0  0  0  0  0  0  0  0  0  0  0
    1.3450   -0.7810    4.0080 C   0  0  0  0  0  0  0  0  0  0  0  0
    2.4450   -0.2040    3.8320 O   0  0  0  0  0  0  0  0  0  0  0  0
    2.2850   -1.9110    1.3850 C   0  0  0  0  0  0  0  0  0  0  0  0
    3.3790   -2.2580    1.9860 O   0  0  0  0  0  0  0  0  0  0  0  0
    0.3160   -0.0650    4.5780 O   0  0  0  0  0  0  0  0  0  0  0  0
    0.3770   -4.2480    2.7020 H   0  0  0  0  0  0  0  0  0  0  0  0
    0.6970   -4.0950    0.9860 H   0  0  0  0  0  0  0  0  0  0  0  0
    0.1370   -1.9160    1.8080 H   0  0  0  0  0  0  0  0  0  0  0  0
    0.2970   -2.6560    4.0460 H   0  0  0  0  0  0  0  0  0  0  0  0
    2.0690   -2.7840    4.0020 H   0  0  0  0  0  0  0  0  0  0  0  0
    0.3190    0.9430    4.4740 H   0  0  0  0  0  0  0  0  0  0  0  0
    2.3540   -1.1660    0.1870 N   0  0  0  0  0  0  0  0  0  0  0  0
    3.6650   -0.7350   -0.3410 C   0  0  0  0  0  0  0  0  0  0  0  0
    3.5180   -1.0750   -1.7980 C   0  0  0  0  0  0  0  0  0  0  0  0
    2.0450   -1.1300   -2.0800 C   0  0  0  0  0  0  0  0  0  0  0  0
    1.4420   -0.6370   -0.7570 C   0  0  1  0  0  0  0  0  0  0  0  0
    0.0270   -1.0390   -0.6790 C   0  0  0  0  0  0  0  0  0  0  0  0
   -0.3680   -2.2120   -0.7550 O   0  0  0  0  0  0  0  0  0  0  0  0
    4.5020   -1.2530    0.1380 H   0  0  0  0  0  0  0  0  0  0  0  0
    3.7040    0.3830   -0.2030 H   0  0  0  0  0  0  0  0  0  0  0  0
    3.9100   -2.1060   -1.9250 H   0  0  0  0  0  0  0  0  0  0  0  0
    4.0500   -0.3580   -2.4670 H   0  0  0  0  0  0  0  0  0  0  0  0
    1.7870   -0.3780   -2.8530 H   0  0  0  0  0  0  0  0  0  0  0  0
    1.6900   -2.1540   -2.3180 H   0  0  0  0  0  0  0  0  0  0  0  0
    1.5440    0.4600   -0.7690 H   0  0  0  0  0  0  0  0  0  0  0  0
   -1.6970    3.3860    1.7760 C   0  0  0  0  0  0  0  0  0  0  0  0
   -3.0510    2.1520    1.6900 S   0  0  0  0  0  0  0  0  0  0  0  0
   -2.3810    0.5280    1.9690 C   0  0  0  0  0  0  0  0  0  0  0  0
   -2.7580   -0.5550    1.0350 C   0  0  0  0  0  0  0  0  0  0  0  0
   -2.3680   -0.2550   -0.4240 C   0  0  2  0  0  0  0  0  0  0  0  0
   -0.9500   -0.0190   -0.5050 N   0  0  0  0  0  0  0  0  0  0  0  0
   -3.1470    0.9010   -0.8590 C   0  0  0  0  0  0  0  0  0  0  0  0
   -2.6670    1.9960   -1.2630 O   0  0  0  0  0  0  0  0  0  0  0  0
   -4.5520    0.8530   -0.8520 O   0  0  0  0  0  0  0  0  0  0  0  0
   -2.0480    4.3190    2.2730 H   0  0  0  0  0  0  0  0  0  0  0  0
   -0.8720    2.9170    2.3980 H   0  0  0  0  0  0  0  0  0  0  0  0
   -1.2910    3.5170    0.7720 H   0  0  0  0  0  0  0  0  0  0  0  0
   -2.5950    0.2420    3.0250 H   0  0  0  0  0  0  0  0  0  0  0  0
   -1.2570    0.6230    1.9130 H   0  0  0  0  0  0  0  0  0  0  0  0
   -3.8690   -0.6950    1.1080 H   0  0  0  0  0  0  0  0  0  0  0  0
   -2.3010   -1.5380    1.2840 H   0  0  0  0  0  0  0  0  0  0  0  0
   -2.6570   -1.1720   -1.0170 H   0  0  0  0  0  0  0  0  0  0  0  0
   -0.5870    0.9910   -0.4350 H   0  0  0  0  0  0  0  0  0  0  0  0
  1  2  1  0  0  0  0
  1  9  1  0  0  0  0
  2 11  1  6  0  0  0
  2  3  1  0  0  0  0
  3 13  1  0  0  0  0
  3  4  1  0  0  0  0
  3 12  1  0  0  0  0
  4  8  1  0  0  0  0
  5  4  2  0  0  0  0
  6  7  2  0  0  0  0
  6  2  1  0  0  0  0
 10  1  1  0  0  0  0
 14  8  1  0  0  0  0
 15  6  1  0  0  0  0
 16 23  1  0  0  0  0
 16 22  1  0  0  0  0
 16 15  1  0  0  0  0
 17 16  1  0  0  0  0
 18 17  1  0  0  0  0
 18 19  1  0  0  0  0
 19 28  1  1  0  0  0
 19 20  1  0  0  0  0
 19 15  1  0  0  0  0
 20 34  1  0  0  0  0
 21 20  2  0  0  0  0
 24 17  1  0  0  0  0
 25 17  1  0  0  0  0
 26 18  1  0  0  0  0
 27 18  1  0  0  0  0
 29 38  1  0  0  0  0
 29 39  1  0  0  0  0
 30 29  1  0  0  0  0
 30 31  1  0  0  0  0
 31 41  1  0  0  0  0
 32 43  1  0  0  0  0
 32 44  1  0  0  0  0
 32 31  1  0  0  0  0
 33 45  1  6  0  0  0
 33 32  1  0  0  0  0
 34 46  1  0  0  0  0
 34 33  1  0  0  0  0
 35 37  1  0  0  0  0
 35 33  1  0  0  0  0
 36 35  2  0  0  0  0
 40 29  1  0  0  0  0
 42 31  1  0  0  0  0
M  END
$$$$
