DPP.pdb
 OpenBabel07022418153D

 43 44  0  0  1  0  0  0  0  0999 V2000
    2.4580   -4.0640   -0.4260 N   0  0  0  0  0  0  0  0  0  0  0  0
    2.4100   -2.6370   -0.0300 C   0  0  1  0  0  0  0  0  0  0  0  0
    3.8570   -2.2410    0.3280 C   0  0  0  0  0  0  0  0  0  0  0  0
    3.9440   -0.8330    0.7290 C   0  0  0  0  0  0  0  0  0  0  0  0
    4.0870    0.0410   -0.1890 O   0  0  0  0  0  0  0  0  0  0  0  0
    1.9270   -1.8520   -1.1810 C   0  0  0  0  0  0  0  0  0  0  0  0
    2.2480   -2.3500   -2.3280 O   0  0  0  0  0  0  0  0  0  0  0  0
    3.8840   -0.3830    2.0290 O   0  0  0  0  0  0  0  0  0  0  0  0
    3.0510   -4.6010    0.2560 H   0  0  0  0  0  0  0  0  0  0  0  0
    1.4860   -4.4440   -0.2910 H   0  0  0  0  0  0  0  0  0  0  0  0
    1.7610   -2.4970    0.8220 H   0  0  0  0  0  0  0  0  0  0  0  0
    4.5250   -2.4990   -0.5300 H   0  0  0  0  0  0  0  0  0  0  0  0
    4.1510   -2.8750    1.2120 H   0  0  0  0  0  0  0  0  0  0  0  0
    3.5080    0.5290    2.2710 H   0  0  0  0  0  0  0  0  0  0  0  0
    1.1770   -0.6610   -1.1240 N   0  0  0  0  0  0  0  0  0  0  0  0
    0.7510    0.1260   -2.2410 C   0  0  0  0  0  0  0  0  0  0  0  0
    0.6190    1.5250   -1.7140 C   0  0  0  0  0  0  0  0  0  0  0  0
    0.9490    1.4200   -0.2280 C   0  0  0  0  0  0  0  0  0  0  0  0
    0.6630   -0.0420    0.0780 C   0  0  1  0  0  0  0  0  0  0  0  0
   -0.7960   -0.2130    0.2110 C   0  0  0  0  0  0  0  0  0  0  0  0
   -1.3440   -0.7830   -0.8300 O   0  0  0  0  0  0  0  0  0  0  0  0
    1.5130    0.1700   -3.0550 H   0  0  0  0  0  0  0  0  0  0  0  0
   -0.1660   -0.2360   -2.7480 H   0  0  0  0  0  0  0  0  0  0  0  0
    1.3280    2.2440   -2.1850 H   0  0  0  0  0  0  0  0  0  0  0  0
   -0.4010    1.9150   -1.8820 H   0  0  0  0  0  0  0  0  0  0  0  0
    0.1670    2.0130    0.3250 H   0  0  0  0  0  0  0  0  0  0  0  0
    1.9600    1.7370    0.0160 H   0  0  0  0  0  0  0  0  0  0  0  0
    1.1700   -0.4160    0.9680 H   0  0  0  0  0  0  0  0  0  0  0  0
   -1.6650    0.1250    1.2380 N   0  0  0  0  0  0  0  0  0  0  0  0
   -3.1560   -0.1730    1.0490 C   0  0  0  0  0  0  0  0  0  0  0  0
   -3.5840   -0.7040    2.3960 C   0  0  0  0  0  0  0  0  0  0  0  0
   -2.3710   -0.5180    3.2780 C   0  0  0  0  0  0  0  0  0  0  0  0
   -1.7180    0.6910    2.5250 C   0  0  1  0  0  0  0  0  0  0  0  0
   -0.6050    1.2040    3.2470 C   0  0  0  0  0  0  0  0  0  0  0  0
    0.5700    1.2010    2.8870 O   0  0  0  0  0  0  0  0  0  0  0  0
   -0.7970    1.8040    4.5340 O   0  0  0  0  0  0  0  0  0  0  0  0
   -3.2950   -0.8900    0.2510 H   0  0  0  0  0  0  0  0  0  0  0  0
   -3.5720    0.8270    0.8360 H   0  0  0  0  0  0  0  0  0  0  0  0
   -3.9280   -1.7550    2.3430 H   0  0  0  0  0  0  0  0  0  0  0  0
   -4.3880   -0.0370    2.8190 H   0  0  0  0  0  0  0  0  0  0  0  0
   -2.5960   -0.2480    4.3060 H   0  0  0  0  0  0  0  0  0  0  0  0
   -1.7310   -1.4150    3.1520 H   0  0  0  0  0  0  0  0  0  0  0  0
   -2.6100    1.4290    2.5330 H   0  0  0  0  0  0  0  0  0  0  0  0
  1 10  1  0  0  0  0
  1  2  1  0  0  0  0
  1  9  1  0  0  0  0
  2  3  1  0  0  0  0
  2 11  1  1  0  0  0
  3  4  1  0  0  0  0
  3 13  1  0  0  0  0
  4  8  1  0  0  0  0
  5  4  2  0  0  0  0
  6 15  1  0  0  0  0
  6  2  1  0  0  0  0
  7  6  2  0  0  0  0
  8 14  1  0  0  0  0
 12  3  1  0  0  0  0
 15 19  1  0  0  0  0
 16 17  1  0  0  0  0
 16 15  1  0  0  0  0
 17 18  1  0  0  0  0
 18 27  1  0  0  0  0
 18 19  1  0  0  0  0
 18 26  1  0  0  0  0
 19 20  1  0  0  0  0
 19 28  1  1  0  0  0
 20 29  1  0  0  0  0
 21 20  2  0  0  0  0
 22 16  1  0  0  0  0
 23 16  1  0  0  0  0
 24 17  1  0  0  0  0
 25 17  1  0  0  0  0
 29 33  1  0  0  0  0
 30 29  1  0  0  0  0
 30 31  1  0  0  0  0
 31 40  1  0  0  0  0
 31 32  1  0  0  0  0
 32 41  1  0  0  0  0
 33 43  1  6  0  0  0
 33 34  1  0  0  0  0
 33 32  1  0  0  0  0
 34 36  1  0  0  0  0
 35 34  2  0  0  0  0
 37 30  1  0  0  0  0
 38 30  1  0  0  0  0
 39 31  1  0  0  0  0
 42 32  1  0  0  0  0
M  END
$$$$
