DPQ.pdb
 OpenBabel07022418153D

 46 46  0  0  1  0  0  0  0  0999 V2000
    2.5440   -1.7060    1.9860 N   0  0  0  0  0  0  0  0  0  0  0  0
    1.6770   -1.0030    2.8830 C   0  0  1  0  0  0  0  0  0  0  0  0
    2.4980   -0.6060    4.0930 C   0  0  0  0  0  0  0  0  0  0  0  0
    3.0460   -1.8070    4.7590 C   0  0  0  0  0  0  0  0  0  0  0  0
    4.0960   -2.4080    4.4200 O   0  0  0  0  0  0  0  0  0  0  0  0
    1.0570    0.2150    2.3030 C   0  0  0  0  0  0  0  0  0  0  0  0
    0.1190    0.7680    2.9870 O   0  0  0  0  0  0  0  0  0  0  0  0
    2.3560   -2.3280    5.8510 O   0  0  0  0  0  0  0  0  0  0  0  0
    1.9920   -2.0430    1.1580 H   0  0  0  0  0  0  0  0  0  0  0  0
    2.8940   -2.5770    2.4530 H   0  0  0  0  0  0  0  0  0  0  0  0
    0.8440   -1.6290    3.2630 H   0  0  0  0  0  0  0  0  0  0  0  0
    1.8810   -0.0220    4.8200 H   0  0  0  0  0  0  0  0  0  0  0  0
    3.3590    0.0410    3.7980 H   0  0  0  0  0  0  0  0  0  0  0  0
    2.4960   -3.2820    6.1820 H   0  0  0  0  0  0  0  0  0  0  0  0
    1.3930    0.8240    1.0820 N   0  0  0  0  0  0  0  0  0  0  0  0
    2.4340    0.3720    0.1880 C   0  0  0  0  0  0  0  0  0  0  0  0
    2.8400    1.6260   -0.5830 C   0  0  0  0  0  0  0  0  0  0  0  0
    1.4940    2.2760   -0.7670 C   0  0  0  0  0  0  0  0  0  0  0  0
    0.7790    1.9770    0.5190 C   0  0  1  0  0  0  0  0  0  0  0  0
   -0.6550    1.7670    0.1810 C   0  0  0  0  0  0  0  0  0  0  0  0
   -1.2850    2.7700   -0.2420 O   0  0  0  0  0  0  0  0  0  0  0  0
    2.1030   -0.3840   -0.5460 H   0  0  0  0  0  0  0  0  0  0  0  0
    3.3730    0.0710    0.7230 H   0  0  0  0  0  0  0  0  0  0  0  0
    3.3220    1.3760   -1.5370 H   0  0  0  0  0  0  0  0  0  0  0  0
    3.4380    2.2860    0.0730 H   0  0  0  0  0  0  0  0  0  0  0  0
    1.5960    3.3860   -0.9350 H   0  0  0  0  0  0  0  0  0  0  0  0
    0.9310    1.8230   -1.6140 H   0  0  0  0  0  0  0  0  0  0  0  0
    0.8570    2.8770    1.1650 H   0  0  0  0  0  0  0  0  0  0  0  0
   -1.9370   -4.1370   -2.1520 N   0  0  0  0  0  0  0  0  0  0  0  0
   -2.4110   -2.7990   -2.1260 C   0  0  0  0  0  0  0  0  0  0  0  0
   -2.9670   -2.3750   -3.1690 O   0  0  0  0  0  0  0  0  0  0  0  0
   -2.2600   -1.9360   -0.9290 C   0  0  0  0  0  0  0  0  0  0  0  0
   -2.8650   -0.5820   -1.2230 C   0  0  0  0  0  0  0  0  0  0  0  0
   -2.7420    0.3550   -0.0380 C   0  0  2  0  0  0  0  0  0  0  0  0
   -1.3400    0.5460    0.2980 N   0  0  0  0  0  0  0  0  0  0  0  0
   -3.5320   -0.1960    1.0740 C   0  0  0  0  0  0  0  0  0  0  0  0
   -4.7410   -0.4020    0.9080 O   0  0  0  0  0  0  0  0  0  0  0  0
   -2.9320   -0.4790    2.2860 O   0  0  0  0  0  0  0  0  0  0  0  0
   -1.0050   -4.3120   -2.5790 H   0  0  0  0  0  0  0  0  0  0  0  0
   -2.4890   -4.9400   -1.7620 H   0  0  0  0  0  0  0  0  0  0  0  0
   -2.7830   -2.4090   -0.0740 H   0  0  0  0  0  0  0  0  0  0  0  0
   -1.1910   -1.8780   -0.6700 H   0  0  0  0  0  0  0  0  0  0  0  0
   -3.9450   -0.7220   -1.4210 H   0  0  0  0  0  0  0  0  0  0  0  0
   -2.3800   -0.1120   -2.0940 H   0  0  0  0  0  0  0  0  0  0  0  0
   -3.2230    1.3060   -0.3610 H   0  0  0  0  0  0  0  0  0  0  0  0
   -0.8320   -0.2830    0.6420 H   0  0  0  0  0  0  0  0  0  0  0  0
  1 10  1  0  0  0  0
  1  2  1  0  0  0  0
  2 11  1  1  0  0  0
  2  3  1  0  0  0  0
  3  4  1  0  0  0  0
  3 12  1  0  0  0  0
  4  8  1  0  0  0  0
  5  4  2  0  0  0  0
  6  2  1  0  0  0  0
  6  7  2  0  0  0  0
  8 14  1  0  0  0  0
  9  1  1  0  0  0  0
 13  3  1  0  0  0  0
 15  6  1  0  0  0  0
 16 23  1  0  0  0  0
 16 15  1  0  0  0  0
 17 25  1  0  0  0  0
 17 16  1  0  0  0  0
 18 17  1  0  0  0  0
 18 19  1  0  0  0  0
 19 15  1  0  0  0  0
 19 28  1  1  0  0  0
 20 35  1  0  0  0  0
 20 19  1  0  0  0  0
 21 20  2  0  0  0  0
 22 16  1  0  0  0  0
 24 17  1  0  0  0  0
 26 18  1  0  0  0  0
 27 18  1  0  0  0  0
 29 30  1  0  0  0  0
 29 40  1  0  0  0  0
 30 32  1  0  0  0  0
 31 30  2  0  0  0  0
 32 42  1  0  0  0  0
 32 41  1  0  0  0  0
 33 32  1  0  0  0  0
 33 34  1  0  0  0  0
 34 45  1  6  0  0  0
 34 35  1  0  0  0  0
 34 36  1  0  0  0  0
 35 46  1  0  0  0  0
 36 38  1  0  0  0  0
 37 36  2  0  0  0  0
 39 29  1  0  0  0  0
 43 33  1  0  0  0  0
 44 33  1  0  0  0  0
M  END
$$$$
