DPR.pdb
 OpenBabel07022418153D

 52 52  0  0  1  0  0  0  0  0999 V2000
    1.5380   -1.8470    3.4920 N   0  0  0  0  0  0  0  0  0  0  0  0
    1.0050   -0.5160    3.1360 C   0  0  1  0  0  0  0  0  0  0  0  0
    1.0920    0.3170    4.3860 C   0  0  0  0  0  0  0  0  0  0  0  0
    2.4530    0.4710    4.8960 C   0  0  0  0  0  0  0  0  0  0  0  0
    3.4740   -0.0310    4.3660 O   0  0  0  0  0  0  0  0  0  0  0  0
    1.6900    0.0310    1.9680 C   0  0  0  0  0  0  0  0  0  0  0  0
    2.7350   -0.6140    1.5990 O   0  0  0  0  0  0  0  0  0  0  0  0
    2.6400    1.2240    6.0470 O   0  0  0  0  0  0  0  0  0  0  0  0
    0.8120   -2.3590    4.0690 H   0  0  0  0  0  0  0  0  0  0  0  0
    1.6570   -2.3330    2.5560 H   0  0  0  0  0  0  0  0  0  0  0  0
   -0.0590   -0.6690    2.8990 H   0  0  0  0  0  0  0  0  0  0  0  0
    0.5450    1.2450    4.3040 H   0  0  0  0  0  0  0  0  0  0  0  0
    0.5340   -0.2860    5.1680 H   0  0  0  0  0  0  0  0  0  0  0  0
    3.5220    1.7000    6.2480 H   0  0  0  0  0  0  0  0  0  0  0  0
    1.3350    1.1710    1.2130 N   0  0  0  0  0  0  0  0  0  0  0  0
    2.0890    1.6540    0.0890 C   0  0  0  0  0  0  0  0  0  0  0  0
    1.1120    2.4370   -0.7340 C   0  0  0  0  0  0  0  0  0  0  0  0
    0.3790    3.1820    0.3990 C   0  0  0  0  0  0  0  0  0  0  0  0
    0.1970    2.0310    1.4080 C   0  0  1  0  0  0  0  0  0  0  0  0
   -1.0900    1.3970    1.0150 C   0  0  0  0  0  0  0  0  0  0  0  0
   -2.1410    2.0600    1.1980 O   0  0  0  0  0  0  0  0  0  0  0  0
    2.9160    2.3270    0.4110 H   0  0  0  0  0  0  0  0  0  0  0  0
    2.5060    0.8350   -0.5340 H   0  0  0  0  0  0  0  0  0  0  0  0
    1.5810    3.1330   -1.4330 H   0  0  0  0  0  0  0  0  0  0  0  0
    0.4070    1.7310   -1.2140 H   0  0  0  0  0  0  0  0  0  0  0  0
    1.0930    3.9400    0.7630 H   0  0  0  0  0  0  0  0  0  0  0  0
   -0.5700    3.6060    0.0830 H   0  0  0  0  0  0  0  0  0  0  0  0
    0.1530    2.5340    2.3860 H   0  0  0  0  0  0  0  0  0  0  0  0
    0.6670   -5.6320   -3.0380 N   0  0  0  0  0  0  0  0  0  0  0  0
   -0.3440   -4.9550   -2.3050 C   0  0  0  0  0  0  0  0  0  0  0  0
   -1.0620   -5.5820   -1.4430 N   0  0  0  0  0  0  0  0  0  0  0  0
   -0.6020   -3.5620   -2.4940 N   0  0  0  0  0  0  0  0  0  0  0  0
   -1.6060   -2.8630   -1.7110 C   0  0  0  0  0  0  0  0  0  0  0  0
   -1.6590   -1.4250   -2.1190 C   0  0  0  0  0  0  0  0  0  0  0  0
   -2.6500   -0.5840   -1.4080 C   0  0  0  0  0  0  0  0  0  0  0  0
   -2.4910   -0.4640    0.0720 C   0  0  2  0  0  0  0  0  0  0  0  0
   -1.2090    0.1040    0.4480 N   0  0  0  0  0  0  0  0  0  0  0  0
   -2.8470   -1.6700    0.8390 C   0  0  0  0  0  0  0  0  0  0  0  0
   -3.9220   -2.2500    0.5570 O   0  0  0  0  0  0  0  0  0  0  0  0
   -2.0510   -2.1760    1.8430 O   0  0  0  0  0  0  0  0  0  0  0  0
    1.4590   -6.1110   -2.5730 H   0  0  0  0  0  0  0  0  0  0  0  0
    0.5990   -5.6400   -4.0720 H   0  0  0  0  0  0  0  0  0  0  0  0
   -1.7930   -5.0690   -0.9200 H   0  0  0  0  0  0  0  0  0  0  0  0
   -0.0700   -3.0380   -3.1950 H   0  0  0  0  0  0  0  0  0  0  0  0
   -2.5730   -3.3750   -1.9140 H   0  0  0  0  0  0  0  0  0  0  0  0
   -1.3520   -2.9750   -0.6440 H   0  0  0  0  0  0  0  0  0  0  0  0
   -0.6530   -0.9510   -2.1180 H   0  0  0  0  0  0  0  0  0  0  0  0
   -1.9550   -1.4120   -3.2100 H   0  0  0  0  0  0  0  0  0  0  0  0
   -2.5790    0.4510   -1.8330 H   0  0  0  0  0  0  0  0  0  0  0  0
   -3.6830   -0.9110   -1.6510 H   0  0  0  0  0  0  0  0  0  0  0  0
   -3.2710    0.3150    0.3860 H   0  0  0  0  0  0  0  0  0  0  0  0
   -0.3340   -0.4350    0.3070 H   0  0  0  0  0  0  0  0  0  0  0  0
  1  9  1  0  0  0  0
  2 11  1  6  0  0  0
  2  1  1  0  0  0  0
  2  3  1  0  0  0  0
  3  4  1  0  0  0  0
  3 13  1  0  0  0  0
  4  8  1  0  0  0  0
  5  4  2  0  0  0  0
  6  2  1  0  0  0  0
  7  6  2  0  0  0  0
  8 14  1  0  0  0  0
 10  1  1  0  0  0  0
 12  3  1  0  0  0  0
 15 19  1  0  0  0  0
 15  6  1  0  0  0  0
 16 22  1  0  0  0  0
 16 15  1  0  0  0  0
 17 16  1  0  0  0  0
 17 18  1  0  0  0  0
 18 26  1  0  0  0  0
 18 19  1  0  0  0  0
 19 28  1  1  0  0  0
 20 21  2  0  0  0  0
 20 19  1  0  0  0  0
 23 16  1  0  0  0  0
 24 17  1  0  0  0  0
 25 17  1  0  0  0  0
 27 18  1  0  0  0  0
 29 41  1  0  0  0  0
 29 30  1  0  0  0  0
 30 31  2  0  0  0  0
 31 43  1  0  0  0  0
 32 30  1  0  0  0  0
 32 33  1  0  0  0  0
 33 46  1  0  0  0  0
 34 47  1  0  0  0  0
 34 33  1  0  0  0  0
 34 35  1  0  0  0  0
 35 36  1  0  0  0  0
 36 51  1  1  0  0  0
 36 37  1  0  0  0  0
 36 38  1  0  0  0  0
 37 20  1  0  0  0  0
 38 40  1  0  0  0  0
 39 38  2  0  0  0  0
 42 29  1  0  0  0  0
 44 32  1  0  0  0  0
 45 33  1  0  0  0  0
 48 34  1  0  0  0  0
 49 35  1  0  0  0  0
 50 35  1  0  0  0  0
 52 37  1  0  0  0  0
M  END
$$$$
