DPS.pdb
 OpenBabel07022418153D

 40 40  0  0  1  0  0  0  0  0999 V2000
    0.1090   -4.3070   -0.6350 N   0  0  0  0  0  0  0  0  0  0  0  0
   -0.0950   -2.9250   -0.9640 C   0  0  1  0  0  0  0  0  0  0  0  0
   -1.4360   -2.5090   -0.3840 C   0  0  0  0  0  0  0  0  0  0  0  0
   -1.4530   -2.6850    1.0760 C   0  0  0  0  0  0  0  0  0  0  0  0
   -0.4420   -3.1400    1.6490 O   0  0  0  0  0  0  0  0  0  0  0  0
    1.0190   -2.0920   -0.4560 C   0  0  0  0  0  0  0  0  0  0  0  0
    1.9290   -2.6480    0.2060 O   0  0  0  0  0  0  0  0  0  0  0  0
   -2.5710   -2.3510    1.8090 O   0  0  0  0  0  0  0  0  0  0  0  0
   -0.7230   -4.7870   -0.2650 H   0  0  0  0  0  0  0  0  0  0  0  0
    0.9860   -4.5150   -0.1490 H   0  0  0  0  0  0  0  0  0  0  0  0
   -0.1260   -2.8640   -2.0820 H   0  0  0  0  0  0  0  0  0  0  0  0
   -2.1880   -3.2440   -0.7990 H   0  0  0  0  0  0  0  0  0  0  0  0
   -1.7820   -1.5290   -0.7040 H   0  0  0  0  0  0  0  0  0  0  0  0
   -2.7160   -2.8290    2.7060 H   0  0  0  0  0  0  0  0  0  0  0  0
    1.0930   -0.6980   -0.6930 N   0  0  0  0  0  0  0  0  0  0  0  0
    0.1350    0.1220   -1.4270 C   0  0  0  0  0  0  0  0  0  0  0  0
    0.8990    1.2660   -2.0260 C   0  0  0  0  0  0  0  0  0  0  0  0
    2.2070    1.2880   -1.2980 C   0  0  0  0  0  0  0  0  0  0  0  0
    2.1500    0.1710   -0.2570 C   0  0  1  0  0  0  0  0  0  0  0  0
    1.9910    0.7100    1.0990 C   0  0  0  0  0  0  0  0  0  0  0  0
    2.8580    1.5230    1.5500 O   0  0  0  0  0  0  0  0  0  0  0  0
   -0.6310    0.5680   -0.7530 H   0  0  0  0  0  0  0  0  0  0  0  0
   -0.3370   -0.4280   -2.2640 H   0  0  0  0  0  0  0  0  0  0  0  0
    0.3820    2.2540   -1.8840 H   0  0  0  0  0  0  0  0  0  0  0  0
    1.0470    1.1680   -3.1180 H   0  0  0  0  0  0  0  0  0  0  0  0
    3.0350    1.1180   -2.0270 H   0  0  0  0  0  0  0  0  0  0  0  0
    2.4200    2.2700   -0.8310 H   0  0  0  0  0  0  0  0  0  0  0  0
    3.1030   -0.3970   -0.3650 H   0  0  0  0  0  0  0  0  0  0  0  0
   -0.6580    2.7110    2.5520 O   0  0  0  0  0  0  0  0  0  0  0  0
   -0.5910    1.6080    3.3630 C   0  0  0  0  0  0  0  0  0  0  0  0
    0.6860    0.8270    3.2090 C   0  0  2  0  0  0  0  0  0  0  0  0
    0.8940    0.3320    1.8860 N   0  0  0  0  0  0  0  0  0  0  0  0
    0.7650   -0.2710    4.1770 C   0  0  0  0  0  0  0  0  0  0  0  0
    0.9970   -1.4310    3.7760 O   0  0  0  0  0  0  0  0  0  0  0  0
    0.5880   -0.0540    5.5310 O   0  0  0  0  0  0  0  0  0  0  0  0
    0.0770    3.3400    2.6310 H   0  0  0  0  0  0  0  0  0  0  0  0
   -1.4930    0.9830    3.1630 H   0  0  0  0  0  0  0  0  0  0  0  0
   -0.6730    1.9020    4.4350 H   0  0  0  0  0  0  0  0  0  0  0  0
    1.5180    1.5650    3.4220 H   0  0  0  0  0  0  0  0  0  0  0  0
    0.1970   -0.3380    1.4950 H   0  0  0  0  0  0  0  0  0  0  0  0
  1  9  1  0  0  0  0
  1 10  1  0  0  0  0
  2 11  1  6  0  0  0
  2  1  1  0  0  0  0
  2  6  1  0  0  0  0
  2  3  1  0  0  0  0
  3  4  1  0  0  0  0
  4  5  2  0  0  0  0
  4  8  1  0  0  0  0
  6  7  2  0  0  0  0
  8 14  1  0  0  0  0
 12  3  1  0  0  0  0
 13  3  1  0  0  0  0
 15  6  1  0  0  0  0
 15 19  1  0  0  0  0
 16 22  1  0  0  0  0
 16 15  1  0  0  0  0
 17 24  1  0  0  0  0
 17 16  1  0  0  0  0
 17 18  1  0  0  0  0
 18 27  1  0  0  0  0
 18 19  1  0  0  0  0
 19 28  1  6  0  0  0
 19 20  1  0  0  0  0
 20 21  2  0  0  0  0
 20 32  1  0  0  0  0
 23 16  1  0  0  0  0
 25 17  1  0  0  0  0
 26 18  1  0  0  0  0
 29 36  1  0  0  0  0
 29 30  1  0  0  0  0
 30 38  1  0  0  0  0
 31 30  1  0  0  0  0
 31 39  1  1  0  0  0
 31 33  1  0  0  0  0
 32 31  1  0  0  0  0
 33 35  1  0  0  0  0
 34 33  2  0  0  0  0
 37 30  1  0  0  0  0
 40 32  1  0  0  0  0
M  END
$$$$
