DPV.pdb
 OpenBabel07022418153D

 45 45  0  0  1  0  0  0  0  0999 V2000
   -0.2190   -3.5780   -1.2510 N   0  0  0  0  0  0  0  0  0  0  0  0
    0.7030   -2.6600   -0.5590 C   0  0  1  0  0  0  0  0  0  0  0  0
    2.0160   -3.4120   -0.4960 C   0  0  0  0  0  0  0  0  0  0  0  0
    1.8100   -4.6750    0.2600 C   0  0  0  0  0  0  0  0  0  0  0  0
    2.7710   -5.4720    0.4440 O   0  0  0  0  0  0  0  0  0  0  0  0
    0.7700   -1.3810   -1.2640 C   0  0  0  0  0  0  0  0  0  0  0  0
    0.2120   -1.3350   -2.4130 O   0  0  0  0  0  0  0  0  0  0  0  0
    0.5580   -4.9790    0.7660 O   0  0  0  0  0  0  0  0  0  0  0  0
    0.2210   -4.4640   -1.5120 H   0  0  0  0  0  0  0  0  0  0  0  0
   -0.6110   -3.0810   -2.0910 H   0  0  0  0  0  0  0  0  0  0  0  0
    0.2900   -2.4970    0.4490 H   0  0  0  0  0  0  0  0  0  0  0  0
    2.8180   -2.8650   -0.0180 H   0  0  0  0  0  0  0  0  0  0  0  0
    2.3700   -3.6750   -1.5280 H   0  0  0  0  0  0  0  0  0  0  0  0
    0.3460   -5.8230    1.2620 H   0  0  0  0  0  0  0  0  0  0  0  0
    1.3900   -0.1880   -0.8000 N   0  0  0  0  0  0  0  0  0  0  0  0
    1.4100    1.0190   -1.6060 C   0  0  0  0  0  0  0  0  0  0  0  0
    1.5930    2.1130   -0.5850 C   0  0  0  0  0  0  0  0  0  0  0  0
    2.6290    1.4370    0.3220 C   0  0  0  0  0  0  0  0  0  0  0  0
    2.0550    0.0340    0.4680 C   0  0  1  0  0  0  0  0  0  0  0  0
    1.1510    0.0880    1.6250 C   0  0  0  0  0  0  0  0  0  0  0  0
    1.7060    0.2380    2.7560 O   0  0  0  0  0  0  0  0  0  0  0  0
    2.2690    1.0050   -2.3300 H   0  0  0  0  0  0  0  0  0  0  0  0
    0.4530    1.1370   -2.1750 H   0  0  0  0  0  0  0  0  0  0  0  0
    0.6370    2.2450   -0.0580 H   0  0  0  0  0  0  0  0  0  0  0  0
    1.9890    3.0410   -1.0310 H   0  0  0  0  0  0  0  0  0  0  0  0
    3.6030    1.4430   -0.1970 H   0  0  0  0  0  0  0  0  0  0  0  0
    2.7220    1.9690    1.2700 H   0  0  0  0  0  0  0  0  0  0  0  0
    2.9100   -0.6200    0.6640 H   0  0  0  0  0  0  0  0  0  0  0  0
   -2.8640    1.4160    1.6030 C   0  0  0  0  0  0  0  0  0  0  0  0
   -1.9480    1.3090    2.7780 C   0  0  0  0  0  0  0  0  0  0  0  0
   -1.0690    2.5350    2.8440 C   0  0  0  0  0  0  0  0  0  0  0  0
   -1.1000    0.0530    2.7510 C   0  0  2  0  0  0  0  0  0  0  0  0
   -0.2660   -0.0110    1.5810 N   0  0  0  0  0  0  0  0  0  0  0  0
   -1.9020   -1.1540    3.0040 C   0  0  0  0  0  0  0  0  0  0  0  0
   -2.6520   -1.1950    3.9960 O   0  0  0  0  0  0  0  0  0  0  0  0
   -1.8300   -2.2320    2.1580 O   0  0  0  0  0  0  0  0  0  0  0  0
   -3.8830    0.9920    1.8340 H   0  0  0  0  0  0  0  0  0  0  0  0
   -2.5150    0.8930    0.7020 H   0  0  0  0  0  0  0  0  0  0  0  0
   -3.0360    2.4830    1.3410 H   0  0  0  0  0  0  0  0  0  0  0  0
   -2.5630    1.3080    3.7010 H   0  0  0  0  0  0  0  0  0  0  0  0
   -1.6760    3.3450    3.3110 H   0  0  0  0  0  0  0  0  0  0  0  0
   -0.7670    2.8980    1.8540 H   0  0  0  0  0  0  0  0  0  0  0  0
   -0.2030    2.3170    3.4920 H   0  0  0  0  0  0  0  0  0  0  0  0
   -0.3990    0.1700    3.6300 H   0  0  0  0  0  0  0  0  0  0  0  0
   -0.6790   -0.1360    0.6190 H   0  0  0  0  0  0  0  0  0  0  0  0
  1  2  1  0  0  0  0
  2  3  1  0  0  0  0
  2 11  1  1  0  0  0
  3 12  1  0  0  0  0
  3  4  1  0  0  0  0
  4  5  2  0  0  0  0
  4  8  1  0  0  0  0
  6 15  1  0  0  0  0
  6  2  1  0  0  0  0
  7  6  2  0  0  0  0
  8 14  1  0  0  0  0
  9  1  1  0  0  0  0
 10  1  1  0  0  0  0
 13  3  1  0  0  0  0
 15 19  1  0  0  0  0
 16 15  1  0  0  0  0
 16 17  1  0  0  0  0
 17 24  1  0  0  0  0
 17 18  1  0  0  0  0
 18 19  1  0  0  0  0
 18 27  1  0  0  0  0
 19 28  1  1  0  0  0
 19 20  1  0  0  0  0
 20 21  2  0  0  0  0
 22 16  1  0  0  0  0
 23 16  1  0  0  0  0
 25 17  1  0  0  0  0
 26 18  1  0  0  0  0
 29 37  1  0  0  0  0
 29 30  1  0  0  0  0
 30 31  1  0  0  0  0
 30 40  1  0  0  0  0
 31 41  1  0  0  0  0
 31 43  1  0  0  0  0
 32 30  1  0  0  0  0
 32 34  1  0  0  0  0
 32 44  1  1  0  0  0
 33 20  1  0  0  0  0
 33 32  1  0  0  0  0
 34 35  1  0  0  0  0
 36 34  2  0  0  0  0
 38 29  1  0  0  0  0
 39 29  1  0  0  0  0
 42 31  1  0  0  0  0
 45 33  1  0  0  0  0
M  END
$$$$
