DPW.pdb
 OpenBabel07022418153D

 53 55  0  0  1  0  0  0  0  0999 V2000
    3.4290   -2.1640    2.1860 N   0  0  0  0  0  0  0  0  0  0  0  0
    2.9880   -0.9070    1.5320 C   0  0  1  0  0  0  0  0  0  0  0  0
    2.4900   -1.3890    0.1680 C   0  0  0  0  0  0  0  0  0  0  0  0
    3.5470   -2.0490   -0.5970 C   0  0  0  0  0  0  0  0  0  0  0  0
    3.2770   -2.4990   -1.7410 O   0  0  0  0  0  0  0  0  0  0  0  0
    1.8770   -0.3570    2.3360 C   0  0  0  0  0  0  0  0  0  0  0  0
    1.2680   -1.0990    3.1570 O   0  0  0  0  0  0  0  0  0  0  0  0
    4.8550   -2.2260   -0.1590 O   0  0  0  0  0  0  0  0  0  0  0  0
    2.5820   -2.7570    2.3960 H   0  0  0  0  0  0  0  0  0  0  0  0
    3.9550   -1.9540    3.0560 H   0  0  0  0  0  0  0  0  0  0  0  0
    3.8370   -0.2410    1.4310 H   0  0  0  0  0  0  0  0  0  0  0  0
    2.0580   -0.5370   -0.3640 H   0  0  0  0  0  0  0  0  0  0  0  0
    1.6480   -2.1130    0.3060 H   0  0  0  0  0  0  0  0  0  0  0  0
    5.6110   -2.4230   -0.8320 H   0  0  0  0  0  0  0  0  0  0  0  0
    1.4490    0.9940    2.2310 N   0  0  0  0  0  0  0  0  0  0  0  0
    2.0930    1.9580    1.3750 C   0  0  0  0  0  0  0  0  0  0  0  0
    0.9590    2.8960    1.0050 C   0  0  0  0  0  0  0  0  0  0  0  0
    0.3550    3.0690    2.4130 C   0  0  0  0  0  0  0  0  0  0  0  0
    0.3670    1.6320    2.9120 C   0  0  1  0  0  0  0  0  0  0  0  0
   -0.9690    1.0380    2.6530 C   0  0  0  0  0  0  0  0  0  0  0  0
   -1.9200    1.5320    3.3160 O   0  0  0  0  0  0  0  0  0  0  0  0
    2.6010    1.5520    0.5010 H   0  0  0  0  0  0  0  0  0  0  0  0
    2.8110    2.5440    2.0150 H   0  0  0  0  0  0  0  0  0  0  0  0
    0.2690    2.3540    0.3530 H   0  0  0  0  0  0  0  0  0  0  0  0
    1.3210    3.8570    0.6060 H   0  0  0  0  0  0  0  0  0  0  0  0
    1.0830    3.6820    2.9780 H   0  0  0  0  0  0  0  0  0  0  0  0
   -0.6320    3.5250    2.3880 H   0  0  0  0  0  0  0  0  0  0  0  0
    0.5390    1.6200    4.0000 H   0  0  0  0  0  0  0  0  0  0  0  0
   -1.2410    0.0000    1.7500 N   0  0  0  0  0  0  0  0  0  0  0  0
   -2.6260   -0.4760    1.6080 C   0  0  1  0  0  0  0  0  0  0  0  0
   -3.1520   -0.1190    0.2440 C   0  0  0  0  0  0  0  0  0  0  0  0
   -2.3740   -0.6810   -0.8840 C   0  0  0  0  0  0  0  0  0  0  0  0
   -1.3540   -0.0130   -1.5370 C   0  0  0  0  0  0  0  0  0  0  0  0
   -0.8650   -0.8460   -2.4510 N   0  0  0  0  0  0  0  0  0  0  0  0
   -1.5110   -2.0230   -2.4310 C   0  0  0  0  0  0  0  0  0  0  0  0
   -1.3620   -3.1860   -3.1990 C   0  0  0  0  0  0  0  0  0  0  0  0
   -2.1850   -4.2680   -2.9750 C   0  0  0  0  0  0  0  0  0  0  0  0
   -3.1420   -4.1570   -1.9820 C   0  0  0  0  0  0  0  0  0  0  0  0
   -3.2870   -3.0240   -1.2330 C   0  0  0  0  0  0  0  0  0  0  0  0
   -2.4650   -1.9280   -1.4470 C   0  0  0  0  0  0  0  0  0  0  0  0
   -2.7040   -1.8750    1.9980 C   0  0  0  0  0  0  0  0  0  0  0  0
   -3.7940   -2.4840    2.0730 O   0  0  0  0  0  0  0  0  0  0  0  0
   -1.5490   -2.5800    2.3020 O   0  0  0  0  0  0  0  0  0  0  0  0
   -0.4820   -0.4150    1.1950 H   0  0  0  0  0  0  0  0  0  0  0  0
   -3.2680    0.1400    2.3180 H   0  0  0  0  0  0  0  0  0  0  0  0
   -3.2470    0.9710    0.1970 H   0  0  0  0  0  0  0  0  0  0  0  0
   -4.1870   -0.5320    0.1740 H   0  0  0  0  0  0  0  0  0  0  0  0
   -1.0170    1.0180   -1.3300 H   0  0  0  0  0  0  0  0  0  0  0  0
   -0.0750   -0.6260   -3.1110 H   0  0  0  0  0  0  0  0  0  0  0  0
   -0.5890   -3.1890   -3.9550 H   0  0  0  0  0  0  0  0  0  0  0  0
   -2.0570   -5.1630   -3.5770 H   0  0  0  0  0  0  0  0  0  0  0  0
   -3.7700   -5.0500   -1.8480 H   0  0  0  0  0  0  0  0  0  0  0  0
   -4.0500   -2.9770   -0.4890 H   0  0  0  0  0  0  0  0  0  0  0  0
  1  9  1  0  0  0  0
  1 10  1  0  0  0  0
  2 11  1  6  0  0  0
  2  1  1  0  0  0  0
  2  6  1  0  0  0  0
  3 13  1  0  0  0  0
  3  2  1  0  0  0  0
  4  8  1  0  0  0  0
  4  3  1  0  0  0  0
  5  4  2  0  0  0  0
  6  7  2  0  0  0  0
 12  3  1  0  0  0  0
 14  8  1  0  0  0  0
 15  6  1  0  0  0  0
 15 19  1  0  0  0  0
 16 23  1  0  0  0  0
 16 15  1  0  0  0  0
 17 16  1  0  0  0  0
 17 18  1  0  0  0  0
 18 19  1  0  0  0  0
 18 26  1  0  0  0  0
 19 28  1  1  0  0  0
 20 19  1  0  0  0  0
 20 21  2  0  0  0  0
 22 16  1  0  0  0  0
 24 17  1  0  0  0  0
 25 17  1  0  0  0  0
 27 18  1  0  0  0  0
 29 20  1  0  0  0  0
 30 29  1  0  0  0  0
 30 41  1  0  0  0  0
 30 45  1  1  0  0  0
 31 30  1  0  0  0  0
 32 31  1  0  0  0  0
 33 48  1  0  0  0  0
 33 32  2  0  0  0  0
 34 35  1  0  0  0  0
 34 33  1  0  0  0  0
 35 40  1  0  0  0  0
 36 37  1  0  0  0  0
 36 35  2  0  0  0  0
 37 38  2  0  0  0  0
 38 52  1  0  0  0  0
 38 39  1  0  0  0  0
 39 53  1  0  0  0  0
 40 39  2  0  0  0  0
 40 32  1  0  0  0  0
 41 42  2  0  0  0  0
 41 43  1  0  0  0  0
 44 29  1  0  0  0  0
 46 31  1  0  0  0  0
 47 31  1  0  0  0  0
 49 34  1  0  0  0  0
 50 36  1  0  0  0  0
 51 37  1  0  0  0  0
M  END
$$$$
