DQA.pdb
 OpenBabel07022418143D

 42 41  0  0  1  0  0  0  0  0999 V2000
   -2.9190   -0.2460    3.1160 N   0  0  0  0  0  0  0  0  0  0  0  0
   -2.1890   -1.3740    3.6360 C   0  0  1  0  0  0  0  0  0  0  0  0
   -3.1040   -2.5890    3.5350 C   0  0  0  0  0  0  0  0  0  0  0  0
   -3.4440   -2.7740    2.0950 C   0  0  0  0  0  0  0  0  0  0  0  0
   -2.9950   -1.9980    1.1980 O   0  0  0  0  0  0  0  0  0  0  0  0
   -0.9330   -1.6310    2.9070 C   0  0  0  0  0  0  0  0  0  0  0  0
   -0.2250   -2.5950    3.2850 O   0  0  0  0  0  0  0  0  0  0  0  0
   -4.2680   -3.8020    1.6590 O   0  0  0  0  0  0  0  0  0  0  0  0
   -3.8930   -0.3150    3.4820 H   0  0  0  0  0  0  0  0  0  0  0  0
   -2.4640    0.6700    3.3100 H   0  0  0  0  0  0  0  0  0  0  0  0
   -2.0360   -1.1980    4.7190 H   0  0  0  0  0  0  0  0  0  0  0  0
   -4.0220   -2.3890    4.1170 H   0  0  0  0  0  0  0  0  0  0  0  0
   -2.5940   -3.5080    3.9210 H   0  0  0  0  0  0  0  0  0  0  0  0
   -4.8910   -3.6830    0.8580 H   0  0  0  0  0  0  0  0  0  0  0  0
   -0.7260    0.1620   -3.5070 N   0  0  0  0  0  0  0  0  0  0  0  0
   -0.1620   -0.6950   -2.5270 C   0  0  0  0  0  0  0  0  0  0  0  0
    0.2490   -1.8180   -2.8890 O   0  0  0  0  0  0  0  0  0  0  0  0
   -0.0460   -0.3050   -1.1070 C   0  0  0  0  0  0  0  0  0  0  0  0
    0.5860   -1.4220   -0.3480 C   0  0  0  0  0  0  0  0  0  0  0  0
    0.7550   -1.1360    1.1170 C   0  0  2  0  0  0  0  0  0  0  0  0
   -0.4640   -0.8750    1.8130 N   0  0  0  0  0  0  0  0  0  0  0  0
    1.6650    0.0300    1.2570 C   0  0  0  0  0  0  0  0  0  0  0  0
    1.3050    1.0480    1.9200 O   0  0  0  0  0  0  0  0  0  0  0  0
   -1.6420   -0.0720   -3.9620 H   0  0  0  0  0  0  0  0  0  0  0  0
   -0.2780    1.0530   -3.8280 H   0  0  0  0  0  0  0  0  0  0  0  0
    0.6020    0.5880   -0.9900 H   0  0  0  0  0  0  0  0  0  0  0  0
   -1.0680   -0.0550   -0.7580 H   0  0  0  0  0  0  0  0  0  0  0  0
    1.6160   -1.5590   -0.7630 H   0  0  0  0  0  0  0  0  0  0  0  0
    0.0800   -2.4080   -0.5280 H   0  0  0  0  0  0  0  0  0  0  0  0
    1.2760   -2.0180    1.5610 H   0  0  0  0  0  0  0  0  0  0  0  0
   -1.0540   -0.0730    1.4980 H   0  0  0  0  0  0  0  0  0  0  0  0
    5.1500    0.8520    1.4980 C   0  0  0  0  0  0  0  0  0  0  0  0
    3.8690    1.1800    0.7860 C   0  0  2  0  0  0  0  0  0  0  0  0
    2.9610    0.0830    0.6770 N   0  0  0  0  0  0  0  0  0  0  0  0
    4.1380    1.7830   -0.5390 C   0  0  0  0  0  0  0  0  0  0  0  0
    3.5780    1.2990   -1.5470 O   0  0  0  0  0  0  0  0  0  0  0  0
    4.9950    2.8710   -0.6890 O   0  0  0  0  0  0  0  0  0  0  0  0
    5.2060    1.2860    2.5150 H   0  0  0  0  0  0  0  0  0  0  0  0
    5.3060   -0.2490    1.5010 H   0  0  0  0  0  0  0  0  0  0  0  0
    5.9900    1.2880    0.9170 H   0  0  0  0  0  0  0  0  0  0  0  0
    3.3560    1.9690    1.4080 H   0  0  0  0  0  0  0  0  0  0  0  0
    3.2650   -0.7520    0.1300 H   0  0  0  0  0  0  0  0  0  0  0  0
  1 10  1  0  0  0  0
  1  9  1  0  0  0  0
  1  2  1  0  0  0  0
  2 11  1  1  0  0  0
  3  2  1  0  0  0  0
  3 13  1  0  0  0  0
  3 12  1  0  0  0  0
  4  3  1  0  0  0  0
  5  4  2  0  0  0  0
  6  7  2  0  0  0  0
  6  2  1  0  0  0  0
  8  4  1  0  0  0  0
 14  8  1  0  0  0  0
 15 16  1  0  0  0  0
 16 18  1  0  0  0  0
 17 16  2  0  0  0  0
 18 26  1  0  0  0  0
 18 27  1  0  0  0  0
 18 19  1  0  0  0  0
 19 20  1  0  0  0  0
 20 22  1  0  0  0  0
 20 30  1  1  0  0  0
 20 21  1  0  0  0  0
 21  6  1  0  0  0  0
 22 23  2  0  0  0  0
 24 15  1  0  0  0  0
 25 15  1  0  0  0  0
 28 19  1  0  0  0  0
 29 19  1  0  0  0  0
 31 21  1  0  0  0  0
 32 39  1  0  0  0  0
 32 38  1  0  0  0  0
 33 41  1  1  0  0  0
 33 32  1  0  0  0  0
 34 33  1  0  0  0  0
 34 22  1  0  0  0  0
 35 33  1  0  0  0  0
 36 35  2  0  0  0  0
 37 35  1  0  0  0  0
 40 32  1  0  0  0  0
 42 34  1  0  0  0  0
M  END
$$$$
