DQD.pdb
 OpenBabel07022418143D

 45 44  0  0  1  0  0  0  0  0999 V2000
    3.2780   -1.4830    3.0410 N   0  0  0  0  0  0  0  0  0  0  0  0
    2.4810   -0.4540    3.7730 C   0  0  1  0  0  0  0  0  0  0  0  0
    3.4050    0.6320    4.2440 C   0  0  0  0  0  0  0  0  0  0  0  0
    2.6720    1.6470    4.9970 C   0  0  0  0  0  0  0  0  0  0  0  0
    3.1860    2.8000    5.1530 O   0  0  0  0  0  0  0  0  0  0  0  0
    1.3990    0.0110    2.8720 C   0  0  0  0  0  0  0  0  0  0  0  0
    0.5510    0.8240    3.2820 O   0  0  0  0  0  0  0  0  0  0  0  0
    1.4350    1.4420    5.5690 O   0  0  0  0  0  0  0  0  0  0  0  0
    3.8110   -1.0060    2.2710 H   0  0  0  0  0  0  0  0  0  0  0  0
    3.9060   -1.9210    3.7550 H   0  0  0  0  0  0  0  0  0  0  0  0
    2.0720   -0.9710    4.6480 H   0  0  0  0  0  0  0  0  0  0  0  0
    4.0890    0.1260    4.9930 H   0  0  0  0  0  0  0  0  0  0  0  0
    4.0270    1.0460    3.4250 H   0  0  0  0  0  0  0  0  0  0  0  0
    0.9950    2.1070    6.1960 H   0  0  0  0  0  0  0  0  0  0  0  0
    2.8290    0.6080   -3.5940 N   0  0  0  0  0  0  0  0  0  0  0  0
    1.9420    1.0360   -2.5450 C   0  0  0  0  0  0  0  0  0  0  0  0
    1.5000    2.1940   -2.6000 O   0  0  0  0  0  0  0  0  0  0  0  0
    1.6000    0.0640   -1.4480 C   0  0  0  0  0  0  0  0  0  0  0  0
    0.7060    0.8080   -0.5030 C   0  0  0  0  0  0  0  0  0  0  0  0
    0.2460    0.0110    0.6880 C   0  0  2  0  0  0  0  0  0  0  0  0
    1.3030   -0.4640    1.5100 N   0  0  0  0  0  0  0  0  0  0  0  0
   -0.6500   -1.0930    0.3310 C   0  0  0  0  0  0  0  0  0  0  0  0
   -0.4080   -2.2450    0.7670 O   0  0  0  0  0  0  0  0  0  0  0  0
    3.1770   -0.3700   -3.5980 H   0  0  0  0  0  0  0  0  0  0  0  0
    3.1330    1.2550   -4.3500 H   0  0  0  0  0  0  0  0  0  0  0  0
    2.5470   -0.1370   -0.9040 H   0  0  0  0  0  0  0  0  0  0  0  0
    1.2020   -0.8740   -1.8180 H   0  0  0  0  0  0  0  0  0  0  0  0
   -0.2140    1.1480   -1.0430 H   0  0  0  0  0  0  0  0  0  0  0  0
    1.2230    1.7150   -0.1490 H   0  0  0  0  0  0  0  0  0  0  0  0
   -0.3790    0.7340    1.2880 H   0  0  0  0  0  0  0  0  0  0  0  0
    2.0380   -1.1320    1.2300 H   0  0  0  0  0  0  0  0  0  0  0  0
   -1.8090   -0.9630   -0.4940 N   0  0  0  0  0  0  0  0  0  0  0  0
   -2.6200   -2.0990   -0.7870 C   0  0  1  0  0  0  0  0  0  0  0  0
   -4.0390   -1.9690   -0.2490 C   0  0  0  0  0  0  0  0  0  0  0  0
   -3.9360   -1.8040    1.2250 C   0  0  0  0  0  0  0  0  0  0  0  0
   -3.2470   -0.8730    1.7360 O   0  0  0  0  0  0  0  0  0  0  0  0
   -2.7350   -2.3560   -2.2440 C   0  0  0  0  0  0  0  0  0  0  0  0
   -2.1920   -1.6640   -3.1270 O   0  0  0  0  0  0  0  0  0  0  0  0
   -4.6250   -2.7130    2.0240 O   0  0  0  0  0  0  0  0  0  0  0  0
   -3.5000   -3.4410   -2.6620 O   0  0  0  0  0  0  0  0  0  0  0  0
   -2.0340   -0.0330   -0.8680 H   0  0  0  0  0  0  0  0  0  0  0  0
   -2.2090   -3.0300   -0.3230 H   0  0  0  0  0  0  0  0  0  0  0  0
   -4.6110   -2.8530   -0.5120 H   0  0  0  0  0  0  0  0  0  0  0  0
   -4.4380   -1.0210   -0.7160 H   0  0  0  0  0  0  0  0  0  0  0  0
   -4.7700   -2.4570    3.0030 H   0  0  0  0  0  0  0  0  0  0  0  0
  1 10  1  0  0  0  0
  1  2  1  0  0  0  0
  2  3  1  0  0  0  0
  2 11  1  1  0  0  0
  3 12  1  0  0  0  0
  3  4  1  0  0  0  0
  4  5  2  0  0  0  0
  4  8  1  0  0  0  0
  6  7  2  0  0  0  0
  6  2  1  0  0  0  0
  8 14  1  0  0  0  0
  9  1  1  0  0  0  0
 13  3  1  0  0  0  0
 15 16  1  0  0  0  0
 16 18  1  0  0  0  0
 17 16  2  0  0  0  0
 18 26  1  0  0  0  0
 18 19  1  0  0  0  0
 19 29  1  0  0  0  0
 19 20  1  0  0  0  0
 20 30  1  1  0  0  0
 20 21  1  0  0  0  0
 21  6  1  0  0  0  0
 22 20  1  0  0  0  0
 22 23  2  0  0  0  0
 24 15  1  0  0  0  0
 25 15  1  0  0  0  0
 27 18  1  0  0  0  0
 28 19  1  0  0  0  0
 31 21  1  0  0  0  0
 32 22  1  0  0  0  0
 33 32  1  0  0  0  0
 33 42  1  1  0  0  0
 33 34  1  0  0  0  0
 34 35  1  0  0  0  0
 35 36  2  0  0  0  0
 35 39  1  0  0  0  0
 37 33  1  0  0  0  0
 38 37  2  0  0  0  0
 39 45  1  0  0  0  0
 40 37  1  0  0  0  0
 41 32  1  0  0  0  0
 43 34  1  0  0  0  0
 44 34  1  0  0  0  0
M  END
$$$$
