DQE.pdb
 OpenBabel07022418143D

 48 47  0  0  1  0  0  0  0  0999 V2000
   -3.1890    1.0590    2.1300 N   0  0  0  0  0  0  0  0  0  0  0  0
   -2.2500    1.6240    1.1400 C   0  0  1  0  0  0  0  0  0  0  0  0
   -2.4230    3.0650    1.1410 C   0  0  0  0  0  0  0  0  0  0  0  0
   -1.6580    3.9370    0.2820 C   0  0  0  0  0  0  0  0  0  0  0  0
   -0.4950    4.3720    0.5410 O   0  0  0  0  0  0  0  0  0  0  0  0
   -0.9980    0.9710    1.3210 C   0  0  0  0  0  0  0  0  0  0  0  0
   -0.8840    0.1430    2.2810 O   0  0  0  0  0  0  0  0  0  0  0  0
   -2.1790    4.3780   -0.9510 O   0  0  0  0  0  0  0  0  0  0  0  0
   -3.1370    1.5880    3.0220 H   0  0  0  0  0  0  0  0  0  0  0  0
   -2.9510    0.0620    2.3300 H   0  0  0  0  0  0  0  0  0  0  0  0
   -2.6640    1.2210    0.1610 H   0  0  0  0  0  0  0  0  0  0  0  0
   -3.5040    3.3190    0.9760 H   0  0  0  0  0  0  0  0  0  0  0  0
   -2.2520    3.4380    2.2010 H   0  0  0  0  0  0  0  0  0  0  0  0
   -1.7650    5.1720   -1.4260 H   0  0  0  0  0  0  0  0  0  0  0  0
    5.6720   -0.3060    1.6360 N   0  0  0  0  0  0  0  0  0  0  0  0
    4.4180    0.3470    1.5890 C   0  0  0  0  0  0  0  0  0  0  0  0
    4.2970    1.2910    0.7710 O   0  0  0  0  0  0  0  0  0  0  0  0
    3.2790   -0.0210    2.4340 C   0  0  0  0  0  0  0  0  0  0  0  0
    1.9880    0.6670    2.1360 C   0  0  0  0  0  0  0  0  0  0  0  0
    1.4360    0.4430    0.7710 C   0  0  2  0  0  0  0  0  0  0  0  0
    0.1820    1.1270    0.5440 N   0  0  0  0  0  0  0  0  0  0  0  0
    1.3960   -0.9670    0.3280 C   0  0  0  0  0  0  0  0  0  0  0  0
    2.3510   -1.7770    0.3930 O   0  0  0  0  0  0  0  0  0  0  0  0
    6.5200    0.1160    1.2270 H   0  0  0  0  0  0  0  0  0  0  0  0
    5.7390   -1.2320    2.0930 H   0  0  0  0  0  0  0  0  0  0  0  0
    3.6140    0.2030    3.4950 H   0  0  0  0  0  0  0  0  0  0  0  0
    3.1010   -1.1380    2.4670 H   0  0  0  0  0  0  0  0  0  0  0  0
    1.2680    0.4280    2.9710 H   0  0  0  0  0  0  0  0  0  0  0  0
    2.1890    1.7680    2.2310 H   0  0  0  0  0  0  0  0  0  0  0  0
    2.1630    0.9640    0.0760 H   0  0  0  0  0  0  0  0  0  0  0  0
    0.0450    1.8070   -0.2360 H   0  0  0  0  0  0  0  0  0  0  0  0
    0.1880   -1.5210   -0.2350 N   0  0  0  0  0  0  0  0  0  0  0  0
    0.0980   -2.9070   -0.6840 C   0  0  1  0  0  0  0  0  0  0  0  0
   -0.9810   -3.5260    0.1670 C   0  0  0  0  0  0  0  0  0  0  0  0
   -1.2680   -4.9610   -0.0890 C   0  0  0  0  0  0  0  0  0  0  0  0
   -2.3500   -5.3580    0.8730 C   0  0  0  0  0  0  0  0  0  0  0  0
   -3.5130   -4.9560    0.6540 O   0  0  0  0  0  0  0  0  0  0  0  0
   -0.2510   -2.9840   -2.1080 C   0  0  0  0  0  0  0  0  0  0  0  0
   -0.3330   -4.0940   -2.6670 O   0  0  0  0  0  0  0  0  0  0  0  0
   -2.0920   -6.1450    1.9740 O   0  0  0  0  0  0  0  0  0  0  0  0
   -0.5030   -1.8610   -2.8940 O   0  0  0  0  0  0  0  0  0  0  0  0
   -0.6240   -0.8770   -0.3060 H   0  0  0  0  0  0  0  0  0  0  0  0
    1.0300   -3.4560   -0.5310 H   0  0  0  0  0  0  0  0  0  0  0  0
   -1.8890   -2.8730    0.0400 H   0  0  0  0  0  0  0  0  0  0  0  0
   -0.7110   -3.3890    1.2550 H   0  0  0  0  0  0  0  0  0  0  0  0
   -1.5400   -5.2330   -1.1090 H   0  0  0  0  0  0  0  0  0  0  0  0
   -0.3550   -5.5640    0.1630 H   0  0  0  0  0  0  0  0  0  0  0  0
   -2.8640   -6.5140    2.5430 H   0  0  0  0  0  0  0  0  0  0  0  0
  1 10  1  0  0  0  0
  1  9  1  0  0  0  0
  2 11  1  6  0  0  0
  2  3  1  0  0  0  0
  2  6  1  0  0  0  0
  2  1  1  0  0  0  0
  3 13  1  0  0  0  0
  4  5  2  0  0  0  0
  4  3  1  0  0  0  0
  6  7  2  0  0  0  0
  8  4  1  0  0  0  0
 12  3  1  0  0  0  0
 14  8  1  0  0  0  0
 15 25  1  0  0  0  0
 16 15  1  0  0  0  0
 16 18  1  0  0  0  0
 17 16  2  0  0  0  0
 18 27  1  0  0  0  0
 18 26  1  0  0  0  0
 19 29  1  0  0  0  0
 19 18  1  0  0  0  0
 19 28  1  0  0  0  0
 20 30  1  6  0  0  0
 20 19  1  0  0  0  0
 21 20  1  0  0  0  0
 21  6  1  0  0  0  0
 22 23  2  0  0  0  0
 22 20  1  0  0  0  0
 24 15  1  0  0  0  0
 31 21  1  0  0  0  0
 32 22  1  0  0  0  0
 33 43  1  1  0  0  0
 33 32  1  0  0  0  0
 33 34  1  0  0  0  0
 34 45  1  0  0  0  0
 35 47  1  0  0  0  0
 35 34  1  0  0  0  0
 35 36  1  0  0  0  0
 36 40  1  0  0  0  0
 37 36  2  0  0  0  0
 38 33  1  0  0  0  0
 39 38  1  0  0  0  0
 40 48  1  0  0  0  0
 41 38  2  0  0  0  0
 42 32  1  0  0  0  0
 44 34  1  0  0  0  0
 46 35  1  0  0  0  0
M  END
$$$$
