DQF.pdb
 OpenBabel07022418143D

 52 52  0  0  1  0  0  0  0  0999 V2000
    2.4900   -3.8610    0.8310 N   0  0  0  0  0  0  0  0  0  0  0  0
    2.8860   -2.4750    0.5570 C   0  0  1  0  0  0  0  0  0  0  0  0
    2.5030   -2.0750   -0.8110 C   0  0  0  0  0  0  0  0  0  0  0  0
    2.9550   -0.7020   -1.1170 C   0  0  0  0  0  0  0  0  0  0  0  0
    3.6880   -0.0990   -0.2920 O   0  0  0  0  0  0  0  0  0  0  0  0
    2.3750   -1.6430    1.6590 C   0  0  0  0  0  0  0  0  0  0  0  0
    2.7450   -1.9840    2.8280 O   0  0  0  0  0  0  0  0  0  0  0  0
    2.6140   -0.0280   -2.2800 O   0  0  0  0  0  0  0  0  0  0  0  0
    1.4670   -3.8720    1.0710 H   0  0  0  0  0  0  0  0  0  0  0  0
    2.5700   -4.3920   -0.0810 H   0  0  0  0  0  0  0  0  0  0  0  0
    3.9970   -2.4760    0.6480 H   0  0  0  0  0  0  0  0  0  0  0  0
    3.0700   -2.7370   -1.5290 H   0  0  0  0  0  0  0  0  0  0  0  0
    1.4280   -2.2260   -1.0500 H   0  0  0  0  0  0  0  0  0  0  0  0
    2.9830    0.9140   -2.4370 H   0  0  0  0  0  0  0  0  0  0  0  0
    1.0890    4.6310    0.0180 N   0  0  0  0  0  0  0  0  0  0  0  0
    1.4410    3.7820    1.1000 C   0  0  0  0  0  0  0  0  0  0  0  0
    2.1500    4.2760    2.0140 O   0  0  0  0  0  0  0  0  0  0  0  0
    0.9990    2.3660    1.1650 C   0  0  0  0  0  0  0  0  0  0  0  0
    1.4990    1.6930    2.4260 C   0  0  0  0  0  0  0  0  0  0  0  0
    1.0540    0.2550    2.5130 C   0  0  2  0  0  0  0  0  0  0  0  0
    1.5320   -0.5500    1.4080 N   0  0  0  0  0  0  0  0  0  0  0  0
   -0.4150    0.1340    2.6870 C   0  0  0  0  0  0  0  0  0  0  0  0
   -1.0250    0.7810    3.5750 O   0  0  0  0  0  0  0  0  0  0  0  0
    0.1230    4.6010   -0.3920 H   0  0  0  0  0  0  0  0  0  0  0  0
    1.7380    5.3210   -0.4280 H   0  0  0  0  0  0  0  0  0  0  0  0
   -0.1190    2.3890    1.1240 H   0  0  0  0  0  0  0  0  0  0  0  0
    1.3230    1.8270    0.2560 H   0  0  0  0  0  0  0  0  0  0  0  0
    2.6070    1.7400    2.3890 H   0  0  0  0  0  0  0  0  0  0  0  0
    1.1680    2.2650    3.2990 H   0  0  0  0  0  0  0  0  0  0  0  0
    1.5000   -0.1550    3.4380 H   0  0  0  0  0  0  0  0  0  0  0  0
    1.1730   -0.2430    0.4670 H   0  0  0  0  0  0  0  0  0  0  0  0
   -1.2000   -0.7250    1.8520 N   0  0  0  0  0  0  0  0  0  0  0  0
   -2.6470   -0.8290    2.0380 C   0  0  1  0  0  0  0  0  0  0  0  0
   -3.3630   -0.5580    0.7320 C   0  0  0  0  0  0  0  0  0  0  0  0
   -2.9830   -1.5130   -0.3200 C   0  0  0  0  0  0  0  0  0  0  0  0
   -1.9140   -1.2220   -1.1340 C   0  0  0  0  0  0  0  0  0  0  0  0
   -1.5000   -2.0760   -2.1440 C   0  0  0  0  0  0  0  0  0  0  0  0
   -2.2010   -3.2510   -2.3170 C   0  0  0  0  0  0  0  0  0  0  0  0
   -3.2630   -3.5650   -1.5240 C   0  0  0  0  0  0  0  0  0  0  0  0
   -3.6510   -2.6960   -0.5290 C   0  0  0  0  0  0  0  0  0  0  0  0
   -2.9960   -2.1860    2.5350 C   0  0  0  0  0  0  0  0  0  0  0  0
   -2.0760   -3.0050    2.7160 O   0  0  0  0  0  0  0  0  0  0  0  0
   -4.2870   -2.5770    2.8030 O   0  0  0  0  0  0  0  0  0  0  0  0
   -0.7390   -1.2860    1.1010 H   0  0  0  0  0  0  0  0  0  0  0  0
   -2.9710   -0.1140    2.8000 H   0  0  0  0  0  0  0  0  0  0  0  0
   -4.4560   -0.6170    0.8630 H   0  0  0  0  0  0  0  0  0  0  0  0
   -3.1260    0.4920    0.4630 H   0  0  0  0  0  0  0  0  0  0  0  0
   -1.3360   -0.2930   -1.0210 H   0  0  0  0  0  0  0  0  0  0  0  0
   -0.6600   -1.8280   -2.7720 H   0  0  0  0  0  0  0  0  0  0  0  0
   -1.8960   -3.9300   -3.0950 H   0  0  0  0  0  0  0  0  0  0  0  0
   -3.7880   -4.5120   -1.7000 H   0  0  0  0  0  0  0  0  0  0  0  0
   -4.5050   -2.9680    0.0940 H   0  0  0  0  0  0  0  0  0  0  0  0
  1  9  1  0  0  0  0
  2 11  1  1  0  0  0
  2  1  1  0  0  0  0
  2  6  1  0  0  0  0
  3  2  1  0  0  0  0
  4  3  1  0  0  0  0
  4  5  2  0  0  0  0
  6  7  2  0  0  0  0
  8  4  1  0  0  0  0
 10  1  1  0  0  0  0
 12  3  1  0  0  0  0
 13  3  1  0  0  0  0
 14  8  1  0  0  0  0
 15 16  1  0  0  0  0
 16 18  1  0  0  0  0
 16 17  2  0  0  0  0
 18 19  1  0  0  0  0
 19 20  1  0  0  0  0
 19 29  1  0  0  0  0
 20 22  1  0  0  0  0
 20 30  1  1  0  0  0
 21  6  1  0  0  0  0
 21 20  1  0  0  0  0
 22 23  2  0  0  0  0
 24 15  1  0  0  0  0
 25 15  1  0  0  0  0
 26 18  1  0  0  0  0
 27 18  1  0  0  0  0
 28 19  1  0  0  0  0
 31 21  1  0  0  0  0
 32 33  1  0  0  0  0
 32 22  1  0  0  0  0
 33 41  1  0  0  0  0
 33 45  1  1  0  0  0
 34 46  1  0  0  0  0
 34 33  1  0  0  0  0
 35 34  1  0  0  0  0
 36 48  1  0  0  0  0
 36 35  2  0  0  0  0
 37 36  1  0  0  0  0
 38 37  2  0  0  0  0
 38 39  1  0  0  0  0
 39 40  2  0  0  0  0
 40 35  1  0  0  0  0
 40 52  1  0  0  0  0
 41 42  2  0  0  0  0
 41 43  1  0  0  0  0
 44 32  1  0  0  0  0
 47 34  1  0  0  0  0
 49 37  1  0  0  0  0
 50 38  1  0  0  0  0
 51 39  1  0  0  0  0
M  END
$$$$
