DQG.pdb
 OpenBabel07022418143D

 39 38  0  0  1  0  0  0  0  0999 V2000
    0.7790   -2.8630    3.1810 N   0  0  0  0  0  0  0  0  0  0  0  0
    1.6120   -3.1850    2.0630 C   0  0  1  0  0  0  0  0  0  0  0  0
    1.2260   -4.5820    1.5890 C   0  0  0  0  0  0  0  0  0  0  0  0
   -0.1970   -4.6380    1.1820 C   0  0  0  0  0  0  0  0  0  0  0  0
   -0.5880   -4.1610    0.1010 O   0  0  0  0  0  0  0  0  0  0  0  0
    1.4890   -2.2060    0.9540 C   0  0  0  0  0  0  0  0  0  0  0  0
    2.1580   -2.3000   -0.1090 O   0  0  0  0  0  0  0  0  0  0  0  0
   -1.1690   -5.2340    2.0040 O   0  0  0  0  0  0  0  0  0  0  0  0
   -0.2060   -2.7970    2.8870 H   0  0  0  0  0  0  0  0  0  0  0  0
    1.1330   -2.0810    3.7520 H   0  0  0  0  0  0  0  0  0  0  0  0
    2.6610   -3.2570    2.4360 H   0  0  0  0  0  0  0  0  0  0  0  0
    1.8310   -4.8910    0.7060 H   0  0  0  0  0  0  0  0  0  0  0  0
    1.3790   -5.3240    2.3890 H   0  0  0  0  0  0  0  0  0  0  0  0
   -2.0820   -4.8030    2.1240 H   0  0  0  0  0  0  0  0  0  0  0  0
   -0.7750    1.4870   -3.8660 N   0  0  0  0  0  0  0  0  0  0  0  0
   -0.6620    0.6900   -2.7110 C   0  0  0  0  0  0  0  0  0  0  0  0
    0.0880   -0.3400   -2.8210 O   0  0  0  0  0  0  0  0  0  0  0  0
   -1.3040    0.9200   -1.4310 C   0  0  0  0  0  0  0  0  0  0  0  0
   -1.0090   -0.0400   -0.3540 C   0  0  0  0  0  0  0  0  0  0  0  0
    0.4330   -0.1560    0.0560 C   0  0  2  0  0  0  0  0  0  0  0  0
    0.5770   -1.1280    1.1140 N   0  0  0  0  0  0  0  0  0  0  0  0
    0.8490    1.1590    0.6140 C   0  0  0  0  0  0  0  0  0  0  0  0
    0.8590    2.2250   -0.0640 O   0  0  0  0  0  0  0  0  0  0  0  0
   -1.3330    2.3780   -3.7870 H   0  0  0  0  0  0  0  0  0  0  0  0
   -0.3660    1.2840   -4.7790 H   0  0  0  0  0  0  0  0  0  0  0  0
   -2.4200    0.8380   -1.6180 H   0  0  0  0  0  0  0  0  0  0  0  0
   -1.2000    2.0010   -1.1200 H   0  0  0  0  0  0  0  0  0  0  0  0
   -1.4610   -1.0180   -0.6250 H   0  0  0  0  0  0  0  0  0  0  0  0
   -1.5700    0.2900    0.5630 H   0  0  0  0  0  0  0  0  0  0  0  0
    1.1170   -0.4040   -0.7460 H   0  0  0  0  0  0  0  0  0  0  0  0
   -0.0110   -0.9850    1.9670 H   0  0  0  0  0  0  0  0  0  0  0  0
    1.2720    1.3050    1.9780 N   0  0  0  0  0  0  0  0  0  0  0  0
    1.6770    2.5640    2.5320 C   0  0  0  0  0  0  0  0  0  0  0  0
    0.6190    3.5990    2.4820 C   0  0  0  0  0  0  0  0  0  0  0  0
    0.8790    4.7220    2.9390 O   0  0  0  0  0  0  0  0  0  0  0  0
   -0.6030    3.2600    1.9300 O   0  0  0  0  0  0  0  0  0  0  0  0
    1.2860    0.4660    2.5900 H   0  0  0  0  0  0  0  0  0  0  0  0
    1.9630    2.4530    3.5960 H   0  0  0  0  0  0  0  0  0  0  0  0
    2.6100    2.9480    2.0270 H   0  0  0  0  0  0  0  0  0  0  0  0
  1 10  1  0  0  0  0
  2 11  1  1  0  0  0
  2  1  1  0  0  0  0
  3  2  1  0  0  0  0
  3 13  1  0  0  0  0
  4  3  1  0  0  0  0
  4  8  1  0  0  0  0
  5  4  2  0  0  0  0
  6 21  1  0  0  0  0
  6  2  1  0  0  0  0
  7  6  2  0  0  0  0
  8 14  1  0  0  0  0
  9  1  1  0  0  0  0
 12  3  1  0  0  0  0
 15 24  1  0  0  0  0
 15 16  1  0  0  0  0
 16 18  1  0  0  0  0
 17 16  2  0  0  0  0
 18 27  1  0  0  0  0
 18 19  1  0  0  0  0
 19 20  1  0  0  0  0
 19 29  1  0  0  0  0
 20 30  1  6  0  0  0
 20 22  1  0  0  0  0
 20 21  1  0  0  0  0
 21 31  1  0  0  0  0
 22 32  1  0  0  0  0
 23 22  2  0  0  0  0
 25 15  1  0  0  0  0
 26 18  1  0  0  0  0
 28 19  1  0  0  0  0
 32 33  1  0  0  0  0
 32 37  1  0  0  0  0
 33 38  1  0  0  0  0
 34 33  1  0  0  0  0
 34 35  1  0  0  0  0
 36 34  2  0  0  0  0
 39 33  1  0  0  0  0
M  END
$$$$
