DQI.pdb
 OpenBabel07022418143D

 51 50  0  0  1  0  0  0  0  0999 V2000
    1.1440   -1.6310    5.0220 N   0  0  0  0  0  0  0  0  0  0  0  0
    0.0560   -0.6940    5.1230 C   0  0  1  0  0  0  0  0  0  0  0  0
    0.4250    0.4790    5.9990 C   0  0  0  0  0  0  0  0  0  0  0  0
    1.6150    1.1970    5.4240 C   0  0  0  0  0  0  0  0  0  0  0  0
    2.1370    0.7890    4.3710 O   0  0  0  0  0  0  0  0  0  0  0  0
   -0.2690   -0.2060    3.7500 C   0  0  0  0  0  0  0  0  0  0  0  0
   -1.1980    0.6420    3.5580 O   0  0  0  0  0  0  0  0  0  0  0  0
    2.1540    2.3130    6.0390 O   0  0  0  0  0  0  0  0  0  0  0  0
    0.8220   -2.4980    4.5510 H   0  0  0  0  0  0  0  0  0  0  0  0
    1.5520   -1.8760    5.9500 H   0  0  0  0  0  0  0  0  0  0  0  0
   -0.8620   -1.1500    5.5450 H   0  0  0  0  0  0  0  0  0  0  0  0
    0.6930    0.0960    7.0090 H   0  0  0  0  0  0  0  0  0  0  0  0
   -0.4500    1.1360    6.0530 H   0  0  0  0  0  0  0  0  0  0  0  0
    2.4540    3.0810    5.4200 H   0  0  0  0  0  0  0  0  0  0  0  0
    4.7670   -0.0740   -0.4810 N   0  0  0  0  0  0  0  0  0  0  0  0
    3.5140    0.5130   -0.2110 C   0  0  0  0  0  0  0  0  0  0  0  0
    3.3220    1.7100   -0.5340 O   0  0  0  0  0  0  0  0  0  0  0  0
    2.4650   -0.3100    0.4480 C   0  0  0  0  0  0  0  0  0  0  0  0
    1.2470    0.5570    0.6170 C   0  0  0  0  0  0  0  0  0  0  0  0
    0.1010   -0.1700    1.2790 C   0  0  2  0  0  0  0  0  0  0  0  0
    0.4270   -0.6500    2.5900 N   0  0  0  0  0  0  0  0  0  0  0  0
   -0.4010   -1.2600    0.3910 C   0  0  0  0  0  0  0  0  0  0  0  0
   -0.4900   -2.4550    0.8260 O   0  0  0  0  0  0  0  0  0  0  0  0
    4.9030   -1.0990   -0.4390 H   0  0  0  0  0  0  0  0  0  0  0  0
    5.5720    0.5260   -0.7270 H   0  0  0  0  0  0  0  0  0  0  0  0
    2.8330   -0.7300    1.4010 H   0  0  0  0  0  0  0  0  0  0  0  0
    2.2790   -1.1780   -0.2210 H   0  0  0  0  0  0  0  0  0  0  0  0
    0.9400    0.9010   -0.3880 H   0  0  0  0  0  0  0  0  0  0  0  0
    1.5430    1.4480    1.2060 H   0  0  0  0  0  0  0  0  0  0  0  0
   -0.7320    0.5580    1.3750 H   0  0  0  0  0  0  0  0  0  0  0  0
    1.1930   -1.3510    2.7600 H   0  0  0  0  0  0  0  0  0  0  0  0
   -2.3510   -0.3980   -4.1780 C   0  0  0  0  0  0  0  0  0  0  0  0
   -3.0890   -0.6850   -2.9140 C   0  0  0  0  0  0  0  0  0  0  0  0
   -2.7090   -1.9240   -2.1940 C   0  0  2  0  0  0  0  0  0  0  0  0
   -3.5950   -2.0090   -0.9450 C   0  0  0  0  0  0  0  0  0  0  0  0
   -1.2760   -2.0640   -1.8090 C   0  0  2  0  0  0  0  0  0  0  0  0
   -0.7950   -1.0260   -0.9510 N   0  0  0  0  0  0  0  0  0  0  0  0
   -0.4170   -2.3110   -2.9870 C   0  0  0  0  0  0  0  0  0  0  0  0
    0.6340   -1.6340   -3.1740 O   0  0  0  0  0  0  0  0  0  0  0  0
   -0.7090   -3.2800   -3.9340 O   0  0  0  0  0  0  0  0  0  0  0  0
   -1.3400    0.0410   -4.0320 H   0  0  0  0  0  0  0  0  0  0  0  0
   -2.2960   -1.2630   -4.8580 H   0  0  0  0  0  0  0  0  0  0  0  0
   -2.9400    0.3850   -4.7220 H   0  0  0  0  0  0  0  0  0  0  0  0
   -4.1730   -0.8160   -3.2080 H   0  0  0  0  0  0  0  0  0  0  0  0
   -3.1230    0.2130   -2.2330 H   0  0  0  0  0  0  0  0  0  0  0  0
   -2.9880   -2.7940   -2.8370 H   0  0  0  0  0  0  0  0  0  0  0  0
   -3.7930   -3.0620   -0.6620 H   0  0  0  0  0  0  0  0  0  0  0  0
   -2.9890   -1.5720   -0.1240 H   0  0  0  0  0  0  0  0  0  0  0  0
   -4.5070   -1.4230   -1.0940 H   0  0  0  0  0  0  0  0  0  0  0  0
   -1.2340   -3.0140   -1.1800 H   0  0  0  0  0  0  0  0  0  0  0  0
   -0.7210   -0.0450   -1.3060 H   0  0  0  0  0  0  0  0  0  0  0  0
  1  2  1  0  0  0  0
  1 10  1  0  0  0  0
  2 11  1  1  0  0  0
  2  3  1  0  0  0  0
  3 13  1  0  0  0  0
  3 12  1  0  0  0  0
  4  3  1  0  0  0  0
  4  8  1  0  0  0  0
  5  4  2  0  0  0  0
  6  2  1  0  0  0  0
  7  6  2  0  0  0  0
  9  1  1  0  0  0  0
 14  8  1  0  0  0  0
 15 24  1  0  0  0  0
 15 16  1  0  0  0  0
 16 18  1  0  0  0  0
 17 16  2  0  0  0  0
 18 19  1  0  0  0  0
 18 26  1  0  0  0  0
 19 29  1  0  0  0  0
 19 20  1  0  0  0  0
 20 30  1  1  0  0  0
 20 21  1  0  0  0  0
 21 31  1  0  0  0  0
 21  6  1  0  0  0  0
 22 23  2  0  0  0  0
 22 20  1  0  0  0  0
 25 15  1  0  0  0  0
 27 18  1  0  0  0  0
 28 19  1  0  0  0  0
 32 41  1  0  0  0  0
 32 33  1  0  0  0  0
 33 45  1  0  0  0  0
 33 34  1  0  0  0  0
 34 46  1  6  0  0  0
 34 36  1  0  0  0  0
 34 35  1  0  0  0  0
 35 47  1  0  0  0  0
 35 48  1  0  0  0  0
 36 50  1  1  0  0  0
 36 37  1  0  0  0  0
 37 22  1  0  0  0  0
 38 36  1  0  0  0  0
 39 38  1  0  0  0  0
 40 38  2  0  0  0  0
 42 32  1  0  0  0  0
 43 32  1  0  0  0  0
 44 33  1  0  0  0  0
 49 35  1  0  0  0  0
 51 37  1  0  0  0  0
M  END
$$$$
