DQK.pdb
 OpenBabel07022418143D

 53 52  0  0  1  0  0  0  0  0999 V2000
    2.0450   -1.6330    4.6840 N   0  0  0  0  0  0  0  0  0  0  0  0
    2.0470   -2.6310    3.6610 C   0  0  1  0  0  0  0  0  0  0  0  0
    1.0700   -3.7460    3.8570 C   0  0  0  0  0  0  0  0  0  0  0  0
   -0.3320   -3.3360    3.9290 C   0  0  0  0  0  0  0  0  0  0  0  0
   -0.6440   -2.1240    3.8390 O   0  0  0  0  0  0  0  0  0  0  0  0
    1.8990   -2.0130    2.3060 C   0  0  0  0  0  0  0  0  0  0  0  0
    1.8910   -2.7990    1.3130 O   0  0  0  0  0  0  0  0  0  0  0  0
   -1.3020   -4.3120    4.0970 O   0  0  0  0  0  0  0  0  0  0  0  0
    2.4130   -2.0200    5.5790 H   0  0  0  0  0  0  0  0  0  0  0  0
    1.2060   -1.0540    4.7650 H   0  0  0  0  0  0  0  0  0  0  0  0
    3.0690   -3.1130    3.6980 H   0  0  0  0  0  0  0  0  0  0  0  0
    1.2450   -4.4810    3.0370 H   0  0  0  0  0  0  0  0  0  0  0  0
    1.3670   -4.2740    4.8100 H   0  0  0  0  0  0  0  0  0  0  0  0
   -2.2740   -4.0270    4.1110 H   0  0  0  0  0  0  0  0  0  0  0  0
    3.0800    2.4320   -2.5370 N   0  0  0  0  0  0  0  0  0  0  0  0
    3.0080    1.7670   -1.2950 C   0  0  0  0  0  0  0  0  0  0  0  0
    2.8630    2.4630   -0.2510 O   0  0  0  0  0  0  0  0  0  0  0  0
    3.0970    0.2890   -1.1670 C   0  0  0  0  0  0  0  0  0  0  0  0
    2.9210   -0.2350    0.2060 C   0  0  0  0  0  0  0  0  0  0  0  0
    1.6360    0.0180    0.8990 C   0  0  2  0  0  0  0  0  0  0  0  0
    1.7790   -0.6100    2.2290 N   0  0  0  0  0  0  0  0  0  0  0  0
    0.4230   -0.5220    0.2680 C   0  0  0  0  0  0  0  0  0  0  0  0
   -0.2570   -1.4320    0.8560 O   0  0  0  0  0  0  0  0  0  0  0  0
    3.0690    1.8750   -3.4060 H   0  0  0  0  0  0  0  0  0  0  0  0
    3.1430    3.4590   -2.5920 H   0  0  0  0  0  0  0  0  0  0  0  0
    4.1820    0.0660   -1.4410 H   0  0  0  0  0  0  0  0  0  0  0  0
    2.5360   -0.2570   -1.9590 H   0  0  0  0  0  0  0  0  0  0  0  0
    3.2470   -1.3000    0.2280 H   0  0  0  0  0  0  0  0  0  0  0  0
    3.7180    0.2790    0.8370 H   0  0  0  0  0  0  0  0  0  0  0  0
    1.5420    1.1300    1.0740 H   0  0  0  0  0  0  0  0  0  0  0  0
    1.7930   -0.0330    3.1030 H   0  0  0  0  0  0  0  0  0  0  0  0
   -0.0850   -0.1060   -0.9880 N   0  0  0  0  0  0  0  0  0  0  0  0
   -1.2960   -0.7350   -1.4860 C   0  0  1  0  0  0  0  0  0  0  0  0
   -2.3280    0.2910   -1.8920 C   0  0  0  0  0  0  0  0  0  0  0  0
   -2.7540    1.1850   -0.7800 C   0  0  0  0  0  0  0  0  0  0  0  0
   -3.3680    0.4800    0.3820 C   0  0  0  0  0  0  0  0  0  0  0  0
   -4.5990   -0.2680   -0.0710 C   0  0  0  0  0  0  0  0  0  0  0  0
   -5.2400   -0.9740    1.0190 N   0  0  0  0  0  0  0  0  0  0  0  0
   -0.9100   -1.4640   -2.7350 C   0  0  0  0  0  0  0  0  0  0  0  0
   -1.7730   -2.1070   -3.3850 O   0  0  0  0  0  0  0  0  0  0  0  0
    0.3850   -1.4730   -3.2300 O   0  0  0  0  0  0  0  0  0  0  0  0
    0.4010    0.6490   -1.5450 H   0  0  0  0  0  0  0  0  0  0  0  0
   -1.6940   -1.4810   -0.8030 H   0  0  0  0  0  0  0  0  0  0  0  0
   -1.8350    0.9490   -2.6660 H   0  0  0  0  0  0  0  0  0  0  0  0
   -3.1890   -0.1770   -2.3940 H   0  0  0  0  0  0  0  0  0  0  0  0
   -1.9000    1.8300   -0.4570 H   0  0  0  0  0  0  0  0  0  0  0  0
   -3.5120    1.8890   -1.1880 H   0  0  0  0  0  0  0  0  0  0  0  0
   -3.7400    1.2790    1.0870 H   0  0  0  0  0  0  0  0  0  0  0  0
   -2.6750   -0.1330    0.9750 H   0  0  0  0  0  0  0  0  0  0  0  0
   -4.3720   -0.9310   -0.9140 H   0  0  0  0  0  0  0  0  0  0  0  0
   -5.3320    0.4950   -0.4310 H   0  0  0  0  0  0  0  0  0  0  0  0
   -5.7460   -1.8150    0.6330 H   0  0  0  0  0  0  0  0  0  0  0  0
   -4.5900   -1.2220    1.7830 H   0  0  0  0  0  0  0  0  0  0  0  0
  1 10  1  0  0  0  0
  1  9  1  0  0  0  0
  2 11  1  1  0  0  0
  2  3  1  0  0  0  0
  2  1  1  0  0  0  0
  3  4  1  0  0  0  0
  3 13  1  0  0  0  0
  4  8  1  0  0  0  0
  5  4  2  0  0  0  0
  6  2  1  0  0  0  0
  7  6  2  0  0  0  0
  8 14  1  0  0  0  0
 12  3  1  0  0  0  0
 15 16  1  0  0  0  0
 16 18  1  0  0  0  0
 16 17  2  0  0  0  0
 18 19  1  0  0  0  0
 19 28  1  0  0  0  0
 19 29  1  0  0  0  0
 19 20  1  0  0  0  0
 20 30  1  1  0  0  0
 20 21  1  0  0  0  0
 21  6  1  0  0  0  0
 21 31  1  0  0  0  0
 22 23  2  0  0  0  0
 22 20  1  0  0  0  0
 24 15  1  0  0  0  0
 25 15  1  0  0  0  0
 26 18  1  0  0  0  0
 27 18  1  0  0  0  0
 32 22  1  0  0  0  0
 33 32  1  0  0  0  0
 33 43  1  1  0  0  0
 34 33  1  0  0  0  0
 34 35  1  0  0  0  0
 35 46  1  0  0  0  0
 35 36  1  0  0  0  0
 36 49  1  0  0  0  0
 36 48  1  0  0  0  0
 37 36  1  0  0  0  0
 37 38  1  0  0  0  0
 38 53  1  0  0  0  0
 39 33  1  0  0  0  0
 40 39  2  0  0  0  0
 41 39  1  0  0  0  0
 42 32  1  0  0  0  0
 44 34  1  0  0  0  0
 45 34  1  0  0  0  0
 47 35  1  0  0  0  0
 50 37  1  0  0  0  0
 51 37  1  0  0  0  0
 52 38  1  0  0  0  0
M  END
$$$$
