DQM.pdb
 OpenBabel07022418143D

 49 48  0  0  1  0  0  0  0  0999 V2000
    0.4470   -2.3630    3.8540 N   0  0  0  0  0  0  0  0  0  0  0  0
    0.1190   -0.9740    3.6630 C   0  0  1  0  0  0  0  0  0  0  0  0
    0.8180   -0.0530    4.6010 C   0  0  0  0  0  0  0  0  0  0  0  0
    2.2960   -0.1200    4.4910 C   0  0  0  0  0  0  0  0  0  0  0  0
    2.8470   -0.8960    3.6640 O   0  0  0  0  0  0  0  0  0  0  0  0
    0.2060   -0.5780    2.2420 C   0  0  0  0  0  0  0  0  0  0  0  0
    0.5070   -1.4540    1.3970 O   0  0  0  0  0  0  0  0  0  0  0  0
    3.1350    0.6560    5.2780 O   0  0  0  0  0  0  0  0  0  0  0  0
   -0.2810   -2.9860    3.4410 H   0  0  0  0  0  0  0  0  0  0  0  0
    0.5060   -2.5800    4.8710 H   0  0  0  0  0  0  0  0  0  0  0  0
   -0.9820   -0.8980    3.9180 H   0  0  0  0  0  0  0  0  0  0  0  0
    0.5380   -0.3490    5.6400 H   0  0  0  0  0  0  0  0  0  0  0  0
    0.4530    0.9660    4.4590 H   0  0  0  0  0  0  0  0  0  0  0  0
    4.0190    1.0140    4.9080 H   0  0  0  0  0  0  0  0  0  0  0  0
    4.7060   -0.0350   -0.8320 N   0  0  0  0  0  0  0  0  0  0  0  0
    3.6320    0.8720   -0.7240 C   0  0  0  0  0  0  0  0  0  0  0  0
    3.7660    2.0400   -1.1320 O   0  0  0  0  0  0  0  0  0  0  0  0
    2.3420    0.4530   -0.1290 C   0  0  0  0  0  0  0  0  0  0  0  0
    1.3420    1.5710   -0.0990 C   0  0  0  0  0  0  0  0  0  0  0  0
    0.0160    1.2230    0.4670 C   0  0  2  0  0  0  0  0  0  0  0  0
   -0.0340    0.7510    1.7950 N   0  0  0  0  0  0  0  0  0  0  0  0
   -0.8310    0.5240   -0.5290 C   0  0  0  0  0  0  0  0  0  0  0  0
   -0.6480    0.8500   -1.7320 O   0  0  0  0  0  0  0  0  0  0  0  0
    4.4890   -1.0670   -0.7950 H   0  0  0  0  0  0  0  0  0  0  0  0
    5.7040    0.2280   -0.9460 H   0  0  0  0  0  0  0  0  0  0  0  0
    2.5790    0.2190    0.9530 H   0  0  0  0  0  0  0  0  0  0  0  0
    2.0020   -0.4260   -0.6840 H   0  0  0  0  0  0  0  0  0  0  0  0
    1.1930    1.8680   -1.1800 H   0  0  0  0  0  0  0  0  0  0  0  0
    1.7850    2.4980    0.3590 H   0  0  0  0  0  0  0  0  0  0  0  0
   -0.5350    2.2580    0.5170 H   0  0  0  0  0  0  0  0  0  0  0  0
   -0.2730    1.4320    2.5790 H   0  0  0  0  0  0  0  0  0  0  0  0
    0.1900   -2.3030   -2.7630 C   0  0  0  0  0  0  0  0  0  0  0  0
   -0.8020   -3.7100   -2.2690 S   0  0  0  0  0  0  0  0  0  0  0  0
   -1.7830   -3.4550   -0.7910 C   0  0  0  0  0  0  0  0  0  0  0  0
   -2.8890   -2.4990   -0.9510 C   0  0  0  0  0  0  0  0  0  0  0  0
   -2.5940   -1.0780   -1.2600 C   0  0  2  0  0  0  0  0  0  0  0  0
   -1.7980   -0.4470   -0.1940 N   0  0  0  0  0  0  0  0  0  0  0  0
   -3.9000   -0.2970   -1.3400 C   0  0  0  0  0  0  0  0  0  0  0  0
   -4.7430   -0.6430   -2.1800 O   0  0  0  0  0  0  0  0  0  0  0  0
   -4.1360    0.7620   -0.5080 O   0  0  0  0  0  0  0  0  0  0  0  0
    1.1820   -2.6470   -3.2120 H   0  0  0  0  0  0  0  0  0  0  0  0
   -0.3560   -1.7150   -3.5400 H   0  0  0  0  0  0  0  0  0  0  0  0
    0.3750   -1.6660   -1.8890 H   0  0  0  0  0  0  0  0  0  0  0  0
   -1.1360   -3.2020    0.0970 H   0  0  0  0  0  0  0  0  0  0  0  0
   -2.2630   -4.4640   -0.5610 H   0  0  0  0  0  0  0  0  0  0  0  0
   -3.5910   -2.5910   -0.0590 H   0  0  0  0  0  0  0  0  0  0  0  0
   -3.5550   -2.9080   -1.7860 H   0  0  0  0  0  0  0  0  0  0  0  0
   -2.1570   -0.9310   -2.2520 H   0  0  0  0  0  0  0  0  0  0  0  0
   -1.9780   -0.7270    0.8060 H   0  0  0  0  0  0  0  0  0  0  0  0
  1 10  1  0  0  0  0
  2  1  1  0  0  0  0
  2 11  1  1  0  0  0
  2  3  1  0  0  0  0
  3 12  1  0  0  0  0
  4  3  1  0  0  0  0
  4  8  1  0  0  0  0
  5  4  2  0  0  0  0
  6  2  1  0  0  0  0
  7  6  2  0  0  0  0
  9  1  1  0  0  0  0
 13  3  1  0  0  0  0
 14  8  1  0  0  0  0
 15 24  1  0  0  0  0
 15 16  1  0  0  0  0
 16 18  1  0  0  0  0
 17 16  2  0  0  0  0
 18 19  1  0  0  0  0
 18 26  1  0  0  0  0
 19 29  1  0  0  0  0
 19 20  1  0  0  0  0
 20 30  1  1  0  0  0
 20 21  1  0  0  0  0
 21  6  1  0  0  0  0
 21 31  1  0  0  0  0
 22 37  1  0  0  0  0
 22 20  1  0  0  0  0
 23 22  2  0  0  0  0
 25 15  1  0  0  0  0
 27 18  1  0  0  0  0
 28 19  1  0  0  0  0
 32 33  1  0  0  0  0
 32 43  1  0  0  0  0
 33 34  1  0  0  0  0
 34 45  1  0  0  0  0
 34 44  1  0  0  0  0
 35 34  1  0  0  0  0
 35 46  1  0  0  0  0
 36 48  1  6  0  0  0
 36 35  1  0  0  0  0
 36 37  1  0  0  0  0
 37 49  1  0  0  0  0
 38 36  1  0  0  0  0
 38 40  1  0  0  0  0
 39 38  2  0  0  0  0
 41 32  1  0  0  0  0
 42 32  1  0  0  0  0
 47 35  1  0  0  0  0
M  END
$$$$
