DQN.pdb
 OpenBabel07022418143D

 46 45  0  0  1  0  0  0  0  0999 V2000
    3.0590   -1.5610    3.4790 N   0  0  0  0  0  0  0  0  0  0  0  0
    1.7930   -1.5350    4.1480 C   0  0  1  0  0  0  0  0  0  0  0  0
    1.8240   -0.7770    5.4560 C   0  0  0  0  0  0  0  0  0  0  0  0
    2.2220    0.6440    5.2510 C   0  0  0  0  0  0  0  0  0  0  0  0
    2.4680    1.0180    4.0850 O   0  0  0  0  0  0  0  0  0  0  0  0
    0.7080   -1.0120    3.2420 C   0  0  0  0  0  0  0  0  0  0  0  0
   -0.4600   -0.9260    3.6870 O   0  0  0  0  0  0  0  0  0  0  0  0
    2.3220    1.5290    6.2930 O   0  0  0  0  0  0  0  0  0  0  0  0
    2.9960   -2.2540    2.7010 H   0  0  0  0  0  0  0  0  0  0  0  0
    3.7630   -1.9210    4.1580 H   0  0  0  0  0  0  0  0  0  0  0  0
    1.5110   -2.5820    4.3960 H   0  0  0  0  0  0  0  0  0  0  0  0
    0.8230   -0.8130    5.9040 H   0  0  0  0  0  0  0  0  0  0  0  0
    2.5350   -1.3120    6.1130 H   0  0  0  0  0  0  0  0  0  0  0  0
    2.1470    2.5080    6.1430 H   0  0  0  0  0  0  0  0  0  0  0  0
    2.9700    1.8930   -1.7400 N   0  0  0  0  0  0  0  0  0  0  0  0
    1.8000    1.3730   -1.1000 C   0  0  0  0  0  0  0  0  0  0  0  0
    1.2120    0.4690   -1.7210 O   0  0  0  0  0  0  0  0  0  0  0  0
    1.3220    1.8580    0.1880 C   0  0  0  0  0  0  0  0  0  0  0  0
    0.0760    1.3360    0.7520 C   0  0  0  0  0  0  0  0  0  0  0  0
   -0.0580   -0.1150    1.0290 C   0  0  2  0  0  0  0  0  0  0  0  0
    0.9580   -0.6190    1.9210 N   0  0  0  0  0  0  0  0  0  0  0  0
   -0.4220   -0.9970   -0.0760 C   0  0  0  0  0  0  0  0  0  0  0  0
    0.2080   -2.0760   -0.3480 O   0  0  0  0  0  0  0  0  0  0  0  0
    2.8600    2.2210   -2.7200 H   0  0  0  0  0  0  0  0  0  0  0  0
    3.8540    1.9220   -1.2200 H   0  0  0  0  0  0  0  0  0  0  0  0
    2.1980    1.8190    0.8870 H   0  0  0  0  0  0  0  0  0  0  0  0
    1.1600    2.9800    0.0400 H   0  0  0  0  0  0  0  0  0  0  0  0
   -0.7650    1.5960    0.0330 H   0  0  0  0  0  0  0  0  0  0  0  0
   -0.2250    1.8990    1.6820 H   0  0  0  0  0  0  0  0  0  0  0  0
   -1.0070   -0.1510    1.7050 H   0  0  0  0  0  0  0  0  0  0  0  0
    1.9620   -0.7070    1.5800 H   0  0  0  0  0  0  0  0  0  0  0  0
   -2.6460   -2.9710    0.3280 N   0  0  0  0  0  0  0  0  0  0  0  0
   -3.6520   -2.5710   -0.5590 C   0  0  0  0  0  0  0  0  0  0  0  0
   -4.8570   -2.9000   -0.2550 O   0  0  0  0  0  0  0  0  0  0  0  0
   -3.4550   -1.8120   -1.8040 C   0  0  0  0  0  0  0  0  0  0  0  0
   -1.9930   -1.4880   -2.0180 C   0  0  2  0  0  0  0  0  0  0  0  0
   -1.5240   -0.7090   -0.9290 N   0  0  0  0  0  0  0  0  0  0  0  0
   -1.7860   -0.8570   -3.3420 C   0  0  0  0  0  0  0  0  0  0  0  0
   -1.2840    0.2710   -3.4410 O   0  0  0  0  0  0  0  0  0  0  0  0
   -2.1560   -1.5320   -4.4850 O   0  0  0  0  0  0  0  0  0  0  0  0
   -1.9820   -3.7180    0.0360 H   0  0  0  0  0  0  0  0  0  0  0  0
   -2.5070   -2.5690    1.2810 H   0  0  0  0  0  0  0  0  0  0  0  0
   -4.0820   -0.8960   -1.7910 H   0  0  0  0  0  0  0  0  0  0  0  0
   -3.8030   -2.4360   -2.6550 H   0  0  0  0  0  0  0  0  0  0  0  0
   -1.4480   -2.4560   -2.0490 H   0  0  0  0  0  0  0  0  0  0  0  0
   -2.0390    0.1880   -0.7120 H   0  0  0  0  0  0  0  0  0  0  0  0
  1  2  1  0  0  0  0
  1 10  1  0  0  0  0
  2 11  1  1  0  0  0
  2  3  1  0  0  0  0
  3 12  1  0  0  0  0
  3 13  1  0  0  0  0
  4  3  1  0  0  0  0
  4  8  1  0  0  0  0
  5  4  2  0  0  0  0
  6  7  2  0  0  0  0
  6  2  1  0  0  0  0
  9  1  1  0  0  0  0
 14  8  1  0  0  0  0
 15 25  1  0  0  0  0
 15 16  1  0  0  0  0
 16 18  1  0  0  0  0
 17 16  2  0  0  0  0
 18 19  1  0  0  0  0
 18 26  1  0  0  0  0
 19 20  1  0  0  0  0
 19 29  1  0  0  0  0
 20 30  1  1  0  0  0
 20 21  1  0  0  0  0
 21  6  1  0  0  0  0
 22 20  1  0  0  0  0
 23 22  2  0  0  0  0
 24 15  1  0  0  0  0
 27 18  1  0  0  0  0
 28 19  1  0  0  0  0
 31 21  1  0  0  0  0
 32 42  1  0  0  0  0
 33 34  2  0  0  0  0
 33 32  1  0  0  0  0
 35 43  1  0  0  0  0
 35 33  1  0  0  0  0
 36 45  1  1  0  0  0
 36 35  1  0  0  0  0
 36 37  1  0  0  0  0
 37 46  1  0  0  0  0
 37 22  1  0  0  0  0
 38 36  1  0  0  0  0
 39 38  1  0  0  0  0
 40 38  2  0  0  0  0
 41 32  1  0  0  0  0
 44 35  1  0  0  0  0
M  END
$$$$
