DQP.pdb
 OpenBabel07022418143D

 46 46  0  0  1  0  0  0  0  0999 V2000
    3.2240    2.1830   -0.4070 N   0  0  0  0  0  0  0  0  0  0  0  0
    2.3810    1.5420    0.5970 C   0  0  1  0  0  0  0  0  0  0  0  0
    1.4420    2.5100    1.2340 C   0  0  0  0  0  0  0  0  0  0  0  0
    0.5270    3.1610    0.2900 C   0  0  0  0  0  0  0  0  0  0  0  0
    0.5310    2.9280   -0.9430 O   0  0  0  0  0  0  0  0  0  0  0  0
    1.7730    0.3300    0.0290 C   0  0  0  0  0  0  0  0  0  0  0  0
    1.9410    0.0800   -1.2170 O   0  0  0  0  0  0  0  0  0  0  0  0
   -0.3910    4.0810    0.7690 O   0  0  0  0  0  0  0  0  0  0  0  0
    2.8360    2.0970   -1.3520 H   0  0  0  0  0  0  0  0  0  0  0  0
    3.5050    3.1270   -0.1130 H   0  0  0  0  0  0  0  0  0  0  0  0
    3.1120    1.2460    1.4100 H   0  0  0  0  0  0  0  0  0  0  0  0
    2.0850    3.3310    1.6550 H   0  0  0  0  0  0  0  0  0  0  0  0
    0.9080    2.0260    2.0530 H   0  0  0  0  0  0  0  0  0  0  0  0
   -1.2850    4.2560    0.3410 H   0  0  0  0  0  0  0  0  0  0  0  0
    4.5170   -4.5430    0.9870 N   0  0  0  0  0  0  0  0  0  0  0  0
    3.1390   -4.2890    1.1220 C   0  0  0  0  0  0  0  0  0  0  0  0
    2.4200   -5.1100    1.7150 O   0  0  0  0  0  0  0  0  0  0  0  0
    2.5680   -3.0570    0.5590 C   0  0  0  0  0  0  0  0  0  0  0  0
    1.0960   -3.0130    0.8270 C   0  0  0  0  0  0  0  0  0  0  0  0
    0.4420   -1.7530    0.2650 C   0  0  2  0  0  0  0  0  0  0  0  0
    1.0100   -0.5670    0.8420 N   0  0  0  0  0  0  0  0  0  0  0  0
   -1.0000   -1.9230    0.5020 C   0  0  0  0  0  0  0  0  0  0  0  0
   -1.5000   -3.0130    0.0010 O   0  0  0  0  0  0  0  0  0  0  0  0
    4.9670   -4.9230    0.1270 H   0  0  0  0  0  0  0  0  0  0  0  0
    5.1820   -4.3490    1.7890 H   0  0  0  0  0  0  0  0  0  0  0  0
    3.1130   -2.1800    0.9670 H   0  0  0  0  0  0  0  0  0  0  0  0
    2.7950   -3.0510   -0.5410 H   0  0  0  0  0  0  0  0  0  0  0  0
    0.6350   -3.8960    0.3390 H   0  0  0  0  0  0  0  0  0  0  0  0
    0.8950   -3.0630    1.8940 H   0  0  0  0  0  0  0  0  0  0  0  0
    0.6650   -1.7270   -0.8300 H   0  0  0  0  0  0  0  0  0  0  0  0
    0.9060   -0.3160    1.8460 H   0  0  0  0  0  0  0  0  0  0  0  0
   -1.8360   -1.0280    1.2010 N   0  0  0  0  0  0  0  0  0  0  0  0
   -1.5560    0.2160    1.8220 C   0  0  0  0  0  0  0  0  0  0  0  0
   -2.9300    0.8990    1.9630 C   0  0  0  0  0  0  0  0  0  0  0  0
   -3.7700   -0.2940    2.3820 C   0  0  0  0  0  0  0  0  0  0  0  0
   -3.2710   -1.3200    1.3970 C   0  0  1  0  0  0  0  0  0  0  0  0
   -3.9970   -1.1460    0.1240 C   0  0  0  0  0  0  0  0  0  0  0  0
   -5.2330   -1.3520    0.0990 O   0  0  0  0  0  0  0  0  0  0  0  0
   -3.3710   -0.7660   -1.0440 O   0  0  0  0  0  0  0  0  0  0  0  0
   -0.9980    0.9260    1.1780 H   0  0  0  0  0  0  0  0  0  0  0  0
   -1.1880    0.1310    2.8520 H   0  0  0  0  0  0  0  0  0  0  0  0
   -3.2370    1.2870    0.9680 H   0  0  0  0  0  0  0  0  0  0  0  0
   -2.8380    1.6630    2.7320 H   0  0  0  0  0  0  0  0  0  0  0  0
   -4.8230   -0.0400    2.2500 H   0  0  0  0  0  0  0  0  0  0  0  0
   -3.4940   -0.5310    3.4290 H   0  0  0  0  0  0  0  0  0  0  0  0
   -3.4150   -2.3140    1.8550 H   0  0  0  0  0  0  0  0  0  0  0  0
  1 10  1  0  0  0  0
  1  2  1  0  0  0  0
  2  3  1  0  0  0  0
  2 11  1  1  0  0  0
  3 12  1  0  0  0  0
  3 13  1  0  0  0  0
  4  8  1  0  0  0  0
  4  3  1  0  0  0  0
  5  4  2  0  0  0  0
  6  2  1  0  0  0  0
  6 21  1  0  0  0  0
  7  6  2  0  0  0  0
  9  1  1  0  0  0  0
 14  8  1  0  0  0  0
 15 16  1  0  0  0  0
 15 25  1  0  0  0  0
 16 17  2  0  0  0  0
 18 19  1  0  0  0  0
 18 26  1  0  0  0  0
 18 16  1  0  0  0  0
 19 29  1  0  0  0  0
 20 30  1  6  0  0  0
 20 22  1  0  0  0  0
 20 19  1  0  0  0  0
 20 21  1  0  0  0  0
 21 31  1  0  0  0  0
 22 32  1  0  0  0  0
 23 22  2  0  0  0  0
 24 15  1  0  0  0  0
 27 18  1  0  0  0  0
 28 19  1  0  0  0  0
 32 36  1  0  0  0  0
 32 33  1  0  0  0  0
 33 34  1  0  0  0  0
 33 41  1  0  0  0  0
 34 35  1  0  0  0  0
 34 43  1  0  0  0  0
 35 45  1  0  0  0  0
 36 46  1  1  0  0  0
 36 35  1  0  0  0  0
 37 36  1  0  0  0  0
 38 37  1  0  0  0  0
 39 37  2  0  0  0  0
 40 33  1  0  0  0  0
 42 34  1  0  0  0  0
 44 35  1  0  0  0  0
M  END
$$$$
