DQQ.pdb
 OpenBabel07022418143D

 49 48  0  0  1  0  0  0  0  0999 V2000
    1.5910   -2.9330    4.7110 N   0  0  0  0  0  0  0  0  0  0  0  0
    0.9540   -1.6140    4.6140 C   0  0  1  0  0  0  0  0  0  0  0  0
    1.5790   -0.6970    5.6370 C   0  0  0  0  0  0  0  0  0  0  0  0
    1.0650    0.6610    5.6650 C   0  0  0  0  0  0  0  0  0  0  0  0
    1.6520    1.5780    5.0390 O   0  0  0  0  0  0  0  0  0  0  0  0
    0.9900   -1.0930    3.2330 C   0  0  0  0  0  0  0  0  0  0  0  0
    1.7290   -1.7370    2.4240 O   0  0  0  0  0  0  0  0  0  0  0  0
   -0.0750    0.9750    6.3770 O   0  0  0  0  0  0  0  0  0  0  0  0
    2.5810   -2.8360    5.0660 H   0  0  0  0  0  0  0  0  0  0  0  0
    1.0550   -3.5270    5.3720 H   0  0  0  0  0  0  0  0  0  0  0  0
   -0.1060   -1.7610    4.8930 H   0  0  0  0  0  0  0  0  0  0  0  0
    1.4300   -1.1400    6.6520 H   0  0  0  0  0  0  0  0  0  0  0  0
    2.6880   -0.7040    5.4210 H   0  0  0  0  0  0  0  0  0  0  0  0
   -0.6420    1.7640    6.0260 H   0  0  0  0  0  0  0  0  0  0  0  0
    1.5870    3.4530   -1.6790 N   0  0  0  0  0  0  0  0  0  0  0  0
    1.2880    2.8100   -0.4570 C   0  0  0  0  0  0  0  0  0  0  0  0
    0.3820    3.2520    0.2660 O   0  0  0  0  0  0  0  0  0  0  0  0
    2.0590    1.6240   -0.0620 C   0  0  0  0  0  0  0  0  0  0  0  0
    1.6990    1.0330    1.2490 C   0  0  0  0  0  0  0  0  0  0  0  0
    0.3230    0.5270    1.4460 C   0  0  2  0  0  0  0  0  0  0  0  0
    0.2680    0.0280    2.8250 N   0  0  0  0  0  0  0  0  0  0  0  0
   -0.1440   -0.5090    0.5070 C   0  0  0  0  0  0  0  0  0  0  0  0
   -0.3930   -1.6810    0.9700 O   0  0  0  0  0  0  0  0  0  0  0  0
    1.7220    4.4760   -1.7890 H   0  0  0  0  0  0  0  0  0  0  0  0
    1.6860    2.8820   -2.5480 H   0  0  0  0  0  0  0  0  0  0  0  0
    3.1450    1.9800   -0.0610 H   0  0  0  0  0  0  0  0  0  0  0  0
    2.0960    0.8240   -0.8620 H   0  0  0  0  0  0  0  0  0  0  0  0
    2.4680    0.2810    1.6020 H   0  0  0  0  0  0  0  0  0  0  0  0
    1.8320    1.8680    2.0120 H   0  0  0  0  0  0  0  0  0  0  0  0
   -0.3970    1.3650    1.3910 H   0  0  0  0  0  0  0  0  0  0  0  0
   -0.3380    0.5150    3.5450 H   0  0  0  0  0  0  0  0  0  0  0  0
   -3.2240   -4.6620   -3.4300 N   0  0  0  0  0  0  0  0  0  0  0  0
   -2.8610   -3.5840   -2.5910 C   0  0  0  0  0  0  0  0  0  0  0  0
   -2.6290   -3.7980   -1.3900 O   0  0  0  0  0  0  0  0  0  0  0  0
   -2.7600   -2.2250   -3.1430 C   0  0  0  0  0  0  0  0  0  0  0  0
   -2.2170   -1.1850   -2.2360 C   0  0  0  0  0  0  0  0  0  0  0  0
   -0.8140   -1.4380   -1.7440 C   0  0  2  0  0  0  0  0  0  0  0  0
   -0.3580   -0.3590   -0.8750 N   0  0  0  0  0  0  0  0  0  0  0  0
    0.1300   -1.6260   -2.8570 C   0  0  0  0  0  0  0  0  0  0  0  0
   -0.0250   -2.4940   -3.7470 O   0  0  0  0  0  0  0  0  0  0  0  0
    1.2480   -0.8150   -2.9450 O   0  0  0  0  0  0  0  0  0  0  0  0
   -2.7370   -4.8120   -4.3650 H   0  0  0  0  0  0  0  0  0  0  0  0
   -3.9620   -5.3650   -3.2200 H   0  0  0  0  0  0  0  0  0  0  0  0
   -2.2950   -2.2150   -4.1580 H   0  0  0  0  0  0  0  0  0  0  0  0
   -3.8350   -1.9170   -3.3560 H   0  0  0  0  0  0  0  0  0  0  0  0
   -2.3540   -0.2000   -2.7090 H   0  0  0  0  0  0  0  0  0  0  0  0
   -2.8930   -1.1610   -1.3300 H   0  0  0  0  0  0  0  0  0  0  0  0
   -0.8580   -2.3540   -1.1170 H   0  0  0  0  0  0  0  0  0  0  0  0
   -0.1970    0.5740   -1.3060 H   0  0  0  0  0  0  0  0  0  0  0  0
  1  9  1  0  0  0  0
  1 10  1  0  0  0  0
  2  1  1  0  0  0  0
  2 11  1  1  0  0  0
  2  3  1  0  0  0  0
  3  4  1  0  0  0  0
  3 12  1  0  0  0  0
  4  8  1  0  0  0  0
  5  4  2  0  0  0  0
  6  2  1  0  0  0  0
  7  6  2  0  0  0  0
 13  3  1  0  0  0  0
 14  8  1  0  0  0  0
 15 16  1  0  0  0  0
 16 18  1  0  0  0  0
 16 17  2  0  0  0  0
 18 26  1  0  0  0  0
 18 19  1  0  0  0  0
 19 20  1  0  0  0  0
 19 28  1  0  0  0  0
 19 29  1  0  0  0  0
 20 30  1  6  0  0  0
 20 21  1  0  0  0  0
 21  6  1  0  0  0  0
 21 31  1  0  0  0  0
 22 23  2  0  0  0  0
 22 20  1  0  0  0  0
 24 15  1  0  0  0  0
 25 15  1  0  0  0  0
 27 18  1  0  0  0  0
 32 43  1  0  0  0  0
 32 33  1  0  0  0  0
 33 34  2  0  0  0  0
 35 33  1  0  0  0  0
 35 36  1  0  0  0  0
 36 37  1  0  0  0  0
 36 47  1  0  0  0  0
 37 48  1  1  0  0  0
 37 38  1  0  0  0  0
 38 22  1  0  0  0  0
 39 37  1  0  0  0  0
 40 39  2  0  0  0  0
 41 39  1  0  0  0  0
 42 32  1  0  0  0  0
 44 35  1  0  0  0  0
 45 35  1  0  0  0  0
 46 36  1  0  0  0  0
 49 38  1  0  0  0  0
M  END
$$$$
