DQR.pdb
 OpenBabel07022418143D

 55 54  0  0  1  0  0  0  0  0999 V2000
    4.0100   -1.0360    4.2680 N   0  0  0  0  0  0  0  0  0  0  0  0
    2.8520   -0.1050    4.0870 C   0  0  1  0  0  0  0  0  0  0  0  0
    3.4690    1.2460    4.1750 C   0  0  0  0  0  0  0  0  0  0  0  0
    2.5940    2.4060    4.0520 C   0  0  0  0  0  0  0  0  0  0  0  0
    3.1520    3.5440    4.0200 O   0  0  0  0  0  0  0  0  0  0  0  0
    2.3200   -0.4590    2.7400 C   0  0  0  0  0  0  0  0  0  0  0  0
    3.1290   -0.9520    1.8780 O   0  0  0  0  0  0  0  0  0  0  0  0
    1.2300    2.3890    3.9680 O   0  0  0  0  0  0  0  0  0  0  0  0
    3.5860   -2.0010    4.4040 H   0  0  0  0  0  0  0  0  0  0  0  0
    4.4900   -0.8100    5.1760 H   0  0  0  0  0  0  0  0  0  0  0  0
    2.1800   -0.2870    4.9080 H   0  0  0  0  0  0  0  0  0  0  0  0
    3.9100    1.3070    5.2220 H   0  0  0  0  0  0  0  0  0  0  0  0
    4.3790    1.3450    3.5290 H   0  0  0  0  0  0  0  0  0  0  0  0
    0.7140    3.2500    4.0650 H   0  0  0  0  0  0  0  0  0  0  0  0
    3.6930    2.0590   -1.5800 N   0  0  0  0  0  0  0  0  0  0  0  0
    3.0040    0.8570   -1.3210 C   0  0  0  0  0  0  0  0  0  0  0  0
    3.2660   -0.1460   -2.0240 O   0  0  0  0  0  0  0  0  0  0  0  0
    1.9930    0.7720   -0.2440 C   0  0  0  0  0  0  0  0  0  0  0  0
    1.3980   -0.5890   -0.1010 C   0  0  0  0  0  0  0  0  0  0  0  0
    0.4030   -0.5860    1.0490 C   0  0  2  0  0  0  0  0  0  0  0  0
    0.9790   -0.2960    2.3320 N   0  0  0  0  0  0  0  0  0  0  0  0
   -0.5600   -1.6640    1.0390 C   0  0  0  0  0  0  0  0  0  0  0  0
   -0.8100   -2.2670    2.1310 O   0  0  0  0  0  0  0  0  0  0  0  0
    3.2130    2.9630   -1.8260 H   0  0  0  0  0  0  0  0  0  0  0  0
    4.7280    2.0620   -1.5270 H   0  0  0  0  0  0  0  0  0  0  0  0
    1.1070    1.4240   -0.6020 H   0  0  0  0  0  0  0  0  0  0  0  0
    2.3050    1.1750    0.7180 H   0  0  0  0  0  0  0  0  0  0  0  0
    0.7670   -0.7530   -1.0160 H   0  0  0  0  0  0  0  0  0  0  0  0
    2.0910   -1.4270   -0.0780 H   0  0  0  0  0  0  0  0  0  0  0  0
   -0.1780    0.3930    0.8060 H   0  0  0  0  0  0  0  0  0  0  0  0
    0.3140    0.0750    3.0910 H   0  0  0  0  0  0  0  0  0  0  0  0
   -1.6380   -0.6070   -3.4680 N   0  0  0  0  0  0  0  0  0  0  0  0
   -2.9380   -0.7170   -2.9440 C   0  0  0  0  0  0  0  0  0  0  0  0
   -3.8880   -1.0970   -3.7380 N   0  0  0  0  0  0  0  0  0  0  0  0
   -3.2030   -0.4150   -1.5750 N   0  0  0  0  0  0  0  0  0  0  0  0
   -4.3890   -0.8790   -0.9680 C   0  0  0  0  0  0  0  0  0  0  0  0
   -4.5410   -2.3260   -0.7490 C   0  0  0  0  0  0  0  0  0  0  0  0
   -3.6400   -3.0290    0.1540 C   0  0  0  0  0  0  0  0  0  0  0  0
   -2.2070   -3.2070   -0.0260 C   0  0  2  0  0  0  0  0  0  0  0  0
   -1.2880   -2.1460   -0.1050 N   0  0  0  0  0  0  0  0  0  0  0  0
   -1.9990   -4.1210   -1.2020 C   0  0  0  0  0  0  0  0  0  0  0  0
   -2.7480   -5.1200   -1.2770 O   0  0  0  0  0  0  0  0  0  0  0  0
   -1.0280   -3.8630   -2.1470 O   0  0  0  0  0  0  0  0  0  0  0  0
   -0.9690    0.1380   -3.2120 H   0  0  0  0  0  0  0  0  0  0  0  0
   -1.3210   -1.3260   -4.1670 H   0  0  0  0  0  0  0  0  0  0  0  0
   -4.8770   -1.2100   -3.4530 H   0  0  0  0  0  0  0  0  0  0  0  0
   -2.4990    0.1730   -1.0360 H   0  0  0  0  0  0  0  0  0  0  0  0
   -5.3100   -0.4490   -1.5130 H   0  0  0  0  0  0  0  0  0  0  0  0
   -4.5010   -0.3680    0.0450 H   0  0  0  0  0  0  0  0  0  0  0  0
   -4.6180   -2.8780   -1.7660 H   0  0  0  0  0  0  0  0  0  0  0  0
   -5.6440   -2.4540   -0.4110 H   0  0  0  0  0  0  0  0  0  0  0  0
   -4.0600   -4.1200    0.2070 H   0  0  0  0  0  0  0  0  0  0  0  0
   -3.8810   -2.7420    1.2610 H   0  0  0  0  0  0  0  0  0  0  0  0
   -1.9050   -3.8890    0.8880 H   0  0  0  0  0  0  0  0  0  0  0  0
   -1.0290   -1.6650   -0.9850 H   0  0  0  0  0  0  0  0  0  0  0  0
  1  9  1  0  0  0  0
  1 10  1  0  0  0  0
  2  3  1  0  0  0  0
  2  1  1  0  0  0  0
  2 11  1  1  0  0  0
  3 12  1  0  0  0  0
  4  3  1  0  0  0  0
  5  4  2  0  0  0  0
  6  2  1  0  0  0  0
  7  6  2  0  0  0  0
  8  4  1  0  0  0  0
  8 14  1  0  0  0  0
 13  3  1  0  0  0  0
 15 25  1  0  0  0  0
 15 16  1  0  0  0  0
 16 18  1  0  0  0  0
 17 16  2  0  0  0  0
 18 19  1  0  0  0  0
 18 27  1  0  0  0  0
 19 29  1  0  0  0  0
 19 20  1  0  0  0  0
 20 30  1  6  0  0  0
 20 21  1  0  0  0  0
 21  6  1  0  0  0  0
 21 31  1  0  0  0  0
 22 20  1  0  0  0  0
 22 23  2  0  0  0  0
 24 15  1  0  0  0  0
 26 18  1  0  0  0  0
 28 19  1  0  0  0  0
 32 44  1  0  0  0  0
 32 33  1  0  0  0  0
 33 35  1  0  0  0  0
 34 46  1  0  0  0  0
 34 33  2  0  0  0  0
 35 47  1  0  0  0  0
 35 36  1  0  0  0  0
 36 37  1  0  0  0  0
 36 49  1  0  0  0  0
 37 51  1  0  0  0  0
 37 38  1  0  0  0  0
 38 52  1  0  0  0  0
 38 53  1  0  0  0  0
 39 38  1  0  0  0  0
 39 54  1  1  0  0  0
 40 39  1  0  0  0  0
 40 22  1  0  0  0  0
 41 39  1  0  0  0  0
 42 41  1  0  0  0  0
 43 41  2  0  0  0  0
 45 32  1  0  0  0  0
 48 36  1  0  0  0  0
 50 37  1  0  0  0  0
 55 40  1  0  0  0  0
M  END
$$$$
