DQS.pdb
 OpenBabel07022418143D

 43 42  0  0  1  0  0  0  0  0999 V2000
   -1.7380   -2.3380    3.7040 N   0  0  0  0  0  0  0  0  0  0  0  0
   -1.6250   -0.9220    3.2880 C   0  0  1  0  0  0  0  0  0  0  0  0
   -1.5520   -0.1580    4.5800 C   0  0  0  0  0  0  0  0  0  0  0  0
   -1.4300    1.2860    4.4660 C   0  0  0  0  0  0  0  0  0  0  0  0
   -0.2650    1.8040    4.4280 O   0  0  0  0  0  0  0  0  0  0  0  0
   -0.4000   -0.7720    2.4450 C   0  0  0  0  0  0  0  0  0  0  0  0
    0.4150   -1.7400    2.3560 O   0  0  0  0  0  0  0  0  0  0  0  0
   -2.4920    2.1760    4.3920 O   0  0  0  0  0  0  0  0  0  0  0  0
   -2.3740   -2.3600    4.5330 H   0  0  0  0  0  0  0  0  0  0  0  0
   -2.1290   -2.9260    2.9520 H   0  0  0  0  0  0  0  0  0  0  0  0
   -2.5580   -0.6930    2.7420 H   0  0  0  0  0  0  0  0  0  0  0  0
   -0.6960   -0.5350    5.1830 H   0  0  0  0  0  0  0  0  0  0  0  0
   -2.4790   -0.4460    5.1520 H   0  0  0  0  0  0  0  0  0  0  0  0
   -2.3560    3.0030    3.8250 H   0  0  0  0  0  0  0  0  0  0  0  0
    4.6500   -0.0020   -1.2650 N   0  0  0  0  0  0  0  0  0  0  0  0
    3.7690   -0.2670   -0.1830 C   0  0  0  0  0  0  0  0  0  0  0  0
    3.2180   -1.4220   -0.1240 O   0  0  0  0  0  0  0  0  0  0  0  0
    3.4790    0.7180    0.8550 C   0  0  0  0  0  0  0  0  0  0  0  0
    2.2400    0.5150    1.6550 C   0  0  0  0  0  0  0  0  0  0  0  0
    0.9650    0.7330    0.9240 C   0  0  2  0  0  0  0  0  0  0  0  0
   -0.1860    0.4460    1.7680 N   0  0  0  0  0  0  0  0  0  0  0  0
    0.8750    0.2350   -0.4090 C   0  0  0  0  0  0  0  0  0  0  0  0
    1.6280    0.7160   -1.3230 O   0  0  0  0  0  0  0  0  0  0  0  0
    5.1600   -0.7930   -1.7140 H   0  0  0  0  0  0  0  0  0  0  0  0
    4.8190    0.9540   -1.6450 H   0  0  0  0  0  0  0  0  0  0  0  0
    3.4860    1.7360    0.3540 H   0  0  0  0  0  0  0  0  0  0  0  0
    4.3860    0.7390    1.5370 H   0  0  0  0  0  0  0  0  0  0  0  0
    2.3150    1.1980    2.5600 H   0  0  0  0  0  0  0  0  0  0  0  0
    2.2180   -0.5390    2.0780 H   0  0  0  0  0  0  0  0  0  0  0  0
    0.9050    1.8970    0.8110 H   0  0  0  0  0  0  0  0  0  0  0  0
   -0.9140    1.1820    1.8760 H   0  0  0  0  0  0  0  0  0  0  0  0
    0.2690   -3.0860   -3.6490 O   0  0  0  0  0  0  0  0  0  0  0  0
    0.2960   -2.7050   -2.3240 C   0  0  0  0  0  0  0  0  0  0  0  0
   -0.0440   -1.2330   -2.1910 C   0  0  2  0  0  0  0  0  0  0  0  0
   -0.0260   -0.8000   -0.8280 N   0  0  0  0  0  0  0  0  0  0  0  0
   -1.3630   -1.0190   -2.8370 C   0  0  0  0  0  0  0  0  0  0  0  0
   -1.5960   -1.3230   -4.0230 O   0  0  0  0  0  0  0  0  0  0  0  0
   -2.3900   -0.4570   -2.0970 O   0  0  0  0  0  0  0  0  0  0  0  0
    1.0970   -3.5480   -3.9530 H   0  0  0  0  0  0  0  0  0  0  0  0
   -0.4390   -3.3250   -1.7490 H   0  0  0  0  0  0  0  0  0  0  0  0
    1.2810   -2.9170   -1.8530 H   0  0  0  0  0  0  0  0  0  0  0  0
    0.6970   -0.6630   -2.7900 H   0  0  0  0  0  0  0  0  0  0  0  0
   -0.6400   -1.1990   -0.1120 H   0  0  0  0  0  0  0  0  0  0  0  0
  1  9  1  0  0  0  0
  2 11  1  6  0  0  0
  2  1  1  0  0  0  0
  2  3  1  0  0  0  0
  3 13  1  0  0  0  0
  3 12  1  0  0  0  0
  4  3  1  0  0  0  0
  5  4  2  0  0  0  0
  6  2  1  0  0  0  0
  7  6  2  0  0  0  0
  8  4  1  0  0  0  0
 10  1  1  0  0  0  0
 14  8  1  0  0  0  0
 15 16  1  0  0  0  0
 16 17  2  0  0  0  0
 16 18  1  0  0  0  0
 18 27  1  0  0  0  0
 18 19  1  0  0  0  0
 19 29  1  0  0  0  0
 19 28  1  0  0  0  0
 20 30  1  6  0  0  0
 20 19  1  0  0  0  0
 20 21  1  0  0  0  0
 21 31  1  0  0  0  0
 21  6  1  0  0  0  0
 22 20  1  0  0  0  0
 23 22  2  0  0  0  0
 24 15  1  0  0  0  0
 25 15  1  0  0  0  0
 26 18  1  0  0  0  0
 32 33  1  0  0  0  0
 33 34  1  0  0  0  0
 33 41  1  0  0  0  0
 33 40  1  0  0  0  0
 34 42  1  6  0  0  0
 34 35  1  0  0  0  0
 35 22  1  0  0  0  0
 35 43  1  0  0  0  0
 36 34  1  0  0  0  0
 36 38  1  0  0  0  0
 37 36  2  0  0  0  0
 39 32  1  0  0  0  0
M  END
$$$$
