DQT.pdb
 OpenBabel07022418143D

 46 45  0  0  1  0  0  0  0  0999 V2000
    2.6090   -2.2610    4.3740 N   0  0  0  0  0  0  0  0  0  0  0  0
    2.4740   -1.8140    2.9990 C   0  0  1  0  0  0  0  0  0  0  0  0
    1.8950   -2.9680    2.2140 C   0  0  0  0  0  0  0  0  0  0  0  0
    0.5740   -3.3810    2.7310 C   0  0  0  0  0  0  0  0  0  0  0  0
    0.0000   -4.3360    2.1500 O   0  0  0  0  0  0  0  0  0  0  0  0
    1.5990   -0.6200    2.9900 C   0  0  0  0  0  0  0  0  0  0  0  0
    1.1020   -0.1480    4.0700 O   0  0  0  0  0  0  0  0  0  0  0  0
   -0.0720   -2.8000    3.7960 O   0  0  0  0  0  0  0  0  0  0  0  0
    2.1050   -3.1320    4.5800 H   0  0  0  0  0  0  0  0  0  0  0  0
    2.3330   -1.4990    5.0240 H   0  0  0  0  0  0  0  0  0  0  0  0
    3.4750   -1.6080    2.5710 H   0  0  0  0  0  0  0  0  0  0  0  0
    2.5870   -3.8250    2.3550 H   0  0  0  0  0  0  0  0  0  0  0  0
    1.7990   -2.7230    1.1340 H   0  0  0  0  0  0  0  0  0  0  0  0
   -1.0330   -3.0670    4.0430 H   0  0  0  0  0  0  0  0  0  0  0  0
    1.7270    2.3560   -2.3660 N   0  0  0  0  0  0  0  0  0  0  0  0
    1.0540    2.3970   -1.1080 C   0  0  0  0  0  0  0  0  0  0  0  0
   -0.1760    2.2950   -1.1470 O   0  0  0  0  0  0  0  0  0  0  0  0
    1.7890    2.5490    0.1250 C   0  0  0  0  0  0  0  0  0  0  0  0
    1.1050    2.4950    1.4250 C   0  0  0  0  0  0  0  0  0  0  0  0
    0.3810    1.2650    1.8130 C   0  0  2  0  0  0  0  0  0  0  0  0
    1.2490    0.0830    1.8060 N   0  0  0  0  0  0  0  0  0  0  0  0
   -0.9120    0.9990    1.1790 C   0  0  0  0  0  0  0  0  0  0  0  0
   -1.8730    1.8270    1.2030 O   0  0  0  0  0  0  0  0  0  0  0  0
    2.4680    3.0320   -2.6180 H   0  0  0  0  0  0  0  0  0  0  0  0
    1.4590    1.6210   -3.0430 H   0  0  0  0  0  0  0  0  0  0  0  0
    2.2700    3.5860    0.0730 H   0  0  0  0  0  0  0  0  0  0  0  0
    2.7050    1.8870    0.0850 H   0  0  0  0  0  0  0  0  0  0  0  0
    0.3890    3.3600    1.4710 H   0  0  0  0  0  0  0  0  0  0  0  0
    1.8800    2.7830    2.2030 H   0  0  0  0  0  0  0  0  0  0  0  0
    0.0850    1.4570    2.9180 H   0  0  0  0  0  0  0  0  0  0  0  0
    1.6230   -0.2510    0.8930 H   0  0  0  0  0  0  0  0  0  0  0  0
   -1.2270   -1.8890   -2.0010 C   0  0  0  0  0  0  0  0  0  0  0  0
   -2.1600   -0.7760   -1.6350 C   0  0  1  0  0  0  0  0  0  0  0  0
   -3.4330   -1.1100   -2.1250 O   0  0  0  0  0  0  0  0  0  0  0  0
   -2.3100   -0.6010   -0.1410 C   0  0  2  0  0  0  0  0  0  0  0  0
   -1.0840   -0.2560    0.5050 N   0  0  0  0  0  0  0  0  0  0  0  0
   -2.9460   -1.7680    0.4930 C   0  0  0  0  0  0  0  0  0  0  0  0
   -4.0330   -2.2640    0.1050 O   0  0  0  0  0  0  0  0  0  0  0  0
   -2.3150   -2.3560    1.5780 O   0  0  0  0  0  0  0  0  0  0  0  0
   -0.7740   -1.6380   -2.9830 H   0  0  0  0  0  0  0  0  0  0  0  0
   -1.7500   -2.8600   -2.1390 H   0  0  0  0  0  0  0  0  0  0  0  0
   -0.4220   -2.0670   -1.2750 H   0  0  0  0  0  0  0  0  0  0  0  0
   -1.8540    0.1750   -2.0670 H   0  0  0  0  0  0  0  0  0  0  0  0
   -3.6220   -0.6150   -2.9480 H   0  0  0  0  0  0  0  0  0  0  0  0
   -3.0210    0.2570   -0.0060 H   0  0  0  0  0  0  0  0  0  0  0  0
   -0.2790   -0.9150    0.5020 H   0  0  0  0  0  0  0  0  0  0  0  0
  1  9  1  0  0  0  0
  1 10  1  0  0  0  0
  2 11  1  6  0  0  0
  2  1  1  0  0  0  0
  3 12  1  0  0  0  0
  3  4  1  0  0  0  0
  3  2  1  0  0  0  0
  4  8  1  0  0  0  0
  5  4  2  0  0  0  0
  6  2  1  0  0  0  0
  6  7  2  0  0  0  0
  8 14  1  0  0  0  0
 13  3  1  0  0  0  0
 15 16  1  0  0  0  0
 16 18  1  0  0  0  0
 17 16  2  0  0  0  0
 18 19  1  0  0  0  0
 19 28  1  0  0  0  0
 19 20  1  0  0  0  0
 19 29  1  0  0  0  0
 20 30  1  1  0  0  0
 21 20  1  0  0  0  0
 21  6  1  0  0  0  0
 22 23  2  0  0  0  0
 22 20  1  0  0  0  0
 24 15  1  0  0  0  0
 25 15  1  0  0  0  0
 26 18  1  0  0  0  0
 27 18  1  0  0  0  0
 31 21  1  0  0  0  0
 32 33  1  0  0  0  0
 32 42  1  0  0  0  0
 33 43  1  6  0  0  0
 33 35  1  0  0  0  0
 34 33  1  0  0  0  0
 35 45  1  1  0  0  0
 35 37  1  0  0  0  0
 35 36  1  0  0  0  0
 36 22  1  0  0  0  0
 37 39  1  0  0  0  0
 38 37  2  0  0  0  0
 40 32  1  0  0  0  0
 41 32  1  0  0  0  0
 44 34  1  0  0  0  0
 46 36  1  0  0  0  0
M  END
$$$$
