DQV.pdb
 OpenBabel07022418143D

 48 47  0  0  1  0  0  0  0  0999 V2000
    3.0710    0.7950    3.9020 N   0  0  0  0  0  0  0  0  0  0  0  0
    3.3510   -0.3420    3.0860 C   0  0  1  0  0  0  0  0  0  0  0  0
    3.4340   -1.6400    3.8530 C   0  0  0  0  0  0  0  0  0  0  0  0
    2.1920   -1.9690    4.5580 C   0  0  0  0  0  0  0  0  0  0  0  0
    2.1550   -3.0300    5.2270 O   0  0  0  0  0  0  0  0  0  0  0  0
    2.3360   -0.4340    1.9870 C   0  0  0  0  0  0  0  0  0  0  0  0
    2.4050   -1.3650    1.1570 O   0  0  0  0  0  0  0  0  0  0  0  0
    1.0470   -1.1900    4.5410 O   0  0  0  0  0  0  0  0  0  0  0  0
    3.4500    1.6820    3.5610 H   0  0  0  0  0  0  0  0  0  0  0  0
    3.2050    0.6120    4.9180 H   0  0  0  0  0  0  0  0  0  0  0  0
    4.3490   -0.1860    2.6140 H   0  0  0  0  0  0  0  0  0  0  0  0
    4.2790   -1.5970    4.5630 H   0  0  0  0  0  0  0  0  0  0  0  0
    3.7180   -2.4250    3.0990 H   0  0  0  0  0  0  0  0  0  0  0  0
    0.4540   -1.1550    5.3550 H   0  0  0  0  0  0  0  0  0  0  0  0
    1.7980    4.3020   -1.9470 N   0  0  0  0  0  0  0  0  0  0  0  0
    1.3850    2.9610   -1.7520 C   0  0  0  0  0  0  0  0  0  0  0  0
    1.3060    2.2050   -2.7450 O   0  0  0  0  0  0  0  0  0  0  0  0
    1.0550    2.4720   -0.3890 C   0  0  0  0  0  0  0  0  0  0  0  0
    0.6440    1.0030   -0.4730 C   0  0  0  0  0  0  0  0  0  0  0  0
    0.3080    0.4790    0.8640 C   0  0  2  0  0  0  0  0  0  0  0  0
    1.2960    0.5040    1.8550 N   0  0  0  0  0  0  0  0  0  0  0  0
   -0.3460   -0.8740    0.7780 C   0  0  0  0  0  0  0  0  0  0  0  0
   -0.0520   -1.7960    1.5570 O   0  0  0  0  0  0  0  0  0  0  0  0
    2.2880    4.7950   -1.1840 H   0  0  0  0  0  0  0  0  0  0  0  0
    1.6120    4.7880   -2.8430 H   0  0  0  0  0  0  0  0  0  0  0  0
    0.2040    3.0490    0.0170 H   0  0  0  0  0  0  0  0  0  0  0  0
    1.9530    2.6090    0.2390 H   0  0  0  0  0  0  0  0  0  0  0  0
   -0.2900    1.0260   -1.0760 H   0  0  0  0  0  0  0  0  0  0  0  0
    1.3630    0.4110   -1.0540 H   0  0  0  0  0  0  0  0  0  0  0  0
   -0.5670    1.1130    1.2530 H   0  0  0  0  0  0  0  0  0  0  0  0
    1.2870    1.2770    2.5720 H   0  0  0  0  0  0  0  0  0  0  0  0
   -4.0330   -3.7790   -0.1390 C   0  0  0  0  0  0  0  0  0  0  0  0
   -3.4660   -2.3800   -0.0750 C   0  0  0  0  0  0  0  0  0  0  0  0
   -4.0920   -1.5760   -1.1700 C   0  0  0  0  0  0  0  0  0  0  0  0
   -1.9450   -2.4770   -0.2580 C   0  0  2  0  0  0  0  0  0  0  0  0
   -1.3400   -1.1660   -0.2060 N   0  0  0  0  0  0  0  0  0  0  0  0
   -1.6720   -3.1170   -1.5690 C   0  0  0  0  0  0  0  0  0  0  0  0
   -0.9940   -2.5020   -2.4330 O   0  0  0  0  0  0  0  0  0  0  0  0
   -2.1310   -4.3670   -1.8850 O   0  0  0  0  0  0  0  0  0  0  0  0
   -3.2620   -4.5440    0.1530 H   0  0  0  0  0  0  0  0  0  0  0  0
   -4.8670   -3.9270    0.5860 H   0  0  0  0  0  0  0  0  0  0  0  0
   -4.3830   -4.0440   -1.1580 H   0  0  0  0  0  0  0  0  0  0  0  0
   -3.7280   -1.9460    0.8910 H   0  0  0  0  0  0  0  0  0  0  0  0
   -3.3410   -1.1230   -1.8410 H   0  0  0  0  0  0  0  0  0  0  0  0
   -4.7260   -0.7430   -0.7560 H   0  0  0  0  0  0  0  0  0  0  0  0
   -4.8000   -2.1690   -1.8060 H   0  0  0  0  0  0  0  0  0  0  0  0
   -1.5300   -3.1370    0.5310 H   0  0  0  0  0  0  0  0  0  0  0  0
   -1.6470   -0.4510   -0.8970 H   0  0  0  0  0  0  0  0  0  0  0  0
  1 10  1  0  0  0  0
  2 11  1  6  0  0  0
  2  3  1  0  0  0  0
  2  1  1  0  0  0  0
  3  4  1  0  0  0  0
  3 12  1  0  0  0  0
  4  5  2  0  0  0  0
  6  2  1  0  0  0  0
  7  6  2  0  0  0  0
  8  4  1  0  0  0  0
  8 14  1  0  0  0  0
  9  1  1  0  0  0  0
 13  3  1  0  0  0  0
 15 16  1  0  0  0  0
 15 24  1  0  0  0  0
 16 18  1  0  0  0  0
 17 16  2  0  0  0  0
 18 26  1  0  0  0  0
 18 27  1  0  0  0  0
 19 18  1  0  0  0  0
 19 20  1  0  0  0  0
 20 30  1  1  0  0  0
 20 21  1  0  0  0  0
 21  6  1  0  0  0  0
 21 31  1  0  0  0  0
 22 20  1  0  0  0  0
 22 23  2  0  0  0  0
 25 15  1  0  0  0  0
 28 19  1  0  0  0  0
 29 19  1  0  0  0  0
 32 33  1  0  0  0  0
 32 40  1  0  0  0  0
 32 41  1  0  0  0  0
 33 43  1  0  0  0  0
 34 45  1  0  0  0  0
 34 33  1  0  0  0  0
 35 36  1  0  0  0  0
 35 33  1  0  0  0  0
 35 47  1  1  0  0  0
 36 22  1  0  0  0  0
 37 35  1  0  0  0  0
 38 37  2  0  0  0  0
 39 37  1  0  0  0  0
 42 32  1  0  0  0  0
 44 34  1  0  0  0  0
 46 34  1  0  0  0  0
 48 36  1  0  0  0  0
M  END
$$$$
