DRA.pdb
 OpenBabel07022418123D

 48 47  0  0  1  0  0  0  0  0999 V2000
    1.2660   -2.0360    4.2140 N   0  0  0  0  0  0  0  0  0  0  0  0
    0.0320   -1.2310    4.1790 C   0  0  1  0  0  0  0  0  0  0  0  0
    0.2060    0.0180    4.9660 C   0  0  0  0  0  0  0  0  0  0  0  0
   -0.9850    0.8660    5.0170 C   0  0  0  0  0  0  0  0  0  0  0  0
   -2.0600    0.4920    4.5190 O   0  0  0  0  0  0  0  0  0  0  0  0
   -0.2430   -0.9760    2.7220 C   0  0  0  0  0  0  0  0  0  0  0  0
   -1.2730   -0.4020    2.3040 O   0  0  0  0  0  0  0  0  0  0  0  0
   -0.9900    2.1260    5.6180 O   0  0  0  0  0  0  0  0  0  0  0  0
    1.4620   -2.3510    5.2060 H   0  0  0  0  0  0  0  0  0  0  0  0
    1.0050   -2.9370    3.7130 H   0  0  0  0  0  0  0  0  0  0  0  0
   -0.7810   -1.8530    4.5690 H   0  0  0  0  0  0  0  0  0  0  0  0
    1.1290    0.5780    4.6860 H   0  0  0  0  0  0  0  0  0  0  0  0
    0.4070   -0.2960    6.0350 H   0  0  0  0  0  0  0  0  0  0  0  0
   -1.6010    2.8620    5.2620 H   0  0  0  0  0  0  0  0  0  0  0  0
   -1.1430    3.3360    0.9890 N   0  0  0  0  0  0  0  0  0  0  0  0
    0.1500    3.2320    0.4090 C   0  0  0  0  0  0  0  0  0  0  0  0
    0.7050    4.2000   -0.2360 N   0  0  0  0  0  0  0  0  0  0  0  0
    0.8320    1.9680    0.5730 N   0  0  0  0  0  0  0  0  0  0  0  0
    1.8920    1.6490   -0.3320 C   0  0  0  0  0  0  0  0  0  0  0  0
    2.5030    0.3060   -0.2230 C   0  0  0  0  0  0  0  0  0  0  0  0
    1.6580   -0.8750   -0.5220 C   0  0  0  0  0  0  0  0  0  0  0  0
    0.4680   -1.1610    0.2890 C   0  0  2  0  0  0  0  0  0  0  0  0
    0.6850   -1.3870    1.6970 N   0  0  0  0  0  0  0  0  0  0  0  0
   -0.2300   -2.4190   -0.2780 C   0  0  0  0  0  0  0  0  0  0  0  0
   -0.4980   -3.3810    0.4730 O   0  0  0  0  0  0  0  0  0  0  0  0
   -1.3560    3.9950    1.7750 H   0  0  0  0  0  0  0  0  0  0  0  0
   -1.9440    2.7580    0.6560 H   0  0  0  0  0  0  0  0  0  0  0  0
    0.1860    5.0870   -0.3340 H   0  0  0  0  0  0  0  0  0  0  0  0
    0.5460    1.3640    1.3420 H   0  0  0  0  0  0  0  0  0  0  0  0
    1.5550    1.8560   -1.3930 H   0  0  0  0  0  0  0  0  0  0  0  0
    2.7100    2.3940   -0.1400 H   0  0  0  0  0  0  0  0  0  0  0  0
    2.9340    0.2490    0.8340 H   0  0  0  0  0  0  0  0  0  0  0  0
    3.4030    0.3030   -0.9270 H   0  0  0  0  0  0  0  0  0  0  0  0
    1.2700   -0.6940   -1.5890 H   0  0  0  0  0  0  0  0  0  0  0  0
    2.3440   -1.7850   -0.5890 H   0  0  0  0  0  0  0  0  0  0  0  0
   -0.3230   -0.4080    0.1640 H   0  0  0  0  0  0  0  0  0  0  0  0
    1.5510   -1.8720    2.0390 H   0  0  0  0  0  0  0  0  0  0  0  0
   -2.6510   -3.2440   -2.6160 C   0  0  0  0  0  0  0  0  0  0  0  0
   -1.2240   -3.6420   -2.2440 C   0  0  2  0  0  0  0  0  0  0  0  0
   -0.5760   -2.5070   -1.6410 N   0  0  0  0  0  0  0  0  0  0  0  0
   -0.4980   -4.2140   -3.3690 C   0  0  0  0  0  0  0  0  0  0  0  0
    0.5910   -3.7210   -3.7360 O   0  0  0  0  0  0  0  0  0  0  0  0
   -0.9920   -5.3070   -4.0510 O   0  0  0  0  0  0  0  0  0  0  0  0
   -2.6830   -2.1570   -2.8290 H   0  0  0  0  0  0  0  0  0  0  0  0
   -3.3590   -3.4290   -1.7620 H   0  0  0  0  0  0  0  0  0  0  0  0
   -2.9760   -3.8720   -3.4630 H   0  0  0  0  0  0  0  0  0  0  0  0
   -1.3590   -4.4050   -1.4200 H   0  0  0  0  0  0  0  0  0  0  0  0
   -0.3550   -1.7050   -2.2680 H   0  0  0  0  0  0  0  0  0  0  0  0
  1  9  1  0  0  0  0
  2  1  1  0  0  0  0
  2 11  1  1  0  0  0
  2  3  1  0  0  0  0
  3  4  1  0  0  0  0
  3 13  1  0  0  0  0
  4  8  1  0  0  0  0
  5  4  2  0  0  0  0
  6  2  1  0  0  0  0
  7  6  2  0  0  0  0
 10  1  1  0  0  0  0
 12  3  1  0  0  0  0
 14  8  1  0  0  0  0
 15 26  1  0  0  0  0
 16 18  1  0  0  0  0
 16 15  1  0  0  0  0
 17 16  2  0  0  0  0
 18 29  1  0  0  0  0
 19 20  1  0  0  0  0
 19 31  1  0  0  0  0
 19 18  1  0  0  0  0
 20 32  1  0  0  0  0
 21 20  1  0  0  0  0
 21 22  1  0  0  0  0
 22 36  1  6  0  0  0
 22 23  1  0  0  0  0
 23 37  1  0  0  0  0
 23  6  1  0  0  0  0
 24 22  1  0  0  0  0
 24 25  2  0  0  0  0
 27 15  1  0  0  0  0
 28 17  1  0  0  0  0
 30 19  1  0  0  0  0
 33 20  1  0  0  0  0
 34 21  1  0  0  0  0
 35 21  1  0  0  0  0
 38 39  1  0  0  0  0
 38 45  1  0  0  0  0
 39 40  1  0  0  0  0
 39 47  1  1  0  0  0
 40 24  1  0  0  0  0
 41 39  1  0  0  0  0
 42 41  1  0  0  0  0
 43 41  2  0  0  0  0
 44 38  1  0  0  0  0
 46 38  1  0  0  0  0
 48 40  1  0  0  0  0
M  END
$$$$
