DRE.pdb
 OpenBabel07022418123D

 54 53  0  0  1  0  0  0  0  0999 V2000
   -0.4320   -1.9370    3.6970 N   0  0  0  0  0  0  0  0  0  0  0  0
   -1.1900   -0.7260    3.8550 C   0  0  1  0  0  0  0  0  0  0  0  0
   -0.8260    0.0250    5.1070 C   0  0  0  0  0  0  0  0  0  0  0  0
    0.5990    0.4160    5.1530 C   0  0  0  0  0  0  0  0  0  0  0  0
    1.3480    0.0770    4.2080 O   0  0  0  0  0  0  0  0  0  0  0  0
   -1.2330    0.1180    2.6380 C   0  0  0  0  0  0  0  0  0  0  0  0
   -1.8140    1.2470    2.6280 O   0  0  0  0  0  0  0  0  0  0  0  0
    1.1350    1.1440    6.2010 O   0  0  0  0  0  0  0  0  0  0  0  0
   -0.9940   -2.7620    3.3950 H   0  0  0  0  0  0  0  0  0  0  0  0
    0.2110   -2.1590    4.4660 H   0  0  0  0  0  0  0  0  0  0  0  0
   -2.2620   -1.0820    4.0320 H   0  0  0  0  0  0  0  0  0  0  0  0
   -1.4940    0.9180    5.2570 H   0  0  0  0  0  0  0  0  0  0  0  0
   -0.9930   -0.6350    5.9940 H   0  0  0  0  0  0  0  0  0  0  0  0
    2.1400    1.2500    6.2390 H   0  0  0  0  0  0  0  0  0  0  0  0
    4.0640   -0.9180   -0.8830 N   0  0  0  0  0  0  0  0  0  0  0  0
    3.6910    0.4650   -0.9460 C   0  0  0  0  0  0  0  0  0  0  0  0
    3.3610    1.0080   -2.0510 N   0  0  0  0  0  0  0  0  0  0  0  0
    3.6950    1.2490    0.2340 N   0  0  0  0  0  0  0  0  0  0  0  0
    2.7140    2.2600    0.4960 C   0  0  0  0  0  0  0  0  0  0  0  0
    1.3680    1.7100    0.7870 C   0  0  0  0  0  0  0  0  0  0  0  0
    0.7410    0.8630   -0.2800 C   0  0  0  0  0  0  0  0  0  0  0  0
   -0.6410    0.4570    0.1950 C   0  0  2  0  0  0  0  0  0  0  0  0
   -0.6250   -0.3030    1.4200 N   0  0  0  0  0  0  0  0  0  0  0  0
   -1.4240   -0.2010   -0.8720 C   0  0  0  0  0  0  0  0  0  0  0  0
   -1.4950    0.3440   -1.9890 O   0  0  0  0  0  0  0  0  0  0  0  0
    3.9380   -1.5180   -1.7480 H   0  0  0  0  0  0  0  0  0  0  0  0
    4.4490   -1.3470   -0.0290 H   0  0  0  0  0  0  0  0  0  0  0  0
    3.0950    1.9970   -2.0960 H   0  0  0  0  0  0  0  0  0  0  0  0
    4.4550    1.0770    0.9590 H   0  0  0  0  0  0  0  0  0  0  0  0
    3.0340    2.8070    1.4360 H   0  0  0  0  0  0  0  0  0  0  0  0
    2.7030    3.0340   -0.3130 H   0  0  0  0  0  0  0  0  0  0  0  0
    0.7000    2.5620    1.0750 H   0  0  0  0  0  0  0  0  0  0  0  0
    1.4980    1.0240    1.6810 H   0  0  0  0  0  0  0  0  0  0  0  0
    0.6960    1.4500   -1.2130 H   0  0  0  0  0  0  0  0  0  0  0  0
    1.3630   -0.0380   -0.4860 H   0  0  0  0  0  0  0  0  0  0  0  0
   -1.1820    1.4070    0.4160 H   0  0  0  0  0  0  0  0  0  0  0  0
   -0.1260   -1.2390    1.4050 H   0  0  0  0  0  0  0  0  0  0  0  0
   -2.1190   -1.4340   -0.7210 N   0  0  0  0  0  0  0  0  0  0  0  0
   -2.8710   -2.0890   -1.7120 C   0  0  1  0  0  0  0  0  0  0  0  0
   -2.4990   -3.4060   -2.2430 C   0  0  0  0  0  0  0  0  0  0  0  0
   -1.1690   -3.5290   -2.9230 C   0  0  0  0  0  0  0  0  0  0  0  0
    0.0150   -3.2810   -2.1270 C   0  0  0  0  0  0  0  0  0  0  0  0
    0.0190   -3.0580   -0.9020 O   0  0  0  0  0  0  0  0  0  0  0  0
   -4.3550   -2.0560   -1.4090 C   0  0  0  0  0  0  0  0  0  0  0  0
   -5.2030   -2.5930   -2.1650 O   0  0  0  0  0  0  0  0  0  0  0  0
    1.2780   -3.2850   -2.7590 O   0  0  0  0  0  0  0  0  0  0  0  0
   -4.7890   -1.4180   -0.2680 O   0  0  0  0  0  0  0  0  0  0  0  0
   -2.0550   -1.8580    0.2480 H   0  0  0  0  0  0  0  0  0  0  0  0
   -2.8210   -1.4060   -2.6340 H   0  0  0  0  0  0  0  0  0  0  0  0
   -3.2490   -3.6050   -3.0790 H   0  0  0  0  0  0  0  0  0  0  0  0
   -2.7050   -4.2660   -1.5650 H   0  0  0  0  0  0  0  0  0  0  0  0
   -1.1330   -2.8380   -3.8280 H   0  0  0  0  0  0  0  0  0  0  0  0
   -1.1410   -4.5450   -3.4100 H   0  0  0  0  0  0  0  0  0  0  0  0
    2.1150   -3.4440   -2.1900 H   0  0  0  0  0  0  0  0  0  0  0  0
  1  2  1  0  0  0  0
  1 10  1  0  0  0  0
  2 11  1  1  0  0  0
  2  3  1  0  0  0  0
  3  4  1  0  0  0  0
  3 12  1  0  0  0  0
  3 13  1  0  0  0  0
  4  8  1  0  0  0  0
  5  4  2  0  0  0  0
  6  2  1  0  0  0  0
  7  6  2  0  0  0  0
  8 14  1  0  0  0  0
  9  1  1  0  0  0  0
 15 27  1  0  0  0  0
 16 15  1  0  0  0  0
 16 18  1  0  0  0  0
 17 16  2  0  0  0  0
 18 19  1  0  0  0  0
 18 29  1  0  0  0  0
 19 20  1  0  0  0  0
 19 30  1  0  0  0  0
 20 32  1  0  0  0  0
 20 33  1  0  0  0  0
 21 22  1  0  0  0  0
 21 20  1  0  0  0  0
 22 36  1  1  0  0  0
 22 23  1  0  0  0  0
 23  6  1  0  0  0  0
 24 38  1  0  0  0  0
 24 22  1  0  0  0  0
 25 24  2  0  0  0  0
 26 15  1  0  0  0  0
 28 17  1  0  0  0  0
 31 19  1  0  0  0  0
 34 21  1  0  0  0  0
 35 21  1  0  0  0  0
 37 23  1  0  0  0  0
 38 48  1  0  0  0  0
 39 49  1  6  0  0  0
 39 44  1  0  0  0  0
 39 38  1  0  0  0  0
 40 39  1  0  0  0  0
 40 51  1  0  0  0  0
 41 40  1  0  0  0  0
 41 42  1  0  0  0  0
 42 43  2  0  0  0  0
 44 47  1  0  0  0  0
 45 44  2  0  0  0  0
 46 54  1  0  0  0  0
 46 42  1  0  0  0  0
 50 40  1  0  0  0  0
 52 41  1  0  0  0  0
 53 41  1  0  0  0  0
M  END
$$$$
