DRG.pdb
 OpenBabel07022418123D

 45 44  0  0  1  0  0  0  0  0999 V2000
    1.2090   -4.5050    1.1150 N   0  0  0  0  0  0  0  0  0  0  0  0
    0.6240   -3.9610    2.3060 C   0  0  1  0  0  0  0  0  0  0  0  0
    1.3090   -4.3680    3.5860 C   0  0  0  0  0  0  0  0  0  0  0  0
    0.5690   -3.7000    4.6960 C   0  0  0  0  0  0  0  0  0  0  0  0
    1.1660   -2.8400    5.3870 O   0  0  0  0  0  0  0  0  0  0  0  0
    0.4670   -2.4910    2.2610 C   0  0  0  0  0  0  0  0  0  0  0  0
    0.0210   -1.8750    3.2670 O   0  0  0  0  0  0  0  0  0  0  0  0
   -0.7540   -3.9730    5.0150 O   0  0  0  0  0  0  0  0  0  0  0  0
    1.4670   -5.4980    1.3070 H   0  0  0  0  0  0  0  0  0  0  0  0
    0.4510   -4.5450    0.3850 H   0  0  0  0  0  0  0  0  0  0  0  0
   -0.4000   -4.4630    2.3690 H   0  0  0  0  0  0  0  0  0  0  0  0
    2.3570   -4.0030    3.5690 H   0  0  0  0  0  0  0  0  0  0  0  0
    1.3260   -5.4740    3.7170 H   0  0  0  0  0  0  0  0  0  0  0  0
   -1.3710   -3.2070    5.3000 H   0  0  0  0  0  0  0  0  0  0  0  0
   -0.1610    1.6500   -3.3270 N   0  0  0  0  0  0  0  0  0  0  0  0
    0.7800    1.5170   -2.2690 C   0  0  0  0  0  0  0  0  0  0  0  0
    1.4870    0.4620   -2.2010 N   0  0  0  0  0  0  0  0  0  0  0  0
    0.9350    2.5710   -1.3210 N   0  0  0  0  0  0  0  0  0  0  0  0
    1.9320    2.6080   -0.3480 C   0  0  0  0  0  0  0  0  0  0  0  0
    2.0270    1.8670    0.8950 C   0  0  0  0  0  0  0  0  0  0  0  0
    1.9090    0.4200    1.0310 C   0  0  0  0  0  0  0  0  0  0  0  0
    0.6200   -0.2250    1.0990 C   0  0  2  0  0  0  0  0  0  0  0  0
    0.7910   -1.7120    1.1300 N   0  0  0  0  0  0  0  0  0  0  0  0
   -0.5220    0.0460    0.3220 C   0  0  0  0  0  0  0  0  0  0  0  0
   -1.0210   -0.8440   -0.4520 O   0  0  0  0  0  0  0  0  0  0  0  0
   -0.9000    2.3900   -3.2910 H   0  0  0  0  0  0  0  0  0  0  0  0
   -0.1560    1.0260   -4.1740 H   0  0  0  0  0  0  0  0  0  0  0  0
    1.3830   -0.2960   -2.9050 H   0  0  0  0  0  0  0  0  0  0  0  0
    0.2090    3.3430   -1.4200 H   0  0  0  0  0  0  0  0  0  0  0  0
    1.9930    3.7340   -0.0290 H   0  0  0  0  0  0  0  0  0  0  0  0
    2.9590    2.5620   -0.9130 H   0  0  0  0  0  0  0  0  0  0  0  0
    3.0520    2.2120    1.3590 H   0  0  0  0  0  0  0  0  0  0  0  0
    1.3260    2.4100    1.6460 H   0  0  0  0  0  0  0  0  0  0  0  0
    2.4860    0.1650    2.0280 H   0  0  0  0  0  0  0  0  0  0  0  0
    2.6100   -0.0620    0.2580 H   0  0  0  0  0  0  0  0  0  0  0  0
    0.2660    0.0110    2.2160 H   0  0  0  0  0  0  0  0  0  0  0  0
    1.1620   -2.1770    0.2800 H   0  0  0  0  0  0  0  0  0  0  0  0
   -1.2270    1.2720    0.3210 N   0  0  0  0  0  0  0  0  0  0  0  0
   -2.4310    1.4930   -0.4770 C   0  0  0  0  0  0  0  0  0  0  0  0
   -3.5040    0.5460   -0.0800 C   0  0  0  0  0  0  0  0  0  0  0  0
   -4.6030    0.6020   -0.6590 O   0  0  0  0  0  0  0  0  0  0  0  0
   -3.3030   -0.3880    0.9120 O   0  0  0  0  0  0  0  0  0  0  0  0
   -0.8710    2.0470    0.9160 H   0  0  0  0  0  0  0  0  0  0  0  0
   -2.2200    1.3950   -1.5580 H   0  0  0  0  0  0  0  0  0  0  0  0
   -2.7880    2.5130   -0.2540 H   0  0  0  0  0  0  0  0  0  0  0  0
  1  9  1  0  0  0  0
  1  2  1  0  0  0  0
  2 11  1  1  0  0  0
  2  3  1  0  0  0  0
  3 13  1  0  0  0  0
  3  4  1  0  0  0  0
  4  8  1  0  0  0  0
  4  5  2  0  0  0  0
  6  2  1  0  0  0  0
  6  7  2  0  0  0  0
  8 14  1  0  0  0  0
 10  1  1  0  0  0  0
 12  3  1  0  0  0  0
 15 26  1  0  0  0  0
 15 16  1  0  0  0  0
 16 17  2  0  0  0  0
 16 18  1  0  0  0  0
 18 19  1  0  0  0  0
 19 30  1  0  0  0  0
 19 20  1  0  0  0  0
 20 21  1  0  0  0  0
 20 32  1  0  0  0  0
 20 33  1  0  0  0  0
 21 22  1  0  0  0  0
 21 34  1  0  0  0  0
 22 23  1  0  0  0  0
 22 36  1  1  0  0  0
 23  6  1  0  0  0  0
 24 22  1  0  0  0  0
 25 24  2  0  0  0  0
 27 15  1  0  0  0  0
 28 17  1  0  0  0  0
 29 18  1  0  0  0  0
 31 19  1  0  0  0  0
 35 21  1  0  0  0  0
 37 23  1  0  0  0  0
 38 24  1  0  0  0  0
 38 43  1  0  0  0  0
 39 45  1  0  0  0  0
 39 40  1  0  0  0  0
 39 38  1  0  0  0  0
 40 42  1  0  0  0  0
 41 40  2  0  0  0  0
 44 39  1  0  0  0  0
M  END
$$$$
