DRH.pdb
 OpenBabel07022418123D

 55 55  0  0  1  0  0  0  0  0999 V2000
    0.3920   -0.5700    5.2320 N   0  0  0  0  0  0  0  0  0  0  0  0
    0.3470    0.7670    4.6410 C   0  0  1  0  0  0  0  0  0  0  0  0
    1.6240    1.4440    4.9550 C   0  0  0  0  0  0  0  0  0  0  0  0
    1.7710    2.8270    4.4590 C   0  0  0  0  0  0  0  0  0  0  0  0
    2.8880    3.4500    4.5730 O   0  0  0  0  0  0  0  0  0  0  0  0
    0.1560    0.6330    3.1520 C   0  0  0  0  0  0  0  0  0  0  0  0
    0.0290    1.6040    2.3760 O   0  0  0  0  0  0  0  0  0  0  0  0
    0.7800    3.5760    3.8470 O   0  0  0  0  0  0  0  0  0  0  0  0
   -0.5580   -0.9600    5.3840 H   0  0  0  0  0  0  0  0  0  0  0  0
    1.0290   -0.6340    6.0340 H   0  0  0  0  0  0  0  0  0  0  0  0
   -0.4930    1.3000    5.1200 H   0  0  0  0  0  0  0  0  0  0  0  0
    2.5080    0.8120    4.6950 H   0  0  0  0  0  0  0  0  0  0  0  0
    1.6750    1.5250    6.0830 H   0  0  0  0  0  0  0  0  0  0  0  0
    0.7320    4.5810    4.0380 H   0  0  0  0  0  0  0  0  0  0  0  0
    4.6480    0.2300    0.2140 N   0  0  0  0  0  0  0  0  0  0  0  0
    4.1850   -1.0590   -0.1380 C   0  0  0  0  0  0  0  0  0  0  0  0
    4.3200   -2.0510    0.7010 N   0  0  0  0  0  0  0  0  0  0  0  0
    3.5770   -1.2980   -1.3920 N   0  0  0  0  0  0  0  0  0  0  0  0
    2.4610   -2.1600   -1.5260 C   0  0  0  0  0  0  0  0  0  0  0  0
    1.1720   -1.6410   -0.9110 C   0  0  0  0  0  0  0  0  0  0  0  0
    1.2430   -1.3950    0.5400 C   0  0  0  0  0  0  0  0  0  0  0  0
   -0.0760   -0.8410    1.1010 C   0  0  2  0  0  0  0  0  0  0  0  0
    0.1100   -0.6580    2.5520 N   0  0  0  0  0  0  0  0  0  0  0  0
   -1.2440   -1.6550    0.8060 C   0  0  0  0  0  0  0  0  0  0  0  0
   -1.8500   -2.3590    1.6720 O   0  0  0  0  0  0  0  0  0  0  0  0
    4.8290    0.4420    1.2210 H   0  0  0  0  0  0  0  0  0  0  0  0
    4.8120    0.9620   -0.4920 H   0  0  0  0  0  0  0  0  0  0  0  0
    3.9910   -3.0140    0.4770 H   0  0  0  0  0  0  0  0  0  0  0  0
    3.9820   -0.8080   -2.2420 H   0  0  0  0  0  0  0  0  0  0  0  0
    2.2260   -2.3260   -2.6160 H   0  0  0  0  0  0  0  0  0  0  0  0
    2.6380   -3.1980   -1.1220 H   0  0  0  0  0  0  0  0  0  0  0  0
    0.9290   -0.7160   -1.4530 H   0  0  0  0  0  0  0  0  0  0  0  0
    0.4340   -2.4740   -1.1010 H   0  0  0  0  0  0  0  0  0  0  0  0
    1.9710   -0.5530    0.7450 H   0  0  0  0  0  0  0  0  0  0  0  0
    1.5820   -2.2620    1.1420 H   0  0  0  0  0  0  0  0  0  0  0  0
   -0.1970    0.1550    0.6510 H   0  0  0  0  0  0  0  0  0  0  0  0
    0.2140   -1.4760    3.1870 H   0  0  0  0  0  0  0  0  0  0  0  0
   -1.7940   -1.7070   -0.4980 N   0  0  0  0  0  0  0  0  0  0  0  0
   -2.9620   -2.5260   -0.8110 C   0  0  1  0  0  0  0  0  0  0  0  0
   -4.1500   -1.5960   -1.1020 C   0  0  0  0  0  0  0  0  0  0  0  0
   -3.8670   -0.7020   -2.2520 C   0  0  0  0  0  0  0  0  0  0  0  0
   -4.1510   -0.9960   -3.5640 C   0  0  0  0  0  0  0  0  0  0  0  0
   -3.7690    0.0300   -4.3310 N   0  0  0  0  0  0  0  0  0  0  0  0
   -3.2500    0.9620   -3.5190 C   0  0  0  0  0  0  0  0  0  0  0  0
   -3.3060    0.5230   -2.2530 N   0  0  0  0  0  0  0  0  0  0  0  0
   -2.7720   -3.3350   -2.0380 C   0  0  0  0  0  0  0  0  0  0  0  0
   -1.6860   -3.2350   -2.6590 O   0  0  0  0  0  0  0  0  0  0  0  0
   -3.7170   -4.1920   -2.5380 O   0  0  0  0  0  0  0  0  0  0  0  0
   -1.4090   -1.1510   -1.2840 H   0  0  0  0  0  0  0  0  0  0  0  0
   -3.2800   -3.1070    0.0710 H   0  0  0  0  0  0  0  0  0  0  0  0
   -4.2460   -0.9600   -0.2050 H   0  0  0  0  0  0  0  0  0  0  0  0
   -5.0760   -2.1790   -1.2140 H   0  0  0  0  0  0  0  0  0  0  0  0
   -4.6140   -1.9200   -3.9080 H   0  0  0  0  0  0  0  0  0  0  0  0
   -3.8540    0.1080   -5.3880 H   0  0  0  0  0  0  0  0  0  0  0  0
   -2.8470    1.9140   -3.8160 H   0  0  0  0  0  0  0  0  0  0  0  0
  1  9  1  0  0  0  0
  1 10  1  0  0  0  0
  2  3  1  0  0  0  0
  2 11  1  1  0  0  0
  2  1  1  0  0  0  0
  3 13  1  0  0  0  0
  4  5  2  0  0  0  0
  4  3  1  0  0  0  0
  6  2  1  0  0  0  0
  7  6  2  0  0  0  0
  8 14  1  0  0  0  0
  8  4  1  0  0  0  0
 12  3  1  0  0  0  0
 15 26  1  0  0  0  0
 16 15  1  0  0  0  0
 16 17  2  0  0  0  0
 18 16  1  0  0  0  0
 19 18  1  0  0  0  0
 19 31  1  0  0  0  0
 19 20  1  0  0  0  0
 20 21  1  0  0  0  0
 21 34  1  0  0  0  0
 21 22  1  0  0  0  0
 21 35  1  0  0  0  0
 22 36  1  6  0  0  0
 22 23  1  0  0  0  0
 23  6  1  0  0  0  0
 23 37  1  0  0  0  0
 24 22  1  0  0  0  0
 24 25  2  0  0  0  0
 27 15  1  0  0  0  0
 28 17  1  0  0  0  0
 29 18  1  0  0  0  0
 30 19  1  0  0  0  0
 32 20  1  0  0  0  0
 33 20  1  0  0  0  0
 38 24  1  0  0  0  0
 39 38  1  0  0  0  0
 39 50  1  1  0  0  0
 40 39  1  0  0  0  0
 40 51  1  0  0  0  0
 41 40  1  0  0  0  0
 42 41  2  0  0  0  0
 43 42  1  0  0  0  0
 43 44  1  0  0  0  0
 44 45  2  0  0  0  0
 45 41  1  0  0  0  0
 46 39  1  0  0  0  0
 47 46  2  0  0  0  0
 48 46  1  0  0  0  0
 49 38  1  0  0  0  0
 52 40  1  0  0  0  0
 53 42  1  0  0  0  0
 54 43  1  0  0  0  0
 55 44  1  0  0  0  0
M  END
$$$$
