DRK.pdb
 OpenBabel07022418123D

 59 58  0  0  1  0  0  0  0  0999 V2000
    3.6490   -0.2910    2.6340 N   0  0  0  0  0  0  0  0  0  0  0  0
    2.6270   -0.4360    3.6210 C   0  0  1  0  0  0  0  0  0  0  0  0
    2.7800    0.4110    4.8540 C   0  0  0  0  0  0  0  0  0  0  0  0
    2.7940    1.8480    4.5660 C   0  0  0  0  0  0  0  0  0  0  0  0
    2.7370    2.2450    3.3640 O   0  0  0  0  0  0  0  0  0  0  0  0
    1.3090   -0.2490    2.9760 C   0  0  0  0  0  0  0  0  0  0  0  0
    0.2600   -0.1160    3.6980 O   0  0  0  0  0  0  0  0  0  0  0  0
    2.8650    2.8520    5.5150 O   0  0  0  0  0  0  0  0  0  0  0  0
    3.6940   -1.1250    2.0150 H   0  0  0  0  0  0  0  0  0  0  0  0
    3.5250    0.5270    2.0060 H   0  0  0  0  0  0  0  0  0  0  0  0
    2.6680   -1.5270    3.9500 H   0  0  0  0  0  0  0  0  0  0  0  0
    2.0490    0.1340    5.6470 H   0  0  0  0  0  0  0  0  0  0  0  0
    3.7930    0.1610    5.2820 H   0  0  0  0  0  0  0  0  0  0  0  0
    3.0960    3.8040    5.2760 H   0  0  0  0  0  0  0  0  0  0  0  0
    2.8170    3.8030   -3.1620 N   0  0  0  0  0  0  0  0  0  0  0  0
    1.5640    3.9440   -2.4800 C   0  0  0  0  0  0  0  0  0  0  0  0
    0.6920    4.7990   -2.9350 N   0  0  0  0  0  0  0  0  0  0  0  0
    1.2770    3.1690   -1.3260 N   0  0  0  0  0  0  0  0  0  0  0  0
    0.2430    3.5840   -0.3840 C   0  0  0  0  0  0  0  0  0  0  0  0
    0.1740    2.4640    0.6900 C   0  0  0  0  0  0  0  0  0  0  0  0
   -0.1960    1.1840    0.0850 C   0  0  0  0  0  0  0  0  0  0  0  0
   -0.1690   -0.0300    1.0310 C   0  0  2  0  0  0  0  0  0  0  0  0
    1.1520   -0.2100    1.5310 N   0  0  0  0  0  0  0  0  0  0  0  0
   -0.5010   -1.1520    0.0810 C   0  0  0  0  0  0  0  0  0  0  0  0
    0.4160   -1.7020   -0.5270 O   0  0  0  0  0  0  0  0  0  0  0  0
    2.9950    4.3110   -4.0310 H   0  0  0  0  0  0  0  0  0  0  0  0
    3.5460    3.1780   -2.7610 H   0  0  0  0  0  0  0  0  0  0  0  0
   -0.2260    4.9490   -2.4940 H   0  0  0  0  0  0  0  0  0  0  0  0
    1.8320    2.3090   -1.1730 H   0  0  0  0  0  0  0  0  0  0  0  0
    0.5870    4.5370    0.0630 H   0  0  0  0  0  0  0  0  0  0  0  0
   -0.7370    3.6710   -0.8790 H   0  0  0  0  0  0  0  0  0  0  0  0
   -0.6440    2.8260    1.3860 H   0  0  0  0  0  0  0  0  0  0  0  0
    1.1070    2.5160    1.2360 H   0  0  0  0  0  0  0  0  0  0  0  0
    0.3950    0.9850   -0.8140 H   0  0  0  0  0  0  0  0  0  0  0  0
   -1.2720    1.2170   -0.2660 H   0  0  0  0  0  0  0  0  0  0  0  0
   -0.8970    0.0440    1.8180 H   0  0  0  0  0  0  0  0  0  0  0  0
    1.9980   -0.3130    0.9700 H   0  0  0  0  0  0  0  0  0  0  0  0
   -1.8280   -1.5630   -0.1160 N   0  0  0  0  0  0  0  0  0  0  0  0
   -2.3950   -2.5210   -0.9500 C   0  0  1  0  0  0  0  0  0  0  0  0
   -2.4690   -3.9570   -0.5790 C   0  0  0  0  0  0  0  0  0  0  0  0
   -1.1800   -4.6690   -0.3880 C   0  0  0  0  0  0  0  0  0  0  0  0
   -1.3310   -6.1100    0.0230 C   0  0  0  0  0  0  0  0  0  0  0  0
   -2.1280   -6.9600   -0.8780 C   0  0  0  0  0  0  0  0  0  0  0  0
   -3.5310   -6.5790   -0.9910 N   0  0  0  0  0  0  0  0  0  0  0  0
   -3.7000   -2.0840   -1.4600 C   0  0  0  0  0  0  0  0  0  0  0  0
   -4.1810   -0.9710   -1.1670 O   0  0  0  0  0  0  0  0  0  0  0  0
   -4.4800   -2.8850   -2.3010 O   0  0  0  0  0  0  0  0  0  0  0  0
   -2.5380   -1.0420    0.5130 H   0  0  0  0  0  0  0  0  0  0  0  0
   -1.6780   -2.5510   -1.8830 H   0  0  0  0  0  0  0  0  0  0  0  0
   -3.2100   -4.1370    0.2270 H   0  0  0  0  0  0  0  0  0  0  0  0
   -2.9410   -4.4410   -1.4940 H   0  0  0  0  0  0  0  0  0  0  0  0
   -0.6000   -4.7140   -1.3650 H   0  0  0  0  0  0  0  0  0  0  0  0
   -0.4690   -4.1410    0.2810 H   0  0  0  0  0  0  0  0  0  0  0  0
   -0.3050   -6.5500    0.1050 H   0  0  0  0  0  0  0  0  0  0  0  0
   -1.7440   -6.2050    1.0480 H   0  0  0  0  0  0  0  0  0  0  0  0
   -1.6850   -6.9980   -1.9110 H   0  0  0  0  0  0  0  0  0  0  0  0
   -2.1500   -7.9980   -0.4930 H   0  0  0  0  0  0  0  0  0  0  0  0
   -4.0370   -7.2430   -1.6430 H   0  0  0  0  0  0  0  0  0  0  0  0
   -3.9740   -6.5710   -0.0360 H   0  0  0  0  0  0  0  0  0  0  0  0
  1  2  1  0  0  0  0
  2 11  1  1  0  0  0
  2  3  1  0  0  0  0
  3 13  1  0  0  0  0
  3 12  1  0  0  0  0
  4  3  1  0  0  0  0
  4  8  1  0  0  0  0
  5  4  2  0  0  0  0
  6  2  1  0  0  0  0
  6  7  2  0  0  0  0
  9  1  1  0  0  0  0
 10  1  1  0  0  0  0
 14  8  1  0  0  0  0
 15 27  1  0  0  0  0
 15 16  1  0  0  0  0
 16 18  1  0  0  0  0
 17 28  1  0  0  0  0
 17 16  2  0  0  0  0
 18 29  1  0  0  0  0
 18 19  1  0  0  0  0
 19 30  1  0  0  0  0
 19 20  1  0  0  0  0
 20 33  1  0  0  0  0
 20 32  1  0  0  0  0
 21 20  1  0  0  0  0
 21 22  1  0  0  0  0
 22 23  1  0  0  0  0
 22 36  1  1  0  0  0
 23  6  1  0  0  0  0
 24 22  1  0  0  0  0
 25 24  2  0  0  0  0
 26 15  1  0  0  0  0
 31 19  1  0  0  0  0
 34 21  1  0  0  0  0
 35 21  1  0  0  0  0
 37 23  1  0  0  0  0
 38 24  1  0  0  0  0
 38 48  1  0  0  0  0
 39 49  1  6  0  0  0
 39 40  1  0  0  0  0
 39 38  1  0  0  0  0
 40 41  1  0  0  0  0
 40 50  1  0  0  0  0
 41 42  1  0  0  0  0
 41 53  1  0  0  0  0
 42 54  1  0  0  0  0
 42 55  1  0  0  0  0
 43 57  1  0  0  0  0
 43 42  1  0  0  0  0
 44 43  1  0  0  0  0
 44 59  1  0  0  0  0
 45 46  1  0  0  0  0
 45 39  1  0  0  0  0
 47 45  2  0  0  0  0
 51 40  1  0  0  0  0
 52 41  1  0  0  0  0
 56 43  1  0  0  0  0
 58 44  1  0  0  0  0
M  END
$$$$
