DRP.pdb
 OpenBabel07022418123D

 52 52  0  0  1  0  0  0  0  0999 V2000
   -0.5040   -2.3610    4.6950 N   0  0  0  0  0  0  0  0  0  0  0  0
   -0.9820   -1.1590    3.9700 C   0  0  1  0  0  0  0  0  0  0  0  0
   -0.8820   -0.0470    4.9510 C   0  0  0  0  0  0  0  0  0  0  0  0
   -1.3090    1.2700    4.4860 C   0  0  0  0  0  0  0  0  0  0  0  0
   -1.7550    1.4890    3.3620 O   0  0  0  0  0  0  0  0  0  0  0  0
   -0.1060   -1.0250    2.7740 C   0  0  0  0  0  0  0  0  0  0  0  0
    1.1080   -1.3850    2.9010 O   0  0  0  0  0  0  0  0  0  0  0  0
   -1.2310    2.4060    5.3320 O   0  0  0  0  0  0  0  0  0  0  0  0
    0.2680   -2.0650    5.3420 H   0  0  0  0  0  0  0  0  0  0  0  0
   -0.2130   -3.0960    4.0360 H   0  0  0  0  0  0  0  0  0  0  0  0
   -1.9960   -1.3350    3.6570 H   0  0  0  0  0  0  0  0  0  0  0  0
    0.1160   -0.0080    5.4620 H   0  0  0  0  0  0  0  0  0  0  0  0
   -1.5870   -0.3150    5.8010 H   0  0  0  0  0  0  0  0  0  0  0  0
   -1.0110    3.2740    4.8640 H   0  0  0  0  0  0  0  0  0  0  0  0
    3.1410    1.5120   -2.5900 N   0  0  0  0  0  0  0  0  0  0  0  0
    2.2090    2.0930   -1.7010 C   0  0  0  0  0  0  0  0  0  0  0  0
    0.9700    2.1410   -2.0360 N   0  0  0  0  0  0  0  0  0  0  0  0
    2.5650    2.6470   -0.4650 N   0  0  0  0  0  0  0  0  0  0  0  0
    1.9170    2.3500    0.7670 C   0  0  0  0  0  0  0  0  0  0  0  0
    2.1800    0.9790    1.2900 C   0  0  0  0  0  0  0  0  0  0  0  0
    1.7140   -0.1790    0.5170 C   0  0  0  0  0  0  0  0  0  0  0  0
    0.2180   -0.3360    0.3430 C   0  0  2  0  0  0  0  0  0  0  0  0
   -0.5250   -0.5350    1.5280 N   0  0  0  0  0  0  0  0  0  0  0  0
   -0.0380   -1.1770   -0.8030 C   0  0  0  0  0  0  0  0  0  0  0  0
    0.7210   -0.9380   -1.8080 O   0  0  0  0  0  0  0  0  0  0  0  0
    3.5540    2.0540   -3.3560 H   0  0  0  0  0  0  0  0  0  0  0  0
    3.4120    0.5190   -2.4670 H   0  0  0  0  0  0  0  0  0  0  0  0
    0.6720    1.7590   -2.9400 H   0  0  0  0  0  0  0  0  0  0  0  0
    3.3920    3.3310   -0.4790 H   0  0  0  0  0  0  0  0  0  0  0  0
    2.3120    3.0600    1.5610 H   0  0  0  0  0  0  0  0  0  0  0  0
    0.8240    2.6000    0.7490 H   0  0  0  0  0  0  0  0  0  0  0  0
    3.3260    0.8910    1.2900 H   0  0  0  0  0  0  0  0  0  0  0  0
    1.9790    0.9570    2.4030 H   0  0  0  0  0  0  0  0  0  0  0  0
    2.1700   -1.1060    0.8940 H   0  0  0  0  0  0  0  0  0  0  0  0
    2.1250   -0.0630   -0.5290 H   0  0  0  0  0  0  0  0  0  0  0  0
   -0.0530    0.7530    0.0140 H   0  0  0  0  0  0  0  0  0  0  0  0
   -1.5780   -0.3040    1.4810 H   0  0  0  0  0  0  0  0  0  0  0  0
   -1.0060   -2.2110   -0.9530 N   0  0  0  0  0  0  0  0  0  0  0  0
   -1.9800   -2.7190   -0.0560 C   0  0  0  0  0  0  0  0  0  0  0  0
   -2.2160   -4.1470   -0.4780 C   0  0  0  0  0  0  0  0  0  0  0  0
   -1.2210   -4.3980   -1.6090 C   0  0  0  0  0  0  0  0  0  0  0  0
   -1.1600   -2.9760   -2.1710 C   0  0  1  0  0  0  0  0  0  0  0  0
   -2.4080   -2.6460   -2.8570 C   0  0  0  0  0  0  0  0  0  0  0  0
   -3.1690   -1.7660   -2.4090 O   0  0  0  0  0  0  0  0  0  0  0  0
   -2.7790   -3.3060   -4.0300 O   0  0  0  0  0  0  0  0  0  0  0  0
   -2.9270   -2.1280   -0.1580 H   0  0  0  0  0  0  0  0  0  0  0  0
   -1.7070   -2.6450    1.0160 H   0  0  0  0  0  0  0  0  0  0  0  0
   -3.2270   -4.2650   -0.9580 H   0  0  0  0  0  0  0  0  0  0  0  0
   -2.0820   -4.8800    0.3270 H   0  0  0  0  0  0  0  0  0  0  0  0
   -0.2310   -4.6230   -1.1760 H   0  0  0  0  0  0  0  0  0  0  0  0
   -1.5670   -5.1160   -2.3480 H   0  0  0  0  0  0  0  0  0  0  0  0
   -0.2650   -2.8670   -2.8360 H   0  0  0  0  0  0  0  0  0  0  0  0
  1  9  1  0  0  0  0
  2 11  1  6  0  0  0
  2  1  1  0  0  0  0
  2  3  1  0  0  0  0
  3 12  1  0  0  0  0
  3 13  1  0  0  0  0
  4  3  1  0  0  0  0
  4  8  1  0  0  0  0
  5  4  2  0  0  0  0
  6  7  2  0  0  0  0
  6  2  1  0  0  0  0
 10  1  1  0  0  0  0
 14  8  1  0  0  0  0
 15 27  1  0  0  0  0
 15 16  1  0  0  0  0
 16 18  1  0  0  0  0
 17 16  2  0  0  0  0
 18 19  1  0  0  0  0
 19 20  1  0  0  0  0
 19 30  1  0  0  0  0
 20 33  1  0  0  0  0
 21 34  1  0  0  0  0
 21 20  1  0  0  0  0
 22 36  1  6  0  0  0
 22 21  1  0  0  0  0
 22 23  1  0  0  0  0
 23  6  1  0  0  0  0
 24 22  1  0  0  0  0
 25 24  2  0  0  0  0
 26 15  1  0  0  0  0
 28 17  1  0  0  0  0
 29 18  1  0  0  0  0
 31 19  1  0  0  0  0
 32 20  1  0  0  0  0
 35 21  1  0  0  0  0
 37 23  1  0  0  0  0
 38 24  1  0  0  0  0
 38 39  1  0  0  0  0
 39 47  1  0  0  0  0
 40 39  1  0  0  0  0
 40 49  1  0  0  0  0
 41 50  1  0  0  0  0
 41 40  1  0  0  0  0
 42 52  1  6  0  0  0
 42 41  1  0  0  0  0
 42 38  1  0  0  0  0
 43 44  1  0  0  0  0
 43 42  1  0  0  0  0
 45 43  2  0  0  0  0
 46 39  1  0  0  0  0
 48 40  1  0  0  0  0
 51 41  1  0  0  0  0
M  END
$$$$
