DRR.pdb
 OpenBabel07022418123D

 61 60  0  0  1  0  0  0  0  0999 V2000
    0.3090   -0.5300    6.7610 N   0  0  0  0  0  0  0  0  0  0  0  0
    0.9340   -0.2420    5.4880 C   0  0  1  0  0  0  0  0  0  0  0  0
    2.1190   -1.2050    5.3560 C   0  0  0  0  0  0  0  0  0  0  0  0
    3.0330   -0.9390    6.4950 C   0  0  0  0  0  0  0  0  0  0  0  0
    2.7870   -0.0570    7.3610 O   0  0  0  0  0  0  0  0  0  0  0  0
   -0.0470   -0.4990    4.4120 C   0  0  0  0  0  0  0  0  0  0  0  0
   -1.1980   -0.8960    4.7390 O   0  0  0  0  0  0  0  0  0  0  0  0
    4.2160   -1.6530    6.6680 O   0  0  0  0  0  0  0  0  0  0  0  0
    0.4170   -1.5540    6.9340 H   0  0  0  0  0  0  0  0  0  0  0  0
   -0.7190   -0.3520    6.6730 H   0  0  0  0  0  0  0  0  0  0  0  0
    1.3140    0.8020    5.4570 H   0  0  0  0  0  0  0  0  0  0  0  0
    2.6720   -1.0320    4.4220 H   0  0  0  0  0  0  0  0  0  0  0  0
    1.7420   -2.2370    5.4470 H   0  0  0  0  0  0  0  0  0  0  0  0
    4.8560   -1.4670    7.4330 H   0  0  0  0  0  0  0  0  0  0  0  0
    3.7770    2.1350   -2.2450 N   0  0  0  0  0  0  0  0  0  0  0  0
    2.5990    1.3700   -2.0420 C   0  0  0  0  0  0  0  0  0  0  0  0
    2.3810    0.3490   -2.7730 N   0  0  0  0  0  0  0  0  0  0  0  0
    1.6740    1.7390   -1.0320 N   0  0  0  0  0  0  0  0  0  0  0  0
    0.7460    0.7180   -0.5030 C   0  0  0  0  0  0  0  0  0  0  0  0
   -0.0800    1.3910    0.5210 C   0  0  0  0  0  0  0  0  0  0  0  0
   -1.1110    0.6170    1.2280 C   0  0  0  0  0  0  0  0  0  0  0  0
   -0.6990   -0.5710    2.0070 C   0  0  2  0  0  0  0  0  0  0  0  0
    0.2530   -0.3200    3.0330 N   0  0  0  0  0  0  0  0  0  0  0  0
   -0.3740   -1.7590    1.1580 C   0  0  0  0  0  0  0  0  0  0  0  0
    0.7090   -2.3710    1.2760 O   0  0  0  0  0  0  0  0  0  0  0  0
    4.7310    1.7010   -2.3320 H   0  0  0  0  0  0  0  0  0  0  0  0
    3.7540    3.1740   -2.3190 H   0  0  0  0  0  0  0  0  0  0  0  0
    1.5680   -0.2780   -2.7190 H   0  0  0  0  0  0  0  0  0  0  0  0
    1.6730    2.7240   -0.6890 H   0  0  0  0  0  0  0  0  0  0  0  0
    1.3090   -0.1650   -0.1640 H   0  0  0  0  0  0  0  0  0  0  0  0
    0.1740    0.3980   -1.3930 H   0  0  0  0  0  0  0  0  0  0  0  0
   -0.6250    2.2330   -0.0100 H   0  0  0  0  0  0  0  0  0  0  0  0
    0.5370    1.9500    1.2820 H   0  0  0  0  0  0  0  0  0  0  0  0
   -1.8820    0.3000    0.4660 H   0  0  0  0  0  0  0  0  0  0  0  0
   -1.6890    1.3470    1.8670 H   0  0  0  0  0  0  0  0  0  0  0  0
   -1.6460   -0.9110    2.5530 H   0  0  0  0  0  0  0  0  0  0  0  0
    1.2100    0.0080    2.7930 H   0  0  0  0  0  0  0  0  0  0  0  0
   -4.2840    1.2490   -4.9720 N   0  0  0  0  0  0  0  0  0  0  0  0
   -3.6170    0.7090   -3.8400 C   0  0  0  0  0  0  0  0  0  0  0  0
   -3.4090    1.4590   -2.8130 N   0  0  0  0  0  0  0  0  0  0  0  0
   -3.1630   -0.6240   -3.7860 N   0  0  0  0  0  0  0  0  0  0  0  0
   -2.1780   -1.1010   -2.7930 C   0  0  0  0  0  0  0  0  0  0  0  0
   -1.8770   -2.5320   -2.9920 C   0  0  0  0  0  0  0  0  0  0  0  0
   -0.9030   -3.2050   -2.1070 C   0  0  0  0  0  0  0  0  0  0  0  0
   -1.1580   -3.3510   -0.6690 C   0  0  2  0  0  0  0  0  0  0  0  0
   -1.3040   -2.2410    0.1800 N   0  0  0  0  0  0  0  0  0  0  0  0
   -0.4210   -4.5300   -0.0860 C   0  0  0  0  0  0  0  0  0  0  0  0
   -0.1020   -5.4990   -0.8480 O   0  0  0  0  0  0  0  0  0  0  0  0
   -0.0670   -4.6470    1.2230 O   0  0  0  0  0  0  0  0  0  0  0  0
   -3.7520    1.8560   -5.6190 H   0  0  0  0  0  0  0  0  0  0  0  0
   -5.2770    1.0220   -5.1180 H   0  0  0  0  0  0  0  0  0  0  0  0
   -2.9390    1.1760   -1.9430 H   0  0  0  0  0  0  0  0  0  0  0  0
   -3.5210   -1.3150   -4.4580 H   0  0  0  0  0  0  0  0  0  0  0  0
   -1.2470   -0.5090   -3.0090 H   0  0  0  0  0  0  0  0  0  0  0  0
   -2.5560   -0.7940   -1.8260 H   0  0  0  0  0  0  0  0  0  0  0  0
   -2.8500   -3.1270   -2.8900 H   0  0  0  0  0  0  0  0  0  0  0  0
   -1.5730   -2.7540   -4.0590 H   0  0  0  0  0  0  0  0  0  0  0  0
   -0.6820   -4.2340   -2.5390 H   0  0  0  0  0  0  0  0  0  0  0  0
    0.1420   -2.7200   -2.2230 H   0  0  0  0  0  0  0  0  0  0  0  0
   -2.2560   -3.8280   -0.6310 H   0  0  0  0  0  0  0  0  0  0  0  0
   -2.2030   -1.6810    0.1500 H   0  0  0  0  0  0  0  0  0  0  0  0
  1  9  1  0  0  0  0
  2 11  1  6  0  0  0
  2  1  1  0  0  0  0
  3 13  1  0  0  0  0
  3  2  1  0  0  0  0
  3  4  1  0  0  0  0
  4  8  1  0  0  0  0
  4  5  2  0  0  0  0
  6  7  2  0  0  0  0
  6  2  1  0  0  0  0
  8 14  1  0  0  0  0
 10  1  1  0  0  0  0
 12  3  1  0  0  0  0
 15 16  1  0  0  0  0
 16 18  1  0  0  0  0
 17 28  1  0  0  0  0
 17 16  2  0  0  0  0
 18 29  1  0  0  0  0
 18 19  1  0  0  0  0
 19 30  1  0  0  0  0
 19 20  1  0  0  0  0
 20 21  1  0  0  0  0
 20 33  1  0  0  0  0
 21 35  1  0  0  0  0
 21 22  1  0  0  0  0
 22 36  1  1  0  0  0
 22 23  1  0  0  0  0
 23  6  1  0  0  0  0
 24 25  2  0  0  0  0
 24 22  1  0  0  0  0
 26 15  1  0  0  0  0
 27 15  1  0  0  0  0
 31 19  1  0  0  0  0
 32 20  1  0  0  0  0
 34 21  1  0  0  0  0
 37 23  1  0  0  0  0
 38 39  1  0  0  0  0
 39 41  1  0  0  0  0
 39 40  2  0  0  0  0
 40 52  1  0  0  0  0
 41 42  1  0  0  0  0
 42 55  1  0  0  0  0
 43 56  1  0  0  0  0
 43 42  1  0  0  0  0
 43 44  1  0  0  0  0
 44 45  1  0  0  0  0
 45 60  1  6  0  0  0
 45 47  1  0  0  0  0
 45 46  1  0  0  0  0
 46 24  1  0  0  0  0
 47 49  1  0  0  0  0
 48 47  2  0  0  0  0
 50 38  1  0  0  0  0
 51 38  1  0  0  0  0
 53 41  1  0  0  0  0
 54 42  1  0  0  0  0
 57 43  1  0  0  0  0
 58 44  1  0  0  0  0
 59 44  1  0  0  0  0
 61 46  1  0  0  0  0
M  END
$$$$
