DRT.pdb
 OpenBabel07022418123D

 52 51  0  0  1  0  0  0  0  0999 V2000
   -0.4330    0.3690    5.0520 N   0  0  0  0  0  0  0  0  0  0  0  0
   -0.6260    0.7860    3.6980 C   0  0  1  0  0  0  0  0  0  0  0  0
    0.1070    2.1030    3.4970 C   0  0  0  0  0  0  0  0  0  0  0  0
   -0.4660    3.1000    4.4420 C   0  0  0  0  0  0  0  0  0  0  0  0
   -0.0120    4.2770    4.4570 O   0  0  0  0  0  0  0  0  0  0  0  0
   -0.2940   -0.2110    2.6920 C   0  0  0  0  0  0  0  0  0  0  0  0
    0.1380   -1.3350    2.9970 O   0  0  0  0  0  0  0  0  0  0  0  0
   -1.4930    2.7980    5.3250 O   0  0  0  0  0  0  0  0  0  0  0  0
    0.3980    0.7330    5.5200 H   0  0  0  0  0  0  0  0  0  0  0  0
   -0.6250   -0.6390    5.2200 H   0  0  0  0  0  0  0  0  0  0  0  0
   -1.7200    1.0480    3.5950 H   0  0  0  0  0  0  0  0  0  0  0  0
   -0.0930    2.4590    2.4780 H   0  0  0  0  0  0  0  0  0  0  0  0
    1.1770    2.0110    3.7540 H   0  0  0  0  0  0  0  0  0  0  0  0
   -1.7340    3.3990    6.0800 H   0  0  0  0  0  0  0  0  0  0  0  0
    5.4720    1.5540   -0.5000 N   0  0  0  0  0  0  0  0  0  0  0  0
    4.2050    1.5960    0.1690 C   0  0  0  0  0  0  0  0  0  0  0  0
    3.3030    2.4150   -0.2310 N   0  0  0  0  0  0  0  0  0  0  0  0
    3.9210    0.7480    1.2680 N   0  0  0  0  0  0  0  0  0  0  0  0
    2.5830    0.1530    1.4780 C   0  0  0  0  0  0  0  0  0  0  0  0
    2.3600   -0.8290    0.3930 C   0  0  0  0  0  0  0  0  0  0  0  0
    1.0960   -1.5900    0.3480 C   0  0  0  0  0  0  0  0  0  0  0  0
   -0.1730   -0.7800    0.2340 C   0  0  2  0  0  0  0  0  0  0  0  0
   -0.4640    0.0970    1.3150 N   0  0  0  0  0  0  0  0  0  0  0  0
   -1.3550   -1.5830   -0.1300 C   0  0  0  0  0  0  0  0  0  0  0  0
   -2.4370   -1.4260    0.5320 O   0  0  0  0  0  0  0  0  0  0  0  0
    5.7670    2.4140   -1.0030 H   0  0  0  0  0  0  0  0  0  0  0  0
    6.0610    0.7190   -0.4860 H   0  0  0  0  0  0  0  0  0  0  0  0
    2.3660    2.5200    0.1830 H   0  0  0  0  0  0  0  0  0  0  0  0
    4.6600    0.5280    1.9460 H   0  0  0  0  0  0  0  0  0  0  0  0
    2.5730   -0.2690    2.5030 H   0  0  0  0  0  0  0  0  0  0  0  0
    1.8990    1.0120    1.4160 H   0  0  0  0  0  0  0  0  0  0  0  0
    2.5380   -0.2770   -0.5750 H   0  0  0  0  0  0  0  0  0  0  0  0
    3.1920   -1.5850    0.4450 H   0  0  0  0  0  0  0  0  0  0  0  0
    1.0570   -2.3700    1.1330 H   0  0  0  0  0  0  0  0  0  0  0  0
    1.1220   -2.1910   -0.6140 H   0  0  0  0  0  0  0  0  0  0  0  0
    0.0990   -0.1060   -0.6680 H   0  0  0  0  0  0  0  0  0  0  0  0
   -0.8460    1.0670    1.0440 H   0  0  0  0  0  0  0  0  0  0  0  0
   -4.1090   -3.6660   -3.4580 C   0  0  0  0  0  0  0  0  0  0  0  0
   -2.9590   -2.8570   -2.9310 C   0  0  1  0  0  0  0  0  0  0  0  0
   -3.2490   -1.4870   -2.8760 O   0  0  0  0  0  0  0  0  0  0  0  0
   -2.5620   -3.3180   -1.5220 C   0  0  2  0  0  0  0  0  0  0  0  0
   -1.3950   -2.5310   -1.1720 N   0  0  0  0  0  0  0  0  0  0  0  0
   -2.3040   -4.7740   -1.5010 C   0  0  0  0  0  0  0  0  0  0  0  0
   -1.1930   -5.2850   -1.2100 O   0  0  0  0  0  0  0  0  0  0  0  0
   -3.3550   -5.6120   -1.8210 O   0  0  0  0  0  0  0  0  0  0  0  0
   -4.7560   -3.0860   -4.1530 H   0  0  0  0  0  0  0  0  0  0  0  0
   -4.7750   -3.9230   -2.5850 H   0  0  0  0  0  0  0  0  0  0  0  0
   -3.7950   -4.5710   -3.9980 H   0  0  0  0  0  0  0  0  0  0  0  0
   -2.1070   -2.9640   -3.6310 H   0  0  0  0  0  0  0  0  0  0  0  0
   -4.0920   -1.3270   -3.3810 H   0  0  0  0  0  0  0  0  0  0  0  0
   -3.3870   -3.0990   -0.8060 H   0  0  0  0  0  0  0  0  0  0  0  0
   -0.5310   -2.6800   -1.7300 H   0  0  0  0  0  0  0  0  0  0  0  0
  1 10  1  0  0  0  0
  1  9  1  0  0  0  0
  2 11  1  6  0  0  0
  2  1  1  0  0  0  0
  3  2  1  0  0  0  0
  3 13  1  0  0  0  0
  3  4  1  0  0  0  0
  4  5  2  0  0  0  0
  4  8  1  0  0  0  0
  6  7  2  0  0  0  0
  6  2  1  0  0  0  0
  8 14  1  0  0  0  0
 12  3  1  0  0  0  0
 15 27  1  0  0  0  0
 15 16  1  0  0  0  0
 16 18  1  0  0  0  0
 17 16  2  0  0  0  0
 17 28  1  0  0  0  0
 18 19  1  0  0  0  0
 18 29  1  0  0  0  0
 19 30  1  0  0  0  0
 20 33  1  0  0  0  0
 20 19  1  0  0  0  0
 21 20  1  0  0  0  0
 21 34  1  0  0  0  0
 22 36  1  6  0  0  0
 22 21  1  0  0  0  0
 22 23  1  0  0  0  0
 23  6  1  0  0  0  0
 24 22  1  0  0  0  0
 24 25  2  0  0  0  0
 26 15  1  0  0  0  0
 31 19  1  0  0  0  0
 32 20  1  0  0  0  0
 35 21  1  0  0  0  0
 37 23  1  0  0  0  0
 38 39  1  0  0  0  0
 38 47  1  0  0  0  0
 39 49  1  6  0  0  0
 39 40  1  0  0  0  0
 39 41  1  0  0  0  0
 41 43  1  0  0  0  0
 41 42  1  0  0  0  0
 41 51  1  1  0  0  0
 42 24  1  0  0  0  0
 43 44  1  0  0  0  0
 45 43  2  0  0  0  0
 46 38  1  0  0  0  0
 48 38  1  0  0  0  0
 50 40  1  0  0  0  0
 52 42  1  0  0  0  0
M  END
$$$$
