DRV.pdb
 OpenBabel07022418123D

 54 53  0  0  1  0  0  0  0  0999 V2000
   -0.2350   -1.8130    5.1550 N   0  0  0  0  0  0  0  0  0  0  0  0
   -1.1820   -0.7290    4.8260 C   0  0  1  0  0  0  0  0  0  0  0  0
   -0.8550    0.4010    5.7340 C   0  0  0  0  0  0  0  0  0  0  0  0
   -1.6720    1.6030    5.6080 C   0  0  0  0  0  0  0  0  0  0  0  0
   -1.3300    2.6040    6.3320 O   0  0  0  0  0  0  0  0  0  0  0  0
   -0.9780   -0.4560    3.3850 C   0  0  0  0  0  0  0  0  0  0  0  0
   -1.7040    0.4360    2.8710 O   0  0  0  0  0  0  0  0  0  0  0  0
   -2.7680    1.7980    4.8080 O   0  0  0  0  0  0  0  0  0  0  0  0
   -0.4060   -2.6340    4.5390 H   0  0  0  0  0  0  0  0  0  0  0  0
    0.7140   -1.4470    4.9290 H   0  0  0  0  0  0  0  0  0  0  0  0
   -2.1780   -1.1650    5.0000 H   0  0  0  0  0  0  0  0  0  0  0  0
    0.2450    0.6070    5.7030 H   0  0  0  0  0  0  0  0  0  0  0  0
   -1.0200    0.0110    6.7830 H   0  0  0  0  0  0  0  0  0  0  0  0
   -2.9330    2.7430    4.4680 H   0  0  0  0  0  0  0  0  0  0  0  0
    1.7310    1.5700   -2.3390 N   0  0  0  0  0  0  0  0  0  0  0  0
    1.1020    1.9620   -1.1380 C   0  0  0  0  0  0  0  0  0  0  0  0
   -0.1900    1.8200   -1.0600 N   0  0  0  0  0  0  0  0  0  0  0  0
    1.7750    2.5120   -0.0210 N   0  0  0  0  0  0  0  0  0  0  0  0
    1.5640    2.0390    1.3210 C   0  0  0  0  0  0  0  0  0  0  0  0
    2.1040    0.6930    1.6230 C   0  0  0  0  0  0  0  0  0  0  0  0
    1.5640   -0.4760    0.9090 C   0  0  0  0  0  0  0  0  0  0  0  0
    0.1350   -0.8190    1.1350 C   0  0  2  0  0  0  0  0  0  0  0  0
   -0.0540   -1.1000    2.5530 N   0  0  0  0  0  0  0  0  0  0  0  0
   -0.2030   -2.0140    0.3110 C   0  0  0  0  0  0  0  0  0  0  0  0
   -0.5770   -3.0980    0.8250 O   0  0  0  0  0  0  0  0  0  0  0  0
    1.1890    1.5870   -3.2480 H   0  0  0  0  0  0  0  0  0  0  0  0
    2.7050    1.2630   -2.3850 H   0  0  0  0  0  0  0  0  0  0  0  0
   -0.7030    1.4310   -1.8660 H   0  0  0  0  0  0  0  0  0  0  0  0
    2.4550    3.2990   -0.2630 H   0  0  0  0  0  0  0  0  0  0  0  0
    2.1280    2.7590    1.9920 H   0  0  0  0  0  0  0  0  0  0  0  0
    0.5030    2.1790    1.6500 H   0  0  0  0  0  0  0  0  0  0  0  0
    3.2100    0.7360    1.3710 H   0  0  0  0  0  0  0  0  0  0  0  0
    2.1270    0.5230    2.7400 H   0  0  0  0  0  0  0  0  0  0  0  0
    2.1600   -1.3710    1.2650 H   0  0  0  0  0  0  0  0  0  0  0  0
    1.8170   -0.4180   -0.1770 H   0  0  0  0  0  0  0  0  0  0  0  0
   -0.5320    0.0080    0.8730 H   0  0  0  0  0  0  0  0  0  0  0  0
    0.5640   -1.8430    2.9470 H   0  0  0  0  0  0  0  0  0  0  0  0
   -2.1320   -3.9060   -3.5770 C   0  0  0  0  0  0  0  0  0  0  0  0
   -1.6650   -2.7860   -2.7110 C   0  0  0  0  0  0  0  0  0  0  0  0
   -1.4070   -1.5330   -3.5030 C   0  0  0  0  0  0  0  0  0  0  0  0
   -0.4420   -3.1440   -1.8820 C   0  0  2  0  0  0  0  0  0  0  0  0
   -0.1110   -1.9670   -1.1030 N   0  0  0  0  0  0  0  0  0  0  0  0
    0.6600   -3.4380   -2.8270 C   0  0  0  0  0  0  0  0  0  0  0  0
    0.6360   -4.4110   -3.6230 O   0  0  0  0  0  0  0  0  0  0  0  0
    1.7730   -2.6170   -2.8480 O   0  0  0  0  0  0  0  0  0  0  0  0
   -3.2410   -3.9490   -3.5330 H   0  0  0  0  0  0  0  0  0  0  0  0
   -1.7750   -4.8870   -3.2040 H   0  0  0  0  0  0  0  0  0  0  0  0
   -1.8920   -3.7500   -4.6580 H   0  0  0  0  0  0  0  0  0  0  0  0
   -2.4740   -2.5390   -1.9890 H   0  0  0  0  0  0  0  0  0  0  0  0
   -1.3250   -0.6560   -2.8600 H   0  0  0  0  0  0  0  0  0  0  0  0
   -2.3110   -1.3670   -4.1480 H   0  0  0  0  0  0  0  0  0  0  0  0
   -0.4800   -1.5840   -4.1140 H   0  0  0  0  0  0  0  0  0  0  0  0
   -0.6730   -3.9830   -1.1920 H   0  0  0  0  0  0  0  0  0  0  0  0
    0.2000   -1.0690   -1.5860 H   0  0  0  0  0  0  0  0  0  0  0  0
  2 11  1  1  0  0  0
  2  1  1  0  0  0  0
  2  3  1  0  0  0  0
  3 13  1  0  0  0  0
  4  3  1  0  0  0  0
  4  5  2  0  0  0  0
  6  2  1  0  0  0  0
  7  6  2  0  0  0  0
  8  4  1  0  0  0  0
  9  1  1  0  0  0  0
 10  1  1  0  0  0  0
 12  3  1  0  0  0  0
 14  8  1  0  0  0  0
 15 16  1  0  0  0  0
 16 17  2  0  0  0  0
 16 18  1  0  0  0  0
 18 19  1  0  0  0  0
 19 20  1  0  0  0  0
 19 31  1  0  0  0  0
 19 30  1  0  0  0  0
 20 33  1  0  0  0  0
 21 22  1  0  0  0  0
 21 34  1  0  0  0  0
 21 20  1  0  0  0  0
 22 36  1  6  0  0  0
 22 23  1  0  0  0  0
 23 37  1  0  0  0  0
 23  6  1  0  0  0  0
 24 25  2  0  0  0  0
 24 22  1  0  0  0  0
 26 15  1  0  0  0  0
 27 15  1  0  0  0  0
 28 17  1  0  0  0  0
 29 18  1  0  0  0  0
 32 20  1  0  0  0  0
 35 21  1  0  0  0  0
 38 46  1  0  0  0  0
 38 47  1  0  0  0  0
 38 39  1  0  0  0  0
 39 49  1  0  0  0  0
 39 41  1  0  0  0  0
 40 50  1  0  0  0  0
 40 39  1  0  0  0  0
 41 53  1  1  0  0  0
 41 42  1  0  0  0  0
 42 24  1  0  0  0  0
 43 41  1  0  0  0  0
 44 43  2  0  0  0  0
 45 43  1  0  0  0  0
 48 38  1  0  0  0  0
 51 40  1  0  0  0  0
 52 40  1  0  0  0  0
 54 42  1  0  0  0  0
M  END
$$$$
