DRY.pdb
 OpenBabel07022418123D

 59 59  0  0  1  0  0  0  0  0999 V2000
    1.2370   -1.2090    3.7040 N   0  0  0  0  0  0  0  0  0  0  0  0
   -0.1470   -0.9060    3.9860 C   0  0  1  0  0  0  0  0  0  0  0  0
   -0.2230   -0.2450    5.3400 C   0  0  0  0  0  0  0  0  0  0  0  0
    0.5630    1.0080    5.3120 C   0  0  0  0  0  0  0  0  0  0  0  0
    1.8000    1.0920    5.5080 O   0  0  0  0  0  0  0  0  0  0  0  0
   -0.6750    0.0980    2.9910 C   0  0  0  0  0  0  0  0  0  0  0  0
   -1.8040    0.6070    3.1820 O   0  0  0  0  0  0  0  0  0  0  0  0
   -0.0950    2.2090    5.0490 O   0  0  0  0  0  0  0  0  0  0  0  0
    1.7480   -0.2810    3.6500 H   0  0  0  0  0  0  0  0  0  0  0  0
    1.6340   -1.6500    4.5820 H   0  0  0  0  0  0  0  0  0  0  0  0
   -0.7650   -1.8340    3.9730 H   0  0  0  0  0  0  0  0  0  0  0  0
    0.1210   -0.9240    6.1550 H   0  0  0  0  0  0  0  0  0  0  0  0
   -1.2880    0.0300    5.5330 H   0  0  0  0  0  0  0  0  0  0  0  0
    0.3540    3.0800    5.2860 H   0  0  0  0  0  0  0  0  0  0  0  0
    2.8170   -1.4850   -2.3960 N   0  0  0  0  0  0  0  0  0  0  0  0
    2.3980   -0.1210   -2.4110 C   0  0  0  0  0  0  0  0  0  0  0  0
    2.3150    0.5710   -3.4980 N   0  0  0  0  0  0  0  0  0  0  0  0
    2.0580    0.5030   -1.1640 N   0  0  0  0  0  0  0  0  0  0  0  0
    2.3110    1.9030   -0.9980 C   0  0  0  0  0  0  0  0  0  0  0  0
    1.9140    2.5320    0.2770 C   0  0  0  0  0  0  0  0  0  0  0  0
    0.5140    2.6130    0.6790 C   0  0  0  0  0  0  0  0  0  0  0  0
   -0.3190    1.4090    0.8760 C   0  0  2  0  0  0  0  0  0  0  0  0
    0.1160    0.4620    1.8380 N   0  0  0  0  0  0  0  0  0  0  0  0
   -0.9410    0.8790   -0.3540 C   0  0  0  0  0  0  0  0  0  0  0  0
   -1.2700    1.6980   -1.2490 O   0  0  0  0  0  0  0  0  0  0  0  0
    3.8150   -1.7530   -2.2050 H   0  0  0  0  0  0  0  0  0  0  0  0
    2.1580   -2.2590   -2.5760 H   0  0  0  0  0  0  0  0  0  0  0  0
    2.5530    0.1640   -4.4370 H   0  0  0  0  0  0  0  0  0  0  0  0
    1.6550   -0.1070   -0.4280 H   0  0  0  0  0  0  0  0  0  0  0  0
    3.4310    2.0470   -1.1890 H   0  0  0  0  0  0  0  0  0  0  0  0
    1.8670    2.4260   -1.8890 H   0  0  0  0  0  0  0  0  0  0  0  0
    2.2770    3.6220    0.1950 H   0  0  0  0  0  0  0  0  0  0  0  0
    2.5920    2.1520    1.1070 H   0  0  0  0  0  0  0  0  0  0  0  0
    0.4780    3.2800    1.6190 H   0  0  0  0  0  0  0  0  0  0  0  0
    0.0060    3.3230   -0.0700 H   0  0  0  0  0  0  0  0  0  0  0  0
   -1.2900    1.8750    1.3990 H   0  0  0  0  0  0  0  0  0  0  0  0
    1.0340   -0.0350    1.7890 H   0  0  0  0  0  0  0  0  0  0  0  0
   -0.9950   -6.6130    0.9200 O   0  0  0  0  0  0  0  0  0  0  0  0
   -1.0090   -5.4790    0.0920 C   0  0  0  0  0  0  0  0  0  0  0  0
   -2.0980   -5.3300   -0.7610 C   0  0  0  0  0  0  0  0  0  0  0  0
   -2.1850   -4.2490   -1.6030 C   0  0  0  0  0  0  0  0  0  0  0  0
   -1.1860   -3.3100   -1.5980 C   0  0  0  0  0  0  0  0  0  0  0  0
   -1.1730   -2.1080   -2.4700 C   0  0  0  0  0  0  0  0  0  0  0  0
   -1.8330   -0.9140   -1.8540 C   0  0  2  0  0  0  0  0  0  0  0  0
   -1.1980   -0.4940   -0.5950 N   0  0  0  0  0  0  0  0  0  0  0  0
   -3.2840   -1.2450   -1.5750 C   0  0  0  0  0  0  0  0  0  0  0  0
   -3.7540   -1.1570   -0.4220 O   0  0  0  0  0  0  0  0  0  0  0  0
   -0.1110   -3.4780   -0.7400 C   0  0  0  0  0  0  0  0  0  0  0  0
   -0.0060   -4.5490    0.1060 C   0  0  0  0  0  0  0  0  0  0  0  0
   -4.1010   -1.6470   -2.6020 O   0  0  0  0  0  0  0  0  0  0  0  0
   -1.8140   -6.8700    1.4780 H   0  0  0  0  0  0  0  0  0  0  0  0
   -2.8780   -6.0880   -0.7480 H   0  0  0  0  0  0  0  0  0  0  0  0
   -3.0280   -4.1340   -2.2640 H   0  0  0  0  0  0  0  0  0  0  0  0
   -0.1620   -1.9180   -2.8350 H   0  0  0  0  0  0  0  0  0  0  0  0
   -1.7720   -2.3870   -3.3820 H   0  0  0  0  0  0  0  0  0  0  0  0
   -1.8880   -0.0600   -2.5550 H   0  0  0  0  0  0  0  0  0  0  0  0
   -0.9370   -1.1950    0.1110 H   0  0  0  0  0  0  0  0  0  0  0  0
    0.6940   -2.7310   -0.7300 H   0  0  0  0  0  0  0  0  0  0  0  0
    0.8250   -4.6610    0.7570 H   0  0  0  0  0  0  0  0  0  0  0  0
  1  2  1  0  0  0  0
  1 10  1  0  0  0  0
  2 11  1  6  0  0  0
  2  3  1  0  0  0  0
  3 13  1  0  0  0  0
  3 12  1  0  0  0  0
  4  3  1  0  0  0  0
  4  5  2  0  0  0  0
  6  7  2  0  0  0  0
  6  2  1  0  0  0  0
  8 14  1  0  0  0  0
  8  4  1  0  0  0  0
  9  1  1  0  0  0  0
 15 26  1  0  0  0  0
 16 15  1  0  0  0  0
 16 18  1  0  0  0  0
 17 16  2  0  0  0  0
 18 19  1  0  0  0  0
 18 29  1  0  0  0  0
 19 20  1  0  0  0  0
 20 21  1  0  0  0  0
 20 33  1  0  0  0  0
 21 22  1  0  0  0  0
 21 34  1  0  0  0  0
 22 36  1  1  0  0  0
 22 23  1  0  0  0  0
 23  6  1  0  0  0  0
 24 22  1  0  0  0  0
 25 24  2  0  0  0  0
 27 15  1  0  0  0  0
 28 17  1  0  0  0  0
 30 19  1  0  0  0  0
 31 19  1  0  0  0  0
 32 20  1  0  0  0  0
 35 21  1  0  0  0  0
 37 23  1  0  0  0  0
 38 51  1  0  0  0  0
 39 49  1  0  0  0  0
 39 38  1  0  0  0  0
 40 52  1  0  0  0  0
 40 39  2  0  0  0  0
 41 42  2  0  0  0  0
 41 40  1  0  0  0  0
 42 48  1  0  0  0  0
 43 44  1  0  0  0  0
 43 42  1  0  0  0  0
 44 56  1  6  0  0  0
 44 46  1  0  0  0  0
 44 45  1  0  0  0  0
 45 24  1  0  0  0  0
 45 57  1  0  0  0  0
 46 47  1  0  0  0  0
 48 58  1  0  0  0  0
 48 49  2  0  0  0  0
 49 59  1  0  0  0  0
 50 46  2  0  0  0  0
 53 41  1  0  0  0  0
 54 43  1  0  0  0  0
 55 43  1  0  0  0  0
M  END
$$$$
