DSA.pdb
 OpenBabel07022418153D

 36 35  0  0  1  0  0  0  0  0999 V2000
    1.3720   -2.9730    3.4560 N   0  0  0  0  0  0  0  0  0  0  0  0
    1.1050   -2.6570    2.0680 C   0  0  1  0  0  0  0  0  0  0  0  0
   -0.3770   -2.7430    1.8320 C   0  0  0  0  0  0  0  0  0  0  0  0
   -0.8760   -4.1100    2.1290 C   0  0  0  0  0  0  0  0  0  0  0  0
   -0.0980   -5.0160    2.5210 O   0  0  0  0  0  0  0  0  0  0  0  0
    1.6950   -1.3700    1.7300 C   0  0  0  0  0  0  0  0  0  0  0  0
    2.3210   -0.7340    2.6160 O   0  0  0  0  0  0  0  0  0  0  0  0
   -2.2160   -4.4320    1.9840 O   0  0  0  0  0  0  0  0  0  0  0  0
    0.6250   -2.6790    4.0950 H   0  0  0  0  0  0  0  0  0  0  0  0
    1.6920   -3.9500    3.5910 H   0  0  0  0  0  0  0  0  0  0  0  0
    1.6430   -3.4390    1.4700 H   0  0  0  0  0  0  0  0  0  0  0  0
   -0.5230   -2.6070    0.7190 H   0  0  0  0  0  0  0  0  0  0  0  0
   -0.9500   -1.9540    2.3090 H   0  0  0  0  0  0  0  0  0  0  0  0
   -2.5680   -5.2770    2.4420 H   0  0  0  0  0  0  0  0  0  0  0  0
    4.2290   -0.4910   -0.5860 O   0  0  0  0  0  0  0  0  0  0  0  0
    3.2200    0.4110   -0.9880 C   0  0  0  0  0  0  0  0  0  0  0  0
    2.2240    0.5310    0.1410 C   0  0  2  0  0  0  0  0  0  0  0  0
    1.6260   -0.7530    0.4500 N   0  0  0  0  0  0  0  0  0  0  0  0
    1.1500    1.4670   -0.2850 C   0  0  0  0  0  0  0  0  0  0  0  0
    1.3980    2.6570   -0.6120 O   0  0  0  0  0  0  0  0  0  0  0  0
    4.6860   -0.7660   -1.4250 H   0  0  0  0  0  0  0  0  0  0  0  0
    2.7360   -0.0400   -1.8570 H   0  0  0  0  0  0  0  0  0  0  0  0
    3.6630    1.3970   -1.1520 H   0  0  0  0  0  0  0  0  0  0  0  0
    2.7150    0.8980    1.0630 H   0  0  0  0  0  0  0  0  0  0  0  0
    1.1090   -1.2760   -0.2870 H   0  0  0  0  0  0  0  0  0  0  0  0
   -2.0640    1.3290   -1.9040 C   0  0  0  0  0  0  0  0  0  0  0  0
   -1.2980    1.8950   -0.7380 C   0  0  2  0  0  0  0  0  0  0  0  0
   -0.1990    1.0500   -0.3370 N   0  0  0  0  0  0  0  0  0  0  0  0
   -2.2270    1.9920    0.4200 C   0  0  0  0  0  0  0  0  0  0  0  0
   -3.2910    2.6740    0.3620 O   0  0  0  0  0  0  0  0  0  0  0  0
   -1.9840    1.3430    1.6330 O   0  0  0  0  0  0  0  0  0  0  0  0
   -1.9490    0.2380   -1.9210 H   0  0  0  0  0  0  0  0  0  0  0  0
   -3.1270    1.6320   -1.7830 H   0  0  0  0  0  0  0  0  0  0  0  0
   -1.7120    1.8220   -2.8350 H   0  0  0  0  0  0  0  0  0  0  0  0
   -0.9750    2.9100   -1.0020 H   0  0  0  0  0  0  0  0  0  0  0  0
   -0.4150    0.0740   -0.0700 H   0  0  0  0  0  0  0  0  0  0  0  0
  1 10  1  0  0  0  0
  1  9  1  0  0  0  0
  2 11  1  6  0  0  0
  2  1  1  0  0  0  0
  3  2  1  0  0  0  0
  3  4  1  0  0  0  0
  3 13  1  0  0  0  0
  4  5  2  0  0  0  0
  6  2  1  0  0  0  0
  6  7  2  0  0  0  0
  8  4  1  0  0  0  0
  8 14  1  0  0  0  0
 12  3  1  0  0  0  0
 16 15  1  0  0  0  0
 16 17  1  0  0  0  0
 17 18  1  0  0  0  0
 17 24  1  1  0  0  0
 18  6  1  0  0  0  0
 19 17  1  0  0  0  0
 20 19  2  0  0  0  0
 21 15  1  0  0  0  0
 22 16  1  0  0  0  0
 23 16  1  0  0  0  0
 25 18  1  0  0  0  0
 26 33  1  0  0  0  0
 26 27  1  0  0  0  0
 27 35  1  6  0  0  0
 27 28  1  0  0  0  0
 27 29  1  0  0  0  0
 28 19  1  0  0  0  0
 28 36  1  0  0  0  0
 29 31  1  0  0  0  0
 30 29  2  0  0  0  0
 32 26  1  0  0  0  0
 34 26  1  0  0  0  0
M  END
$$$$
