DSG.pdb
 OpenBabel07022418153D

 33 32  0  0  1  0  0  0  0  0999 V2000
   -0.8600   -1.5470    2.1470 N   0  0  0  0  0  0  0  0  0  0  0  0
    0.5040   -1.2530    2.5070 C   0  0  1  0  0  0  0  0  0  0  0  0
    1.0460   -2.4650    3.2320 C   0  0  0  0  0  0  0  0  0  0  0  0
    0.2050   -2.6790    4.4270 C   0  0  0  0  0  0  0  0  0  0  0  0
    0.4170   -2.0260    5.4710 O   0  0  0  0  0  0  0  0  0  0  0  0
    1.3070   -0.8770    1.3410 C   0  0  0  0  0  0  0  0  0  0  0  0
    2.5230   -0.5630    1.3880 O   0  0  0  0  0  0  0  0  0  0  0  0
   -0.8130   -3.5970    4.3940 O   0  0  0  0  0  0  0  0  0  0  0  0
   -0.9390   -2.5550    1.8160 H   0  0  0  0  0  0  0  0  0  0  0  0
   -1.5180   -1.4350    2.9440 H   0  0  0  0  0  0  0  0  0  0  0  0
    0.4840   -0.3700    3.1920 H   0  0  0  0  0  0  0  0  0  0  0  0
    0.9710   -3.3590    2.5770 H   0  0  0  0  0  0  0  0  0  0  0  0
    2.1110   -2.3000    3.4890 H   0  0  0  0  0  0  0  0  0  0  0  0
   -1.5440   -3.6620    5.0970 H   0  0  0  0  0  0  0  0  0  0  0  0
   -0.0180   -1.8630   -2.5890 O   0  0  0  0  0  0  0  0  0  0  0  0
    1.2880   -1.5640   -2.2100 C   0  0  0  0  0  0  0  0  0  0  0  0
    1.3400   -0.5160   -1.1360 C   0  0  2  0  0  0  0  0  0  0  0  0
    0.6730   -0.8630    0.0690 N   0  0  0  0  0  0  0  0  0  0  0  0
    0.7060    0.7070   -1.6860 C   0  0  0  0  0  0  0  0  0  0  0  0
    1.1380    1.2140   -2.7770 O   0  0  0  0  0  0  0  0  0  0  0  0
   -0.2880   -2.7330   -2.1960 H   0  0  0  0  0  0  0  0  0  0  0  0
    1.7690   -1.1040   -3.1210 H   0  0  0  0  0  0  0  0  0  0  0  0
    1.8000   -2.4920   -1.9970 H   0  0  0  0  0  0  0  0  0  0  0  0
    2.3980   -0.2550   -0.9000 H   0  0  0  0  0  0  0  0  0  0  0  0
   -0.3560   -1.1210   -0.0300 H   0  0  0  0  0  0  0  0  0  0  0  0
   -0.3770    1.3180   -1.0080 N   0  0  0  0  0  0  0  0  0  0  0  0
   -1.0020    2.5180   -1.5450 C   0  0  0  0  0  0  0  0  0  0  0  0
   -2.0930    2.9480   -0.6640 C   0  0  0  0  0  0  0  0  0  0  0  0
   -2.7740    3.9620   -0.9330 O   0  0  0  0  0  0  0  0  0  0  0  0
   -2.3820    2.2350    0.4790 O   0  0  0  0  0  0  0  0  0  0  0  0
   -0.7190    0.8840   -0.1090 H   0  0  0  0  0  0  0  0  0  0  0  0
   -1.4220    2.2270   -2.5320 H   0  0  0  0  0  0  0  0  0  0  0  0
   -0.2840    3.3630   -1.6230 H   0  0  0  0  0  0  0  0  0  0  0  0
  1  2  1  0  0  0  0
  1 10  1  0  0  0  0
  2 11  1  1  0  0  0
  2  3  1  0  0  0  0
  3 13  1  0  0  0  0
  3  4  1  0  0  0  0
  4  5  2  0  0  0  0
  6  7  2  0  0  0  0
  6  2  1  0  0  0  0
  8  4  1  0  0  0  0
  8 14  1  0  0  0  0
  9  1  1  0  0  0  0
 12  3  1  0  0  0  0
 15 16  1  0  0  0  0
 15 21  1  0  0  0  0
 16 23  1  0  0  0  0
 16 17  1  0  0  0  0
 17 24  1  1  0  0  0
 17 18  1  0  0  0  0
 18  6  1  0  0  0  0
 19 17  1  0  0  0  0
 19 26  1  0  0  0  0
 20 19  2  0  0  0  0
 22 16  1  0  0  0  0
 25 18  1  0  0  0  0
 26 31  1  0  0  0  0
 27 26  1  0  0  0  0
 27 28  1  0  0  0  0
 28 30  1  0  0  0  0
 29 28  2  0  0  0  0
 32 27  1  0  0  0  0
 33 27  1  0  0  0  0
M  END
$$$$
