DSK.pdb
 OpenBabel07022418153D

 47 46  0  0  1  0  0  0  0  0999 V2000
    5.2640   -2.3060    2.3170 N   0  0  0  0  0  0  0  0  0  0  0  0
    3.8870   -2.5340    2.6640 C   0  0  1  0  0  0  0  0  0  0  0  0
    3.3970   -1.5520    3.7110 C   0  0  0  0  0  0  0  0  0  0  0  0
    4.1910   -1.6640    4.9560 C   0  0  0  0  0  0  0  0  0  0  0  0
    5.1220   -2.4960    5.0800 O   0  0  0  0  0  0  0  0  0  0  0  0
    3.0590   -2.4130    1.4170 C   0  0  0  0  0  0  0  0  0  0  0  0
    3.6100   -2.1140    0.3060 O   0  0  0  0  0  0  0  0  0  0  0  0
    3.9130   -0.8340    6.0300 O   0  0  0  0  0  0  0  0  0  0  0  0
    5.8710   -2.9280    2.9150 H   0  0  0  0  0  0  0  0  0  0  0  0
    5.3810   -2.7250    1.3440 H   0  0  0  0  0  0  0  0  0  0  0  0
    3.8050   -3.5640    3.0640 H   0  0  0  0  0  0  0  0  0  0  0  0
    2.3150   -1.6590    3.8890 H   0  0  0  0  0  0  0  0  0  0  0  0
    3.5900   -0.5290    3.2840 H   0  0  0  0  0  0  0  0  0  0  0  0
    4.6260   -0.5600    6.7110 H   0  0  0  0  0  0  0  0  0  0  0  0
   -0.3840   -3.7290   -1.3760 O   0  0  0  0  0  0  0  0  0  0  0  0
    0.3880   -3.8750   -0.2460 C   0  0  0  0  0  0  0  0  0  0  0  0
    0.8330   -2.4990    0.2060 C   0  0  2  0  0  0  0  0  0  0  0  0
    1.6690   -2.6190    1.4140 N   0  0  0  0  0  0  0  0  0  0  0  0
   -0.2980   -1.5880    0.4830 C   0  0  0  0  0  0  0  0  0  0  0  0
   -0.4090   -1.1240    1.6580 O   0  0  0  0  0  0  0  0  0  0  0  0
    0.1890   -3.5590   -2.1860 H   0  0  0  0  0  0  0  0  0  0  0  0
   -0.1890   -4.4200    0.5080 H   0  0  0  0  0  0  0  0  0  0  0  0
    1.3060   -4.4330   -0.5330 H   0  0  0  0  0  0  0  0  0  0  0  0
    1.4560   -2.1030   -0.6110 H   0  0  0  0  0  0  0  0  0  0  0  0
    1.2090   -2.8690    2.3330 H   0  0  0  0  0  0  0  0  0  0  0  0
   -1.2710   -1.1930   -0.4640 N   0  0  0  0  0  0  0  0  0  0  0  0
   -2.3750   -0.2970   -0.1320 C   0  0  1  0  0  0  0  0  0  0  0  0
   -2.3000    0.9680   -0.9540 C   0  0  0  0  0  0  0  0  0  0  0  0
   -3.4090    1.9290   -0.6500 C   0  0  0  0  0  0  0  0  0  0  0  0
   -3.2830    3.1920   -1.4890 C   0  0  0  0  0  0  0  0  0  0  0  0
   -1.9910    3.9190   -1.2430 C   0  0  0  0  0  0  0  0  0  0  0  0
   -1.8000    4.3460    0.1080 N   0  0  0  0  0  0  0  0  0  0  0  0
   -3.6180   -1.0520   -0.3830 C   0  0  0  0  0  0  0  0  0  0  0  0
   -3.5820   -2.2330   -0.8580 O   0  0  0  0  0  0  0  0  0  0  0  0
   -4.9050   -0.5660   -0.1330 O   0  0  0  0  0  0  0  0  0  0  0  0
   -1.1710   -1.5640   -1.4310 H   0  0  0  0  0  0  0  0  0  0  0  0
   -2.3560    0.0040    0.9250 H   0  0  0  0  0  0  0  0  0  0  0  0
   -2.2450    0.7120   -2.0320 H   0  0  0  0  0  0  0  0  0  0  0  0
   -1.3400    1.4870   -0.7240 H   0  0  0  0  0  0  0  0  0  0  0  0
   -4.4230    1.5340   -0.8640 H   0  0  0  0  0  0  0  0  0  0  0  0
   -3.4130    2.2560    0.4080 H   0  0  0  0  0  0  0  0  0  0  0  0
   -3.2930    2.9160   -2.5700 H   0  0  0  0  0  0  0  0  0  0  0  0
   -4.1590    3.8240   -1.2870 H   0  0  0  0  0  0  0  0  0  0  0  0
   -1.1350    3.3370   -1.6540 H   0  0  0  0  0  0  0  0  0  0  0  0
   -2.0120    4.8490   -1.8740 H   0  0  0  0  0  0  0  0  0  0  0  0
   -2.5210    4.0590    0.7780 H   0  0  0  0  0  0  0  0  0  0  0  0
   -0.8220    4.2820    0.4200 H   0  0  0  0  0  0  0  0  0  0  0  0
  1  2  1  0  0  0  0
  1  9  1  0  0  0  0
  2 11  1  1  0  0  0
  2  3  1  0  0  0  0
  3 12  1  0  0  0  0
  3  4  1  0  0  0  0
  4  5  2  0  0  0  0
  4  8  1  0  0  0  0
  6  2  1  0  0  0  0
  7  6  2  0  0  0  0
  8 14  1  0  0  0  0
 10  1  1  0  0  0  0
 13  3  1  0  0  0  0
 15 16  1  0  0  0  0
 16 17  1  0  0  0  0
 16 22  1  0  0  0  0
 17 24  1  6  0  0  0
 17 19  1  0  0  0  0
 17 18  1  0  0  0  0
 18  6  1  0  0  0  0
 18 25  1  0  0  0  0
 19 20  2  0  0  0  0
 21 15  1  0  0  0  0
 23 16  1  0  0  0  0
 26 27  1  0  0  0  0
 26 19  1  0  0  0  0
 27 37  1  1  0  0  0
 28 39  1  0  0  0  0
 28 29  1  0  0  0  0
 28 27  1  0  0  0  0
 29 41  1  0  0  0  0
 30 43  1  0  0  0  0
 30 31  1  0  0  0  0
 30 29  1  0  0  0  0
 31 32  1  0  0  0  0
 32 47  1  0  0  0  0
 32 46  1  0  0  0  0
 33 35  1  0  0  0  0
 33 27  1  0  0  0  0
 34 33  2  0  0  0  0
 36 26  1  0  0  0  0
 38 28  1  0  0  0  0
 40 29  1  0  0  0  0
 42 30  1  0  0  0  0
 44 31  1  0  0  0  0
 45 31  1  0  0  0  0
M  END
$$$$
