DSL.pdb
 OpenBabel07022418153D

 45 44  0  0  1  0  0  0  0  0999 V2000
    2.7000   -4.5070   -0.1350 N   0  0  0  0  0  0  0  0  0  0  0  0
    1.3610   -3.9910    0.0540 C   0  0  1  0  0  0  0  0  0  0  0  0
    1.0380   -3.8410    1.5330 C   0  0  0  0  0  0  0  0  0  0  0  0
    1.1240   -5.1490    2.2290 C   0  0  0  0  0  0  0  0  0  0  0  0
    0.9000   -5.2310    3.4600 O   0  0  0  0  0  0  0  0  0  0  0  0
    1.2190   -2.7220   -0.6720 C   0  0  0  0  0  0  0  0  0  0  0  0
    2.1570   -2.1940   -1.3520 O   0  0  0  0  0  0  0  0  0  0  0  0
    1.4510   -6.3130    1.5600 O   0  0  0  0  0  0  0  0  0  0  0  0
    3.1200   -4.9210    0.7120 H   0  0  0  0  0  0  0  0  0  0  0  0
    2.6870   -5.1800   -0.9130 H   0  0  0  0  0  0  0  0  0  0  0  0
    0.6520   -4.7730   -0.3210 H   0  0  0  0  0  0  0  0  0  0  0  0
    0.0540   -3.3520    1.6750 H   0  0  0  0  0  0  0  0  0  0  0  0
    1.8380   -3.1850    1.9660 H   0  0  0  0  0  0  0  0  0  0  0  0
    1.0760   -7.2140    1.8590 H   0  0  0  0  0  0  0  0  0  0  0  0
   -1.3730    0.5050   -2.9230 O   0  0  0  0  0  0  0  0  0  0  0  0
   -1.3180   -0.7820   -2.3580 C   0  0  0  0  0  0  0  0  0  0  0  0
   -0.2100   -0.7580   -1.3380 C   0  0  2  0  0  0  0  0  0  0  0  0
   -0.0080   -1.9880   -0.6590 N   0  0  0  0  0  0  0  0  0  0  0  0
   -0.5190    0.3820   -0.4010 C   0  0  0  0  0  0  0  0  0  0  0  0
   -0.7170    1.5100   -0.8710 O   0  0  0  0  0  0  0  0  0  0  0  0
   -2.2960    0.7870   -3.0950 H   0  0  0  0  0  0  0  0  0  0  0  0
   -2.3080   -0.9840   -1.9310 H   0  0  0  0  0  0  0  0  0  0  0  0
   -1.0590   -1.4660   -3.2050 H   0  0  0  0  0  0  0  0  0  0  0  0
    0.7170   -0.4690   -1.8670 H   0  0  0  0  0  0  0  0  0  0  0  0
   -0.7990   -2.4080   -0.1000 H   0  0  0  0  0  0  0  0  0  0  0  0
    1.7640    2.5570    2.5200 C   0  0  0  0  0  0  0  0  0  0  0  0
    0.8030    2.8590    1.3740 C   0  0  0  0  0  0  0  0  0  0  0  0
    0.8520    4.3830    1.1870 C   0  0  0  0  0  0  0  0  0  0  0  0
   -0.5950    2.4900    1.7030 C   0  0  0  0  0  0  0  0  0  0  0  0
   -0.8180    1.0230    2.0130 C   0  0  2  0  0  0  0  0  0  0  0  0
   -0.5680    0.1090    0.9680 N   0  0  0  0  0  0  0  0  0  0  0  0
   -2.0760    0.8190    2.6930 C   0  0  0  0  0  0  0  0  0  0  0  0
   -2.4800    1.5260    3.6490 O   0  0  0  0  0  0  0  0  0  0  0  0
   -2.9140   -0.2230    2.2820 O   0  0  0  0  0  0  0  0  0  0  0  0
    2.5860    3.2940    2.4770 H   0  0  0  0  0  0  0  0  0  0  0  0
    2.2270    1.5600    2.3920 H   0  0  0  0  0  0  0  0  0  0  0  0
    1.2850    2.6190    3.5030 H   0  0  0  0  0  0  0  0  0  0  0  0
    1.2370    2.4350    0.4880 H   0  0  0  0  0  0  0  0  0  0  0  0
    0.1910    4.8140    1.9610 H   0  0  0  0  0  0  0  0  0  0  0  0
    0.4610    4.6120    0.1680 H   0  0  0  0  0  0  0  0  0  0  0  0
    1.8570    4.7790    1.3270 H   0  0  0  0  0  0  0  0  0  0  0  0
   -1.3020    2.8820    0.9500 H   0  0  0  0  0  0  0  0  0  0  0  0
   -0.8640    3.0300    2.6590 H   0  0  0  0  0  0  0  0  0  0  0  0
    0.0320    0.8250    2.7690 H   0  0  0  0  0  0  0  0  0  0  0  0
   -0.4000   -0.9010    1.2670 H   0  0  0  0  0  0  0  0  0  0  0  0
  1  2  1  0  0  0  0
  1  9  1  0  0  0  0
  2 11  1  6  0  0  0
  2  3  1  0  0  0  0
  3 12  1  0  0  0  0
  3 13  1  0  0  0  0
  3  4  1  0  0  0  0
  4  5  2  0  0  0  0
  6 18  1  0  0  0  0
  6  2  1  0  0  0  0
  7  6  2  0  0  0  0
  8 14  1  0  0  0  0
  8  4  1  0  0  0  0
 10  1  1  0  0  0  0
 15 16  1  0  0  0  0
 16 22  1  0  0  0  0
 16 17  1  0  0  0  0
 17 24  1  6  0  0  0
 17 18  1  0  0  0  0
 17 19  1  0  0  0  0
 18 25  1  0  0  0  0
 19 31  1  0  0  0  0
 20 19  2  0  0  0  0
 21 15  1  0  0  0  0
 23 16  1  0  0  0  0
 26 37  1  0  0  0  0
 27 29  1  0  0  0  0
 27 26  1  0  0  0  0
 28 41  1  0  0  0  0
 28 27  1  0  0  0  0
 28 39  1  0  0  0  0
 29 30  1  0  0  0  0
 29 43  1  0  0  0  0
 30 32  1  0  0  0  0
 30 44  1  1  0  0  0
 31 45  1  0  0  0  0
 31 30  1  0  0  0  0
 32 33  1  0  0  0  0
 34 32  2  0  0  0  0
 35 26  1  0  0  0  0
 36 26  1  0  0  0  0
 38 27  1  0  0  0  0
 40 28  1  0  0  0  0
 42 29  1  0  0  0  0
M  END
$$$$
