DSM.pdb
 OpenBabel07022418153D

 43 42  0  0  1  0  0  0  0  0999 V2000
   -0.5760   -4.8400    1.2780 N   0  0  0  0  0  0  0  0  0  0  0  0
    0.8370   -4.5590    1.6010 C   0  0  1  0  0  0  0  0  0  0  0  0
    1.6200   -5.6660    0.9550 C   0  0  0  0  0  0  0  0  0  0  0  0
    3.0730   -5.5920    1.1580 C   0  0  0  0  0  0  0  0  0  0  0  0
    3.8170   -6.4620    0.5940 O   0  0  0  0  0  0  0  0  0  0  0  0
    1.1300   -3.2170    0.9980 C   0  0  0  0  0  0  0  0  0  0  0  0
    2.2640   -2.6710    1.1020 O   0  0  0  0  0  0  0  0  0  0  0  0
    3.7460   -4.6530    1.9170 O   0  0  0  0  0  0  0  0  0  0  0  0
   -0.7450   -5.8130    1.6510 H   0  0  0  0  0  0  0  0  0  0  0  0
   -0.5720   -4.9700    0.2230 H   0  0  0  0  0  0  0  0  0  0  0  0
    1.0260   -4.4960    2.6670 H   0  0  0  0  0  0  0  0  0  0  0  0
    1.2770   -6.6110    1.4620 H   0  0  0  0  0  0  0  0  0  0  0  0
    1.3480   -5.8050   -0.1120 H   0  0  0  0  0  0  0  0  0  0  0  0
    4.6070   -4.8210    2.4160 H   0  0  0  0  0  0  0  0  0  0  0  0
    0.6680   -0.1340   -2.4580 O   0  0  0  0  0  0  0  0  0  0  0  0
    0.3840   -1.3230   -1.7980 C   0  0  0  0  0  0  0  0  0  0  0  0
    0.4530   -1.2070   -0.2900 C   0  0  2  0  0  0  0  0  0  0  0  0
    0.1480   -2.4880    0.2780 N   0  0  0  0  0  0  0  0  0  0  0  0
   -0.3990   -0.1220    0.2420 C   0  0  0  0  0  0  0  0  0  0  0  0
   -1.2930   -0.4230    1.0810 O   0  0  0  0  0  0  0  0  0  0  0  0
    0.2010   -0.1030   -3.3290 H   0  0  0  0  0  0  0  0  0  0  0  0
   -0.5860   -1.7200   -2.1470 H   0  0  0  0  0  0  0  0  0  0  0  0
    1.1800   -2.0500   -2.0860 H   0  0  0  0  0  0  0  0  0  0  0  0
    1.5070   -0.9670   -0.0490 H   0  0  0  0  0  0  0  0  0  0  0  0
   -0.8160   -2.8680    0.1480 H   0  0  0  0  0  0  0  0  0  0  0  0
    1.0110    4.4910    4.1100 C   0  0  0  0  0  0  0  0  0  0  0  0
    0.4120    5.4060    2.6700 S   0  0  0  0  0  0  0  0  0  0  0  0
   -0.8060    4.4120    1.7430 C   0  0  0  0  0  0  0  0  0  0  0  0
   -0.1460    3.2060    1.1400 C   0  0  0  0  0  0  0  0  0  0  0  0
   -1.0830    2.3180    0.3620 C   0  0  2  0  0  0  0  0  0  0  0  0
   -0.2650    1.2120   -0.1340 N   0  0  0  0  0  0  0  0  0  0  0  0
   -1.8130    2.9820   -0.7120 C   0  0  0  0  0  0  0  0  0  0  0  0
   -2.6070    3.9300   -0.5360 O   0  0  0  0  0  0  0  0  0  0  0  0
   -1.6290    2.5450   -2.0200 O   0  0  0  0  0  0  0  0  0  0  0  0
    1.7640    5.1370    4.6170 H   0  0  0  0  0  0  0  0  0  0  0  0
    1.4480    3.5280    3.8330 H   0  0  0  0  0  0  0  0  0  0  0  0
    0.1620    4.2860    4.8170 H   0  0  0  0  0  0  0  0  0  0  0  0
   -1.3420    5.0260    1.0110 H   0  0  0  0  0  0  0  0  0  0  0  0
   -1.5390    4.0370    2.5120 H   0  0  0  0  0  0  0  0  0  0  0  0
    0.3260    2.6420    1.9900 H   0  0  0  0  0  0  0  0  0  0  0  0
    0.7230    3.5330    0.5090 H   0  0  0  0  0  0  0  0  0  0  0  0
   -1.7960    1.8590    1.0790 H   0  0  0  0  0  0  0  0  0  0  0  0
    0.4690    1.4770   -0.8200 H   0  0  0  0  0  0  0  0  0  0  0  0
  1  2  1  0  0  0  0
  1  9  1  0  0  0  0
  2 11  1  1  0  0  0
  3  4  1  0  0  0  0
  3 12  1  0  0  0  0
  3  2  1  0  0  0  0
  4  8  1  0  0  0  0
  5  4  2  0  0  0  0
  6  7  2  0  0  0  0
  6  2  1  0  0  0  0
  8 14  1  0  0  0  0
 10  1  1  0  0  0  0
 13  3  1  0  0  0  0
 15 16  1  0  0  0  0
 16 17  1  0  0  0  0
 17 24  1  1  0  0  0
 17 19  1  0  0  0  0
 17 18  1  0  0  0  0
 18  6  1  0  0  0  0
 19 20  2  0  0  0  0
 21 15  1  0  0  0  0
 22 16  1  0  0  0  0
 23 16  1  0  0  0  0
 25 18  1  0  0  0  0
 26 35  1  0  0  0  0
 26 37  1  0  0  0  0
 27 26  1  0  0  0  0
 28 39  1  0  0  0  0
 28 27  1  0  0  0  0
 29 28  1  0  0  0  0
 29 40  1  0  0  0  0
 30 42  1  1  0  0  0
 30 29  1  0  0  0  0
 31 19  1  0  0  0  0
 31 30  1  0  0  0  0
 32 33  1  0  0  0  0
 32 30  1  0  0  0  0
 34 32  2  0  0  0  0
 36 26  1  0  0  0  0
 38 28  1  0  0  0  0
 41 29  1  0  0  0  0
 43 31  1  0  0  0  0
M  END
$$$$
