DSP.pdb
 OpenBabel07022418153D

 40 40  0  0  1  0  0  0  0  0999 V2000
    2.1160   -4.4960    0.3690 N   0  0  0  0  0  0  0  0  0  0  0  0
    0.9910   -3.5840    0.4750 C   0  0  1  0  0  0  0  0  0  0  0  0
    0.5990   -3.3140    1.8860 C   0  0  0  0  0  0  0  0  0  0  0  0
    1.6870   -2.7130    2.6950 C   0  0  0  0  0  0  0  0  0  0  0  0
    2.7980   -2.4790    2.1970 O   0  0  0  0  0  0  0  0  0  0  0  0
    1.1710   -2.3930   -0.3740 C   0  0  0  0  0  0  0  0  0  0  0  0
    2.2940   -2.2870   -0.9820 O   0  0  0  0  0  0  0  0  0  0  0  0
    1.4020   -2.4300    4.0250 O   0  0  0  0  0  0  0  0  0  0  0  0
    2.4450   -4.7720    1.3260 H   0  0  0  0  0  0  0  0  0  0  0  0
    2.8850   -4.0930   -0.2070 H   0  0  0  0  0  0  0  0  0  0  0  0
    0.1250   -4.1520    0.0180 H   0  0  0  0  0  0  0  0  0  0  0  0
    0.2950   -4.2570    2.3640 H   0  0  0  0  0  0  0  0  0  0  0  0
   -0.2970   -2.6620    1.8740 H   0  0  0  0  0  0  0  0  0  0  0  0
    2.1700   -2.2160    4.6750 H   0  0  0  0  0  0  0  0  0  0  0  0
   -0.2310    0.8930   -3.3470 O   0  0  0  0  0  0  0  0  0  0  0  0
   -0.5380   -0.2360   -2.5740 C   0  0  0  0  0  0  0  0  0  0  0  0
    0.4170   -0.2700   -1.3790 C   0  0  2  0  0  0  0  0  0  0  0  0
    0.1740   -1.3840   -0.5420 N   0  0  0  0  0  0  0  0  0  0  0  0
    0.3600    1.0640   -0.7850 C   0  0  0  0  0  0  0  0  0  0  0  0
    0.5610    2.0180   -1.6360 O   0  0  0  0  0  0  0  0  0  0  0  0
   -1.0130    1.4930   -3.4400 H   0  0  0  0  0  0  0  0  0  0  0  0
   -0.3620   -1.1150   -3.2320 H   0  0  0  0  0  0  0  0  0  0  0  0
   -1.5790   -0.2110   -2.2300 H   0  0  0  0  0  0  0  0  0  0  0  0
    1.4470   -0.3840   -1.8440 H   0  0  0  0  0  0  0  0  0  0  0  0
   -0.7350   -1.4840   -0.0530 H   0  0  0  0  0  0  0  0  0  0  0  0
    0.1240    1.4300    0.5420 N   0  0  0  0  0  0  0  0  0  0  0  0
    0.0880    2.8410    0.9810 C   0  0  0  0  0  0  0  0  0  0  0  0
    0.2440    2.8330    2.4650 C   0  0  0  0  0  0  0  0  0  0  0  0
    0.4200    1.4080    2.8720 C   0  0  0  0  0  0  0  0  0  0  0  0
   -0.1140    0.5980    1.7040 C   0  0  1  0  0  0  0  0  0  0  0  0
   -1.5590    0.3870    1.9730 C   0  0  0  0  0  0  0  0  0  0  0  0
   -2.4380    0.8900    1.2510 O   0  0  0  0  0  0  0  0  0  0  0  0
   -1.8770   -0.4010    3.0700 O   0  0  0  0  0  0  0  0  0  0  0  0
   -0.8830    3.2850    0.6370 H   0  0  0  0  0  0  0  0  0  0  0  0
    0.9280    3.3340    0.4660 H   0  0  0  0  0  0  0  0  0  0  0  0
   -0.6580    3.2460    2.9890 H   0  0  0  0  0  0  0  0  0  0  0  0
    1.1550    3.4250    2.7310 H   0  0  0  0  0  0  0  0  0  0  0  0
   -0.1650    1.1640    3.7990 H   0  0  0  0  0  0  0  0  0  0  0  0
    1.4980    1.1930    3.0100 H   0  0  0  0  0  0  0  0  0  0  0  0
    0.3800   -0.3680    1.6880 H   0  0  0  0  0  0  0  0  0  0  0  0
  1  2  1  0  0  0  0
  1  9  1  0  0  0  0
  2 11  1  6  0  0  0
  2  3  1  0  0  0  0
  3 12  1  0  0  0  0
  3  4  1  0  0  0  0
  4  8  1  0  0  0  0
  5  4  2  0  0  0  0
  6  2  1  0  0  0  0
  7  6  2  0  0  0  0
  8 14  1  0  0  0  0
 10  1  1  0  0  0  0
 13  3  1  0  0  0  0
 15 16  1  0  0  0  0
 16 23  1  0  0  0  0
 16 17  1  0  0  0  0
 17 24  1  6  0  0  0
 17 19  1  0  0  0  0
 17 18  1  0  0  0  0
 18  6  1  0  0  0  0
 18 25  1  0  0  0  0
 19 26  1  0  0  0  0
 20 19  2  0  0  0  0
 21 15  1  0  0  0  0
 22 16  1  0  0  0  0
 26 27  1  0  0  0  0
 26 30  1  0  0  0  0
 27 28  1  0  0  0  0
 28 37  1  0  0  0  0
 28 29  1  0  0  0  0
 28 36  1  0  0  0  0
 29 39  1  0  0  0  0
 29 38  1  0  0  0  0
 30 40  1  6  0  0  0
 30 31  1  0  0  0  0
 30 29  1  0  0  0  0
 31 33  1  0  0  0  0
 32 31  2  0  0  0  0
 34 27  1  0  0  0  0
 35 27  1  0  0  0  0
M  END
$$$$
