DSQ.pdb
 OpenBabel07022418153D

 43 42  0  0  1  0  0  0  0  0999 V2000
    2.4860   -4.7090    0.5540 N   0  0  0  0  0  0  0  0  0  0  0  0
    1.4010   -3.8020    1.0400 C   0  0  1  0  0  0  0  0  0  0  0  0
    1.8410   -3.4250    2.4100 C   0  0  0  0  0  0  0  0  0  0  0  0
    0.9300   -2.5410    3.1480 C   0  0  0  0  0  0  0  0  0  0  0  0
   -0.1700   -2.1520    2.7080 O   0  0  0  0  0  0  0  0  0  0  0  0
    1.3710   -2.7170    0.0450 C   0  0  0  0  0  0  0  0  0  0  0  0
    2.4380   -2.4230   -0.5870 O   0  0  0  0  0  0  0  0  0  0  0  0
    1.3210   -2.1010    4.4370 O   0  0  0  0  0  0  0  0  0  0  0  0
    2.2910   -5.6610    0.9880 H   0  0  0  0  0  0  0  0  0  0  0  0
    2.3530   -4.7710   -0.4920 H   0  0  0  0  0  0  0  0  0  0  0  0
    0.4960   -4.4270    1.0660 H   0  0  0  0  0  0  0  0  0  0  0  0
    2.8730   -3.0020    2.4300 H   0  0  0  0  0  0  0  0  0  0  0  0
    1.9390   -4.3630    3.0400 H   0  0  0  0  0  0  0  0  0  0  0  0
    0.5520   -1.9210    5.0990 H   0  0  0  0  0  0  0  0  0  0  0  0
   -0.3100   -0.1510   -3.4330 O   0  0  0  0  0  0  0  0  0  0  0  0
   -0.4410   -1.2520   -2.5840 C   0  0  0  0  0  0  0  0  0  0  0  0
    0.2950   -0.8880   -1.3050 C   0  0  2  0  0  0  0  0  0  0  0  0
    0.2550   -1.9270   -0.3220 N   0  0  0  0  0  0  0  0  0  0  0  0
   -0.2140    0.4230   -0.8910 C   0  0  0  0  0  0  0  0  0  0  0  0
   -0.2070    1.3140   -1.8120 O   0  0  0  0  0  0  0  0  0  0  0  0
    0.1360   -0.3640   -4.2920 H   0  0  0  0  0  0  0  0  0  0  0  0
   -1.5120   -1.4090   -2.4340 H   0  0  0  0  0  0  0  0  0  0  0  0
    0.0340   -2.1090   -3.1210 H   0  0  0  0  0  0  0  0  0  0  0  0
    1.3470   -0.7550   -1.6300 H   0  0  0  0  0  0  0  0  0  0  0  0
   -0.6520   -2.1310    0.1420 H   0  0  0  0  0  0  0  0  0  0  0  0
    1.8170    0.8780    3.5540 N   0  0  0  0  0  0  0  0  0  0  0  0
    1.3940    1.5560    2.3620 C   0  0  0  0  0  0  0  0  0  0  0  0
    1.8370    1.1250    1.2890 O   0  0  0  0  0  0  0  0  0  0  0  0
    0.4880    2.7030    2.4290 C   0  0  0  0  0  0  0  0  0  0  0  0
   -0.2600    3.0600    1.2080 C   0  0  0  0  0  0  0  0  0  0  0  0
   -1.2120    2.0400    0.7510 C   0  0  2  0  0  0  0  0  0  0  0  0
   -0.6920    0.7800    0.3740 N   0  0  0  0  0  0  0  0  0  0  0  0
   -2.1820    2.5410   -0.2970 C   0  0  0  0  0  0  0  0  0  0  0  0
   -2.6070    3.7060   -0.2240 O   0  0  0  0  0  0  0  0  0  0  0  0
   -2.5680    1.6900   -1.2960 O   0  0  0  0  0  0  0  0  0  0  0  0
    2.8110    0.6320    3.7050 H   0  0  0  0  0  0  0  0  0  0  0  0
    1.1180    0.6290    4.2780 H   0  0  0  0  0  0  0  0  0  0  0  0
   -0.2470    2.4730    3.2760 H   0  0  0  0  0  0  0  0  0  0  0  0
    1.0590    3.5920    2.8420 H   0  0  0  0  0  0  0  0  0  0  0  0
   -0.7790    4.0630    1.3270 H   0  0  0  0  0  0  0  0  0  0  0  0
    0.4730    3.2900    0.3680 H   0  0  0  0  0  0  0  0  0  0  0  0
   -1.9820    1.8730    1.6200 H   0  0  0  0  0  0  0  0  0  0  0  0
   -0.6570    0.0190    1.1130 H   0  0  0  0  0  0  0  0  0  0  0  0
  1  9  1  0  0  0  0
  1  2  1  0  0  0  0
  2 11  1  1  0  0  0
  2  3  1  0  0  0  0
  3 12  1  0  0  0  0
  3 13  1  0  0  0  0
  3  4  1  0  0  0  0
  4  8  1  0  0  0  0
  5  4  2  0  0  0  0
  6  2  1  0  0  0  0
  7  6  2  0  0  0  0
  8 14  1  0  0  0  0
 10  1  1  0  0  0  0
 15 16  1  0  0  0  0
 16 22  1  0  0  0  0
 16 17  1  0  0  0  0
 17 24  1  6  0  0  0
 17 19  1  0  0  0  0
 17 18  1  0  0  0  0
 18  6  1  0  0  0  0
 18 25  1  0  0  0  0
 19 32  1  0  0  0  0
 20 19  2  0  0  0  0
 21 15  1  0  0  0  0
 23 16  1  0  0  0  0
 26 36  1  0  0  0  0
 26 37  1  0  0  0  0
 27 29  1  0  0  0  0
 27 26  1  0  0  0  0
 28 27  2  0  0  0  0
 29 39  1  0  0  0  0
 29 38  1  0  0  0  0
 30 40  1  0  0  0  0
 30 29  1  0  0  0  0
 31 30  1  0  0  0  0
 31 42  1  1  0  0  0
 32 31  1  0  0  0  0
 32 43  1  0  0  0  0
 33 34  1  0  0  0  0
 33 31  1  0  0  0  0
 35 33  2  0  0  0  0
 41 30  1  0  0  0  0
M  END
$$$$
