DSR.pdb
 OpenBabel07022418153D

 49 48  0  0  1  0  0  0  0  0999 V2000
    3.7520   -2.9690    2.9170 N   0  0  0  0  0  0  0  0  0  0  0  0
    2.5060   -3.0680    2.2040 C   0  0  1  0  0  0  0  0  0  0  0  0
    1.3510   -2.4660    2.9940 C   0  0  0  0  0  0  0  0  0  0  0  0
    1.1390   -3.1140    4.3070 C   0  0  0  0  0  0  0  0  0  0  0  0
    2.0580   -3.3290    5.1240 O   0  0  0  0  0  0  0  0  0  0  0  0
    2.5640   -2.2490    0.9330 C   0  0  0  0  0  0  0  0  0  0  0  0
    3.5900   -1.5420    0.7530 O   0  0  0  0  0  0  0  0  0  0  0  0
   -0.1590   -3.5110    4.6450 O   0  0  0  0  0  0  0  0  0  0  0  0
    3.9580   -2.0350    3.2790 H   0  0  0  0  0  0  0  0  0  0  0  0
    3.8170   -3.6890    3.6710 H   0  0  0  0  0  0  0  0  0  0  0  0
    2.3000   -4.1100    1.9230 H   0  0  0  0  0  0  0  0  0  0  0  0
    1.5630   -1.3730    3.2060 H   0  0  0  0  0  0  0  0  0  0  0  0
    0.4200   -2.4740    2.3870 H   0  0  0  0  0  0  0  0  0  0  0  0
   -0.4630   -3.7690    5.5600 H   0  0  0  0  0  0  0  0  0  0  0  0
    2.2400   -1.5230   -3.4330 O   0  0  0  0  0  0  0  0  0  0  0  0
    2.1340   -2.3820   -2.3410 C   0  0  0  0  0  0  0  0  0  0  0  0
    1.6300   -1.4830   -1.1800 C   0  0  2  0  0  0  0  0  0  0  0  0
    1.4940   -2.2940   -0.0050 N   0  0  0  0  0  0  0  0  0  0  0  0
    0.4260   -0.8000   -1.6450 C   0  0  0  0  0  0  0  0  0  0  0  0
    0.5210   -0.0140   -2.6160 O   0  0  0  0  0  0  0  0  0  0  0  0
    1.4290   -1.6600   -4.0280 H   0  0  0  0  0  0  0  0  0  0  0  0
    3.1440   -2.7660   -2.1060 H   0  0  0  0  0  0  0  0  0  0  0  0
    1.3920   -3.1790   -2.5070 H   0  0  0  0  0  0  0  0  0  0  0  0
    2.4480   -0.7440   -1.0710 H   0  0  0  0  0  0  0  0  0  0  0  0
    0.7050   -2.9150    0.2400 H   0  0  0  0  0  0  0  0  0  0  0  0
   -0.9710    3.5850    4.0190 N   0  0  0  0  0  0  0  0  0  0  0  0
   -1.2030    3.1060    2.7000 C   0  0  0  0  0  0  0  0  0  0  0  0
   -1.5400    3.9750    1.8070 N   0  0  0  0  0  0  0  0  0  0  0  0
   -1.0730    1.7290    2.3740 N   0  0  0  0  0  0  0  0  0  0  0  0
   -0.9980    1.2760    1.0040 C   0  0  0  0  0  0  0  0  0  0  0  0
   -2.2890    1.4670    0.2730 C   0  0  0  0  0  0  0  0  0  0  0  0
   -2.2910    1.0170   -1.1480 C   0  0  0  0  0  0  0  0  0  0  0  0
   -2.0630   -0.4010   -1.4330 C   0  0  2  0  0  0  0  0  0  0  0  0
   -0.8260   -1.0070   -1.0320 N   0  0  0  0  0  0  0  0  0  0  0  0
   -2.2050   -0.6010   -2.9350 C   0  0  0  0  0  0  0  0  0  0  0  0
   -3.2010   -0.0690   -3.5130 O   0  0  0  0  0  0  0  0  0  0  0  0
   -1.3390   -1.3140   -3.7090 O   0  0  0  0  0  0  0  0  0  0  0  0
   -1.4760    4.4440    4.3390 H   0  0  0  0  0  0  0  0  0  0  0  0
   -0.3220    3.1130    4.6820 H   0  0  0  0  0  0  0  0  0  0  0  0
   -1.6460    4.9860    2.0090 H   0  0  0  0  0  0  0  0  0  0  0  0
   -1.0350    1.0460    3.1490 H   0  0  0  0  0  0  0  0  0  0  0  0
   -0.1660    1.8620    0.5430 H   0  0  0  0  0  0  0  0  0  0  0  0
   -0.6820    0.2300    1.0220 H   0  0  0  0  0  0  0  0  0  0  0  0
   -2.6670    2.5180    0.3380 H   0  0  0  0  0  0  0  0  0  0  0  0
   -3.1000    0.8780    0.7980 H   0  0  0  0  0  0  0  0  0  0  0  0
   -1.5810    1.6300   -1.7720 H   0  0  0  0  0  0  0  0  0  0  0  0
   -3.3240    1.2750   -1.5610 H   0  0  0  0  0  0  0  0  0  0  0  0
   -2.9120   -1.0760   -1.0660 H   0  0  0  0  0  0  0  0  0  0  0  0
   -0.8360   -1.6900   -0.2090 H   0  0  0  0  0  0  0  0  0  0  0  0
  1  9  1  0  0  0  0
  1 10  1  0  0  0  0
  2 11  1  6  0  0  0
  2  1  1  0  0  0  0
  2  3  1  0  0  0  0
  3 12  1  0  0  0  0
  3  4  1  0  0  0  0
  4  8  1  0  0  0  0
  4  5  2  0  0  0  0
  6  2  1  0  0  0  0
  7  6  2  0  0  0  0
  8 14  1  0  0  0  0
 13  3  1  0  0  0  0
 15 16  1  0  0  0  0
 16 22  1  0  0  0  0
 16 17  1  0  0  0  0
 17 24  1  1  0  0  0
 17 18  1  0  0  0  0
 18 25  1  0  0  0  0
 18  6  1  0  0  0  0
 19 17  1  0  0  0  0
 19 34  1  0  0  0  0
 20 19  2  0  0  0  0
 21 15  1  0  0  0  0
 23 16  1  0  0  0  0
 26 38  1  0  0  0  0
 26 39  1  0  0  0  0
 27 26  1  0  0  0  0
 28 40  1  0  0  0  0
 28 27  2  0  0  0  0
 29 27  1  0  0  0  0
 29 41  1  0  0  0  0
 30 43  1  0  0  0  0
 30 29  1  0  0  0  0
 31 44  1  0  0  0  0
 31 45  1  0  0  0  0
 31 30  1  0  0  0  0
 32 31  1  0  0  0  0
 33 32  1  0  0  0  0
 33 48  1  1  0  0  0
 33 34  1  0  0  0  0
 34 49  1  0  0  0  0
 35 33  1  0  0  0  0
 36 35  1  0  0  0  0
 37 35  2  0  0  0  0
 42 30  1  0  0  0  0
 46 32  1  0  0  0  0
 47 32  1  0  0  0  0
M  END
$$$$
