DST.pdb
 OpenBabel07022418163D

 40 39  0  0  1  0  0  0  0  0999 V2000
    0.2040   -4.2470   -1.8810 N   0  0  0  0  0  0  0  0  0  0  0  0
   -0.3040   -2.9250   -1.5880 C   0  0  1  0  0  0  0  0  0  0  0  0
   -1.1900   -3.0250   -0.3490 C   0  0  0  0  0  0  0  0  0  0  0  0
   -0.4150   -3.5290    0.8030 C   0  0  0  0  0  0  0  0  0  0  0  0
    0.7990   -3.8070    0.6620 O   0  0  0  0  0  0  0  0  0  0  0  0
    0.8370   -2.0470   -1.2600 C   0  0  0  0  0  0  0  0  0  0  0  0
    1.9920   -2.5280   -1.2970 O   0  0  0  0  0  0  0  0  0  0  0  0
   -0.9860   -3.7080    2.0520 O   0  0  0  0  0  0  0  0  0  0  0  0
   -0.4120   -4.6680   -2.6380 H   0  0  0  0  0  0  0  0  0  0  0  0
    1.1410   -4.0930   -2.3570 H   0  0  0  0  0  0  0  0  0  0  0  0
   -0.9200   -2.5250   -2.4230 H   0  0  0  0  0  0  0  0  0  0  0  0
   -1.6060   -2.0230   -0.1160 H   0  0  0  0  0  0  0  0  0  0  0  0
   -2.0360   -3.7280   -0.5070 H   0  0  0  0  0  0  0  0  0  0  0  0
   -0.5220   -4.1020    2.8440 H   0  0  0  0  0  0  0  0  0  0  0  0
    3.0630    2.0510   -1.2760 O   0  0  0  0  0  0  0  0  0  0  0  0
    1.9550    1.2630   -1.6040 C   0  0  0  0  0  0  0  0  0  0  0  0
    1.8390    0.1450   -0.5900 C   0  0  2  0  0  0  0  0  0  0  0  0
    0.7120   -0.6790   -0.9020 N   0  0  0  0  0  0  0  0  0  0  0  0
    1.7470    0.6610    0.7920 C   0  0  0  0  0  0  0  0  0  0  0  0
    2.6240    1.4070    1.2890 O   0  0  0  0  0  0  0  0  0  0  0  0
    3.9110    1.5730   -1.4830 H   0  0  0  0  0  0  0  0  0  0  0  0
    2.1080    0.8190   -2.5920 H   0  0  0  0  0  0  0  0  0  0  0  0
    1.0840    1.9350   -1.6110 H   0  0  0  0  0  0  0  0  0  0  0  0
    2.7570   -0.4610   -0.6790 H   0  0  0  0  0  0  0  0  0  0  0  0
   -0.2640   -0.2710   -0.8700 H   0  0  0  0  0  0  0  0  0  0  0  0
   -0.7440    2.9460    2.6240 C   0  0  0  0  0  0  0  0  0  0  0  0
   -0.7670    1.5610    3.2280 C   0  0  1  0  0  0  0  0  0  0  0  0
   -1.9500    0.8840    2.9330 O   0  0  0  0  0  0  0  0  0  0  0  0
    0.4560    0.7640    2.9580 C   0  0  2  0  0  0  0  0  0  0  0  0
    0.6530    0.3280    1.6140 N   0  0  0  0  0  0  0  0  0  0  0  0
    0.4990   -0.3680    3.9200 C   0  0  0  0  0  0  0  0  0  0  0  0
    0.6950   -1.5180    3.4610 O   0  0  0  0  0  0  0  0  0  0  0  0
    0.3330   -0.1900    5.2700 O   0  0  0  0  0  0  0  0  0  0  0  0
   -1.3150    2.8800    1.6580 H   0  0  0  0  0  0  0  0  0  0  0  0
   -1.2890    3.6930    3.2390 H   0  0  0  0  0  0  0  0  0  0  0  0
    0.2570    3.3310    2.4480 H   0  0  0  0  0  0  0  0  0  0  0  0
   -0.8020    1.7200    4.3300 H   0  0  0  0  0  0  0  0  0  0  0  0
   -2.3690    1.1990    2.0860 H   0  0  0  0  0  0  0  0  0  0  0  0
    1.3330    1.4130    3.2170 H   0  0  0  0  0  0  0  0  0  0  0  0
   -0.0940   -0.2940    1.2230 H   0  0  0  0  0  0  0  0  0  0  0  0
  1  2  1  0  0  0  0
  2 11  1  6  0  0  0
  2  6  1  0  0  0  0
  2  3  1  0  0  0  0
  3 12  1  0  0  0  0
  3  4  1  0  0  0  0
  4  8  1  0  0  0  0
  5  4  2  0  0  0  0
  6 18  1  0  0  0  0
  7  6  2  0  0  0  0
  8 14  1  0  0  0  0
  9  1  1  0  0  0  0
 10  1  1  0  0  0  0
 13  3  1  0  0  0  0
 16 15  1  0  0  0  0
 16 17  1  0  0  0  0
 17 24  1  6  0  0  0
 17 19  1  0  0  0  0
 18 25  1  0  0  0  0
 18 17  1  0  0  0  0
 19 20  2  0  0  0  0
 19 30  1  0  0  0  0
 21 15  1  0  0  0  0
 22 16  1  0  0  0  0
 23 16  1  0  0  0  0
 26 27  1  0  0  0  0
 26 35  1  0  0  0  0
 27 37  1  1  0  0  0
 28 27  1  0  0  0  0
 29 39  1  1  0  0  0
 29 27  1  0  0  0  0
 29 31  1  0  0  0  0
 30 29  1  0  0  0  0
 31 33  1  0  0  0  0
 32 31  2  0  0  0  0
 34 26  1  0  0  0  0
 36 26  1  0  0  0  0
 38 28  1  0  0  0  0
 40 30  1  0  0  0  0
M  END
$$$$
