DSW.pdb
 OpenBabel07022418163D

 50 51  0  0  1  0  0  0  0  0999 V2000
    3.3510   -1.8990    1.5160 N   0  0  0  0  0  0  0  0  0  0  0  0
    3.5010   -0.7300    2.3040 C   0  0  1  0  0  0  0  0  0  0  0  0
    4.8260   -0.0500    2.1420 C   0  0  0  0  0  0  0  0  0  0  0  0
    5.0670    0.3810    0.7370 C   0  0  0  0  0  0  0  0  0  0  0  0
    4.2270    0.1780   -0.1720 O   0  0  0  0  0  0  0  0  0  0  0  0
    2.4310    0.2730    2.1230 C   0  0  0  0  0  0  0  0  0  0  0  0
    2.5190    1.3310    2.7980 O   0  0  0  0  0  0  0  0  0  0  0  0
    6.2340    1.0250    0.3790 O   0  0  0  0  0  0  0  0  0  0  0  0
    2.8330   -2.6770    1.9780 H   0  0  0  0  0  0  0  0  0  0  0  0
    3.1300   -1.7600    0.5260 H   0  0  0  0  0  0  0  0  0  0  0  0
    3.4460   -1.0470    3.3870 H   0  0  0  0  0  0  0  0  0  0  0  0
    4.9350    0.8350    2.7850 H   0  0  0  0  0  0  0  0  0  0  0  0
    5.6400   -0.7670    2.4250 H   0  0  0  0  0  0  0  0  0  0  0  0
    6.2120    1.6570   -0.4060 H   0  0  0  0  0  0  0  0  0  0  0  0
    1.4670    2.1440   -0.6760 O   0  0  0  0  0  0  0  0  0  0  0  0
    0.2170    1.6800   -0.2670 C   0  0  0  0  0  0  0  0  0  0  0  0
    0.3550    1.1960    1.1810 C   0  0  2  0  0  0  0  0  0  0  0  0
    1.3320    0.1310    1.2590 N   0  0  0  0  0  0  0  0  0  0  0  0
   -0.9570    0.6740    1.5800 C   0  0  0  0  0  0  0  0  0  0  0  0
   -1.9800    1.4030    1.5940 O   0  0  0  0  0  0  0  0  0  0  0  0
    2.0490    2.3280    0.1030 H   0  0  0  0  0  0  0  0  0  0  0  0
   -0.5480    2.4590   -0.2920 H   0  0  0  0  0  0  0  0  0  0  0  0
   -0.0590    0.8050   -0.8760 H   0  0  0  0  0  0  0  0  0  0  0  0
    0.6380    2.0390    1.8470 H   0  0  0  0  0  0  0  0  0  0  0  0
    1.2370   -0.7210    0.6990 H   0  0  0  0  0  0  0  0  0  0  0  0
   -1.1150   -0.6700    1.9640 N   0  0  0  0  0  0  0  0  0  0  0  0
   -2.3400   -1.2350    2.3580 C   0  0  1  0  0  0  0  0  0  0  0  0
   -2.9320   -2.3160    1.5160 C   0  0  0  0  0  0  0  0  0  0  0  0
   -3.2250   -1.9100    0.1170 C   0  0  0  0  0  0  0  0  0  0  0  0
   -4.4590   -1.5510   -0.3860 C   0  0  0  0  0  0  0  0  0  0  0  0
   -4.3330   -1.2300   -1.6810 N   0  0  0  0  0  0  0  0  0  0  0  0
   -3.0170   -1.3800   -2.0210 C   0  0  0  0  0  0  0  0  0  0  0  0
   -2.3830   -1.1780   -3.2310 C   0  0  0  0  0  0  0  0  0  0  0  0
   -1.0290   -1.4000   -3.3430 C   0  0  0  0  0  0  0  0  0  0  0  0
   -0.3480   -1.8210   -2.2310 C   0  0  0  0  0  0  0  0  0  0  0  0
   -0.9720   -2.0210   -1.0380 C   0  0  0  0  0  0  0  0  0  0  0  0
   -2.3310   -1.8010   -0.9100 C   0  0  0  0  0  0  0  0  0  0  0  0
   -2.3270   -1.7290    3.7670 C   0  0  0  0  0  0  0  0  0  0  0  0
   -3.3240   -2.2660    4.3070 O   0  0  0  0  0  0  0  0  0  0  0  0
   -1.1740   -1.5920    4.5100 O   0  0  0  0  0  0  0  0  0  0  0  0
   -0.2560   -1.2790    1.9590 H   0  0  0  0  0  0  0  0  0  0  0  0
   -3.1100   -0.4020    2.3560 H   0  0  0  0  0  0  0  0  0  0  0  0
   -3.9150   -2.5740    1.9770 H   0  0  0  0  0  0  0  0  0  0  0  0
   -2.3560   -3.2680    1.5550 H   0  0  0  0  0  0  0  0  0  0  0  0
   -5.3960   -1.5230    0.1510 H   0  0  0  0  0  0  0  0  0  0  0  0
   -5.0610   -0.9210   -2.3390 H   0  0  0  0  0  0  0  0  0  0  0  0
   -2.9590   -0.8460   -4.0770 H   0  0  0  0  0  0  0  0  0  0  0  0
   -0.5220   -1.2390   -4.3080 H   0  0  0  0  0  0  0  0  0  0  0  0
    0.7160   -2.0010   -2.3030 H   0  0  0  0  0  0  0  0  0  0  0  0
   -0.4460   -2.3640   -0.1390 H   0  0  0  0  0  0  0  0  0  0  0  0
  1  9  1  0  0  0  0
  1  2  1  0  0  0  0
  2 11  1  1  0  0  0
  3  2  1  0  0  0  0
  3 13  1  0  0  0  0
  3 12  1  0  0  0  0
  4  3  1  0  0  0  0
  5  4  2  0  0  0  0
  6  2  1  0  0  0  0
  6  7  2  0  0  0  0
  8  4  1  0  0  0  0
 10  1  1  0  0  0  0
 14  8  1  0  0  0  0
 15 16  1  0  0  0  0
 15 21  1  0  0  0  0
 16 17  1  0  0  0  0
 17 18  1  0  0  0  0
 17 19  1  0  0  0  0
 17 24  1  1  0  0  0
 18  6  1  0  0  0  0
 19 20  2  0  0  0  0
 19 26  1  0  0  0  0
 22 16  1  0  0  0  0
 23 16  1  0  0  0  0
 25 18  1  0  0  0  0
 26 27  1  0  0  0  0
 27 42  1  6  0  0  0
 27 38  1  0  0  0  0
 28 44  1  0  0  0  0
 28 43  1  0  0  0  0
 28 27  1  0  0  0  0
 29 28  1  0  0  0  0
 30 29  2  0  0  0  0
 30 45  1  0  0  0  0
 31 30  1  0  0  0  0
 32 31  1  0  0  0  0
 32 37  1  0  0  0  0
 33 32  2  0  0  0  0
 34 33  1  0  0  0  0
 34 35  2  0  0  0  0
 35 36  1  0  0  0  0
 36 37  2  0  0  0  0
 36 50  1  0  0  0  0
 37 29  1  0  0  0  0
 38 39  2  0  0  0  0
 38 40  1  0  0  0  0
 41 26  1  0  0  0  0
 46 31  1  0  0  0  0
 47 33  1  0  0  0  0
 48 34  1  0  0  0  0
 49 35  1  0  0  0  0
M  END
$$$$
