DSY.pdb
 OpenBabel07022418163D

 47 47  0  0  1  0  0  0  0  0999 V2000
    4.1170    1.1400    3.4060 N   0  0  0  0  0  0  0  0  0  0  0  0
    2.9200    0.5610    2.7430 C   0  0  1  0  0  0  0  0  0  0  0  0
    1.7780    1.3800    3.3050 C   0  0  0  0  0  0  0  0  0  0  0  0
    0.4560    1.0240    2.8010 C   0  0  0  0  0  0  0  0  0  0  0  0
    0.0010    1.6580    1.8210 O   0  0  0  0  0  0  0  0  0  0  0  0
    3.0560    0.6000    1.2950 C   0  0  0  0  0  0  0  0  0  0  0  0
    3.8730    1.3250    0.6660 O   0  0  0  0  0  0  0  0  0  0  0  0
   -0.3050    0.0210    3.3620 O   0  0  0  0  0  0  0  0  0  0  0  0
    3.9000    1.0270    4.4420 H   0  0  0  0  0  0  0  0  0  0  0  0
    4.9330    0.4910    3.2500 H   0  0  0  0  0  0  0  0  0  0  0  0
    2.8380   -0.4630    3.1520 H   0  0  0  0  0  0  0  0  0  0  0  0
    2.0080    2.4610    3.1720 H   0  0  0  0  0  0  0  0  0  0  0  0
    1.7750    1.1550    4.4130 H   0  0  0  0  0  0  0  0  0  0  0  0
   -1.3190    0.0880    3.2160 H   0  0  0  0  0  0  0  0  0  0  0  0
    2.5300   -2.6270   -1.1610 O   0  0  0  0  0  0  0  0  0  0  0  0
    3.1130   -1.4250   -1.4840 C   0  0  0  0  0  0  0  0  0  0  0  0
    2.3380   -0.2270   -0.9520 C   0  0  2  0  0  0  0  0  0  0  0  0
    2.2210   -0.2400    0.4650 N   0  0  0  0  0  0  0  0  0  0  0  0
    1.0230   -0.2340   -1.6020 C   0  0  0  0  0  0  0  0  0  0  0  0
    0.9660   -0.1630   -2.8770 O   0  0  0  0  0  0  0  0  0  0  0  0
    3.2360   -3.3310   -1.2720 H   0  0  0  0  0  0  0  0  0  0  0  0
    4.1850   -1.3480   -1.1810 H   0  0  0  0  0  0  0  0  0  0  0  0
    3.1000   -1.3240   -2.5890 H   0  0  0  0  0  0  0  0  0  0  0  0
    2.9600    0.6470   -1.2390 H   0  0  0  0  0  0  0  0  0  0  0  0
    1.5190   -0.8750    0.9010 H   0  0  0  0  0  0  0  0  0  0  0  0
   -3.2480   -2.4240    4.0070 O   0  0  0  0  0  0  0  0  0  0  0  0
   -2.9670   -2.2360    2.6570 C   0  0  0  0  0  0  0  0  0  0  0  0
   -1.7770   -2.6700    2.1300 C   0  0  0  0  0  0  0  0  0  0  0  0
   -1.5250   -2.4680    0.7740 C   0  0  0  0  0  0  0  0  0  0  0  0
   -2.4450   -1.8460   -0.0300 C   0  0  0  0  0  0  0  0  0  0  0  0
   -2.1660   -1.6380   -1.4590 C   0  0  0  0  0  0  0  0  0  0  0  0
   -1.4810   -0.3160   -1.6930 C   0  0  2  0  0  0  0  0  0  0  0  0
   -0.2300   -0.3150   -0.9550 N   0  0  0  0  0  0  0  0  0  0  0  0
   -2.3490    0.8310   -1.3520 C   0  0  0  0  0  0  0  0  0  0  0  0
   -2.0090    1.6870   -0.5240 O   0  0  0  0  0  0  0  0  0  0  0  0
   -3.6270   -1.4220    0.5230 C   0  0  0  0  0  0  0  0  0  0  0  0
   -3.9090   -1.6100    1.8790 C   0  0  0  0  0  0  0  0  0  0  0  0
   -3.5940    0.9850   -1.9620 O   0  0  0  0  0  0  0  0  0  0  0  0
   -3.9980   -1.9240    4.4610 H   0  0  0  0  0  0  0  0  0  0  0  0
   -1.0620   -3.1580    2.7710 H   0  0  0  0  0  0  0  0  0  0  0  0
   -0.5730   -2.8300    0.4110 H   0  0  0  0  0  0  0  0  0  0  0  0
   -3.1200   -1.6530   -2.0330 H   0  0  0  0  0  0  0  0  0  0  0  0
   -1.5350   -2.4330   -1.9070 H   0  0  0  0  0  0  0  0  0  0  0  0
   -1.2320   -0.2640   -2.7820 H   0  0  0  0  0  0  0  0  0  0  0  0
   -0.2480   -0.3820    0.0810 H   0  0  0  0  0  0  0  0  0  0  0  0
   -4.3990   -0.9250   -0.0470 H   0  0  0  0  0  0  0  0  0  0  0  0
   -4.8280   -1.2850    2.3290 H   0  0  0  0  0  0  0  0  0  0  0  0
  1  9  1  0  0  0  0
  2 11  1  1  0  0  0
  2  3  1  0  0  0  0
  2  1  1  0  0  0  0
  3 13  1  0  0  0  0
  4  3  1  0  0  0  0
  4  8  1  0  0  0  0
  5  4  2  0  0  0  0
  6  2  1  0  0  0  0
  7  6  2  0  0  0  0
 10  1  1  0  0  0  0
 12  3  1  0  0  0  0
 14  8  1  0  0  0  0
 16 22  1  0  0  0  0
 16 15  1  0  0  0  0
 16 17  1  0  0  0  0
 17 24  1  6  0  0  0
 17 18  1  0  0  0  0
 18 25  1  0  0  0  0
 18  6  1  0  0  0  0
 19 33  1  0  0  0  0
 19 17  1  0  0  0  0
 20 19  2  0  0  0  0
 21 15  1  0  0  0  0
 23 16  1  0  0  0  0
 26 39  1  0  0  0  0
 27 26  1  0  0  0  0
 28 27  1  0  0  0  0
 28 40  1  0  0  0  0
 29 28  2  0  0  0  0
 30 36  2  0  0  0  0
 30 29  1  0  0  0  0
 31 30  1  0  0  0  0
 32 44  1  6  0  0  0
 32 31  1  0  0  0  0
 32 34  1  0  0  0  0
 32 33  1  0  0  0  0
 33 45  1  0  0  0  0
 34 35  1  0  0  0  0
 36 37  1  0  0  0  0
 37 47  1  0  0  0  0
 37 27  2  0  0  0  0
 38 34  2  0  0  0  0
 41 29  1  0  0  0  0
 42 31  1  0  0  0  0
 43 31  1  0  0  0  0
 46 36  1  0  0  0  0
M  END
$$$$
