DTA.pdb
 OpenBabel07022418163D

 39 38  0  0  1  0  0  0  0  0999 V2000
   -1.9190   -1.5740    2.4670 N   0  0  0  0  0  0  0  0  0  0  0  0
   -1.0980   -2.6680    2.0510 C   0  0  1  0  0  0  0  0  0  0  0  0
   -1.9080   -3.8760    1.6740 C   0  0  0  0  0  0  0  0  0  0  0  0
   -2.8430   -3.6010    0.5530 C   0  0  0  0  0  0  0  0  0  0  0  0
   -2.9040   -2.4670    0.0180 O   0  0  0  0  0  0  0  0  0  0  0  0
   -0.1250   -2.3190    0.9980 C   0  0  0  0  0  0  0  0  0  0  0  0
    0.6270   -3.2510    0.5870 O   0  0  0  0  0  0  0  0  0  0  0  0
   -3.6650   -4.6140    0.0870 O   0  0  0  0  0  0  0  0  0  0  0  0
   -2.7730   -1.9880    2.9410 H   0  0  0  0  0  0  0  0  0  0  0  0
   -2.2830   -0.9760    1.7020 H   0  0  0  0  0  0  0  0  0  0  0  0
   -0.4900   -2.9700    2.9450 H   0  0  0  0  0  0  0  0  0  0  0  0
   -2.5140   -4.1830    2.5620 H   0  0  0  0  0  0  0  0  0  0  0  0
   -1.2180   -4.6850    1.3750 H   0  0  0  0  0  0  0  0  0  0  0  0
   -4.3990   -4.4470   -0.5920 H   0  0  0  0  0  0  0  0  0  0  0  0
   -0.5200    0.9710   -1.7490 C   0  0  0  0  0  0  0  0  0  0  0  0
    0.3410   -0.2370   -1.8860 C   0  0  1  0  0  0  0  0  0  0  0  0
    1.4050    0.0570   -2.7670 O   0  0  0  0  0  0  0  0  0  0  0  0
    0.9650   -0.6870   -0.5960 C   0  0  2  0  0  0  0  0  0  0  0  0
    0.0250   -1.0290    0.4220 N   0  0  0  0  0  0  0  0  0  0  0  0
    1.8540    0.3810   -0.1090 C   0  0  0  0  0  0  0  0  0  0  0  0
    2.7640    0.8290   -0.8690 O   0  0  0  0  0  0  0  0  0  0  0  0
   -0.7400    1.2350   -0.7040 H   0  0  0  0  0  0  0  0  0  0  0  0
   -0.0230    1.8650   -2.2180 H   0  0  0  0  0  0  0  0  0  0  0  0
   -1.4690    0.8420   -2.3490 H   0  0  0  0  0  0  0  0  0  0  0  0
   -0.2280   -1.0590   -2.3410 H   0  0  0  0  0  0  0  0  0  0  0  0
    1.1490    0.8100   -3.3490 H   0  0  0  0  0  0  0  0  0  0  0  0
    1.5420   -1.6260   -0.8370 H   0  0  0  0  0  0  0  0  0  0  0  0
   -0.6060   -0.2810    0.7800 H   0  0  0  0  0  0  0  0  0  0  0  0
    1.9840    3.2720    1.9740 C   0  0  0  0  0  0  0  0  0  0  0  0
    2.6680    2.0000    1.5920 C   0  0  2  0  0  0  0  0  0  0  0  0
    1.7620    0.9550    1.1780 N   0  0  0  0  0  0  0  0  0  0  0  0
    3.5110    1.4580    2.6980 C   0  0  0  0  0  0  0  0  0  0  0  0
    4.3740    2.2230    3.2020 O   0  0  0  0  0  0  0  0  0  0  0  0
    3.3650    0.1530    3.1720 O   0  0  0  0  0  0  0  0  0  0  0  0
    2.3910    3.5750    2.9770 H   0  0  0  0  0  0  0  0  0  0  0  0
    2.2330    4.0940    1.2870 H   0  0  0  0  0  0  0  0  0  0  0  0
    0.8910    3.1270    2.1000 H   0  0  0  0  0  0  0  0  0  0  0  0
    3.3770    2.2250    0.7580 H   0  0  0  0  0  0  0  0  0  0  0  0
    1.0370    0.6300    1.8450 H   0  0  0  0  0  0  0  0  0  0  0  0
  1  9  1  0  0  0  0
  2  1  1  0  0  0  0
  2 11  1  1  0  0  0
  3  2  1  0  0  0  0
  3 12  1  0  0  0  0
  4  3  1  0  0  0  0
  5  4  2  0  0  0  0
  6  2  1  0  0  0  0
  7  6  2  0  0  0  0
  8  4  1  0  0  0  0
 10  1  1  0  0  0  0
 13  3  1  0  0  0  0
 14  8  1  0  0  0  0
 15 22  1  0  0  0  0
 16 25  1  6  0  0  0
 16 15  1  0  0  0  0
 16 18  1  0  0  0  0
 17 16  1  0  0  0  0
 18 27  1  6  0  0  0
 18 20  1  0  0  0  0
 18 19  1  0  0  0  0
 19 28  1  0  0  0  0
 19  6  1  0  0  0  0
 20 31  1  0  0  0  0
 21 20  2  0  0  0  0
 23 15  1  0  0  0  0
 24 15  1  0  0  0  0
 26 17  1  0  0  0  0
 29 37  1  0  0  0  0
 29 35  1  0  0  0  0
 30 38  1  6  0  0  0
 30 29  1  0  0  0  0
 30 32  1  0  0  0  0
 31 30  1  0  0  0  0
 31 39  1  0  0  0  0
 32 34  2  0  0  0  0
 32 33  1  0  0  0  0
 36 29  1  0  0  0  0
M  END
$$$$
