DTD.pdb
 OpenBabel07022418163D

 42 41  0  0  1  0  0  0  0  0999 V2000
    4.6870   -1.5090    2.0680 N   0  0  0  0  0  0  0  0  0  0  0  0
    3.3720   -1.9670    1.6390 C   0  0  1  0  0  0  0  0  0  0  0  0
    2.5050   -2.0540    2.8720 C   0  0  0  0  0  0  0  0  0  0  0  0
    2.3760   -0.7360    3.5460 C   0  0  0  0  0  0  0  0  0  0  0  0
    2.9320    0.3010    3.1060 O   0  0  0  0  0  0  0  0  0  0  0  0
    2.8460   -1.0710    0.6150 C   0  0  0  0  0  0  0  0  0  0  0  0
    3.5130   -0.0720    0.2760 O   0  0  0  0  0  0  0  0  0  0  0  0
    1.6160   -0.6580    4.6950 O   0  0  0  0  0  0  0  0  0  0  0  0
    4.8710   -1.7930    3.0730 H   0  0  0  0  0  0  0  0  0  0  0  0
    5.4480   -1.8830    1.4510 H   0  0  0  0  0  0  0  0  0  0  0  0
    3.5010   -2.9690    1.2180 H   0  0  0  0  0  0  0  0  0  0  0  0
    2.9830   -2.7900    3.5550 H   0  0  0  0  0  0  0  0  0  0  0  0
    1.5320   -2.4840    2.5720 H   0  0  0  0  0  0  0  0  0  0  0  0
    1.6380    0.1750    5.2940 H   0  0  0  0  0  0  0  0  0  0  0  0
    0.4100    0.0050   -3.3530 C   0  0  0  0  0  0  0  0  0  0  0  0
    0.8550   -1.0600   -2.3700 C   0  0  1  0  0  0  0  0  0  0  0  0
    2.0810   -1.5280   -2.8400 O   0  0  0  0  0  0  0  0  0  0  0  0
    1.0640   -0.4030   -1.0390 C   0  0  2  0  0  0  0  0  0  0  0  0
    1.6020   -1.2640   -0.0350 N   0  0  0  0  0  0  0  0  0  0  0  0
   -0.1900    0.2360   -0.5450 C   0  0  0  0  0  0  0  0  0  0  0  0
   -0.8300    1.0510   -1.2870 O   0  0  0  0  0  0  0  0  0  0  0  0
   -0.6900    0.0430   -3.4630 H   0  0  0  0  0  0  0  0  0  0  0  0
    0.8620    0.9770   -3.0760 H   0  0  0  0  0  0  0  0  0  0  0  0
    0.8090   -0.2410   -4.3590 H   0  0  0  0  0  0  0  0  0  0  0  0
    0.0640   -1.8310   -2.3690 H   0  0  0  0  0  0  0  0  0  0  0  0
    2.6450   -0.7560   -3.0140 H   0  0  0  0  0  0  0  0  0  0  0  0
    1.7880    0.4270   -1.1990 H   0  0  0  0  0  0  0  0  0  0  0  0
    1.0530   -2.0970    0.2490 H   0  0  0  0  0  0  0  0  0  0  0  0
   -0.7220   -0.0200    0.7370 N   0  0  0  0  0  0  0  0  0  0  0  0
   -1.9790    0.6500    1.1740 C   0  0  1  0  0  0  0  0  0  0  0  0
   -2.9610   -0.4770    1.3560 C   0  0  0  0  0  0  0  0  0  0  0  0
   -4.3120   -0.0770    1.7580 C   0  0  0  0  0  0  0  0  0  0  0  0
   -4.6400    1.1200    1.8470 O   0  0  0  0  0  0  0  0  0  0  0  0
   -1.7130    1.3560    2.4430 C   0  0  0  0  0  0  0  0  0  0  0  0
   -2.5900    2.0290    3.0010 O   0  0  0  0  0  0  0  0  0  0  0  0
   -5.2580   -1.0530    2.0490 O   0  0  0  0  0  0  0  0  0  0  0  0
   -0.4700    1.2730    3.0230 O   0  0  0  0  0  0  0  0  0  0  0  0
   -0.2430   -0.6760    1.3850 H   0  0  0  0  0  0  0  0  0  0  0  0
   -2.3020    1.3050    0.3470 H   0  0  0  0  0  0  0  0  0  0  0  0
   -2.9730   -1.1140    0.4250 H   0  0  0  0  0  0  0  0  0  0  0  0
   -2.5860   -1.1580    2.1700 H   0  0  0  0  0  0  0  0  0  0  0  0
   -6.2510   -0.9050    1.8490 H   0  0  0  0  0  0  0  0  0  0  0  0
  1  9  1  0  0  0  0
  2 11  1  6  0  0  0
  2  1  1  0  0  0  0
  2  3  1  0  0  0  0
  3  4  1  0  0  0  0
  3 12  1  0  0  0  0
  4  8  1  0  0  0  0
  5  4  2  0  0  0  0
  6  2  1  0  0  0  0
  7  6  2  0  0  0  0
  8 14  1  0  0  0  0
 10  1  1  0  0  0  0
 13  3  1  0  0  0  0
 15 23  1  0  0  0  0
 15 16  1  0  0  0  0
 16 25  1  1  0  0  0
 16 18  1  0  0  0  0
 17 16  1  0  0  0  0
 18 27  1  6  0  0  0
 18 20  1  0  0  0  0
 18 19  1  0  0  0  0
 19 28  1  0  0  0  0
 19  6  1  0  0  0  0
 20 29  1  0  0  0  0
 21 20  2  0  0  0  0
 22 15  1  0  0  0  0
 24 15  1  0  0  0  0
 26 17  1  0  0  0  0
 29 30  1  0  0  0  0
 29 38  1  0  0  0  0
 30 39  1  6  0  0  0
 30 31  1  0  0  0  0
 30 34  1  0  0  0  0
 31 32  1  0  0  0  0
 31 41  1  0  0  0  0
 32 33  2  0  0  0  0
 32 36  1  0  0  0  0
 34 35  2  0  0  0  0
 34 37  1  0  0  0  0
 40 31  1  0  0  0  0
 42 36  1  0  0  0  0
M  END
$$$$
