DTF.pdb
 OpenBabel07022418163D

 49 49  0  0  1  0  0  0  0  0999 V2000
    1.4000   -1.0750    4.0000 N   0  0  0  0  0  0  0  0  0  0  0  0
    0.0300   -0.5350    4.0160 C   0  0  1  0  0  0  0  0  0  0  0  0
   -0.1830    0.3090    5.2340 C   0  0  0  0  0  0  0  0  0  0  0  0
   -1.5410    0.8350    5.3070 C   0  0  0  0  0  0  0  0  0  0  0  0
   -1.7730    1.7720    6.1320 O   0  0  0  0  0  0  0  0  0  0  0  0
   -0.1110    0.2080    2.7370 C   0  0  0  0  0  0  0  0  0  0  0  0
   -1.1750    0.7860    2.4720 O   0  0  0  0  0  0  0  0  0  0  0  0
   -2.5810    0.3780    4.5420 O   0  0  0  0  0  0  0  0  0  0  0  0
    2.0880   -0.3040    3.9940 H   0  0  0  0  0  0  0  0  0  0  0  0
    1.4600   -1.7280    4.7980 H   0  0  0  0  0  0  0  0  0  0  0  0
   -0.6560   -1.3980    4.0050 H   0  0  0  0  0  0  0  0  0  0  0  0
   -0.0090   -0.3320    6.1450 H   0  0  0  0  0  0  0  0  0  0  0  0
    0.5860    1.1180    5.1970 H   0  0  0  0  0  0  0  0  0  0  0  0
   -3.5600    0.6050    4.6770 H   0  0  0  0  0  0  0  0  0  0  0  0
    3.1590    1.7460    0.5430 C   0  0  0  0  0  0  0  0  0  0  0  0
    1.7280    2.1620    0.4480 C   0  0  1  0  0  0  0  0  0  0  0  0
    1.5230    2.8740   -0.7570 O   0  0  0  0  0  0  0  0  0  0  0  0
    0.7480    1.0250    0.5610 C   0  0  2  0  0  0  0  0  0  0  0  0
    0.9400    0.2960    1.7730 N   0  0  0  0  0  0  0  0  0  0  0  0
    0.7950    0.1380   -0.6440 C   0  0  0  0  0  0  0  0  0  0  0  0
    0.6210    0.6090   -1.7890 O   0  0  0  0  0  0  0  0  0  0  0  0
    3.3260    0.7060    0.8390 H   0  0  0  0  0  0  0  0  0  0  0  0
    3.6560    1.9040   -0.4590 H   0  0  0  0  0  0  0  0  0  0  0  0
    3.7620    2.3750    1.2520 H   0  0  0  0  0  0  0  0  0  0  0  0
    1.5230    2.8860    1.2630 H   0  0  0  0  0  0  0  0  0  0  0  0
    1.9980    3.7410   -0.7330 H   0  0  0  0  0  0  0  0  0  0  0  0
   -0.2720    1.4830    0.5930 H   0  0  0  0  0  0  0  0  0  0  0  0
    1.8600   -0.1740    1.9460 H   0  0  0  0  0  0  0  0  0  0  0  0
    1.0320   -1.2580   -0.5710 N   0  0  0  0  0  0  0  0  0  0  0  0
    1.0730   -2.1620   -1.6460 C   0  0  1  0  0  0  0  0  0  0  0  0
   -0.0120   -2.0080   -2.6900 C   0  0  0  0  0  0  0  0  0  0  0  0
   -1.3620   -2.2050   -2.1180 C   0  0  0  0  0  0  0  0  0  0  0  0
   -2.1970   -1.2680   -1.6210 C   0  0  0  0  0  0  0  0  0  0  0  0
   -3.4340   -1.5910   -1.0930 C   0  0  0  0  0  0  0  0  0  0  0  0
   -3.8770   -2.8730   -1.0460 C   0  0  0  0  0  0  0  0  0  0  0  0
   -3.0560   -3.8650   -1.5440 C   0  0  0  0  0  0  0  0  0  0  0  0
   -1.8280   -3.5280   -2.0660 C   0  0  0  0  0  0  0  0  0  0  0  0
    2.3590   -2.3160   -2.3240 C   0  0  0  0  0  0  0  0  0  0  0  0
    2.4770   -3.0960   -3.2890 O   0  0  0  0  0  0  0  0  0  0  0  0
    3.4630   -1.6000   -1.9060 O   0  0  0  0  0  0  0  0  0  0  0  0
    1.1950   -1.6280    0.4020 H   0  0  0  0  0  0  0  0  0  0  0  0
    0.8080   -3.1880   -1.2040 H   0  0  0  0  0  0  0  0  0  0  0  0
    0.0860   -1.0870   -3.2910 H   0  0  0  0  0  0  0  0  0  0  0  0
    0.1550   -2.8350   -3.4110 H   0  0  0  0  0  0  0  0  0  0  0  0
   -1.9040   -0.2380   -1.6360 H   0  0  0  0  0  0  0  0  0  0  0  0
   -4.0590   -0.8030   -0.7090 H   0  0  0  0  0  0  0  0  0  0  0  0
   -4.8470   -3.1280   -0.6330 H   0  0  0  0  0  0  0  0  0  0  0  0
   -3.4130   -4.8840   -1.5050 H   0  0  0  0  0  0  0  0  0  0  0  0
   -1.2050   -4.3320   -2.4490 H   0  0  0  0  0  0  0  0  0  0  0  0
  1  2  1  0  0  0  0
  1 10  1  0  0  0  0
  2 11  1  1  0  0  0
  2  3  1  0  0  0  0
  3  4  1  0  0  0  0
  3 12  1  0  0  0  0
  4  5  2  0  0  0  0
  6  2  1  0  0  0  0
  7  6  2  0  0  0  0
  8 14  1  0  0  0  0
  8  4  1  0  0  0  0
  9  1  1  0  0  0  0
 13  3  1  0  0  0  0
 15 22  1  0  0  0  0
 15 24  1  0  0  0  0
 16 15  1  0  0  0  0
 16 18  1  0  0  0  0
 16 25  1  1  0  0  0
 17 26  1  0  0  0  0
 17 16  1  0  0  0  0
 18 27  1  1  0  0  0
 18 19  1  0  0  0  0
 19 28  1  0  0  0  0
 19  6  1  0  0  0  0
 20 29  1  0  0  0  0
 20 18  1  0  0  0  0
 21 20  2  0  0  0  0
 23 15  1  0  0  0  0
 29 41  1  0  0  0  0
 30 42  1  1  0  0  0
 30 29  1  0  0  0  0
 31 32  1  0  0  0  0
 31 30  1  0  0  0  0
 32 37  2  0  0  0  0
 32 33  1  0  0  0  0
 33 34  2  0  0  0  0
 34 35  1  0  0  0  0
 34 46  1  0  0  0  0
 35 47  1  0  0  0  0
 36 48  1  0  0  0  0
 36 35  2  0  0  0  0
 37 36  1  0  0  0  0
 38 40  1  0  0  0  0
 38 30  1  0  0  0  0
 39 38  2  0  0  0  0
 43 31  1  0  0  0  0
 44 31  1  0  0  0  0
 45 33  1  0  0  0  0
 49 37  1  0  0  0  0
M  END
$$$$
