DTG.pdb
 OpenBabel07022418163D

 36 35  0  0  1  0  0  0  0  0999 V2000
   -0.2780    0.0680    4.8890 N   0  0  0  0  0  0  0  0  0  0  0  0
    0.5740   -0.4030    3.8320 C   0  0  1  0  0  0  0  0  0  0  0  0
    0.5970   -1.9110    3.7320 C   0  0  0  0  0  0  0  0  0  0  0  0
   -0.7220   -2.4890    3.4720 C   0  0  0  0  0  0  0  0  0  0  0  0
   -1.5580   -2.5930    4.4020 O   0  0  0  0  0  0  0  0  0  0  0  0
    0.1760    0.2260    2.5480 C   0  0  0  0  0  0  0  0  0  0  0  0
   -0.7960    1.0370    2.4740 O   0  0  0  0  0  0  0  0  0  0  0  0
   -1.0980   -2.9370    2.2160 O   0  0  0  0  0  0  0  0  0  0  0  0
   -0.5820   -0.6550    5.5500 H   0  0  0  0  0  0  0  0  0  0  0  0
   -0.9810    0.7610    4.6100 H   0  0  0  0  0  0  0  0  0  0  0  0
    1.6210   -0.0960    4.0750 H   0  0  0  0  0  0  0  0  0  0  0  0
    1.3270   -2.1520    2.9080 H   0  0  0  0  0  0  0  0  0  0  0  0
    1.0000   -2.3090    4.6880 H   0  0  0  0  0  0  0  0  0  0  0  0
   -2.1120   -2.9760    2.0210 H   0  0  0  0  0  0  0  0  0  0  0  0
    2.9660    0.6790   -0.3220 C   0  0  0  0  0  0  0  0  0  0  0  0
    1.6490    1.4170   -0.3450 C   0  0  1  0  0  0  0  0  0  0  0  0
    1.4210    2.0540   -1.5680 O   0  0  0  0  0  0  0  0  0  0  0  0
    0.4980    0.5450    0.0750 C   0  0  2  0  0  0  0  0  0  0  0  0
    0.8590   -0.0460    1.3380 N   0  0  0  0  0  0  0  0  0  0  0  0
    0.1670   -0.5130   -0.8710 C   0  0  0  0  0  0  0  0  0  0  0  0
    0.2380   -1.7080   -0.4960 O   0  0  0  0  0  0  0  0  0  0  0  0
    3.5880    1.0770   -1.1600 H   0  0  0  0  0  0  0  0  0  0  0  0
    3.5420    0.8960    0.6160 H   0  0  0  0  0  0  0  0  0  0  0  0
    2.8570   -0.4060   -0.4700 H   0  0  0  0  0  0  0  0  0  0  0  0
    1.7280    2.2310    0.4120 H   0  0  0  0  0  0  0  0  0  0  0  0
    2.2540    2.5780   -1.7520 H   0  0  0  0  0  0  0  0  0  0  0  0
   -0.4000    1.1930    0.2800 H   0  0  0  0  0  0  0  0  0  0  0  0
    1.6580   -0.7070    1.3680 H   0  0  0  0  0  0  0  0  0  0  0  0
   -0.2400   -0.2830   -2.2220 N   0  0  0  0  0  0  0  0  0  0  0  0
   -0.5620   -1.3180   -3.1470 C   0  0  0  0  0  0  0  0  0  0  0  0
   -1.6750   -2.1850   -2.7440 C   0  0  0  0  0  0  0  0  0  0  0  0
   -2.3360   -2.0720   -1.6860 O   0  0  0  0  0  0  0  0  0  0  0  0
   -2.0200   -3.2220   -3.6220 O   0  0  0  0  0  0  0  0  0  0  0  0
   -0.2840    0.7380   -2.4830 H   0  0  0  0  0  0  0  0  0  0  0  0
    0.2980   -1.9760   -3.4160 H   0  0  0  0  0  0  0  0  0  0  0  0
   -0.8660   -0.8380   -4.1150 H   0  0  0  0  0  0  0  0  0  0  0  0
  1  9  1  0  0  0  0
  2 11  1  1  0  0  0
  2  1  1  0  0  0  0
  3  2  1  0  0  0  0
  3 13  1  0  0  0  0
  4  3  1  0  0  0  0
  4  5  2  0  0  0  0
  6  2  1  0  0  0  0
  7  6  2  0  0  0  0
  8  4  1  0  0  0  0
 10  1  1  0  0  0  0
 12  3  1  0  0  0  0
 14  8  1  0  0  0  0
 15 23  1  0  0  0  0
 16 15  1  0  0  0  0
 16 18  1  0  0  0  0
 16 25  1  1  0  0  0
 17 16  1  0  0  0  0
 18 27  1  1  0  0  0
 18 19  1  0  0  0  0
 19 28  1  0  0  0  0
 19  6  1  0  0  0  0
 20 21  2  0  0  0  0
 20 18  1  0  0  0  0
 22 15  1  0  0  0  0
 24 15  1  0  0  0  0
 26 17  1  0  0  0  0
 29 20  1  0  0  0  0
 30 31  1  0  0  0  0
 30 29  1  0  0  0  0
 31 32  1  0  0  0  0
 33 31  2  0  0  0  0
 34 29  1  0  0  0  0
 35 30  1  0  0  0  0
 36 30  1  0  0  0  0
M  END
$$$$
