DTH.pdb
 OpenBabel07022418163D

 46 46  0  0  1  0  0  0  0  0999 V2000
    4.6690   -0.7170    2.6390 N   0  0  0  0  0  0  0  0  0  0  0  0
    3.6330   -0.9900    1.6630 C   0  0  1  0  0  0  0  0  0  0  0  0
    2.9470   -2.3000    1.9330 C   0  0  0  0  0  0  0  0  0  0  0  0
    2.3010   -2.3130    3.2820 C   0  0  0  0  0  0  0  0  0  0  0  0
    2.3460   -1.3310    4.0650 O   0  0  0  0  0  0  0  0  0  0  0  0
    2.6800    0.1380    1.5380 C   0  0  0  0  0  0  0  0  0  0  0  0
    2.8370    1.1710    2.2430 O   0  0  0  0  0  0  0  0  0  0  0  0
    1.6260   -3.4460    3.6890 O   0  0  0  0  0  0  0  0  0  0  0  0
    5.6330   -0.8140    2.2490 H   0  0  0  0  0  0  0  0  0  0  0  0
    4.5780   -1.4450    3.3820 H   0  0  0  0  0  0  0  0  0  0  0  0
    4.1460   -1.0940    0.6780 H   0  0  0  0  0  0  0  0  0  0  0  0
    2.1290   -2.3990    1.1870 H   0  0  0  0  0  0  0  0  0  0  0  0
    3.6510   -3.1270    1.8150 H   0  0  0  0  0  0  0  0  0  0  0  0
    1.2450   -3.5740    4.6210 H   0  0  0  0  0  0  0  0  0  0  0  0
   -0.2350    3.0910   -0.7630 C   0  0  0  0  0  0  0  0  0  0  0  0
    0.6600    1.8590   -0.8400 C   0  0  1  0  0  0  0  0  0  0  0  0
    1.9420    2.3350   -1.1140 O   0  0  0  0  0  0  0  0  0  0  0  0
    0.6450    1.2360    0.5350 C   0  0  2  0  0  0  0  0  0  0  0  0
    1.5720    0.1300    0.6510 N   0  0  0  0  0  0  0  0  0  0  0  0
   -0.7290    0.8540    0.9230 C   0  0  0  0  0  0  0  0  0  0  0  0
   -1.6700    1.6840    0.8870 O   0  0  0  0  0  0  0  0  0  0  0  0
   -1.2440    2.8400   -1.0970 H   0  0  0  0  0  0  0  0  0  0  0  0
   -0.3080    3.4810    0.2800 H   0  0  0  0  0  0  0  0  0  0  0  0
    0.2070    3.9350   -1.3520 H   0  0  0  0  0  0  0  0  0  0  0  0
    0.2730    1.2170   -1.6300 H   0  0  0  0  0  0  0  0  0  0  0  0
    2.4600    1.6940   -1.6850 H   0  0  0  0  0  0  0  0  0  0  0  0
    0.9800    2.0230    1.2440 H   0  0  0  0  0  0  0  0  0  0  0  0
    1.4450   -0.7350    0.0650 H   0  0  0  0  0  0  0  0  0  0  0  0
   -0.9730   -0.4770    1.3410 N   0  0  0  0  0  0  0  0  0  0  0  0
   -2.2750   -0.9550    1.7400 C   0  0  1  0  0  0  0  0  0  0  0  0
   -2.7280   -2.0210    0.7460 C   0  0  0  0  0  0  0  0  0  0  0  0
   -2.8080   -1.4510   -0.6210 C   0  0  0  0  0  0  0  0  0  0  0  0
   -1.7650   -1.4450   -1.5130 C   0  0  0  0  0  0  0  0  0  0  0  0
   -2.1800   -0.8500   -2.6620 N   0  0  0  0  0  0  0  0  0  0  0  0
   -3.4730   -0.4960   -2.4690 C   0  0  0  0  0  0  0  0  0  0  0  0
   -3.8580   -0.8640   -1.2180 N   0  0  0  0  0  0  0  0  0  0  0  0
   -2.2830   -1.4920    3.1190 C   0  0  0  0  0  0  0  0  0  0  0  0
   -1.2340   -1.4980    3.8070 O   0  0  0  0  0  0  0  0  0  0  0  0
   -3.4340   -1.9950    3.6780 O   0  0  0  0  0  0  0  0  0  0  0  0
   -0.1730   -1.1390    1.3590 H   0  0  0  0  0  0  0  0  0  0  0  0
   -3.0000   -0.1010    1.6520 H   0  0  0  0  0  0  0  0  0  0  0  0
   -2.0550   -2.8770    0.7230 H   0  0  0  0  0  0  0  0  0  0  0  0
   -3.7350   -2.4040    1.0480 H   0  0  0  0  0  0  0  0  0  0  0  0
   -0.7670   -1.8330   -1.3740 H   0  0  0  0  0  0  0  0  0  0  0  0
   -1.5860   -0.7150   -3.5020 H   0  0  0  0  0  0  0  0  0  0  0  0
   -4.0670   -0.0020   -3.2130 H   0  0  0  0  0  0  0  0  0  0  0  0
  1 10  1  0  0  0  0
  2 11  1  6  0  0  0
  2  3  1  0  0  0  0
  2  1  1  0  0  0  0
  3  4  1  0  0  0  0
  4  8  1  0  0  0  0
  4  5  2  0  0  0  0
  6  2  1  0  0  0  0
  6  7  2  0  0  0  0
  8 14  1  0  0  0  0
  9  1  1  0  0  0  0
 12  3  1  0  0  0  0
 13  3  1  0  0  0  0
 15 23  1  0  0  0  0
 16 25  1  6  0  0  0
 16 15  1  0  0  0  0
 16 18  1  0  0  0  0
 17 16  1  0  0  0  0
 18 19  1  0  0  0  0
 18 20  1  0  0  0  0
 18 27  1  1  0  0  0
 19  6  1  0  0  0  0
 20 29  1  0  0  0  0
 21 20  2  0  0  0  0
 22 15  1  0  0  0  0
 24 15  1  0  0  0  0
 26 17  1  0  0  0  0
 28 19  1  0  0  0  0
 29 40  1  0  0  0  0
 29 30  1  0  0  0  0
 30 41  1  6  0  0  0
 30 37  1  0  0  0  0
 31 43  1  0  0  0  0
 31 30  1  0  0  0  0
 32 31  1  0  0  0  0
 33 44  1  0  0  0  0
 33 32  2  0  0  0  0
 34 35  1  0  0  0  0
 34 33  1  0  0  0  0
 35 36  2  0  0  0  0
 36 32  1  0  0  0  0
 37 39  2  0  0  0  0
 37 38  1  0  0  0  0
 42 31  1  0  0  0  0
 45 34  1  0  0  0  0
 46 35  1  0  0  0  0
M  END
$$$$
