DTI.pdb
 OpenBabel07022418163D

 48 47  0  0  1  0  0  0  0  0999 V2000
    1.7050   -4.2780   -1.5900 N   0  0  0  0  0  0  0  0  0  0  0  0
    2.3630   -4.1990   -0.2720 C   0  0  1  0  0  0  0  0  0  0  0  0
    3.8310   -4.4940   -0.4130 C   0  0  0  0  0  0  0  0  0  0  0  0
    4.5100   -4.4220    0.8960 C   0  0  0  0  0  0  0  0  0  0  0  0
    4.9680   -3.3450    1.3670 O   0  0  0  0  0  0  0  0  0  0  0  0
    2.0780   -2.9010    0.3620 C   0  0  0  0  0  0  0  0  0  0  0  0
    2.4800   -2.5790    1.4990 O   0  0  0  0  0  0  0  0  0  0  0  0
    4.6770   -5.5590    1.6800 O   0  0  0  0  0  0  0  0  0  0  0  0
    1.8360   -5.2620   -1.9130 H   0  0  0  0  0  0  0  0  0  0  0  0
    0.6700   -4.2120   -1.3560 H   0  0  0  0  0  0  0  0  0  0  0  0
    1.9200   -5.0560    0.3060 H   0  0  0  0  0  0  0  0  0  0  0  0
    4.3410   -3.8260   -1.1390 H   0  0  0  0  0  0  0  0  0  0  0  0
    3.9070   -5.5580   -0.7590 H   0  0  0  0  0  0  0  0  0  0  0  0
    4.5410   -5.5250    2.7010 H   0  0  0  0  0  0  0  0  0  0  0  0
    1.4800    1.7930   -0.3380 C   0  0  0  0  0  0  0  0  0  0  0  0
    1.6210    0.3610   -0.7350 C   0  0  1  0  0  0  0  0  0  0  0  0
    3.0120    0.0910   -0.7500 O   0  0  0  0  0  0  0  0  0  0  0  0
    0.9710   -0.6220    0.2210 C   0  0  2  0  0  0  0  0  0  0  0  0
    1.3010   -1.9450   -0.3430 N   0  0  0  0  0  0  0  0  0  0  0  0
   -0.5070   -0.5320    0.2270 C   0  0  0  0  0  0  0  0  0  0  0  0
   -1.1990   -1.4880   -0.2580 O   0  0  0  0  0  0  0  0  0  0  0  0
    0.5540    2.2840   -0.7290 H   0  0  0  0  0  0  0  0  0  0  0  0
    2.3060    2.3400   -0.8930 H   0  0  0  0  0  0  0  0  0  0  0  0
    1.6860    2.0040    0.7210 H   0  0  0  0  0  0  0  0  0  0  0  0
    1.2740    0.2420   -1.7740 H   0  0  0  0  0  0  0  0  0  0  0  0
    3.4280    0.8750   -1.1630 H   0  0  0  0  0  0  0  0  0  0  0  0
    1.3940   -0.4750    1.2130 H   0  0  0  0  0  0  0  0  0  0  0  0
    0.9260   -2.1290   -1.2930 H   0  0  0  0  0  0  0  0  0  0  0  0
   -3.0830    3.1780    2.5160 C   0  0  0  0  0  0  0  0  0  0  0  0
   -2.8230    1.8060    3.0040 C   0  0  0  0  0  0  0  0  0  0  0  0
   -3.2170    0.6800    2.1320 C   0  0  2  0  0  0  0  0  0  0  0  0
   -2.8620   -0.6430    2.8230 C   0  0  0  0  0  0  0  0  0  0  0  0
   -2.6080    0.6700    0.7580 C   0  0  2  0  0  0  0  0  0  0  0  0
   -1.1830    0.6160    0.7710 N   0  0  0  0  0  0  0  0  0  0  0  0
   -3.1710    1.7530   -0.0660 C   0  0  0  0  0  0  0  0  0  0  0  0
   -2.4720    2.5840   -0.7130 O   0  0  0  0  0  0  0  0  0  0  0  0
   -4.5480    1.8980   -0.1600 O   0  0  0  0  0  0  0  0  0  0  0  0
   -4.0710    3.3700    2.1010 H   0  0  0  0  0  0  0  0  0  0  0  0
   -3.0050    3.8710    3.4080 H   0  0  0  0  0  0  0  0  0  0  0  0
   -2.2540    3.5510    1.8450 H   0  0  0  0  0  0  0  0  0  0  0  0
   -3.3120    1.6530    4.0000 H   0  0  0  0  0  0  0  0  0  0  0  0
   -1.7290    1.7190    3.2160 H   0  0  0  0  0  0  0  0  0  0  0  0
   -4.3240    0.6620    2.0160 H   0  0  0  0  0  0  0  0  0  0  0  0
   -3.1100   -1.4980    2.1870 H   0  0  0  0  0  0  0  0  0  0  0  0
   -3.3790   -0.7290    3.8040 H   0  0  0  0  0  0  0  0  0  0  0  0
   -1.7730   -0.6850    3.0400 H   0  0  0  0  0  0  0  0  0  0  0  0
   -2.9810   -0.2840    0.2790 H   0  0  0  0  0  0  0  0  0  0  0  0
   -0.5600    1.3580    1.1580 H   0  0  0  0  0  0  0  0  0  0  0  0
  1 10  1  0  0  0  0
  1  2  1  0  0  0  0
  2 11  1  1  0  0  0
  2  6  1  0  0  0  0
  3  2  1  0  0  0  0
  3  4  1  0  0  0  0
  4  5  2  0  0  0  0
  4  8  1  0  0  0  0
  6  7  2  0  0  0  0
  8 14  1  0  0  0  0
  9  1  1  0  0  0  0
 12  3  1  0  0  0  0
 13  3  1  0  0  0  0
 15 24  1  0  0  0  0
 16 25  1  6  0  0  0
 16 15  1  0  0  0  0
 16 18  1  0  0  0  0
 17 16  1  0  0  0  0
 18 20  1  0  0  0  0
 18 27  1  1  0  0  0
 19 18  1  0  0  0  0
 19  6  1  0  0  0  0
 20 34  1  0  0  0  0
 21 20  2  0  0  0  0
 22 15  1  0  0  0  0
 23 15  1  0  0  0  0
 26 17  1  0  0  0  0
 28 19  1  0  0  0  0
 29 30  1  0  0  0  0
 29 39  1  0  0  0  0
 30 42  1  0  0  0  0
 30 41  1  0  0  0  0
 31 43  1  6  0  0  0
 31 32  1  0  0  0  0
 31 30  1  0  0  0  0
 32 46  1  0  0  0  0
 32 45  1  0  0  0  0
 33 47  1  6  0  0  0
 33 34  1  0  0  0  0
 33 31  1  0  0  0  0
 34 48  1  0  0  0  0
 35 33  1  0  0  0  0
 36 35  2  0  0  0  0
 37 35  1  0  0  0  0
 38 29  1  0  0  0  0
 40 29  1  0  0  0  0
 44 32  1  0  0  0  0
M  END
$$$$
