DTL.pdb
 OpenBabel07022418163D

 48 47  0  0  1  0  0  0  0  0999 V2000
    0.6820   -4.5100   -2.1330 N   0  0  0  0  0  0  0  0  0  0  0  0
    1.4020   -4.6560   -0.8690 C   0  0  1  0  0  0  0  0  0  0  0  0
    2.8260   -5.0540   -1.1000 C   0  0  0  0  0  0  0  0  0  0  0  0
    3.5240   -5.1980    0.1930 C   0  0  0  0  0  0  0  0  0  0  0  0
    4.1830   -4.2750    0.7540 O   0  0  0  0  0  0  0  0  0  0  0  0
    1.3720   -3.3610   -0.1210 C   0  0  0  0  0  0  0  0  0  0  0  0
    1.8480   -3.2130    1.0320 O   0  0  0  0  0  0  0  0  0  0  0  0
    3.5040   -6.4050    0.9130 O   0  0  0  0  0  0  0  0  0  0  0  0
    0.8230   -5.4200   -2.6400 H   0  0  0  0  0  0  0  0  0  0  0  0
   -0.3360   -4.4830   -1.8750 H   0  0  0  0  0  0  0  0  0  0  0  0
    0.9020   -5.4740   -0.3130 H   0  0  0  0  0  0  0  0  0  0  0  0
    3.3520   -4.3210   -1.7500 H   0  0  0  0  0  0  0  0  0  0  0  0
    2.8040   -6.0710   -1.5740 H   0  0  0  0  0  0  0  0  0  0  0  0
    3.4540   -6.3270    1.9320 H   0  0  0  0  0  0  0  0  0  0  0  0
    1.8530    1.3630   -0.1360 C   0  0  0  0  0  0  0  0  0  0  0  0
    1.5980    0.0310   -0.7860 C   0  0  1  0  0  0  0  0  0  0  0  0
    2.8700   -0.6010   -0.8340 O   0  0  0  0  0  0  0  0  0  0  0  0
    0.7550   -0.9040    0.0600 C   0  0  2  0  0  0  0  0  0  0  0  0
    0.7890   -2.1890   -0.6760 N   0  0  0  0  0  0  0  0  0  0  0  0
   -0.6750   -0.5300    0.1110 C   0  0  0  0  0  0  0  0  0  0  0  0
   -1.5470   -1.2480   -0.4940 O   0  0  0  0  0  0  0  0  0  0  0  0
    2.0060    1.2340    0.9470 H   0  0  0  0  0  0  0  0  0  0  0  0
    2.8290    1.8100   -0.5100 H   0  0  0  0  0  0  0  0  0  0  0  0
    1.0760    2.1030   -0.3470 H   0  0  0  0  0  0  0  0  0  0  0  0
    1.2540    0.1140   -1.8270 H   0  0  0  0  0  0  0  0  0  0  0  0
    3.4220   -0.3020   -0.0690 H   0  0  0  0  0  0  0  0  0  0  0  0
    1.2230   -0.9920    1.0360 H   0  0  0  0  0  0  0  0  0  0  0  0
    0.3710   -2.2160   -1.6220 H   0  0  0  0  0  0  0  0  0  0  0  0
   -2.3590    3.3510    3.0250 C   0  0  0  0  0  0  0  0  0  0  0  0
   -2.3860    1.8690    3.3310 C   0  0  0  0  0  0  0  0  0  0  0  0
   -1.0490    1.3640    3.8060 C   0  0  0  0  0  0  0  0  0  0  0  0
   -3.0260    1.0330    2.2880 C   0  0  0  0  0  0  0  0  0  0  0  0
   -2.4410    1.0510    0.9250 C   0  0  2  0  0  0  0  0  0  0  0  0
   -1.0770    0.6230    0.8310 N   0  0  0  0  0  0  0  0  0  0  0  0
   -2.6690    2.3430    0.2240 C   0  0  0  0  0  0  0  0  0  0  0  0
   -1.7280    2.9610   -0.3780 O   0  0  0  0  0  0  0  0  0  0  0  0
   -3.9120    2.9570    0.1790 O   0  0  0  0  0  0  0  0  0  0  0  0
   -1.6150    3.6300    2.2800 H   0  0  0  0  0  0  0  0  0  0  0  0
   -3.3970    3.6550    2.7840 H   0  0  0  0  0  0  0  0  0  0  0  0
   -2.1460    3.8500    4.0170 H   0  0  0  0  0  0  0  0  0  0  0  0
   -3.0700    1.7890    4.2340 H   0  0  0  0  0  0  0  0  0  0  0  0
   -0.2050    2.0540    3.5200 H   0  0  0  0  0  0  0  0  0  0  0  0
   -0.9830    1.3350    4.9330 H   0  0  0  0  0  0  0  0  0  0  0  0
   -0.8630    0.3180    3.4880 H   0  0  0  0  0  0  0  0  0  0  0  0
   -4.0870    1.4030    2.1870 H   0  0  0  0  0  0  0  0  0  0  0  0
   -3.1440    0.0080    2.7060 H   0  0  0  0  0  0  0  0  0  0  0  0
   -3.0550    0.3040    0.3310 H   0  0  0  0  0  0  0  0  0  0  0  0
   -0.3260    1.1530    1.3050 H   0  0  0  0  0  0  0  0  0  0  0  0
  1 10  1  0  0  0  0
  1  2  1  0  0  0  0
  2 11  1  1  0  0  0
  2  6  1  0  0  0  0
  3  2  1  0  0  0  0
  3  4  1  0  0  0  0
  4  5  2  0  0  0  0
  4  8  1  0  0  0  0
  6  7  2  0  0  0  0
  8 14  1  0  0  0  0
  9  1  1  0  0  0  0
 12  3  1  0  0  0  0
 13  3  1  0  0  0  0
 15 22  1  0  0  0  0
 16 25  1  6  0  0  0
 16 15  1  0  0  0  0
 16 18  1  0  0  0  0
 17 16  1  0  0  0  0
 17 26  1  0  0  0  0
 18 20  1  0  0  0  0
 18 27  1  1  0  0  0
 19  6  1  0  0  0  0
 19 18  1  0  0  0  0
 20 34  1  0  0  0  0
 21 20  2  0  0  0  0
 23 15  1  0  0  0  0
 24 15  1  0  0  0  0
 28 19  1  0  0  0  0
 29 30  1  0  0  0  0
 29 40  1  0  0  0  0
 30 31  1  0  0  0  0
 30 41  1  0  0  0  0
 31 43  1  0  0  0  0
 32 46  1  0  0  0  0
 32 30  1  0  0  0  0
 33 47  1  6  0  0  0
 33 32  1  0  0  0  0
 34 33  1  0  0  0  0
 34 48  1  0  0  0  0
 35 33  1  0  0  0  0
 36 35  2  0  0  0  0
 37 35  1  0  0  0  0
 38 29  1  0  0  0  0
 39 29  1  0  0  0  0
 42 31  1  0  0  0  0
 44 31  1  0  0  0  0
 45 32  1  0  0  0  0
M  END
$$$$
