DTN.pdb
 OpenBabel07022418163D

 43 42  0  0  1  0  0  0  0  0999 V2000
   -0.5690   -2.8420   -0.9490 N   0  0  0  0  0  0  0  0  0  0  0  0
   -0.2340   -3.5580    0.2960 C   0  0  1  0  0  0  0  0  0  0  0  0
    0.4510   -4.8560   -0.0200 C   0  0  0  0  0  0  0  0  0  0  0  0
    0.7760   -5.5650    1.2360 C   0  0  0  0  0  0  0  0  0  0  0  0
    1.8790   -5.4710    1.8440 O   0  0  0  0  0  0  0  0  0  0  0  0
    0.6510   -2.7300    1.1370 C   0  0  0  0  0  0  0  0  0  0  0  0
    1.0390   -3.0590    2.2830 O   0  0  0  0  0  0  0  0  0  0  0  0
   -0.1910   -6.3950    1.7960 O   0  0  0  0  0  0  0  0  0  0  0  0
   -1.0410   -3.5340   -1.5730 H   0  0  0  0  0  0  0  0  0  0  0  0
   -1.2930   -2.1370   -0.6850 H   0  0  0  0  0  0  0  0  0  0  0  0
   -1.2040   -3.7950    0.7730 H   0  0  0  0  0  0  0  0  0  0  0  0
   -0.2440   -5.5300   -0.6010 H   0  0  0  0  0  0  0  0  0  0  0  0
    1.3660   -4.7050   -0.6480 H   0  0  0  0  0  0  0  0  0  0  0  0
   -0.2880   -6.4680    2.8090 H   0  0  0  0  0  0  0  0  0  0  0  0
    3.1490    0.3780   -0.3990 C   0  0  0  0  0  0  0  0  0  0  0  0
    3.3580   -0.4180    0.8630 C   0  0  1  0  0  0  0  0  0  0  0  0
    4.1630    0.3620    1.7100 O   0  0  0  0  0  0  0  0  0  0  0  0
    2.0100   -0.6440    1.5160 C   0  0  2  0  0  0  0  0  0  0  0  0
    1.1420   -1.4490    0.6800 N   0  0  0  0  0  0  0  0  0  0  0  0
    1.3000    0.6470    1.7390 C   0  0  0  0  0  0  0  0  0  0  0  0
    1.8540    1.5070    2.4420 O   0  0  0  0  0  0  0  0  0  0  0  0
    2.4100   -0.1360   -1.0360 H   0  0  0  0  0  0  0  0  0  0  0  0
    2.7810    1.3820   -0.0910 H   0  0  0  0  0  0  0  0  0  0  0  0
    4.1190    0.5400   -0.9150 H   0  0  0  0  0  0  0  0  0  0  0  0
    3.8860   -1.3750    0.6990 H   0  0  0  0  0  0  0  0  0  0  0  0
    4.1420    0.0030    2.6140 H   0  0  0  0  0  0  0  0  0  0  0  0
    2.1770   -1.1700    2.4600 H   0  0  0  0  0  0  0  0  0  0  0  0
    0.8280   -1.1640   -0.2720 H   0  0  0  0  0  0  0  0  0  0  0  0
   -1.8840    4.8610   -1.0470 N   0  0  0  0  0  0  0  0  0  0  0  0
   -1.5770    4.1580    0.1690 C   0  0  0  0  0  0  0  0  0  0  0  0
   -1.9400    4.7120    1.2220 O   0  0  0  0  0  0  0  0  0  0  0  0
   -0.8840    2.8870    0.0800 C   0  0  0  0  0  0  0  0  0  0  0  0
   -0.6960    2.1830    1.3820 C   0  0  2  0  0  0  0  0  0  0  0  0
    0.0410    0.9320    1.1920 N   0  0  0  0  0  0  0  0  0  0  0  0
   -1.9580    1.8190    2.0750 C   0  0  0  0  0  0  0  0  0  0  0  0
   -2.8050    2.6600    2.4110 O   0  0  0  0  0  0  0  0  0  0  0  0
   -2.2790    0.4830    2.3990 O   0  0  0  0  0  0  0  0  0  0  0  0
   -2.5690    4.4540   -1.7130 H   0  0  0  0  0  0  0  0  0  0  0  0
   -1.4350    5.7700   -1.2760 H   0  0  0  0  0  0  0  0  0  0  0  0
   -1.4500    2.2510   -0.6380 H   0  0  0  0  0  0  0  0  0  0  0  0
    0.1470    3.1050   -0.3030 H   0  0  0  0  0  0  0  0  0  0  0  0
   -0.0610    2.8090    2.0330 H   0  0  0  0  0  0  0  0  0  0  0  0
   -0.4270    0.2190    0.6030 H   0  0  0  0  0  0  0  0  0  0  0  0
  1 10  1  0  0  0  0
  1  2  1  0  0  0  0
  2 11  1  1  0  0  0
  2  6  1  0  0  0  0
  3  2  1  0  0  0  0
  3  4  1  0  0  0  0
  4  8  1  0  0  0  0
  4  5  2  0  0  0  0
  6  7  2  0  0  0  0
  8 14  1  0  0  0  0
  9  1  1  0  0  0  0
 12  3  1  0  0  0  0
 13  3  1  0  0  0  0
 15 23  1  0  0  0  0
 15 16  1  0  0  0  0
 16 25  1  6  0  0  0
 16 18  1  0  0  0  0
 16 17  1  0  0  0  0
 17 26  1  0  0  0  0
 18 20  1  0  0  0  0
 18 27  1  1  0  0  0
 19  6  1  0  0  0  0
 19 18  1  0  0  0  0
 20 21  2  0  0  0  0
 22 15  1  0  0  0  0
 24 15  1  0  0  0  0
 28 19  1  0  0  0  0
 29 30  1  0  0  0  0
 30 31  2  0  0  0  0
 32 30  1  0  0  0  0
 32 33  1  0  0  0  0
 33 42  1  1  0  0  0
 33 35  1  0  0  0  0
 34 33  1  0  0  0  0
 34 20  1  0  0  0  0
 35 37  2  0  0  0  0
 35 36  1  0  0  0  0
 38 29  1  0  0  0  0
 39 29  1  0  0  0  0
 40 32  1  0  0  0  0
 41 32  1  0  0  0  0
 43 34  1  0  0  0  0
M  END
$$$$
