DTP.pdb
 OpenBabel07022418163D

 43 43  0  0  1  0  0  0  0  0999 V2000
    2.5600   -2.7120    1.5950 N   0  0  0  0  0  0  0  0  0  0  0  0
    3.1070   -1.6140    0.8400 C   0  0  1  0  0  0  0  0  0  0  0  0
    4.0950   -2.2210   -0.1570 C   0  0  0  0  0  0  0  0  0  0  0  0
    5.1710   -2.9450    0.5660 C   0  0  0  0  0  0  0  0  0  0  0  0
    6.1410   -2.3370    1.0820 O   0  0  0  0  0  0  0  0  0  0  0  0
    2.0800   -0.8730    0.0800 C   0  0  0  0  0  0  0  0  0  0  0  0
    2.4500    0.1150   -0.6000 O   0  0  0  0  0  0  0  0  0  0  0  0
    5.1330   -4.3240    0.6910 O   0  0  0  0  0  0  0  0  0  0  0  0
    2.0820   -2.4310    2.4690 H   0  0  0  0  0  0  0  0  0  0  0  0
    2.0480   -3.3720    1.0030 H   0  0  0  0  0  0  0  0  0  0  0  0
    3.6190   -0.8990    1.5110 H   0  0  0  0  0  0  0  0  0  0  0  0
    4.5390   -1.4520   -0.8180 H   0  0  0  0  0  0  0  0  0  0  0  0
    3.5650   -2.9270   -0.8320 H   0  0  0  0  0  0  0  0  0  0  0  0
    5.4790   -4.7840    1.5500 H   0  0  0  0  0  0  0  0  0  0  0  0
   -1.9680   -0.6080   -2.5460 C   0  0  0  0  0  0  0  0  0  0  0  0
   -0.9790   -1.3240   -1.7030 C   0  0  1  0  0  0  0  0  0  0  0  0
   -0.0360   -1.9050   -2.5830 O   0  0  0  0  0  0  0  0  0  0  0  0
   -0.2500   -0.4330   -0.6990 C   0  0  2  0  0  0  0  0  0  0  0  0
    0.6970   -1.1970    0.0620 N   0  0  0  0  0  0  0  0  0  0  0  0
   -1.1170    0.4730   -0.0010 C   0  0  0  0  0  0  0  0  0  0  0  0
   -2.0170    1.0600   -0.7340 O   0  0  0  0  0  0  0  0  0  0  0  0
   -1.6630    0.3640   -2.9270 H   0  0  0  0  0  0  0  0  0  0  0  0
   -2.9950   -0.5410   -2.1070 H   0  0  0  0  0  0  0  0  0  0  0  0
   -2.1260   -1.2490   -3.4660 H   0  0  0  0  0  0  0  0  0  0  0  0
   -1.4800   -2.1700   -1.1950 H   0  0  0  0  0  0  0  0  0  0  0  0
    0.4880   -1.1430   -2.9570 H   0  0  0  0  0  0  0  0  0  0  0  0
    0.3730    0.2530   -1.4020 H   0  0  0  0  0  0  0  0  0  0  0  0
    0.4060   -2.0500    0.6140 H   0  0  0  0  0  0  0  0  0  0  0  0
   -1.1600    0.8350    1.3370 N   0  0  0  0  0  0  0  0  0  0  0  0
   -0.3250    0.4010    2.4190 C   0  0  0  0  0  0  0  0  0  0  0  0
   -1.3010    0.2210    3.5770 C   0  0  0  0  0  0  0  0  0  0  0  0
   -2.4730    1.1000    3.2290 C   0  0  0  0  0  0  0  0  0  0  0  0
   -2.1090    1.7950    1.9540 C   0  0  1  0  0  0  0  0  0  0  0  0
   -1.4760    3.0930    2.2310 C   0  0  0  0  0  0  0  0  0  0  0  0
   -0.2780    3.2780    1.9010 O   0  0  0  0  0  0  0  0  0  0  0  0
   -2.1430    4.1390    2.8480 O   0  0  0  0  0  0  0  0  0  0  0  0
    0.3690    1.2260    2.7380 H   0  0  0  0  0  0  0  0  0  0  0  0
    0.2400   -0.5140    2.2320 H   0  0  0  0  0  0  0  0  0  0  0  0
   -0.8390    0.5400    4.5300 H   0  0  0  0  0  0  0  0  0  0  0  0
   -1.5670   -0.8530    3.5890 H   0  0  0  0  0  0  0  0  0  0  0  0
   -2.6640    1.8500    4.0360 H   0  0  0  0  0  0  0  0  0  0  0  0
   -3.4030    0.4870    3.0780 H   0  0  0  0  0  0  0  0  0  0  0  0
   -2.9790    1.8880    1.2530 H   0  0  0  0  0  0  0  0  0  0  0  0
  1  9  1  0  0  0  0
  2 11  1  1  0  0  0
  2  1  1  0  0  0  0
  3  4  1  0  0  0  0
  3  2  1  0  0  0  0
  4  8  1  0  0  0  0
  4  5  2  0  0  0  0
  6  2  1  0  0  0  0
  7  6  2  0  0  0  0
  8 14  1  0  0  0  0
 10  1  1  0  0  0  0
 12  3  1  0  0  0  0
 13  3  1  0  0  0  0
 15 23  1  0  0  0  0
 15 16  1  0  0  0  0
 16 25  1  1  0  0  0
 16 18  1  0  0  0  0
 17 16  1  0  0  0  0
 18 27  1  6  0  0  0
 18 20  1  0  0  0  0
 18 19  1  0  0  0  0
 19  6  1  0  0  0  0
 19 28  1  0  0  0  0
 20 29  1  0  0  0  0
 21 20  2  0  0  0  0
 22 15  1  0  0  0  0
 24 15  1  0  0  0  0
 26 17  1  0  0  0  0
 29 33  1  0  0  0  0
 29 30  1  0  0  0  0
 30 37  1  0  0  0  0
 30 31  1  0  0  0  0
 31 40  1  0  0  0  0
 31 39  1  0  0  0  0
 32 31  1  0  0  0  0
 32 41  1  0  0  0  0
 33 43  1  6  0  0  0
 33 34  1  0  0  0  0
 33 32  1  0  0  0  0
 34 36  1  0  0  0  0
 35 34  2  0  0  0  0
 38 30  1  0  0  0  0
 42 32  1  0  0  0  0
M  END
$$$$
