DTS.pdb
 OpenBabel07022418163D

 40 39  0  0  1  0  0  0  0  0999 V2000
    3.7500   -2.7140   -0.0800 N   0  0  0  0  0  0  0  0  0  0  0  0
    2.4230   -3.2120   -0.1640 C   0  0  1  0  0  0  0  0  0  0  0  0
    2.0570   -4.2460    0.8380 C   0  0  0  0  0  0  0  0  0  0  0  0
    2.1470   -3.8550    2.2400 C   0  0  0  0  0  0  0  0  0  0  0  0
    2.4970   -2.7520    2.6900 O   0  0  0  0  0  0  0  0  0  0  0  0
    1.4030   -2.0990   -0.2250 C   0  0  0  0  0  0  0  0  0  0  0  0
    0.1730   -2.3590   -0.3030 O   0  0  0  0  0  0  0  0  0  0  0  0
    1.8050   -4.8200    3.1820 O   0  0  0  0  0  0  0  0  0  0  0  0
    4.0480   -2.3960    0.8610 H   0  0  0  0  0  0  0  0  0  0  0  0
    4.4730   -3.2910   -0.5630 H   0  0  0  0  0  0  0  0  0  0  0  0
    2.3410   -3.7140   -1.1610 H   0  0  0  0  0  0  0  0  0  0  0  0
    2.6840   -5.1430    0.6710 H   0  0  0  0  0  0  0  0  0  0  0  0
    1.0100   -4.5650    0.6360 H   0  0  0  0  0  0  0  0  0  0  0  0
    2.0620   -4.7440    4.1680 H   0  0  0  0  0  0  0  0  0  0  0  0
   -0.5990    1.5070   -1.8540 C   0  0  0  0  0  0  0  0  0  0  0  0
    0.2260    0.2700   -1.5970 C   0  0  1  0  0  0  0  0  0  0  0  0
    1.2520    0.3250   -2.5850 O   0  0  0  0  0  0  0  0  0  0  0  0
    0.9520    0.3530   -0.2510 C   0  0  2  0  0  0  0  0  0  0  0  0
    1.8970   -0.7830   -0.1910 N   0  0  0  0  0  0  0  0  0  0  0  0
    0.0630    0.3340    0.9050 C   0  0  0  0  0  0  0  0  0  0  0  0
    0.1450   -0.6670    1.7090 O   0  0  0  0  0  0  0  0  0  0  0  0
   -0.0950    2.3990   -1.4320 H   0  0  0  0  0  0  0  0  0  0  0  0
   -0.6710    1.7000   -2.9660 H   0  0  0  0  0  0  0  0  0  0  0  0
   -1.6160    1.4620   -1.4640 H   0  0  0  0  0  0  0  0  0  0  0  0
   -0.3110   -0.6540   -1.7530 H   0  0  0  0  0  0  0  0  0  0  0  0
    0.9040    0.7500   -3.4020 H   0  0  0  0  0  0  0  0  0  0  0  0
    1.5820    1.2560   -0.3330 H   0  0  0  0  0  0  0  0  0  0  0  0
    2.9420   -0.6220   -0.1230 H   0  0  0  0  0  0  0  0  0  0  0  0
   -0.0370    2.2500    3.6320 O   0  0  0  0  0  0  0  0  0  0  0  0
   -1.4100    2.3470    3.3570 C   0  0  0  0  0  0  0  0  0  0  0  0
   -1.7360    1.1420    2.4740 C   0  0  2  0  0  0  0  0  0  0  0  0
   -0.9020    1.2860    1.2820 N   0  0  0  0  0  0  0  0  0  0  0  0
   -3.1660    1.1530    2.1500 C   0  0  0  0  0  0  0  0  0  0  0  0
   -3.6060    1.2740    0.9790 O   0  0  0  0  0  0  0  0  0  0  0  0
   -4.0940    1.0270    3.1720 O   0  0  0  0  0  0  0  0  0  0  0  0
    0.1460    1.5590    4.3210 H   0  0  0  0  0  0  0  0  0  0  0  0
   -2.0240    2.3770    4.2630 H   0  0  0  0  0  0  0  0  0  0  0  0
   -1.5350    3.2480    2.7140 H   0  0  0  0  0  0  0  0  0  0  0  0
   -1.5060    0.2080    3.0180 H   0  0  0  0  0  0  0  0  0  0  0  0
   -1.0260    2.1270    0.7050 H   0  0  0  0  0  0  0  0  0  0  0  0
  1  9  1  0  0  0  0
  2 11  1  6  0  0  0
  2  1  1  0  0  0  0
  2  3  1  0  0  0  0
  3  4  1  0  0  0  0
  4  5  2  0  0  0  0
  4  8  1  0  0  0  0
  6 19  1  0  0  0  0
  6  2  1  0  0  0  0
  7  6  2  0  0  0  0
  8 14  1  0  0  0  0
 10  1  1  0  0  0  0
 12  3  1  0  0  0  0
 13  3  1  0  0  0  0
 15 16  1  0  0  0  0
 15 24  1  0  0  0  0
 15 22  1  0  0  0  0
 16 25  1  6  0  0  0
 16 18  1  0  0  0  0
 17 16  1  0  0  0  0
 18 27  1  1  0  0  0
 18 19  1  0  0  0  0
 18 20  1  0  0  0  0
 19 28  1  0  0  0  0
 20 32  1  0  0  0  0
 20 21  2  0  0  0  0
 23 15  1  0  0  0  0
 26 17  1  0  0  0  0
 29 36  1  0  0  0  0
 30 29  1  0  0  0  0
 30 37  1  0  0  0  0
 31 39  1  1  0  0  0
 31 30  1  0  0  0  0
 32 31  1  0  0  0  0
 33 31  1  0  0  0  0
 33 35  1  0  0  0  0
 34 33  2  0  0  0  0
 38 30  1  0  0  0  0
 40 32  1  0  0  0  0
M  END
$$$$
