DTT.pdb
 OpenBabel07022418163D

 43 42  0  0  1  0  0  0  0  0999 V2000
    3.6040   -4.2200   -0.3800 N   0  0  0  0  0  0  0  0  0  0  0  0
    2.5320   -3.5010    0.3070 C   0  0  1  0  0  0  0  0  0  0  0  0
    2.9320   -3.3560    1.7750 C   0  0  0  0  0  0  0  0  0  0  0  0
    1.9270   -2.6270    2.5700 C   0  0  0  0  0  0  0  0  0  0  0  0
    1.8670   -1.3610    2.5610 O   0  0  0  0  0  0  0  0  0  0  0  0
    2.3300   -2.1890   -0.3510 C   0  0  0  0  0  0  0  0  0  0  0  0
    3.2330   -1.6100   -1.0100 O   0  0  0  0  0  0  0  0  0  0  0  0
    1.0140   -3.3140    3.3540 O   0  0  0  0  0  0  0  0  0  0  0  0
    3.8020   -5.0560    0.2290 H   0  0  0  0  0  0  0  0  0  0  0  0
    3.1750   -4.6150   -1.2520 H   0  0  0  0  0  0  0  0  0  0  0  0
    1.6450   -4.1600    0.2840 H   0  0  0  0  0  0  0  0  0  0  0  0
    3.9470   -2.9120    1.8620 H   0  0  0  0  0  0  0  0  0  0  0  0
    3.0050   -4.3870    2.1750 H   0  0  0  0  0  0  0  0  0  0  0  0
    0.6080   -2.8820    4.1950 H   0  0  0  0  0  0  0  0  0  0  0  0
   -1.0650   -0.9550   -2.2790 C   0  0  0  0  0  0  0  0  0  0  0  0
    0.3160   -0.3490   -2.3440 C   0  0  1  0  0  0  0  0  0  0  0  0
    0.1890    0.8970   -2.9430 O   0  0  0  0  0  0  0  0  0  0  0  0
    0.9240   -0.2110   -0.9450 C   0  0  2  0  0  0  0  0  0  0  0  0
    1.0740   -1.4680   -0.2960 N   0  0  0  0  0  0  0  0  0  0  0  0
    0.1680    0.8230   -0.1720 C   0  0  0  0  0  0  0  0  0  0  0  0
    0.0860    2.0070   -0.6390 O   0  0  0  0  0  0  0  0  0  0  0  0
   -1.1280   -1.8160   -1.5940 H   0  0  0  0  0  0  0  0  0  0  0  0
   -1.3140   -1.3110   -3.3170 H   0  0  0  0  0  0  0  0  0  0  0  0
   -1.7780   -0.1390   -2.0580 H   0  0  0  0  0  0  0  0  0  0  0  0
    0.9990   -0.9290   -3.0070 H   0  0  0  0  0  0  0  0  0  0  0  0
   -0.7620    1.0700   -3.1140 H   0  0  0  0  0  0  0  0  0  0  0  0
    1.9280    0.1980   -1.1480 H   0  0  0  0  0  0  0  0  0  0  0  0
    0.3310   -1.9630    0.2530 H   0  0  0  0  0  0  0  0  0  0  0  0
   -1.2950    2.9250    3.8970 C   0  0  0  0  0  0  0  0  0  0  0  0
   -0.4610    2.0550    2.9910 C   0  0  1  0  0  0  0  0  0  0  0  0
    0.0860    1.0360    3.8160 O   0  0  0  0  0  0  0  0  0  0  0  0
   -1.2340    1.4500    1.8750 C   0  0  2  0  0  0  0  0  0  0  0  0
   -0.4670    0.5740    1.0440 N   0  0  0  0  0  0  0  0  0  0  0  0
   -2.0350    2.4700    1.1640 C   0  0  0  0  0  0  0  0  0  0  0  0
   -2.6540    3.3270    1.8740 O   0  0  0  0  0  0  0  0  0  0  0  0
   -2.1990    2.6030   -0.1930 O   0  0  0  0  0  0  0  0  0  0  0  0
   -2.3140    2.4950    3.9460 H   0  0  0  0  0  0  0  0  0  0  0  0
   -1.3620    3.9820    3.5900 H   0  0  0  0  0  0  0  0  0  0  0  0
   -0.8400    2.8430    4.9270 H   0  0  0  0  0  0  0  0  0  0  0  0
    0.3760    2.6580    2.6050 H   0  0  0  0  0  0  0  0  0  0  0  0
   -0.2290    0.1520    3.4590 H   0  0  0  0  0  0  0  0  0  0  0  0
   -2.0640    0.8110    2.3550 H   0  0  0  0  0  0  0  0  0  0  0  0
   -0.3720   -0.4180    1.4110 H   0  0  0  0  0  0  0  0  0  0  0  0
  1  9  1  0  0  0  0
  1  2  1  0  0  0  0
  2 11  1  6  0  0  0
  2  3  1  0  0  0  0
  3 12  1  0  0  0  0
  3 13  1  0  0  0  0
  3  4  1  0  0  0  0
  4  8  1  0  0  0  0
  5  4  2  0  0  0  0
  6 19  1  0  0  0  0
  6  2  1  0  0  0  0
  7  6  2  0  0  0  0
  8 14  1  0  0  0  0
 10  1  1  0  0  0  0
 15 24  1  0  0  0  0
 15 22  1  0  0  0  0
 16 25  1  6  0  0  0
 16 15  1  0  0  0  0
 16 18  1  0  0  0  0
 17 16  1  0  0  0  0
 18 27  1  6  0  0  0
 18 19  1  0  0  0  0
 18 20  1  0  0  0  0
 19 28  1  0  0  0  0
 20 33  1  0  0  0  0
 21 20  2  0  0  0  0
 23 15  1  0  0  0  0
 26 17  1  0  0  0  0
 29 37  1  0  0  0  0
 29 39  1  0  0  0  0
 30 40  1  6  0  0  0
 30 31  1  0  0  0  0
 30 29  1  0  0  0  0
 32 42  1  1  0  0  0
 32 30  1  0  0  0  0
 33 43  1  0  0  0  0
 33 32  1  0  0  0  0
 34 35  1  0  0  0  0
 34 32  1  0  0  0  0
 36 34  2  0  0  0  0
 38 29  1  0  0  0  0
 41 31  1  0  0  0  0
M  END
$$$$
