DTY.pdb
 OpenBabel07022418163D

 50 50  0  0  1  0  0  0  0  0999 V2000
    3.1210    1.9700    3.5740 N   0  0  0  0  0  0  0  0  0  0  0  0
    2.6690    0.5920    3.5700 C   0  0  1  0  0  0  0  0  0  0  0  0
    1.9350    0.2130    4.8230 C   0  0  0  0  0  0  0  0  0  0  0  0
    0.7260    1.0330    5.0500 C   0  0  0  0  0  0  0  0  0  0  0  0
    0.3660    1.9390    4.2800 O   0  0  0  0  0  0  0  0  0  0  0  0
    1.8970    0.2780    2.3400 C   0  0  0  0  0  0  0  0  0  0  0  0
    1.4430   -0.8840    2.2040 O   0  0  0  0  0  0  0  0  0  0  0  0
   -0.0260    0.7610    6.1850 O   0  0  0  0  0  0  0  0  0  0  0  0
    3.7660    2.0950    4.3850 H   0  0  0  0  0  0  0  0  0  0  0  0
    3.7490    2.0600    2.7190 H   0  0  0  0  0  0  0  0  0  0  0  0
    3.5900   -0.0360    3.5310 H   0  0  0  0  0  0  0  0  0  0  0  0
    1.6930   -0.8550    4.7640 H   0  0  0  0  0  0  0  0  0  0  0  0
    2.6310    0.3580    5.6720 H   0  0  0  0  0  0  0  0  0  0  0  0
   -0.6350    1.4470    6.6180 H   0  0  0  0  0  0  0  0  0  0  0  0
    2.9280    0.9220   -1.2920 C   0  0  0  0  0  0  0  0  0  0  0  0
    1.6760    0.1810   -0.8420 C   0  0  1  0  0  0  0  0  0  0  0  0
    2.0420   -1.0660   -0.3550 O   0  0  0  0  0  0  0  0  0  0  0  0
    0.9330    1.0060    0.1480 C   0  0  2  0  0  0  0  0  0  0  0  0
    1.6850    1.2750    1.3540 N   0  0  0  0  0  0  0  0  0  0  0  0
   -0.4230    0.4770    0.4680 C   0  0  0  0  0  0  0  0  0  0  0  0
   -0.7330    0.3780    1.6810 O   0  0  0  0  0  0  0  0  0  0  0  0
    2.6480    1.8470   -1.8490 H   0  0  0  0  0  0  0  0  0  0  0  0
    3.5470    0.2360   -1.9200 H   0  0  0  0  0  0  0  0  0  0  0  0
    3.5630    1.2300   -0.4520 H   0  0  0  0  0  0  0  0  0  0  0  0
    1.0570    0.0420   -1.7500 H   0  0  0  0  0  0  0  0  0  0  0  0
    2.1780   -1.7310   -1.0730 H   0  0  0  0  0  0  0  0  0  0  0  0
    0.7060    2.0080   -0.3430 H   0  0  0  0  0  0  0  0  0  0  0  0
    2.1000    2.2470    1.5220 H   0  0  0  0  0  0  0  0  0  0  0  0
   -0.2480   -5.5200   -3.3740 O   0  0  0  0  0  0  0  0  0  0  0  0
   -0.8520   -4.6000   -2.4980 C   0  0  0  0  0  0  0  0  0  0  0  0
   -0.1190   -3.9910   -1.5010 C   0  0  0  0  0  0  0  0  0  0  0  0
   -0.7460   -3.0940   -0.6620 C   0  0  0  0  0  0  0  0  0  0  0  0
   -2.0830   -2.7770   -0.7740 C   0  0  0  0  0  0  0  0  0  0  0  0
   -2.6970   -1.8060    0.1610 C   0  0  0  0  0  0  0  0  0  0  0  0
   -2.6200   -0.3990   -0.3350 C   0  0  2  0  0  0  0  0  0  0  0  0
   -1.3080    0.1080   -0.5580 N   0  0  0  0  0  0  0  0  0  0  0  0
   -3.3710    0.5380    0.5390 C   0  0  0  0  0  0  0  0  0  0  0  0
   -2.8430    1.6000    0.9010 O   0  0  0  0  0  0  0  0  0  0  0  0
   -2.7960   -3.4010   -1.7800 C   0  0  0  0  0  0  0  0  0  0  0  0
   -2.1860   -4.3020   -2.6310 C   0  0  0  0  0  0  0  0  0  0  0  0
   -4.6540    0.2600    0.9660 O   0  0  0  0  0  0  0  0  0  0  0  0
   -0.7520   -5.8340   -4.1740 H   0  0  0  0  0  0  0  0  0  0  0  0
    0.9210   -4.2420   -1.4200 H   0  0  0  0  0  0  0  0  0  0  0  0
   -0.1900   -2.5990    0.1340 H   0  0  0  0  0  0  0  0  0  0  0  0
   -3.7950   -2.0470    0.2520 H   0  0  0  0  0  0  0  0  0  0  0  0
   -2.2950   -1.9160    1.1880 H   0  0  0  0  0  0  0  0  0  0  0  0
   -3.1970   -0.3470   -1.3200 H   0  0  0  0  0  0  0  0  0  0  0  0
   -0.9500    0.2250   -1.5520 H   0  0  0  0  0  0  0  0  0  0  0  0
   -3.8660   -3.1800   -1.9090 H   0  0  0  0  0  0  0  0  0  0  0  0
   -2.7420   -4.7830   -3.4100 H   0  0  0  0  0  0  0  0  0  0  0  0
  1  9  1  0  0  0  0
  2 11  1  6  0  0  0
  2  1  1  0  0  0  0
  2  3  1  0  0  0  0
  3  4  1  0  0  0  0
  3 13  1  0  0  0  0
  4  8  1  0  0  0  0
  5  4  2  0  0  0  0
  6  2  1  0  0  0  0
  7  6  2  0  0  0  0
  8 14  1  0  0  0  0
 10  1  1  0  0  0  0
 12  3  1  0  0  0  0
 15 16  1  0  0  0  0
 15 24  1  0  0  0  0
 16 25  1  6  0  0  0
 16 17  1  0  0  0  0
 16 18  1  0  0  0  0
 18 27  1  6  0  0  0
 18 20  1  0  0  0  0
 18 19  1  0  0  0  0
 19 28  1  0  0  0  0
 19  6  1  0  0  0  0
 20 21  2  0  0  0  0
 22 15  1  0  0  0  0
 23 15  1  0  0  0  0
 26 17  1  0  0  0  0
 29 30  1  0  0  0  0
 30 31  1  0  0  0  0
 31 43  1  0  0  0  0
 31 32  2  0  0  0  0
 32 44  1  0  0  0  0
 33 32  1  0  0  0  0
 33 34  1  0  0  0  0
 34 45  1  0  0  0  0
 34 46  1  0  0  0  0
 35 47  1  6  0  0  0
 35 34  1  0  0  0  0
 35 37  1  0  0  0  0
 36 35  1  0  0  0  0
 36 20  1  0  0  0  0
 37 38  2  0  0  0  0
 37 41  1  0  0  0  0
 39 33  2  0  0  0  0
 40 30  2  0  0  0  0
 40 39  1  0  0  0  0
 42 29  1  0  0  0  0
 48 36  1  0  0  0  0
 49 39  1  0  0  0  0
 50 40  1  0  0  0  0
M  END
$$$$
