DVA.pdb
 OpenBabel07022418163D

 41 40  0  0  1  0  0  0  0  0999 V2000
   -2.3400   -1.7340   -1.5070 N   0  0  0  0  0  0  0  0  0  0  0  0
   -1.7700   -2.9220   -0.8590 C   0  0  1  0  0  0  0  0  0  0  0  0
   -1.3600   -3.8890   -1.9100 C   0  0  0  0  0  0  0  0  0  0  0  0
   -0.8040   -5.1390   -1.3800 C   0  0  0  0  0  0  0  0  0  0  0  0
   -0.7280   -5.4630   -0.1840 O   0  0  0  0  0  0  0  0  0  0  0  0
   -0.6270   -2.4400   -0.0030 C   0  0  0  0  0  0  0  0  0  0  0  0
    0.0140   -3.2210    0.7110 O   0  0  0  0  0  0  0  0  0  0  0  0
   -0.3000   -6.0800   -2.3010 O   0  0  0  0  0  0  0  0  0  0  0  0
   -2.6670   -1.0630   -0.7830 H   0  0  0  0  0  0  0  0  0  0  0  0
   -1.6970   -1.2660   -2.1470 H   0  0  0  0  0  0  0  0  0  0  0  0
   -2.5110   -3.3610   -0.1790 H   0  0  0  0  0  0  0  0  0  0  0  0
   -0.5880   -3.4030   -2.5600 H   0  0  0  0  0  0  0  0  0  0  0  0
   -2.2170   -4.1150   -2.6140 H   0  0  0  0  0  0  0  0  0  0  0  0
   -0.0700   -7.0170   -1.9910 H   0  0  0  0  0  0  0  0  0  0  0  0
    3.1270    0.5260    0.4910 C   0  0  0  0  0  0  0  0  0  0  0  0
    1.9110   -0.0470   -0.1390 C   0  0  0  0  0  0  0  0  0  0  0  0
    2.3130   -1.0940   -1.1340 C   0  0  0  0  0  0  0  0  0  0  0  0
    0.8570   -0.5470    0.8270 C   0  0  2  0  0  0  0  0  0  0  0  0
   -0.2450   -1.0760    0.0150 N   0  0  0  0  0  0  0  0  0  0  0  0
    0.3030    0.5050    1.6790 C   0  0  0  0  0  0  0  0  0  0  0  0
   -0.9180    0.8250    1.5490 O   0  0  0  0  0  0  0  0  0  0  0  0
    3.9610    0.4930   -0.2620 H   0  0  0  0  0  0  0  0  0  0  0  0
    3.0560    1.5900    0.7830 H   0  0  0  0  0  0  0  0  0  0  0  0
    3.5240   -0.0640    1.3540 H   0  0  0  0  0  0  0  0  0  0  0  0
    1.4250    0.7810   -0.7350 H   0  0  0  0  0  0  0  0  0  0  0  0
    2.6890   -2.0210   -0.6690 H   0  0  0  0  0  0  0  0  0  0  0  0
    1.4790   -1.3350   -1.8470 H   0  0  0  0  0  0  0  0  0  0  0  0
    3.1320   -0.6660   -1.7510 H   0  0  0  0  0  0  0  0  0  0  0  0
    1.2770   -1.4010    1.3700 H   0  0  0  0  0  0  0  0  0  0  0  0
   -0.7610   -0.4040   -0.5700 H   0  0  0  0  0  0  0  0  0  0  0  0
    0.3420    1.7560    4.9110 C   0  0  0  0  0  0  0  0  0  0  0  0
    0.3480    2.2720    3.4710 C   0  0  2  0  0  0  0  0  0  0  0  0
    1.0010    1.2400    2.6790 N   0  0  0  0  0  0  0  0  0  0  0  0
    1.0220    3.5670    3.3910 C   0  0  0  0  0  0  0  0  0  0  0  0
    2.0520    3.6970    2.6900 O   0  0  0  0  0  0  0  0  0  0  0  0
    0.5710    4.6860    4.0650 O   0  0  0  0  0  0  0  0  0  0  0  0
    1.3300    1.3400    5.1960 H   0  0  0  0  0  0  0  0  0  0  0  0
   -0.4660    1.0300    5.0810 H   0  0  0  0  0  0  0  0  0  0  0  0
    0.1850    2.6390    5.5790 H   0  0  0  0  0  0  0  0  0  0  0  0
   -0.7170    2.3850    3.1850 H   0  0  0  0  0  0  0  0  0  0  0  0
    2.0010    1.0020    2.8230 H   0  0  0  0  0  0  0  0  0  0  0  0
  1  2  1  0  0  0  0
  1  9  1  0  0  0  0
  2 11  1  1  0  0  0
  2  6  1  0  0  0  0
  3  4  1  0  0  0  0
  3  2  1  0  0  0  0
  4  5  2  0  0  0  0
  6 19  1  0  0  0  0
  6  7  2  0  0  0  0
  8 14  1  0  0  0  0
  8  4  1  0  0  0  0
 10  1  1  0  0  0  0
 12  3  1  0  0  0  0
 13  3  1  0  0  0  0
 15 23  1  0  0  0  0
 15 24  1  0  0  0  0
 16 15  1  0  0  0  0
 16 18  1  0  0  0  0
 17 26  1  0  0  0  0
 17 16  1  0  0  0  0
 18 29  1  1  0  0  0
 18 20  1  0  0  0  0
 19 18  1  0  0  0  0
 20 33  1  0  0  0  0
 21 20  2  0  0  0  0
 22 15  1  0  0  0  0
 25 16  1  0  0  0  0
 27 17  1  0  0  0  0
 28 17  1  0  0  0  0
 30 19  1  0  0  0  0
 31 38  1  0  0  0  0
 31 37  1  0  0  0  0
 31 39  1  0  0  0  0
 32 40  1  6  0  0  0
 32 31  1  0  0  0  0
 33 41  1  0  0  0  0
 33 32  1  0  0  0  0
 34 32  1  0  0  0  0
 34 36  1  0  0  0  0
 35 34  2  0  0  0  0
M  END
$$$$
