DVC.pdb
 OpenBabel07022418163D

 42 41  0  0  1  0  0  0  0  0999 V2000
    1.7870   -3.7070    1.5330 N   0  0  0  0  0  0  0  0  0  0  0  0
    2.4690   -2.6850    2.2590 C   0  0  1  0  0  0  0  0  0  0  0  0
    3.9820   -2.7720    2.0160 C   0  0  0  0  0  0  0  0  0  0  0  0
    4.5020   -4.0860    2.4570 C   0  0  0  0  0  0  0  0  0  0  0  0
    5.7070   -4.3310    2.3370 O   0  0  0  0  0  0  0  0  0  0  0  0
    2.0740   -1.3120    1.8290 C   0  0  0  0  0  0  0  0  0  0  0  0
    2.6070   -0.3230    2.3960 O   0  0  0  0  0  0  0  0  0  0  0  0
    3.6350   -5.0010    2.9900 O   0  0  0  0  0  0  0  0  0  0  0  0
    2.3710   -4.2160    0.8460 H   0  0  0  0  0  0  0  0  0  0  0  0
    1.3870   -4.4370    2.1740 H   0  0  0  0  0  0  0  0  0  0  0  0
    2.3260   -2.8520    3.3370 H   0  0  0  0  0  0  0  0  0  0  0  0
    4.5140   -2.0010    2.6100 H   0  0  0  0  0  0  0  0  0  0  0  0
    4.2330   -2.5890    0.9600 H   0  0  0  0  0  0  0  0  0  0  0  0
    3.9710   -5.8980    3.3670 H   0  0  0  0  0  0  0  0  0  0  0  0
    0.6580   -0.3550   -2.0140 C   0  0  0  0  0  0  0  0  0  0  0  0
    1.2320    0.5640   -0.9790 C   0  0  0  0  0  0  0  0  0  0  0  0
    1.3130    1.9960   -1.3560 C   0  0  0  0  0  0  0  0  0  0  0  0
    0.7630    0.3270    0.4150 C   0  0  2  0  0  0  0  0  0  0  0  0
    1.1330   -1.0440    0.8180 N   0  0  0  0  0  0  0  0  0  0  0  0
   -0.6220    0.5110    0.7360 C   0  0  0  0  0  0  0  0  0  0  0  0
   -1.2510   -0.4670    1.2390 O   0  0  0  0  0  0  0  0  0  0  0  0
    1.2570   -0.2210   -2.9430 H   0  0  0  0  0  0  0  0  0  0  0  0
    0.8230   -1.3880   -1.6820 H   0  0  0  0  0  0  0  0  0  0  0  0
   -0.3820   -0.1240   -2.2980 H   0  0  0  0  0  0  0  0  0  0  0  0
    2.3230    0.2280   -0.9250 H   0  0  0  0  0  0  0  0  0  0  0  0
    2.2400    2.1770   -1.9600 H   0  0  0  0  0  0  0  0  0  0  0  0
    0.4190    2.4030   -1.8600 H   0  0  0  0  0  0  0  0  0  0  0  0
    1.4580    2.6060   -0.4400 H   0  0  0  0  0  0  0  0  0  0  0  0
    1.3400    1.0590    1.0300 H   0  0  0  0  0  0  0  0  0  0  0  0
    0.6860   -1.8580    0.3430 H   0  0  0  0  0  0  0  0  0  0  0  0
   -1.3870    1.6950    0.5510 N   0  0  0  0  0  0  0  0  0  0  0  0
   -2.7960    1.8060    0.9030 C   0  0  1  0  0  0  0  0  0  0  0  0
   -3.5850    0.8660    0.0490 C   0  0  0  0  0  0  0  0  0  0  0  0
   -5.3610    0.9560    0.4400 S   0  0  0  0  0  0  0  0  0  0  0  0
   -2.9600    1.5290    2.3350 C   0  0  0  0  0  0  0  0  0  0  0  0
   -1.9780    1.2660    3.0550 O   0  0  0  0  0  0  0  0  0  0  0  0
   -4.2260    1.5500    2.9410 O   0  0  0  0  0  0  0  0  0  0  0  0
   -0.8530    2.4760    0.1440 H   0  0  0  0  0  0  0  0  0  0  0  0
   -3.1540    2.8450    0.7090 H   0  0  0  0  0  0  0  0  0  0  0  0
   -3.4930    1.2050   -1.0220 H   0  0  0  0  0  0  0  0  0  0  0  0
   -3.2750   -0.1810    0.1230 H   0  0  0  0  0  0  0  0  0  0  0  0
   -5.6190    0.0230    1.4720 H   0  0  0  0  0  0  0  0  0  0  0  0
  1 10  1  0  0  0  0
  1  2  1  0  0  0  0
  2 11  1  1  0  0  0
  3  2  1  0  0  0  0
  3  4  1  0  0  0  0
  3 12  1  0  0  0  0
  4  8  1  0  0  0  0
  5  4  2  0  0  0  0
  6  2  1  0  0  0  0
  6  7  2  0  0  0  0
  8 14  1  0  0  0  0
  9  1  1  0  0  0  0
 13  3  1  0  0  0  0
 15 23  1  0  0  0  0
 15 16  1  0  0  0  0
 16 25  1  0  0  0  0
 16 18  1  0  0  0  0
 17 16  1  0  0  0  0
 17 28  1  0  0  0  0
 18 20  1  0  0  0  0
 18 19  1  0  0  0  0
 18 29  1  1  0  0  0
 19  6  1  0  0  0  0
 20 21  2  0  0  0  0
 22 15  1  0  0  0  0
 24 15  1  0  0  0  0
 26 17  1  0  0  0  0
 27 17  1  0  0  0  0
 30 19  1  0  0  0  0
 31 20  1  0  0  0  0
 31 32  1  0  0  0  0
 32 39  1  6  0  0  0
 32 35  1  0  0  0  0
 33 41  1  0  0  0  0
 33 34  1  0  0  0  0
 33 32  1  0  0  0  0
 34 42  1  0  0  0  0
 35 37  2  0  0  0  0
 35 36  1  0  0  0  0
 38 31  1  0  0  0  0
 40 33  1  0  0  0  0
M  END
$$$$
