DVD.pdb
 OpenBabel07022418163D

 44 43  0  0  1  0  0  0  0  0999 V2000
    2.4630   -2.3690    2.1130 N   0  0  0  0  0  0  0  0  0  0  0  0
    1.7080   -1.7610    3.1910 C   0  0  1  0  0  0  0  0  0  0  0  0
    2.5720   -1.3300    4.3340 C   0  0  0  0  0  0  0  0  0  0  0  0
    3.5900   -0.3410    3.9710 C   0  0  0  0  0  0  0  0  0  0  0  0
    3.7260    0.1010    2.8200 O   0  0  0  0  0  0  0  0  0  0  0  0
    0.8140   -0.6860    2.7020 C   0  0  0  0  0  0  0  0  0  0  0  0
    0.1070   -0.0820    3.5500 O   0  0  0  0  0  0  0  0  0  0  0  0
    4.4410    0.1200    4.9650 O   0  0  0  0  0  0  0  0  0  0  0  0
    2.9160   -3.2360    2.5060 H   0  0  0  0  0  0  0  0  0  0  0  0
    1.7400   -2.7330    1.4250 H   0  0  0  0  0  0  0  0  0  0  0  0
    1.0360   -2.5740    3.5850 H   0  0  0  0  0  0  0  0  0  0  0  0
    3.1020   -2.2370    4.7070 H   0  0  0  0  0  0  0  0  0  0  0  0
    1.9200   -0.9920    5.1530 H   0  0  0  0  0  0  0  0  0  0  0  0
    4.8750    1.0430    4.8770 H   0  0  0  0  0  0  0  0  0  0  0  0
   -0.4460    2.9430   -0.1220 C   0  0  0  0  0  0  0  0  0  0  0  0
    0.5650    1.8950    0.2800 C   0  0  0  0  0  0  0  0  0  0  0  0
    1.4620    2.5020    1.3420 C   0  0  0  0  0  0  0  0  0  0  0  0
   -0.1630    0.7360    0.9190 C   0  0  2  0  0  0  0  0  0  0  0  0
    0.7210   -0.3130    1.3350 N   0  0  0  0  0  0  0  0  0  0  0  0
   -1.2240    0.1820    0.0270 C   0  0  0  0  0  0  0  0  0  0  0  0
   -2.0750    0.9780   -0.4190 O   0  0  0  0  0  0  0  0  0  0  0  0
   -0.8190    2.8060   -1.1580 H   0  0  0  0  0  0  0  0  0  0  0  0
   -1.3300    2.9600    0.5700 H   0  0  0  0  0  0  0  0  0  0  0  0
   -0.0080    3.9690   -0.0940 H   0  0  0  0  0  0  0  0  0  0  0  0
    1.1250    1.6110   -0.6240 H   0  0  0  0  0  0  0  0  0  0  0  0
    1.3760    3.6160    1.3650 H   0  0  0  0  0  0  0  0  0  0  0  0
    2.5280    2.3010    1.0670 H   0  0  0  0  0  0  0  0  0  0  0  0
    1.2660    2.1040    2.3500 H   0  0  0  0  0  0  0  0  0  0  0  0
   -0.6900    1.1400    1.8060 H   0  0  0  0  0  0  0  0  0  0  0  0
    1.3370   -0.8520    0.6640 H   0  0  0  0  0  0  0  0  0  0  0  0
   -1.2840   -1.1780   -0.3100 N   0  0  0  0  0  0  0  0  0  0  0  0
   -2.2870   -1.7730   -1.1740 C   0  0  1  0  0  0  0  0  0  0  0  0
   -1.5830   -2.5280   -2.2670 C   0  0  0  0  0  0  0  0  0  0  0  0
   -0.7360   -1.6280   -3.0510 C   0  0  0  0  0  0  0  0  0  0  0  0
   -0.6830   -0.4120   -2.7650 O   0  0  0  0  0  0  0  0  0  0  0  0
   -3.2150   -2.6360   -0.4150 C   0  0  0  0  0  0  0  0  0  0  0  0
   -3.0730   -2.7740    0.8130 O   0  0  0  0  0  0  0  0  0  0  0  0
    0.0380   -2.0840   -4.1400 O   0  0  0  0  0  0  0  0  0  0  0  0
   -4.2350   -3.2870   -1.0670 O   0  0  0  0  0  0  0  0  0  0  0  0
   -0.5600   -1.8190    0.0810 H   0  0  0  0  0  0  0  0  0  0  0  0
   -2.8610   -0.9250   -1.6000 H   0  0  0  0  0  0  0  0  0  0  0  0
   -2.3740   -3.0250   -2.8720 H   0  0  0  0  0  0  0  0  0  0  0  0
   -0.9230   -3.3220   -1.8490 H   0  0  0  0  0  0  0  0  0  0  0  0
    0.9600   -1.6890   -4.2860 H   0  0  0  0  0  0  0  0  0  0  0  0
  1  9  1  0  0  0  0
  1  2  1  0  0  0  0
  2 11  1  1  0  0  0
  2  3  1  0  0  0  0
  3 12  1  0  0  0  0
  3 13  1  0  0  0  0
  4  3  1  0  0  0  0
  4  8  1  0  0  0  0
  5  4  2  0  0  0  0
  6  2  1  0  0  0  0
  6  7  2  0  0  0  0
 10  1  1  0  0  0  0
 14  8  1  0  0  0  0
 15 24  1  0  0  0  0
 15 16  1  0  0  0  0
 15 23  1  0  0  0  0
 16 18  1  0  0  0  0
 16 17  1  0  0  0  0
 17 26  1  0  0  0  0
 17 28  1  0  0  0  0
 18 19  1  0  0  0  0
 18 29  1  1  0  0  0
 19  6  1  0  0  0  0
 20 18  1  0  0  0  0
 21 20  2  0  0  0  0
 22 15  1  0  0  0  0
 25 16  1  0  0  0  0
 27 17  1  0  0  0  0
 30 19  1  0  0  0  0
 31 20  1  0  0  0  0
 31 40  1  0  0  0  0
 32 41  1  6  0  0  0
 32 36  1  0  0  0  0
 32 31  1  0  0  0  0
 33 43  1  0  0  0  0
 33 32  1  0  0  0  0
 34 35  2  0  0  0  0
 34 33  1  0  0  0  0
 36 37  1  0  0  0  0
 38 34  1  0  0  0  0
 39 36  2  0  0  0  0
 42 33  1  0  0  0  0
 44 38  1  0  0  0  0
M  END
$$$$
