DVF.pdb
 OpenBabel07022418163D

 51 51  0  0  1  0  0  0  0  0999 V2000
    3.0480    1.0800    4.8290 N   0  0  0  0  0  0  0  0  0  0  0  0
    2.6760    0.0650    3.8960 C   0  0  1  0  0  0  0  0  0  0  0  0
    1.2810   -0.4210    4.2240 C   0  0  0  0  0  0  0  0  0  0  0  0
    0.2930    0.6960    4.1440 C   0  0  0  0  0  0  0  0  0  0  0  0
    0.6650    1.8560    3.8350 O   0  0  0  0  0  0  0  0  0  0  0  0
    2.6470    0.5620    2.4910 C   0  0  0  0  0  0  0  0  0  0  0  0
    2.9340    1.7670    2.2720 O   0  0  0  0  0  0  0  0  0  0  0  0
   -1.0520    0.4970    4.4060 O   0  0  0  0  0  0  0  0  0  0  0  0
    3.9410    0.8500    5.3200 H   0  0  0  0  0  0  0  0  0  0  0  0
    2.3310    1.1780    5.5980 H   0  0  0  0  0  0  0  0  0  0  0  0
    3.3460   -0.8140    3.9900 H   0  0  0  0  0  0  0  0  0  0  0  0
    1.2670   -0.8080    5.2680 H   0  0  0  0  0  0  0  0  0  0  0  0
    0.9690   -1.2560    3.5680 H   0  0  0  0  0  0  0  0  0  0  0  0
   -1.6170    1.2980    4.6850 H   0  0  0  0  0  0  0  0  0  0  0  0
    4.6390   -0.5340   -0.3780 C   0  0  0  0  0  0  0  0  0  0  0  0
    3.2030   -0.6420   -0.8540 C   0  0  0  0  0  0  0  0  0  0  0  0
    3.1540   -0.0940   -2.2630 C   0  0  0  0  0  0  0  0  0  0  0  0
    2.2760    0.1860    0.0250 C   0  0  2  0  0  0  0  0  0  0  0  0
    2.3150   -0.2490    1.3920 N   0  0  0  0  0  0  0  0  0  0  0  0
    0.8930   -0.0140   -0.4780 C   0  0  0  0  0  0  0  0  0  0  0  0
    0.6620    0.3140   -1.6800 O   0  0  0  0  0  0  0  0  0  0  0  0
    4.8910    0.5260   -0.1690 H   0  0  0  0  0  0  0  0  0  0  0  0
    5.2730   -0.8710   -1.2310 H   0  0  0  0  0  0  0  0  0  0  0  0
    4.8480   -1.1850    0.4900 H   0  0  0  0  0  0  0  0  0  0  0  0
    2.9040   -1.6990   -0.8890 H   0  0  0  0  0  0  0  0  0  0  0  0
    2.8390    0.9670   -2.2370 H   0  0  0  0  0  0  0  0  0  0  0  0
    4.1670   -0.1060   -2.7130 H   0  0  0  0  0  0  0  0  0  0  0  0
    2.4190   -0.6390   -2.8920 H   0  0  0  0  0  0  0  0  0  0  0  0
    2.5300    1.2480   -0.1090 H   0  0  0  0  0  0  0  0  0  0  0  0
    2.0780   -1.2480    1.5830 H   0  0  0  0  0  0  0  0  0  0  0  0
   -0.1720   -0.5340    0.2670 N   0  0  0  0  0  0  0  0  0  0  0  0
   -1.4940   -0.6890   -0.3260 C   0  0  1  0  0  0  0  0  0  0  0  0
   -1.9030   -2.1270   -0.3740 C   0  0  0  0  0  0  0  0  0  0  0  0
   -3.2350   -2.3460   -0.9620 C   0  0  0  0  0  0  0  0  0  0  0  0
   -4.3560   -2.4250   -0.1710 C   0  0  0  0  0  0  0  0  0  0  0  0
   -5.6100   -2.6270   -0.7550 C   0  0  0  0  0  0  0  0  0  0  0  0
   -5.7480   -2.7510   -2.1180 C   0  0  0  0  0  0  0  0  0  0  0  0
   -4.6300   -2.6720   -2.8970 C   0  0  0  0  0  0  0  0  0  0  0  0
   -3.3880   -2.4720   -2.3270 C   0  0  0  0  0  0  0  0  0  0  0  0
   -2.4390    0.1110    0.4600 C   0  0  0  0  0  0  0  0  0  0  0  0
   -2.0740    0.7200    1.4910 O   0  0  0  0  0  0  0  0  0  0  0  0
   -3.7580    0.2090    0.0730 O   0  0  0  0  0  0  0  0  0  0  0  0
   -0.0040   -0.8090    1.2590 H   0  0  0  0  0  0  0  0  0  0  0  0
   -1.4380   -0.3350   -1.3980 H   0  0  0  0  0  0  0  0  0  0  0  0
   -1.9620   -2.5460    0.6780 H   0  0  0  0  0  0  0  0  0  0  0  0
   -1.1230   -2.7730   -0.8520 H   0  0  0  0  0  0  0  0  0  0  0  0
   -4.2740   -2.3360    0.8950 H   0  0  0  0  0  0  0  0  0  0  0  0
   -6.5050   -2.6920   -0.1520 H   0  0  0  0  0  0  0  0  0  0  0  0
   -6.7040   -2.9070   -2.5960 H   0  0  0  0  0  0  0  0  0  0  0  0
   -4.6970   -2.7650   -3.9780 H   0  0  0  0  0  0  0  0  0  0  0  0
   -2.4810   -2.4060   -2.9290 H   0  0  0  0  0  0  0  0  0  0  0  0
  1  9  1  0  0  0  0
  1 10  1  0  0  0  0
  2 11  1  1  0  0  0
  2  3  1  0  0  0  0
  2  1  1  0  0  0  0
  3 12  1  0  0  0  0
  4  3  1  0  0  0  0
  4  8  1  0  0  0  0
  5  4  2  0  0  0  0
  6  2  1  0  0  0  0
  7  6  2  0  0  0  0
  8 14  1  0  0  0  0
 13  3  1  0  0  0  0
 15 22  1  0  0  0  0
 15 24  1  0  0  0  0
 16 15  1  0  0  0  0
 16 18  1  0  0  0  0
 17 26  1  0  0  0  0
 17 16  1  0  0  0  0
 18 29  1  6  0  0  0
 18 19  1  0  0  0  0
 19 30  1  0  0  0  0
 19  6  1  0  0  0  0
 20 18  1  0  0  0  0
 20 31  1  0  0  0  0
 21 20  2  0  0  0  0
 23 15  1  0  0  0  0
 25 16  1  0  0  0  0
 27 17  1  0  0  0  0
 28 17  1  0  0  0  0
 31 43  1  0  0  0  0
 32 44  1  6  0  0  0
 32 31  1  0  0  0  0
 32 40  1  0  0  0  0
 33 32  1  0  0  0  0
 33 45  1  0  0  0  0
 34 33  1  0  0  0  0
 34 35  1  0  0  0  0
 35 47  1  0  0  0  0
 36 35  2  0  0  0  0
 36 48  1  0  0  0  0
 37 36  1  0  0  0  0
 38 39  1  0  0  0  0
 38 37  2  0  0  0  0
 39 34  2  0  0  0  0
 40 41  1  0  0  0  0
 42 40  2  0  0  0  0
 46 33  1  0  0  0  0
 49 37  1  0  0  0  0
 50 38  1  0  0  0  0
 51 39  1  0  0  0  0
M  END
$$$$
