DVG.pdb
 OpenBabel07022418163D

 38 37  0  0  1  0  0  0  0  0999 V2000
   -0.7180   -0.6150    3.8570 N   0  0  0  0  0  0  0  0  0  0  0  0
   -1.2110   -1.7150    3.0810 C   0  0  1  0  0  0  0  0  0  0  0  0
   -2.6620   -2.0090    3.3650 C   0  0  0  0  0  0  0  0  0  0  0  0
   -3.1650   -3.1540    2.5660 C   0  0  0  0  0  0  0  0  0  0  0  0
   -3.7180   -3.0280    1.4380 O   0  0  0  0  0  0  0  0  0  0  0  0
   -0.9050   -1.4980    1.6540 C   0  0  0  0  0  0  0  0  0  0  0  0
   -1.3140   -2.2810    0.7610 O   0  0  0  0  0  0  0  0  0  0  0  0
   -3.0370   -4.4510    3.0610 O   0  0  0  0  0  0  0  0  0  0  0  0
   -1.2610   -0.5150    4.7600 H   0  0  0  0  0  0  0  0  0  0  0  0
    0.2810   -0.7940    4.0910 H   0  0  0  0  0  0  0  0  0  0  0  0
   -0.6510   -2.6420    3.3690 H   0  0  0  0  0  0  0  0  0  0  0  0
   -3.2980   -1.1050    3.1750 H   0  0  0  0  0  0  0  0  0  0  0  0
   -2.7710   -2.2490    4.4450 H   0  0  0  0  0  0  0  0  0  0  0  0
   -3.4830   -5.2470    2.5860 H   0  0  0  0  0  0  0  0  0  0  0  0
    0.7610    2.2700    0.2910 C   0  0  0  0  0  0  0  0  0  0  0  0
   -0.0610    1.2990   -0.5420 C   0  0  0  0  0  0  0  0  0  0  0  0
   -1.5120    1.5980   -0.2430 C   0  0  0  0  0  0  0  0  0  0  0  0
    0.1990   -0.1230   -0.1500 C   0  0  2  0  0  0  0  0  0  0  0  0
   -0.1250   -0.3820    1.2360 N   0  0  0  0  0  0  0  0  0  0  0  0
    1.6050   -0.5520   -0.4560 C   0  0  0  0  0  0  0  0  0  0  0  0
    2.2670   -1.0660    0.4880 O   0  0  0  0  0  0  0  0  0  0  0  0
    1.7270    1.8410    0.6290 H   0  0  0  0  0  0  0  0  0  0  0  0
    0.1670    2.6950    1.1020 H   0  0  0  0  0  0  0  0  0  0  0  0
    1.0630    3.1220   -0.3770 H   0  0  0  0  0  0  0  0  0  0  0  0
    0.1430    1.4740   -1.6250 H   0  0  0  0  0  0  0  0  0  0  0  0
   -1.5840    2.6650    0.0440 H   0  0  0  0  0  0  0  0  0  0  0  0
   -2.1620    1.4900   -1.1420 H   0  0  0  0  0  0  0  0  0  0  0  0
   -1.8840    0.9860    0.6050 H   0  0  0  0  0  0  0  0  0  0  0  0
   -0.4210   -0.8040   -0.7640 H   0  0  0  0  0  0  0  0  0  0  0  0
    0.2320    0.2830    1.9680 H   0  0  0  0  0  0  0  0  0  0  0  0
    2.2050   -0.4160   -1.7100 N   0  0  0  0  0  0  0  0  0  0  0  0
    3.5500   -0.8550   -1.9250 C   0  0  0  0  0  0  0  0  0  0  0  0
    4.5470   -0.1620   -1.0680 C   0  0  0  0  0  0  0  0  0  0  0  0
    4.2160    0.7380   -0.2410 O   0  0  0  0  0  0  0  0  0  0  0  0
    5.8990   -0.4680   -1.1310 O   0  0  0  0  0  0  0  0  0  0  0  0
    1.6360    0.0150   -2.4750 H   0  0  0  0  0  0  0  0  0  0  0  0
    3.8770   -0.7840   -2.9760 H   0  0  0  0  0  0  0  0  0  0  0  0
    3.5940   -1.9430   -1.6220 H   0  0  0  0  0  0  0  0  0  0  0  0
  1 10  1  0  0  0  0
  1  9  1  0  0  0  0
  2  3  1  0  0  0  0
  2 11  1  1  0  0  0
  2  1  1  0  0  0  0
  3 13  1  0  0  0  0
  4  8  1  0  0  0  0
  4  3  1  0  0  0  0
  5  4  2  0  0  0  0
  6  2  1  0  0  0  0
  7  6  2  0  0  0  0
 12  3  1  0  0  0  0
 14  8  1  0  0  0  0
 15 22  1  0  0  0  0
 15 23  1  0  0  0  0
 16 17  1  0  0  0  0
 16 18  1  0  0  0  0
 16 15  1  0  0  0  0
 17 26  1  0  0  0  0
 17 28  1  0  0  0  0
 18 29  1  6  0  0  0
 18 19  1  0  0  0  0
 19  6  1  0  0  0  0
 19 30  1  0  0  0  0
 20 18  1  0  0  0  0
 20 21  2  0  0  0  0
 24 15  1  0  0  0  0
 25 16  1  0  0  0  0
 27 17  1  0  0  0  0
 31 20  1  0  0  0  0
 32 31  1  0  0  0  0
 32 38  1  0  0  0  0
 32 33  1  0  0  0  0
 33 34  1  0  0  0  0
 35 33  2  0  0  0  0
 36 31  1  0  0  0  0
 37 32  1  0  0  0  0
M  END
$$$$
