DVI.pdb
 OpenBabel07022418163D

 50 49  0  0  1  0  0  0  0  0999 V2000
    4.0170   -0.8600    3.2030 N   0  0  0  0  0  0  0  0  0  0  0  0
    3.1350   -1.2210    2.1140 C   0  0  1  0  0  0  0  0  0  0  0  0
    2.0300   -2.0890    2.7060 C   0  0  0  0  0  0  0  0  0  0  0  0
    1.2810   -1.3210    3.7570 C   0  0  0  0  0  0  0  0  0  0  0  0
    1.5730   -0.1350    4.0570 O   0  0  0  0  0  0  0  0  0  0  0  0
    2.5660   -0.0230    1.4460 C   0  0  0  0  0  0  0  0  0  0  0  0
    2.8920    1.1170    1.8710 O   0  0  0  0  0  0  0  0  0  0  0  0
    0.2250   -1.8980    4.4440 O   0  0  0  0  0  0  0  0  0  0  0  0
    4.1350   -1.7160    3.7960 H   0  0  0  0  0  0  0  0  0  0  0  0
    4.9490   -0.5580    2.9010 H   0  0  0  0  0  0  0  0  0  0  0  0
    3.6770   -1.8530    1.3860 H   0  0  0  0  0  0  0  0  0  0  0  0
    2.4640   -2.9680    3.2150 H   0  0  0  0  0  0  0  0  0  0  0  0
    1.3620   -2.4120    1.8890 H   0  0  0  0  0  0  0  0  0  0  0  0
   -0.0640   -1.4860    5.3230 H   0  0  0  0  0  0  0  0  0  0  0  0
    1.2020    0.0310   -2.5930 C   0  0  0  0  0  0  0  0  0  0  0  0
    1.5720    1.1950   -1.7290 C   0  0  0  0  0  0  0  0  0  0  0  0
    3.0790    1.3480   -1.7700 C   0  0  0  0  0  0  0  0  0  0  0  0
    1.1160    1.0710   -0.3040 C   0  0  2  0  0  0  0  0  0  0  0  0
    1.6750   -0.0910    0.3530 N   0  0  0  0  0  0  0  0  0  0  0  0
   -0.3390    1.1330   -0.1330 C   0  0  0  0  0  0  0  0  0  0  0  0
   -1.0650    2.0500   -0.6100 O   0  0  0  0  0  0  0  0  0  0  0  0
    1.6200   -0.9320   -2.2530 H   0  0  0  0  0  0  0  0  0  0  0  0
    0.0900   -0.0340   -2.7600 H   0  0  0  0  0  0  0  0  0  0  0  0
    1.6290    0.2200   -3.6010 H   0  0  0  0  0  0  0  0  0  0  0  0
    1.1540    2.1080   -2.2000 H   0  0  0  0  0  0  0  0  0  0  0  0
    3.4210    2.1640   -1.0830 H   0  0  0  0  0  0  0  0  0  0  0  0
    3.5970    0.3880   -1.5080 H   0  0  0  0  0  0  0  0  0  0  0  0
    3.4350    1.6490   -2.7780 H   0  0  0  0  0  0  0  0  0  0  0  0
    1.5430    1.9610    0.2380 H   0  0  0  0  0  0  0  0  0  0  0  0
    1.4250   -1.0710    0.0240 H   0  0  0  0  0  0  0  0  0  0  0  0
   -3.3990   -3.5150    0.2760 C   0  0  0  0  0  0  0  0  0  0  0  0
   -2.5800   -2.3720    0.8150 C   0  0  0  0  0  0  0  0  0  0  0  0
   -3.0830   -1.0840    0.2040 C   0  0  2  0  0  0  0  0  0  0  0  0
   -2.9790   -1.0700   -1.2860 C   0  0  0  0  0  0  0  0  0  0  0  0
   -2.4010    0.1230    0.8060 C   0  0  2  0  0  0  0  0  0  0  0  0
   -0.9740    0.1020    0.6130 N   0  0  0  0  0  0  0  0  0  0  0  0
   -2.7590    0.2530    2.2500 C   0  0  0  0  0  0  0  0  0  0  0  0
   -3.9440    0.2920    2.6530 O   0  0  0  0  0  0  0  0  0  0  0  0
   -1.7460    0.3330    3.1920 O   0  0  0  0  0  0  0  0  0  0  0  0
   -2.7260   -4.4160    0.1960 H   0  0  0  0  0  0  0  0  0  0  0  0
   -3.7600   -3.3180   -0.7550 H   0  0  0  0  0  0  0  0  0  0  0  0
   -4.2440   -3.7840    0.9560 H   0  0  0  0  0  0  0  0  0  0  0  0
   -2.8030   -2.3070    1.9070 H   0  0  0  0  0  0  0  0  0  0  0  0
   -1.5230   -2.5590    0.6270 H   0  0  0  0  0  0  0  0  0  0  0  0
   -4.1590   -1.0070    0.4690 H   0  0  0  0  0  0  0  0  0  0  0  0
   -3.9370   -1.3920   -1.7420 H   0  0  0  0  0  0  0  0  0  0  0  0
   -2.2110   -1.7820   -1.6440 H   0  0  0  0  0  0  0  0  0  0  0  0
   -2.7150   -0.0850   -1.7140 H   0  0  0  0  0  0  0  0  0  0  0  0
   -2.8010    1.0210    0.2940 H   0  0  0  0  0  0  0  0  0  0  0  0
   -0.4300   -0.6840    1.0340 H   0  0  0  0  0  0  0  0  0  0  0  0
  1  9  1  0  0  0  0
  2 11  1  6  0  0  0
  2  3  1  0  0  0  0
  2  1  1  0  0  0  0
  3 12  1  0  0  0  0
  3  4  1  0  0  0  0
  4  5  2  0  0  0  0
  4  8  1  0  0  0  0
  6  7  2  0  0  0  0
  6  2  1  0  0  0  0
  8 14  1  0  0  0  0
 10  1  1  0  0  0  0
 13  3  1  0  0  0  0
 15 22  1  0  0  0  0
 15 16  1  0  0  0  0
 16 18  1  0  0  0  0
 17 16  1  0  0  0  0
 17 27  1  0  0  0  0
 17 26  1  0  0  0  0
 18 20  1  0  0  0  0
 18 29  1  1  0  0  0
 18 19  1  0  0  0  0
 19  6  1  0  0  0  0
 20 36  1  0  0  0  0
 21 20  2  0  0  0  0
 23 15  1  0  0  0  0
 24 15  1  0  0  0  0
 25 16  1  0  0  0  0
 28 17  1  0  0  0  0
 30 19  1  0  0  0  0
 31 32  1  0  0  0  0
 31 42  1  0  0  0  0
 32 43  1  0  0  0  0
 33 45  1  1  0  0  0
 33 35  1  0  0  0  0
 33 32  1  0  0  0  0
 34 33  1  0  0  0  0
 35 49  1  6  0  0  0
 35 37  1  0  0  0  0
 36 35  1  0  0  0  0
 36 50  1  0  0  0  0
 37 38  2  0  0  0  0
 37 39  1  0  0  0  0
 40 31  1  0  0  0  0
 41 31  1  0  0  0  0
 44 32  1  0  0  0  0
 46 34  1  0  0  0  0
 47 34  1  0  0  0  0
 48 34  1  0  0  0  0
M  END
$$$$
