DVK.pdb
 OpenBabel07022418163D

 52 51  0  0  1  0  0  0  0  0999 V2000
    3.1980   -1.7870    4.8930 N   0  0  0  0  0  0  0  0  0  0  0  0
    3.0880   -1.5280    3.4690 C   0  0  1  0  0  0  0  0  0  0  0  0
    2.7220   -2.8310    2.7760 C   0  0  0  0  0  0  0  0  0  0  0  0
    3.8070   -3.8110    3.0570 C   0  0  0  0  0  0  0  0  0  0  0  0
    3.7670   -4.9900    2.6000 O   0  0  0  0  0  0  0  0  0  0  0  0
    2.0990   -0.4660    3.2260 C   0  0  0  0  0  0  0  0  0  0  0  0
    1.4990    0.0700    4.2100 O   0  0  0  0  0  0  0  0  0  0  0  0
    4.9070   -3.4840    3.8260 O   0  0  0  0  0  0  0  0  0  0  0  0
    2.4720   -1.2390    5.4070 H   0  0  0  0  0  0  0  0  0  0  0  0
    2.9850   -2.8060    5.1130 H   0  0  0  0  0  0  0  0  0  0  0  0
    4.1130   -1.2460    3.1280 H   0  0  0  0  0  0  0  0  0  0  0  0
    1.7370   -3.1970    3.0700 H   0  0  0  0  0  0  0  0  0  0  0  0
    2.7850   -2.6240    1.6680 H   0  0  0  0  0  0  0  0  0  0  0  0
    5.4350   -4.1380    4.3790 H   0  0  0  0  0  0  0  0  0  0  0  0
    0.3770    3.3630    0.8870 C   0  0  0  0  0  0  0  0  0  0  0  0
    1.4120    2.2850    1.1130 C   0  0  0  0  0  0  0  0  0  0  0  0
    2.1470    1.9970   -0.1650 C   0  0  0  0  0  0  0  0  0  0  0  0
    0.7780    1.0670    1.7220 C   0  0  2  0  0  0  0  0  0  0  0  0
    1.7540    0.0200    1.9460 N   0  0  0  0  0  0  0  0  0  0  0  0
   -0.3900    0.5710    0.9450 C   0  0  0  0  0  0  0  0  0  0  0  0
   -1.3370    1.3660    0.6620 O   0  0  0  0  0  0  0  0  0  0  0  0
   -0.1360    3.2390   -0.0940 H   0  0  0  0  0  0  0  0  0  0  0  0
    0.8350    4.3840    0.8730 H   0  0  0  0  0  0  0  0  0  0  0  0
   -0.3340    3.3270    1.7270 H   0  0  0  0  0  0  0  0  0  0  0  0
    2.1390    2.6820    1.8410 H   0  0  0  0  0  0  0  0  0  0  0  0
    1.4990    1.5720   -0.9550 H   0  0  0  0  0  0  0  0  0  0  0  0
    2.5210    2.9680   -0.5530 H   0  0  0  0  0  0  0  0  0  0  0  0
    3.0430    1.3780    0.0460 H   0  0  0  0  0  0  0  0  0  0  0  0
    0.4000    1.3710    2.7200 H   0  0  0  0  0  0  0  0  0  0  0  0
    2.2290   -0.4000    1.1200 H   0  0  0  0  0  0  0  0  0  0  0  0
   -0.5140   -0.7470    0.4960 N   0  0  0  0  0  0  0  0  0  0  0  0
   -1.7110   -1.1820   -0.2790 C   0  0  1  0  0  0  0  0  0  0  0  0
   -1.3040   -1.7170   -1.5850 C   0  0  0  0  0  0  0  0  0  0  0  0
   -2.3720   -2.1980   -2.4750 C   0  0  0  0  0  0  0  0  0  0  0  0
   -3.4050   -1.3340   -3.0470 C   0  0  0  0  0  0  0  0  0  0  0  0
   -4.3630   -0.5820   -2.2030 C   0  0  0  0  0  0  0  0  0  0  0  0
   -5.2970    0.1030   -3.1430 N   0  0  0  0  0  0  0  0  0  0  0  0
   -2.4380   -2.1920    0.5210 C   0  0  0  0  0  0  0  0  0  0  0  0
   -1.9590   -2.5470    1.6530 O   0  0  0  0  0  0  0  0  0  0  0  0
   -3.6160   -2.8060    0.1600 O   0  0  0  0  0  0  0  0  0  0  0  0
    0.1950   -1.4560    0.6750 H   0  0  0  0  0  0  0  0  0  0  0  0
   -2.3640   -0.3100   -0.3830 H   0  0  0  0  0  0  0  0  0  0  0  0
   -0.6100   -1.0130   -2.1420 H   0  0  0  0  0  0  0  0  0  0  0  0
   -0.5990   -2.5990   -1.3470 H   0  0  0  0  0  0  0  0  0  0  0  0
   -2.9440   -3.0800   -1.9920 H   0  0  0  0  0  0  0  0  0  0  0  0
   -1.8730   -2.8160   -3.3440 H   0  0  0  0  0  0  0  0  0  0  0  0
   -4.0600   -2.0060   -3.7040 H   0  0  0  0  0  0  0  0  0  0  0  0
   -2.9300   -0.5730   -3.7520 H   0  0  0  0  0  0  0  0  0  0  0  0
   -4.9850   -1.1550   -1.5150 H   0  0  0  0  0  0  0  0  0  0  0  0
   -3.9360    0.2840   -1.6480 H   0  0  0  0  0  0  0  0  0  0  0  0
   -6.0880    0.5150   -2.6290 H   0  0  0  0  0  0  0  0  0  0  0  0
   -4.7470    0.8480   -3.5840 H   0  0  0  0  0  0  0  0  0  0  0  0
  1 10  1  0  0  0  0
  1  9  1  0  0  0  0
  2 11  1  6  0  0  0
  2  1  1  0  0  0  0
  3  4  1  0  0  0  0
  3 12  1  0  0  0  0
  3  2  1  0  0  0  0
  4  8  1  0  0  0  0
  5  4  2  0  0  0  0
  6  2  1  0  0  0  0
  6  7  2  0  0  0  0
  8 14  1  0  0  0  0
 13  3  1  0  0  0  0
 15 16  1  0  0  0  0
 15 24  1  0  0  0  0
 16 18  1  0  0  0  0
 16 25  1  0  0  0  0
 17 28  1  0  0  0  0
 17 16  1  0  0  0  0
 18 19  1  0  0  0  0
 18 29  1  1  0  0  0
 19  6  1  0  0  0  0
 20 18  1  0  0  0  0
 21 20  2  0  0  0  0
 22 15  1  0  0  0  0
 23 15  1  0  0  0  0
 26 17  1  0  0  0  0
 27 17  1  0  0  0  0
 30 19  1  0  0  0  0
 31 41  1  0  0  0  0
 31 20  1  0  0  0  0
 32 42  1  6  0  0  0
 32 31  1  0  0  0  0
 32 38  1  0  0  0  0
 33 44  1  0  0  0  0
 33 32  1  0  0  0  0
 34 45  1  0  0  0  0
 34 33  1  0  0  0  0
 35 34  1  0  0  0  0
 35 36  1  0  0  0  0
 36 50  1  0  0  0  0
 36 49  1  0  0  0  0
 37 51  1  0  0  0  0
 37 36  1  0  0  0  0
 38 39  1  0  0  0  0
 40 38  2  0  0  0  0
 43 33  1  0  0  0  0
 46 34  1  0  0  0  0
 47 35  1  0  0  0  0
 48 35  1  0  0  0  0
 52 37  1  0  0  0  0
M  END
$$$$
