DVN.pdb
 OpenBabel07022418163D

 45 44  0  0  1  0  0  0  0  0999 V2000
   -0.0270   -3.3060    3.7010 N   0  0  0  0  0  0  0  0  0  0  0  0
    0.9260   -2.1910    3.5470 C   0  0  1  0  0  0  0  0  0  0  0  0
    1.9940   -2.5650    2.5980 C   0  0  0  0  0  0  0  0  0  0  0  0
    3.0420   -1.5460    2.4250 C   0  0  0  0  0  0  0  0  0  0  0  0
    3.0870   -0.5310    3.1590 O   0  0  0  0  0  0  0  0  0  0  0  0
    0.0830   -1.0410    3.1830 C   0  0  0  0  0  0  0  0  0  0  0  0
   -0.9360   -0.8220    3.8890 O   0  0  0  0  0  0  0  0  0  0  0  0
    3.9950   -1.7070    1.4370 O   0  0  0  0  0  0  0  0  0  0  0  0
    0.3650   -3.9510    4.4240 H   0  0  0  0  0  0  0  0  0  0  0  0
    0.0240   -3.8160    2.7750 H   0  0  0  0  0  0  0  0  0  0  0  0
    1.4210   -2.0240    4.5490 H   0  0  0  0  0  0  0  0  0  0  0  0
    2.4950   -3.4830    3.0310 H   0  0  0  0  0  0  0  0  0  0  0  0
    1.6270   -2.9200    1.6090 H   0  0  0  0  0  0  0  0  0  0  0  0
    4.4630   -0.9150    1.0030 H   0  0  0  0  0  0  0  0  0  0  0  0
   -0.7440    3.3400    1.3790 C   0  0  0  0  0  0  0  0  0  0  0  0
    0.2360    2.2420    1.7480 C   0  0  0  0  0  0  0  0  0  0  0  0
    1.3480    2.2960    0.7380 C   0  0  0  0  0  0  0  0  0  0  0  0
   -0.4960    0.9530    1.7710 C   0  0  2  0  0  0  0  0  0  0  0  0
    0.3330   -0.1880    2.1170 N   0  0  0  0  0  0  0  0  0  0  0  0
   -1.2160    0.6330    0.5210 C   0  0  0  0  0  0  0  0  0  0  0  0
   -1.9760    1.4430   -0.0360 O   0  0  0  0  0  0  0  0  0  0  0  0
   -1.7430    3.0450    1.7760 H   0  0  0  0  0  0  0  0  0  0  0  0
   -0.4300    4.3000    1.8580 H   0  0  0  0  0  0  0  0  0  0  0  0
   -0.7620    3.4130    0.2860 H   0  0  0  0  0  0  0  0  0  0  0  0
    0.5940    2.4840    2.7620 H   0  0  0  0  0  0  0  0  0  0  0  0
    1.9570    3.2110    0.9620 H   0  0  0  0  0  0  0  0  0  0  0  0
    0.9560    2.4420   -0.2900 H   0  0  0  0  0  0  0  0  0  0  0  0
    2.0230    1.4380    0.7770 H   0  0  0  0  0  0  0  0  0  0  0  0
   -1.2800    0.9970    2.5610 H   0  0  0  0  0  0  0  0  0  0  0  0
    1.1350   -0.3220    1.4630 H   0  0  0  0  0  0  0  0  0  0  0  0
    1.4100   -1.0300   -3.5110 N   0  0  0  0  0  0  0  0  0  0  0  0
    0.3640   -0.6700   -2.6310 C   0  0  0  0  0  0  0  0  0  0  0  0
    0.3380    0.4940   -2.1700 O   0  0  0  0  0  0  0  0  0  0  0  0
   -0.6650   -1.6430   -2.2680 C   0  0  0  0  0  0  0  0  0  0  0  0
   -1.6870   -1.0680   -1.2940 C   0  0  2  0  0  0  0  0  0  0  0  0
   -1.0370   -0.6420   -0.0690 N   0  0  0  0  0  0  0  0  0  0  0  0
   -2.6060   -2.1970   -0.9850 C   0  0  0  0  0  0  0  0  0  0  0  0
   -3.3000   -2.7620   -1.8720 O   0  0  0  0  0  0  0  0  0  0  0  0
   -2.6890   -2.6290    0.3290 O   0  0  0  0  0  0  0  0  0  0  0  0
    1.9320   -0.3200   -4.0940 H   0  0  0  0  0  0  0  0  0  0  0  0
    1.7310   -2.0230   -3.6390 H   0  0  0  0  0  0  0  0  0  0  0  0
   -1.2360   -1.9550   -3.1590 H   0  0  0  0  0  0  0  0  0  0  0  0
   -0.2050   -2.5100   -1.7420 H   0  0  0  0  0  0  0  0  0  0  0  0
   -2.2950   -0.2550   -1.7400 H   0  0  0  0  0  0  0  0  0  0  0  0
   -0.3940   -1.3560    0.3900 H   0  0  0  0  0  0  0  0  0  0  0  0
  1  9  1  0  0  0  0
  2  1  1  0  0  0  0
  2 11  1  1  0  0  0
  3 12  1  0  0  0  0
  3  2  1  0  0  0  0
  4  3  1  0  0  0  0
  4  5  2  0  0  0  0
  6  2  1  0  0  0  0
  6  7  2  0  0  0  0
  8  4  1  0  0  0  0
 10  1  1  0  0  0  0
 13  3  1  0  0  0  0
 14  8  1  0  0  0  0
 15 16  1  0  0  0  0
 15 22  1  0  0  0  0
 15 23  1  0  0  0  0
 16 18  1  0  0  0  0
 16 25  1  0  0  0  0
 17 28  1  0  0  0  0
 17 26  1  0  0  0  0
 17 16  1  0  0  0  0
 18 19  1  0  0  0  0
 18 29  1  1  0  0  0
 19  6  1  0  0  0  0
 20 18  1  0  0  0  0
 21 20  2  0  0  0  0
 24 15  1  0  0  0  0
 27 17  1  0  0  0  0
 30 19  1  0  0  0  0
 31 32  1  0  0  0  0
 32 34  1  0  0  0  0
 32 33  2  0  0  0  0
 34 43  1  0  0  0  0
 34 35  1  0  0  0  0
 35 44  1  6  0  0  0
 35 37  1  0  0  0  0
 35 36  1  0  0  0  0
 36 45  1  0  0  0  0
 36 20  1  0  0  0  0
 37 39  1  0  0  0  0
 38 37  2  0  0  0  0
 40 31  1  0  0  0  0
 41 31  1  0  0  0  0
 42 34  1  0  0  0  0
M  END
$$$$
