DVP.pdb
 OpenBabel07022418163D

 45 45  0  0  1  0  0  0  0  0999 V2000
    3.0060   -3.3590    0.4320 N   0  0  0  0  0  0  0  0  0  0  0  0
    1.7760   -2.8230    0.9760 C   0  0  1  0  0  0  0  0  0  0  0  0
    2.0560   -2.2690    2.3290 C   0  0  0  0  0  0  0  0  0  0  0  0
    2.5630   -3.3690    3.1890 C   0  0  0  0  0  0  0  0  0  0  0  0
    2.8630   -3.0520    4.3720 O   0  0  0  0  0  0  0  0  0  0  0  0
    1.1420   -1.9620   -0.0040 C   0  0  0  0  0  0  0  0  0  0  0  0
    1.7290   -1.8280   -1.1260 O   0  0  0  0  0  0  0  0  0  0  0  0
    2.7180   -4.6800    2.7700 O   0  0  0  0  0  0  0  0  0  0  0  0
    3.7980   -2.9670    0.9790 H   0  0  0  0  0  0  0  0  0  0  0  0
    3.0210   -4.3920    0.4850 H   0  0  0  0  0  0  0  0  0  0  0  0
    1.0910   -3.7270    1.0840 H   0  0  0  0  0  0  0  0  0  0  0  0
    2.8410   -1.4970    2.3030 H   0  0  0  0  0  0  0  0  0  0  0  0
    1.1760   -1.8530    2.8480 H   0  0  0  0  0  0  0  0  0  0  0  0
    3.5140   -5.2270    3.1250 H   0  0  0  0  0  0  0  0  0  0  0  0
   -2.4200   -0.0550   -2.5490 C   0  0  0  0  0  0  0  0  0  0  0  0
   -1.9070   -0.9760   -1.4780 C   0  0  0  0  0  0  0  0  0  0  0  0
   -1.5440   -2.2890   -2.1830 C   0  0  0  0  0  0  0  0  0  0  0  0
   -0.6500   -0.4190   -0.8960 C   0  0  2  0  0  0  0  0  0  0  0  0
   -0.0650   -1.2380    0.1130 N   0  0  0  0  0  0  0  0  0  0  0  0
   -0.8570    0.9460   -0.4280 C   0  0  0  0  0  0  0  0  0  0  0  0
   -1.4530    1.8000   -1.2080 O   0  0  0  0  0  0  0  0  0  0  0  0
   -3.1450    0.6970   -2.2010 H   0  0  0  0  0  0  0  0  0  0  0  0
   -1.5500    0.4500   -3.0140 H   0  0  0  0  0  0  0  0  0  0  0  0
   -2.9020   -0.6630   -3.3840 H   0  0  0  0  0  0  0  0  0  0  0  0
   -2.7220   -1.1180   -0.7590 H   0  0  0  0  0  0  0  0  0  0  0  0
   -1.0570   -2.9990   -1.5100 H   0  0  0  0  0  0  0  0  0  0  0  0
   -2.5100   -2.7800   -2.5050 H   0  0  0  0  0  0  0  0  0  0  0  0
   -0.9990   -2.0930   -3.1230 H   0  0  0  0  0  0  0  0  0  0  0  0
    0.0940   -0.4260   -1.7520 H   0  0  0  0  0  0  0  0  0  0  0  0
   -0.5820   -1.3200    1.0050 H   0  0  0  0  0  0  0  0  0  0  0  0
   -0.4920    1.5250    0.8180 N   0  0  0  0  0  0  0  0  0  0  0  0
   -0.8480    2.9310    1.1600 C   0  0  0  0  0  0  0  0  0  0  0  0
    0.5220    3.4410    1.5900 C   0  0  0  0  0  0  0  0  0  0  0  0
    1.0570    2.2860    2.3910 C   0  0  0  0  0  0  0  0  0  0  0  0
    0.2250    1.0650    1.9560 C   0  0  1  0  0  0  0  0  0  0  0  0
   -0.6530    0.6880    3.0880 C   0  0  0  0  0  0  0  0  0  0  0  0
   -1.8980    0.7940    2.9730 O   0  0  0  0  0  0  0  0  0  0  0  0
   -0.1330    0.2180    4.2810 O   0  0  0  0  0  0  0  0  0  0  0  0
   -1.5690    2.9440    1.9930 H   0  0  0  0  0  0  0  0  0  0  0  0
   -1.2280    3.4690    0.2890 H   0  0  0  0  0  0  0  0  0  0  0  0
    1.1330    3.5880    0.6890 H   0  0  0  0  0  0  0  0  0  0  0  0
    0.4270    4.3690    2.1970 H   0  0  0  0  0  0  0  0  0  0  0  0
    2.1330    2.1170    2.2050 H   0  0  0  0  0  0  0  0  0  0  0  0
    0.9070    2.4890    3.4770 H   0  0  0  0  0  0  0  0  0  0  0  0
    0.9510    0.2550    1.7370 H   0  0  0  0  0  0  0  0  0  0  0  0
  1 10  1  0  0  0  0
  1  2  1  0  0  0  0
  1  9  1  0  0  0  0
  2 11  1  1  0  0  0
  2  3  1  0  0  0  0
  3 13  1  0  0  0  0
  3  4  1  0  0  0  0
  4  5  2  0  0  0  0
  6 19  1  0  0  0  0
  6  2  1  0  0  0  0
  7  6  2  0  0  0  0
  8 14  1  0  0  0  0
  8  4  1  0  0  0  0
 12  3  1  0  0  0  0
 15 22  1  0  0  0  0
 15 16  1  0  0  0  0
 16 18  1  0  0  0  0
 16 25  1  0  0  0  0
 17 26  1  0  0  0  0
 17 16  1  0  0  0  0
 18 29  1  6  0  0  0
 18 20  1  0  0  0  0
 18 19  1  0  0  0  0
 19 30  1  0  0  0  0
 20 31  1  0  0  0  0
 21 20  2  0  0  0  0
 23 15  1  0  0  0  0
 24 15  1  0  0  0  0
 27 17  1  0  0  0  0
 28 17  1  0  0  0  0
 31 32  1  0  0  0  0
 31 35  1  0  0  0  0
 32 33  1  0  0  0  0
 32 39  1  0  0  0  0
 33 42  1  0  0  0  0
 33 34  1  0  0  0  0
 34 44  1  0  0  0  0
 35 45  1  6  0  0  0
 35 34  1  0  0  0  0
 35 36  1  0  0  0  0
 36 38  1  0  0  0  0
 37 36  2  0  0  0  0
 40 32  1  0  0  0  0
 41 33  1  0  0  0  0
 43 34  1  0  0  0  0
M  END
$$$$
