DVR.pdb
 OpenBabel07022418163D

 54 53  0  0  1  0  0  0  0  0999 V2000
    2.2580    3.1310    3.6960 N   0  0  0  0  0  0  0  0  0  0  0  0
    1.4750    2.5730    2.5710 C   0  0  1  0  0  0  0  0  0  0  0  0
    1.4120    3.6940    1.5980 C   0  0  0  0  0  0  0  0  0  0  0  0
    0.7600    3.4950    0.3240 C   0  0  0  0  0  0  0  0  0  0  0  0
    0.6980    2.3200   -0.1390 O   0  0  0  0  0  0  0  0  0  0  0  0
    2.0510    1.3060    2.1450 C   0  0  0  0  0  0  0  0  0  0  0  0
    3.3030    1.1440    2.2240 O   0  0  0  0  0  0  0  0  0  0  0  0
    0.1710    4.4750   -0.4690 O   0  0  0  0  0  0  0  0  0  0  0  0
    3.0690    2.4700    3.8670 H   0  0  0  0  0  0  0  0  0  0  0  0
    1.7060    3.2980    4.5300 H   0  0  0  0  0  0  0  0  0  0  0  0
    0.4720    2.3610    3.0260 H   0  0  0  0  0  0  0  0  0  0  0  0
    0.8290    4.5240    2.1250 H   0  0  0  0  0  0  0  0  0  0  0  0
    2.4330    4.1410    1.5020 H   0  0  0  0  0  0  0  0  0  0  0  0
   -0.0690    4.3560   -1.4410 H   0  0  0  0  0  0  0  0  0  0  0  0
    2.3030   -3.4170    1.8640 C   0  0  0  0  0  0  0  0  0  0  0  0
    1.6560   -2.1090    2.3230 C   0  0  0  0  0  0  0  0  0  0  0  0
    2.3400   -1.6970    3.5990 C   0  0  0  0  0  0  0  0  0  0  0  0
    1.8980   -1.0420    1.2220 C   0  0  2  0  0  0  0  0  0  0  0  0
    1.2920    0.2100    1.6400 N   0  0  0  0  0  0  0  0  0  0  0  0
    1.3270   -1.5500   -0.0520 C   0  0  0  0  0  0  0  0  0  0  0  0
    1.8540   -2.5680   -0.5830 O   0  0  0  0  0  0  0  0  0  0  0  0
    3.2760   -3.1960    1.4000 H   0  0  0  0  0  0  0  0  0  0  0  0
    2.4940   -3.9790    2.8260 H   0  0  0  0  0  0  0  0  0  0  0  0
    1.6220   -4.0050    1.2210 H   0  0  0  0  0  0  0  0  0  0  0  0
    0.5900   -2.2740    2.4010 H   0  0  0  0  0  0  0  0  0  0  0  0
    3.3890   -1.3660    3.3780 H   0  0  0  0  0  0  0  0  0  0  0  0
    1.7640   -0.8820    4.1270 H   0  0  0  0  0  0  0  0  0  0  0  0
    2.4260   -2.5290    4.3480 H   0  0  0  0  0  0  0  0  0  0  0  0
    2.9860   -0.9690    1.1830 H   0  0  0  0  0  0  0  0  0  0  0  0
    0.2430    0.2740    1.5620 H   0  0  0  0  0  0  0  0  0  0  0  0
   -3.0810   -4.2800    0.8200 N   0  0  0  0  0  0  0  0  0  0  0  0
   -3.7880   -3.6540   -0.2260 C   0  0  0  0  0  0  0  0  0  0  0  0
   -4.0830   -4.2730   -1.3140 N   0  0  0  0  0  0  0  0  0  0  0  0
   -4.2140   -2.2960   -0.1250 N   0  0  0  0  0  0  0  0  0  0  0  0
   -4.0750   -1.3110   -1.1500 C   0  0  0  0  0  0  0  0  0  0  0  0
   -2.6410   -0.9250   -1.3470 C   0  0  0  0  0  0  0  0  0  0  0  0
   -1.7380   -2.0200   -1.8040 C   0  0  0  0  0  0  0  0  0  0  0  0
   -0.3140   -1.4920   -1.9760 C   0  0  2  0  0  0  0  0  0  0  0  0
    0.2190   -0.9730   -0.7240 N   0  0  0  0  0  0  0  0  0  0  0  0
   -0.3140   -0.4800   -3.0340 C   0  0  0  0  0  0  0  0  0  0  0  0
   -0.7610   -0.8400   -4.1720 O   0  0  0  0  0  0  0  0  0  0  0  0
    0.1350    0.8160   -2.8740 O   0  0  0  0  0  0  0  0  0  0  0  0
   -2.0590   -4.4200    0.7070 H   0  0  0  0  0  0  0  0  0  0  0  0
   -3.5160   -4.6060    1.6920 H   0  0  0  0  0  0  0  0  0  0  0  0
   -3.8270   -5.2640   -1.5080 H   0  0  0  0  0  0  0  0  0  0  0  0
   -4.6660   -2.0250    0.8000 H   0  0  0  0  0  0  0  0  0  0  0  0
   -4.6890   -0.4160   -0.8860 H   0  0  0  0  0  0  0  0  0  0  0  0
   -4.4640   -1.7800   -2.0940 H   0  0  0  0  0  0  0  0  0  0  0  0
   -2.2140   -0.5330   -0.3690 H   0  0  0  0  0  0  0  0  0  0  0  0
   -2.5450   -0.0810   -2.0980 H   0  0  0  0  0  0  0  0  0  0  0  0
   -1.7300   -2.8570   -1.0940 H   0  0  0  0  0  0  0  0  0  0  0  0
   -2.0630   -2.3180   -2.8270 H   0  0  0  0  0  0  0  0  0  0  0  0
    0.3200   -2.3380   -2.2920 H   0  0  0  0  0  0  0  0  0  0  0  0
   -0.2590   -0.1420   -0.3290 H   0  0  0  0  0  0  0  0  0  0  0  0
  1  9  1  0  0  0  0
  1 10  1  0  0  0  0
  2 11  1  1  0  0  0
  2  1  1  0  0  0  0
  3 12  1  0  0  0  0
  3  2  1  0  0  0  0
  4  3  1  0  0  0  0
  5  4  2  0  0  0  0
  6  7  2  0  0  0  0
  6  2  1  0  0  0  0
  8  4  1  0  0  0  0
 13  3  1  0  0  0  0
 14  8  1  0  0  0  0
 15 16  1  0  0  0  0
 15 23  1  0  0  0  0
 16 25  1  0  0  0  0
 16 17  1  0  0  0  0
 17 27  1  0  0  0  0
 17 28  1  0  0  0  0
 18 29  1  6  0  0  0
 18 19  1  0  0  0  0
 18 16  1  0  0  0  0
 19  6  1  0  0  0  0
 20 18  1  0  0  0  0
 21 20  2  0  0  0  0
 22 15  1  0  0  0  0
 24 15  1  0  0  0  0
 26 17  1  0  0  0  0
 30 19  1  0  0  0  0
 31 44  1  0  0  0  0
 32 34  1  0  0  0  0
 32 31  1  0  0  0  0
 33 32  2  0  0  0  0
 34 46  1  0  0  0  0
 35 47  1  0  0  0  0
 35 34  1  0  0  0  0
 36 35  1  0  0  0  0
 36 49  1  0  0  0  0
 37 36  1  0  0  0  0
 37 51  1  0  0  0  0
 38 53  1  6  0  0  0
 38 37  1  0  0  0  0
 38 39  1  0  0  0  0
 39 54  1  0  0  0  0
 39 20  1  0  0  0  0
 40 42  1  0  0  0  0
 40 38  1  0  0  0  0
 41 40  2  0  0  0  0
 43 31  1  0  0  0  0
 45 33  1  0  0  0  0
 48 35  1  0  0  0  0
 50 36  1  0  0  0  0
 52 37  1  0  0  0  0
M  END
$$$$
