DVS.pdb
 OpenBabel07022418163D

 42 41  0  0  1  0  0  0  0  0999 V2000
    3.2230   -3.5750   -1.6660 N   0  0  0  0  0  0  0  0  0  0  0  0
    1.8890   -3.2000   -1.2430 C   0  0  1  0  0  0  0  0  0  0  0  0
    1.3340   -4.1530   -0.2200 C   0  0  0  0  0  0  0  0  0  0  0  0
    2.1540   -4.2200    1.0030 C   0  0  0  0  0  0  0  0  0  0  0  0
    3.2060   -3.5650    1.1960 O   0  0  0  0  0  0  0  0  0  0  0  0
    1.8360   -1.7910   -0.7820 C   0  0  0  0  0  0  0  0  0  0  0  0
    2.8630   -1.0410   -0.7760 O   0  0  0  0  0  0  0  0  0  0  0  0
    1.7310   -5.0720    2.0150 O   0  0  0  0  0  0  0  0  0  0  0  0
    3.9640   -3.0150   -1.1890 H   0  0  0  0  0  0  0  0  0  0  0  0
    3.3260   -4.6070   -1.4730 H   0  0  0  0  0  0  0  0  0  0  0  0
    1.2390   -3.3000   -2.1530 H   0  0  0  0  0  0  0  0  0  0  0  0
    0.2830   -3.8630   -0.0190 H   0  0  0  0  0  0  0  0  0  0  0  0
    1.3710   -5.1730   -0.6850 H   0  0  0  0  0  0  0  0  0  0  0  0
    2.0720   -4.9910    2.9750 H   0  0  0  0  0  0  0  0  0  0  0  0
   -1.8250    0.1560   -0.8120 C   0  0  0  0  0  0  0  0  0  0  0  0
   -0.4590    0.8110   -0.8100 C   0  0  0  0  0  0  0  0  0  0  0  0
    0.1080    0.6430   -2.2090 C   0  0  0  0  0  0  0  0  0  0  0  0
    0.4790    0.0950    0.1290 C   0  0  2  0  0  0  0  0  0  0  0  0
    0.5900   -1.2750   -0.3330 N   0  0  0  0  0  0  0  0  0  0  0  0
    0.0330    0.1310    1.5340 C   0  0  0  0  0  0  0  0  0  0  0  0
   -0.1890   -0.9410    2.1380 O   0  0  0  0  0  0  0  0  0  0  0  0
   -2.6330    0.9250   -0.8260 H   0  0  0  0  0  0  0  0  0  0  0  0
   -1.9670   -0.4440    0.1270 H   0  0  0  0  0  0  0  0  0  0  0  0
   -1.9920   -0.4810   -1.7030 H   0  0  0  0  0  0  0  0  0  0  0  0
   -0.5350    1.8890   -0.6240 H   0  0  0  0  0  0  0  0  0  0  0  0
   -0.1990   -0.3430   -2.6570 H   0  0  0  0  0  0  0  0  0  0  0  0
   -0.3010    1.4230   -2.9040 H   0  0  0  0  0  0  0  0  0  0  0  0
    1.2150    0.7390   -2.2270 H   0  0  0  0  0  0  0  0  0  0  0  0
    1.4790    0.5620    0.0500 H   0  0  0  0  0  0  0  0  0  0  0  0
   -0.2550   -1.9230   -0.3480 H   0  0  0  0  0  0  0  0  0  0  0  0
    0.7160    3.3830    4.0330 O   0  0  0  0  0  0  0  0  0  0  0  0
    0.4620    2.0880    4.4820 C   0  0  0  0  0  0  0  0  0  0  0  0
   -0.5900    1.4190    3.5950 C   0  0  2  0  0  0  0  0  0  0  0  0
   -0.1570    1.3380    2.2320 N   0  0  0  0  0  0  0  0  0  0  0  0
   -1.8810    2.1400    3.7160 C   0  0  0  0  0  0  0  0  0  0  0  0
   -2.4270    2.5780    2.6720 O   0  0  0  0  0  0  0  0  0  0  0  0
   -2.5190    2.3570    4.9180 O   0  0  0  0  0  0  0  0  0  0  0  0
    1.0620    3.2870    3.1060 H   0  0  0  0  0  0  0  0  0  0  0  0
    0.1070    2.0390    5.5140 H   0  0  0  0  0  0  0  0  0  0  0  0
    1.3910    1.4780    4.4030 H   0  0  0  0  0  0  0  0  0  0  0  0
   -0.7470    0.4070    4.0030 H   0  0  0  0  0  0  0  0  0  0  0  0
    0.0380    2.2300    1.6920 H   0  0  0  0  0  0  0  0  0  0  0  0
  1 10  1  0  0  0  0
  1  2  1  0  0  0  0
  1  9  1  0  0  0  0
  2 11  1  6  0  0  0
  2  6  1  0  0  0  0
  2  3  1  0  0  0  0
  3 12  1  0  0  0  0
  3  4  1  0  0  0  0
  4  5  2  0  0  0  0
  4  8  1  0  0  0  0
  6  7  2  0  0  0  0
  6 19  1  0  0  0  0
  8 14  1  0  0  0  0
 13  3  1  0  0  0  0
 15 16  1  0  0  0  0
 15 23  1  0  0  0  0
 16 25  1  0  0  0  0
 16 18  1  0  0  0  0
 17 16  1  0  0  0  0
 18 29  1  6  0  0  0
 18 20  1  0  0  0  0
 19 18  1  0  0  0  0
 20 21  2  0  0  0  0
 20 34  1  0  0  0  0
 22 15  1  0  0  0  0
 24 15  1  0  0  0  0
 26 17  1  0  0  0  0
 27 17  1  0  0  0  0
 28 17  1  0  0  0  0
 30 19  1  0  0  0  0
 31 32  1  0  0  0  0
 32 39  1  0  0  0  0
 33 35  1  0  0  0  0
 33 41  1  1  0  0  0
 33 32  1  0  0  0  0
 34 33  1  0  0  0  0
 35 37  1  0  0  0  0
 36 35  2  0  0  0  0
 38 31  1  0  0  0  0
 40 32  1  0  0  0  0
 42 34  1  0  0  0  0
M  END
$$$$
