DVT.pdb
 OpenBabel07022418163D

 45 44  0  0  1  0  0  0  0  0999 V2000
    3.5890   -4.0000   -0.2490 N   0  0  0  0  0  0  0  0  0  0  0  0
    2.4850   -3.7060    0.6400 C   0  0  1  0  0  0  0  0  0  0  0  0
    3.0140   -3.3790    2.0110 C   0  0  0  0  0  0  0  0  0  0  0  0
    3.7780   -4.5350    2.5450 C   0  0  0  0  0  0  0  0  0  0  0  0
    3.9190   -5.5860    1.9000 O   0  0  0  0  0  0  0  0  0  0  0  0
    1.6450   -2.6560    0.0670 C   0  0  0  0  0  0  0  0  0  0  0  0
    1.9700   -2.1730   -1.0550 O   0  0  0  0  0  0  0  0  0  0  0  0
    4.3600   -4.4440    3.8120 O   0  0  0  0  0  0  0  0  0  0  0  0
    4.0260   -3.1260   -0.6370 H   0  0  0  0  0  0  0  0  0  0  0  0
    3.2130   -4.5860   -1.0280 H   0  0  0  0  0  0  0  0  0  0  0  0
    1.9040   -4.6690    0.7430 H   0  0  0  0  0  0  0  0  0  0  0  0
    3.7290   -2.5250    1.9170 H   0  0  0  0  0  0  0  0  0  0  0  0
    2.2440   -3.0910    2.7240 H   0  0  0  0  0  0  0  0  0  0  0  0
    5.1740   -5.0230    4.0630 H   0  0  0  0  0  0  0  0  0  0  0  0
   -1.6440   -2.7650   -1.1370 C   0  0  0  0  0  0  0  0  0  0  0  0
   -1.7390   -1.5760   -0.1850 C   0  0  0  0  0  0  0  0  0  0  0  0
   -2.5070   -0.5220   -0.9430 C   0  0  0  0  0  0  0  0  0  0  0  0
   -0.3460   -1.0660    0.0680 C   0  0  2  0  0  0  0  0  0  0  0  0
    0.4880   -2.1170    0.6490 N   0  0  0  0  0  0  0  0  0  0  0  0
   -0.3070    0.0780    0.9840 C   0  0  0  0  0  0  0  0  0  0  0  0
    0.2400   -0.0470    2.1370 O   0  0  0  0  0  0  0  0  0  0  0  0
   -1.2330   -3.6550   -0.6210 H   0  0  0  0  0  0  0  0  0  0  0  0
   -1.0540   -2.4450   -2.0100 H   0  0  0  0  0  0  0  0  0  0  0  0
   -2.6470   -3.0630   -1.5110 H   0  0  0  0  0  0  0  0  0  0  0  0
   -2.3150   -1.8000    0.7230 H   0  0  0  0  0  0  0  0  0  0  0  0
   -3.3170   -1.1130   -1.4940 H   0  0  0  0  0  0  0  0  0  0  0  0
   -1.9440   -0.0280   -1.7410 H   0  0  0  0  0  0  0  0  0  0  0  0
   -3.0950    0.1530   -0.2850 H   0  0  0  0  0  0  0  0  0  0  0  0
    0.1000   -0.7870   -0.8920 H   0  0  0  0  0  0  0  0  0  0  0  0
    0.1760   -2.4760    1.5680 H   0  0  0  0  0  0  0  0  0  0  0  0
   -0.6610    4.1930    0.0060 C   0  0  0  0  0  0  0  0  0  0  0  0
    0.0710    3.5820    1.1820 C   0  0  1  0  0  0  0  0  0  0  0  0
    0.1130    4.5340    2.2170 O   0  0  0  0  0  0  0  0  0  0  0  0
   -0.7340    2.4120    1.7150 C   0  0  2  0  0  0  0  0  0  0  0  0
   -0.8360    1.3560    0.7000 N   0  0  0  0  0  0  0  0  0  0  0  0
   -2.0850    2.9360    2.0420 C   0  0  0  0  0  0  0  0  0  0  0  0
   -3.0700    2.4390    1.4460 O   0  0  0  0  0  0  0  0  0  0  0  0
   -2.2770    3.9440    2.9740 O   0  0  0  0  0  0  0  0  0  0  0  0
   -1.0350    5.2230    0.2680 H   0  0  0  0  0  0  0  0  0  0  0  0
   -1.5400    3.6240   -0.3060 H   0  0  0  0  0  0  0  0  0  0  0  0
    0.0180    4.2800   -0.8870 H   0  0  0  0  0  0  0  0  0  0  0  0
    1.1090    3.3170    0.9410 H   0  0  0  0  0  0  0  0  0  0  0  0
    0.6150    4.1910    2.9980 H   0  0  0  0  0  0  0  0  0  0  0  0
   -0.2290    2.0510    2.6170 H   0  0  0  0  0  0  0  0  0  0  0  0
   -1.2890    1.6020   -0.2040 H   0  0  0  0  0  0  0  0  0  0  0  0
  1  2  1  0  0  0  0
  2 11  1  1  0  0  0
  2  3  1  0  0  0  0
  3  4  1  0  0  0  0
  3 13  1  0  0  0  0
  4  8  1  0  0  0  0
  5  4  2  0  0  0  0
  6  2  1  0  0  0  0
  6 19  1  0  0  0  0
  7  6  2  0  0  0  0
  8 14  1  0  0  0  0
  9  1  1  0  0  0  0
 10  1  1  0  0  0  0
 12  3  1  0  0  0  0
 15 22  1  0  0  0  0
 15 16  1  0  0  0  0
 16 18  1  0  0  0  0
 16 25  1  0  0  0  0
 17 28  1  0  0  0  0
 17 16  1  0  0  0  0
 18 29  1  6  0  0  0
 18 19  1  0  0  0  0
 18 20  1  0  0  0  0
 19 30  1  0  0  0  0
 20 21  2  0  0  0  0
 23 15  1  0  0  0  0
 24 15  1  0  0  0  0
 26 17  1  0  0  0  0
 27 17  1  0  0  0  0
 31 39  1  0  0  0  0
 31 32  1  0  0  0  0
 32 42  1  6  0  0  0
 32 34  1  0  0  0  0
 32 33  1  0  0  0  0
 33 43  1  0  0  0  0
 34 36  1  0  0  0  0
 34 44  1  1  0  0  0
 35 20  1  0  0  0  0
 35 34  1  0  0  0  0
 36 38  1  0  0  0  0
 37 36  2  0  0  0  0
 40 31  1  0  0  0  0
 41 31  1  0  0  0  0
 45 35  1  0  0  0  0
M  END
$$$$
