DVW.pdb
 OpenBabel07022418163D

 55 56  0  0  1  0  0  0  0  0999 V2000
    3.6820   -1.9370   -0.2850 N   0  0  0  0  0  0  0  0  0  0  0  0
    3.4830   -2.1720    1.1460 C   0  0  1  0  0  0  0  0  0  0  0  0
    4.8070   -2.3780    1.8310 C   0  0  0  0  0  0  0  0  0  0  0  0
    5.7260   -1.2110    1.6960 C   0  0  0  0  0  0  0  0  0  0  0  0
    5.4130   -0.0260    1.9250 O   0  0  0  0  0  0  0  0  0  0  0  0
    2.7460   -1.0690    1.7760 C   0  0  0  0  0  0  0  0  0  0  0  0
    2.6140   -1.0460    3.0280 O   0  0  0  0  0  0  0  0  0  0  0  0
    7.0380   -1.4630    1.2810 O   0  0  0  0  0  0  0  0  0  0  0  0
    2.8420   -2.2050   -0.8540 H   0  0  0  0  0  0  0  0  0  0  0  0
    4.4840   -2.4960   -0.6410 H   0  0  0  0  0  0  0  0  0  0  0  0
    2.9340   -3.1400    1.2160 H   0  0  0  0  0  0  0  0  0  0  0  0
    5.2700   -3.3140    1.4970 H   0  0  0  0  0  0  0  0  0  0  0  0
    4.5690   -2.4930    2.9210 H   0  0  0  0  0  0  0  0  0  0  0  0
    7.8470   -1.0490    1.7220 H   0  0  0  0  0  0  0  0  0  0  0  0
    0.9030    3.4820    1.8390 C   0  0  0  0  0  0  0  0  0  0  0  0
    1.7130    2.4340    1.1300 C   0  0  0  0  0  0  0  0  0  0  0  0
    3.1750    2.8130    1.2270 C   0  0  0  0  0  0  0  0  0  0  0  0
    1.4160    1.0970    1.6970 C   0  0  2  0  0  0  0  0  0  0  0  0
    2.1470    0.0090    1.0650 N   0  0  0  0  0  0  0  0  0  0  0  0
   -0.0630    0.8350    1.5360 C   0  0  0  0  0  0  0  0  0  0  0  0
   -0.9250    1.6140    2.0230 O   0  0  0  0  0  0  0  0  0  0  0  0
    0.7430    3.2120    2.8950 H   0  0  0  0  0  0  0  0  0  0  0  0
   -0.0600    3.6650    1.3020 H   0  0  0  0  0  0  0  0  0  0  0  0
    1.5210    4.4250    1.8410 H   0  0  0  0  0  0  0  0  0  0  0  0
    1.4520    2.4380    0.0450 H   0  0  0  0  0  0  0  0  0  0  0  0
    3.7900    2.2950    0.4710 H   0  0  0  0  0  0  0  0  0  0  0  0
    3.2180    3.9000    0.9160 H   0  0  0  0  0  0  0  0  0  0  0  0
    3.5760    2.7600    2.2380 H   0  0  0  0  0  0  0  0  0  0  0  0
    1.5780    1.1110    2.7990 H   0  0  0  0  0  0  0  0  0  0  0  0
    2.2440    0.0110    0.0290 H   0  0  0  0  0  0  0  0  0  0  0  0
   -0.5440   -0.2960    0.8380 N   0  0  0  0  0  0  0  0  0  0  0  0
   -2.0060   -0.5510    0.7100 C   0  0  1  0  0  0  0  0  0  0  0  0
   -2.2520   -0.5580   -0.7670 C   0  0  0  0  0  0  0  0  0  0  0  0
   -3.6190   -0.8240   -1.2140 C   0  0  0  0  0  0  0  0  0  0  0  0
   -4.6010    0.1260   -1.4950 C   0  0  0  0  0  0  0  0  0  0  0  0
   -5.7230   -0.5090   -1.8460 N   0  0  0  0  0  0  0  0  0  0  0  0
   -5.5360   -1.8490   -1.8120 C   0  0  0  0  0  0  0  0  0  0  0  0
   -6.3950   -2.9170   -2.1130 C   0  0  0  0  0  0  0  0  0  0  0  0
   -5.9050   -4.1970   -2.0090 C   0  0  0  0  0  0  0  0  0  0  0  0
   -4.5940   -4.4120   -1.6160 C   0  0  0  0  0  0  0  0  0  0  0  0
   -3.7760   -3.3480   -1.3280 C   0  0  0  0  0  0  0  0  0  0  0  0
   -4.2340   -2.0370   -1.4220 C   0  0  0  0  0  0  0  0  0  0  0  0
   -2.2830   -1.8290    1.3510 C   0  0  0  0  0  0  0  0  0  0  0  0
   -3.4710   -2.2000    1.5350 O   0  0  0  0  0  0  0  0  0  0  0  0
   -1.2740   -2.6740    1.7760 O   0  0  0  0  0  0  0  0  0  0  0  0
    0.1650   -0.9310    0.4230 H   0  0  0  0  0  0  0  0  0  0  0  0
   -2.5350    0.3050    1.2160 H   0  0  0  0  0  0  0  0  0  0  0  0
   -1.8470    0.4050   -1.1680 H   0  0  0  0  0  0  0  0  0  0  0  0
   -1.5710   -1.3350   -1.1960 H   0  0  0  0  0  0  0  0  0  0  0  0
   -4.4400    1.1880   -1.4250 H   0  0  0  0  0  0  0  0  0  0  0  0
   -6.6270   -0.0620   -2.1130 H   0  0  0  0  0  0  0  0  0  0  0  0
   -7.4030   -2.7210   -2.4130 H   0  0  0  0  0  0  0  0  0  0  0  0
   -6.5280   -5.0760   -2.2380 H   0  0  0  0  0  0  0  0  0  0  0  0
   -4.1930   -5.4230   -1.5330 H   0  0  0  0  0  0  0  0  0  0  0  0
   -2.7370   -3.5040   -1.0170 H   0  0  0  0  0  0  0  0  0  0  0  0
  1  2  1  0  0  0  0
  2 11  1  1  0  0  0
  2  6  1  0  0  0  0
  2  3  1  0  0  0  0
  3 13  1  0  0  0  0
  4  3  1  0  0  0  0
  4  5  2  0  0  0  0
  6  7  2  0  0  0  0
  8  4  1  0  0  0  0
  8 14  1  0  0  0  0
  9  1  1  0  0  0  0
 10  1  1  0  0  0  0
 12  3  1  0  0  0  0
 15 24  1  0  0  0  0
 15 22  1  0  0  0  0
 16 17  1  0  0  0  0
 16 18  1  0  0  0  0
 16 15  1  0  0  0  0
 17 28  1  0  0  0  0
 18 29  1  1  0  0  0
 19 18  1  0  0  0  0
 19  6  1  0  0  0  0
 20 18  1  0  0  0  0
 20 21  2  0  0  0  0
 23 15  1  0  0  0  0
 25 16  1  0  0  0  0
 26 17  1  0  0  0  0
 27 17  1  0  0  0  0
 30 19  1  0  0  0  0
 31 20  1  0  0  0  0
 32 31  1  0  0  0  0
 32 47  1  1  0  0  0
 32 43  1  0  0  0  0
 33 32  1  0  0  0  0
 34 33  1  0  0  0  0
 35 50  1  0  0  0  0
 35 34  2  0  0  0  0
 36 37  1  0  0  0  0
 36 35  1  0  0  0  0
 37 42  1  0  0  0  0
 38 39  1  0  0  0  0
 38 37  2  0  0  0  0
 39 40  2  0  0  0  0
 40 54  1  0  0  0  0
 40 41  1  0  0  0  0
 41 55  1  0  0  0  0
 42 41  2  0  0  0  0
 42 34  1  0  0  0  0
 43 44  2  0  0  0  0
 43 45  1  0  0  0  0
 46 31  1  0  0  0  0
 48 33  1  0  0  0  0
 49 33  1  0  0  0  0
 51 36  1  0  0  0  0
 52 38  1  0  0  0  0
 53 39  1  0  0  0  0
M  END
$$$$
