DVY.pdb
 OpenBabel07022418163D

 52 52  0  0  1  0  0  0  0  0999 V2000
    3.4040   -3.3610   -1.1410 N   0  0  0  0  0  0  0  0  0  0  0  0
    3.1920   -1.9080   -0.9650 C   0  0  1  0  0  0  0  0  0  0  0  0
    2.6940   -1.4220   -2.2900 C   0  0  0  0  0  0  0  0  0  0  0  0
    2.4300   -0.0090   -2.4260 C   0  0  0  0  0  0  0  0  0  0  0  0
    3.2840    0.8690   -2.0830 O   0  0  0  0  0  0  0  0  0  0  0  0
    2.2870   -1.7510    0.1620 C   0  0  0  0  0  0  0  0  0  0  0  0
    1.9210   -2.8040    0.7820 O   0  0  0  0  0  0  0  0  0  0  0  0
    1.2320    0.4650   -2.9360 O   0  0  0  0  0  0  0  0  0  0  0  0
    3.0830   -3.8840   -0.3040 H   0  0  0  0  0  0  0  0  0  0  0  0
    2.8800   -3.7320   -1.9590 H   0  0  0  0  0  0  0  0  0  0  0  0
    4.1830   -1.4960   -0.7050 H   0  0  0  0  0  0  0  0  0  0  0  0
    1.8120   -2.0030   -2.6280 H   0  0  0  0  0  0  0  0  0  0  0  0
    3.4990   -1.7300   -3.0290 H   0  0  0  0  0  0  0  0  0  0  0  0
    0.8160    1.3550   -2.6490 H   0  0  0  0  0  0  0  0  0  0  0  0
    1.7760    1.6670    2.3300 C   0  0  0  0  0  0  0  0  0  0  0  0
    1.5710    0.2490    2.8980 C   0  0  0  0  0  0  0  0  0  0  0  0
    2.9670   -0.3530    3.0210 C   0  0  0  0  0  0  0  0  0  0  0  0
    0.8630   -0.5500    1.8020 C   0  0  2  0  0  0  0  0  0  0  0  0
    1.7610   -0.5260    0.6520 N   0  0  0  0  0  0  0  0  0  0  0  0
   -0.4600    0.0350    1.4960 C   0  0  0  0  0  0  0  0  0  0  0  0
   -0.6170    0.5700    0.3650 O   0  0  0  0  0  0  0  0  0  0  0  0
    1.7290    2.4180    3.1450 H   0  0  0  0  0  0  0  0  0  0  0  0
    1.0170    1.8660    1.5450 H   0  0  0  0  0  0  0  0  0  0  0  0
    2.7640    1.7650    1.8460 H   0  0  0  0  0  0  0  0  0  0  0  0
    1.0360    0.2600    3.8390 H   0  0  0  0  0  0  0  0  0  0  0  0
    2.8930   -1.3580    3.4780 H   0  0  0  0  0  0  0  0  0  0  0  0
    3.3500   -0.5320    1.9790 H   0  0  0  0  0  0  0  0  0  0  0  0
    3.6700    0.3200    3.5470 H   0  0  0  0  0  0  0  0  0  0  0  0
    0.7390   -1.5740    2.1840 H   0  0  0  0  0  0  0  0  0  0  0  0
    2.0110    0.3770    0.2030 H   0  0  0  0  0  0  0  0  0  0  0  0
   -2.1230   -3.0560   -3.0560 O   0  0  0  0  0  0  0  0  0  0  0  0
   -2.5430   -2.4400   -1.8620 C   0  0  0  0  0  0  0  0  0  0  0  0
   -2.1900   -2.9560   -0.6170 C   0  0  0  0  0  0  0  0  0  0  0  0
   -2.6010   -2.3530    0.5460 C   0  0  0  0  0  0  0  0  0  0  0  0
   -3.3780   -1.2140    0.5130 C   0  0  0  0  0  0  0  0  0  0  0  0
   -3.8380   -0.4970    1.7270 C   0  0  0  0  0  0  0  0  0  0  0  0
   -2.8360    0.5830    2.1340 C   0  0  2  0  0  0  0  0  0  0  0  0
   -1.5420    0.0120    2.4170 N   0  0  0  0  0  0  0  0  0  0  0  0
   -3.3620    1.2280    3.3360 C   0  0  0  0  0  0  0  0  0  0  0  0
   -4.4740    1.7930    3.3180 O   0  0  0  0  0  0  0  0  0  0  0  0
   -3.7250   -0.7060   -0.7250 C   0  0  0  0  0  0  0  0  0  0  0  0
   -3.3160   -1.3080   -1.8910 C   0  0  0  0  0  0  0  0  0  0  0  0
   -2.6340    1.2220    4.5120 O   0  0  0  0  0  0  0  0  0  0  0  0
   -1.8160   -2.4300   -3.7990 H   0  0  0  0  0  0  0  0  0  0  0  0
   -1.5760   -3.8470   -0.5780 H   0  0  0  0  0  0  0  0  0  0  0  0
   -2.3330   -2.7520    1.5330 H   0  0  0  0  0  0  0  0  0  0  0  0
   -4.0510   -1.1320    2.5860 H   0  0  0  0  0  0  0  0  0  0  0  0
   -4.7700    0.0430    1.4650 H   0  0  0  0  0  0  0  0  0  0  0  0
   -2.7690    1.2680    1.2560 H   0  0  0  0  0  0  0  0  0  0  0  0
   -1.4010   -0.4450    3.3660 H   0  0  0  0  0  0  0  0  0  0  0  0
   -4.3420    0.1950   -0.8270 H   0  0  0  0  0  0  0  0  0  0  0  0
   -3.5910   -0.9060   -2.8690 H   0  0  0  0  0  0  0  0  0  0  0  0
  1  2  1  0  0  0  0
  1  9  1  0  0  0  0
  2 11  1  1  0  0  0
  2  6  1  0  0  0  0
  3  2  1  0  0  0  0
  4  3  1  0  0  0  0
  4  5  2  0  0  0  0
  6 19  1  0  0  0  0
  6  7  2  0  0  0  0
  8 14  1  0  0  0  0
  8  4  1  0  0  0  0
 10  1  1  0  0  0  0
 12  3  1  0  0  0  0
 13  3  1  0  0  0  0
 15 16  1  0  0  0  0
 15 22  1  0  0  0  0
 16 17  1  0  0  0  0
 16 25  1  0  0  0  0
 17 26  1  0  0  0  0
 17 28  1  0  0  0  0
 18 29  1  1  0  0  0
 18 16  1  0  0  0  0
 19 18  1  0  0  0  0
 20 18  1  0  0  0  0
 20 38  1  0  0  0  0
 21 20  2  0  0  0  0
 23 15  1  0  0  0  0
 24 15  1  0  0  0  0
 27 17  1  0  0  0  0
 30 19  1  0  0  0  0
 31 32  1  0  0  0  0
 32 33  1  0  0  0  0
 33 45  1  0  0  0  0
 33 34  2  0  0  0  0
 34 46  1  0  0  0  0
 35 34  1  0  0  0  0
 35 36  1  0  0  0  0
 36 37  1  0  0  0  0
 36 47  1  0  0  0  0
 37 49  1  6  0  0  0
 37 38  1  0  0  0  0
 37 39  1  0  0  0  0
 38 50  1  0  0  0  0
 39 43  1  0  0  0  0
 40 39  2  0  0  0  0
 41 35  2  0  0  0  0
 42 32  2  0  0  0  0
 42 41  1  0  0  0  0
 44 31  1  0  0  0  0
 48 36  1  0  0  0  0
 51 41  1  0  0  0  0
 52 42  1  0  0  0  0
M  END
$$$$
