DWA.pdb
 OpenBabel07022418163D

 49 50  0  0  1  0  0  0  0  0999 V2000
    3.2160   -0.9230    1.3640 N   0  0  0  0  0  0  0  0  0  0  0  0
    3.0020   -0.9400    2.8260 C   0  0  1  0  0  0  0  0  0  0  0  0
    3.7290    0.2290    3.4090 C   0  0  0  0  0  0  0  0  0  0  0  0
    3.6410    0.3400    4.8580 C   0  0  0  0  0  0  0  0  0  0  0  0
    3.0600   -0.5250    5.5590 O   0  0  0  0  0  0  0  0  0  0  0  0
    1.5100   -0.8030    2.9770 C   0  0  0  0  0  0  0  0  0  0  0  0
    0.9990   -0.8670    4.1240 O   0  0  0  0  0  0  0  0  0  0  0  0
    4.1920    1.4060    5.5760 O   0  0  0  0  0  0  0  0  0  0  0  0
    3.9560   -1.6130    1.1050 H   0  0  0  0  0  0  0  0  0  0  0  0
    3.4590    0.0550    1.0550 H   0  0  0  0  0  0  0  0  0  0  0  0
    3.3690   -1.8860    3.2030 H   0  0  0  0  0  0  0  0  0  0  0  0
    4.8030    0.1330    3.1320 H   0  0  0  0  0  0  0  0  0  0  0  0
    3.3880    1.1930    2.9700 H   0  0  0  0  0  0  0  0  0  0  0  0
    4.0770    1.4820    6.5770 H   0  0  0  0  0  0  0  0  0  0  0  0
    0.6630   -0.6020    1.8550 N   0  0  0  0  0  0  0  0  0  0  0  0
   -0.7790   -0.4650    1.9480 C   0  0  1  0  0  0  0  0  0  0  0  0
   -1.2110    0.9370    1.6090 C   0  0  0  0  0  0  0  0  0  0  0  0
   -0.8390    1.4120    0.2740 C   0  0  0  0  0  0  0  0  0  0  0  0
    0.3180    2.1600   -0.0390 C   0  0  0  0  0  0  0  0  0  0  0  0
    0.3510    2.3750   -1.3550 N   0  0  0  0  0  0  0  0  0  0  0  0
   -0.7260    1.8090   -1.9440 C   0  0  0  0  0  0  0  0  0  0  0  0
   -1.1450    1.7610   -3.2730 C   0  0  0  0  0  0  0  0  0  0  0  0
   -2.3140    1.1200   -3.6370 C   0  0  0  0  0  0  0  0  0  0  0  0
   -3.0560    0.5250   -2.6370 C   0  0  0  0  0  0  0  0  0  0  0  0
   -2.6300    0.5800   -1.3300 C   0  0  0  0  0  0  0  0  0  0  0  0
   -1.4590    1.2180   -0.9410 C   0  0  0  0  0  0  0  0  0  0  0  0
   -1.5300   -1.4840    1.2060 C   0  0  0  0  0  0  0  0  0  0  0  0
   -2.7640   -1.5400    1.3660 O   0  0  0  0  0  0  0  0  0  0  0  0
    1.0960   -0.5510    0.9170 H   0  0  0  0  0  0  0  0  0  0  0  0
   -1.0070   -0.6310    3.0470 H   0  0  0  0  0  0  0  0  0  0  0  0
   -2.3070    1.0300    1.8110 H   0  0  0  0  0  0  0  0  0  0  0  0
   -0.7320    1.6240    2.3490 H   0  0  0  0  0  0  0  0  0  0  0  0
    1.0330    2.4790    0.7270 H   0  0  0  0  0  0  0  0  0  0  0  0
    1.0820    2.8970   -1.8980 H   0  0  0  0  0  0  0  0  0  0  0  0
   -0.5210    2.2470   -4.0200 H   0  0  0  0  0  0  0  0  0  0  0  0
   -2.6320    1.0870   -4.6700 H   0  0  0  0  0  0  0  0  0  0  0  0
   -3.9780    0.0200   -2.9320 H   0  0  0  0  0  0  0  0  0  0  0  0
   -3.2190    0.1330   -0.5480 H   0  0  0  0  0  0  0  0  0  0  0  0
   -1.3740   -3.3250   -1.9140 C   0  0  0  0  0  0  0  0  0  0  0  0
   -1.6100   -3.4180   -0.4430 C   0  0  2  0  0  0  0  0  0  0  0  0
   -0.9170   -2.4080    0.3120 N   0  0  0  0  0  0  0  0  0  0  0  0
   -1.1600   -4.7620    0.0160 C   0  0  0  0  0  0  0  0  0  0  0  0
   -1.6230   -5.7880   -0.5230 O   0  0  0  0  0  0  0  0  0  0  0  0
   -0.2320   -4.9190    1.0370 O   0  0  0  0  0  0  0  0  0  0  0  0
   -2.1780   -2.7710   -2.4520 H   0  0  0  0  0  0  0  0  0  0  0  0
   -1.3920   -4.3500   -2.3360 H   0  0  0  0  0  0  0  0  0  0  0  0
   -0.3900   -2.8820   -2.1750 H   0  0  0  0  0  0  0  0  0  0  0  0
   -2.7040   -3.2850   -0.2330 H   0  0  0  0  0  0  0  0  0  0  0  0
    0.1160   -2.3390    0.2040 H   0  0  0  0  0  0  0  0  0  0  0  0
  1  2  1  0  0  0  0
  2  6  1  0  0  0  0
  2 11  1  1  0  0  0
  2  3  1  0  0  0  0
  3  4  1  0  0  0  0
  4  5  2  0  0  0  0
  4  8  1  0  0  0  0
  6  7  2  0  0  0  0
  8 14  1  0  0  0  0
  9  1  1  0  0  0  0
 10  1  1  0  0  0  0
 12  3  1  0  0  0  0
 13  3  1  0  0  0  0
 15 16  1  0  0  0  0
 15  6  1  0  0  0  0
 16 30  1  1  0  0  0
 17 31  1  0  0  0  0
 17 16  1  0  0  0  0
 17 32  1  0  0  0  0
 18 17  1  0  0  0  0
 19 18  2  0  0  0  0
 19 33  1  0  0  0  0
 20 19  1  0  0  0  0
 21 20  1  0  0  0  0
 21 26  1  0  0  0  0
 22 21  2  0  0  0  0
 23 22  1  0  0  0  0
 23 24  2  0  0  0  0
 24 25  1  0  0  0  0
 25 26  2  0  0  0  0
 25 38  1  0  0  0  0
 26 18  1  0  0  0  0
 27 28  2  0  0  0  0
 27 16  1  0  0  0  0
 29 15  1  0  0  0  0
 34 20  1  0  0  0  0
 35 22  1  0  0  0  0
 36 23  1  0  0  0  0
 37 24  1  0  0  0  0
 39 40  1  0  0  0  0
 40 48  1  1  0  0  0
 40 42  1  0  0  0  0
 40 41  1  0  0  0  0
 41 27  1  0  0  0  0
 42 44  1  0  0  0  0
 43 42  2  0  0  0  0
 45 39  1  0  0  0  0
 46 39  1  0  0  0  0
 47 39  1  0  0  0  0
 49 41  1  0  0  0  0
M  END
$$$$
