DWC.pdb
 OpenBabel07022418163D

 50 51  0  0  1  0  0  0  0  0999 V2000
    3.1480   -1.9160    0.0160 N   0  0  0  0  0  0  0  0  0  0  0  0
    2.9300   -0.9760    1.1700 C   0  0  1  0  0  0  0  0  0  0  0  0
    3.7600    0.2040    0.8050 C   0  0  0  0  0  0  0  0  0  0  0  0
    3.8190    1.3380    1.6960 C   0  0  0  0  0  0  0  0  0  0  0  0
    4.4850    2.3560    1.2640 O   0  0  0  0  0  0  0  0  0  0  0  0
    1.4670   -0.7060    1.2580 C   0  0  0  0  0  0  0  0  0  0  0  0
    0.8300   -0.8190    0.1690 O   0  0  0  0  0  0  0  0  0  0  0  0
    3.2750    1.5070    2.9440 O   0  0  0  0  0  0  0  0  0  0  0  0
    2.2620   -2.4650   -0.0600 H   0  0  0  0  0  0  0  0  0  0  0  0
    3.2440   -1.3680   -0.8610 H   0  0  0  0  0  0  0  0  0  0  0  0
    3.2710   -1.5100    2.0570 H   0  0  0  0  0  0  0  0  0  0  0  0
    4.7850   -0.1990    0.5710 H   0  0  0  0  0  0  0  0  0  0  0  0
    3.3740    0.5610   -0.1980 H   0  0  0  0  0  0  0  0  0  0  0  0
    2.9640    2.4300    3.2110 H   0  0  0  0  0  0  0  0  0  0  0  0
    0.8210   -0.3530    2.4620 N   0  0  0  0  0  0  0  0  0  0  0  0
   -0.6050   -0.0890    2.5430 C   0  0  1  0  0  0  0  0  0  0  0  0
   -1.0290    1.2440    2.0600 C   0  0  0  0  0  0  0  0  0  0  0  0
   -0.7430    1.6240    0.6820 C   0  0  0  0  0  0  0  0  0  0  0  0
    0.3720    2.3970    0.2810 C   0  0  0  0  0  0  0  0  0  0  0  0
    0.3460    2.5390   -1.0480 N   0  0  0  0  0  0  0  0  0  0  0  0
   -0.7120    1.9140   -1.5780 C   0  0  0  0  0  0  0  0  0  0  0  0
   -1.1300    1.8060   -2.8870 C   0  0  0  0  0  0  0  0  0  0  0  0
   -2.2890    1.0940   -3.1780 C   0  0  0  0  0  0  0  0  0  0  0  0
   -2.9760    0.5240   -2.1290 C   0  0  0  0  0  0  0  0  0  0  0  0
   -2.5270    0.6520   -0.8160 C   0  0  0  0  0  0  0  0  0  0  0  0
   -1.3820    1.3510   -0.5110 C   0  0  0  0  0  0  0  0  0  0  0  0
   -1.4560   -1.2390    2.2280 C   0  0  0  0  0  0  0  0  0  0  0  0
   -2.6970   -1.0990    2.2510 O   0  0  0  0  0  0  0  0  0  0  0  0
    1.4150   -0.3050    3.3180 H   0  0  0  0  0  0  0  0  0  0  0  0
   -0.7900    0.0030    3.7060 H   0  0  0  0  0  0  0  0  0  0  0  0
   -0.5180    2.0020    2.7280 H   0  0  0  0  0  0  0  0  0  0  0  0
   -2.1080    1.3690    2.3310 H   0  0  0  0  0  0  0  0  0  0  0  0
    1.1160    2.7990    0.9660 H   0  0  0  0  0  0  0  0  0  0  0  0
    1.0760    3.0790   -1.6020 H   0  0  0  0  0  0  0  0  0  0  0  0
   -0.6110    2.2430   -3.7260 H   0  0  0  0  0  0  0  0  0  0  0  0
   -2.6580    0.9810   -4.1900 H   0  0  0  0  0  0  0  0  0  0  0  0
   -3.8840   -0.0330   -2.3580 H   0  0  0  0  0  0  0  0  0  0  0  0
   -3.0650    0.2180    0.0030 H   0  0  0  0  0  0  0  0  0  0  0  0
   -0.9230   -2.5030    1.9030 N   0  0  0  0  0  0  0  0  0  0  0  0
   -1.8060   -3.6360    1.5920 C   0  0  1  0  0  0  0  0  0  0  0  0
   -1.6180   -4.0850    0.1600 C   0  0  0  0  0  0  0  0  0  0  0  0
    0.0690   -4.6180   -0.1940 S   0  0  0  0  0  0  0  0  0  0  0  0
   -1.5550   -4.7670    2.5070 C   0  0  0  0  0  0  0  0  0  0  0  0
   -2.1790   -5.8510    2.4510 O   0  0  0  0  0  0  0  0  0  0  0  0
   -0.5800   -4.6340    3.4820 O   0  0  0  0  0  0  0  0  0  0  0  0
    0.0930   -2.7220    1.8740 H   0  0  0  0  0  0  0  0  0  0  0  0
   -2.8770   -3.3500    1.6810 H   0  0  0  0  0  0  0  0  0  0  0  0
   -1.9070   -3.2590   -0.5350 H   0  0  0  0  0  0  0  0  0  0  0  0
   -2.3050   -4.9150   -0.0550 H   0  0  0  0  0  0  0  0  0  0  0  0
    0.3000   -4.5110   -1.5680 H   0  0  0  0  0  0  0  0  0  0  0  0
  1  2  1  0  0  0  0
  2  6  1  0  0  0  0
  2 11  1  1  0  0  0
  3  2  1  0  0  0  0
  3  4  1  0  0  0  0
  4  8  1  0  0  0  0
  5  4  2  0  0  0  0
  6 15  1  0  0  0  0
  7  6  2  0  0  0  0
  8 14  1  0  0  0  0
  9  1  1  0  0  0  0
 10  1  1  0  0  0  0
 12  3  1  0  0  0  0
 13  3  1  0  0  0  0
 15 16  1  0  0  0  0
 15 29  1  0  0  0  0
 16 30  1  1  0  0  0
 17 32  1  0  0  0  0
 17 16  1  0  0  0  0
 17 31  1  0  0  0  0
 18 17  1  0  0  0  0
 19 18  2  0  0  0  0
 19 33  1  0  0  0  0
 20 19  1  0  0  0  0
 21 20  1  0  0  0  0
 21 26  1  0  0  0  0
 22 21  2  0  0  0  0
 23 22  1  0  0  0  0
 23 24  2  0  0  0  0
 24 25  1  0  0  0  0
 25 26  2  0  0  0  0
 25 38  1  0  0  0  0
 26 18  1  0  0  0  0
 27 28  2  0  0  0  0
 27 16  1  0  0  0  0
 34 20  1  0  0  0  0
 35 22  1  0  0  0  0
 36 23  1  0  0  0  0
 37 24  1  0  0  0  0
 39 27  1  0  0  0  0
 40 47  1  1  0  0  0
 40 39  1  0  0  0  0
 40 43  1  0  0  0  0
 41 40  1  0  0  0  0
 42 41  1  0  0  0  0
 43 45  1  0  0  0  0
 44 43  2  0  0  0  0
 46 39  1  0  0  0  0
 48 41  1  0  0  0  0
 49 41  1  0  0  0  0
 50 42  1  0  0  0  0
M  END
$$$$
