DWI.pdb
 OpenBabel07022418163D

 58 59  0  0  1  0  0  0  0  0999 V2000
    5.7810    0.4660    0.7730 N   0  0  0  0  0  0  0  0  0  0  0  0
    4.5080    0.5180    0.1040 C   0  0  1  0  0  0  0  0  0  0  0  0
    4.4290   -0.5850   -0.9240 C   0  0  0  0  0  0  0  0  0  0  0  0
    4.5730   -1.9280   -0.3150 C   0  0  0  0  0  0  0  0  0  0  0  0
    4.7500   -2.0940    0.9300 O   0  0  0  0  0  0  0  0  0  0  0  0
    3.4150    0.4380    1.0980 C   0  0  0  0  0  0  0  0  0  0  0  0
    3.6970    0.2980    2.3390 O   0  0  0  0  0  0  0  0  0  0  0  0
    4.5190   -3.0740   -1.0930 O   0  0  0  0  0  0  0  0  0  0  0  0
    5.6660    0.6700    1.7840 H   0  0  0  0  0  0  0  0  0  0  0  0
    6.3460   -0.3710    0.5640 H   0  0  0  0  0  0  0  0  0  0  0  0
    4.4390    1.4760   -0.4390 H   0  0  0  0  0  0  0  0  0  0  0  0
    3.5090   -0.5410   -1.5110 H   0  0  0  0  0  0  0  0  0  0  0  0
    5.2840   -0.4400   -1.6070 H   0  0  0  0  0  0  0  0  0  0  0  0
    4.5620   -4.0130   -0.7140 H   0  0  0  0  0  0  0  0  0  0  0  0
    2.0730    0.5200    0.6520 N   0  0  0  0  0  0  0  0  0  0  0  0
    0.9600    0.4440    1.5810 C   0  0  1  0  0  0  0  0  0  0  0  0
    0.3400    1.8080    1.7210 C   0  0  0  0  0  0  0  0  0  0  0  0
   -0.8240    1.9090    2.6000 C   0  0  0  0  0  0  0  0  0  0  0  0
   -0.8530    2.2380    3.9480 C   0  0  0  0  0  0  0  0  0  0  0  0
   -2.1030    2.1910    4.4260 N   0  0  0  0  0  0  0  0  0  0  0  0
   -2.9130    1.8290    3.3850 C   0  0  0  0  0  0  0  0  0  0  0  0
   -4.2940    1.6520    3.3390 C   0  0  0  0  0  0  0  0  0  0  0  0
   -4.8770    1.2970    2.1440 C   0  0  0  0  0  0  0  0  0  0  0  0
   -4.1180    1.1180    1.0060 C   0  0  0  0  0  0  0  0  0  0  0  0
   -2.7650    1.2970    1.0760 C   0  0  0  0  0  0  0  0  0  0  0  0
   -2.1510    1.6510    2.2560 C   0  0  0  0  0  0  0  0  0  0  0  0
    0.0510   -0.6650    1.3070 C   0  0  0  0  0  0  0  0  0  0  0  0
   -0.8960   -0.9570    2.1160 O   0  0  0  0  0  0  0  0  0  0  0  0
    1.9000    0.6350   -0.3680 H   0  0  0  0  0  0  0  0  0  0  0  0
    1.4040    0.2310    2.6050 H   0  0  0  0  0  0  0  0  0  0  0  0
    0.0710    2.2480    0.7300 H   0  0  0  0  0  0  0  0  0  0  0  0
    1.1450    2.4840    2.1450 H   0  0  0  0  0  0  0  0  0  0  0  0
    0.0130    2.5060    4.5730 H   0  0  0  0  0  0  0  0  0  0  0  0
   -2.4440    2.3850    5.4000 H   0  0  0  0  0  0  0  0  0  0  0  0
   -4.8780    1.7980    4.2520 H   0  0  0  0  0  0  0  0  0  0  0  0
   -5.9480    1.1550    2.0890 H   0  0  0  0  0  0  0  0  0  0  0  0
   -4.6130    0.8340    0.0560 H   0  0  0  0  0  0  0  0  0  0  0  0
   -2.1570    1.1610    0.2030 H   0  0  0  0  0  0  0  0  0  0  0  0
   -2.2160   -4.4820   -2.4030 C   0  0  0  0  0  0  0  0  0  0  0  0
   -2.7090   -3.3250   -1.6090 C   0  0  0  0  0  0  0  0  0  0  0  0
   -1.6850   -2.2970   -1.2310 C   0  0  2  0  0  0  0  0  0  0  0  0
   -1.0580   -1.7450   -2.4630 C   0  0  0  0  0  0  0  0  0  0  0  0
   -0.8110   -2.5970   -0.0800 C   0  0  2  0  0  0  0  0  0  0  0  0
    0.1370   -1.4910    0.1530 N   0  0  0  0  0  0  0  0  0  0  0  0
   -0.1180   -3.8680   -0.0130 C   0  0  0  0  0  0  0  0  0  0  0  0
    1.1640   -3.8240    0.1260 O   0  0  0  0  0  0  0  0  0  0  0  0
   -0.6140   -5.1390   -0.0720 O   0  0  0  0  0  0  0  0  0  0  0  0
   -2.7460   -4.4810   -3.4140 H   0  0  0  0  0  0  0  0  0  0  0  0
   -1.1300   -4.4670   -2.6210 H   0  0  0  0  0  0  0  0  0  0  0  0
   -2.4720   -5.4840   -2.0000 H   0  0  0  0  0  0  0  0  0  0  0  0
   -3.2550   -3.7080   -0.6990 H   0  0  0  0  0  0  0  0  0  0  0  0
   -3.4960   -2.7900   -2.2110 H   0  0  0  0  0  0  0  0  0  0  0  0
   -2.3520   -1.4120   -0.8550 H   0  0  0  0  0  0  0  0  0  0  0  0
   -0.8480   -2.5570   -3.2140 H   0  0  0  0  0  0  0  0  0  0  0  0
   -0.1680   -1.1130   -2.2910 H   0  0  0  0  0  0  0  0  0  0  0  0
   -1.8030   -1.1020   -2.9810 H   0  0  0  0  0  0  0  0  0  0  0  0
   -1.4940   -2.5890    0.8270 H   0  0  0  0  0  0  0  0  0  0  0  0
    0.9030   -1.2870   -0.5330 H   0  0  0  0  0  0  0  0  0  0  0  0
  1  9  1  0  0  0  0
  2 11  1  6  0  0  0
  2  1  1  0  0  0  0
  2  6  1  0  0  0  0
  3  4  1  0  0  0  0
  3  2  1  0  0  0  0
  4  5  2  0  0  0  0
  6  7  2  0  0  0  0
  8 14  1  0  0  0  0
  8  4  1  0  0  0  0
 10  1  1  0  0  0  0
 12  3  1  0  0  0  0
 13  3  1  0  0  0  0
 15  6  1  0  0  0  0
 15 16  1  0  0  0  0
 16 17  1  0  0  0  0
 16 30  1  1  0  0  0
 17 32  1  0  0  0  0
 17 18  1  0  0  0  0
 18 19  2  0  0  0  0
 19 20  1  0  0  0  0
 19 33  1  0  0  0  0
 20 34  1  0  0  0  0
 21 20  1  0  0  0  0
 22 21  1  0  0  0  0
 22 35  1  0  0  0  0
 23 22  2  0  0  0  0
 24 25  2  0  0  0  0
 24 23  1  0  0  0  0
 25 26  1  0  0  0  0
 26 18  1  0  0  0  0
 26 21  2  0  0  0  0
 27 16  1  0  0  0  0
 27 28  2  0  0  0  0
 29 15  1  0  0  0  0
 31 17  1  0  0  0  0
 36 23  1  0  0  0  0
 37 24  1  0  0  0  0
 38 25  1  0  0  0  0
 39 50  1  0  0  0  0
 39 40  1  0  0  0  0
 40 41  1  0  0  0  0
 40 51  1  0  0  0  0
 41 53  1  1  0  0  0
 41 43  1  0  0  0  0
 42 55  1  0  0  0  0
 42 41  1  0  0  0  0
 43 45  1  0  0  0  0
 43 44  1  0  0  0  0
 43 57  1  1  0  0  0
 44 27  1  0  0  0  0
 45 46  1  0  0  0  0
 47 45  2  0  0  0  0
 48 39  1  0  0  0  0
 49 39  1  0  0  0  0
 52 40  1  0  0  0  0
 54 42  1  0  0  0  0
 56 42  1  0  0  0  0
 58 44  1  0  0  0  0
M  END
$$$$
