DWK.pdb
 OpenBabel07022418163D

 60 61  0  0  1  0  0  0  0  0999 V2000
    3.5400    0.8990    2.4410 N   0  0  0  0  0  0  0  0  0  0  0  0
    2.5410    0.3330    3.3280 C   0  0  1  0  0  0  0  0  0  0  0  0
    2.1310    1.4300    4.2950 C   0  0  0  0  0  0  0  0  0  0  0  0
    3.3100    1.9000    5.0810 C   0  0  0  0  0  0  0  0  0  0  0  0
    4.4660    1.4370    4.9410 O   0  0  0  0  0  0  0  0  0  0  0  0
    1.3510   -0.0080    2.4980 C   0  0  0  0  0  0  0  0  0  0  0  0
    0.3400   -0.4980    3.0580 O   0  0  0  0  0  0  0  0  0  0  0  0
    3.1370    2.9010    6.0200 O   0  0  0  0  0  0  0  0  0  0  0  0
    3.4810    1.9380    2.4280 H   0  0  0  0  0  0  0  0  0  0  0  0
    4.5000    0.5360    2.6450 H   0  0  0  0  0  0  0  0  0  0  0  0
    2.9550   -0.5380    3.8360 H   0  0  0  0  0  0  0  0  0  0  0  0
    1.7280    2.3050    3.7490 H   0  0  0  0  0  0  0  0  0  0  0  0
    1.3300    1.0430    4.9420 H   0  0  0  0  0  0  0  0  0  0  0  0
    3.6550    2.9400    6.8920 H   0  0  0  0  0  0  0  0  0  0  0  0
    1.3000    0.1910    1.1050 N   0  0  0  0  0  0  0  0  0  0  0  0
    0.1290   -0.1530    0.3490 C   0  0  1  0  0  0  0  0  0  0  0  0
   -0.5070    1.0800   -0.2850 C   0  0  0  0  0  0  0  0  0  0  0  0
   -0.9120    2.0600    0.7570 C   0  0  0  0  0  0  0  0  0  0  0  0
   -0.3150    3.2440    1.1350 C   0  0  0  0  0  0  0  0  0  0  0  0
   -1.0290    3.8120    2.1290 N   0  0  0  0  0  0  0  0  0  0  0  0
   -2.0950    3.0400    2.4340 C   0  0  0  0  0  0  0  0  0  0  0  0
   -3.1150    3.1680    3.3560 C   0  0  0  0  0  0  0  0  0  0  0  0
   -4.1000    2.2090    3.4590 C   0  0  0  0  0  0  0  0  0  0  0  0
   -4.0510    1.1130    2.6210 C   0  0  0  0  0  0  0  0  0  0  0  0
   -3.0250    1.0040    1.7070 C   0  0  0  0  0  0  0  0  0  0  0  0
   -2.0300    1.9510    1.5880 C   0  0  0  0  0  0  0  0  0  0  0  0
    0.3990   -1.1970   -0.6690 C   0  0  0  0  0  0  0  0  0  0  0  0
    1.5660   -1.6570   -0.7580 O   0  0  0  0  0  0  0  0  0  0  0  0
    2.1170    0.5920    0.6170 H   0  0  0  0  0  0  0  0  0  0  0  0
   -0.6310   -0.5550    1.0500 H   0  0  0  0  0  0  0  0  0  0  0  0
   -1.3050    0.8210   -0.9810 H   0  0  0  0  0  0  0  0  0  0  0  0
    0.3060    1.5550   -0.8930 H   0  0  0  0  0  0  0  0  0  0  0  0
    0.6000    3.6180    0.6630 H   0  0  0  0  0  0  0  0  0  0  0  0
   -0.8100    4.7080    2.6040 H   0  0  0  0  0  0  0  0  0  0  0  0
   -3.1850    4.0150    4.0310 H   0  0  0  0  0  0  0  0  0  0  0  0
   -4.9160    2.3010    4.1910 H   0  0  0  0  0  0  0  0  0  0  0  0
   -4.8300    0.3650    2.7090 H   0  0  0  0  0  0  0  0  0  0  0  0
   -2.9650    0.1490    1.0350 H   0  0  0  0  0  0  0  0  0  0  0  0
   -0.5770   -1.7040   -1.5430 N   0  0  0  0  0  0  0  0  0  0  0  0
   -0.3450   -2.7290   -2.5530 C   0  0  1  0  0  0  0  0  0  0  0  0
   -1.2280   -3.9130   -2.3370 C   0  0  0  0  0  0  0  0  0  0  0  0
   -1.0690   -5.0180   -3.3110 C   0  0  0  0  0  0  0  0  0  0  0  0
    0.3110   -5.6110   -3.3590 C   0  0  0  0  0  0  0  0  0  0  0  0
    0.7400   -6.1900   -2.0300 C   0  0  0  0  0  0  0  0  0  0  0  0
   -0.2160   -7.2300   -1.6900 N   0  0  0  0  0  0  0  0  0  0  0  0
   -0.5750   -2.1410   -3.8850 C   0  0  0  0  0  0  0  0  0  0  0  0
   -0.9430   -0.9400   -3.9870 O   0  0  0  0  0  0  0  0  0  0  0  0
   -0.4090   -2.8330   -5.0710 O   0  0  0  0  0  0  0  0  0  0  0  0
   -1.5460   -1.3280   -1.4770 H   0  0  0  0  0  0  0  0  0  0  0  0
    0.7180   -3.0510   -2.5040 H   0  0  0  0  0  0  0  0  0  0  0  0
   -2.2900   -3.5380   -2.4480 H   0  0  0  0  0  0  0  0  0  0  0  0
   -1.0980   -4.3520   -1.3090 H   0  0  0  0  0  0  0  0  0  0  0  0
   -1.3870   -4.7730   -4.3260 H   0  0  0  0  0  0  0  0  0  0  0  0
   -1.7590   -5.8490   -2.9670 H   0  0  0  0  0  0  0  0  0  0  0  0
    1.0630   -4.9130   -3.7620 H   0  0  0  0  0  0  0  0  0  0  0  0
    0.2690   -6.4670   -4.0760 H   0  0  0  0  0  0  0  0  0  0  0  0
    0.8290   -5.4360   -1.2410 H   0  0  0  0  0  0  0  0  0  0  0  0
    1.7120   -6.6990   -2.2060 H   0  0  0  0  0  0  0  0  0  0  0  0
   -1.0130   -6.8750   -1.1190 H   0  0  0  0  0  0  0  0  0  0  0  0
   -0.5780   -7.7050   -2.5460 H   0  0  0  0  0  0  0  0  0  0  0  0
  1 10  1  0  0  0  0
  1  2  1  0  0  0  0
  2 11  1  1  0  0  0
  2  3  1  0  0  0  0
  3 13  1  0  0  0  0
  3  4  1  0  0  0  0
  4  8  1  0  0  0  0
  5  4  2  0  0  0  0
  6  7  2  0  0  0  0
  6  2  1  0  0  0  0
  8 14  1  0  0  0  0
  9  1  1  0  0  0  0
 12  3  1  0  0  0  0
 15  6  1  0  0  0  0
 16 30  1  1  0  0  0
 16 15  1  0  0  0  0
 17 16  1  0  0  0  0
 17 18  1  0  0  0  0
 18 19  2  0  0  0  0
 18 26  1  0  0  0  0
 19 20  1  0  0  0  0
 20 21  1  0  0  0  0
 20 34  1  0  0  0  0
 21 22  1  0  0  0  0
 22 23  2  0  0  0  0
 22 35  1  0  0  0  0
 23 36  1  0  0  0  0
 24 37  1  0  0  0  0
 24 23  1  0  0  0  0
 25 24  2  0  0  0  0
 26 25  1  0  0  0  0
 26 21  2  0  0  0  0
 27 16  1  0  0  0  0
 28 27  2  0  0  0  0
 29 15  1  0  0  0  0
 31 17  1  0  0  0  0
 32 17  1  0  0  0  0
 33 19  1  0  0  0  0
 38 25  1  0  0  0  0
 39 49  1  0  0  0  0
 39 27  1  0  0  0  0
 40 50  1  1  0  0  0
 40 41  1  0  0  0  0
 40 39  1  0  0  0  0
 41 52  1  0  0  0  0
 42 54  1  0  0  0  0
 42 41  1  0  0  0  0
 43 42  1  0  0  0  0
 43 44  1  0  0  0  0
 44 45  1  0  0  0  0
 44 57  1  0  0  0  0
 45 59  1  0  0  0  0
 46 40  1  0  0  0  0
 47 46  1  0  0  0  0
 48 46  2  0  0  0  0
 51 41  1  0  0  0  0
 53 42  1  0  0  0  0
 55 43  1  0  0  0  0
 56 43  1  0  0  0  0
 58 44  1  0  0  0  0
 60 45  1  0  0  0  0
M  END
$$$$
