DWQ.pdb
 OpenBabel07022418163D

 56 57  0  0  1  0  0  0  0  0999 V2000
    3.5370    0.3680    2.8530 N   0  0  0  0  0  0  0  0  0  0  0  0
    2.5020   -0.4410    3.4380 C   0  0  1  0  0  0  0  0  0  0  0  0
    2.0990    0.1230    4.7720 C   0  0  0  0  0  0  0  0  0  0  0  0
    1.5930    1.5010    4.7050 C   0  0  0  0  0  0  0  0  0  0  0  0
    1.5510    2.1270    3.6270 O   0  0  0  0  0  0  0  0  0  0  0  0
    1.3630   -0.6890    2.5250 C   0  0  0  0  0  0  0  0  0  0  0  0
    0.3220   -1.3120    2.9330 O   0  0  0  0  0  0  0  0  0  0  0  0
    1.1530    2.1230    5.8610 O   0  0  0  0  0  0  0  0  0  0  0  0
    3.1970    1.1080    2.2240 H   0  0  0  0  0  0  0  0  0  0  0  0
    4.3760   -0.1350    2.5430 H   0  0  0  0  0  0  0  0  0  0  0  0
    2.9810   -1.4650    3.5940 H   0  0  0  0  0  0  0  0  0  0  0  0
    1.2940   -0.5280    5.2030 H   0  0  0  0  0  0  0  0  0  0  0  0
    2.9740    0.0450    5.4490 H   0  0  0  0  0  0  0  0  0  0  0  0
    0.4250    2.8290    5.8220 H   0  0  0  0  0  0  0  0  0  0  0  0
    1.3020   -0.2890    1.1660 N   0  0  0  0  0  0  0  0  0  0  0  0
    0.1860   -0.5590    0.3200 C   0  0  1  0  0  0  0  0  0  0  0  0
   -0.3780    0.7000   -0.2820 C   0  0  0  0  0  0  0  0  0  0  0  0
   -0.8620    1.6880    0.7070 C   0  0  0  0  0  0  0  0  0  0  0  0
   -0.2480    2.8900    1.0800 C   0  0  0  0  0  0  0  0  0  0  0  0
   -1.0120    3.5020    1.9960 N   0  0  0  0  0  0  0  0  0  0  0  0
   -2.1070    2.7850    2.2670 C   0  0  0  0  0  0  0  0  0  0  0  0
   -3.1780    2.9800    3.1160 C   0  0  0  0  0  0  0  0  0  0  0  0
   -4.1780    2.0330    3.1720 C   0  0  0  0  0  0  0  0  0  0  0  0
   -4.1040    0.9040    2.3820 C   0  0  0  0  0  0  0  0  0  0  0  0
   -3.0310    0.7160    1.5360 C   0  0  0  0  0  0  0  0  0  0  0  0
   -2.0150    1.6530    1.4630 C   0  0  0  0  0  0  0  0  0  0  0  0
    0.5190   -1.5220   -0.7670 C   0  0  0  0  0  0  0  0  0  0  0  0
    1.6850   -1.9790   -0.8420 O   0  0  0  0  0  0  0  0  0  0  0  0
    2.1030    0.2220    0.7650 H   0  0  0  0  0  0  0  0  0  0  0  0
   -0.6160   -1.0230    0.9670 H   0  0  0  0  0  0  0  0  0  0  0  0
   -1.2380    0.4580   -0.9660 H   0  0  0  0  0  0  0  0  0  0  0  0
    0.3840    1.2040   -0.9330 H   0  0  0  0  0  0  0  0  0  0  0  0
    0.6920    3.2000    0.6490 H   0  0  0  0  0  0  0  0  0  0  0  0
   -0.7830    4.4160    2.4390 H   0  0  0  0  0  0  0  0  0  0  0  0
   -3.2740    3.8490    3.7510 H   0  0  0  0  0  0  0  0  0  0  0  0
   -5.0360    2.1800    3.8470 H   0  0  0  0  0  0  0  0  0  0  0  0
   -4.8800    0.1530    2.4150 H   0  0  0  0  0  0  0  0  0  0  0  0
   -2.9340   -0.1570    0.8980 H   0  0  0  0  0  0  0  0  0  0  0  0
    1.1960   -6.6320   -4.5110 N   0  0  0  0  0  0  0  0  0  0  0  0
    0.6730   -5.7320   -3.5330 C   0  0  0  0  0  0  0  0  0  0  0  0
    1.3650   -5.4090   -2.5480 O   0  0  0  0  0  0  0  0  0  0  0  0
   -0.6920   -5.1780   -3.6810 C   0  0  0  0  0  0  0  0  0  0  0  0
   -0.9530   -4.1020   -2.6730 C   0  0  0  0  0  0  0  0  0  0  0  0
   -0.0310   -2.9180   -2.7970 C   0  0  2  0  0  0  0  0  0  0  0  0
   -0.4170   -1.9580   -1.7350 N   0  0  0  0  0  0  0  0  0  0  0  0
   -0.1850   -2.2570   -4.1180 C   0  0  0  0  0  0  0  0  0  0  0  0
   -0.6300   -1.0620   -4.1430 O   0  0  0  0  0  0  0  0  0  0  0  0
    0.1080   -2.8100   -5.3350 O   0  0  0  0  0  0  0  0  0  0  0  0
    2.2060   -6.8500   -4.5160 H   0  0  0  0  0  0  0  0  0  0  0  0
    0.5620   -7.0510   -5.1990 H   0  0  0  0  0  0  0  0  0  0  0  0
   -1.4240   -6.0220   -3.5150 H   0  0  0  0  0  0  0  0  0  0  0  0
   -0.8730   -4.7830   -4.7200 H   0  0  0  0  0  0  0  0  0  0  0  0
   -0.8310   -4.5340   -1.6470 H   0  0  0  0  0  0  0  0  0  0  0  0
   -2.0220   -3.7880   -2.7370 H   0  0  0  0  0  0  0  0  0  0  0  0
    1.0170   -3.1910   -2.6980 H   0  0  0  0  0  0  0  0  0  0  0  0
   -1.3890   -1.6100   -1.7130 H   0  0  0  0  0  0  0  0  0  0  0  0
  1  2  1  0  0  0  0
  2 11  1  1  0  0  0
  2  3  1  0  0  0  0
  3 12  1  0  0  0  0
  3 13  1  0  0  0  0
  4  3  1  0  0  0  0
  4  8  1  0  0  0  0
  5  4  2  0  0  0  0
  6  7  2  0  0  0  0
  6  2  1  0  0  0  0
  9  1  1  0  0  0  0
 10  1  1  0  0  0  0
 14  8  1  0  0  0  0
 15  6  1  0  0  0  0
 16 30  1  1  0  0  0
 16 15  1  0  0  0  0
 17 16  1  0  0  0  0
 17 18  1  0  0  0  0
 18 19  2  0  0  0  0
 18 26  1  0  0  0  0
 19 20  1  0  0  0  0
 20 21  1  0  0  0  0
 20 34  1  0  0  0  0
 21 22  1  0  0  0  0
 22 23  2  0  0  0  0
 22 35  1  0  0  0  0
 23 36  1  0  0  0  0
 24 37  1  0  0  0  0
 24 23  1  0  0  0  0
 25 24  2  0  0  0  0
 26 25  1  0  0  0  0
 26 21  2  0  0  0  0
 27 16  1  0  0  0  0
 28 27  2  0  0  0  0
 29 15  1  0  0  0  0
 31 17  1  0  0  0  0
 32 17  1  0  0  0  0
 33 19  1  0  0  0  0
 38 25  1  0  0  0  0
 39 40  1  0  0  0  0
 40 41  2  0  0  0  0
 42 40  1  0  0  0  0
 42 51  1  0  0  0  0
 42 43  1  0  0  0  0
 43 53  1  0  0  0  0
 44 55  1  1  0  0  0
 44 43  1  0  0  0  0
 44 45  1  0  0  0  0
 45 56  1  0  0  0  0
 45 27  1  0  0  0  0
 46 44  1  0  0  0  0
 47 46  1  0  0  0  0
 48 46  2  0  0  0  0
 49 39  1  0  0  0  0
 50 39  1  0  0  0  0
 52 42  1  0  0  0  0
 54 43  1  0  0  0  0
M  END
$$$$
