DWV.pdb
 OpenBabel07022418163D

 55 56  0  0  1  0  0  0  0  0999 V2000
    2.3110   -2.9540    4.3000 N   0  0  0  0  0  0  0  0  0  0  0  0
    1.5920   -1.7700    3.9620 C   0  0  1  0  0  0  0  0  0  0  0  0
    2.4040   -0.5190    4.2140 C   0  0  0  0  0  0  0  0  0  0  0  0
    3.6520   -0.5150    3.4120 C   0  0  0  0  0  0  0  0  0  0  0  0
    3.9530   -1.4550    2.6370 O   0  0  0  0  0  0  0  0  0  0  0  0
    1.1310   -1.8240    2.5330 C   0  0  0  0  0  0  0  0  0  0  0  0
    1.4380   -2.8310    1.8620 O   0  0  0  0  0  0  0  0  0  0  0  0
    4.5040    0.5710    3.5350 O   0  0  0  0  0  0  0  0  0  0  0  0
    3.2320   -2.8030    4.7330 H   0  0  0  0  0  0  0  0  0  0  0  0
    2.3060   -3.6130    3.5010 H   0  0  0  0  0  0  0  0  0  0  0  0
    0.6650   -1.6810    4.5690 H   0  0  0  0  0  0  0  0  0  0  0  0
    2.6800   -0.5220    5.2790 H   0  0  0  0  0  0  0  0  0  0  0  0
    1.7690    0.3530    4.0020 H   0  0  0  0  0  0  0  0  0  0  0  0
    5.3930    0.5170    3.0410 H   0  0  0  0  0  0  0  0  0  0  0  0
    0.3800   -0.7900    1.9520 N   0  0  0  0  0  0  0  0  0  0  0  0
   -0.1300   -0.7230    0.6120 C   0  0  1  0  0  0  0  0  0  0  0  0
    0.7820   -0.0770   -0.3660 C   0  0  0  0  0  0  0  0  0  0  0  0
    1.0610    1.3330    0.0550 C   0  0  0  0  0  0  0  0  0  0  0  0
    2.1910    1.8610    0.6410 C   0  0  0  0  0  0  0  0  0  0  0  0
    2.0060    3.1730    0.8470 N   0  0  0  0  0  0  0  0  0  0  0  0
    0.7900    3.5650    0.4250 C   0  0  0  0  0  0  0  0  0  0  0  0
    0.1440    4.7900    0.4210 C   0  0  0  0  0  0  0  0  0  0  0  0
   -1.1330    4.9100   -0.0860 C   0  0  0  0  0  0  0  0  0  0  0  0
   -1.7280    3.7650   -0.5820 C   0  0  0  0  0  0  0  0  0  0  0  0
   -1.0780    2.5460   -0.5750 C   0  0  0  0  0  0  0  0  0  0  0  0
    0.1960    2.4220   -0.0700 C   0  0  0  0  0  0  0  0  0  0  0  0
   -0.7560   -1.9820    0.1790 C   0  0  0  0  0  0  0  0  0  0  0  0
   -0.8910   -2.9070    1.0000 O   0  0  0  0  0  0  0  0  0  0  0  0
    0.1900    0.0280    2.6250 H   0  0  0  0  0  0  0  0  0  0  0  0
   -1.0480   -0.0180    0.6910 H   0  0  0  0  0  0  0  0  0  0  0  0
    1.7900   -0.5840   -0.3720 H   0  0  0  0  0  0  0  0  0  0  0  0
    0.4380   -0.0710   -1.3940 H   0  0  0  0  0  0  0  0  0  0  0  0
    3.0770    1.2820    0.8850 H   0  0  0  0  0  0  0  0  0  0  0  0
    2.6910    3.8340    1.2760 H   0  0  0  0  0  0  0  0  0  0  0  0
    0.6080    5.6860    0.8080 H   0  0  0  0  0  0  0  0  0  0  0  0
   -1.6730    5.8550   -0.1070 H   0  0  0  0  0  0  0  0  0  0  0  0
   -2.7290    3.8640   -0.9780 H   0  0  0  0  0  0  0  0  0  0  0  0
   -1.5450    1.6430   -0.9650 H   0  0  0  0  0  0  0  0  0  0  0  0
   -4.1110   -2.5350   -1.1320 C   0  0  0  0  0  0  0  0  0  0  0  0
   -3.2070   -3.2610   -2.1100 C   0  0  0  0  0  0  0  0  0  0  0  0
   -3.7800   -4.5930   -2.4900 C   0  0  0  0  0  0  0  0  0  0  0  0
   -1.8330   -3.4900   -1.4860 C   0  0  2  0  0  0  0  0  0  0  0  0
   -1.2250   -2.2130   -1.1410 N   0  0  0  0  0  0  0  0  0  0  0  0
   -0.9950   -4.1180   -2.5620 C   0  0  0  0  0  0  0  0  0  0  0  0
   -1.2970   -5.2390   -3.0480 O   0  0  0  0  0  0  0  0  0  0  0  0
    0.1400   -3.4950   -3.0630 O   0  0  0  0  0  0  0  0  0  0  0  0
   -3.9930   -2.9730   -0.1290 H   0  0  0  0  0  0  0  0  0  0  0  0
   -3.7550   -1.4720   -1.1090 H   0  0  0  0  0  0  0  0  0  0  0  0
   -5.1440   -2.6130   -1.5090 H   0  0  0  0  0  0  0  0  0  0  0  0
   -3.0400   -2.6490   -3.0120 H   0  0  0  0  0  0  0  0  0  0  0  0
   -3.3070   -5.3840   -1.8630 H   0  0  0  0  0  0  0  0  0  0  0  0
   -3.5340   -4.7880   -3.5540 H   0  0  0  0  0  0  0  0  0  0  0  0
   -4.8870   -4.5930   -2.3800 H   0  0  0  0  0  0  0  0  0  0  0  0
   -1.8580   -4.1600   -0.6260 H   0  0  0  0  0  0  0  0  0  0  0  0
   -1.1280   -1.4720   -1.8420 H   0  0  0  0  0  0  0  0  0  0  0  0
  1  9  1  0  0  0  0
  2  3  1  0  0  0  0
  2  1  1  0  0  0  0
  2 11  1  1  0  0  0
  3 12  1  0  0  0  0
  4  8  1  0  0  0  0
  4  3  1  0  0  0  0
  5  4  2  0  0  0  0
  6  2  1  0  0  0  0
  7  6  2  0  0  0  0
 10  1  1  0  0  0  0
 13  3  1  0  0  0  0
 14  8  1  0  0  0  0
 15  6  1  0  0  0  0
 15 29  1  0  0  0  0
 16 30  1  1  0  0  0
 16 15  1  0  0  0  0
 17 18  1  0  0  0  0
 17 16  1  0  0  0  0
 18 19  2  0  0  0  0
 19 20  1  0  0  0  0
 19 33  1  0  0  0  0
 20 34  1  0  0  0  0
 21 20  1  0  0  0  0
 22 21  1  0  0  0  0
 22 35  1  0  0  0  0
 23 22  2  0  0  0  0
 24 25  2  0  0  0  0
 24 23  1  0  0  0  0
 25 26  1  0  0  0  0
 26 18  1  0  0  0  0
 26 21  2  0  0  0  0
 27 16  1  0  0  0  0
 27 28  2  0  0  0  0
 31 17  1  0  0  0  0
 32 17  1  0  0  0  0
 36 23  1  0  0  0  0
 37 24  1  0  0  0  0
 38 25  1  0  0  0  0
 39 48  1  0  0  0  0
 39 47  1  0  0  0  0
 40 42  1  0  0  0  0
 40 39  1  0  0  0  0
 41 53  1  0  0  0  0
 41 40  1  0  0  0  0
 41 51  1  0  0  0  0
 42 43  1  0  0  0  0
 42 54  1  1  0  0  0
 43 27  1  0  0  0  0
 44 42  1  0  0  0  0
 45 44  1  0  0  0  0
 46 44  2  0  0  0  0
 49 39  1  0  0  0  0
 50 40  1  0  0  0  0
 52 41  1  0  0  0  0
 55 43  1  0  0  0  0
M  END
$$$$
