DWW.pdb
 OpenBabel07022418163D

 63 66  0  0  1  0  0  0  0  0999 V2000
    0.9440   -2.1750    5.2310 N   0  0  0  0  0  0  0  0  0  0  0  0
    1.4480   -0.9860    4.5310 C   0  0  1  0  0  0  0  0  0  0  0  0
    2.9170   -1.1200    4.4310 C   0  0  0  0  0  0  0  0  0  0  0  0
    3.5720    0.0140    3.7510 C   0  0  0  0  0  0  0  0  0  0  0  0
    3.9370   -0.0420    2.5380 O   0  0  0  0  0  0  0  0  0  0  0  0
    0.6930   -0.8130    3.2780 C   0  0  0  0  0  0  0  0  0  0  0  0
   -0.1690   -1.7050    2.9560 O   0  0  0  0  0  0  0  0  0  0  0  0
    3.8180    1.1990    4.4250 O   0  0  0  0  0  0  0  0  0  0  0  0
   -0.0630   -2.2570    4.9760 H   0  0  0  0  0  0  0  0  0  0  0  0
    1.0880   -2.0450    6.2340 H   0  0  0  0  0  0  0  0  0  0  0  0
    1.2510   -0.1310    5.2480 H   0  0  0  0  0  0  0  0  0  0  0  0
    3.2480   -2.1020    4.0170 H   0  0  0  0  0  0  0  0  0  0  0  0
    3.3140   -1.0890    5.4940 H   0  0  0  0  0  0  0  0  0  0  0  0
    3.7650    2.0640    3.8640 H   0  0  0  0  0  0  0  0  0  0  0  0
    0.8140    0.2500    2.3680 N   0  0  0  0  0  0  0  0  0  0  0  0
   -0.0240    0.3090    1.1300 C   0  0  1  0  0  0  0  0  0  0  0  0
   -0.7010    1.6280    1.1480 C   0  0  0  0  0  0  0  0  0  0  0  0
   -1.5990    1.9060    0.0220 C   0  0  0  0  0  0  0  0  0  0  0  0
   -1.4180    2.7980   -1.0400 C   0  0  0  0  0  0  0  0  0  0  0  0
   -2.4970    2.7780   -1.8340 N   0  0  0  0  0  0  0  0  0  0  0  0
   -3.4170    1.9040   -1.3600 C   0  0  0  0  0  0  0  0  0  0  0  0
   -4.6630    1.5460   -1.8290 C   0  0  0  0  0  0  0  0  0  0  0  0
   -5.4120    0.6130   -1.1460 C   0  0  0  0  0  0  0  0  0  0  0  0
   -4.8840    0.0590    0.0010 C   0  0  0  0  0  0  0  0  0  0  0  0
   -3.6360    0.4310    0.4520 C   0  0  0  0  0  0  0  0  0  0  0  0
   -2.8650    1.3650   -0.2150 C   0  0  0  0  0  0  0  0  0  0  0  0
    0.7970    0.0590   -0.0300 C   0  0  0  0  0  0  0  0  0  0  0  0
    2.0580   -0.1000    0.1220 O   0  0  0  0  0  0  0  0  0  0  0  0
    1.4850    1.0130    2.5640 H   0  0  0  0  0  0  0  0  0  0  0  0
   -0.8150   -0.4910    1.2480 H   0  0  0  0  0  0  0  0  0  0  0  0
   -1.2500    1.8010    2.1320 H   0  0  0  0  0  0  0  0  0  0  0  0
    0.0560    2.4820    1.1450 H   0  0  0  0  0  0  0  0  0  0  0  0
   -0.5170    3.3870   -1.1430 H   0  0  0  0  0  0  0  0  0  0  0  0
   -2.6600    3.3400   -2.7150 H   0  0  0  0  0  0  0  0  0  0  0  0
   -5.0870    1.9730   -2.7260 H   0  0  0  0  0  0  0  0  0  0  0  0
   -6.4100    0.2960   -1.4820 H   0  0  0  0  0  0  0  0  0  0  0  0
   -5.4150   -0.6830    0.5910 H   0  0  0  0  0  0  0  0  0  0  0  0
   -3.1910    0.0080    1.3590 H   0  0  0  0  0  0  0  0  0  0  0  0
    0.3240   -0.0360   -1.3480 N   0  0  0  0  0  0  0  0  0  0  0  0
    1.1970   -0.3100   -2.4470 C   0  0  1  0  0  0  0  0  0  0  0  0
    0.9150   -1.7310   -2.9450 C   0  0  0  0  0  0  0  0  0  0  0  0
    1.1230   -2.7520   -1.8950 C   0  0  0  0  0  0  0  0  0  0  0  0
    2.2750   -3.5020   -1.6650 C   0  0  0  0  0  0  0  0  0  0  0  0
    2.0980   -4.2950   -0.6020 N   0  0  0  0  0  0  0  0  0  0  0  0
    0.8770   -4.1120   -0.1070 C   0  0  0  0  0  0  0  0  0  0  0  0
    0.1630   -4.6540    0.9490 C   0  0  0  0  0  0  0  0  0  0  0  0
   -1.1300   -4.2860    1.2420 C   0  0  0  0  0  0  0  0  0  0  0  0
   -1.7700   -3.3440    0.4750 C   0  0  0  0  0  0  0  0  0  0  0  0
   -1.0580   -2.7890   -0.5940 C   0  0  0  0  0  0  0  0  0  0  0  0
    0.2280   -3.1470   -0.8940 C   0  0  0  0  0  0  0  0  0  0  0  0
    1.1510    0.6560   -3.5450 C   0  0  0  0  0  0  0  0  0  0  0  0
    1.8880    0.4700   -4.5730 O   0  0  0  0  0  0  0  0  0  0  0  0
    0.3290    1.7550   -3.4840 O   0  0  0  0  0  0  0  0  0  0  0  0
   -0.6890    0.0930   -1.5790 H   0  0  0  0  0  0  0  0  0  0  0  0
    2.2520   -0.3610   -2.0220 H   0  0  0  0  0  0  0  0  0  0  0  0
   -0.1460   -1.7670   -3.2650 H   0  0  0  0  0  0  0  0  0  0  0  0
    1.5160   -1.9590   -3.8530 H   0  0  0  0  0  0  0  0  0  0  0  0
    3.1580   -3.4220   -2.2810 H   0  0  0  0  0  0  0  0  0  0  0  0
    2.8160   -4.9460   -0.2340 H   0  0  0  0  0  0  0  0  0  0  0  0
    0.6680   -5.4090    1.5680 H   0  0  0  0  0  0  0  0  0  0  0  0
   -1.6480   -4.7470    2.0910 H   0  0  0  0  0  0  0  0  0  0  0  0
   -2.7760   -3.0170    0.6530 H   0  0  0  0  0  0  0  0  0  0  0  0
   -1.5570   -2.0510   -1.2210 H   0  0  0  0  0  0  0  0  0  0  0  0
  1 10  1  0  0  0  0
  2  1  1  0  0  0  0
  2 11  1  1  0  0  0
  3  2  1  0  0  0  0
  3 13  1  0  0  0  0
  4  8  1  0  0  0  0
  4  3  1  0  0  0  0
  5  4  2  0  0  0  0
  6  2  1  0  0  0  0
  7  6  2  0  0  0  0
  9  1  1  0  0  0  0
 12  3  1  0  0  0  0
 14  8  1  0  0  0  0
 15 29  1  0  0  0  0
 15  6  1  0  0  0  0
 16 17  1  0  0  0  0
 16 30  1  1  0  0  0
 16 15  1  0  0  0  0
 17 31  1  0  0  0  0
 18 17  1  0  0  0  0
 19 18  2  0  0  0  0
 20 21  1  0  0  0  0
 20 19  1  0  0  0  0
 21 26  1  0  0  0  0
 22 21  2  0  0  0  0
 22 23  1  0  0  0  0
 23 24  2  0  0  0  0
 24 25  1  0  0  0  0
 24 37  1  0  0  0  0
 25 38  1  0  0  0  0
 26 18  1  0  0  0  0
 26 25  2  0  0  0  0
 27 28  2  0  0  0  0
 27 16  1  0  0  0  0
 32 17  1  0  0  0  0
 33 19  1  0  0  0  0
 34 20  1  0  0  0  0
 35 22  1  0  0  0  0
 36 23  1  0  0  0  0
 39 27  1  0  0  0  0
 40 55  1  1  0  0  0
 40 39  1  0  0  0  0
 41 40  1  0  0  0  0
 41 42  1  0  0  0  0
 42 43  2  0  0  0  0
 42 50  1  0  0  0  0
 43 44  1  0  0  0  0
 44 59  1  0  0  0  0
 44 45  1  0  0  0  0
 45 46  1  0  0  0  0
 46 47  2  0  0  0  0
 46 60  1  0  0  0  0
 47 61  1  0  0  0  0
 48 62  1  0  0  0  0
 48 47  1  0  0  0  0
 49 48  2  0  0  0  0
 50 49  1  0  0  0  0
 50 45  2  0  0  0  0
 51 53  1  0  0  0  0
 51 40  1  0  0  0  0
 52 51  2  0  0  0  0
 54 39  1  0  0  0  0
 56 41  1  0  0  0  0
 57 41  1  0  0  0  0
 58 43  1  0  0  0  0
 63 49  1  0  0  0  0
M  END
$$$$
