DWY.pdb
 OpenBabel07022418163D

 60 62  0  0  1  0  0  0  0  0999 V2000
    2.3320    0.6190    5.6180 N   0  0  0  0  0  0  0  0  0  0  0  0
    1.5130   -0.0870    4.6230 C   0  0  1  0  0  0  0  0  0  0  0  0
    0.2380   -0.4360    5.3820 C   0  0  0  0  0  0  0  0  0  0  0  0
   -0.7620   -1.1450    4.5830 C   0  0  0  0  0  0  0  0  0  0  0  0
   -1.6770   -0.4280    4.0730 O   0  0  0  0  0  0  0  0  0  0  0  0
    1.2630    0.7070    3.4160 C   0  0  0  0  0  0  0  0  0  0  0  0
    1.2840    1.9460    3.4260 O   0  0  0  0  0  0  0  0  0  0  0  0
   -0.7820   -2.5210    4.3500 O   0  0  0  0  0  0  0  0  0  0  0  0
    2.2470   -0.0040    6.4900 H   0  0  0  0  0  0  0  0  0  0  0  0
    3.3400    0.5890    5.4100 H   0  0  0  0  0  0  0  0  0  0  0  0
    2.0370   -1.0390    4.3610 H   0  0  0  0  0  0  0  0  0  0  0  0
    0.5530   -1.0930    6.2420 H   0  0  0  0  0  0  0  0  0  0  0  0
   -0.1900    0.4860    5.8670 H   0  0  0  0  0  0  0  0  0  0  0  0
   -1.6790   -2.9910    4.3400 H   0  0  0  0  0  0  0  0  0  0  0  0
    0.9820    0.0260    2.1630 N   0  0  0  0  0  0  0  0  0  0  0  0
    0.7310    0.7640    0.9260 C   0  0  1  0  0  0  0  0  0  0  0  0
    1.9730    0.8710    0.1040 C   0  0  0  0  0  0  0  0  0  0  0  0
    1.7300    1.6190   -1.1500 C   0  0  0  0  0  0  0  0  0  0  0  0
    1.8000    3.0180   -1.2310 C   0  0  0  0  0  0  0  0  0  0  0  0
    1.4600    3.4020   -2.5010 N   0  0  0  0  0  0  0  0  0  0  0  0
    1.1800    2.3090   -3.2210 C   0  0  0  0  0  0  0  0  0  0  0  0
    0.8010    2.2000   -4.5830 C   0  0  0  0  0  0  0  0  0  0  0  0
    0.5980    0.9360   -5.0740 C   0  0  0  0  0  0  0  0  0  0  0  0
    0.7560   -0.1580   -4.2840 C   0  0  0  0  0  0  0  0  0  0  0  0
    1.1260   -0.0470   -2.9480 C   0  0  0  0  0  0  0  0  0  0  0  0
    1.3400    1.2120   -2.4080 C   0  0  0  0  0  0  0  0  0  0  0  0
   -0.4780    0.3540    0.2340 C   0  0  0  0  0  0  0  0  0  0  0  0
   -0.8870    0.9220   -0.7970 O   0  0  0  0  0  0  0  0  0  0  0  0
    0.9840   -1.0100    2.2090 H   0  0  0  0  0  0  0  0  0  0  0  0
    0.5630    1.8360    1.3010 H   0  0  0  0  0  0  0  0  0  0  0  0
    2.7360    1.4030    0.7270 H   0  0  0  0  0  0  0  0  0  0  0  0
    2.3680   -0.1280   -0.2070 H   0  0  0  0  0  0  0  0  0  0  0  0
    2.0740    3.6690   -0.4340 H   0  0  0  0  0  0  0  0  0  0  0  0
    1.4340    4.3730   -2.8140 H   0  0  0  0  0  0  0  0  0  0  0  0
    0.6790    3.0630   -5.1880 H   0  0  0  0  0  0  0  0  0  0  0  0
    0.3000    0.8090   -6.1470 H   0  0  0  0  0  0  0  0  0  0  0  0
    0.5920   -1.1370   -4.7120 H   0  0  0  0  0  0  0  0  0  0  0  0
    1.2610   -0.8840   -2.2890 H   0  0  0  0  0  0  0  0  0  0  0  0
    0.8830   -6.5660   -1.3120 O   0  0  0  0  0  0  0  0  0  0  0  0
   -0.0080   -5.5870   -0.9380 C   0  0  0  0  0  0  0  0  0  0  0  0
   -0.9910   -5.1720   -1.8260 C   0  0  0  0  0  0  0  0  0  0  0  0
   -1.8620   -4.2000   -1.4170 C   0  0  0  0  0  0  0  0  0  0  0  0
   -1.8330   -3.5860   -0.1580 C   0  0  0  0  0  0  0  0  0  0  0  0
   -2.8000   -2.5700    0.2370 C   0  0  0  0  0  0  0  0  0  0  0  0
   -2.4770   -1.1510    0.0140 C   0  0  2  0  0  0  0  0  0  0  0  0
   -1.2810   -0.7480    0.7210 N   0  0  0  0  0  0  0  0  0  0  0  0
   -3.6610   -0.3660    0.5570 C   0  0  0  0  0  0  0  0  0  0  0  0
   -4.8170   -0.5740    0.0340 O   0  0  0  0  0  0  0  0  0  0  0  0
   -0.8400   -4.0160    0.7180 C   0  0  0  0  0  0  0  0  0  0  0  0
    0.0170   -4.9740    0.3140 C   0  0  0  0  0  0  0  0  0  0  0  0
   -3.5750    0.5520    1.5680 O   0  0  0  0  0  0  0  0  0  0  0  0
    0.6940   -7.5630   -1.1950 H   0  0  0  0  0  0  0  0  0  0  0  0
   -1.0690   -5.6120   -2.8300 H   0  0  0  0  0  0  0  0  0  0  0  0
   -2.6260   -3.8790   -2.1340 H   0  0  0  0  0  0  0  0  0  0  0  0
   -3.1370   -2.7810    1.2960 H   0  0  0  0  0  0  0  0  0  0  0  0
   -3.7560   -2.8230   -0.3530 H   0  0  0  0  0  0  0  0  0  0  0  0
   -2.4160   -0.9010   -1.0640 H   0  0  0  0  0  0  0  0  0  0  0  0
   -0.9340   -1.2010    1.5830 H   0  0  0  0  0  0  0  0  0  0  0  0
   -0.7900   -3.5560    1.7080 H   0  0  0  0  0  0  0  0  0  0  0  0
    0.8050   -5.3250    0.9850 H   0  0  0  0  0  0  0  0  0  0  0  0
  1  9  1  0  0  0  0
  2 11  1  6  0  0  0
  2  3  1  0  0  0  0
  2  1  1  0  0  0  0
  3 13  1  0  0  0  0
  3 12  1  0  0  0  0
  4  3  1  0  0  0  0
  5  4  2  0  0  0  0
  6  7  2  0  0  0  0
  6  2  1  0  0  0  0
  8  4  1  0  0  0  0
 10  1  1  0  0  0  0
 14  8  1  0  0  0  0
 15 29  1  0  0  0  0
 15  6  1  0  0  0  0
 16 30  1  1  0  0  0
 16 15  1  0  0  0  0
 17 31  1  0  0  0  0
 17 16  1  0  0  0  0
 18 17  1  0  0  0  0
 19 18  2  0  0  0  0
 19 33  1  0  0  0  0
 20 19  1  0  0  0  0
 21 20  1  0  0  0  0
 21 26  1  0  0  0  0
 22 21  2  0  0  0  0
 23 22  1  0  0  0  0
 23 24  2  0  0  0  0
 24 25  1  0  0  0  0
 25 26  2  0  0  0  0
 25 38  1  0  0  0  0
 26 18  1  0  0  0  0
 27 46  1  0  0  0  0
 27 16  1  0  0  0  0
 28 27  2  0  0  0  0
 32 17  1  0  0  0  0
 34 20  1  0  0  0  0
 35 22  1  0  0  0  0
 36 23  1  0  0  0  0
 37 24  1  0  0  0  0
 39 52  1  0  0  0  0
 39 40  1  0  0  0  0
 40 50  1  0  0  0  0
 41 42  1  0  0  0  0
 41 40  2  0  0  0  0
 42 43  2  0  0  0  0
 43 44  1  0  0  0  0
 43 49  1  0  0  0  0
 44 55  1  0  0  0  0
 45 57  1  6  0  0  0
 45 44  1  0  0  0  0
 45 47  1  0  0  0  0
 45 46  1  0  0  0  0
 46 58  1  0  0  0  0
 47 51  1  0  0  0  0
 48 47  2  0  0  0  0
 49 59  1  0  0  0  0
 50 49  2  0  0  0  0
 50 60  1  0  0  0  0
 53 41  1  0  0  0  0
 54 42  1  0  0  0  0
 56 44  1  0  0  0  0
M  END
$$$$
