DYD.pdb
 OpenBabel07022418163D

 49 49  0  0  1  0  0  0  0  0999 V2000
    3.6510   -0.0550    1.8840 N   0  0  0  0  0  0  0  0  0  0  0  0
    2.9090   -0.0020    3.1240 C   0  0  1  0  0  0  0  0  0  0  0  0
    3.3850    1.0650    4.0440 C   0  0  0  0  0  0  0  0  0  0  0  0
    3.3000    2.4330    3.4690 C   0  0  0  0  0  0  0  0  0  0  0  0
    2.8780    2.6860    2.3210 O   0  0  0  0  0  0  0  0  0  0  0  0
    1.4720   -0.1230    2.9220 C   0  0  0  0  0  0  0  0  0  0  0  0
    0.6660   -0.0630    3.9040 O   0  0  0  0  0  0  0  0  0  0  0  0
    3.7180    3.5300    4.2530 O   0  0  0  0  0  0  0  0  0  0  0  0
    3.5770   -1.0190    1.4520 H   0  0  0  0  0  0  0  0  0  0  0  0
    3.3620    0.6500    1.1860 H   0  0  0  0  0  0  0  0  0  0  0  0
    3.2050   -0.9790    3.6480 H   0  0  0  0  0  0  0  0  0  0  0  0
    4.4640    0.9160    4.3190 H   0  0  0  0  0  0  0  0  0  0  0  0
    2.8540    1.1010    5.0050 H   0  0  0  0  0  0  0  0  0  0  0  0
    3.9430    4.4210    3.8610 H   0  0  0  0  0  0  0  0  0  0  0  0
    2.1070    0.8920   -4.2490 O   0  0  0  0  0  0  0  0  0  0  0  0
    1.3770    0.8710   -3.0540 C   0  0  0  0  0  0  0  0  0  0  0  0
    1.8890    1.5040   -1.9420 C   0  0  0  0  0  0  0  0  0  0  0  0
    1.1310    1.4510   -0.7950 C   0  0  0  0  0  0  0  0  0  0  0  0
   -0.0850    0.8140   -0.6960 C   0  0  0  0  0  0  0  0  0  0  0  0
   -0.8670    0.7860    0.5460 C   0  0  0  0  0  0  0  0  0  0  0  0
   -0.4750   -0.4470    1.3640 C   0  0  2  0  0  0  0  0  0  0  0  0
    0.9340   -0.3150    1.6340 N   0  0  0  0  0  0  0  0  0  0  0  0
   -0.8340   -1.6430    0.6020 C   0  0  0  0  0  0  0  0  0  0  0  0
   -0.0380   -2.4660    0.1230 O   0  0  0  0  0  0  0  0  0  0  0  0
   -0.5650    0.1860   -1.8440 C   0  0  0  0  0  0  0  0  0  0  0  0
    0.1590    0.2150   -3.0060 C   0  0  0  0  0  0  0  0  0  0  0  0
    1.5640    0.7720   -5.1200 H   0  0  0  0  0  0  0  0  0  0  0  0
    2.8440    2.0070   -2.0130 H   0  0  0  0  0  0  0  0  0  0  0  0
    1.5160    1.9370    0.0790 H   0  0  0  0  0  0  0  0  0  0  0  0
   -1.9590    0.8240    0.3800 H   0  0  0  0  0  0  0  0  0  0  0  0
   -0.5610    1.6630    1.1760 H   0  0  0  0  0  0  0  0  0  0  0  0
   -0.9980   -0.3800    2.3560 H   0  0  0  0  0  0  0  0  0  0  0  0
    1.5900   -0.3580    0.8290 H   0  0  0  0  0  0  0  0  0  0  0  0
   -1.5280   -0.3330   -1.8200 H   0  0  0  0  0  0  0  0  0  0  0  0
   -0.1950   -0.2720   -3.9210 H   0  0  0  0  0  0  0  0  0  0  0  0
   -2.2430   -1.8930    0.3880 N   0  0  0  0  0  0  0  0  0  0  0  0
   -2.6100   -3.0760   -0.3700 C   0  0  1  0  0  0  0  0  0  0  0  0
   -3.3070   -4.0620    0.5550 C   0  0  0  0  0  0  0  0  0  0  0  0
   -2.4590   -4.4660    1.6930 C   0  0  0  0  0  0  0  0  0  0  0  0
   -1.8970   -3.5350    2.3280 O   0  0  0  0  0  0  0  0  0  0  0  0
   -3.5990   -2.7290   -1.4190 C   0  0  0  0  0  0  0  0  0  0  0  0
   -4.0570   -3.5940   -2.2120 O   0  0  0  0  0  0  0  0  0  0  0  0
   -2.2620   -5.7910    2.0770 O   0  0  0  0  0  0  0  0  0  0  0  0
   -4.0160   -1.4160   -1.5140 O   0  0  0  0  0  0  0  0  0  0  0  0
   -2.9750   -1.2540    0.7590 H   0  0  0  0  0  0  0  0  0  0  0  0
   -1.7310   -3.5370   -0.8370 H   0  0  0  0  0  0  0  0  0  0  0  0
   -4.2050   -3.5620    0.9850 H   0  0  0  0  0  0  0  0  0  0  0  0
   -3.6390   -4.9550    0.0230 H   0  0  0  0  0  0  0  0  0  0  0  0
   -2.0280   -5.9860    3.0510 H   0  0  0  0  0  0  0  0  0  0  0  0
  1  2  1  0  0  0  0
  2 11  1  1  0  0  0
  2  3  1  0  0  0  0
  3 12  1  0  0  0  0
  3 13  1  0  0  0  0
  4  3  1  0  0  0  0
  4  8  1  0  0  0  0
  5  4  2  0  0  0  0
  6  2  1  0  0  0  0
  6  7  2  0  0  0  0
  9  1  1  0  0  0  0
 10  1  1  0  0  0  0
 14  8  1  0  0  0  0
 15 16  1  0  0  0  0
 16 26  2  0  0  0  0
 16 17  1  0  0  0  0
 17 18  2  0  0  0  0
 18 19  1  0  0  0  0
 18 29  1  0  0  0  0
 19 20  1  0  0  0  0
 20 31  1  0  0  0  0
 20 21  1  0  0  0  0
 21 22  1  0  0  0  0
 21 32  1  1  0  0  0
 22  6  1  0  0  0  0
 23 21  1  0  0  0  0
 24 23  2  0  0  0  0
 25 34  1  0  0  0  0
 25 19  2  0  0  0  0
 26 25  1  0  0  0  0
 27 15  1  0  0  0  0
 28 17  1  0  0  0  0
 30 20  1  0  0  0  0
 33 22  1  0  0  0  0
 35 26  1  0  0  0  0
 36 23  1  0  0  0  0
 36 45  1  0  0  0  0
 37 46  1  6  0  0  0
 37 36  1  0  0  0  0
 37 38  1  0  0  0  0
 38 47  1  0  0  0  0
 38 39  1  0  0  0  0
 39 43  1  0  0  0  0
 39 40  2  0  0  0  0
 41 37  1  0  0  0  0
 42 41  2  0  0  0  0
 43 49  1  0  0  0  0
 44 41  1  0  0  0  0
 48 38  1  0  0  0  0
M  END
$$$$
