DYE.pdb
 OpenBabel07022418163D

 52 52  0  0  1  0  0  0  0  0999 V2000
    3.7400   -1.3210    4.2340 N   0  0  0  0  0  0  0  0  0  0  0  0
    2.6670   -0.4670    4.6860 C   0  0  1  0  0  0  0  0  0  0  0  0
    3.2770    0.7600    5.3190 C   0  0  0  0  0  0  0  0  0  0  0  0
    4.1060    1.5060    4.3600 C   0  0  0  0  0  0  0  0  0  0  0  0
    4.7620    2.5310    4.7180 O   0  0  0  0  0  0  0  0  0  0  0  0
    1.7010   -0.1150    3.6190 C   0  0  0  0  0  0  0  0  0  0  0  0
    0.7560    0.6580    3.9240 O   0  0  0  0  0  0  0  0  0  0  0  0
    4.2060    1.1350    3.0490 O   0  0  0  0  0  0  0  0  0  0  0  0
    4.0330   -1.1450    3.2660 H   0  0  0  0  0  0  0  0  0  0  0  0
    3.5260   -2.3360    4.3370 H   0  0  0  0  0  0  0  0  0  0  0  0
    2.1230   -1.0100    5.5010 H   0  0  0  0  0  0  0  0  0  0  0  0
    3.8860    0.3890    6.1840 H   0  0  0  0  0  0  0  0  0  0  0  0
    2.4700    1.3790    5.7660 H   0  0  0  0  0  0  0  0  0  0  0  0
    4.6280    1.7550    2.3710 H   0  0  0  0  0  0  0  0  0  0  0  0
   -1.7790    2.4070   -4.1720 O   0  0  0  0  0  0  0  0  0  0  0  0
   -0.9970    1.9380   -3.1060 C   0  0  0  0  0  0  0  0  0  0  0  0
   -0.9000    2.6560   -1.9340 C   0  0  0  0  0  0  0  0  0  0  0  0
   -0.1370    2.2070   -0.8820 C   0  0  0  0  0  0  0  0  0  0  0  0
    0.5820    1.0050   -0.9370 C   0  0  0  0  0  0  0  0  0  0  0  0
    1.4140    0.5580    0.1710 C   0  0  0  0  0  0  0  0  0  0  0  0
    0.7620   -0.1910    1.2650 C   0  0  2  0  0  0  0  0  0  0  0  0
    1.7360   -0.5640    2.2850 N   0  0  0  0  0  0  0  0  0  0  0  0
   -0.0030   -1.3900    0.9290 C   0  0  0  0  0  0  0  0  0  0  0  0
    0.3870   -2.5030    1.4420 O   0  0  0  0  0  0  0  0  0  0  0  0
    0.4620    0.3130   -2.1250 C   0  0  0  0  0  0  0  0  0  0  0  0
   -0.3000    0.7530   -3.1860 C   0  0  0  0  0  0  0  0  0  0  0  0
   -1.3240    3.0800   -4.8060 H   0  0  0  0  0  0  0  0  0  0  0  0
   -1.4610    3.5890   -1.8980 H   0  0  0  0  0  0  0  0  0  0  0  0
   -0.0900    2.8030    0.0170 H   0  0  0  0  0  0  0  0  0  0  0  0
    1.8170    1.5040    0.6540 H   0  0  0  0  0  0  0  0  0  0  0  0
    2.2570   -0.0300   -0.2630 H   0  0  0  0  0  0  0  0  0  0  0  0
    0.0430    0.4960    1.8080 H   0  0  0  0  0  0  0  0  0  0  0  0
    2.4940   -1.2040    1.9870 H   0  0  0  0  0  0  0  0  0  0  0  0
    0.9880   -0.6340   -2.2540 H   0  0  0  0  0  0  0  0  0  0  0  0
   -0.3590    0.1760   -4.0870 H   0  0  0  0  0  0  0  0  0  0  0  0
   -1.1360   -1.4660    0.1010 N   0  0  0  0  0  0  0  0  0  0  0  0
   -1.8660   -2.7150   -0.1900 C   0  0  1  0  0  0  0  0  0  0  0  0
   -3.1850   -2.6240    0.4710 C   0  0  0  0  0  0  0  0  0  0  0  0
   -4.1670   -3.7030    0.3390 C   0  0  0  0  0  0  0  0  0  0  0  0
   -4.6670   -3.8680   -1.0430 C   0  0  0  0  0  0  0  0  0  0  0  0
   -5.0930   -4.9770   -1.4420 O   0  0  0  0  0  0  0  0  0  0  0  0
   -1.7650   -3.1490   -1.5590 C   0  0  0  0  0  0  0  0  0  0  0  0
   -1.2540   -2.3790   -2.4500 O   0  0  0  0  0  0  0  0  0  0  0  0
   -4.6730   -2.7780   -1.9170 O   0  0  0  0  0  0  0  0  0  0  0  0
   -2.1710   -4.3750   -2.0720 O   0  0  0  0  0  0  0  0  0  0  0  0
   -1.5110   -0.6130   -0.3350 H   0  0  0  0  0  0  0  0  0  0  0  0
   -1.2800   -3.4850    0.4250 H   0  0  0  0  0  0  0  0  0  0  0  0
   -3.0790   -2.4060    1.5860 H   0  0  0  0  0  0  0  0  0  0  0  0
   -3.6980   -1.6690    0.1150 H   0  0  0  0  0  0  0  0  0  0  0  0
   -3.8590   -4.6750    0.7880 H   0  0  0  0  0  0  0  0  0  0  0  0
   -5.0880   -3.4150    0.9360 H   0  0  0  0  0  0  0  0  0  0  0  0
   -4.9220   -2.8840   -2.9120 H   0  0  0  0  0  0  0  0  0  0  0  0
  1 10  1  0  0  0  0
  1  2  1  0  0  0  0
  2  3  1  0  0  0  0
  2 11  1  1  0  0  0
  3 13  1  0  0  0  0
  3 12  1  0  0  0  0
  4  5  2  0  0  0  0
  4  3  1  0  0  0  0
  6  7  2  0  0  0  0
  6  2  1  0  0  0  0
  8  4  1  0  0  0  0
  9  1  1  0  0  0  0
 14  8  1  0  0  0  0
 15 16  1  0  0  0  0
 16 17  1  0  0  0  0
 17 28  1  0  0  0  0
 17 18  2  0  0  0  0
 18 29  1  0  0  0  0
 19 18  1  0  0  0  0
 19 20  1  0  0  0  0
 20 30  1  0  0  0  0
 20 21  1  0  0  0  0
 21 32  1  1  0  0  0
 21 22  1  0  0  0  0
 22  6  1  0  0  0  0
 23 21  1  0  0  0  0
 23 24  2  0  0  0  0
 25 19  2  0  0  0  0
 26 16  2  0  0  0  0
 26 25  1  0  0  0  0
 27 15  1  0  0  0  0
 31 20  1  0  0  0  0
 33 22  1  0  0  0  0
 34 25  1  0  0  0  0
 35 26  1  0  0  0  0
 36 23  1  0  0  0  0
 37 36  1  0  0  0  0
 37 47  1  1  0  0  0
 37 38  1  0  0  0  0
 38 48  1  0  0  0  0
 39 38  1  0  0  0  0
 39 50  1  0  0  0  0
 39 51  1  0  0  0  0
 40 39  1  0  0  0  0
 41 40  2  0  0  0  0
 42 37  1  0  0  0  0
 43 42  2  0  0  0  0
 44 40  1  0  0  0  0
 45 42  1  0  0  0  0
 46 36  1  0  0  0  0
 49 38  1  0  0  0  0
 52 44  1  0  0  0  0
M  END
$$$$
