DYG.pdb
 OpenBabel07022418163D

 43 43  0  0  1  0  0  0  0  0999 V2000
    0.8580   -1.5930    4.6980 N   0  0  0  0  0  0  0  0  0  0  0  0
    1.9390   -1.9580    3.8350 C   0  0  1  0  0  0  0  0  0  0  0  0
    2.2800   -3.4280    3.9090 C   0  0  0  0  0  0  0  0  0  0  0  0
    1.1480   -4.2890    3.5290 C   0  0  0  0  0  0  0  0  0  0  0  0
    0.0290   -3.8390    3.1840 O   0  0  0  0  0  0  0  0  0  0  0  0
    1.7240   -1.5220    2.4290 C   0  0  0  0  0  0  0  0  0  0  0  0
    2.6160   -1.7930    1.5860 O   0  0  0  0  0  0  0  0  0  0  0  0
    1.3080   -5.6640    3.5480 O   0  0  0  0  0  0  0  0  0  0  0  0
    0.6330   -2.4010    5.3470 H   0  0  0  0  0  0  0  0  0  0  0  0
    1.1180   -0.8070    5.3630 H   0  0  0  0  0  0  0  0  0  0  0  0
    2.8490   -1.4070    4.1950 H   0  0  0  0  0  0  0  0  0  0  0  0
    2.6100   -3.6660    4.9340 H   0  0  0  0  0  0  0  0  0  0  0  0
    3.1670   -3.5730    3.2330 H   0  0  0  0  0  0  0  0  0  0  0  0
    0.4970   -6.2960    3.4640 H   0  0  0  0  0  0  0  0  0  0  0  0
   -1.6570    0.2260   -5.4500 O   0  0  0  0  0  0  0  0  0  0  0  0
   -1.4120   -0.1270   -4.1170 C   0  0  0  0  0  0  0  0  0  0  0  0
   -2.0140    0.5780   -3.1070 C   0  0  0  0  0  0  0  0  0  0  0  0
   -1.8070    0.2730   -1.7800 C   0  0  0  0  0  0  0  0  0  0  0  0
   -0.9740   -0.7710   -1.4500 C   0  0  0  0  0  0  0  0  0  0  0  0
   -0.7430   -1.0980   -0.0350 C   0  0  0  0  0  0  0  0  0  0  0  0
    0.4510   -0.4320    0.5800 C   0  0  2  0  0  0  0  0  0  0  0  0
    0.5820   -0.8260    1.9910 N   0  0  0  0  0  0  0  0  0  0  0  0
    0.3380    1.0380    0.5130 C   0  0  0  0  0  0  0  0  0  0  0  0
    0.2430    1.6650   -0.5710 O   0  0  0  0  0  0  0  0  0  0  0  0
   -0.3710   -1.4780   -2.4680 C   0  0  0  0  0  0  0  0  0  0  0  0
   -0.5790   -1.1700   -3.7950 C   0  0  0  0  0  0  0  0  0  0  0  0
   -0.8250    0.4250   -6.0110 H   0  0  0  0  0  0  0  0  0  0  0  0
   -2.6780    1.4090   -3.3560 H   0  0  0  0  0  0  0  0  0  0  0  0
   -2.3200    0.8680   -1.0140 H   0  0  0  0  0  0  0  0  0  0  0  0
   -0.5730   -2.2080    0.0770 H   0  0  0  0  0  0  0  0  0  0  0  0
   -1.6410   -0.9020    0.5990 H   0  0  0  0  0  0  0  0  0  0  0  0
    1.3510   -0.7760    0.0320 H   0  0  0  0  0  0  0  0  0  0  0  0
   -0.1620   -0.5970    2.6830 H   0  0  0  0  0  0  0  0  0  0  0  0
    0.3010   -2.3170   -2.2660 H   0  0  0  0  0  0  0  0  0  0  0  0
   -0.0880   -1.7480   -4.5660 H   0  0  0  0  0  0  0  0  0  0  0  0
    0.3290    1.8430    1.7000 N   0  0  0  0  0  0  0  0  0  0  0  0
    0.2180    3.2800    1.6130 C   0  0  0  0  0  0  0  0  0  0  0  0
    1.3420    3.8680    0.8440 C   0  0  0  0  0  0  0  0  0  0  0  0
    2.2270    3.1080    0.3760 O   0  0  0  0  0  0  0  0  0  0  0  0
    1.4570    5.2170    0.6190 O   0  0  0  0  0  0  0  0  0  0  0  0
    0.4040    1.3890    2.6360 H   0  0  0  0  0  0  0  0  0  0  0  0
   -0.7060    3.4840    0.9980 H   0  0  0  0  0  0  0  0  0  0  0  0
    0.0740    3.7540    2.5900 H   0  0  0  0  0  0  0  0  0  0  0  0
  1  9  1  0  0  0  0
  1 10  1  0  0  0  0
  2  3  1  0  0  0  0
  2 11  1  1  0  0  0
  2  1  1  0  0  0  0
  3 12  1  0  0  0  0
  4  8  1  0  0  0  0
  4  3  1  0  0  0  0
  5  4  2  0  0  0  0
  6  2  1  0  0  0  0
  7  6  2  0  0  0  0
 13  3  1  0  0  0  0
 14  8  1  0  0  0  0
 15 16  1  0  0  0  0
 16 26  2  0  0  0  0
 16 17  1  0  0  0  0
 17 18  2  0  0  0  0
 18 19  1  0  0  0  0
 18 29  1  0  0  0  0
 19 20  1  0  0  0  0
 20 30  1  0  0  0  0
 20 21  1  0  0  0  0
 20 31  1  0  0  0  0
 21 32  1  6  0  0  0
 21 22  1  0  0  0  0
 22  6  1  0  0  0  0
 22 33  1  0  0  0  0
 23 21  1  0  0  0  0
 23 36  1  0  0  0  0
 24 23  2  0  0  0  0
 25 34  1  0  0  0  0
 25 19  2  0  0  0  0
 26 25  1  0  0  0  0
 27 15  1  0  0  0  0
 28 17  1  0  0  0  0
 35 26  1  0  0  0  0
 36 41  1  0  0  0  0
 37 36  1  0  0  0  0
 37 43  1  0  0  0  0
 38 37  1  0  0  0  0
 39 38  2  0  0  0  0
 40 38  1  0  0  0  0
 42 37  1  0  0  0  0
M  END
$$$$
