DYH.pdb
 OpenBabel07022418163D

 53 54  0  0  1  0  0  0  0  0999 V2000
    3.0140   -0.0490    4.3940 N   0  0  0  0  0  0  0  0  0  0  0  0
    2.4970   -0.0950    3.0460 C   0  0  1  0  0  0  0  0  0  0  0  0
    2.4740   -1.4870    2.4850 C   0  0  0  0  0  0  0  0  0  0  0  0
    1.6510   -2.4180    3.2500 C   0  0  0  0  0  0  0  0  0  0  0  0
    1.0370   -2.0500    4.2740 O   0  0  0  0  0  0  0  0  0  0  0  0
    1.2000    0.6070    2.9240 C   0  0  0  0  0  0  0  0  0  0  0  0
    0.7140    1.1370    3.9540 O   0  0  0  0  0  0  0  0  0  0  0  0
    1.5390   -3.7340    2.8500 O   0  0  0  0  0  0  0  0  0  0  0  0
    4.0550   -0.0940    4.3350 H   0  0  0  0  0  0  0  0  0  0  0  0
    2.6860    0.7930    4.9080 H   0  0  0  0  0  0  0  0  0  0  0  0
    3.2240    0.4890    2.4160 H   0  0  0  0  0  0  0  0  0  0  0  0
    2.1720   -1.4100    1.4190 H   0  0  0  0  0  0  0  0  0  0  0  0
    3.5240   -1.8530    2.4760 H   0  0  0  0  0  0  0  0  0  0  0  0
    1.3600   -4.4850    3.5100 H   0  0  0  0  0  0  0  0  0  0  0  0
    1.1680    1.2730   -4.5780 O   0  0  0  0  0  0  0  0  0  0  0  0
    0.7140    1.5850   -3.3060 C   0  0  0  0  0  0  0  0  0  0  0  0
    1.6120    1.9090   -2.3100 C   0  0  0  0  0  0  0  0  0  0  0  0
    1.1510    2.2230   -1.0280 C   0  0  0  0  0  0  0  0  0  0  0  0
   -0.2010    2.2120   -0.7530 C   0  0  0  0  0  0  0  0  0  0  0  0
   -0.6440    2.5450    0.5920 C   0  0  0  0  0  0  0  0  0  0  0  0
   -0.7510    1.3650    1.5240 C   0  0  2  0  0  0  0  0  0  0  0  0
    0.5020    0.6970    1.6900 N   0  0  0  0  0  0  0  0  0  0  0  0
   -1.8430    0.4570    1.1000 C   0  0  0  0  0  0  0  0  0  0  0  0
   -2.9970    0.9210    0.9200 O   0  0  0  0  0  0  0  0  0  0  0  0
   -1.0820    1.8910   -1.7460 C   0  0  0  0  0  0  0  0  0  0  0  0
   -0.6380    1.5740   -3.0310 C   0  0  0  0  0  0  0  0  0  0  0  0
    1.4100    1.9740   -5.2690 H   0  0  0  0  0  0  0  0  0  0  0  0
    2.6600    1.9070   -2.5630 H   0  0  0  0  0  0  0  0  0  0  0  0
    1.8800    2.4720   -0.2690 H   0  0  0  0  0  0  0  0  0  0  0  0
    0.0810    3.2530    1.0470 H   0  0  0  0  0  0  0  0  0  0  0  0
   -1.6320    3.0730    0.6200 H   0  0  0  0  0  0  0  0  0  0  0  0
   -1.0690    1.7870    2.5190 H   0  0  0  0  0  0  0  0  0  0  0  0
    0.9440    0.2430    0.8620 H   0  0  0  0  0  0  0  0  0  0  0  0
   -2.1260    1.8870   -1.5130 H   0  0  0  0  0  0  0  0  0  0  0  0
   -1.3520    1.3220   -3.8040 H   0  0  0  0  0  0  0  0  0  0  0  0
   -1.6600   -0.9490    0.8780 N   0  0  0  0  0  0  0  0  0  0  0  0
   -2.7720   -1.7810    0.4640 C   0  0  1  0  0  0  0  0  0  0  0  0
   -2.5060   -2.4000   -0.8410 C   0  0  0  0  0  0  0  0  0  0  0  0
   -1.3810   -3.3060   -0.9810 C   0  0  0  0  0  0  0  0  0  0  0  0
   -0.4760   -3.7940   -0.0830 C   0  0  0  0  0  0  0  0  0  0  0  0
    0.3580   -4.6400   -0.7480 N   0  0  0  0  0  0  0  0  0  0  0  0
   -0.0360   -4.6670   -2.0340 C   0  0  0  0  0  0  0  0  0  0  0  0
   -1.0960   -3.8630   -2.2100 N   0  0  0  0  0  0  0  0  0  0  0  0
   -3.1450   -2.7530    1.5300 C   0  0  0  0  0  0  0  0  0  0  0  0
   -2.4920   -2.7410    2.6040 O   0  0  0  0  0  0  0  0  0  0  0  0
   -4.1690   -3.6400    1.3580 O   0  0  0  0  0  0  0  0  0  0  0  0
   -0.6940   -1.2810    1.0370 H   0  0  0  0  0  0  0  0  0  0  0  0
   -3.7040   -1.1500    0.3420 H   0  0  0  0  0  0  0  0  0  0  0  0
   -2.3150   -1.5490   -1.5690 H   0  0  0  0  0  0  0  0  0  0  0  0
   -3.4450   -2.8650   -1.2800 H   0  0  0  0  0  0  0  0  0  0  0  0
   -0.4470   -3.5560    0.9570 H   0  0  0  0  0  0  0  0  0  0  0  0
    1.1430   -5.1460   -0.2820 H   0  0  0  0  0  0  0  0  0  0  0  0
    0.4250   -5.2480   -2.8280 H   0  0  0  0  0  0  0  0  0  0  0  0
  1 10  1  0  0  0  0
  2 11  1  6  0  0  0
  2  1  1  0  0  0  0
  3  2  1  0  0  0  0
  3  4  1  0  0  0  0
  4  5  2  0  0  0  0
  6  2  1  0  0  0  0
  6  7  2  0  0  0  0
  8  4  1  0  0  0  0
  8 14  1  0  0  0  0
  9  1  1  0  0  0  0
 12  3  1  0  0  0  0
 13  3  1  0  0  0  0
 15 16  1  0  0  0  0
 16 26  2  0  0  0  0
 16 17  1  0  0  0  0
 17 18  2  0  0  0  0
 18 19  1  0  0  0  0
 18 29  1  0  0  0  0
 19 20  1  0  0  0  0
 20 31  1  0  0  0  0
 20 30  1  0  0  0  0
 20 21  1  0  0  0  0
 21 22  1  0  0  0  0
 21 32  1  1  0  0  0
 22  6  1  0  0  0  0
 23 21  1  0  0  0  0
 24 23  2  0  0  0  0
 25 34  1  0  0  0  0
 25 19  2  0  0  0  0
 26 25  1  0  0  0  0
 27 15  1  0  0  0  0
 28 17  1  0  0  0  0
 33 22  1  0  0  0  0
 35 26  1  0  0  0  0
 36 47  1  0  0  0  0
 36 23  1  0  0  0  0
 37 48  1  6  0  0  0
 37 36  1  0  0  0  0
 37 44  1  0  0  0  0
 38 37  1  0  0  0  0
 39 38  1  0  0  0  0
 39 40  2  0  0  0  0
 40 51  1  0  0  0  0
 41 52  1  0  0  0  0
 41 40  1  0  0  0  0
 42 41  1  0  0  0  0
 43 42  2  0  0  0  0
 43 39  1  0  0  0  0
 44 45  1  0  0  0  0
 46 44  2  0  0  0  0
 49 38  1  0  0  0  0
 50 38  1  0  0  0  0
 53 42  1  0  0  0  0
M  END
$$$$
