DYM.pdb
 OpenBabel07022418163D

 53 53  0  0  1  0  0  0  0  0999 V2000
    3.0660   -0.6800    2.6640 N   0  0  0  0  0  0  0  0  0  0  0  0
    2.1200   -0.1710    3.6390 C   0  0  1  0  0  0  0  0  0  0  0  0
    2.6300    1.1800    4.0970 C   0  0  0  0  0  0  0  0  0  0  0  0
    1.7890    1.8310    5.1150 C   0  0  0  0  0  0  0  0  0  0  0  0
    2.0820    3.0130    5.4300 O   0  0  0  0  0  0  0  0  0  0  0  0
    0.8330    0.0380    2.9280 C   0  0  0  0  0  0  0  0  0  0  0  0
   -0.2170    0.4710    3.4880 O   0  0  0  0  0  0  0  0  0  0  0  0
    0.7070    1.2620    5.7590 O   0  0  0  0  0  0  0  0  0  0  0  0
    3.3870   -1.6330    2.8420 H   0  0  0  0  0  0  0  0  0  0  0  0
    3.7830    0.0010    2.3920 H   0  0  0  0  0  0  0  0  0  0  0  0
    1.9330   -0.8570    4.4610 H   0  0  0  0  0  0  0  0  0  0  0  0
    2.7650    1.8700    3.2170 H   0  0  0  0  0  0  0  0  0  0  0  0
    3.6810    1.0560    4.4940 H   0  0  0  0  0  0  0  0  0  0  0  0
    0.3370    1.5730    6.6500 H   0  0  0  0  0  0  0  0  0  0  0  0
    4.3280   -0.4690   -3.4330 O   0  0  0  0  0  0  0  0  0  0  0  0
    3.2470   -0.1030   -2.6410 C   0  0  0  0  0  0  0  0  0  0  0  0
    3.4340    0.5700   -1.4580 C   0  0  0  0  0  0  0  0  0  0  0  0
    2.3490    0.9150   -0.7030 C   0  0  0  0  0  0  0  0  0  0  0  0
    1.0360    0.6140   -1.0780 C   0  0  0  0  0  0  0  0  0  0  0  0
   -0.1070    0.9980   -0.2500 C   0  0  0  0  0  0  0  0  0  0  0  0
   -0.4440   -0.0940    0.7400 C   0  0  2  0  0  0  0  0  0  0  0  0
    0.7670   -0.2620    1.5430 N   0  0  0  0  0  0  0  0  0  0  0  0
   -0.7460   -1.3950    0.1170 C   0  0  0  0  0  0  0  0  0  0  0  0
   -0.0060   -2.4220    0.2430 O   0  0  0  0  0  0  0  0  0  0  0  0
    0.8820   -0.0590   -2.2660 C   0  0  0  0  0  0  0  0  0  0  0  0
    1.9770   -0.4180   -3.0460 C   0  0  0  0  0  0  0  0  0  0  0  0
    4.2320   -0.5050   -4.4470 H   0  0  0  0  0  0  0  0  0  0  0  0
    4.4530    0.7960   -1.1800 H   0  0  0  0  0  0  0  0  0  0  0  0
    2.5240    1.4430    0.2210 H   0  0  0  0  0  0  0  0  0  0  0  0
    0.2220    1.8760    0.3740 H   0  0  0  0  0  0  0  0  0  0  0  0
   -0.9910    1.3150   -0.8360 H   0  0  0  0  0  0  0  0  0  0  0  0
   -1.2850    0.2750    1.3730 H   0  0  0  0  0  0  0  0  0  0  0  0
    1.5990   -0.6230    1.0400 H   0  0  0  0  0  0  0  0  0  0  0  0
   -0.0900   -0.3320   -2.6380 H   0  0  0  0  0  0  0  0  0  0  0  0
    1.8000   -0.9420   -3.9630 H   0  0  0  0  0  0  0  0  0  0  0  0
   -4.4790   -0.9470    1.6900 C   0  0  0  0  0  0  0  0  0  0  0  0
   -3.1110   -2.1160    1.7490 S   0  0  0  0  0  0  0  0  0  0  0  0
   -3.4380   -3.5920    0.7830 C   0  0  0  0  0  0  0  0  0  0  0  0
   -3.5380   -3.3580   -0.6900 C   0  0  0  0  0  0  0  0  0  0  0  0
   -2.2490   -2.7720   -1.2840 C   0  0  2  0  0  0  0  0  0  0  0  0
   -1.9360   -1.5050   -0.6700 N   0  0  0  0  0  0  0  0  0  0  0  0
   -2.4970   -2.6640   -2.7370 C   0  0  0  0  0  0  0  0  0  0  0  0
   -2.4400   -1.5420   -3.2830 O   0  0  0  0  0  0  0  0  0  0  0  0
   -2.7910   -3.7490   -3.5330 O   0  0  0  0  0  0  0  0  0  0  0  0
   -4.0910    0.0900    1.8020 H   0  0  0  0  0  0  0  0  0  0  0  0
   -5.2240   -1.1390    2.4670 H   0  0  0  0  0  0  0  0  0  0  0  0
   -4.9270   -0.9900    0.6610 H   0  0  0  0  0  0  0  0  0  0  0  0
   -4.3660   -4.0580    1.1490 H   0  0  0  0  0  0  0  0  0  0  0  0
   -2.6150   -4.3160    0.9880 H   0  0  0  0  0  0  0  0  0  0  0  0
   -3.6880   -4.3160   -1.2070 H   0  0  0  0  0  0  0  0  0  0  0  0
   -4.3670   -2.6760   -0.9670 H   0  0  0  0  0  0  0  0  0  0  0  0
   -1.4650   -3.5220   -1.1120 H   0  0  0  0  0  0  0  0  0  0  0  0
   -2.5790   -0.6970   -0.8080 H   0  0  0  0  0  0  0  0  0  0  0  0
  1  9  1  0  0  0  0
  1  2  1  0  0  0  0
  2  3  1  0  0  0  0
  2 11  1  1  0  0  0
  3 13  1  0  0  0  0
  3  4  1  0  0  0  0
  4  5  2  0  0  0  0
  4  8  1  0  0  0  0
  6  7  2  0  0  0  0
  6  2  1  0  0  0  0
  8 14  1  0  0  0  0
 10  1  1  0  0  0  0
 12  3  1  0  0  0  0
 15 16  1  0  0  0  0
 16 17  1  0  0  0  0
 17 28  1  0  0  0  0
 17 18  2  0  0  0  0
 18 29  1  0  0  0  0
 19 18  1  0  0  0  0
 19 20  1  0  0  0  0
 20 30  1  0  0  0  0
 20 21  1  0  0  0  0
 21 32  1  1  0  0  0
 21 22  1  0  0  0  0
 22  6  1  0  0  0  0
 23 24  2  0  0  0  0
 23 21  1  0  0  0  0
 25 19  2  0  0  0  0
 26 16  2  0  0  0  0
 26 25  1  0  0  0  0
 27 15  1  0  0  0  0
 31 20  1  0  0  0  0
 33 22  1  0  0  0  0
 34 25  1  0  0  0  0
 35 26  1  0  0  0  0
 36 37  1  0  0  0  0
 36 45  1  0  0  0  0
 36 46  1  0  0  0  0
 38 49  1  0  0  0  0
 38 48  1  0  0  0  0
 38 37  1  0  0  0  0
 39 38  1  0  0  0  0
 40 52  1  1  0  0  0
 40 39  1  0  0  0  0
 40 41  1  0  0  0  0
 41 23  1  0  0  0  0
 42 40  1  0  0  0  0
 43 42  1  0  0  0  0
 44 42  2  0  0  0  0
 47 36  1  0  0  0  0
 50 39  1  0  0  0  0
 51 39  1  0  0  0  0
 53 41  1  0  0  0  0
M  END
$$$$
