DYN.pdb
 OpenBabel07022418163D

 50 50  0  0  1  0  0  0  0  0999 V2000
    3.2020    0.7170    2.2490 N   0  0  0  0  0  0  0  0  0  0  0  0
    1.8270    1.0110    1.9480 C   0  0  1  0  0  0  0  0  0  0  0  0
    1.7350    2.2580    1.1010 C   0  0  0  0  0  0  0  0  0  0  0  0
    2.3110    3.4030    1.8030 C   0  0  0  0  0  0  0  0  0  0  0  0
    2.3330    4.5280    1.2550 O   0  0  0  0  0  0  0  0  0  0  0  0
    1.2250   -0.1100    1.1610 C   0  0  0  0  0  0  0  0  0  0  0  0
    1.9090   -1.1120    0.8640 O   0  0  0  0  0  0  0  0  0  0  0  0
    2.8300    3.2480    3.0670 O   0  0  0  0  0  0  0  0  0  0  0  0
    3.5330   -0.0380    1.6190 H   0  0  0  0  0  0  0  0  0  0  0  0
    3.2880    0.3620    3.2270 H   0  0  0  0  0  0  0  0  0  0  0  0
    1.2790    1.1860    2.8950 H   0  0  0  0  0  0  0  0  0  0  0  0
    2.2240    2.0510    0.1260 H   0  0  0  0  0  0  0  0  0  0  0  0
    0.6550    2.4690    0.8610 H   0  0  0  0  0  0  0  0  0  0  0  0
    2.8580    4.0220    3.7450 H   0  0  0  0  0  0  0  0  0  0  0  0
    0.8910    2.2210   -5.2590 O   0  0  0  0  0  0  0  0  0  0  0  0
    0.7100    1.2810   -4.2550 C   0  0  0  0  0  0  0  0  0  0  0  0
    1.6420    1.0540   -3.2670 C   0  0  0  0  0  0  0  0  0  0  0  0
    1.4600    0.1230   -2.2750 C   0  0  0  0  0  0  0  0  0  0  0  0
    0.3390   -0.6290   -2.2160 C   0  0  0  0  0  0  0  0  0  0  0  0
    0.0270   -1.6500   -1.1980 C   0  0  0  0  0  0  0  0  0  0  0  0
   -0.7520   -1.0990   -0.0230 C   0  0  2  0  0  0  0  0  0  0  0  0
   -0.1230   -0.0830    0.7280 N   0  0  0  0  0  0  0  0  0  0  0  0
   -1.2240   -2.1830    0.8800 C   0  0  0  0  0  0  0  0  0  0  0  0
   -1.8000   -3.1680    0.3820 O   0  0  0  0  0  0  0  0  0  0  0  0
   -0.6290   -0.4210   -3.2080 C   0  0  0  0  0  0  0  0  0  0  0  0
   -0.4330    0.5120   -4.1920 C   0  0  0  0  0  0  0  0  0  0  0  0
    1.7780    2.7100   -5.3150 H   0  0  0  0  0  0  0  0  0  0  0  0
    2.5500    1.6720   -3.3260 H   0  0  0  0  0  0  0  0  0  0  0  0
    2.2460    0.0170   -1.5520 H   0  0  0  0  0  0  0  0  0  0  0  0
   -0.6360   -2.4000   -1.6810 H   0  0  0  0  0  0  0  0  0  0  0  0
    0.9180   -2.2390   -0.8970 H   0  0  0  0  0  0  0  0  0  0  0  0
   -1.7180   -0.6810   -0.4840 H   0  0  0  0  0  0  0  0  0  0  0  0
   -0.6690    0.7840    1.0090 H   0  0  0  0  0  0  0  0  0  0  0  0
   -1.5500   -1.0000   -3.2060 H   0  0  0  0  0  0  0  0  0  0  0  0
   -1.1750    0.6960   -4.9820 H   0  0  0  0  0  0  0  0  0  0  0  0
   -3.8850   -2.2380    2.4130 N   0  0  0  0  0  0  0  0  0  0  0  0
   -3.4980   -3.5940    2.2660 C   0  0  0  0  0  0  0  0  0  0  0  0
   -4.3080   -4.3600    1.6500 O   0  0  0  0  0  0  0  0  0  0  0  0
   -2.2170   -4.1130    2.7980 C   0  0  0  0  0  0  0  0  0  0  0  0
   -1.3860   -2.9470    3.2980 C   0  0  2  0  0  0  0  0  0  0  0  0
   -1.0090   -2.0660    2.2570 N   0  0  0  0  0  0  0  0  0  0  0  0
   -0.3350   -3.2950    4.2340 C   0  0  0  0  0  0  0  0  0  0  0  0
    0.8200   -2.7890    4.0480 O   0  0  0  0  0  0  0  0  0  0  0  0
   -0.4560   -4.1270    5.3200 O   0  0  0  0  0  0  0  0  0  0  0  0
   -4.0980   -1.8550    3.3560 H   0  0  0  0  0  0  0  0  0  0  0  0
   -3.9680   -1.5930    1.5990 H   0  0  0  0  0  0  0  0  0  0  0  0
   -1.6340   -4.7170    2.1010 H   0  0  0  0  0  0  0  0  0  0  0  0
   -2.4940   -4.6910    3.7230 H   0  0  0  0  0  0  0  0  0  0  0  0
   -2.2130   -2.3880    3.9150 H   0  0  0  0  0  0  0  0  0  0  0  0
   -0.4750   -1.1680    2.5880 H   0  0  0  0  0  0  0  0  0  0  0  0
  1 10  1  0  0  0  0
  2  1  1  0  0  0  0
  2 11  1  1  0  0  0
  3  4  1  0  0  0  0
  3  2  1  0  0  0  0
  4  8  1  0  0  0  0
  5  4  2  0  0  0  0
  6  2  1  0  0  0  0
  7  6  2  0  0  0  0
  8 14  1  0  0  0  0
  9  1  1  0  0  0  0
 12  3  1  0  0  0  0
 13  3  1  0  0  0  0
 15 16  1  0  0  0  0
 16 26  2  0  0  0  0
 16 17  1  0  0  0  0
 17 18  2  0  0  0  0
 18 19  1  0  0  0  0
 18 29  1  0  0  0  0
 19 20  1  0  0  0  0
 20 31  1  0  0  0  0
 20 21  1  0  0  0  0
 21 32  1  6  0  0  0
 21 22  1  0  0  0  0
 21 23  1  0  0  0  0
 22 33  1  0  0  0  0
 22  6  1  0  0  0  0
 23 41  1  0  0  0  0
 24 23  2  0  0  0  0
 25 34  1  0  0  0  0
 25 19  2  0  0  0  0
 26 25  1  0  0  0  0
 27 15  1  0  0  0  0
 28 17  1  0  0  0  0
 30 20  1  0  0  0  0
 35 26  1  0  0  0  0
 36 45  1  0  0  0  0
 37 36  1  0  0  0  0
 37 39  1  0  0  0  0
 38 37  2  0  0  0  0
 39 40  1  0  0  0  0
 39 48  1  0  0  0  0
 40 49  1  1  0  0  0
 40 42  1  0  0  0  0
 41 50  1  0  0  0  0
 41 40  1  0  0  0  0
 42 44  1  0  0  0  0
 43 42  2  0  0  0  0
 46 36  1  0  0  0  0
 47 39  1  0  0  0  0
M  END
$$$$
