DYQ.pdb
 OpenBabel07022418163D

 53 53  0  0  1  0  0  0  0  0999 V2000
    4.3580   -0.3070    2.9190 N   0  0  0  0  0  0  0  0  0  0  0  0
    3.0830   -0.9900    2.8120 C   0  0  1  0  0  0  0  0  0  0  0  0
    2.4020   -1.0210    4.1800 C   0  0  0  0  0  0  0  0  0  0  0  0
    2.1440    0.2820    4.7590 C   0  0  0  0  0  0  0  0  0  0  0  0
    1.5780    0.3090    5.8940 O   0  0  0  0  0  0  0  0  0  0  0  0
    2.2660   -0.2910    1.7920 C   0  0  0  0  0  0  0  0  0  0  0  0
    2.2940    0.9530    1.6030 O   0  0  0  0  0  0  0  0  0  0  0  0
    2.4840    1.4660    4.1420 O   0  0  0  0  0  0  0  0  0  0  0  0
    4.4260    0.2840    3.7520 H   0  0  0  0  0  0  0  0  0  0  0  0
    4.5170    0.2040    2.0420 H   0  0  0  0  0  0  0  0  0  0  0  0
    3.2790   -2.0340    2.5540 H   0  0  0  0  0  0  0  0  0  0  0  0
    3.0810   -1.6040    4.8460 H   0  0  0  0  0  0  0  0  0  0  0  0
    1.4880   -1.6650    4.0780 H   0  0  0  0  0  0  0  0  0  0  0  0
    2.7630    2.2750    4.7270 H   0  0  0  0  0  0  0  0  0  0  0  0
   -1.4980    2.6990   -5.3250 O   0  0  0  0  0  0  0  0  0  0  0  0
   -0.8010    1.9980   -4.3490 C   0  0  0  0  0  0  0  0  0  0  0  0
   -0.0830    2.6270   -3.3640 C   0  0  0  0  0  0  0  0  0  0  0  0
    0.6190    1.9510   -2.3840 C   0  0  0  0  0  0  0  0  0  0  0  0
    0.6280    0.5650   -2.3530 C   0  0  0  0  0  0  0  0  0  0  0  0
    1.4090   -0.1660   -1.3490 C   0  0  0  0  0  0  0  0  0  0  0  0
    0.5880   -0.3040   -0.0610 C   0  0  2  0  0  0  0  0  0  0  0  0
    1.3680   -1.0190    0.9200 N   0  0  0  0  0  0  0  0  0  0  0  0
   -0.7720   -0.7710   -0.2830 C   0  0  0  0  0  0  0  0  0  0  0  0
   -1.5150   -0.0840   -1.0240 O   0  0  0  0  0  0  0  0  0  0  0  0
   -0.1000   -0.0800   -3.3460 C   0  0  0  0  0  0  0  0  0  0  0  0
   -0.7920    0.6030   -4.3130 C   0  0  0  0  0  0  0  0  0  0  0  0
   -1.2420    2.4310   -6.2870 H   0  0  0  0  0  0  0  0  0  0  0  0
   -0.0970    3.7260   -3.3730 H   0  0  0  0  0  0  0  0  0  0  0  0
    1.1710    2.4970   -1.6300 H   0  0  0  0  0  0  0  0  0  0  0  0
    1.7400   -1.1270   -1.7440 H   0  0  0  0  0  0  0  0  0  0  0  0
    2.2800    0.4910   -1.0600 H   0  0  0  0  0  0  0  0  0  0  0  0
    0.5370    0.7720    0.2960 H   0  0  0  0  0  0  0  0  0  0  0  0
    1.3610   -2.0420    1.0620 H   0  0  0  0  0  0  0  0  0  0  0  0
   -0.1160   -1.1550   -3.3430 H   0  0  0  0  0  0  0  0  0  0  0  0
   -1.3630    0.1160   -5.0980 H   0  0  0  0  0  0  0  0  0  0  0  0
   -1.0100   -3.1890    3.9830 N   0  0  0  0  0  0  0  0  0  0  0  0
   -1.8590   -2.4020    3.1270 C   0  0  0  0  0  0  0  0  0  0  0  0
   -1.5400   -1.2110    2.9340 O   0  0  0  0  0  0  0  0  0  0  0  0
   -3.0690   -2.9710    2.5070 C   0  0  0  0  0  0  0  0  0  0  0  0
   -3.5300   -2.3320    1.2360 C   0  0  0  0  0  0  0  0  0  0  0  0
   -2.5640   -2.5010    0.1250 C   0  0  2  0  0  0  0  0  0  0  0  0
   -1.2750   -1.9520    0.2920 N   0  0  0  0  0  0  0  0  0  0  0  0
   -3.1970   -2.3240   -1.2150 C   0  0  0  0  0  0  0  0  0  0  0  0
   -4.4310   -2.6410   -1.3690 O   0  0  0  0  0  0  0  0  0  0  0  0
   -2.5850   -1.8500   -2.3330 O   0  0  0  0  0  0  0  0  0  0  0  0
   -0.5070   -2.7480    4.7490 H   0  0  0  0  0  0  0  0  0  0  0  0
   -0.9050   -4.2210    3.8210 H   0  0  0  0  0  0  0  0  0  0  0  0
   -2.8460   -4.0700    2.3470 H   0  0  0  0  0  0  0  0  0  0  0  0
   -3.9220   -3.0070    3.2570 H   0  0  0  0  0  0  0  0  0  0  0  0
   -3.7240   -1.2300    1.4340 H   0  0  0  0  0  0  0  0  0  0  0  0
   -4.5310   -2.7920    0.9530 H   0  0  0  0  0  0  0  0  0  0  0  0
   -2.4080   -3.6700    0.0850 H   0  0  0  0  0  0  0  0  0  0  0  0
   -0.5770   -2.4990    0.9030 H   0  0  0  0  0  0  0  0  0  0  0  0
  1  9  1  0  0  0  0
  2 11  1  6  0  0  0
  2  1  1  0  0  0  0
  2  3  1  0  0  0  0
  3  4  1  0  0  0  0
  3 12  1  0  0  0  0
  4  5  2  0  0  0  0
  6  2  1  0  0  0  0
  7  6  2  0  0  0  0
  8 14  1  0  0  0  0
  8  4  1  0  0  0  0
 10  1  1  0  0  0  0
 13  3  1  0  0  0  0
 15 16  1  0  0  0  0
 16 26  2  0  0  0  0
 16 17  1  0  0  0  0
 17 18  2  0  0  0  0
 18 19  1  0  0  0  0
 18 29  1  0  0  0  0
 19 20  1  0  0  0  0
 20 31  1  0  0  0  0
 20 21  1  0  0  0  0
 21 32  1  1  0  0  0
 21 22  1  0  0  0  0
 22 33  1  0  0  0  0
 22  6  1  0  0  0  0
 23 21  1  0  0  0  0
 23 42  1  0  0  0  0
 24 23  2  0  0  0  0
 25 34  1  0  0  0  0
 25 19  2  0  0  0  0
 26 25  1  0  0  0  0
 27 15  1  0  0  0  0
 28 17  1  0  0  0  0
 30 20  1  0  0  0  0
 35 26  1  0  0  0  0
 36 46  1  0  0  0  0
 37 36  1  0  0  0  0
 38 37  2  0  0  0  0
 39 37  1  0  0  0  0
 39 49  1  0  0  0  0
 40 50  1  0  0  0  0
 40 39  1  0  0  0  0
 41 52  1  1  0  0  0
 41 42  1  0  0  0  0
 41 40  1  0  0  0  0
 42 53  1  0  0  0  0
 43 41  1  0  0  0  0
 44 43  1  0  0  0  0
 45 43  2  0  0  0  0
 47 36  1  0  0  0  0
 48 39  1  0  0  0  0
 51 40  1  0  0  0  0
M  END
$$$$
