DYR.pdb
 OpenBabel07022418163D

 59 59  0  0  1  0  0  0  0  0999 V2000
    0.5050    2.4840    2.7750 N   0  0  0  0  0  0  0  0  0  0  0  0
    1.8930    2.5640    2.4370 C   0  0  1  0  0  0  0  0  0  0  0  0
    2.7700    2.7690    3.6580 C   0  0  0  0  0  0  0  0  0  0  0  0
    2.5970    1.6280    4.6140 C   0  0  0  0  0  0  0  0  0  0  0  0
    1.8050    0.7020    4.3170 O   0  0  0  0  0  0  0  0  0  0  0  0
    2.2690    1.2810    1.7470 C   0  0  0  0  0  0  0  0  0  0  0  0
    3.4420    1.0830    1.3430 O   0  0  0  0  0  0  0  0  0  0  0  0
    3.2740    1.5470    5.8190 O   0  0  0  0  0  0  0  0  0  0  0  0
   -0.0480    2.9310    2.0100 H   0  0  0  0  0  0  0  0  0  0  0  0
    0.2860    2.8670    3.7120 H   0  0  0  0  0  0  0  0  0  0  0  0
    2.1420    3.3700    1.7170 H   0  0  0  0  0  0  0  0  0  0  0  0
    2.4620    3.6900    4.1900 H   0  0  0  0  0  0  0  0  0  0  0  0
    3.8210    2.8740    3.3450 H   0  0  0  0  0  0  0  0  0  0  0  0
    3.7200    0.6390    6.0300 H   0  0  0  0  0  0  0  0  0  0  0  0
    2.8470   -7.2380   -0.3140 O   0  0  0  0  0  0  0  0  0  0  0  0
    2.4980   -5.9910    0.1870 C   0  0  0  0  0  0  0  0  0  0  0  0
    3.4130   -5.2300    0.9000 C   0  0  0  0  0  0  0  0  0  0  0  0
    3.0870   -3.9930    1.4040 C   0  0  0  0  0  0  0  0  0  0  0  0
    1.8330   -3.4410    1.2270 C   0  0  0  0  0  0  0  0  0  0  0  0
    1.4480   -2.1320    1.7610 C   0  0  0  0  0  0  0  0  0  0  0  0
    1.7660   -0.9660    0.8500 C   0  0  2  0  0  0  0  0  0  0  0  0
    1.3170    0.2520    1.5290 N   0  0  0  0  0  0  0  0  0  0  0  0
    0.9840   -1.0810   -0.3960 C   0  0  0  0  0  0  0  0  0  0  0  0
    1.1940   -2.0250   -1.2330 O   0  0  0  0  0  0  0  0  0  0  0  0
    0.9060   -4.1910    0.5140 C   0  0  0  0  0  0  0  0  0  0  0  0
    1.2520   -5.4300    0.0170 C   0  0  0  0  0  0  0  0  0  0  0  0
    2.8250   -8.0030    0.3730 H   0  0  0  0  0  0  0  0  0  0  0  0
    4.4120   -5.6360    1.0580 H   0  0  0  0  0  0  0  0  0  0  0  0
    3.8250   -3.3970    1.9710 H   0  0  0  0  0  0  0  0  0  0  0  0
    1.9930   -2.0050    2.7380 H   0  0  0  0  0  0  0  0  0  0  0  0
    0.3500   -2.1660    1.9920 H   0  0  0  0  0  0  0  0  0  0  0  0
    2.8400   -0.9080    0.6090 H   0  0  0  0  0  0  0  0  0  0  0  0
    0.3330    0.3390    1.8330 H   0  0  0  0  0  0  0  0  0  0  0  0
   -0.1170   -3.8180    0.3370 H   0  0  0  0  0  0  0  0  0  0  0  0
    0.5290   -6.0310   -0.5470 H   0  0  0  0  0  0  0  0  0  0  0  0
   -4.8470    1.2450    0.2520 N   0  0  0  0  0  0  0  0  0  0  0  0
   -4.8210   -0.0660   -0.2520 C   0  0  0  0  0  0  0  0  0  0  0  0
   -4.4880   -1.0870    0.4820 N   0  0  0  0  0  0  0  0  0  0  0  0
   -5.1700   -0.3320   -1.6090 N   0  0  0  0  0  0  0  0  0  0  0  0
   -4.5040   -1.3020   -2.4260 C   0  0  0  0  0  0  0  0  0  0  0  0
   -3.1150   -0.9010   -2.8150 C   0  0  0  0  0  0  0  0  0  0  0  0
   -2.2300   -0.6900   -1.6410 C   0  0  0  0  0  0  0  0  0  0  0  0
   -0.7900   -0.3470   -2.0350 C   0  0  2  0  0  0  0  0  0  0  0  0
   -0.0510   -0.1750   -0.7720 N   0  0  0  0  0  0  0  0  0  0  0  0
   -0.6940    0.8770   -2.8520 C   0  0  0  0  0  0  0  0  0  0  0  0
   -0.0970    1.9180   -2.4110 O   0  0  0  0  0  0  0  0  0  0  0  0
   -1.2280    0.9690   -4.1110 O   0  0  0  0  0  0  0  0  0  0  0  0
   -4.4150    2.0550   -0.2180 H   0  0  0  0  0  0  0  0  0  0  0  0
   -5.3320    1.4510    1.1740 H   0  0  0  0  0  0  0  0  0  0  0  0
   -4.2220   -1.0130    1.4720 H   0  0  0  0  0  0  0  0  0  0  0  0
   -5.9740    0.2350   -2.0200 H   0  0  0  0  0  0  0  0  0  0  0  0
   -4.4200   -2.2780   -1.8630 H   0  0  0  0  0  0  0  0  0  0  0  0
   -5.1380   -1.4720   -3.3490 H   0  0  0  0  0  0  0  0  0  0  0  0
   -2.6980   -1.7050   -3.4870 H   0  0  0  0  0  0  0  0  0  0  0  0
   -3.1740    0.0430   -3.4420 H   0  0  0  0  0  0  0  0  0  0  0  0
   -2.1590   -1.5720   -0.9850 H   0  0  0  0  0  0  0  0  0  0  0  0
   -2.6230    0.2260   -1.0970 H   0  0  0  0  0  0  0  0  0  0  0  0
   -0.4180   -1.1980   -2.6040 H   0  0  0  0  0  0  0  0  0  0  0  0
   -0.2880    0.6190   -0.1460 H   0  0  0  0  0  0  0  0  0  0  0  0
  1 10  1  0  0  0  0
  2 11  1  6  0  0  0
  2  1  1  0  0  0  0
  2  3  1  0  0  0  0
  3 12  1  0  0  0  0
  3  4  1  0  0  0  0
  4  8  1  0  0  0  0
  5  4  2  0  0  0  0
  6  2  1  0  0  0  0
  7  6  2  0  0  0  0
  8 14  1  0  0  0  0
  9  1  1  0  0  0  0
 13  3  1  0  0  0  0
 15 16  1  0  0  0  0
 15 27  1  0  0  0  0
 16 17  1  0  0  0  0
 17 28  1  0  0  0  0
 17 18  2  0  0  0  0
 18 29  1  0  0  0  0
 19 18  1  0  0  0  0
 19 20  1  0  0  0  0
 20 31  1  0  0  0  0
 20 30  1  0  0  0  0
 21 32  1  6  0  0  0
 21 22  1  0  0  0  0
 21 20  1  0  0  0  0
 22  6  1  0  0  0  0
 22 33  1  0  0  0  0
 23 21  1  0  0  0  0
 24 23  2  0  0  0  0
 25 19  2  0  0  0  0
 26 16  2  0  0  0  0
 26 25  1  0  0  0  0
 34 25  1  0  0  0  0
 35 26  1  0  0  0  0
 36 49  1  0  0  0  0
 37 36  1  0  0  0  0
 37 38  2  0  0  0  0
 38 50  1  0  0  0  0
 39 37  1  0  0  0  0
 40 52  1  0  0  0  0
 40 39  1  0  0  0  0
 41 40  1  0  0  0  0
 41 42  1  0  0  0  0
 42 57  1  0  0  0  0
 42 56  1  0  0  0  0
 43 58  1  6  0  0  0
 43 42  1  0  0  0  0
 43 44  1  0  0  0  0
 44 23  1  0  0  0  0
 44 59  1  0  0  0  0
 45 46  1  0  0  0  0
 45 43  1  0  0  0  0
 47 45  2  0  0  0  0
 48 36  1  0  0  0  0
 51 39  1  0  0  0  0
 53 40  1  0  0  0  0
 54 41  1  0  0  0  0
 55 41  1  0  0  0  0
M  END
$$$$
