DYT.pdb
 OpenBabel07022418163D

 50 50  0  0  1  0  0  0  0  0999 V2000
    2.4860   -1.6550    3.8850 N   0  0  0  0  0  0  0  0  0  0  0  0
    1.2390   -1.3350    4.5390 C   0  0  1  0  0  0  0  0  0  0  0  0
    1.4000   -0.4820    5.7530 C   0  0  0  0  0  0  0  0  0  0  0  0
    2.0360    0.8210    5.4610 C   0  0  0  0  0  0  0  0  0  0  0  0
    2.3630    1.0650    4.2710 O   0  0  0  0  0  0  0  0  0  0  0  0
    0.2210   -0.8320    3.5810 C   0  0  0  0  0  0  0  0  0  0  0  0
   -0.9300   -0.4870    3.9560 O   0  0  0  0  0  0  0  0  0  0  0  0
    2.2800    1.7690    6.4400 O   0  0  0  0  0  0  0  0  0  0  0  0
    3.0740   -2.1550    4.6140 H   0  0  0  0  0  0  0  0  0  0  0  0
    2.2580   -2.4200    3.1800 H   0  0  0  0  0  0  0  0  0  0  0  0
    0.8310   -2.3260    4.9020 H   0  0  0  0  0  0  0  0  0  0  0  0
    0.4150   -0.3110    6.1970 H   0  0  0  0  0  0  0  0  0  0  0  0
    2.0060   -1.0390    6.4850 H   0  0  0  0  0  0  0  0  0  0  0  0
    2.2240    2.7600    6.2140 H   0  0  0  0  0  0  0  0  0  0  0  0
    4.6900    1.5300   -2.2490 O   0  0  0  0  0  0  0  0  0  0  0  0
    3.4940    1.4300   -1.5060 C   0  0  0  0  0  0  0  0  0  0  0  0
    3.4780    1.6740   -0.1530 C   0  0  0  0  0  0  0  0  0  0  0  0
    2.2930    1.5720    0.5660 C   0  0  0  0  0  0  0  0  0  0  0  0
    1.1140    1.2250   -0.0550 C   0  0  0  0  0  0  0  0  0  0  0  0
   -0.1370    1.1070    0.6420 C   0  0  0  0  0  0  0  0  0  0  0  0
   -0.4820   -0.2240    1.2170 C   0  0  2  0  0  0  0  0  0  0  0  0
    0.4700   -0.7050    2.1850 N   0  0  0  0  0  0  0  0  0  0  0  0
   -0.9590   -1.2460    0.2820 C   0  0  0  0  0  0  0  0  0  0  0  0
   -0.5130   -2.4490    0.3380 O   0  0  0  0  0  0  0  0  0  0  0  0
    1.1780    0.9910   -1.4070 C   0  0  0  0  0  0  0  0  0  0  0  0
    2.3390    1.0870   -2.1340 C   0  0  0  0  0  0  0  0  0  0  0  0
    4.6430    1.6470   -3.2530 H   0  0  0  0  0  0  0  0  0  0  0  0
    4.4040    1.9440    0.3240 H   0  0  0  0  0  0  0  0  0  0  0  0
    2.3160    1.7680    1.6170 H   0  0  0  0  0  0  0  0  0  0  0  0
   -1.0350    1.4350    0.0380 H   0  0  0  0  0  0  0  0  0  0  0  0
   -0.1300    1.8390    1.5030 H   0  0  0  0  0  0  0  0  0  0  0  0
   -1.3980    0.0130    1.8540 H   0  0  0  0  0  0  0  0  0  0  0  0
    1.4510   -1.0020    1.8890 H   0  0  0  0  0  0  0  0  0  0  0  0
    0.2770    0.7180   -1.9310 H   0  0  0  0  0  0  0  0  0  0  0  0
    2.3440    0.8910   -3.2150 H   0  0  0  0  0  0  0  0  0  0  0  0
   -4.1380   -3.6110   -2.3330 C   0  0  0  0  0  0  0  0  0  0  0  0
   -3.8110   -2.4490   -1.4140 C   0  0  1  0  0  0  0  0  0  0  0  0
   -4.0500   -2.8770   -0.1160 O   0  0  0  0  0  0  0  0  0  0  0  0
   -2.3530   -2.1000   -1.6300 C   0  0  2  0  0  0  0  0  0  0  0  0
   -1.9230   -1.0380   -0.7420 N   0  0  0  0  0  0  0  0  0  0  0  0
   -2.1340   -1.7110   -3.0250 C   0  0  0  0  0  0  0  0  0  0  0  0
   -1.6520   -0.6020   -3.3330 O   0  0  0  0  0  0  0  0  0  0  0  0
   -2.4540   -2.5640   -4.0850 O   0  0  0  0  0  0  0  0  0  0  0  0
   -4.5530   -3.2970   -3.2970 H   0  0  0  0  0  0  0  0  0  0  0  0
   -4.8550   -4.3200   -1.8500 H   0  0  0  0  0  0  0  0  0  0  0  0
   -3.2260   -4.2200   -2.5650 H   0  0  0  0  0  0  0  0  0  0  0  0
   -4.4260   -1.6040   -1.7260 H   0  0  0  0  0  0  0  0  0  0  0  0
   -3.8530   -3.8230   -0.0010 H   0  0  0  0  0  0  0  0  0  0  0  0
   -1.7700   -3.0120   -1.3930 H   0  0  0  0  0  0  0  0  0  0  0  0
   -2.3220   -0.0780   -0.8400 H   0  0  0  0  0  0  0  0  0  0  0  0
  1  2  1  0  0  0  0
  1  9  1  0  0  0  0
  2 11  1  1  0  0  0
  2  3  1  0  0  0  0
  3 12  1  0  0  0  0
  3 13  1  0  0  0  0
  4  3  1  0  0  0  0
  4  8  1  0  0  0  0
  5  4  2  0  0  0  0
  6  7  2  0  0  0  0
  6  2  1  0  0  0  0
 10  1  1  0  0  0  0
 14  8  1  0  0  0  0
 15 16  1  0  0  0  0
 16 17  1  0  0  0  0
 17 28  1  0  0  0  0
 17 18  2  0  0  0  0
 18 29  1  0  0  0  0
 19 18  1  0  0  0  0
 19 20  1  0  0  0  0
 20 21  1  0  0  0  0
 20 31  1  0  0  0  0
 21 32  1  1  0  0  0
 21 22  1  0  0  0  0
 22  6  1  0  0  0  0
 23 24  2  0  0  0  0
 23 21  1  0  0  0  0
 25 19  2  0  0  0  0
 26 16  2  0  0  0  0
 26 25  1  0  0  0  0
 27 15  1  0  0  0  0
 30 20  1  0  0  0  0
 33 22  1  0  0  0  0
 34 25  1  0  0  0  0
 35 26  1  0  0  0  0
 36 45  1  0  0  0  0
 36 37  1  0  0  0  0
 37 47  1  6  0  0  0
 37 38  1  0  0  0  0
 38 48  1  0  0  0  0
 39 37  1  0  0  0  0
 39 49  1  1  0  0  0
 39 40  1  0  0  0  0
 40 23  1  0  0  0  0
 41 39  1  0  0  0  0
 42 41  1  0  0  0  0
 43 41  2  0  0  0  0
 44 36  1  0  0  0  0
 46 36  1  0  0  0  0
 50 40  1  0  0  0  0
M  END
$$$$
