DYV.pdb
 OpenBabel07022418163D

 52 52  0  0  1  0  0  0  0  0999 V2000
   -0.2840    3.7450    3.3730 N   0  0  0  0  0  0  0  0  0  0  0  0
    0.4990    2.8210    2.5790 C   0  0  1  0  0  0  0  0  0  0  0  0
    1.4160    2.0740    3.5240 C   0  0  0  0  0  0  0  0  0  0  0  0
    2.2760    3.0840    4.1910 C   0  0  0  0  0  0  0  0  0  0  0  0
    1.8800    3.7900    5.1550 O   0  0  0  0  0  0  0  0  0  0  0  0
   -0.3900    1.9200    1.8260 C   0  0  0  0  0  0  0  0  0  0  0  0
   -1.6320    2.0530    1.9540 O   0  0  0  0  0  0  0  0  0  0  0  0
    3.5690    3.2660    3.7420 O   0  0  0  0  0  0  0  0  0  0  0  0
   -1.2390    3.8430    2.9470 H   0  0  0  0  0  0  0  0  0  0  0  0
   -0.4120    3.3130    4.3150 H   0  0  0  0  0  0  0  0  0  0  0  0
    1.1330    3.4070    1.8600 H   0  0  0  0  0  0  0  0  0  0  0  0
    0.8280    1.5660    4.3120 H   0  0  0  0  0  0  0  0  0  0  0  0
    2.0610    1.3430    3.0330 H   0  0  0  0  0  0  0  0  0  0  0  0
    4.0010    4.1890    3.7920 H   0  0  0  0  0  0  0  0  0  0  0  0
    4.4870   -0.6000   -3.3220 O   0  0  0  0  0  0  0  0  0  0  0  0
    3.2140   -0.3980   -2.8160 C   0  0  0  0  0  0  0  0  0  0  0  0
    2.2950   -1.4210   -2.7360 C   0  0  0  0  0  0  0  0  0  0  0  0
    1.0270   -1.2720   -2.2450 C   0  0  0  0  0  0  0  0  0  0  0  0
    0.6210   -0.0480   -1.8010 C   0  0  0  0  0  0  0  0  0  0  0  0
   -0.7210    0.2310   -1.2480 C   0  0  0  0  0  0  0  0  0  0  0  0
   -0.8090    0.0460    0.2430 C   0  0  2  0  0  0  0  0  0  0  0  0
    0.0950    0.9060    0.9610 N   0  0  0  0  0  0  0  0  0  0  0  0
   -0.6700   -1.3430    0.6860 C   0  0  0  0  0  0  0  0  0  0  0  0
    0.1710   -1.6220    1.5700 O   0  0  0  0  0  0  0  0  0  0  0  0
    1.5160    1.0040   -1.8650 C   0  0  0  0  0  0  0  0  0  0  0  0
    2.7900    0.8440   -2.3610 C   0  0  0  0  0  0  0  0  0  0  0  0
    5.1270    0.1770   -3.3980 H   0  0  0  0  0  0  0  0  0  0  0  0
    2.6060   -2.4020   -3.0870 H   0  0  0  0  0  0  0  0  0  0  0  0
    0.3080   -2.0870   -2.1860 H   0  0  0  0  0  0  0  0  0  0  0  0
   -1.5040   -0.3900   -1.7090 H   0  0  0  0  0  0  0  0  0  0  0  0
   -0.9710    1.2850   -1.4790 H   0  0  0  0  0  0  0  0  0  0  0  0
   -1.8510    0.3620    0.5200 H   0  0  0  0  0  0  0  0  0  0  0  0
    1.1370    0.8250    0.8790 H   0  0  0  0  0  0  0  0  0  0  0  0
    1.2460    2.0080   -1.5230 H   0  0  0  0  0  0  0  0  0  0  0  0
    3.4830    1.6850   -2.4050 H   0  0  0  0  0  0  0  0  0  0  0  0
   -2.9360   -3.2990    2.4510 C   0  0  0  0  0  0  0  0  0  0  0  0
   -2.5800   -4.1950    1.3090 C   0  0  0  0  0  0  0  0  0  0  0  0
   -3.6740   -4.2360    0.2850 C   0  0  0  0  0  0  0  0  0  0  0  0
   -1.2600   -3.7880    0.6530 C   0  0  2  0  0  0  0  0  0  0  0  0
   -1.4410   -2.4260    0.1730 N   0  0  0  0  0  0  0  0  0  0  0  0
   -0.9970   -4.7570   -0.4270 C   0  0  0  0  0  0  0  0  0  0  0  0
   -0.9330   -4.4730   -1.6500 O   0  0  0  0  0  0  0  0  0  0  0  0
   -0.8070   -6.0730   -0.0750 O   0  0  0  0  0  0  0  0  0  0  0  0
   -2.6060   -2.2440    2.2570 H   0  0  0  0  0  0  0  0  0  0  0  0
   -2.4630   -3.5800    3.4130 H   0  0  0  0  0  0  0  0  0  0  0  0
   -4.0440   -3.3560    2.6140 H   0  0  0  0  0  0  0  0  0  0  0  0
   -2.4100   -5.2310    1.6930 H   0  0  0  0  0  0  0  0  0  0  0  0
   -4.1180   -3.2330    0.1010 H   0  0  0  0  0  0  0  0  0  0  0  0
   -3.3210   -4.6070   -0.7050 H   0  0  0  0  0  0  0  0  0  0  0  0
   -4.5170   -4.8930    0.5760 H   0  0  0  0  0  0  0  0  0  0  0  0
   -0.4590   -3.7860    1.3980 H   0  0  0  0  0  0  0  0  0  0  0  0
   -2.1380   -2.1820   -0.5640 H   0  0  0  0  0  0  0  0  0  0  0  0
  1 10  1  0  0  0  0
  2 11  1  6  0  0  0
  2  1  1  0  0  0  0
  2  3  1  0  0  0  0
  3  4  1  0  0  0  0
  3 12  1  0  0  0  0
  4  5  2  0  0  0  0
  6  7  2  0  0  0  0
  6  2  1  0  0  0  0
  8 14  1  0  0  0  0
  8  4  1  0  0  0  0
  9  1  1  0  0  0  0
 13  3  1  0  0  0  0
 15 16  1  0  0  0  0
 16 17  2  0  0  0  0
 16 26  1  0  0  0  0
 17 18  1  0  0  0  0
 18 29  1  0  0  0  0
 18 19  2  0  0  0  0
 19 20  1  0  0  0  0
 20 21  1  0  0  0  0
 21 32  1  1  0  0  0
 21 23  1  0  0  0  0
 21 22  1  0  0  0  0
 22  6  1  0  0  0  0
 23 24  2  0  0  0  0
 25 19  1  0  0  0  0
 25 34  1  0  0  0  0
 26 25  2  0  0  0  0
 27 15  1  0  0  0  0
 28 17  1  0  0  0  0
 30 20  1  0  0  0  0
 31 20  1  0  0  0  0
 33 22  1  0  0  0  0
 35 26  1  0  0  0  0
 36 46  1  0  0  0  0
 36 45  1  0  0  0  0
 37 47  1  0  0  0  0
 37 36  1  0  0  0  0
 38 50  1  0  0  0  0
 38 37  1  0  0  0  0
 39 37  1  0  0  0  0
 39 51  1  1  0  0  0
 40 39  1  0  0  0  0
 40 23  1  0  0  0  0
 41 43  1  0  0  0  0
 41 39  1  0  0  0  0
 42 41  2  0  0  0  0
 44 36  1  0  0  0  0
 48 38  1  0  0  0  0
 49 38  1  0  0  0  0
 52 40  1  0  0  0  0
M  END
$$$$
