DYW.pdb
 OpenBabel07022418163D

 60 62  0  0  1  0  0  0  0  0999 V2000
    2.1500   -1.8870    0.4740 N   0  0  0  0  0  0  0  0  0  0  0  0
    2.4140   -0.7260    1.3250 C   0  0  1  0  0  0  0  0  0  0  0  0
    3.7810   -0.1960    0.9700 C   0  0  0  0  0  0  0  0  0  0  0  0
    4.1480    0.9790    1.7760 C   0  0  0  0  0  0  0  0  0  0  0  0
    3.8790    2.1740    1.4920 O   0  0  0  0  0  0  0  0  0  0  0  0
    1.4210    0.3380    1.0990 C   0  0  0  0  0  0  0  0  0  0  0  0
    1.3980    1.4250    1.7270 O   0  0  0  0  0  0  0  0  0  0  0  0
    4.8550    0.7840    2.9640 O   0  0  0  0  0  0  0  0  0  0  0  0
    1.2550   -2.3090    0.8080 H   0  0  0  0  0  0  0  0  0  0  0  0
    2.9050   -2.5730    0.6990 H   0  0  0  0  0  0  0  0  0  0  0  0
    2.4570   -1.0970    2.3570 H   0  0  0  0  0  0  0  0  0  0  0  0
    4.5570   -0.9890    0.9840 H   0  0  0  0  0  0  0  0  0  0  0  0
    3.7140    0.1520   -0.0910 H   0  0  0  0  0  0  0  0  0  0  0  0
    4.6640    1.3700    3.7890 H   0  0  0  0  0  0  0  0  0  0  0  0
    4.5490    4.0340   -2.6410 O   0  0  0  0  0  0  0  0  0  0  0  0
    3.2950    3.4970   -2.3620 C   0  0  0  0  0  0  0  0  0  0  0  0
    2.2690    4.2570   -1.8340 C   0  0  0  0  0  0  0  0  0  0  0  0
    1.0340    3.7000   -1.5660 C   0  0  0  0  0  0  0  0  0  0  0  0
    0.7680    2.3660   -1.8120 C   0  0  0  0  0  0  0  0  0  0  0  0
   -0.5660    1.7790   -1.5190 C   0  0  0  0  0  0  0  0  0  0  0  0
   -0.6100    1.2460   -0.1200 C   0  0  2  0  0  0  0  0  0  0  0  0
    0.3730    0.2110    0.1150 N   0  0  0  0  0  0  0  0  0  0  0  0
   -1.9190    0.7390    0.2920 C   0  0  0  0  0  0  0  0  0  0  0  0
   -2.9080    1.5160    0.1490 O   0  0  0  0  0  0  0  0  0  0  0  0
    1.7900    1.6060   -2.3390 C   0  0  0  0  0  0  0  0  0  0  0  0
    3.0250    2.1640   -2.6060 C   0  0  0  0  0  0  0  0  0  0  0  0
    4.9330    3.8610   -3.5710 H   0  0  0  0  0  0  0  0  0  0  0  0
    2.4940    5.3100   -1.6450 H   0  0  0  0  0  0  0  0  0  0  0  0
    0.2490    4.3470   -1.1450 H   0  0  0  0  0  0  0  0  0  0  0  0
   -1.3040    2.5950   -1.6570 H   0  0  0  0  0  0  0  0  0  0  0  0
   -0.7810    1.0270   -2.2890 H   0  0  0  0  0  0  0  0  0  0  0  0
   -0.3880    2.1180    0.5650 H   0  0  0  0  0  0  0  0  0  0  0  0
    0.3390   -0.6710   -0.4390 H   0  0  0  0  0  0  0  0  0  0  0  0
    1.6360    0.5390   -2.5550 H   0  0  0  0  0  0  0  0  0  0  0  0
    3.8360    1.5610   -3.0240 H   0  0  0  0  0  0  0  0  0  0  0  0
   -2.1180   -0.5570    0.8320 N   0  0  0  0  0  0  0  0  0  0  0  0
   -3.4330   -1.0360    1.2340 C   0  0  1  0  0  0  0  0  0  0  0  0
   -3.8340   -2.1580    0.3270 C   0  0  0  0  0  0  0  0  0  0  0  0
   -2.9420   -3.3080    0.2920 C   0  0  0  0  0  0  0  0  0  0  0  0
   -1.9710   -3.4900   -0.7000 C   0  0  0  0  0  0  0  0  0  0  0  0
   -1.3160   -4.6150   -0.4190 N   0  0  0  0  0  0  0  0  0  0  0  0
   -1.7860   -5.1980    0.6970 C   0  0  0  0  0  0  0  0  0  0  0  0
   -1.4230   -6.3540    1.3460 C   0  0  0  0  0  0  0  0  0  0  0  0
   -2.0910   -6.7330    2.4920 C   0  0  0  0  0  0  0  0  0  0  0  0
   -3.1070   -5.9310    2.9450 C   0  0  0  0  0  0  0  0  0  0  0  0
   -3.4810   -4.7690    2.3040 C   0  0  0  0  0  0  0  0  0  0  0  0
   -2.8160   -4.3660    1.1420 C   0  0  0  0  0  0  0  0  0  0  0  0
   -3.5720   -1.2940    2.6620 C   0  0  0  0  0  0  0  0  0  0  0  0
   -4.6990   -1.5970    3.1220 O   0  0  0  0  0  0  0  0  0  0  0  0
   -2.5110   -1.2230    3.5530 O   0  0  0  0  0  0  0  0  0  0  0  0
   -1.3080   -1.2160    0.9580 H   0  0  0  0  0  0  0  0  0  0  0  0
   -4.1350   -0.1740    0.9870 H   0  0  0  0  0  0  0  0  0  0  0  0
   -4.8380   -2.5170    0.6920 H   0  0  0  0  0  0  0  0  0  0  0  0
   -4.0760   -1.7660   -0.7070 H   0  0  0  0  0  0  0  0  0  0  0  0
   -1.7910   -2.8320   -1.5390 H   0  0  0  0  0  0  0  0  0  0  0  0
   -0.5320   -4.9760   -1.0150 H   0  0  0  0  0  0  0  0  0  0  0  0
   -0.6190   -6.9610    0.9610 H   0  0  0  0  0  0  0  0  0  0  0  0
   -1.8300   -7.6240    3.0150 H   0  0  0  0  0  0  0  0  0  0  0  0
   -3.6560   -6.2080    3.8520 H   0  0  0  0  0  0  0  0  0  0  0  0
   -4.2850   -4.1570    2.6640 H   0  0  0  0  0  0  0  0  0  0  0  0
  1 10  1  0  0  0  0
  1  9  1  0  0  0  0
  1  2  1  0  0  0  0
  2 11  1  1  0  0  0
  3 12  1  0  0  0  0
  3  2  1  0  0  0  0
  3  4  1  0  0  0  0
  4  8  1  0  0  0  0
  5  4  2  0  0  0  0
  6  2  1  0  0  0  0
  6  7  2  0  0  0  0
  8 14  1  0  0  0  0
 13  3  1  0  0  0  0
 15 16  1  0  0  0  0
 16 17  1  0  0  0  0
 17 28  1  0  0  0  0
 17 18  2  0  0  0  0
 18 29  1  0  0  0  0
 19 18  1  0  0  0  0
 19 20  1  0  0  0  0
 20 21  1  0  0  0  0
 21 22  1  0  0  0  0
 21 23  1  0  0  0  0
 21 32  1  1  0  0  0
 22  6  1  0  0  0  0
 23 36  1  0  0  0  0
 24 23  2  0  0  0  0
 25 19  2  0  0  0  0
 26 16  2  0  0  0  0
 26 25  1  0  0  0  0
 27 15  1  0  0  0  0
 30 20  1  0  0  0  0
 31 20  1  0  0  0  0
 33 22  1  0  0  0  0
 34 25  1  0  0  0  0
 35 26  1  0  0  0  0
 36 51  1  0  0  0  0
 36 37  1  0  0  0  0
 37 52  1  6  0  0  0
 37 48  1  0  0  0  0
 38 53  1  0  0  0  0
 38 37  1  0  0  0  0
 39 38  1  0  0  0  0
 39 47  1  0  0  0  0
 40 41  1  0  0  0  0
 40 39  2  0  0  0  0
 41 42  1  0  0  0  0
 42 47  2  0  0  0  0
 42 43  1  0  0  0  0
 43 44  2  0  0  0  0
 44 45  1  0  0  0  0
 44 58  1  0  0  0  0
 45 59  1  0  0  0  0
 46 60  1  0  0  0  0
 46 45  2  0  0  0  0
 47 46  1  0  0  0  0
 48 49  2  0  0  0  0
 48 50  1  0  0  0  0
 54 38  1  0  0  0  0
 55 40  1  0  0  0  0
 56 41  1  0  0  0  0
 57 43  1  0  0  0  0
M  END
$$$$
