DYY.pdb
 OpenBabel07022418163D

 57 58  0  0  1  0  0  0  0  0999 V2000
    2.2260   -1.6320    3.3060 N   0  0  0  0  0  0  0  0  0  0  0  0
    1.0680   -0.8300    3.6090 C   0  0  1  0  0  0  0  0  0  0  0  0
    1.5130    0.3630    4.3860 C   0  0  0  0  0  0  0  0  0  0  0  0
    2.4940    1.1510    3.6280 C   0  0  0  0  0  0  0  0  0  0  0  0
    2.8880    0.7270    2.5130 O   0  0  0  0  0  0  0  0  0  0  0  0
    0.2670   -0.4610    2.3930 C   0  0  0  0  0  0  0  0  0  0  0  0
    0.6410   -0.7750    1.2460 O   0  0  0  0  0  0  0  0  0  0  0  0
    3.0250    2.3550    4.0660 O   0  0  0  0  0  0  0  0  0  0  0  0
    2.4600   -1.6640    2.2990 H   0  0  0  0  0  0  0  0  0  0  0  0
    2.2820   -2.5220    3.8100 H   0  0  0  0  0  0  0  0  0  0  0  0
    0.4240   -1.4960    4.2630 H   0  0  0  0  0  0  0  0  0  0  0  0
    2.0420   -0.0260    5.2920 H   0  0  0  0  0  0  0  0  0  0  0  0
    0.6740    0.9730    4.7800 H   0  0  0  0  0  0  0  0  0  0  0  0
    3.2890    3.0220    3.3500 H   0  0  0  0  0  0  0  0  0  0  0  0
    3.5650    1.7450   -2.0550 O   0  0  0  0  0  0  0  0  0  0  0  0
    2.3250    1.7340   -1.4150 C   0  0  0  0  0  0  0  0  0  0  0  0
    2.2410    2.3320   -0.1950 C   0  0  0  0  0  0  0  0  0  0  0  0
    1.0090    2.3220    0.4440 C   0  0  0  0  0  0  0  0  0  0  0  0
   -0.1000    1.7330   -0.1220 C   0  0  0  0  0  0  0  0  0  0  0  0
   -1.3780    1.7500    0.5650 C   0  0  0  0  0  0  0  0  0  0  0  0
   -1.7550    0.6030    1.4160 C   0  0  2  0  0  0  0  0  0  0  0  0
   -0.9530    0.2580    2.5220 N   0  0  0  0  0  0  0  0  0  0  0  0
   -2.3290   -0.5430    0.6400 C   0  0  0  0  0  0  0  0  0  0  0  0
   -3.0030   -0.2470   -0.3720 O   0  0  0  0  0  0  0  0  0  0  0  0
   -0.0030    1.1300   -1.3570 C   0  0  0  0  0  0  0  0  0  0  0  0
    1.2180    1.1390   -1.9920 C   0  0  0  0  0  0  0  0  0  0  0  0
    3.6080    2.1510   -2.9830 H   0  0  0  0  0  0  0  0  0  0  0  0
    3.0940    2.8110    0.2900 H   0  0  0  0  0  0  0  0  0  0  0  0
    0.9710    2.8060    1.4140 H   0  0  0  0  0  0  0  0  0  0  0  0
   -1.4810    2.6740    1.2260 H   0  0  0  0  0  0  0  0  0  0  0  0
   -2.1630    1.9620   -0.2280 H   0  0  0  0  0  0  0  0  0  0  0  0
   -2.7500    0.9870    1.9230 H   0  0  0  0  0  0  0  0  0  0  0  0
   -1.2200    0.5230    3.5390 H   0  0  0  0  0  0  0  0  0  0  0  0
   -0.8570    0.6470   -1.8500 H   0  0  0  0  0  0  0  0  0  0  0  0
    1.3590    0.6850   -2.9590 H   0  0  0  0  0  0  0  0  0  0  0  0
    2.0010   -1.8060   -4.0580 O   0  0  0  0  0  0  0  0  0  0  0  0
    1.0460   -2.3250   -3.1830 C   0  0  0  0  0  0  0  0  0  0  0  0
    1.3480   -2.5370   -1.8550 C   0  0  0  0  0  0  0  0  0  0  0  0
    0.4070   -3.0490   -0.9880 C   0  0  0  0  0  0  0  0  0  0  0  0
   -0.8700   -3.3780   -1.3770 C   0  0  0  0  0  0  0  0  0  0  0  0
   -1.8950   -3.9230   -0.4660 C   0  0  0  0  0  0  0  0  0  0  0  0
   -2.8010   -2.9090    0.1480 C   0  0  2  0  0  0  0  0  0  0  0  0
   -2.1720   -1.9030    0.9660 N   0  0  0  0  0  0  0  0  0  0  0  0
   -3.9240   -3.5720    0.8940 C   0  0  0  0  0  0  0  0  0  0  0  0
   -4.5570   -4.4690    0.3010 O   0  0  0  0  0  0  0  0  0  0  0  0
   -1.1660   -3.1580   -2.7290 C   0  0  0  0  0  0  0  0  0  0  0  0
   -0.2280   -2.6460   -3.5980 C   0  0  0  0  0  0  0  0  0  0  0  0
   -4.2870   -3.2470    2.1830 O   0  0  0  0  0  0  0  0  0  0  0  0
    1.8120   -0.9950   -4.6090 H   0  0  0  0  0  0  0  0  0  0  0  0
    2.3450   -2.2830   -1.5380 H   0  0  0  0  0  0  0  0  0  0  0  0
    0.6410   -3.2240    0.0600 H   0  0  0  0  0  0  0  0  0  0  0  0
   -2.4990   -4.7300   -0.9560 H   0  0  0  0  0  0  0  0  0  0  0  0
   -1.3520   -4.4770    0.3530 H   0  0  0  0  0  0  0  0  0  0  0  0
   -3.2980   -2.3730   -0.7180 H   0  0  0  0  0  0  0  0  0  0  0  0
   -1.5920   -2.1830    1.8250 H   0  0  0  0  0  0  0  0  0  0  0  0
   -2.1720   -3.4170   -3.0330 H   0  0  0  0  0  0  0  0  0  0  0  0
   -0.4770   -2.4810   -4.6490 H   0  0  0  0  0  0  0  0  0  0  0  0
  1  2  1  0  0  0  0
  1 10  1  0  0  0  0
  2 11  1  1  0  0  0
  2  3  1  0  0  0  0
  3 13  1  0  0  0  0
  3 12  1  0  0  0  0
  4  8  1  0  0  0  0
  4  3  1  0  0  0  0
  5  4  2  0  0  0  0
  6 22  1  0  0  0  0
  6  2  1  0  0  0  0
  7  6  2  0  0  0  0
  9  1  1  0  0  0  0
 14  8  1  0  0  0  0
 15 16  1  0  0  0  0
 16 17  1  0  0  0  0
 17 28  1  0  0  0  0
 17 18  2  0  0  0  0
 18 29  1  0  0  0  0
 19 18  1  0  0  0  0
 19 20  1  0  0  0  0
 20 30  1  0  0  0  0
 20 21  1  0  0  0  0
 21 32  1  1  0  0  0
 21 22  1  0  0  0  0
 22 33  1  0  0  0  0
 23 43  1  0  0  0  0
 23 21  1  0  0  0  0
 24 23  2  0  0  0  0
 25 19  2  0  0  0  0
 26 16  2  0  0  0  0
 26 25  1  0  0  0  0
 27 15  1  0  0  0  0
 31 20  1  0  0  0  0
 34 25  1  0  0  0  0
 35 26  1  0  0  0  0
 36 37  1  0  0  0  0
 37 38  1  0  0  0  0
 38 50  1  0  0  0  0
 38 39  2  0  0  0  0
 39 51  1  0  0  0  0
 40 39  1  0  0  0  0
 40 41  1  0  0  0  0
 41 42  1  0  0  0  0
 41 53  1  0  0  0  0
 42 54  1  6  0  0  0
 42 44  1  0  0  0  0
 42 43  1  0  0  0  0
 43 55  1  0  0  0  0
 44 48  1  0  0  0  0
 45 44  2  0  0  0  0
 46 40  2  0  0  0  0
 47 37  2  0  0  0  0
 47 46  1  0  0  0  0
 49 36  1  0  0  0  0
 52 41  1  0  0  0  0
 56 46  1  0  0  0  0
 57 47  1  0  0  0  0
M  END
$$$$
