EAC.pdb
 OpenBabel07022418173D

 39 38  0  0  1  0  0  0  0  0999 V2000
    1.4370   -1.3820    2.7300 N   0  0  0  0  0  0  0  0  0  0  0  0
    2.3430   -0.7890    1.7230 C   0  0  1  0  0  0  0  0  0  0  0  0
    3.4900   -1.7540    1.6090 C   0  0  0  0  0  0  0  0  0  0  0  0
    4.5540   -1.3710    0.6340 C   0  0  0  0  0  0  0  0  0  0  0  0
    5.1820   -0.1040    1.0190 C   0  0  0  0  0  0  0  0  0  0  0  0
    4.8570    0.4730    2.0750 O   0  0  0  0  0  0  0  0  0  0  0  0
    1.6380   -0.7420    0.4110 C   0  0  0  0  0  0  0  0  0  0  0  0
    2.1540   -0.2620   -0.6280 O   0  0  0  0  0  0  0  0  0  0  0  0
    6.1560    0.4240    0.1540 O   0  0  0  0  0  0  0  0  0  0  0  0
    1.8490   -1.2730    3.6660 H   0  0  0  0  0  0  0  0  0  0  0  0
    1.2640   -2.3770    2.4530 H   0  0  0  0  0  0  0  0  0  0  0  0
    2.6230    0.1860    2.0940 H   0  0  0  0  0  0  0  0  0  0  0  0
    3.0270   -2.7460    1.3630 H   0  0  0  0  0  0  0  0  0  0  0  0
    3.9490   -1.8690    2.6170 H   0  0  0  0  0  0  0  0  0  0  0  0
    4.1810   -1.3700   -0.4140 H   0  0  0  0  0  0  0  0  0  0  0  0
    5.3610   -2.1570    0.7320 H   0  0  0  0  0  0  0  0  0  0  0  0
    6.6660    1.2670    0.4060 H   0  0  0  0  0  0  0  0  0  0  0  0
   -0.8060   -2.6060   -1.4590 C   0  0  0  0  0  0  0  0  0  0  0  0
   -0.4120   -1.2270   -0.9850 C   0  0  2  0  0  0  0  0  0  0  0  0
    0.3050   -1.2530    0.2620 N   0  0  0  0  0  0  0  0  0  0  0  0
   -1.6090   -0.3570   -0.8180 C   0  0  0  0  0  0  0  0  0  0  0  0
   -2.3590   -0.2160   -1.8150 O   0  0  0  0  0  0  0  0  0  0  0  0
    0.0940   -3.1420   -1.7570 H   0  0  0  0  0  0  0  0  0  0  0  0
   -1.4350   -2.4690   -2.3640 H   0  0  0  0  0  0  0  0  0  0  0  0
   -1.4340   -3.1510   -0.7210 H   0  0  0  0  0  0  0  0  0  0  0  0
    0.2080   -0.7690   -1.7650 H   0  0  0  0  0  0  0  0  0  0  0  0
   -0.1640   -1.6620    1.1040 H   0  0  0  0  0  0  0  0  0  0  0  0
   -1.9450    0.3080    0.3750 N   0  0  0  0  0  0  0  0  0  0  0  0
   -3.1040    1.1510    0.5390 C   0  0  1  0  0  0  0  0  0  0  0  0
   -3.9860    0.4710    1.5920 C   0  0  0  0  0  0  0  0  0  0  0  0
   -4.4820   -1.1670    1.0630 S   0  0  0  0  0  0  0  0  0  0  0  0
   -2.7600    2.5170    0.9700 C   0  0  0  0  0  0  0  0  0  0  0  0
   -1.5660    2.8230    1.1470 O   0  0  0  0  0  0  0  0  0  0  0  0
   -3.7470    3.4470    1.1750 O   0  0  0  0  0  0  0  0  0  0  0  0
   -1.3130    0.1820    1.1950 H   0  0  0  0  0  0  0  0  0  0  0  0
   -3.7170    1.2300   -0.3670 H   0  0  0  0  0  0  0  0  0  0  0  0
   -4.8500    1.1080    1.7890 H   0  0  0  0  0  0  0  0  0  0  0  0
   -3.3750    0.4220    2.5340 H   0  0  0  0  0  0  0  0  0  0  0  0
   -4.4770   -2.0860    2.1270 H   0  0  0  0  0  0  0  0  0  0  0  0
  1 10  1  0  0  0  0
  2 12  1  1  0  0  0
  2  1  1  0  0  0  0
  3  2  1  0  0  0  0
  3 14  1  0  0  0  0
  4 16  1  0  0  0  0
  4  5  1  0  0  0  0
  4  3  1  0  0  0  0
  5  6  2  0  0  0  0
  7  2  1  0  0  0  0
  8  7  2  0  0  0  0
  9 17  1  0  0  0  0
  9  5  1  0  0  0  0
 11  1  1  0  0  0  0
 13  3  1  0  0  0  0
 15  4  1  0  0  0  0
 18 19  1  0  0  0  0
 18 25  1  0  0  0  0
 19 26  1  6  0  0  0
 19 21  1  0  0  0  0
 19 20  1  0  0  0  0
 20  7  1  0  0  0  0
 20 27  1  0  0  0  0
 21 28  1  0  0  0  0
 22 21  2  0  0  0  0
 23 18  1  0  0  0  0
 24 18  1  0  0  0  0
 28 29  1  0  0  0  0
 28 35  1  0  0  0  0
 29 36  1  6  0  0  0
 29 32  1  0  0  0  0
 29 30  1  0  0  0  0
 30 37  1  0  0  0  0
 30 38  1  0  0  0  0
 31 30  1  0  0  0  0
 31 39  1  0  0  0  0
 32 33  2  0  0  0  0
 32 34  1  0  0  0  0
M  END
$$$$
