EAD.pdb
 OpenBabel07022418173D

 41 40  0  0  1  0  0  0  0  0999 V2000
    0.3350   -4.6440    1.9140 N   0  0  0  0  0  0  0  0  0  0  0  0
   -0.0270   -3.5430    1.0470 C   0  0  1  0  0  0  0  0  0  0  0  0
   -0.7150   -2.4660    1.8950 C   0  0  0  0  0  0  0  0  0  0  0  0
   -1.9430   -3.0510    2.5290 C   0  0  0  0  0  0  0  0  0  0  0  0
   -2.6170   -2.0290    3.3480 C   0  0  0  0  0  0  0  0  0  0  0  0
   -2.1530   -0.8770    3.4330 O   0  0  0  0  0  0  0  0  0  0  0  0
    1.1710   -2.8820    0.4530 C   0  0  0  0  0  0  0  0  0  0  0  0
    2.3350   -3.2970    0.7260 O   0  0  0  0  0  0  0  0  0  0  0  0
   -3.7950   -2.3020    4.0570 O   0  0  0  0  0  0  0  0  0  0  0  0
    1.1330   -5.2020    1.5540 H   0  0  0  0  0  0  0  0  0  0  0  0
   -0.5040   -5.2540    2.0260 H   0  0  0  0  0  0  0  0  0  0  0  0
   -0.7630   -3.8330    0.2720 H   0  0  0  0  0  0  0  0  0  0  0  0
   -1.0410   -1.6790    1.1680 H   0  0  0  0  0  0  0  0  0  0  0  0
   -0.0180   -2.0370    2.6280 H   0  0  0  0  0  0  0  0  0  0  0  0
   -2.6280   -3.3720    1.7000 H   0  0  0  0  0  0  0  0  0  0  0  0
   -1.6660   -3.9600    3.1050 H   0  0  0  0  0  0  0  0  0  0  0  0
   -4.2430   -1.5600    4.5950 H   0  0  0  0  0  0  0  0  0  0  0  0
    1.9080   -1.3010   -2.5420 C   0  0  0  0  0  0  0  0  0  0  0  0
    2.0420   -1.0900   -1.0330 C   0  0  2  0  0  0  0  0  0  0  0  0
    0.9460   -1.7890   -0.4140 N   0  0  0  0  0  0  0  0  0  0  0  0
    1.9490    0.3790   -0.8110 C   0  0  0  0  0  0  0  0  0  0  0  0
    2.8460    1.1090   -1.3000 O   0  0  0  0  0  0  0  0  0  0  0  0
    2.4150   -0.5090   -3.1150 H   0  0  0  0  0  0  0  0  0  0  0  0
    0.8280   -1.2640   -2.8040 H   0  0  0  0  0  0  0  0  0  0  0  0
    2.2940   -2.3210   -2.8260 H   0  0  0  0  0  0  0  0  0  0  0  0
    3.0220   -1.5060   -0.7490 H   0  0  0  0  0  0  0  0  0  0  0  0
   -0.0230   -1.4740   -0.6170 H   0  0  0  0  0  0  0  0  0  0  0  0
    0.9030    0.9830   -0.0800 N   0  0  0  0  0  0  0  0  0  0  0  0
    0.8210    2.4070    0.1180 C   0  0  1  0  0  0  0  0  0  0  0  0
    1.6730    2.9400    1.2130 C   0  0  0  0  0  0  0  0  0  0  0  0
    1.2920    2.3210    2.4960 C   0  0  0  0  0  0  0  0  0  0  0  0
    0.3620    1.4790    2.5140 O   0  0  0  0  0  0  0  0  0  0  0  0
    0.9120    3.1720   -1.1550 C   0  0  0  0  0  0  0  0  0  0  0  0
    0.9310    4.4240   -1.1750 O   0  0  0  0  0  0  0  0  0  0  0  0
    1.9100    2.6190    3.7040 O   0  0  0  0  0  0  0  0  0  0  0  0
    0.9740    2.4860   -2.3460 O   0  0  0  0  0  0  0  0  0  0  0  0
    0.1750    0.3410    0.3210 H   0  0  0  0  0  0  0  0  0  0  0  0
   -0.2660    2.5850    0.4370 H   0  0  0  0  0  0  0  0  0  0  0  0
    2.7570    2.8820    1.0100 H   0  0  0  0  0  0  0  0  0  0  0  0
    1.4310    4.0320    1.3080 H   0  0  0  0  0  0  0  0  0  0  0  0
    1.4630    2.4250    4.6110 H   0  0  0  0  0  0  0  0  0  0  0  0
  1 11  1  0  0  0  0
  2 12  1  6  0  0  0
  2  3  1  0  0  0  0
  2  1  1  0  0  0  0
  3  4  1  0  0  0  0
  3 14  1  0  0  0  0
  4 16  1  0  0  0  0
  4  5  1  0  0  0  0
  5  6  2  0  0  0  0
  5  9  1  0  0  0  0
  7  8  2  0  0  0  0
  7  2  1  0  0  0  0
  9 17  1  0  0  0  0
 10  1  1  0  0  0  0
 13  3  1  0  0  0  0
 15  4  1  0  0  0  0
 18 19  1  0  0  0  0
 19 21  1  0  0  0  0
 19 26  1  1  0  0  0
 19 20  1  0  0  0  0
 20  7  1  0  0  0  0
 21 28  1  0  0  0  0
 22 21  2  0  0  0  0
 23 18  1  0  0  0  0
 24 18  1  0  0  0  0
 25 18  1  0  0  0  0
 27 20  1  0  0  0  0
 28 29  1  0  0  0  0
 28 37  1  0  0  0  0
 29 38  1  1  0  0  0
 29 30  1  0  0  0  0
 30 40  1  0  0  0  0
 30 31  1  0  0  0  0
 31 32  2  0  0  0  0
 31 35  1  0  0  0  0
 33 29  1  0  0  0  0
 34 33  1  0  0  0  0
 35 41  1  0  0  0  0
 36 33  2  0  0  0  0
 39 30  1  0  0  0  0
M  END
$$$$
