EAE.pdb
 OpenBabel07022418173D

 44 43  0  0  1  0  0  0  0  0999 V2000
   -0.6900   -2.6940   -0.5050 N   0  0  0  0  0  0  0  0  0  0  0  0
    0.7600   -2.6480   -0.4960 C   0  0  1  0  0  0  0  0  0  0  0  0
    1.2810   -3.4700   -1.6180 C   0  0  0  0  0  0  0  0  0  0  0  0
    2.7570   -3.5340   -1.7590 C   0  0  0  0  0  0  0  0  0  0  0  0
    3.4920   -4.0900   -0.6190 C   0  0  0  0  0  0  0  0  0  0  0  0
    2.9290   -4.5070    0.4150 O   0  0  0  0  0  0  0  0  0  0  0  0
    1.2770   -1.2740   -0.4500 C   0  0  0  0  0  0  0  0  0  0  0  0
    2.5060   -1.0230   -0.4770 O   0  0  0  0  0  0  0  0  0  0  0  0
    4.8720   -4.1580   -0.6880 O   0  0  0  0  0  0  0  0  0  0  0  0
   -1.0620   -2.3970    0.4210 H   0  0  0  0  0  0  0  0  0  0  0  0
   -1.0300   -2.0770   -1.2490 H   0  0  0  0  0  0  0  0  0  0  0  0
    1.0520   -3.1520    0.4610 H   0  0  0  0  0  0  0  0  0  0  0  0
    0.8870   -4.5060   -1.5910 H   0  0  0  0  0  0  0  0  0  0  0  0
    0.8910   -3.0370   -2.5780 H   0  0  0  0  0  0  0  0  0  0  0  0
    2.9560   -4.2380   -2.6240 H   0  0  0  0  0  0  0  0  0  0  0  0
    3.2190   -2.5780   -2.0960 H   0  0  0  0  0  0  0  0  0  0  0  0
    5.4690   -4.2460    0.1350 H   0  0  0  0  0  0  0  0  0  0  0  0
    0.5330    2.0320   -1.5160 C   0  0  0  0  0  0  0  0  0  0  0  0
    0.9720    1.1940   -0.3350 C   0  0  2  0  0  0  0  0  0  0  0  0
    0.4020   -0.1350   -0.3730 N   0  0  0  0  0  0  0  0  0  0  0  0
    0.6420    1.8440    0.9520 C   0  0  0  0  0  0  0  0  0  0  0  0
    1.0560    3.0170    1.2230 O   0  0  0  0  0  0  0  0  0  0  0  0
    0.5300    3.1060   -1.2260 H   0  0  0  0  0  0  0  0  0  0  0  0
    1.1970    1.9270   -2.3950 H   0  0  0  0  0  0  0  0  0  0  0  0
   -0.5140    1.7910   -1.8190 H   0  0  0  0  0  0  0  0  0  0  0  0
    2.0970    1.1390   -0.3950 H   0  0  0  0  0  0  0  0  0  0  0  0
   -0.6290   -0.2930   -0.3450 H   0  0  0  0  0  0  0  0  0  0  0  0
   -0.1550    1.1590    1.9220 N   0  0  0  0  0  0  0  0  0  0  0  0
   -0.4990    1.7400    3.1790 C   0  0  1  0  0  0  0  0  0  0  0  0
   -1.9400    2.0200    3.4130 C   0  0  0  0  0  0  0  0  0  0  0  0
   -2.8710    0.8640    3.3780 C   0  0  0  0  0  0  0  0  0  0  0  0
   -2.9010    0.1560    2.0850 C   0  0  0  0  0  0  0  0  0  0  0  0
   -2.8320   -1.0870    2.0420 O   0  0  0  0  0  0  0  0  0  0  0  0
   -0.0000    0.8570    4.2780 C   0  0  0  0  0  0  0  0  0  0  0  0
   -0.1860    1.1710    5.4790 O   0  0  0  0  0  0  0  0  0  0  0  0
   -3.0090    0.8870    0.9140 O   0  0  0  0  0  0  0  0  0  0  0  0
    0.6700   -0.3140    3.9710 O   0  0  0  0  0  0  0  0  0  0  0  0
   -0.4730    0.2060    1.6750 H   0  0  0  0  0  0  0  0  0  0  0  0
    0.0450    2.7320    3.2830 H   0  0  0  0  0  0  0  0  0  0  0  0
   -2.3240    2.7940    2.6860 H   0  0  0  0  0  0  0  0  0  0  0  0
   -2.0540    2.5310    4.4160 H   0  0  0  0  0  0  0  0  0  0  0  0
   -2.6500    0.1130    4.1890 H   0  0  0  0  0  0  0  0  0  0  0  0
   -3.9220    1.1950    3.6350 H   0  0  0  0  0  0  0  0  0  0  0  0
   -3.1780    0.3890    0.0650 H   0  0  0  0  0  0  0  0  0  0  0  0
  1  2  1  0  0  0  0
  1 10  1  0  0  0  0
  2  7  1  0  0  0  0
  2 12  1  1  0  0  0
  3 13  1  0  0  0  0
  3  2  1  0  0  0  0
  4  3  1  0  0  0  0
  4  5  1  0  0  0  0
  5  6  2  0  0  0  0
  7 20  1  0  0  0  0
  8  7  2  0  0  0  0
  9  5  1  0  0  0  0
  9 17  1  0  0  0  0
 11  1  1  0  0  0  0
 14  3  1  0  0  0  0
 15  4  1  0  0  0  0
 16  4  1  0  0  0  0
 18 23  1  0  0  0  0
 18 19  1  0  0  0  0
 19 26  1  6  0  0  0
 19 21  1  0  0  0  0
 20 27  1  0  0  0  0
 20 19  1  0  0  0  0
 21 22  2  0  0  0  0
 21 28  1  0  0  0  0
 24 18  1  0  0  0  0
 25 18  1  0  0  0  0
 28 29  1  0  0  0  0
 29 39  1  1  0  0  0
 29 30  1  0  0  0  0
 29 34  1  0  0  0  0
 30 41  1  0  0  0  0
 31 30  1  0  0  0  0
 31 43  1  0  0  0  0
 31 42  1  0  0  0  0
 32 31  1  0  0  0  0
 33 32  2  0  0  0  0
 34 35  1  0  0  0  0
 36 32  1  0  0  0  0
 37 34  2  0  0  0  0
 38 28  1  0  0  0  0
 40 30  1  0  0  0  0
 44 36  1  0  0  0  0
M  END
$$$$
