EAF.pdb
 OpenBabel07022418173D

 48 48  0  0  1  0  0  0  0  0999 V2000
    1.5260    1.4970    5.2660 N   0  0  0  0  0  0  0  0  0  0  0  0
    0.8230    0.8150    4.1720 C   0  0  1  0  0  0  0  0  0  0  0  0
   -0.0250    1.8060    3.4190 C   0  0  0  0  0  0  0  0  0  0  0  0
   -0.7310    1.1320    2.3020 C   0  0  0  0  0  0  0  0  0  0  0  0
   -1.6140    2.0480    1.5320 C   0  0  0  0  0  0  0  0  0  0  0  0
   -2.2580    1.5430    0.5800 O   0  0  0  0  0  0  0  0  0  0  0  0
    1.7660    0.0490    3.3520 C   0  0  0  0  0  0  0  0  0  0  0  0
    2.9940    0.3800    3.4380 O   0  0  0  0  0  0  0  0  0  0  0  0
   -1.7690    3.3930    1.7920 O   0  0  0  0  0  0  0  0  0  0  0  0
    1.7490    0.8210    6.0280 H   0  0  0  0  0  0  0  0  0  0  0  0
    0.9800    2.3190    5.5970 H   0  0  0  0  0  0  0  0  0  0  0  0
    0.1310    0.1030    4.6680 H   0  0  0  0  0  0  0  0  0  0  0  0
   -0.7570    2.2090    4.1750 H   0  0  0  0  0  0  0  0  0  0  0  0
    0.5570    2.7020    3.1020 H   0  0  0  0  0  0  0  0  0  0  0  0
    0.0500    0.8160    1.5640 H   0  0  0  0  0  0  0  0  0  0  0  0
   -1.2830    0.2650    2.6400 H   0  0  0  0  0  0  0  0  0  0  0  0
   -2.3850    3.9810    1.2100 H   0  0  0  0  0  0  0  0  0  0  0  0
    2.8370   -3.0320    2.3430 C   0  0  0  0  0  0  0  0  0  0  0  0
    2.4990   -1.6700    1.7440 C   0  0  2  0  0  0  0  0  0  0  0  0
    1.4700   -1.0150    2.4820 N   0  0  0  0  0  0  0  0  0  0  0  0
    2.2860   -1.8190    0.3090 C   0  0  0  0  0  0  0  0  0  0  0  0
    3.2340   -2.3480   -0.3800 O   0  0  0  0  0  0  0  0  0  0  0  0
    3.8390   -3.0580    2.7950 H   0  0  0  0  0  0  0  0  0  0  0  0
    2.0410   -3.3450    3.0590 H   0  0  0  0  0  0  0  0  0  0  0  0
    2.8220   -3.7650    1.5170 H   0  0  0  0  0  0  0  0  0  0  0  0
    3.4510   -1.0770    1.8840 H   0  0  0  0  0  0  0  0  0  0  0  0
    0.4790   -1.3280    2.3900 H   0  0  0  0  0  0  0  0  0  0  0  0
    1.1190   -1.4290   -0.4000 N   0  0  0  0  0  0  0  0  0  0  0  0
    1.0110   -1.6130   -1.8340 C   0  0  1  0  0  0  0  0  0  0  0  0
   -0.0810   -2.5260   -2.2670 C   0  0  0  0  0  0  0  0  0  0  0  0
   -1.4360   -2.1410   -1.8890 C   0  0  0  0  0  0  0  0  0  0  0  0
   -2.2540   -1.3360   -2.6250 C   0  0  0  0  0  0  0  0  0  0  0  0
   -3.5330   -1.0150   -2.2150 C   0  0  0  0  0  0  0  0  0  0  0  0
   -4.0410   -1.5030   -1.0290 C   0  0  0  0  0  0  0  0  0  0  0  0
   -3.2110   -2.3240   -0.2750 C   0  0  0  0  0  0  0  0  0  0  0  0
   -1.9360   -2.6350   -0.6980 C   0  0  0  0  0  0  0  0  0  0  0  0
    0.9760   -0.2940   -2.5300 C   0  0  0  0  0  0  0  0  0  0  0  0
    1.0290    0.7930   -1.9130 O   0  0  0  0  0  0  0  0  0  0  0  0
    0.8800   -0.3000   -3.9100 O   0  0  0  0  0  0  0  0  0  0  0  0
    0.3290   -1.0100    0.1320 H   0  0  0  0  0  0  0  0  0  0  0  0
    1.9730   -2.0860   -2.1800 H   0  0  0  0  0  0  0  0  0  0  0  0
   -0.0360   -2.6050   -3.3740 H   0  0  0  0  0  0  0  0  0  0  0  0
    0.1490   -3.5390   -1.8530 H   0  0  0  0  0  0  0  0  0  0  0  0
   -1.9060   -0.9300   -3.5550 H   0  0  0  0  0  0  0  0  0  0  0  0
   -4.1750   -0.3790   -2.8000 H   0  0  0  0  0  0  0  0  0  0  0  0
   -5.0320   -1.2690   -0.6900 H   0  0  0  0  0  0  0  0  0  0  0  0
   -3.6080   -2.7070    0.6540 H   0  0  0  0  0  0  0  0  0  0  0  0
   -1.3420   -3.2740   -0.0740 H   0  0  0  0  0  0  0  0  0  0  0  0
  1 11  1  0  0  0  0
  1 10  1  0  0  0  0
  2 12  1  1  0  0  0
  2  1  1  0  0  0  0
  3  2  1  0  0  0  0
  3 13  1  0  0  0  0
  4 16  1  0  0  0  0
  4  3  1  0  0  0  0
  5  9  1  0  0  0  0
  5  4  1  0  0  0  0
  6  5  2  0  0  0  0
  7  8  2  0  0  0  0
  7  2  1  0  0  0  0
 14  3  1  0  0  0  0
 15  4  1  0  0  0  0
 17  9  1  0  0  0  0
 18 23  1  0  0  0  0
 18 24  1  0  0  0  0
 19 26  1  1  0  0  0
 19 18  1  0  0  0  0
 19 20  1  0  0  0  0
 20  7  1  0  0  0  0
 21 19  1  0  0  0  0
 22 21  2  0  0  0  0
 25 18  1  0  0  0  0
 27 20  1  0  0  0  0
 28 40  1  0  0  0  0
 28 21  1  0  0  0  0
 29 41  1  6  0  0  0
 29 28  1  0  0  0  0
 30 31  1  0  0  0  0
 30 43  1  0  0  0  0
 30 29  1  0  0  0  0
 31 36  1  0  0  0  0
 32 33  1  0  0  0  0
 32 31  2  0  0  0  0
 33 34  2  0  0  0  0
 34 46  1  0  0  0  0
 34 35  1  0  0  0  0
 35 47  1  0  0  0  0
 36 35  2  0  0  0  0
 36 48  1  0  0  0  0
 37 38  1  0  0  0  0
 37 29  1  0  0  0  0
 39 37  2  0  0  0  0
 42 30  1  0  0  0  0
 44 32  1  0  0  0  0
 45 33  1  0  0  0  0
M  END
$$$$
