EAI.pdb
 OpenBabel07022418173D

 47 46  0  0  1  0  0  0  0  0999 V2000
   -0.9350   -1.7000    2.8130 N   0  0  0  0  0  0  0  0  0  0  0  0
   -1.9090   -2.2190    1.8510 C   0  0  1  0  0  0  0  0  0  0  0  0
   -3.2770   -2.1300    2.4600 C   0  0  0  0  0  0  0  0  0  0  0  0
   -4.3410   -2.6470    1.5500 C   0  0  0  0  0  0  0  0  0  0  0  0
   -5.6730   -2.5470    2.2470 C   0  0  0  0  0  0  0  0  0  0  0  0
   -5.6910   -2.0790    3.4040 O   0  0  0  0  0  0  0  0  0  0  0  0
   -1.8690   -1.4290    0.6010 C   0  0  0  0  0  0  0  0  0  0  0  0
   -2.4880   -1.7630   -0.4260 O   0  0  0  0  0  0  0  0  0  0  0  0
   -6.8310   -2.9640    1.6130 O   0  0  0  0  0  0  0  0  0  0  0  0
   -1.2080   -0.7670    3.1820 H   0  0  0  0  0  0  0  0  0  0  0  0
    0.0200   -1.6310    2.4170 H   0  0  0  0  0  0  0  0  0  0  0  0
   -1.6600   -3.2820    1.6900 H   0  0  0  0  0  0  0  0  0  0  0  0
   -3.4720   -1.0370    2.6470 H   0  0  0  0  0  0  0  0  0  0  0  0
   -3.3230   -2.5960    3.4680 H   0  0  0  0  0  0  0  0  0  0  0  0
   -4.1350   -3.6790    1.2160 H   0  0  0  0  0  0  0  0  0  0  0  0
   -4.4510   -2.0340    0.6280 H   0  0  0  0  0  0  0  0  0  0  0  0
   -7.7010   -2.4870    1.8400 H   0  0  0  0  0  0  0  0  0  0  0  0
   -1.5380    1.9900   -0.3450 C   0  0  0  0  0  0  0  0  0  0  0  0
   -0.9750    0.6130   -0.5850 C   0  0  2  0  0  0  0  0  0  0  0  0
   -1.0930   -0.2390    0.5690 N   0  0  0  0  0  0  0  0  0  0  0  0
    0.4150    0.6580   -1.1080 C   0  0  0  0  0  0  0  0  0  0  0  0
    0.6470    1.3680   -2.1160 O   0  0  0  0  0  0  0  0  0  0  0  0
   -2.6470    1.9800   -0.3920 H   0  0  0  0  0  0  0  0  0  0  0  0
   -1.1970    2.6390   -1.1850 H   0  0  0  0  0  0  0  0  0  0  0  0
   -1.1570    2.4540    0.5860 H   0  0  0  0  0  0  0  0  0  0  0  0
   -1.5960    0.1560   -1.4080 H   0  0  0  0  0  0  0  0  0  0  0  0
   -0.5800    0.0340    1.4300 H   0  0  0  0  0  0  0  0  0  0  0  0
    2.8870    0.0270    2.2260 C   0  0  0  0  0  0  0  0  0  0  0  0
    3.9920   -0.1650    1.2560 C   0  0  0  0  0  0  0  0  0  0  0  0
    3.8570    0.5240   -0.0520 C   0  0  2  0  0  0  0  0  0  0  0  0
    3.7550    2.0130    0.1470 C   0  0  0  0  0  0  0  0  0  0  0  0
    2.8510   -0.0400   -1.0060 C   0  0  2  0  0  0  0  0  0  0  0  0
    1.4980   -0.0580   -0.5300 N   0  0  0  0  0  0  0  0  0  0  0  0
    3.3110   -1.3790   -1.4450 C   0  0  0  0  0  0  0  0  0  0  0  0
    4.4800   -1.4780   -1.8790 O   0  0  0  0  0  0  0  0  0  0  0  0
    2.5420   -2.5250   -1.4100 O   0  0  0  0  0  0  0  0  0  0  0  0
    2.3030   -0.8920    2.4400 H   0  0  0  0  0  0  0  0  0  0  0  0
    2.1670    0.8300    1.9640 H   0  0  0  0  0  0  0  0  0  0  0  0
    3.3110    0.3270    3.2070 H   0  0  0  0  0  0  0  0  0  0  0  0
    4.9400    0.2240    1.7170 H   0  0  0  0  0  0  0  0  0  0  0  0
    4.1690   -1.2550    1.1510 H   0  0  0  0  0  0  0  0  0  0  0  0
    4.8550    0.3790   -0.5730 H   0  0  0  0  0  0  0  0  0  0  0  0
    2.7860    2.3420    0.5280 H   0  0  0  0  0  0  0  0  0  0  0  0
    4.5440    2.2960    0.8730 H   0  0  0  0  0  0  0  0  0  0  0  0
    4.0320    2.4920   -0.8220 H   0  0  0  0  0  0  0  0  0  0  0  0
    2.9500    0.6090   -1.9320 H   0  0  0  0  0  0  0  0  0  0  0  0
    1.2670   -0.6370    0.3020 H   0  0  0  0  0  0  0  0  0  0  0  0
  1 10  1  0  0  0  0
  2 12  1  6  0  0  0
  2  3  1  0  0  0  0
  2  1  1  0  0  0  0
  3 13  1  0  0  0  0
  3 14  1  0  0  0  0
  4  5  1  0  0  0  0
  4  3  1  0  0  0  0
  5  6  2  0  0  0  0
  7  2  1  0  0  0  0
  8  7  2  0  0  0  0
  9 17  1  0  0  0  0
  9  5  1  0  0  0  0
 11  1  1  0  0  0  0
 15  4  1  0  0  0  0
 16  4  1  0  0  0  0
 18 25  1  0  0  0  0
 19 26  1  6  0  0  0
 19 18  1  0  0  0  0
 19 20  1  0  0  0  0
 20  7  1  0  0  0  0
 20 27  1  0  0  0  0
 21 19  1  0  0  0  0
 21 33  1  0  0  0  0
 22 21  2  0  0  0  0
 23 18  1  0  0  0  0
 24 18  1  0  0  0  0
 28 37  1  0  0  0  0
 28 39  1  0  0  0  0
 29 40  1  0  0  0  0
 29 28  1  0  0  0  0
 30 42  1  6  0  0  0
 30 31  1  0  0  0  0
 30 29  1  0  0  0  0
 31 43  1  0  0  0  0
 31 44  1  0  0  0  0
 32 46  1  6  0  0  0
 32 33  1  0  0  0  0
 32 30  1  0  0  0  0
 33 47  1  0  0  0  0
 34 36  1  0  0  0  0
 34 32  1  0  0  0  0
 35 34  2  0  0  0  0
 38 28  1  0  0  0  0
 41 29  1  0  0  0  0
 45 31  1  0  0  0  0
M  END
$$$$
