EAK.pdb
 OpenBabel07022418173D

 49 48  0  0  1  0  0  0  0  0999 V2000
    2.0770   -5.1910   -0.7020 N   0  0  0  0  0  0  0  0  0  0  0  0
    1.2720   -4.0050   -0.2940 C   0  0  1  0  0  0  0  0  0  0  0  0
    1.4560   -3.8510    1.1760 C   0  0  0  0  0  0  0  0  0  0  0  0
    0.7330   -2.7070    1.7960 C   0  0  0  0  0  0  0  0  0  0  0  0
    0.9690   -2.6550    3.2860 C   0  0  0  0  0  0  0  0  0  0  0  0
    1.6970   -3.5140    3.8340 O   0  0  0  0  0  0  0  0  0  0  0  0
    1.7110   -2.9050   -1.1400 C   0  0  0  0  0  0  0  0  0  0  0  0
    2.8020   -2.9580   -1.8130 O   0  0  0  0  0  0  0  0  0  0  0  0
    0.3790   -1.6590    4.0460 O   0  0  0  0  0  0  0  0  0  0  0  0
    1.6790   -5.4580   -1.6300 H   0  0  0  0  0  0  0  0  0  0  0  0
    1.9350   -5.9590   -0.0120 H   0  0  0  0  0  0  0  0  0  0  0  0
    0.2160   -4.3140   -0.4850 H   0  0  0  0  0  0  0  0  0  0  0  0
    2.5370   -3.8810    1.4610 H   0  0  0  0  0  0  0  0  0  0  0  0
    1.0330   -4.7890    1.6430 H   0  0  0  0  0  0  0  0  0  0  0  0
    1.1910   -1.7520    1.4350 H   0  0  0  0  0  0  0  0  0  0  0  0
   -0.3380   -2.7970    1.6400 H   0  0  0  0  0  0  0  0  0  0  0  0
    0.7740   -1.3710    4.9500 H   0  0  0  0  0  0  0  0  0  0  0  0
    0.7220   -0.6340   -3.5030 C   0  0  0  0  0  0  0  0  0  0  0  0
    1.4510   -0.6280   -2.1590 C   0  0  2  0  0  0  0  0  0  0  0  0
    0.9860   -1.6750   -1.3120 N   0  0  0  0  0  0  0  0  0  0  0  0
    1.3640    0.6780   -1.5150 C   0  0  0  0  0  0  0  0  0  0  0  0
    1.8290    1.6860   -2.1310 O   0  0  0  0  0  0  0  0  0  0  0  0
    0.9120   -1.6220   -3.9520 H   0  0  0  0  0  0  0  0  0  0  0  0
   -0.3310   -0.3690   -3.4010 H   0  0  0  0  0  0  0  0  0  0  0  0
    1.2140    0.1430   -4.1210 H   0  0  0  0  0  0  0  0  0  0  0  0
    2.5130   -0.8840   -2.4510 H   0  0  0  0  0  0  0  0  0  0  0  0
    0.1060   -1.5830   -0.8000 H   0  0  0  0  0  0  0  0  0  0  0  0
    0.7890    0.8690   -0.2480 N   0  0  0  0  0  0  0  0  0  0  0  0
    0.7060    2.1770    0.3940 C   0  0  1  0  0  0  0  0  0  0  0  0
   -0.7180    2.5850    0.6340 C   0  0  0  0  0  0  0  0  0  0  0  0
   -1.4540    1.6170    1.5250 C   0  0  0  0  0  0  0  0  0  0  0  0
   -2.8880    2.0480    1.7550 C   0  0  0  0  0  0  0  0  0  0  0  0
   -3.6010    1.0580    2.6510 C   0  0  0  0  0  0  0  0  0  0  0  0
   -3.6190   -0.2650    2.0630 N   0  0  0  0  0  0  0  0  0  0  0  0
    1.4480    2.1870    1.6810 C   0  0  0  0  0  0  0  0  0  0  0  0
    1.4810    3.2390    2.3680 O   0  0  0  0  0  0  0  0  0  0  0  0
    2.1220    1.0830    2.1840 O   0  0  0  0  0  0  0  0  0  0  0  0
    0.3970    0.0790    0.2640 H   0  0  0  0  0  0  0  0  0  0  0  0
    1.1600    2.9500   -0.2630 H   0  0  0  0  0  0  0  0  0  0  0  0
   -1.2910    2.7410   -0.2840 H   0  0  0  0  0  0  0  0  0  0  0  0
   -0.6750    3.5850    1.1460 H   0  0  0  0  0  0  0  0  0  0  0  0
   -1.3800    0.6040    1.1080 H   0  0  0  0  0  0  0  0  0  0  0  0
   -0.9650    1.6150    2.5320 H   0  0  0  0  0  0  0  0  0  0  0  0
   -2.8450    3.0420    2.2350 H   0  0  0  0  0  0  0  0  0  0  0  0
   -3.4710    2.1240    0.8230 H   0  0  0  0  0  0  0  0  0  0  0  0
   -3.1240    0.9930    3.6620 H   0  0  0  0  0  0  0  0  0  0  0  0
   -4.6680    1.3930    2.7210 H   0  0  0  0  0  0  0  0  0  0  0  0
   -4.4170   -0.8190    2.4460 H   0  0  0  0  0  0  0  0  0  0  0  0
   -3.7970   -0.1260    1.0260 H   0  0  0  0  0  0  0  0  0  0  0  0
  1  2  1  0  0  0  0
  1 11  1  0  0  0  0
  2 12  1  6  0  0  0
  2  3  1  0  0  0  0
  3 13  1  0  0  0  0
  3 14  1  0  0  0  0
  3  4  1  0  0  0  0
  4  5  1  0  0  0  0
  5  6  2  0  0  0  0
  5  9  1  0  0  0  0
  7  2  1  0  0  0  0
  8  7  2  0  0  0  0
  9 17  1  0  0  0  0
 10  1  1  0  0  0  0
 15  4  1  0  0  0  0
 16  4  1  0  0  0  0
 18 24  1  0  0  0  0
 18 19  1  0  0  0  0
 19 26  1  6  0  0  0
 19 21  1  0  0  0  0
 19 20  1  0  0  0  0
 20  7  1  0  0  0  0
 20 27  1  0  0  0  0
 21 28  1  0  0  0  0
 22 21  2  0  0  0  0
 23 18  1  0  0  0  0
 25 18  1  0  0  0  0
 28 38  1  0  0  0  0
 28 29  1  0  0  0  0
 29 39  1  6  0  0  0
 29 30  1  0  0  0  0
 29 35  1  0  0  0  0
 30 41  1  0  0  0  0
 30 31  1  0  0  0  0
 31 32  1  0  0  0  0
 31 43  1  0  0  0  0
 32 44  1  0  0  0  0
 32 33  1  0  0  0  0
 33 47  1  0  0  0  0
 33 46  1  0  0  0  0
 34 48  1  0  0  0  0
 34 33  1  0  0  0  0
 35 37  2  0  0  0  0
 35 36  1  0  0  0  0
 40 30  1  0  0  0  0
 42 31  1  0  0  0  0
 45 32  1  0  0  0  0
 49 34  1  0  0  0  0
M  END
$$$$
