EAN.pdb
 OpenBabel07022418163D

 42 41  0  0  1  0  0  0  0  0999 V2000
   -1.1270   -3.0130    0.2780 N   0  0  0  0  0  0  0  0  0  0  0  0
    0.3330   -3.2000    0.2770 C   0  0  1  0  0  0  0  0  0  0  0  0
    0.6340   -4.3850   -0.6030 C   0  0  0  0  0  0  0  0  0  0  0  0
    2.0770   -4.7310   -0.7270 C   0  0  0  0  0  0  0  0  0  0  0  0
    2.7380   -5.0670    0.5370 C   0  0  0  0  0  0  0  0  0  0  0  0
    2.2340   -5.0790    1.6670 O   0  0  0  0  0  0  0  0  0  0  0  0
    1.0230   -1.9840   -0.1800 C   0  0  0  0  0  0  0  0  0  0  0  0
    2.2720   -1.9360   -0.2780 O   0  0  0  0  0  0  0  0  0  0  0  0
    4.1000   -5.4140    0.4610 O   0  0  0  0  0  0  0  0  0  0  0  0
   -1.5260   -3.9250    0.5960 H   0  0  0  0  0  0  0  0  0  0  0  0
   -1.3710   -2.3070    1.0090 H   0  0  0  0  0  0  0  0  0  0  0  0
    0.5810   -3.4810    1.3150 H   0  0  0  0  0  0  0  0  0  0  0  0
    0.1940   -4.1690   -1.5970 H   0  0  0  0  0  0  0  0  0  0  0  0
    0.0670   -5.2530   -0.2040 H   0  0  0  0  0  0  0  0  0  0  0  0
    2.6830   -4.0040   -1.2690 H   0  0  0  0  0  0  0  0  0  0  0  0
    2.1180   -5.6740   -1.3520 H   0  0  0  0  0  0  0  0  0  0  0  0
    4.6680   -5.4900    1.2970 H   0  0  0  0  0  0  0  0  0  0  0  0
    0.5020    0.8020   -2.3340 C   0  0  0  0  0  0  0  0  0  0  0  0
    1.0320    0.3990   -0.9880 C   0  0  2  0  0  0  0  0  0  0  0  0
    0.3200   -0.7820   -0.5400 N   0  0  0  0  0  0  0  0  0  0  0  0
    0.7720    1.4700    0.0230 C   0  0  0  0  0  0  0  0  0  0  0  0
    1.3030    2.5940   -0.1670 O   0  0  0  0  0  0  0  0  0  0  0  0
   -0.0970    0.0130   -2.8260 H   0  0  0  0  0  0  0  0  0  0  0  0
    1.3300    1.1600   -2.9880 H   0  0  0  0  0  0  0  0  0  0  0  0
   -0.1970    1.6810   -2.2390 H   0  0  0  0  0  0  0  0  0  0  0  0
    2.1120    0.1410   -1.0240 H   0  0  0  0  0  0  0  0  0  0  0  0
   -0.7210   -0.8350   -0.4530 H   0  0  0  0  0  0  0  0  0  0  0  0
   -1.1330    4.4360    3.7780 N   0  0  0  0  0  0  0  0  0  0  0  0
   -2.1230    3.5590    3.2690 C   0  0  0  0  0  0  0  0  0  0  0  0
   -3.3170    3.7170    3.6740 O   0  0  0  0  0  0  0  0  0  0  0  0
   -1.7970    2.4960    2.3020 C   0  0  0  0  0  0  0  0  0  0  0  0
   -0.3000    2.2930    2.1670 C   0  0  2  0  0  0  0  0  0  0  0  0
   -0.0400    1.2450    1.1620 N   0  0  0  0  0  0  0  0  0  0  0  0
    0.3100    1.8000    3.4260 C   0  0  0  0  0  0  0  0  0  0  0  0
    0.3170    2.4240    4.5190 O   0  0  0  0  0  0  0  0  0  0  0  0
    0.9270    0.5640    3.4380 O   0  0  0  0  0  0  0  0  0  0  0  0
   -0.3270    4.7960    3.2170 H   0  0  0  0  0  0  0  0  0  0  0  0
   -1.1550    4.7840    4.7730 H   0  0  0  0  0  0  0  0  0  0  0  0
   -2.1860    2.7710    1.3040 H   0  0  0  0  0  0  0  0  0  0  0  0
   -2.2730    1.5360    2.6640 H   0  0  0  0  0  0  0  0  0  0  0  0
    0.2210    3.2180    1.8790 H   0  0  0  0  0  0  0  0  0  0  0  0
   -0.4980    0.3340    1.3550 H   0  0  0  0  0  0  0  0  0  0  0  0
  1 10  1  0  0  0  0
  1 11  1  0  0  0  0
  2  1  1  0  0  0  0
  2 12  1  1  0  0  0
  3 14  1  0  0  0  0
  3  2  1  0  0  0  0
  4  3  1  0  0  0  0
  4  5  1  0  0  0  0
  5  6  2  0  0  0  0
  7  2  1  0  0  0  0
  8  7  2  0  0  0  0
  9  5  1  0  0  0  0
  9 17  1  0  0  0  0
 13  3  1  0  0  0  0
 15  4  1  0  0  0  0
 16  4  1  0  0  0  0
 18 25  1  0  0  0  0
 18 19  1  0  0  0  0
 19 26  1  6  0  0  0
 19 20  1  0  0  0  0
 19 21  1  0  0  0  0
 20 27  1  0  0  0  0
 20  7  1  0  0  0  0
 21 33  1  0  0  0  0
 22 21  2  0  0  0  0
 23 18  1  0  0  0  0
 24 18  1  0  0  0  0
 28 38  1  0  0  0  0
 29 30  2  0  0  0  0
 29 28  1  0  0  0  0
 31 40  1  0  0  0  0
 31 29  1  0  0  0  0
 32 41  1  6  0  0  0
 32 31  1  0  0  0  0
 32 34  1  0  0  0  0
 33 42  1  0  0  0  0
 33 32  1  0  0  0  0
 34 36  2  0  0  0  0
 34 35  1  0  0  0  0
 37 28  1  0  0  0  0
 39 31  1  0  0  0  0
M  END
$$$$
