EAP.pdb
 OpenBabel07022418173D

 42 42  0  0  1  0  0  0  0  0999 V2000
    3.6530   -0.1110   -0.7350 N   0  0  0  0  0  0  0  0  0  0  0  0
    2.4370    0.3540   -1.3640 C   0  0  1  0  0  0  0  0  0  0  0  0
    2.3980   -0.1720   -2.7790 C   0  0  0  0  0  0  0  0  0  0  0  0
    3.6310    0.3770   -3.4890 C   0  0  0  0  0  0  0  0  0  0  0  0
    3.6590   -0.1000   -4.8880 C   0  0  0  0  0  0  0  0  0  0  0  0
    2.7530   -0.8420   -5.3230 O   0  0  0  0  0  0  0  0  0  0  0  0
    1.2300   -0.0130   -0.5920 C   0  0  0  0  0  0  0  0  0  0  0  0
    0.1190    0.3440   -1.0500 O   0  0  0  0  0  0  0  0  0  0  0  0
    4.7140    0.2980   -5.7000 O   0  0  0  0  0  0  0  0  0  0  0  0
    3.8830    0.3790    0.1420 H   0  0  0  0  0  0  0  0  0  0  0  0
    3.5600   -1.1460   -0.6260 H   0  0  0  0  0  0  0  0  0  0  0  0
    2.5200    1.4640   -1.4430 H   0  0  0  0  0  0  0  0  0  0  0  0
    1.4840    0.0900   -3.3100 H   0  0  0  0  0  0  0  0  0  0  0  0
    2.5350   -1.2820   -2.7370 H   0  0  0  0  0  0  0  0  0  0  0  0
    4.5420    0.0380   -2.9760 H   0  0  0  0  0  0  0  0  0  0  0  0
    3.5820    1.4750   -3.4540 H   0  0  0  0  0  0  0  0  0  0  0  0
    4.8680   -0.1400   -6.5770 H   0  0  0  0  0  0  0  0  0  0  0  0
   -0.0880   -2.5650    1.4790 C   0  0  0  0  0  0  0  0  0  0  0  0
    0.0920   -1.0880    1.3620 C   0  0  2  0  0  0  0  0  0  0  0  0
    1.3030   -0.7410    0.6230 N   0  0  0  0  0  0  0  0  0  0  0  0
    0.0880   -0.3890    2.6900 C   0  0  0  0  0  0  0  0  0  0  0  0
    1.1050    0.3370    2.9680 O   0  0  0  0  0  0  0  0  0  0  0  0
    0.1460   -2.9770    2.4810 H   0  0  0  0  0  0  0  0  0  0  0  0
    0.6830   -3.0350    0.7950 H   0  0  0  0  0  0  0  0  0  0  0  0
   -1.0470   -2.8590    1.0560 H   0  0  0  0  0  0  0  0  0  0  0  0
   -0.7560   -0.6790    0.7830 H   0  0  0  0  0  0  0  0  0  0  0  0
    2.2540   -1.0100    0.9550 H   0  0  0  0  0  0  0  0  0  0  0  0
   -0.9660   -0.4950    3.6260 N   0  0  0  0  0  0  0  0  0  0  0  0
   -1.0010    0.1610    4.9180 C   0  0  0  0  0  0  0  0  0  0  0  0
   -2.4130   -0.0040    5.4320 C   0  0  0  0  0  0  0  0  0  0  0  0
   -2.7720   -1.3550    4.8720 C   0  0  0  0  0  0  0  0  0  0  0  0
   -2.1800   -1.2610    3.4570 C   0  0  1  0  0  0  0  0  0  0  0  0
   -3.0870   -0.4880    2.5710 C   0  0  0  0  0  0  0  0  0  0  0  0
   -2.7700    0.6330    2.1070 O   0  0  0  0  0  0  0  0  0  0  0  0
   -4.3280   -1.0100    2.2370 O   0  0  0  0  0  0  0  0  0  0  0  0
   -0.8550    1.2650    4.7680 H   0  0  0  0  0  0  0  0  0  0  0  0
   -0.2360   -0.1780    5.6120 H   0  0  0  0  0  0  0  0  0  0  0  0
   -3.1150    0.7370    5.0340 H   0  0  0  0  0  0  0  0  0  0  0  0
   -2.4600    0.0010    6.5400 H   0  0  0  0  0  0  0  0  0  0  0  0
   -3.8440   -1.5450    4.8370 H   0  0  0  0  0  0  0  0  0  0  0  0
   -2.1770   -2.1290    5.3940 H   0  0  0  0  0  0  0  0  0  0  0  0
   -2.0410   -2.2950    3.1490 H   0  0  0  0  0  0  0  0  0  0  0  0
  1 11  1  0  0  0  0
  1 10  1  0  0  0  0
  2 12  1  6  0  0  0
  2  1  1  0  0  0  0
  2  7  1  0  0  0  0
  3 14  1  0  0  0  0
  3  2  1  0  0  0  0
  4 16  1  0  0  0  0
  4 15  1  0  0  0  0
  4  3  1  0  0  0  0
  5  4  1  0  0  0  0
  6  5  2  0  0  0  0
  7 20  1  0  0  0  0
  8  7  2  0  0  0  0
  9  5  1  0  0  0  0
 13  3  1  0  0  0  0
 17  9  1  0  0  0  0
 18 23  1  0  0  0  0
 19 26  1  6  0  0  0
 19 18  1  0  0  0  0
 19 21  1  0  0  0  0
 20 27  1  0  0  0  0
 20 19  1  0  0  0  0
 21 22  2  0  0  0  0
 21 28  1  0  0  0  0
 24 18  1  0  0  0  0
 25 18  1  0  0  0  0
 28 29  1  0  0  0  0
 29 30  1  0  0  0  0
 29 37  1  0  0  0  0
 30 39  1  0  0  0  0
 31 41  1  0  0  0  0
 31 30  1  0  0  0  0
 32 42  1  6  0  0  0
 32 28  1  0  0  0  0
 32 31  1  0  0  0  0
 33 32  1  0  0  0  0
 34 33  2  0  0  0  0
 35 33  1  0  0  0  0
 36 29  1  0  0  0  0
 38 30  1  0  0  0  0
 40 31  1  0  0  0  0
M  END
$$$$
