EAQ.pdb
 OpenBabel07022418173D

 45 44  0  0  1  0  0  0  0  0999 V2000
    1.0920   -3.0470    1.7680 N   0  0  0  0  0  0  0  0  0  0  0  0
    2.1110   -2.0020    1.7480 C   0  0  1  0  0  0  0  0  0  0  0  0
    3.4310   -2.6920    1.6210 C   0  0  0  0  0  0  0  0  0  0  0  0
    4.6170   -1.7940    1.5810 C   0  0  0  0  0  0  0  0  0  0  0  0
    4.7580   -0.9710    2.7850 C   0  0  0  0  0  0  0  0  0  0  0  0
    5.7190   -0.1480    2.8560 O   0  0  0  0  0  0  0  0  0  0  0  0
    1.8130   -1.1330    0.5960 C   0  0  0  0  0  0  0  0  0  0  0  0
    2.5740   -0.1360    0.3940 O   0  0  0  0  0  0  0  0  0  0  0  0
    3.9160   -1.0140    3.8790 O   0  0  0  0  0  0  0  0  0  0  0  0
    0.8700   -3.3590    2.7370 H   0  0  0  0  0  0  0  0  0  0  0  0
    1.3090   -3.8240    1.1270 H   0  0  0  0  0  0  0  0  0  0  0  0
    1.9740   -1.4220    2.6690 H   0  0  0  0  0  0  0  0  0  0  0  0
    3.5140   -3.4750    2.4010 H   0  0  0  0  0  0  0  0  0  0  0  0
    3.4050   -3.2470    0.6390 H   0  0  0  0  0  0  0  0  0  0  0  0
    5.5250   -2.4590    1.5430 H   0  0  0  0  0  0  0  0  0  0  0  0
    4.6270   -1.2150    0.6310 H   0  0  0  0  0  0  0  0  0  0  0  0
    4.2410   -0.7150    4.7960 H   0  0  0  0  0  0  0  0  0  0  0  0
    0.6760   -1.2120   -2.6770 C   0  0  0  0  0  0  0  0  0  0  0  0
    0.5170   -0.4520   -1.3850 C   0  0  2  0  0  0  0  0  0  0  0  0
    0.7260   -1.3630   -0.2830 N   0  0  0  0  0  0  0  0  0  0  0  0
   -0.8060    0.2190   -1.2900 C   0  0  0  0  0  0  0  0  0  0  0  0
   -1.0870    1.0280   -2.1700 O   0  0  0  0  0  0  0  0  0  0  0  0
    0.6270   -2.3100   -2.5280 H   0  0  0  0  0  0  0  0  0  0  0  0
   -0.1120   -0.9470   -3.4070 H   0  0  0  0  0  0  0  0  0  0  0  0
    1.6410   -0.9430   -3.1480 H   0  0  0  0  0  0  0  0  0  0  0  0
    1.2870    0.3260   -1.3480 H   0  0  0  0  0  0  0  0  0  0  0  0
    0.0970   -2.1880   -0.1160 H   0  0  0  0  0  0  0  0  0  0  0  0
   -0.9020    0.9620    3.7670 N   0  0  0  0  0  0  0  0  0  0  0  0
   -1.4270    1.3580    2.5140 C   0  0  0  0  0  0  0  0  0  0  0  0
   -0.5860    1.5620    1.6070 O   0  0  0  0  0  0  0  0  0  0  0  0
   -2.8430    1.5330    2.2550 C   0  0  0  0  0  0  0  0  0  0  0  0
   -3.2740    1.6580    0.8210 C   0  0  0  0  0  0  0  0  0  0  0  0
   -3.0080    0.4940   -0.0230 C   0  0  2  0  0  0  0  0  0  0  0  0
   -1.7400   -0.0200   -0.2620 N   0  0  0  0  0  0  0  0  0  0  0  0
   -3.7910    0.6200   -1.3140 C   0  0  0  0  0  0  0  0  0  0  0  0
   -4.9020    1.2120   -1.2540 O   0  0  0  0  0  0  0  0  0  0  0  0
   -3.3310    0.1170   -2.4900 O   0  0  0  0  0  0  0  0  0  0  0  0
   -0.2160    1.5320    4.2890 H   0  0  0  0  0  0  0  0  0  0  0  0
   -1.2190    0.0660    4.1720 H   0  0  0  0  0  0  0  0  0  0  0  0
   -3.4210    0.6480    2.6680 H   0  0  0  0  0  0  0  0  0  0  0  0
   -3.1940    2.3830    2.8820 H   0  0  0  0  0  0  0  0  0  0  0  0
   -4.4050    1.7770    0.8960 H   0  0  0  0  0  0  0  0  0  0  0  0
   -2.9890    2.6450    0.3820 H   0  0  0  0  0  0  0  0  0  0  0  0
   -3.6460   -0.3750    0.4420 H   0  0  0  0  0  0  0  0  0  0  0  0
   -1.3660   -0.7490    0.4480 H   0  0  0  0  0  0  0  0  0  0  0  0
  1 10  1  0  0  0  0
  2  1  1  0  0  0  0
  2 12  1  1  0  0  0
  3  2  1  0  0  0  0
  3 13  1  0  0  0  0
  4  3  1  0  0  0  0
  4  5  1  0  0  0  0
  5  6  2  0  0  0  0
  5  9  1  0  0  0  0
  7  2  1  0  0  0  0
  8  7  2  0  0  0  0
  9 17  1  0  0  0  0
 11  1  1  0  0  0  0
 14  3  1  0  0  0  0
 15  4  1  0  0  0  0
 16  4  1  0  0  0  0
 18 23  1  0  0  0  0
 18 19  1  0  0  0  0
 19 26  1  1  0  0  0
 19 21  1  0  0  0  0
 19 20  1  0  0  0  0
 20 27  1  0  0  0  0
 20  7  1  0  0  0  0
 21 34  1  0  0  0  0
 22 21  2  0  0  0  0
 24 18  1  0  0  0  0
 25 18  1  0  0  0  0
 28 39  1  0  0  0  0
 28 38  1  0  0  0  0
 29 28  1  0  0  0  0
 30 29  2  0  0  0  0
 31 29  1  0  0  0  0
 31 40  1  0  0  0  0
 31 41  1  0  0  0  0
 32 42  1  0  0  0  0
 32 31  1  0  0  0  0
 33 44  1  1  0  0  0
 33 32  1  0  0  0  0
 34 33  1  0  0  0  0
 34 45  1  0  0  0  0
 35 36  1  0  0  0  0
 35 33  1  0  0  0  0
 37 35  2  0  0  0  0
 43 32  1  0  0  0  0
M  END
$$$$
