EAS.pdb
 OpenBabel07022418173D

 39 38  0  0  1  0  0  0  0  0999 V2000
   -0.7940   -3.1720    1.4830 N   0  0  0  0  0  0  0  0  0  0  0  0
    0.6140   -2.9540    1.1970 C   0  0  1  0  0  0  0  0  0  0  0  0
    1.1380   -4.2360    0.6270 C   0  0  0  0  0  0  0  0  0  0  0  0
    2.5760   -4.2470    0.2530 C   0  0  0  0  0  0  0  0  0  0  0  0
    3.4970   -3.9920    1.3540 C   0  0  0  0  0  0  0  0  0  0  0  0
    3.1360   -3.8020    2.5310 O   0  0  0  0  0  0  0  0  0  0  0  0
    0.8340   -1.7740    0.3430 C   0  0  0  0  0  0  0  0  0  0  0  0
    2.0170   -1.4670    0.0600 O   0  0  0  0  0  0  0  0  0  0  0  0
    4.8600   -3.9560    1.0910 O   0  0  0  0  0  0  0  0  0  0  0  0
   -1.2030   -2.4270    2.0830 H   0  0  0  0  0  0  0  0  0  0  0  0
   -0.8350   -4.0520    2.0700 H   0  0  0  0  0  0  0  0  0  0  0  0
    1.1250   -2.7580    2.1590 H   0  0  0  0  0  0  0  0  0  0  0  0
    0.5300   -4.5900   -0.2390 H   0  0  0  0  0  0  0  0  0  0  0  0
    1.0120   -5.0040    1.4480 H   0  0  0  0  0  0  0  0  0  0  0  0
    2.7550   -3.5590   -0.6030 H   0  0  0  0  0  0  0  0  0  0  0  0
    2.7970   -5.2970   -0.1020 H   0  0  0  0  0  0  0  0  0  0  0  0
    5.5060   -3.4130    1.6730 H   0  0  0  0  0  0  0  0  0  0  0  0
   -0.4680    0.0610   -2.3850 C   0  0  0  0  0  0  0  0  0  0  0  0
    0.1190    0.1640   -0.9990 C   0  0  2  0  0  0  0  0  0  0  0  0
   -0.2160   -0.9660   -0.1750 N   0  0  0  0  0  0  0  0  0  0  0  0
   -0.3090    1.4370   -0.3150 C   0  0  0  0  0  0  0  0  0  0  0  0
   -0.1230    2.5420   -0.8410 O   0  0  0  0  0  0  0  0  0  0  0  0
   -0.6000    1.0600   -2.7990 H   0  0  0  0  0  0  0  0  0  0  0  0
    0.2710   -0.4860   -3.0320 H   0  0  0  0  0  0  0  0  0  0  0  0
   -1.4050   -0.5070   -2.4250 H   0  0  0  0  0  0  0  0  0  0  0  0
    1.2170    0.2550   -1.1240 H   0  0  0  0  0  0  0  0  0  0  0  0
   -1.1780   -1.2450    0.0760 H   0  0  0  0  0  0  0  0  0  0  0  0
   -0.8320    4.2100    3.2310 O   0  0  0  0  0  0  0  0  0  0  0  0
   -0.3320    3.1390    2.5290 C   0  0  0  0  0  0  0  0  0  0  0  0
   -1.4010    2.4820    1.7110 C   0  0  2  0  0  0  0  0  0  0  0  0
   -0.9370    1.3590    0.9570 N   0  0  0  0  0  0  0  0  0  0  0  0
   -2.2250    3.4340    0.9190 C   0  0  0  0  0  0  0  0  0  0  0  0
   -2.5060    3.1560   -0.2650 O   0  0  0  0  0  0  0  0  0  0  0  0
   -2.6770    4.6190    1.4900 O   0  0  0  0  0  0  0  0  0  0  0  0
   -0.1650    4.5190    3.8820 H   0  0  0  0  0  0  0  0  0  0  0  0
    0.5420    3.4200    1.9050 H   0  0  0  0  0  0  0  0  0  0  0  0
    0.0310    2.3960    3.2710 H   0  0  0  0  0  0  0  0  0  0  0  0
   -2.1640    2.0660    2.4600 H   0  0  0  0  0  0  0  0  0  0  0  0
   -1.0570    0.3720    1.3560 H   0  0  0  0  0  0  0  0  0  0  0  0
  1 11  1  0  0  0  0
  1 10  1  0  0  0  0
  2  1  1  0  0  0  0
  2 12  1  1  0  0  0
  3  2  1  0  0  0  0
  3 14  1  0  0  0  0
  4  3  1  0  0  0  0
  4  5  1  0  0  0  0
  5  6  2  0  0  0  0
  7  2  1  0  0  0  0
  8  7  2  0  0  0  0
  9  5  1  0  0  0  0
  9 17  1  0  0  0  0
 13  3  1  0  0  0  0
 15  4  1  0  0  0  0
 16  4  1  0  0  0  0
 18 19  1  0  0  0  0
 19 26  1  6  0  0  0
 19 21  1  0  0  0  0
 19 20  1  0  0  0  0
 20 27  1  0  0  0  0
 20  7  1  0  0  0  0
 21 31  1  0  0  0  0
 22 21  2  0  0  0  0
 23 18  1  0  0  0  0
 24 18  1  0  0  0  0
 25 18  1  0  0  0  0
 28 35  1  0  0  0  0
 29 28  1  0  0  0  0
 29 37  1  0  0  0  0
 30 38  1  1  0  0  0
 30 29  1  0  0  0  0
 31 39  1  0  0  0  0
 31 30  1  0  0  0  0
 32 34  1  0  0  0  0
 32 30  1  0  0  0  0
 33 32  2  0  0  0  0
 36 29  1  0  0  0  0
M  END
$$$$
