EAY.pdb
 OpenBabel07022418173D

 49 49  0  0  1  0  0  0  0  0999 V2000
    0.7210   -1.4180    3.8790 N   0  0  0  0  0  0  0  0  0  0  0  0
    1.5860   -0.2630    3.8100 C   0  0  1  0  0  0  0  0  0  0  0  0
    2.8280   -0.5660    4.5670 C   0  0  0  0  0  0  0  0  0  0  0  0
    3.6320   -1.7320    4.1490 C   0  0  0  0  0  0  0  0  0  0  0  0
    4.1900   -1.7460    2.8000 C   0  0  0  0  0  0  0  0  0  0  0  0
    4.1000   -0.8640    1.9390 O   0  0  0  0  0  0  0  0  0  0  0  0
    1.6960    0.4010    2.5350 C   0  0  0  0  0  0  0  0  0  0  0  0
    2.3410    1.5070    2.4940 O   0  0  0  0  0  0  0  0  0  0  0  0
    4.9150   -2.8980    2.4390 O   0  0  0  0  0  0  0  0  0  0  0  0
    0.9200   -1.9140    4.7750 H   0  0  0  0  0  0  0  0  0  0  0  0
   -0.2780   -1.2120    3.8410 H   0  0  0  0  0  0  0  0  0  0  0  0
    1.0240    0.4850    4.4910 H   0  0  0  0  0  0  0  0  0  0  0  0
    2.6140   -0.6940    5.6740 H   0  0  0  0  0  0  0  0  0  0  0  0
    3.5380    0.3230    4.5760 H   0  0  0  0  0  0  0  0  0  0  0  0
    4.5360   -1.7580    4.8450 H   0  0  0  0  0  0  0  0  0  0  0  0
    3.1360   -2.7140    4.3790 H   0  0  0  0  0  0  0  0  0  0  0  0
    5.5310   -2.8540    1.6360 H   0  0  0  0  0  0  0  0  0  0  0  0
    2.0340   -0.0980   -1.0010 C   0  0  0  0  0  0  0  0  0  0  0  0
    1.2970    0.6620    0.0530 C   0  0  2  0  0  0  0  0  0  0  0  0
    1.1620   -0.0340    1.2940 N   0  0  0  0  0  0  0  0  0  0  0  0
   -0.0590    1.0430   -0.4670 C   0  0  0  0  0  0  0  0  0  0  0  0
   -0.1820    1.6660   -1.5530 O   0  0  0  0  0  0  0  0  0  0  0  0
    1.9410    0.5010   -1.9540 H   0  0  0  0  0  0  0  0  0  0  0  0
    3.1220   -0.0960   -0.7780 H   0  0  0  0  0  0  0  0  0  0  0  0
    1.6200   -1.0850   -1.2200 H   0  0  0  0  0  0  0  0  0  0  0  0
    1.8980    1.5920    0.2630 H   0  0  0  0  0  0  0  0  0  0  0  0
    0.6310   -0.9290    1.2910 H   0  0  0  0  0  0  0  0  0  0  0  0
   -0.7730   -3.4120   -4.3770 O   0  0  0  0  0  0  0  0  0  0  0  0
   -1.4000   -2.6290   -3.3990 C   0  0  0  0  0  0  0  0  0  0  0  0
   -1.0900   -2.7760   -2.0660 C   0  0  0  0  0  0  0  0  0  0  0  0
   -1.7120   -2.0010   -1.1150 C   0  0  0  0  0  0  0  0  0  0  0  0
   -2.6570   -1.0670   -1.4870 C   0  0  0  0  0  0  0  0  0  0  0  0
   -3.3430   -0.2210   -0.4870 C   0  0  0  0  0  0  0  0  0  0  0  0
   -2.5700    1.0770   -0.2450 C   0  0  2  0  0  0  0  0  0  0  0  0
   -1.2520    0.7170    0.2410 N   0  0  0  0  0  0  0  0  0  0  0  0
   -3.3000    1.9200    0.7360 C   0  0  0  0  0  0  0  0  0  0  0  0
   -2.7600    2.2300    1.8290 O   0  0  0  0  0  0  0  0  0  0  0  0
   -2.9720   -0.9170   -2.8310 C   0  0  0  0  0  0  0  0  0  0  0  0
   -2.3470   -1.6950   -3.7850 C   0  0  0  0  0  0  0  0  0  0  0  0
   -4.5720    2.3910    0.5020 O   0  0  0  0  0  0  0  0  0  0  0  0
   -0.1360   -4.1470   -4.0610 H   0  0  0  0  0  0  0  0  0  0  0  0
   -0.3470   -3.5130   -1.7980 H   0  0  0  0  0  0  0  0  0  0  0  0
   -1.4860   -2.0970   -0.0580 H   0  0  0  0  0  0  0  0  0  0  0  0
   -4.3630   -0.0160   -0.8590 H   0  0  0  0  0  0  0  0  0  0  0  0
   -3.4060   -0.8120    0.4540 H   0  0  0  0  0  0  0  0  0  0  0  0
   -2.5260    1.6140   -1.2050 H   0  0  0  0  0  0  0  0  0  0  0  0
   -1.1260    0.2010    1.1380 H   0  0  0  0  0  0  0  0  0  0  0  0
   -3.7230   -0.1720   -3.1080 H   0  0  0  0  0  0  0  0  0  0  0  0
   -2.6190   -1.5460   -4.8020 H   0  0  0  0  0  0  0  0  0  0  0  0
  1 10  1  0  0  0  0
  2  1  1  0  0  0  0
  2 12  1  1  0  0  0
  2  3  1  0  0  0  0
  3 14  1  0  0  0  0
  3 13  1  0  0  0  0
  4 16  1  0  0  0  0
  4  3  1  0  0  0  0
  4 15  1  0  0  0  0
  5  4  1  0  0  0  0
  6  5  2  0  0  0  0
  7  2  1  0  0  0  0
  8  7  2  0  0  0  0
  9  5  1  0  0  0  0
 11  1  1  0  0  0  0
 17  9  1  0  0  0  0
 18 24  1  0  0  0  0
 18 19  1  0  0  0  0
 19 26  1  1  0  0  0
 19 20  1  0  0  0  0
 20  7  1  0  0  0  0
 21 19  1  0  0  0  0
 21 35  1  0  0  0  0
 22 21  2  0  0  0  0
 23 18  1  0  0  0  0
 25 18  1  0  0  0  0
 27 20  1  0  0  0  0
 28 41  1  0  0  0  0
 28 29  1  0  0  0  0
 29 30  1  0  0  0  0
 30 42  1  0  0  0  0
 30 31  2  0  0  0  0
 31 43  1  0  0  0  0
 32 31  1  0  0  0  0
 32 33  1  0  0  0  0
 33 34  1  0  0  0  0
 33 45  1  0  0  0  0
 34 46  1  6  0  0  0
 34 35  1  0  0  0  0
 34 36  1  0  0  0  0
 35 47  1  0  0  0  0
 36 37  1  0  0  0  0
 38 32  2  0  0  0  0
 39 29  2  0  0  0  0
 39 38  1  0  0  0  0
 40 36  2  0  0  0  0
 44 33  1  0  0  0  0
 48 38  1  0  0  0  0
 49 39  1  0  0  0  0
M  END
$$$$
