ECA.pdb
 OpenBabel07022418183D

 39 38  0  0  1  0  0  0  0  0999 V2000
   -1.8880   -4.3300    0.3910 N   0  0  0  0  0  0  0  0  0  0  0  0
   -0.9980   -3.3130    1.0130 C   0  0  1  0  0  0  0  0  0  0  0  0
    0.3750   -3.6950    0.6010 C   0  0  0  0  0  0  0  0  0  0  0  0
    1.4950   -2.8500    1.0820 C   0  0  0  0  0  0  0  0  0  0  0  0
    1.5990   -2.7800    2.5640 C   0  0  0  0  0  0  0  0  0  0  0  0
    0.8260   -3.3830    3.3490 O   0  0  0  0  0  0  0  0  0  0  0  0
   -1.4930   -2.0130    0.5680 C   0  0  0  0  0  0  0  0  0  0  0  0
   -2.4030   -1.9260   -0.3320 O   0  0  0  0  0  0  0  0  0  0  0  0
    2.5950   -2.0160    3.1790 O   0  0  0  0  0  0  0  0  0  0  0  0
   -2.1460   -4.0160   -0.5870 H   0  0  0  0  0  0  0  0  0  0  0  0
   -1.3750   -5.2290    0.2680 H   0  0  0  0  0  0  0  0  0  0  0  0
   -1.1260   -3.4900    2.1010 H   0  0  0  0  0  0  0  0  0  0  0  0
    0.4820   -3.8240   -0.4980 H   0  0  0  0  0  0  0  0  0  0  0  0
    0.5610   -4.7340    1.0090 H   0  0  0  0  0  0  0  0  0  0  0  0
    2.4460   -3.3900    0.7610 H   0  0  0  0  0  0  0  0  0  0  0  0
    1.5520   -1.8880    0.5760 H   0  0  0  0  0  0  0  0  0  0  0  0
    2.4410   -1.6610    4.1220 H   0  0  0  0  0  0  0  0  0  0  0  0
   -1.0650   -0.7330    1.0450 N   0  0  0  0  0  0  0  0  0  0  0  0
   -1.6070    0.4960    0.5680 C   0  0  1  0  0  0  0  0  0  0  0  0
   -2.5600    1.1320    1.5750 C   0  0  0  0  0  0  0  0  0  0  0  0
   -3.2010    2.6810    0.8940 S   0  0  0  0  0  0  0  0  0  0  0  0
   -0.6090    1.4830    0.1430 C   0  0  0  0  0  0  0  0  0  0  0  0
   -0.9530    2.6070   -0.3660 O   0  0  0  0  0  0  0  0  0  0  0  0
   -0.3250   -0.7230    1.7720 H   0  0  0  0  0  0  0  0  0  0  0  0
   -2.2650    0.2630   -0.3090 H   0  0  0  0  0  0  0  0  0  0  0  0
   -3.4250    0.4530    1.6980 H   0  0  0  0  0  0  0  0  0  0  0  0
   -2.0220    1.3540    2.4980 H   0  0  0  0  0  0  0  0  0  0  0  0
   -3.3960    2.6230   -0.4810 H   0  0  0  0  0  0  0  0  0  0  0  0
    2.5290    2.7310    1.0550 C   0  0  0  0  0  0  0  0  0  0  0  0
    1.7600    2.2730   -0.1700 C   0  0  2  0  0  0  0  0  0  0  0  0
    0.7840    1.2870    0.2570 N   0  0  0  0  0  0  0  0  0  0  0  0
    2.7140    1.6930   -1.1280 C   0  0  0  0  0  0  0  0  0  0  0  0
    2.5750    0.4720   -1.4450 O   0  0  0  0  0  0  0  0  0  0  0  0
    3.7520    2.4180   -1.6950 O   0  0  0  0  0  0  0  0  0  0  0  0
    2.5820    1.9320    1.8260 H   0  0  0  0  0  0  0  0  0  0  0  0
    1.9820    3.6010    1.4900 H   0  0  0  0  0  0  0  0  0  0  0  0
    3.5160    3.0800    0.7320 H   0  0  0  0  0  0  0  0  0  0  0  0
    1.1950    3.1410   -0.5720 H   0  0  0  0  0  0  0  0  0  0  0  0
    1.1100    0.3940    0.6730 H   0  0  0  0  0  0  0  0  0  0  0  0
  1  2  1  0  0  0  0
  2 12  1  1  0  0  0
  3 14  1  0  0  0  0
  3  2  1  0  0  0  0
  3  4  1  0  0  0  0
  4  5  1  0  0  0  0
  5  9  1  0  0  0  0
  5  6  2  0  0  0  0
  7  2  1  0  0  0  0
  7 18  1  0  0  0  0
  8  7  2  0  0  0  0
  9 17  1  0  0  0  0
 10  1  1  0  0  0  0
 11  1  1  0  0  0  0
 13  3  1  0  0  0  0
 15  4  1  0  0  0  0
 16  4  1  0  0  0  0
 18 24  1  0  0  0  0
 19 25  1  6  0  0  0
 19 18  1  0  0  0  0
 19 20  1  0  0  0  0
 20 26  1  0  0  0  0
 20 27  1  0  0  0  0
 21 20  1  0  0  0  0
 22 31  1  0  0  0  0
 22 19  1  0  0  0  0
 23 22  2  0  0  0  0
 28 21  1  0  0  0  0
 29 36  1  0  0  0  0
 29 35  1  0  0  0  0
 30 38  1  6  0  0  0
 30 31  1  0  0  0  0
 30 29  1  0  0  0  0
 31 39  1  0  0  0  0
 32 30  1  0  0  0  0
 33 32  1  0  0  0  0
 34 32  2  0  0  0  0
 37 29  1  0  0  0  0
M  END
$$$$
