ECC.pdb
 OpenBabel07022418183D

 40 39  0  0  1  0  0  0  0  0999 V2000
    2.5160   -3.5930   -0.4900 N   0  0  0  0  0  0  0  0  0  0  0  0
    1.3450   -2.7750   -0.5590 C   0  0  1  0  0  0  0  0  0  0  0  0
    0.3860   -3.1090    0.5190 C   0  0  0  0  0  0  0  0  0  0  0  0
    0.8820   -2.9350    1.9090 C   0  0  0  0  0  0  0  0  0  0  0  0
    2.0350   -3.7180    2.3220 C   0  0  0  0  0  0  0  0  0  0  0  0
    2.0240   -4.9670    2.1990 O   0  0  0  0  0  0  0  0  0  0  0  0
    1.6560   -1.3270   -0.6520 C   0  0  0  0  0  0  0  0  0  0  0  0
    2.8670   -1.0020   -0.6570 O   0  0  0  0  0  0  0  0  0  0  0  0
    3.1940   -3.1790    2.8620 O   0  0  0  0  0  0  0  0  0  0  0  0
    2.1850   -4.5920   -0.5270 H   0  0  0  0  0  0  0  0  0  0  0  0
    3.0540   -3.4400   -1.3990 H   0  0  0  0  0  0  0  0  0  0  0  0
    0.8390   -3.0350   -1.5360 H   0  0  0  0  0  0  0  0  0  0  0  0
    0.0800   -4.1800    0.3670 H   0  0  0  0  0  0  0  0  0  0  0  0
   -0.5780   -2.5380    0.4330 H   0  0  0  0  0  0  0  0  0  0  0  0
    0.0310   -3.1850    2.6160 H   0  0  0  0  0  0  0  0  0  0  0  0
    1.1050   -1.8530    2.1380 H   0  0  0  0  0  0  0  0  0  0  0  0
    3.7180   -3.7520    3.5120 H   0  0  0  0  0  0  0  0  0  0  0  0
    0.6890   -0.3220   -0.7310 N   0  0  0  0  0  0  0  0  0  0  0  0
    0.9320    1.0980   -0.8210 C   0  0  1  0  0  0  0  0  0  0  0  0
    0.2850    1.5560   -2.1260 C   0  0  0  0  0  0  0  0  0  0  0  0
    0.4660    3.3120   -2.4200 S   0  0  0  0  0  0  0  0  0  0  0  0
    0.2430    1.7530    0.3180 C   0  0  0  0  0  0  0  0  0  0  0  0
    0.2950    3.0190    0.4280 O   0  0  0  0  0  0  0  0  0  0  0  0
   -0.3170   -0.6400   -0.7260 H   0  0  0  0  0  0  0  0  0  0  0  0
    2.0310    1.3290   -0.8030 H   0  0  0  0  0  0  0  0  0  0  0  0
    0.7920    1.0260   -2.9700 H   0  0  0  0  0  0  0  0  0  0  0  0
   -0.7610    1.2150   -2.0850 H   0  0  0  0  0  0  0  0  0  0  0  0
    1.6010    3.8380   -1.8040 H   0  0  0  0  0  0  0  0  0  0  0  0
   -0.4730    1.0070    1.2880 N   0  0  0  0  0  0  0  0  0  0  0  0
   -1.1340    1.6640    2.3800 C   0  0  1  0  0  0  0  0  0  0  0  0
   -2.6350    1.3640    2.3650 C   0  0  0  0  0  0  0  0  0  0  0  0
   -3.3950    1.9330    0.8260 S   0  0  0  0  0  0  0  0  0  0  0  0
   -0.6330    1.2220    3.6930 C   0  0  0  0  0  0  0  0  0  0  0  0
   -1.1040    1.7090    4.7370 O   0  0  0  0  0  0  0  0  0  0  0  0
    0.3560    0.2700    3.7690 O   0  0  0  0  0  0  0  0  0  0  0  0
   -0.5090   -0.0160    1.1990 H   0  0  0  0  0  0  0  0  0  0  0  0
   -0.9960    2.7720    2.2470 H   0  0  0  0  0  0  0  0  0  0  0  0
   -3.0720    1.9390    3.2170 H   0  0  0  0  0  0  0  0  0  0  0  0
   -2.7930    0.2810    2.4950 H   0  0  0  0  0  0  0  0  0  0  0  0
   -4.2820    0.9310    0.3780 H   0  0  0  0  0  0  0  0  0  0  0  0
  2 12  1  6  0  0  0
  2  1  1  0  0  0  0
  2  3  1  0  0  0  0
  3  4  1  0  0  0  0
  4 16  1  0  0  0  0
  4  5  1  0  0  0  0
  4 15  1  0  0  0  0
  5  9  1  0  0  0  0
  6  5  2  0  0  0  0
  7  2  1  0  0  0  0
  8  7  2  0  0  0  0
  9 17  1  0  0  0  0
 10  1  1  0  0  0  0
 11  1  1  0  0  0  0
 13  3  1  0  0  0  0
 14  3  1  0  0  0  0
 18 24  1  0  0  0  0
 18  7  1  0  0  0  0
 19 25  1  1  0  0  0
 19 18  1  0  0  0  0
 19 22  1  0  0  0  0
 20 27  1  0  0  0  0
 20 19  1  0  0  0  0
 21 20  1  0  0  0  0
 21 28  1  0  0  0  0
 22 23  2  0  0  0  0
 22 29  1  0  0  0  0
 26 20  1  0  0  0  0
 29 30  1  0  0  0  0
 30 37  1  6  0  0  0
 30 33  1  0  0  0  0
 31 30  1  0  0  0  0
 31 39  1  0  0  0  0
 31 38  1  0  0  0  0
 32 31  1  0  0  0  0
 33 35  2  0  0  0  0
 33 34  1  0  0  0  0
 36 29  1  0  0  0  0
 40 32  1  0  0  0  0
M  END
$$$$
