ECE.pdb
 OpenBabel07022418183D

 45 44  0  0  1  0  0  0  0  0999 V2000
    4.4080   -3.9120    0.3680 N   0  0  0  0  0  0  0  0  0  0  0  0
    3.8880   -2.5810   -0.0310 C   0  0  1  0  0  0  0  0  0  0  0  0
    3.3540   -2.7920   -1.4270 C   0  0  0  0  0  0  0  0  0  0  0  0
    2.7590   -1.5940   -2.0740 C   0  0  0  0  0  0  0  0  0  0  0  0
    2.3070   -1.9960   -3.4510 C   0  0  0  0  0  0  0  0  0  0  0  0
    2.4690   -3.1720   -3.8500 O   0  0  0  0  0  0  0  0  0  0  0  0
    2.8540   -2.2210    0.9600 C   0  0  0  0  0  0  0  0  0  0  0  0
    2.3920   -3.0780    1.7560 O   0  0  0  0  0  0  0  0  0  0  0  0
    1.7040   -1.0980   -4.3200 O   0  0  0  0  0  0  0  0  0  0  0  0
    3.6560   -4.6140    0.1880 H   0  0  0  0  0  0  0  0  0  0  0  0
    4.6060   -3.9360    1.3930 H   0  0  0  0  0  0  0  0  0  0  0  0
    4.7320   -1.8650   -0.0540 H   0  0  0  0  0  0  0  0  0  0  0  0
    2.6820   -3.6750   -1.4660 H   0  0  0  0  0  0  0  0  0  0  0  0
    4.2410   -3.0860   -2.0630 H   0  0  0  0  0  0  0  0  0  0  0  0
    3.4640   -0.7510   -2.1960 H   0  0  0  0  0  0  0  0  0  0  0  0
    1.8790   -1.1830   -1.5040 H   0  0  0  0  0  0  0  0  0  0  0  0
    1.0700   -1.4740   -5.0380 H   0  0  0  0  0  0  0  0  0  0  0  0
    2.3650   -0.8900    1.0290 N   0  0  0  0  0  0  0  0  0  0  0  0
    1.3390   -0.5800    2.0220 C   0  0  1  0  0  0  0  0  0  0  0  0
    1.9410    0.3920    3.0130 C   0  0  0  0  0  0  0  0  0  0  0  0
    2.4810    1.9210    2.2310 S   0  0  0  0  0  0  0  0  0  0  0  0
    0.1550   -0.0230    1.3430 C   0  0  0  0  0  0  0  0  0  0  0  0
    0.0730    0.1580    0.1020 O   0  0  0  0  0  0  0  0  0  0  0  0
    2.7100   -0.1030    0.4030 H   0  0  0  0  0  0  0  0  0  0  0  0
    1.0700   -1.4800    2.5770 H   0  0  0  0  0  0  0  0  0  0  0  0
    2.8130   -0.0860    3.5030 H   0  0  0  0  0  0  0  0  0  0  0  0
    1.2300    0.6490    3.8230 H   0  0  0  0  0  0  0  0  0  0  0  0
    2.2470    1.9040    0.8410 H   0  0  0  0  0  0  0  0  0  0  0  0
   -0.9490    0.3230    2.1530 N   0  0  0  0  0  0  0  0  0  0  0  0
   -2.1740    0.8950    1.5110 C   0  0  1  0  0  0  0  0  0  0  0  0
   -3.2290   -0.1530    1.6630 C   0  0  0  0  0  0  0  0  0  0  0  0
   -4.5840    0.1150    1.1270 C   0  0  0  0  0  0  0  0  0  0  0  0
   -5.3370    1.2100    1.7620 C   0  0  0  0  0  0  0  0  0  0  0  0
   -6.0600    2.0170    1.1120 O   0  0  0  0  0  0  0  0  0  0  0  0
   -2.4310    2.2160    2.0710 C   0  0  0  0  0  0  0  0  0  0  0  0
   -3.2770    3.0130    1.6270 O   0  0  0  0  0  0  0  0  0  0  0  0
   -5.2660    1.3820    3.1600 O   0  0  0  0  0  0  0  0  0  0  0  0
   -1.6920    2.6520    3.1910 O   0  0  0  0  0  0  0  0  0  0  0  0
   -0.9970    0.2170    3.1890 H   0  0  0  0  0  0  0  0  0  0  0  0
   -1.9650    0.9780    0.4070 H   0  0  0  0  0  0  0  0  0  0  0  0
   -3.3430   -0.2970    2.7880 H   0  0  0  0  0  0  0  0  0  0  0  0
   -2.8540   -1.1570    1.3160 H   0  0  0  0  0  0  0  0  0  0  0  0
   -5.2040   -0.8320    1.1820 H   0  0  0  0  0  0  0  0  0  0  0  0
   -4.4560    0.4060    0.0500 H   0  0  0  0  0  0  0  0  0  0  0  0
   -6.0090    1.9260    3.5810 H   0  0  0  0  0  0  0  0  0  0  0  0
  1 11  1  0  0  0  0
  2 12  1  6  0  0  0
  2  1  1  0  0  0  0
  2  7  1  0  0  0  0
  3  2  1  0  0  0  0
  4 16  1  0  0  0  0
  4  3  1  0  0  0  0
  5  4  1  0  0  0  0
  6  5  2  0  0  0  0
  7 18  1  0  0  0  0
  7  8  2  0  0  0  0
  9  5  1  0  0  0  0
 10  1  1  0  0  0  0
 13  3  1  0  0  0  0
 14  3  1  0  0  0  0
 15  4  1  0  0  0  0
 17  9  1  0  0  0  0
 18 19  1  0  0  0  0
 19 25  1  1  0  0  0
 19 20  1  0  0  0  0
 20 26  1  0  0  0  0
 20 27  1  0  0  0  0
 21 20  1  0  0  0  0
 22 19  1  0  0  0  0
 22 29  1  0  0  0  0
 23 22  2  0  0  0  0
 24 18  1  0  0  0  0
 28 21  1  0  0  0  0
 29 39  1  0  0  0  0
 30 40  1  6  0  0  0
 30 31  1  0  0  0  0
 30 35  1  0  0  0  0
 30 29  1  0  0  0  0
 31 41  1  0  0  0  0
 32 43  1  0  0  0  0
 32 31  1  0  0  0  0
 32 33  1  0  0  0  0
 33 37  1  0  0  0  0
 34 33  2  0  0  0  0
 35 38  1  0  0  0  0
 36 35  2  0  0  0  0
 37 45  1  0  0  0  0
 42 31  1  0  0  0  0
 44 32  1  0  0  0  0
M  END
$$$$
