ECH.pdb
 OpenBabel07022418183D

 46 46  0  0  1  0  0  0  0  0999 V2000
    2.7520   -1.2800   -2.1110 N   0  0  0  0  0  0  0  0  0  0  0  0
    3.7950   -0.8070   -1.1420 C   0  0  1  0  0  0  0  0  0  0  0  0
    4.5460    0.2260   -1.8960 C   0  0  0  0  0  0  0  0  0  0  0  0
    5.6820    0.9150   -1.2540 C   0  0  0  0  0  0  0  0  0  0  0  0
    5.4410    1.6840   -0.0470 C   0  0  0  0  0  0  0  0  0  0  0  0
    6.0670    1.4640    1.0170 O   0  0  0  0  0  0  0  0  0  0  0  0
    3.0150   -0.3470    0.0150 C   0  0  0  0  0  0  0  0  0  0  0  0
    3.5810   -0.2270    1.1230 O   0  0  0  0  0  0  0  0  0  0  0  0
    4.4980    2.6980   -0.0410 O   0  0  0  0  0  0  0  0  0  0  0  0
    2.3490   -0.4870   -2.6200 H   0  0  0  0  0  0  0  0  0  0  0  0
    1.9860   -1.7730   -1.6080 H   0  0  0  0  0  0  0  0  0  0  0  0
    4.4250   -1.6750   -0.9500 H   0  0  0  0  0  0  0  0  0  0  0  0
    3.8380    0.9540   -2.4060 H   0  0  0  0  0  0  0  0  0  0  0  0
    4.9830   -0.3190   -2.7990 H   0  0  0  0  0  0  0  0  0  0  0  0
    6.5070    0.1730   -1.0190 H   0  0  0  0  0  0  0  0  0  0  0  0
    6.1530    1.5660   -2.0630 H   0  0  0  0  0  0  0  0  0  0  0  0
    4.3740    3.2650    0.7980 H   0  0  0  0  0  0  0  0  0  0  0  0
    1.6320   -0.0220   -0.0340 N   0  0  0  0  0  0  0  0  0  0  0  0
    0.8590    0.4210    1.1150 C   0  0  1  0  0  0  0  0  0  0  0  0
    0.5330    1.8970    0.8070 C   0  0  0  0  0  0  0  0  0  0  0  0
   -0.4140    1.9040   -0.7300 S   0  0  0  0  0  0  0  0  0  0  0  0
   -0.3910   -0.3760    1.1340 C   0  0  0  0  0  0  0  0  0  0  0  0
   -0.6240   -1.2180    0.2470 O   0  0  0  0  0  0  0  0  0  0  0  0
    1.1070   -0.0910   -0.9290 H   0  0  0  0  0  0  0  0  0  0  0  0
    1.4330    0.3790    2.0660 H   0  0  0  0  0  0  0  0  0  0  0  0
   -0.0150    2.3550    1.6550 H   0  0  0  0  0  0  0  0  0  0  0  0
    1.5120    2.3960    0.6720 H   0  0  0  0  0  0  0  0  0  0  0  0
   -1.0460    3.1330   -0.9580 H   0  0  0  0  0  0  0  0  0  0  0  0
   -1.3910   -0.2450    2.1380 N   0  0  0  0  0  0  0  0  0  0  0  0
   -2.6110   -1.0300    2.1400 C   0  0  1  0  0  0  0  0  0  0  0  0
   -2.6830   -1.9950    3.2700 C   0  0  0  0  0  0  0  0  0  0  0  0
   -3.9480   -2.7570    3.2010 C   0  0  0  0  0  0  0  0  0  0  0  0
   -4.0720   -3.9470    2.4780 C   0  0  0  0  0  0  0  0  0  0  0  0
   -5.3210   -4.4200    2.5780 N   0  0  0  0  0  0  0  0  0  0  0  0
   -5.9880   -3.5460    3.3540 C   0  0  0  0  0  0  0  0  0  0  0  0
   -5.1500   -2.5440    3.7250 N   0  0  0  0  0  0  0  0  0  0  0  0
   -3.7870   -0.1670    2.0300 C   0  0  0  0  0  0  0  0  0  0  0  0
   -3.6040    1.0950    1.9770 O   0  0  0  0  0  0  0  0  0  0  0  0
   -5.0990   -0.5840    1.9740 O   0  0  0  0  0  0  0  0  0  0  0  0
   -1.2330    0.4390    2.8960 H   0  0  0  0  0  0  0  0  0  0  0  0
   -2.5700   -1.6540    1.1950 H   0  0  0  0  0  0  0  0  0  0  0  0
   -1.8530   -2.7290    3.2760 H   0  0  0  0  0  0  0  0  0  0  0  0
   -2.7270   -1.4090    4.2150 H   0  0  0  0  0  0  0  0  0  0  0  0
   -3.2760   -4.4410    1.9040 H   0  0  0  0  0  0  0  0  0  0  0  0
   -5.7680   -5.2700    2.1760 H   0  0  0  0  0  0  0  0  0  0  0  0
   -7.0230   -3.5990    3.6540 H   0  0  0  0  0  0  0  0  0  0  0  0
  1 11  1  0  0  0  0
  1  2  1  0  0  0  0
  2 12  1  1  0  0  0
  2  7  1  0  0  0  0
  3  4  1  0  0  0  0
  3  2  1  0  0  0  0
  4 15  1  0  0  0  0
  4  5  1  0  0  0  0
  5  9  1  0  0  0  0
  5  6  2  0  0  0  0
  7  8  2  0  0  0  0
  9 17  1  0  0  0  0
 10  1  1  0  0  0  0
 13  3  1  0  0  0  0
 14  3  1  0  0  0  0
 16  4  1  0  0  0  0
 18  7  1  0  0  0  0
 18 19  1  0  0  0  0
 19 22  1  0  0  0  0
 19 25  1  1  0  0  0
 20 19  1  0  0  0  0
 20 26  1  0  0  0  0
 21 20  1  0  0  0  0
 22 29  1  0  0  0  0
 23 22  2  0  0  0  0
 24 18  1  0  0  0  0
 27 20  1  0  0  0  0
 28 21  1  0  0  0  0
 29 30  1  0  0  0  0
 29 40  1  0  0  0  0
 30 41  1  6  0  0  0
 30 31  1  0  0  0  0
 31 42  1  0  0  0  0
 31 43  1  0  0  0  0
 32 31  1  0  0  0  0
 32 36  1  0  0  0  0
 33 34  1  0  0  0  0
 33 32  2  0  0  0  0
 34 35  1  0  0  0  0
 35 46  1  0  0  0  0
 35 36  2  0  0  0  0
 37 30  1  0  0  0  0
 38 37  1  0  0  0  0
 39 37  2  0  0  0  0
 44 33  1  0  0  0  0
 45 34  1  0  0  0  0
M  END
$$$$
