ECI.pdb
 OpenBabel07022418183D

 48 47  0  0  1  0  0  0  0  0999 V2000
    1.3330   -2.9910    0.6550 N   0  0  0  0  0  0  0  0  0  0  0  0
    2.5020   -2.1150    0.5910 C   0  0  1  0  0  0  0  0  0  0  0  0
    3.5750   -2.8550   -0.1440 C   0  0  0  0  0  0  0  0  0  0  0  0
    4.8500   -2.0740   -0.2880 C   0  0  0  0  0  0  0  0  0  0  0  0
    5.4770   -1.6820    0.9760 C   0  0  0  0  0  0  0  0  0  0  0  0
    5.0250   -1.9690    2.1100 O   0  0  0  0  0  0  0  0  0  0  0  0
    2.0930   -0.8470   -0.0210 C   0  0  0  0  0  0  0  0  0  0  0  0
    2.8940    0.0990   -0.1190 O   0  0  0  0  0  0  0  0  0  0  0  0
    6.6500   -0.9420    0.9270 O   0  0  0  0  0  0  0  0  0  0  0  0
    0.5890   -2.6190    1.2620 H   0  0  0  0  0  0  0  0  0  0  0  0
    1.0120   -3.2780   -0.2740 H   0  0  0  0  0  0  0  0  0  0  0  0
    2.7590   -1.9110    1.6560 H   0  0  0  0  0  0  0  0  0  0  0  0
    3.2020   -3.1020   -1.1580 H   0  0  0  0  0  0  0  0  0  0  0  0
    3.7420   -3.8100    0.4220 H   0  0  0  0  0  0  0  0  0  0  0  0
    4.6440   -1.1610   -0.8790 H   0  0  0  0  0  0  0  0  0  0  0  0
    5.5920   -2.6960   -0.8660 H   0  0  0  0  0  0  0  0  0  0  0  0
    7.0380   -0.4630    1.7340 H   0  0  0  0  0  0  0  0  0  0  0  0
    0.7750   -0.6880   -0.5090 N   0  0  0  0  0  0  0  0  0  0  0  0
    0.3180    0.5390   -1.1210 C   0  0  1  0  0  0  0  0  0  0  0  0
   -0.1890    0.3290   -2.5320 C   0  0  0  0  0  0  0  0  0  0  0  0
   -1.5700   -0.8340   -2.4620 S   0  0  0  0  0  0  0  0  0  0  0  0
   -0.7760    1.1740   -0.3260 C   0  0  0  0  0  0  0  0  0  0  0  0
   -1.2720    2.2360   -0.7290 O   0  0  0  0  0  0  0  0  0  0  0  0
    0.0830   -1.4680   -0.4380 H   0  0  0  0  0  0  0  0  0  0  0  0
    1.1880    1.2580   -1.1120 H   0  0  0  0  0  0  0  0  0  0  0  0
   -0.5370    1.3330   -2.8830 H   0  0  0  0  0  0  0  0  0  0  0  0
    0.5910   -0.0650   -3.2000 H   0  0  0  0  0  0  0  0  0  0  0  0
   -1.2920   -1.9550   -3.2500 H   0  0  0  0  0  0  0  0  0  0  0  0
   -2.7640   -1.2250    3.6000 C   0  0  0  0  0  0  0  0  0  0  0  0
   -3.2470   -1.1320    2.1970 C   0  0  0  0  0  0  0  0  0  0  0  0
   -3.5070    0.2440    1.6860 C   0  0  2  0  0  0  0  0  0  0  0  0
   -3.9910    0.0990    0.2420 C   0  0  0  0  0  0  0  0  0  0  0  0
   -2.3050    1.1470    1.6870 C   0  0  2  0  0  0  0  0  0  0  0  0
   -1.2620    0.6060    0.8660 N   0  0  0  0  0  0  0  0  0  0  0  0
   -1.8660    1.5690    3.0190 C   0  0  0  0  0  0  0  0  0  0  0  0
   -0.6840    1.4580    3.3960 O   0  0  0  0  0  0  0  0  0  0  0  0
   -2.7750    2.1090    3.9030 O   0  0  0  0  0  0  0  0  0  0  0  0
   -3.2680   -0.5600    4.3070 H   0  0  0  0  0  0  0  0  0  0  0  0
   -2.9480   -2.2660    3.9900 H   0  0  0  0  0  0  0  0  0  0  0  0
   -1.6630   -1.0950    3.6650 H   0  0  0  0  0  0  0  0  0  0  0  0
   -4.1940   -1.7080    2.0890 H   0  0  0  0  0  0  0  0  0  0  0  0
   -2.5140   -1.6570    1.5310 H   0  0  0  0  0  0  0  0  0  0  0  0
   -4.3640    0.6970    2.2340 H   0  0  0  0  0  0  0  0  0  0  0  0
   -3.6820    0.9650   -0.3790 H   0  0  0  0  0  0  0  0  0  0  0  0
   -5.0980    0.0420    0.2000 H   0  0  0  0  0  0  0  0  0  0  0  0
   -3.5810   -0.8110   -0.2380 H   0  0  0  0  0  0  0  0  0  0  0  0
   -2.6400    2.0930    1.1630 H   0  0  0  0  0  0  0  0  0  0  0  0
   -0.8220   -0.2960    1.1840 H   0  0  0  0  0  0  0  0  0  0  0  0
  1 10  1  0  0  0  0
  2  1  1  0  0  0  0
  2 12  1  1  0  0  0
  3 14  1  0  0  0  0
  3  2  1  0  0  0  0
  4  3  1  0  0  0  0
  4  5  1  0  0  0  0
  5  6  2  0  0  0  0
  7  2  1  0  0  0  0
  8  7  2  0  0  0  0
  9  5  1  0  0  0  0
  9 17  1  0  0  0  0
 11  1  1  0  0  0  0
 13  3  1  0  0  0  0
 15  4  1  0  0  0  0
 16  4  1  0  0  0  0
 18 24  1  0  0  0  0
 18  7  1  0  0  0  0
 19 25  1  6  0  0  0
 19 18  1  0  0  0  0
 19 22  1  0  0  0  0
 20 21  1  0  0  0  0
 20 19  1  0  0  0  0
 22 34  1  0  0  0  0
 23 22  2  0  0  0  0
 26 20  1  0  0  0  0
 27 20  1  0  0  0  0
 28 21  1  0  0  0  0
 29 40  1  0  0  0  0
 29 39  1  0  0  0  0
 29 38  1  0  0  0  0
 30 29  1  0  0  0  0
 31 33  1  0  0  0  0
 31 30  1  0  0  0  0
 31 43  1  1  0  0  0
 32 31  1  0  0  0  0
 33 47  1  6  0  0  0
 33 35  1  0  0  0  0
 34 48  1  0  0  0  0
 34 33  1  0  0  0  0
 35 36  2  0  0  0  0
 35 37  1  0  0  0  0
 41 30  1  0  0  0  0
 42 30  1  0  0  0  0
 44 32  1  0  0  0  0
 45 32  1  0  0  0  0
 46 32  1  0  0  0  0
M  END
$$$$
