ECK.pdb
 OpenBabel07022418183D

 50 49  0  0  1  0  0  0  0  0999 V2000
    5.3710   -2.7540    1.0600 N   0  0  0  0  0  0  0  0  0  0  0  0
    4.0710   -2.4340    0.2940 C   0  0  1  0  0  0  0  0  0  0  0  0
    3.6140   -3.7700   -0.1410 C   0  0  0  0  0  0  0  0  0  0  0  0
    2.4320   -3.9380   -0.9900 C   0  0  0  0  0  0  0  0  0  0  0  0
    1.1330   -3.4630   -0.5230 C   0  0  0  0  0  0  0  0  0  0  0  0
    0.4640   -2.7040   -1.3100 O   0  0  0  0  0  0  0  0  0  0  0  0
    3.2980   -1.7250    1.3260 C   0  0  0  0  0  0  0  0  0  0  0  0
    3.6110   -1.8570    2.5840 O   0  0  0  0  0  0  0  0  0  0  0  0
    0.5610   -3.7590    0.6920 O   0  0  0  0  0  0  0  0  0  0  0  0
    5.0680   -3.3460    1.8710 H   0  0  0  0  0  0  0  0  0  0  0  0
    5.9430   -3.3380    0.4120 H   0  0  0  0  0  0  0  0  0  0  0  0
    4.4250   -1.8000   -0.5230 H   0  0  0  0  0  0  0  0  0  0  0  0
    3.4300   -4.3840    0.7910 H   0  0  0  0  0  0  0  0  0  0  0  0
    4.5200   -4.3160   -0.5850 H   0  0  0  0  0  0  0  0  0  0  0  0
    2.2910   -5.0720   -1.1220 H   0  0  0  0  0  0  0  0  0  0  0  0
    2.6200   -3.6010   -2.0550 H   0  0  0  0  0  0  0  0  0  0  0  0
   -0.4420   -3.9890    0.7030 H   0  0  0  0  0  0  0  0  0  0  0  0
    2.2030   -0.8690    0.9960 N   0  0  0  0  0  0  0  0  0  0  0  0
    1.5590   -0.1900    2.0710 C   0  0  1  0  0  0  0  0  0  0  0  0
    2.0340    1.2870    1.9420 C   0  0  0  0  0  0  0  0  0  0  0  0
    1.3220    2.3080    3.2210 S   0  0  0  0  0  0  0  0  0  0  0  0
    0.1310   -0.1490    2.1970 C   0  0  0  0  0  0  0  0  0  0  0  0
   -0.3110    0.5320    3.2180 O   0  0  0  0  0  0  0  0  0  0  0  0
    1.9450   -0.7840   -0.0040 H   0  0  0  0  0  0  0  0  0  0  0  0
    1.9990   -0.4790    3.0710 H   0  0  0  0  0  0  0  0  0  0  0  0
    3.1280    1.3520    2.0090 H   0  0  0  0  0  0  0  0  0  0  0  0
    1.6650    1.6160    0.9520 H   0  0  0  0  0  0  0  0  0  0  0  0
    0.2620    3.0880    2.7290 H   0  0  0  0  0  0  0  0  0  0  0  0
   -0.8830   -0.7140    1.4150 N   0  0  0  0  0  0  0  0  0  0  0  0
   -2.2970   -0.5310    1.7450 C   0  0  1  0  0  0  0  0  0  0  0  0
   -3.1180   -0.0870    0.5640 C   0  0  0  0  0  0  0  0  0  0  0  0
   -2.6480    1.2310    0.0020 C   0  0  0  0  0  0  0  0  0  0  0  0
   -3.4990    1.6510   -1.1870 C   0  0  0  0  0  0  0  0  0  0  0  0
   -2.9610    2.9770   -1.6760 C   0  0  0  0  0  0  0  0  0  0  0  0
   -3.0690    3.9320   -0.5970 N   0  0  0  0  0  0  0  0  0  0  0  0
   -2.8540   -1.7880    2.3380 C   0  0  0  0  0  0  0  0  0  0  0  0
   -2.1020   -2.7780    2.4890 O   0  0  0  0  0  0  0  0  0  0  0  0
   -4.1740   -1.8950    2.7290 O   0  0  0  0  0  0  0  0  0  0  0  0
   -0.5830   -1.2650    0.5910 H   0  0  0  0  0  0  0  0  0  0  0  0
   -2.3750    0.2160    2.5610 H   0  0  0  0  0  0  0  0  0  0  0  0
   -4.1960   -0.0670    0.7830 H   0  0  0  0  0  0  0  0  0  0  0  0
   -3.0160   -0.8270   -0.2830 H   0  0  0  0  0  0  0  0  0  0  0  0
   -2.7810    2.0090    0.7860 H   0  0  0  0  0  0  0  0  0  0  0  0
   -1.6090    1.1960   -0.3350 H   0  0  0  0  0  0  0  0  0  0  0  0
   -4.5730    1.7360   -0.8720 H   0  0  0  0  0  0  0  0  0  0  0  0
   -3.4620    0.8750   -1.9760 H   0  0  0  0  0  0  0  0  0  0  0  0
   -3.5250    3.3120   -2.5770 H   0  0  0  0  0  0  0  0  0  0  0  0
   -1.9010    2.8680   -1.9250 H   0  0  0  0  0  0  0  0  0  0  0  0
   -2.1790    4.2900   -0.2380 H   0  0  0  0  0  0  0  0  0  0  0  0
   -3.7680    3.6640    0.1290 H   0  0  0  0  0  0  0  0  0  0  0  0
  1 10  1  0  0  0  0
  2 12  1  6  0  0  0
  2  1  1  0  0  0  0
  2  7  1  0  0  0  0
  3  2  1  0  0  0  0
  3 13  1  0  0  0  0
  4  5  1  0  0  0  0
  4  3  1  0  0  0  0
  5  9  1  0  0  0  0
  6  5  2  0  0  0  0
  7  8  2  0  0  0  0
  9 17  1  0  0  0  0
 11  1  1  0  0  0  0
 14  3  1  0  0  0  0
 15  4  1  0  0  0  0
 16  4  1  0  0  0  0
 18  7  1  0  0  0  0
 18 19  1  0  0  0  0
 19 22  1  0  0  0  0
 19 25  1  1  0  0  0
 20 26  1  0  0  0  0
 20 19  1  0  0  0  0
 20 21  1  0  0  0  0
 22 23  2  0  0  0  0
 24 18  1  0  0  0  0
 27 20  1  0  0  0  0
 28 21  1  0  0  0  0
 29 30  1  0  0  0  0
 29 22  1  0  0  0  0
 30 36  1  0  0  0  0
 30 40  1  1  0  0  0
 31 41  1  0  0  0  0
 31 30  1  0  0  0  0
 32 31  1  0  0  0  0
 32 43  1  0  0  0  0
 33 45  1  0  0  0  0
 33 32  1  0  0  0  0
 34 33  1  0  0  0  0
 34 35  1  0  0  0  0
 35 49  1  0  0  0  0
 35 50  1  0  0  0  0
 36 37  2  0  0  0  0
 36 38  1  0  0  0  0
 39 29  1  0  0  0  0
 42 31  1  0  0  0  0
 44 32  1  0  0  0  0
 46 33  1  0  0  0  0
 47 34  1  0  0  0  0
 48 34  1  0  0  0  0
M  END
$$$$
