ECM.pdb
 OpenBabel07022418183D

 46 45  0  0  1  0  0  0  0  0999 V2000
    1.8880   -2.3890    0.7310 N   0  0  0  0  0  0  0  0  0  0  0  0
    2.7690   -1.2180    0.5660 C   0  0  1  0  0  0  0  0  0  0  0  0
    4.0050   -1.6400   -0.1280 C   0  0  0  0  0  0  0  0  0  0  0  0
    3.8320   -2.2820   -1.4570 C   0  0  0  0  0  0  0  0  0  0  0  0
    3.2440   -1.4310   -2.4760 C   0  0  0  0  0  0  0  0  0  0  0  0
    2.9910   -0.2240   -2.3600 O   0  0  0  0  0  0  0  0  0  0  0  0
    2.0970    0.0010    0.1980 C   0  0  0  0  0  0  0  0  0  0  0  0
    2.7270    1.1130    0.2550 O   0  0  0  0  0  0  0  0  0  0  0  0
    2.9330   -2.0530   -3.7180 O   0  0  0  0  0  0  0  0  0  0  0  0
    1.2250   -2.2360    1.5270 H   0  0  0  0  0  0  0  0  0  0  0  0
    2.4770   -3.2220    0.9510 H   0  0  0  0  0  0  0  0  0  0  0  0
    3.1270   -1.0320    1.6700 H   0  0  0  0  0  0  0  0  0  0  0  0
    4.7020   -0.7480   -0.2820 H   0  0  0  0  0  0  0  0  0  0  0  0
    4.5710   -2.3720    0.5080 H   0  0  0  0  0  0  0  0  0  0  0  0
    3.1870   -3.2100   -1.3850 H   0  0  0  0  0  0  0  0  0  0  0  0
    4.8590   -2.6490   -1.8170 H   0  0  0  0  0  0  0  0  0  0  0  0
    2.7520   -1.4230   -4.5000 H   0  0  0  0  0  0  0  0  0  0  0  0
    0.7450    0.0880   -0.2380 N   0  0  0  0  0  0  0  0  0  0  0  0
    0.0990    1.3240   -0.5970 C   0  0  1  0  0  0  0  0  0  0  0  0
   -0.3670    1.3440   -2.0290 C   0  0  0  0  0  0  0  0  0  0  0  0
   -1.5620   -0.0060   -2.3050 S   0  0  0  0  0  0  0  0  0  0  0  0
   -0.9840    1.6760    0.3650 C   0  0  0  0  0  0  0  0  0  0  0  0
   -1.6590    2.7210    0.2100 O   0  0  0  0  0  0  0  0  0  0  0  0
    0.2020   -0.7980   -0.2970 H   0  0  0  0  0  0  0  0  0  0  0  0
    0.8640    2.1410   -0.4850 H   0  0  0  0  0  0  0  0  0  0  0  0
   -0.8160    2.3310   -2.2330 H   0  0  0  0  0  0  0  0  0  0  0  0
    0.5320    1.2070   -2.6630 H   0  0  0  0  0  0  0  0  0  0  0  0
   -1.7250   -0.1240   -3.6880 H   0  0  0  0  0  0  0  0  0  0  0  0
   -1.6890   -2.9030    4.7560 C   0  0  0  0  0  0  0  0  0  0  0  0
   -2.2580   -1.2140    4.4170 S   0  0  0  0  0  0  0  0  0  0  0  0
   -2.9680   -1.1880    2.7530 C   0  0  0  0  0  0  0  0  0  0  0  0
   -3.4680    0.1900    2.3760 C   0  0  0  0  0  0  0  0  0  0  0  0
   -2.3450    1.2090    2.4050 C   0  0  2  0  0  0  0  0  0  0  0  0
   -1.2980    0.8580    1.4840 N   0  0  0  0  0  0  0  0  0  0  0  0
   -1.8560    1.4520    3.7700 C   0  0  0  0  0  0  0  0  0  0  0  0
   -0.6450    1.3490    4.0250 O   0  0  0  0  0  0  0  0  0  0  0  0
   -2.7410    1.7940    4.7620 O   0  0  0  0  0  0  0  0  0  0  0  0
   -1.5580   -3.0870    5.8390 H   0  0  0  0  0  0  0  0  0  0  0  0
   -2.4020   -3.6140    4.3360 H   0  0  0  0  0  0  0  0  0  0  0  0
   -0.6830   -3.0570    4.3010 H   0  0  0  0  0  0  0  0  0  0  0  0
   -3.8520   -1.8600    2.7660 H   0  0  0  0  0  0  0  0  0  0  0  0
   -2.2720   -1.5630    1.9980 H   0  0  0  0  0  0  0  0  0  0  0  0
   -4.2710    0.5000    3.0470 H   0  0  0  0  0  0  0  0  0  0  0  0
   -3.8410    0.1420    1.3480 H   0  0  0  0  0  0  0  0  0  0  0  0
   -2.7910    2.1710    2.0570 H   0  0  0  0  0  0  0  0  0  0  0  0
   -0.7420   -0.0240    1.6300 H   0  0  0  0  0  0  0  0  0  0  0  0
  1 11  1  0  0  0  0
  1 10  1  0  0  0  0
  2  1  1  0  0  0  0
  2 12  1  1  0  0  0
  3 14  1  0  0  0  0
  3  2  1  0  0  0  0
  4 15  1  0  0  0  0
  4  3  1  0  0  0  0
  5  6  2  0  0  0  0
  5  4  1  0  0  0  0
  7  8  2  0  0  0  0
  7  2  1  0  0  0  0
  9  5  1  0  0  0  0
 13  3  1  0  0  0  0
 16  4  1  0  0  0  0
 17  9  1  0  0  0  0
 18  7  1  0  0  0  0
 19 25  1  1  0  0  0
 19 18  1  0  0  0  0
 19 22  1  0  0  0  0
 20 19  1  0  0  0  0
 21 20  1  0  0  0  0
 22 34  1  0  0  0  0
 23 22  2  0  0  0  0
 24 18  1  0  0  0  0
 26 20  1  0  0  0  0
 27 20  1  0  0  0  0
 28 21  1  0  0  0  0
 29 38  1  0  0  0  0
 30 29  1  0  0  0  0
 31 41  1  0  0  0  0
 31 30  1  0  0  0  0
 32 33  1  0  0  0  0
 32 31  1  0  0  0  0
 32 43  1  0  0  0  0
 33 45  1  6  0  0  0
 33 35  1  0  0  0  0
 34 46  1  0  0  0  0
 34 33  1  0  0  0  0
 35 36  2  0  0  0  0
 35 37  1  0  0  0  0
 39 29  1  0  0  0  0
 40 29  1  0  0  0  0
 42 31  1  0  0  0  0
 44 32  1  0  0  0  0
M  END
$$$$
