ECN.pdb
 OpenBabel07022418183D

 43 42  0  0  1  0  0  0  0  0999 V2000
    1.6870   -3.9620   -0.3370 N   0  0  0  0  0  0  0  0  0  0  0  0
    2.5220   -3.2890    0.6700 C   0  0  1  0  0  0  0  0  0  0  0  0
    3.9510   -3.2910    0.2680 C   0  0  0  0  0  0  0  0  0  0  0  0
    4.8050   -2.6130    1.3000 C   0  0  0  0  0  0  0  0  0  0  0  0
    6.2530   -2.6640    0.8780 C   0  0  0  0  0  0  0  0  0  0  0  0
    6.5160   -3.2260   -0.2010 O   0  0  0  0  0  0  0  0  0  0  0  0
    1.9880   -1.9260    0.8920 C   0  0  0  0  0  0  0  0  0  0  0  0
    2.3740   -1.1590    1.7890 O   0  0  0  0  0  0  0  0  0  0  0  0
    7.2450   -2.1090    1.6570 O   0  0  0  0  0  0  0  0  0  0  0  0
    2.0740   -4.9470   -0.3890 H   0  0  0  0  0  0  0  0  0  0  0  0
    0.7410   -4.0740    0.1270 H   0  0  0  0  0  0  0  0  0  0  0  0
    2.3700   -3.8640    1.6080 H   0  0  0  0  0  0  0  0  0  0  0  0
    4.0530   -2.6870   -0.6630 H   0  0  0  0  0  0  0  0  0  0  0  0
    4.3450   -4.2980    0.0230 H   0  0  0  0  0  0  0  0  0  0  0  0
    4.5360   -1.5200    1.3980 H   0  0  0  0  0  0  0  0  0  0  0  0
    4.6730   -3.1000    2.2720 H   0  0  0  0  0  0  0  0  0  0  0  0
    8.2310   -2.1700    1.4010 H   0  0  0  0  0  0  0  0  0  0  0  0
    0.9470   -1.3880    0.0470 N   0  0  0  0  0  0  0  0  0  0  0  0
    0.4080   -0.0600    0.2420 C   0  0  1  0  0  0  0  0  0  0  0  0
    0.7120    0.8010   -0.9660 C   0  0  0  0  0  0  0  0  0  0  0  0
   -0.0120    0.1120   -2.4740 S   0  0  0  0  0  0  0  0  0  0  0  0
   -1.0450   -0.1830    0.4790 C   0  0  0  0  0  0  0  0  0  0  0  0
   -1.5580   -1.3240    0.4790 O   0  0  0  0  0  0  0  0  0  0  0  0
    0.5990   -2.0150   -0.7230 H   0  0  0  0  0  0  0  0  0  0  0  0
    0.9400    0.3870    1.1080 H   0  0  0  0  0  0  0  0  0  0  0  0
    0.2640    1.8140   -0.7560 H   0  0  0  0  0  0  0  0  0  0  0  0
    1.8000    0.9800   -1.0680 H   0  0  0  0  0  0  0  0  0  0  0  0
   -0.1490    1.1420   -3.4460 H   0  0  0  0  0  0  0  0  0  0  0  0
   -3.5070    3.3220    3.8040 N   0  0  0  0  0  0  0  0  0  0  0  0
   -3.2570    2.7610    2.5240 C   0  0  0  0  0  0  0  0  0  0  0  0
   -2.7430    3.5020    1.6640 O   0  0  0  0  0  0  0  0  0  0  0  0
   -3.6320    1.3400    2.3300 C   0  0  0  0  0  0  0  0  0  0  0  0
   -3.3130    0.8330    0.9410 C   0  0  2  0  0  0  0  0  0  0  0  0
   -1.8980    0.9480    0.7090 N   0  0  0  0  0  0  0  0  0  0  0  0
   -4.1340    1.5900   -0.0110 C   0  0  0  0  0  0  0  0  0  0  0  0
   -5.3850    1.5450    0.1190 O   0  0  0  0  0  0  0  0  0  0  0  0
   -3.6580    2.3640   -1.0580 O   0  0  0  0  0  0  0  0  0  0  0  0
   -3.0020    4.1720    4.1410 H   0  0  0  0  0  0  0  0  0  0  0  0
   -4.2050    2.9120    4.4660 H   0  0  0  0  0  0  0  0  0  0  0  0
   -3.0740    0.7590    3.0990 H   0  0  0  0  0  0  0  0  0  0  0  0
   -4.7420    1.2260    2.4760 H   0  0  0  0  0  0  0  0  0  0  0  0
   -3.6680   -0.2200    0.9150 H   0  0  0  0  0  0  0  0  0  0  0  0
   -1.4100    1.8670    0.6960 H   0  0  0  0  0  0  0  0  0  0  0  0
  1 11  1  0  0  0  0
  1  2  1  0  0  0  0
  2  7  1  0  0  0  0
  2 12  1  1  0  0  0
  3  2  1  0  0  0  0
  3  4  1  0  0  0  0
  4 15  1  0  0  0  0
  4 16  1  0  0  0  0
  5  4  1  0  0  0  0
  5  9  1  0  0  0  0
  6  5  2  0  0  0  0
  7  8  2  0  0  0  0
 10  1  1  0  0  0  0
 13  3  1  0  0  0  0
 14  3  1  0  0  0  0
 17  9  1  0  0  0  0
 18 19  1  0  0  0  0
 18  7  1  0  0  0  0
 19 22  1  0  0  0  0
 19 25  1  1  0  0  0
 20 26  1  0  0  0  0
 20 19  1  0  0  0  0
 21 20  1  0  0  0  0
 22 34  1  0  0  0  0
 23 22  2  0  0  0  0
 24 18  1  0  0  0  0
 27 20  1  0  0  0  0
 28 21  1  0  0  0  0
 29 38  1  0  0  0  0
 29 39  1  0  0  0  0
 30 29  1  0  0  0  0
 31 30  2  0  0  0  0
 32 41  1  0  0  0  0
 32 30  1  0  0  0  0
 32 40  1  0  0  0  0
 33 42  1  6  0  0  0
 33 32  1  0  0  0  0
 34 33  1  0  0  0  0
 35 36  1  0  0  0  0
 35 33  1  0  0  0  0
 37 35  2  0  0  0  0
 43 34  1  0  0  0  0
M  END
$$$$
