ECQ.pdb
 OpenBabel07022418183D

 46 45  0  0  1  0  0  0  0  0999 V2000
    0.9550   -3.7990    3.1380 N   0  0  0  0  0  0  0  0  0  0  0  0
    1.7950   -2.6640    2.8900 C   0  0  1  0  0  0  0  0  0  0  0  0
    2.4920   -2.7330    1.5970 C   0  0  0  0  0  0  0  0  0  0  0  0
    1.6570   -2.8020    0.3620 C   0  0  0  0  0  0  0  0  0  0  0  0
    2.5350   -2.8780   -0.8500 C   0  0  0  0  0  0  0  0  0  0  0  0
    3.1210   -3.9410   -1.1330 O   0  0  0  0  0  0  0  0  0  0  0  0
    1.0330   -1.4260    3.1760 C   0  0  0  0  0  0  0  0  0  0  0  0
    0.0790   -1.5220    3.9990 O   0  0  0  0  0  0  0  0  0  0  0  0
    2.6970   -1.7820   -1.6460 O   0  0  0  0  0  0  0  0  0  0  0  0
   -0.0370   -3.4810    3.2350 H   0  0  0  0  0  0  0  0  0  0  0  0
    0.9920   -4.5040    2.3420 H   0  0  0  0  0  0  0  0  0  0  0  0
    2.5910   -2.6860    3.7080 H   0  0  0  0  0  0  0  0  0  0  0  0
    3.2850   -1.9580    1.4600 H   0  0  0  0  0  0  0  0  0  0  0  0
    3.0910   -3.7020    1.6060 H   0  0  0  0  0  0  0  0  0  0  0  0
    0.9980   -1.9220    0.2310 H   0  0  0  0  0  0  0  0  0  0  0  0
    0.9940   -3.6870    0.3280 H   0  0  0  0  0  0  0  0  0  0  0  0
    3.5420   -1.5900   -2.1890 H   0  0  0  0  0  0  0  0  0  0  0  0
    1.2980   -0.1820    2.6020 N   0  0  0  0  0  0  0  0  0  0  0  0
    0.5800    1.0090    2.8900 C   0  0  1  0  0  0  0  0  0  0  0  0
    1.3530    2.2630    2.8560 C   0  0  0  0  0  0  0  0  0  0  0  0
    0.2910    3.6760    3.2460 S   0  0  0  0  0  0  0  0  0  0  0  0
   -0.6740    1.1730    2.0990 C   0  0  0  0  0  0  0  0  0  0  0  0
   -1.2490    2.2970    2.1860 O   0  0  0  0  0  0  0  0  0  0  0  0
    2.1020   -0.1480    1.9030 H   0  0  0  0  0  0  0  0  0  0  0  0
    0.1650    0.8750    3.9530 H   0  0  0  0  0  0  0  0  0  0  0  0
    2.2000    2.2740    3.6010 H   0  0  0  0  0  0  0  0  0  0  0  0
    1.7880    2.4040    1.8400 H   0  0  0  0  0  0  0  0  0  0  0  0
    0.3660    4.6300    2.2100 H   0  0  0  0  0  0  0  0  0  0  0  0
    0.0840    1.1010   -3.5550 N   0  0  0  0  0  0  0  0  0  0  0  0
   -0.9490    0.3820   -2.8950 C   0  0  0  0  0  0  0  0  0  0  0  0
   -1.5530   -0.4990   -3.5530 O   0  0  0  0  0  0  0  0  0  0  0  0
   -1.2230    0.7300   -1.4970 C   0  0  0  0  0  0  0  0  0  0  0  0
   -2.3720   -0.0120   -0.8840 C   0  0  0  0  0  0  0  0  0  0  0  0
   -2.4840    0.4600    0.5480 C   0  0  2  0  0  0  0  0  0  0  0  0
   -1.2550    0.1860    1.2810 N   0  0  0  0  0  0  0  0  0  0  0  0
   -3.6410   -0.1910    1.2360 C   0  0  0  0  0  0  0  0  0  0  0  0
   -4.7870   -0.0700    0.7860 O   0  0  0  0  0  0  0  0  0  0  0  0
   -3.3870   -0.9180    2.3740 O   0  0  0  0  0  0  0  0  0  0  0  0
    0.9420    0.5620   -3.7930 H   0  0  0  0  0  0  0  0  0  0  0  0
    0.0350    2.0980   -3.8050 H   0  0  0  0  0  0  0  0  0  0  0  0
   -0.3140    0.4460   -0.8950 H   0  0  0  0  0  0  0  0  0  0  0  0
   -1.3730    1.8250   -1.3670 H   0  0  0  0  0  0  0  0  0  0  0  0
   -2.1810   -1.0970   -0.8850 H   0  0  0  0  0  0  0  0  0  0  0  0
   -3.3420    0.1680   -1.4160 H   0  0  0  0  0  0  0  0  0  0  0  0
   -2.7140    1.5340    0.5500 H   0  0  0  0  0  0  0  0  0  0  0  0
   -0.7870   -0.7390    1.2180 H   0  0  0  0  0  0  0  0  0  0  0  0
  1 10  1  0  0  0  0
  2  1  1  0  0  0  0
  2  7  1  0  0  0  0
  2 12  1  1  0  0  0
  3 14  1  0  0  0  0
  3  2  1  0  0  0  0
  4  3  1  0  0  0  0
  5  4  1  0  0  0  0
  6  5  2  0  0  0  0
  7  8  2  0  0  0  0
  9  5  1  0  0  0  0
 11  1  1  0  0  0  0
 13  3  1  0  0  0  0
 15  4  1  0  0  0  0
 16  4  1  0  0  0  0
 17  9  1  0  0  0  0
 18 19  1  0  0  0  0
 18  7  1  0  0  0  0
 19 25  1  1  0  0  0
 20 19  1  0  0  0  0
 20 21  1  0  0  0  0
 20 26  1  0  0  0  0
 22 23  2  0  0  0  0
 22 19  1  0  0  0  0
 24 18  1  0  0  0  0
 27 20  1  0  0  0  0
 28 21  1  0  0  0  0
 29 30  1  0  0  0  0
 30 32  1  0  0  0  0
 31 30  2  0  0  0  0
 32 42  1  0  0  0  0
 32 41  1  0  0  0  0
 32 33  1  0  0  0  0
 33 34  1  0  0  0  0
 34 45  1  6  0  0  0
 34 36  1  0  0  0  0
 34 35  1  0  0  0  0
 35 22  1  0  0  0  0
 36 38  1  0  0  0  0
 37 36  2  0  0  0  0
 39 29  1  0  0  0  0
 40 29  1  0  0  0  0
 43 33  1  0  0  0  0
 44 33  1  0  0  0  0
 46 35  1  0  0  0  0
M  END
$$$$
