ECR.pdb
 OpenBabel07022418183D

 52 51  0  0  1  0  0  0  0  0999 V2000
    4.1550    1.5710    3.1780 N   0  0  0  0  0  0  0  0  0  0  0  0
    3.1360    0.5600    3.3250 C   0  0  1  0  0  0  0  0  0  0  0  0
    1.9110    1.0470    3.9870 C   0  0  0  0  0  0  0  0  0  0  0  0
    1.1450    2.1430    3.3770 C   0  0  0  0  0  0  0  0  0  0  0  0
    1.7950    3.4440    3.2180 C   0  0  0  0  0  0  0  0  0  0  0  0
    2.9220    3.7970    3.5810 O   0  0  0  0  0  0  0  0  0  0  0  0
    2.8850   -0.1580    2.0470 C   0  0  0  0  0  0  0  0  0  0  0  0
    3.4590    0.1600    0.9750 O   0  0  0  0  0  0  0  0  0  0  0  0
    1.0150    4.4280    2.5540 O   0  0  0  0  0  0  0  0  0  0  0  0
    4.9340    1.2680    2.5580 H   0  0  0  0  0  0  0  0  0  0  0  0
    4.5960    1.6910    4.1410 H   0  0  0  0  0  0  0  0  0  0  0  0
    3.5840   -0.2220    4.0090 H   0  0  0  0  0  0  0  0  0  0  0  0
    1.1930    0.1980    4.2060 H   0  0  0  0  0  0  0  0  0  0  0  0
    2.1880    1.3880    5.0330 H   0  0  0  0  0  0  0  0  0  0  0  0
    0.6800    1.8950    2.3940 H   0  0  0  0  0  0  0  0  0  0  0  0
    0.2440    2.3400    4.0380 H   0  0  0  0  0  0  0  0  0  0  0  0
    1.4280    5.3390    2.3490 H   0  0  0  0  0  0  0  0  0  0  0  0
    1.9750   -1.2490    1.9840 N   0  0  0  0  0  0  0  0  0  0  0  0
    1.7180   -1.9610    0.7400 C   0  0  1  0  0  0  0  0  0  0  0  0
    2.2690   -3.3780    0.8090 C   0  0  0  0  0  0  0  0  0  0  0  0
    4.0710   -3.2660    1.0930 S   0  0  0  0  0  0  0  0  0  0  0  0
    0.2440   -2.0170    0.5480 C   0  0  0  0  0  0  0  0  0  0  0  0
   -0.5330   -1.5090    1.3870 O   0  0  0  0  0  0  0  0  0  0  0  0
    1.5030   -1.5100    2.8760 H   0  0  0  0  0  0  0  0  0  0  0  0
    2.2550   -1.4820   -0.1050 H   0  0  0  0  0  0  0  0  0  0  0  0
    2.1370   -3.8130   -0.1920 H   0  0  0  0  0  0  0  0  0  0  0  0
    1.8090   -3.9560    1.6210 H   0  0  0  0  0  0  0  0  0  0  0  0
    4.5430   -2.2650    0.2250 H   0  0  0  0  0  0  0  0  0  0  0  0
   -2.2220    1.6760   -1.6040 N   0  0  0  0  0  0  0  0  0  0  0  0
   -3.0820    0.7360   -0.9560 C   0  0  0  0  0  0  0  0  0  0  0  0
   -2.8930    0.3880    0.2590 N   0  0  0  0  0  0  0  0  0  0  0  0
   -4.1810    0.1710   -1.6450 N   0  0  0  0  0  0  0  0  0  0  0  0
   -4.4660   -1.2440   -1.7130 C   0  0  0  0  0  0  0  0  0  0  0  0
   -3.4980   -2.0030   -2.5370 C   0  0  0  0  0  0  0  0  0  0  0  0
   -2.0860   -2.0520   -2.1110 C   0  0  0  0  0  0  0  0  0  0  0  0
   -1.8070   -2.7110   -0.7910 C   0  0  2  0  0  0  0  0  0  0  0  0
   -0.3520   -2.6380   -0.5780 N   0  0  0  0  0  0  0  0  0  0  0  0
   -2.2140   -4.1620   -0.8360 C   0  0  0  0  0  0  0  0  0  0  0  0
   -3.4200   -4.4440   -0.9900 O   0  0  0  0  0  0  0  0  0  0  0  0
   -1.2960   -5.1870   -0.7110 O   0  0  0  0  0  0  0  0  0  0  0  0
   -1.3020    1.3520   -1.9760 H   0  0  0  0  0  0  0  0  0  0  0  0
   -2.4510    2.6690   -1.7330 H   0  0  0  0  0  0  0  0  0  0  0  0
   -3.4410   -0.2700    0.8130 H   0  0  0  0  0  0  0  0  0  0  0  0
   -4.8180    0.8790   -2.1500 H   0  0  0  0  0  0  0  0  0  0  0  0
   -5.4700   -1.3500   -2.2030 H   0  0  0  0  0  0  0  0  0  0  0  0
   -4.5740   -1.6580   -0.6810 H   0  0  0  0  0  0  0  0  0  0  0  0
   -3.4920   -1.5000   -3.5590 H   0  0  0  0  0  0  0  0  0  0  0  0
   -3.9030   -3.0220   -2.7340 H   0  0  0  0  0  0  0  0  0  0  0  0
   -1.6170   -1.0450   -2.1750 H   0  0  0  0  0  0  0  0  0  0  0  0
   -1.5310   -2.6550   -2.8810 H   0  0  0  0  0  0  0  0  0  0  0  0
   -2.3930   -2.2520   -0.0140 H   0  0  0  0  0  0  0  0  0  0  0  0
    0.2910   -3.0600   -1.2820 H   0  0  0  0  0  0  0  0  0  0  0  0
  1  2  1  0  0  0  0
  1 11  1  0  0  0  0
  2  3  1  0  0  0  0
  2 12  1  1  0  0  0
  3 13  1  0  0  0  0
  3 14  1  0  0  0  0
  4  3  1  0  0  0  0
  4 16  1  0  0  0  0
  5  4  1  0  0  0  0
  5  6  2  0  0  0  0
  7  2  1  0  0  0  0
  8  7  2  0  0  0  0
  9  5  1  0  0  0  0
 10  1  1  0  0  0  0
 15  4  1  0  0  0  0
 17  9  1  0  0  0  0
 18  7  1  0  0  0  0
 18 24  1  0  0  0  0
 19 25  1  6  0  0  0
 19 20  1  0  0  0  0
 19 18  1  0  0  0  0
 20 21  1  0  0  0  0
 20 27  1  0  0  0  0
 22 19  1  0  0  0  0
 22 23  2  0  0  0  0
 26 20  1  0  0  0  0
 28 21  1  0  0  0  0
 29 30  1  0  0  0  0
 30 31  2  0  0  0  0
 31 43  1  0  0  0  0
 32 30  1  0  0  0  0
 33 32  1  0  0  0  0
 33 46  1  0  0  0  0
 34 35  1  0  0  0  0
 34 33  1  0  0  0  0
 35 36  1  0  0  0  0
 36 37  1  0  0  0  0
 36 51  1  1  0  0  0
 37 22  1  0  0  0  0
 38 36  1  0  0  0  0
 38 40  1  0  0  0  0
 39 38  2  0  0  0  0
 41 29  1  0  0  0  0
 42 29  1  0  0  0  0
 44 32  1  0  0  0  0
 45 33  1  0  0  0  0
 47 34  1  0  0  0  0
 48 34  1  0  0  0  0
 49 35  1  0  0  0  0
 50 35  1  0  0  0  0
 52 37  1  0  0  0  0
M  END
$$$$
