ECT.pdb
 OpenBabel07022418183D

 43 42  0  0  1  0  0  0  0  0999 V2000
    1.3230   -3.2020   -1.8190 N   0  0  0  0  0  0  0  0  0  0  0  0
    2.2560   -3.1290   -0.7140 C   0  0  1  0  0  0  0  0  0  0  0  0
    3.6870   -3.0470   -1.1870 C   0  0  0  0  0  0  0  0  0  0  0  0
    3.9580   -1.8520   -2.0400 C   0  0  0  0  0  0  0  0  0  0  0  0
    5.3980   -1.8980   -2.4330 C   0  0  0  0  0  0  0  0  0  0  0  0
    6.1710   -2.8330   -2.0560 O   0  0  0  0  0  0  0  0  0  0  0  0
    1.8780   -2.0230    0.1700 C   0  0  0  0  0  0  0  0  0  0  0  0
    2.5600   -1.7890    1.1900 O   0  0  0  0  0  0  0  0  0  0  0  0
    5.9530   -0.9170   -3.2300 O   0  0  0  0  0  0  0  0  0  0  0  0
    1.6460   -3.8440   -2.5820 H   0  0  0  0  0  0  0  0  0  0  0  0
    0.4510   -3.6730   -1.4310 H   0  0  0  0  0  0  0  0  0  0  0  0
    2.1680   -4.1220   -0.1820 H   0  0  0  0  0  0  0  0  0  0  0  0
    4.3730   -3.0240   -0.3170 H   0  0  0  0  0  0  0  0  0  0  0  0
    3.9300   -3.9550   -1.7700 H   0  0  0  0  0  0  0  0  0  0  0  0
    3.7950   -0.8910   -1.5300 H   0  0  0  0  0  0  0  0  0  0  0  0
    3.3850   -1.9320   -2.9960 H   0  0  0  0  0  0  0  0  0  0  0  0
    6.9490   -0.6870   -3.1190 H   0  0  0  0  0  0  0  0  0  0  0  0
    0.7560   -1.2140   -0.1080 N   0  0  0  0  0  0  0  0  0  0  0  0
    0.3720   -0.1150    0.7600 C   0  0  1  0  0  0  0  0  0  0  0  0
    0.4820    1.1870    0.0000 C   0  0  0  0  0  0  0  0  0  0  0  0
    2.1420    1.5190   -0.5940 S   0  0  0  0  0  0  0  0  0  0  0  0
   -1.0220   -0.2400    1.2270 C   0  0  0  0  0  0  0  0  0  0  0  0
   -1.7980   -1.1770    0.9230 O   0  0  0  0  0  0  0  0  0  0  0  0
    0.1370   -1.3580   -0.9540 H   0  0  0  0  0  0  0  0  0  0  0  0
    1.0920   -0.0530    1.6150 H   0  0  0  0  0  0  0  0  0  0  0  0
    0.1250    1.9850    0.7150 H   0  0  0  0  0  0  0  0  0  0  0  0
   -0.2050    1.1180   -0.8670 H   0  0  0  0  0  0  0  0  0  0  0  0
    3.1430    1.0260    0.2440 H   0  0  0  0  0  0  0  0  0  0  0  0
   -2.4190    1.9000    4.6790 C   0  0  0  0  0  0  0  0  0  0  0  0
   -2.9880    0.6280    4.0780 C   0  0  1  0  0  0  0  0  0  0  0  0
   -4.3400    0.5960    4.4250 O   0  0  0  0  0  0  0  0  0  0  0  0
   -2.8840    0.7170    2.5820 C   0  0  2  0  0  0  0  0  0  0  0  0
   -1.5500    0.7570    2.0840 N   0  0  0  0  0  0  0  0  0  0  0  0
   -3.6240    1.8720    2.0430 C   0  0  0  0  0  0  0  0  0  0  0  0
   -3.0870    2.7220    1.2650 O   0  0  0  0  0  0  0  0  0  0  0  0
   -4.9540    2.0390    2.3950 O   0  0  0  0  0  0  0  0  0  0  0  0
   -2.3010    1.7960    5.7960 H   0  0  0  0  0  0  0  0  0  0  0  0
   -3.0870    2.7620    4.5380 H   0  0  0  0  0  0  0  0  0  0  0  0
   -1.4210    2.1500    4.3020 H   0  0  0  0  0  0  0  0  0  0  0  0
   -2.5350   -0.2740    4.4980 H   0  0  0  0  0  0  0  0  0  0  0  0
   -4.6160   -0.2870    4.7800 H   0  0  0  0  0  0  0  0  0  0  0  0
   -3.3620   -0.1990    2.1730 H   0  0  0  0  0  0  0  0  0  0  0  0
   -0.9640    1.5910    2.3960 H   0  0  0  0  0  0  0  0  0  0  0  0
  1 11  1  0  0  0  0
  1  2  1  0  0  0  0
  2 12  1  1  0  0  0
  2  7  1  0  0  0  0
  3  2  1  0  0  0  0
  3 13  1  0  0  0  0
  4 15  1  0  0  0  0
  4  3  1  0  0  0  0
  5  6  2  0  0  0  0
  5  4  1  0  0  0  0
  7  8  2  0  0  0  0
  9 17  1  0  0  0  0
  9  5  1  0  0  0  0
 10  1  1  0  0  0  0
 14  3  1  0  0  0  0
 16  4  1  0  0  0  0
 18  7  1  0  0  0  0
 18 19  1  0  0  0  0
 19 22  1  0  0  0  0
 19 25  1  1  0  0  0
 20 26  1  0  0  0  0
 20 19  1  0  0  0  0
 21 20  1  0  0  0  0
 21 28  1  0  0  0  0
 22 33  1  0  0  0  0
 23 22  2  0  0  0  0
 24 18  1  0  0  0  0
 27 20  1  0  0  0  0
 29 37  1  0  0  0  0
 30 31  1  0  0  0  0
 30 40  1  1  0  0  0
 30 29  1  0  0  0  0
 31 41  1  0  0  0  0
 32 42  1  6  0  0  0
 32 30  1  0  0  0  0
 33 43  1  0  0  0  0
 33 32  1  0  0  0  0
 34 36  1  0  0  0  0
 34 32  1  0  0  0  0
 35 34  2  0  0  0  0
 38 29  1  0  0  0  0
 39 29  1  0  0  0  0
M  END
$$$$
