ECW.pdb
 OpenBabel07022418183D

 53 54  0  0  1  0  0  0  0  0999 V2000
    2.5660   -1.2920    0.0900 N   0  0  0  0  0  0  0  0  0  0  0  0
    3.1340   -0.4900    1.1780 C   0  0  1  0  0  0  0  0  0  0  0  0
    4.4910   -0.0650    0.7100 C   0  0  0  0  0  0  0  0  0  0  0  0
    5.2280    0.7690    1.6880 C   0  0  0  0  0  0  0  0  0  0  0  0
    5.4790    0.0810    2.9560 C   0  0  0  0  0  0  0  0  0  0  0  0
    5.1510   -1.0910    3.2040 O   0  0  0  0  0  0  0  0  0  0  0  0
    2.2330    0.6330    1.5270 C   0  0  0  0  0  0  0  0  0  0  0  0
    2.5150    1.3640    2.4790 O   0  0  0  0  0  0  0  0  0  0  0  0
    6.1390    0.7790    3.9830 O   0  0  0  0  0  0  0  0  0  0  0  0
    2.4340   -0.7480   -0.7660 H   0  0  0  0  0  0  0  0  0  0  0  0
    1.7940   -1.8960    0.3870 H   0  0  0  0  0  0  0  0  0  0  0  0
    3.2150   -1.1690    2.0280 H   0  0  0  0  0  0  0  0  0  0  0  0
    5.0540   -1.0290    0.5190 H   0  0  0  0  0  0  0  0  0  0  0  0
    4.4320    0.4050   -0.3050 H   0  0  0  0  0  0  0  0  0  0  0  0
    4.6980    1.7450    1.8530 H   0  0  0  0  0  0  0  0  0  0  0  0
    6.2350    1.0100    1.2220 H   0  0  0  0  0  0  0  0  0  0  0  0
    6.0480    0.4280    4.9210 H   0  0  0  0  0  0  0  0  0  0  0  0
    1.0320    0.9020    0.7860 N   0  0  0  0  0  0  0  0  0  0  0  0
    0.1500    1.9910    1.1180 C   0  0  1  0  0  0  0  0  0  0  0  0
    0.3080    2.9950   -0.0370 C   0  0  0  0  0  0  0  0  0  0  0  0
   -0.7200    4.4440    0.1770 S   0  0  0  0  0  0  0  0  0  0  0  0
   -1.2880    1.5690    1.1840 C   0  0  0  0  0  0  0  0  0  0  0  0
   -2.1920    2.3960    1.4800 O   0  0  0  0  0  0  0  0  0  0  0  0
    0.8320    0.2630   -0.0090 H   0  0  0  0  0  0  0  0  0  0  0  0
    0.4700    2.5480    2.0100 H   0  0  0  0  0  0  0  0  0  0  0  0
    0.1610    2.4840   -1.0230 H   0  0  0  0  0  0  0  0  0  0  0  0
    1.3750    3.3060   -0.0130 H   0  0  0  0  0  0  0  0  0  0  0  0
   -2.0660    4.1970   -0.1950 H   0  0  0  0  0  0  0  0  0  0  0  0
   -1.6820    0.2320    0.9190 N   0  0  0  0  0  0  0  0  0  0  0  0
   -3.1200   -0.1130    1.0020 C   0  0  1  0  0  0  0  0  0  0  0  0
   -3.5710   -0.4460   -0.3990 C   0  0  0  0  0  0  0  0  0  0  0  0
   -2.8300   -1.5660   -1.0230 C   0  0  0  0  0  0  0  0  0  0  0  0
   -1.6700   -1.4320   -1.8030 C   0  0  0  0  0  0  0  0  0  0  0  0
   -1.2660   -2.6460   -2.1310 N   0  0  0  0  0  0  0  0  0  0  0  0
   -2.0770   -3.5870   -1.6240 C   0  0  0  0  0  0  0  0  0  0  0  0
   -2.0270   -4.9780   -1.7350 C   0  0  0  0  0  0  0  0  0  0  0  0
   -3.0120   -5.7040   -1.1190 C   0  0  0  0  0  0  0  0  0  0  0  0
   -4.0100   -5.0330   -0.4180 C   0  0  0  0  0  0  0  0  0  0  0  0
   -4.0400   -3.6700   -0.3210 C   0  0  0  0  0  0  0  0  0  0  0  0
   -3.0650   -2.9180   -0.9260 C   0  0  0  0  0  0  0  0  0  0  0  0
   -3.3460   -1.2490    1.8980 C   0  0  0  0  0  0  0  0  0  0  0  0
   -4.4590   -1.6600    2.2670 O   0  0  0  0  0  0  0  0  0  0  0  0
   -2.1940   -1.9160    2.3710 O   0  0  0  0  0  0  0  0  0  0  0  0
   -0.9900   -0.5060    0.6690 H   0  0  0  0  0  0  0  0  0  0  0  0
   -3.6910    0.7980    1.3210 H   0  0  0  0  0  0  0  0  0  0  0  0
   -4.6440   -0.7700   -0.3090 H   0  0  0  0  0  0  0  0  0  0  0  0
   -3.6040    0.4620   -1.0430 H   0  0  0  0  0  0  0  0  0  0  0  0
   -1.2480   -0.4690   -2.0460 H   0  0  0  0  0  0  0  0  0  0  0  0
   -0.4140   -2.8740   -2.7180 H   0  0  0  0  0  0  0  0  0  0  0  0
   -1.2320   -5.4760   -2.2920 H   0  0  0  0  0  0  0  0  0  0  0  0
   -2.9920   -6.7910   -1.1920 H   0  0  0  0  0  0  0  0  0  0  0  0
   -4.7660   -5.6630    0.0510 H   0  0  0  0  0  0  0  0  0  0  0  0
   -4.8290   -3.1860    0.2040 H   0  0  0  0  0  0  0  0  0  0  0  0
  1 11  1  0  0  0  0
  1  2  1  0  0  0  0
  2  7  1  0  0  0  0
  2 12  1  1  0  0  0
  3  2  1  0  0  0  0
  3  4  1  0  0  0  0
  4 15  1  0  0  0  0
  4  5  1  0  0  0  0
  5  6  2  0  0  0  0
  5  9  1  0  0  0  0
  7  8  2  0  0  0  0
  9 17  1  0  0  0  0
 10  1  1  0  0  0  0
 13  3  1  0  0  0  0
 14  3  1  0  0  0  0
 16  4  1  0  0  0  0
 18 19  1  0  0  0  0
 18  7  1  0  0  0  0
 19 22  1  0  0  0  0
 19 25  1  1  0  0  0
 20 27  1  0  0  0  0
 20 21  1  0  0  0  0
 20 19  1  0  0  0  0
 22 23  2  0  0  0  0
 24 18  1  0  0  0  0
 26 20  1  0  0  0  0
 28 21  1  0  0  0  0
 29 30  1  0  0  0  0
 29 22  1  0  0  0  0
 30 45  1  1  0  0  0
 30 41  1  0  0  0  0
 31 46  1  0  0  0  0
 31 30  1  0  0  0  0
 32 40  1  0  0  0  0
 32 31  1  0  0  0  0
 33 32  2  0  0  0  0
 34 33  1  0  0  0  0
 34 35  1  0  0  0  0
 35 40  1  0  0  0  0
 36 35  2  0  0  0  0
 36 37  1  0  0  0  0
 37 38  2  0  0  0  0
 38 39  1  0  0  0  0
 38 52  1  0  0  0  0
 39 53  1  0  0  0  0
 40 39  2  0  0  0  0
 41 42  2  0  0  0  0
 41 43  1  0  0  0  0
 44 29  1  0  0  0  0
 47 31  1  0  0  0  0
 48 33  1  0  0  0  0
 49 34  1  0  0  0  0
 50 36  1  0  0  0  0
 51 37  1  0  0  0  0
M  END
$$$$
