ECY.pdb
 OpenBabel07022418183D

 50 50  0  0  1  0  0  0  0  0999 V2000
    2.3170   -2.2460    1.8690 N   0  0  0  0  0  0  0  0  0  0  0  0
    3.1510   -1.0620    1.8420 C   0  0  1  0  0  0  0  0  0  0  0  0
    4.5500   -1.3910    1.4240 C   0  0  0  0  0  0  0  0  0  0  0  0
    5.1800   -2.3780    2.3770 C   0  0  0  0  0  0  0  0  0  0  0  0
    5.2280   -1.8240    3.7440 C   0  0  0  0  0  0  0  0  0  0  0  0
    4.2360   -1.8990    4.5140 O   0  0  0  0  0  0  0  0  0  0  0  0
    2.5370   -0.0030    1.0030 C   0  0  0  0  0  0  0  0  0  0  0  0
    3.0810    1.1210    0.8300 O   0  0  0  0  0  0  0  0  0  0  0  0
    6.4050   -1.2120    4.1650 O   0  0  0  0  0  0  0  0  0  0  0  0
    1.4360   -2.0720    2.3650 H   0  0  0  0  0  0  0  0  0  0  0  0
    2.1840   -2.7010    0.9570 H   0  0  0  0  0  0  0  0  0  0  0  0
    3.1430   -0.6500    2.8850 H   0  0  0  0  0  0  0  0  0  0  0  0
    4.4840   -1.9250    0.4320 H   0  0  0  0  0  0  0  0  0  0  0  0
    5.1860   -0.5220    1.2590 H   0  0  0  0  0  0  0  0  0  0  0  0
    4.6580   -3.3610    2.3590 H   0  0  0  0  0  0  0  0  0  0  0  0
    6.2290   -2.5940    2.0360 H   0  0  0  0  0  0  0  0  0  0  0  0
    6.3410   -0.5480    4.9380 H   0  0  0  0  0  0  0  0  0  0  0  0
    1.2950   -0.2720    0.3770 N   0  0  0  0  0  0  0  0  0  0  0  0
    0.6240    0.6930   -0.4540 C   0  0  1  0  0  0  0  0  0  0  0  0
    0.4630    0.2120   -1.8810 C   0  0  0  0  0  0  0  0  0  0  0  0
    2.0530   -0.1320   -2.6790 S   0  0  0  0  0  0  0  0  0  0  0  0
   -0.7250    1.0360    0.0270 C   0  0  0  0  0  0  0  0  0  0  0  0
   -1.3540    1.9020   -0.6720 O   0  0  0  0  0  0  0  0  0  0  0  0
    0.8620   -1.2090    0.5330 H   0  0  0  0  0  0  0  0  0  0  0  0
    1.2280    1.6190   -0.4910 H   0  0  0  0  0  0  0  0  0  0  0  0
   -0.0310    1.0490   -2.4310 H   0  0  0  0  0  0  0  0  0  0  0  0
   -0.2390   -0.6470   -1.9500 H   0  0  0  0  0  0  0  0  0  0  0  0
    2.6620    1.1280   -2.9280 H   0  0  0  0  0  0  0  0  0  0  0  0
   -4.0280   -2.5920   -3.6380 O   0  0  0  0  0  0  0  0  0  0  0  0
   -3.9450   -2.0090   -2.3810 C   0  0  0  0  0  0  0  0  0  0  0  0
   -4.7750   -0.9530   -2.0270 C   0  0  0  0  0  0  0  0  0  0  0  0
   -4.6610   -0.4020   -0.7720 C   0  0  0  0  0  0  0  0  0  0  0  0
   -3.7540   -0.8560    0.1580 C   0  0  0  0  0  0  0  0  0  0  0  0
   -3.6540   -0.2480    1.4900 C   0  0  0  0  0  0  0  0  0  0  0  0
   -2.6690    0.9000    1.5390 C   0  0  2  0  0  0  0  0  0  0  0  0
   -1.3370    0.4750    1.1790 N   0  0  0  0  0  0  0  0  0  0  0  0
   -2.6770    1.4540    2.9180 C   0  0  0  0  0  0  0  0  0  0  0  0
   -3.7170    1.8960    3.4660 O   0  0  0  0  0  0  0  0  0  0  0  0
   -2.9290   -1.8980   -0.1800 C   0  0  0  0  0  0  0  0  0  0  0  0
   -3.0330   -2.4610   -1.4390 C   0  0  0  0  0  0  0  0  0  0  0  0
   -1.4720    1.4850    3.6400 O   0  0  0  0  0  0  0  0  0  0  0  0
   -3.3670   -2.3270   -4.3540 H   0  0  0  0  0  0  0  0  0  0  0  0
   -5.4720   -0.6190   -2.7700 H   0  0  0  0  0  0  0  0  0  0  0  0
   -5.3400    0.4230   -0.5550 H   0  0  0  0  0  0  0  0  0  0  0  0
   -3.4040   -0.9850    2.2650 H   0  0  0  0  0  0  0  0  0  0  0  0
   -4.6570    0.1760    1.7420 H   0  0  0  0  0  0  0  0  0  0  0  0
   -3.0620    1.6720    0.8660 H   0  0  0  0  0  0  0  0  0  0  0  0
   -0.7980   -0.2250    1.7240 H   0  0  0  0  0  0  0  0  0  0  0  0
   -2.1880   -2.3200    0.4830 H   0  0  0  0  0  0  0  0  0  0  0  0
   -2.3960   -3.2890   -1.7450 H   0  0  0  0  0  0  0  0  0  0  0  0
  1 10  1  0  0  0  0
  2  1  1  0  0  0  0
  2 12  1  1  0  0  0
  3  2  1  0  0  0  0
  3  4  1  0  0  0  0
  4  5  1  0  0  0  0
  5  9  1  0  0  0  0
  5  6  2  0  0  0  0
  7  2  1  0  0  0  0
  8  7  2  0  0  0  0
  9 17  1  0  0  0  0
 11  1  1  0  0  0  0
 13  3  1  0  0  0  0
 14  3  1  0  0  0  0
 15  4  1  0  0  0  0
 16  4  1  0  0  0  0
 18 24  1  0  0  0  0
 18  7  1  0  0  0  0
 19 25  1  6  0  0  0
 19 22  1  0  0  0  0
 19 18  1  0  0  0  0
 20 19  1  0  0  0  0
 21 20  1  0  0  0  0
 22 36  1  0  0  0  0
 23 22  2  0  0  0  0
 26 20  1  0  0  0  0
 27 20  1  0  0  0  0
 28 21  1  0  0  0  0
 29 30  1  0  0  0  0
 30 31  2  0  0  0  0
 30 40  1  0  0  0  0
 31 32  1  0  0  0  0
 32 44  1  0  0  0  0
 32 33  2  0  0  0  0
 33 34  1  0  0  0  0
 34 35  1  0  0  0  0
 34 46  1  0  0  0  0
 34 45  1  0  0  0  0
 35 47  1  6  0  0  0
 35 37  1  0  0  0  0
 36 35  1  0  0  0  0
 36 48  1  0  0  0  0
 37 38  2  0  0  0  0
 37 41  1  0  0  0  0
 39 33  1  0  0  0  0
 39 49  1  0  0  0  0
 40 39  2  0  0  0  0
 42 29  1  0  0  0  0
 43 31  1  0  0  0  0
 50 40  1  0  0  0  0
M  END
$$$$
