EDC.pdb
 OpenBabel07022418173D

 42 41  0  0  1  0  0  0  0  0999 V2000
   -3.7450   -0.2650    2.4450 N   0  0  0  0  0  0  0  0  0  0  0  0
   -2.3000    0.0200    2.2790 C   0  0  1  0  0  0  0  0  0  0  0  0
   -1.6110   -0.8420    3.2700 C   0  0  0  0  0  0  0  0  0  0  0  0
   -0.1290   -0.7660    3.3250 C   0  0  0  0  0  0  0  0  0  0  0  0
    0.3440   -1.7050    4.4100 C   0  0  0  0  0  0  0  0  0  0  0  0
   -0.4400   -2.3910    5.0910 O   0  0  0  0  0  0  0  0  0  0  0  0
   -1.9800   -0.1970    0.8710 C   0  0  0  0  0  0  0  0  0  0  0  0
   -2.8360   -0.7450    0.0830 O   0  0  0  0  0  0  0  0  0  0  0  0
    1.7060   -1.7720    4.6180 O   0  0  0  0  0  0  0  0  0  0  0  0
   -3.8910   -1.3080    2.3400 H   0  0  0  0  0  0  0  0  0  0  0  0
   -4.2800    0.1670    1.6540 H   0  0  0  0  0  0  0  0  0  0  0  0
   -2.1890    1.0850    2.5920 H   0  0  0  0  0  0  0  0  0  0  0  0
   -1.9220   -1.9040    3.1670 H   0  0  0  0  0  0  0  0  0  0  0  0
   -1.9880   -0.5190    4.2850 H   0  0  0  0  0  0  0  0  0  0  0  0
    0.2560   -1.2520    2.3910 H   0  0  0  0  0  0  0  0  0  0  0  0
    0.3010    0.2050    3.5510 H   0  0  0  0  0  0  0  0  0  0  0  0
    2.1220   -2.1810    5.4570 H   0  0  0  0  0  0  0  0  0  0  0  0
   -0.7070    0.2040    0.3630 N   0  0  0  0  0  0  0  0  0  0  0  0
   -0.3870    0.0020   -1.0090 C   0  0  1  0  0  0  0  0  0  0  0  0
   -0.4090    1.3650   -1.7390 C   0  0  0  0  0  0  0  0  0  0  0  0
   -1.7360    1.9870   -1.6450 C   0  0  0  0  0  0  0  0  0  0  0  0
   -2.6600    1.5730   -2.3750 O   0  0  0  0  0  0  0  0  0  0  0  0
    0.9210   -0.5770   -1.3070 C   0  0  0  0  0  0  0  0  0  0  0  0
    1.2080   -0.7790   -2.5400 O   0  0  0  0  0  0  0  0  0  0  0  0
   -2.0160    3.0280   -0.7710 O   0  0  0  0  0  0  0  0  0  0  0  0
   -0.0190    0.6490    0.9990 H   0  0  0  0  0  0  0  0  0  0  0  0
   -1.2400   -0.5490   -1.5050 H   0  0  0  0  0  0  0  0  0  0  0  0
   -0.0550    1.2180   -2.7610 H   0  0  0  0  0  0  0  0  0  0  0  0
    0.3210    2.0050   -1.2100 H   0  0  0  0  0  0  0  0  0  0  0  0
   -2.7330    3.7240   -0.9580 H   0  0  0  0  0  0  0  0  0  0  0  0
    1.9290   -0.9510   -0.4090 N   0  0  0  0  0  0  0  0  0  0  0  0
    3.1950   -1.5180   -0.7710 C   0  0  1  0  0  0  0  0  0  0  0  0
    4.3760   -0.7450   -0.2740 C   0  0  0  0  0  0  0  0  0  0  0  0
    4.2510   -0.7090    1.5510 S   0  0  0  0  0  0  0  0  0  0  0  0
    3.2390   -2.9110   -0.2420 C   0  0  0  0  0  0  0  0  0  0  0  0
    2.2730   -3.4140    0.4020 O   0  0  0  0  0  0  0  0  0  0  0  0
    4.3430   -3.7280   -0.4310 O   0  0  0  0  0  0  0  0  0  0  0  0
    1.7410   -0.8020    0.6050 H   0  0  0  0  0  0  0  0  0  0  0  0
    3.2820   -1.6070   -1.8730 H   0  0  0  0  0  0  0  0  0  0  0  0
    5.3080   -1.3030   -0.4930 H   0  0  0  0  0  0  0  0  0  0  0  0
    4.4790    0.2500   -0.7020 H   0  0  0  0  0  0  0  0  0  0  0  0
    5.1830    0.1800    2.0800 H   0  0  0  0  0  0  0  0  0  0  0  0
  2  1  1  0  0  0  0
  2 12  1  1  0  0  0
  2  3  1  0  0  0  0
  3  4  1  0  0  0  0
  3 14  1  0  0  0  0
  4 16  1  0  0  0  0
  4  5  1  0  0  0  0
  5  9  1  0  0  0  0
  5  6  2  0  0  0  0
  7  2  1  0  0  0  0
  8  7  2  0  0  0  0
  9 17  1  0  0  0  0
 10  1  1  0  0  0  0
 11  1  1  0  0  0  0
 13  3  1  0  0  0  0
 15  4  1  0  0  0  0
 18  7  1  0  0  0  0
 18 26  1  0  0  0  0
 19 27  1  6  0  0  0
 19 18  1  0  0  0  0
 20 21  1  0  0  0  0
 20 29  1  0  0  0  0
 20 19  1  0  0  0  0
 21 25  1  0  0  0  0
 22 21  2  0  0  0  0
 23 19  1  0  0  0  0
 23 31  1  0  0  0  0
 24 23  2  0  0  0  0
 28 20  1  0  0  0  0
 30 25  1  0  0  0  0
 31 38  1  0  0  0  0
 32 39  1  6  0  0  0
 32 31  1  0  0  0  0
 32 33  1  0  0  0  0
 32 35  1  0  0  0  0
 33 34  1  0  0  0  0
 34 42  1  0  0  0  0
 35 36  1  0  0  0  0
 37 35  2  0  0  0  0
 40 33  1  0  0  0  0
 41 33  1  0  0  0  0
M  END
$$$$
