EDD.pdb
 OpenBabel07022418173D

 44 43  0  0  1  0  0  0  0  0999 V2000
    3.0670   -1.3890   -0.9490 N   0  0  0  0  0  0  0  0  0  0  0  0
    3.0430   -0.1240   -0.1010 C   0  0  1  0  0  0  0  0  0  0  0  0
    2.4730    0.8930   -0.9760 C   0  0  0  0  0  0  0  0  0  0  0  0
    2.3630    2.3020   -0.5610 C   0  0  0  0  0  0  0  0  0  0  0  0
    1.5890    2.6740    0.6060 C   0  0  0  0  0  0  0  0  0  0  0  0
    2.0500    2.7620    1.7690 O   0  0  0  0  0  0  0  0  0  0  0  0
    2.3030   -0.5950    1.0770 C   0  0  0  0  0  0  0  0  0  0  0  0
    2.9750   -1.3920    1.8560 O   0  0  0  0  0  0  0  0  0  0  0  0
    0.2150    2.9700    0.4940 O   0  0  0  0  0  0  0  0  0  0  0  0
    2.0960   -1.6330   -1.2040 H   0  0  0  0  0  0  0  0  0  0  0  0
    3.4590   -2.1590   -0.3610 H   0  0  0  0  0  0  0  0  0  0  0  0
    4.1210    0.0180    0.1380 H   0  0  0  0  0  0  0  0  0  0  0  0
    3.0600    0.9120   -1.9650 H   0  0  0  0  0  0  0  0  0  0  0  0
    1.4660    0.4930   -1.3570 H   0  0  0  0  0  0  0  0  0  0  0  0
    1.9750    2.8670   -1.4840 H   0  0  0  0  0  0  0  0  0  0  0  0
    3.4000    2.7870   -0.4610 H   0  0  0  0  0  0  0  0  0  0  0  0
   -0.2690    3.5240    1.1990 H   0  0  0  0  0  0  0  0  0  0  0  0
    1.0030   -0.3300    1.4790 N   0  0  0  0  0  0  0  0  0  0  0  0
    0.4280   -0.9010    2.6770 C   0  0  1  0  0  0  0  0  0  0  0  0
    0.0590    0.0950    3.7360 C   0  0  0  0  0  0  0  0  0  0  0  0
    1.1860    0.8650    4.2620 C   0  0  0  0  0  0  0  0  0  0  0  0
    2.3950    0.7150    3.9710 O   0  0  0  0  0  0  0  0  0  0  0  0
   -0.7190   -1.7410    2.2760 C   0  0  0  0  0  0  0  0  0  0  0  0
   -1.3760   -2.3440    3.1480 O   0  0  0  0  0  0  0  0  0  0  0  0
    0.9070    1.8880    5.1930 O   0  0  0  0  0  0  0  0  0  0  0  0
    0.3770    0.2720    0.9160 H   0  0  0  0  0  0  0  0  0  0  0  0
    1.1860   -1.6100    3.1560 H   0  0  0  0  0  0  0  0  0  0  0  0
   -0.4310   -0.4520    4.5800 H   0  0  0  0  0  0  0  0  0  0  0  0
   -0.7210    0.8150    3.3820 H   0  0  0  0  0  0  0  0  0  0  0  0
    1.6240    2.5860    5.3930 H   0  0  0  0  0  0  0  0  0  0  0  0
   -1.0850   -1.8730    0.9200 N   0  0  0  0  0  0  0  0  0  0  0  0
   -2.2060   -2.6970    0.5360 C   0  0  1  0  0  0  0  0  0  0  0  0
   -3.2650   -1.8990   -0.1540 C   0  0  0  0  0  0  0  0  0  0  0  0
   -2.8040   -1.2440   -1.3970 C   0  0  0  0  0  0  0  0  0  0  0  0
   -3.6050   -0.4990   -2.0420 O   0  0  0  0  0  0  0  0  0  0  0  0
   -1.7970   -3.8180   -0.3390 C   0  0  0  0  0  0  0  0  0  0  0  0
   -0.6120   -4.0220   -0.6960 O   0  0  0  0  0  0  0  0  0  0  0  0
   -1.5300   -1.4030   -1.9020 O   0  0  0  0  0  0  0  0  0  0  0  0
   -2.7710   -4.6910   -0.7890 O   0  0  0  0  0  0  0  0  0  0  0  0
   -0.5510   -1.3810    0.1920 H   0  0  0  0  0  0  0  0  0  0  0  0
   -2.6600   -3.1620    1.4490 H   0  0  0  0  0  0  0  0  0  0  0  0
   -4.1810   -2.4930   -0.3730 H   0  0  0  0  0  0  0  0  0  0  0  0
   -3.6060   -1.0770    0.5330 H   0  0  0  0  0  0  0  0  0  0  0  0
   -1.1660   -0.6410   -2.4760 H   0  0  0  0  0  0  0  0  0  0  0  0
  1 11  1  0  0  0  0
  1  2  1  0  0  0  0
  2 12  1  1  0  0  0
  2  7  1  0  0  0  0
  3  4  1  0  0  0  0
  3  2  1  0  0  0  0
  4 16  1  0  0  0  0
  4  5  1  0  0  0  0
  5  6  2  0  0  0  0
  7 18  1  0  0  0  0
  7  8  2  0  0  0  0
  9  5  1  0  0  0  0
  9 17  1  0  0  0  0
 10  1  1  0  0  0  0
 13  3  1  0  0  0  0
 14  3  1  0  0  0  0
 15  4  1  0  0  0  0
 18 19  1  0  0  0  0
 19 27  1  1  0  0  0
 19 20  1  0  0  0  0
 20 21  1  0  0  0  0
 20 28  1  0  0  0  0
 21 25  1  0  0  0  0
 22 21  2  0  0  0  0
 23 19  1  0  0  0  0
 23 24  2  0  0  0  0
 25 30  1  0  0  0  0
 26 18  1  0  0  0  0
 29 20  1  0  0  0  0
 31 23  1  0  0  0  0
 32 31  1  0  0  0  0
 32 41  1  1  0  0  0
 33 43  1  0  0  0  0
 33 32  1  0  0  0  0
 34 33  1  0  0  0  0
 35 34  2  0  0  0  0
 36 32  1  0  0  0  0
 37 36  1  0  0  0  0
 38 34  1  0  0  0  0
 39 36  2  0  0  0  0
 40 31  1  0  0  0  0
 42 33  1  0  0  0  0
 44 38  1  0  0  0  0
M  END
$$$$
