EDE.pdb
 OpenBabel07022418173D

 47 46  0  0  1  0  0  0  0  0999 V2000
    3.9210   -3.7760    1.1530 N   0  0  0  0  0  0  0  0  0  0  0  0
    3.3780   -2.3870    0.7760 C   0  0  1  0  0  0  0  0  0  0  0  0
    3.4930   -2.3910   -0.6720 C   0  0  0  0  0  0  0  0  0  0  0  0
    3.1700   -1.2630   -1.5430 C   0  0  0  0  0  0  0  0  0  0  0  0
    1.8510   -0.6950   -1.6120 C   0  0  0  0  0  0  0  0  0  0  0  0
    1.6050    0.4750   -1.2340 O   0  0  0  0  0  0  0  0  0  0  0  0
    2.1430   -2.2710    1.5020 C   0  0  0  0  0  0  0  0  0  0  0  0
    1.7000   -3.3570    2.0500 O   0  0  0  0  0  0  0  0  0  0  0  0
    0.8010   -1.4480   -2.1100 O   0  0  0  0  0  0  0  0  0  0  0  0
    4.8370   -3.8650    0.6940 H   0  0  0  0  0  0  0  0  0  0  0  0
    3.2410   -4.4660    0.7500 H   0  0  0  0  0  0  0  0  0  0  0  0
    4.1560   -1.7360    1.2250 H   0  0  0  0  0  0  0  0  0  0  0  0
    4.6080   -2.6260   -0.8900 H   0  0  0  0  0  0  0  0  0  0  0  0
    3.0390   -3.3660   -1.1180 H   0  0  0  0  0  0  0  0  0  0  0  0
    3.8890   -0.3790   -1.3640 H   0  0  0  0  0  0  0  0  0  0  0  0
    3.5380   -1.5710   -2.5980 H   0  0  0  0  0  0  0  0  0  0  0  0
   -0.0350   -1.0290   -2.5180 H   0  0  0  0  0  0  0  0  0  0  0  0
    1.3030   -1.1580    1.7460 N   0  0  0  0  0  0  0  0  0  0  0  0
    0.1210   -1.2750    2.5550 C   0  0  1  0  0  0  0  0  0  0  0  0
    0.2770   -0.4850    3.8630 C   0  0  0  0  0  0  0  0  0  0  0  0
    0.4930    0.9430    3.6490 C   0  0  0  0  0  0  0  0  0  0  0  0
    0.5150    1.4040    2.4820 O   0  0  0  0  0  0  0  0  0  0  0  0
   -1.1650   -0.9510    1.9460 C   0  0  0  0  0  0  0  0  0  0  0  0
   -2.2020   -1.0430    2.6620 O   0  0  0  0  0  0  0  0  0  0  0  0
    0.6790    1.8440    4.6810 O   0  0  0  0  0  0  0  0  0  0  0  0
    1.5920   -0.2670    1.3240 H   0  0  0  0  0  0  0  0  0  0  0  0
    0.0130   -2.3490    2.9410 H   0  0  0  0  0  0  0  0  0  0  0  0
   -0.7020   -0.6120    4.3920 H   0  0  0  0  0  0  0  0  0  0  0  0
    1.0370   -1.0000    4.4570 H   0  0  0  0  0  0  0  0  0  0  0  0
    0.2510    2.7640    4.6760 H   0  0  0  0  0  0  0  0  0  0  0  0
   -1.3440   -0.5480    0.6370 N   0  0  0  0  0  0  0  0  0  0  0  0
   -2.5850   -0.2190   -0.0050 C   0  0  1  0  0  0  0  0  0  0  0  0
   -2.6500    1.0470   -0.7240 C   0  0  0  0  0  0  0  0  0  0  0  0
   -2.3840    2.2270    0.1560 C   0  0  0  0  0  0  0  0  0  0  0  0
   -3.3910    2.3430    1.2230 C   0  0  0  0  0  0  0  0  0  0  0  0
   -4.3740    1.5880    1.3290 O   0  0  0  0  0  0  0  0  0  0  0  0
   -2.8430   -1.3210   -1.0070 C   0  0  0  0  0  0  0  0  0  0  0  0
   -2.0450   -2.2650   -1.1370 O   0  0  0  0  0  0  0  0  0  0  0  0
   -3.2880    3.3500    2.2090 O   0  0  0  0  0  0  0  0  0  0  0  0
   -4.0030   -1.2750   -1.7990 O   0  0  0  0  0  0  0  0  0  0  0  0
   -0.5030   -0.4710    0.0370 H   0  0  0  0  0  0  0  0  0  0  0  0
   -3.3950   -0.3290    0.7290 H   0  0  0  0  0  0  0  0  0  0  0  0
   -2.1010    1.0900   -1.6900 H   0  0  0  0  0  0  0  0  0  0  0  0
   -3.7280    1.1840   -1.0560 H   0  0  0  0  0  0  0  0  0  0  0  0
   -2.4380    3.1720   -0.4350 H   0  0  0  0  0  0  0  0  0  0  0  0
   -1.4040    2.1560    0.6860 H   0  0  0  0  0  0  0  0  0  0  0  0
   -4.0670    3.5080    2.8440 H   0  0  0  0  0  0  0  0  0  0  0  0
  2  1  1  0  0  0  0
  2 12  1  1  0  0  0
  2  7  1  0  0  0  0
  3  2  1  0  0  0  0
  4 15  1  0  0  0  0
  4  3  1  0  0  0  0
  5  4  1  0  0  0  0
  5  6  2  0  0  0  0
  7 18  1  0  0  0  0
  7  8  2  0  0  0  0
  9  5  1  0  0  0  0
 10  1  1  0  0  0  0
 11  1  1  0  0  0  0
 13  3  1  0  0  0  0
 14  3  1  0  0  0  0
 16  4  1  0  0  0  0
 17  9  1  0  0  0  0
 18 19  1  0  0  0  0
 19 27  1  1  0  0  0
 19 20  1  0  0  0  0
 20 28  1  0  0  0  0
 20 29  1  0  0  0  0
 21 20  1  0  0  0  0
 21 25  1  0  0  0  0
 22 21  2  0  0  0  0
 23 19  1  0  0  0  0
 23 24  2  0  0  0  0
 26 18  1  0  0  0  0
 30 25  1  0  0  0  0
 31 23  1  0  0  0  0
 32 31  1  0  0  0  0
 32 42  1  1  0  0  0
 33 32  1  0  0  0  0
 33 34  1  0  0  0  0
 34 46  1  0  0  0  0
 34 35  1  0  0  0  0
 35 36  2  0  0  0  0
 35 39  1  0  0  0  0
 37 32  1  0  0  0  0
 38 37  1  0  0  0  0
 39 47  1  0  0  0  0
 40 37  2  0  0  0  0
 41 31  1  0  0  0  0
 43 33  1  0  0  0  0
 44 33  1  0  0  0  0
 45 34  1  0  0  0  0
M  END
$$$$
