EDF.pdb
 OpenBabel07022418173D

 51 51  0  0  1  0  0  0  0  0999 V2000
    3.2160    0.4660   -1.0500 N   0  0  0  0  0  0  0  0  0  0  0  0
    3.6450   -0.6350   -0.2490 C   0  0  1  0  0  0  0  0  0  0  0  0
    5.1060   -0.4770    0.0610 C   0  0  0  0  0  0  0  0  0  0  0  0
    5.3290    0.8210    0.7790 C   0  0  0  0  0  0  0  0  0  0  0  0
    4.6460    0.9330    2.0530 C   0  0  0  0  0  0  0  0  0  0  0  0
    4.8150    0.1210    2.9910 O   0  0  0  0  0  0  0  0  0  0  0  0
    2.8510   -0.9610    0.9220 C   0  0  0  0  0  0  0  0  0  0  0  0
    3.2110   -1.9990    1.5770 O   0  0  0  0  0  0  0  0  0  0  0  0
    3.7350    1.9710    2.3290 O   0  0  0  0  0  0  0  0  0  0  0  0
    3.2180    0.3360   -2.0620 H   0  0  0  0  0  0  0  0  0  0  0  0
    2.5730    1.1340   -0.6350 H   0  0  0  0  0  0  0  0  0  0  0  0
    3.6160   -1.5490   -0.9540 H   0  0  0  0  0  0  0  0  0  0  0  0
    5.4440   -1.2910    0.7650 H   0  0  0  0  0  0  0  0  0  0  0  0
    5.7290   -0.5420   -0.8670 H   0  0  0  0  0  0  0  0  0  0  0  0
    4.9840    1.6720    0.1150 H   0  0  0  0  0  0  0  0  0  0  0  0
    6.4480    0.9800    0.8710 H   0  0  0  0  0  0  0  0  0  0  0  0
    3.5820    2.2840    3.2860 H   0  0  0  0  0  0  0  0  0  0  0  0
    1.7240   -0.2700    1.4290 N   0  0  0  0  0  0  0  0  0  0  0  0
    0.9940   -0.6750    2.6120 C   0  0  1  0  0  0  0  0  0  0  0  0
    0.9240    0.3540    3.6860 C   0  0  0  0  0  0  0  0  0  0  0  0
    0.2770    1.6020    3.2960 C   0  0  0  0  0  0  0  0  0  0  0  0
   -0.1780    1.7750    2.1470 O   0  0  0  0  0  0  0  0  0  0  0  0
   -0.3280   -1.2300    2.2290 C   0  0  0  0  0  0  0  0  0  0  0  0
   -1.1670   -1.6330    3.0780 O   0  0  0  0  0  0  0  0  0  0  0  0
    0.1640    2.6270    4.2280 O   0  0  0  0  0  0  0  0  0  0  0  0
    1.4040    0.5770    0.9180 H   0  0  0  0  0  0  0  0  0  0  0  0
    1.5580   -1.5610    3.0210 H   0  0  0  0  0  0  0  0  0  0  0  0
    1.9650    0.5030    4.0700 H   0  0  0  0  0  0  0  0  0  0  0  0
    0.3700   -0.1110    4.5390 H   0  0  0  0  0  0  0  0  0  0  0  0
   -0.3320    3.4940    4.0250 H   0  0  0  0  0  0  0  0  0  0  0  0
   -0.6700   -1.3170    0.8590 N   0  0  0  0  0  0  0  0  0  0  0  0
   -1.9470   -1.8480    0.3710 C   0  0  1  0  0  0  0  0  0  0  0  0
   -2.6840   -0.8210   -0.4290 C   0  0  0  0  0  0  0  0  0  0  0  0
   -3.9740   -1.2950   -0.9470 C   0  0  0  0  0  0  0  0  0  0  0  0
   -5.1390   -1.1840   -0.2230 C   0  0  0  0  0  0  0  0  0  0  0  0
   -6.3540   -1.6340   -0.7600 C   0  0  0  0  0  0  0  0  0  0  0  0
   -6.4000   -2.1880   -2.0060 C   0  0  0  0  0  0  0  0  0  0  0  0
   -5.2470   -2.3040   -2.7370 C   0  0  0  0  0  0  0  0  0  0  0  0
   -4.0400   -1.8540   -2.1970 C   0  0  0  0  0  0  0  0  0  0  0  0
   -1.7610   -3.1450   -0.3050 C   0  0  0  0  0  0  0  0  0  0  0  0
   -0.6280   -3.6840   -0.4690 O   0  0  0  0  0  0  0  0  0  0  0  0
   -2.8500   -3.8390   -0.7940 O   0  0  0  0  0  0  0  0  0  0  0  0
    0.0320   -0.9800    0.1360 H   0  0  0  0  0  0  0  0  0  0  0  0
   -2.5330   -2.0730    1.2900 H   0  0  0  0  0  0  0  0  0  0  0  0
   -2.8720    0.1150    0.1400 H   0  0  0  0  0  0  0  0  0  0  0  0
   -2.0790   -0.4790   -1.3210 H   0  0  0  0  0  0  0  0  0  0  0  0
   -5.0990   -0.7510    0.7470 H   0  0  0  0  0  0  0  0  0  0  0  0
   -7.2740   -1.5460   -0.1880 H   0  0  0  0  0  0  0  0  0  0  0  0
   -7.3730   -2.5250   -2.3790 H   0  0  0  0  0  0  0  0  0  0  0  0
   -5.3130   -2.7470   -3.7220 H   0  0  0  0  0  0  0  0  0  0  0  0
   -3.1580   -1.9560   -2.7840 H   0  0  0  0  0  0  0  0  0  0  0  0
  1 11  1  0  0  0  0
  1  2  1  0  0  0  0
  2 12  1  6  0  0  0
  2  3  1  0  0  0  0
  2  7  1  0  0  0  0
  3 13  1  0  0  0  0
  3  4  1  0  0  0  0
  4 16  1  0  0  0  0
  4  5  1  0  0  0  0
  5  9  1  0  0  0  0
  5  6  2  0  0  0  0
  7 18  1  0  0  0  0
  7  8  2  0  0  0  0
  9 17  1  0  0  0  0
 10  1  1  0  0  0  0
 14  3  1  0  0  0  0
 15  4  1  0  0  0  0
 18 19  1  0  0  0  0
 19 27  1  1  0  0  0
 19 20  1  0  0  0  0
 20 28  1  0  0  0  0
 20 29  1  0  0  0  0
 21 20  1  0  0  0  0
 21 25  1  0  0  0  0
 22 21  2  0  0  0  0
 23 19  1  0  0  0  0
 23 24  2  0  0  0  0
 26 18  1  0  0  0  0
 30 25  1  0  0  0  0
 31 23  1  0  0  0  0
 32 31  1  0  0  0  0
 32 44  1  1  0  0  0
 33 45  1  0  0  0  0
 33 32  1  0  0  0  0
 34 33  1  0  0  0  0
 34 35  1  0  0  0  0
 35 47  1  0  0  0  0
 36 35  2  0  0  0  0
 36 48  1  0  0  0  0
 37 36  1  0  0  0  0
 38 39  1  0  0  0  0
 38 37  2  0  0  0  0
 39 34  2  0  0  0  0
 40 32  1  0  0  0  0
 41 40  1  0  0  0  0
 42 40  2  0  0  0  0
 43 31  1  0  0  0  0
 46 33  1  0  0  0  0
 49 37  1  0  0  0  0
 50 38  1  0  0  0  0
 51 39  1  0  0  0  0
M  END
$$$$
