EDH.pdb
 OpenBabel07022418173D

 48 48  0  0  1  0  0  0  0  0999 V2000
    2.0250   -3.3600    3.4330 N   0  0  0  0  0  0  0  0  0  0  0  0
    1.3920   -2.0800    3.4850 C   0  0  1  0  0  0  0  0  0  0  0  0
    2.2960   -1.0790    4.1750 C   0  0  0  0  0  0  0  0  0  0  0  0
    3.6010   -0.9220    3.4520 C   0  0  0  0  0  0  0  0  0  0  0  0
    4.4340    0.0660    4.1740 C   0  0  0  0  0  0  0  0  0  0  0  0
    3.9890    0.6030    5.2080 O   0  0  0  0  0  0  0  0  0  0  0  0
    1.0600   -1.6130    2.1040 C   0  0  0  0  0  0  0  0  0  0  0  0
    1.3530   -2.3430    1.1300 O   0  0  0  0  0  0  0  0  0  0  0  0
    5.7110    0.4150    3.7280 O   0  0  0  0  0  0  0  0  0  0  0  0
    2.3670   -3.6200    2.4920 H   0  0  0  0  0  0  0  0  0  0  0  0
    1.4670   -4.0940    3.9060 H   0  0  0  0  0  0  0  0  0  0  0  0
    0.4550   -2.1300    4.0410 H   0  0  0  0  0  0  0  0  0  0  0  0
    2.5310   -1.5100    5.1790 H   0  0  0  0  0  0  0  0  0  0  0  0
    1.8080   -0.1090    4.2980 H   0  0  0  0  0  0  0  0  0  0  0  0
    4.1540   -1.9000    3.4730 H   0  0  0  0  0  0  0  0  0  0  0  0
    3.4690   -0.6580    2.3810 H   0  0  0  0  0  0  0  0  0  0  0  0
    6.4430    0.6440    4.3810 H   0  0  0  0  0  0  0  0  0  0  0  0
    0.4200   -0.3600    1.8750 N   0  0  0  0  0  0  0  0  0  0  0  0
    0.0600    0.1630    0.5900 C   0  0  1  0  0  0  0  0  0  0  0  0
    1.2160    0.7300   -0.1910 C   0  0  0  0  0  0  0  0  0  0  0  0
    1.8320    1.8540    0.5940 C   0  0  0  0  0  0  0  0  0  0  0  0
    2.8130    2.4940    0.1650 O   0  0  0  0  0  0  0  0  0  0  0  0
   -0.7010   -0.7910   -0.2620 C   0  0  0  0  0  0  0  0  0  0  0  0
   -0.9990   -1.9150    0.1990 O   0  0  0  0  0  0  0  0  0  0  0  0
    1.3070    2.2000    1.8310 O   0  0  0  0  0  0  0  0  0  0  0  0
    0.2220    0.1810    2.7750 H   0  0  0  0  0  0  0  0  0  0  0  0
   -0.6340    1.0410    0.8130 H   0  0  0  0  0  0  0  0  0  0  0  0
    1.9610   -0.0270   -0.4600 H   0  0  0  0  0  0  0  0  0  0  0  0
    0.8170    1.1910   -1.1130 H   0  0  0  0  0  0  0  0  0  0  0  0
    1.3400    3.1500    2.1940 H   0  0  0  0  0  0  0  0  0  0  0  0
   -1.1080   -0.4870   -1.5820 N   0  0  0  0  0  0  0  0  0  0  0  0
   -1.8350   -1.4530   -2.3390 C   0  0  1  0  0  0  0  0  0  0  0  0
   -3.2070   -0.9810   -2.7630 C   0  0  0  0  0  0  0  0  0  0  0  0
   -4.0420   -0.6520   -1.5520 C   0  0  0  0  0  0  0  0  0  0  0  0
   -4.1390    0.5610   -0.9130 C   0  0  0  0  0  0  0  0  0  0  0  0
   -4.9830    0.4700    0.1300 N   0  0  0  0  0  0  0  0  0  0  0  0
   -5.3950   -0.8080    0.1170 C   0  0  0  0  0  0  0  0  0  0  0  0
   -4.8420   -1.5010   -0.8850 N   0  0  0  0  0  0  0  0  0  0  0  0
   -1.0360   -1.8530   -3.5240 C   0  0  0  0  0  0  0  0  0  0  0  0
    0.0960   -1.3430   -3.7180 O   0  0  0  0  0  0  0  0  0  0  0  0
   -1.5000   -2.7880   -4.4480 O   0  0  0  0  0  0  0  0  0  0  0  0
   -0.8650    0.4450   -1.9720 H   0  0  0  0  0  0  0  0  0  0  0  0
   -2.0080   -2.4010   -1.7600 H   0  0  0  0  0  0  0  0  0  0  0  0
   -3.1790   -0.1560   -3.4800 H   0  0  0  0  0  0  0  0  0  0  0  0
   -3.7250   -1.8290   -3.2550 H   0  0  0  0  0  0  0  0  0  0  0  0
   -3.5950    1.4610   -1.2300 H   0  0  0  0  0  0  0  0  0  0  0  0
   -5.2260    1.2460    0.7720 H   0  0  0  0  0  0  0  0  0  0  0  0
   -6.0920   -1.1990    0.8460 H   0  0  0  0  0  0  0  0  0  0  0  0
  1  2  1  0  0  0  0
  1 11  1  0  0  0  0
  2 12  1  1  0  0  0
  2  3  1  0  0  0  0
  3 14  1  0  0  0  0
  3 13  1  0  0  0  0
  4 15  1  0  0  0  0
  4  5  1  0  0  0  0
  4  3  1  0  0  0  0
  5  6  2  0  0  0  0
  7  2  1  0  0  0  0
  8  7  2  0  0  0  0
  9  5  1  0  0  0  0
  9 17  1  0  0  0  0
 10  1  1  0  0  0  0
 16  4  1  0  0  0  0
 18  7  1  0  0  0  0
 18 26  1  0  0  0  0
 19 27  1  1  0  0  0
 19 18  1  0  0  0  0
 20 19  1  0  0  0  0
 20 21  1  0  0  0  0
 21 25  1  0  0  0  0
 22 21  2  0  0  0  0
 23 24  2  0  0  0  0
 23 19  1  0  0  0  0
 25 30  1  0  0  0  0
 28 20  1  0  0  0  0
 29 20  1  0  0  0  0
 31 23  1  0  0  0  0
 32 43  1  1  0  0  0
 32 31  1  0  0  0  0
 33 32  1  0  0  0  0
 33 34  1  0  0  0  0
 34 35  2  0  0  0  0
 34 38  1  0  0  0  0
 35 36  1  0  0  0  0
 36 47  1  0  0  0  0
 37 36  1  0  0  0  0
 37 48  1  0  0  0  0
 38 37  2  0  0  0  0
 39 32  1  0  0  0  0
 40 39  1  0  0  0  0
 41 39  2  0  0  0  0
 42 31  1  0  0  0  0
 44 33  1  0  0  0  0
 45 33  1  0  0  0  0
 46 35  1  0  0  0  0
M  END
$$$$
