EDK.pdb
 OpenBabel07022418173D

 52 51  0  0  1  0  0  0  0  0999 V2000
    3.9470   -1.2630    2.2160 N   0  0  0  0  0  0  0  0  0  0  0  0
    3.2110   -0.2410    1.4530 C   0  0  1  0  0  0  0  0  0  0  0  0
    3.3710   -0.6010    0.0150 C   0  0  0  0  0  0  0  0  0  0  0  0
    2.7050    0.3060   -0.9610 C   0  0  0  0  0  0  0  0  0  0  0  0
    3.1680    1.6930   -0.9160 C   0  0  0  0  0  0  0  0  0  0  0  0
    4.0410    2.0870   -0.1340 O   0  0  0  0  0  0  0  0  0  0  0  0
    1.7890   -0.3420    1.9020 C   0  0  0  0  0  0  0  0  0  0  0  0
    0.9770    0.4280    1.3870 O   0  0  0  0  0  0  0  0  0  0  0  0
    2.6140    2.6280   -1.7850 O   0  0  0  0  0  0  0  0  0  0  0  0
    3.9670   -1.0400    3.2330 H   0  0  0  0  0  0  0  0  0  0  0  0
    3.6580   -2.2160    1.9760 H   0  0  0  0  0  0  0  0  0  0  0  0
    3.6680    0.7320    1.7160 H   0  0  0  0  0  0  0  0  0  0  0  0
    4.4560   -0.7460   -0.1900 H   0  0  0  0  0  0  0  0  0  0  0  0
    2.9310   -1.6340   -0.1050 H   0  0  0  0  0  0  0  0  0  0  0  0
    2.9200   -0.1060   -1.9840 H   0  0  0  0  0  0  0  0  0  0  0  0
    1.6060    0.2300   -0.8510 H   0  0  0  0  0  0  0  0  0  0  0  0
    3.1970    3.4060   -2.1280 H   0  0  0  0  0  0  0  0  0  0  0  0
    1.3540   -1.2790    2.8840 N   0  0  0  0  0  0  0  0  0  0  0  0
   -0.0150   -1.3750    3.3060 C   0  0  1  0  0  0  0  0  0  0  0  0
   -0.5120   -0.3120    4.2010 C   0  0  0  0  0  0  0  0  0  0  0  0
   -0.4720    1.0610    3.7230 C   0  0  0  0  0  0  0  0  0  0  0  0
    0.5060    1.8180    4.0450 O   0  0  0  0  0  0  0  0  0  0  0  0
   -0.9420   -1.7390    2.1840 C   0  0  0  0  0  0  0  0  0  0  0  0
   -2.1790   -1.7280    2.3810 O   0  0  0  0  0  0  0  0  0  0  0  0
   -1.4510    1.6200    2.9160 O   0  0  0  0  0  0  0  0  0  0  0  0
    2.1240   -1.9060    3.2830 H   0  0  0  0  0  0  0  0  0  0  0  0
   -0.0210   -2.3320    3.9640 H   0  0  0  0  0  0  0  0  0  0  0  0
   -1.5680   -0.5260    4.5500 H   0  0  0  0  0  0  0  0  0  0  0  0
    0.0790   -0.3960    5.1650 H   0  0  0  0  0  0  0  0  0  0  0  0
   -1.3170    2.5150    2.4640 H   0  0  0  0  0  0  0  0  0  0  0  0
   -0.4860   -2.1000    0.9090 N   0  0  0  0  0  0  0  0  0  0  0  0
   -1.3020   -2.4580   -0.2070 C   0  0  1  0  0  0  0  0  0  0  0  0
   -1.2510   -1.6080   -1.4120 C   0  0  0  0  0  0  0  0  0  0  0  0
   -1.6480   -0.1850   -1.2610 C   0  0  0  0  0  0  0  0  0  0  0  0
   -3.0260    0.0820   -0.7930 C   0  0  0  0  0  0  0  0  0  0  0  0
   -4.1380   -0.4380   -1.6370 C   0  0  0  0  0  0  0  0  0  0  0  0
   -5.4290   -0.1070   -1.0590 N   0  0  0  0  0  0  0  0  0  0  0  0
   -1.1300   -3.8760   -0.6180 C   0  0  0  0  0  0  0  0  0  0  0  0
   -1.7800   -4.3310   -1.5910 O   0  0  0  0  0  0  0  0  0  0  0  0
   -0.2660   -4.7610    0.0270 O   0  0  0  0  0  0  0  0  0  0  0  0
    0.5450   -2.1250    0.7550 H   0  0  0  0  0  0  0  0  0  0  0  0
   -2.3700   -2.3970    0.1680 H   0  0  0  0  0  0  0  0  0  0  0  0
   -0.1820   -1.6020   -1.7840 H   0  0  0  0  0  0  0  0  0  0  0  0
   -1.7850   -2.1460   -2.2290 H   0  0  0  0  0  0  0  0  0  0  0  0
   -1.4850    0.3130   -2.2470 H   0  0  0  0  0  0  0  0  0  0  0  0
   -0.9180    0.2900   -0.5740 H   0  0  0  0  0  0  0  0  0  0  0  0
   -3.1650    1.1790   -0.6800 H   0  0  0  0  0  0  0  0  0  0  0  0
   -3.1560   -0.3310    0.2300 H   0  0  0  0  0  0  0  0  0  0  0  0
   -4.1360    0.0510   -2.6500 H   0  0  0  0  0  0  0  0  0  0  0  0
   -4.1340   -1.5110   -1.8240 H   0  0  0  0  0  0  0  0  0  0  0  0
   -5.2820    0.7370   -0.4620 H   0  0  0  0  0  0  0  0  0  0  0  0
   -5.8070   -0.8550   -0.4490 H   0  0  0  0  0  0  0  0  0  0  0  0
  1 10  1  0  0  0  0
  2 12  1  1  0  0  0
  2  7  1  0  0  0  0
  2  1  1  0  0  0  0
  3  2  1  0  0  0  0
  4  5  1  0  0  0  0
  4 16  1  0  0  0  0
  4  3  1  0  0  0  0
  5  6  2  0  0  0  0
  7 18  1  0  0  0  0
  8  7  2  0  0  0  0
  9  5  1  0  0  0  0
 11  1  1  0  0  0  0
 13  3  1  0  0  0  0
 14  3  1  0  0  0  0
 15  4  1  0  0  0  0
 17  9  1  0  0  0  0
 18 26  1  0  0  0  0
 18 19  1  0  0  0  0
 19 27  1  1  0  0  0
 19 20  1  0  0  0  0
 20 28  1  0  0  0  0
 20 29  1  0  0  0  0
 21 22  2  0  0  0  0
 21 20  1  0  0  0  0
 23 24  2  0  0  0  0
 23 19  1  0  0  0  0
 25 21  1  0  0  0  0
 30 25  1  0  0  0  0
 31 23  1  0  0  0  0
 32 42  1  1  0  0  0
 32 31  1  0  0  0  0
 33 34  1  0  0  0  0
 33 32  1  0  0  0  0
 34 35  1  0  0  0  0
 34 46  1  0  0  0  0
 35 47  1  0  0  0  0
 35 48  1  0  0  0  0
 36 37  1  0  0  0  0
 36 35  1  0  0  0  0
 37 51  1  0  0  0  0
 37 52  1  0  0  0  0
 38 32  1  0  0  0  0
 38 40  1  0  0  0  0
 39 38  2  0  0  0  0
 41 31  1  0  0  0  0
 43 33  1  0  0  0  0
 44 33  1  0  0  0  0
 45 34  1  0  0  0  0
 49 36  1  0  0  0  0
 50 36  1  0  0  0  0
M  END
$$$$
