EDM.pdb
 OpenBabel07022418173D

 48 47  0  0  1  0  0  0  0  0999 V2000
    1.6480   -3.0770    2.3610 N   0  0  0  0  0  0  0  0  0  0  0  0
    2.2660   -1.9200    3.0670 C   0  0  1  0  0  0  0  0  0  0  0  0
    3.6890   -1.9550    2.6650 C   0  0  0  0  0  0  0  0  0  0  0  0
    4.6220   -0.9270    3.1750 C   0  0  0  0  0  0  0  0  0  0  0  0
    4.3680    0.4630    2.8210 C   0  0  0  0  0  0  0  0  0  0  0  0
    4.2220    1.4170    3.5960 O   0  0  0  0  0  0  0  0  0  0  0  0
    1.4790   -0.7490    2.7470 C   0  0  0  0  0  0  0  0  0  0  0  0
    1.4880    0.2370    3.5530 O   0  0  0  0  0  0  0  0  0  0  0  0
    4.2790    0.7660    1.4490 O   0  0  0  0  0  0  0  0  0  0  0  0
    1.7780   -2.9110    1.3450 H   0  0  0  0  0  0  0  0  0  0  0  0
    0.6310   -3.1200    2.5670 H   0  0  0  0  0  0  0  0  0  0  0  0
    2.2010   -2.0960    4.1620 H   0  0  0  0  0  0  0  0  0  0  0  0
    4.0910   -2.9510    3.0610 H   0  0  0  0  0  0  0  0  0  0  0  0
    3.8100   -2.1080    1.5420 H   0  0  0  0  0  0  0  0  0  0  0  0
    4.7010   -0.9680    4.3040 H   0  0  0  0  0  0  0  0  0  0  0  0
    5.6600   -1.2500    2.8520 H   0  0  0  0  0  0  0  0  0  0  0  0
    3.9810    1.6390    1.0950 H   0  0  0  0  0  0  0  0  0  0  0  0
    0.6750   -0.5860    1.5900 N   0  0  0  0  0  0  0  0  0  0  0  0
   -0.0920    0.6440    1.3620 C   0  0  1  0  0  0  0  0  0  0  0  0
    0.5890    1.2830    0.1500 C   0  0  0  0  0  0  0  0  0  0  0  0
    0.0030    2.5530   -0.2610 C   0  0  0  0  0  0  0  0  0  0  0  0
    0.4190    3.0510   -1.3560 O   0  0  0  0  0  0  0  0  0  0  0  0
   -1.4800    0.2560    1.0120 C   0  0  0  0  0  0  0  0  0  0  0  0
   -2.3610    1.1570    0.7850 O   0  0  0  0  0  0  0  0  0  0  0  0
   -0.9540    3.2900    0.3960 O   0  0  0  0  0  0  0  0  0  0  0  0
    0.6120   -1.3230    0.8720 H   0  0  0  0  0  0  0  0  0  0  0  0
   -0.0180    1.3470    2.2010 H   0  0  0  0  0  0  0  0  0  0  0  0
    1.6790    1.4300    0.3760 H   0  0  0  0  0  0  0  0  0  0  0  0
    0.5570    0.5050   -0.6500 H   0  0  0  0  0  0  0  0  0  0  0  0
   -0.9990    4.2920    0.2750 H   0  0  0  0  0  0  0  0  0  0  0  0
   -1.8420   -0.5660   -4.6790 C   0  0  0  0  0  0  0  0  0  0  0  0
   -2.5890   -1.6910   -3.4700 S   0  0  0  0  0  0  0  0  0  0  0  0
   -2.6390   -0.9410   -1.8220 C   0  0  0  0  0  0  0  0  0  0  0  0
   -3.2640   -1.9430   -0.8760 C   0  0  0  0  0  0  0  0  0  0  0  0
   -3.3490   -1.3630    0.5380 C   0  0  2  0  0  0  0  0  0  0  0  0
   -1.9510   -1.0740    0.8950 N   0  0  0  0  0  0  0  0  0  0  0  0
   -3.8870   -2.3660    1.4440 C   0  0  0  0  0  0  0  0  0  0  0  0
   -5.0670   -2.7860    1.3260 O   0  0  0  0  0  0  0  0  0  0  0  0
   -3.1230   -2.8850    2.4570 O   0  0  0  0  0  0  0  0  0  0  0  0
   -1.9990    0.4850   -4.4030 H   0  0  0  0  0  0  0  0  0  0  0  0
   -0.7410   -0.8000   -4.6640 H   0  0  0  0  0  0  0  0  0  0  0  0
   -2.2180   -0.8400   -5.6830 H   0  0  0  0  0  0  0  0  0  0  0  0
   -1.6420   -0.6260   -1.4780 H   0  0  0  0  0  0  0  0  0  0  0  0
   -3.2790   -0.0360   -1.8800 H   0  0  0  0  0  0  0  0  0  0  0  0
   -4.2580   -2.2520   -1.2410 H   0  0  0  0  0  0  0  0  0  0  0  0
   -2.6050   -2.8320   -0.8880 H   0  0  0  0  0  0  0  0  0  0  0  0
   -3.9210   -0.4090    0.5200 H   0  0  0  0  0  0  0  0  0  0  0  0
   -1.2890   -1.8540    1.0720 H   0  0  0  0  0  0  0  0  0  0  0  0
  1 11  1  0  0  0  0
  1  2  1  0  0  0  0
  2 12  1  1  0  0  0
  3 13  1  0  0  0  0
  3  2  1  0  0  0  0
  3  4  1  0  0  0  0
  4 15  1  0  0  0  0
  5  4  1  0  0  0  0
  5  6  2  0  0  0  0
  7  2  1  0  0  0  0
  7  8  2  0  0  0  0
  9  5  1  0  0  0  0
 10  1  1  0  0  0  0
 14  3  1  0  0  0  0
 16  4  1  0  0  0  0
 17  9  1  0  0  0  0
 18  7  1  0  0  0  0
 19 18  1  0  0  0  0
 19 27  1  1  0  0  0
 20 28  1  0  0  0  0
 20 19  1  0  0  0  0
 21 20  1  0  0  0  0
 21 25  1  0  0  0  0
 22 21  2  0  0  0  0
 23 19  1  0  0  0  0
 24 23  2  0  0  0  0
 26 18  1  0  0  0  0
 29 20  1  0  0  0  0
 30 25  1  0  0  0  0
 31 41  1  0  0  0  0
 31 40  1  0  0  0  0
 31 32  1  0  0  0  0
 32 33  1  0  0  0  0
 33 43  1  0  0  0  0
 33 34  1  0  0  0  0
 34 35  1  0  0  0  0
 35 47  1  1  0  0  0
 35 36  1  0  0  0  0
 35 37  1  0  0  0  0
 36 23  1  0  0  0  0
 36 48  1  0  0  0  0
 37 39  1  0  0  0  0
 38 37  2  0  0  0  0
 42 31  1  0  0  0  0
 44 33  1  0  0  0  0
 45 34  1  0  0  0  0
 46 34  1  0  0  0  0
M  END
$$$$
