EDN.pdb
 OpenBabel07022418173D

 45 44  0  0  1  0  0  0  0  0999 V2000
    2.1200   -2.8900    0.3450 N   0  0  0  0  0  0  0  0  0  0  0  0
    2.9180   -1.9470    1.1410 C   0  0  1  0  0  0  0  0  0  0  0  0
    4.2630   -1.8610    0.5300 C   0  0  0  0  0  0  0  0  0  0  0  0
    5.2410   -0.9110    1.1400 C   0  0  0  0  0  0  0  0  0  0  0  0
    4.8990    0.5040    0.9880 C   0  0  0  0  0  0  0  0  0  0  0  0
    4.0240    0.9900    0.2380 O   0  0  0  0  0  0  0  0  0  0  0  0
    2.1990   -0.7270    1.4770 C   0  0  0  0  0  0  0  0  0  0  0  0
    2.5780   -0.0760    2.5140 O   0  0  0  0  0  0  0  0  0  0  0  0
    5.6240    1.4240    1.7630 O   0  0  0  0  0  0  0  0  0  0  0  0
    1.2450   -3.1040    0.8350 H   0  0  0  0  0  0  0  0  0  0  0  0
    1.9750   -2.4920   -0.6210 H   0  0  0  0  0  0  0  0  0  0  0  0
    3.0710   -2.5390    2.1180 H   0  0  0  0  0  0  0  0  0  0  0  0
    4.2370   -1.6570   -0.5700 H   0  0  0  0  0  0  0  0  0  0  0  0
    4.7490   -2.8890    0.5720 H   0  0  0  0  0  0  0  0  0  0  0  0
    5.3750   -1.1530    2.2320 H   0  0  0  0  0  0  0  0  0  0  0  0
    6.2450   -1.0710    0.6440 H   0  0  0  0  0  0  0  0  0  0  0  0
    5.7130    2.3960    1.4760 H   0  0  0  0  0  0  0  0  0  0  0  0
    1.1240   -0.2220    0.7440 N   0  0  0  0  0  0  0  0  0  0  0  0
    0.3990    1.0140    1.0950 C   0  0  1  0  0  0  0  0  0  0  0  0
    0.4930    1.9020   -0.0870 C   0  0  0  0  0  0  0  0  0  0  0  0
   -0.1400    3.2080    0.0020 C   0  0  0  0  0  0  0  0  0  0  0  0
   -0.1040    3.9370   -1.0430 O   0  0  0  0  0  0  0  0  0  0  0  0
   -1.0410    0.6490    1.3250 C   0  0  0  0  0  0  0  0  0  0  0  0
   -1.9060    1.4880    1.6720 O   0  0  0  0  0  0  0  0  0  0  0  0
   -0.7820    3.7610    1.0950 O   0  0  0  0  0  0  0  0  0  0  0  0
    0.8040   -0.7360   -0.1020 H   0  0  0  0  0  0  0  0  0  0  0  0
    0.8470    1.4880    1.9800 H   0  0  0  0  0  0  0  0  0  0  0  0
    1.5750    2.0690   -0.3450 H   0  0  0  0  0  0  0  0  0  0  0  0
    0.0250    1.3800   -0.9760 H   0  0  0  0  0  0  0  0  0  0  0  0
   -0.7420    4.7700    1.2620 H   0  0  0  0  0  0  0  0  0  0  0  0
   -5.2900   -2.2490   -1.3680 N   0  0  0  0  0  0  0  0  0  0  0  0
   -4.8070   -1.8160   -0.0950 C   0  0  0  0  0  0  0  0  0  0  0  0
   -5.6090   -1.8050    0.8460 O   0  0  0  0  0  0  0  0  0  0  0  0
   -3.4050   -1.4210   -0.0060 C   0  0  0  0  0  0  0  0  0  0  0  0
   -2.9130   -1.0700    1.3770 C   0  0  2  0  0  0  0  0  0  0  0  0
   -1.4930   -0.6810    1.1570 N   0  0  0  0  0  0  0  0  0  0  0  0
   -2.9710   -2.2380    2.2480 C   0  0  0  0  0  0  0  0  0  0  0  0
   -1.9040   -2.7770    2.6500 O   0  0  0  0  0  0  0  0  0  0  0  0
   -4.1600   -2.7810    2.6550 O   0  0  0  0  0  0  0  0  0  0  0  0
   -5.1990   -1.6840   -2.2400 H   0  0  0  0  0  0  0  0  0  0  0  0
   -5.7580   -3.1740   -1.4410 H   0  0  0  0  0  0  0  0  0  0  0  0
   -2.7970   -2.2460   -0.4600 H   0  0  0  0  0  0  0  0  0  0  0  0
   -3.2100   -0.5240   -0.6640 H   0  0  0  0  0  0  0  0  0  0  0  0
   -3.5120   -0.2170    1.7170 H   0  0  0  0  0  0  0  0  0  0  0  0
   -0.8460   -1.4350    0.8730 H   0  0  0  0  0  0  0  0  0  0  0  0
  1 10  1  0  0  0  0
  1  2  1  0  0  0  0
  2  7  1  0  0  0  0
  2 12  1  1  0  0  0
  3 14  1  0  0  0  0
  3  4  1  0  0  0  0
  3  2  1  0  0  0  0
  4 15  1  0  0  0  0
  5  4  1  0  0  0  0
  5  9  1  0  0  0  0
  6  5  2  0  0  0  0
  7  8  2  0  0  0  0
 11  1  1  0  0  0  0
 13  3  1  0  0  0  0
 16  4  1  0  0  0  0
 17  9  1  0  0  0  0
 18 19  1  0  0  0  0
 18  7  1  0  0  0  0
 19 23  1  0  0  0  0
 19 27  1  1  0  0  0
 20 21  1  0  0  0  0
 20 19  1  0  0  0  0
 21 25  1  0  0  0  0
 22 21  2  0  0  0  0
 23 24  2  0  0  0  0
 25 30  1  0  0  0  0
 26 18  1  0  0  0  0
 28 20  1  0  0  0  0
 29 20  1  0  0  0  0
 31 32  1  0  0  0  0
 32 34  1  0  0  0  0
 32 33  2  0  0  0  0
 34 35  1  0  0  0  0
 35 44  1  1  0  0  0
 35 37  1  0  0  0  0
 36 23  1  0  0  0  0
 36 35  1  0  0  0  0
 37 38  2  0  0  0  0
 37 39  1  0  0  0  0
 40 31  1  0  0  0  0
 41 31  1  0  0  0  0
 42 34  1  0  0  0  0
 43 34  1  0  0  0  0
 45 36  1  0  0  0  0
M  END
$$$$
