EDP.pdb
 OpenBabel07022418173D

 45 45  0  0  1  0  0  0  0  0999 V2000
   -0.5550   -2.9290    1.0570 N   0  0  0  0  0  0  0  0  0  0  0  0
    0.3980   -2.4970    2.1140 C   0  0  1  0  0  0  0  0  0  0  0  0
    1.4460   -3.5320    2.1360 C   0  0  0  0  0  0  0  0  0  0  0  0
    2.5750   -3.5290    3.0600 C   0  0  0  0  0  0  0  0  0  0  0  0
    3.5540   -2.4520    3.0340 C   0  0  0  0  0  0  0  0  0  0  0  0
    3.6980   -1.5600    3.9230 O   0  0  0  0  0  0  0  0  0  0  0  0
    0.7830   -1.1250    1.9140 C   0  0  0  0  0  0  0  0  0  0  0  0
    1.2610   -0.4210    2.8300 O   0  0  0  0  0  0  0  0  0  0  0  0
    4.4410   -2.3440    1.9560 O   0  0  0  0  0  0  0  0  0  0  0  0
   -0.1370   -3.0090    0.1370 H   0  0  0  0  0  0  0  0  0  0  0  0
   -1.0600   -3.7860    1.3740 H   0  0  0  0  0  0  0  0  0  0  0  0
   -0.2130   -2.5750    3.0570 H   0  0  0  0  0  0  0  0  0  0  0  0
    1.9220   -3.5040    1.0770 H   0  0  0  0  0  0  0  0  0  0  0  0
    0.9330   -4.5700    2.1310 H   0  0  0  0  0  0  0  0  0  0  0  0
    3.1860   -4.4850    2.8340 H   0  0  0  0  0  0  0  0  0  0  0  0
    2.2630   -3.6610    4.1470 H   0  0  0  0  0  0  0  0  0  0  0  0
    5.3710   -1.9440    2.0450 H   0  0  0  0  0  0  0  0  0  0  0  0
    0.6500   -0.4460    0.6630 N   0  0  0  0  0  0  0  0  0  0  0  0
    0.9870    0.8880    0.3910 C   0  0  1  0  0  0  0  0  0  0  0  0
    2.1590    1.1300   -0.5320 C   0  0  0  0  0  0  0  0  0  0  0  0
    3.3790    0.5100    0.0830 C   0  0  0  0  0  0  0  0  0  0  0  0
    3.9190   -0.4770   -0.4150 O   0  0  0  0  0  0  0  0  0  0  0  0
   -0.1050    1.7850   -0.0010 C   0  0  0  0  0  0  0  0  0  0  0  0
    0.2440    2.9830   -0.2810 O   0  0  0  0  0  0  0  0  0  0  0  0
    3.9050    1.0750    1.2520 O   0  0  0  0  0  0  0  0  0  0  0  0
    0.2630   -1.0370   -0.1230 H   0  0  0  0  0  0  0  0  0  0  0  0
    1.3520    1.3230    1.3910 H   0  0  0  0  0  0  0  0  0  0  0  0
    2.3550    2.2250   -0.5130 H   0  0  0  0  0  0  0  0  0  0  0  0
    1.9880    0.8460   -1.5650 H   0  0  0  0  0  0  0  0  0  0  0  0
    4.7490    0.7130    1.6790 H   0  0  0  0  0  0  0  0  0  0  0  0
   -1.4800    1.4970   -0.1070 N   0  0  0  0  0  0  0  0  0  0  0  0
   -2.4670    2.4820   -0.5270 C   0  0  0  0  0  0  0  0  0  0  0  0
   -3.8000    1.8260   -0.4600 C   0  0  0  0  0  0  0  0  0  0  0  0
   -3.5560    0.7670    0.5950 C   0  0  0  0  0  0  0  0  0  0  0  0
   -2.1770    0.2690    0.1500 C   0  0  1  0  0  0  0  0  0  0  0  0
   -2.4000   -0.4370   -1.1430 C   0  0  0  0  0  0  0  0  0  0  0  0
   -2.0270    0.0960   -2.2270 O   0  0  0  0  0  0  0  0  0  0  0  0
   -3.0120   -1.6810   -1.2060 O   0  0  0  0  0  0  0  0  0  0  0  0
   -2.3180    2.8300   -1.5660 H   0  0  0  0  0  0  0  0  0  0  0  0
   -2.4750    3.3870    0.1300 H   0  0  0  0  0  0  0  0  0  0  0  0
   -4.0120    1.2830   -1.4240 H   0  0  0  0  0  0  0  0  0  0  0  0
   -4.6300    2.5090   -0.2170 H   0  0  0  0  0  0  0  0  0  0  0  0
   -4.3100   -0.0450    0.5470 H   0  0  0  0  0  0  0  0  0  0  0  0
   -3.4740    1.2360    1.5770 H   0  0  0  0  0  0  0  0  0  0  0  0
   -1.7390   -0.3760    0.9270 H   0  0  0  0  0  0  0  0  0  0  0  0
  1 11  1  0  0  0  0
  1  2  1  0  0  0  0
  2  3  1  0  0  0  0
  2 12  1  1  0  0  0
  3  4  1  0  0  0  0
  4 16  1  0  0  0  0
  5  4  1  0  0  0  0
  5  6  2  0  0  0  0
  7  2  1  0  0  0  0
  7  8  2  0  0  0  0
  9 17  1  0  0  0  0
  9  5  1  0  0  0  0
 10  1  1  0  0  0  0
 13  3  1  0  0  0  0
 14  3  1  0  0  0  0
 15  4  1  0  0  0  0
 18  7  1  0  0  0  0
 19 18  1  0  0  0  0
 19 27  1  1  0  0  0
 20 28  1  0  0  0  0
 20 21  1  0  0  0  0
 20 19  1  0  0  0  0
 21 25  1  0  0  0  0
 22 21  2  0  0  0  0
 23 19  1  0  0  0  0
 24 23  2  0  0  0  0
 25 30  1  0  0  0  0
 26 18  1  0  0  0  0
 29 20  1  0  0  0  0
 31 23  1  0  0  0  0
 31 35  1  0  0  0  0
 32 33  1  0  0  0  0
 32 31  1  0  0  0  0
 32 40  1  0  0  0  0
 33 42  1  0  0  0  0
 33 34  1  0  0  0  0
 34 44  1  0  0  0  0
 35 34  1  0  0  0  0
 35 45  1  1  0  0  0
 36 35  1  0  0  0  0
 37 36  2  0  0  0  0
 38 36  1  0  0  0  0
 39 32  1  0  0  0  0
 41 33  1  0  0  0  0
 43 34  1  0  0  0  0
M  END
$$$$
