EDQ.pdb
 OpenBabel07022418173D

 48 47  0  0  1  0  0  0  0  0999 V2000
    3.2720   -0.7710    0.4870 N   0  0  0  0  0  0  0  0  0  0  0  0
    2.8390   -0.7230    1.8520 C   0  0  1  0  0  0  0  0  0  0  0  0
    3.7810    0.0530    2.7440 C   0  0  0  0  0  0  0  0  0  0  0  0
    3.9450    1.4750    2.3230 C   0  0  0  0  0  0  0  0  0  0  0  0
    4.8850    2.1410    3.2620 C   0  0  0  0  0  0  0  0  0  0  0  0
    5.4000    1.5150    4.2230 O   0  0  0  0  0  0  0  0  0  0  0  0
    1.4370   -0.2510    1.9930 C   0  0  0  0  0  0  0  0  0  0  0  0
    0.8950   -0.1490    3.1220 O   0  0  0  0  0  0  0  0  0  0  0  0
    5.2430    3.4780    3.1320 O   0  0  0  0  0  0  0  0  0  0  0  0
    2.8850   -1.6260    0.0500 H   0  0  0  0  0  0  0  0  0  0  0  0
    4.3240   -0.9050    0.5080 H   0  0  0  0  0  0  0  0  0  0  0  0
    2.8590   -1.7810    2.2370 H   0  0  0  0  0  0  0  0  0  0  0  0
    3.3140    0.0450    3.7680 H   0  0  0  0  0  0  0  0  0  0  0  0
    4.7580   -0.4200    2.8470 H   0  0  0  0  0  0  0  0  0  0  0  0
    4.4120    1.5270    1.3180 H   0  0  0  0  0  0  0  0  0  0  0  0
    2.9830    2.0490    2.3530 H   0  0  0  0  0  0  0  0  0  0  0  0
    5.4650    3.9780    3.9850 H   0  0  0  0  0  0  0  0  0  0  0  0
    0.6290    0.1110    0.8680 N   0  0  0  0  0  0  0  0  0  0  0  0
   -0.7300    0.5690    1.0000 C   0  0  1  0  0  0  0  0  0  0  0  0
   -0.8240    1.9870    0.5290 C   0  0  0  0  0  0  0  0  0  0  0  0
   -0.4530    2.2140   -0.8670 C   0  0  0  0  0  0  0  0  0  0  0  0
   -0.1020    1.2660   -1.5990 O   0  0  0  0  0  0  0  0  0  0  0  0
   -1.6910   -0.3070    0.2820 C   0  0  0  0  0  0  0  0  0  0  0  0
   -2.9120   -0.0230    0.3110 O   0  0  0  0  0  0  0  0  0  0  0  0
   -0.4840    3.4880   -1.4020 O   0  0  0  0  0  0  0  0  0  0  0  0
    1.0880    0.0200   -0.0600 H   0  0  0  0  0  0  0  0  0  0  0  0
   -1.0540    0.5860    2.0790 H   0  0  0  0  0  0  0  0  0  0  0  0
   -1.8640    2.3590    0.7590 H   0  0  0  0  0  0  0  0  0  0  0  0
   -0.1430    2.6050    1.1840 H   0  0  0  0  0  0  0  0  0  0  0  0
   -0.5160    3.6810   -2.4000 H   0  0  0  0  0  0  0  0  0  0  0  0
   -3.2790   -4.7030    2.3070 N   0  0  0  0  0  0  0  0  0  0  0  0
   -3.2870   -4.3030    0.9500 C   0  0  0  0  0  0  0  0  0  0  0  0
   -2.9230   -5.0690    0.0450 O   0  0  0  0  0  0  0  0  0  0  0  0
   -3.7510   -2.9240    0.6330 C   0  0  0  0  0  0  0  0  0  0  0  0
   -3.4780   -2.4880   -0.7600 C   0  0  0  0  0  0  0  0  0  0  0  0
   -2.0140   -2.3970   -1.1430 C   0  0  2  0  0  0  0  0  0  0  0  0
   -1.2520   -1.4330   -0.4170 N   0  0  0  0  0  0  0  0  0  0  0  0
   -1.9110   -2.3360   -2.6010 C   0  0  0  0  0  0  0  0  0  0  0  0
   -1.1840   -1.4700   -3.1400 O   0  0  0  0  0  0  0  0  0  0  0  0
   -2.6040   -3.2180   -3.4070 O   0  0  0  0  0  0  0  0  0  0  0  0
   -3.9630   -4.2710    2.9930 H   0  0  0  0  0  0  0  0  0  0  0  0
   -2.6370   -5.4100    2.7060 H   0  0  0  0  0  0  0  0  0  0  0  0
   -3.4300   -2.2580    1.4390 H   0  0  0  0  0  0  0  0  0  0  0  0
   -4.8830   -2.9900    0.7560 H   0  0  0  0  0  0  0  0  0  0  0  0
   -4.0530   -1.5830   -0.9800 H   0  0  0  0  0  0  0  0  0  0  0  0
   -3.9000   -3.2810   -1.4400 H   0  0  0  0  0  0  0  0  0  0  0  0
   -1.6370   -3.4310   -0.7700 H   0  0  0  0  0  0  0  0  0  0  0  0
   -0.1890   -1.5920   -0.4030 H   0  0  0  0  0  0  0  0  0  0  0  0
  1 11  1  0  0  0  0
  1  2  1  0  0  0  0
  2  7  1  0  0  0  0
  2 12  1  1  0  0  0
  2  3  1  0  0  0  0
  3 14  1  0  0  0  0
  3 13  1  0  0  0  0
  4 16  1  0  0  0  0
  4  3  1  0  0  0  0
  4  5  1  0  0  0  0
  5  6  2  0  0  0  0
  7  8  2  0  0  0  0
  9  5  1  0  0  0  0
  9 17  1  0  0  0  0
 10  1  1  0  0  0  0
 15  4  1  0  0  0  0
 18 19  1  0  0  0  0
 18  7  1  0  0  0  0
 19 27  1  1  0  0  0
 20 28  1  0  0  0  0
 20 19  1  0  0  0  0
 20 29  1  0  0  0  0
 21 20  1  0  0  0  0
 22 21  2  0  0  0  0
 23 24  2  0  0  0  0
 23 19  1  0  0  0  0
 25 21  1  0  0  0  0
 26 18  1  0  0  0  0
 30 25  1  0  0  0  0
 31 42  1  0  0  0  0
 31 41  1  0  0  0  0
 32 31  1  0  0  0  0
 33 32  2  0  0  0  0
 34 44  1  0  0  0  0
 34 32  1  0  0  0  0
 34 43  1  0  0  0  0
 35 34  1  0  0  0  0
 36 47  1  1  0  0  0
 36 35  1  0  0  0  0
 36 37  1  0  0  0  0
 37 48  1  0  0  0  0
 37 23  1  0  0  0  0
 38 36  1  0  0  0  0
 39 38  1  0  0  0  0
 40 38  2  0  0  0  0
 45 35  1  0  0  0  0
 46 35  1  0  0  0  0
M  END
$$$$
