EDR.pdb
 OpenBabel07022418173D

 54 53  0  0  1  0  0  0  0  0999 V2000
    1.6390   -2.0650   -1.9750 N   0  0  0  0  0  0  0  0  0  0  0  0
    2.6070   -1.7480   -0.8620 C   0  0  1  0  0  0  0  0  0  0  0  0
    3.9030   -1.3890   -1.4680 C   0  0  0  0  0  0  0  0  0  0  0  0
    5.0550   -1.0700   -0.6310 C   0  0  0  0  0  0  0  0  0  0  0  0
    5.0690    0.0560    0.2680 C   0  0  0  0  0  0  0  0  0  0  0  0
    5.3920   -0.1130    1.4960 O   0  0  0  0  0  0  0  0  0  0  0  0
    1.9960   -0.6940   -0.0440 C   0  0  0  0  0  0  0  0  0  0  0  0
    2.4980   -0.3180    1.0200 O   0  0  0  0  0  0  0  0  0  0  0  0
    4.7520    1.3690   -0.0900 O   0  0  0  0  0  0  0  0  0  0  0  0
    1.9020   -2.9900   -2.3750 H   0  0  0  0  0  0  0  0  0  0  0  0
    1.8840   -1.3490   -2.7170 H   0  0  0  0  0  0  0  0  0  0  0  0
    2.6710   -2.6820   -0.2740 H   0  0  0  0  0  0  0  0  0  0  0  0
    3.7050   -0.6120   -2.2660 H   0  0  0  0  0  0  0  0  0  0  0  0
    4.2050   -2.2870   -2.1040 H   0  0  0  0  0  0  0  0  0  0  0  0
    5.2520   -2.0070    0.0100 H   0  0  0  0  0  0  0  0  0  0  0  0
    6.0230   -1.0330   -1.2420 H   0  0  0  0  0  0  0  0  0  0  0  0
    5.0630    2.1260    0.5110 H   0  0  0  0  0  0  0  0  0  0  0  0
    0.7700   -0.0490   -0.4510 N   0  0  0  0  0  0  0  0  0  0  0  0
    0.2090    1.0060    0.4030 C   0  0  1  0  0  0  0  0  0  0  0  0
   -0.4220    2.0520   -0.4180 C   0  0  0  0  0  0  0  0  0  0  0  0
   -1.0150    3.1880    0.2720 C   0  0  0  0  0  0  0  0  0  0  0  0
   -1.8090    3.9320   -0.4000 O   0  0  0  0  0  0  0  0  0  0  0  0
   -0.6790    0.3790    1.4340 C   0  0  0  0  0  0  0  0  0  0  0  0
   -1.3300    1.0820    2.2040 O   0  0  0  0  0  0  0  0  0  0  0  0
   -0.7990    3.5370    1.5860 O   0  0  0  0  0  0  0  0  0  0  0  0
    0.3140   -0.3460   -1.3420 H   0  0  0  0  0  0  0  0  0  0  0  0
    1.0860    1.3890    1.0060 H   0  0  0  0  0  0  0  0  0  0  0  0
   -1.2430    1.5750   -1.0340 H   0  0  0  0  0  0  0  0  0  0  0  0
    0.3070    2.3790   -1.2250 H   0  0  0  0  0  0  0  0  0  0  0  0
   -0.8860    4.4830    1.9380 H   0  0  0  0  0  0  0  0  0  0  0  0
   -3.7080    1.1220    0.1720 N   0  0  0  0  0  0  0  0  0  0  0  0
   -3.6360   -0.2820   -0.0070 C   0  0  0  0  0  0  0  0  0  0  0  0
   -3.1260   -0.7580   -1.1230 N   0  0  0  0  0  0  0  0  0  0  0  0
   -4.1180   -1.1600    1.0250 N   0  0  0  0  0  0  0  0  0  0  0  0
   -4.1060   -2.5530    0.7170 C   0  0  0  0  0  0  0  0  0  0  0  0
   -2.7380   -3.1120    0.6390 C   0  0  0  0  0  0  0  0  0  0  0  0
   -1.9290   -3.0770    1.8760 C   0  0  0  0  0  0  0  0  0  0  0  0
   -1.5610   -1.7710    2.4710 C   0  0  2  0  0  0  0  0  0  0  0  0
   -0.7460   -1.0300    1.5040 N   0  0  0  0  0  0  0  0  0  0  0  0
   -0.6350   -2.1370    3.6410 C   0  0  0  0  0  0  0  0  0  0  0  0
    0.5730   -1.8100    3.6300 O   0  0  0  0  0  0  0  0  0  0  0  0
   -1.1130   -2.8360    4.7350 O   0  0  0  0  0  0  0  0  0  0  0  0
   -3.8670    1.5300    1.1190 H   0  0  0  0  0  0  0  0  0  0  0  0
   -3.6010    1.7630   -0.6620 H   0  0  0  0  0  0  0  0  0  0  0  0
   -2.8050   -0.0580   -1.8130 H   0  0  0  0  0  0  0  0  0  0  0  0
   -4.4530   -0.7300    1.9320 H   0  0  0  0  0  0  0  0  0  0  0  0
   -4.6190   -3.0880    1.5760 H   0  0  0  0  0  0  0  0  0  0  0  0
   -4.6630   -2.7780   -0.2310 H   0  0  0  0  0  0  0  0  0  0  0  0
   -2.8490   -4.2090    0.3730 H   0  0  0  0  0  0  0  0  0  0  0  0
   -2.1460   -2.7130   -0.2280 H   0  0  0  0  0  0  0  0  0  0  0  0
   -2.3670   -3.7860    2.6360 H   0  0  0  0  0  0  0  0  0  0  0  0
   -0.9340   -3.5770    1.6070 H   0  0  0  0  0  0  0  0  0  0  0  0
   -2.3590   -1.1850    2.9170 H   0  0  0  0  0  0  0  0  0  0  0  0
   -0.1800   -1.5810    0.8240 H   0  0  0  0  0  0  0  0  0  0  0  0
  1  2  1  0  0  0  0
  2 12  1  1  0  0  0
  2  7  1  0  0  0  0
  3  2  1  0  0  0  0
  3  4  1  0  0  0  0
  4 15  1  0  0  0  0
  4  5  1  0  0  0  0
  5  6  2  0  0  0  0
  7  8  2  0  0  0  0
  9  5  1  0  0  0  0
  9 17  1  0  0  0  0
 10  1  1  0  0  0  0
 11  1  1  0  0  0  0
 13  3  1  0  0  0  0
 14  3  1  0  0  0  0
 16  4  1  0  0  0  0
 18  7  1  0  0  0  0
 18 19  1  0  0  0  0
 19 27  1  1  0  0  0
 19 23  1  0  0  0  0
 20 21  1  0  0  0  0
 20 19  1  0  0  0  0
 21 25  1  0  0  0  0
 22 21  2  0  0  0  0
 23 39  1  0  0  0  0
 23 24  2  0  0  0  0
 25 30  1  0  0  0  0
 26 18  1  0  0  0  0
 28 20  1  0  0  0  0
 29 20  1  0  0  0  0
 31 43  1  0  0  0  0
 32 31  1  0  0  0  0
 32 34  1  0  0  0  0
 33 32  2  0  0  0  0
 34 46  1  0  0  0  0
 35 34  1  0  0  0  0
 35 47  1  0  0  0  0
 36 35  1  0  0  0  0
 36 37  1  0  0  0  0
 37 38  1  0  0  0  0
 37 51  1  0  0  0  0
 38 53  1  1  0  0  0
 38 40  1  0  0  0  0
 39 38  1  0  0  0  0
 40 42  1  0  0  0  0
 41 40  2  0  0  0  0
 44 31  1  0  0  0  0
 45 33  1  0  0  0  0
 48 35  1  0  0  0  0
 49 36  1  0  0  0  0
 50 36  1  0  0  0  0
 52 37  1  0  0  0  0
 54 39  1  0  0  0  0
M  END
$$$$
