EDS.pdb
 OpenBabel07022418173D

 42 41  0  0  1  0  0  0  0  0999 V2000
    4.0230   -2.4990   -1.2850 N   0  0  0  0  0  0  0  0  0  0  0  0
    2.5860   -2.4830   -1.1510 C   0  0  1  0  0  0  0  0  0  0  0  0
    2.1060   -3.5060   -0.1580 C   0  0  0  0  0  0  0  0  0  0  0  0
    2.6510   -3.3070    1.2220 C   0  0  0  0  0  0  0  0  0  0  0  0
    2.0990   -4.3780    2.0930 C   0  0  0  0  0  0  0  0  0  0  0  0
    1.3200   -5.2640    1.6890 O   0  0  0  0  0  0  0  0  0  0  0  0
    2.1660   -1.1080   -0.8180 C   0  0  0  0  0  0  0  0  0  0  0  0
    2.9790   -0.1630   -0.6870 O   0  0  0  0  0  0  0  0  0  0  0  0
    2.4580   -4.4200    3.4530 O   0  0  0  0  0  0  0  0  0  0  0  0
    4.3570   -2.1070   -2.1780 H   0  0  0  0  0  0  0  0  0  0  0  0
    4.4310   -3.4460   -1.1740 H   0  0  0  0  0  0  0  0  0  0  0  0
    2.1730   -2.7760   -2.1390 H   0  0  0  0  0  0  0  0  0  0  0  0
    2.4420   -4.4980   -0.5240 H   0  0  0  0  0  0  0  0  0  0  0  0
    1.0000   -3.5300   -0.1060 H   0  0  0  0  0  0  0  0  0  0  0  0
    3.7570   -3.4840    1.1770 H   0  0  0  0  0  0  0  0  0  0  0  0
    2.3890   -2.3500    1.6770 H   0  0  0  0  0  0  0  0  0  0  0  0
    2.0860   -5.0860    4.0990 H   0  0  0  0  0  0  0  0  0  0  0  0
    0.7990   -0.7930   -0.6300 N   0  0  0  0  0  0  0  0  0  0  0  0
    0.4330    0.5960   -0.2990 C   0  0  1  0  0  0  0  0  0  0  0  0
   -0.4660    1.1130   -1.4150 C   0  0  0  0  0  0  0  0  0  0  0  0
   -0.9050    2.5070   -1.2210 C   0  0  0  0  0  0  0  0  0  0  0  0
   -0.0440    3.4450   -1.3010 O   0  0  0  0  0  0  0  0  0  0  0  0
   -0.3280    0.4760    1.0010 C   0  0  0  0  0  0  0  0  0  0  0  0
   -0.5670   -0.6590    1.5130 O   0  0  0  0  0  0  0  0  0  0  0  0
   -2.2100    2.8870   -0.9520 O   0  0  0  0  0  0  0  0  0  0  0  0
    0.0270   -1.4870   -0.7120 H   0  0  0  0  0  0  0  0  0  0  0  0
    1.2990    1.2530   -0.2330 H   0  0  0  0  0  0  0  0  0  0  0  0
    0.1410    1.0770   -2.3420 H   0  0  0  0  0  0  0  0  0  0  0  0
   -1.3810    0.4910   -1.5140 H   0  0  0  0  0  0  0  0  0  0  0  0
   -2.4510    3.8700   -0.7980 H   0  0  0  0  0  0  0  0  0  0  0  0
   -3.5600    2.5230    2.0830 O   0  0  0  0  0  0  0  0  0  0  0  0
   -3.0050    1.4880    2.8060 C   0  0  0  0  0  0  0  0  0  0  0  0
   -1.5270    1.6070    2.9460 C   0  0  2  0  0  0  0  0  0  0  0  0
   -0.8030    1.6160    1.7000 N   0  0  0  0  0  0  0  0  0  0  0  0
   -0.9440    0.7240    3.9830 C   0  0  0  0  0  0  0  0  0  0  0  0
   -1.5480    0.5660    5.0620 O   0  0  0  0  0  0  0  0  0  0  0  0
    0.2480    0.0860    3.7670 O   0  0  0  0  0  0  0  0  0  0  0  0
   -4.0160    2.2440    1.2630 H   0  0  0  0  0  0  0  0  0  0  0  0
   -3.4500    1.5460    3.8310 H   0  0  0  0  0  0  0  0  0  0  0  0
   -3.3320    0.5050    2.4040 H   0  0  0  0  0  0  0  0  0  0  0  0
   -1.3340    2.6500    3.3840 H   0  0  0  0  0  0  0  0  0  0  0  0
   -0.5670    2.5390    1.2080 H   0  0  0  0  0  0  0  0  0  0  0  0
  1 11  1  0  0  0  0
  1  2  1  0  0  0  0
  2 12  1  6  0  0  0
  2  7  1  0  0  0  0
  2  3  1  0  0  0  0
  3 14  1  0  0  0  0
  3  4  1  0  0  0  0
  4 16  1  0  0  0  0
  4  5  1  0  0  0  0
  5  9  1  0  0  0  0
  6  5  2  0  0  0  0
  7  8  2  0  0  0  0
  7 18  1  0  0  0  0
  9 17  1  0  0  0  0
 10  1  1  0  0  0  0
 13  3  1  0  0  0  0
 15  4  1  0  0  0  0
 18 19  1  0  0  0  0
 19 27  1  1  0  0  0
 19 23  1  0  0  0  0
 20 21  1  0  0  0  0
 20 19  1  0  0  0  0
 21 25  1  0  0  0  0
 22 21  2  0  0  0  0
 23 24  2  0  0  0  0
 23 34  1  0  0  0  0
 25 30  1  0  0  0  0
 26 18  1  0  0  0  0
 28 20  1  0  0  0  0
 29 20  1  0  0  0  0
 31 32  1  0  0  0  0
 32 33  1  0  0  0  0
 32 39  1  0  0  0  0
 33 41  1  1  0  0  0
 33 35  1  0  0  0  0
 34 33  1  0  0  0  0
 35 36  1  0  0  0  0
 37 35  2  0  0  0  0
 38 31  1  0  0  0  0
 40 32  1  0  0  0  0
 42 34  1  0  0  0  0
M  END
$$$$
