EDT.pdb
 OpenBabel07022418173D

 45 44  0  0  1  0  0  0  0  0999 V2000
    1.0920   -2.9820    1.0740 N   0  0  0  0  0  0  0  0  0  0  0  0
    2.0860   -2.1440    1.8130 C   0  0  1  0  0  0  0  0  0  0  0  0
    3.3880   -2.4640    1.1480 C   0  0  0  0  0  0  0  0  0  0  0  0
    4.6260   -1.8380    1.6490 C   0  0  0  0  0  0  0  0  0  0  0  0
    4.7040   -0.3870    1.5750 C   0  0  0  0  0  0  0  0  0  0  0  0
    4.9950    0.3270    2.5970 O   0  0  0  0  0  0  0  0  0  0  0  0
    1.6570   -0.7510    1.5980 C   0  0  0  0  0  0  0  0  0  0  0  0
    2.0640    0.2270    2.2500 O   0  0  0  0  0  0  0  0  0  0  0  0
    4.4760    0.3290    0.4060 O   0  0  0  0  0  0  0  0  0  0  0  0
    0.1840   -2.9500    1.6260 H   0  0  0  0  0  0  0  0  0  0  0  0
    1.4290   -3.9780    1.2350 H   0  0  0  0  0  0  0  0  0  0  0  0
    2.1090   -2.4620    2.8540 H   0  0  0  0  0  0  0  0  0  0  0  0
    3.2960   -2.3230    0.0150 H   0  0  0  0  0  0  0  0  0  0  0  0
    3.5630   -3.5940    1.1960 H   0  0  0  0  0  0  0  0  0  0  0  0
    5.5480   -2.2770    1.1480 H   0  0  0  0  0  0  0  0  0  0  0  0
    4.7540   -2.1510    2.7230 H   0  0  0  0  0  0  0  0  0  0  0  0
    4.9630    1.2260    0.2930 H   0  0  0  0  0  0  0  0  0  0  0  0
    0.6930   -0.4080    0.5740 N   0  0  0  0  0  0  0  0  0  0  0  0
    0.2400    0.9110    0.3170 C   0  0  1  0  0  0  0  0  0  0  0  0
    0.4460    1.3770   -1.0990 C   0  0  0  0  0  0  0  0  0  0  0  0
    1.8660    1.3640   -1.4790 C   0  0  0  0  0  0  0  0  0  0  0  0
    2.3920    0.3060   -1.8700 O   0  0  0  0  0  0  0  0  0  0  0  0
   -1.2210    1.0740    0.6080 C   0  0  0  0  0  0  0  0  0  0  0  0
   -1.7800    2.1760    0.4420 O   0  0  0  0  0  0  0  0  0  0  0  0
    2.6090    2.5140   -1.4020 O   0  0  0  0  0  0  0  0  0  0  0  0
    0.3300   -1.2010    0.0090 H   0  0  0  0  0  0  0  0  0  0  0  0
    0.7640    1.6180    0.9880 H   0  0  0  0  0  0  0  0  0  0  0  0
    0.0950    2.4310   -1.1400 H   0  0  0  0  0  0  0  0  0  0  0  0
   -0.2030    0.8410   -1.8220 H   0  0  0  0  0  0  0  0  0  0  0  0
    3.6290    2.5190   -1.2850 H   0  0  0  0  0  0  0  0  0  0  0  0
   -4.0000   -0.4760   -0.9540 C   0  0  0  0  0  0  0  0  0  0  0  0
   -4.0970   -0.9240    0.4790 C   0  0  1  0  0  0  0  0  0  0  0  0
   -3.7000   -2.2330    0.6600 O   0  0  0  0  0  0  0  0  0  0  0  0
   -3.3170    0.0280    1.3670 C   0  0  2  0  0  0  0  0  0  0  0  0
   -1.9220   -0.0600    1.0710 N   0  0  0  0  0  0  0  0  0  0  0  0
   -3.5290   -0.2680    2.8010 C   0  0  0  0  0  0  0  0  0  0  0  0
   -4.6690   -0.2600    3.3320 O   0  0  0  0  0  0  0  0  0  0  0  0
   -2.4570   -0.5700    3.6220 O   0  0  0  0  0  0  0  0  0  0  0  0
   -4.4140    0.5520   -1.0710 H   0  0  0  0  0  0  0  0  0  0  0  0
   -2.9290   -0.4060   -1.2570 H   0  0  0  0  0  0  0  0  0  0  0  0
   -4.5610   -1.1580   -1.6240 H   0  0  0  0  0  0  0  0  0  0  0  0
   -5.1700   -0.8250    0.8120 H   0  0  0  0  0  0  0  0  0  0  0  0
   -3.4750   -2.7010   -0.1900 H   0  0  0  0  0  0  0  0  0  0  0  0
   -3.6940    1.0730    1.1730 H   0  0  0  0  0  0  0  0  0  0  0  0
   -1.4240   -0.9580    1.1960 H   0  0  0  0  0  0  0  0  0  0  0  0
  1 11  1  0  0  0  0
  1 10  1  0  0  0  0
  1  2  1  0  0  0  0
  2 12  1  1  0  0  0
  3 14  1  0  0  0  0
  3  4  1  0  0  0  0
  3  2  1  0  0  0  0
  4 16  1  0  0  0  0
  5  4  1  0  0  0  0
  5  6  2  0  0  0  0
  7  2  1  0  0  0  0
  7  8  2  0  0  0  0
  9  5  1  0  0  0  0
 13  3  1  0  0  0  0
 15  4  1  0  0  0  0
 17  9  1  0  0  0  0
 18  7  1  0  0  0  0
 19 18  1  0  0  0  0
 19 23  1  0  0  0  0
 19 27  1  1  0  0  0
 20 19  1  0  0  0  0
 21 25  1  0  0  0  0
 21 20  1  0  0  0  0
 22 21  2  0  0  0  0
 23 35  1  0  0  0  0
 24 23  2  0  0  0  0
 25 30  1  0  0  0  0
 26 18  1  0  0  0  0
 28 20  1  0  0  0  0
 29 20  1  0  0  0  0
 31 32  1  0  0  0  0
 32 33  1  0  0  0  0
 32 42  1  1  0  0  0
 32 34  1  0  0  0  0
 34 44  1  6  0  0  0
 34 36  1  0  0  0  0
 35 45  1  0  0  0  0
 35 34  1  0  0  0  0
 36 37  2  0  0  0  0
 36 38  1  0  0  0  0
 39 31  1  0  0  0  0
 40 31  1  0  0  0  0
 41 31  1  0  0  0  0
 43 33  1  0  0  0  0
M  END
$$$$
