EDV.pdb
 OpenBabel07022418173D

 47 46  0  0  1  0  0  0  0  0999 V2000
    0.7190   -1.1740    5.2470 N   0  0  0  0  0  0  0  0  0  0  0  0
    1.1700   -1.0650    3.8240 C   0  0  1  0  0  0  0  0  0  0  0  0
    1.0980   -2.4290    3.2930 C   0  0  0  0  0  0  0  0  0  0  0  0
    1.4990   -2.6960    1.8940 C   0  0  0  0  0  0  0  0  0  0  0  0
    2.9110   -2.3340    1.6090 C   0  0  0  0  0  0  0  0  0  0  0  0
    3.6370   -1.8660    2.5120 O   0  0  0  0  0  0  0  0  0  0  0  0
    0.4470    0.0170    3.2080 C   0  0  0  0  0  0  0  0  0  0  0  0
   -0.4100    0.6620    3.9090 O   0  0  0  0  0  0  0  0  0  0  0  0
    3.4450   -2.5070    0.3510 O   0  0  0  0  0  0  0  0  0  0  0  0
    1.0700   -2.0790    5.6280 H   0  0  0  0  0  0  0  0  0  0  0  0
   -0.3250   -1.1010    5.2780 H   0  0  0  0  0  0  0  0  0  0  0  0
    2.2400   -0.7150    3.9600 H   0  0  0  0  0  0  0  0  0  0  0  0
    1.7580   -3.0750    3.9530 H   0  0  0  0  0  0  0  0  0  0  0  0
    0.0800   -2.9010    3.4600 H   0  0  0  0  0  0  0  0  0  0  0  0
    0.8080   -2.3390    1.1150 H   0  0  0  0  0  0  0  0  0  0  0  0
    1.4920   -3.8310    1.7250 H   0  0  0  0  0  0  0  0  0  0  0  0
    4.3720   -2.2150    0.0750 H   0  0  0  0  0  0  0  0  0  0  0  0
    0.5800    0.4720    1.8750 N   0  0  0  0  0  0  0  0  0  0  0  0
   -0.2060    1.6060    1.3890 C   0  0  1  0  0  0  0  0  0  0  0  0
    0.7480    2.6650    0.9040 C   0  0  0  0  0  0  0  0  0  0  0  0
    1.6700    3.1700    1.9260 C   0  0  0  0  0  0  0  0  0  0  0  0
    2.4910    4.0630    1.5640 O   0  0  0  0  0  0  0  0  0  0  0  0
   -1.0990    1.2770    0.2600 C   0  0  0  0  0  0  0  0  0  0  0  0
   -1.8440    2.1620   -0.2690 O   0  0  0  0  0  0  0  0  0  0  0  0
    1.7340    2.7690    3.2440 O   0  0  0  0  0  0  0  0  0  0  0  0
    1.2480   -0.0050    1.2350 H   0  0  0  0  0  0  0  0  0  0  0  0
   -0.7940    2.0530    2.2290 H   0  0  0  0  0  0  0  0  0  0  0  0
    1.3540    2.1800    0.0840 H   0  0  0  0  0  0  0  0  0  0  0  0
    0.1840    3.4880    0.3920 H   0  0  0  0  0  0  0  0  0  0  0  0
    2.3460    3.2140    3.8960 H   0  0  0  0  0  0  0  0  0  0  0  0
   -2.0820   -1.1510   -3.7410 C   0  0  0  0  0  0  0  0  0  0  0  0
   -1.2440   -0.8510   -2.5200 C   0  0  0  0  0  0  0  0  0  0  0  0
   -0.5430   -2.0930   -2.0130 C   0  0  0  0  0  0  0  0  0  0  0  0
   -2.0840   -0.2770   -1.4060 C   0  0  2  0  0  0  0  0  0  0  0  0
   -1.1670   -0.0280   -0.2790 N   0  0  0  0  0  0  0  0  0  0  0  0
   -3.0460   -1.3290   -0.9780 C   0  0  0  0  0  0  0  0  0  0  0  0
   -2.9850   -1.8470    0.1850 O   0  0  0  0  0  0  0  0  0  0  0  0
   -4.0400   -1.7930   -1.8050 O   0  0  0  0  0  0  0  0  0  0  0  0
   -2.6400   -2.1010   -3.6580 H   0  0  0  0  0  0  0  0  0  0  0  0
   -2.7260   -0.2850   -3.9550 H   0  0  0  0  0  0  0  0  0  0  0  0
   -1.3820   -1.2670   -4.6120 H   0  0  0  0  0  0  0  0  0  0  0  0
   -0.4500   -0.1430   -2.8510 H   0  0  0  0  0  0  0  0  0  0  0  0
    0.5320   -1.8860   -1.8110 H   0  0  0  0  0  0  0  0  0  0  0  0
   -1.0410   -2.4370   -1.0970 H   0  0  0  0  0  0  0  0  0  0  0  0
   -0.6090   -2.9300   -2.7430 H   0  0  0  0  0  0  0  0  0  0  0  0
   -2.6180    0.6310   -1.6880 H   0  0  0  0  0  0  0  0  0  0  0  0
   -0.6020   -0.8260    0.0780 H   0  0  0  0  0  0  0  0  0  0  0  0
  1 11  1  0  0  0  0
  1 10  1  0  0  0  0
  2 12  1  1  0  0  0
  2  1  1  0  0  0  0
  3 14  1  0  0  0  0
  3  2  1  0  0  0  0
  3 13  1  0  0  0  0
  4  3  1  0  0  0  0
  5  4  1  0  0  0  0
  5  6  2  0  0  0  0
  7  2  1  0  0  0  0
  7  8  2  0  0  0  0
  9  5  1  0  0  0  0
 15  4  1  0  0  0  0
 16  4  1  0  0  0  0
 17  9  1  0  0  0  0
 18  7  1  0  0  0  0
 19 18  1  0  0  0  0
 19 27  1  1  0  0  0
 20 19  1  0  0  0  0
 20 21  1  0  0  0  0
 21 25  1  0  0  0  0
 22 21  2  0  0  0  0
 23 19  1  0  0  0  0
 24 23  2  0  0  0  0
 25 30  1  0  0  0  0
 26 18  1  0  0  0  0
 28 20  1  0  0  0  0
 29 20  1  0  0  0  0
 31 39  1  0  0  0  0
 31 32  1  0  0  0  0
 32 33  1  0  0  0  0
 32 34  1  0  0  0  0
 33 43  1  0  0  0  0
 33 44  1  0  0  0  0
 34 46  1  6  0  0  0
 34 36  1  0  0  0  0
 34 35  1  0  0  0  0
 35 47  1  0  0  0  0
 35 23  1  0  0  0  0
 36 37  1  0  0  0  0
 38 36  2  0  0  0  0
 40 31  1  0  0  0  0
 41 31  1  0  0  0  0
 42 32  1  0  0  0  0
 45 33  1  0  0  0  0
M  END
$$$$
