EDW.pdb
 OpenBabel07022418173D

 55 56  0  0  1  0  0  0  0  0999 V2000
    0.8300   -0.3190    3.4460 N   0  0  0  0  0  0  0  0  0  0  0  0
    1.4960    0.9570    3.2480 C   0  0  1  0  0  0  0  0  0  0  0  0
    2.7500    0.9780    4.0940 C   0  0  0  0  0  0  0  0  0  0  0  0
    2.3090    0.8000    5.5550 C   0  0  0  0  0  0  0  0  0  0  0  0
    1.4050    1.8750    5.9920 C   0  0  0  0  0  0  0  0  0  0  0  0
    1.8320    3.0510    6.1860 O   0  0  0  0  0  0  0  0  0  0  0  0
    1.8490    1.0950    1.7890 C   0  0  0  0  0  0  0  0  0  0  0  0
    2.4590    2.1040    1.3590 O   0  0  0  0  0  0  0  0  0  0  0  0
    0.0500    1.5470    6.1860 O   0  0  0  0  0  0  0  0  0  0  0  0
    1.4640   -1.1040    3.2660 H   0  0  0  0  0  0  0  0  0  0  0  0
   -0.0740   -0.3690    2.9690 H   0  0  0  0  0  0  0  0  0  0  0  0
    0.8170    1.7670    3.5560 H   0  0  0  0  0  0  0  0  0  0  0  0
    3.3090    1.9240    3.9860 H   0  0  0  0  0  0  0  0  0  0  0  0
    3.3960    0.1210    3.8330 H   0  0  0  0  0  0  0  0  0  0  0  0
    3.2430    0.7620    6.1880 H   0  0  0  0  0  0  0  0  0  0  0  0
    1.8410   -0.1770    5.6640 H   0  0  0  0  0  0  0  0  0  0  0  0
   -0.6120    2.2750    6.4080 H   0  0  0  0  0  0  0  0  0  0  0  0
    1.4930    0.0860    0.8850 N   0  0  0  0  0  0  0  0  0  0  0  0
    1.7730    0.0930   -0.5420 C   0  0  1  0  0  0  0  0  0  0  0  0
    2.4180   -1.2330   -0.8490 C   0  0  0  0  0  0  0  0  0  0  0  0
    2.8010   -1.4040   -2.2520 C   0  0  0  0  0  0  0  0  0  0  0  0
    3.1580   -2.5510   -2.6220 O   0  0  0  0  0  0  0  0  0  0  0  0
    0.4600    0.1710   -1.2780 C   0  0  0  0  0  0  0  0  0  0  0  0
    0.3910    0.1540   -2.5140 O   0  0  0  0  0  0  0  0  0  0  0  0
    2.8010   -0.4040   -3.1920 O   0  0  0  0  0  0  0  0  0  0  0  0
    0.9850   -0.7450    1.2510 H   0  0  0  0  0  0  0  0  0  0  0  0
    2.3400    0.9680   -0.8500 H   0  0  0  0  0  0  0  0  0  0  0  0
    3.3540   -1.3770   -0.2310 H   0  0  0  0  0  0  0  0  0  0  0  0
    1.7550   -2.0650   -0.5140 H   0  0  0  0  0  0  0  0  0  0  0  0
    2.6230   -0.5750   -4.1650 H   0  0  0  0  0  0  0  0  0  0  0  0
   -0.7440    0.2680   -0.5100 N   0  0  0  0  0  0  0  0  0  0  0  0
   -2.0680    0.3490   -1.0900 C   0  0  1  0  0  0  0  0  0  0  0  0
   -2.9320   -0.6860   -0.4210 C   0  0  0  0  0  0  0  0  0  0  0  0
   -2.4570   -2.0640   -0.5810 C   0  0  0  0  0  0  0  0  0  0  0  0
   -1.8140   -2.7730    0.4160 C   0  0  0  0  0  0  0  0  0  0  0  0
   -1.5170   -3.9950   -0.0440 N   0  0  0  0  0  0  0  0  0  0  0  0
   -1.9520   -4.1100   -1.3330 C   0  0  0  0  0  0  0  0  0  0  0  0
   -1.9110   -5.1250   -2.2650 C   0  0  0  0  0  0  0  0  0  0  0  0
   -2.4530   -4.9280   -3.5190 C   0  0  0  0  0  0  0  0  0  0  0  0
   -3.0460   -3.7160   -3.8670 C   0  0  0  0  0  0  0  0  0  0  0  0
   -3.0880   -2.7100   -2.9450 C   0  0  0  0  0  0  0  0  0  0  0  0
   -2.5480   -2.8920   -1.6820 C   0  0  0  0  0  0  0  0  0  0  0  0
   -2.5940    1.7210   -0.8900 C   0  0  0  0  0  0  0  0  0  0  0  0
   -3.7360    2.0490   -1.2890 O   0  0  0  0  0  0  0  0  0  0  0  0
   -1.8230    2.6710   -0.2530 O   0  0  0  0  0  0  0  0  0  0  0  0
   -0.6480    0.2820    0.5230 H   0  0  0  0  0  0  0  0  0  0  0  0
   -2.0250    0.2220   -2.2060 H   0  0  0  0  0  0  0  0  0  0  0  0
   -3.1520   -0.4280    0.6340 H   0  0  0  0  0  0  0  0  0  0  0  0
   -3.9350   -0.6310   -0.9430 H   0  0  0  0  0  0  0  0  0  0  0  0
   -1.5700   -2.4400    1.4150 H   0  0  0  0  0  0  0  0  0  0  0  0
   -1.0370   -4.7900    0.4290 H   0  0  0  0  0  0  0  0  0  0  0  0
   -1.4640   -6.0720   -2.0370 H   0  0  0  0  0  0  0  0  0  0  0  0
   -2.4270   -5.7170   -4.2550 H   0  0  0  0  0  0  0  0  0  0  0  0
   -3.4680   -3.5530   -4.8370 H   0  0  0  0  0  0  0  0  0  0  0  0
   -3.5370   -1.7510   -3.1630 H   0  0  0  0  0  0  0  0  0  0  0  0
  2  1  1  0  0  0  0
  2 12  1  1  0  0  0
  2  3  1  0  0  0  0
  3  4  1  0  0  0  0
  4 16  1  0  0  0  0
  4  5  1  0  0  0  0
  4 15  1  0  0  0  0
  5  9  1  0  0  0  0
  5  6  2  0  0  0  0
  7  2  1  0  0  0  0
  8  7  2  0  0  0  0
  9 17  1  0  0  0  0
 10  1  1  0  0  0  0
 11  1  1  0  0  0  0
 13  3  1  0  0  0  0
 14  3  1  0  0  0  0
 18 26  1  0  0  0  0
 18  7  1  0  0  0  0
 19 27  1  6  0  0  0
 19 18  1  0  0  0  0
 20 19  1  0  0  0  0
 20 29  1  0  0  0  0
 20 28  1  0  0  0  0
 21 20  1  0  0  0  0
 22 21  2  0  0  0  0
 23 19  1  0  0  0  0
 23 31  1  0  0  0  0
 24 23  2  0  0  0  0
 25 21  1  0  0  0  0
 30 25  1  0  0  0  0
 31 46  1  0  0  0  0
 32 47  1  6  0  0  0
 32 43  1  0  0  0  0
 32 31  1  0  0  0  0
 32 33  1  0  0  0  0
 33 48  1  0  0  0  0
 34 33  1  0  0  0  0
 34 35  2  0  0  0  0
 35 50  1  0  0  0  0
 36 35  1  0  0  0  0
 36 51  1  0  0  0  0
 37 36  1  0  0  0  0
 38 52  1  0  0  0  0
 38 37  2  0  0  0  0
 39 38  1  0  0  0  0
 40 39  2  0  0  0  0
 40 41  1  0  0  0  0
 41 42  2  0  0  0  0
 42 37  1  0  0  0  0
 42 34  1  0  0  0  0
 43 45  1  0  0  0  0
 44 43  2  0  0  0  0
 49 33  1  0  0  0  0
 53 39  1  0  0  0  0
 54 40  1  0  0  0  0
 55 41  1  0  0  0  0
M  END
$$$$
