EDY.pdb
 OpenBabel07022418173D

 52 52  0  0  1  0  0  0  0  0999 V2000
    2.2580   -1.1160    5.2310 N   0  0  0  0  0  0  0  0  0  0  0  0
    2.6100   -0.6480    3.8530 C   0  0  1  0  0  0  0  0  0  0  0  0
    3.1350   -1.8230    3.1520 C   0  0  0  0  0  0  0  0  0  0  0  0
    3.5920   -1.6630    1.7330 C   0  0  0  0  0  0  0  0  0  0  0  0
    4.6910   -0.6950    1.6330 C   0  0  0  0  0  0  0  0  0  0  0  0
    5.1740   -0.1580    2.6320 O   0  0  0  0  0  0  0  0  0  0  0  0
    1.4510    0.0570    3.3480 C   0  0  0  0  0  0  0  0  0  0  0  0
    0.4100    0.0850    4.1070 O   0  0  0  0  0  0  0  0  0  0  0  0
    5.1560   -0.4190    0.3300 O   0  0  0  0  0  0  0  0  0  0  0  0
    1.7920   -2.0550    5.0730 H   0  0  0  0  0  0  0  0  0  0  0  0
    1.4890   -0.5010    5.6130 H   0  0  0  0  0  0  0  0  0  0  0  0
    3.4180    0.1130    4.0150 H   0  0  0  0  0  0  0  0  0  0  0  0
    4.0700   -2.1430    3.7220 H   0  0  0  0  0  0  0  0  0  0  0  0
    2.4930   -2.7360    3.2360 H   0  0  0  0  0  0  0  0  0  0  0  0
    2.7650   -1.4570    1.0240 H   0  0  0  0  0  0  0  0  0  0  0  0
    3.9950   -2.6710    1.3490 H   0  0  0  0  0  0  0  0  0  0  0  0
    5.8840    0.2800    0.2550 H   0  0  0  0  0  0  0  0  0  0  0  0
    1.2930    0.7380    2.1200 N   0  0  0  0  0  0  0  0  0  0  0  0
    0.0590    1.4030    1.8080 C   0  0  1  0  0  0  0  0  0  0  0  0
    0.2540    2.8650    1.4710 C   0  0  0  0  0  0  0  0  0  0  0  0
    0.8630    3.6230    2.5830 C   0  0  0  0  0  0  0  0  0  0  0  0
    1.1500    3.0390    3.6430 O   0  0  0  0  0  0  0  0  0  0  0  0
   -0.7510    0.7530    0.7510 C   0  0  0  0  0  0  0  0  0  0  0  0
   -1.8300    1.3200    0.4390 O   0  0  0  0  0  0  0  0  0  0  0  0
    1.1120    4.9620    2.4490 O   0  0  0  0  0  0  0  0  0  0  0  0
    2.0850    0.7450    1.4740 H   0  0  0  0  0  0  0  0  0  0  0  0
   -0.6230    1.3950    2.7160 H   0  0  0  0  0  0  0  0  0  0  0  0
    0.7940    3.0010    0.5150 H   0  0  0  0  0  0  0  0  0  0  0  0
   -0.7640    3.2900    1.3080 H   0  0  0  0  0  0  0  0  0  0  0  0
    1.9140    5.4080    2.9160 H   0  0  0  0  0  0  0  0  0  0  0  0
   -5.3890   -4.5110   -4.2550 O   0  0  0  0  0  0  0  0  0  0  0  0
   -4.6020   -3.8560   -3.2890 C   0  0  0  0  0  0  0  0  0  0  0  0
   -4.8730   -2.5700   -2.8760 C   0  0  0  0  0  0  0  0  0  0  0  0
   -4.1030   -1.9360   -1.9350 C   0  0  0  0  0  0  0  0  0  0  0  0
   -3.0260   -2.5730   -1.3700 C   0  0  0  0  0  0  0  0  0  0  0  0
   -2.2200   -1.8770   -0.3720 C   0  0  0  0  0  0  0  0  0  0  0  0
   -1.0670   -1.1130   -0.9070 C   0  0  2  0  0  0  0  0  0  0  0  0
   -0.3100   -0.4440    0.1410 N   0  0  0  0  0  0  0  0  0  0  0  0
   -1.3460   -0.1630   -1.9800 C   0  0  0  0  0  0  0  0  0  0  0  0
   -0.8960    1.0010   -1.9130 O   0  0  0  0  0  0  0  0  0  0  0  0
   -2.7440   -3.8510   -1.7710 C   0  0  0  0  0  0  0  0  0  0  0  0
   -3.5190   -4.4800   -2.7130 C   0  0  0  0  0  0  0  0  0  0  0  0
   -2.0980   -0.4530   -3.1100 O   0  0  0  0  0  0  0  0  0  0  0  0
   -6.2500   -4.0670   -4.5420 H   0  0  0  0  0  0  0  0  0  0  0  0
   -5.7410   -2.0680   -3.3370 H   0  0  0  0  0  0  0  0  0  0  0  0
   -4.3680   -0.9040   -1.6400 H   0  0  0  0  0  0  0  0  0  0  0  0
   -2.8340   -1.1580    0.2490 H   0  0  0  0  0  0  0  0  0  0  0  0
   -1.8570   -2.6280    0.3690 H   0  0  0  0  0  0  0  0  0  0  0  0
   -0.3060   -1.8340   -1.3720 H   0  0  0  0  0  0  0  0  0  0  0  0
    0.5960   -0.8190    0.4950 H   0  0  0  0  0  0  0  0  0  0  0  0
   -1.9040   -4.3850   -1.3490 H   0  0  0  0  0  0  0  0  0  0  0  0
   -3.3220   -5.4980   -3.0550 H   0  0  0  0  0  0  0  0  0  0  0  0
  1 11  1  0  0  0  0
  2 12  1  1  0  0  0
  2  1  1  0  0  0  0
  3 14  1  0  0  0  0
  3 13  1  0  0  0  0
  3  2  1  0  0  0  0
  4  3  1  0  0  0  0
  5  4  1  0  0  0  0
  5  6  2  0  0  0  0
  7  2  1  0  0  0  0
  7  8  2  0  0  0  0
  9  5  1  0  0  0  0
 10  1  1  0  0  0  0
 15  4  1  0  0  0  0
 16  4  1  0  0  0  0
 17  9  1  0  0  0  0
 18  7  1  0  0  0  0
 19 18  1  0  0  0  0
 19 27  1  1  0  0  0
 20 19  1  0  0  0  0
 20 21  1  0  0  0  0
 21 22  2  0  0  0  0
 23 19  1  0  0  0  0
 24 23  2  0  0  0  0
 25 21  1  0  0  0  0
 25 30  1  0  0  0  0
 26 18  1  0  0  0  0
 28 20  1  0  0  0  0
 29 20  1  0  0  0  0
 31 32  1  0  0  0  0
 32 33  2  0  0  0  0
 32 42  1  0  0  0  0
 33 34  1  0  0  0  0
 34 46  1  0  0  0  0
 34 35  2  0  0  0  0
 35 36  1  0  0  0  0
 36 47  1  0  0  0  0
 36 48  1  0  0  0  0
 37 49  1  6  0  0  0
 37 36  1  0  0  0  0
 37 38  1  0  0  0  0
 38 50  1  0  0  0  0
 38 23  1  0  0  0  0
 39 40  1  0  0  0  0
 39 37  1  0  0  0  0
 41 35  1  0  0  0  0
 41 51  1  0  0  0  0
 42 41  2  0  0  0  0
 43 39  2  0  0  0  0
 44 31  1  0  0  0  0
 45 33  1  0  0  0  0
 52 42  1  0  0  0  0
M  END
$$$$
