EEA.pdb
 OpenBabel07022418173D

 44 43  0  0  1  0  0  0  0  0999 V2000
    3.9150   -2.2070    1.4940 N   0  0  0  0  0  0  0  0  0  0  0  0
    2.6460   -2.2570    0.7440 C   0  0  1  0  0  0  0  0  0  0  0  0
    1.7030   -3.1090    1.5800 C   0  0  0  0  0  0  0  0  0  0  0  0
    1.5290   -2.4570    2.9380 C   0  0  0  0  0  0  0  0  0  0  0  0
    0.6410   -3.2380    3.8000 C   0  0  0  0  0  0  0  0  0  0  0  0
    0.0860   -4.3170    3.4740 O   0  0  0  0  0  0  0  0  0  0  0  0
    2.1620   -0.8840    0.5700 C   0  0  0  0  0  0  0  0  0  0  0  0
    2.7450    0.0540    1.1710 O   0  0  0  0  0  0  0  0  0  0  0  0
    0.3850   -2.7590    5.0830 O   0  0  0  0  0  0  0  0  0  0  0  0
    4.6610   -1.9980    0.7990 H   0  0  0  0  0  0  0  0  0  0  0  0
    4.0300   -3.1800    1.8910 H   0  0  0  0  0  0  0  0  0  0  0  0
    2.8540   -2.7830   -0.1940 H   0  0  0  0  0  0  0  0  0  0  0  0
    2.1200   -4.1210    1.7330 H   0  0  0  0  0  0  0  0  0  0  0  0
    0.7180   -3.2280    1.0890 H   0  0  0  0  0  0  0  0  0  0  0  0
    2.5390   -2.4230    3.4220 H   0  0  0  0  0  0  0  0  0  0  0  0
    1.1240   -1.4470    2.7630 H   0  0  0  0  0  0  0  0  0  0  0  0
    0.0790   -3.3280    5.8470 H   0  0  0  0  0  0  0  0  0  0  0  0
    1.0670   -0.5150   -0.2380 N   0  0  0  0  0  0  0  0  0  0  0  0
    0.6740    0.8690   -0.3410 C   0  0  1  0  0  0  0  0  0  0  0  0
    0.7760    1.3960   -1.7310 C   0  0  0  0  0  0  0  0  0  0  0  0
    0.4010    2.8400   -1.7890 C   0  0  0  0  0  0  0  0  0  0  0  0
    1.3240    3.6090   -0.9220 C   0  0  0  0  0  0  0  0  0  0  0  0
    1.1880    3.7830    0.3140 O   0  0  0  0  0  0  0  0  0  0  0  0
   -0.7300    0.9270    0.1060 C   0  0  0  0  0  0  0  0  0  0  0  0
   -1.3070    2.0370    0.1980 O   0  0  0  0  0  0  0  0  0  0  0  0
    2.4450    4.2020   -1.4910 O   0  0  0  0  0  0  0  0  0  0  0  0
    0.5310   -1.2100   -0.7830 H   0  0  0  0  0  0  0  0  0  0  0  0
    1.3350    1.4710    0.3080 H   0  0  0  0  0  0  0  0  0  0  0  0
    0.0250    0.8600   -2.3860 H   0  0  0  0  0  0  0  0  0  0  0  0
    1.7950    1.3200   -2.1650 H   0  0  0  0  0  0  0  0  0  0  0  0
    0.6540    3.1850   -2.8560 H   0  0  0  0  0  0  0  0  0  0  0  0
   -0.6720    3.0660   -1.6160 H   0  0  0  0  0  0  0  0  0  0  0  0
    3.0700    4.8140   -0.9550 H   0  0  0  0  0  0  0  0  0  0  0  0
   -3.7820   -0.8010   -0.1750 C   0  0  0  0  0  0  0  0  0  0  0  0
   -2.8730   -0.1340    0.8730 C   0  0  2  0  0  0  0  0  0  0  0  0
   -1.4840   -0.2140    0.4420 N   0  0  0  0  0  0  0  0  0  0  0  0
   -3.0370   -0.9350    2.1000 C   0  0  0  0  0  0  0  0  0  0  0  0
   -4.1420   -1.0290    2.7080 O   0  0  0  0  0  0  0  0  0  0  0  0
   -1.9410   -1.6170    2.6180 O   0  0  0  0  0  0  0  0  0  0  0  0
   -3.7810   -0.2410   -1.1180 H   0  0  0  0  0  0  0  0  0  0  0  0
   -3.5120   -1.8760   -0.2990 H   0  0  0  0  0  0  0  0  0  0  0  0
   -4.8060   -0.7700    0.2360 H   0  0  0  0  0  0  0  0  0  0  0  0
   -3.2290    0.8960    0.9520 H   0  0  0  0  0  0  0  0  0  0  0  0
   -1.0370   -1.1460    0.3880 H   0  0  0  0  0  0  0  0  0  0  0  0
  1 11  1  0  0  0  0
  2 12  1  6  0  0  0
  2  1  1  0  0  0  0
  2  3  1  0  0  0  0
  3 13  1  0  0  0  0
  3  4  1  0  0  0  0
  4 15  1  0  0  0  0
  4  5  1  0  0  0  0
  5  9  1  0  0  0  0
  6  5  2  0  0  0  0
  7  2  1  0  0  0  0
  7  8  2  0  0  0  0
  9 17  1  0  0  0  0
 10  1  1  0  0  0  0
 14  3  1  0  0  0  0
 16  4  1  0  0  0  0
 18  7  1  0  0  0  0
 19 18  1  0  0  0  0
 19 24  1  0  0  0  0
 19 28  1  1  0  0  0
 20 19  1  0  0  0  0
 21 20  1  0  0  0  0
 21 32  1  0  0  0  0
 21 22  1  0  0  0  0
 22 23  2  0  0  0  0
 24 25  2  0  0  0  0
 24 36  1  0  0  0  0
 26 33  1  0  0  0  0
 26 22  1  0  0  0  0
 27 18  1  0  0  0  0
 29 20  1  0  0  0  0
 30 20  1  0  0  0  0
 31 21  1  0  0  0  0
 34 42  1  0  0  0  0
 34 35  1  0  0  0  0
 35 43  1  1  0  0  0
 35 37  1  0  0  0  0
 36 35  1  0  0  0  0
 37 39  2  0  0  0  0
 37 38  1  0  0  0  0
 40 34  1  0  0  0  0
 41 34  1  0  0  0  0
 44 36  1  0  0  0  0
M  END
$$$$
