EEF.pdb
 OpenBabel07022418183D

 54 54  0  0  1  0  0  0  0  0999 V2000
    1.9470   -2.6510    2.4810 N   0  0  0  0  0  0  0  0  0  0  0  0
    2.0500   -1.3290    3.1200 C   0  0  1  0  0  0  0  0  0  0  0  0
    3.4850   -1.0950    3.3980 C   0  0  0  0  0  0  0  0  0  0  0  0
    3.8220    0.1990    4.0500 C   0  0  0  0  0  0  0  0  0  0  0  0
    3.2080    0.4220    5.3560 C   0  0  0  0  0  0  0  0  0  0  0  0
    2.4560   -0.4160    5.8990 O   0  0  0  0  0  0  0  0  0  0  0  0
    1.4090   -0.3330    2.2540 C   0  0  0  0  0  0  0  0  0  0  0  0
    1.4110    0.8690    2.6740 O   0  0  0  0  0  0  0  0  0  0  0  0
    3.4610    1.6030    6.0340 O   0  0  0  0  0  0  0  0  0  0  0  0
    0.9440   -2.9190    2.4410 H   0  0  0  0  0  0  0  0  0  0  0  0
    2.3790   -2.6560    1.5470 H   0  0  0  0  0  0  0  0  0  0  0  0
    1.4620   -1.4090    4.0420 H   0  0  0  0  0  0  0  0  0  0  0  0
    4.1240   -1.2330    2.5030 H   0  0  0  0  0  0  0  0  0  0  0  0
    3.8150   -1.9080    4.1100 H   0  0  0  0  0  0  0  0  0  0  0  0
    3.6220    1.0830    3.3870 H   0  0  0  0  0  0  0  0  0  0  0  0
    4.9400    0.2450    4.2100 H   0  0  0  0  0  0  0  0  0  0  0  0
    3.1960    1.7770    6.9940 H   0  0  0  0  0  0  0  0  0  0  0  0
    0.8040   -0.6360    1.0050 N   0  0  0  0  0  0  0  0  0  0  0  0
    0.1950    0.4300    0.2230 C   0  0  1  0  0  0  0  0  0  0  0  0
    0.8830    0.4490   -1.0990 C   0  0  0  0  0  0  0  0  0  0  0  0
    0.4240    1.4700   -2.0770 C   0  0  0  0  0  0  0  0  0  0  0  0
    0.5530    2.8670   -1.6560 C   0  0  0  0  0  0  0  0  0  0  0  0
    1.0480    3.1310   -0.5370 O   0  0  0  0  0  0  0  0  0  0  0  0
   -1.2490    0.1250    0.0350 C   0  0  0  0  0  0  0  0  0  0  0  0
   -2.0150    0.9120   -0.6050 O   0  0  0  0  0  0  0  0  0  0  0  0
    0.1450    3.9190   -2.4570 O   0  0  0  0  0  0  0  0  0  0  0  0
    0.8250   -1.6290    0.7000 H   0  0  0  0  0  0  0  0  0  0  0  0
    0.3260    1.3810    0.7810 H   0  0  0  0  0  0  0  0  0  0  0  0
    1.9840    0.4940   -0.9180 H   0  0  0  0  0  0  0  0  0  0  0  0
    0.6960   -0.5550   -1.5820 H   0  0  0  0  0  0  0  0  0  0  0  0
    1.0250    1.2850   -3.0220 H   0  0  0  0  0  0  0  0  0  0  0  0
   -0.6230    1.2990   -2.4110 H   0  0  0  0  0  0  0  0  0  0  0  0
   -0.0160    4.8100   -2.0100 H   0  0  0  0  0  0  0  0  0  0  0  0
   -1.7560   -1.0740    0.5920 N   0  0  0  0  0  0  0  0  0  0  0  0
   -3.1520   -1.3910    0.4230 C   0  0  1  0  0  0  0  0  0  0  0  0
   -3.2640   -2.6890   -0.3460 C   0  0  0  0  0  0  0  0  0  0  0  0
   -2.6120   -2.5090   -1.6670 C   0  0  0  0  0  0  0  0  0  0  0  0
   -1.2800   -2.7720   -1.8840 C   0  0  0  0  0  0  0  0  0  0  0  0
   -0.6710   -2.6050   -3.1120 C   0  0  0  0  0  0  0  0  0  0  0  0
   -1.4270   -2.1570   -4.1630 C   0  0  0  0  0  0  0  0  0  0  0  0
   -2.7800   -1.8810   -3.9800 C   0  0  0  0  0  0  0  0  0  0  0  0
   -3.3540   -2.0570   -2.7500 C   0  0  0  0  0  0  0  0  0  0  0  0
   -3.8060   -1.5170    1.7480 C   0  0  0  0  0  0  0  0  0  0  0  0
   -5.0200   -1.7880    1.8270 O   0  0  0  0  0  0  0  0  0  0  0  0
   -3.0820   -1.3360    2.9110 O   0  0  0  0  0  0  0  0  0  0  0  0
   -1.1640   -1.7440    1.1220 H   0  0  0  0  0  0  0  0  0  0  0  0
   -3.6740   -0.5950   -0.1610 H   0  0  0  0  0  0  0  0  0  0  0  0
   -2.7720   -3.5190    0.1620 H   0  0  0  0  0  0  0  0  0  0  0  0
   -4.3550   -2.9100   -0.4570 H   0  0  0  0  0  0  0  0  0  0  0  0
   -0.7130   -3.1270   -1.0180 H   0  0  0  0  0  0  0  0  0  0  0  0
    0.3840   -2.8360   -3.1940 H   0  0  0  0  0  0  0  0  0  0  0  0
   -0.9680   -2.0200   -5.1330 H   0  0  0  0  0  0  0  0  0  0  0  0
   -3.3590   -1.5260   -4.8340 H   0  0  0  0  0  0  0  0  0  0  0  0
   -4.4000   -1.8490   -2.5870 H   0  0  0  0  0  0  0  0  0  0  0  0
  1  2  1  0  0  0  0
  2  3  1  0  0  0  0
  2 12  1  1  0  0  0
  3  4  1  0  0  0  0
  3 14  1  0  0  0  0
  4 16  1  0  0  0  0
  4  5  1  0  0  0  0
  5  6  2  0  0  0  0
  5  9  1  0  0  0  0
  7  8  2  0  0  0  0
  7  2  1  0  0  0  0
  9 17  1  0  0  0  0
 10  1  1  0  0  0  0
 11  1  1  0  0  0  0
 13  3  1  0  0  0  0
 15  4  1  0  0  0  0
 18  7  1  0  0  0  0
 19 28  1  1  0  0  0
 19 18  1  0  0  0  0
 20 29  1  0  0  0  0
 20 19  1  0  0  0  0
 21 22  1  0  0  0  0
 21 20  1  0  0  0  0
 22 23  2  0  0  0  0
 24 19  1  0  0  0  0
 24 34  1  0  0  0  0
 25 24  2  0  0  0  0
 26 33  1  0  0  0  0
 26 22  1  0  0  0  0
 27 18  1  0  0  0  0
 30 20  1  0  0  0  0
 31 21  1  0  0  0  0
 32 21  1  0  0  0  0
 34 46  1  0  0  0  0
 35 47  1  6  0  0  0
 35 34  1  0  0  0  0
 35 43  1  0  0  0  0
 36 48  1  0  0  0  0
 36 35  1  0  0  0  0
 37 36  1  0  0  0  0
 38 37  1  0  0  0  0
 38 50  1  0  0  0  0
 39 38  2  0  0  0  0
 40 41  2  0  0  0  0
 40 39  1  0  0  0  0
 41 42  1  0  0  0  0
 42 54  1  0  0  0  0
 42 37  2  0  0  0  0
 43 44  2  0  0  0  0
 43 45  1  0  0  0  0
 49 36  1  0  0  0  0
 51 39  1  0  0  0  0
 52 40  1  0  0  0  0
 53 41  1  0  0  0  0
M  END
$$$$
