EEH.pdb
 OpenBabel07022418173D

 51 51  0  0  1  0  0  0  0  0999 V2000
    1.1580    2.5930    3.7340 N   0  0  0  0  0  0  0  0  0  0  0  0
    1.9760    1.5390    3.1180 C   0  0  1  0  0  0  0  0  0  0  0  0
    2.1430    0.4730    4.1510 C   0  0  0  0  0  0  0  0  0  0  0  0
    2.9460   -0.7020    3.7370 C   0  0  0  0  0  0  0  0  0  0  0  0
    4.3260   -0.4000    3.3500 C   0  0  0  0  0  0  0  0  0  0  0  0
    4.8550    0.7400    3.3470 O   0  0  0  0  0  0  0  0  0  0  0  0
    1.3740    1.0840    1.8650 C   0  0  0  0  0  0  0  0  0  0  0  0
    1.9320    0.1820    1.2050 O   0  0  0  0  0  0  0  0  0  0  0  0
    5.1650   -1.4460    2.9400 O   0  0  0  0  0  0  0  0  0  0  0  0
    0.9590    3.3680    3.0740 H   0  0  0  0  0  0  0  0  0  0  0  0
    0.3360    2.2200    4.2250 H   0  0  0  0  0  0  0  0  0  0  0  0
    2.9550    2.0170    2.9260 H   0  0  0  0  0  0  0  0  0  0  0  0
    1.1140    0.0970    4.4080 H   0  0  0  0  0  0  0  0  0  0  0  0
    2.5180    0.9430    5.0830 H   0  0  0  0  0  0  0  0  0  0  0  0
    2.3810   -1.2770    2.9760 H   0  0  0  0  0  0  0  0  0  0  0  0
    2.9960   -1.3910    4.6290 H   0  0  0  0  0  0  0  0  0  0  0  0
    6.1620   -1.4600    3.1760 H   0  0  0  0  0  0  0  0  0  0  0  0
    0.1720    1.6200    1.3530 N   0  0  0  0  0  0  0  0  0  0  0  0
   -0.3530    1.1080    0.1080 C   0  0  1  0  0  0  0  0  0  0  0  0
    0.5740    1.2900   -1.0570 C   0  0  0  0  0  0  0  0  0  0  0  0
    0.9220    2.7060   -1.3450 C   0  0  0  0  0  0  0  0  0  0  0  0
   -0.2240    3.5610   -1.7020 C   0  0  0  0  0  0  0  0  0  0  0  0
   -0.1060    4.8210   -1.8140 O   0  0  0  0  0  0  0  0  0  0  0  0
   -0.6430   -0.3560    0.3220 C   0  0  0  0  0  0  0  0  0  0  0  0
   -0.4320   -0.9110    1.4290 O   0  0  0  0  0  0  0  0  0  0  0  0
   -1.4620    3.0000   -1.9250 O   0  0  0  0  0  0  0  0  0  0  0  0
   -0.3550    2.3850    1.8530 H   0  0  0  0  0  0  0  0  0  0  0  0
   -1.3270    1.5860   -0.1540 H   0  0  0  0  0  0  0  0  0  0  0  0
    0.0180    0.9200   -1.9760 H   0  0  0  0  0  0  0  0  0  0  0  0
    1.4660    0.6210   -1.0250 H   0  0  0  0  0  0  0  0  0  0  0  0
    1.6270    2.7660   -2.2260 H   0  0  0  0  0  0  0  0  0  0  0  0
    1.5140    3.1850   -0.5200 H   0  0  0  0  0  0  0  0  0  0  0  0
   -2.2070    3.5480   -2.3280 H   0  0  0  0  0  0  0  0  0  0  0  0
   -1.1650   -1.1700   -0.7190 N   0  0  0  0  0  0  0  0  0  0  0  0
   -1.4390   -2.6100   -0.4730 C   0  0  1  0  0  0  0  0  0  0  0  0
   -2.8380   -2.9010   -0.8960 C   0  0  0  0  0  0  0  0  0  0  0  0
   -3.3280   -4.2560   -0.6740 C   0  0  0  0  0  0  0  0  0  0  0  0
   -2.8380   -5.3710   -0.0700 C   0  0  0  0  0  0  0  0  0  0  0  0
   -3.7690   -6.3670   -0.1210 N   0  0  0  0  0  0  0  0  0  0  0  0
   -4.8220   -5.8730   -0.7470 C   0  0  0  0  0  0  0  0  0  0  0  0
   -4.5860   -4.6210   -1.0850 N   0  0  0  0  0  0  0  0  0  0  0  0
   -0.5300   -3.2920   -1.4540 C   0  0  0  0  0  0  0  0  0  0  0  0
   -0.4770   -4.5290   -1.5710 O   0  0  0  0  0  0  0  0  0  0  0  0
    0.3150   -2.5650   -2.2970 O   0  0  0  0  0  0  0  0  0  0  0  0
   -1.3510   -0.7490   -1.6420 H   0  0  0  0  0  0  0  0  0  0  0  0
   -1.1800   -2.9040    0.5480 H   0  0  0  0  0  0  0  0  0  0  0  0
   -2.9890   -2.6800   -1.9910 H   0  0  0  0  0  0  0  0  0  0  0  0
   -3.5130   -2.1700   -0.3570 H   0  0  0  0  0  0  0  0  0  0  0  0
   -1.8830   -5.4800    0.3990 H   0  0  0  0  0  0  0  0  0  0  0  0
   -3.6660   -7.3220    0.2590 H   0  0  0  0  0  0  0  0  0  0  0  0
   -5.7360   -6.4090   -0.9500 H   0  0  0  0  0  0  0  0  0  0  0  0
  1 11  1  0  0  0  0
  2 12  1  6  0  0  0
  2  1  1  0  0  0  0
  2  3  1  0  0  0  0
  3 13  1  0  0  0  0
  3 14  1  0  0  0  0
  4  3  1  0  0  0  0
  4 16  1  0  0  0  0
  5  4  1  0  0  0  0
  6  5  2  0  0  0  0
  7  2  1  0  0  0  0
  8  7  2  0  0  0  0
  9 17  1  0  0  0  0
  9  5  1  0  0  0  0
 10  1  1  0  0  0  0
 15  4  1  0  0  0  0
 18 27  1  0  0  0  0
 18  7  1  0  0  0  0
 19 28  1  6  0  0  0
 19 24  1  0  0  0  0
 19 18  1  0  0  0  0
 20 30  1  0  0  0  0
 20 19  1  0  0  0  0
 21 20  1  0  0  0  0
 21 32  1  0  0  0  0
 22 21  1  0  0  0  0
 23 22  2  0  0  0  0
 24 25  2  0  0  0  0
 26 22  1  0  0  0  0
 29 20  1  0  0  0  0
 31 21  1  0  0  0  0
 33 26  1  0  0  0  0
 34 35  1  0  0  0  0
 34 24  1  0  0  0  0
 35 46  1  1  0  0  0
 36 37  1  0  0  0  0
 36 35  1  0  0  0  0
 36 48  1  0  0  0  0
 37 38  2  0  0  0  0
 38 49  1  0  0  0  0
 39 38  1  0  0  0  0
 39 50  1  0  0  0  0
 40 39  1  0  0  0  0
 41 40  2  0  0  0  0
 41 37  1  0  0  0  0
 42 35  1  0  0  0  0
 43 42  1  0  0  0  0
 44 42  2  0  0  0  0
 45 34  1  0  0  0  0
 47 36  1  0  0  0  0
 51 40  1  0  0  0  0
M  END
$$$$
