EEK.pdb
 OpenBabel07022418183D

 55 54  0  0  1  0  0  0  0  0999 V2000
    3.9050   -2.3200    2.9040 N   0  0  0  0  0  0  0  0  0  0  0  0
    3.0500   -1.3000    2.3310 C   0  0  1  0  0  0  0  0  0  0  0  0
    3.1530   -1.2870    0.8430 C   0  0  0  0  0  0  0  0  0  0  0  0
    4.5880   -1.0010    0.4480 C   0  0  0  0  0  0  0  0  0  0  0  0
    4.7190   -0.9840   -1.0530 C   0  0  0  0  0  0  0  0  0  0  0  0
    3.6970   -1.1930   -1.7560 O   0  0  0  0  0  0  0  0  0  0  0  0
    1.7110   -1.4270    2.8730 C   0  0  0  0  0  0  0  0  0  0  0  0
    1.4570   -2.3460    3.6900 O   0  0  0  0  0  0  0  0  0  0  0  0
    5.9150   -0.7490   -1.6790 O   0  0  0  0  0  0  0  0  0  0  0  0
    3.4430   -2.7230    3.7340 H   0  0  0  0  0  0  0  0  0  0  0  0
    4.0230   -3.0590    2.1500 H   0  0  0  0  0  0  0  0  0  0  0  0
    3.4690   -0.3120    2.6850 H   0  0  0  0  0  0  0  0  0  0  0  0
    2.8660   -2.2270    0.3540 H   0  0  0  0  0  0  0  0  0  0  0  0
    2.5330   -0.4690    0.4230 H   0  0  0  0  0  0  0  0  0  0  0  0
    4.9420   -0.0170    0.7850 H   0  0  0  0  0  0  0  0  0  0  0  0
    5.2880   -1.7830    0.8030 H   0  0  0  0  0  0  0  0  0  0  0  0
    5.9890   -0.3370   -2.6170 H   0  0  0  0  0  0  0  0  0  0  0  0
    0.6820   -0.5490    2.5130 N   0  0  0  0  0  0  0  0  0  0  0  0
   -0.6760   -0.6210    3.0150 C   0  0  1  0  0  0  0  0  0  0  0  0
   -0.9290    0.6790    3.7390 C   0  0  0  0  0  0  0  0  0  0  0  0
    0.0030    0.9150    4.8710 C   0  0  0  0  0  0  0  0  0  0  0  0
   -0.0200   -0.0580    5.9550 C   0  0  0  0  0  0  0  0  0  0  0  0
   -0.8180   -1.0220    5.9350 O   0  0  0  0  0  0  0  0  0  0  0  0
   -1.6500   -0.8310    1.9120 C   0  0  0  0  0  0  0  0  0  0  0  0
   -2.8750   -0.9280    2.1710 O   0  0  0  0  0  0  0  0  0  0  0  0
    0.8320    0.0430    7.0420 O   0  0  0  0  0  0  0  0  0  0  0  0
    0.9020    0.2060    1.8410 H   0  0  0  0  0  0  0  0  0  0  0  0
   -0.7520   -1.4680    3.6930 H   0  0  0  0  0  0  0  0  0  0  0  0
   -1.9960    0.8170    3.9980 H   0  0  0  0  0  0  0  0  0  0  0  0
   -0.7140    1.4840    2.9760 H   0  0  0  0  0  0  0  0  0  0  0  0
    1.0640    0.9690    4.4810 H   0  0  0  0  0  0  0  0  0  0  0  0
   -0.1840    1.9690    5.2290 H   0  0  0  0  0  0  0  0  0  0  0  0
    0.7710   -0.6400    7.7950 H   0  0  0  0  0  0  0  0  0  0  0  0
   -1.2270   -0.9250    0.5720 N   0  0  0  0  0  0  0  0  0  0  0  0
   -2.2760   -1.1430   -0.5300 C   0  0  1  0  0  0  0  0  0  0  0  0
   -2.1890    0.0530   -1.3850 C   0  0  0  0  0  0  0  0  0  0  0  0
   -3.0470    0.3450   -2.5260 C   0  0  0  0  0  0  0  0  0  0  0  0
   -3.1390   -0.5300   -3.7060 C   0  0  0  0  0  0  0  0  0  0  0  0
   -4.0530    0.1460   -4.7840 C   0  0  0  0  0  0  0  0  0  0  0  0
   -4.1050   -0.7550   -5.9190 N   0  0  0  0  0  0  0  0  0  0  0  0
   -1.8690   -2.3810   -1.1930 C   0  0  0  0  0  0  0  0  0  0  0  0
   -0.6940   -2.8710   -0.9330 O   0  0  0  0  0  0  0  0  0  0  0  0
   -2.5890   -3.1200   -2.0770 O   0  0  0  0  0  0  0  0  0  0  0  0
   -0.2500   -0.8580    0.2530 H   0  0  0  0  0  0  0  0  0  0  0  0
   -3.2420   -1.2100   -0.0190 H   0  0  0  0  0  0  0  0  0  0  0  0
   -1.1090    0.1880   -1.7660 H   0  0  0  0  0  0  0  0  0  0  0  0
   -2.2530    0.9990   -0.7110 H   0  0  0  0  0  0  0  0  0  0  0  0
   -2.7630    1.3860   -2.9560 H   0  0  0  0  0  0  0  0  0  0  0  0
   -4.1210    0.5850   -2.1930 H   0  0  0  0  0  0  0  0  0  0  0  0
   -2.2210   -0.8040   -4.2120 H   0  0  0  0  0  0  0  0  0  0  0  0
   -3.6910   -1.4680   -3.4290 H   0  0  0  0  0  0  0  0  0  0  0  0
   -5.0630    0.2920   -4.3560 H   0  0  0  0  0  0  0  0  0  0  0  0
   -3.5660    1.0720   -5.1070 H   0  0  0  0  0  0  0  0  0  0  0  0
   -3.1010   -0.8930   -6.2190 H   0  0  0  0  0  0  0  0  0  0  0  0
   -4.5460   -0.2050   -6.7040 H   0  0  0  0  0  0  0  0  0  0  0  0
  1 10  1  0  0  0  0
  2 12  1  1  0  0  0
  2  7  1  0  0  0  0
  2  1  1  0  0  0  0
  3  2  1  0  0  0  0
  4 15  1  0  0  0  0
  4 16  1  0  0  0  0
  4  3  1  0  0  0  0
  5  4  1  0  0  0  0
  6  5  2  0  0  0  0
  7  8  2  0  0  0  0
  9  5  1  0  0  0  0
 11  1  1  0  0  0  0
 13  3  1  0  0  0  0
 14  3  1  0  0  0  0
 17  9  1  0  0  0  0
 18  7  1  0  0  0  0
 18 19  1  0  0  0  0
 19 28  1  1  0  0  0
 19 20  1  0  0  0  0
 20 29  1  0  0  0  0
 20 21  1  0  0  0  0
 21 32  1  0  0  0  0
 21 22  1  0  0  0  0
 22 26  1  0  0  0  0
 23 22  2  0  0  0  0
 24 25  2  0  0  0  0
 24 19  1  0  0  0  0
 26 33  1  0  0  0  0
 27 18  1  0  0  0  0
 30 20  1  0  0  0  0
 31 21  1  0  0  0  0
 34 24  1  0  0  0  0
 35 45  1  1  0  0  0
 35 34  1  0  0  0  0
 36 47  1  0  0  0  0
 36 35  1  0  0  0  0
 37 49  1  0  0  0  0
 37 36  1  0  0  0  0
 38 51  1  0  0  0  0
 38 37  1  0  0  0  0
 39 52  1  0  0  0  0
 39 38  1  0  0  0  0
 40 39  1  0  0  0  0
 41 42  1  0  0  0  0
 41 35  1  0  0  0  0
 43 41  2  0  0  0  0
 44 34  1  0  0  0  0
 46 36  1  0  0  0  0
 48 37  1  0  0  0  0
 50 38  1  0  0  0  0
 53 39  1  0  0  0  0
 54 40  1  0  0  0  0
 55 40  1  0  0  0  0
M  END
$$$$
