EEM.pdb
 OpenBabel07022418183D

 51 50  0  0  1  0  0  0  0  0999 V2000
    3.8760   -2.6530    1.5980 N   0  0  0  0  0  0  0  0  0  0  0  0
    3.0920   -2.5200    2.8010 C   0  0  1  0  0  0  0  0  0  0  0  0
    3.8290   -1.6560    3.8060 C   0  0  0  0  0  0  0  0  0  0  0  0
    4.0360   -0.3150    3.1640 C   0  0  0  0  0  0  0  0  0  0  0  0
    4.7490    0.5710    4.0910 C   0  0  0  0  0  0  0  0  0  0  0  0
    5.0830    0.1660    5.2200 O   0  0  0  0  0  0  0  0  0  0  0  0
    1.7750   -1.9010    2.5630 C   0  0  0  0  0  0  0  0  0  0  0  0
    1.0120   -1.7610    3.5480 O   0  0  0  0  0  0  0  0  0  0  0  0
    5.0280    1.8730    3.6480 O   0  0  0  0  0  0  0  0  0  0  0  0
    3.2850   -3.1890    0.9000 H   0  0  0  0  0  0  0  0  0  0  0  0
    4.6690   -3.3130    1.8360 H   0  0  0  0  0  0  0  0  0  0  0  0
    2.9430   -3.5110    3.2720 H   0  0  0  0  0  0  0  0  0  0  0  0
    4.7780   -2.1080    4.1270 H   0  0  0  0  0  0  0  0  0  0  0  0
    3.1250   -1.5320    4.6790 H   0  0  0  0  0  0  0  0  0  0  0  0
    4.5630   -0.4520    2.1960 H   0  0  0  0  0  0  0  0  0  0  0  0
    3.0460    0.1460    2.9490 H   0  0  0  0  0  0  0  0  0  0  0  0
    5.7740    2.3870    4.1140 H   0  0  0  0  0  0  0  0  0  0  0  0
    1.3180   -1.4580    1.3080 N   0  0  0  0  0  0  0  0  0  0  0  0
    0.0140   -0.8570    1.1270 C   0  0  1  0  0  0  0  0  0  0  0  0
    0.1390    0.6100    0.7030 C   0  0  0  0  0  0  0  0  0  0  0  0
    0.9000    0.7050   -0.6090 C   0  0  0  0  0  0  0  0  0  0  0  0
    1.0160    2.1270   -1.0130 C   0  0  0  0  0  0  0  0  0  0  0  0
    0.5270    3.0560   -0.3150 O   0  0  0  0  0  0  0  0  0  0  0  0
   -0.7610   -1.6160    0.1090 C   0  0  0  0  0  0  0  0  0  0  0  0
   -0.2560   -2.6250   -0.4500 O   0  0  0  0  0  0  0  0  0  0  0  0
    1.6710    2.4730   -2.1780 O   0  0  0  0  0  0  0  0  0  0  0  0
    1.9300   -1.5620    0.4770 H   0  0  0  0  0  0  0  0  0  0  0  0
   -0.5320   -0.8250    2.1120 H   0  0  0  0  0  0  0  0  0  0  0  0
   -0.8860    1.0160    0.6050 H   0  0  0  0  0  0  0  0  0  0  0  0
    0.6680    1.1950    1.4590 H   0  0  0  0  0  0  0  0  0  0  0  0
    0.2670    0.1580   -1.3580 H   0  0  0  0  0  0  0  0  0  0  0  0
    1.8780    0.2010   -0.5460 H   0  0  0  0  0  0  0  0  0  0  0  0
    2.2020    3.3560   -2.2150 H   0  0  0  0  0  0  0  0  0  0  0  0
   -5.0920    0.8860   -1.4340 C   0  0  0  0  0  0  0  0  0  0  0  0
   -6.0150   -0.5970   -1.0390 S   0  0  0  0  0  0  0  0  0  0  0  0
   -5.1630   -1.8450   -0.1200 C   0  0  0  0  0  0  0  0  0  0  0  0
   -4.0870   -2.6100   -0.7640 C   0  0  0  0  0  0  0  0  0  0  0  0
   -2.8680   -1.9550   -1.2580 C   0  0  2  0  0  0  0  0  0  0  0  0
   -2.0790   -1.2460   -0.2720 N   0  0  0  0  0  0  0  0  0  0  0  0
   -2.9980   -1.2270   -2.5410 C   0  0  0  0  0  0  0  0  0  0  0  0
   -3.7210   -1.6890   -3.4540 O   0  0  0  0  0  0  0  0  0  0  0  0
   -2.3370   -0.0330   -2.7820 O   0  0  0  0  0  0  0  0  0  0  0  0
   -4.1200    0.8750   -0.9150 H   0  0  0  0  0  0  0  0  0  0  0  0
   -4.8670    0.9660   -2.5370 H   0  0  0  0  0  0  0  0  0  0  0  0
   -5.6130    1.8170   -1.0890 H   0  0  0  0  0  0  0  0  0  0  0  0
   -5.9560   -2.6150    0.1790 H   0  0  0  0  0  0  0  0  0  0  0  0
   -4.8510   -1.4760    0.9220 H   0  0  0  0  0  0  0  0  0  0  0  0
   -4.5510   -3.1680   -1.6310 H   0  0  0  0  0  0  0  0  0  0  0  0
   -3.8120   -3.4450   -0.0500 H   0  0  0  0  0  0  0  0  0  0  0  0
   -2.1900   -2.8600   -1.5740 H   0  0  0  0  0  0  0  0  0  0  0  0
   -2.4910   -0.4180    0.1930 H   0  0  0  0  0  0  0  0  0  0  0  0
  1 11  1  0  0  0  0
  1  2  1  0  0  0  0
  2 12  1  1  0  0  0
  2  3  1  0  0  0  0
  3 13  1  0  0  0  0
  3 14  1  0  0  0  0
  4  3  1  0  0  0  0
  4  5  1  0  0  0  0
  5  6  2  0  0  0  0
  7  2  1  0  0  0  0
  7  8  2  0  0  0  0
  9  5  1  0  0  0  0
  9 17  1  0  0  0  0
 10  1  1  0  0  0  0
 15  4  1  0  0  0  0
 16  4  1  0  0  0  0
 18  7  1  0  0  0  0
 19 18  1  0  0  0  0
 19 28  1  1  0  0  0
 20 19  1  0  0  0  0
 20 30  1  0  0  0  0
 21 32  1  0  0  0  0
 21 20  1  0  0  0  0
 22 21  1  0  0  0  0
 22 23  2  0  0  0  0
 24 19  1  0  0  0  0
 25 24  2  0  0  0  0
 26 22  1  0  0  0  0
 27 18  1  0  0  0  0
 29 20  1  0  0  0  0
 31 21  1  0  0  0  0
 33 26  1  0  0  0  0
 34 45  1  0  0  0  0
 34 35  1  0  0  0  0
 34 43  1  0  0  0  0
 35 36  1  0  0  0  0
 36 46  1  0  0  0  0
 36 47  1  0  0  0  0
 37 36  1  0  0  0  0
 37 49  1  0  0  0  0
 38 50  1  6  0  0  0
 38 37  1  0  0  0  0
 38 39  1  0  0  0  0
 39 24  1  0  0  0  0
 39 51  1  0  0  0  0
 40 38  1  0  0  0  0
 41 40  2  0  0  0  0
 42 40  1  0  0  0  0
 44 34  1  0  0  0  0
 48 37  1  0  0  0  0
M  END
$$$$
