EEN.pdb
 OpenBabel07022418173D

 48 47  0  0  1  0  0  0  0  0999 V2000
    2.0150   -1.9650   -2.3480 N   0  0  0  0  0  0  0  0  0  0  0  0
    2.0240   -0.6410   -1.6130 C   0  0  1  0  0  0  0  0  0  0  0  0
    1.2020    0.2830   -2.3740 C   0  0  0  0  0  0  0  0  0  0  0  0
    1.0410    1.6890   -1.9960 C   0  0  0  0  0  0  0  0  0  0  0  0
    2.3390    2.4440   -1.9570 C   0  0  0  0  0  0  0  0  0  0  0  0
    2.2800    3.6480   -1.6070 O   0  0  0  0  0  0  0  0  0  0  0  0
    1.7920   -0.9180   -0.2040 C   0  0  0  0  0  0  0  0  0  0  0  0
    2.5150   -1.8650    0.3130 O   0  0  0  0  0  0  0  0  0  0  0  0
    3.5420    1.8920   -2.2750 O   0  0  0  0  0  0  0  0  0  0  0  0
    2.1010   -2.7330   -1.6470 H   0  0  0  0  0  0  0  0  0  0  0  0
    1.1160   -2.0220   -2.8800 H   0  0  0  0  0  0  0  0  0  0  0  0
    3.1170   -0.3440   -1.8040 H   0  0  0  0  0  0  0  0  0  0  0  0
    0.1310   -0.1300   -2.4590 H   0  0  0  0  0  0  0  0  0  0  0  0
    1.4910    0.2790   -3.4770 H   0  0  0  0  0  0  0  0  0  0  0  0
    0.5080    2.1930   -2.8920 H   0  0  0  0  0  0  0  0  0  0  0  0
    0.4590    1.9960   -1.1560 H   0  0  0  0  0  0  0  0  0  0  0  0
    4.4500    2.3270   -2.0410 H   0  0  0  0  0  0  0  0  0  0  0  0
    0.8950   -0.3130    0.6730 N   0  0  0  0  0  0  0  0  0  0  0  0
    0.7870   -0.7190    2.0940 C   0  0  1  0  0  0  0  0  0  0  0  0
    0.9400    0.4540    2.9980 C   0  0  0  0  0  0  0  0  0  0  0  0
    0.8350    0.0290    4.4450 C   0  0  0  0  0  0  0  0  0  0  0  0
    1.8910   -0.9900    4.7700 C   0  0  0  0  0  0  0  0  0  0  0  0
    3.0860   -0.7940    4.4130 O   0  0  0  0  0  0  0  0  0  0  0  0
   -0.4760   -1.4690    2.3140 C   0  0  0  0  0  0  0  0  0  0  0  0
   -0.8170   -1.9480    3.4350 O   0  0  0  0  0  0  0  0  0  0  0  0
    1.5830   -2.1500    5.4560 O   0  0  0  0  0  0  0  0  0  0  0  0
    0.2440    0.4340    0.3800 H   0  0  0  0  0  0  0  0  0  0  0  0
    1.6500   -1.4280    2.3030 H   0  0  0  0  0  0  0  0  0  0  0  0
    1.9520    0.8910    2.8870 H   0  0  0  0  0  0  0  0  0  0  0  0
    0.1780    1.2310    2.8470 H   0  0  0  0  0  0  0  0  0  0  0  0
   -0.1560   -0.2810    4.7780 H   0  0  0  0  0  0  0  0  0  0  0  0
    1.0900    0.9380    5.0730 H   0  0  0  0  0  0  0  0  0  0  0  0
    1.9530   -3.0500    5.0770 H   0  0  0  0  0  0  0  0  0  0  0  0
   -3.5790    0.8980    0.6830 N   0  0  0  0  0  0  0  0  0  0  0  0
   -4.0190   -0.3050    1.3000 C   0  0  0  0  0  0  0  0  0  0  0  0
   -4.6360   -0.2150    2.3810 O   0  0  0  0  0  0  0  0  0  0  0  0
   -3.7510   -1.6010    0.6830 C   0  0  0  0  0  0  0  0  0  0  0  0
   -2.5930   -2.3640    1.2800 C   0  0  2  0  0  0  0  0  0  0  0  0
   -1.3420   -1.6560    1.2010 N   0  0  0  0  0  0  0  0  0  0  0  0
   -2.5090   -3.6440    0.5290 C   0  0  0  0  0  0  0  0  0  0  0  0
   -3.4380   -4.4710    0.4070 O   0  0  0  0  0  0  0  0  0  0  0  0
   -1.3140   -3.9620   -0.0940 O   0  0  0  0  0  0  0  0  0  0  0  0
   -3.1970    1.7170    1.2440 H   0  0  0  0  0  0  0  0  0  0  0  0
   -3.6150    1.0450   -0.3610 H   0  0  0  0  0  0  0  0  0  0  0  0
   -4.6450   -2.2930    0.7220 H   0  0  0  0  0  0  0  0  0  0  0  0
   -3.5790   -1.4500   -0.4240 H   0  0  0  0  0  0  0  0  0  0  0  0
   -2.7530   -2.6180    2.3530 H   0  0  0  0  0  0  0  0  0  0  0  0
   -1.0340   -1.2540    0.2860 H   0  0  0  0  0  0  0  0  0  0  0  0
  1 10  1  0  0  0  0
  1  2  1  0  0  0  0
  2 12  1  6  0  0  0
  2  7  1  0  0  0  0
  3  4  1  0  0  0  0
  3  2  1  0  0  0  0
  4  5  1  0  0  0  0
  4 16  1  0  0  0  0
  5  6  2  0  0  0  0
  7  8  2  0  0  0  0
  7 18  1  0  0  0  0
  9 17  1  0  0  0  0
  9  5  1  0  0  0  0
 11  1  1  0  0  0  0
 13  3  1  0  0  0  0
 14  3  1  0  0  0  0
 15  4  1  0  0  0  0
 18 19  1  0  0  0  0
 19 28  1  1  0  0  0
 19 24  1  0  0  0  0
 19 20  1  0  0  0  0
 20 21  1  0  0  0  0
 21 22  1  0  0  0  0
 21 31  1  0  0  0  0
 21 32  1  0  0  0  0
 22 26  1  0  0  0  0
 23 22  2  0  0  0  0
 24 25  2  0  0  0  0
 27 18  1  0  0  0  0
 29 20  1  0  0  0  0
 30 20  1  0  0  0  0
 33 26  1  0  0  0  0
 34 43  1  0  0  0  0
 34 35  1  0  0  0  0
 35 36  2  0  0  0  0
 37 45  1  0  0  0  0
 37 38  1  0  0  0  0
 37 35  1  0  0  0  0
 38 47  1  1  0  0  0
 39 38  1  0  0  0  0
 39 24  1  0  0  0  0
 40 38  1  0  0  0  0
 41 40  1  0  0  0  0
 42 40  2  0  0  0  0
 44 34  1  0  0  0  0
 46 37  1  0  0  0  0
 48 39  1  0  0  0  0
M  END
$$$$
