EEP.pdb
 OpenBabel07022418183D

 48 48  0  0  1  0  0  0  0  0999 V2000
    1.2280   -1.5480   -2.1860 N   0  0  0  0  0  0  0  0  0  0  0  0
    2.2240   -1.5820   -1.0840 C   0  0  1  0  0  0  0  0  0  0  0  0
    3.3290   -0.7020   -1.5930 C   0  0  0  0  0  0  0  0  0  0  0  0
    4.5230   -0.5010   -0.7550 C   0  0  0  0  0  0  0  0  0  0  0  0
    4.3740    0.1340    0.5450 C   0  0  0  0  0  0  0  0  0  0  0  0
    4.9220   -0.3610    1.5900 O   0  0  0  0  0  0  0  0  0  0  0  0
    1.6280   -1.0210    0.1330 C   0  0  0  0  0  0  0  0  0  0  0  0
    2.0700   -1.2560    1.2730 O   0  0  0  0  0  0  0  0  0  0  0  0
    3.6410    1.3010    0.7420 O   0  0  0  0  0  0  0  0  0  0  0  0
    1.7400   -2.0350   -2.9860 H   0  0  0  0  0  0  0  0  0  0  0  0
    0.4190   -2.1310   -1.9760 H   0  0  0  0  0  0  0  0  0  0  0  0
    2.5410   -2.6410   -1.0020 H   0  0  0  0  0  0  0  0  0  0  0  0
    2.8850    0.2900   -1.8950 H   0  0  0  0  0  0  0  0  0  0  0  0
    3.7130   -1.0910   -2.5940 H   0  0  0  0  0  0  0  0  0  0  0  0
    5.1490   -1.4350   -0.7050 H   0  0  0  0  0  0  0  0  0  0  0  0
    5.2010    0.1970   -1.3520 H   0  0  0  0  0  0  0  0  0  0  0  0
    3.9460    1.9690    1.4510 H   0  0  0  0  0  0  0  0  0  0  0  0
    0.4820   -0.1510    0.0870 N   0  0  0  0  0  0  0  0  0  0  0  0
   -0.1280    0.4180    1.2720 C   0  0  1  0  0  0  0  0  0  0  0  0
   -0.1740    1.9120    1.1900 C   0  0  0  0  0  0  0  0  0  0  0  0
   -0.7870    2.6190    2.3520 C   0  0  0  0  0  0  0  0  0  0  0  0
   -0.0920    2.3710    3.6290 C   0  0  0  0  0  0  0  0  0  0  0  0
   -0.5880    2.8020    4.7310 O   0  0  0  0  0  0  0  0  0  0  0  0
   -1.3700   -0.2350    1.7050 C   0  0  0  0  0  0  0  0  0  0  0  0
   -1.8850    0.2200    2.8010 O   0  0  0  0  0  0  0  0  0  0  0  0
    1.0900    1.6890    3.7230 O   0  0  0  0  0  0  0  0  0  0  0  0
    0.1300    0.0640   -0.8680 H   0  0  0  0  0  0  0  0  0  0  0  0
    0.6310    0.1790    2.0910 H   0  0  0  0  0  0  0  0  0  0  0  0
    0.9150    2.2360    1.1900 H   0  0  0  0  0  0  0  0  0  0  0  0
   -0.6120    2.2780    0.2340 H   0  0  0  0  0  0  0  0  0  0  0  0
   -1.8720    2.4440    2.4950 H   0  0  0  0  0  0  0  0  0  0  0  0
   -0.6180    3.7320    2.1600 H   0  0  0  0  0  0  0  0  0  0  0  0
    1.3680    1.1160    4.4940 H   0  0  0  0  0  0  0  0  0  0  0  0
   -2.0760   -1.2890    1.0920 N   0  0  0  0  0  0  0  0  0  0  0  0
   -1.8110   -2.0060   -0.1190 C   0  0  0  0  0  0  0  0  0  0  0  0
   -3.1150   -2.7400   -0.4880 C   0  0  0  0  0  0  0  0  0  0  0  0
   -4.1490   -1.9900    0.3780 C   0  0  0  0  0  0  0  0  0  0  0  0
   -3.2940   -1.9000    1.6530 C   0  0  1  0  0  0  0  0  0  0  0  0
   -3.0220   -3.2750    2.1210 C   0  0  0  0  0  0  0  0  0  0  0  0
   -1.8680   -3.7380    1.9880 O   0  0  0  0  0  0  0  0  0  0  0  0
   -3.9860   -4.0740    2.6990 O   0  0  0  0  0  0  0  0  0  0  0  0
   -1.0100   -2.7420    0.0610 H   0  0  0  0  0  0  0  0  0  0  0  0
   -1.6290   -1.3620   -1.0080 H   0  0  0  0  0  0  0  0  0  0  0  0
   -3.0790   -3.7970   -0.2300 H   0  0  0  0  0  0  0  0  0  0  0  0
   -3.3910   -2.6230   -1.5330 H   0  0  0  0  0  0  0  0  0  0  0  0
   -4.3110   -0.9790   -0.0280 H   0  0  0  0  0  0  0  0  0  0  0  0
   -5.0650   -2.5590    0.5190 H   0  0  0  0  0  0  0  0  0  0  0  0
   -3.7490   -1.2480    2.4150 H   0  0  0  0  0  0  0  0  0  0  0  0
  1 11  1  0  0  0  0
  1  2  1  0  0  0  0
  2 12  1  1  0  0  0
  2  7  1  0  0  0  0
  3  2  1  0  0  0  0
  3  4  1  0  0  0  0
  4 15  1  0  0  0  0
  4  5  1  0  0  0  0
  5  9  1  0  0  0  0
  5  6  2  0  0  0  0
  7  8  2  0  0  0  0
  9 17  1  0  0  0  0
 10  1  1  0  0  0  0
 13  3  1  0  0  0  0
 14  3  1  0  0  0  0
 16  4  1  0  0  0  0
 18  7  1  0  0  0  0
 18 19  1  0  0  0  0
 19 24  1  0  0  0  0
 19 28  1  1  0  0  0
 20 29  1  0  0  0  0
 20 19  1  0  0  0  0
 20 21  1  0  0  0  0
 21 31  1  0  0  0  0
 21 22  1  0  0  0  0
 22 26  1  0  0  0  0
 22 23  2  0  0  0  0
 24 25  2  0  0  0  0
 26 33  1  0  0  0  0
 27 18  1  0  0  0  0
 30 20  1  0  0  0  0
 32 21  1  0  0  0  0
 34 38  1  0  0  0  0
 34 24  1  0  0  0  0
 35 42  1  0  0  0  0
 35 34  1  0  0  0  0
 36 44  1  0  0  0  0
 36 35  1  0  0  0  0
 36 37  1  0  0  0  0
 37 47  1  0  0  0  0
 37 38  1  0  0  0  0
 38 39  1  0  0  0  0
 38 48  1  1  0  0  0
 39 41  1  0  0  0  0
 40 39  2  0  0  0  0
 43 35  1  0  0  0  0
 45 36  1  0  0  0  0
 46 37  1  0  0  0  0
M  END
$$$$
