EER.pdb
 OpenBabel07022418173D

 57 56  0  0  1  0  0  0  0  0999 V2000
    2.8820   -2.0470    3.8820 N   0  0  0  0  0  0  0  0  0  0  0  0
    1.9100   -0.9720    3.6430 C   0  0  1  0  0  0  0  0  0  0  0  0
    2.3950    0.3220    4.1980 C   0  0  0  0  0  0  0  0  0  0  0  0
    3.7040    0.7850    3.6170 C   0  0  0  0  0  0  0  0  0  0  0  0
    4.0240    2.0760    4.2800 C   0  0  0  0  0  0  0  0  0  0  0  0
    4.0550    2.1720    5.5440 O   0  0  0  0  0  0  0  0  0  0  0  0
    1.5820   -0.9170    2.2180 C   0  0  0  0  0  0  0  0  0  0  0  0
    2.3460   -1.5560    1.4410 O   0  0  0  0  0  0  0  0  0  0  0  0
    4.3050    3.2550    3.5580 O   0  0  0  0  0  0  0  0  0  0  0  0
    2.6600   -2.5820    4.7490 H   0  0  0  0  0  0  0  0  0  0  0  0
    2.8070   -2.6980    3.0580 H   0  0  0  0  0  0  0  0  0  0  0  0
    1.0100   -1.2620    4.2670 H   0  0  0  0  0  0  0  0  0  0  0  0
    2.5890    0.1380    5.2980 H   0  0  0  0  0  0  0  0  0  0  0  0
    1.6210    1.0840    4.1220 H   0  0  0  0  0  0  0  0  0  0  0  0
    3.7420    0.9110    2.5450 H   0  0  0  0  0  0  0  0  0  0  0  0
    4.5100    0.0270    3.8640 H   0  0  0  0  0  0  0  0  0  0  0  0
    3.8710    4.1280    3.8700 H   0  0  0  0  0  0  0  0  0  0  0  0
    0.4560   -0.1950    1.6700 N   0  0  0  0  0  0  0  0  0  0  0  0
    0.0910   -0.1580    0.3130 C   0  0  1  0  0  0  0  0  0  0  0  0
    0.5730    0.8580   -0.6140 C   0  0  0  0  0  0  0  0  0  0  0  0
    0.1900    2.2610   -0.2670 C   0  0  0  0  0  0  0  0  0  0  0  0
    0.7300    2.8150    0.9760 C   0  0  0  0  0  0  0  0  0  0  0  0
    1.5720    2.2500    1.6840 O   0  0  0  0  0  0  0  0  0  0  0  0
    0.0980   -1.5740   -0.2290 C   0  0  0  0  0  0  0  0  0  0  0  0
    0.3390   -2.5580    0.4990 O   0  0  0  0  0  0  0  0  0  0  0  0
    0.2970    4.0730    1.4440 O   0  0  0  0  0  0  0  0  0  0  0  0
   -0.1060    0.3130    2.4140 H   0  0  0  0  0  0  0  0  0  0  0  0
   -1.0750    0.0500    0.3500 H   0  0  0  0  0  0  0  0  0  0  0  0
    1.6890    0.8800   -0.7500 H   0  0  0  0  0  0  0  0  0  0  0  0
    0.1930    0.6570   -1.6500 H   0  0  0  0  0  0  0  0  0  0  0  0
    0.4740    2.8980   -1.1510 H   0  0  0  0  0  0  0  0  0  0  0  0
   -0.9360    2.3620   -0.1990 H   0  0  0  0  0  0  0  0  0  0  0  0
    0.5410    4.3350    2.3840 H   0  0  0  0  0  0  0  0  0  0  0  0
   -6.1910   -1.1490    0.0620 N   0  0  0  0  0  0  0  0  0  0  0  0
   -5.1220   -1.1200   -0.8740 C   0  0  0  0  0  0  0  0  0  0  0  0
   -4.7370    0.0530   -1.2630 N   0  0  0  0  0  0  0  0  0  0  0  0
   -4.5110   -2.3050   -1.3570 N   0  0  0  0  0  0  0  0  0  0  0  0
   -3.1360   -2.2180   -1.8860 C   0  0  0  0  0  0  0  0  0  0  0  0
   -2.6600   -3.5560   -2.3380 C   0  0  0  0  0  0  0  0  0  0  0  0
   -1.2900   -3.6280   -2.9160 C   0  0  0  0  0  0  0  0  0  0  0  0
   -0.1400   -3.2600   -2.0760 C   0  0  2  0  0  0  0  0  0  0  0  0
   -0.1700   -1.8830   -1.6020 N   0  0  0  0  0  0  0  0  0  0  0  0
    1.1700   -3.5170   -2.7820 C   0  0  0  0  0  0  0  0  0  0  0  0
    1.3700   -4.6570   -3.2450 O   0  0  0  0  0  0  0  0  0  0  0  0
    2.1180   -2.5340   -2.9170 O   0  0  0  0  0  0  0  0  0  0  0  0
   -6.1580   -1.8540    0.8180 H   0  0  0  0  0  0  0  0  0  0  0  0
   -6.9910   -0.4990    0.0140 H   0  0  0  0  0  0  0  0  0  0  0  0
   -3.9790    0.2470   -1.9330 H   0  0  0  0  0  0  0  0  0  0  0  0
   -5.0070   -3.2170   -1.3420 H   0  0  0  0  0  0  0  0  0  0  0  0
   -2.5360   -1.8690   -1.0540 H   0  0  0  0  0  0  0  0  0  0  0  0
   -3.1920   -1.4670   -2.6940 H   0  0  0  0  0  0  0  0  0  0  0  0
   -3.3700   -3.8720   -3.1620 H   0  0  0  0  0  0  0  0  0  0  0  0
   -2.8390   -4.3310   -1.5480 H   0  0  0  0  0  0  0  0  0  0  0  0
   -1.2910   -3.0070   -3.8560 H   0  0  0  0  0  0  0  0  0  0  0  0
   -1.1870   -4.7010   -3.2990 H   0  0  0  0  0  0  0  0  0  0  0  0
   -0.0980   -3.9640   -1.1870 H   0  0  0  0  0  0  0  0  0  0  0  0
   -0.3910   -1.0870   -2.2320 H   0  0  0  0  0  0  0  0  0  0  0  0
  1 10  1  0  0  0  0
  2  1  1  0  0  0  0
  2  3  1  0  0  0  0
  2 12  1  1  0  0  0
  3 13  1  0  0  0  0
  4 16  1  0  0  0  0
  4  3  1  0  0  0  0
  4  5  1  0  0  0  0
  5  6  2  0  0  0  0
  7  2  1  0  0  0  0
  8  7  2  0  0  0  0
  9 17  1  0  0  0  0
  9  5  1  0  0  0  0
 11  1  1  0  0  0  0
 14  3  1  0  0  0  0
 15  4  1  0  0  0  0
 18  7  1  0  0  0  0
 18 27  1  0  0  0  0
 19 28  1  1  0  0  0
 19 18  1  0  0  0  0
 20 21  1  0  0  0  0
 20 19  1  0  0  0  0
 21 32  1  0  0  0  0
 21 22  1  0  0  0  0
 22 26  1  0  0  0  0
 22 23  2  0  0  0  0
 24 19  1  0  0  0  0
 24 25  2  0  0  0  0
 26 33  1  0  0  0  0
 29 20  1  0  0  0  0
 30 20  1  0  0  0  0
 31 21  1  0  0  0  0
 34 46  1  0  0  0  0
 35 34  1  0  0  0  0
 36 35  2  0  0  0  0
 37 49  1  0  0  0  0
 37 35  1  0  0  0  0
 38 37  1  0  0  0  0
 38 50  1  0  0  0  0
 39 38  1  0  0  0  0
 39 53  1  0  0  0  0
 40 39  1  0  0  0  0
 40 41  1  0  0  0  0
 41 42  1  0  0  0  0
 41 56  1  1  0  0  0
 42 24  1  0  0  0  0
 43 41  1  0  0  0  0
 44 43  2  0  0  0  0
 45 43  1  0  0  0  0
 47 34  1  0  0  0  0
 48 36  1  0  0  0  0
 51 38  1  0  0  0  0
 52 39  1  0  0  0  0
 54 40  1  0  0  0  0
 55 40  1  0  0  0  0
 57 42  1  0  0  0  0
M  END
$$$$
