EES.pdb
 OpenBabel07022418183D

 45 44  0  0  1  0  0  0  0  0999 V2000
    4.1610   -0.0930    2.0270 N   0  0  0  0  0  0  0  0  0  0  0  0
    3.6190   -0.5510    0.7490 C   0  0  1  0  0  0  0  0  0  0  0  0
    4.2160   -1.8770    0.4710 C   0  0  0  0  0  0  0  0  0  0  0  0
    3.7690   -2.5800   -0.7690 C   0  0  0  0  0  0  0  0  0  0  0  0
    2.3730   -3.0410   -0.7630 C   0  0  0  0  0  0  0  0  0  0  0  0
    1.7310   -3.1080    0.3050 O   0  0  0  0  0  0  0  0  0  0  0  0
    2.1590   -0.4100    0.7250 C   0  0  0  0  0  0  0  0  0  0  0  0
    1.6510   -0.2910   -0.4210 O   0  0  0  0  0  0  0  0  0  0  0  0
    1.7620   -3.4030   -1.9410 O   0  0  0  0  0  0  0  0  0  0  0  0
    4.1090   -0.9420    2.6600 H   0  0  0  0  0  0  0  0  0  0  0  0
    5.1740    0.0930    1.8850 H   0  0  0  0  0  0  0  0  0  0  0  0
    4.0610    0.1940   -0.0010 H   0  0  0  0  0  0  0  0  0  0  0  0
    3.9990   -2.5970    1.3200 H   0  0  0  0  0  0  0  0  0  0  0  0
    5.3460   -1.7990    0.4480 H   0  0  0  0  0  0  0  0  0  0  0  0
    4.4120   -3.5080   -0.8650 H   0  0  0  0  0  0  0  0  0  0  0  0
    3.9210   -1.9370   -1.6840 H   0  0  0  0  0  0  0  0  0  0  0  0
    0.7550   -3.4750   -1.9900 H   0  0  0  0  0  0  0  0  0  0  0  0
    1.3510   -0.4010    1.8520 N   0  0  0  0  0  0  0  0  0  0  0  0
   -0.0440   -0.2820    1.9680 C   0  0  1  0  0  0  0  0  0  0  0  0
   -0.5940    0.8400    2.7600 C   0  0  0  0  0  0  0  0  0  0  0  0
   -0.3770    2.2280    2.3940 C   0  0  0  0  0  0  0  0  0  0  0  0
    1.0060    2.6900    2.4030 C   0  0  0  0  0  0  0  0  0  0  0  0
    1.9850    2.0570    2.7690 O   0  0  0  0  0  0  0  0  0  0  0  0
   -0.8820   -0.6400    0.7900 C   0  0  0  0  0  0  0  0  0  0  0  0
   -0.5050   -1.0970   -0.3030 O   0  0  0  0  0  0  0  0  0  0  0  0
    1.2410    3.9980    1.9420 O   0  0  0  0  0  0  0  0  0  0  0  0
    1.9370   -0.5460    2.7830 H   0  0  0  0  0  0  0  0  0  0  0  0
   -0.2970   -1.2180    2.6370 H   0  0  0  0  0  0  0  0  0  0  0  0
   -1.6680    0.6470    3.0000 H   0  0  0  0  0  0  0  0  0  0  0  0
   -0.1170    0.6940    3.8080 H   0  0  0  0  0  0  0  0  0  0  0  0
   -0.8970    2.8640    3.1920 H   0  0  0  0  0  0  0  0  0  0  0  0
   -0.9170    2.5670    1.4700 H   0  0  0  0  0  0  0  0  0  0  0  0
    2.1850    4.2730    1.7160 H   0  0  0  0  0  0  0  0  0  0  0  0
   -4.8770   -2.4110   -0.8640 O   0  0  0  0  0  0  0  0  0  0  0  0
   -4.0380   -1.9670    0.1460 C   0  0  0  0  0  0  0  0  0  0  0  0
   -3.1330   -0.8250   -0.3370 C   0  0  2  0  0  0  0  0  0  0  0  0
   -2.3200   -0.4720    0.8230 N   0  0  0  0  0  0  0  0  0  0  0  0
   -4.0310    0.2840   -0.7360 C   0  0  0  0  0  0  0  0  0  0  0  0
   -4.0980    1.3900   -0.1660 O   0  0  0  0  0  0  0  0  0  0  0  0
   -4.8540    0.0480   -1.8350 O   0  0  0  0  0  0  0  0  0  0  0  0
   -5.4010   -3.1560   -0.4930 H   0  0  0  0  0  0  0  0  0  0  0  0
   -3.3240   -2.8100    0.3760 H   0  0  0  0  0  0  0  0  0  0  0  0
   -4.5480   -1.6550    1.0580 H   0  0  0  0  0  0  0  0  0  0  0  0
   -2.5270   -1.2000   -1.1610 H   0  0  0  0  0  0  0  0  0  0  0  0
   -2.8050   -0.1060    1.6600 H   0  0  0  0  0  0  0  0  0  0  0  0
  1 10  1  0  0  0  0
  2 12  1  6  0  0  0
  2  1  1  0  0  0  0
  3  2  1  0  0  0  0
  3 13  1  0  0  0  0
  4  5  1  0  0  0  0
  4  3  1  0  0  0  0
  5  6  2  0  0  0  0
  7  2  1  0  0  0  0
  7 18  1  0  0  0  0
  8  7  2  0  0  0  0
  9  5  1  0  0  0  0
 11  1  1  0  0  0  0
 14  3  1  0  0  0  0
 15  4  1  0  0  0  0
 16  4  1  0  0  0  0
 17  9  1  0  0  0  0
 18 19  1  0  0  0  0
 18 27  1  0  0  0  0
 19 28  1  1  0  0  0
 19 20  1  0  0  0  0
 20 29  1  0  0  0  0
 20 30  1  0  0  0  0
 21 22  1  0  0  0  0
 21 20  1  0  0  0  0
 21 31  1  0  0  0  0
 22 23  2  0  0  0  0
 24 37  1  0  0  0  0
 24 19  1  0  0  0  0
 25 24  2  0  0  0  0
 26 22  1  0  0  0  0
 32 21  1  0  0  0  0
 33 26  1  0  0  0  0
 34 41  1  0  0  0  0
 34 35  1  0  0  0  0
 35 42  1  0  0  0  0
 35 43  1  0  0  0  0
 36 44  1  6  0  0  0
 36 35  1  0  0  0  0
 36 37  1  0  0  0  0
 37 45  1  0  0  0  0
 38 36  1  0  0  0  0
 38 39  1  0  0  0  0
 40 38  2  0  0  0  0
M  END
$$$$
