EET.pdb
 OpenBabel07022418183D

 48 47  0  0  1  0  0  0  0  0999 V2000
    0.0160   -5.4550    0.4200 N   0  0  0  0  0  0  0  0  0  0  0  0
    0.5090   -4.1020   -0.1390 C   0  0  1  0  0  0  0  0  0  0  0  0
   -0.0640   -4.0400   -1.4730 C   0  0  0  0  0  0  0  0  0  0  0  0
    0.1630   -2.9640   -2.4350 C   0  0  0  0  0  0  0  0  0  0  0  0
   -0.2690   -1.6000   -2.1440 C   0  0  0  0  0  0  0  0  0  0  0  0
    0.5250   -0.6180   -2.1370 O   0  0  0  0  0  0  0  0  0  0  0  0
    0.3200   -3.1390    0.9080 C   0  0  0  0  0  0  0  0  0  0  0  0
   -0.4140   -3.5440    1.9170 O   0  0  0  0  0  0  0  0  0  0  0  0
   -1.6030   -1.3450   -1.8610 O   0  0  0  0  0  0  0  0  0  0  0  0
    0.3610   -6.1090   -0.3150 H   0  0  0  0  0  0  0  0  0  0  0  0
    0.6420   -5.5710    1.2480 H   0  0  0  0  0  0  0  0  0  0  0  0
    1.6110   -4.3470   -0.2390 H   0  0  0  0  0  0  0  0  0  0  0  0
    0.2830   -5.0130   -2.0120 H   0  0  0  0  0  0  0  0  0  0  0  0
   -1.1970   -4.2660   -1.4550 H   0  0  0  0  0  0  0  0  0  0  0  0
    1.2790   -2.9060   -2.7100 H   0  0  0  0  0  0  0  0  0  0  0  0
   -0.2740   -3.2910   -3.4520 H   0  0  0  0  0  0  0  0  0  0  0  0
   -1.9690   -0.4060   -2.0160 H   0  0  0  0  0  0  0  0  0  0  0  0
    0.8260   -1.8230    1.0110 N   0  0  0  0  0  0  0  0  0  0  0  0
    0.5880   -1.0030    2.1710 C   0  0  1  0  0  0  0  0  0  0  0  0
    1.9460   -0.7900    2.8310 C   0  0  0  0  0  0  0  0  0  0  0  0
    1.9320    0.0410    4.0560 C   0  0  0  0  0  0  0  0  0  0  0  0
    3.3360    0.1090    4.5800 C   0  0  0  0  0  0  0  0  0  0  0  0
    3.5890    0.7590    5.6170 O   0  0  0  0  0  0  0  0  0  0  0  0
   -0.2190    0.1860    2.0480 C   0  0  0  0  0  0  0  0  0  0  0  0
   -0.4440    0.8390    3.1340 O   0  0  0  0  0  0  0  0  0  0  0  0
    4.3520   -0.5410    3.9240 O   0  0  0  0  0  0  0  0  0  0  0  0
    1.3900   -1.4580    0.2330 H   0  0  0  0  0  0  0  0  0  0  0  0
    0.0580   -1.6940    2.9230 H   0  0  0  0  0  0  0  0  0  0  0  0
    2.4180   -1.7660    3.0750 H   0  0  0  0  0  0  0  0  0  0  0  0
    2.6350   -0.2910    2.0960 H   0  0  0  0  0  0  0  0  0  0  0  0
    1.6690    1.1260    3.8420 H   0  0  0  0  0  0  0  0  0  0  0  0
    1.2410   -0.2790    4.8380 H   0  0  0  0  0  0  0  0  0  0  0  0
    5.2820   -0.7070    4.3090 H   0  0  0  0  0  0  0  0  0  0  0  0
   -1.2220    2.6600   -1.3910 C   0  0  0  0  0  0  0  0  0  0  0  0
   -1.1050    3.0570    0.0650 C   0  0  1  0  0  0  0  0  0  0  0  0
   -1.9400    4.1830    0.2280 O   0  0  0  0  0  0  0  0  0  0  0  0
   -1.6130    1.9940    0.9880 C   0  0  2  0  0  0  0  0  0  0  0  0
   -0.8180    0.7670    0.9090 N   0  0  0  0  0  0  0  0  0  0  0  0
   -3.0360    1.7150    0.6350 C   0  0  0  0  0  0  0  0  0  0  0  0
   -3.8750    2.6630    0.6470 O   0  0  0  0  0  0  0  0  0  0  0  0
   -3.5060    0.4610    0.2870 O   0  0  0  0  0  0  0  0  0  0  0  0
   -2.2020    2.1500   -1.5090 H   0  0  0  0  0  0  0  0  0  0  0  0
   -0.4060    1.9870   -1.7110 H   0  0  0  0  0  0  0  0  0  0  0  0
   -1.2460    3.5260   -2.0780 H   0  0  0  0  0  0  0  0  0  0  0  0
   -0.0680    3.3880    0.2770 H   0  0  0  0  0  0  0  0  0  0  0  0
   -2.1590    4.2690    1.1870 H   0  0  0  0  0  0  0  0  0  0  0  0
   -1.6200    2.3990    2.0160 H   0  0  0  0  0  0  0  0  0  0  0  0
   -0.6680    0.2840    0.0160 H   0  0  0  0  0  0  0  0  0  0  0  0
  1 11  1  0  0  0  0
  2 12  1  6  0  0  0
  2  1  1  0  0  0  0
  2  7  1  0  0  0  0
  3 14  1  0  0  0  0
  3  2  1  0  0  0  0
  4  5  1  0  0  0  0
  4  3  1  0  0  0  0
  5  6  2  0  0  0  0
  5  9  1  0  0  0  0
  7 18  1  0  0  0  0
  7  8  2  0  0  0  0
 10  1  1  0  0  0  0
 13  3  1  0  0  0  0
 15  4  1  0  0  0  0
 16  4  1  0  0  0  0
 17  9  1  0  0  0  0
 18 19  1  0  0  0  0
 19 20  1  0  0  0  0
 19 28  1  1  0  0  0
 20 29  1  0  0  0  0
 20 21  1  0  0  0  0
 21 22  1  0  0  0  0
 21 32  1  0  0  0  0
 22 23  2  0  0  0  0
 24 19  1  0  0  0  0
 24 25  2  0  0  0  0
 26 33  1  0  0  0  0
 26 22  1  0  0  0  0
 27 18  1  0  0  0  0
 30 20  1  0  0  0  0
 31 21  1  0  0  0  0
 34 35  1  0  0  0  0
 35 36  1  0  0  0  0
 35 45  1  1  0  0  0
 35 37  1  0  0  0  0
 36 46  1  0  0  0  0
 37 47  1  1  0  0  0
 38 37  1  0  0  0  0
 38 24  1  0  0  0  0
 39 40  1  0  0  0  0
 39 37  1  0  0  0  0
 41 39  2  0  0  0  0
 42 34  1  0  0  0  0
 43 34  1  0  0  0  0
 44 34  1  0  0  0  0
 48 38  1  0  0  0  0
M  END
$$$$
