EEV.pdb
 OpenBabel07022418183D

 50 49  0  0  1  0  0  0  0  0999 V2000
    2.8450   -2.4200    1.6870 N   0  0  0  0  0  0  0  0  0  0  0  0
    2.9110   -1.1680    0.9250 C   0  0  1  0  0  0  0  0  0  0  0  0
    2.9410   -1.5790   -0.5240 C   0  0  0  0  0  0  0  0  0  0  0  0
    3.0030   -0.4690   -1.5060 C   0  0  0  0  0  0  0  0  0  0  0  0
    4.1960    0.3700   -1.3850 C   0  0  0  0  0  0  0  0  0  0  0  0
    5.0800    0.1240   -0.5530 O   0  0  0  0  0  0  0  0  0  0  0  0
    1.7290   -0.3010    1.2220 C   0  0  0  0  0  0  0  0  0  0  0  0
    1.7020    0.8110    0.6620 O   0  0  0  0  0  0  0  0  0  0  0  0
    4.3520    1.4700   -2.2150 O   0  0  0  0  0  0  0  0  0  0  0  0
    2.1180   -3.0610    1.3420 H   0  0  0  0  0  0  0  0  0  0  0  0
    2.7840   -2.2340    2.7050 H   0  0  0  0  0  0  0  0  0  0  0  0
    3.8690   -0.6920    1.1920 H   0  0  0  0  0  0  0  0  0  0  0  0
    3.8910   -2.1770   -0.6480 H   0  0  0  0  0  0  0  0  0  0  0  0
    2.1000   -2.2700   -0.7540 H   0  0  0  0  0  0  0  0  0  0  0  0
    2.0600    0.1300   -1.5530 H   0  0  0  0  0  0  0  0  0  0  0  0
    3.0480   -0.9510   -2.5300 H   0  0  0  0  0  0  0  0  0  0  0  0
    5.2770    1.7620   -2.5410 H   0  0  0  0  0  0  0  0  0  0  0  0
    0.6990   -0.6880    2.0730 N   0  0  0  0  0  0  0  0  0  0  0  0
   -0.4720   -0.0170    2.4910 C   0  0  1  0  0  0  0  0  0  0  0  0
   -0.3260    1.5070    2.4390 C   0  0  0  0  0  0  0  0  0  0  0  0
    0.7100    2.0630    3.3360 C   0  0  0  0  0  0  0  0  0  0  0  0
    0.4740    1.8740    4.7870 C   0  0  0  0  0  0  0  0  0  0  0  0
   -0.5970    1.3850    5.1900 O   0  0  0  0  0  0  0  0  0  0  0  0
   -1.7070   -0.3850    1.8320 C   0  0  0  0  0  0  0  0  0  0  0  0
   -2.8100    0.1700    2.1400 O   0  0  0  0  0  0  0  0  0  0  0  0
    1.4160    2.2260    5.7320 O   0  0  0  0  0  0  0  0  0  0  0  0
    0.8160   -1.6790    2.4840 H   0  0  0  0  0  0  0  0  0  0  0  0
   -0.4870   -0.1720    3.6360 H   0  0  0  0  0  0  0  0  0  0  0  0
   -1.3280    1.9480    2.7620 H   0  0  0  0  0  0  0  0  0  0  0  0
   -0.1740    1.8320    1.4090 H   0  0  0  0  0  0  0  0  0  0  0  0
    1.7150    1.7400    3.0540 H   0  0  0  0  0  0  0  0  0  0  0  0
    0.7060    3.1850    3.1580 H   0  0  0  0  0  0  0  0  0  0  0  0
    1.1540    2.5110    6.6810 H   0  0  0  0  0  0  0  0  0  0  0  0
   -2.0120   -2.5120   -2.0380 C   0  0  0  0  0  0  0  0  0  0  0  0
   -3.0460   -1.6720   -1.3500 C   0  0  0  0  0  0  0  0  0  0  0  0
   -3.0780   -0.2440   -1.8540 C   0  0  0  0  0  0  0  0  0  0  0  0
   -3.0140   -1.7540    0.1360 C   0  0  2  0  0  0  0  0  0  0  0  0
   -1.8410   -1.3660    0.8040 N   0  0  0  0  0  0  0  0  0  0  0  0
   -3.3430   -3.1610    0.5210 C   0  0  0  0  0  0  0  0  0  0  0  0
   -2.6370   -3.8310    1.3210 O   0  0  0  0  0  0  0  0  0  0  0  0
   -4.4670   -3.7730   -0.0120 O   0  0  0  0  0  0  0  0  0  0  0  0
   -1.3090   -3.0000   -1.3310 H   0  0  0  0  0  0  0  0  0  0  0  0
   -2.4410   -3.3410   -2.6460 H   0  0  0  0  0  0  0  0  0  0  0  0
   -1.4720   -1.8680   -2.7780 H   0  0  0  0  0  0  0  0  0  0  0  0
   -4.0430   -2.1130   -1.6470 H   0  0  0  0  0  0  0  0  0  0  0  0
   -3.8070   -0.1210   -2.7030 H   0  0  0  0  0  0  0  0  0  0  0  0
   -3.4470    0.4620   -1.0720 H   0  0  0  0  0  0  0  0  0  0  0  0
   -2.0980    0.0780   -2.2790 H   0  0  0  0  0  0  0  0  0  0  0  0
   -3.8840   -1.1510    0.5140 H   0  0  0  0  0  0  0  0  0  0  0  0
   -0.9430   -1.8400    0.5340 H   0  0  0  0  0  0  0  0  0  0  0  0
  1 11  1  0  0  0  0
  2 12  1  1  0  0  0
  2  7  1  0  0  0  0
  2  1  1  0  0  0  0
  3  2  1  0  0  0  0
  4  5  1  0  0  0  0
  4  3  1  0  0  0  0
  5  6  2  0  0  0  0
  7 18  1  0  0  0  0
  8  7  2  0  0  0  0
  9  5  1  0  0  0  0
 10  1  1  0  0  0  0
 13  3  1  0  0  0  0
 14  3  1  0  0  0  0
 15  4  1  0  0  0  0
 16  4  1  0  0  0  0
 17  9  1  0  0  0  0
 18 27  1  0  0  0  0
 18 19  1  0  0  0  0
 19 28  1  1  0  0  0
 20 19  1  0  0  0  0
 20 29  1  0  0  0  0
 20 21  1  0  0  0  0
 21 22  1  0  0  0  0
 22 23  2  0  0  0  0
 22 26  1  0  0  0  0
 24 25  2  0  0  0  0
 24 19  1  0  0  0  0
 26 33  1  0  0  0  0
 30 20  1  0  0  0  0
 31 21  1  0  0  0  0
 32 21  1  0  0  0  0
 34 35  1  0  0  0  0
 34 42  1  0  0  0  0
 35 37  1  0  0  0  0
 36 35  1  0  0  0  0
 36 47  1  0  0  0  0
 37 49  1  1  0  0  0
 37 39  1  0  0  0  0
 37 38  1  0  0  0  0
 38 24  1  0  0  0  0
 39 40  1  0  0  0  0
 41 39  2  0  0  0  0
 43 34  1  0  0  0  0
 44 34  1  0  0  0  0
 45 35  1  0  0  0  0
 46 36  1  0  0  0  0
 48 36  1  0  0  0  0
 50 38  1  0  0  0  0
M  END
$$$$
