EEW.pdb
 OpenBabel07022418183D

 58 59  0  0  1  0  0  0  0  0999 V2000
    3.9140    0.8520    2.3020 N   0  0  0  0  0  0  0  0  0  0  0  0
    3.0710    0.4970    3.4140 C   0  0  1  0  0  0  0  0  0  0  0  0
    3.2150    1.3740    4.6020 C   0  0  0  0  0  0  0  0  0  0  0  0
    4.5550    1.4510    5.2300 C   0  0  0  0  0  0  0  0  0  0  0  0
    5.0710    0.1660    5.7280 C   0  0  0  0  0  0  0  0  0  0  0  0
    4.4560   -0.9360    5.6570 O   0  0  0  0  0  0  0  0  0  0  0  0
    1.6500    0.5840    2.9710 C   0  0  0  0  0  0  0  0  0  0  0  0
    0.7730    0.3200    3.8350 O   0  0  0  0  0  0  0  0  0  0  0  0
    6.3350    0.0680    6.3460 O   0  0  0  0  0  0  0  0  0  0  0  0
    4.9050    0.6510    2.4400 H   0  0  0  0  0  0  0  0  0  0  0  0
    3.8200    1.8270    1.9760 H   0  0  0  0  0  0  0  0  0  0  0  0
    3.3230   -0.5580    3.6690 H   0  0  0  0  0  0  0  0  0  0  0  0
    2.4970    1.0100    5.3740 H   0  0  0  0  0  0  0  0  0  0  0  0
    2.8930    2.4130    4.3380 H   0  0  0  0  0  0  0  0  0  0  0  0
    5.3040    2.0040    4.5930 H   0  0  0  0  0  0  0  0  0  0  0  0
    4.4470    2.1170    6.1360 H   0  0  0  0  0  0  0  0  0  0  0  0
    6.9380   -0.7360    6.1260 H   0  0  0  0  0  0  0  0  0  0  0  0
    1.2460    0.9340    1.6810 N   0  0  0  0  0  0  0  0  0  0  0  0
   -0.1820    1.0150    1.2640 C   0  0  1  0  0  0  0  0  0  0  0  0
   -0.4360    2.4260    0.8780 C   0  0  0  0  0  0  0  0  0  0  0  0
   -1.7970    2.7930    0.4280 C   0  0  0  0  0  0  0  0  0  0  0  0
   -2.8540    2.5710    1.4110 C   0  0  0  0  0  0  0  0  0  0  0  0
   -2.5980    2.1130    2.5450 O   0  0  0  0  0  0  0  0  0  0  0  0
   -0.4190    0.0110    0.2030 C   0  0  0  0  0  0  0  0  0  0  0  0
    0.5940   -0.6180   -0.2700 O   0  0  0  0  0  0  0  0  0  0  0  0
   -4.1650    2.8680    1.1010 O   0  0  0  0  0  0  0  0  0  0  0  0
    1.9460    1.1520    0.9610 H   0  0  0  0  0  0  0  0  0  0  0  0
   -0.7500    0.7480    2.1710 H   0  0  0  0  0  0  0  0  0  0  0  0
    0.3650    2.7640    0.1610 H   0  0  0  0  0  0  0  0  0  0  0  0
   -0.2160    3.0510    1.7960 H   0  0  0  0  0  0  0  0  0  0  0  0
   -1.9820    2.3220   -0.5720 H   0  0  0  0  0  0  0  0  0  0  0  0
   -1.8400    3.9060    0.1750 H   0  0  0  0  0  0  0  0  0  0  0  0
   -4.8760    3.0870    1.8120 H   0  0  0  0  0  0  0  0  0  0  0  0
   -1.6740   -0.3280   -0.3440 N   0  0  0  0  0  0  0  0  0  0  0  0
   -1.7990   -1.3320   -1.3960 C   0  0  1  0  0  0  0  0  0  0  0  0
   -2.5320   -2.5570   -0.8710 C   0  0  0  0  0  0  0  0  0  0  0  0
   -2.6360   -3.5400   -1.9640 C   0  0  0  0  0  0  0  0  0  0  0  0
   -3.7610   -3.8450   -2.7180 C   0  0  0  0  0  0  0  0  0  0  0  0
   -3.4390   -4.7880   -3.6010 N   0  0  0  0  0  0  0  0  0  0  0  0
   -2.1420   -5.1260   -3.4690 C   0  0  0  0  0  0  0  0  0  0  0  0
   -1.3510   -6.0310   -4.1350 C   0  0  0  0  0  0  0  0  0  0  0  0
   -0.0240   -6.1980   -3.8100 C   0  0  0  0  0  0  0  0  0  0  0  0
    0.4840   -5.4250   -2.7930 C   0  0  0  0  0  0  0  0  0  0  0  0
   -0.2980   -4.5190   -2.1210 C   0  0  0  0  0  0  0  0  0  0  0  0
   -1.6290   -4.3550   -2.4520 C   0  0  0  0  0  0  0  0  0  0  0  0
   -2.4160   -0.7870   -2.6070 C   0  0  0  0  0  0  0  0  0  0  0  0
   -2.5800   -1.5260   -3.6030 O   0  0  0  0  0  0  0  0  0  0  0  0
   -2.8440    0.5320   -2.7270 O   0  0  0  0  0  0  0  0  0  0  0  0
   -2.5290    0.1220   -0.0010 H   0  0  0  0  0  0  0  0  0  0  0  0
   -0.7770   -1.6760   -1.6350 H   0  0  0  0  0  0  0  0  0  0  0  0
   -1.9220   -2.9340   -0.0240 H   0  0  0  0  0  0  0  0  0  0  0  0
   -3.5340   -2.2500   -0.5480 H   0  0  0  0  0  0  0  0  0  0  0  0
   -4.7330   -3.3890   -2.5990 H   0  0  0  0  0  0  0  0  0  0  0  0
   -4.0540   -5.2420   -4.3200 H   0  0  0  0  0  0  0  0  0  0  0  0
   -1.7350   -6.6520   -4.9450 H   0  0  0  0  0  0  0  0  0  0  0  0
    0.6290   -6.8980   -4.3110 H   0  0  0  0  0  0  0  0  0  0  0  0
    1.5250   -5.5300   -2.5110 H   0  0  0  0  0  0  0  0  0  0  0  0
    0.1050   -3.9100   -1.3190 H   0  0  0  0  0  0  0  0  0  0  0  0
  1 10  1  0  0  0  0
  1  2  1  0  0  0  0
  2 12  1  1  0  0  0
  2  3  1  0  0  0  0
  3  4  1  0  0  0  0
  3 13  1  0  0  0  0
  4  5  1  0  0  0  0
  4 16  1  0  0  0  0
  5  9  1  0  0  0  0
  6  5  2  0  0  0  0
  7  2  1  0  0  0  0
  7  8  2  0  0  0  0
 11  1  1  0  0  0  0
 14  3  1  0  0  0  0
 15  4  1  0  0  0  0
 17  9  1  0  0  0  0
 18  7  1  0  0  0  0
 19 18  1  0  0  0  0
 19 28  1  1  0  0  0
 20 19  1  0  0  0  0
 20 30  1  0  0  0  0
 21 20  1  0  0  0  0
 21 22  1  0  0  0  0
 22 23  2  0  0  0  0
 24 19  1  0  0  0  0
 25 24  2  0  0  0  0
 26 22  1  0  0  0  0
 26 33  1  0  0  0  0
 27 18  1  0  0  0  0
 29 20  1  0  0  0  0
 31 21  1  0  0  0  0
 32 21  1  0  0  0  0
 34 49  1  0  0  0  0
 34 24  1  0  0  0  0
 35 50  1  6  0  0  0
 35 36  1  0  0  0  0
 35 34  1  0  0  0  0
 36 52  1  0  0  0  0
 36 51  1  0  0  0  0
 37 36  1  0  0  0  0
 38 53  1  0  0  0  0
 38 37  2  0  0  0  0
 39 40  1  0  0  0  0
 39 38  1  0  0  0  0
 40 45  1  0  0  0  0
 41 42  1  0  0  0  0
 41 40  2  0  0  0  0
 42 43  2  0  0  0  0
 43 57  1  0  0  0  0
 43 44  1  0  0  0  0
 44 58  1  0  0  0  0
 45 44  2  0  0  0  0
 45 37  1  0  0  0  0
 46 35  1  0  0  0  0
 47 46  2  0  0  0  0
 48 46  1  0  0  0  0
 54 39  1  0  0  0  0
 55 41  1  0  0  0  0
 56 42  1  0  0  0  0
M  END
$$$$
