EEY.pdb
 OpenBabel07022418183D

 55 55  0  0  1  0  0  0  0  0999 V2000
   -0.1060    3.1120    2.5350 N   0  0  0  0  0  0  0  0  0  0  0  0
    0.4640    1.8380    2.1200 C   0  0  1  0  0  0  0  0  0  0  0  0
   -0.3460    0.7660    2.7680 C   0  0  0  0  0  0  0  0  0  0  0  0
   -0.3300    0.8480    4.2700 C   0  0  0  0  0  0  0  0  0  0  0  0
    1.0110    0.6960    4.8650 C   0  0  0  0  0  0  0  0  0  0  0  0
    1.9960    0.4700    4.1330 O   0  0  0  0  0  0  0  0  0  0  0  0
    0.3510    1.7790    0.6220 C   0  0  0  0  0  0  0  0  0  0  0  0
   -0.1560    2.7580    0.0250 O   0  0  0  0  0  0  0  0  0  0  0  0
    1.2250    0.7970    6.2290 O   0  0  0  0  0  0  0  0  0  0  0  0
    0.1080    3.8020    1.7970 H   0  0  0  0  0  0  0  0  0  0  0  0
   -1.1590    2.9570    2.5140 H   0  0  0  0  0  0  0  0  0  0  0  0
    1.5270    1.8790    2.4100 H   0  0  0  0  0  0  0  0  0  0  0  0
   -0.0310   -0.2570    2.4340 H   0  0  0  0  0  0  0  0  0  0  0  0
   -1.3970    0.8980    2.4400 H   0  0  0  0  0  0  0  0  0  0  0  0
   -1.0080    0.0920    4.7320 H   0  0  0  0  0  0  0  0  0  0  0  0
   -0.7420    1.8400    4.5990 H   0  0  0  0  0  0  0  0  0  0  0  0
    2.1500    1.1580    6.5100 H   0  0  0  0  0  0  0  0  0  0  0  0
    0.7940    0.6680   -0.1170 N   0  0  0  0  0  0  0  0  0  0  0  0
    0.6490    0.6830   -1.6000 C   0  0  1  0  0  0  0  0  0  0  0  0
    2.0110    0.5770   -2.2200 C   0  0  0  0  0  0  0  0  0  0  0  0
    2.0400    0.5810   -3.7040 C   0  0  0  0  0  0  0  0  0  0  0  0
    1.4900    1.7810   -4.3580 C   0  0  0  0  0  0  0  0  0  0  0  0
    1.0730    2.7410   -3.6820 O   0  0  0  0  0  0  0  0  0  0  0  0
   -0.2380   -0.4060   -2.0140 C   0  0  0  0  0  0  0  0  0  0  0  0
   -0.5460   -0.5450   -3.2170 O   0  0  0  0  0  0  0  0  0  0  0  0
    1.4290    1.8580   -5.7390 O   0  0  0  0  0  0  0  0  0  0  0  0
    1.2130   -0.1410    0.3790 H   0  0  0  0  0  0  0  0  0  0  0  0
    0.1970    1.6440   -1.9060 H   0  0  0  0  0  0  0  0  0  0  0  0
    2.4300   -0.4290   -1.9040 H   0  0  0  0  0  0  0  0  0  0  0  0
    2.7310    1.3050   -1.7680 H   0  0  0  0  0  0  0  0  0  0  0  0
    3.1270    0.4370   -3.9980 H   0  0  0  0  0  0  0  0  0  0  0  0
    1.5000   -0.3220   -4.0860 H   0  0  0  0  0  0  0  0  0  0  0  0
    0.7650    2.4560   -6.2280 H   0  0  0  0  0  0  0  0  0  0  0  0
   -0.2010   -4.2230    4.4280 O   0  0  0  0  0  0  0  0  0  0  0  0
   -0.3580   -4.0830    3.0470 C   0  0  0  0  0  0  0  0  0  0  0  0
   -1.5440   -4.5290    2.5070 C   0  0  0  0  0  0  0  0  0  0  0  0
   -1.7190   -4.3990    1.1410 C   0  0  0  0  0  0  0  0  0  0  0  0
   -0.7640   -3.8490    0.3190 C   0  0  0  0  0  0  0  0  0  0  0  0
   -1.0150   -3.7390   -1.1260 C   0  0  0  0  0  0  0  0  0  0  0  0
   -1.6760   -2.4390   -1.5130 C   0  0  2  0  0  0  0  0  0  0  0  0
   -0.7980   -1.3580   -1.1170 N   0  0  0  0  0  0  0  0  0  0  0  0
   -3.0300   -2.2990   -0.9340 C   0  0  0  0  0  0  0  0  0  0  0  0
   -3.3680   -1.3500   -0.1850 O   0  0  0  0  0  0  0  0  0  0  0  0
    0.4040   -3.4160    0.8930 C   0  0  0  0  0  0  0  0  0  0  0  0
    0.6110   -3.5300    2.2470 C   0  0  0  0  0  0  0  0  0  0  0  0
   -4.0070   -3.2470   -1.2090 O   0  0  0  0  0  0  0  0  0  0  0  0
   -0.7750   -3.6730    5.0770 H   0  0  0  0  0  0  0  0  0  0  0  0
   -2.3120   -4.9700    3.1560 H   0  0  0  0  0  0  0  0  0  0  0  0
   -2.6760   -4.7640    0.7430 H   0  0  0  0  0  0  0  0  0  0  0  0
   -0.0570   -3.8840   -1.6650 H   0  0  0  0  0  0  0  0  0  0  0  0
   -1.6840   -4.5700   -1.5000 H   0  0  0  0  0  0  0  0  0  0  0  0
   -1.7850   -2.3720   -2.6140 H   0  0  0  0  0  0  0  0  0  0  0  0
   -0.5620   -1.2710   -0.1120 H   0  0  0  0  0  0  0  0  0  0  0  0
    1.1880   -2.9780    0.3080 H   0  0  0  0  0  0  0  0  0  0  0  0
    1.5200   -3.2000    2.7360 H   0  0  0  0  0  0  0  0  0  0  0  0
  2 12  1  1  0  0  0
  2  1  1  0  0  0  0
  2  3  1  0  0  0  0
  3  4  1  0  0  0  0
  4 16  1  0  0  0  0
  4 15  1  0  0  0  0
  4  5  1  0  0  0  0
  5  9  1  0  0  0  0
  6  5  2  0  0  0  0
  7  2  1  0  0  0  0
  8  7  2  0  0  0  0
  9 17  1  0  0  0  0
 10  1  1  0  0  0  0
 11  1  1  0  0  0  0
 13  3  1  0  0  0  0
 14  3  1  0  0  0  0
 18 27  1  0  0  0  0
 18  7  1  0  0  0  0
 19 28  1  6  0  0  0
 19 18  1  0  0  0  0
 20 29  1  0  0  0  0
 20 30  1  0  0  0  0
 20 19  1  0  0  0  0
 21 20  1  0  0  0  0
 22 21  1  0  0  0  0
 22 23  2  0  0  0  0
 24 19  1  0  0  0  0
 24 41  1  0  0  0  0
 25 24  2  0  0  0  0
 26 22  1  0  0  0  0
 31 21  1  0  0  0  0
 32 21  1  0  0  0  0
 33 26  1  0  0  0  0
 34 47  1  0  0  0  0
 35 34  1  0  0  0  0
 36 35  1  0  0  0  0
 36 48  1  0  0  0  0
 37 36  2  0  0  0  0
 38 44  2  0  0  0  0
 38 37  1  0  0  0  0
 39 38  1  0  0  0  0
 40 52  1  6  0  0  0
 40 39  1  0  0  0  0
 40 41  1  0  0  0  0
 40 42  1  0  0  0  0
 41 53  1  0  0  0  0
 42 43  1  0  0  0  0
 44 45  1  0  0  0  0
 45 55  1  0  0  0  0
 45 35  2  0  0  0  0
 46 42  2  0  0  0  0
 49 37  1  0  0  0  0
 50 39  1  0  0  0  0
 51 39  1  0  0  0  0
 54 44  1  0  0  0  0
M  END
$$$$
