EFA.pdb
 OpenBabel07022418193D

 48 48  0  0  1  0  0  0  0  0999 V2000
    3.5880   -1.8640    2.7740 N   0  0  0  0  0  0  0  0  0  0  0  0
    2.8630   -1.8290    1.4780 C   0  0  1  0  0  0  0  0  0  0  0  0
    2.8350   -3.2510    1.0200 C   0  0  0  0  0  0  0  0  0  0  0  0
    2.1530   -3.4750   -0.2970 C   0  0  0  0  0  0  0  0  0  0  0  0
    2.7730   -2.7710   -1.4340 C   0  0  0  0  0  0  0  0  0  0  0  0
    3.7950   -2.0740   -1.2660 O   0  0  0  0  0  0  0  0  0  0  0  0
    1.5300   -1.2210    1.6840 C   0  0  0  0  0  0  0  0  0  0  0  0
    1.1340   -1.0650    2.8790 O   0  0  0  0  0  0  0  0  0  0  0  0
    2.2120   -2.8900   -2.6870 O   0  0  0  0  0  0  0  0  0  0  0  0
    3.1820   -1.0700    3.3220 H   0  0  0  0  0  0  0  0  0  0  0  0
    3.3280   -2.7480    3.2590 H   0  0  0  0  0  0  0  0  0  0  0  0
    3.4970   -1.1870    0.8420 H   0  0  0  0  0  0  0  0  0  0  0  0
    2.3700   -3.8850    1.8240 H   0  0  0  0  0  0  0  0  0  0  0  0
    3.8890   -3.6250    0.8940 H   0  0  0  0  0  0  0  0  0  0  0  0
    2.1750   -4.5630   -0.5850 H   0  0  0  0  0  0  0  0  0  0  0  0
    1.0570   -3.2440   -0.1780 H   0  0  0  0  0  0  0  0  0  0  0  0
    2.3660   -2.1770   -3.3940 H   0  0  0  0  0  0  0  0  0  0  0  0
    0.6680   -0.8020    0.6640 N   0  0  0  0  0  0  0  0  0  0  0  0
   -0.6190   -0.2210    0.9700 C   0  0  1  0  0  0  0  0  0  0  0  0
   -0.6340    1.2250    0.5050 C   0  0  0  0  0  0  0  0  0  0  0  0
    0.4540    1.9200    1.2380 C   0  0  0  0  0  0  0  0  0  0  0  0
    1.7480    2.0090    0.7600 C   0  0  0  0  0  0  0  0  0  0  0  0
    2.7380    2.6610    1.4650 C   0  0  0  0  0  0  0  0  0  0  0  0
    2.4160    3.2330    2.6740 C   0  0  0  0  0  0  0  0  0  0  0  0
    1.1470    3.1690    3.1870 C   0  0  0  0  0  0  0  0  0  0  0  0
    0.1770    2.5180    2.4740 C   0  0  0  0  0  0  0  0  0  0  0  0
   -1.6710   -1.0210    0.3040 C   0  0  0  0  0  0  0  0  0  0  0  0
   -1.3970   -2.0290   -0.3970 O   0  0  0  0  0  0  0  0  0  0  0  0
    0.9450   -0.8930   -0.3260 H   0  0  0  0  0  0  0  0  0  0  0  0
   -0.7300   -0.1980    2.0700 H   0  0  0  0  0  0  0  0  0  0  0  0
   -1.6230    1.6610    0.6690 H   0  0  0  0  0  0  0  0  0  0  0  0
   -0.3860    1.1910   -0.5920 H   0  0  0  0  0  0  0  0  0  0  0  0
    1.9660    1.5430   -0.2040 H   0  0  0  0  0  0  0  0  0  0  0  0
    3.7590    2.7170    1.0610 H   0  0  0  0  0  0  0  0  0  0  0  0
    3.1860    3.7490    3.2390 H   0  0  0  0  0  0  0  0  0  0  0  0
    0.9420    3.6270    4.1290 H   0  0  0  0  0  0  0  0  0  0  0  0
   -0.8190    2.4600    2.8610 H   0  0  0  0  0  0  0  0  0  0  0  0
   -5.0730   -2.0910    0.7210 C   0  0  0  0  0  0  0  0  0  0  0  0
   -4.0890   -1.4740   -0.2320 C   0  0  2  0  0  0  0  0  0  0  0  0
   -3.0630   -0.7010    0.4120 N   0  0  0  0  0  0  0  0  0  0  0  0
   -4.8230   -0.7000   -1.2600 C   0  0  0  0  0  0  0  0  0  0  0  0
   -4.5520    0.5130   -1.5210 O   0  0  0  0  0  0  0  0  0  0  0  0
   -5.8490   -1.2740   -1.9890 O   0  0  0  0  0  0  0  0  0  0  0  0
   -6.0560   -2.2650    0.2290 H   0  0  0  0  0  0  0  0  0  0  0  0
   -4.6900   -3.0960    1.0080 H   0  0  0  0  0  0  0  0  0  0  0  0
   -5.1770   -1.5180    1.6720 H   0  0  0  0  0  0  0  0  0  0  0  0
   -3.5660   -2.3100   -0.7840 H   0  0  0  0  0  0  0  0  0  0  0  0
   -3.3280    0.1290    0.9850 H   0  0  0  0  0  0  0  0  0  0  0  0
  1 11  1  0  0  0  0
  1 10  1  0  0  0  0
  2 12  1  6  0  0  0
  2  7  1  0  0  0  0
  2  1  1  0  0  0  0
  3  2  1  0  0  0  0
  3 13  1  0  0  0  0
  4 16  1  0  0  0  0
  4  3  1  0  0  0  0
  5  6  2  0  0  0  0
  5  4  1  0  0  0  0
  7  8  2  0  0  0  0
  9  5  1  0  0  0  0
 14  3  1  0  0  0  0
 15  4  1  0  0  0  0
 17  9  1  0  0  0  0
 18 19  1  0  0  0  0
 18  7  1  0  0  0  0
 19 30  1  1  0  0  0
 20 31  1  0  0  0  0
 20 19  1  0  0  0  0
 20 21  1  0  0  0  0
 21 26  1  0  0  0  0
 22 21  2  0  0  0  0
 22 23  1  0  0  0  0
 23 24  2  0  0  0  0
 24 25  1  0  0  0  0
 24 35  1  0  0  0  0
 25 36  1  0  0  0  0
 26 37  1  0  0  0  0
 26 25  2  0  0  0  0
 27 40  1  0  0  0  0
 27 19  1  0  0  0  0
 28 27  2  0  0  0  0
 29 18  1  0  0  0  0
 32 20  1  0  0  0  0
 33 22  1  0  0  0  0
 34 23  1  0  0  0  0
 38 45  1  0  0  0  0
 38 46  1  0  0  0  0
 39 47  1  6  0  0  0
 39 40  1  0  0  0  0
 39 38  1  0  0  0  0
 40 48  1  0  0  0  0
 41 39  1  0  0  0  0
 42 41  1  0  0  0  0
 43 41  2  0  0  0  0
 44 38  1  0  0  0  0
M  END
$$$$
