EFC.pdb
 OpenBabel07022418203D

 49 49  0  0  1  0  0  0  0  0999 V2000
    3.4070   -2.9400    1.8170 N   0  0  0  0  0  0  0  0  0  0  0  0
    2.2960   -2.2450    2.4020 C   0  0  1  0  0  0  0  0  0  0  0  0
    2.6080   -1.1830    3.3840 C   0  0  0  0  0  0  0  0  0  0  0  0
    3.4200   -0.0290    2.9650 C   0  0  0  0  0  0  0  0  0  0  0  0
    4.7950   -0.3150    2.5410 C   0  0  0  0  0  0  0  0  0  0  0  0
    5.2800   -1.4520    2.6510 O   0  0  0  0  0  0  0  0  0  0  0  0
    1.2920   -1.8430    1.3720 C   0  0  0  0  0  0  0  0  0  0  0  0
    1.5200   -2.1800    0.1870 O   0  0  0  0  0  0  0  0  0  0  0  0
    5.6370    0.6590    1.9940 O   0  0  0  0  0  0  0  0  0  0  0  0
    3.5940   -2.6410    0.8320 H   0  0  0  0  0  0  0  0  0  0  0  0
    3.2670   -3.9830    1.7600 H   0  0  0  0  0  0  0  0  0  0  0  0
    1.7550   -3.0550    3.0050 H   0  0  0  0  0  0  0  0  0  0  0  0
    1.6690   -0.7810    3.8700 H   0  0  0  0  0  0  0  0  0  0  0  0
    3.1550   -1.6590    4.2620 H   0  0  0  0  0  0  0  0  0  0  0  0
    2.8920    0.6610    2.2590 H   0  0  0  0  0  0  0  0  0  0  0  0
    3.5330    0.6260    3.8930 H   0  0  0  0  0  0  0  0  0  0  0  0
    6.6510    0.5720    2.1450 H   0  0  0  0  0  0  0  0  0  0  0  0
    0.1270   -1.1210    1.6610 N   0  0  0  0  0  0  0  0  0  0  0  0
   -0.8550   -0.7060    0.7370 C   0  0  1  0  0  0  0  0  0  0  0  0
   -0.3610   -0.1680   -0.5930 C   0  0  0  0  0  0  0  0  0  0  0  0
    0.4670    1.0480   -0.4420 C   0  0  0  0  0  0  0  0  0  0  0  0
   -0.2220    2.2700   -0.3780 C   0  0  0  0  0  0  0  0  0  0  0  0
    0.4170    3.4800   -0.2530 C   0  0  0  0  0  0  0  0  0  0  0  0
    1.7910    3.5430   -0.1830 C   0  0  0  0  0  0  0  0  0  0  0  0
    2.4720    2.3480   -0.2450 C   0  0  0  0  0  0  0  0  0  0  0  0
    1.8190    1.1270   -0.3720 C   0  0  0  0  0  0  0  0  0  0  0  0
   -1.9730   -1.6590    0.6030 C   0  0  0  0  0  0  0  0  0  0  0  0
   -1.9710   -2.7260    1.2960 O   0  0  0  0  0  0  0  0  0  0  0  0
    0.0030   -0.8800    2.6980 H   0  0  0  0  0  0  0  0  0  0  0  0
   -1.3300    0.2480    1.1970 H   0  0  0  0  0  0  0  0  0  0  0  0
    0.1720   -0.9150   -1.2070 H   0  0  0  0  0  0  0  0  0  0  0  0
   -1.2410    0.1250   -1.2240 H   0  0  0  0  0  0  0  0  0  0  0  0
   -1.3200    2.2590   -0.4300 H   0  0  0  0  0  0  0  0  0  0  0  0
   -0.1230    4.4170   -0.2050 H   0  0  0  0  0  0  0  0  0  0  0  0
    2.3210    4.4840   -0.0840 H   0  0  0  0  0  0  0  0  0  0  0  0
    3.5500    2.3970   -0.1910 H   0  0  0  0  0  0  0  0  0  0  0  0
    2.3930    0.2350   -0.4230 H   0  0  0  0  0  0  0  0  0  0  0  0
   -3.0790   -1.4640   -0.2660 N   0  0  0  0  0  0  0  0  0  0  0  0
   -4.1560   -2.4560   -0.3460 C   0  0  1  0  0  0  0  0  0  0  0  0
   -5.4350   -1.7520   -0.0310 C   0  0  0  0  0  0  0  0  0  0  0  0
   -5.6710   -0.4180   -1.2680 S   0  0  0  0  0  0  0  0  0  0  0  0
   -4.2300   -2.9450   -1.7640 C   0  0  0  0  0  0  0  0  0  0  0  0
   -5.0900   -3.8080   -2.0770 O   0  0  0  0  0  0  0  0  0  0  0  0
   -3.3560   -2.4490   -2.7290 O   0  0  0  0  0  0  0  0  0  0  0  0
   -3.1050   -0.6040   -0.8400 H   0  0  0  0  0  0  0  0  0  0  0  0
   -3.9520   -3.2850    0.3370 H   0  0  0  0  0  0  0  0  0  0  0  0
   -5.3770   -1.2880    0.9920 H   0  0  0  0  0  0  0  0  0  0  0  0
   -6.3220   -2.3940   -0.0620 H   0  0  0  0  0  0  0  0  0  0  0  0
   -5.0520   -0.8530   -2.4720 H   0  0  0  0  0  0  0  0  0  0  0  0
  1  2  1  0  0  0  0
  2 12  1  1  0  0  0
  2  3  1  0  0  0  0
  3 13  1  0  0  0  0
  3 14  1  0  0  0  0
  4  3  1  0  0  0  0
  4 16  1  0  0  0  0
  5  6  2  0  0  0  0
  5  4  1  0  0  0  0
  7 18  1  0  0  0  0
  7  2  1  0  0  0  0
  8  7  2  0  0  0  0
  9 17  1  0  0  0  0
  9  5  1  0  0  0  0
 10  1  1  0  0  0  0
 11  1  1  0  0  0  0
 15  4  1  0  0  0  0
 18 29  1  0  0  0  0
 19 30  1  1  0  0  0
 19 18  1  0  0  0  0
 20 21  1  0  0  0  0
 20 19  1  0  0  0  0
 21 22  2  0  0  0  0
 21 26  1  0  0  0  0
 22 23  1  0  0  0  0
 23 34  1  0  0  0  0
 23 24  2  0  0  0  0
 24 35  1  0  0  0  0
 25 36  1  0  0  0  0
 25 24  1  0  0  0  0
 26 25  2  0  0  0  0
 27 19  1  0  0  0  0
 27 28  2  0  0  0  0
 31 20  1  0  0  0  0
 32 20  1  0  0  0  0
 33 22  1  0  0  0  0
 37 26  1  0  0  0  0
 38 27  1  0  0  0  0
 39 38  1  0  0  0  0
 39 40  1  0  0  0  0
 39 46  1  1  0  0  0
 40 47  1  0  0  0  0
 41 40  1  0  0  0  0
 42 39  1  0  0  0  0
 43 42  1  0  0  0  0
 44 42  2  0  0  0  0
 45 38  1  0  0  0  0
 48 40  1  0  0  0  0
 49 41  1  0  0  0  0
M  END
$$$$
