EFD.pdb
 OpenBabel07022418193D

 51 51  0  0  1  0  0  0  0  0999 V2000
    3.5050    0.4410   -0.0190 N   0  0  0  0  0  0  0  0  0  0  0  0
    3.5450   -0.8570    0.6320 C   0  0  1  0  0  0  0  0  0  0  0  0
    4.2160   -0.7580    1.9650 C   0  0  0  0  0  0  0  0  0  0  0  0
    5.6350   -0.2690    1.8960 C   0  0  0  0  0  0  0  0  0  0  0  0
    6.1690   -0.2220    3.2810 C   0  0  0  0  0  0  0  0  0  0  0  0
    6.5210   -1.2660    3.8890 O   0  0  0  0  0  0  0  0  0  0  0  0
    2.1620   -1.3830    0.8800 C   0  0  0  0  0  0  0  0  0  0  0  0
    2.0870   -2.4930    1.4450 O   0  0  0  0  0  0  0  0  0  0  0  0
    6.3030    0.9790    3.9640 O   0  0  0  0  0  0  0  0  0  0  0  0
    2.9590    0.4220   -0.8980 H   0  0  0  0  0  0  0  0  0  0  0  0
    3.1890    1.1700    0.6510 H   0  0  0  0  0  0  0  0  0  0  0  0
    4.0670   -1.5400   -0.0690 H   0  0  0  0  0  0  0  0  0  0  0  0
    4.1950   -1.7260    2.4720 H   0  0  0  0  0  0  0  0  0  0  0  0
    3.6240   -0.0350    2.5790 H   0  0  0  0  0  0  0  0  0  0  0  0
    6.2090   -1.0490    1.3200 H   0  0  0  0  0  0  0  0  0  0  0  0
    5.7490    0.6880    1.3720 H   0  0  0  0  0  0  0  0  0  0  0  0
    6.6130    1.0060    4.9470 H   0  0  0  0  0  0  0  0  0  0  0  0
    1.0020   -0.6870    0.5090 N   0  0  0  0  0  0  0  0  0  0  0  0
   -0.3200   -1.2190    0.7620 C   0  0  1  0  0  0  0  0  0  0  0  0
   -1.0630   -0.3940    1.7840 C   0  0  0  0  0  0  0  0  0  0  0  0
   -1.2580    1.0020    1.4180 C   0  0  0  0  0  0  0  0  0  0  0  0
   -0.3140    1.9440    1.7630 C   0  0  0  0  0  0  0  0  0  0  0  0
   -0.5610    3.2440    1.3880 C   0  0  0  0  0  0  0  0  0  0  0  0
   -1.6840    3.6310    0.6980 C   0  0  0  0  0  0  0  0  0  0  0  0
   -2.6210    2.6980    0.3550 C   0  0  0  0  0  0  0  0  0  0  0  0
   -2.3880    1.3720    0.7280 C   0  0  0  0  0  0  0  0  0  0  0  0
   -1.0650   -1.4830   -0.4730 C   0  0  0  0  0  0  0  0  0  0  0  0
   -0.5650   -1.2090   -1.6180 O   0  0  0  0  0  0  0  0  0  0  0  0
    1.1560    0.2390    0.0390 H   0  0  0  0  0  0  0  0  0  0  0  0
   -0.1650   -2.2180    1.2700 H   0  0  0  0  0  0  0  0  0  0  0  0
   -2.0240   -0.9450    1.9830 H   0  0  0  0  0  0  0  0  0  0  0  0
   -0.4920   -0.4840    2.7350 H   0  0  0  0  0  0  0  0  0  0  0  0
    0.5980    1.7430    2.3020 H   0  0  0  0  0  0  0  0  0  0  0  0
    0.1630    4.0100    1.6440 H   0  0  0  0  0  0  0  0  0  0  0  0
   -1.8280    4.6810    0.4250 H   0  0  0  0  0  0  0  0  0  0  0  0
   -3.5120    2.9670   -0.1840 H   0  0  0  0  0  0  0  0  0  0  0  0
   -3.1570    0.6730    0.4350 H   0  0  0  0  0  0  0  0  0  0  0  0
   -2.3770   -2.0540   -0.5150 N   0  0  0  0  0  0  0  0  0  0  0  0
   -3.0620   -2.2950   -1.7680 C   0  0  1  0  0  0  0  0  0  0  0  0
   -3.1980   -3.7930   -1.9380 C   0  0  0  0  0  0  0  0  0  0  0  0
   -3.9850   -4.3980   -0.8580 C   0  0  0  0  0  0  0  0  0  0  0  0
   -4.5180   -3.7320    0.0540 O   0  0  0  0  0  0  0  0  0  0  0  0
   -4.4310   -1.7380   -1.7380 C   0  0  0  0  0  0  0  0  0  0  0  0
   -5.1920   -1.8290   -2.7480 O   0  0  0  0  0  0  0  0  0  0  0  0
   -4.1910   -5.7900   -0.7810 O   0  0  0  0  0  0  0  0  0  0  0  0
   -4.9260   -1.1080   -0.6290 O   0  0  0  0  0  0  0  0  0  0  0  0
   -2.8130   -2.2820    0.3770 H   0  0  0  0  0  0  0  0  0  0  0  0
   -2.4660   -1.8690   -2.6280 H   0  0  0  0  0  0  0  0  0  0  0  0
   -3.6440   -4.0470   -2.9320 H   0  0  0  0  0  0  0  0  0  0  0  0
   -2.2010   -4.2940   -1.9350 H   0  0  0  0  0  0  0  0  0  0  0  0
   -4.3610   -6.2250    0.1350 H   0  0  0  0  0  0  0  0  0  0  0  0
  1  2  1  0  0  0  0
  1 11  1  0  0  0  0
  2 12  1  6  0  0  0
  2  7  1  0  0  0  0
  2  3  1  0  0  0  0
  3 13  1  0  0  0  0
  3 14  1  0  0  0  0
  4  3  1  0  0  0  0
  4  5  1  0  0  0  0
  5  6  2  0  0  0  0
  5  9  1  0  0  0  0
  7  8  2  0  0  0  0
  9 17  1  0  0  0  0
 10  1  1  0  0  0  0
 15  4  1  0  0  0  0
 16  4  1  0  0  0  0
 18 19  1  0  0  0  0
 18  7  1  0  0  0  0
 19 30  1  1  0  0  0
 19 20  1  0  0  0  0
 20 31  1  0  0  0  0
 20 32  1  0  0  0  0
 21 22  1  0  0  0  0
 21 20  1  0  0  0  0
 22 33  1  0  0  0  0
 23 34  1  0  0  0  0
 23 22  2  0  0  0  0
 24 23  1  0  0  0  0
 25 24  2  0  0  0  0
 25 26  1  0  0  0  0
 26 21  2  0  0  0  0
 27 19  1  0  0  0  0
 28 27  2  0  0  0  0
 29 18  1  0  0  0  0
 35 24  1  0  0  0  0
 36 25  1  0  0  0  0
 37 26  1  0  0  0  0
 38 27  1  0  0  0  0
 38 47  1  0  0  0  0
 39 48  1  6  0  0  0
 39 43  1  0  0  0  0
 39 38  1  0  0  0  0
 40 50  1  0  0  0  0
 40 39  1  0  0  0  0
 40 41  1  0  0  0  0
 41 45  1  0  0  0  0
 41 42  2  0  0  0  0
 43 46  1  0  0  0  0
 44 43  2  0  0  0  0
 45 51  1  0  0  0  0
 49 40  1  0  0  0  0
M  END
$$$$
