EFE.pdb
 OpenBabel07022418193D

 54 54  0  0  1  0  0  0  0  0999 V2000
    5.3160   -1.6910    1.0120 N   0  0  0  0  0  0  0  0  0  0  0  0
    4.3940   -1.2340    0.0260 C   0  0  1  0  0  0  0  0  0  0  0  0
    4.0910   -2.2570   -1.0220 C   0  0  0  0  0  0  0  0  0  0  0  0
    3.4860   -3.5280   -0.5850 C   0  0  0  0  0  0  0  0  0  0  0  0
    4.2580   -4.3950    0.3100 C   0  0  0  0  0  0  0  0  0  0  0  0
    5.4370   -4.1700    0.6100 O   0  0  0  0  0  0  0  0  0  0  0  0
    3.1250   -0.8070    0.7280 C   0  0  0  0  0  0  0  0  0  0  0  0
    2.9510   -1.0740    1.9670 O   0  0  0  0  0  0  0  0  0  0  0  0
    3.6780   -5.5550    0.8870 O   0  0  0  0  0  0  0  0  0  0  0  0
    6.3090   -1.4570    0.8190 H   0  0  0  0  0  0  0  0  0  0  0  0
    5.0080   -1.4780    2.0020 H   0  0  0  0  0  0  0  0  0  0  0  0
    4.7320   -0.3150   -0.5270 H   0  0  0  0  0  0  0  0  0  0  0  0
    5.0510   -2.4580   -1.5570 H   0  0  0  0  0  0  0  0  0  0  0  0
    3.4010   -1.7860   -1.7900 H   0  0  0  0  0  0  0  0  0  0  0  0
    2.4200   -3.4150   -0.2370 H   0  0  0  0  0  0  0  0  0  0  0  0
    3.3480   -4.1540   -1.5320 H   0  0  0  0  0  0  0  0  0  0  0  0
    3.8520   -5.7830    1.8900 H   0  0  0  0  0  0  0  0  0  0  0  0
    2.0790   -0.1110    0.0870 N   0  0  0  0  0  0  0  0  0  0  0  0
    0.8540    0.2700    0.8320 C   0  0  1  0  0  0  0  0  0  0  0  0
    0.8760    1.7570    1.0430 C   0  0  0  0  0  0  0  0  0  0  0  0
   -0.2760    2.2720    1.7820 C   0  0  0  0  0  0  0  0  0  0  0  0
   -1.3840    2.7870    1.1020 C   0  0  0  0  0  0  0  0  0  0  0  0
   -2.4440    3.2860    1.8360 C   0  0  0  0  0  0  0  0  0  0  0  0
   -2.4140    3.2780    3.2100 C   0  0  0  0  0  0  0  0  0  0  0  0
   -1.3180    2.7670    3.8800 C   0  0  0  0  0  0  0  0  0  0  0  0
   -0.2560    2.2680    3.1700 C   0  0  0  0  0  0  0  0  0  0  0  0
   -0.2880   -0.1300    0.0050 C   0  0  0  0  0  0  0  0  0  0  0  0
   -0.0230   -0.4270   -1.2290 O   0  0  0  0  0  0  0  0  0  0  0  0
    2.1870    0.1350   -0.9180 H   0  0  0  0  0  0  0  0  0  0  0  0
    0.8060   -0.2230    1.8020 H   0  0  0  0  0  0  0  0  0  0  0  0
    0.9310    2.3050    0.0480 H   0  0  0  0  0  0  0  0  0  0  0  0
    1.7880    2.0910    1.5810 H   0  0  0  0  0  0  0  0  0  0  0  0
   -1.4480    2.8100    0.0260 H   0  0  0  0  0  0  0  0  0  0  0  0
   -3.3080    3.6870    1.3280 H   0  0  0  0  0  0  0  0  0  0  0  0
   -3.2280    3.6620    3.8310 H   0  0  0  0  0  0  0  0  0  0  0  0
   -1.2730    2.7510    4.9560 H   0  0  0  0  0  0  0  0  0  0  0  0
    0.6060    1.8670    3.7140 H   0  0  0  0  0  0  0  0  0  0  0  0
   -1.6410   -0.2260    0.4280 N   0  0  0  0  0  0  0  0  0  0  0  0
   -2.6590   -0.6500   -0.5690 C   0  0  1  0  0  0  0  0  0  0  0  0
   -2.7090   -2.1580   -0.5550 C   0  0  0  0  0  0  0  0  0  0  0  0
   -3.6760   -2.8230   -1.4540 C   0  0  0  0  0  0  0  0  0  0  0  0
   -5.1010   -2.6090   -1.1820 C   0  0  0  0  0  0  0  0  0  0  0  0
   -5.9020   -2.5420   -2.1640 O   0  0  0  0  0  0  0  0  0  0  0  0
   -3.9090    0.0530   -0.3550 C   0  0  0  0  0  0  0  0  0  0  0  0
   -4.8910    0.1260   -1.1310 O   0  0  0  0  0  0  0  0  0  0  0  0
   -5.6530   -2.4740    0.0800 O   0  0  0  0  0  0  0  0  0  0  0  0
   -4.0720    0.7430    0.8580 O   0  0  0  0  0  0  0  0  0  0  0  0
   -1.9160   -0.0150    1.3900 H   0  0  0  0  0  0  0  0  0  0  0  0
   -2.2380   -0.3930   -1.5870 H   0  0  0  0  0  0  0  0  0  0  0  0
   -2.8230   -2.5420    0.5110 H   0  0  0  0  0  0  0  0  0  0  0  0
   -1.6810   -2.5450   -0.8340 H   0  0  0  0  0  0  0  0  0  0  0  0
   -3.5300   -3.9480   -1.4630 H   0  0  0  0  0  0  0  0  0  0  0  0
   -3.4850   -2.4640   -2.5060 H   0  0  0  0  0  0  0  0  0  0  0  0
   -6.4970   -2.9960    0.3340 H   0  0  0  0  0  0  0  0  0  0  0  0
  1 11  1  0  0  0  0
  2 12  1  6  0  0  0
  2  7  1  0  0  0  0
  2  1  1  0  0  0  0
  3  4  1  0  0  0  0
  3  2  1  0  0  0  0
  4 15  1  0  0  0  0
  4  5  1  0  0  0  0
  5  6  2  0  0  0  0
  5  9  1  0  0  0  0
  7  8  2  0  0  0  0
  9 17  1  0  0  0  0
 10  1  1  0  0  0  0
 13  3  1  0  0  0  0
 14  3  1  0  0  0  0
 16  4  1  0  0  0  0
 18  7  1  0  0  0  0
 18 19  1  0  0  0  0
 19 20  1  0  0  0  0
 19 30  1  1  0  0  0
 20 32  1  0  0  0  0
 20 21  1  0  0  0  0
 21 26  1  0  0  0  0
 22 21  2  0  0  0  0
 22 23  1  0  0  0  0
 23 24  2  0  0  0  0
 24 35  1  0  0  0  0
 24 25  1  0  0  0  0
 25 36  1  0  0  0  0
 26 37  1  0  0  0  0
 26 25  2  0  0  0  0
 27 38  1  0  0  0  0
 27 19  1  0  0  0  0
 28 27  2  0  0  0  0
 29 18  1  0  0  0  0
 31 20  1  0  0  0  0
 33 22  1  0  0  0  0
 34 23  1  0  0  0  0
 38 48  1  0  0  0  0
 39 49  1  6  0  0  0
 39 40  1  0  0  0  0
 39 44  1  0  0  0  0
 39 38  1  0  0  0  0
 40 50  1  0  0  0  0
 41 42  1  0  0  0  0
 41 40  1  0  0  0  0
 42 46  1  0  0  0  0
 43 42  2  0  0  0  0
 44 47  1  0  0  0  0
 45 44  2  0  0  0  0
 46 54  1  0  0  0  0
 51 40  1  0  0  0  0
 52 41  1  0  0  0  0
 53 41  1  0  0  0  0
M  END
$$$$
