EFG.pdb
 OpenBabel07022418193D

 45 45  0  0  1  0  0  0  0  0999 V2000
    1.9510   -4.5320   -0.2330 N   0  0  0  0  0  0  0  0  0  0  0  0
    1.9770   -3.0950   -0.0380 C   0  0  1  0  0  0  0  0  0  0  0  0
    1.8990   -2.4710   -1.4220 C   0  0  0  0  0  0  0  0  0  0  0  0
    0.6290   -2.8780   -2.1330 C   0  0  0  0  0  0  0  0  0  0  0  0
    0.5880   -2.2520   -3.4740 C   0  0  0  0  0  0  0  0  0  0  0  0
   -0.4050   -2.4750   -4.2250 O   0  0  0  0  0  0  0  0  0  0  0  0
    0.8760   -2.6650    0.8280 C   0  0  0  0  0  0  0  0  0  0  0  0
    0.0840   -3.5310    1.2780 O   0  0  0  0  0  0  0  0  0  0  0  0
    1.6100   -1.4270   -3.9290 O   0  0  0  0  0  0  0  0  0  0  0  0
    2.6320   -5.0230    0.3900 H   0  0  0  0  0  0  0  0  0  0  0  0
    0.9770   -4.8850   -0.0900 H   0  0  0  0  0  0  0  0  0  0  0  0
    2.9350   -2.8560    0.4410 H   0  0  0  0  0  0  0  0  0  0  0  0
    2.7570   -2.7670   -2.0450 H   0  0  0  0  0  0  0  0  0  0  0  0
    1.8990   -1.3740   -1.3140 H   0  0  0  0  0  0  0  0  0  0  0  0
    0.5640   -3.9820   -2.2340 H   0  0  0  0  0  0  0  0  0  0  0  0
   -0.2780   -2.5550   -1.5940 H   0  0  0  0  0  0  0  0  0  0  0  0
    1.4200   -0.8440   -4.7440 H   0  0  0  0  0  0  0  0  0  0  0  0
    0.6390   -1.3150    1.2020 N   0  0  0  0  0  0  0  0  0  0  0  0
   -0.4490   -0.8980    2.0570 C   0  0  1  0  0  0  0  0  0  0  0  0
    0.0540   -0.3230    3.3640 C   0  0  0  0  0  0  0  0  0  0  0  0
    0.9160    0.8580    3.1750 C   0  0  0  0  0  0  0  0  0  0  0  0
    0.3880    2.1270    3.1420 C   0  0  0  0  0  0  0  0  0  0  0  0
    1.1950    3.2500    2.9640 C   0  0  0  0  0  0  0  0  0  0  0  0
    2.5480    3.0850    2.8190 C   0  0  0  0  0  0  0  0  0  0  0  0
    3.1040    1.8280    2.8480 C   0  0  0  0  0  0  0  0  0  0  0  0
    2.2750    0.7120    3.0280 C   0  0  0  0  0  0  0  0  0  0  0  0
   -1.3140    0.0650    1.3290 C   0  0  0  0  0  0  0  0  0  0  0  0
   -1.0370    0.4000    0.1320 O   0  0  0  0  0  0  0  0  0  0  0  0
    1.3250   -0.6100    0.8070 H   0  0  0  0  0  0  0  0  0  0  0  0
   -1.0070   -1.8310    2.3260 H   0  0  0  0  0  0  0  0  0  0  0  0
   -0.8680   -0.0680    3.9620 H   0  0  0  0  0  0  0  0  0  0  0  0
    0.5560   -1.1190    3.9500 H   0  0  0  0  0  0  0  0  0  0  0  0
   -0.6680    2.3250    3.2500 H   0  0  0  0  0  0  0  0  0  0  0  0
    0.7990    4.2550    2.9340 H   0  0  0  0  0  0  0  0  0  0  0  0
    3.1770    3.9720    2.6790 H   0  0  0  0  0  0  0  0  0  0  0  0
    4.1610    1.6740    2.7370 H   0  0  0  0  0  0  0  0  0  0  0  0
    2.7470   -0.2630    3.0460 H   0  0  0  0  0  0  0  0  0  0  0  0
   -2.4610    0.6510    1.9020 N   0  0  0  0  0  0  0  0  0  0  0  0
   -3.3130    1.5920    1.2010 C   0  0  0  0  0  0  0  0  0  0  0  0
   -3.8940    0.9930   -0.0270 C   0  0  0  0  0  0  0  0  0  0  0  0
   -4.6600    1.6440   -0.7750 O   0  0  0  0  0  0  0  0  0  0  0  0
   -3.6030   -0.3150   -0.3820 O   0  0  0  0  0  0  0  0  0  0  0  0
   -2.6780    0.3610    2.9020 H   0  0  0  0  0  0  0  0  0  0  0  0
   -4.1650    1.8490    1.8620 H   0  0  0  0  0  0  0  0  0  0  0  0
   -2.7780    2.5400    0.9750 H   0  0  0  0  0  0  0  0  0  0  0  0
  1 11  1  0  0  0  0
  1  2  1  0  0  0  0
  1 10  1  0  0  0  0
  2 12  1  1  0  0  0
  2  7  1  0  0  0  0
  3 14  1  0  0  0  0
  3  2  1  0  0  0  0
  4 16  1  0  0  0  0
  4  3  1  0  0  0  0
  5  4  1  0  0  0  0
  6  5  2  0  0  0  0
  7 18  1  0  0  0  0
  7  8  2  0  0  0  0
  9  5  1  0  0  0  0
 13  3  1  0  0  0  0
 15  4  1  0  0  0  0
 17  9  1  0  0  0  0
 18 19  1  0  0  0  0
 19 30  1  1  0  0  0
 19 20  1  0  0  0  0
 20 32  1  0  0  0  0
 20 31  1  0  0  0  0
 21 20  1  0  0  0  0
 22 21  1  0  0  0  0
 22 33  1  0  0  0  0
 23 22  2  0  0  0  0
 24 25  2  0  0  0  0
 24 23  1  0  0  0  0
 25 26  1  0  0  0  0
 26 37  1  0  0  0  0
 26 21  2  0  0  0  0
 27 38  1  0  0  0  0
 27 19  1  0  0  0  0
 28 27  2  0  0  0  0
 29 18  1  0  0  0  0
 34 23  1  0  0  0  0
 35 24  1  0  0  0  0
 36 25  1  0  0  0  0
 38 43  1  0  0  0  0
 39 44  1  0  0  0  0
 39 38  1  0  0  0  0
 40 39  1  0  0  0  0
 41 40  2  0  0  0  0
 42 40  1  0  0  0  0
 45 39  1  0  0  0  0
M  END
$$$$
