EFH.pdb
 OpenBabel07022418203D

 55 56  0  0  1  0  0  0  0  0999 V2000
    1.9250    0.5640    3.0120 N   0  0  0  0  0  0  0  0  0  0  0  0
    2.2280   -0.8470    2.8590 C   0  0  1  0  0  0  0  0  0  0  0  0
    2.2290   -1.4450    4.2620 C   0  0  0  0  0  0  0  0  0  0  0  0
    3.3230   -0.6640    5.0090 C   0  0  0  0  0  0  0  0  0  0  0  0
    4.5760   -0.8990    4.2620 C   0  0  0  0  0  0  0  0  0  0  0  0
    4.9650   -2.0670    4.0590 O   0  0  0  0  0  0  0  0  0  0  0  0
    1.2450   -1.4990    1.9600 C   0  0  0  0  0  0  0  0  0  0  0  0
    1.3270   -2.7340    1.7090 O   0  0  0  0  0  0  0  0  0  0  0  0
    5.3220    0.1660    3.7840 O   0  0  0  0  0  0  0  0  0  0  0  0
    0.9730    0.6350    3.4340 H   0  0  0  0  0  0  0  0  0  0  0  0
    1.9560    1.0920    2.1280 H   0  0  0  0  0  0  0  0  0  0  0  0
    3.2650   -1.0010    2.4660 H   0  0  0  0  0  0  0  0  0  0  0  0
    1.2670   -1.2800    4.7490 H   0  0  0  0  0  0  0  0  0  0  0  0
    2.5310   -2.5070    4.2360 H   0  0  0  0  0  0  0  0  0  0  0  0
    3.3790   -0.9610    6.0700 H   0  0  0  0  0  0  0  0  0  0  0  0
    3.0950    0.4220    4.9940 H   0  0  0  0  0  0  0  0  0  0  0  0
    6.1110    0.0320    3.1360 H   0  0  0  0  0  0  0  0  0  0  0  0
    0.1940   -0.7460    1.3670 N   0  0  0  0  0  0  0  0  0  0  0  0
   -0.7950   -1.3440    0.4770 C   0  0  1  0  0  0  0  0  0  0  0  0
   -2.1570   -1.3330    1.1220 C   0  0  0  0  0  0  0  0  0  0  0  0
   -2.6620   -0.0020    1.4560 C   0  0  0  0  0  0  0  0  0  0  0  0
   -3.4270    0.7670    0.6060 C   0  0  0  0  0  0  0  0  0  0  0  0
   -3.8450    2.0030    1.0340 C   0  0  0  0  0  0  0  0  0  0  0  0
   -3.5370    2.5200    2.2770 C   0  0  0  0  0  0  0  0  0  0  0  0
   -2.7750    1.7560    3.1240 C   0  0  0  0  0  0  0  0  0  0  0  0
   -2.3430    0.5100    2.7190 C   0  0  0  0  0  0  0  0  0  0  0  0
   -0.7560   -0.7740   -0.8690 C   0  0  0  0  0  0  0  0  0  0  0  0
    0.0780    0.1470   -1.0940 O   0  0  0  0  0  0  0  0  0  0  0  0
    0.1640    0.2780    1.6080 H   0  0  0  0  0  0  0  0  0  0  0  0
   -0.5010   -2.4240    0.4040 H   0  0  0  0  0  0  0  0  0  0  0  0
   -2.8740   -1.8620    0.4670 H   0  0  0  0  0  0  0  0  0  0  0  0
   -2.0860   -1.9240    2.0540 H   0  0  0  0  0  0  0  0  0  0  0  0
   -3.6830    0.3910   -0.3720 H   0  0  0  0  0  0  0  0  0  0  0  0
   -4.4520    2.6290    0.3770 H   0  0  0  0  0  0  0  0  0  0  0  0
   -3.8680    3.4860    2.6050 H   0  0  0  0  0  0  0  0  0  0  0  0
   -2.5240    2.1490    4.1140 H   0  0  0  0  0  0  0  0  0  0  0  0
   -1.7470   -0.0610    3.4160 H   0  0  0  0  0  0  0  0  0  0  0  0
   -1.5980   -1.1980   -1.9250 N   0  0  0  0  0  0  0  0  0  0  0  0
   -1.5300   -0.6040   -3.2590 C   0  0  1  0  0  0  0  0  0  0  0  0
   -1.0750   -1.7380   -4.1930 C   0  0  0  0  0  0  0  0  0  0  0  0
    0.2510   -2.2620   -3.7940 C   0  0  0  0  0  0  0  0  0  0  0  0
    0.5600   -3.2790   -2.9280 C   0  0  0  0  0  0  0  0  0  0  0  0
    1.8850   -3.3990   -2.8760 N   0  0  0  0  0  0  0  0  0  0  0  0
    2.4140   -2.4710   -3.6980 C   0  0  0  0  0  0  0  0  0  0  0  0
    1.4200   -1.7830   -4.2530 N   0  0  0  0  0  0  0  0  0  0  0  0
   -2.8680   -0.2120   -3.7310 C   0  0  0  0  0  0  0  0  0  0  0  0
   -3.8600   -0.4080   -2.9980 O   0  0  0  0  0  0  0  0  0  0  0  0
   -3.0500    0.3670   -4.9660 O   0  0  0  0  0  0  0  0  0  0  0  0
   -2.2750   -1.9670   -1.6930 H   0  0  0  0  0  0  0  0  0  0  0  0
   -0.7900    0.1950   -3.2830 H   0  0  0  0  0  0  0  0  0  0  0  0
   -1.0380   -1.3440   -5.2350 H   0  0  0  0  0  0  0  0  0  0  0  0
   -1.8390   -2.5320   -4.1820 H   0  0  0  0  0  0  0  0  0  0  0  0
   -0.1500   -3.8690   -2.3920 H   0  0  0  0  0  0  0  0  0  0  0  0
    2.4930   -4.0470   -2.3410 H   0  0  0  0  0  0  0  0  0  0  0  0
    3.4600   -2.2830   -3.8980 H   0  0  0  0  0  0  0  0  0  0  0  0
  1 10  1  0  0  0  0
  2 12  1  6  0  0  0
  2  1  1  0  0  0  0
  2  3  1  0  0  0  0
  3 13  1  0  0  0  0
  3  4  1  0  0  0  0
  4 15  1  0  0  0  0
  5  4  1  0  0  0  0
  6  5  2  0  0  0  0
  7  2  1  0  0  0  0
  8  7  2  0  0  0  0
  9  5  1  0  0  0  0
 11  1  1  0  0  0  0
 14  3  1  0  0  0  0
 16  4  1  0  0  0  0
 17  9  1  0  0  0  0
 18 29  1  0  0  0  0
 18  7  1  0  0  0  0
 19 30  1  6  0  0  0
 19 20  1  0  0  0  0
 19 18  1  0  0  0  0
 20 21  1  0  0  0  0
 20 32  1  0  0  0  0
 21 26  1  0  0  0  0
 22 23  1  0  0  0  0
 22 21  2  0  0  0  0
 23 24  2  0  0  0  0
 24 35  1  0  0  0  0
 24 25  1  0  0  0  0
 25 36  1  0  0  0  0
 26 25  2  0  0  0  0
 26 37  1  0  0  0  0
 27 19  1  0  0  0  0
 28 27  2  0  0  0  0
 31 20  1  0  0  0  0
 33 22  1  0  0  0  0
 34 23  1  0  0  0  0
 38 49  1  0  0  0  0
 38 27  1  0  0  0  0
 39 50  1  6  0  0  0
 39 38  1  0  0  0  0
 40 52  1  0  0  0  0
 40 41  1  0  0  0  0
 40 39  1  0  0  0  0
 41 42  2  0  0  0  0
 42 43  1  0  0  0  0
 42 53  1  0  0  0  0
 43 54  1  0  0  0  0
 44 43  1  0  0  0  0
 45 41  1  0  0  0  0
 45 44  2  0  0  0  0
 46 39  1  0  0  0  0
 46 47  1  0  0  0  0
 48 46  2  0  0  0  0
 51 40  1  0  0  0  0
 55 44  1  0  0  0  0
M  END
$$$$
