EFI.pdb
 OpenBabel07022418203D

 57 57  0  0  1  0  0  0  0  0999 V2000
   -0.9390   -0.8000    5.4280 N   0  0  0  0  0  0  0  0  0  0  0  0
    0.1410   -0.8140    4.4350 C   0  0  1  0  0  0  0  0  0  0  0  0
    0.8150   -2.1490    4.5300 C   0  0  0  0  0  0  0  0  0  0  0  0
    1.9380   -2.3030    3.5640 C   0  0  0  0  0  0  0  0  0  0  0  0
    2.6030   -3.6460    3.7090 C   0  0  0  0  0  0  0  0  0  0  0  0
    2.1830   -4.4480    4.5630 O   0  0  0  0  0  0  0  0  0  0  0  0
   -0.5080   -0.5620    3.1310 C   0  0  0  0  0  0  0  0  0  0  0  0
   -1.7750   -0.6540    2.9750 O   0  0  0  0  0  0  0  0  0  0  0  0
    3.6630   -3.9830    2.9070 O   0  0  0  0  0  0  0  0  0  0  0  0
   -0.6760   -1.4400    6.1960 H   0  0  0  0  0  0  0  0  0  0  0  0
   -1.8440   -0.9990    4.9920 H   0  0  0  0  0  0  0  0  0  0  0  0
    0.8570   -0.0210    4.7240 H   0  0  0  0  0  0  0  0  0  0  0  0
    0.1010   -2.9970    4.4550 H   0  0  0  0  0  0  0  0  0  0  0  0
    1.2440   -2.2190    5.5540 H   0  0  0  0  0  0  0  0  0  0  0  0
    2.6730   -1.4960    3.6270 H   0  0  0  0  0  0  0  0  0  0  0  0
    1.5230   -2.3260    2.5270 H   0  0  0  0  0  0  0  0  0  0  0  0
    4.3090   -4.7490    3.1120 H   0  0  0  0  0  0  0  0  0  0  0  0
    0.1970   -0.1960    1.9470 N   0  0  0  0  0  0  0  0  0  0  0  0
   -0.4830    0.0420    0.6890 C   0  0  1  0  0  0  0  0  0  0  0  0
   -0.2170    1.4930    0.3340 C   0  0  0  0  0  0  0  0  0  0  0  0
   -0.7170    2.4240    1.3460 C   0  0  0  0  0  0  0  0  0  0  0  0
    0.1060    2.8030    2.3820 C   0  0  0  0  0  0  0  0  0  0  0  0
   -0.3090    3.6820    3.3740 C   0  0  0  0  0  0  0  0  0  0  0  0
   -1.5740    4.1870    3.3180 C   0  0  0  0  0  0  0  0  0  0  0  0
   -2.4040    3.8200    2.2930 C   0  0  0  0  0  0  0  0  0  0  0  0
   -1.9910    2.9460    1.3090 C   0  0  0  0  0  0  0  0  0  0  0  0
    0.1470   -0.8030   -0.3410 C   0  0  0  0  0  0  0  0  0  0  0  0
    1.1110   -1.5590   -0.0640 O   0  0  0  0  0  0  0  0  0  0  0  0
    1.2200   -0.0790    1.9560 H   0  0  0  0  0  0  0  0  0  0  0  0
   -1.5670   -0.1360    0.7880 H   0  0  0  0  0  0  0  0  0  0  0  0
   -0.7410    1.7310   -0.6290 H   0  0  0  0  0  0  0  0  0  0  0  0
    0.8560    1.6740    0.1390 H   0  0  0  0  0  0  0  0  0  0  0  0
    1.1260    2.4290    2.4750 H   0  0  0  0  0  0  0  0  0  0  0  0
    0.3690    3.9530    4.1700 H   0  0  0  0  0  0  0  0  0  0  0  0
   -1.8950    4.8820    4.1060 H   0  0  0  0  0  0  0  0  0  0  0  0
   -3.4130    4.2400    2.2730 H   0  0  0  0  0  0  0  0  0  0  0  0
   -2.6960    2.6810    0.5050 H   0  0  0  0  0  0  0  0  0  0  0  0
   -0.2160   -3.1550   -5.6630 C   0  0  0  0  0  0  0  0  0  0  0  0
   -0.1570   -3.6550   -4.2510 C   0  0  0  0  0  0  0  0  0  0  0  0
   -0.5930   -2.7120   -3.1940 C   0  0  2  0  0  0  0  0  0  0  0  0
   -2.0150   -2.2140   -3.3630 C   0  0  0  0  0  0  0  0  0  0  0  0
    0.3390   -1.6570   -2.7330 C   0  0  2  0  0  0  0  0  0  0  0  0
   -0.2840   -0.8170   -1.6920 N   0  0  0  0  0  0  0  0  0  0  0  0
    1.0500   -0.8540   -3.7120 C   0  0  0  0  0  0  0  0  0  0  0  0
    1.7620   -1.2450   -4.6670 O   0  0  0  0  0  0  0  0  0  0  0  0
    0.9960    0.5690   -3.6690 O   0  0  0  0  0  0  0  0  0  0  0  0
   -0.5190   -2.1020   -5.7770 H   0  0  0  0  0  0  0  0  0  0  0  0
   -0.8740   -3.8230   -6.3050 H   0  0  0  0  0  0  0  0  0  0  0  0
    0.7820   -3.2730   -6.1230 H   0  0  0  0  0  0  0  0  0  0  0  0
    0.8800   -4.0640   -4.0540 H   0  0  0  0  0  0  0  0  0  0  0  0
   -0.7680   -4.6130   -4.2410 H   0  0  0  0  0  0  0  0  0  0  0  0
   -0.7460   -3.4500   -2.2850 H   0  0  0  0  0  0  0  0  0  0  0  0
   -2.3000   -1.7630   -2.3820 H   0  0  0  0  0  0  0  0  0  0  0  0
   -2.7300   -3.0460   -3.5260 H   0  0  0  0  0  0  0  0  0  0  0  0
   -2.1330   -1.5160   -4.2020 H   0  0  0  0  0  0  0  0  0  0  0  0
    1.1570   -2.2020   -2.1590 H   0  0  0  0  0  0  0  0  0  0  0  0
   -1.0910   -0.1850   -1.9260 H   0  0  0  0  0  0  0  0  0  0  0  0
  1 10  1  0  0  0  0
  2  3  1  0  0  0  0
  2 12  1  1  0  0  0
  2  1  1  0  0  0  0
  3 14  1  0  0  0  0
  4 15  1  0  0  0  0
  4  5  1  0  0  0  0
  4  3  1  0  0  0  0
  5  6  2  0  0  0  0
  7  2  1  0  0  0  0
  8  7  2  0  0  0  0
  9 17  1  0  0  0  0
  9  5  1  0  0  0  0
 11  1  1  0  0  0  0
 13  3  1  0  0  0  0
 16  4  1  0  0  0  0
 18 29  1  0  0  0  0
 18  7  1  0  0  0  0
 19 30  1  1  0  0  0
 19 18  1  0  0  0  0
 20 19  1  0  0  0  0
 20 21  1  0  0  0  0
 21 22  1  0  0  0  0
 22 33  1  0  0  0  0
 22 23  2  0  0  0  0
 23 34  1  0  0  0  0
 24 23  1  0  0  0  0
 24 35  1  0  0  0  0
 25 24  2  0  0  0  0
 26 21  2  0  0  0  0
 26 25  1  0  0  0  0
 27 28  2  0  0  0  0
 27 19  1  0  0  0  0
 31 20  1  0  0  0  0
 32 20  1  0  0  0  0
 36 25  1  0  0  0  0
 37 26  1  0  0  0  0
 38 39  1  0  0  0  0
 39 51  1  0  0  0  0
 39 50  1  0  0  0  0
 39 40  1  0  0  0  0
 40 42  1  0  0  0  0
 40 52  1  1  0  0  0
 41 40  1  0  0  0  0
 41 53  1  0  0  0  0
 42 56  1  1  0  0  0
 42 43  1  0  0  0  0
 43 27  1  0  0  0  0
 44 46  1  0  0  0  0
 44 42  1  0  0  0  0
 45 44  2  0  0  0  0
 47 38  1  0  0  0  0
 48 38  1  0  0  0  0
 49 38  1  0  0  0  0
 54 41  1  0  0  0  0
 55 41  1  0  0  0  0
 57 43  1  0  0  0  0
M  END
$$$$
