EFK.pdb
 OpenBabel07022418203D

 59 59  0  0  1  0  0  0  0  0999 V2000
    4.0260    0.8460    3.6110 N   0  0  0  0  0  0  0  0  0  0  0  0
    3.5150    0.2860    2.3870 C   0  0  1  0  0  0  0  0  0  0  0  0
    3.5460   -1.1860    2.2990 C   0  0  0  0  0  0  0  0  0  0  0  0
    2.8060   -1.9900    3.2760 C   0  0  0  0  0  0  0  0  0  0  0  0
    3.1530   -1.9170    4.6820 C   0  0  0  0  0  0  0  0  0  0  0  0
    4.0990   -1.2430    5.1110 O   0  0  0  0  0  0  0  0  0  0  0  0
    2.1910    0.8810    2.0870 C   0  0  0  0  0  0  0  0  0  0  0  0
    1.7060    1.7000    2.9020 O   0  0  0  0  0  0  0  0  0  0  0  0
    2.3940   -2.6330    5.5930 O   0  0  0  0  0  0  0  0  0  0  0  0
    5.0630    0.9610    3.6250 H   0  0  0  0  0  0  0  0  0  0  0  0
    3.6320    1.8160    3.7520 H   0  0  0  0  0  0  0  0  0  0  0  0
    4.2290    0.6600    1.5850 H   0  0  0  0  0  0  0  0  0  0  0  0
    4.6370   -1.4910    2.2460 H   0  0  0  0  0  0  0  0  0  0  0  0
    3.1630   -1.4700    1.2720 H   0  0  0  0  0  0  0  0  0  0  0  0
    2.9510   -3.0800    2.9770 H   0  0  0  0  0  0  0  0  0  0  0  0
    1.7040   -1.8450    3.1050 H   0  0  0  0  0  0  0  0  0  0  0  0
    2.6560   -2.7650    6.5550 H   0  0  0  0  0  0  0  0  0  0  0  0
    1.4320    0.5790    0.9240 N   0  0  0  0  0  0  0  0  0  0  0  0
    0.1260    1.2300    0.7270 C   0  0  1  0  0  0  0  0  0  0  0  0
    0.2210    2.1750   -0.4670 C   0  0  0  0  0  0  0  0  0  0  0  0
   -1.0470    2.8670   -0.7290 C   0  0  0  0  0  0  0  0  0  0  0  0
   -1.9960    2.3820   -1.6000 C   0  0  0  0  0  0  0  0  0  0  0  0
   -3.1830    3.0820   -1.8030 C   0  0  0  0  0  0  0  0  0  0  0  0
   -3.4080    4.2690   -1.1280 C   0  0  0  0  0  0  0  0  0  0  0  0
   -2.4700    4.7760   -0.2500 C   0  0  0  0  0  0  0  0  0  0  0  0
   -1.3130    4.0630   -0.0710 C   0  0  0  0  0  0  0  0  0  0  0  0
   -0.9090    0.1950    0.5400 C   0  0  0  0  0  0  0  0  0  0  0  0
   -2.1320    0.5410    0.4230 O   0  0  0  0  0  0  0  0  0  0  0  0
    1.8070   -0.0980    0.2240 H   0  0  0  0  0  0  0  0  0  0  0  0
   -0.0690    1.8590    1.5930 H   0  0  0  0  0  0  0  0  0  0  0  0
    0.4410    1.4960   -1.3430 H   0  0  0  0  0  0  0  0  0  0  0  0
    1.0790    2.8410   -0.3800 H   0  0  0  0  0  0  0  0  0  0  0  0
   -1.8370    1.4570   -2.1370 H   0  0  0  0  0  0  0  0  0  0  0  0
   -3.9450    2.7150   -2.4870 H   0  0  0  0  0  0  0  0  0  0  0  0
   -4.3590    4.7780   -1.3260 H   0  0  0  0  0  0  0  0  0  0  0  0
   -2.6530    5.7060    0.2750 H   0  0  0  0  0  0  0  0  0  0  0  0
   -0.5580    4.4310    0.6080 H   0  0  0  0  0  0  0  0  0  0  0  0
   -0.6530   -1.1850    0.4780 N   0  0  0  0  0  0  0  0  0  0  0  0
   -1.7650   -2.1410    0.2880 C   0  0  1  0  0  0  0  0  0  0  0  0
   -1.5990   -2.8160   -1.0650 C   0  0  0  0  0  0  0  0  0  0  0  0
   -2.6900   -3.7970   -1.3580 C   0  0  0  0  0  0  0  0  0  0  0  0
   -2.5850   -4.4240   -2.7240 C   0  0  0  0  0  0  0  0  0  0  0  0
   -1.3410   -5.1920   -2.9950 C   0  0  0  0  0  0  0  0  0  0  0  0
   -0.1400   -4.4180   -2.9280 N   0  0  0  0  0  0  0  0  0  0  0  0
   -1.6330   -3.1430    1.3350 C   0  0  0  0  0  0  0  0  0  0  0  0
   -2.4780   -4.0420    1.4910 O   0  0  0  0  0  0  0  0  0  0  0  0
   -0.5520   -3.1170    2.1910 O   0  0  0  0  0  0  0  0  0  0  0  0
    0.3150   -1.5530    0.5620 H   0  0  0  0  0  0  0  0  0  0  0  0
   -2.7320   -1.5870    0.2810 H   0  0  0  0  0  0  0  0  0  0  0  0
   -0.6630   -3.4480   -0.9290 H   0  0  0  0  0  0  0  0  0  0  0  0
   -1.4570   -2.1050   -1.8790 H   0  0  0  0  0  0  0  0  0  0  0  0
   -2.6650   -4.6700   -0.6330 H   0  0  0  0  0  0  0  0  0  0  0  0
   -3.6900   -3.3460   -1.1840 H   0  0  0  0  0  0  0  0  0  0  0  0
   -2.6760   -3.6300   -3.5020 H   0  0  0  0  0  0  0  0  0  0  0  0
   -3.4420   -5.1530   -2.8430 H   0  0  0  0  0  0  0  0  0  0  0  0
   -1.4250   -5.6040   -4.0300 H   0  0  0  0  0  0  0  0  0  0  0  0
   -1.2670   -6.0990   -2.3220 H   0  0  0  0  0  0  0  0  0  0  0  0
    0.0590   -3.8800   -3.7890 H   0  0  0  0  0  0  0  0  0  0  0  0
    0.6810   -5.0270   -2.7030 H   0  0  0  0  0  0  0  0  0  0  0  0
  1 10  1  0  0  0  0
  1 11  1  0  0  0  0
  2 12  1  6  0  0  0
  2  1  1  0  0  0  0
  3  2  1  0  0  0  0
  3  4  1  0  0  0  0
  4  5  1  0  0  0  0
  5  6  2  0  0  0  0
  5  9  1  0  0  0  0
  7  2  1  0  0  0  0
  7  8  2  0  0  0  0
  9 17  1  0  0  0  0
 13  3  1  0  0  0  0
 14  3  1  0  0  0  0
 15  4  1  0  0  0  0
 16  4  1  0  0  0  0
 18  7  1  0  0  0  0
 19 18  1  0  0  0  0
 19 30  1  1  0  0  0
 20 32  1  0  0  0  0
 20 19  1  0  0  0  0
 21 20  1  0  0  0  0
 21 26  1  0  0  0  0
 22 21  2  0  0  0  0
 23 22  1  0  0  0  0
 23 24  2  0  0  0  0
 24 25  1  0  0  0  0
 25 26  2  0  0  0  0
 25 36  1  0  0  0  0
 26 37  1  0  0  0  0
 27 19  1  0  0  0  0
 28 27  2  0  0  0  0
 29 18  1  0  0  0  0
 31 20  1  0  0  0  0
 33 22  1  0  0  0  0
 34 23  1  0  0  0  0
 35 24  1  0  0  0  0
 38 27  1  0  0  0  0
 38 48  1  0  0  0  0
 39 49  1  1  0  0  0
 39 38  1  0  0  0  0
 39 45  1  0  0  0  0
 40 50  1  0  0  0  0
 40 39  1  0  0  0  0
 41 53  1  0  0  0  0
 41 40  1  0  0  0  0
 41 52  1  0  0  0  0
 42 41  1  0  0  0  0
 43 44  1  0  0  0  0
 43 42  1  0  0  0  0
 43 57  1  0  0  0  0
 44 59  1  0  0  0  0
 45 46  2  0  0  0  0
 45 47  1  0  0  0  0
 51 40  1  0  0  0  0
 54 42  1  0  0  0  0
 55 42  1  0  0  0  0
 56 43  1  0  0  0  0
 58 44  1  0  0  0  0
M  END
$$$$
