EFL.pdb
 OpenBabel07022418203D

 57 57  0  0  1  0  0  0  0  0999 V2000
   -0.6100    1.2630    4.6140 N   0  0  0  0  0  0  0  0  0  0  0  0
    0.4200    0.4940    3.8610 C   0  0  1  0  0  0  0  0  0  0  0  0
    0.4520   -0.8420    4.5400 C   0  0  0  0  0  0  0  0  0  0  0  0
    1.4130   -1.8370    3.9970 C   0  0  0  0  0  0  0  0  0  0  0  0
    2.8320   -1.3850    4.0630 C   0  0  0  0  0  0  0  0  0  0  0  0
    3.7620   -2.0960    3.6100 O   0  0  0  0  0  0  0  0  0  0  0  0
   -0.0760    0.3570    2.4660 C   0  0  0  0  0  0  0  0  0  0  0  0
   -1.2770    0.6950    2.1830 O   0  0  0  0  0  0  0  0  0  0  0  0
    3.1590   -0.1680    4.6260 O   0  0  0  0  0  0  0  0  0  0  0  0
   -0.9540    1.9770    3.9100 H   0  0  0  0  0  0  0  0  0  0  0  0
   -1.3970    0.5870    4.7420 H   0  0  0  0  0  0  0  0  0  0  0  0
    1.3280    1.0890    3.9380 H   0  0  0  0  0  0  0  0  0  0  0  0
   -0.5690   -1.2740    4.4740 H   0  0  0  0  0  0  0  0  0  0  0  0
    0.6490   -0.7170    5.6270 H   0  0  0  0  0  0  0  0  0  0  0  0
    1.1470   -2.2380    3.0080 H   0  0  0  0  0  0  0  0  0  0  0  0
    1.3790   -2.7280    4.7040 H   0  0  0  0  0  0  0  0  0  0  0  0
    3.8720    0.4270    4.2040 H   0  0  0  0  0  0  0  0  0  0  0  0
    0.7200   -0.1350    1.4030 N   0  0  0  0  0  0  0  0  0  0  0  0
    0.2180   -0.2640    0.0380 C   0  0  1  0  0  0  0  0  0  0  0  0
    0.9920    0.6770   -0.8290 C   0  0  0  0  0  0  0  0  0  0  0  0
    0.8180    2.0780   -0.3650 C   0  0  0  0  0  0  0  0  0  0  0  0
    1.6350    2.6790    0.5670 C   0  0  0  0  0  0  0  0  0  0  0  0
    1.4200    3.9920    0.9550 C   0  0  0  0  0  0  0  0  0  0  0  0
    0.4040    4.7480    0.4440 C   0  0  0  0  0  0  0  0  0  0  0  0
   -0.4220    4.1650   -0.4880 C   0  0  0  0  0  0  0  0  0  0  0  0
   -0.2190    2.8610   -0.8830 C   0  0  0  0  0  0  0  0  0  0  0  0
    0.2040   -1.6530   -0.4240 C   0  0  0  0  0  0  0  0  0  0  0  0
    0.5540   -2.6250    0.2760 O   0  0  0  0  0  0  0  0  0  0  0  0
    1.7100   -0.4050    1.6210 H   0  0  0  0  0  0  0  0  0  0  0  0
   -0.8410    0.1190    0.0700 H   0  0  0  0  0  0  0  0  0  0  0  0
    0.6980    0.6480   -1.8890 H   0  0  0  0  0  0  0  0  0  0  0  0
    2.0810    0.4440   -0.7840 H   0  0  0  0  0  0  0  0  0  0  0  0
    2.4330    2.1050    0.9770 H   0  0  0  0  0  0  0  0  0  0  0  0
    2.0890    4.4060    1.6850 H   0  0  0  0  0  0  0  0  0  0  0  0
    0.2300    5.7800    0.7440 H   0  0  0  0  0  0  0  0  0  0  0  0
   -1.2420    4.7540   -0.9090 H   0  0  0  0  0  0  0  0  0  0  0  0
   -0.8840    2.4540   -1.6070 H   0  0  0  0  0  0  0  0  0  0  0  0
   -3.1900   -2.4090   -1.4550 C   0  0  0  0  0  0  0  0  0  0  0  0
   -2.7880   -3.6840   -2.1130 C   0  0  0  0  0  0  0  0  0  0  0  0
   -2.7070   -4.7550   -1.0300 C   0  0  0  0  0  0  0  0  0  0  0  0
   -1.5820   -3.6250   -2.9800 C   0  0  0  0  0  0  0  0  0  0  0  0
   -0.3080   -3.2180   -2.3480 C   0  0  2  0  0  0  0  0  0  0  0  0
   -0.2310   -1.9420   -1.7470 N   0  0  0  0  0  0  0  0  0  0  0  0
    0.8450   -3.4240   -3.3090 C   0  0  0  0  0  0  0  0  0  0  0  0
    0.9710   -4.4740   -3.9490 O   0  0  0  0  0  0  0  0  0  0  0  0
    1.7420   -2.3810   -3.4290 O   0  0  0  0  0  0  0  0  0  0  0  0
   -2.5970   -2.1820   -0.5690 H   0  0  0  0  0  0  0  0  0  0  0  0
   -4.2690   -2.5380   -1.1470 H   0  0  0  0  0  0  0  0  0  0  0  0
   -3.2290   -1.6090   -2.2190 H   0  0  0  0  0  0  0  0  0  0  0  0
   -3.6420   -3.9910   -2.7730 H   0  0  0  0  0  0  0  0  0  0  0  0
   -2.2430   -4.2660   -0.1480 H   0  0  0  0  0  0  0  0  0  0  0  0
   -2.1880   -5.6590   -1.3540 H   0  0  0  0  0  0  0  0  0  0  0  0
   -3.7800   -4.9750   -0.7560 H   0  0  0  0  0  0  0  0  0  0  0  0
   -1.4190   -4.6820   -3.3530 H   0  0  0  0  0  0  0  0  0  0  0  0
   -1.8340   -3.0680   -3.9060 H   0  0  0  0  0  0  0  0  0  0  0  0
   -0.0800   -3.9760   -1.5390 H   0  0  0  0  0  0  0  0  0  0  0  0
   -0.5240   -1.1030   -2.3310 H   0  0  0  0  0  0  0  0  0  0  0  0
  1 11  1  0  0  0  0
  2 12  1  1  0  0  0
  2  3  1  0  0  0  0
  2  1  1  0  0  0  0
  3 14  1  0  0  0  0
  4  5  1  0  0  0  0
  4  3  1  0  0  0  0
  4 16  1  0  0  0  0
  5  9  1  0  0  0  0
  6  5  2  0  0  0  0
  7  2  1  0  0  0  0
  8  7  2  0  0  0  0
 10  1  1  0  0  0  0
 13  3  1  0  0  0  0
 15  4  1  0  0  0  0
 17  9  1  0  0  0  0
 18 29  1  0  0  0  0
 18  7  1  0  0  0  0
 19 30  1  1  0  0  0
 19 18  1  0  0  0  0
 20 32  1  0  0  0  0
 20 21  1  0  0  0  0
 20 19  1  0  0  0  0
 21 22  1  0  0  0  0
 22 23  2  0  0  0  0
 22 33  1  0  0  0  0
 23 34  1  0  0  0  0
 24 35  1  0  0  0  0
 24 23  1  0  0  0  0
 25 24  2  0  0  0  0
 26 25  1  0  0  0  0
 26 21  2  0  0  0  0
 27 19  1  0  0  0  0
 27 28  2  0  0  0  0
 31 20  1  0  0  0  0
 36 25  1  0  0  0  0
 37 26  1  0  0  0  0
 38 48  1  0  0  0  0
 38 47  1  0  0  0  0
 39 38  1  0  0  0  0
 39 40  1  0  0  0  0
 40 53  1  0  0  0  0
 40 51  1  0  0  0  0
 41 42  1  0  0  0  0
 41 39  1  0  0  0  0
 42 43  1  0  0  0  0
 42 56  1  1  0  0  0
 43 27  1  0  0  0  0
 44 42  1  0  0  0  0
 45 44  2  0  0  0  0
 46 44  1  0  0  0  0
 49 38  1  0  0  0  0
 50 39  1  0  0  0  0
 52 40  1  0  0  0  0
 54 41  1  0  0  0  0
 55 41  1  0  0  0  0
 57 43  1  0  0  0  0
M  END
$$$$
