EFN.pdb
 OpenBabel07022418193D

 52 52  0  0  1  0  0  0  0  0999 V2000
    2.3400    1.6790   -0.7720 N   0  0  0  0  0  0  0  0  0  0  0  0
    3.0140    0.4060   -0.6100 C   0  0  1  0  0  0  0  0  0  0  0  0
    4.1990    0.6790    0.2870 C   0  0  0  0  0  0  0  0  0  0  0  0
    5.0390   -0.5300    0.5810 C   0  0  0  0  0  0  0  0  0  0  0  0
    6.1510   -0.1090    1.4620 C   0  0  0  0  0  0  0  0  0  0  0  0
    6.9810   -0.9660    1.8310 O   0  0  0  0  0  0  0  0  0  0  0  0
    2.1010   -0.6330   -0.0660 C   0  0  0  0  0  0  0  0  0  0  0  0
    2.4770   -1.8300    0.0960 O   0  0  0  0  0  0  0  0  0  0  0  0
    6.2930    1.1990    1.8820 O   0  0  0  0  0  0  0  0  0  0  0  0
    2.6790    2.4170   -0.1270 H   0  0  0  0  0  0  0  0  0  0  0  0
    2.2940    1.9850   -1.7660 H   0  0  0  0  0  0  0  0  0  0  0  0
    3.3710    0.0880   -1.6080 H   0  0  0  0  0  0  0  0  0  0  0  0
    3.7790    1.0880    1.2420 H   0  0  0  0  0  0  0  0  0  0  0  0
    4.8060    1.4570   -0.2420 H   0  0  0  0  0  0  0  0  0  0  0  0
    4.4860   -1.3080    1.1430 H   0  0  0  0  0  0  0  0  0  0  0  0
    5.4610   -0.9250   -0.3680 H   0  0  0  0  0  0  0  0  0  0  0  0
    7.1780    1.5940    2.2010 H   0  0  0  0  0  0  0  0  0  0  0  0
    0.7520   -0.3710    0.3110 N   0  0  0  0  0  0  0  0  0  0  0  0
   -0.1110   -1.4260    0.8410 C   0  0  1  0  0  0  0  0  0  0  0  0
   -0.2780   -1.0780    2.3160 C   0  0  0  0  0  0  0  0  0  0  0  0
   -0.8780    0.2350    2.5510 C   0  0  0  0  0  0  0  0  0  0  0  0
   -0.1120    1.3770    2.6600 C   0  0  0  0  0  0  0  0  0  0  0  0
   -0.6510    2.6170    2.8810 C   0  0  0  0  0  0  0  0  0  0  0  0
   -2.0190    2.7190    2.9990 C   0  0  0  0  0  0  0  0  0  0  0  0
   -2.8040    1.5850    2.8930 C   0  0  0  0  0  0  0  0  0  0  0  0
   -2.2440    0.3460    2.6700 C   0  0  0  0  0  0  0  0  0  0  0  0
   -1.3650   -1.4880    0.0950 C   0  0  0  0  0  0  0  0  0  0  0  0
   -1.6380   -0.6640   -0.8480 O   0  0  0  0  0  0  0  0  0  0  0  0
    0.4030    0.6030    0.1940 H   0  0  0  0  0  0  0  0  0  0  0  0
    0.4240   -2.4020    0.8510 H   0  0  0  0  0  0  0  0  0  0  0  0
    0.7620   -1.0630    2.7350 H   0  0  0  0  0  0  0  0  0  0  0  0
   -0.8020   -1.8800    2.8700 H   0  0  0  0  0  0  0  0  0  0  0  0
    0.9800    1.3350    2.5710 H   0  0  0  0  0  0  0  0  0  0  0  0
   -0.0430    3.4900    2.9630 H   0  0  0  0  0  0  0  0  0  0  0  0
   -2.4730    3.6910    3.1750 H   0  0  0  0  0  0  0  0  0  0  0  0
   -3.8770    1.6390    2.9820 H   0  0  0  0  0  0  0  0  0  0  0  0
   -2.8950   -0.5440    2.5910 H   0  0  0  0  0  0  0  0  0  0  0  0
   -2.9440   -3.3730   -3.6320 N   0  0  0  0  0  0  0  0  0  0  0  0
   -2.6830   -3.8190   -2.3130 C   0  0  0  0  0  0  0  0  0  0  0  0
   -1.5480   -4.2860   -2.0550 O   0  0  0  0  0  0  0  0  0  0  0  0
   -3.7440   -3.7200   -1.2980 C   0  0  0  0  0  0  0  0  0  0  0  0
   -3.6130   -2.5020   -0.4120 C   0  0  2  0  0  0  0  0  0  0  0  0
   -2.4010   -2.4490    0.3220 N   0  0  0  0  0  0  0  0  0  0  0  0
   -4.7940   -2.4950    0.4670 C   0  0  0  0  0  0  0  0  0  0  0  0
   -5.9710   -2.5090    0.0140 O   0  0  0  0  0  0  0  0  0  0  0  0
   -4.6550   -2.4740    1.8390 O   0  0  0  0  0  0  0  0  0  0  0  0
   -3.9300   -3.3710   -4.0110 H   0  0  0  0  0  0  0  0  0  0  0  0
   -2.1650   -3.0360   -4.2550 H   0  0  0  0  0  0  0  0  0  0  0  0
   -4.7150   -3.6190   -1.8250 H   0  0  0  0  0  0  0  0  0  0  0  0
   -3.8420   -4.6570   -0.6920 H   0  0  0  0  0  0  0  0  0  0  0  0
   -3.6570   -1.6310   -1.0980 H   0  0  0  0  0  0  0  0  0  0  0  0
   -2.2410   -3.1510    1.0790 H   0  0  0  0  0  0  0  0  0  0  0  0
  1  2  1  0  0  0  0
  1 10  1  0  0  0  0
  2 12  1  6  0  0  0
  2  7  1  0  0  0  0
  2  3  1  0  0  0  0
  3  4  1  0  0  0  0
  3 13  1  0  0  0  0
  4 15  1  0  0  0  0
  4  5  1  0  0  0  0
  5  6  2  0  0  0  0
  5  9  1  0  0  0  0
  7  8  2  0  0  0  0
  7 18  1  0  0  0  0
  9 17  1  0  0  0  0
 11  1  1  0  0  0  0
 14  3  1  0  0  0  0
 16  4  1  0  0  0  0
 18 19  1  0  0  0  0
 19 30  1  6  0  0  0
 19 20  1  0  0  0  0
 20 21  1  0  0  0  0
 20 31  1  0  0  0  0
 20 32  1  0  0  0  0
 21 22  2  0  0  0  0
 21 26  1  0  0  0  0
 22 23  1  0  0  0  0
 23 34  1  0  0  0  0
 23 24  2  0  0  0  0
 24 35  1  0  0  0  0
 25 36  1  0  0  0  0
 25 24  1  0  0  0  0
 26 25  2  0  0  0  0
 27 43  1  0  0  0  0
 27 19  1  0  0  0  0
 28 27  2  0  0  0  0
 29 18  1  0  0  0  0
 33 22  1  0  0  0  0
 37 26  1  0  0  0  0
 38 39  1  0  0  0  0
 39 40  2  0  0  0  0
 39 41  1  0  0  0  0
 41 50  1  0  0  0  0
 41 42  1  0  0  0  0
 42 51  1  6  0  0  0
 42 43  1  0  0  0  0
 42 44  1  0  0  0  0
 43 52  1  0  0  0  0
 44 46  1  0  0  0  0
 45 44  2  0  0  0  0
 47 38  1  0  0  0  0
 48 38  1  0  0  0  0
 49 41  1  0  0  0  0
M  END
$$$$
