EFP.pdb
 OpenBabel07022418203D

 52 53  0  0  1  0  0  0  0  0999 V2000
    1.8640   -2.1160   -0.1190 N   0  0  0  0  0  0  0  0  0  0  0  0
    1.5090   -2.3110    1.2310 C   0  0  1  0  0  0  0  0  0  0  0  0
    2.5470   -2.2620    2.2850 C   0  0  0  0  0  0  0  0  0  0  0  0
    3.3380   -1.0270    2.4410 C   0  0  0  0  0  0  0  0  0  0  0  0
    4.1880   -0.7520    1.2690 C   0  0  0  0  0  0  0  0  0  0  0  0
    4.2890   -1.5860    0.3540 O   0  0  0  0  0  0  0  0  0  0  0  0
    0.3320   -1.4960    1.6140 C   0  0  0  0  0  0  0  0  0  0  0  0
    0.0460   -1.3530    2.8270 O   0  0  0  0  0  0  0  0  0  0  0  0
    4.8980    0.4520    1.1640 O   0  0  0  0  0  0  0  0  0  0  0  0
    1.7490   -1.1880   -0.5310 H   0  0  0  0  0  0  0  0  0  0  0  0
    1.8460   -2.9260   -0.7430 H   0  0  0  0  0  0  0  0  0  0  0  0
    1.1620   -3.4320    1.2630 H   0  0  0  0  0  0  0  0  0  0  0  0
    3.2110   -3.1690    2.1810 H   0  0  0  0  0  0  0  0  0  0  0  0
    2.0100   -2.4570    3.2640 H   0  0  0  0  0  0  0  0  0  0  0  0
    2.6830   -0.1560    2.6890 H   0  0  0  0  0  0  0  0  0  0  0  0
    4.0210   -1.1310    3.3330 H   0  0  0  0  0  0  0  0  0  0  0  0
    5.1370    0.7650    0.2190 H   0  0  0  0  0  0  0  0  0  0  0  0
   -0.4910   -0.8760    0.6400 N   0  0  0  0  0  0  0  0  0  0  0  0
   -1.6520   -0.0940    0.9250 C   0  0  1  0  0  0  0  0  0  0  0  0
   -1.3140    1.3760    0.6050 C   0  0  0  0  0  0  0  0  0  0  0  0
   -0.2120    1.9250    1.3870 C   0  0  0  0  0  0  0  0  0  0  0  0
    1.1050    1.9420    0.9890 C   0  0  0  0  0  0  0  0  0  0  0  0
    2.0860    2.4920    1.7730 C   0  0  0  0  0  0  0  0  0  0  0  0
    1.8160    3.0570    2.9940 C   0  0  0  0  0  0  0  0  0  0  0  0
    0.5130    3.0550    3.4180 C   0  0  0  0  0  0  0  0  0  0  0  0
   -0.4680    2.5060    2.6380 C   0  0  0  0  0  0  0  0  0  0  0  0
   -2.7900   -0.4590    0.0620 C   0  0  0  0  0  0  0  0  0  0  0  0
   -3.7320    0.4980    0.1810 O   0  0  0  0  0  0  0  0  0  0  0  0
   -0.2410   -0.9890   -0.3760 H   0  0  0  0  0  0  0  0  0  0  0  0
   -1.9390   -0.1530    2.0130 H   0  0  0  0  0  0  0  0  0  0  0  0
   -1.0370    1.4420   -0.4710 H   0  0  0  0  0  0  0  0  0  0  0  0
   -2.2320    1.9940    0.7800 H   0  0  0  0  0  0  0  0  0  0  0  0
    1.3250    1.4940    0.0200 H   0  0  0  0  0  0  0  0  0  0  0  0
    3.1120    2.4870    1.4140 H   0  0  0  0  0  0  0  0  0  0  0  0
    2.6200    3.4790    3.5790 H   0  0  0  0  0  0  0  0  0  0  0  0
    0.3020    3.5010    4.3850 H   0  0  0  0  0  0  0  0  0  0  0  0
   -1.5000    2.5000    2.9670 H   0  0  0  0  0  0  0  0  0  0  0  0
   -3.0530   -1.4960   -0.7780 N   0  0  0  0  0  0  0  0  0  0  0  0
   -4.2330   -1.4770   -1.7160 C   0  0  0  0  0  0  0  0  0  0  0  0
   -3.4660   -1.8280   -3.0160 C   0  0  0  0  0  0  0  0  0  0  0  0
   -2.1390   -2.4890   -2.5440 C   0  0  0  0  0  0  0  0  0  0  0  0
   -2.5370   -2.7670   -1.1100 C   0  0  1  0  0  0  0  0  0  0  0  0
   -1.6530   -3.4910   -0.2590 C   0  0  0  0  0  0  0  0  0  0  0  0
   -0.6420   -4.0890   -0.6960 O   0  0  0  0  0  0  0  0  0  0  0  0
   -1.9120   -3.5530    1.1030 O   0  0  0  0  0  0  0  0  0  0  0  0
   -4.6710   -0.4920   -1.7830 H   0  0  0  0  0  0  0  0  0  0  0  0
   -4.9070   -2.3040   -1.4560 H   0  0  0  0  0  0  0  0  0  0  0  0
   -3.2730   -0.9350   -3.6070 H   0  0  0  0  0  0  0  0  0  0  0  0
   -4.0110   -2.6180   -3.5380 H   0  0  0  0  0  0  0  0  0  0  0  0
   -1.3630   -1.7220   -2.5310 H   0  0  0  0  0  0  0  0  0  0  0  0
   -1.9250   -3.3820   -3.1260 H   0  0  0  0  0  0  0  0  0  0  0  0
   -3.4790   -3.4820   -1.3080 H   0  0  0  0  0  0  0  0  0  0  0  0
  1  2  1  0  0  0  0
  2 12  1  1  0  0  0
  2  7  1  0  0  0  0
  2  3  1  0  0  0  0
  3  4  1  0  0  0  0
  3 14  1  0  0  0  0
  4 15  1  0  0  0  0
  4 16  1  0  0  0  0
  5  4  1  0  0  0  0
  6  5  2  0  0  0  0
  7  8  2  0  0  0  0
  9  5  1  0  0  0  0
 10  1  1  0  0  0  0
 11  1  1  0  0  0  0
 13  3  1  0  0  0  0
 17  9  1  0  0  0  0
 18 19  1  0  0  0  0
 18  7  1  0  0  0  0
 19 30  1  1  0  0  0
 20 32  1  0  0  0  0
 20 19  1  0  0  0  0
 20 21  1  0  0  0  0
 21 26  1  0  0  0  0
 22 21  2  0  0  0  0
 22 23  1  0  0  0  0
 23 24  2  0  0  0  0
 24 25  1  0  0  0  0
 24 35  1  0  0  0  0
 25 36  1  0  0  0  0
 26 37  1  0  0  0  0
 26 25  2  0  0  0  0
 27 28  2  0  0  0  0
 27 19  1  0  0  0  0
 29 18  1  0  0  0  0
 31 20  1  0  0  0  0
 33 22  1  0  0  0  0
 34 23  1  0  0  0  0
 38 27  1  0  0  0  0
 39 47  1  0  0  0  0
 39 38  1  0  0  0  0
 40 41  1  0  0  0  0
 40 39  1  0  0  0  0
 41 50  1  0  0  0  0
 41 42  1  0  0  0  0
 42 52  1  6  0  0  0
 42 38  1  0  0  0  0
 42 43  1  0  0  0  0
 43 45  1  0  0  0  0
 44 43  2  0  0  0  0
 46 39  1  0  0  0  0
 48 40  1  0  0  0  0
 49 40  1  0  0  0  0
 51 41  1  0  0  0  0
M  END
$$$$
