EFR.pdb
 OpenBabel07022418193D

 61 61  0  0  1  0  0  0  0  0999 V2000
    2.2430    2.5460    0.1710 N   0  0  0  0  0  0  0  0  0  0  0  0
    3.0180    1.3670    0.1500 C   0  0  1  0  0  0  0  0  0  0  0  0
    4.2850    1.4120    0.9420 C   0  0  0  0  0  0  0  0  0  0  0  0
    4.1730    1.6660    2.3950 C   0  0  0  0  0  0  0  0  0  0  0  0
    3.6410    2.9640    2.8060 C   0  0  0  0  0  0  0  0  0  0  0  0
    3.4450    3.8740    1.9810 O   0  0  0  0  0  0  0  0  0  0  0  0
    2.3010    0.1250    0.5520 C   0  0  0  0  0  0  0  0  0  0  0  0
    2.9910   -0.9300    0.5700 O   0  0  0  0  0  0  0  0  0  0  0  0
    3.3370    3.2170    4.1280 O   0  0  0  0  0  0  0  0  0  0  0  0
    1.4030    2.5780    0.7470 H   0  0  0  0  0  0  0  0  0  0  0  0
    2.2160    3.0720   -0.7060 H   0  0  0  0  0  0  0  0  0  0  0  0
    3.3180    1.2270   -0.9540 H   0  0  0  0  0  0  0  0  0  0  0  0
    5.0060    2.1610    0.5230 H   0  0  0  0  0  0  0  0  0  0  0  0
    4.8410    0.4310    0.8280 H   0  0  0  0  0  0  0  0  0  0  0  0
    5.2390    1.6330    2.8040 H   0  0  0  0  0  0  0  0  0  0  0  0
    3.6890    0.8180    2.9510 H   0  0  0  0  0  0  0  0  0  0  0  0
    3.3330    4.1760    4.4770 H   0  0  0  0  0  0  0  0  0  0  0  0
    0.9420    0.0310    0.9070 N   0  0  0  0  0  0  0  0  0  0  0  0
    0.3190   -1.2240    1.2910 C   0  0  1  0  0  0  0  0  0  0  0  0
    0.0000   -1.0370    2.7830 C   0  0  0  0  0  0  0  0  0  0  0  0
   -0.8550    0.1460    3.0050 C   0  0  0  0  0  0  0  0  0  0  0  0
   -0.2530    1.3990    3.2240 C   0  0  0  0  0  0  0  0  0  0  0  0
   -1.0470    2.5020    3.4280 C   0  0  0  0  0  0  0  0  0  0  0  0
   -2.4210    2.4600    3.4320 C   0  0  0  0  0  0  0  0  0  0  0  0
   -3.0180    1.2330    3.2180 C   0  0  0  0  0  0  0  0  0  0  0  0
   -2.2150    0.1050    3.0090 C   0  0  0  0  0  0  0  0  0  0  0  0
   -0.8760   -1.5610    0.4890 C   0  0  0  0  0  0  0  0  0  0  0  0
   -1.4570   -0.7100   -0.2440 O   0  0  0  0  0  0  0  0  0  0  0  0
    0.3640    0.8990    0.8910 H   0  0  0  0  0  0  0  0  0  0  0  0
    1.0230   -2.0670    1.2490 H   0  0  0  0  0  0  0  0  0  0  0  0
   -0.4340   -1.9620    3.2190 H   0  0  0  0  0  0  0  0  0  0  0  0
    0.9800   -0.8890    3.2780 H   0  0  0  0  0  0  0  0  0  0  0  0
    0.8190    1.4120    3.2160 H   0  0  0  0  0  0  0  0  0  0  0  0
   -0.5670    3.4740    3.5980 H   0  0  0  0  0  0  0  0  0  0  0  0
   -3.0120    3.3640    3.5960 H   0  0  0  0  0  0  0  0  0  0  0  0
   -4.0830    1.1710    3.2170 H   0  0  0  0  0  0  0  0  0  0  0  0
   -2.7550   -0.7970    2.8550 H   0  0  0  0  0  0  0  0  0  0  0  0
   -1.7260   -0.7240   -4.3290 N   0  0  0  0  0  0  0  0  0  0  0  0
   -1.2050   -2.0450   -4.3370 C   0  0  0  0  0  0  0  0  0  0  0  0
   -0.7820   -2.6170   -5.4280 N   0  0  0  0  0  0  0  0  0  0  0  0
   -1.1340   -2.8130   -3.1210 N   0  0  0  0  0  0  0  0  0  0  0  0
   -1.2930   -4.2330   -3.1170 C   0  0  0  0  0  0  0  0  0  0  0  0
   -1.3380   -4.9190   -1.8100 C   0  0  0  0  0  0  0  0  0  0  0  0
   -2.4210   -4.6330   -0.8720 C   0  0  0  0  0  0  0  0  0  0  0  0
   -2.5530   -3.2600   -0.2760 C   0  0  2  0  0  0  0  0  0  0  0  0
   -1.4220   -2.8710    0.4990 N   0  0  0  0  0  0  0  0  0  0  0  0
   -3.6960   -3.3830    0.7440 C   0  0  0  0  0  0  0  0  0  0  0  0
   -4.8490   -3.6460    0.3230 O   0  0  0  0  0  0  0  0  0  0  0  0
   -3.5000   -3.2200    2.0880 O   0  0  0  0  0  0  0  0  0  0  0  0
   -1.4890    0.0020   -3.6190 H   0  0  0  0  0  0  0  0  0  0  0  0
   -2.3990   -0.4450   -5.0820 H   0  0  0  0  0  0  0  0  0  0  0  0
   -0.8510   -2.0390   -6.3100 H   0  0  0  0  0  0  0  0  0  0  0  0
   -0.9420   -2.2850   -2.2630 H   0  0  0  0  0  0  0  0  0  0  0  0
   -0.4350   -4.6370   -3.7510 H   0  0  0  0  0  0  0  0  0  0  0  0
   -2.1880   -4.5310   -3.7630 H   0  0  0  0  0  0  0  0  0  0  0  0
   -0.3170   -4.7540   -1.3340 H   0  0  0  0  0  0  0  0  0  0  0  0
   -1.3190   -6.0480   -1.9820 H   0  0  0  0  0  0  0  0  0  0  0  0
   -2.4490   -5.4240   -0.0680 H   0  0  0  0  0  0  0  0  0  0  0  0
   -3.4060   -4.8000   -1.4240 H   0  0  0  0  0  0  0  0  0  0  0  0
   -2.9050   -2.5630   -1.0310 H   0  0  0  0  0  0  0  0  0  0  0  0
   -0.9770   -3.6220    1.1130 H   0  0  0  0  0  0  0  0  0  0  0  0
  1 10  1  0  0  0  0
  2 12  1  6  0  0  0
  2  1  1  0  0  0  0
  2  7  1  0  0  0  0
  2  3  1  0  0  0  0
  3  4  1  0  0  0  0
  4 15  1  0  0  0  0
  4  5  1  0  0  0  0
  4 16  1  0  0  0  0
  5  9  1  0  0  0  0
  6  5  2  0  0  0  0
  7  8  2  0  0  0  0
  7 18  1  0  0  0  0
  9 17  1  0  0  0  0
 11  1  1  0  0  0  0
 13  3  1  0  0  0  0
 14  3  1  0  0  0  0
 18 19  1  0  0  0  0
 19 30  1  6  0  0  0
 19 20  1  0  0  0  0
 20 21  1  0  0  0  0
 20 31  1  0  0  0  0
 20 32  1  0  0  0  0
 21 26  2  0  0  0  0
 21 22  1  0  0  0  0
 22 23  2  0  0  0  0
 23 24  1  0  0  0  0
 23 34  1  0  0  0  0
 24 35  1  0  0  0  0
 25 24  2  0  0  0  0
 26 25  1  0  0  0  0
 27 46  1  0  0  0  0
 27 19  1  0  0  0  0
 28 27  2  0  0  0  0
 29 18  1  0  0  0  0
 33 22  1  0  0  0  0
 36 25  1  0  0  0  0
 37 26  1  0  0  0  0
 38 50  1  0  0  0  0
 39 38  1  0  0  0  0
 39 41  1  0  0  0  0
 40 39  2  0  0  0  0
 41 42  1  0  0  0  0
 41 53  1  0  0  0  0
 42 43  1  0  0  0  0
 43 56  1  0  0  0  0
 43 44  1  0  0  0  0
 44 45  1  0  0  0  0
 44 58  1  0  0  0  0
 45 60  1  6  0  0  0
 45 46  1  0  0  0  0
 45 47  1  0  0  0  0
 46 61  1  0  0  0  0
 47 49  1  0  0  0  0
 48 47  2  0  0  0  0
 51 38  1  0  0  0  0
 52 40  1  0  0  0  0
 54 42  1  0  0  0  0
 55 42  1  0  0  0  0
 57 43  1  0  0  0  0
 59 44  1  0  0  0  0
M  END
$$$$
