EFT.pdb
 OpenBabel07022418203D

 52 52  0  0  1  0  0  0  0  0999 V2000
    2.1500   -2.7490   -1.2390 N   0  0  0  0  0  0  0  0  0  0  0  0
    2.3420   -3.0810    0.1520 C   0  0  1  0  0  0  0  0  0  0  0  0
    3.8180   -3.1130    0.4410 C   0  0  0  0  0  0  0  0  0  0  0  0
    4.3940   -1.7490    0.1450 C   0  0  0  0  0  0  0  0  0  0  0  0
    5.8520   -1.7120    0.4260 C   0  0  0  0  0  0  0  0  0  0  0  0
    6.4130   -2.7410    0.8480 O   0  0  0  0  0  0  0  0  0  0  0  0
    1.6000   -2.1920    1.0610 C   0  0  0  0  0  0  0  0  0  0  0  0
    1.6910   -2.2560    2.3190 O   0  0  0  0  0  0  0  0  0  0  0  0
    6.5380   -0.5400    0.2100 O   0  0  0  0  0  0  0  0  0  0  0  0
    2.2870   -1.7240   -1.3490 H   0  0  0  0  0  0  0  0  0  0  0  0
    1.1820   -2.9590   -1.5760 H   0  0  0  0  0  0  0  0  0  0  0  0
    1.9030   -4.1320    0.2440 H   0  0  0  0  0  0  0  0  0  0  0  0
    3.9300   -3.3680    1.5180 H   0  0  0  0  0  0  0  0  0  0  0  0
    4.2700   -3.8960   -0.2050 H   0  0  0  0  0  0  0  0  0  0  0  0
    3.8220   -0.9870    0.6930 H   0  0  0  0  0  0  0  0  0  0  0  0
    4.2350   -1.5600   -0.9540 H   0  0  0  0  0  0  0  0  0  0  0  0
    7.5540   -0.5210    0.1690 H   0  0  0  0  0  0  0  0  0  0  0  0
    0.7410   -1.2130    0.5390 N   0  0  0  0  0  0  0  0  0  0  0  0
   -0.0140   -0.3070    1.4140 C   0  0  1  0  0  0  0  0  0  0  0  0
    0.2520    1.1190    1.0800 C   0  0  0  0  0  0  0  0  0  0  0  0
   -0.4820    2.0880    1.9210 C   0  0  0  0  0  0  0  0  0  0  0  0
    0.0360    2.4910    3.1560 C   0  0  0  0  0  0  0  0  0  0  0  0
   -0.6020    3.4020    3.9630 C   0  0  0  0  0  0  0  0  0  0  0  0
   -1.7970    3.9550    3.5650 C   0  0  0  0  0  0  0  0  0  0  0  0
   -2.3590    3.5900    2.3430 C   0  0  0  0  0  0  0  0  0  0  0  0
   -1.6860    2.6740    1.5680 C   0  0  0  0  0  0  0  0  0  0  0  0
   -1.4410   -0.6060    1.1830 C   0  0  0  0  0  0  0  0  0  0  0  0
   -2.2800    0.0140    1.8810 O   0  0  0  0  0  0  0  0  0  0  0  0
    0.6010   -1.0910   -0.4870 H   0  0  0  0  0  0  0  0  0  0  0  0
    0.2030   -0.5090    2.4750 H   0  0  0  0  0  0  0  0  0  0  0  0
    1.3230    1.4020    1.1310 H   0  0  0  0  0  0  0  0  0  0  0  0
   -0.0440    1.3630    0.0160 H   0  0  0  0  0  0  0  0  0  0  0  0
    0.9730    2.0670    3.4840 H   0  0  0  0  0  0  0  0  0  0  0  0
   -0.1900    3.7000    4.9070 H   0  0  0  0  0  0  0  0  0  0  0  0
   -2.3440    4.6770    4.1580 H   0  0  0  0  0  0  0  0  0  0  0  0
   -3.2980    4.0330    2.0460 H   0  0  0  0  0  0  0  0  0  0  0  0
   -2.1050    2.3840    0.6060 H   0  0  0  0  0  0  0  0  0  0  0  0
   -3.7470   -0.1730   -1.8310 C   0  0  0  0  0  0  0  0  0  0  0  0
   -3.7350   -1.6110   -1.4300 C   0  0  1  0  0  0  0  0  0  0  0  0
   -2.9920   -2.4080   -2.3200 O   0  0  0  0  0  0  0  0  0  0  0  0
   -3.2930   -1.8450   -0.0110 C   0  0  2  0  0  0  0  0  0  0  0  0
   -1.9190   -1.5420    0.2270 N   0  0  0  0  0  0  0  0  0  0  0  0
   -3.6010   -3.2830    0.3210 C   0  0  0  0  0  0  0  0  0  0  0  0
   -4.7610   -3.7450    0.1790 O   0  0  0  0  0  0  0  0  0  0  0  0
   -2.6280   -4.1510    0.7960 O   0  0  0  0  0  0  0  0  0  0  0  0
   -4.6770    0.1280   -2.3760 H   0  0  0  0  0  0  0  0  0  0  0  0
   -3.6900    0.5080   -0.9520 H   0  0  0  0  0  0  0  0  0  0  0  0
   -2.9130    0.0370   -2.5520 H   0  0  0  0  0  0  0  0  0  0  0  0
   -4.7840   -1.9950   -1.5060 H   0  0  0  0  0  0  0  0  0  0  0  0
   -3.3980   -2.4590   -3.1990 H   0  0  0  0  0  0  0  0  0  0  0  0
   -3.9290   -1.2430    0.6560 H   0  0  0  0  0  0  0  0  0  0  0  0
   -1.1940   -2.0390   -0.3350 H   0  0  0  0  0  0  0  0  0  0  0  0
  1  2  1  0  0  0  0
  2 12  1  1  0  0  0
  2  3  1  0  0  0  0
  2  7  1  0  0  0  0
  3 13  1  0  0  0  0
  4  5  1  0  0  0  0
  4  3  1  0  0  0  0
  4 15  1  0  0  0  0
  5  6  2  0  0  0  0
  7  8  2  0  0  0  0
  9  5  1  0  0  0  0
 10  1  1  0  0  0  0
 11  1  1  0  0  0  0
 14  3  1  0  0  0  0
 16  4  1  0  0  0  0
 17  9  1  0  0  0  0
 18  7  1  0  0  0  0
 18 19  1  0  0  0  0
 19 30  1  1  0  0  0
 20 31  1  0  0  0  0
 20 19  1  0  0  0  0
 20 21  1  0  0  0  0
 21 22  1  0  0  0  0
 22 33  1  0  0  0  0
 22 23  2  0  0  0  0
 23 34  1  0  0  0  0
 24 23  1  0  0  0  0
 24 35  1  0  0  0  0
 25 24  2  0  0  0  0
 26 21  2  0  0  0  0
 26 25  1  0  0  0  0
 27 19  1  0  0  0  0
 27 28  2  0  0  0  0
 29 18  1  0  0  0  0
 32 20  1  0  0  0  0
 36 25  1  0  0  0  0
 37 26  1  0  0  0  0
 38 39  1  0  0  0  0
 38 47  1  0  0  0  0
 39 49  1  6  0  0  0
 39 41  1  0  0  0  0
 40 39  1  0  0  0  0
 41 42  1  0  0  0  0
 41 43  1  0  0  0  0
 41 51  1  1  0  0  0
 42 27  1  0  0  0  0
 43 45  1  0  0  0  0
 44 43  2  0  0  0  0
 46 38  1  0  0  0  0
 48 38  1  0  0  0  0
 50 40  1  0  0  0  0
 52 42  1  0  0  0  0
M  END
$$$$
