EFW.pdb
 OpenBabel07022418203D

 62 64  0  0  1  0  0  0  0  0999 V2000
    0.1130   -1.6880    3.3780 N   0  0  0  0  0  0  0  0  0  0  0  0
   -0.1350   -0.3740    4.0020 C   0  0  1  0  0  0  0  0  0  0  0  0
    0.9350   -0.1810    5.0140 C   0  0  0  0  0  0  0  0  0  0  0  0
    0.8910    1.0940    5.7850 C   0  0  0  0  0  0  0  0  0  0  0  0
   -0.3210    1.3050    6.5720 C   0  0  0  0  0  0  0  0  0  0  0  0
   -1.2480    0.4660    6.5970 O   0  0  0  0  0  0  0  0  0  0  0  0
   -0.1570    0.6470    2.9390 C   0  0  0  0  0  0  0  0  0  0  0  0
   -0.3770    1.8410    3.2580 O   0  0  0  0  0  0  0  0  0  0  0  0
   -0.4600    2.4620    7.3170 O   0  0  0  0  0  0  0  0  0  0  0  0
    1.0730   -1.6350    2.9480 H   0  0  0  0  0  0  0  0  0  0  0  0
    0.1940   -2.4220    4.1360 H   0  0  0  0  0  0  0  0  0  0  0  0
   -1.1080   -0.4620    4.4780 H   0  0  0  0  0  0  0  0  0  0  0  0
    0.8210   -1.0190    5.7650 H   0  0  0  0  0  0  0  0  0  0  0  0
    1.9640   -0.3660    4.5870 H   0  0  0  0  0  0  0  0  0  0  0  0
    1.7600    1.1710    6.5020 H   0  0  0  0  0  0  0  0  0  0  0  0
    1.0940    1.9400    5.0630 H   0  0  0  0  0  0  0  0  0  0  0  0
   -1.1360    2.5220    8.0960 H   0  0  0  0  0  0  0  0  0  0  0  0
    0.0630    0.3230    1.5750 N   0  0  0  0  0  0  0  0  0  0  0  0
    0.0330    1.3540    0.5700 C   0  0  1  0  0  0  0  0  0  0  0  0
    1.3360    1.6130   -0.1060 C   0  0  0  0  0  0  0  0  0  0  0  0
    1.9460    0.4960   -0.8150 C   0  0  0  0  0  0  0  0  0  0  0  0
    1.6790    0.2900   -2.1480 C   0  0  0  0  0  0  0  0  0  0  0  0
    2.2720   -0.7730   -2.8370 C   0  0  0  0  0  0  0  0  0  0  0  0
    3.1240   -1.6330   -2.2240 C   0  0  0  0  0  0  0  0  0  0  0  0
    3.4070   -1.4450   -0.8840 C   0  0  0  0  0  0  0  0  0  0  0  0
    2.8190   -0.4010   -0.2230 C   0  0  0  0  0  0  0  0  0  0  0  0
   -1.0370    1.1630   -0.4480 C   0  0  0  0  0  0  0  0  0  0  0  0
   -1.1150    1.9540   -1.4230 O   0  0  0  0  0  0  0  0  0  0  0  0
    0.2510   -0.6900    1.2950 H   0  0  0  0  0  0  0  0  0  0  0  0
   -0.1970    2.3420    1.1170 H   0  0  0  0  0  0  0  0  0  0  0  0
    1.1250    2.4140   -0.8790 H   0  0  0  0  0  0  0  0  0  0  0  0
    2.0740    2.1170    0.5740 H   0  0  0  0  0  0  0  0  0  0  0  0
    1.0260    0.9030   -2.7400 H   0  0  0  0  0  0  0  0  0  0  0  0
    2.0560   -0.9300   -3.8910 H   0  0  0  0  0  0  0  0  0  0  0  0
    3.5770   -2.4570   -2.7780 H   0  0  0  0  0  0  0  0  0  0  0  0
    4.0900   -2.1220   -0.3630 H   0  0  0  0  0  0  0  0  0  0  0  0
    3.0380   -0.2540    0.8140 H   0  0  0  0  0  0  0  0  0  0  0  0
   -2.0060    0.0890   -0.3550 N   0  0  0  0  0  0  0  0  0  0  0  0
   -2.9850    0.0090   -1.3860 C   0  0  1  0  0  0  0  0  0  0  0  0
   -3.2750   -1.3120   -1.9820 C   0  0  0  0  0  0  0  0  0  0  0  0
   -2.1470   -2.0060   -2.6260 C   0  0  0  0  0  0  0  0  0  0  0  0
   -1.8040   -2.0300   -3.9700 C   0  0  0  0  0  0  0  0  0  0  0  0
   -0.6950   -2.7580   -4.1580 N   0  0  0  0  0  0  0  0  0  0  0  0
   -0.2740   -3.2360   -2.9560 C   0  0  0  0  0  0  0  0  0  0  0  0
    0.7860   -4.0330   -2.5740 C   0  0  0  0  0  0  0  0  0  0  0  0
    0.9490   -4.3660   -1.2460 C   0  0  0  0  0  0  0  0  0  0  0  0
    0.0770   -3.9260   -0.2690 C   0  0  0  0  0  0  0  0  0  0  0  0
   -0.9630   -3.1360   -0.6870 C   0  0  0  0  0  0  0  0  0  0  0  0
   -1.1720   -2.7730   -1.9970 C   0  0  0  0  0  0  0  0  0  0  0  0
   -4.2790    0.5470   -0.8270 C   0  0  0  0  0  0  0  0  0  0  0  0
   -4.2760    0.9380    0.3560 O   0  0  0  0  0  0  0  0  0  0  0  0
   -5.4250    0.6030   -1.6040 O   0  0  0  0  0  0  0  0  0  0  0  0
   -1.9100   -0.5250    0.4600 H   0  0  0  0  0  0  0  0  0  0  0  0
   -2.7440    0.7190   -2.2440 H   0  0  0  0  0  0  0  0  0  0  0  0
   -4.0280   -1.1280   -2.8120 H   0  0  0  0  0  0  0  0  0  0  0  0
   -3.8250   -2.0030   -1.2990 H   0  0  0  0  0  0  0  0  0  0  0  0
   -2.3960   -1.5070   -4.7170 H   0  0  0  0  0  0  0  0  0  0  0  0
   -0.2020   -2.9520   -5.0670 H   0  0  0  0  0  0  0  0  0  0  0  0
    1.4550   -4.3660   -3.3530 H   0  0  0  0  0  0  0  0  0  0  0  0
    1.7940   -4.9990   -0.9550 H   0  0  0  0  0  0  0  0  0  0  0  0
    0.2300   -4.2060    0.7800 H   0  0  0  0  0  0  0  0  0  0  0  0
   -1.6560   -2.7970    0.0600 H   0  0  0  0  0  0  0  0  0  0  0  0
  1  2  1  0  0  0  0
  1 11  1  0  0  0  0
  2 12  1  1  0  0  0
  2  3  1  0  0  0  0
  3 13  1  0  0  0  0
  3  4  1  0  0  0  0
  4 15  1  0  0  0  0
  4  5  1  0  0  0  0
  5  6  2  0  0  0  0
  5  9  1  0  0  0  0
  7  8  2  0  0  0  0
  7  2  1  0  0  0  0
  9 17  1  0  0  0  0
 10  1  1  0  0  0  0
 14  3  1  0  0  0  0
 16  4  1  0  0  0  0
 18  7  1  0  0  0  0
 19 30  1  1  0  0  0
 19 18  1  0  0  0  0
 20 19  1  0  0  0  0
 20 32  1  0  0  0  0
 21 26  1  0  0  0  0
 21 20  1  0  0  0  0
 22 21  2  0  0  0  0
 23 24  2  0  0  0  0
 23 22  1  0  0  0  0
 24 25  1  0  0  0  0
 25 36  1  0  0  0  0
 25 26  2  0  0  0  0
 26 37  1  0  0  0  0
 27 38  1  0  0  0  0
 27 19  1  0  0  0  0
 28 27  2  0  0  0  0
 29 18  1  0  0  0  0
 31 20  1  0  0  0  0
 33 22  1  0  0  0  0
 34 23  1  0  0  0  0
 35 24  1  0  0  0  0
 38 53  1  0  0  0  0
 39 54  1  6  0  0  0
 39 50  1  0  0  0  0
 39 38  1  0  0  0  0
 40 39  1  0  0  0  0
 40 56  1  0  0  0  0
 41 49  1  0  0  0  0
 41 40  1  0  0  0  0
 42 41  2  0  0  0  0
 43 42  1  0  0  0  0
 43 44  1  0  0  0  0
 44 45  2  0  0  0  0
 44 49  1  0  0  0  0
 45 46  1  0  0  0  0
 46 60  1  0  0  0  0
 46 47  2  0  0  0  0
 47 61  1  0  0  0  0
 48 47  1  0  0  0  0
 48 62  1  0  0  0  0
 49 48  2  0  0  0  0
 50 51  1  0  0  0  0
 52 50  2  0  0  0  0
 55 40  1  0  0  0  0
 57 42  1  0  0  0  0
 58 43  1  0  0  0  0
 59 45  1  0  0  0  0
M  END
$$$$
