EFY.pdb
 OpenBabel07022418203D

 59 60  0  0  1  0  0  0  0  0999 V2000
    3.6000   -0.4600    0.8240 N   0  0  0  0  0  0  0  0  0  0  0  0
    2.7560   -0.6180    1.9970 C   0  0  1  0  0  0  0  0  0  0  0  0
    2.9620    0.5150    2.9640 C   0  0  0  0  0  0  0  0  0  0  0  0
    4.3540    0.6520    3.4770 C   0  0  0  0  0  0  0  0  0  0  0  0
    4.8570   -0.5320    4.2110 C   0  0  0  0  0  0  0  0  0  0  0  0
    4.2180   -1.5810    4.4230 O   0  0  0  0  0  0  0  0  0  0  0  0
    1.3200   -0.5520    1.5640 C   0  0  0  0  0  0  0  0  0  0  0  0
    0.4220   -0.6670    2.4360 O   0  0  0  0  0  0  0  0  0  0  0  0
    6.1570   -0.4800    4.7150 O   0  0  0  0  0  0  0  0  0  0  0  0
    3.8390    0.5130    0.6120 H   0  0  0  0  0  0  0  0  0  0  0  0
    4.4680   -0.9980    0.9610 H   0  0  0  0  0  0  0  0  0  0  0  0
    2.9960   -1.5950    2.4440 H   0  0  0  0  0  0  0  0  0  0  0  0
    2.6510    1.4890    2.5550 H   0  0  0  0  0  0  0  0  0  0  0  0
    2.2990    0.3240    3.8340 H   0  0  0  0  0  0  0  0  0  0  0  0
    5.0830    0.9720    2.7040 H   0  0  0  0  0  0  0  0  0  0  0  0
    4.3370    1.4900    4.2240 H   0  0  0  0  0  0  0  0  0  0  0  0
    6.6410   -1.3400    4.9240 H   0  0  0  0  0  0  0  0  0  0  0  0
    0.9210   -0.3660    0.2260 N   0  0  0  0  0  0  0  0  0  0  0  0
   -0.4290   -0.2960   -0.2400 C   0  0  1  0  0  0  0  0  0  0  0  0
   -0.6630    1.1100   -0.7910 C   0  0  0  0  0  0  0  0  0  0  0  0
   -0.4480    2.1360    0.2580 C   0  0  0  0  0  0  0  0  0  0  0  0
   -1.4400    2.5980    1.0950 C   0  0  0  0  0  0  0  0  0  0  0  0
   -1.2040    3.5570    2.0630 C   0  0  0  0  0  0  0  0  0  0  0  0
    0.0460    4.0730    2.2080 C   0  0  0  0  0  0  0  0  0  0  0  0
    1.0690    3.6400    1.3920 C   0  0  0  0  0  0  0  0  0  0  0  0
    0.8130    2.6820    0.4320 C   0  0  0  0  0  0  0  0  0  0  0  0
   -0.7080   -1.2390   -1.3520 C   0  0  0  0  0  0  0  0  0  0  0  0
    0.2110   -1.9890   -1.7780 O   0  0  0  0  0  0  0  0  0  0  0  0
    1.6980   -0.2720   -0.4920 H   0  0  0  0  0  0  0  0  0  0  0  0
   -1.1160   -0.4080    0.6100 H   0  0  0  0  0  0  0  0  0  0  0  0
   -1.6980    1.2250   -1.1810 H   0  0  0  0  0  0  0  0  0  0  0  0
    0.0080    1.2930   -1.6770 H   0  0  0  0  0  0  0  0  0  0  0  0
   -2.4230    2.1940    0.9830 H   0  0  0  0  0  0  0  0  0  0  0  0
   -2.0460    3.8650    2.6820 H   0  0  0  0  0  0  0  0  0  0  0  0
    0.2370    4.8260    2.9660 H   0  0  0  0  0  0  0  0  0  0  0  0
    2.0600    4.0520    1.5100 H   0  0  0  0  0  0  0  0  0  0  0  0
    1.6210    2.3460   -0.2060 H   0  0  0  0  0  0  0  0  0  0  0  0
   -2.2160   -6.0090    2.1470 O   0  0  0  0  0  0  0  0  0  0  0  0
   -2.5040   -5.3110    0.9580 C   0  0  0  0  0  0  0  0  0  0  0  0
   -2.2320   -5.8680   -0.2760 C   0  0  0  0  0  0  0  0  0  0  0  0
   -2.5290   -5.1520   -1.4420 C   0  0  0  0  0  0  0  0  0  0  0  0
   -3.0890   -3.8950   -1.3800 C   0  0  0  0  0  0  0  0  0  0  0  0
   -3.3940   -3.1570   -2.6010 C   0  0  0  0  0  0  0  0  0  0  0  0
   -2.2360   -2.2860   -3.0740 C   0  0  2  0  0  0  0  0  0  0  0  0
   -1.9780   -1.3460   -1.9740 N   0  0  0  0  0  0  0  0  0  0  0  0
   -2.7430   -1.5070   -4.2350 C   0  0  0  0  0  0  0  0  0  0  0  0
   -3.0360   -2.1020   -5.3040 O   0  0  0  0  0  0  0  0  0  0  0  0
   -3.3640   -3.3300   -0.1550 C   0  0  0  0  0  0  0  0  0  0  0  0
   -3.0630   -4.0550    0.9920 C   0  0  0  0  0  0  0  0  0  0  0  0
   -2.9170   -0.1310   -4.2090 O   0  0  0  0  0  0  0  0  0  0  0  0
   -1.9810   -5.4620    2.9630 H   0  0  0  0  0  0  0  0  0  0  0  0
   -1.7920   -6.8560   -0.3170 H   0  0  0  0  0  0  0  0  0  0  0  0
   -2.2870   -5.6550   -2.3690 H   0  0  0  0  0  0  0  0  0  0  0  0
   -4.2700   -2.4630   -2.4850 H   0  0  0  0  0  0  0  0  0  0  0  0
   -3.6460   -3.8140   -3.4720 H   0  0  0  0  0  0  0  0  0  0  0  0
   -1.3480   -2.8620   -3.3290 H   0  0  0  0  0  0  0  0  0  0  0  0
   -2.7280   -0.7330   -1.6250 H   0  0  0  0  0  0  0  0  0  0  0  0
   -3.8090   -2.3340   -0.0510 H   0  0  0  0  0  0  0  0  0  0  0  0
   -3.2790   -3.6110    1.9540 H   0  0  0  0  0  0  0  0  0  0  0  0
  1 11  1  0  0  0  0
  1  2  1  0  0  0  0
  2 12  1  1  0  0  0
  2  3  1  0  0  0  0
  3  4  1  0  0  0  0
  3 14  1  0  0  0  0
  4  5  1  0  0  0  0
  4 16  1  0  0  0  0
  5  6  2  0  0  0  0
  5  9  1  0  0  0  0
  7  2  1  0  0  0  0
  7  8  2  0  0  0  0
  9 17  1  0  0  0  0
 10  1  1  0  0  0  0
 13  3  1  0  0  0  0
 15  4  1  0  0  0  0
 18  7  1  0  0  0  0
 19 18  1  0  0  0  0
 19 30  1  1  0  0  0
 20 19  1  0  0  0  0
 20 21  1  0  0  0  0
 21 26  2  0  0  0  0
 21 22  1  0  0  0  0
 22 23  2  0  0  0  0
 23 24  1  0  0  0  0
 23 34  1  0  0  0  0
 24 35  1  0  0  0  0
 25 36  1  0  0  0  0
 25 24  2  0  0  0  0
 26 25  1  0  0  0  0
 27 19  1  0  0  0  0
 28 27  2  0  0  0  0
 29 18  1  0  0  0  0
 31 20  1  0  0  0  0
 32 20  1  0  0  0  0
 33 22  1  0  0  0  0
 37 26  1  0  0  0  0
 38 51  1  0  0  0  0
 39 49  1  0  0  0  0
 39 38  1  0  0  0  0
 40 39  2  0  0  0  0
 41 42  2  0  0  0  0
 41 40  1  0  0  0  0
 42 48  1  0  0  0  0
 43 54  1  0  0  0  0
 43 42  1  0  0  0  0
 44 56  1  6  0  0  0
 44 43  1  0  0  0  0
 44 45  1  0  0  0  0
 45 57  1  0  0  0  0
 45 27  1  0  0  0  0
 46 50  1  0  0  0  0
 46 44  1  0  0  0  0
 47 46  2  0  0  0  0
 48 58  1  0  0  0  0
 48 49  2  0  0  0  0
 49 59  1  0  0  0  0
 52 40  1  0  0  0  0
 53 41  1  0  0  0  0
 55 43  1  0  0  0  0
M  END
$$$$
