EGD.pdb
 OpenBabel07022418183D

 38 37  0  0  1  0  0  0  0  0999 V2000
   -1.4750   -2.5110   -1.0000 N   0  0  0  0  0  0  0  0  0  0  0  0
   -0.1650   -2.7180   -0.3730 C   0  0  1  0  0  0  0  0  0  0  0  0
    0.5150   -3.7740   -1.1820 C   0  0  0  0  0  0  0  0  0  0  0  0
    1.8810   -4.1640   -0.7810 C   0  0  0  0  0  0  0  0  0  0  0  0
    2.9330   -3.1570   -0.8910 C   0  0  0  0  0  0  0  0  0  0  0  0
    3.8980   -3.1900   -0.0670 O   0  0  0  0  0  0  0  0  0  0  0  0
    0.6080   -1.5010   -0.2630 C   0  0  0  0  0  0  0  0  0  0  0  0
    1.4970   -1.4380    0.6570 O   0  0  0  0  0  0  0  0  0  0  0  0
    2.9440   -2.1470   -1.8630 O   0  0  0  0  0  0  0  0  0  0  0  0
   -2.1090   -3.2970   -0.8060 H   0  0  0  0  0  0  0  0  0  0  0  0
   -1.4060   -2.2130   -1.9760 H   0  0  0  0  0  0  0  0  0  0  0  0
   -0.3960   -3.1900    0.6260 H   0  0  0  0  0  0  0  0  0  0  0  0
   -0.1080   -4.7290   -1.1540 H   0  0  0  0  0  0  0  0  0  0  0  0
    0.5400   -3.4670   -2.2730 H   0  0  0  0  0  0  0  0  0  0  0  0
    2.2290   -5.0650   -1.3700 H   0  0  0  0  0  0  0  0  0  0  0  0
    1.8180   -4.4810    0.3050 H   0  0  0  0  0  0  0  0  0  0  0  0
    3.7550   -1.5470   -1.8870 H   0  0  0  0  0  0  0  0  0  0  0  0
    0.4750   -0.3500   -1.0880 N   0  0  0  0  0  0  0  0  0  0  0  0
    1.2520    0.8410   -0.9330 C   0  0  0  0  0  0  0  0  0  0  0  0
    0.9560    1.4680    0.3780 C   0  0  0  0  0  0  0  0  0  0  0  0
    1.5860    2.5270    0.7470 O   0  0  0  0  0  0  0  0  0  0  0  0
   -0.2540   -0.4290   -1.8450 H   0  0  0  0  0  0  0  0  0  0  0  0
    0.9020    1.5900   -1.7010 H   0  0  0  0  0  0  0  0  0  0  0  0
    2.3420    0.6700   -1.0590 H   0  0  0  0  0  0  0  0  0  0  0  0
   -0.0050    0.9950    1.3060 N   0  0  0  0  0  0  0  0  0  0  0  0
   -0.2000    1.7110    2.5720 C   0  0  1  0  0  0  0  0  0  0  0  0
   -1.6070    2.2610    2.6360 C   0  0  0  0  0  0  0  0  0  0  0  0
   -1.9020    3.0210    3.8590 C   0  0  0  0  0  0  0  0  0  0  0  0
   -1.1060    3.2850    4.7730 O   0  0  0  0  0  0  0  0  0  0  0  0
    0.0930    0.7240    3.6350 C   0  0  0  0  0  0  0  0  0  0  0  0
    0.4180   -0.4900    3.3820 O   0  0  0  0  0  0  0  0  0  0  0  0
   -3.2080    3.4940    4.0060 O   0  0  0  0  0  0  0  0  0  0  0  0
    0.0450    1.0190    4.9830 O   0  0  0  0  0  0  0  0  0  0  0  0
   -0.5840    0.1570    1.1020 H   0  0  0  0  0  0  0  0  0  0  0  0
    0.4930    2.5570    2.6920 H   0  0  0  0  0  0  0  0  0  0  0  0
   -1.8080    2.9500    1.7770 H   0  0  0  0  0  0  0  0  0  0  0  0
   -2.3450    1.4190    2.4790 H   0  0  0  0  0  0  0  0  0  0  0  0
   -3.5040    4.1390    4.6990 H   0  0  0  0  0  0  0  0  0  0  0  0
  1 10  1  0  0  0  0
  1  2  1  0  0  0  0
  2  7  1  0  0  0  0
  2 12  1  1  0  0  0
  3 13  1  0  0  0  0
  3  4  1  0  0  0  0
  3  2  1  0  0  0  0
  4 16  1  0  0  0  0
  5  4  1  0  0  0  0
  5  6  2  0  0  0  0
  7  8  2  0  0  0  0
  9  5  1  0  0  0  0
 11  1  1  0  0  0  0
 14  3  1  0  0  0  0
 15  4  1  0  0  0  0
 17  9  1  0  0  0  0
 18 19  1  0  0  0  0
 18  7  1  0  0  0  0
 19 20  1  0  0  0  0
 20 21  2  0  0  0  0
 20 25  1  0  0  0  0
 22 18  1  0  0  0  0
 23 19  1  0  0  0  0
 24 19  1  0  0  0  0
 25 26  1  0  0  0  0
 26 27  1  0  0  0  0
 26 35  1  1  0  0  0
 26 30  1  0  0  0  0
 27 28  1  0  0  0  0
 28 32  1  0  0  0  0
 28 29  2  0  0  0  0
 30 33  1  0  0  0  0
 31 30  2  0  0  0  0
 32 38  1  0  0  0  0
 34 25  1  0  0  0  0
 36 27  1  0  0  0  0
 37 27  1  0  0  0  0
M  END
$$$$
