EGF.pdb
 OpenBabel07022418183D

 45 45  0  0  1  0  0  0  0  0999 V2000
   -2.0190    2.3080   -2.0760 N   0  0  0  0  0  0  0  0  0  0  0  0
   -1.0620    3.3240   -1.6780 C   0  0  1  0  0  0  0  0  0  0  0  0
   -1.8640    4.4390   -1.0580 C   0  0  0  0  0  0  0  0  0  0  0  0
   -1.0520    5.5950   -0.5780 C   0  0  0  0  0  0  0  0  0  0  0  0
   -2.0020    6.5970   -0.0010 C   0  0  0  0  0  0  0  0  0  0  0  0
   -3.2410    6.4070    0.0270 O   0  0  0  0  0  0  0  0  0  0  0  0
   -0.0930    2.7040   -0.7470 C   0  0  0  0  0  0  0  0  0  0  0  0
    0.8740    3.3530   -0.2450 O   0  0  0  0  0  0  0  0  0  0  0  0
   -1.5450    7.8010    0.5350 O   0  0  0  0  0  0  0  0  0  0  0  0
   -2.5370    2.0150   -1.2180 H   0  0  0  0  0  0  0  0  0  0  0  0
   -2.6820    2.7010   -2.7780 H   0  0  0  0  0  0  0  0  0  0  0  0
   -0.4760    3.6810   -2.5620 H   0  0  0  0  0  0  0  0  0  0  0  0
   -2.5620    4.8020   -1.8390 H   0  0  0  0  0  0  0  0  0  0  0  0
   -2.4040    4.0010   -0.1900 H   0  0  0  0  0  0  0  0  0  0  0  0
   -0.5020    6.0790   -1.3960 H   0  0  0  0  0  0  0  0  0  0  0  0
   -0.3900    5.2430    0.2470 H   0  0  0  0  0  0  0  0  0  0  0  0
   -2.1550    8.4450    1.0380 H   0  0  0  0  0  0  0  0  0  0  0  0
   -0.2320    1.3490   -0.3920 N   0  0  0  0  0  0  0  0  0  0  0  0
    0.7040    0.7520    0.5080 C   0  0  0  0  0  0  0  0  0  0  0  0
    0.3800   -0.6980    0.7560 C   0  0  0  0  0  0  0  0  0  0  0  0
   -0.6100   -1.2470    0.2040 O   0  0  0  0  0  0  0  0  0  0  0  0
   -1.0130    0.7340   -0.7660 H   0  0  0  0  0  0  0  0  0  0  0  0
    0.7960    1.2530    1.4750 H   0  0  0  0  0  0  0  0  0  0  0  0
    1.7240    0.7290    0.0280 H   0  0  0  0  0  0  0  0  0  0  0  0
    1.1760   -1.4930    1.6180 N   0  0  0  0  0  0  0  0  0  0  0  0
    0.9110   -2.8940    1.8940 C   0  0  1  0  0  0  0  0  0  0  0  0
    2.0900   -3.6990    1.3680 C   0  0  0  0  0  0  0  0  0  0  0  0
    1.9440   -5.1510    1.5910 C   0  0  0  0  0  0  0  0  0  0  0  0
    1.2960   -5.9300    0.6370 C   0  0  0  0  0  0  0  0  0  0  0  0
    1.1360   -7.2920    0.7890 C   0  0  0  0  0  0  0  0  0  0  0  0
    1.6220   -7.9260    1.9090 C   0  0  0  0  0  0  0  0  0  0  0  0
    2.2680   -7.1900    2.8730 C   0  0  0  0  0  0  0  0  0  0  0  0
    2.4150   -5.8230    2.6960 C   0  0  0  0  0  0  0  0  0  0  0  0
    0.6690   -3.1150    3.3380 C   0  0  0  0  0  0  0  0  0  0  0  0
    0.4040   -4.2620    3.7510 O   0  0  0  0  0  0  0  0  0  0  0  0
    0.7310   -2.0640    4.2520 O   0  0  0  0  0  0  0  0  0  0  0  0
    1.9950   -1.0380    2.0750 H   0  0  0  0  0  0  0  0  0  0  0  0
    0.0220   -3.2650    1.3570 H   0  0  0  0  0  0  0  0  0  0  0  0
    3.0190   -3.3650    1.9180 H   0  0  0  0  0  0  0  0  0  0  0  0
    2.2930   -3.4970    0.3150 H   0  0  0  0  0  0  0  0  0  0  0  0
    0.9000   -5.4770   -0.2550 H   0  0  0  0  0  0  0  0  0  0  0  0
    0.6290   -7.8500    0.0250 H   0  0  0  0  0  0  0  0  0  0  0  0
    1.5150   -8.9900    2.0620 H   0  0  0  0  0  0  0  0  0  0  0  0
    2.6540   -7.6980    3.7650 H   0  0  0  0  0  0  0  0  0  0  0  0
    2.9310   -5.2640    3.4690 H   0  0  0  0  0  0  0  0  0  0  0  0
  1  2  1  0  0  0  0
  1 10  1  0  0  0  0
  2 12  1  6  0  0  0
  2  3  1  0  0  0  0
  2  7  1  0  0  0  0
  3  4  1  0  0  0  0
  3 14  1  0  0  0  0
  4  5  1  0  0  0  0
  4 16  1  0  0  0  0
  5  6  2  0  0  0  0
  5  9  1  0  0  0  0
  7 18  1  0  0  0  0
  7  8  2  0  0  0  0
  9 17  1  0  0  0  0
 11  1  1  0  0  0  0
 13  3  1  0  0  0  0
 15  4  1  0  0  0  0
 18 19  1  0  0  0  0
 19 20  1  0  0  0  0
 19 23  1  0  0  0  0
 20 25  1  0  0  0  0
 21 20  2  0  0  0  0
 22 18  1  0  0  0  0
 24 19  1  0  0  0  0
 25 26  1  0  0  0  0
 25 37  1  0  0  0  0
 26 38  1  6  0  0  0
 26 34  1  0  0  0  0
 27 28  1  0  0  0  0
 27 26  1  0  0  0  0
 27 39  1  0  0  0  0
 28 33  1  0  0  0  0
 29 30  1  0  0  0  0
 29 28  2  0  0  0  0
 30 31  2  0  0  0  0
 31 43  1  0  0  0  0
 31 32  1  0  0  0  0
 32 44  1  0  0  0  0
 33 32  2  0  0  0  0
 33 45  1  0  0  0  0
 34 35  2  0  0  0  0
 34 36  1  0  0  0  0
 40 27  1  0  0  0  0
 41 29  1  0  0  0  0
 42 30  1  0  0  0  0
M  END
$$$$
