EGG.pdb
 OpenBabel07022418183D

 32 31  0  0  1  0  0  0  0  0999 V2000
   -0.8570   -2.2040    2.5320 N   0  0  0  0  0  0  0  0  0  0  0  0
    0.5650   -2.3300    2.5550 C   0  0  1  0  0  0  0  0  0  0  0  0
    1.0830   -3.6430    2.0590 C   0  0  0  0  0  0  0  0  0  0  0  0
    0.7790   -4.0180    0.6670 C   0  0  0  0  0  0  0  0  0  0  0  0
   -0.6080   -4.1970    0.2660 C   0  0  0  0  0  0  0  0  0  0  0  0
   -1.6120   -4.1260    0.9790 O   0  0  0  0  0  0  0  0  0  0  0  0
    1.2610   -1.1840    1.9120 C   0  0  0  0  0  0  0  0  0  0  0  0
    2.5350   -1.1560    1.9330 O   0  0  0  0  0  0  0  0  0  0  0  0
   -0.8830   -4.4890   -1.0990 O   0  0  0  0  0  0  0  0  0  0  0  0
   -1.3220   -2.7610    3.3010 H   0  0  0  0  0  0  0  0  0  0  0  0
   -1.1740   -1.2000    2.6870 H   0  0  0  0  0  0  0  0  0  0  0  0
    0.8530   -2.2790    3.6510 H   0  0  0  0  0  0  0  0  0  0  0  0
    0.7360   -4.4570    2.7740 H   0  0  0  0  0  0  0  0  0  0  0  0
    2.2110   -3.6850    2.1840 H   0  0  0  0  0  0  0  0  0  0  0  0
    1.3260   -3.3060   -0.0160 H   0  0  0  0  0  0  0  0  0  0  0  0
    1.2910   -5.0120    0.4550 H   0  0  0  0  0  0  0  0  0  0  0  0
   -1.7910   -4.3170   -1.4870 H   0  0  0  0  0  0  0  0  0  0  0  0
    0.6150   -0.1020    1.2670 N   0  0  0  0  0  0  0  0  0  0  0  0
    1.3810    0.9510    0.6810 C   0  0  0  0  0  0  0  0  0  0  0  0
    0.5960    2.0210    0.0390 C   0  0  0  0  0  0  0  0  0  0  0  0
    1.2170    3.0110   -0.5150 O   0  0  0  0  0  0  0  0  0  0  0  0
   -0.4070   -0.0900    1.2250 H   0  0  0  0  0  0  0  0  0  0  0  0
    2.0190    1.4510    1.4780 H   0  0  0  0  0  0  0  0  0  0  0  0
    2.1130    0.5150   -0.0470 H   0  0  0  0  0  0  0  0  0  0  0  0
   -0.8170    2.0820   -0.0390 N   0  0  0  0  0  0  0  0  0  0  0  0
   -1.4840    3.2140   -0.7160 C   0  0  0  0  0  0  0  0  0  0  0  0
   -1.0450    3.2440   -2.1410 C   0  0  0  0  0  0  0  0  0  0  0  0
   -0.2400    2.3960   -2.6010 O   0  0  0  0  0  0  0  0  0  0  0  0
   -1.5010    4.2060   -3.0300 O   0  0  0  0  0  0  0  0  0  0  0  0
   -1.3840    1.3200    0.3850 H   0  0  0  0  0  0  0  0  0  0  0  0
   -1.2060    4.1730   -0.2340 H   0  0  0  0  0  0  0  0  0  0  0  0
   -2.5660    3.0180   -0.6680 H   0  0  0  0  0  0  0  0  0  0  0  0
  1  2  1  0  0  0  0
  1 11  1  0  0  0  0
  1 10  1  0  0  0  0
  2 12  1  1  0  0  0
  3 14  1  0  0  0  0
  3  2  1  0  0  0  0
  3 13  1  0  0  0  0
  4  3  1  0  0  0  0
  5  4  1  0  0  0  0
  5  6  2  0  0  0  0
  7  8  2  0  0  0  0
  7  2  1  0  0  0  0
  9  5  1  0  0  0  0
 15  4  1  0  0  0  0
 16  4  1  0  0  0  0
 17  9  1  0  0  0  0
 18  7  1  0  0  0  0
 19 18  1  0  0  0  0
 19 23  1  0  0  0  0
 20 19  1  0  0  0  0
 21 20  2  0  0  0  0
 22 18  1  0  0  0  0
 24 19  1  0  0  0  0
 25 20  1  0  0  0  0
 25 30  1  0  0  0  0
 26 32  1  0  0  0  0
 26 31  1  0  0  0  0
 26 25  1  0  0  0  0
 27 26  1  0  0  0  0
 28 27  1  0  0  0  0
 29 27  2  0  0  0  0
M  END
$$$$
