EGH.pdb
 OpenBabel07022418183D

 42 42  0  0  1  0  0  0  0  0999 V2000
   -1.3480   -3.3590   -1.9560 N   0  0  0  0  0  0  0  0  0  0  0  0
   -0.4260   -2.8040   -0.8730 C   0  0  1  0  0  0  0  0  0  0  0  0
    0.5800   -3.8050   -0.6010 C   0  0  0  0  0  0  0  0  0  0  0  0
    1.6230   -3.6380    0.4360 C   0  0  0  0  0  0  0  0  0  0  0  0
    2.6010   -2.5610    0.2860 C   0  0  0  0  0  0  0  0  0  0  0  0
    3.5680   -2.7070   -0.5560 O   0  0  0  0  0  0  0  0  0  0  0  0
   -0.2260   -1.4200   -1.1460 C   0  0  0  0  0  0  0  0  0  0  0  0
   -1.2230   -0.6340   -0.8460 O   0  0  0  0  0  0  0  0  0  0  0  0
    2.6210   -1.3620    0.9610 O   0  0  0  0  0  0  0  0  0  0  0  0
   -1.6200   -4.2810   -1.5530 H   0  0  0  0  0  0  0  0  0  0  0  0
   -2.1830   -2.7370   -1.8870 H   0  0  0  0  0  0  0  0  0  0  0  0
   -1.1650   -2.8620    0.0090 H   0  0  0  0  0  0  0  0  0  0  0  0
    1.1050   -4.2000   -1.5300 H   0  0  0  0  0  0  0  0  0  0  0  0
    0.0050   -4.7590   -0.2930 H   0  0  0  0  0  0  0  0  0  0  0  0
    2.2580   -4.5910    0.5230 H   0  0  0  0  0  0  0  0  0  0  0  0
    1.1640   -3.6190    1.4840 H   0  0  0  0  0  0  0  0  0  0  0  0
    3.3380   -0.6560    0.8200 H   0  0  0  0  0  0  0  0  0  0  0  0
    0.8780   -0.7660   -1.6970 N   0  0  0  0  0  0  0  0  0  0  0  0
    0.9830    0.6350   -1.9400 C   0  0  0  0  0  0  0  0  0  0  0  0
    0.8560    1.5590   -0.8350 C   0  0  0  0  0  0  0  0  0  0  0  0
    0.9540    2.8160   -1.1320 O   0  0  0  0  0  0  0  0  0  0  0  0
    1.6860   -1.3950   -1.9870 H   0  0  0  0  0  0  0  0  0  0  0  0
    0.2360    0.9340   -2.7480 H   0  0  0  0  0  0  0  0  0  0  0  0
    1.9710    0.8140   -2.4790 H   0  0  0  0  0  0  0  0  0  0  0  0
    0.6400    1.3090    0.5260 N   0  0  0  0  0  0  0  0  0  0  0  0
    0.5250    2.3700    1.5200 C   0  0  1  0  0  0  0  0  0  0  0  0
   -0.8180    2.3130    2.2190 C   0  0  0  0  0  0  0  0  0  0  0  0
   -1.0260    1.0270    2.9170 C   0  0  0  0  0  0  0  0  0  0  0  0
   -0.6980    0.7030    4.2130 C   0  0  0  0  0  0  0  0  0  0  0  0
   -1.0640   -0.5800    4.4470 N   0  0  0  0  0  0  0  0  0  0  0  0
   -1.6110   -1.0550    3.3210 C   0  0  0  0  0  0  0  0  0  0  0  0
   -1.5850   -0.0840    2.4070 N   0  0  0  0  0  0  0  0  0  0  0  0
    1.6030    2.2230    2.5260 C   0  0  0  0  0  0  0  0  0  0  0  0
    2.4630    1.3120    2.4980 O   0  0  0  0  0  0  0  0  0  0  0  0
    1.7090    3.1310    3.5900 O   0  0  0  0  0  0  0  0  0  0  0  0
    0.5580    0.3570    0.8640 H   0  0  0  0  0  0  0  0  0  0  0  0
    0.6440    3.3310    1.0060 H   0  0  0  0  0  0  0  0  0  0  0  0
   -0.8620    3.1800    2.9090 H   0  0  0  0  0  0  0  0  0  0  0  0
   -1.5850    2.4950    1.4330 H   0  0  0  0  0  0  0  0  0  0  0  0
   -0.2230    1.3440    4.9580 H   0  0  0  0  0  0  0  0  0  0  0  0
   -0.9230   -1.0770    5.3680 H   0  0  0  0  0  0  0  0  0  0  0  0
   -1.9980   -2.0510    3.2010 H   0  0  0  0  0  0  0  0  0  0  0  0
  1 11  1  0  0  0  0
  1 10  1  0  0  0  0
  1  2  1  0  0  0  0
  2  3  1  0  0  0  0
  2 12  1  1  0  0  0
  3 14  1  0  0  0  0
  3  4  1  0  0  0  0
  4 15  1  0  0  0  0
  4 16  1  0  0  0  0
  5  4  1  0  0  0  0
  5  9  1  0  0  0  0
  6  5  2  0  0  0  0
  7  2  1  0  0  0  0
  7  8  2  0  0  0  0
 13  3  1  0  0  0  0
 17  9  1  0  0  0  0
 18  7  1  0  0  0  0
 19 18  1  0  0  0  0
 19 20  1  0  0  0  0
 20 25  1  0  0  0  0
 21 20  2  0  0  0  0
 22 18  1  0  0  0  0
 23 19  1  0  0  0  0
 24 19  1  0  0  0  0
 25 36  1  0  0  0  0
 25 26  1  0  0  0  0
 26 37  1  6  0  0  0
 26 27  1  0  0  0  0
 26 33  1  0  0  0  0
 27 38  1  0  0  0  0
 27 28  1  0  0  0  0
 28 29  2  0  0  0  0
 29 30  1  0  0  0  0
 29 40  1  0  0  0  0
 30 41  1  0  0  0  0
 31 30  1  0  0  0  0
 32 28  1  0  0  0  0
 32 31  2  0  0  0  0
 33 35  1  0  0  0  0
 34 33  2  0  0  0  0
 39 27  1  0  0  0  0
 42 31  1  0  0  0  0
M  END
$$$$
