EGK.pdb
 OpenBabel07022418183D

 46 45  0  0  1  0  0  0  0  0999 V2000
   -1.5310   -4.5210   -2.2840 N   0  0  0  0  0  0  0  0  0  0  0  0
   -0.7980   -3.9600   -1.1890 C   0  0  1  0  0  0  0  0  0  0  0  0
    0.6640   -3.7710   -1.6050 C   0  0  0  0  0  0  0  0  0  0  0  0
    1.2670   -5.1170   -1.9840 C   0  0  0  0  0  0  0  0  0  0  0  0
    2.6680   -4.9940   -2.3910 C   0  0  0  0  0  0  0  0  0  0  0  0
    3.2880   -6.0250   -2.7290 O   0  0  0  0  0  0  0  0  0  0  0  0
   -1.3720   -2.6840   -0.7050 C   0  0  0  0  0  0  0  0  0  0  0  0
   -2.3950   -2.2210   -1.2590 O   0  0  0  0  0  0  0  0  0  0  0  0
    3.3660   -3.7930   -2.4280 O   0  0  0  0  0  0  0  0  0  0  0  0
   -1.7960   -5.5060   -2.1360 H   0  0  0  0  0  0  0  0  0  0  0  0
   -1.0880   -4.3460   -3.2140 H   0  0  0  0  0  0  0  0  0  0  0  0
   -0.7700   -4.7330   -0.3810 H   0  0  0  0  0  0  0  0  0  0  0  0
    0.7520   -3.1200   -2.4960 H   0  0  0  0  0  0  0  0  0  0  0  0
    1.2640   -3.3520   -0.7800 H   0  0  0  0  0  0  0  0  0  0  0  0
    1.2420   -5.7370   -1.0500 H   0  0  0  0  0  0  0  0  0  0  0  0
    0.6330   -5.6540   -2.7160 H   0  0  0  0  0  0  0  0  0  0  0  0
    4.0500   -3.6690   -3.1610 H   0  0  0  0  0  0  0  0  0  0  0  0
   -0.7730   -1.9980    0.3690 N   0  0  0  0  0  0  0  0  0  0  0  0
   -1.2640   -0.7510    0.9050 C   0  0  0  0  0  0  0  0  0  0  0  0
   -0.3900   -0.3270    2.0210 C   0  0  0  0  0  0  0  0  0  0  0  0
    0.5870   -1.0370    2.3420 O   0  0  0  0  0  0  0  0  0  0  0  0
    0.0850   -2.4440    0.7890 H   0  0  0  0  0  0  0  0  0  0  0  0
   -1.3160    0.0100    0.0960 H   0  0  0  0  0  0  0  0  0  0  0  0
   -2.2880   -0.8690    1.3340 H   0  0  0  0  0  0  0  0  0  0  0  0
   -0.6520    0.8970    2.7440 N   0  0  0  0  0  0  0  0  0  0  0  0
    0.2140    1.2730    3.8150 C   0  0  1  0  0  0  0  0  0  0  0  0
    0.7370    2.6600    3.7970 C   0  0  0  0  0  0  0  0  0  0  0  0
    1.5480    3.0740    2.6310 C   0  0  0  0  0  0  0  0  0  0  0  0
    0.8980    3.0350    1.2970 C   0  0  0  0  0  0  0  0  0  0  0  0
   -0.3100    3.9590    1.2850 C   0  0  0  0  0  0  0  0  0  0  0  0
   -0.9070    3.8800   -0.0350 N   0  0  0  0  0  0  0  0  0  0  0  0
   -0.5890    1.1400    5.0720 C   0  0  0  0  0  0  0  0  0  0  0  0
   -0.0220    1.4220    6.1490 O   0  0  0  0  0  0  0  0  0  0  0  0
   -1.9040    0.7260    5.0880 O   0  0  0  0  0  0  0  0  0  0  0  0
   -1.4730    1.4240    2.4230 H   0  0  0  0  0  0  0  0  0  0  0  0
    1.0530    0.5490    3.9130 H   0  0  0  0  0  0  0  0  0  0  0  0
    1.4160    2.7480    4.6980 H   0  0  0  0  0  0  0  0  0  0  0  0
   -0.0880    3.3800    4.0370 H   0  0  0  0  0  0  0  0  0  0  0  0
    2.5200    2.5360    2.5960 H   0  0  0  0  0  0  0  0  0  0  0  0
    1.8410    4.1510    2.8130 H   0  0  0  0  0  0  0  0  0  0  0  0
    0.6970    2.0620    0.8620 H   0  0  0  0  0  0  0  0  0  0  0  0
    1.6240    3.5290    0.5800 H   0  0  0  0  0  0  0  0  0  0  0  0
   -1.0340    3.7440    2.0750 H   0  0  0  0  0  0  0  0  0  0  0  0
    0.0090    5.0210    1.4290 H   0  0  0  0  0  0  0  0  0  0  0  0
   -1.9310    4.0850   -0.0220 H   0  0  0  0  0  0  0  0  0  0  0  0
   -0.7320    2.9310   -0.3970 H   0  0  0  0  0  0  0  0  0  0  0  0
  1 10  1  0  0  0  0
  1  2  1  0  0  0  0
  2  7  1  0  0  0  0
  2 12  1  1  0  0  0
  3  2  1  0  0  0  0
  3 14  1  0  0  0  0
  4  3  1  0  0  0  0
  4 15  1  0  0  0  0
  5  4  1  0  0  0  0
  6  5  2  0  0  0  0
  7 18  1  0  0  0  0
  8  7  2  0  0  0  0
  9  5  1  0  0  0  0
 11  1  1  0  0  0  0
 13  3  1  0  0  0  0
 16  4  1  0  0  0  0
 17  9  1  0  0  0  0
 18 22  1  0  0  0  0
 18 19  1  0  0  0  0
 19 24  1  0  0  0  0
 19 20  1  0  0  0  0
 20 21  2  0  0  0  0
 20 25  1  0  0  0  0
 23 19  1  0  0  0  0
 25 26  1  0  0  0  0
 26 36  1  1  0  0  0
 26 32  1  0  0  0  0
 27 26  1  0  0  0  0
 27 38  1  0  0  0  0
 27 37  1  0  0  0  0
 28 40  1  0  0  0  0
 28 27  1  0  0  0  0
 29 28  1  0  0  0  0
 30 29  1  0  0  0  0
 30 44  1  0  0  0  0
 30 43  1  0  0  0  0
 31 45  1  0  0  0  0
 31 30  1  0  0  0  0
 32 34  2  0  0  0  0
 32 33  1  0  0  0  0
 35 25  1  0  0  0  0
 39 28  1  0  0  0  0
 41 29  1  0  0  0  0
 42 29  1  0  0  0  0
 46 31  1  0  0  0  0
M  END
$$$$
