EGM.pdb
 OpenBabel07022418183D

 42 41  0  0  1  0  0  0  0  0999 V2000
    1.1570   -3.9700   -1.7690 N   0  0  0  0  0  0  0  0  0  0  0  0
    0.3130   -3.7280   -0.5890 C   0  0  1  0  0  0  0  0  0  0  0  0
    0.9500   -4.2700    0.6410 C   0  0  0  0  0  0  0  0  0  0  0  0
    2.3170   -3.7960    0.9440 C   0  0  0  0  0  0  0  0  0  0  0  0
    2.4640   -2.3640    1.1470 C   0  0  0  0  0  0  0  0  0  0  0  0
    2.0630   -1.8630    2.2060 O   0  0  0  0  0  0  0  0  0  0  0  0
   -0.2960   -2.4280   -0.6190 C   0  0  0  0  0  0  0  0  0  0  0  0
   -1.4240   -2.3030   -0.0110 O   0  0  0  0  0  0  0  0  0  0  0  0
    3.0520   -1.5490    0.1730 O   0  0  0  0  0  0  0  0  0  0  0  0
    0.5160   -3.9070   -2.5920 H   0  0  0  0  0  0  0  0  0  0  0  0
    1.5400   -4.9350   -1.6760 H   0  0  0  0  0  0  0  0  0  0  0  0
   -0.5450   -4.5280   -0.8150 H   0  0  0  0  0  0  0  0  0  0  0  0
    0.9360   -5.4130    0.6210 H   0  0  0  0  0  0  0  0  0  0  0  0
    0.2600   -4.0500    1.5060 H   0  0  0  0  0  0  0  0  0  0  0  0
    2.7550   -4.3030    1.8410 H   0  0  0  0  0  0  0  0  0  0  0  0
    3.0090   -4.0930    0.1040 H   0  0  0  0  0  0  0  0  0  0  0  0
    3.1160   -0.5570    0.2260 H   0  0  0  0  0  0  0  0  0  0  0  0
    0.1760   -1.2390   -1.2470 N   0  0  0  0  0  0  0  0  0  0  0  0
   -0.5170   -0.0180   -1.2790 C   0  0  0  0  0  0  0  0  0  0  0  0
   -0.9040    0.6570   -0.0580 C   0  0  0  0  0  0  0  0  0  0  0  0
   -1.5760    1.7690   -0.2030 O   0  0  0  0  0  0  0  0  0  0  0  0
    1.1380   -1.3410   -1.7250 H   0  0  0  0  0  0  0  0  0  0  0  0
   -1.4750   -0.1940   -1.9080 H   0  0  0  0  0  0  0  0  0  0  0  0
    0.0430    0.6970   -1.9600 H   0  0  0  0  0  0  0  0  0  0  0  0
    2.4780    2.5580    0.6740 C   0  0  0  0  0  0  0  0  0  0  0  0
    2.0950    1.4830    2.0600 S   0  0  0  0  0  0  0  0  0  0  0  0
    0.9310    2.1340    3.2140 C   0  0  0  0  0  0  0  0  0  0  0  0
   -0.4650    2.3240    2.7680 C   0  0  0  0  0  0  0  0  0  0  0  0
   -1.1880    1.0910    2.3570 C   0  0  2  0  0  0  0  0  0  0  0  0
   -0.6850    0.3190    1.2830 N   0  0  0  0  0  0  0  0  0  0  0  0
   -2.6630    1.3680    2.2340 C   0  0  0  0  0  0  0  0  0  0  0  0
   -3.4130    0.9490    1.3600 O   0  0  0  0  0  0  0  0  0  0  0  0
   -3.1960    2.1890    3.2320 O   0  0  0  0  0  0  0  0  0  0  0  0
    1.6480    2.7620    0.0000 H   0  0  0  0  0  0  0  0  0  0  0  0
    2.9310    3.4980    1.1020 H   0  0  0  0  0  0  0  0  0  0  0  0
    3.2980    2.0940    0.0930 H   0  0  0  0  0  0  0  0  0  0  0  0
    0.9000    1.4470    4.1060 H   0  0  0  0  0  0  0  0  0  0  0  0
    1.3550    3.0850    3.6580 H   0  0  0  0  0  0  0  0  0  0  0  0
   -1.0250    2.7080    3.6840 H   0  0  0  0  0  0  0  0  0  0  0  0
   -0.5940    3.1680    2.0480 H   0  0  0  0  0  0  0  0  0  0  0  0
   -1.1810    0.3870    3.2650 H   0  0  0  0  0  0  0  0  0  0  0  0
   -0.1060   -0.5540    1.4750 H   0  0  0  0  0  0  0  0  0  0  0  0
  1 11  1  0  0  0  0
  1  2  1  0  0  0  0
  2 12  1  6  0  0  0
  2  3  1  0  0  0  0
  3  4  1  0  0  0  0
  3 14  1  0  0  0  0
  4  5  1  0  0  0  0
  4 15  1  0  0  0  0
  5  6  2  0  0  0  0
  7  2  1  0  0  0  0
  7  8  2  0  0  0  0
  9 17  1  0  0  0  0
  9  5  1  0  0  0  0
 10  1  1  0  0  0  0
 13  3  1  0  0  0  0
 16  4  1  0  0  0  0
 18  7  1  0  0  0  0
 19 18  1  0  0  0  0
 19 20  1  0  0  0  0
 20 30  1  0  0  0  0
 21 20  2  0  0  0  0
 22 18  1  0  0  0  0
 23 19  1  0  0  0  0
 24 19  1  0  0  0  0
 25 35  1  0  0  0  0
 25 26  1  0  0  0  0
 26 27  1  0  0  0  0
 27 38  1  0  0  0  0
 27 37  1  0  0  0  0
 28 27  1  0  0  0  0
 28 39  1  0  0  0  0
 29 28  1  0  0  0  0
 29 41  1  1  0  0  0
 30 42  1  0  0  0  0
 30 29  1  0  0  0  0
 31 29  1  0  0  0  0
 31 33  1  0  0  0  0
 32 31  2  0  0  0  0
 34 25  1  0  0  0  0
 36 25  1  0  0  0  0
 40 28  1  0  0  0  0
M  END
$$$$
