EGQ.pdb
 OpenBabel07022418183D

 42 41  0  0  1  0  0  0  0  0999 V2000
   -0.5310   -3.8640   -0.7260 N   0  0  0  0  0  0  0  0  0  0  0  0
    0.5370   -3.3450    0.1460 C   0  0  1  0  0  0  0  0  0  0  0  0
    1.6030   -4.3860    0.1760 C   0  0  0  0  0  0  0  0  0  0  0  0
    2.7980   -4.0630    1.0140 C   0  0  0  0  0  0  0  0  0  0  0  0
    3.7900   -5.1970    0.9620 C   0  0  0  0  0  0  0  0  0  0  0  0
    3.5370   -6.2020    0.2840 O   0  0  0  0  0  0  0  0  0  0  0  0
    0.9980   -2.0240   -0.3340 C   0  0  0  0  0  0  0  0  0  0  0  0
    1.8870   -1.4180    0.3160 O   0  0  0  0  0  0  0  0  0  0  0  0
    4.9870   -5.1410    1.6590 O   0  0  0  0  0  0  0  0  0  0  0  0
   -0.5050   -4.9250   -0.7220 H   0  0  0  0  0  0  0  0  0  0  0  0
   -1.4710   -3.6110   -0.3650 H   0  0  0  0  0  0  0  0  0  0  0  0
    0.0960   -3.2750    1.1620 H   0  0  0  0  0  0  0  0  0  0  0  0
    2.0020   -4.5880   -0.8640 H   0  0  0  0  0  0  0  0  0  0  0  0
    1.2300   -5.3770    0.5100 H   0  0  0  0  0  0  0  0  0  0  0  0
    2.5730   -3.8960    2.0640 H   0  0  0  0  0  0  0  0  0  0  0  0
    3.3670   -3.1680    0.6390 H   0  0  0  0  0  0  0  0  0  0  0  0
    5.6380   -5.9110    1.6790 H   0  0  0  0  0  0  0  0  0  0  0  0
    0.4980   -1.3920   -1.4930 N   0  0  0  0  0  0  0  0  0  0  0  0
    0.9890   -0.1110   -1.8800 C   0  0  0  0  0  0  0  0  0  0  0  0
    0.6570    0.9050   -0.8720 C   0  0  0  0  0  0  0  0  0  0  0  0
    1.0580    2.1190   -0.9880 O   0  0  0  0  0  0  0  0  0  0  0  0
   -0.2250   -1.8630   -2.0560 H   0  0  0  0  0  0  0  0  0  0  0  0
    0.5580    0.1730   -2.8690 H   0  0  0  0  0  0  0  0  0  0  0  0
    2.1050   -0.1450   -2.0510 H   0  0  0  0  0  0  0  0  0  0  0  0
   -1.9820    5.4100    3.0010 N   0  0  0  0  0  0  0  0  0  0  0  0
   -1.7540    4.3400    2.0950 C   0  0  0  0  0  0  0  0  0  0  0  0
   -1.0260    4.5910    1.1090 O   0  0  0  0  0  0  0  0  0  0  0  0
   -2.3330    3.0080    2.2910 C   0  0  0  0  0  0  0  0  0  0  0  0
   -1.8930    1.9670    1.3070 C   0  0  0  0  0  0  0  0  0  0  0  0
   -0.4220    1.7010    1.2800 C   0  0  2  0  0  0  0  0  0  0  0  0
   -0.1110    0.6620    0.2810 N   0  0  0  0  0  0  0  0  0  0  0  0
    0.2090    1.4180    2.5660 C   0  0  0  0  0  0  0  0  0  0  0  0
    0.1110    2.2250    3.5180 O   0  0  0  0  0  0  0  0  0  0  0  0
    0.9490    0.2770    2.8520 O   0  0  0  0  0  0  0  0  0  0  0  0
   -2.0810    6.3830    2.6380 H   0  0  0  0  0  0  0  0  0  0  0  0
   -2.0530    5.2350    4.0290 H   0  0  0  0  0  0  0  0  0  0  0  0
   -2.0790    2.6560    3.3120 H   0  0  0  0  0  0  0  0  0  0  0  0
   -3.4660    3.0590    2.3140 H   0  0  0  0  0  0  0  0  0  0  0  0
   -2.4200    1.0270    1.5860 H   0  0  0  0  0  0  0  0  0  0  0  0
   -2.2590    2.3060    0.2930 H   0  0  0  0  0  0  0  0  0  0  0  0
    0.0770    2.6060    0.8820 H   0  0  0  0  0  0  0  0  0  0  0  0
   -0.5050   -0.2930    0.4410 H   0  0  0  0  0  0  0  0  0  0  0  0
  1 10  1  0  0  0  0
  1 11  1  0  0  0  0
  1  2  1  0  0  0  0
  2  3  1  0  0  0  0
  2 12  1  1  0  0  0
  3 14  1  0  0  0  0
  3  4  1  0  0  0  0
  4 15  1  0  0  0  0
  5  4  1  0  0  0  0
  5  9  1  0  0  0  0
  6  5  2  0  0  0  0
  7  2  1  0  0  0  0
  7  8  2  0  0  0  0
  9 17  1  0  0  0  0
 13  3  1  0  0  0  0
 16  4  1  0  0  0  0
 18  7  1  0  0  0  0
 19 18  1  0  0  0  0
 19 20  1  0  0  0  0
 20 31  1  0  0  0  0
 21 20  2  0  0  0  0
 22 18  1  0  0  0  0
 23 19  1  0  0  0  0
 24 19  1  0  0  0  0
 25 36  1  0  0  0  0
 26 28  1  0  0  0  0
 26 25  1  0  0  0  0
 27 26  2  0  0  0  0
 28 38  1  0  0  0  0
 28 37  1  0  0  0  0
 29 39  1  0  0  0  0
 29 28  1  0  0  0  0
 30 41  1  6  0  0  0
 30 29  1  0  0  0  0
 30 32  1  0  0  0  0
 31 42  1  0  0  0  0
 31 30  1  0  0  0  0
 32 34  2  0  0  0  0
 32 33  1  0  0  0  0
 35 25  1  0  0  0  0
 40 29  1  0  0  0  0
M  END
$$$$
