EGS.pdb
 OpenBabel07022418183D

 36 35  0  0  1  0  0  0  0  0999 V2000
   -0.1870   -4.2930    1.3900 N   0  0  0  0  0  0  0  0  0  0  0  0
    0.8970   -3.3150    1.5060 C   0  0  1  0  0  0  0  0  0  0  0  0
    2.2260   -3.9350    1.2990 C   0  0  0  0  0  0  0  0  0  0  0  0
    3.3500   -2.9660    1.4080 C   0  0  0  0  0  0  0  0  0  0  0  0
    3.5010   -2.2790    2.6870 C   0  0  0  0  0  0  0  0  0  0  0  0
    2.7540   -2.5240    3.6570 O   0  0  0  0  0  0  0  0  0  0  0  0
    0.5380   -2.2060    0.6210 C   0  0  0  0  0  0  0  0  0  0  0  0
    1.2650   -1.1830    0.6210 O   0  0  0  0  0  0  0  0  0  0  0  0
    4.4900   -1.3240    2.8620 O   0  0  0  0  0  0  0  0  0  0  0  0
   -0.3600   -4.7830    2.2920 H   0  0  0  0  0  0  0  0  0  0  0  0
   -0.0830   -4.9090    0.5710 H   0  0  0  0  0  0  0  0  0  0  0  0
    0.8200   -2.9390    2.5440 H   0  0  0  0  0  0  0  0  0  0  0  0
    2.3650   -4.6800    2.1290 H   0  0  0  0  0  0  0  0  0  0  0  0
    2.3020   -4.5210    0.3540 H   0  0  0  0  0  0  0  0  0  0  0  0
    3.3010   -2.1840    0.5970 H   0  0  0  0  0  0  0  0  0  0  0  0
    4.3080   -3.5390    1.1520 H   0  0  0  0  0  0  0  0  0  0  0  0
    4.8540   -1.0330    3.7480 H   0  0  0  0  0  0  0  0  0  0  0  0
   -0.5920   -2.2130   -0.2460 N   0  0  0  0  0  0  0  0  0  0  0  0
   -0.8490   -1.0550   -1.0800 C   0  0  0  0  0  0  0  0  0  0  0  0
   -1.0550    0.1690   -0.2450 C   0  0  0  0  0  0  0  0  0  0  0  0
   -0.9980    0.1270    1.0290 O   0  0  0  0  0  0  0  0  0  0  0  0
   -1.1930   -3.0620   -0.2440 H   0  0  0  0  0  0  0  0  0  0  0  0
   -0.0460   -0.9070   -1.8310 H   0  0  0  0  0  0  0  0  0  0  0  0
   -1.8050   -1.2120   -1.6260 H   0  0  0  0  0  0  0  0  0  0  0  0
    0.7900    3.0880    0.0600 O   0  0  0  0  0  0  0  0  0  0  0  0
   -0.4410    3.6540   -0.2760 C   0  0  0  0  0  0  0  0  0  0  0  0
   -1.5240    2.6240   -0.0300 C   0  0  2  0  0  0  0  0  0  0  0  0
   -1.3240    1.4350   -0.8240 N   0  0  0  0  0  0  0  0  0  0  0  0
   -2.8730    3.1910   -0.2120 C   0  0  0  0  0  0  0  0  0  0  0  0
   -3.2800    4.2080    0.3610 O   0  0  0  0  0  0  0  0  0  0  0  0
   -3.7620    2.5500   -1.0850 O   0  0  0  0  0  0  0  0  0  0  0  0
    0.8120    2.9460    1.0500 H   0  0  0  0  0  0  0  0  0  0  0  0
   -0.6260    4.4700    0.4800 H   0  0  0  0  0  0  0  0  0  0  0  0
   -0.4380    4.0450   -1.3050 H   0  0  0  0  0  0  0  0  0  0  0  0
   -1.4270    2.3250    1.0390 H   0  0  0  0  0  0  0  0  0  0  0  0
   -1.3800    1.5200   -1.8700 H   0  0  0  0  0  0  0  0  0  0  0  0
  1  2  1  0  0  0  0
  1 10  1  0  0  0  0
  2 12  1  1  0  0  0
  3  4  1  0  0  0  0
  3  2  1  0  0  0  0
  3 13  1  0  0  0  0
  4  5  1  0  0  0  0
  5  9  1  0  0  0  0
  5  6  2  0  0  0  0
  7  2  1  0  0  0  0
  8  7  2  0  0  0  0
  9 17  1  0  0  0  0
 11  1  1  0  0  0  0
 14  3  1  0  0  0  0
 15  4  1  0  0  0  0
 16  4  1  0  0  0  0
 18 22  1  0  0  0  0
 18  7  1  0  0  0  0
 19 18  1  0  0  0  0
 19 20  1  0  0  0  0
 20 21  2  0  0  0  0
 23 19  1  0  0  0  0
 24 19  1  0  0  0  0
 25 32  1  0  0  0  0
 26 27  1  0  0  0  0
 26 25  1  0  0  0  0
 26 33  1  0  0  0  0
 27 35  1  1  0  0  0
 28 20  1  0  0  0  0
 28 27  1  0  0  0  0
 29 27  1  0  0  0  0
 29 30  1  0  0  0  0
 31 29  2  0  0  0  0
 34 26  1  0  0  0  0
 36 28  1  0  0  0  0
M  END
$$$$
