EGW.pdb
 OpenBabel07022418183D

 49 50  0  0  1  0  0  0  0  0999 V2000
    2.0750   -2.5070   -0.0030 N   0  0  0  0  0  0  0  0  0  0  0  0
    2.8400   -1.3520    0.5270 C   0  0  1  0  0  0  0  0  0  0  0  0
    4.2620   -1.6260    0.1780 C   0  0  0  0  0  0  0  0  0  0  0  0
    5.2520   -0.5810    0.6030 C   0  0  0  0  0  0  0  0  0  0  0  0
    6.5960   -1.0830    0.1440 C   0  0  0  0  0  0  0  0  0  0  0  0
    7.1080   -2.0130    0.8160 O   0  0  0  0  0  0  0  0  0  0  0  0
    2.2630   -0.1330   -0.0620 C   0  0  0  0  0  0  0  0  0  0  0  0
    2.4930    0.9870    0.4600 O   0  0  0  0  0  0  0  0  0  0  0  0
    7.2660   -0.5820   -0.9460 O   0  0  0  0  0  0  0  0  0  0  0  0
    1.2790   -2.6090    0.6960 H   0  0  0  0  0  0  0  0  0  0  0  0
    2.6840   -3.3670    0.0340 H   0  0  0  0  0  0  0  0  0  0  0  0
    2.7380   -1.2990    1.6240 H   0  0  0  0  0  0  0  0  0  0  0  0
    4.3880   -1.9310   -0.8760 H   0  0  0  0  0  0  0  0  0  0  0  0
    4.5390   -2.5560    0.7650 H   0  0  0  0  0  0  0  0  0  0  0  0
    5.0540    0.4250    0.1990 H   0  0  0  0  0  0  0  0  0  0  0  0
    5.3430   -0.4880    1.7040 H   0  0  0  0  0  0  0  0  0  0  0  0
    7.9110   -1.1810   -1.4720 H   0  0  0  0  0  0  0  0  0  0  0  0
    1.4400   -0.1730   -1.2160 N   0  0  0  0  0  0  0  0  0  0  0  0
    0.8050    0.9560   -1.8410 C   0  0  0  0  0  0  0  0  0  0  0  0
   -0.2330    1.6010   -0.9680 C   0  0  0  0  0  0  0  0  0  0  0  0
   -0.8660    2.6140   -1.3700 O   0  0  0  0  0  0  0  0  0  0  0  0
    1.2880   -1.1200   -1.6460 H   0  0  0  0  0  0  0  0  0  0  0  0
    0.3200    0.6700   -2.7800 H   0  0  0  0  0  0  0  0  0  0  0  0
    1.5640    1.7310   -2.1090 H   0  0  0  0  0  0  0  0  0  0  0  0
   -0.5560    1.1260    0.3160 N   0  0  0  0  0  0  0  0  0  0  0  0
   -1.6000    1.7760    1.1340 C   0  0  1  0  0  0  0  0  0  0  0  0
   -2.3510    0.7050    1.8430 C   0  0  0  0  0  0  0  0  0  0  0  0
   -3.0100   -0.2940    1.0040 C   0  0  0  0  0  0  0  0  0  0  0  0
   -3.1580   -0.3330   -0.3510 C   0  0  0  0  0  0  0  0  0  0  0  0
   -3.8250   -1.4610   -0.6410 N   0  0  0  0  0  0  0  0  0  0  0  0
   -4.1230   -2.1650    0.4710 C   0  0  0  0  0  0  0  0  0  0  0  0
   -4.7800   -3.3680    0.6970 C   0  0  0  0  0  0  0  0  0  0  0  0
   -4.9280   -3.8430    1.9780 C   0  0  0  0  0  0  0  0  0  0  0  0
   -4.4220   -3.1250    3.0620 C   0  0  0  0  0  0  0  0  0  0  0  0
   -3.7780   -1.9420    2.8060 C   0  0  0  0  0  0  0  0  0  0  0  0
   -3.6150   -1.4410    1.5220 C   0  0  0  0  0  0  0  0  0  0  0  0
   -0.8280    2.6170    2.1300 C   0  0  0  0  0  0  0  0  0  0  0  0
   -1.4940    3.2690    2.9730 O   0  0  0  0  0  0  0  0  0  0  0  0
    0.5420    2.6990    2.1540 O   0  0  0  0  0  0  0  0  0  0  0  0
   -0.0650    0.2900    0.7110 H   0  0  0  0  0  0  0  0  0  0  0  0
   -2.2190    2.4430    0.5260 H   0  0  0  0  0  0  0  0  0  0  0  0
   -1.7380    0.1570    2.5880 H   0  0  0  0  0  0  0  0  0  0  0  0
   -3.1230    1.2450    2.4790 H   0  0  0  0  0  0  0  0  0  0  0  0
   -2.8270    0.3820   -1.1080 H   0  0  0  0  0  0  0  0  0  0  0  0
   -4.0820   -1.7550   -1.6240 H   0  0  0  0  0  0  0  0  0  0  0  0
   -5.1600   -3.8980   -0.1790 H   0  0  0  0  0  0  0  0  0  0  0  0
   -5.4300   -4.7630    2.1570 H   0  0  0  0  0  0  0  0  0  0  0  0
   -4.5660   -3.5450    4.0360 H   0  0  0  0  0  0  0  0  0  0  0  0
   -3.3860   -1.3860    3.6440 H   0  0  0  0  0  0  0  0  0  0  0  0
  1 11  1  0  0  0  0
  1  2  1  0  0  0  0
  1 10  1  0  0  0  0
  2 12  1  1  0  0  0
  3  2  1  0  0  0  0
  3  4  1  0  0  0  0
  3 14  1  0  0  0  0
  4 16  1  0  0  0  0
  5  4  1  0  0  0  0
  5  6  2  0  0  0  0
  7  8  2  0  0  0  0
  7  2  1  0  0  0  0
  9  5  1  0  0  0  0
 13  3  1  0  0  0  0
 15  4  1  0  0  0  0
 17  9  1  0  0  0  0
 18  7  1  0  0  0  0
 19 18  1  0  0  0  0
 19 20  1  0  0  0  0
 20 25  1  0  0  0  0
 21 20  2  0  0  0  0
 22 18  1  0  0  0  0
 23 19  1  0  0  0  0
 24 19  1  0  0  0  0
 25 40  1  0  0  0  0
 25 26  1  0  0  0  0
 26 41  1  6  0  0  0
 26 27  1  0  0  0  0
 26 37  1  0  0  0  0
 27 43  1  0  0  0  0
 27 42  1  0  0  0  0
 28 36  1  0  0  0  0
 28 27  1  0  0  0  0
 29 28  2  0  0  0  0
 30 29  1  0  0  0  0
 30 31  1  0  0  0  0
 31 32  2  0  0  0  0
 31 36  1  0  0  0  0
 32 33  1  0  0  0  0
 33 47  1  0  0  0  0
 33 34  2  0  0  0  0
 34 48  1  0  0  0  0
 35 34  1  0  0  0  0
 35 49  1  0  0  0  0
 36 35  2  0  0  0  0
 37 39  2  0  0  0  0
 37 38  1  0  0  0  0
 44 29  1  0  0  0  0
 45 30  1  0  0  0  0
 46 32  1  0  0  0  0
M  END
$$$$
