EGY.pdb
 OpenBabel07022418183D

 46 46  0  0  1  0  0  0  0  0999 V2000
    4.0830   -1.4190    0.2010 N   0  0  0  0  0  0  0  0  0  0  0  0
    2.9260   -2.1100    0.7870 C   0  0  1  0  0  0  0  0  0  0  0  0
    2.5360   -1.5390    2.1040 C   0  0  0  0  0  0  0  0  0  0  0  0
    2.1760   -0.0920    2.0390 C   0  0  0  0  0  0  0  0  0  0  0  0
    1.8080    0.4250    3.3960 C   0  0  0  0  0  0  0  0  0  0  0  0
    1.8190   -0.3050    4.4130 O   0  0  0  0  0  0  0  0  0  0  0  0
    1.8390   -2.3210   -0.1840 C   0  0  0  0  0  0  0  0  0  0  0  0
    0.7770   -2.8920    0.1590 O   0  0  0  0  0  0  0  0  0  0  0  0
    1.4420    1.7480    3.5370 O   0  0  0  0  0  0  0  0  0  0  0  0
    4.6150   -2.0720   -0.4180 H   0  0  0  0  0  0  0  0  0  0  0  0
    4.7220   -1.2170    1.0090 H   0  0  0  0  0  0  0  0  0  0  0  0
    3.3560   -3.1480    1.0270 H   0  0  0  0  0  0  0  0  0  0  0  0
    3.3990   -1.7090    2.8040 H   0  0  0  0  0  0  0  0  0  0  0  0
    1.7070   -2.1630    2.5080 H   0  0  0  0  0  0  0  0  0  0  0  0
    1.2860    0.0760    1.4110 H   0  0  0  0  0  0  0  0  0  0  0  0
    3.0660    0.4660    1.6750 H   0  0  0  0  0  0  0  0  0  0  0  0
    1.6370    2.2810    4.3950 H   0  0  0  0  0  0  0  0  0  0  0  0
    2.0520   -1.8570   -1.5170 N   0  0  0  0  0  0  0  0  0  0  0  0
    1.0800   -2.0240   -2.5350 C   0  0  0  0  0  0  0  0  0  0  0  0
   -0.2210   -1.3860   -2.3880 C   0  0  0  0  0  0  0  0  0  0  0  0
   -1.1010   -1.5490   -3.3140 O   0  0  0  0  0  0  0  0  0  0  0  0
    2.9790   -1.3660   -1.7560 H   0  0  0  0  0  0  0  0  0  0  0  0
    1.5330   -1.8010   -3.5450 H   0  0  0  0  0  0  0  0  0  0  0  0
    0.8980   -3.1490   -2.6140 H   0  0  0  0  0  0  0  0  0  0  0  0
   -1.1180    0.3560    5.1450 O   0  0  0  0  0  0  0  0  0  0  0  0
   -1.5420    0.1790    3.8340 C   0  0  0  0  0  0  0  0  0  0  0  0
   -2.2190    1.1760    3.1940 C   0  0  0  0  0  0  0  0  0  0  0  0
   -2.6390    1.0010    1.8940 C   0  0  0  0  0  0  0  0  0  0  0  0
   -2.3980   -0.1740    1.1930 C   0  0  0  0  0  0  0  0  0  0  0  0
   -2.8370   -0.4190   -0.1700 C   0  0  0  0  0  0  0  0  0  0  0  0
   -1.9550    0.0180   -1.2740 C   0  0  2  0  0  0  0  0  0  0  0  0
   -0.6380   -0.5760   -1.3050 N   0  0  0  0  0  0  0  0  0  0  0  0
   -1.8630    1.5060   -1.3830 C   0  0  0  0  0  0  0  0  0  0  0  0
   -0.7300    2.0300   -1.4810 O   0  0  0  0  0  0  0  0  0  0  0  0
   -1.7140   -1.1570    1.8700 C   0  0  0  0  0  0  0  0  0  0  0  0
   -1.2880   -0.9880    3.1760 C   0  0  0  0  0  0  0  0  0  0  0  0
   -2.9940    2.2770   -1.3740 O   0  0  0  0  0  0  0  0  0  0  0  0
   -1.6950    0.7730    5.8690 H   0  0  0  0  0  0  0  0  0  0  0  0
   -2.4170    2.0890    3.7090 H   0  0  0  0  0  0  0  0  0  0  0  0
   -3.1730    1.7800    1.3800 H   0  0  0  0  0  0  0  0  0  0  0  0
   -3.0880   -1.5020   -0.3200 H   0  0  0  0  0  0  0  0  0  0  0  0
   -3.8380    0.0960   -0.2840 H   0  0  0  0  0  0  0  0  0  0  0  0
   -2.4760   -0.2820   -2.2330 H   0  0  0  0  0  0  0  0  0  0  0  0
    0.0010   -0.3790   -0.4950 H   0  0  0  0  0  0  0  0  0  0  0  0
   -1.4860   -2.1030    1.4150 H   0  0  0  0  0  0  0  0  0  0  0  0
   -0.7440   -1.7930    3.6850 H   0  0  0  0  0  0  0  0  0  0  0  0
  1  2  1  0  0  0  0
  1 11  1  0  0  0  0
  2 12  1  1  0  0  0
  2  3  1  0  0  0  0
  3 14  1  0  0  0  0
  3 13  1  0  0  0  0
  4  3  1  0  0  0  0
  4  5  1  0  0  0  0
  5  9  1  0  0  0  0
  5  6  2  0  0  0  0
  7  8  2  0  0  0  0
  7  2  1  0  0  0  0
  9 17  1  0  0  0  0
 10  1  1  0  0  0  0
 15  4  1  0  0  0  0
 16  4  1  0  0  0  0
 18  7  1  0  0  0  0
 19 20  1  0  0  0  0
 19 18  1  0  0  0  0
 20 32  1  0  0  0  0
 21 20  2  0  0  0  0
 22 18  1  0  0  0  0
 23 19  1  0  0  0  0
 24 19  1  0  0  0  0
 25 38  1  0  0  0  0
 26 25  1  0  0  0  0
 27 39  1  0  0  0  0
 27 26  1  0  0  0  0
 28 27  2  0  0  0  0
 29 35  2  0  0  0  0
 29 28  1  0  0  0  0
 30 29  1  0  0  0  0
 31 43  1  6  0  0  0
 31 30  1  0  0  0  0
 32 31  1  0  0  0  0
 32 44  1  0  0  0  0
 33 37  1  0  0  0  0
 33 31  1  0  0  0  0
 34 33  2  0  0  0  0
 35 36  1  0  0  0  0
 36 46  1  0  0  0  0
 36 26  2  0  0  0  0
 40 28  1  0  0  0  0
 41 30  1  0  0  0  0
 42 30  1  0  0  0  0
 45 35  1  0  0  0  0
M  END
$$$$
