EHA.pdb
 OpenBabel07022418183D

 45 45  0  0  1  0  0  0  0  0999 V2000
    2.6590   -3.0980   -2.1510 N   0  0  0  0  0  0  0  0  0  0  0  0
    2.0570   -1.7440   -1.7060 C   0  0  1  0  0  0  0  0  0  0  0  0
    0.9930   -1.4600   -2.6710 C   0  0  0  0  0  0  0  0  0  0  0  0
    0.1720   -0.2630   -2.7070 C   0  0  0  0  0  0  0  0  0  0  0  0
   -0.7460    0.0900   -1.6320 C   0  0  0  0  0  0  0  0  0  0  0  0
   -0.5530    0.9270   -0.7200 O   0  0  0  0  0  0  0  0  0  0  0  0
    1.7790   -1.9440   -0.3010 C   0  0  0  0  0  0  0  0  0  0  0  0
    1.6680   -3.1660    0.1540 O   0  0  0  0  0  0  0  0  0  0  0  0
   -2.0190   -0.5450   -1.5520 O   0  0  0  0  0  0  0  0  0  0  0  0
    1.9490   -3.7600   -1.7730 H   0  0  0  0  0  0  0  0  0  0  0  0
    3.5040   -3.1270   -1.5130 H   0  0  0  0  0  0  0  0  0  0  0  0
    2.9100   -1.0230   -1.7900 H   0  0  0  0  0  0  0  0  0  0  0  0
    0.2290   -2.3490   -2.6450 H   0  0  0  0  0  0  0  0  0  0  0  0
    1.4310   -1.6580   -3.7410 H   0  0  0  0  0  0  0  0  0  0  0  0
   -0.4980   -0.3420   -3.6480 H   0  0  0  0  0  0  0  0  0  0  0  0
    0.8050    0.6620   -2.9940 H   0  0  0  0  0  0  0  0  0  0  0  0
   -2.7700   -0.1310   -1.0150 H   0  0  0  0  0  0  0  0  0  0  0  0
    1.6370   -0.8910    0.6270 N   0  0  0  0  0  0  0  0  0  0  0  0
    1.4360   -1.0880    2.0370 C   0  0  1  0  0  0  0  0  0  0  0  0
    2.4280   -0.2660    2.8370 C   0  0  0  0  0  0  0  0  0  0  0  0
    2.3160    1.1710    2.5890 C   0  0  0  0  0  0  0  0  0  0  0  0
    1.5380    2.0890    3.2520 C   0  0  0  0  0  0  0  0  0  0  0  0
    1.7480    3.3010    2.6910 N   0  0  0  0  0  0  0  0  0  0  0  0
    2.6410    3.1590    1.6930 C   0  0  0  0  0  0  0  0  0  0  0  0
    2.9770    1.8570    1.6440 N   0  0  0  0  0  0  0  0  0  0  0  0
    0.0970   -1.0860    2.5730 C   0  0  0  0  0  0  0  0  0  0  0  0
   -0.0240   -1.0530    3.8540 O   0  0  0  0  0  0  0  0  0  0  0  0
    1.7030    0.0860    0.2830 H   0  0  0  0  0  0  0  0  0  0  0  0
    1.8380   -2.1730    2.1830 H   0  0  0  0  0  0  0  0  0  0  0  0
    3.4470   -0.6670    2.5780 H   0  0  0  0  0  0  0  0  0  0  0  0
    2.3130   -0.4460    3.9230 H   0  0  0  0  0  0  0  0  0  0  0  0
    0.8530    1.9260    4.0880 H   0  0  0  0  0  0  0  0  0  0  0  0
    1.3030    4.1950    2.9720 H   0  0  0  0  0  0  0  0  0  0  0  0
    3.0540    3.9020    1.0190 H   0  0  0  0  0  0  0  0  0  0  0  0
   -3.1980    0.1410    2.1520 C   0  0  0  0  0  0  0  0  0  0  0  0
   -2.4220   -1.1040    2.5000 C   0  0  2  0  0  0  0  0  0  0  0  0
   -1.1120   -1.1190    1.8710 N   0  0  0  0  0  0  0  0  0  0  0  0
   -3.2090   -2.2950    2.1010 C   0  0  0  0  0  0  0  0  0  0  0  0
   -2.7570   -3.1840    1.3080 O   0  0  0  0  0  0  0  0  0  0  0  0
   -4.4870   -2.4500    2.6090 O   0  0  0  0  0  0  0  0  0  0  0  0
   -3.2780    0.8310    3.0210 H   0  0  0  0  0  0  0  0  0  0  0  0
   -4.2300   -0.1510    1.8760 H   0  0  0  0  0  0  0  0  0  0  0  0
   -2.7810    0.6650    1.2580 H   0  0  0  0  0  0  0  0  0  0  0  0
   -2.3220   -1.1150    3.6040 H   0  0  0  0  0  0  0  0  0  0  0  0
   -1.0830   -1.1780    0.8570 H   0  0  0  0  0  0  0  0  0  0  0  0
  1 10  1  0  0  0  0
  1  2  1  0  0  0  0
  1 11  1  0  0  0  0
  2 12  1  6  0  0  0
  2  7  1  0  0  0  0
  3 13  1  0  0  0  0
  3  2  1  0  0  0  0
  4  3  1  0  0  0  0
  4  5  1  0  0  0  0
  5  9  1  0  0  0  0
  5  6  2  0  0  0  0
  7  8  2  0  0  0  0
  7 18  1  0  0  0  0
  9 17  1  0  0  0  0
 14  3  1  0  0  0  0
 15  4  1  0  0  0  0
 16  4  1  0  0  0  0
 18 19  1  0  0  0  0
 19 29  1  1  0  0  0
 19 26  1  0  0  0  0
 19 20  1  0  0  0  0
 20 31  1  0  0  0  0
 21 20  1  0  0  0  0
 21 22  2  0  0  0  0
 22 32  1  0  0  0  0
 23 33  1  0  0  0  0
 23 22  1  0  0  0  0
 24 23  1  0  0  0  0
 25 24  2  0  0  0  0
 25 21  1  0  0  0  0
 26 27  2  0  0  0  0
 28 18  1  0  0  0  0
 30 20  1  0  0  0  0
 34 24  1  0  0  0  0
 35 36  1  0  0  0  0
 35 41  1  0  0  0  0
 36 44  1  1  0  0  0
 37 36  1  0  0  0  0
 37 26  1  0  0  0  0
 38 36  1  0  0  0  0
 38 40  1  0  0  0  0
 39 38  2  0  0  0  0
 42 35  1  0  0  0  0
 43 35  1  0  0  0  0
 45 37  1  0  0  0  0
M  END
$$$$
