EHC.pdb
 OpenBabel07022418183D

 46 46  0  0  1  0  0  0  0  0999 V2000
    2.5970   -3.3970    0.0200 N   0  0  0  0  0  0  0  0  0  0  0  0
    2.1870   -2.0120    0.0890 C   0  0  1  0  0  0  0  0  0  0  0  0
    1.5850   -1.5200   -1.1830 C   0  0  0  0  0  0  0  0  0  0  0  0
    0.3520   -2.2970   -1.5880 C   0  0  0  0  0  0  0  0  0  0  0  0
   -0.2240   -1.7880   -2.8520 C   0  0  0  0  0  0  0  0  0  0  0  0
    0.3430   -0.8230   -3.4160 O   0  0  0  0  0  0  0  0  0  0  0  0
    1.3460   -1.7800    1.2720 C   0  0  0  0  0  0  0  0  0  0  0  0
    1.0920   -2.7350    2.0400 O   0  0  0  0  0  0  0  0  0  0  0  0
   -1.3530   -2.3210   -3.4410 O   0  0  0  0  0  0  0  0  0  0  0  0
    1.9880   -3.9960    0.6410 H   0  0  0  0  0  0  0  0  0  0  0  0
    2.5290   -3.7900   -0.9430 H   0  0  0  0  0  0  0  0  0  0  0  0
    3.1350   -1.4240    0.2530 H   0  0  0  0  0  0  0  0  0  0  0  0
    1.4130   -0.4450   -1.1210 H   0  0  0  0  0  0  0  0  0  0  0  0
    2.3360   -1.6880   -1.9950 H   0  0  0  0  0  0  0  0  0  0  0  0
    0.6320   -3.3560   -1.7590 H   0  0  0  0  0  0  0  0  0  0  0  0
   -0.4350   -2.2820   -0.8270 H   0  0  0  0  0  0  0  0  0  0  0  0
   -1.8840   -1.8500   -4.1540 H   0  0  0  0  0  0  0  0  0  0  0  0
    0.7880   -0.5170    1.6140 N   0  0  0  0  0  0  0  0  0  0  0  0
   -0.0370   -0.3110    2.7850 C   0  0  1  0  0  0  0  0  0  0  0  0
    0.4930    0.7760    3.6800 C   0  0  0  0  0  0  0  0  0  0  0  0
    1.8440    0.5070    4.1870 C   0  0  0  0  0  0  0  0  0  0  0  0
    3.0330    0.8670    3.5940 C   0  0  0  0  0  0  0  0  0  0  0  0
    4.0540    0.4430    4.3600 N   0  0  0  0  0  0  0  0  0  0  0  0
    3.5350   -0.1780    5.4240 C   0  0  0  0  0  0  0  0  0  0  0  0
    2.1920   -0.1370    5.3140 N   0  0  0  0  0  0  0  0  0  0  0  0
   -1.3720    0.1710    2.2810 C   0  0  0  0  0  0  0  0  0  0  0  0
   -2.2300    0.4050    3.1770 O   0  0  0  0  0  0  0  0  0  0  0  0
    1.0090    0.2750    0.9610 H   0  0  0  0  0  0  0  0  0  0  0  0
   -0.1490   -1.2500    3.3320 H   0  0  0  0  0  0  0  0  0  0  0  0
   -0.2410    0.9020    4.5050 H   0  0  0  0  0  0  0  0  0  0  0  0
    0.4740    1.7210    3.1020 H   0  0  0  0  0  0  0  0  0  0  0  0
    3.1830    1.4020    2.6680 H   0  0  0  0  0  0  0  0  0  0  0  0
    5.0940    0.5580    4.1890 H   0  0  0  0  0  0  0  0  0  0  0  0
    4.0800   -0.6360    6.2350 H   0  0  0  0  0  0  0  0  0  0  0  0
   -1.6540    0.3520    0.9150 N   0  0  0  0  0  0  0  0  0  0  0  0
   -2.9620    0.8190    0.5110 C   0  0  1  0  0  0  0  0  0  0  0  0
   -2.8420    2.1630   -0.2100 C   0  0  0  0  0  0  0  0  0  0  0  0
   -1.7990    1.9670   -1.6810 S   0  0  0  0  0  0  0  0  0  0  0  0
   -3.5980   -0.1280   -0.4020 C   0  0  0  0  0  0  0  0  0  0  0  0
   -2.9930   -1.1770   -0.7230 O   0  0  0  0  0  0  0  0  0  0  0  0
   -4.8580    0.1010   -0.9260 O   0  0  0  0  0  0  0  0  0  0  0  0
   -0.9110    0.1440    0.2190 H   0  0  0  0  0  0  0  0  0  0  0  0
   -3.6080    0.9810    1.4040 H   0  0  0  0  0  0  0  0  0  0  0  0
   -2.3900    2.9240    0.4490 H   0  0  0  0  0  0  0  0  0  0  0  0
   -3.8640    2.4360   -0.5420 H   0  0  0  0  0  0  0  0  0  0  0  0
   -1.8630    0.6350   -2.1000 H   0  0  0  0  0  0  0  0  0  0  0  0
  1  2  1  0  0  0  0
  1 10  1  0  0  0  0
  2 12  1  1  0  0  0
  2  7  1  0  0  0  0
  3 13  1  0  0  0  0
  3  2  1  0  0  0  0
  4  3  1  0  0  0  0
  4 16  1  0  0  0  0
  5  4  1  0  0  0  0
  6  5  2  0  0  0  0
  7 18  1  0  0  0  0
  7  8  2  0  0  0  0
  9  5  1  0  0  0  0
 11  1  1  0  0  0  0
 14  3  1  0  0  0  0
 15  4  1  0  0  0  0
 17  9  1  0  0  0  0
 18 19  1  0  0  0  0
 19 29  1  1  0  0  0
 19 20  1  0  0  0  0
 20 21  1  0  0  0  0
 20 30  1  0  0  0  0
 21 25  1  0  0  0  0
 22 21  2  0  0  0  0
 22 23  1  0  0  0  0
 23 24  1  0  0  0  0
 24 34  1  0  0  0  0
 25 24  2  0  0  0  0
 26 19  1  0  0  0  0
 26 27  2  0  0  0  0
 28 18  1  0  0  0  0
 31 20  1  0  0  0  0
 32 22  1  0  0  0  0
 33 23  1  0  0  0  0
 35 26  1  0  0  0  0
 36 35  1  0  0  0  0
 36 43  1  1  0  0  0
 37 44  1  0  0  0  0
 37 36  1  0  0  0  0
 38 37  1  0  0  0  0
 39 36  1  0  0  0  0
 40 39  1  0  0  0  0
 41 39  2  0  0  0  0
 42 35  1  0  0  0  0
 45 37  1  0  0  0  0
 46 38  1  0  0  0  0
M  END
$$$$
