EHD.pdb
 OpenBabel07022418183D

 48 48  0  0  1  0  0  0  0  0999 V2000
    3.4060   -2.3120    0.8990 N   0  0  0  0  0  0  0  0  0  0  0  0
    2.6390   -2.2000    2.0780 C   0  0  1  0  0  0  0  0  0  0  0  0
    3.3000   -1.6580    3.2930 C   0  0  0  0  0  0  0  0  0  0  0  0
    3.8570   -0.2800    3.1770 C   0  0  0  0  0  0  0  0  0  0  0  0
    4.9330   -0.1980    2.1730 C   0  0  0  0  0  0  0  0  0  0  0  0
    5.2000    0.9630    1.7150 O   0  0  0  0  0  0  0  0  0  0  0  0
    1.3430   -1.4860    1.9150 C   0  0  0  0  0  0  0  0  0  0  0  0
    0.6740   -1.3380    2.9890 O   0  0  0  0  0  0  0  0  0  0  0  0
    5.6340   -1.2820    1.7330 O   0  0  0  0  0  0  0  0  0  0  0  0
    3.3650   -1.5200    0.2220 H   0  0  0  0  0  0  0  0  0  0  0  0
    3.4750   -3.2440    0.4860 H   0  0  0  0  0  0  0  0  0  0  0  0
    2.3250   -3.2620    2.3520 H   0  0  0  0  0  0  0  0  0  0  0  0
    2.5420   -1.6120    4.1390 H   0  0  0  0  0  0  0  0  0  0  0  0
    4.0690   -2.3840    3.6920 H   0  0  0  0  0  0  0  0  0  0  0  0
    3.0440    0.4560    2.9200 H   0  0  0  0  0  0  0  0  0  0  0  0
    4.2630    0.1000    4.1470 H   0  0  0  0  0  0  0  0  0  0  0  0
    6.2990   -1.2570    0.9790 H   0  0  0  0  0  0  0  0  0  0  0  0
    0.8270   -0.9860    0.7150 N   0  0  0  0  0  0  0  0  0  0  0  0
   -0.4470   -0.3080    0.6960 C   0  0  1  0  0  0  0  0  0  0  0  0
   -0.3360    1.0950    0.1620 C   0  0  0  0  0  0  0  0  0  0  0  0
    0.5840    1.9180    0.9800 C   0  0  0  0  0  0  0  0  0  0  0  0
    1.9320    2.0280    0.7360 C   0  0  0  0  0  0  0  0  0  0  0  0
    2.4960    2.8540    1.6540 N   0  0  0  0  0  0  0  0  0  0  0  0
    1.5100    3.2600    2.4680 C   0  0  0  0  0  0  0  0  0  0  0  0
    0.3510    2.6900    2.0540 N   0  0  0  0  0  0  0  0  0  0  0  0
   -1.3830   -1.1280   -0.1170 C   0  0  0  0  0  0  0  0  0  0  0  0
   -0.9870   -2.1990   -0.6320 O   0  0  0  0  0  0  0  0  0  0  0  0
    1.4030   -1.1330   -0.1440 H   0  0  0  0  0  0  0  0  0  0  0  0
   -0.7940   -0.2310    1.7580 H   0  0  0  0  0  0  0  0  0  0  0  0
   -1.3480    1.5760    0.1410 H   0  0  0  0  0  0  0  0  0  0  0  0
    0.0360    1.1200   -0.8900 H   0  0  0  0  0  0  0  0  0  0  0  0
    2.4880    1.5520   -0.0440 H   0  0  0  0  0  0  0  0  0  0  0  0
    3.4980    3.1290    1.7260 H   0  0  0  0  0  0  0  0  0  0  0  0
    1.6130    3.9340    3.3200 H   0  0  0  0  0  0  0  0  0  0  0  0
   -2.7420   -0.7680   -0.3590 N   0  0  0  0  0  0  0  0  0  0  0  0
   -3.6560   -1.5490   -1.1420 C   0  0  1  0  0  0  0  0  0  0  0  0
   -4.7610   -2.1540   -0.2630 C   0  0  0  0  0  0  0  0  0  0  0  0
   -5.6140   -2.9270   -1.1990 C   0  0  0  0  0  0  0  0  0  0  0  0
   -5.0330   -3.7550   -1.9450 O   0  0  0  0  0  0  0  0  0  0  0  0
   -4.3500   -0.7840   -2.1810 C   0  0  0  0  0  0  0  0  0  0  0  0
   -4.1270    0.4730   -2.3000 O   0  0  0  0  0  0  0  0  0  0  0  0
   -6.9830   -2.8130   -1.3170 O   0  0  0  0  0  0  0  0  0  0  0  0
   -5.2420   -1.3360   -3.0540 O   0  0  0  0  0  0  0  0  0  0  0  0
   -3.0440    0.1290    0.0810 H   0  0  0  0  0  0  0  0  0  0  0  0
   -3.1160   -2.4080   -1.5820 H   0  0  0  0  0  0  0  0  0  0  0  0
   -4.2580   -2.9480    0.3710 H   0  0  0  0  0  0  0  0  0  0  0  0
   -5.2870   -1.4240    0.3440 H   0  0  0  0  0  0  0  0  0  0  0  0
   -7.6160   -3.4940   -1.7100 H   0  0  0  0  0  0  0  0  0  0  0  0
  1  2  1  0  0  0  0
  2 12  1  1  0  0  0
  2  3  1  0  0  0  0
  3 14  1  0  0  0  0
  3 13  1  0  0  0  0
  4  3  1  0  0  0  0
  4 16  1  0  0  0  0
  5  4  1  0  0  0  0
  6  5  2  0  0  0  0
  7  2  1  0  0  0  0
  7  8  2  0  0  0  0
  9  5  1  0  0  0  0
 10  1  1  0  0  0  0
 11  1  1  0  0  0  0
 15  4  1  0  0  0  0
 17  9  1  0  0  0  0
 18  7  1  0  0  0  0
 19 18  1  0  0  0  0
 19 29  1  1  0  0  0
 20 19  1  0  0  0  0
 20 21  1  0  0  0  0
 21 25  1  0  0  0  0
 22 21  2  0  0  0  0
 22 23  1  0  0  0  0
 23 33  1  0  0  0  0
 23 24  1  0  0  0  0
 24 34  1  0  0  0  0
 25 24  2  0  0  0  0
 26 19  1  0  0  0  0
 27 26  2  0  0  0  0
 28 18  1  0  0  0  0
 30 20  1  0  0  0  0
 31 20  1  0  0  0  0
 32 22  1  0  0  0  0
 35 26  1  0  0  0  0
 35 44  1  0  0  0  0
 36 45  1  6  0  0  0
 36 35  1  0  0  0  0
 36 37  1  0  0  0  0
 37 47  1  0  0  0  0
 37 46  1  0  0  0  0
 38 37  1  0  0  0  0
 39 38  2  0  0  0  0
 40 36  1  0  0  0  0
 41 40  1  0  0  0  0
 42 38  1  0  0  0  0
 43 40  2  0  0  0  0
 48 42  1  0  0  0  0
M  END
$$$$
