EHE.pdb
 OpenBabel07022418183D

 51 51  0  0  1  0  0  0  0  0999 V2000
    3.3070    0.3640   -0.7380 N   0  0  0  0  0  0  0  0  0  0  0  0
    3.1010   -0.5980    0.3170 C   0  0  1  0  0  0  0  0  0  0  0  0
    3.9250   -0.3820    1.5460 C   0  0  0  0  0  0  0  0  0  0  0  0
    5.4150   -0.4190    1.3090 C   0  0  0  0  0  0  0  0  0  0  0  0
    6.0700   -0.2160    2.6330 C   0  0  0  0  0  0  0  0  0  0  0  0
    7.3160   -0.0550    2.6690 O   0  0  0  0  0  0  0  0  0  0  0  0
    1.6780   -0.6900    0.7240 C   0  0  0  0  0  0  0  0  0  0  0  0
    1.4220   -1.2720    1.8210 O   0  0  0  0  0  0  0  0  0  0  0  0
    5.3940   -0.1910    3.8390 O   0  0  0  0  0  0  0  0  0  0  0  0
    2.7420    1.2100   -0.4870 H   0  0  0  0  0  0  0  0  0  0  0  0
    4.3160    0.6000   -0.8520 H   0  0  0  0  0  0  0  0  0  0  0  0
    3.3860   -1.5970   -0.1600 H   0  0  0  0  0  0  0  0  0  0  0  0
    3.7210   -1.1550    2.3290 H   0  0  0  0  0  0  0  0  0  0  0  0
    3.6370    0.5930    1.9920 H   0  0  0  0  0  0  0  0  0  0  0  0
    5.7340   -1.4430    0.9510 H   0  0  0  0  0  0  0  0  0  0  0  0
    5.7470    0.3570    0.5790 H   0  0  0  0  0  0  0  0  0  0  0  0
    5.7530   -0.6830    4.6600 H   0  0  0  0  0  0  0  0  0  0  0  0
    0.6080   -0.1700   -0.0390 N   0  0  0  0  0  0  0  0  0  0  0  0
   -0.7880   -0.2520    0.3470 C   0  0  1  0  0  0  0  0  0  0  0  0
   -1.4560    1.0650    0.1810 C   0  0  0  0  0  0  0  0  0  0  0  0
   -0.8430    2.1500    0.9790 C   0  0  0  0  0  0  0  0  0  0  0  0
   -1.1780    2.5300    2.2620 C   0  0  0  0  0  0  0  0  0  0  0  0
   -0.3940    3.5550    2.6050 N   0  0  0  0  0  0  0  0  0  0  0  0
    0.4180    3.8300    1.5840 C   0  0  0  0  0  0  0  0  0  0  0  0
    0.1460    2.9720    0.5880 N   0  0  0  0  0  0  0  0  0  0  0  0
   -1.4060   -1.2890   -0.5490 C   0  0  0  0  0  0  0  0  0  0  0  0
   -0.6900   -1.9290   -1.3630 O   0  0  0  0  0  0  0  0  0  0  0  0
    0.8980    0.3060   -0.9460 H   0  0  0  0  0  0  0  0  0  0  0  0
   -0.8500   -0.5640    1.4000 H   0  0  0  0  0  0  0  0  0  0  0  0
   -1.5380    1.4010   -0.8800 H   0  0  0  0  0  0  0  0  0  0  0  0
   -2.5320    1.0110    0.5380 H   0  0  0  0  0  0  0  0  0  0  0  0
   -1.9320    2.1110    2.9240 H   0  0  0  0  0  0  0  0  0  0  0  0
   -0.3690    4.0990    3.5110 H   0  0  0  0  0  0  0  0  0  0  0  0
    1.1810    4.6200    1.5430 H   0  0  0  0  0  0  0  0  0  0  0  0
   -2.7880   -1.6100   -0.5440 N   0  0  0  0  0  0  0  0  0  0  0  0
   -3.3940   -2.5910   -1.3770 C   0  0  1  0  0  0  0  0  0  0  0  0
   -4.0790   -3.6480   -0.5600 C   0  0  0  0  0  0  0  0  0  0  0  0
   -3.1790   -4.4230    0.3540 C   0  0  0  0  0  0  0  0  0  0  0  0
   -2.5020   -3.6210    1.3870 C   0  0  0  0  0  0  0  0  0  0  0  0
   -3.1450   -2.7900    2.1120 O   0  0  0  0  0  0  0  0  0  0  0  0
   -4.4000   -2.0610   -2.3330 C   0  0  0  0  0  0  0  0  0  0  0  0
   -4.9360   -2.9290   -3.0890 O   0  0  0  0  0  0  0  0  0  0  0  0
   -1.1430   -3.7520    1.5960 O   0  0  0  0  0  0  0  0  0  0  0  0
   -4.7840   -0.7520   -2.4600 O   0  0  0  0  0  0  0  0  0  0  0  0
   -3.3790   -1.0450    0.1340 H   0  0  0  0  0  0  0  0  0  0  0  0
   -2.6530   -3.1360   -2.0170 H   0  0  0  0  0  0  0  0  0  0  0  0
   -4.8680   -3.1900    0.1110 H   0  0  0  0  0  0  0  0  0  0  0  0
   -4.6780   -4.3460   -1.2060 H   0  0  0  0  0  0  0  0  0  0  0  0
   -3.8500   -5.1400    0.9140 H   0  0  0  0  0  0  0  0  0  0  0  0
   -2.4560   -5.0790   -0.1610 H   0  0  0  0  0  0  0  0  0  0  0  0
   -0.6240   -3.0730    2.1670 H   0  0  0  0  0  0  0  0  0  0  0  0
  1 10  1  0  0  0  0
  1  2  1  0  0  0  0
  2 12  1  6  0  0  0
  2  7  1  0  0  0  0
  2  3  1  0  0  0  0
  3 14  1  0  0  0  0
  3 13  1  0  0  0  0
  4  3  1  0  0  0  0
  4  5  1  0  0  0  0
  5  6  2  0  0  0  0
  5  9  1  0  0  0  0
  7  8  2  0  0  0  0
  9 17  1  0  0  0  0
 11  1  1  0  0  0  0
 15  4  1  0  0  0  0
 16  4  1  0  0  0  0
 18 19  1  0  0  0  0
 18  7  1  0  0  0  0
 19 29  1  1  0  0  0
 20 19  1  0  0  0  0
 20 31  1  0  0  0  0
 20 21  1  0  0  0  0
 21 22  2  0  0  0  0
 22 23  1  0  0  0  0
 22 32  1  0  0  0  0
 23 33  1  0  0  0  0
 24 23  1  0  0  0  0
 25 21  1  0  0  0  0
 25 24  2  0  0  0  0
 26 35  1  0  0  0  0
 26 19  1  0  0  0  0
 27 26  2  0  0  0  0
 28 18  1  0  0  0  0
 30 20  1  0  0  0  0
 34 24  1  0  0  0  0
 35 45  1  0  0  0  0
 36 46  1  6  0  0  0
 36 37  1  0  0  0  0
 36 35  1  0  0  0  0
 37 47  1  0  0  0  0
 37 38  1  0  0  0  0
 38 49  1  0  0  0  0
 38 39  1  0  0  0  0
 39 43  1  0  0  0  0
 39 40  2  0  0  0  0
 41 36  1  0  0  0  0
 42 41  2  0  0  0  0
 43 51  1  0  0  0  0
 44 41  1  0  0  0  0
 48 37  1  0  0  0  0
 50 38  1  0  0  0  0
M  END
$$$$
