EHF.pdb
 OpenBabel07022418183D

 55 56  0  0  1  0  0  0  0  0999 V2000
    2.8860   -0.4030    3.4860 N   0  0  0  0  0  0  0  0  0  0  0  0
    2.9700    0.8530    2.8080 C   0  0  1  0  0  0  0  0  0  0  0  0
    4.2600    0.9700    2.0650 C   0  0  0  0  0  0  0  0  0  0  0  0
    5.4160    0.8710    3.0330 C   0  0  0  0  0  0  0  0  0  0  0  0
    5.2690    1.9850    4.0030 C   0  0  0  0  0  0  0  0  0  0  0  0
    5.6130    3.1370    3.6490 O   0  0  0  0  0  0  0  0  0  0  0  0
    1.7960    1.0850    1.8900 C   0  0  0  0  0  0  0  0  0  0  0  0
    1.7050    2.1690    1.2880 O   0  0  0  0  0  0  0  0  0  0  0  0
    4.7690    1.8120    5.2800 O   0  0  0  0  0  0  0  0  0  0  0  0
    3.6080   -0.4500    4.2430 H   0  0  0  0  0  0  0  0  0  0  0  0
    1.9680   -0.5000    3.9930 H   0  0  0  0  0  0  0  0  0  0  0  0
    2.8880    1.6490    3.5780 H   0  0  0  0  0  0  0  0  0  0  0  0
    4.3730    0.1630    1.2920 H   0  0  0  0  0  0  0  0  0  0  0  0
    4.2900    1.9470    1.5470 H   0  0  0  0  0  0  0  0  0  0  0  0
    6.3990    1.0200    2.4840 H   0  0  0  0  0  0  0  0  0  0  0  0
    5.4650   -0.0790    3.5710 H   0  0  0  0  0  0  0  0  0  0  0  0
    5.0280    2.4240    6.0590 H   0  0  0  0  0  0  0  0  0  0  0  0
    0.8070    0.1010    1.7050 N   0  0  0  0  0  0  0  0  0  0  0  0
   -0.3780    0.1280    0.9170 C   0  0  1  0  0  0  0  0  0  0  0  0
   -0.6610    1.4250    0.1780 C   0  0  0  0  0  0  0  0  0  0  0  0
   -0.9270    2.5610    1.0930 C   0  0  0  0  0  0  0  0  0  0  0  0
   -1.1730    3.8730    0.7470 C   0  0  0  0  0  0  0  0  0  0  0  0
   -1.3660    4.6140    1.8470 N   0  0  0  0  0  0  0  0  0  0  0  0
   -1.2490    3.7950    2.9070 C   0  0  0  0  0  0  0  0  0  0  0  0
   -0.9830    2.5560    2.4430 N   0  0  0  0  0  0  0  0  0  0  0  0
   -0.4850   -1.0400    0.0810 C   0  0  0  0  0  0  0  0  0  0  0  0
    0.4230   -1.9430    0.0960 O   0  0  0  0  0  0  0  0  0  0  0  0
    1.0020   -0.8080    2.2550 H   0  0  0  0  0  0  0  0  0  0  0  0
   -1.2170    0.2090    1.7280 H   0  0  0  0  0  0  0  0  0  0  0  0
    0.1350    1.6590   -0.5590 H   0  0  0  0  0  0  0  0  0  0  0  0
   -1.5910    1.2470   -0.4000 H   0  0  0  0  0  0  0  0  0  0  0  0
   -1.2090    4.2700   -0.2640 H   0  0  0  0  0  0  0  0  0  0  0  0
   -1.5700    5.6300    1.9140 H   0  0  0  0  0  0  0  0  0  0  0  0
   -1.3390    4.0210    3.9670 H   0  0  0  0  0  0  0  0  0  0  0  0
   -1.5630   -1.3170   -0.8210 N   0  0  0  0  0  0  0  0  0  0  0  0
   -1.6070   -2.5220   -1.6400 C   0  0  1  0  0  0  0  0  0  0  0  0
   -2.8680   -3.2260   -1.2220 C   0  0  0  0  0  0  0  0  0  0  0  0
   -3.1680   -4.4770   -1.8920 C   0  0  0  0  0  0  0  0  0  0  0  0
   -3.9420   -4.4460   -3.0310 C   0  0  0  0  0  0  0  0  0  0  0  0
   -4.2680   -5.6020   -3.7280 C   0  0  0  0  0  0  0  0  0  0  0  0
   -3.8160   -6.8010   -3.2840 C   0  0  0  0  0  0  0  0  0  0  0  0
   -3.0400   -6.8600   -2.1480 C   0  0  0  0  0  0  0  0  0  0  0  0
   -2.7160   -5.7040   -1.4530 C   0  0  0  0  0  0  0  0  0  0  0  0
   -1.7280   -2.1070   -3.0530 C   0  0  0  0  0  0  0  0  0  0  0  0
   -1.8050   -0.8860   -3.3420 O   0  0  0  0  0  0  0  0  0  0  0  0
   -1.7630   -2.9990   -4.1190 O   0  0  0  0  0  0  0  0  0  0  0  0
   -2.3240   -0.6050   -0.8620 H   0  0  0  0  0  0  0  0  0  0  0  0
   -0.6960   -3.1150   -1.4470 H   0  0  0  0  0  0  0  0  0  0  0  0
   -2.8410   -3.4350   -0.1120 H   0  0  0  0  0  0  0  0  0  0  0  0
   -3.7270   -2.5340   -1.3480 H   0  0  0  0  0  0  0  0  0  0  0  0
   -4.3550   -3.5270   -3.4610 H   0  0  0  0  0  0  0  0  0  0  0  0
   -4.8900   -5.5460   -4.6370 H   0  0  0  0  0  0  0  0  0  0  0  0
   -4.0900   -7.6820   -3.8540 H   0  0  0  0  0  0  0  0  0  0  0  0
   -2.7040   -7.8360   -1.8320 H   0  0  0  0  0  0  0  0  0  0  0  0
   -2.1030   -5.8160   -0.5690 H   0  0  0  0  0  0  0  0  0  0  0  0
  1 11  1  0  0  0  0
  1 10  1  0  0  0  0
  2  1  1  0  0  0  0
  2 12  1  1  0  0  0
  3  2  1  0  0  0  0
  3  4  1  0  0  0  0
  4 16  1  0  0  0  0
  4  5  1  0  0  0  0
  5  9  1  0  0  0  0
  6  5  2  0  0  0  0
  7  2  1  0  0  0  0
  8  7  2  0  0  0  0
  9 17  1  0  0  0  0
 13  3  1  0  0  0  0
 14  3  1  0  0  0  0
 15  4  1  0  0  0  0
 18  7  1  0  0  0  0
 18 28  1  0  0  0  0
 19 18  1  0  0  0  0
 19 29  1  1  0  0  0
 20 19  1  0  0  0  0
 20 21  1  0  0  0  0
 21 25  1  0  0  0  0
 22 21  2  0  0  0  0
 22 23  1  0  0  0  0
 23 33  1  0  0  0  0
 23 24  1  0  0  0  0
 24 34  1  0  0  0  0
 25 24  2  0  0  0  0
 26 27  2  0  0  0  0
 26 19  1  0  0  0  0
 30 20  1  0  0  0  0
 31 20  1  0  0  0  0
 32 22  1  0  0  0  0
 35 26  1  0  0  0  0
 36 48  1  1  0  0  0
 36 37  1  0  0  0  0
 36 35  1  0  0  0  0
 37 49  1  0  0  0  0
 38 43  1  0  0  0  0
 38 37  1  0  0  0  0
 39 38  2  0  0  0  0
 40 41  2  0  0  0  0
 40 39  1  0  0  0  0
 41 42  1  0  0  0  0
 42 54  1  0  0  0  0
 42 43  2  0  0  0  0
 43 55  1  0  0  0  0
 44 36  1  0  0  0  0
 45 44  1  0  0  0  0
 46 44  2  0  0  0  0
 47 35  1  0  0  0  0
 50 37  1  0  0  0  0
 51 39  1  0  0  0  0
 52 40  1  0  0  0  0
 53 41  1  0  0  0  0
M  END
$$$$
