EHI.pdb
 OpenBabel07022418183D

 54 54  0  0  1  0  0  0  0  0999 V2000
    3.5940    2.6120   -0.9820 N   0  0  0  0  0  0  0  0  0  0  0  0
    3.2720    1.1760   -0.7950 C   0  0  1  0  0  0  0  0  0  0  0  0
    4.3920    0.5090   -0.0600 C   0  0  0  0  0  0  0  0  0  0  0  0
    4.1070   -0.9320    0.1630 C   0  0  0  0  0  0  0  0  0  0  0  0
    5.2580   -1.5790    0.8640 C   0  0  0  0  0  0  0  0  0  0  0  0
    5.1490   -2.8050    1.1160 O   0  0  0  0  0  0  0  0  0  0  0  0
    1.9750    1.1770   -0.0170 C   0  0  0  0  0  0  0  0  0  0  0  0
    1.6660    2.1870    0.6660 O   0  0  0  0  0  0  0  0  0  0  0  0
    6.3430   -0.8030    1.1810 O   0  0  0  0  0  0  0  0  0  0  0  0
    2.7280    3.1460   -1.1980 H   0  0  0  0  0  0  0  0  0  0  0  0
    4.3610    2.7410   -1.6500 H   0  0  0  0  0  0  0  0  0  0  0  0
    3.1050    0.7830   -1.8140 H   0  0  0  0  0  0  0  0  0  0  0  0
    4.5460    1.0380    0.9040 H   0  0  0  0  0  0  0  0  0  0  0  0
    5.2990    0.6110   -0.7010 H   0  0  0  0  0  0  0  0  0  0  0  0
    3.9270   -1.4510   -0.7950 H   0  0  0  0  0  0  0  0  0  0  0  0
    3.1770   -1.0660    0.7730 H   0  0  0  0  0  0  0  0  0  0  0  0
    7.1570   -1.2400    1.5840 H   0  0  0  0  0  0  0  0  0  0  0  0
    1.1090    0.0600   -0.0510 N   0  0  0  0  0  0  0  0  0  0  0  0
   -0.1360   -0.1190    0.6480 C   0  0  1  0  0  0  0  0  0  0  0  0
   -0.4890    0.9840    1.6250 C   0  0  0  0  0  0  0  0  0  0  0  0
    0.5290    0.9830    2.7060 C   0  0  0  0  0  0  0  0  0  0  0  0
    0.6130    1.8440    3.7900 C   0  0  0  0  0  0  0  0  0  0  0  0
    1.6740    1.5010    4.5220 N   0  0  0  0  0  0  0  0  0  0  0  0
    2.2730    0.4510    3.9460 C   0  0  0  0  0  0  0  0  0  0  0  0
    1.5850    0.1360    2.8490 N   0  0  0  0  0  0  0  0  0  0  0  0
   -1.2110   -0.5180   -0.2540 C   0  0  0  0  0  0  0  0  0  0  0  0
   -0.9470   -0.6570   -1.4970 O   0  0  0  0  0  0  0  0  0  0  0  0
    1.4500   -0.7300   -0.7100 H   0  0  0  0  0  0  0  0  0  0  0  0
    0.1080   -0.9820    1.3890 H   0  0  0  0  0  0  0  0  0  0  0  0
   -1.4420    0.6380    2.1210 H   0  0  0  0  0  0  0  0  0  0  0  0
   -0.5950    1.9700    1.1750 H   0  0  0  0  0  0  0  0  0  0  0  0
   -0.0910    2.6320    3.9540 H   0  0  0  0  0  0  0  0  0  0  0  0
    1.9550    2.0040    5.4020 H   0  0  0  0  0  0  0  0  0  0  0  0
    3.1460   -0.0350    4.3110 H   0  0  0  0  0  0  0  0  0  0  0  0
   -3.2740   -4.8700    0.0520 C   0  0  0  0  0  0  0  0  0  0  0  0
   -2.8790   -3.5130   -0.4310 C   0  0  0  0  0  0  0  0  0  0  0  0
   -4.0520   -2.5620   -0.3390 C   0  0  2  0  0  0  0  0  0  0  0  0
   -5.1680   -3.0820   -1.1840 C   0  0  0  0  0  0  0  0  0  0  0  0
   -3.6000   -1.1630   -0.7710 C   0  0  2  0  0  0  0  0  0  0  0  0
   -2.5450   -0.7690    0.1290 N   0  0  0  0  0  0  0  0  0  0  0  0
   -4.7530   -0.2450   -0.7270 C   0  0  0  0  0  0  0  0  0  0  0  0
   -5.7430   -0.4500   -1.4470 O   0  0  0  0  0  0  0  0  0  0  0  0
   -4.7200    0.8400    0.1180 O   0  0  0  0  0  0  0  0  0  0  0  0
   -3.2700   -5.6270   -0.7860 H   0  0  0  0  0  0  0  0  0  0  0  0
   -2.5410   -5.2600    0.7870 H   0  0  0  0  0  0  0  0  0  0  0  0
   -4.2740   -4.8890    0.5580 H   0  0  0  0  0  0  0  0  0  0  0  0
   -2.0170   -3.1580    0.1660 H   0  0  0  0  0  0  0  0  0  0  0  0
   -2.5100   -3.6150   -1.4740 H   0  0  0  0  0  0  0  0  0  0  0  0
   -4.3070   -2.4830    0.7410 H   0  0  0  0  0  0  0  0  0  0  0  0
   -5.0520   -4.1680   -1.3680 H   0  0  0  0  0  0  0  0  0  0  0  0
   -5.1200   -2.5850   -2.1760 H   0  0  0  0  0  0  0  0  0  0  0  0
   -6.1680   -2.9480   -0.7220 H   0  0  0  0  0  0  0  0  0  0  0  0
   -3.2800   -1.2570   -1.8120 H   0  0  0  0  0  0  0  0  0  0  0  0
   -2.7870   -0.6620    1.1380 H   0  0  0  0  0  0  0  0  0  0  0  0
  1  2  1  0  0  0  0
  2 12  1  6  0  0  0
  2  3  1  0  0  0  0
  2  7  1  0  0  0  0
  3  4  1  0  0  0  0
  3 13  1  0  0  0  0
  4 16  1  0  0  0  0
  4  5  1  0  0  0  0
  5  6  2  0  0  0  0
  5  9  1  0  0  0  0
  7  8  2  0  0  0  0
  9 17  1  0  0  0  0
 10  1  1  0  0  0  0
 11  1  1  0  0  0  0
 14  3  1  0  0  0  0
 15  4  1  0  0  0  0
 18  7  1  0  0  0  0
 18 19  1  0  0  0  0
 19 29  1  1  0  0  0
 19 20  1  0  0  0  0
 20 30  1  0  0  0  0
 20 21  1  0  0  0  0
 21 25  1  0  0  0  0
 21 22  2  0  0  0  0
 22 32  1  0  0  0  0
 22 23  1  0  0  0  0
 23 33  1  0  0  0  0
 24 34  1  0  0  0  0
 24 23  1  0  0  0  0
 25 24  2  0  0  0  0
 26 40  1  0  0  0  0
 26 19  1  0  0  0  0
 27 26  2  0  0  0  0
 28 18  1  0  0  0  0
 31 20  1  0  0  0  0
 35 46  1  0  0  0  0
 35 45  1  0  0  0  0
 36 37  1  0  0  0  0
 36 35  1  0  0  0  0
 36 47  1  0  0  0  0
 37 49  1  1  0  0  0
 38 52  1  0  0  0  0
 38 37  1  0  0  0  0
 39 53  1  6  0  0  0
 39 41  1  0  0  0  0
 39 37  1  0  0  0  0
 39 40  1  0  0  0  0
 40 54  1  0  0  0  0
 41 43  1  0  0  0  0
 42 41  2  0  0  0  0
 44 35  1  0  0  0  0
 48 36  1  0  0  0  0
 50 38  1  0  0  0  0
 51 38  1  0  0  0  0
M  END
$$$$
