EHK.pdb
 OpenBabel07022418183D

 56 56  0  0  1  0  0  0  0  0999 V2000
    4.5240   -1.6110    1.0480 N   0  0  0  0  0  0  0  0  0  0  0  0
    3.7710   -1.1530    2.2280 C   0  0  1  0  0  0  0  0  0  0  0  0
    4.3340    0.1770    2.5990 C   0  0  0  0  0  0  0  0  0  0  0  0
    3.7000    0.8250    3.7910 C   0  0  0  0  0  0  0  0  0  0  0  0
    4.3570    2.1390    4.0560 C   0  0  0  0  0  0  0  0  0  0  0  0
    5.2970    2.5620    3.3370 O   0  0  0  0  0  0  0  0  0  0  0  0
    2.3660   -1.0070    1.7840 C   0  0  0  0  0  0  0  0  0  0  0  0
    1.4430   -0.6100    2.5660 O   0  0  0  0  0  0  0  0  0  0  0  0
    3.9410    2.9320    5.1140 O   0  0  0  0  0  0  0  0  0  0  0  0
    4.5350   -0.8900    0.3100 H   0  0  0  0  0  0  0  0  0  0  0  0
    5.5270   -1.7570    1.3330 H   0  0  0  0  0  0  0  0  0  0  0  0
    3.8770   -1.8910    3.0400 H   0  0  0  0  0  0  0  0  0  0  0  0
    4.1870    0.8720    1.7360 H   0  0  0  0  0  0  0  0  0  0  0  0
    5.4260    0.1310    2.7590 H   0  0  0  0  0  0  0  0  0  0  0  0
    2.6300    1.0540    3.6700 H   0  0  0  0  0  0  0  0  0  0  0  0
    3.7880    0.1970    4.7150 H   0  0  0  0  0  0  0  0  0  0  0  0
    4.6160    3.4770    5.6650 H   0  0  0  0  0  0  0  0  0  0  0  0
    1.9340   -1.2970    0.4480 N   0  0  0  0  0  0  0  0  0  0  0  0
    0.5590   -1.1400    0.0640 C   0  0  1  0  0  0  0  0  0  0  0  0
    0.4510   -0.1550   -1.0810 C   0  0  0  0  0  0  0  0  0  0  0  0
    0.9700    1.1780   -0.7400 C   0  0  0  0  0  0  0  0  0  0  0  0
    0.2510    2.2370   -0.1910 C   0  0  0  0  0  0  0  0  0  0  0  0
    1.0440    3.2950   -0.0150 N   0  0  0  0  0  0  0  0  0  0  0  0
    2.2690    2.9300   -0.4440 C   0  0  0  0  0  0  0  0  0  0  0  0
    2.2280    1.6710   -0.8760 N   0  0  0  0  0  0  0  0  0  0  0  0
   -0.0630   -2.4040   -0.3940 C   0  0  0  0  0  0  0  0  0  0  0  0
    0.5100   -3.4960   -0.4670 O   0  0  0  0  0  0  0  0  0  0  0  0
    2.6350   -1.6270   -0.2480 H   0  0  0  0  0  0  0  0  0  0  0  0
   -0.0820   -0.7610    0.8830 H   0  0  0  0  0  0  0  0  0  0  0  0
    1.1030   -0.5520   -1.9070 H   0  0  0  0  0  0  0  0  0  0  0  0
   -0.6070   -0.0720   -1.4310 H   0  0  0  0  0  0  0  0  0  0  0  0
   -0.8010    2.1670    0.0430 H   0  0  0  0  0  0  0  0  0  0  0  0
    0.7730    4.2170    0.3750 H   0  0  0  0  0  0  0  0  0  0  0  0
    3.1250    3.5810   -0.4250 H   0  0  0  0  0  0  0  0  0  0  0  0
   -1.4310   -2.3500   -0.7790 N   0  0  0  0  0  0  0  0  0  0  0  0
   -2.1830   -3.4940   -1.2470 C   0  0  1  0  0  0  0  0  0  0  0  0
   -3.2570   -3.9230   -0.3050 C   0  0  0  0  0  0  0  0  0  0  0  0
   -4.3050   -2.9170    0.0030 C   0  0  0  0  0  0  0  0  0  0  0  0
   -5.0690   -2.4600   -1.2060 C   0  0  0  0  0  0  0  0  0  0  0  0
   -6.1000   -1.4420   -0.7140 C   0  0  0  0  0  0  0  0  0  0  0  0
   -5.3600   -0.3540   -0.0940 N   0  0  0  0  0  0  0  0  0  0  0  0
   -2.5720   -3.3940   -2.6540 C   0  0  0  0  0  0  0  0  0  0  0  0
   -3.2460   -4.2920   -3.1870 O   0  0  0  0  0  0  0  0  0  0  0  0
   -2.1930   -2.3030   -3.3990 O   0  0  0  0  0  0  0  0  0  0  0  0
   -1.9570   -1.4410   -0.7320 H   0  0  0  0  0  0  0  0  0  0  0  0
   -1.4230   -4.3450   -1.2240 H   0  0  0  0  0  0  0  0  0  0  0  0
   -2.7890   -4.2170    0.6710 H   0  0  0  0  0  0  0  0  0  0  0  0
   -3.6940   -4.8650   -0.7000 H   0  0  0  0  0  0  0  0  0  0  0  0
   -3.8870   -2.0740    0.5920 H   0  0  0  0  0  0  0  0  0  0  0  0
   -5.0530   -3.4280    0.6720 H   0  0  0  0  0  0  0  0  0  0  0  0
   -5.5680   -3.3470   -1.6430 H   0  0  0  0  0  0  0  0  0  0  0  0
   -4.4640   -1.9280   -1.9440 H   0  0  0  0  0  0  0  0  0  0  0  0
   -6.8030   -1.9220    0.0050 H   0  0  0  0  0  0  0  0  0  0  0  0
   -6.6370   -1.0920   -1.6140 H   0  0  0  0  0  0  0  0  0  0  0  0
   -5.9180    0.5330   -0.1470 H   0  0  0  0  0  0  0  0  0  0  0  0
   -4.4510   -0.2780   -0.5950 H   0  0  0  0  0  0  0  0  0  0  0  0
  1 11  1  0  0  0  0
  1  2  1  0  0  0  0
  2  3  1  0  0  0  0
  2 12  1  1  0  0  0
  3 14  1  0  0  0  0
  3  4  1  0  0  0  0
  4  5  1  0  0  0  0
  4 16  1  0  0  0  0
  5  9  1  0  0  0  0
  6  5  2  0  0  0  0
  7  2  1  0  0  0  0
  7  8  2  0  0  0  0
  9 17  1  0  0  0  0
 10  1  1  0  0  0  0
 13  3  1  0  0  0  0
 15  4  1  0  0  0  0
 18  7  1  0  0  0  0
 19 18  1  0  0  0  0
 19 29  1  1  0  0  0
 20 21  1  0  0  0  0
 20 19  1  0  0  0  0
 21 22  2  0  0  0  0
 22 23  1  0  0  0  0
 22 32  1  0  0  0  0
 23 33  1  0  0  0  0
 24 34  1  0  0  0  0
 24 23  1  0  0  0  0
 25 21  1  0  0  0  0
 25 24  2  0  0  0  0
 26 19  1  0  0  0  0
 27 26  2  0  0  0  0
 28 18  1  0  0  0  0
 30 20  1  0  0  0  0
 31 20  1  0  0  0  0
 35 45  1  0  0  0  0
 35 26  1  0  0  0  0
 36 46  1  1  0  0  0
 36 35  1  0  0  0  0
 36 37  1  0  0  0  0
 37 38  1  0  0  0  0
 37 47  1  0  0  0  0
 38 49  1  0  0  0  0
 38 50  1  0  0  0  0
 39 40  1  0  0  0  0
 39 38  1  0  0  0  0
 40 41  1  0  0  0  0
 40 53  1  0  0  0  0
 42 36  1  0  0  0  0
 43 42  1  0  0  0  0
 44 42  2  0  0  0  0
 48 37  1  0  0  0  0
 51 39  1  0  0  0  0
 52 39  1  0  0  0  0
 54 40  1  0  0  0  0
 55 41  1  0  0  0  0
 56 41  1  0  0  0  0
M  END
$$$$
