EHM.pdb
 OpenBabel07022418183D

 52 52  0  0  1  0  0  0  0  0999 V2000
    2.3770    0.6580   -1.1430 N   0  0  0  0  0  0  0  0  0  0  0  0
    2.0970   -0.5150   -0.3930 C   0  0  1  0  0  0  0  0  0  0  0  0
    3.2630   -1.2640    0.1340 C   0  0  0  0  0  0  0  0  0  0  0  0
    4.1750   -0.5520    1.0570 C   0  0  0  0  0  0  0  0  0  0  0  0
    4.8640    0.6300    0.5170 C   0  0  0  0  0  0  0  0  0  0  0  0
    5.4810    1.3510    1.3570 O   0  0  0  0  0  0  0  0  0  0  0  0
    1.0290   -0.2670    0.6290 C   0  0  0  0  0  0  0  0  0  0  0  0
    0.4940    0.8610    0.5950 O   0  0  0  0  0  0  0  0  0  0  0  0
    4.9140    1.0380   -0.7880 O   0  0  0  0  0  0  0  0  0  0  0  0
    1.9530    1.4910   -0.6720 H   0  0  0  0  0  0  0  0  0  0  0  0
    2.0520    0.5670   -2.1100 H   0  0  0  0  0  0  0  0  0  0  0  0
    1.5880   -1.2380   -1.1210 H   0  0  0  0  0  0  0  0  0  0  0  0
    2.9670   -2.2390    0.5960 H   0  0  0  0  0  0  0  0  0  0  0  0
    3.8980   -1.5830   -0.7530 H   0  0  0  0  0  0  0  0  0  0  0  0
    3.6880   -0.2350    2.0090 H   0  0  0  0  0  0  0  0  0  0  0  0
    4.9850   -1.2720    1.3630 H   0  0  0  0  0  0  0  0  0  0  0  0
    5.8180    1.3410   -1.1650 H   0  0  0  0  0  0  0  0  0  0  0  0
    0.6400   -1.2330    1.5670 N   0  0  0  0  0  0  0  0  0  0  0  0
   -0.3740   -1.0540    2.5520 C   0  0  1  0  0  0  0  0  0  0  0  0
   -0.4220    0.2950    3.1810 C   0  0  0  0  0  0  0  0  0  0  0  0
    0.7960    0.6910    3.9150 C   0  0  0  0  0  0  0  0  0  0  0  0
    1.8910    1.3840    3.5050 C   0  0  0  0  0  0  0  0  0  0  0  0
    2.7670    1.5380    4.5470 N   0  0  0  0  0  0  0  0  0  0  0  0
    2.2140    0.9380    5.6100 C   0  0  0  0  0  0  0  0  0  0  0  0
    1.0400    0.4310    5.2420 N   0  0  0  0  0  0  0  0  0  0  0  0
   -1.7100   -1.3910    1.9900 C   0  0  0  0  0  0  0  0  0  0  0  0
   -2.7240   -1.3030    2.7230 O   0  0  0  0  0  0  0  0  0  0  0  0
    1.1590   -2.1660    1.5180 H   0  0  0  0  0  0  0  0  0  0  0  0
   -0.1930   -1.7870    3.4110 H   0  0  0  0  0  0  0  0  0  0  0  0
   -0.7470    1.0810    2.4540 H   0  0  0  0  0  0  0  0  0  0  0  0
   -1.2930    0.3060    3.9310 H   0  0  0  0  0  0  0  0  0  0  0  0
    2.0850    1.7770    2.5200 H   0  0  0  0  0  0  0  0  0  0  0  0
    3.6690    2.0240    4.5000 H   0  0  0  0  0  0  0  0  0  0  0  0
    2.6800    0.8950    6.5940 H   0  0  0  0  0  0  0  0  0  0  0  0
   -4.3710   -0.6520   -4.3730 C   0  0  0  0  0  0  0  0  0  0  0  0
   -5.3670   -0.4190   -2.9190 S   0  0  0  0  0  0  0  0  0  0  0  0
   -4.9190   -1.5170   -1.5460 C   0  0  0  0  0  0  0  0  0  0  0  0
   -3.5660   -1.2350   -1.0060 C   0  0  0  0  0  0  0  0  0  0  0  0
   -3.2030   -2.1240    0.1520 C   0  0  2  0  0  0  0  0  0  0  0  0
   -1.8780   -1.8070    0.6560 N   0  0  0  0  0  0  0  0  0  0  0  0
   -3.2100   -3.5380   -0.2670 C   0  0  0  0  0  0  0  0  0  0  0  0
   -2.0970   -4.1710   -0.1880 O   0  0  0  0  0  0  0  0  0  0  0  0
   -4.2780   -4.2560   -0.7300 O   0  0  0  0  0  0  0  0  0  0  0  0
   -3.6120   -1.4300   -4.3210 H   0  0  0  0  0  0  0  0  0  0  0  0
   -5.0360   -0.8210   -5.2470 H   0  0  0  0  0  0  0  0  0  0  0  0
   -3.8140    0.3110   -4.5710 H   0  0  0  0  0  0  0  0  0  0  0  0
   -5.7050   -1.3930   -0.7680 H   0  0  0  0  0  0  0  0  0  0  0  0
   -5.0440   -2.5440   -1.9410 H   0  0  0  0  0  0  0  0  0  0  0  0
   -3.4110   -0.1730   -0.7210 H   0  0  0  0  0  0  0  0  0  0  0  0
   -2.8460   -1.3790   -1.8680 H   0  0  0  0  0  0  0  0  0  0  0  0
   -3.9640   -2.0060    0.9690 H   0  0  0  0  0  0  0  0  0  0  0  0
   -1.0620   -1.8860    0.0370 H   0  0  0  0  0  0  0  0  0  0  0  0
  1 10  1  0  0  0  0
  1  2  1  0  0  0  0
  2 12  1  6  0  0  0
  2  3  1  0  0  0  0
  2  7  1  0  0  0  0
  3 13  1  0  0  0  0
  3  4  1  0  0  0  0
  4 16  1  0  0  0  0
  4 15  1  0  0  0  0
  5  4  1  0  0  0  0
  5  6  2  0  0  0  0
  7 18  1  0  0  0  0
  8  7  2  0  0  0  0
  9  5  1  0  0  0  0
 11  1  1  0  0  0  0
 14  3  1  0  0  0  0
 17  9  1  0  0  0  0
 18 19  1  0  0  0  0
 19 20  1  0  0  0  0
 19 29  1  1  0  0  0
 20 21  1  0  0  0  0
 20 31  1  0  0  0  0
 21 25  1  0  0  0  0
 22 21  2  0  0  0  0
 22 23  1  0  0  0  0
 23 24  1  0  0  0  0
 24 34  1  0  0  0  0
 25 24  2  0  0  0  0
 26 19  1  0  0  0  0
 26 27  2  0  0  0  0
 28 18  1  0  0  0  0
 30 20  1  0  0  0  0
 32 22  1  0  0  0  0
 33 23  1  0  0  0  0
 35 44  1  0  0  0  0
 35 36  1  0  0  0  0
 36 37  1  0  0  0  0
 37 38  1  0  0  0  0
 37 47  1  0  0  0  0
 38 49  1  0  0  0  0
 38 39  1  0  0  0  0
 39 40  1  0  0  0  0
 39 51  1  1  0  0  0
 40 26  1  0  0  0  0
 41 42  1  0  0  0  0
 41 39  1  0  0  0  0
 43 41  2  0  0  0  0
 45 35  1  0  0  0  0
 46 35  1  0  0  0  0
 48 37  1  0  0  0  0
 50 38  1  0  0  0  0
 52 40  1  0  0  0  0
M  END
$$$$
