EHN.pdb
 OpenBabel07022418183D

 49 49  0  0  1  0  0  0  0  0999 V2000
    2.5730    0.3480   -1.2700 N   0  0  0  0  0  0  0  0  0  0  0  0
    2.1860   -0.7730   -0.4870 C   0  0  1  0  0  0  0  0  0  0  0  0
    3.2530   -1.4180    0.3160 C   0  0  0  0  0  0  0  0  0  0  0  0
    3.9360   -0.5810    1.3310 C   0  0  0  0  0  0  0  0  0  0  0  0
    4.6610    0.5810    0.8360 C   0  0  0  0  0  0  0  0  0  0  0  0
    5.0740    1.4210    1.7110 O   0  0  0  0  0  0  0  0  0  0  0  0
    0.9660   -0.3910    0.3160 C   0  0  0  0  0  0  0  0  0  0  0  0
    0.4720    0.7260    0.0640 O   0  0  0  0  0  0  0  0  0  0  0  0
    4.9680    0.8980   -0.4690 O   0  0  0  0  0  0  0  0  0  0  0  0
    2.2300    1.2650   -0.8610 H   0  0  0  0  0  0  0  0  0  0  0  0
    2.1690    0.2960   -2.2220 H   0  0  0  0  0  0  0  0  0  0  0  0
    1.7800   -1.5400   -1.2310 H   0  0  0  0  0  0  0  0  0  0  0  0
    4.0540   -1.7330   -0.4250 H   0  0  0  0  0  0  0  0  0  0  0  0
    2.9260   -2.3890    0.7540 H   0  0  0  0  0  0  0  0  0  0  0  0
    3.2570   -0.2850    2.1770 H   0  0  0  0  0  0  0  0  0  0  0  0
    4.7110   -1.2450    1.8320 H   0  0  0  0  0  0  0  0  0  0  0  0
    5.8190    1.3900   -0.6810 H   0  0  0  0  0  0  0  0  0  0  0  0
    0.4160   -1.2350    1.2840 N   0  0  0  0  0  0  0  0  0  0  0  0
   -0.7250   -0.9480    2.0780 C   0  0  1  0  0  0  0  0  0  0  0  0
   -0.8920    0.4950    2.5150 C   0  0  0  0  0  0  0  0  0  0  0  0
    0.1950    0.9970    3.3600 C   0  0  0  0  0  0  0  0  0  0  0  0
    1.3440    1.6520    3.0390 C   0  0  0  0  0  0  0  0  0  0  0  0
    2.0110    1.9210    4.2050 N   0  0  0  0  0  0  0  0  0  0  0  0
    1.2950    1.4470    5.2160 C   0  0  0  0  0  0  0  0  0  0  0  0
    0.2000    0.8880    4.7230 N   0  0  0  0  0  0  0  0  0  0  0  0
   -1.9680   -1.3860    1.4290 C   0  0  0  0  0  0  0  0  0  0  0  0
   -3.1090   -1.2490    1.9550 O   0  0  0  0  0  0  0  0  0  0  0  0
    0.8920   -2.1770    1.4460 H   0  0  0  0  0  0  0  0  0  0  0  0
   -0.6090   -1.4790    3.1110 H   0  0  0  0  0  0  0  0  0  0  0  0
   -1.8460    0.4980    3.1280 H   0  0  0  0  0  0  0  0  0  0  0  0
   -1.0890    1.1020    1.6280 H   0  0  0  0  0  0  0  0  0  0  0  0
    1.7180    1.9430    2.0500 H   0  0  0  0  0  0  0  0  0  0  0  0
    2.9240    2.4170    4.2390 H   0  0  0  0  0  0  0  0  0  0  0  0
    1.5750    1.5140    6.2630 H   0  0  0  0  0  0  0  0  0  0  0  0
   -3.8660    0.4050   -2.9360 N   0  0  0  0  0  0  0  0  0  0  0  0
   -3.5990   -0.3220   -1.7430 C   0  0  0  0  0  0  0  0  0  0  0  0
   -3.5490    0.3290   -0.6740 O   0  0  0  0  0  0  0  0  0  0  0  0
   -3.4010   -1.7820   -1.8590 C   0  0  0  0  0  0  0  0  0  0  0  0
   -3.1330   -2.4520   -0.5500 C   0  0  2  0  0  0  0  0  0  0  0  0
   -1.9790   -2.0050    0.1380 N   0  0  0  0  0  0  0  0  0  0  0  0
   -3.0370   -3.9130   -0.7840 C   0  0  0  0  0  0  0  0  0  0  0  0
   -2.0280   -4.5710   -0.3950 O   0  0  0  0  0  0  0  0  0  0  0  0
   -4.0390   -4.6090   -1.4320 O   0  0  0  0  0  0  0  0  0  0  0  0
   -3.2990    1.2430   -3.1910 H   0  0  0  0  0  0  0  0  0  0  0  0
   -4.6260    0.1390   -3.5990 H   0  0  0  0  0  0  0  0  0  0  0  0
   -4.3440   -2.2050   -2.2590 H   0  0  0  0  0  0  0  0  0  0  0  0
   -2.6200   -2.0330   -2.6270 H   0  0  0  0  0  0  0  0  0  0  0  0
   -4.0530   -2.2880    0.0790 H   0  0  0  0  0  0  0  0  0  0  0  0
   -1.0490   -2.1290   -0.3190 H   0  0  0  0  0  0  0  0  0  0  0  0
  1 10  1  0  0  0  0
  1  2  1  0  0  0  0
  2 12  1  6  0  0  0
  2  3  1  0  0  0  0
  2  7  1  0  0  0  0
  3 14  1  0  0  0  0
  3  4  1  0  0  0  0
  4 16  1  0  0  0  0
  4 15  1  0  0  0  0
  5  4  1  0  0  0  0
  5  6  2  0  0  0  0
  7 18  1  0  0  0  0
  8  7  2  0  0  0  0
  9  5  1  0  0  0  0
 11  1  1  0  0  0  0
 13  3  1  0  0  0  0
 17  9  1  0  0  0  0
 18 28  1  0  0  0  0
 18 19  1  0  0  0  0
 19 20  1  0  0  0  0
 19 29  1  1  0  0  0
 20 30  1  0  0  0  0
 20 21  1  0  0  0  0
 21 25  1  0  0  0  0
 22 21  2  0  0  0  0
 22 23  1  0  0  0  0
 23 33  1  0  0  0  0
 23 24  1  0  0  0  0
 24 34  1  0  0  0  0
 25 24  2  0  0  0  0
 26 27  2  0  0  0  0
 26 19  1  0  0  0  0
 31 20  1  0  0  0  0
 32 22  1  0  0  0  0
 35 36  1  0  0  0  0
 36 37  2  0  0  0  0
 38 36  1  0  0  0  0
 38 39  1  0  0  0  0
 39 48  1  1  0  0  0
 39 40  1  0  0  0  0
 40 26  1  0  0  0  0
 41 39  1  0  0  0  0
 41 42  1  0  0  0  0
 43 41  2  0  0  0  0
 44 35  1  0  0  0  0
 45 35  1  0  0  0  0
 46 38  1  0  0  0  0
 47 38  1  0  0  0  0
 49 40  1  0  0  0  0
M  END
$$$$
