EHP.pdb
 OpenBabel07022418183D

 49 50  0  0  1  0  0  0  0  0999 V2000
    2.2270   -3.6020    1.4260 N   0  0  0  0  0  0  0  0  0  0  0  0
    2.0190   -2.3700    0.5750 C   0  0  1  0  0  0  0  0  0  0  0  0
    1.5400   -2.8410   -0.7460 C   0  0  0  0  0  0  0  0  0  0  0  0
    1.2940   -1.8480   -1.8150 C   0  0  0  0  0  0  0  0  0  0  0  0
    2.4810   -1.0380   -2.1860 C   0  0  0  0  0  0  0  0  0  0  0  0
    3.6130   -1.1730   -1.6700 O   0  0  0  0  0  0  0  0  0  0  0  0
    1.2010   -1.5070    1.3970 C   0  0  0  0  0  0  0  0  0  0  0  0
    0.9670   -1.8650    2.6220 O   0  0  0  0  0  0  0  0  0  0  0  0
    2.3160   -0.0730   -3.1690 O   0  0  0  0  0  0  0  0  0  0  0  0
    3.1190   -3.5230    1.9310 H   0  0  0  0  0  0  0  0  0  0  0  0
    1.3990   -3.7480    2.0170 H   0  0  0  0  0  0  0  0  0  0  0  0
    3.0600   -1.9720    0.4140 H   0  0  0  0  0  0  0  0  0  0  0  0
    2.2400   -3.6160   -1.1780 H   0  0  0  0  0  0  0  0  0  0  0  0
    0.6140   -3.4660   -0.5330 H   0  0  0  0  0  0  0  0  0  0  0  0
    1.0880   -2.4420   -2.7910 H   0  0  0  0  0  0  0  0  0  0  0  0
    0.3720   -1.2860   -1.6850 H   0  0  0  0  0  0  0  0  0  0  0  0
    2.8530    0.7940   -3.1700 H   0  0  0  0  0  0  0  0  0  0  0  0
    0.5900   -0.2570    1.0510 N   0  0  0  0  0  0  0  0  0  0  0  0
   -0.1690    0.5070    2.0050 C   0  0  1  0  0  0  0  0  0  0  0  0
    0.4360    1.9050    2.0420 C   0  0  0  0  0  0  0  0  0  0  0  0
    1.8560    1.7260    2.4620 C   0  0  0  0  0  0  0  0  0  0  0  0
    2.3210    1.7330    3.7710 C   0  0  0  0  0  0  0  0  0  0  0  0
    3.6370    1.5430    3.7400 N   0  0  0  0  0  0  0  0  0  0  0  0
    4.0390    1.4140    2.4690 C   0  0  0  0  0  0  0  0  0  0  0  0
    2.9350    1.5280    1.6910 N   0  0  0  0  0  0  0  0  0  0  0  0
   -1.6110    0.5330    1.7970 C   0  0  0  0  0  0  0  0  0  0  0  0
   -2.2480    1.3070    2.6500 O   0  0  0  0  0  0  0  0  0  0  0  0
    0.7390    0.0690    0.0820 H   0  0  0  0  0  0  0  0  0  0  0  0
   -0.0010    0.0440    3.0210 H   0  0  0  0  0  0  0  0  0  0  0  0
    0.4370    2.3300    1.0320 H   0  0  0  0  0  0  0  0  0  0  0  0
   -0.0830    2.5660    2.7430 H   0  0  0  0  0  0  0  0  0  0  0  0
    1.7420    1.8660    4.6790 H   0  0  0  0  0  0  0  0  0  0  0  0
    4.2560    1.5000    4.5720 H   0  0  0  0  0  0  0  0  0  0  0  0
    5.0640    1.2510    2.1760 H   0  0  0  0  0  0  0  0  0  0  0  0
   -2.4380   -0.0950    0.8830 N   0  0  0  0  0  0  0  0  0  0  0  0
   -3.9090    0.0750    0.8410 C   0  0  0  0  0  0  0  0  0  0  0  0
   -4.3400   -1.3790    0.8170 C   0  0  0  0  0  0  0  0  0  0  0  0
   -3.3820   -1.9950   -0.1510 C   0  0  0  0  0  0  0  0  0  0  0  0
   -2.1990   -1.0200   -0.1940 C   0  0  1  0  0  0  0  0  0  0  0  0
   -2.3100   -0.3420   -1.5250 C   0  0  0  0  0  0  0  0  0  0  0  0
   -2.5130    0.8860   -1.6620 O   0  0  0  0  0  0  0  0  0  0  0  0
   -2.1740   -1.1620   -2.6550 O   0  0  0  0  0  0  0  0  0  0  0  0
   -4.2670    0.6090    1.7410 H   0  0  0  0  0  0  0  0  0  0  0  0
   -4.1960    0.5660   -0.0860 H   0  0  0  0  0  0  0  0  0  0  0  0
   -4.1680   -1.8370    1.8250 H   0  0  0  0  0  0  0  0  0  0  0  0
   -5.4030   -1.4860    0.5330 H   0  0  0  0  0  0  0  0  0  0  0  0
   -3.8830   -2.0990   -1.1260 H   0  0  0  0  0  0  0  0  0  0  0  0
   -3.0420   -3.0120    0.1450 H   0  0  0  0  0  0  0  0  0  0  0  0
   -1.2650   -1.5680   -0.0660 H   0  0  0  0  0  0  0  0  0  0  0  0
  1 10  1  0  0  0  0
  1 11  1  0  0  0  0
  2 12  1  6  0  0  0
  2  7  1  0  0  0  0
  2  1  1  0  0  0  0
  3 14  1  0  0  0  0
  3  2  1  0  0  0  0
  4 16  1  0  0  0  0
  4  3  1  0  0  0  0
  5  4  1  0  0  0  0
  5  6  2  0  0  0  0
  7  8  2  0  0  0  0
  9  5  1  0  0  0  0
 13  3  1  0  0  0  0
 15  4  1  0  0  0  0
 17  9  1  0  0  0  0
 18  7  1  0  0  0  0
 18 19  1  0  0  0  0
 19 20  1  0  0  0  0
 19 29  1  1  0  0  0
 20 21  1  0  0  0  0
 20 31  1  0  0  0  0
 21 22  2  0  0  0  0
 22 32  1  0  0  0  0
 23 22  1  0  0  0  0
 23 33  1  0  0  0  0
 24 23  1  0  0  0  0
 25 21  1  0  0  0  0
 25 24  2  0  0  0  0
 26 19  1  0  0  0  0
 26 27  2  0  0  0  0
 28 18  1  0  0  0  0
 30 20  1  0  0  0  0
 34 24  1  0  0  0  0
 35 26  1  0  0  0  0
 36 35  1  0  0  0  0
 36 43  1  0  0  0  0
 37 36  1  0  0  0  0
 37 45  1  0  0  0  0
 38 48  1  0  0  0  0
 38 37  1  0  0  0  0
 39 38  1  0  0  0  0
 39 49  1  1  0  0  0
 39 35  1  0  0  0  0
 40 39  1  0  0  0  0
 41 40  1  0  0  0  0
 42 40  2  0  0  0  0
 44 36  1  0  0  0  0
 46 37  1  0  0  0  0
 47 38  1  0  0  0  0
M  END
$$$$
