EHR.pdb
 OpenBabel07022418183D

 58 58  0  0  1  0  0  0  0  0999 V2000
   -1.4840   -0.4920    4.3600 N   0  0  0  0  0  0  0  0  0  0  0  0
   -0.5050    0.5360    3.8460 C   0  0  1  0  0  0  0  0  0  0  0  0
    0.4870    0.6380    4.9460 C   0  0  0  0  0  0  0  0  0  0  0  0
    1.5860    1.6110    4.7590 C   0  0  0  0  0  0  0  0  0  0  0  0
    2.4650    1.3260    3.6180 C   0  0  0  0  0  0  0  0  0  0  0  0
    2.9180    0.1350    3.4950 O   0  0  0  0  0  0  0  0  0  0  0  0
    0.0930   -0.1440    2.6310 C   0  0  0  0  0  0  0  0  0  0  0  0
    0.3770   -1.3540    2.7480 O   0  0  0  0  0  0  0  0  0  0  0  0
    2.8020    2.3280    2.6780 O   0  0  0  0  0  0  0  0  0  0  0  0
   -1.8440   -0.1490    5.2520 H   0  0  0  0  0  0  0  0  0  0  0  0
   -2.3010   -0.5250    3.6860 H   0  0  0  0  0  0  0  0  0  0  0  0
   -1.0320    1.4210    3.5430 H   0  0  0  0  0  0  0  0  0  0  0  0
   -0.0990    0.9360    5.8800 H   0  0  0  0  0  0  0  0  0  0  0  0
    0.8700   -0.3890    5.2090 H   0  0  0  0  0  0  0  0  0  0  0  0
    2.2540    1.5580    5.6800 H   0  0  0  0  0  0  0  0  0  0  0  0
    1.1820    2.6540    4.6780 H   0  0  0  0  0  0  0  0  0  0  0  0
    3.6190    2.0570    2.0970 H   0  0  0  0  0  0  0  0  0  0  0  0
    0.3060    0.5490    1.4260 N   0  0  0  0  0  0  0  0  0  0  0  0
    0.8090    0.0120    0.2060 C   0  0  1  0  0  0  0  0  0  0  0  0
    2.1670    0.4180   -0.1930 C   0  0  0  0  0  0  0  0  0  0  0  0
    2.1710    1.9130   -0.3950 C   0  0  0  0  0  0  0  0  0  0  0  0
    3.2470    2.7030   -0.7780 C   0  0  0  0  0  0  0  0  0  0  0  0
    2.8010    3.9500   -0.8340 N   0  0  0  0  0  0  0  0  0  0  0  0
    1.5160    4.0150   -0.5140 C   0  0  0  0  0  0  0  0  0  0  0  0
    1.1400    2.7450   -0.2450 N   0  0  0  0  0  0  0  0  0  0  0  0
    0.4320   -1.4020    0.0130 C   0  0  0  0  0  0  0  0  0  0  0  0
   -0.4080   -1.9630    0.7450 O   0  0  0  0  0  0  0  0  0  0  0  0
    0.0520    1.6060    1.4580 H   0  0  0  0  0  0  0  0  0  0  0  0
    0.1360    0.5800   -0.6230 H   0  0  0  0  0  0  0  0  0  0  0  0
    2.9640    0.1350    0.5280 H   0  0  0  0  0  0  0  0  0  0  0  0
    2.4050    0.0130   -1.2000 H   0  0  0  0  0  0  0  0  0  0  0  0
    4.2240    2.3030   -0.9680 H   0  0  0  0  0  0  0  0  0  0  0  0
    3.3630    4.8110   -1.0950 H   0  0  0  0  0  0  0  0  0  0  0  0
    0.8800    4.8860   -0.4780 H   0  0  0  0  0  0  0  0  0  0  0  0
   -5.7520   -1.6920   -1.1460 N   0  0  0  0  0  0  0  0  0  0  0  0
   -4.6690   -2.6310   -1.1500 C   0  0  0  0  0  0  0  0  0  0  0  0
   -4.6950   -3.6690   -0.3830 N   0  0  0  0  0  0  0  0  0  0  0  0
   -3.5290   -2.4330   -2.0070 N   0  0  0  0  0  0  0  0  0  0  0  0
   -2.3710   -3.3060   -1.8030 C   0  0  0  0  0  0  0  0  0  0  0  0
   -1.2590   -2.9560   -2.7310 C   0  0  0  0  0  0  0  0  0  0  0  0
   -0.0340   -3.7850   -2.5560 C   0  0  0  0  0  0  0  0  0  0  0  0
    0.6020   -3.6350   -1.1930 C   0  0  2  0  0  0  0  0  0  0  0  0
    0.9870   -2.2490   -1.0190 N   0  0  0  0  0  0  0  0  0  0  0  0
    1.7550   -4.5490   -0.9910 C   0  0  0  0  0  0  0  0  0  0  0  0
    2.9090   -4.1010   -0.7200 O   0  0  0  0  0  0  0  0  0  0  0  0
    1.6250   -5.9250   -1.0890 O   0  0  0  0  0  0  0  0  0  0  0  0
   -5.8870   -0.9730   -1.8870 H   0  0  0  0  0  0  0  0  0  0  0  0
   -6.4390   -1.7200   -0.3740 H   0  0  0  0  0  0  0  0  0  0  0  0
   -5.4390   -3.9210    0.2700 H   0  0  0  0  0  0  0  0  0  0  0  0
   -3.5710   -1.6970   -2.7210 H   0  0  0  0  0  0  0  0  0  0  0  0
   -2.7370   -4.3320   -2.1290 H   0  0  0  0  0  0  0  0  0  0  0  0
   -2.1640   -3.3310   -0.7500 H   0  0  0  0  0  0  0  0  0  0  0  0
   -1.6550   -3.0250   -3.7650 H   0  0  0  0  0  0  0  0  0  0  0  0
   -0.9610   -1.8760   -2.5850 H   0  0  0  0  0  0  0  0  0  0  0  0
    0.7300   -3.5120   -3.3180 H   0  0  0  0  0  0  0  0  0  0  0  0
   -0.3150   -4.8480   -2.7320 H   0  0  0  0  0  0  0  0  0  0  0  0
   -0.1730   -3.9460   -0.4560 H   0  0  0  0  0  0  0  0  0  0  0  0
    1.6850   -1.7910   -1.6360 H   0  0  0  0  0  0  0  0  0  0  0  0
  1 10  1  0  0  0  0
  2 12  1  6  0  0  0
  2  1  1  0  0  0  0
  2  3  1  0  0  0  0
  3 14  1  0  0  0  0
  3 13  1  0  0  0  0
  4  3  1  0  0  0  0
  4 15  1  0  0  0  0
  5  4  1  0  0  0  0
  6  5  2  0  0  0  0
  7  8  2  0  0  0  0
  7  2  1  0  0  0  0
  9  5  1  0  0  0  0
 11  1  1  0  0  0  0
 16  4  1  0  0  0  0
 17  9  1  0  0  0  0
 18 28  1  0  0  0  0
 18  7  1  0  0  0  0
 19 29  1  6  0  0  0
 19 18  1  0  0  0  0
 20 19  1  0  0  0  0
 20 30  1  0  0  0  0
 21 25  1  0  0  0  0
 21 20  1  0  0  0  0
 22 21  2  0  0  0  0
 23 22  1  0  0  0  0
 23 24  1  0  0  0  0
 24 34  1  0  0  0  0
 24 25  2  0  0  0  0
 26 19  1  0  0  0  0
 26 27  2  0  0  0  0
 31 20  1  0  0  0  0
 32 22  1  0  0  0  0
 33 23  1  0  0  0  0
 35 48  1  0  0  0  0
 36 35  1  0  0  0  0
 36 37  2  0  0  0  0
 37 49  1  0  0  0  0
 38 39  1  0  0  0  0
 38 36  1  0  0  0  0
 39 52  1  0  0  0  0
 40 54  1  0  0  0  0
 40 41  1  0  0  0  0
 40 39  1  0  0  0  0
 41 42  1  0  0  0  0
 42 43  1  0  0  0  0
 42 44  1  0  0  0  0
 42 57  1  1  0  0  0
 43 26  1  0  0  0  0
 44 45  1  0  0  0  0
 46 44  2  0  0  0  0
 47 35  1  0  0  0  0
 50 38  1  0  0  0  0
 51 39  1  0  0  0  0
 53 40  1  0  0  0  0
 55 41  1  0  0  0  0
 56 41  1  0  0  0  0
 58 43  1  0  0  0  0
M  END
$$$$
