EHT.pdb
 OpenBabel07022418183D

 49 49  0  0  1  0  0  0  0  0999 V2000
    2.7130   -3.0900    3.3260 N   0  0  0  0  0  0  0  0  0  0  0  0
    2.2990   -2.5800    1.9920 C   0  0  1  0  0  0  0  0  0  0  0  0
    1.7520   -3.7560    1.2700 C   0  0  0  0  0  0  0  0  0  0  0  0
    1.2590   -3.5250   -0.1160 C   0  0  0  0  0  0  0  0  0  0  0  0
    2.2900   -3.0200   -1.0520 C   0  0  0  0  0  0  0  0  0  0  0  0
    3.4810   -2.8190   -0.7200 O   0  0  0  0  0  0  0  0  0  0  0  0
    1.3980   -1.4600    2.2270 C   0  0  0  0  0  0  0  0  0  0  0  0
    1.0230   -1.2300    3.4310 O   0  0  0  0  0  0  0  0  0  0  0  0
    1.9520   -2.7450   -2.3690 O   0  0  0  0  0  0  0  0  0  0  0  0
    2.7900   -2.2620    3.9610 H   0  0  0  0  0  0  0  0  0  0  0  0
    1.9780   -3.7630    3.6110 H   0  0  0  0  0  0  0  0  0  0  0  0
    3.2610   -2.2800    1.5110 H   0  0  0  0  0  0  0  0  0  0  0  0
    2.6050   -4.4940    1.1760 H   0  0  0  0  0  0  0  0  0  0  0  0
    1.0050   -4.3310    1.8910 H   0  0  0  0  0  0  0  0  0  0  0  0
    0.9120   -4.5010   -0.5900 H   0  0  0  0  0  0  0  0  0  0  0  0
    0.3290   -2.9130   -0.1110 H   0  0  0  0  0  0  0  0  0  0  0  0
    2.5430   -2.2150   -2.9940 H   0  0  0  0  0  0  0  0  0  0  0  0
    0.8730   -0.5650    1.2530 N   0  0  0  0  0  0  0  0  0  0  0  0
    0.0000    0.5030    1.6210 C   0  0  1  0  0  0  0  0  0  0  0  0
    0.6380    1.8680    1.4040 C   0  0  0  0  0  0  0  0  0  0  0  0
    1.8600    2.0520    2.1800 C   0  0  0  0  0  0  0  0  0  0  0  0
    1.9590    2.5660    3.4520 C   0  0  0  0  0  0  0  0  0  0  0  0
    3.2610    2.5610    3.7910 N   0  0  0  0  0  0  0  0  0  0  0  0
    3.9840    2.0640    2.7790 C   0  0  0  0  0  0  0  0  0  0  0  0
    3.1090    1.7550    1.7940 N   0  0  0  0  0  0  0  0  0  0  0  0
   -1.2860    0.5510    0.8960 C   0  0  0  0  0  0  0  0  0  0  0  0
   -2.0950    1.4850    1.2350 O   0  0  0  0  0  0  0  0  0  0  0  0
    1.1450   -0.7090    0.2660 H   0  0  0  0  0  0  0  0  0  0  0  0
   -0.2350    0.4460    2.7250 H   0  0  0  0  0  0  0  0  0  0  0  0
    0.8610    1.9160    0.3040 H   0  0  0  0  0  0  0  0  0  0  0  0
   -0.1440    2.6290    1.6080 H   0  0  0  0  0  0  0  0  0  0  0  0
    1.1840    2.9240    4.1130 H   0  0  0  0  0  0  0  0  0  0  0  0
    3.6940    2.8850    4.6940 H   0  0  0  0  0  0  0  0  0  0  0  0
    5.0630    1.9430    2.7760 H   0  0  0  0  0  0  0  0  0  0  0  0
   -4.2700    0.4830   -2.7420 C   0  0  0  0  0  0  0  0  0  0  0  0
   -2.8880    0.1750   -2.2090 C   0  0  1  0  0  0  0  0  0  0  0  0
   -2.1410    1.3650   -2.3050 O   0  0  0  0  0  0  0  0  0  0  0  0
   -3.0080   -0.1330   -0.7300 C   0  0  2  0  0  0  0  0  0  0  0  0
   -1.7120   -0.3120   -0.1160 N   0  0  0  0  0  0  0  0  0  0  0  0
   -3.8220   -1.3390   -0.4940 C   0  0  0  0  0  0  0  0  0  0  0  0
   -4.9880   -1.3750   -0.9530 O   0  0  0  0  0  0  0  0  0  0  0  0
   -3.2850   -2.3930    0.2230 O   0  0  0  0  0  0  0  0  0  0  0  0
   -4.9080    0.8090   -1.8960 H   0  0  0  0  0  0  0  0  0  0  0  0
   -4.1920    1.2970   -3.4810 H   0  0  0  0  0  0  0  0  0  0  0  0
   -4.6990   -0.4490   -3.1980 H   0  0  0  0  0  0  0  0  0  0  0  0
   -2.3950   -0.6170   -2.7700 H   0  0  0  0  0  0  0  0  0  0  0  0
   -1.8090    1.5140   -3.2300 H   0  0  0  0  0  0  0  0  0  0  0  0
   -3.5370    0.7510   -0.2690 H   0  0  0  0  0  0  0  0  0  0  0  0
   -1.0980   -1.0720   -0.4240 H   0  0  0  0  0  0  0  0  0  0  0  0
  1 11  1  0  0  0  0
  1 10  1  0  0  0  0
  2 12  1  6  0  0  0
  2  7  1  0  0  0  0
  2  1  1  0  0  0  0
  3 14  1  0  0  0  0
  3  2  1  0  0  0  0
  4 16  1  0  0  0  0
  4  3  1  0  0  0  0
  5  6  2  0  0  0  0
  5  4  1  0  0  0  0
  7  8  2  0  0  0  0
  9  5  1  0  0  0  0
 13  3  1  0  0  0  0
 15  4  1  0  0  0  0
 17  9  1  0  0  0  0
 18 19  1  0  0  0  0
 18  7  1  0  0  0  0
 19 29  1  1  0  0  0
 20 31  1  0  0  0  0
 20 19  1  0  0  0  0
 20 21  1  0  0  0  0
 21 22  2  0  0  0  0
 22 23  1  0  0  0  0
 22 32  1  0  0  0  0
 23 33  1  0  0  0  0
 24 23  1  0  0  0  0
 25 21  1  0  0  0  0
 25 24  2  0  0  0  0
 26 27  2  0  0  0  0
 26 19  1  0  0  0  0
 28 18  1  0  0  0  0
 30 20  1  0  0  0  0
 34 24  1  0  0  0  0
 35 36  1  0  0  0  0
 35 43  1  0  0  0  0
 36 46  1  6  0  0  0
 36 38  1  0  0  0  0
 37 36  1  0  0  0  0
 38 40  1  0  0  0  0
 38 48  1  1  0  0  0
 38 39  1  0  0  0  0
 39 26  1  0  0  0  0
 40 42  1  0  0  0  0
 41 40  2  0  0  0  0
 44 35  1  0  0  0  0
 45 35  1  0  0  0  0
 47 37  1  0  0  0  0
 49 39  1  0  0  0  0
M  END
$$$$
