EHY.pdb
 OpenBabel07022418193D

 56 57  0  0  1  0  0  0  0  0999 V2000
    0.6970    0.5830    3.6060 N   0  0  0  0  0  0  0  0  0  0  0  0
    1.9930    0.2500    3.0680 C   0  0  1  0  0  0  0  0  0  0  0  0
    2.7260   -0.7900    3.8910 C   0  0  0  0  0  0  0  0  0  0  0  0
    2.9400   -0.2840    5.3070 C   0  0  0  0  0  0  0  0  0  0  0  0
    3.7480    0.9750    5.2900 C   0  0  0  0  0  0  0  0  0  0  0  0
    4.7910    1.0710    4.5870 O   0  0  0  0  0  0  0  0  0  0  0  0
    1.8090   -0.2120    1.6630 C   0  0  0  0  0  0  0  0  0  0  0  0
    2.8230   -0.6330    1.0380 O   0  0  0  0  0  0  0  0  0  0  0  0
    3.3350    2.0510    6.0620 O   0  0  0  0  0  0  0  0  0  0  0  0
    0.4620    0.0510    4.4790 H   0  0  0  0  0  0  0  0  0  0  0  0
    0.5120    1.5990    3.6450 H   0  0  0  0  0  0  0  0  0  0  0  0
    2.6460    1.1560    2.9840 H   0  0  0  0  0  0  0  0  0  0  0  0
    3.6700   -1.0660    3.4280 H   0  0  0  0  0  0  0  0  0  0  0  0
    2.0610   -1.6790    3.9780 H   0  0  0  0  0  0  0  0  0  0  0  0
    3.5580   -1.0680    5.8470 H   0  0  0  0  0  0  0  0  0  0  0  0
    2.0120   -0.1350    5.8520 H   0  0  0  0  0  0  0  0  0  0  0  0
    3.8700    2.9060    6.0590 H   0  0  0  0  0  0  0  0  0  0  0  0
    0.5440   -0.1840    1.0350 N   0  0  0  0  0  0  0  0  0  0  0  0
    0.2450   -0.5850   -0.3000 C   0  0  1  0  0  0  0  0  0  0  0  0
    1.3340   -0.2710   -1.3000 C   0  0  0  0  0  0  0  0  0  0  0  0
    1.5110    1.2010   -1.3430 C   0  0  0  0  0  0  0  0  0  0  0  0
    2.3250    2.0840   -0.6940 C   0  0  0  0  0  0  0  0  0  0  0  0
    2.0940    3.3460   -1.1300 N   0  0  0  0  0  0  0  0  0  0  0  0
    1.1360    3.2830   -2.0570 C   0  0  0  0  0  0  0  0  0  0  0  0
    0.7730    2.0030   -2.2000 N   0  0  0  0  0  0  0  0  0  0  0  0
   -0.3640   -1.8980   -0.4220 C   0  0  0  0  0  0  0  0  0  0  0  0
   -0.6450   -2.5480    0.6410 O   0  0  0  0  0  0  0  0  0  0  0  0
   -0.2470    0.1820    1.6640 H   0  0  0  0  0  0  0  0  0  0  0  0
   -0.5620    0.1870   -0.6390 H   0  0  0  0  0  0  0  0  0  0  0  0
    2.2840   -0.7540   -1.1350 H   0  0  0  0  0  0  0  0  0  0  0  0
    1.0030   -0.5870   -2.3230 H   0  0  0  0  0  0  0  0  0  0  0  0
    3.0520    1.8040    0.0580 H   0  0  0  0  0  0  0  0  0  0  0  0
    2.5720    4.1880   -0.7970 H   0  0  0  0  0  0  0  0  0  0  0  0
    0.7220    4.1440   -2.6050 H   0  0  0  0  0  0  0  0  0  0  0  0
   -6.1160   -0.0340    0.0110 O   0  0  0  0  0  0  0  0  0  0  0  0
   -5.2570   -0.9820   -0.5920 C   0  0  0  0  0  0  0  0  0  0  0  0
   -5.3250   -2.3220   -0.2940 C   0  0  0  0  0  0  0  0  0  0  0  0
   -4.4570   -3.2000   -0.9170 C   0  0  0  0  0  0  0  0  0  0  0  0
   -3.5100   -2.7730   -1.8420 C   0  0  0  0  0  0  0  0  0  0  0  0
   -2.5700   -3.6990   -2.5130 C   0  0  0  0  0  0  0  0  0  0  0  0
   -1.2880   -3.8510   -1.7400 C   0  0  2  0  0  0  0  0  0  0  0  0
   -0.6790   -2.5360   -1.6440 N   0  0  0  0  0  0  0  0  0  0  0  0
   -0.4140   -4.8390   -2.3680 C   0  0  0  0  0  0  0  0  0  0  0  0
   -0.7820   -6.0250   -2.5320 O   0  0  0  0  0  0  0  0  0  0  0  0
   -3.4670   -1.4120   -2.1220 C   0  0  0  0  0  0  0  0  0  0  0  0
   -4.3290   -0.5300   -1.5070 C   0  0  0  0  0  0  0  0  0  0  0  0
    0.8490   -4.4750   -2.7930 O   0  0  0  0  0  0  0  0  0  0  0  0
   -6.8030    0.4460   -0.5940 H   0  0  0  0  0  0  0  0  0  0  0  0
   -6.0640   -2.6870    0.4300 H   0  0  0  0  0  0  0  0  0  0  0  0
   -4.4770   -4.2640   -0.7080 H   0  0  0  0  0  0  0  0  0  0  0  0
   -2.2670   -3.2230   -3.4900 H   0  0  0  0  0  0  0  0  0  0  0  0
   -3.0450   -4.6700   -2.7460 H   0  0  0  0  0  0  0  0  0  0  0  0
   -1.4980   -4.1780   -0.6950 H   0  0  0  0  0  0  0  0  0  0  0  0
   -0.4540   -2.0140   -2.5220 H   0  0  0  0  0  0  0  0  0  0  0  0
   -2.7300   -1.0440   -2.8450 H   0  0  0  0  0  0  0  0  0  0  0  0
   -4.3210    0.5530   -1.7010 H   0  0  0  0  0  0  0  0  0  0  0  0
  1 11  1  0  0  0  0
  1 10  1  0  0  0  0
  2 12  1  6  0  0  0
  2  1  1  0  0  0  0
  2  3  1  0  0  0  0
  3 14  1  0  0  0  0
  3  4  1  0  0  0  0
  4 15  1  0  0  0  0
  4 16  1  0  0  0  0
  5  4  1  0  0  0  0
  5  9  1  0  0  0  0
  6  5  2  0  0  0  0
  7  2  1  0  0  0  0
  8  7  2  0  0  0  0
 13  3  1  0  0  0  0
 17  9  1  0  0  0  0
 18  7  1  0  0  0  0
 18 28  1  0  0  0  0
 19 29  1  6  0  0  0
 19 18  1  0  0  0  0
 20 30  1  0  0  0  0
 20 19  1  0  0  0  0
 21 20  1  0  0  0  0
 21 22  2  0  0  0  0
 22 32  1  0  0  0  0
 23 33  1  0  0  0  0
 23 22  1  0  0  0  0
 24 23  1  0  0  0  0
 25 24  2  0  0  0  0
 25 21  1  0  0  0  0
 26 19  1  0  0  0  0
 26 27  2  0  0  0  0
 31 20  1  0  0  0  0
 34 24  1  0  0  0  0
 36 37  1  0  0  0  0
 36 35  1  0  0  0  0
 37 49  1  0  0  0  0
 38 50  1  0  0  0  0
 38 37  2  0  0  0  0
 39 38  1  0  0  0  0
 40 39  1  0  0  0  0
 40 41  1  0  0  0  0
 41 42  1  0  0  0  0
 41 53  1  1  0  0  0
 42 26  1  0  0  0  0
 43 41  1  0  0  0  0
 44 43  1  0  0  0  0
 45 39  2  0  0  0  0
 45 46  1  0  0  0  0
 46 36  2  0  0  0  0
 47 43  2  0  0  0  0
 48 35  1  0  0  0  0
 51 40  1  0  0  0  0
 52 40  1  0  0  0  0
 54 42  1  0  0  0  0
 55 45  1  0  0  0  0
 56 46  1  0  0  0  0
M  END
$$$$
