EIA.pdb
 OpenBabel07022418193D

 47 46  0  0  1  0  0  0  0  0999 V2000
    0.0410   -3.4460    0.4140 N   0  0  0  0  0  0  0  0  0  0  0  0
   -1.3130   -3.0200    0.6190 C   0  0  1  0  0  0  0  0  0  0  0  0
   -1.8850   -3.6290    1.8810 C   0  0  0  0  0  0  0  0  0  0  0  0
   -1.0750   -3.2230    3.1000 C   0  0  0  0  0  0  0  0  0  0  0  0
   -1.6320   -3.8120    4.3320 C   0  0  0  0  0  0  0  0  0  0  0  0
   -2.6270   -3.3010    4.9490 O   0  0  0  0  0  0  0  0  0  0  0  0
   -1.4370   -1.5470    0.7390 C   0  0  0  0  0  0  0  0  0  0  0  0
   -2.5690   -1.0170    0.9220 O   0  0  0  0  0  0  0  0  0  0  0  0
   -1.0820   -4.9600    4.8700 O   0  0  0  0  0  0  0  0  0  0  0  0
    0.2100   -3.5310   -0.6300 H   0  0  0  0  0  0  0  0  0  0  0  0
    0.1570   -4.4140    0.7870 H   0  0  0  0  0  0  0  0  0  0  0  0
   -1.9180   -3.4260   -0.2210 H   0  0  0  0  0  0  0  0  0  0  0  0
   -2.9010   -3.1800    2.0290 H   0  0  0  0  0  0  0  0  0  0  0  0
   -2.0330   -4.7120    1.8040 H   0  0  0  0  0  0  0  0  0  0  0  0
   -0.0350   -3.5850    2.9750 H   0  0  0  0  0  0  0  0  0  0  0  0
   -1.1260   -2.1310    3.1670 H   0  0  0  0  0  0  0  0  0  0  0  0
   -1.7080   -5.6560    5.3040 H   0  0  0  0  0  0  0  0  0  0  0  0
    2.4990    1.7730    2.9340 C   0  0  0  0  0  0  0  0  0  0  0  0
    1.7270    1.0930    1.8380 C   0  0  0  0  0  0  0  0  0  0  0  0
    0.2410    1.3440    1.9580 C   0  0  2  0  0  0  0  0  0  0  0  0
   -0.2690    0.8250    3.2690 C   0  0  0  0  0  0  0  0  0  0  0  0
   -0.5170    0.7790    0.7840 C   0  0  2  0  0  0  0  0  0  0  0  0
   -0.3370   -0.6540    0.6610 N   0  0  0  0  0  0  0  0  0  0  0  0
   -0.1290    1.4320   -0.4940 C   0  0  0  0  0  0  0  0  0  0  0  0
   -0.2040    2.6910   -0.6220 O   0  0  0  0  0  0  0  0  0  0  0  0
    1.9210    2.7030    3.2060 H   0  0  0  0  0  0  0  0  0  0  0  0
    3.5070    2.0830    2.6410 H   0  0  0  0  0  0  0  0  0  0  0  0
    2.5120    1.1510    3.8690 H   0  0  0  0  0  0  0  0  0  0  0  0
    1.9600    0.0020    1.9180 H   0  0  0  0  0  0  0  0  0  0  0  0
    2.1160    1.4640    0.8760 H   0  0  0  0  0  0  0  0  0  0  0  0
    0.1090    2.4470    1.9700 H   0  0  0  0  0  0  0  0  0  0  0  0
    0.0750    1.5420    4.0670 H   0  0  0  0  0  0  0  0  0  0  0  0
   -1.3550    0.7680    3.3340 H   0  0  0  0  0  0  0  0  0  0  0  0
    0.1980   -0.1590    3.5430 H   0  0  0  0  0  0  0  0  0  0  0  0
   -1.6030    0.9800    0.9300 H   0  0  0  0  0  0  0  0  0  0  0  0
    0.6200   -1.0300    0.5120 H   0  0  0  0  0  0  0  0  0  0  0  0
    2.1790    1.1650   -3.1700 C   0  0  0  0  0  0  0  0  0  0  0  0
    0.7110    1.3690   -2.8680 C   0  0  2  0  0  0  0  0  0  0  0  0
    0.3370    0.7150   -1.6280 N   0  0  0  0  0  0  0  0  0  0  0  0
   -0.1520    0.9380   -3.9960 C   0  0  0  0  0  0  0  0  0  0  0  0
   -1.0660    0.1120   -3.8290 O   0  0  0  0  0  0  0  0  0  0  0  0
    0.0580    1.4600   -5.2630 O   0  0  0  0  0  0  0  0  0  0  0  0
    2.7440    1.9210   -2.5700 H   0  0  0  0  0  0  0  0  0  0  0  0
    2.4880    0.1380   -2.8500 H   0  0  0  0  0  0  0  0  0  0  0  0
    2.4200    1.3670   -4.2240 H   0  0  0  0  0  0  0  0  0  0  0  0
    0.5580    2.4630   -2.7230 H   0  0  0  0  0  0  0  0  0  0  0  0
    0.3990   -0.3330   -1.5200 H   0  0  0  0  0  0  0  0  0  0  0  0
  1  2  1  0  0  0  0
  1 11  1  0  0  0  0
  2 12  1  6  0  0  0
  2  7  1  0  0  0  0
  2  3  1  0  0  0  0
  3 13  1  0  0  0  0
  3  4  1  0  0  0  0
  4 16  1  0  0  0  0
  4  5  1  0  0  0  0
  5  9  1  0  0  0  0
  5  6  2  0  0  0  0
  7  8  2  0  0  0  0
  9 17  1  0  0  0  0
 10  1  1  0  0  0  0
 14  3  1  0  0  0  0
 15  4  1  0  0  0  0
 18 26  1  0  0  0  0
 18 28  1  0  0  0  0
 19 29  1  0  0  0  0
 19 20  1  0  0  0  0
 19 18  1  0  0  0  0
 20 31  1  6  0  0  0
 20 21  1  0  0  0  0
 21 33  1  0  0  0  0
 21 34  1  0  0  0  0
 21 32  1  0  0  0  0
 22 35  1  1  0  0  0
 22 20  1  0  0  0  0
 23  7  1  0  0  0  0
 23 22  1  0  0  0  0
 24 22  1  0  0  0  0
 25 24  2  0  0  0  0
 27 18  1  0  0  0  0
 30 19  1  0  0  0  0
 36 23  1  0  0  0  0
 37 38  1  0  0  0  0
 37 44  1  0  0  0  0
 37 43  1  0  0  0  0
 38 46  1  1  0  0  0
 38 39  1  0  0  0  0
 39 47  1  0  0  0  0
 39 24  1  0  0  0  0
 40 41  1  0  0  0  0
 40 38  1  0  0  0  0
 42 40  2  0  0  0  0
 45 37  1  0  0  0  0
M  END
$$$$
