EID.pdb
 OpenBabel07022418193D

 50 49  0  0  1  0  0  0  0  0999 V2000
   -0.7740   -4.2330    1.9850 N   0  0  0  0  0  0  0  0  0  0  0  0
    0.6000   -3.7090    1.9340 C   0  0  1  0  0  0  0  0  0  0  0  0
    1.0740   -3.8710    0.5160 C   0  0  0  0  0  0  0  0  0  0  0  0
    2.4830   -3.3900    0.2920 C   0  0  0  0  0  0  0  0  0  0  0  0
    2.8470   -3.5880   -1.1290 C   0  0  0  0  0  0  0  0  0  0  0  0
    2.0100   -4.1010   -1.9430 O   0  0  0  0  0  0  0  0  0  0  0  0
    0.6520   -2.3280    2.4370 C   0  0  0  0  0  0  0  0  0  0  0  0
    0.7470   -2.0280    3.6530 O   0  0  0  0  0  0  0  0  0  0  0  0
    4.0820   -3.2390   -1.6540 O   0  0  0  0  0  0  0  0  0  0  0  0
   -0.7260   -5.2590    1.8870 H   0  0  0  0  0  0  0  0  0  0  0  0
   -1.2640   -3.9560    2.8540 H   0  0  0  0  0  0  0  0  0  0  0  0
    1.2370   -4.3630    2.5730 H   0  0  0  0  0  0  0  0  0  0  0  0
    0.9780   -4.9520    0.2710 H   0  0  0  0  0  0  0  0  0  0  0  0
    0.3940   -3.3460   -0.1950 H   0  0  0  0  0  0  0  0  0  0  0  0
    2.6560   -2.3790    0.6750 H   0  0  0  0  0  0  0  0  0  0  0  0
    3.1580   -4.0590    0.8730 H   0  0  0  0  0  0  0  0  0  0  0  0
    4.3050   -3.2860   -2.6340 H   0  0  0  0  0  0  0  0  0  0  0  0
    3.1110    2.9930    1.5150 C   0  0  0  0  0  0  0  0  0  0  0  0
    1.8050    2.2860    1.8630 C   0  0  0  0  0  0  0  0  0  0  0  0
    1.8280    0.8500    1.4000 C   0  0  2  0  0  0  0  0  0  0  0  0
    2.0000    0.8590   -0.0950 C   0  0  0  0  0  0  0  0  0  0  0  0
    0.6360    0.1440    1.9110 C   0  0  2  0  0  0  0  0  0  0  0  0
    0.5900   -1.2590    1.5040 N   0  0  0  0  0  0  0  0  0  0  0  0
   -0.6690    0.7370    1.5500 C   0  0  0  0  0  0  0  0  0  0  0  0
   -0.9260    1.9240    1.8400 O   0  0  0  0  0  0  0  0  0  0  0  0
    2.9220    4.0720    1.6870 H   0  0  0  0  0  0  0  0  0  0  0  0
    3.3680    2.8830    0.4490 H   0  0  0  0  0  0  0  0  0  0  0  0
    3.9240    2.7030    2.2040 H   0  0  0  0  0  0  0  0  0  0  0  0
    1.6630    2.4040    2.9540 H   0  0  0  0  0  0  0  0  0  0  0  0
    1.0390    2.8650    1.2630 H   0  0  0  0  0  0  0  0  0  0  0  0
    2.7400    0.4110    1.8950 H   0  0  0  0  0  0  0  0  0  0  0  0
    1.2960    0.1680   -0.6030 H   0  0  0  0  0  0  0  0  0  0  0  0
    3.0610    0.6760   -0.3690 H   0  0  0  0  0  0  0  0  0  0  0  0
    1.7590    1.8760   -0.5230 H   0  0  0  0  0  0  0  0  0  0  0  0
    0.7070    0.1370    3.0250 H   0  0  0  0  0  0  0  0  0  0  0  0
    0.5030   -1.4090    0.4760 H   0  0  0  0  0  0  0  0  0  0  0  0
   -1.6830    0.0120    0.8690 N   0  0  0  0  0  0  0  0  0  0  0  0
   -2.9810    0.6560    0.5280 C   0  0  1  0  0  0  0  0  0  0  0  0
   -3.0390    0.6390   -0.9670 C   0  0  0  0  0  0  0  0  0  0  0  0
   -4.2340    1.2630   -1.5320 C   0  0  0  0  0  0  0  0  0  0  0  0
   -5.1020    1.8380   -0.8750 O   0  0  0  0  0  0  0  0  0  0  0  0
   -4.0670   -0.1410    1.1260 C   0  0  0  0  0  0  0  0  0  0  0  0
   -5.2570    0.1840    1.0260 O   0  0  0  0  0  0  0  0  0  0  0  0
   -4.3970    1.1990   -2.9220 O   0  0  0  0  0  0  0  0  0  0  0  0
   -3.7580   -1.2900    1.8250 O   0  0  0  0  0  0  0  0  0  0  0  0
   -1.5610   -0.9610    0.5930 H   0  0  0  0  0  0  0  0  0  0  0  0
   -2.9270    1.6840    0.9060 H   0  0  0  0  0  0  0  0  0  0  0  0
   -2.9820   -0.4140   -1.3680 H   0  0  0  0  0  0  0  0  0  0  0  0
   -2.1370    1.1460   -1.3920 H   0  0  0  0  0  0  0  0  0  0  0  0
   -4.9890    1.8410   -3.4100 H   0  0  0  0  0  0  0  0  0  0  0  0
  1 11  1  0  0  0  0
  2  1  1  0  0  0  0
  2  7  1  0  0  0  0
  2 12  1  1  0  0  0
  3  2  1  0  0  0  0
  4  3  1  0  0  0  0
  4 15  1  0  0  0  0
  4 16  1  0  0  0  0
  5  4  1  0  0  0  0
  6  5  2  0  0  0  0
  7  8  2  0  0  0  0
  9  5  1  0  0  0  0
 10  1  1  0  0  0  0
 13  3  1  0  0  0  0
 14  3  1  0  0  0  0
 17  9  1  0  0  0  0
 18 26  1  0  0  0  0
 18 19  1  0  0  0  0
 18 28  1  0  0  0  0
 19 29  1  0  0  0  0
 20 19  1  0  0  0  0
 20 31  1  1  0  0  0
 20 22  1  0  0  0  0
 21 20  1  0  0  0  0
 22 35  1  1  0  0  0
 23 22  1  0  0  0  0
 23  7  1  0  0  0  0
 24 25  2  0  0  0  0
 24 22  1  0  0  0  0
 27 18  1  0  0  0  0
 30 19  1  0  0  0  0
 32 21  1  0  0  0  0
 33 21  1  0  0  0  0
 34 21  1  0  0  0  0
 36 23  1  0  0  0  0
 37 24  1  0  0  0  0
 38 37  1  0  0  0  0
 38 47  1  1  0  0  0
 38 42  1  0  0  0  0
 39 38  1  0  0  0  0
 40 39  1  0  0  0  0
 40 41  2  0  0  0  0
 42 45  1  0  0  0  0
 43 42  2  0  0  0  0
 44 40  1  0  0  0  0
 46 37  1  0  0  0  0
 48 39  1  0  0  0  0
 49 39  1  0  0  0  0
 50 44  1  0  0  0  0
M  END
$$$$
