EIE.pdb
 OpenBabel07022418193D

 53 52  0  0  1  0  0  0  0  0999 V2000
    3.2370   -2.5780    3.1260 N   0  0  0  0  0  0  0  0  0  0  0  0
    2.7260   -1.9110    1.9300 C   0  0  1  0  0  0  0  0  0  0  0  0
    2.2360   -3.0100    1.0080 C   0  0  0  0  0  0  0  0  0  0  0  0
    3.3110   -3.9750    0.6170 C   0  0  0  0  0  0  0  0  0  0  0  0
    4.3850   -3.2320   -0.0860 C   0  0  0  0  0  0  0  0  0  0  0  0
    5.2650   -2.5800    0.5360 O   0  0  0  0  0  0  0  0  0  0  0  0
    1.5640   -1.0960    2.3710 C   0  0  0  0  0  0  0  0  0  0  0  0
    1.1560   -1.0370    3.5520 O   0  0  0  0  0  0  0  0  0  0  0  0
    4.4280   -3.2500   -1.4680 O   0  0  0  0  0  0  0  0  0  0  0  0
    3.0420   -2.0180    3.9880 H   0  0  0  0  0  0  0  0  0  0  0  0
    2.9040   -3.5460    3.2280 H   0  0  0  0  0  0  0  0  0  0  0  0
    3.5160   -1.3110    1.4760 H   0  0  0  0  0  0  0  0  0  0  0  0
    1.9020   -2.4950    0.0680 H   0  0  0  0  0  0  0  0  0  0  0  0
    1.3340   -3.5060    1.4220 H   0  0  0  0  0  0  0  0  0  0  0  0
    3.6760   -4.5260    1.5090 H   0  0  0  0  0  0  0  0  0  0  0  0
    2.8520   -4.7040   -0.1040 H   0  0  0  0  0  0  0  0  0  0  0  0
    5.2530   -3.0440   -2.0190 H   0  0  0  0  0  0  0  0  0  0  0  0
   -1.6670    2.6190    3.3270 C   0  0  0  0  0  0  0  0  0  0  0  0
   -1.2750    2.7620    1.8930 C   0  0  0  0  0  0  0  0  0  0  0  0
   -0.0840    1.9320    1.4850 C   0  0  2  0  0  0  0  0  0  0  0  0
    0.1390    2.2140    0.0090 C   0  0  0  0  0  0  0  0  0  0  0  0
   -0.2850    0.4820    1.7870 C   0  0  2  0  0  0  0  0  0  0  0  0
    0.8580   -0.3310    1.4110 N   0  0  0  0  0  0  0  0  0  0  0  0
   -1.4480   -0.0500    1.0470 C   0  0  0  0  0  0  0  0  0  0  0  0
   -2.5820    0.4270    1.2450 O   0  0  0  0  0  0  0  0  0  0  0  0
   -1.7290    3.6100    3.8710 H   0  0  0  0  0  0  0  0  0  0  0  0
   -2.7050    2.2140    3.3750 H   0  0  0  0  0  0  0  0  0  0  0  0
   -0.9420    2.0300    3.9250 H   0  0  0  0  0  0  0  0  0  0  0  0
   -1.0100    3.8670    1.7680 H   0  0  0  0  0  0  0  0  0  0  0  0
   -2.1410    2.6560    1.1890 H   0  0  0  0  0  0  0  0  0  0  0  0
    0.7850    2.3740    2.0120 H   0  0  0  0  0  0  0  0  0  0  0  0
   -0.7960    2.5470   -0.4880 H   0  0  0  0  0  0  0  0  0  0  0  0
    0.6230    1.3750   -0.5210 H   0  0  0  0  0  0  0  0  0  0  0  0
    0.8360    3.0770   -0.0930 H   0  0  0  0  0  0  0  0  0  0  0  0
   -0.4030    0.3800    2.8880 H   0  0  0  0  0  0  0  0  0  0  0  0
    1.1570   -0.3410    0.4120 H   0  0  0  0  0  0  0  0  0  0  0  0
   -1.3070   -1.0970    0.1110 N   0  0  0  0  0  0  0  0  0  0  0  0
   -2.4220   -1.6720   -0.6560 C   0  0  1  0  0  0  0  0  0  0  0  0
   -2.0750   -1.5240   -2.1210 C   0  0  0  0  0  0  0  0  0  0  0  0
   -1.9000   -0.0930   -2.4850 C   0  0  0  0  0  0  0  0  0  0  0  0
   -3.1400    0.6640   -2.2720 C   0  0  0  0  0  0  0  0  0  0  0  0
   -3.1250    1.9330   -2.3860 O   0  0  0  0  0  0  0  0  0  0  0  0
   -2.4070   -3.1370   -0.3690 C   0  0  0  0  0  0  0  0  0  0  0  0
   -1.5590   -3.6820    0.3930 O   0  0  0  0  0  0  0  0  0  0  0  0
   -4.3280    0.0650   -1.9550 O   0  0  0  0  0  0  0  0  0  0  0  0
   -3.3480   -3.9970   -0.9390 O   0  0  0  0  0  0  0  0  0  0  0  0
   -0.3780   -1.5480   -0.1060 H   0  0  0  0  0  0  0  0  0  0  0  0
   -3.3740   -1.2470   -0.3580 H   0  0  0  0  0  0  0  0  0  0  0  0
   -1.0620   -2.0110   -2.2360 H   0  0  0  0  0  0  0  0  0  0  0  0
   -2.8320   -2.0470   -2.7320 H   0  0  0  0  0  0  0  0  0  0  0  0
   -1.0420    0.3330   -1.9010 H   0  0  0  0  0  0  0  0  0  0  0  0
   -1.6450   -0.0590   -3.5840 H   0  0  0  0  0  0  0  0  0  0  0  0
   -5.1270    0.5630   -1.5940 H   0  0  0  0  0  0  0  0  0  0  0  0
  1 11  1  0  0  0  0
  1 10  1  0  0  0  0
  2 12  1  6  0  0  0
  2  7  1  0  0  0  0
  2  1  1  0  0  0  0
  3 14  1  0  0  0  0
  3  2  1  0  0  0  0
  4  3  1  0  0  0  0
  4 15  1  0  0  0  0
  5  6  2  0  0  0  0
  5  4  1  0  0  0  0
  7  8  2  0  0  0  0
  9  5  1  0  0  0  0
 13  3  1  0  0  0  0
 16  4  1  0  0  0  0
 17  9  1  0  0  0  0
 18 27  1  0  0  0  0
 18 26  1  0  0  0  0
 18 28  1  0  0  0  0
 19 18  1  0  0  0  0
 20 22  1  0  0  0  0
 20 19  1  0  0  0  0
 20 31  1  1  0  0  0
 21 20  1  0  0  0  0
 22 35  1  1  0  0  0
 23 22  1  0  0  0  0
 23  7  1  0  0  0  0
 24 25  2  0  0  0  0
 24 22  1  0  0  0  0
 29 19  1  0  0  0  0
 30 19  1  0  0  0  0
 32 21  1  0  0  0  0
 33 21  1  0  0  0  0
 34 21  1  0  0  0  0
 36 23  1  0  0  0  0
 37 24  1  0  0  0  0
 38 43  1  0  0  0  0
 38 48  1  1  0  0  0
 38 37  1  0  0  0  0
 39 38  1  0  0  0  0
 40 41  1  0  0  0  0
 40 39  1  0  0  0  0
 40 51  1  0  0  0  0
 41 45  1  0  0  0  0
 42 41  2  0  0  0  0
 43 44  1  0  0  0  0
 45 53  1  0  0  0  0
 46 43  2  0  0  0  0
 47 37  1  0  0  0  0
 49 39  1  0  0  0  0
 50 39  1  0  0  0  0
 52 40  1  0  0  0  0
M  END
$$$$
