EIG.pdb
 OpenBabel07022418193D

 44 43  0  0  1  0  0  0  0  0999 V2000
    0.0730   -3.2410   -0.1760 N   0  0  0  0  0  0  0  0  0  0  0  0
    0.9810   -3.0160    0.9630 C   0  0  1  0  0  0  0  0  0  0  0  0
    2.3650   -3.2640    0.4260 C   0  0  0  0  0  0  0  0  0  0  0  0
    3.4580   -3.0900    1.4400 C   0  0  0  0  0  0  0  0  0  0  0  0
    4.7830   -3.3620    0.8080 C   0  0  0  0  0  0  0  0  0  0  0  0
    5.8310   -3.2740    1.4730 O   0  0  0  0  0  0  0  0  0  0  0  0
    0.7730   -1.6090    1.3830 C   0  0  0  0  0  0  0  0  0  0  0  0
    1.4140   -1.1300    2.3830 O   0  0  0  0  0  0  0  0  0  0  0  0
    4.8550   -3.7130   -0.5220 O   0  0  0  0  0  0  0  0  0  0  0  0
    0.3290   -4.1180   -0.6790 H   0  0  0  0  0  0  0  0  0  0  0  0
   -0.9200   -3.2160    0.1160 H   0  0  0  0  0  0  0  0  0  0  0  0
    0.6960   -3.7350    1.7640 H   0  0  0  0  0  0  0  0  0  0  0  0
    2.5370   -2.4850   -0.3580 H   0  0  0  0  0  0  0  0  0  0  0  0
    2.4530   -4.2440   -0.0840 H   0  0  0  0  0  0  0  0  0  0  0  0
    3.2940   -3.8710    2.2270 H   0  0  0  0  0  0  0  0  0  0  0  0
    3.4620   -2.1030    1.9030 H   0  0  0  0  0  0  0  0  0  0  0  0
    5.7490   -3.9570   -0.9630 H   0  0  0  0  0  0  0  0  0  0  0  0
    1.4100    2.4820   -1.7190 C   0  0  0  0  0  0  0  0  0  0  0  0
    1.3220    1.5220   -0.5500 C   0  0  0  0  0  0  0  0  0  0  0  0
   -0.0820    1.6030   -0.0190 C   0  0  2  0  0  0  0  0  0  0  0  0
   -0.4420    2.9890    0.4490 C   0  0  0  0  0  0  0  0  0  0  0  0
   -0.3430    0.6440    1.1140 C   0  0  2  0  0  0  0  0  0  0  0  0
   -0.1350   -0.7410    0.7040 N   0  0  0  0  0  0  0  0  0  0  0  0
   -1.7790    0.7900    1.4770 C   0  0  0  0  0  0  0  0  0  0  0  0
   -2.2860    1.8670    1.8770 O   0  0  0  0  0  0  0  0  0  0  0  0
    0.4030    2.6080   -2.1680 H   0  0  0  0  0  0  0  0  0  0  0  0
    2.0410    2.0450   -2.5440 H   0  0  0  0  0  0  0  0  0  0  0  0
    1.8290    3.4610   -1.4220 H   0  0  0  0  0  0  0  0  0  0  0  0
    2.0750    1.8500    0.1970 H   0  0  0  0  0  0  0  0  0  0  0  0
    1.4960    0.5010   -0.9090 H   0  0  0  0  0  0  0  0  0  0  0  0
   -0.7720    1.3380   -0.8450 H   0  0  0  0  0  0  0  0  0  0  0  0
   -0.3040    3.0530    1.5450 H   0  0  0  0  0  0  0  0  0  0  0  0
   -1.4800    3.2690    0.1940 H   0  0  0  0  0  0  0  0  0  0  0  0
    0.2960    3.6900    0.0090 H   0  0  0  0  0  0  0  0  0  0  0  0
    0.2860    0.8680    1.9780 H   0  0  0  0  0  0  0  0  0  0  0  0
   -0.6450   -1.1540   -0.1060 H   0  0  0  0  0  0  0  0  0  0  0  0
   -2.6880   -0.3190    1.3880 N   0  0  0  0  0  0  0  0  0  0  0  0
   -4.0880   -0.1780    1.7420 C   0  0  0  0  0  0  0  0  0  0  0  0
   -4.2520    0.2390    3.1570 C   0  0  0  0  0  0  0  0  0  0  0  0
   -5.4080    0.4040    3.6080 O   0  0  0  0  0  0  0  0  0  0  0  0
   -3.1170    0.4270    3.9170 O   0  0  0  0  0  0  0  0  0  0  0  0
   -2.3190   -1.2380    1.0610 H   0  0  0  0  0  0  0  0  0  0  0  0
   -4.6260   -1.0900    1.4810 H   0  0  0  0  0  0  0  0  0  0  0  0
   -4.4920    0.6380    1.0750 H   0  0  0  0  0  0  0  0  0  0  0  0
  1 11  1  0  0  0  0
  1  2  1  0  0  0  0
  2  7  1  0  0  0  0
  2 12  1  1  0  0  0
  3  2  1  0  0  0  0
  3  4  1  0  0  0  0
  4 16  1  0  0  0  0
  4 15  1  0  0  0  0
  5  4  1  0  0  0  0
  5  6  2  0  0  0  0
  7  8  2  0  0  0  0
  9  5  1  0  0  0  0
 10  1  1  0  0  0  0
 13  3  1  0  0  0  0
 14  3  1  0  0  0  0
 17  9  1  0  0  0  0
 18 28  1  0  0  0  0
 18 19  1  0  0  0  0
 19 20  1  0  0  0  0
 19 29  1  0  0  0  0
 20 31  1  6  0  0  0
 20 21  1  0  0  0  0
 20 22  1  0  0  0  0
 21 32  1  0  0  0  0
 22 24  1  0  0  0  0
 22 35  1  1  0  0  0
 23 22  1  0  0  0  0
 23  7  1  0  0  0  0
 24 25  2  0  0  0  0
 26 18  1  0  0  0  0
 27 18  1  0  0  0  0
 30 19  1  0  0  0  0
 33 21  1  0  0  0  0
 34 21  1  0  0  0  0
 36 23  1  0  0  0  0
 37 24  1  0  0  0  0
 37 38  1  0  0  0  0
 38 39  1  0  0  0  0
 39 40  2  0  0  0  0
 39 41  1  0  0  0  0
 42 37  1  0  0  0  0
 43 38  1  0  0  0  0
 44 38  1  0  0  0  0
M  END
$$$$
