EIH.pdb
 OpenBabel07022418193D

 54 54  0  0  1  0  0  0  0  0999 V2000
   -0.9010    0.4030    5.0570 N   0  0  0  0  0  0  0  0  0  0  0  0
    0.1380    0.2580    4.0070 C   0  0  1  0  0  0  0  0  0  0  0  0
    0.7970   -1.0630    4.3340 C   0  0  0  0  0  0  0  0  0  0  0  0
    1.9000   -1.4650    3.4090 C   0  0  0  0  0  0  0  0  0  0  0  0
    2.4460   -2.7800    3.9030 C   0  0  0  0  0  0  0  0  0  0  0  0
    1.9540   -3.3030    4.9130 O   0  0  0  0  0  0  0  0  0  0  0  0
   -0.5440    0.2740    2.6940 C   0  0  0  0  0  0  0  0  0  0  0  0
   -1.8190    0.1430    2.6450 O   0  0  0  0  0  0  0  0  0  0  0  0
    3.4790   -3.4170    3.2590 O   0  0  0  0  0  0  0  0  0  0  0  0
   -1.2240   -0.5110    5.3940 H   0  0  0  0  0  0  0  0  0  0  0  0
   -1.7080    0.9350    4.6400 H   0  0  0  0  0  0  0  0  0  0  0  0
    0.8870    1.0460    4.1300 H   0  0  0  0  0  0  0  0  0  0  0  0
    0.0370   -1.8790    4.3010 H   0  0  0  0  0  0  0  0  0  0  0  0
    1.2060   -1.0730    5.3630 H   0  0  0  0  0  0  0  0  0  0  0  0
    2.6700   -0.6940    3.3590 H   0  0  0  0  0  0  0  0  0  0  0  0
    1.4350   -1.6330    2.4080 H   0  0  0  0  0  0  0  0  0  0  0  0
    4.1460   -4.0270    3.7370 H   0  0  0  0  0  0  0  0  0  0  0  0
    1.7280    2.7370    0.3000 C   0  0  0  0  0  0  0  0  0  0  0  0
    0.8900    2.2790   -0.8350 C   0  0  0  0  0  0  0  0  0  0  0  0
   -0.4670    1.7720   -0.4940 C   0  0  2  0  0  0  0  0  0  0  0  0
   -1.3150    2.7880    0.1890 C   0  0  0  0  0  0  0  0  0  0  0  0
   -0.4980    0.4470    0.2210 C   0  0  2  0  0  0  0  0  0  0  0  0
    0.1900    0.4360    1.4760 N   0  0  0  0  0  0  0  0  0  0  0  0
   -0.0620   -0.6440   -0.6590 C   0  0  0  0  0  0  0  0  0  0  0  0
    0.8270   -1.4310   -0.2500 O   0  0  0  0  0  0  0  0  0  0  0  0
    2.6480    2.1130    0.4680 H   0  0  0  0  0  0  0  0  0  0  0  0
    1.1570    2.9130    1.2410 H   0  0  0  0  0  0  0  0  0  0  0  0
    2.1470    3.7460    0.0460 H   0  0  0  0  0  0  0  0  0  0  0  0
    0.7430    3.1330   -1.5440 H   0  0  0  0  0  0  0  0  0  0  0  0
    1.4620    1.5280   -1.4210 H   0  0  0  0  0  0  0  0  0  0  0  0
   -0.9720    1.5710   -1.4890 H   0  0  0  0  0  0  0  0  0  0  0  0
   -1.3220    2.6810    1.3010 H   0  0  0  0  0  0  0  0  0  0  0  0
   -1.0260    3.8350   -0.0350 H   0  0  0  0  0  0  0  0  0  0  0  0
   -2.3900    2.6930   -0.1140 H   0  0  0  0  0  0  0  0  0  0  0  0
   -1.5920    0.2580    0.4340 H   0  0  0  0  0  0  0  0  0  0  0  0
    1.2290    0.5470    1.5770 H   0  0  0  0  0  0  0  0  0  0  0  0
   -0.5890   -0.8690   -1.9580 N   0  0  0  0  0  0  0  0  0  0  0  0
   -0.1310   -1.9570   -2.7930 C   0  0  1  0  0  0  0  0  0  0  0  0
   -1.2720   -2.9360   -3.0680 C   0  0  0  0  0  0  0  0  0  0  0  0
   -1.7900   -3.5060   -1.8050 C   0  0  0  0  0  0  0  0  0  0  0  0
   -2.8030   -3.0040   -1.0230 C   0  0  0  0  0  0  0  0  0  0  0  0
   -2.9440   -3.8240    0.0130 N   0  0  0  0  0  0  0  0  0  0  0  0
   -2.0510   -4.8250   -0.0930 C   0  0  0  0  0  0  0  0  0  0  0  0
   -1.3460   -4.6210   -1.2140 N   0  0  0  0  0  0  0  0  0  0  0  0
    0.4810   -1.4840   -4.0490 C   0  0  0  0  0  0  0  0  0  0  0  0
    0.9210   -2.3220   -4.8660 O   0  0  0  0  0  0  0  0  0  0  0  0
    0.5860   -0.1420   -4.3560 O   0  0  0  0  0  0  0  0  0  0  0  0
   -1.3280   -0.2440   -2.3400 H   0  0  0  0  0  0  0  0  0  0  0  0
    0.6610   -2.5450   -2.2550 H   0  0  0  0  0  0  0  0  0  0  0  0
   -0.9580   -3.7270   -3.7570 H   0  0  0  0  0  0  0  0  0  0  0  0
   -2.0840   -2.3540   -3.5490 H   0  0  0  0  0  0  0  0  0  0  0  0
   -3.3730   -2.1080   -1.2230 H   0  0  0  0  0  0  0  0  0  0  0  0
   -3.6520   -3.6920    0.7880 H   0  0  0  0  0  0  0  0  0  0  0  0
   -1.9760   -5.6180    0.6370 H   0  0  0  0  0  0  0  0  0  0  0  0
  1 10  1  0  0  0  0
  2 12  1  1  0  0  0
  2  3  1  0  0  0  0
  2  1  1  0  0  0  0
  3 14  1  0  0  0  0
  4  5  1  0  0  0  0
  4  3  1  0  0  0  0
  5  6  2  0  0  0  0
  7  2  1  0  0  0  0
  8  7  2  0  0  0  0
  9 17  1  0  0  0  0
  9  5  1  0  0  0  0
 11  1  1  0  0  0  0
 13  3  1  0  0  0  0
 15  4  1  0  0  0  0
 16  4  1  0  0  0  0
 18 26  1  0  0  0  0
 18 27  1  0  0  0  0
 19 20  1  0  0  0  0
 19 18  1  0  0  0  0
 20 31  1  6  0  0  0
 20 21  1  0  0  0  0
 20 22  1  0  0  0  0
 21 32  1  0  0  0  0
 22 35  1  1  0  0  0
 22 23  1  0  0  0  0
 23 36  1  0  0  0  0
 23  7  1  0  0  0  0
 24 25  2  0  0  0  0
 24 22  1  0  0  0  0
 28 18  1  0  0  0  0
 29 19  1  0  0  0  0
 30 19  1  0  0  0  0
 33 21  1  0  0  0  0
 34 21  1  0  0  0  0
 37 24  1  0  0  0  0
 38 49  1  1  0  0  0
 38 37  1  0  0  0  0
 39 38  1  0  0  0  0
 39 40  1  0  0  0  0
 40 44  1  0  0  0  0
 40 41  2  0  0  0  0
 41 42  1  0  0  0  0
 42 53  1  0  0  0  0
 43 42  1  0  0  0  0
 43 54  1  0  0  0  0
 44 43  2  0  0  0  0
 45 38  1  0  0  0  0
 46 45  2  0  0  0  0
 47 45  1  0  0  0  0
 48 37  1  0  0  0  0
 50 39  1  0  0  0  0
 51 39  1  0  0  0  0
 52 41  1  0  0  0  0
M  END
$$$$
