EII.pdb
 OpenBabel07022418193D

 56 55  0  0  1  0  0  0  0  0999 V2000
   -1.4830   -0.2350    4.7250 N   0  0  0  0  0  0  0  0  0  0  0  0
   -0.0970    0.1790    4.4500 C   0  0  1  0  0  0  0  0  0  0  0  0
    0.7860   -0.9420    4.9030 C   0  0  0  0  0  0  0  0  0  0  0  0
    2.2420   -0.6970    4.7000 C   0  0  0  0  0  0  0  0  0  0  0  0
    2.7850    0.4730    5.4040 C   0  0  0  0  0  0  0  0  0  0  0  0
    4.0170    0.7080    5.2270 O   0  0  0  0  0  0  0  0  0  0  0  0
    0.0350    0.4550    2.9970 C   0  0  0  0  0  0  0  0  0  0  0  0
   -0.1980    1.6200    2.5730 O   0  0  0  0  0  0  0  0  0  0  0  0
    2.0480    1.3130    6.2310 O   0  0  0  0  0  0  0  0  0  0  0  0
   -1.6870   -1.1660    4.3180 H   0  0  0  0  0  0  0  0  0  0  0  0
   -1.6950   -0.2200    5.7370 H   0  0  0  0  0  0  0  0  0  0  0  0
    0.0510    1.0830    5.0580 H   0  0  0  0  0  0  0  0  0  0  0  0
    0.6360   -1.1750    5.9900 H   0  0  0  0  0  0  0  0  0  0  0  0
    0.5300   -1.8880    4.3810 H   0  0  0  0  0  0  0  0  0  0  0  0
    2.8370   -1.5760    5.0060 H   0  0  0  0  0  0  0  0  0  0  0  0
    2.4430   -0.5570    3.6160 H   0  0  0  0  0  0  0  0  0  0  0  0
    2.5230    1.6730    7.0670 H   0  0  0  0  0  0  0  0  0  0  0  0
    3.6940   -0.0680   -1.5200 C   0  0  0  0  0  0  0  0  0  0  0  0
    2.1900   -0.1540   -1.2390 C   0  0  0  0  0  0  0  0  0  0  0  0
    1.9580   -0.4140    0.2060 C   0  0  2  0  0  0  0  0  0  0  0  0
    2.5840   -1.7230    0.6300 C   0  0  0  0  0  0  0  0  0  0  0  0
    0.5400   -0.2380    0.6050 C   0  0  2  0  0  0  0  0  0  0  0  0
    0.4070   -0.5160    2.0660 N   0  0  0  0  0  0  0  0  0  0  0  0
   -0.4650   -1.0430   -0.0830 C   0  0  0  0  0  0  0  0  0  0  0  0
   -1.1330   -1.9320    0.5720 O   0  0  0  0  0  0  0  0  0  0  0  0
    3.8090    0.4760   -2.4980 H   0  0  0  0  0  0  0  0  0  0  0  0
    4.0960   -1.0820   -1.7070 H   0  0  0  0  0  0  0  0  0  0  0  0
    4.2320    0.4970   -0.7610 H   0  0  0  0  0  0  0  0  0  0  0  0
    1.7420    0.7830   -1.6050 H   0  0  0  0  0  0  0  0  0  0  0  0
    1.8340   -1.0170   -1.8430 H   0  0  0  0  0  0  0  0  0  0  0  0
    2.5220    0.4250    0.7450 H   0  0  0  0  0  0  0  0  0  0  0  0
    1.8130   -2.4800    0.8840 H   0  0  0  0  0  0  0  0  0  0  0  0
    3.1650   -1.5630    1.5610 H   0  0  0  0  0  0  0  0  0  0  0  0
    3.3010   -2.0940   -0.1310 H   0  0  0  0  0  0  0  0  0  0  0  0
    0.2840    0.8370    0.5030 H   0  0  0  0  0  0  0  0  0  0  0  0
    0.6030   -1.4810    2.3890 H   0  0  0  0  0  0  0  0  0  0  0  0
   -5.3710   -1.1820   -3.3510 C   0  0  0  0  0  0  0  0  0  0  0  0
   -4.0610   -1.9360   -3.1000 C   0  0  0  0  0  0  0  0  0  0  0  0
   -3.0240   -1.0220   -2.5070 C   0  0  2  0  0  0  0  0  0  0  0  0
   -2.6880    0.1320   -3.3970 C   0  0  0  0  0  0  0  0  0  0  0  0
   -1.8500   -1.8230   -2.0390 C   0  0  2  0  0  0  0  0  0  0  0  0
   -0.8210   -0.9640   -1.4520 N   0  0  0  0  0  0  0  0  0  0  0  0
   -1.2160   -2.6340   -3.0910 C   0  0  0  0  0  0  0  0  0  0  0  0
   -1.7850   -3.5190   -3.7810 O   0  0  0  0  0  0  0  0  0  0  0  0
    0.1460   -2.4590   -3.4070 O   0  0  0  0  0  0  0  0  0  0  0  0
   -5.3740   -0.3470   -2.6230 H   0  0  0  0  0  0  0  0  0  0  0  0
   -6.2470   -1.8280   -3.1690 H   0  0  0  0  0  0  0  0  0  0  0  0
   -5.3330   -0.8020   -4.3760 H   0  0  0  0  0  0  0  0  0  0  0  0
   -4.3160   -2.7830   -2.4380 H   0  0  0  0  0  0  0  0  0  0  0  0
   -3.6970   -2.3330   -4.0720 H   0  0  0  0  0  0  0  0  0  0  0  0
   -3.5390   -0.5600   -1.6000 H   0  0  0  0  0  0  0  0  0  0  0  0
   -1.6030    0.0830   -3.6280 H   0  0  0  0  0  0  0  0  0  0  0  0
   -2.8780    1.1210   -2.9360 H   0  0  0  0  0  0  0  0  0  0  0  0
   -3.3140    0.0460   -4.3100 H   0  0  0  0  0  0  0  0  0  0  0  0
   -2.2530   -2.5280   -1.2600 H   0  0  0  0  0  0  0  0  0  0  0  0
   -0.3430   -0.2620   -2.0450 H   0  0  0  0  0  0  0  0  0  0  0  0
  1 11  1  0  0  0  0
  2  1  1  0  0  0  0
  2  3  1  0  0  0  0
  2 12  1  1  0  0  0
  3 13  1  0  0  0  0
  4  3  1  0  0  0  0
  4 15  1  0  0  0  0
  4  5  1  0  0  0  0
  5  9  1  0  0  0  0
  6  5  2  0  0  0  0
  7  2  1  0  0  0  0
  8  7  2  0  0  0  0
  9 17  1  0  0  0  0
 10  1  1  0  0  0  0
 14  3  1  0  0  0  0
 16  4  1  0  0  0  0
 18 19  1  0  0  0  0
 18 28  1  0  0  0  0
 19 20  1  0  0  0  0
 20 22  1  0  0  0  0
 20 21  1  0  0  0  0
 20 31  1  1  0  0  0
 21 32  1  0  0  0  0
 21 33  1  0  0  0  0
 22 35  1  6  0  0  0
 22 23  1  0  0  0  0
 23 36  1  0  0  0  0
 23  7  1  0  0  0  0
 24 25  2  0  0  0  0
 24 22  1  0  0  0  0
 26 18  1  0  0  0  0
 27 18  1  0  0  0  0
 29 19  1  0  0  0  0
 30 19  1  0  0  0  0
 34 21  1  0  0  0  0
 37 47  1  0  0  0  0
 37 38  1  0  0  0  0
 37 46  1  0  0  0  0
 38 39  1  0  0  0  0
 38 49  1  0  0  0  0
 39 41  1  0  0  0  0
 39 51  1  1  0  0  0
 40 53  1  0  0  0  0
 40 39  1  0  0  0  0
 41 42  1  0  0  0  0
 41 55  1  1  0  0  0
 42 24  1  0  0  0  0
 43 41  1  0  0  0  0
 44 43  2  0  0  0  0
 45 43  1  0  0  0  0
 48 37  1  0  0  0  0
 50 38  1  0  0  0  0
 52 40  1  0  0  0  0
 54 40  1  0  0  0  0
 56 42  1  0  0  0  0
M  END
$$$$
