EIK.pdb
 OpenBabel07022418193D

 58 57  0  0  1  0  0  0  0  0999 V2000
    2.0780   -3.0360    4.5910 N   0  0  0  0  0  0  0  0  0  0  0  0
    2.2660   -2.2270    3.3420 C   0  0  1  0  0  0  0  0  0  0  0  0
    2.4070   -3.2240    2.2660 C   0  0  0  0  0  0  0  0  0  0  0  0
    2.6460   -2.7540    0.8790 C   0  0  0  0  0  0  0  0  0  0  0  0
    3.8700   -1.9480    0.6960 C   0  0  0  0  0  0  0  0  0  0  0  0
    4.6210   -1.7260    1.6660 O   0  0  0  0  0  0  0  0  0  0  0  0
    1.0920   -1.3470    3.3130 C   0  0  0  0  0  0  0  0  0  0  0  0
    0.2070   -1.3610    4.2440 O   0  0  0  0  0  0  0  0  0  0  0  0
    4.1920   -1.4350   -0.5400 O   0  0  0  0  0  0  0  0  0  0  0  0
    1.7500   -2.3640    5.3360 H   0  0  0  0  0  0  0  0  0  0  0  0
    1.2600   -3.6370    4.3770 H   0  0  0  0  0  0  0  0  0  0  0  0
    3.1940   -1.6270    3.4760 H   0  0  0  0  0  0  0  0  0  0  0  0
    1.4710   -3.8630    2.2210 H   0  0  0  0  0  0  0  0  0  0  0  0
    3.2040   -3.9500    2.5790 H   0  0  0  0  0  0  0  0  0  0  0  0
    2.8760   -3.7140    0.2760 H   0  0  0  0  0  0  0  0  0  0  0  0
    1.7800   -2.3450    0.3360 H   0  0  0  0  0  0  0  0  0  0  0  0
    4.8060   -0.6190   -0.6680 H   0  0  0  0  0  0  0  0  0  0  0  0
   -0.6150    4.2730    2.0970 C   0  0  0  0  0  0  0  0  0  0  0  0
   -1.0980    2.8270    2.1010 C   0  0  0  0  0  0  0  0  0  0  0  0
    0.0760    1.8760    2.0910 C   0  0  2  0  0  0  0  0  0  0  0  0
    0.8840    2.1190    0.8330 C   0  0  0  0  0  0  0  0  0  0  0  0
   -0.3010    0.4440    2.3020 C   0  0  2  0  0  0  0  0  0  0  0  0
    0.8530   -0.4310    2.2840 N   0  0  0  0  0  0  0  0  0  0  0  0
   -1.3760   -0.0500    1.4230 C   0  0  0  0  0  0  0  0  0  0  0  0
   -2.4630    0.6100    1.2780 O   0  0  0  0  0  0  0  0  0  0  0  0
    0.5020    4.2980    2.2300 H   0  0  0  0  0  0  0  0  0  0  0  0
   -1.0440    4.7460    3.0130 H   0  0  0  0  0  0  0  0  0  0  0  0
   -0.9190    4.8420    1.2210 H   0  0  0  0  0  0  0  0  0  0  0  0
   -1.7120    2.7480    1.1620 H   0  0  0  0  0  0  0  0  0  0  0  0
   -1.7810    2.6160    2.9380 H   0  0  0  0  0  0  0  0  0  0  0  0
    0.7610    2.2360    2.9230 H   0  0  0  0  0  0  0  0  0  0  0  0
    0.8680    3.1750    0.5330 H   0  0  0  0  0  0  0  0  0  0  0  0
    0.5680    1.4320    0.0180 H   0  0  0  0  0  0  0  0  0  0  0  0
    1.9350    1.8440    1.0560 H   0  0  0  0  0  0  0  0  0  0  0  0
   -0.7240    0.3820    3.3550 H   0  0  0  0  0  0  0  0  0  0  0  0
    1.5000   -0.3180    1.4470 H   0  0  0  0  0  0  0  0  0  0  0  0
   -1.2580   -1.2650    0.7080 N   0  0  0  0  0  0  0  0  0  0  0  0
   -2.3160   -1.7640   -0.1690 C   0  0  1  0  0  0  0  0  0  0  0  0
   -1.7640   -1.9250   -1.5930 C   0  0  0  0  0  0  0  0  0  0  0  0
   -1.2730   -0.6390   -2.1410 C   0  0  0  0  0  0  0  0  0  0  0  0
   -0.7120   -0.6580   -3.5030 C   0  0  0  0  0  0  0  0  0  0  0  0
   -1.5880   -1.0980   -4.6130 C   0  0  0  0  0  0  0  0  0  0  0  0
   -2.0720   -2.4630   -4.4500 N   0  0  0  0  0  0  0  0  0  0  0  0
   -2.7190   -3.1050    0.3160 C   0  0  0  0  0  0  0  0  0  0  0  0
   -3.6250   -3.7090   -0.3070 O   0  0  0  0  0  0  0  0  0  0  0  0
   -2.1510   -3.7240    1.4170 O   0  0  0  0  0  0  0  0  0  0  0  0
   -0.4000   -1.8240    0.8140 H   0  0  0  0  0  0  0  0  0  0  0  0
   -3.1890   -1.0900   -0.1740 H   0  0  0  0  0  0  0  0  0  0  0  0
   -1.0460   -2.7380   -1.5650 H   0  0  0  0  0  0  0  0  0  0  0  0
   -2.6620   -2.2950   -2.1690 H   0  0  0  0  0  0  0  0  0  0  0  0
   -0.4530   -0.2800   -1.4510 H   0  0  0  0  0  0  0  0  0  0  0  0
   -2.0680    0.1350   -2.0310 H   0  0  0  0  0  0  0  0  0  0  0  0
    0.2340   -1.2700   -3.5590 H   0  0  0  0  0  0  0  0  0  0  0  0
   -0.3520    0.3900   -3.7240 H   0  0  0  0  0  0  0  0  0  0  0  0
   -0.9450   -1.1340   -5.5420 H   0  0  0  0  0  0  0  0  0  0  0  0
   -2.4050   -0.4020   -4.8640 H   0  0  0  0  0  0  0  0  0  0  0  0
   -1.3160   -3.1470   -4.3640 H   0  0  0  0  0  0  0  0  0  0  0  0
   -2.6620   -2.7550   -5.2610 H   0  0  0  0  0  0  0  0  0  0  0  0
  1 10  1  0  0  0  0
  2 12  1  1  0  0  0
  2  1  1  0  0  0  0
  3 14  1  0  0  0  0
  3  2  1  0  0  0  0
  4  3  1  0  0  0  0
  5  4  1  0  0  0  0
  5  6  2  0  0  0  0
  7  2  1  0  0  0  0
  7  8  2  0  0  0  0
  9  5  1  0  0  0  0
 11  1  1  0  0  0  0
 13  3  1  0  0  0  0
 15  4  1  0  0  0  0
 16  4  1  0  0  0  0
 17  9  1  0  0  0  0
 18 19  1  0  0  0  0
 18 26  1  0  0  0  0
 18 27  1  0  0  0  0
 19 30  1  0  0  0  0
 20 19  1  0  0  0  0
 20 22  1  0  0  0  0
 20 31  1  1  0  0  0
 21 34  1  0  0  0  0
 21 20  1  0  0  0  0
 22 35  1  1  0  0  0
 23 22  1  0  0  0  0
 23  7  1  0  0  0  0
 24 22  1  0  0  0  0
 25 24  2  0  0  0  0
 28 18  1  0  0  0  0
 29 19  1  0  0  0  0
 32 21  1  0  0  0  0
 33 21  1  0  0  0  0
 36 23  1  0  0  0  0
 37 47  1  0  0  0  0
 37 24  1  0  0  0  0
 38 48  1  1  0  0  0
 38 44  1  0  0  0  0
 38 37  1  0  0  0  0
 39 49  1  0  0  0  0
 39 38  1  0  0  0  0
 40 52  1  0  0  0  0
 40 39  1  0  0  0  0
 40 51  1  0  0  0  0
 41 40  1  0  0  0  0
 42 43  1  0  0  0  0
 42 41  1  0  0  0  0
 43 57  1  0  0  0  0
 44 46  1  0  0  0  0
 45 44  2  0  0  0  0
 50 39  1  0  0  0  0
 53 41  1  0  0  0  0
 54 41  1  0  0  0  0
 55 42  1  0  0  0  0
 56 42  1  0  0  0  0
 58 43  1  0  0  0  0
M  END
$$$$
