EIL.pdb
 OpenBabel07022418193D

 56 55  0  0  1  0  0  0  0  0999 V2000
    2.2760   -2.3800    4.2830 N   0  0  0  0  0  0  0  0  0  0  0  0
    2.4660   -2.0940    2.7930 C   0  0  1  0  0  0  0  0  0  0  0  0
    2.4780   -3.4060    2.1370 C   0  0  0  0  0  0  0  0  0  0  0  0
    2.7060   -3.6010    0.7090 C   0  0  0  0  0  0  0  0  0  0  0  0
    1.8150   -3.1070   -0.3060 C   0  0  0  0  0  0  0  0  0  0  0  0
    1.9740   -2.0540   -0.9480 O   0  0  0  0  0  0  0  0  0  0  0  0
    1.4230   -1.1120    2.5540 C   0  0  0  0  0  0  0  0  0  0  0  0
    0.4240   -1.0470    3.3690 O   0  0  0  0  0  0  0  0  0  0  0  0
    0.6580   -3.8540   -0.6270 O   0  0  0  0  0  0  0  0  0  0  0  0
    1.9160   -3.3290    4.4030 H   0  0  0  0  0  0  0  0  0  0  0  0
    3.1250   -2.1200    4.7890 H   0  0  0  0  0  0  0  0  0  0  0  0
    3.4820   -1.6470    2.7130 H   0  0  0  0  0  0  0  0  0  0  0  0
    3.2660   -4.0640    2.6850 H   0  0  0  0  0  0  0  0  0  0  0  0
    1.5210   -3.9890    2.4630 H   0  0  0  0  0  0  0  0  0  0  0  0
    3.7940   -3.2550    0.4750 H   0  0  0  0  0  0  0  0  0  0  0  0
    2.8610   -4.7340    0.5330 H   0  0  0  0  0  0  0  0  0  0  0  0
    0.2530   -3.8070   -1.5740 H   0  0  0  0  0  0  0  0  0  0  0  0
    2.9940    1.8730    2.5120 C   0  0  0  0  0  0  0  0  0  0  0  0
    1.7420    2.6130    2.2750 C   0  0  0  0  0  0  0  0  0  0  0  0
    0.8220    2.1630    1.1870 C   0  0  2  0  0  0  0  0  0  0  0  0
   -0.3530    3.1800    1.1930 C   0  0  0  0  0  0  0  0  0  0  0  0
    0.2930    0.7890    1.4540 C   0  0  2  0  0  0  0  0  0  0  0  0
    1.3540   -0.1590    1.5140 N   0  0  0  0  0  0  0  0  0  0  0  0
   -0.8890    0.4180    0.6580 C   0  0  0  0  0  0  0  0  0  0  0  0
   -1.7940    1.3130    0.5250 O   0  0  0  0  0  0  0  0  0  0  0  0
    3.7930    2.5930    2.9410 H   0  0  0  0  0  0  0  0  0  0  0  0
    3.5040    1.4440    1.6390 H   0  0  0  0  0  0  0  0  0  0  0  0
    2.9360    1.1150    3.3190 H   0  0  0  0  0  0  0  0  0  0  0  0
    1.1930    2.6510    3.2760 H   0  0  0  0  0  0  0  0  0  0  0  0
    2.0240    3.7090    2.1330 H   0  0  0  0  0  0  0  0  0  0  0  0
    1.3530    2.2280    0.2190 H   0  0  0  0  0  0  0  0  0  0  0  0
    0.1310    4.1690    1.4690 H   0  0  0  0  0  0  0  0  0  0  0  0
   -1.0880    2.9480    1.9630 H   0  0  0  0  0  0  0  0  0  0  0  0
   -0.7680    3.3200    0.1830 H   0  0  0  0  0  0  0  0  0  0  0  0
   -0.1130    0.8610    2.5380 H   0  0  0  0  0  0  0  0  0  0  0  0
    2.0850   -0.1220    0.7660 H   0  0  0  0  0  0  0  0  0  0  0  0
   -4.1870   -0.3010   -3.0920 C   0  0  0  0  0  0  0  0  0  0  0  0
   -3.3290   -1.5530   -3.0270 C   0  0  0  0  0  0  0  0  0  0  0  0
   -2.8750   -1.8580   -4.4680 C   0  0  0  0  0  0  0  0  0  0  0  0
   -2.1170   -1.3460   -2.1560 C   0  0  0  0  0  0  0  0  0  0  0  0
   -2.4090   -0.9870   -0.7430 C   0  0  2  0  0  0  0  0  0  0  0  0
   -1.1580   -0.7990    0.0220 N   0  0  0  0  0  0  0  0  0  0  0  0
   -3.2370   -2.0330   -0.1160 C   0  0  0  0  0  0  0  0  0  0  0  0
   -4.3670   -2.3940   -0.5090 O   0  0  0  0  0  0  0  0  0  0  0  0
   -2.7130   -2.6820    1.0190 O   0  0  0  0  0  0  0  0  0  0  0  0
   -3.6090    0.6030   -2.8360 H   0  0  0  0  0  0  0  0  0  0  0  0
   -5.0160   -0.3610   -2.3420 H   0  0  0  0  0  0  0  0  0  0  0  0
   -4.6580   -0.2570   -4.0860 H   0  0  0  0  0  0  0  0  0  0  0  0
   -3.9700   -2.3890   -2.7530 H   0  0  0  0  0  0  0  0  0  0  0  0
   -2.0460   -2.5760   -4.3850 H   0  0  0  0  0  0  0  0  0  0  0  0
   -2.5770   -0.9000   -4.9480 H   0  0  0  0  0  0  0  0  0  0  0  0
   -3.7120   -2.3430   -4.9850 H   0  0  0  0  0  0  0  0  0  0  0  0
   -1.5430   -0.5010   -2.6400 H   0  0  0  0  0  0  0  0  0  0  0  0
   -1.4250   -2.2240   -2.2240 H   0  0  0  0  0  0  0  0  0  0  0  0
   -2.9920   -0.0560   -0.7120 H   0  0  0  0  0  0  0  0  0  0  0  0
   -0.4780   -1.5510    0.1090 H   0  0  0  0  0  0  0  0  0  0  0  0
  1 10  1  0  0  0  0
  1 11  1  0  0  0  0
  2 12  1  6  0  0  0
  2  1  1  0  0  0  0
  3 14  1  0  0  0  0
  3 13  1  0  0  0  0
  3  2  1  0  0  0  0
  4  3  1  0  0  0  0
  5  4  1  0  0  0  0
  6  5  2  0  0  0  0
  7  2  1  0  0  0  0
  7  8  2  0  0  0  0
  9  5  1  0  0  0  0
 15  4  1  0  0  0  0
 16  4  1  0  0  0  0
 17  9  1  0  0  0  0
 18 26  1  0  0  0  0
 18 28  1  0  0  0  0
 19 18  1  0  0  0  0
 19 29  1  0  0  0  0
 20 31  1  6  0  0  0
 20 21  1  0  0  0  0
 20 22  1  0  0  0  0
 20 19  1  0  0  0  0
 21 32  1  0  0  0  0
 21 33  1  0  0  0  0
 22 23  1  0  0  0  0
 22 35  1  1  0  0  0
 23  7  1  0  0  0  0
 24 22  1  0  0  0  0
 25 24  2  0  0  0  0
 27 18  1  0  0  0  0
 30 19  1  0  0  0  0
 34 21  1  0  0  0  0
 36 23  1  0  0  0  0
 37 38  1  0  0  0  0
 37 46  1  0  0  0  0
 37 47  1  0  0  0  0
 38 49  1  0  0  0  0
 38 40  1  0  0  0  0
 39 50  1  0  0  0  0
 39 38  1  0  0  0  0
 40 41  1  0  0  0  0
 41 55  1  1  0  0  0
 41 43  1  0  0  0  0
 41 42  1  0  0  0  0
 42 56  1  0  0  0  0
 42 24  1  0  0  0  0
 43 45  1  0  0  0  0
 44 43  2  0  0  0  0
 48 37  1  0  0  0  0
 51 39  1  0  0  0  0
 52 39  1  0  0  0  0
 53 40  1  0  0  0  0
 54 40  1  0  0  0  0
M  END
$$$$
