EIM.pdb
 OpenBabel07022418193D

 54 53  0  0  1  0  0  0  0  0999 V2000
    0.5310   -2.4230    5.1250 N   0  0  0  0  0  0  0  0  0  0  0  0
    0.5970   -2.3230    3.6260 C   0  0  1  0  0  0  0  0  0  0  0  0
   -0.2730   -3.4290    3.1610 C   0  0  0  0  0  0  0  0  0  0  0  0
   -0.4140   -3.6460    1.7010 C   0  0  0  0  0  0  0  0  0  0  0  0
    0.8690   -3.9500    1.0270 C   0  0  0  0  0  0  0  0  0  0  0  0
    1.9320   -4.0130    1.6750 O   0  0  0  0  0  0  0  0  0  0  0  0
    0.2550   -0.9660    3.2360 C   0  0  0  0  0  0  0  0  0  0  0  0
   -0.1600   -0.1780    4.1700 O   0  0  0  0  0  0  0  0  0  0  0  0
    0.8820   -4.1640   -0.3350 O   0  0  0  0  0  0  0  0  0  0  0  0
    0.5400   -3.4300    5.3980 H   0  0  0  0  0  0  0  0  0  0  0  0
    1.3260   -1.8890    5.5330 H   0  0  0  0  0  0  0  0  0  0  0  0
    1.6830   -2.4840    3.4220 H   0  0  0  0  0  0  0  0  0  0  0  0
    0.1380   -4.3900    3.5990 H   0  0  0  0  0  0  0  0  0  0  0  0
   -1.2790   -3.2750    3.6190 H   0  0  0  0  0  0  0  0  0  0  0  0
   -1.1070   -4.5510    1.5970 H   0  0  0  0  0  0  0  0  0  0  0  0
   -0.9190   -2.8680    1.1400 H   0  0  0  0  0  0  0  0  0  0  0  0
    1.7420   -4.1400   -0.9030 H   0  0  0  0  0  0  0  0  0  0  0  0
    3.0440    2.2100   -0.2840 C   0  0  0  0  0  0  0  0  0  0  0  0
    1.9270    1.2250    0.0350 C   0  0  0  0  0  0  0  0  0  0  0  0
    1.2340    1.7290    1.2660 C   0  0  2  0  0  0  0  0  0  0  0  0
    2.1990    1.8220    2.4540 C   0  0  0  0  0  0  0  0  0  0  0  0
    0.0060    0.9180    1.6470 C   0  0  2  0  0  0  0  0  0  0  0  0
    0.3560   -0.4680    1.9100 N   0  0  0  0  0  0  0  0  0  0  0  0
   -1.0280    1.0740    0.6270 C   0  0  0  0  0  0  0  0  0  0  0  0
   -1.3610    2.2850    0.3610 O   0  0  0  0  0  0  0  0  0  0  0  0
    2.7340    3.2090    0.0770 H   0  0  0  0  0  0  0  0  0  0  0  0
    3.2670    2.2220   -1.3700 H   0  0  0  0  0  0  0  0  0  0  0  0
    3.9330    1.8360    0.2960 H   0  0  0  0  0  0  0  0  0  0  0  0
    1.1930    1.3490   -0.8020 H   0  0  0  0  0  0  0  0  0  0  0  0
    2.3470    0.2250    0.1120 H   0  0  0  0  0  0  0  0  0  0  0  0
    0.9200    2.7730    1.0650 H   0  0  0  0  0  0  0  0  0  0  0  0
    2.7680    0.9010    2.5870 H   0  0  0  0  0  0  0  0  0  0  0  0
    1.6160    2.1490    3.3180 H   0  0  0  0  0  0  0  0  0  0  0  0
    2.9200    2.6260    2.1800 H   0  0  0  0  0  0  0  0  0  0  0  0
   -0.3750    1.4080    2.5770 H   0  0  0  0  0  0  0  0  0  0  0  0
    0.6820   -1.1030    1.1660 H   0  0  0  0  0  0  0  0  0  0  0  0
   -0.3320   -2.2700   -4.1510 C   0  0  0  0  0  0  0  0  0  0  0  0
   -0.5910   -0.5050   -4.5040 S   0  0  0  0  0  0  0  0  0  0  0  0
   -1.0010    0.3000   -2.9070 C   0  0  0  0  0  0  0  0  0  0  0  0
   -2.3270   -0.2150   -2.4120 C   0  0  0  0  0  0  0  0  0  0  0  0
   -2.7340    0.4080   -1.1000 C   0  0  2  0  0  0  0  0  0  0  0  0
   -1.7050    0.0910   -0.0990 N   0  0  0  0  0  0  0  0  0  0  0  0
   -4.0590   -0.0840   -0.6540 C   0  0  0  0  0  0  0  0  0  0  0  0
   -5.0590    0.0960   -1.3800 O   0  0  0  0  0  0  0  0  0  0  0  0
   -4.2160   -0.7390    0.5490 O   0  0  0  0  0  0  0  0  0  0  0  0
   -0.2030   -2.4710   -3.0700 H   0  0  0  0  0  0  0  0  0  0  0  0
    0.5410   -2.6400   -4.7240 H   0  0  0  0  0  0  0  0  0  0  0  0
   -1.2190   -2.8470   -4.5100 H   0  0  0  0  0  0  0  0  0  0  0  0
   -0.1630   -0.0090   -2.2220 H   0  0  0  0  0  0  0  0  0  0  0  0
   -0.9990    1.3910   -2.9800 H   0  0  0  0  0  0  0  0  0  0  0  0
   -2.2570   -1.3370   -2.3210 H   0  0  0  0  0  0  0  0  0  0  0  0
   -3.0830   -0.0450   -3.2080 H   0  0  0  0  0  0  0  0  0  0  0  0
   -2.7890    1.5140   -1.2450 H   0  0  0  0  0  0  0  0  0  0  0  0
   -1.4690   -0.8920    0.0750 H   0  0  0  0  0  0  0  0  0  0  0  0
  1 10  1  0  0  0  0
  1 11  1  0  0  0  0
  2 12  1  6  0  0  0
  2  1  1  0  0  0  0
  3 13  1  0  0  0  0
  3 14  1  0  0  0  0
  3  2  1  0  0  0  0
  4  3  1  0  0  0  0
  5  6  2  0  0  0  0
  5  4  1  0  0  0  0
  7  2  1  0  0  0  0
  7  8  2  0  0  0  0
  9  5  1  0  0  0  0
 15  4  1  0  0  0  0
 16  4  1  0  0  0  0
 17  9  1  0  0  0  0
 18 19  1  0  0  0  0
 18 26  1  0  0  0  0
 18 28  1  0  0  0  0
 19 30  1  0  0  0  0
 19 20  1  0  0  0  0
 20 31  1  6  0  0  0
 20 22  1  0  0  0  0
 20 21  1  0  0  0  0
 21 32  1  0  0  0  0
 21 33  1  0  0  0  0
 22 23  1  0  0  0  0
 22 35  1  1  0  0  0
 23  7  1  0  0  0  0
 24 22  1  0  0  0  0
 25 24  2  0  0  0  0
 27 18  1  0  0  0  0
 29 19  1  0  0  0  0
 34 21  1  0  0  0  0
 36 23  1  0  0  0  0
 37 46  1  0  0  0  0
 38 37  1  0  0  0  0
 38 39  1  0  0  0  0
 39 40  1  0  0  0  0
 39 49  1  0  0  0  0
 40 51  1  0  0  0  0
 40 41  1  0  0  0  0
 41 53  1  6  0  0  0
 41 43  1  0  0  0  0
 41 42  1  0  0  0  0
 42 54  1  0  0  0  0
 42 24  1  0  0  0  0
 43 45  1  0  0  0  0
 44 43  2  0  0  0  0
 47 37  1  0  0  0  0
 48 37  1  0  0  0  0
 50 39  1  0  0  0  0
 52 40  1  0  0  0  0
M  END
$$$$
