EIQ.pdb
 OpenBabel07022418193D

 54 53  0  0  1  0  0  0  0  0999 V2000
   -2.1750    0.7910    1.3390 N   0  0  0  0  0  0  0  0  0  0  0  0
   -1.3330    1.8230    0.7070 C   0  0  1  0  0  0  0  0  0  0  0  0
   -1.0180    2.7870    1.8220 C   0  0  0  0  0  0  0  0  0  0  0  0
   -0.1710    3.9040    1.3280 C   0  0  0  0  0  0  0  0  0  0  0  0
    0.1390    4.8910    2.4120 C   0  0  0  0  0  0  0  0  0  0  0  0
    0.8510    5.8820    2.1070 O   0  0  0  0  0  0  0  0  0  0  0  0
   -0.0830    1.2230    0.2080 C   0  0  0  0  0  0  0  0  0  0  0  0
    0.7630    1.8340   -0.4850 O   0  0  0  0  0  0  0  0  0  0  0  0
   -0.3020    4.7800    3.7050 O   0  0  0  0  0  0  0  0  0  0  0  0
   -2.3970    0.0400    0.6470 H   0  0  0  0  0  0  0  0  0  0  0  0
   -3.0860    1.2310    1.5970 H   0  0  0  0  0  0  0  0  0  0  0  0
   -1.9390    2.3200   -0.0490 H   0  0  0  0  0  0  0  0  0  0  0  0
   -0.4830    2.1710    2.6040 H   0  0  0  0  0  0  0  0  0  0  0  0
   -1.9660    3.1960    2.2330 H   0  0  0  0  0  0  0  0  0  0  0  0
    0.8220    3.5680    0.9530 H   0  0  0  0  0  0  0  0  0  0  0  0
   -0.6760    4.4320    0.5140 H   0  0  0  0  0  0  0  0  0  0  0  0
   -0.3410    5.5600    4.3730 H   0  0  0  0  0  0  0  0  0  0  0  0
    3.7320   -0.1550    3.0180 C   0  0  0  0  0  0  0  0  0  0  0  0
    2.7400    0.1090    1.9090 C   0  0  0  0  0  0  0  0  0  0  0  0
    2.4100   -1.1480    1.1320 C   0  0  2  0  0  0  0  0  0  0  0  0
    3.6930   -1.6660    0.5350 C   0  0  0  0  0  0  0  0  0  0  0  0
    1.4950   -0.7470   -0.0010 C   0  0  2  0  0  0  0  0  0  0  0  0
    0.2730   -0.1450    0.4820 N   0  0  0  0  0  0  0  0  0  0  0  0
    1.1340   -1.8880   -0.8680 C   0  0  0  0  0  0  0  0  0  0  0  0
    2.0580   -2.5510   -1.3940 O   0  0  0  0  0  0  0  0  0  0  0  0
    4.0690   -1.1960    3.0690 H   0  0  0  0  0  0  0  0  0  0  0  0
    3.2600    0.0830    4.0070 H   0  0  0  0  0  0  0  0  0  0  0  0
    4.6180    0.5070    2.9280 H   0  0  0  0  0  0  0  0  0  0  0  0
    1.8580    0.6200    2.2900 H   0  0  0  0  0  0  0  0  0  0  0  0
    3.2200    0.8060    1.1710 H   0  0  0  0  0  0  0  0  0  0  0  0
    1.9350   -1.8840    1.8100 H   0  0  0  0  0  0  0  0  0  0  0  0
    3.6830   -2.7760    0.5040 H   0  0  0  0  0  0  0  0  0  0  0  0
    3.8490   -1.3000   -0.5030 H   0  0  0  0  0  0  0  0  0  0  0  0
    4.5980   -1.3220    1.1020 H   0  0  0  0  0  0  0  0  0  0  0  0
    2.0710    0.0230   -0.5940 H   0  0  0  0  0  0  0  0  0  0  0  0
   -0.3690   -0.7280    1.0500 H   0  0  0  0  0  0  0  0  0  0  0  0
   -4.4880   -4.5800    0.9950 N   0  0  0  0  0  0  0  0  0  0  0  0
   -3.3020   -4.8940    0.2830 C   0  0  0  0  0  0  0  0  0  0  0  0
   -2.8890   -6.0850    0.3320 O   0  0  0  0  0  0  0  0  0  0  0  0
   -2.5930   -3.8370   -0.4840 C   0  0  0  0  0  0  0  0  0  0  0  0
   -1.3510   -4.4070   -1.1620 C   0  0  0  0  0  0  0  0  0  0  0  0
   -0.6270   -3.3350   -1.9430 C   0  0  2  0  0  0  0  0  0  0  0  0
   -0.1950   -2.2480   -1.1180 N   0  0  0  0  0  0  0  0  0  0  0  0
   -1.4410   -2.9260   -3.0920 C   0  0  0  0  0  0  0  0  0  0  0  0
   -1.8620   -3.8210   -3.8690 O   0  0  0  0  0  0  0  0  0  0  0  0
   -1.7910   -1.6180   -3.3990 O   0  0  0  0  0  0  0  0  0  0  0  0
   -4.6630   -4.8590    1.9840 H   0  0  0  0  0  0  0  0  0  0  0  0
   -5.2320   -4.0390    0.5050 H   0  0  0  0  0  0  0  0  0  0  0  0
   -3.2890   -3.3830   -1.2160 H   0  0  0  0  0  0  0  0  0  0  0  0
   -2.3270   -3.0420    0.2440 H   0  0  0  0  0  0  0  0  0  0  0  0
   -1.7200   -5.2030   -1.8400 H   0  0  0  0  0  0  0  0  0  0  0  0
   -0.7410   -4.8610   -0.3800 H   0  0  0  0  0  0  0  0  0  0  0  0
    0.3000   -3.8350   -2.3470 H   0  0  0  0  0  0  0  0  0  0  0  0
   -0.9600   -1.6690   -0.6610 H   0  0  0  0  0  0  0  0  0  0  0  0
  1 11  1  0  0  0  0
  2 12  1  6  0  0  0
  2  1  1  0  0  0  0
  2  3  1  0  0  0  0
  3 14  1  0  0  0  0
  3 13  1  0  0  0  0
  4  3  1  0  0  0  0
  4  5  1  0  0  0  0
  5  9  1  0  0  0  0
  6  5  2  0  0  0  0
  7 23  1  0  0  0  0
  7  2  1  0  0  0  0
  8  7  2  0  0  0  0
  9 17  1  0  0  0  0
 10  1  1  0  0  0  0
 15  4  1  0  0  0  0
 16  4  1  0  0  0  0
 18 26  1  0  0  0  0
 18 27  1  0  0  0  0
 19 29  1  0  0  0  0
 19 18  1  0  0  0  0
 20 31  1  1  0  0  0
 20 19  1  0  0  0  0
 21 34  1  0  0  0  0
 21 20  1  0  0  0  0
 22 35  1  6  0  0  0
 22 23  1  0  0  0  0
 22 20  1  0  0  0  0
 23 36  1  0  0  0  0
 24 22  1  0  0  0  0
 25 24  2  0  0  0  0
 28 18  1  0  0  0  0
 30 19  1  0  0  0  0
 32 21  1  0  0  0  0
 33 21  1  0  0  0  0
 37 47  1  0  0  0  0
 38 39  2  0  0  0  0
 38 37  1  0  0  0  0
 40 50  1  0  0  0  0
 40 38  1  0  0  0  0
 41 40  1  0  0  0  0
 41 52  1  0  0  0  0
 42 53  1  6  0  0  0
 42 41  1  0  0  0  0
 42 43  1  0  0  0  0
 43 24  1  0  0  0  0
 43 54  1  0  0  0  0
 44 42  1  0  0  0  0
 45 44  2  0  0  0  0
 46 44  1  0  0  0  0
 48 37  1  0  0  0  0
 49 40  1  0  0  0  0
 51 41  1  0  0  0  0
M  END
$$$$
