EIR.pdb
 OpenBabel07022418193D

 60 59  0  0  1  0  0  0  0  0999 V2000
    2.1340   -1.9710    2.4960 N   0  0  0  0  0  0  0  0  0  0  0  0
    1.4690   -1.2650    3.5860 C   0  0  1  0  0  0  0  0  0  0  0  0
    2.5600   -0.5670    4.3550 C   0  0  0  0  0  0  0  0  0  0  0  0
    3.3110    0.4070    3.4820 C   0  0  0  0  0  0  0  0  0  0  0  0
    4.3810    1.0740    4.2670 C   0  0  0  0  0  0  0  0  0  0  0  0
    4.6040    0.8540    5.4810 O   0  0  0  0  0  0  0  0  0  0  0  0
    0.4750   -0.3430    2.9870 C   0  0  0  0  0  0  0  0  0  0  0  0
   -0.2500    0.3770    3.7470 O   0  0  0  0  0  0  0  0  0  0  0  0
    5.1920    2.0000    3.6380 O   0  0  0  0  0  0  0  0  0  0  0  0
    2.9690   -2.4410    2.9270 H   0  0  0  0  0  0  0  0  0  0  0  0
    1.4850   -2.6640    2.0570 H   0  0  0  0  0  0  0  0  0  0  0  0
    0.9830   -2.0310    4.2310 H   0  0  0  0  0  0  0  0  0  0  0  0
    2.2380   -0.1320    5.3080 H   0  0  0  0  0  0  0  0  0  0  0  0
    3.3070   -1.3750    4.6130 H   0  0  0  0  0  0  0  0  0  0  0  0
    2.6440    1.2040    3.0830 H   0  0  0  0  0  0  0  0  0  0  0  0
    3.7930   -0.1300    2.6440 H   0  0  0  0  0  0  0  0  0  0  0  0
    6.0890    2.2970    4.0450 H   0  0  0  0  0  0  0  0  0  0  0  0
    0.3800    3.2680    1.8130 C   0  0  0  0  0  0  0  0  0  0  0  0
    0.9930    2.5170    0.6590 C   0  0  0  0  0  0  0  0  0  0  0  0
    0.0040    1.6060   -0.0190 C   0  0  2  0  0  0  0  0  0  0  0  0
   -1.1290    2.4830   -0.5390 C   0  0  0  0  0  0  0  0  0  0  0  0
   -0.6230    0.6160    0.9290 C   0  0  2  0  0  0  0  0  0  0  0  0
    0.3300   -0.2590    1.5770 N   0  0  0  0  0  0  0  0  0  0  0  0
   -1.5850   -0.1850    0.1110 C   0  0  0  0  0  0  0  0  0  0  0  0
   -2.4950    0.2890   -0.5780 O   0  0  0  0  0  0  0  0  0  0  0  0
   -0.7120    3.1430    1.8980 H   0  0  0  0  0  0  0  0  0  0  0  0
    0.8080    2.8690    2.7710 H   0  0  0  0  0  0  0  0  0  0  0  0
    0.6550    4.3600    1.8070 H   0  0  0  0  0  0  0  0  0  0  0  0
    1.2940    3.3190   -0.0800 H   0  0  0  0  0  0  0  0  0  0  0  0
    1.9180    2.0530    0.9780 H   0  0  0  0  0  0  0  0  0  0  0  0
    0.4720    1.1330   -0.8980 H   0  0  0  0  0  0  0  0  0  0  0  0
   -0.7530    3.5320   -0.6600 H   0  0  0  0  0  0  0  0  0  0  0  0
   -1.4330    2.1160   -1.5350 H   0  0  0  0  0  0  0  0  0  0  0  0
   -2.0040    2.4550    0.1230 H   0  0  0  0  0  0  0  0  0  0  0  0
   -1.1930    1.1700    1.7150 H   0  0  0  0  0  0  0  0  0  0  0  0
    0.9530   -0.8690    1.0100 H   0  0  0  0  0  0  0  0  0  0  0  0
   -2.7830   -5.1530   -4.1810 N   0  0  0  0  0  0  0  0  0  0  0  0
   -2.7560   -3.7290   -3.9860 C   0  0  0  0  0  0  0  0  0  0  0  0
   -3.8040   -3.1280   -3.5880 N   0  0  0  0  0  0  0  0  0  0  0  0
   -1.6070   -2.9800   -4.2560 N   0  0  0  0  0  0  0  0  0  0  0  0
   -1.0400   -2.0400   -3.3700 C   0  0  0  0  0  0  0  0  0  0  0  0
   -0.3850   -2.7070   -2.1990 C   0  0  0  0  0  0  0  0  0  0  0  0
   -1.2940   -3.4480   -1.3060 C   0  0  0  0  0  0  0  0  0  0  0  0
   -2.2830   -2.5170   -0.6150 C   0  0  2  0  0  0  0  0  0  0  0  0
   -1.4220   -1.5960    0.1420 N   0  0  0  0  0  0  0  0  0  0  0  0
   -2.9900   -3.3600    0.3810 C   0  0  0  0  0  0  0  0  0  0  0  0
   -3.7980   -4.2410    0.0190 O   0  0  0  0  0  0  0  0  0  0  0  0
   -2.7450   -3.1630    1.7250 O   0  0  0  0  0  0  0  0  0  0  0  0
   -3.1000   -5.7530   -3.4060 H   0  0  0  0  0  0  0  0  0  0  0  0
   -2.4970   -5.6090   -5.0730 H   0  0  0  0  0  0  0  0  0  0  0  0
   -3.9040   -2.1240   -3.4140 H   0  0  0  0  0  0  0  0  0  0  0  0
   -1.0950   -3.1210   -5.1900 H   0  0  0  0  0  0  0  0  0  0  0  0
   -1.7640   -1.2560   -3.0260 H   0  0  0  0  0  0  0  0  0  0  0  0
   -0.2220   -1.4200   -3.8550 H   0  0  0  0  0  0  0  0  0  0  0  0
    0.1590   -1.9520   -1.5610 H   0  0  0  0  0  0  0  0  0  0  0  0
    0.4100   -3.4330   -2.5560 H   0  0  0  0  0  0  0  0  0  0  0  0
   -1.7920   -4.3300   -1.7320 H   0  0  0  0  0  0  0  0  0  0  0  0
   -0.6630   -3.8470   -0.4510 H   0  0  0  0  0  0  0  0  0  0  0  0
   -2.9550   -1.9800   -1.2720 H   0  0  0  0  0  0  0  0  0  0  0  0
   -0.6780   -2.0570    0.7100 H   0  0  0  0  0  0  0  0  0  0  0  0
  1 10  1  0  0  0  0
  1  2  1  0  0  0  0
  2 12  1  1  0  0  0
  2  3  1  0  0  0  0
  3 14  1  0  0  0  0
  3 13  1  0  0  0  0
  4  5  1  0  0  0  0
  4  3  1  0  0  0  0
  5  6  2  0  0  0  0
  7  2  1  0  0  0  0
  7  8  2  0  0  0  0
  9 17  1  0  0  0  0
  9  5  1  0  0  0  0
 11  1  1  0  0  0  0
 15  4  1  0  0  0  0
 16  4  1  0  0  0  0
 18 26  1  0  0  0  0
 18 27  1  0  0  0  0
 19 30  1  0  0  0  0
 19 18  1  0  0  0  0
 20 31  1  6  0  0  0
 20 19  1  0  0  0  0
 20 22  1  0  0  0  0
 21 20  1  0  0  0  0
 21 34  1  0  0  0  0
 22 23  1  0  0  0  0
 22 35  1  1  0  0  0
 23  7  1  0  0  0  0
 24 45  1  0  0  0  0
 24 22  1  0  0  0  0
 25 24  2  0  0  0  0
 28 18  1  0  0  0  0
 29 19  1  0  0  0  0
 32 21  1  0  0  0  0
 33 21  1  0  0  0  0
 36 23  1  0  0  0  0
 37 38  1  0  0  0  0
 37 49  1  0  0  0  0
 38 39  2  0  0  0  0
 39 51  1  0  0  0  0
 40 38  1  0  0  0  0
 40 41  1  0  0  0  0
 41 53  1  0  0  0  0
 41 42  1  0  0  0  0
 42 55  1  0  0  0  0
 42 43  1  0  0  0  0
 43 44  1  0  0  0  0
 43 58  1  0  0  0  0
 44 59  1  6  0  0  0
 44 45  1  0  0  0  0
 44 46  1  0  0  0  0
 45 60  1  0  0  0  0
 46 48  1  0  0  0  0
 47 46  2  0  0  0  0
 50 37  1  0  0  0  0
 52 40  1  0  0  0  0
 54 41  1  0  0  0  0
 56 42  1  0  0  0  0
 57 43  1  0  0  0  0
M  END
$$$$
