EIS.pdb
 OpenBabel07022418193D

 48 47  0  0  1  0  0  0  0  0999 V2000
    0.4640   -2.5780    4.5600 N   0  0  0  0  0  0  0  0  0  0  0  0
    1.0400   -1.8570    3.4480 C   0  0  1  0  0  0  0  0  0  0  0  0
    1.4580   -2.8000    2.3440 C   0  0  0  0  0  0  0  0  0  0  0  0
    0.3050   -3.5870    1.8130 C   0  0  0  0  0  0  0  0  0  0  0  0
    0.7660   -4.4910    0.7390 C   0  0  0  0  0  0  0  0  0  0  0  0
    1.9770   -4.4910    0.4230 O   0  0  0  0  0  0  0  0  0  0  0  0
    0.0760   -0.8540    2.9380 C   0  0  0  0  0  0  0  0  0  0  0  0
   -1.0260   -0.7580    3.4840 O   0  0  0  0  0  0  0  0  0  0  0  0
   -0.0890   -5.3420    0.0630 O   0  0  0  0  0  0  0  0  0  0  0  0
    0.1960   -1.8800    5.2920 H   0  0  0  0  0  0  0  0  0  0  0  0
   -0.4430   -3.0000    4.2180 H   0  0  0  0  0  0  0  0  0  0  0  0
    1.9720   -1.3640    3.8410 H   0  0  0  0  0  0  0  0  0  0  0  0
    2.1740   -3.5250    2.8010 H   0  0  0  0  0  0  0  0  0  0  0  0
    1.9540   -2.2370    1.5440 H   0  0  0  0  0  0  0  0  0  0  0  0
   -0.1230   -4.2220    2.6160 H   0  0  0  0  0  0  0  0  0  0  0  0
   -0.4760   -2.9260    1.3550 H   0  0  0  0  0  0  0  0  0  0  0  0
    0.1800   -5.8080   -0.8060 H   0  0  0  0  0  0  0  0  0  0  0  0
    1.1180    2.8420   -0.4010 C   0  0  0  0  0  0  0  0  0  0  0  0
    1.1320    2.8960    1.1220 C   0  0  0  0  0  0  0  0  0  0  0  0
   -0.1720    2.3960    1.6200 C   0  0  2  0  0  0  0  0  0  0  0  0
   -0.1090    2.4700    3.1550 C   0  0  0  0  0  0  0  0  0  0  0  0
   -0.5690    1.0040    1.3210 C   0  0  2  0  0  0  0  0  0  0  0  0
    0.3470    0.0120    1.8460 N   0  0  0  0  0  0  0  0  0  0  0  0
   -1.0930    0.6950   -0.0070 C   0  0  0  0  0  0  0  0  0  0  0  0
   -1.9040    1.4740   -0.5860 O   0  0  0  0  0  0  0  0  0  0  0  0
    0.9420    1.8390   -0.7950 H   0  0  0  0  0  0  0  0  0  0  0  0
    0.3370    3.5220   -0.7970 H   0  0  0  0  0  0  0  0  0  0  0  0
    2.0780    3.1970   -0.8350 H   0  0  0  0  0  0  0  0  0  0  0  0
    2.0190    2.4610    1.5640 H   0  0  0  0  0  0  0  0  0  0  0  0
    1.1790    3.9840    1.3630 H   0  0  0  0  0  0  0  0  0  0  0  0
   -0.9320    3.1560    1.3450 H   0  0  0  0  0  0  0  0  0  0  0  0
    0.5410    3.3490    3.4240 H   0  0  0  0  0  0  0  0  0  0  0  0
    0.4240    1.5830    3.5700 H   0  0  0  0  0  0  0  0  0  0  0  0
   -1.1040    2.6210    3.5950 H   0  0  0  0  0  0  0  0  0  0  0  0
   -1.4670    0.8810    1.9830 H   0  0  0  0  0  0  0  0  0  0  0  0
    1.3190   -0.1260    1.4220 H   0  0  0  0  0  0  0  0  0  0  0  0
    0.5430   -2.0260   -2.7580 O   0  0  0  0  0  0  0  0  0  0  0  0
   -0.2460   -0.9380   -3.1280 C   0  0  0  0  0  0  0  0  0  0  0  0
   -1.3190   -0.7210   -2.0880 C   0  0  2  0  0  0  0  0  0  0  0  0
   -0.7820   -0.4520   -0.7840 N   0  0  0  0  0  0  0  0  0  0  0  0
   -2.1240   -1.9830   -1.9880 C   0  0  0  0  0  0  0  0  0  0  0  0
   -2.2470   -2.6190   -0.9110 O   0  0  0  0  0  0  0  0  0  0  0  0
   -2.7800   -2.5100   -3.1060 O   0  0  0  0  0  0  0  0  0  0  0  0
    1.2290   -2.1810   -3.4360 H   0  0  0  0  0  0  0  0  0  0  0  0
    0.3680   -0.0250   -3.1780 H   0  0  0  0  0  0  0  0  0  0  0  0
   -0.7520   -1.1020   -4.1020 H   0  0  0  0  0  0  0  0  0  0  0  0
   -2.0130    0.0650   -2.4430 H   0  0  0  0  0  0  0  0  0  0  0  0
   -0.1240   -1.1380   -0.3760 H   0  0  0  0  0  0  0  0  0  0  0  0
  1 10  1  0  0  0  0
  2 12  1  1  0  0  0
  2  1  1  0  0  0  0
  3 13  1  0  0  0  0
  3  2  1  0  0  0  0
  4  3  1  0  0  0  0
  4 15  1  0  0  0  0
  5  4  1  0  0  0  0
  6  5  2  0  0  0  0
  7  2  1  0  0  0  0
  7  8  2  0  0  0  0
  9  5  1  0  0  0  0
 11  1  1  0  0  0  0
 14  3  1  0  0  0  0
 16  4  1  0  0  0  0
 17  9  1  0  0  0  0
 18 19  1  0  0  0  0
 19 30  1  0  0  0  0
 19 29  1  0  0  0  0
 19 20  1  0  0  0  0
 20 31  1  6  0  0  0
 20 21  1  0  0  0  0
 21 32  1  0  0  0  0
 21 33  1  0  0  0  0
 21 34  1  0  0  0  0
 22 20  1  0  0  0  0
 22 23  1  0  0  0  0
 22 35  1  1  0  0  0
 23  7  1  0  0  0  0
 24 22  1  0  0  0  0
 25 24  2  0  0  0  0
 26 18  1  0  0  0  0
 27 18  1  0  0  0  0
 28 18  1  0  0  0  0
 36 23  1  0  0  0  0
 38 37  1  0  0  0  0
 38 39  1  0  0  0  0
 39 47  1  6  0  0  0
 39 41  1  0  0  0  0
 39 40  1  0  0  0  0
 40 48  1  0  0  0  0
 40 24  1  0  0  0  0
 41 42  1  0  0  0  0
 43 41  2  0  0  0  0
 44 37  1  0  0  0  0
 45 38  1  0  0  0  0
 46 38  1  0  0  0  0
M  END
$$$$
