EIT.pdb
 OpenBabel07022418193D

 51 50  0  0  1  0  0  0  0  0999 V2000
    0.5040   -4.1030    3.4450 N   0  0  0  0  0  0  0  0  0  0  0  0
    1.6130   -3.2700    2.9900 C   0  0  1  0  0  0  0  0  0  0  0  0
    2.2810   -3.9310    1.8470 C   0  0  0  0  0  0  0  0  0  0  0  0
    3.4620   -3.1820    1.2990 C   0  0  0  0  0  0  0  0  0  0  0  0
    4.0860   -3.8830    0.1510 C   0  0  0  0  0  0  0  0  0  0  0  0
    3.6690   -4.9740   -0.3030 O   0  0  0  0  0  0  0  0  0  0  0  0
    1.0660   -1.9270    2.7230 C   0  0  0  0  0  0  0  0  0  0  0  0
    0.8340   -1.1500    3.7090 O   0  0  0  0  0  0  0  0  0  0  0  0
    5.1900   -3.2870   -0.4430 O   0  0  0  0  0  0  0  0  0  0  0  0
   -0.2960   -3.9540    2.7890 H   0  0  0  0  0  0  0  0  0  0  0  0
    0.1860   -3.7240    4.3820 H   0  0  0  0  0  0  0  0  0  0  0  0
    2.3800   -3.1730    3.8120 H   0  0  0  0  0  0  0  0  0  0  0  0
    2.6270   -4.9340    2.2000 H   0  0  0  0  0  0  0  0  0  0  0  0
    1.6080   -4.1440    0.9900 H   0  0  0  0  0  0  0  0  0  0  0  0
    4.2770   -3.1570    2.0890 H   0  0  0  0  0  0  0  0  0  0  0  0
    3.2560   -2.1230    1.0710 H   0  0  0  0  0  0  0  0  0  0  0  0
    5.6220   -3.6560   -1.2810 H   0  0  0  0  0  0  0  0  0  0  0  0
    1.8520    2.8660   -0.6280 C   0  0  0  0  0  0  0  0  0  0  0  0
    0.7420    1.9860   -0.0250 C   0  0  0  0  0  0  0  0  0  0  0  0
    1.2450    0.6340    0.3060 C   0  0  2  0  0  0  0  0  0  0  0  0
    1.7470   -0.0690   -0.9140 C   0  0  0  0  0  0  0  0  0  0  0  0
    0.2490   -0.1410    1.1230 C   0  0  2  0  0  0  0  0  0  0  0  0
    0.7900   -1.4740    1.4220 N   0  0  0  0  0  0  0  0  0  0  0  0
   -1.0640   -0.3360    0.4860 C   0  0  0  0  0  0  0  0  0  0  0  0
   -1.3860   -1.5260    0.1450 O   0  0  0  0  0  0  0  0  0  0  0  0
    2.7550    2.8600   -0.0150 H   0  0  0  0  0  0  0  0  0  0  0  0
    1.4490    3.8980   -0.6640 H   0  0  0  0  0  0  0  0  0  0  0  0
    2.0290    2.5480   -1.6840 H   0  0  0  0  0  0  0  0  0  0  0  0
   -0.0030    1.9210   -0.8720 H   0  0  0  0  0  0  0  0  0  0  0  0
    0.3170    2.5370    0.8280 H   0  0  0  0  0  0  0  0  0  0  0  0
    2.1590    0.7470    0.9770 H   0  0  0  0  0  0  0  0  0  0  0  0
    2.0880   -1.0910   -0.7540 H   0  0  0  0  0  0  0  0  0  0  0  0
    1.0060   -0.0940   -1.7410 H   0  0  0  0  0  0  0  0  0  0  0  0
    2.6310    0.5100   -1.2800 H   0  0  0  0  0  0  0  0  0  0  0  0
    0.1120    0.3980    2.0760 H   0  0  0  0  0  0  0  0  0  0  0  0
    0.9600   -2.0970    0.6130 H   0  0  0  0  0  0  0  0  0  0  0  0
   -4.4190   -0.2520    1.6840 C   0  0  0  0  0  0  0  0  0  0  0  0
   -4.4280    0.6710    0.5090 C   0  0  1  0  0  0  0  0  0  0  0  0
   -4.4400    2.0070    0.8740 O   0  0  0  0  0  0  0  0  0  0  0  0
   -3.3030    0.3410   -0.4380 C   0  0  2  0  0  0  0  0  0  0  0  0
   -2.0270    0.6460    0.2070 N   0  0  0  0  0  0  0  0  0  0  0  0
   -3.4340    1.0390   -1.7310 C   0  0  0  0  0  0  0  0  0  0  0  0
   -2.5190    1.7720   -2.1320 O   0  0  0  0  0  0  0  0  0  0  0  0
   -4.5680    0.8920   -2.5130 O   0  0  0  0  0  0  0  0  0  0  0  0
   -3.6200   -0.9950    1.6580 H   0  0  0  0  0  0  0  0  0  0  0  0
   -5.3910   -0.8100    1.8000 H   0  0  0  0  0  0  0  0  0  0  0  0
   -4.3060    0.3070    2.6450 H   0  0  0  0  0  0  0  0  0  0  0  0
   -5.3800    0.4640   -0.0610 H   0  0  0  0  0  0  0  0  0  0  0  0
   -5.0520    2.5250    0.3000 H   0  0  0  0  0  0  0  0  0  0  0  0
   -3.3760   -0.7530   -0.6570 H   0  0  0  0  0  0  0  0  0  0  0  0
   -1.8460    1.6290    0.4780 H   0  0  0  0  0  0  0  0  0  0  0  0
  1 11  1  0  0  0  0
  2  1  1  0  0  0  0
  2 12  1  1  0  0  0
  3 13  1  0  0  0  0
  3  2  1  0  0  0  0
  4  3  1  0  0  0  0
  4 15  1  0  0  0  0
  5  4  1  0  0  0  0
  6  5  2  0  0  0  0
  7  2  1  0  0  0  0
  7  8  2  0  0  0  0
  9  5  1  0  0  0  0
 10  1  1  0  0  0  0
 14  3  1  0  0  0  0
 16  4  1  0  0  0  0
 17  9  1  0  0  0  0
 18 19  1  0  0  0  0
 18 26  1  0  0  0  0
 19 20  1  0  0  0  0
 19 30  1  0  0  0  0
 20 31  1  1  0  0  0
 20 22  1  0  0  0  0
 21 32  1  0  0  0  0
 21 20  1  0  0  0  0
 22 23  1  0  0  0  0
 22 35  1  1  0  0  0
 23  7  1  0  0  0  0
 24 22  1  0  0  0  0
 25 24  2  0  0  0  0
 27 18  1  0  0  0  0
 28 18  1  0  0  0  0
 29 19  1  0  0  0  0
 33 21  1  0  0  0  0
 34 21  1  0  0  0  0
 36 23  1  0  0  0  0
 37 46  1  0  0  0  0
 37 47  1  0  0  0  0
 38 48  1  6  0  0  0
 38 39  1  0  0  0  0
 38 37  1  0  0  0  0
 40 50  1  6  0  0  0
 40 41  1  0  0  0  0
 40 38  1  0  0  0  0
 41 51  1  0  0  0  0
 41 24  1  0  0  0  0
 42 40  1  0  0  0  0
 43 42  1  0  0  0  0
 44 42  2  0  0  0  0
 45 37  1  0  0  0  0
 49 39  1  0  0  0  0
M  END
$$$$
