EIW.pdb
 OpenBabel07022418193D

 61 62  0  0  1  0  0  0  0  0999 V2000
    0.0310    0.3530    4.1330 N   0  0  0  0  0  0  0  0  0  0  0  0
    1.1160    0.6800    3.1950 C   0  0  1  0  0  0  0  0  0  0  0  0
    1.9360   -0.5330    3.0200 C   0  0  0  0  0  0  0  0  0  0  0  0
    3.1290   -0.4370    2.1380 C   0  0  0  0  0  0  0  0  0  0  0  0
    4.1000    0.5850    2.6280 C   0  0  0  0  0  0  0  0  0  0  0  0
    4.8750    0.3670    3.5880 O   0  0  0  0  0  0  0  0  0  0  0  0
    0.5920    1.3550    2.0230 C   0  0  0  0  0  0  0  0  0  0  0  0
    0.2700    2.5860    2.1440 O   0  0  0  0  0  0  0  0  0  0  0  0
    4.1480    1.8100    2.0030 O   0  0  0  0  0  0  0  0  0  0  0  0
   -0.7020   -0.2220    3.6830 H   0  0  0  0  0  0  0  0  0  0  0  0
   -0.3480    1.2310    4.5620 H   0  0  0  0  0  0  0  0  0  0  0  0
    1.7380    1.4260    3.7750 H   0  0  0  0  0  0  0  0  0  0  0  0
    1.3460   -1.4360    2.7290 H   0  0  0  0  0  0  0  0  0  0  0  0
    2.3290   -0.8060    4.0480 H   0  0  0  0  0  0  0  0  0  0  0  0
    2.8580   -0.3380    1.0950 H   0  0  0  0  0  0  0  0  0  0  0  0
    3.6610   -1.4400    2.2330 H   0  0  0  0  0  0  0  0  0  0  0  0
    4.8800    2.5030    2.1340 H   0  0  0  0  0  0  0  0  0  0  0  0
    3.1670    1.9780   -2.2040 C   0  0  0  0  0  0  0  0  0  0  0  0
    2.1480    2.0930   -1.1050 C   0  0  0  0  0  0  0  0  0  0  0  0
    0.8060    1.5280   -1.5180 C   0  0  2  0  0  0  0  0  0  0  0  0
    0.3270    2.3110   -2.7160 C   0  0  0  0  0  0  0  0  0  0  0  0
   -0.1610    1.5960   -0.3610 C   0  0  2  0  0  0  0  0  0  0  0  0
    0.3890    0.8000    0.7410 N   0  0  0  0  0  0  0  0  0  0  0  0
   -1.4090    0.9450   -0.7990 C   0  0  0  0  0  0  0  0  0  0  0  0
   -2.0850    1.4700   -1.7390 O   0  0  0  0  0  0  0  0  0  0  0  0
    3.6040    2.9530   -2.4110 H   0  0  0  0  0  0  0  0  0  0  0  0
    2.6340    1.5920   -3.1120 H   0  0  0  0  0  0  0  0  0  0  0  0
    3.9780    1.2610   -1.9520 H   0  0  0  0  0  0  0  0  0  0  0  0
    2.0470    3.1820   -0.8390 H   0  0  0  0  0  0  0  0  0  0  0  0
    2.5300    1.6140   -0.1860 H   0  0  0  0  0  0  0  0  0  0  0  0
    0.9620    0.4780   -1.8290 H   0  0  0  0  0  0  0  0  0  0  0  0
    0.0140    1.6840   -3.5530 H   0  0  0  0  0  0  0  0  0  0  0  0
   -0.4980    3.0210   -2.4580 H   0  0  0  0  0  0  0  0  0  0  0  0
    1.1410    2.9770   -3.1180 H   0  0  0  0  0  0  0  0  0  0  0  0
   -0.3310    2.6470   -0.0310 H   0  0  0  0  0  0  0  0  0  0  0  0
    0.6120   -0.1800    0.5400 H   0  0  0  0  0  0  0  0  0  0  0  0
   -1.8660   -0.2350   -0.2050 N   0  0  0  0  0  0  0  0  0  0  0  0
   -3.0990   -0.9040   -0.6110 C   0  0  1  0  0  0  0  0  0  0  0  0
   -2.8110   -2.1290   -1.4230 C   0  0  0  0  0  0  0  0  0  0  0  0
   -1.9700   -3.1490   -0.7630 C   0  0  0  0  0  0  0  0  0  0  0  0
   -0.5800   -3.2840   -0.9450 C   0  0  0  0  0  0  0  0  0  0  0  0
   -0.1850   -4.2860   -0.1670 N   0  0  0  0  0  0  0  0  0  0  0  0
   -1.2250   -4.8070    0.5050 C   0  0  0  0  0  0  0  0  0  0  0  0
   -1.3420   -5.8500    1.4170 C   0  0  0  0  0  0  0  0  0  0  0  0
   -2.5650   -6.1820    1.9520 C   0  0  0  0  0  0  0  0  0  0  0  0
   -3.7180   -5.5060    1.6150 C   0  0  0  0  0  0  0  0  0  0  0  0
   -3.5780   -4.4750    0.7070 C   0  0  0  0  0  0  0  0  0  0  0  0
   -2.3630   -4.1000    0.1390 C   0  0  0  0  0  0  0  0  0  0  0  0
   -4.1050   -1.0100    0.4250 C   0  0  0  0  0  0  0  0  0  0  0  0
   -5.2470   -1.4470    0.1370 O   0  0  0  0  0  0  0  0  0  0  0  0
   -3.8980   -0.6530    1.7640 O   0  0  0  0  0  0  0  0  0  0  0  0
   -1.3300   -0.6780    0.5610 H   0  0  0  0  0  0  0  0  0  0  0  0
   -3.5390   -0.1700   -1.3820 H   0  0  0  0  0  0  0  0  0  0  0  0
   -2.3660   -1.8950   -2.4090 H   0  0  0  0  0  0  0  0  0  0  0  0
   -3.8180   -2.5900   -1.6470 H   0  0  0  0  0  0  0  0  0  0  0  0
   -0.0000   -2.6630   -1.6040 H   0  0  0  0  0  0  0  0  0  0  0  0
    0.8050   -4.6690   -0.0490 H   0  0  0  0  0  0  0  0  0  0  0  0
   -0.4260   -6.3770    1.6760 H   0  0  0  0  0  0  0  0  0  0  0  0
   -2.6060   -7.0100    2.6660 H   0  0  0  0  0  0  0  0  0  0  0  0
   -4.6890   -5.7620    2.0320 H   0  0  0  0  0  0  0  0  0  0  0  0
   -4.4510   -3.9210    0.3970 H   0  0  0  0  0  0  0  0  0  0  0  0
  1 11  1  0  0  0  0
  2 12  1  1  0  0  0
  2  1  1  0  0  0  0
  3  2  1  0  0  0  0
  3 14  1  0  0  0  0
  4 16  1  0  0  0  0
  4  5  1  0  0  0  0
  4  3  1  0  0  0  0
  5  6  2  0  0  0  0
  7  8  2  0  0  0  0
  7  2  1  0  0  0  0
  9 17  1  0  0  0  0
  9  5  1  0  0  0  0
 10  1  1  0  0  0  0
 13  3  1  0  0  0  0
 15  4  1  0  0  0  0
 18 28  1  0  0  0  0
 18 19  1  0  0  0  0
 19 29  1  0  0  0  0
 19 30  1  0  0  0  0
 20 31  1  6  0  0  0
 20 19  1  0  0  0  0
 20 22  1  0  0  0  0
 21 33  1  0  0  0  0
 21 20  1  0  0  0  0
 22 35  1  1  0  0  0
 22 23  1  0  0  0  0
 23  7  1  0  0  0  0
 24 22  1  0  0  0  0
 24 37  1  0  0  0  0
 25 24  2  0  0  0  0
 26 18  1  0  0  0  0
 27 18  1  0  0  0  0
 32 21  1  0  0  0  0
 34 21  1  0  0  0  0
 36 23  1  0  0  0  0
 37 52  1  0  0  0  0
 38 53  1  6  0  0  0
 38 37  1  0  0  0  0
 38 49  1  0  0  0  0
 39 40  1  0  0  0  0
 39 38  1  0  0  0  0
 40 48  1  0  0  0  0
 41 40  2  0  0  0  0
 41 42  1  0  0  0  0
 42 57  1  0  0  0  0
 42 43  1  0  0  0  0
 43 44  1  0  0  0  0
 44 58  1  0  0  0  0
 44 45  2  0  0  0  0
 45 59  1  0  0  0  0
 46 45  1  0  0  0  0
 46 60  1  0  0  0  0
 47 46  2  0  0  0  0
 48 43  2  0  0  0  0
 48 47  1  0  0  0  0
 49 51  1  0  0  0  0
 50 49  2  0  0  0  0
 54 39  1  0  0  0  0
 55 39  1  0  0  0  0
 56 41  1  0  0  0  0
 61 47  1  0  0  0  0
M  END
$$$$
