EIY.pdb
 OpenBabel07022418193D

 58 58  0  0  1  0  0  0  0  0999 V2000
   -0.1580    1.3290    3.8210 N   0  0  0  0  0  0  0  0  0  0  0  0
    0.8320    0.2840    3.6770 C   0  0  1  0  0  0  0  0  0  0  0  0
    0.3670   -0.9770    4.3490 C   0  0  0  0  0  0  0  0  0  0  0  0
    0.1200   -0.8140    5.8120 C   0  0  0  0  0  0  0  0  0  0  0  0
   -0.3320   -2.1140    6.3700 C   0  0  0  0  0  0  0  0  0  0  0  0
   -0.4660   -3.1500    5.6740 O   0  0  0  0  0  0  0  0  0  0  0  0
    0.9850   -0.0400    2.2030 C   0  0  0  0  0  0  0  0  0  0  0  0
    1.7990   -0.9240    1.8790 O   0  0  0  0  0  0  0  0  0  0  0  0
   -0.6300   -2.2160    7.7350 O   0  0  0  0  0  0  0  0  0  0  0  0
    0.2410    2.2090    3.3730 H   0  0  0  0  0  0  0  0  0  0  0  0
   -0.3180    1.5590    4.8060 H   0  0  0  0  0  0  0  0  0  0  0  0
    1.8300    0.5770    4.0330 H   0  0  0  0  0  0  0  0  0  0  0  0
   -0.5890   -1.3160    3.8820 H   0  0  0  0  0  0  0  0  0  0  0  0
    1.0960   -1.7930    4.1700 H   0  0  0  0  0  0  0  0  0  0  0  0
   -0.7200   -0.0940    5.9820 H   0  0  0  0  0  0  0  0  0  0  0  0
    1.0120   -0.4900    6.3630 H   0  0  0  0  0  0  0  0  0  0  0  0
   -0.4160   -3.0730    8.2330 H   0  0  0  0  0  0  0  0  0  0  0  0
    2.3940    2.4580    0.6460 C   0  0  0  0  0  0  0  0  0  0  0  0
    2.2240    1.9270   -0.7380 C   0  0  0  0  0  0  0  0  0  0  0  0
    0.8000    1.5480   -0.9740 C   0  0  2  0  0  0  0  0  0  0  0  0
   -0.0470    2.7980   -0.7820 C   0  0  0  0  0  0  0  0  0  0  0  0
    0.2440    0.4410   -0.1650 C   0  0  2  0  0  0  0  0  0  0  0  0
    0.2390    0.6280    1.2290 N   0  0  0  0  0  0  0  0  0  0  0  0
    0.5470   -0.9340   -0.6790 C   0  0  0  0  0  0  0  0  0  0  0  0
    0.7150   -1.9420    0.0400 O   0  0  0  0  0  0  0  0  0  0  0  0
    1.4710    2.7450    1.1650 H   0  0  0  0  0  0  0  0  0  0  0  0
    2.9860    3.4200    0.5750 H   0  0  0  0  0  0  0  0  0  0  0  0
    3.0190    1.7910    1.2920 H   0  0  0  0  0  0  0  0  0  0  0  0
    2.4470    2.7470   -1.4590 H   0  0  0  0  0  0  0  0  0  0  0  0
    2.9450    1.1230   -0.9940 H   0  0  0  0  0  0  0  0  0  0  0  0
    0.7040    1.3060   -2.0480 H   0  0  0  0  0  0  0  0  0  0  0  0
   -0.3460    2.8810    0.2590 H   0  0  0  0  0  0  0  0  0  0  0  0
   -0.9740    2.6610   -1.3890 H   0  0  0  0  0  0  0  0  0  0  0  0
    0.4640    3.6880   -1.1840 H   0  0  0  0  0  0  0  0  0  0  0  0
   -0.9030    0.4750   -0.4190 H   0  0  0  0  0  0  0  0  0  0  0  0
   -0.4350    1.3920    1.6310 H   0  0  0  0  0  0  0  0  0  0  0  0
   -4.8760   -2.8760   -0.0520 O   0  0  0  0  0  0  0  0  0  0  0  0
   -3.7370   -2.9290   -0.8540 C   0  0  0  0  0  0  0  0  0  0  0  0
   -3.3520   -1.8380   -1.5910 C   0  0  0  0  0  0  0  0  0  0  0  0
   -2.2420   -1.8520   -2.3880 C   0  0  0  0  0  0  0  0  0  0  0  0
   -1.4440   -2.9960   -2.4840 C   0  0  0  0  0  0  0  0  0  0  0  0
   -0.2460   -3.0330   -3.3360 C   0  0  0  0  0  0  0  0  0  0  0  0
    0.9710   -2.5800   -2.5190 C   0  0  2  0  0  0  0  0  0  0  0  0
    0.6690   -1.2070   -2.0760 N   0  0  0  0  0  0  0  0  0  0  0  0
    2.1370   -2.6170   -3.3990 C   0  0  0  0  0  0  0  0  0  0  0  0
    2.7440   -1.5600   -3.6860 O   0  0  0  0  0  0  0  0  0  0  0  0
   -1.8550   -4.0800   -1.7320 C   0  0  0  0  0  0  0  0  0  0  0  0
   -2.9640   -4.0770   -0.9310 C   0  0  0  0  0  0  0  0  0  0  0  0
    2.5910   -3.8060   -3.9280 O   0  0  0  0  0  0  0  0  0  0  0  0
   -5.1820   -1.9710    0.2530 H   0  0  0  0  0  0  0  0  0  0  0  0
   -3.9570   -0.9240   -1.5370 H   0  0  0  0  0  0  0  0  0  0  0  0
   -1.9090   -1.0050   -2.9850 H   0  0  0  0  0  0  0  0  0  0  0  0
   -0.0700   -3.9910   -3.8330 H   0  0  0  0  0  0  0  0  0  0  0  0
   -0.3540   -2.2400   -4.1330 H   0  0  0  0  0  0  0  0  0  0  0  0
    1.0680   -3.2610   -1.6640 H   0  0  0  0  0  0  0  0  0  0  0  0
    0.5470   -0.4650   -2.8010 H   0  0  0  0  0  0  0  0  0  0  0  0
   -1.2130   -4.9700   -1.8230 H   0  0  0  0  0  0  0  0  0  0  0  0
   -3.2380   -4.9450   -0.3680 H   0  0  0  0  0  0  0  0  0  0  0  0
  1 11  1  0  0  0  0
  2  1  1  0  0  0  0
  2 12  1  1  0  0  0
  2  3  1  0  0  0  0
  3  4  1  0  0  0  0
  4 15  1  0  0  0  0
  4 16  1  0  0  0  0
  4  5  1  0  0  0  0
  5  9  1  0  0  0  0
  6  5  2  0  0  0  0
  7  2  1  0  0  0  0
  8  7  2  0  0  0  0
  9 17  1  0  0  0  0
 10  1  1  0  0  0  0
 13  3  1  0  0  0  0
 14  3  1  0  0  0  0
 18 26  1  0  0  0  0
 18 28  1  0  0  0  0
 19 18  1  0  0  0  0
 20 31  1  6  0  0  0
 20 21  1  0  0  0  0
 20 19  1  0  0  0  0
 20 22  1  0  0  0  0
 21 32  1  0  0  0  0
 22 35  1  6  0  0  0
 22 23  1  0  0  0  0
 23 36  1  0  0  0  0
 23  7  1  0  0  0  0
 24 22  1  0  0  0  0
 24 25  2  0  0  0  0
 27 18  1  0  0  0  0
 29 19  1  0  0  0  0
 30 19  1  0  0  0  0
 33 21  1  0  0  0  0
 34 21  1  0  0  0  0
 37 50  1  0  0  0  0
 38 37  1  0  0  0  0
 39 51  1  0  0  0  0
 39 38  2  0  0  0  0
 40 39  1  0  0  0  0
 41 40  2  0  0  0  0
 41 47  1  0  0  0  0
 42 43  1  0  0  0  0
 42 41  1  0  0  0  0
 43 44  1  0  0  0  0
 43 55  1  1  0  0  0
 44 24  1  0  0  0  0
 45 43  1  0  0  0  0
 46 45  1  0  0  0  0
 47 48  2  0  0  0  0
 48 38  1  0  0  0  0
 48 58  1  0  0  0  0
 49 45  2  0  0  0  0
 52 40  1  0  0  0  0
 53 42  1  0  0  0  0
 54 42  1  0  0  0  0
 56 44  1  0  0  0  0
 57 47  1  0  0  0  0
M  END
$$$$
