EKC.pdb
 OpenBabel07022418193D

 50 49  0  0  1  0  0  0  0  0999 V2000
    4.2330   -2.8470    2.4230 N   0  0  0  0  0  0  0  0  0  0  0  0
    3.6570   -2.1210    1.2530 C   0  0  1  0  0  0  0  0  0  0  0  0
    4.0450   -2.8930    0.0620 C   0  0  0  0  0  0  0  0  0  0  0  0
    3.6220   -2.4780   -1.2850 C   0  0  0  0  0  0  0  0  0  0  0  0
    2.1830   -2.5890   -1.5320 C   0  0  0  0  0  0  0  0  0  0  0  0
    1.7040   -2.1150   -2.6070 O   0  0  0  0  0  0  0  0  0  0  0  0
    2.2690   -1.7700    1.5190 C   0  0  0  0  0  0  0  0  0  0  0  0
    1.5170   -2.4640    2.2800 O   0  0  0  0  0  0  0  0  0  0  0  0
    1.3150   -3.1900   -0.6520 O   0  0  0  0  0  0  0  0  0  0  0  0
    3.7860   -3.7900    2.3660 H   0  0  0  0  0  0  0  0  0  0  0  0
    5.2590   -2.9110    2.2140 H   0  0  0  0  0  0  0  0  0  0  0  0
    4.2230   -1.1270    1.2580 H   0  0  0  0  0  0  0  0  0  0  0  0
    3.6710   -3.9690    0.2480 H   0  0  0  0  0  0  0  0  0  0  0  0
    5.1830   -3.0460    0.0610 H   0  0  0  0  0  0  0  0  0  0  0  0
    4.0090   -1.4560   -1.5690 H   0  0  0  0  0  0  0  0  0  0  0  0
    4.1240   -3.1580   -2.0460 H   0  0  0  0  0  0  0  0  0  0  0  0
    0.3820   -3.4630   -0.9030 H   0  0  0  0  0  0  0  0  0  0  0  0
    1.6420   -0.6160    0.9640 N   0  0  0  0  0  0  0  0  0  0  0  0
    0.2050   -0.3120    1.3130 C   0  0  1  0  0  0  0  0  0  0  0  0
    0.3110    0.8970    2.1690 C   0  0  0  0  0  0  0  0  0  0  0  0
   -0.8330    1.5090    2.8280 C   0  0  0  0  0  0  0  0  0  0  0  0
   -1.5200    0.8360    3.9400 C   0  0  0  0  0  0  0  0  0  0  0  0
   -2.1650   -0.4820    3.7750 C   0  0  0  0  0  0  0  0  0  0  0  0
   -3.2400   -0.5910    2.8610 N   0  0  0  0  0  0  0  0  0  0  0  0
   -0.3830    0.0370   -0.0220 C   0  0  0  0  0  0  0  0  0  0  0  0
    0.4040    0.0720   -1.0090 O   0  0  0  0  0  0  0  0  0  0  0  0
    2.1620    0.0060    0.3290 H   0  0  0  0  0  0  0  0  0  0  0  0
   -0.1960   -1.2080    1.7100 H   0  0  0  0  0  0  0  0  0  0  0  0
    1.1660    0.6840    2.9040 H   0  0  0  0  0  0  0  0  0  0  0  0
    0.7730    1.6930    1.4840 H   0  0  0  0  0  0  0  0  0  0  0  0
   -0.4610    2.5210    3.2340 H   0  0  0  0  0  0  0  0  0  0  0  0
   -1.5650    1.8580    2.0470 H   0  0  0  0  0  0  0  0  0  0  0  0
   -2.3690    1.5340    4.2950 H   0  0  0  0  0  0  0  0  0  0  0  0
   -0.8860    0.8140    4.8830 H   0  0  0  0  0  0  0  0  0  0  0  0
   -1.4610   -1.3310    3.6210 H   0  0  0  0  0  0  0  0  0  0  0  0
   -2.6230   -0.7580    4.8010 H   0  0  0  0  0  0  0  0  0  0  0  0
   -3.0180   -1.2580    2.1060 H   0  0  0  0  0  0  0  0  0  0  0  0
   -3.6420    0.2650    2.4730 H   0  0  0  0  0  0  0  0  0  0  0  0
   -1.7170    0.3290   -0.2880 N   0  0  0  0  0  0  0  0  0  0  0  0
   -2.2420    0.6590   -1.5980 C   0  0  1  0  0  0  0  0  0  0  0  0
   -3.2410   -0.3500   -2.0950 C   0  0  0  0  0  0  0  0  0  0  0  0
   -2.4770   -1.9790   -2.2150 S   0  0  0  0  0  0  0  0  0  0  0  0
   -2.8290    2.0190   -1.6360 C   0  0  0  0  0  0  0  0  0  0  0  0
   -3.3330    2.5050   -2.6600 O   0  0  0  0  0  0  0  0  0  0  0  0
   -2.8150    2.7810   -0.4800 O   0  0  0  0  0  0  0  0  0  0  0  0
   -2.4100    0.3250    0.4680 H   0  0  0  0  0  0  0  0  0  0  0  0
   -1.3860    0.6450   -2.3010 H   0  0  0  0  0  0  0  0  0  0  0  0
   -3.4850   -0.0280   -3.1510 H   0  0  0  0  0  0  0  0  0  0  0  0
   -4.2030   -0.3290   -1.5690 H   0  0  0  0  0  0  0  0  0  0  0  0
   -1.5540   -1.9310   -3.3000 H   0  0  0  0  0  0  0  0  0  0  0  0
  2 12  1  6  0  0  0
  2  7  1  0  0  0  0
  2  1  1  0  0  0  0
  3 13  1  0  0  0  0
  3  2  1  0  0  0  0
  4  3  1  0  0  0  0
  5  4  1  0  0  0  0
  5  9  1  0  0  0  0
  6  5  2  0  0  0  0
  7  8  2  0  0  0  0
 10  1  1  0  0  0  0
 11  1  1  0  0  0  0
 14  3  1  0  0  0  0
 15  4  1  0  0  0  0
 16  4  1  0  0  0  0
 17  9  1  0  0  0  0
 18 19  1  0  0  0  0
 18  7  1  0  0  0  0
 19 28  1  1  0  0  0
 19 20  1  0  0  0  0
 20 21  1  0  0  0  0
 20 29  1  0  0  0  0
 21 31  1  0  0  0  0
 21 22  1  0  0  0  0
 22 33  1  0  0  0  0
 22 34  1  0  0  0  0
 23 22  1  0  0  0  0
 23 36  1  0  0  0  0
 24 23  1  0  0  0  0
 25 19  1  0  0  0  0
 26 25  2  0  0  0  0
 27 18  1  0  0  0  0
 30 20  1  0  0  0  0
 32 21  1  0  0  0  0
 35 23  1  0  0  0  0
 37 24  1  0  0  0  0
 38 24  1  0  0  0  0
 39 25  1  0  0  0  0
 39 46  1  0  0  0  0
 40 47  1  6  0  0  0
 40 39  1  0  0  0  0
 41 40  1  0  0  0  0
 41 49  1  0  0  0  0
 42 41  1  0  0  0  0
 43 40  1  0  0  0  0
 43 45  1  0  0  0  0
 44 43  2  0  0  0  0
 48 41  1  0  0  0  0
 50 42  1  0  0  0  0
M  END
$$$$
