EKD.pdb
 OpenBabel07022418193D

 52 51  0  0  1  0  0  0  0  0999 V2000
    3.4890   -1.8370    0.6240 N   0  0  0  0  0  0  0  0  0  0  0  0
    3.2020   -1.8740    2.0280 C   0  0  1  0  0  0  0  0  0  0  0  0
    4.0940   -0.8970    2.7740 C   0  0  0  0  0  0  0  0  0  0  0  0
    3.8560    0.5270    2.2610 C   0  0  0  0  0  0  0  0  0  0  0  0
    4.7210    1.4850    2.9810 C   0  0  0  0  0  0  0  0  0  0  0  0
    5.5270    1.1110    3.8890 O   0  0  0  0  0  0  0  0  0  0  0  0
    1.7570   -1.5820    2.3070 C   0  0  0  0  0  0  0  0  0  0  0  0
    1.3230   -1.5930    3.4870 O   0  0  0  0  0  0  0  0  0  0  0  0
    4.7060    2.8450    2.7130 O   0  0  0  0  0  0  0  0  0  0  0  0
    4.4960   -1.6180    0.4600 H   0  0  0  0  0  0  0  0  0  0  0  0
    3.2490   -2.7530    0.1800 H   0  0  0  0  0  0  0  0  0  0  0  0
    3.3980   -2.8900    2.4110 H   0  0  0  0  0  0  0  0  0  0  0  0
    5.1390   -1.1470    2.5140 H   0  0  0  0  0  0  0  0  0  0  0  0
    3.9450   -0.9580    3.8580 H   0  0  0  0  0  0  0  0  0  0  0  0
    4.0390    0.5650    1.1810 H   0  0  0  0  0  0  0  0  0  0  0  0
    2.7960    0.8320    2.4730 H   0  0  0  0  0  0  0  0  0  0  0  0
    5.5370    3.4300    2.7210 H   0  0  0  0  0  0  0  0  0  0  0  0
    0.9280   -1.2990    1.1980 N   0  0  0  0  0  0  0  0  0  0  0  0
   -0.4930   -1.0010    1.3620 C   0  0  1  0  0  0  0  0  0  0  0  0
   -0.7260    0.4240    1.0120 C   0  0  0  0  0  0  0  0  0  0  0  0
   -0.3580    0.8280   -0.3770 C   0  0  0  0  0  0  0  0  0  0  0  0
   -0.5940    2.2930   -0.6360 C   0  0  0  0  0  0  0  0  0  0  0  0
   -1.9990    2.7480   -0.4640 C   0  0  0  0  0  0  0  0  0  0  0  0
   -2.8660    2.0570   -1.3610 N   0  0  0  0  0  0  0  0  0  0  0  0
   -1.2960   -2.0080    0.6870 C   0  0  0  0  0  0  0  0  0  0  0  0
   -0.6860   -2.9610    0.0850 O   0  0  0  0  0  0  0  0  0  0  0  0
    1.3320   -1.3030    0.2460 H   0  0  0  0  0  0  0  0  0  0  0  0
   -0.7260   -1.0750    2.4760 H   0  0  0  0  0  0  0  0  0  0  0  0
   -1.7680    0.7170    1.2710 H   0  0  0  0  0  0  0  0  0  0  0  0
   -0.0790    1.0340    1.7070 H   0  0  0  0  0  0  0  0  0  0  0  0
   -0.8060    0.2020   -1.1500 H   0  0  0  0  0  0  0  0  0  0  0  0
    0.7590    0.6870   -0.5050 H   0  0  0  0  0  0  0  0  0  0  0  0
   -0.2530    2.5130   -1.6820 H   0  0  0  0  0  0  0  0  0  0  0  0
    0.1070    2.8890    0.0150 H   0  0  0  0  0  0  0  0  0  0  0  0
   -2.0520    3.8530   -0.5640 H   0  0  0  0  0  0  0  0  0  0  0  0
   -2.3330    2.5430    0.5860 H   0  0  0  0  0  0  0  0  0  0  0  0
   -3.5070    1.3810   -0.9400 H   0  0  0  0  0  0  0  0  0  0  0  0
   -2.4440    1.7940   -2.2590 H   0  0  0  0  0  0  0  0  0  0  0  0
   -2.7150   -2.0300    0.6380 N   0  0  0  0  0  0  0  0  0  0  0  0
   -3.4040   -3.0870   -0.0350 C   0  0  1  0  0  0  0  0  0  0  0  0
   -3.2000   -3.1400   -1.5060 C   0  0  0  0  0  0  0  0  0  0  0  0
   -3.6560   -1.9220   -2.2080 C   0  0  0  0  0  0  0  0  0  0  0  0
   -2.9630   -0.9000   -2.3720 O   0  0  0  0  0  0  0  0  0  0  0  0
   -2.9850   -4.3720    0.6200 C   0  0  0  0  0  0  0  0  0  0  0  0
   -3.4630   -5.4340    0.1590 O   0  0  0  0  0  0  0  0  0  0  0  0
   -4.9560   -1.8760   -2.7420 O   0  0  0  0  0  0  0  0  0  0  0  0
   -2.1170   -4.4440    1.6850 O   0  0  0  0  0  0  0  0  0  0  0  0
   -3.2380   -1.2540    1.1070 H   0  0  0  0  0  0  0  0  0  0  0  0
   -4.5170   -2.9720    0.1320 H   0  0  0  0  0  0  0  0  0  0  0  0
   -3.6830   -4.0610   -1.9310 H   0  0  0  0  0  0  0  0  0  0  0  0
   -2.1200   -3.2610   -1.7760 H   0  0  0  0  0  0  0  0  0  0  0  0
   -5.3160   -0.9970   -3.1210 H   0  0  0  0  0  0  0  0  0  0  0  0
  1  2  1  0  0  0  0
  2  7  1  0  0  0  0
  2 12  1  1  0  0  0
  2  3  1  0  0  0  0
  3 14  1  0  0  0  0
  4 16  1  0  0  0  0
  4  3  1  0  0  0  0
  4  5  1  0  0  0  0
  5  6  2  0  0  0  0
  7  8  2  0  0  0  0
  9 17  1  0  0  0  0
  9  5  1  0  0  0  0
 10  1  1  0  0  0  0
 11  1  1  0  0  0  0
 13  3  1  0  0  0  0
 15  4  1  0  0  0  0
 18 19  1  0  0  0  0
 18  7  1  0  0  0  0
 19 28  1  1  0  0  0
 20 29  1  0  0  0  0
 20 19  1  0  0  0  0
 20 30  1  0  0  0  0
 21 20  1  0  0  0  0
 22 23  1  0  0  0  0
 22 21  1  0  0  0  0
 22 34  1  0  0  0  0
 23 36  1  0  0  0  0
 24 37  1  0  0  0  0
 24 23  1  0  0  0  0
 25 19  1  0  0  0  0
 26 25  2  0  0  0  0
 27 18  1  0  0  0  0
 31 21  1  0  0  0  0
 32 21  1  0  0  0  0
 33 22  1  0  0  0  0
 35 23  1  0  0  0  0
 38 24  1  0  0  0  0
 39 25  1  0  0  0  0
 39 48  1  0  0  0  0
 40 49  1  1  0  0  0
 40 44  1  0  0  0  0
 40 39  1  0  0  0  0
 41 40  1  0  0  0  0
 42 41  1  0  0  0  0
 43 42  2  0  0  0  0
 44 47  1  0  0  0  0
 45 44  2  0  0  0  0
 46 42  1  0  0  0  0
 50 41  1  0  0  0  0
 51 41  1  0  0  0  0
 52 46  1  0  0  0  0
M  END
$$$$
