EKG.pdb
 OpenBabel07022418193D

 46 45  0  0  1  0  0  0  0  0999 V2000
    1.1890   -3.2120    3.0610 N   0  0  0  0  0  0  0  0  0  0  0  0
    1.0160   -2.7080    1.7030 C   0  0  1  0  0  0  0  0  0  0  0  0
    0.1200   -3.7190    1.0130 C   0  0  0  0  0  0  0  0  0  0  0  0
    0.7020   -5.1040    0.9710 C   0  0  0  0  0  0  0  0  0  0  0  0
    1.9760   -5.2180    0.2550 C   0  0  0  0  0  0  0  0  0  0  0  0
    2.5470   -6.3290    0.2270 O   0  0  0  0  0  0  0  0  0  0  0  0
    0.2330   -1.4530    1.7870 C   0  0  0  0  0  0  0  0  0  0  0  0
   -0.1500   -1.0410    2.9010 O   0  0  0  0  0  0  0  0  0  0  0  0
    2.5690   -4.1520   -0.3890 O   0  0  0  0  0  0  0  0  0  0  0  0
    0.4140   -2.8830    3.6980 H   0  0  0  0  0  0  0  0  0  0  0  0
    2.0940   -2.8950    3.4820 H   0  0  0  0  0  0  0  0  0  0  0  0
    1.9750   -2.5770    1.1920 H   0  0  0  0  0  0  0  0  0  0  0  0
   -0.1160   -3.3490   -0.0160 H   0  0  0  0  0  0  0  0  0  0  0  0
   -0.8600   -3.7970    1.5260 H   0  0  0  0  0  0  0  0  0  0  0  0
    0.7650   -5.4570    2.0240 H   0  0  0  0  0  0  0  0  0  0  0  0
   -0.0800   -5.7420    0.4690 H   0  0  0  0  0  0  0  0  0  0  0  0
    3.2000   -4.3510   -1.1520 H   0  0  0  0  0  0  0  0  0  0  0  0
   -0.1040   -0.6900    0.6380 N   0  0  0  0  0  0  0  0  0  0  0  0
   -0.8640    0.5310    0.6900 C   0  0  1  0  0  0  0  0  0  0  0  0
    0.0100    1.7280    0.2890 C   0  0  0  0  0  0  0  0  0  0  0  0
    1.1790    1.8100    1.2680 C   0  0  0  0  0  0  0  0  0  0  0  0
    2.0820    2.9720    0.9230 C   0  0  0  0  0  0  0  0  0  0  0  0
    3.2150    2.9860    1.9430 C   0  0  0  0  0  0  0  0  0  0  0  0
    3.9830    1.7610    1.9220 N   0  0  0  0  0  0  0  0  0  0  0  0
   -2.0480    0.4290   -0.1900 C   0  0  0  0  0  0  0  0  0  0  0  0
   -2.2480   -0.6470   -0.8490 O   0  0  0  0  0  0  0  0  0  0  0  0
    0.2410   -1.0780   -0.2800 H   0  0  0  0  0  0  0  0  0  0  0  0
   -1.1300    0.7350    1.7590 H   0  0  0  0  0  0  0  0  0  0  0  0
    0.3680    1.6440   -0.7520 H   0  0  0  0  0  0  0  0  0  0  0  0
   -0.5660    2.6710    0.3660 H   0  0  0  0  0  0  0  0  0  0  0  0
    1.7080    0.8410    1.2020 H   0  0  0  0  0  0  0  0  0  0  0  0
    0.8130    1.9830    2.2950 H   0  0  0  0  0  0  0  0  0  0  0  0
    2.4760    2.9360   -0.1000 H   0  0  0  0  0  0  0  0  0  0  0  0
    1.4940    3.9050    1.1180 H   0  0  0  0  0  0  0  0  0  0  0  0
    3.9100    3.8230    1.7180 H   0  0  0  0  0  0  0  0  0  0  0  0
    2.8290    3.1670    2.9560 H   0  0  0  0  0  0  0  0  0  0  0  0
    4.7720    1.8920    1.2520 H   0  0  0  0  0  0  0  0  0  0  0  0
    4.3390    1.5880    2.8930 H   0  0  0  0  0  0  0  0  0  0  0  0
   -2.9960    1.4560   -0.3590 N   0  0  0  0  0  0  0  0  0  0  0  0
   -4.1530    1.3470   -1.2220 C   0  0  0  0  0  0  0  0  0  0  0  0
   -4.9860    0.2200   -0.7530 C   0  0  0  0  0  0  0  0  0  0  0  0
   -6.0580   -0.1240   -1.3100 O   0  0  0  0  0  0  0  0  0  0  0  0
   -4.5810   -0.5050    0.3530 O   0  0  0  0  0  0  0  0  0  0  0  0
   -2.8630    2.3460    0.1630 H   0  0  0  0  0  0  0  0  0  0  0  0
   -4.7520    2.2730   -1.2330 H   0  0  0  0  0  0  0  0  0  0  0  0
   -3.8360    1.0850   -2.2730 H   0  0  0  0  0  0  0  0  0  0  0  0
  1 11  1  0  0  0  0
  1 10  1  0  0  0  0
  2 12  1  6  0  0  0
  2  7  1  0  0  0  0
  2  1  1  0  0  0  0
  3 14  1  0  0  0  0
  3  2  1  0  0  0  0
  4  3  1  0  0  0  0
  4 15  1  0  0  0  0
  5  4  1  0  0  0  0
  6  5  2  0  0  0  0
  7  8  2  0  0  0  0
  9  5  1  0  0  0  0
 13  3  1  0  0  0  0
 16  4  1  0  0  0  0
 17  9  1  0  0  0  0
 18 19  1  0  0  0  0
 18  7  1  0  0  0  0
 19 28  1  1  0  0  0
 20 30  1  0  0  0  0
 20 19  1  0  0  0  0
 20 21  1  0  0  0  0
 21 32  1  0  0  0  0
 22 34  1  0  0  0  0
 22 21  1  0  0  0  0
 22 23  1  0  0  0  0
 23 36  1  0  0  0  0
 24 23  1  0  0  0  0
 24 38  1  0  0  0  0
 25 19  1  0  0  0  0
 26 25  2  0  0  0  0
 27 18  1  0  0  0  0
 29 20  1  0  0  0  0
 31 21  1  0  0  0  0
 33 22  1  0  0  0  0
 35 23  1  0  0  0  0
 37 24  1  0  0  0  0
 39 25  1  0  0  0  0
 39 44  1  0  0  0  0
 40 41  1  0  0  0  0
 40 39  1  0  0  0  0
 41 43  1  0  0  0  0
 42 41  2  0  0  0  0
 45 40  1  0  0  0  0
 46 40  1  0  0  0  0
M  END
$$$$
