EKH.pdb
 OpenBabel07022418193D

 56 56  0  0  1  0  0  0  0  0999 V2000
    1.3160   -1.1090    4.5070 N   0  0  0  0  0  0  0  0  0  0  0  0
    1.6130   -0.7010    3.1430 C   0  0  1  0  0  0  0  0  0  0  0  0
    2.2000   -1.8710    2.4020 C   0  0  0  0  0  0  0  0  0  0  0  0
    1.2870   -3.0520    2.3370 C   0  0  0  0  0  0  0  0  0  0  0  0
    1.9490   -4.1420    1.5950 C   0  0  0  0  0  0  0  0  0  0  0  0
    3.1090   -3.9500    1.1520 O   0  0  0  0  0  0  0  0  0  0  0  0
    0.4070   -0.1350    2.5280 C   0  0  0  0  0  0  0  0  0  0  0  0
   -0.6860   -0.0850    3.1900 O   0  0  0  0  0  0  0  0  0  0  0  0
    1.3280   -5.3740    1.3710 O   0  0  0  0  0  0  0  0  0  0  0  0
    0.5090   -0.5440    4.9060 H   0  0  0  0  0  0  0  0  0  0  0  0
    2.1630   -1.0280    5.1150 H   0  0  0  0  0  0  0  0  0  0  0  0
    2.4430    0.0550    3.2310 H   0  0  0  0  0  0  0  0  0  0  0  0
    3.1480   -2.1300    2.9340 H   0  0  0  0  0  0  0  0  0  0  0  0
    2.5130   -1.5030    1.4050 H   0  0  0  0  0  0  0  0  0  0  0  0
    1.1510   -3.4450    3.3880 H   0  0  0  0  0  0  0  0  0  0  0  0
    0.2820   -2.8220    1.9750 H   0  0  0  0  0  0  0  0  0  0  0  0
    1.7920   -5.9960    0.7200 H   0  0  0  0  0  0  0  0  0  0  0  0
    0.3360    0.3840    1.2160 N   0  0  0  0  0  0  0  0  0  0  0  0
   -0.9300    0.9480    0.6560 C   0  0  1  0  0  0  0  0  0  0  0  0
   -0.7270    2.3520    0.2710 C   0  0  0  0  0  0  0  0  0  0  0  0
   -1.9240    3.0570   -0.2310 C   0  0  0  0  0  0  0  0  0  0  0  0
   -3.0570    3.3500    0.6490 C   0  0  0  0  0  0  0  0  0  0  0  0
   -3.8510    2.3480    1.3470 C   0  0  0  0  0  0  0  0  0  0  0  0
   -4.5330    1.3760    0.5530 N   0  0  0  0  0  0  0  0  0  0  0  0
   -1.2930    0.0830   -0.5050 C   0  0  0  0  0  0  0  0  0  0  0  0
   -2.3050    0.3090   -1.1680 O   0  0  0  0  0  0  0  0  0  0  0  0
    1.1790    0.3770    0.6200 H   0  0  0  0  0  0  0  0  0  0  0  0
   -1.6650    0.8230    1.4260 H   0  0  0  0  0  0  0  0  0  0  0  0
    0.0820    2.4710   -0.5150 H   0  0  0  0  0  0  0  0  0  0  0  0
   -0.2760    2.9310    1.1360 H   0  0  0  0  0  0  0  0  0  0  0  0
   -1.5580    4.0470   -0.7350 H   0  0  0  0  0  0  0  0  0  0  0  0
   -2.3250    2.5260   -1.1440 H   0  0  0  0  0  0  0  0  0  0  0  0
   -3.8030    3.9400   -0.0100 H   0  0  0  0  0  0  0  0  0  0  0  0
   -2.7480    4.1790    1.3700 H   0  0  0  0  0  0  0  0  0  0  0  0
   -3.4430    1.8660    2.2480 H   0  0  0  0  0  0  0  0  0  0  0  0
   -4.7230    2.9680    1.8390 H   0  0  0  0  0  0  0  0  0  0  0  0
   -4.6540    1.6160   -0.4360 H   0  0  0  0  0  0  0  0  0  0  0  0
   -5.3730    0.9920    1.0210 H   0  0  0  0  0  0  0  0  0  0  0  0
   -0.4930   -1.0320   -0.8950 N   0  0  0  0  0  0  0  0  0  0  0  0
   -0.8680   -1.8530   -2.0260 C   0  0  1  0  0  0  0  0  0  0  0  0
    0.1860   -1.8520   -3.1160 C   0  0  0  0  0  0  0  0  0  0  0  0
    1.4780   -2.3740   -2.6100 C   0  0  0  0  0  0  0  0  0  0  0  0
    2.4920   -1.6460   -2.0410 C   0  0  0  0  0  0  0  0  0  0  0  0
    3.4800   -2.4800   -1.7200 N   0  0  0  0  0  0  0  0  0  0  0  0
    3.0840   -3.7080   -2.0860 C   0  0  0  0  0  0  0  0  0  0  0  0
    1.8660   -3.6780   -2.6330 N   0  0  0  0  0  0  0  0  0  0  0  0
   -1.1330   -3.2630   -1.6010 C   0  0  0  0  0  0  0  0  0  0  0  0
   -1.4740   -4.1410   -2.4410 O   0  0  0  0  0  0  0  0  0  0  0  0
   -1.0200   -3.6770   -0.2860 O   0  0  0  0  0  0  0  0  0  0  0  0
    0.3650   -1.2290   -0.3370 H   0  0  0  0  0  0  0  0  0  0  0  0
   -1.8070   -1.4530   -2.4390 H   0  0  0  0  0  0  0  0  0  0  0  0
    0.2830   -0.8800   -3.6040 H   0  0  0  0  0  0  0  0  0  0  0  0
   -0.1730   -2.5650   -3.9010 H   0  0  0  0  0  0  0  0  0  0  0  0
    2.4270   -0.5600   -1.9050 H   0  0  0  0  0  0  0  0  0  0  0  0
    4.3810   -2.2050   -1.2700 H   0  0  0  0  0  0  0  0  0  0  0  0
    3.6750   -4.5990   -1.9540 H   0  0  0  0  0  0  0  0  0  0  0  0
  1 10  1  0  0  0  0
  1 11  1  0  0  0  0
  2 12  1  1  0  0  0
  2  1  1  0  0  0  0
  3 13  1  0  0  0  0
  3  2  1  0  0  0  0
  4  3  1  0  0  0  0
  4 15  1  0  0  0  0
  5  4  1  0  0  0  0
  6  5  2  0  0  0  0
  7  2  1  0  0  0  0
  7  8  2  0  0  0  0
  9  5  1  0  0  0  0
 14  3  1  0  0  0  0
 16  4  1  0  0  0  0
 17  9  1  0  0  0  0
 18  7  1  0  0  0  0
 19 18  1  0  0  0  0
 19 28  1  1  0  0  0
 20 19  1  0  0  0  0
 20 30  1  0  0  0  0
 21 20  1  0  0  0  0
 21 22  1  0  0  0  0
 22 23  1  0  0  0  0
 22 34  1  0  0  0  0
 23 36  1  0  0  0  0
 23 35  1  0  0  0  0
 24 38  1  0  0  0  0
 24 23  1  0  0  0  0
 25 19  1  0  0  0  0
 26 25  2  0  0  0  0
 27 18  1  0  0  0  0
 29 20  1  0  0  0  0
 31 21  1  0  0  0  0
 32 21  1  0  0  0  0
 33 22  1  0  0  0  0
 37 24  1  0  0  0  0
 39 25  1  0  0  0  0
 39 50  1  0  0  0  0
 40 51  1  6  0  0  0
 40 47  1  0  0  0  0
 40 39  1  0  0  0  0
 41 42  1  0  0  0  0
 41 40  1  0  0  0  0
 42 43  2  0  0  0  0
 43 54  1  0  0  0  0
 43 44  1  0  0  0  0
 44 55  1  0  0  0  0
 45 56  1  0  0  0  0
 45 44  1  0  0  0  0
 46 42  1  0  0  0  0
 46 45  2  0  0  0  0
 47 49  1  0  0  0  0
 48 47  2  0  0  0  0
 52 41  1  0  0  0  0
 53 41  1  0  0  0  0
M  END
$$$$
