EKI.pdb
 OpenBabel07022418193D

 58 57  0  0  1  0  0  0  0  0999 V2000
    1.3550   -2.7670    4.7290 N   0  0  0  0  0  0  0  0  0  0  0  0
    1.8900   -2.3920    3.3800 C   0  0  1  0  0  0  0  0  0  0  0  0
    1.8460   -3.6390    2.6000 C   0  0  0  0  0  0  0  0  0  0  0  0
    2.3400   -3.6370    1.2020 C   0  0  0  0  0  0  0  0  0  0  0  0
    3.7750   -3.2440    1.0720 C   0  0  0  0  0  0  0  0  0  0  0  0
    4.4250   -2.9830    2.1050 O   0  0  0  0  0  0  0  0  0  0  0  0
    1.0900   -1.2530    2.9630 C   0  0  0  0  0  0  0  0  0  0  0  0
    0.1990   -0.8080    3.7730 O   0  0  0  0  0  0  0  0  0  0  0  0
    4.3680   -3.1710   -0.1800 O   0  0  0  0  0  0  0  0  0  0  0  0
    0.6450   -3.5290    4.6130 H   0  0  0  0  0  0  0  0  0  0  0  0
    0.9470   -1.9420    5.1900 H   0  0  0  0  0  0  0  0  0  0  0  0
    2.9520   -2.0830    3.6180 H   0  0  0  0  0  0  0  0  0  0  0  0
    0.8180   -4.0740    2.6860 H   0  0  0  0  0  0  0  0  0  0  0  0
    2.4830   -4.3880    3.1730 H   0  0  0  0  0  0  0  0  0  0  0  0
    2.3490   -4.7230    0.8110 H   0  0  0  0  0  0  0  0  0  0  0  0
    1.6920   -3.1380    0.4640 H   0  0  0  0  0  0  0  0  0  0  0  0
    5.2950   -2.7560   -0.2220 H   0  0  0  0  0  0  0  0  0  0  0  0
    1.1910   -0.5690    1.7480 N   0  0  0  0  0  0  0  0  0  0  0  0
    0.3680    0.5900    1.4070 C   0  0  1  0  0  0  0  0  0  0  0  0
    1.2920    1.6640    0.9670 C   0  0  0  0  0  0  0  0  0  0  0  0
    0.6610    2.9470    0.5680 C   0  0  0  0  0  0  0  0  0  0  0  0
   -0.1380    3.5940    1.6770 C   0  0  0  0  0  0  0  0  0  0  0  0
   -0.7560    4.8930    1.2140 C   0  0  0  0  0  0  0  0  0  0  0  0
   -1.6480    4.7220    0.1030 N   0  0  0  0  0  0  0  0  0  0  0  0
   -0.6580    0.2060    0.4550 C   0  0  0  0  0  0  0  0  0  0  0  0
   -1.4730    1.0410   -0.0760 O   0  0  0  0  0  0  0  0  0  0  0  0
    1.8930   -0.8910    1.0490 H   0  0  0  0  0  0  0  0  0  0  0  0
   -0.1440    0.8590    2.3740 H   0  0  0  0  0  0  0  0  0  0  0  0
    1.9960    1.8740    1.8080 H   0  0  0  0  0  0  0  0  0  0  0  0
    1.8990    1.2930    0.1270 H   0  0  0  0  0  0  0  0  0  0  0  0
    0.0270    2.8980   -0.3240 H   0  0  0  0  0  0  0  0  0  0  0  0
    1.4870    3.6620    0.3260 H   0  0  0  0  0  0  0  0  0  0  0  0
    0.4920    3.8440    2.5610 H   0  0  0  0  0  0  0  0  0  0  0  0
   -0.9520    2.9430    2.0470 H   0  0  0  0  0  0  0  0  0  0  0  0
    0.0300    5.6330    0.9240 H   0  0  0  0  0  0  0  0  0  0  0  0
   -1.3260    5.3370    2.0420 H   0  0  0  0  0  0  0  0  0  0  0  0
   -1.1690    4.5200   -0.7820 H   0  0  0  0  0  0  0  0  0  0  0  0
   -2.4690    4.1410    0.3200 H   0  0  0  0  0  0  0  0  0  0  0  0
   -3.0030   -1.3520   -3.5750 C   0  0  0  0  0  0  0  0  0  0  0  0
   -2.1350   -2.5350   -3.2040 C   0  0  0  0  0  0  0  0  0  0  0  0
   -1.1760   -2.1100   -2.1240 C   0  0  2  0  0  0  0  0  0  0  0  0
   -0.2700   -3.2380   -1.6930 C   0  0  0  0  0  0  0  0  0  0  0  0
   -1.8820   -1.4960   -0.9260 C   0  0  2  0  0  0  0  0  0  0  0  0
   -0.8390   -1.1310    0.0390 N   0  0  0  0  0  0  0  0  0  0  0  0
   -2.7210   -2.5280   -0.2740 C   0  0  0  0  0  0  0  0  0  0  0  0
   -3.7110   -3.0380   -0.8630 O   0  0  0  0  0  0  0  0  0  0  0  0
   -2.4500   -2.9800    1.0180 O   0  0  0  0  0  0  0  0  0  0  0  0
   -3.5810   -1.5390   -4.5050 H   0  0  0  0  0  0  0  0  0  0  0  0
   -2.3410   -0.4670   -3.7780 H   0  0  0  0  0  0  0  0  0  0  0  0
   -3.6910   -1.0660   -2.7770 H   0  0  0  0  0  0  0  0  0  0  0  0
   -1.5120   -2.7370   -4.1240 H   0  0  0  0  0  0  0  0  0  0  0  0
   -2.7610   -3.3910   -2.9590 H   0  0  0  0  0  0  0  0  0  0  0  0
   -0.5190   -1.3330   -2.5990 H   0  0  0  0  0  0  0  0  0  0  0  0
    0.7830   -2.9220   -1.7420 H   0  0  0  0  0  0  0  0  0  0  0  0
   -0.4890   -3.6000   -0.6670 H   0  0  0  0  0  0  0  0  0  0  0  0
   -0.3930   -4.0650   -2.4230 H   0  0  0  0  0  0  0  0  0  0  0  0
   -2.4540   -0.5940   -1.2270 H   0  0  0  0  0  0  0  0  0  0  0  0
   -0.2410   -1.8890    0.4150 H   0  0  0  0  0  0  0  0  0  0  0  0
  1 11  1  0  0  0  0
  2 12  1  1  0  0  0
  2  1  1  0  0  0  0
  3 13  1  0  0  0  0
  3 14  1  0  0  0  0
  3  2  1  0  0  0  0
  4  3  1  0  0  0  0
  5  4  1  0  0  0  0
  5  6  2  0  0  0  0
  7  2  1  0  0  0  0
  7  8  2  0  0  0  0
  9  5  1  0  0  0  0
 10  1  1  0  0  0  0
 15  4  1  0  0  0  0
 16  4  1  0  0  0  0
 17  9  1  0  0  0  0
 18  7  1  0  0  0  0
 19 18  1  0  0  0  0
 19 28  1  1  0  0  0
 20 19  1  0  0  0  0
 20 29  1  0  0  0  0
 21 20  1  0  0  0  0
 21 22  1  0  0  0  0
 22 34  1  0  0  0  0
 22 33  1  0  0  0  0
 23 22  1  0  0  0  0
 23 36  1  0  0  0  0
 24 38  1  0  0  0  0
 24 23  1  0  0  0  0
 25 19  1  0  0  0  0
 26 25  2  0  0  0  0
 27 18  1  0  0  0  0
 30 20  1  0  0  0  0
 31 21  1  0  0  0  0
 32 21  1  0  0  0  0
 35 23  1  0  0  0  0
 37 24  1  0  0  0  0
 39 40  1  0  0  0  0
 39 50  1  0  0  0  0
 40 52  1  0  0  0  0
 40 41  1  0  0  0  0
 41 53  1  6  0  0  0
 41 42  1  0  0  0  0
 41 43  1  0  0  0  0
 42 55  1  0  0  0  0
 43 57  1  6  0  0  0
 43 45  1  0  0  0  0
 43 44  1  0  0  0  0
 44 58  1  0  0  0  0
 44 25  1  0  0  0  0
 45 47  1  0  0  0  0
 46 45  2  0  0  0  0
 48 39  1  0  0  0  0
 49 39  1  0  0  0  0
 51 40  1  0  0  0  0
 54 42  1  0  0  0  0
 56 42  1  0  0  0  0
M  END
$$$$
