EKK.pdb
 OpenBabel07022418193D

 60 59  0  0  1  0  0  0  0  0999 V2000
    4.9250    0.9810    1.6300 N   0  0  0  0  0  0  0  0  0  0  0  0
    4.0060    0.7950    0.5610 C   0  0  1  0  0  0  0  0  0  0  0  0
    4.2720   -0.4490   -0.2010 C   0  0  0  0  0  0  0  0  0  0  0  0
    4.1890   -1.7200    0.5820 C   0  0  0  0  0  0  0  0  0  0  0  0
    5.1320   -1.8120    1.7100 C   0  0  0  0  0  0  0  0  0  0  0  0
    4.7770   -1.3680    2.8300 O   0  0  0  0  0  0  0  0  0  0  0  0
    2.5950    0.9060    1.0360 C   0  0  0  0  0  0  0  0  0  0  0  0
    2.4150    1.1490    2.2550 O   0  0  0  0  0  0  0  0  0  0  0  0
    6.4030   -2.3600    1.6320 O   0  0  0  0  0  0  0  0  0  0  0  0
    4.6060    1.7630    2.2320 H   0  0  0  0  0  0  0  0  0  0  0  0
    5.8790    1.2140    1.2730 H   0  0  0  0  0  0  0  0  0  0  0  0
    4.1780    1.6540   -0.1580 H   0  0  0  0  0  0  0  0  0  0  0  0
    3.7090   -0.5120   -1.1640 H   0  0  0  0  0  0  0  0  0  0  0  0
    5.3490   -0.3790   -0.5430 H   0  0  0  0  0  0  0  0  0  0  0  0
    4.4460   -2.5680   -0.1070 H   0  0  0  0  0  0  0  0  0  0  0  0
    3.1390   -1.8110    0.9420 H   0  0  0  0  0  0  0  0  0  0  0  0
    7.1590   -2.0770    2.2420 H   0  0  0  0  0  0  0  0  0  0  0  0
    1.4800    0.7530    0.1930 N   0  0  0  0  0  0  0  0  0  0  0  0
    0.1040    0.8540    0.6240 C   0  0  1  0  0  0  0  0  0  0  0  0
   -0.5820    2.0670    0.0360 C   0  0  0  0  0  0  0  0  0  0  0  0
   -0.5730    2.0150   -1.4870 C   0  0  0  0  0  0  0  0  0  0  0  0
   -1.2280    3.2220   -2.0850 C   0  0  0  0  0  0  0  0  0  0  0  0
   -2.6690    3.3900   -1.6830 C   0  0  0  0  0  0  0  0  0  0  0  0
   -3.4580    2.2670   -2.1010 N   0  0  0  0  0  0  0  0  0  0  0  0
   -0.5820   -0.4200    0.3650 C   0  0  0  0  0  0  0  0  0  0  0  0
    0.0640   -1.3490   -0.2220 O   0  0  0  0  0  0  0  0  0  0  0  0
    1.6730    0.5520   -0.8120 H   0  0  0  0  0  0  0  0  0  0  0  0
    0.1540    1.0840    1.7340 H   0  0  0  0  0  0  0  0  0  0  0  0
   -0.1310    3.0110    0.3960 H   0  0  0  0  0  0  0  0  0  0  0  0
   -1.6540    2.1070    0.3180 H   0  0  0  0  0  0  0  0  0  0  0  0
    0.4930    2.0330   -1.8590 H   0  0  0  0  0  0  0  0  0  0  0  0
   -1.0410    1.1120   -1.8770 H   0  0  0  0  0  0  0  0  0  0  0  0
   -0.7130    4.1650   -1.7270 H   0  0  0  0  0  0  0  0  0  0  0  0
   -1.1980    3.2210   -3.1890 H   0  0  0  0  0  0  0  0  0  0  0  0
   -3.0890    4.2980   -2.1550 H   0  0  0  0  0  0  0  0  0  0  0  0
   -2.7470    3.5700   -0.5770 H   0  0  0  0  0  0  0  0  0  0  0  0
   -4.4300    2.4070   -1.7580 H   0  0  0  0  0  0  0  0  0  0  0  0
   -3.0360    1.3790   -1.8190 H   0  0  0  0  0  0  0  0  0  0  0  0
   -1.9130   -0.7510    0.7020 N   0  0  0  0  0  0  0  0  0  0  0  0
   -2.5140   -2.0430    0.4140 C   0  0  1  0  0  0  0  0  0  0  0  0
   -2.7040   -2.6680    1.7830 C   0  0  0  0  0  0  0  0  0  0  0  0
   -3.3110   -4.0180    1.7550 C   0  0  0  0  0  0  0  0  0  0  0  0
   -2.5070   -5.0330    0.9800 C   0  0  0  0  0  0  0  0  0  0  0  0
   -1.1380   -5.1710    1.5970 C   0  0  0  0  0  0  0  0  0  0  0  0
   -1.2290   -5.6030    2.9650 N   0  0  0  0  0  0  0  0  0  0  0  0
   -3.7930   -1.8880   -0.3040 C   0  0  0  0  0  0  0  0  0  0  0  0
   -4.1980   -0.7260   -0.5490 O   0  0  0  0  0  0  0  0  0  0  0  0
   -4.5750   -2.9430   -0.7250 O   0  0  0  0  0  0  0  0  0  0  0  0
   -2.4690   -0.0120    1.1810 H   0  0  0  0  0  0  0  0  0  0  0  0
   -1.8550   -2.6830   -0.1920 H   0  0  0  0  0  0  0  0  0  0  0  0
   -1.7250   -2.6950    2.2670 H   0  0  0  0  0  0  0  0  0  0  0  0
   -3.3500   -1.9920    2.3600 H   0  0  0  0  0  0  0  0  0  0  0  0
   -4.3760   -4.0190    1.4350 H   0  0  0  0  0  0  0  0  0  0  0  0
   -3.3330   -4.3880    2.8150 H   0  0  0  0  0  0  0  0  0  0  0  0
   -2.4840   -4.8570   -0.0940 H   0  0  0  0  0  0  0  0  0  0  0  0
   -3.0170   -6.0290    1.1380 H   0  0  0  0  0  0  0  0  0  0  0  0
   -0.5910   -5.9470    0.9940 H   0  0  0  0  0  0  0  0  0  0  0  0
   -0.5720   -4.2200    1.5690 H   0  0  0  0  0  0  0  0  0  0  0  0
   -0.2280   -5.7000    3.3100 H   0  0  0  0  0  0  0  0  0  0  0  0
   -1.6380   -6.5690    3.0280 H   0  0  0  0  0  0  0  0  0  0  0  0
  1 10  1  0  0  0  0
  2 12  1  6  0  0  0
  2  7  1  0  0  0  0
  2  1  1  0  0  0  0
  3  2  1  0  0  0  0
  3  4  1  0  0  0  0
  4 16  1  0  0  0  0
  4  5  1  0  0  0  0
  5  6  2  0  0  0  0
  7  8  2  0  0  0  0
  9  5  1  0  0  0  0
  9 17  1  0  0  0  0
 11  1  1  0  0  0  0
 13  3  1  0  0  0  0
 14  3  1  0  0  0  0
 15  4  1  0  0  0  0
 18 19  1  0  0  0  0
 18  7  1  0  0  0  0
 19 28  1  1  0  0  0
 20 30  1  0  0  0  0
 20 29  1  0  0  0  0
 20 19  1  0  0  0  0
 21 20  1  0  0  0  0
 22 33  1  0  0  0  0
 22 23  1  0  0  0  0
 22 21  1  0  0  0  0
 23 36  1  0  0  0  0
 24 38  1  0  0  0  0
 24 37  1  0  0  0  0
 24 23  1  0  0  0  0
 25 19  1  0  0  0  0
 25 39  1  0  0  0  0
 26 25  2  0  0  0  0
 27 18  1  0  0  0  0
 31 21  1  0  0  0  0
 32 21  1  0  0  0  0
 34 22  1  0  0  0  0
 35 23  1  0  0  0  0
 39 49  1  0  0  0  0
 40 50  1  6  0  0  0
 40 39  1  0  0  0  0
 40 41  1  0  0  0  0
 41 51  1  0  0  0  0
 41 52  1  0  0  0  0
 42 41  1  0  0  0  0
 42 54  1  0  0  0  0
 43 56  1  0  0  0  0
 43 44  1  0  0  0  0
 43 42  1  0  0  0  0
 44 45  1  0  0  0  0
 45 60  1  0  0  0  0
 45 59  1  0  0  0  0
 46 40  1  0  0  0  0
 47 46  1  0  0  0  0
 48 46  2  0  0  0  0
 53 42  1  0  0  0  0
 55 43  1  0  0  0  0
 57 44  1  0  0  0  0
 58 44  1  0  0  0  0
M  END
$$$$
