EKL.pdb
 OpenBabel07022418193D

 58 57  0  0  1  0  0  0  0  0999 V2000
    4.7280   -1.3650    1.4500 N   0  0  0  0  0  0  0  0  0  0  0  0
    3.4770   -0.8500    0.8630 C   0  0  1  0  0  0  0  0  0  0  0  0
    3.2900   -1.5270   -0.4410 C   0  0  0  0  0  0  0  0  0  0  0  0
    4.4140   -1.2780   -1.4070 C   0  0  0  0  0  0  0  0  0  0  0  0
    4.5860    0.1280   -1.7650 C   0  0  0  0  0  0  0  0  0  0  0  0
    5.5700    0.4920   -2.4600 O   0  0  0  0  0  0  0  0  0  0  0  0
    2.4170   -1.0360    1.8390 C   0  0  0  0  0  0  0  0  0  0  0  0
    2.6740   -1.5950    2.9340 O   0  0  0  0  0  0  0  0  0  0  0  0
    3.7050    1.1140   -1.3770 O   0  0  0  0  0  0  0  0  0  0  0  0
    5.5560   -1.0470    0.9410 H   0  0  0  0  0  0  0  0  0  0  0  0
    4.6880   -2.3770    1.6180 H   0  0  0  0  0  0  0  0  0  0  0  0
    3.6650    0.2280    0.7210 H   0  0  0  0  0  0  0  0  0  0  0  0
    2.3490   -1.2960   -0.9620 H   0  0  0  0  0  0  0  0  0  0  0  0
    3.2650   -2.6460   -0.2790 H   0  0  0  0  0  0  0  0  0  0  0  0
    5.3740   -1.7420   -1.0520 H   0  0  0  0  0  0  0  0  0  0  0  0
    4.1610   -1.8860   -2.3290 H   0  0  0  0  0  0  0  0  0  0  0  0
    3.9970    2.0400   -1.1760 H   0  0  0  0  0  0  0  0  0  0  0  0
    1.0680   -0.5950    1.5870 N   0  0  0  0  0  0  0  0  0  0  0  0
    0.0140   -0.7800    2.5480 C   0  0  1  0  0  0  0  0  0  0  0  0
   -0.4630    0.5600    3.1110 C   0  0  0  0  0  0  0  0  0  0  0  0
   -0.9860    1.4520    2.0370 C   0  0  0  0  0  0  0  0  0  0  0  0
   -1.4240    2.7600    2.6260 C   0  0  0  0  0  0  0  0  0  0  0  0
   -2.5200    2.5160    3.6320 C   0  0  0  0  0  0  0  0  0  0  0  0
   -3.6560    1.8610    2.9930 N   0  0  0  0  0  0  0  0  0  0  0  0
   -1.1160   -1.5670    2.0130 C   0  0  0  0  0  0  0  0  0  0  0  0
   -2.1100   -1.8410    2.7330 O   0  0  0  0  0  0  0  0  0  0  0  0
    0.9400   -0.1400    0.6600 H   0  0  0  0  0  0  0  0  0  0  0  0
    0.4140   -1.3250    3.4270 H   0  0  0  0  0  0  0  0  0  0  0  0
   -1.2320    0.3650    3.8900 H   0  0  0  0  0  0  0  0  0  0  0  0
    0.3690    1.0860    3.6220 H   0  0  0  0  0  0  0  0  0  0  0  0
   -0.1680    1.7030    1.3050 H   0  0  0  0  0  0  0  0  0  0  0  0
   -1.8620    1.0290    1.5020 H   0  0  0  0  0  0  0  0  0  0  0  0
   -0.5590    3.2850    3.1320 H   0  0  0  0  0  0  0  0  0  0  0  0
   -1.7880    3.4350    1.8220 H   0  0  0  0  0  0  0  0  0  0  0  0
   -2.2190    1.9560    4.5170 H   0  0  0  0  0  0  0  0  0  0  0  0
   -2.8700    3.5260    3.9760 H   0  0  0  0  0  0  0  0  0  0  0  0
   -3.4810    0.8430    3.0580 H   0  0  0  0  0  0  0  0  0  0  0  0
   -3.7090    2.1010    1.9810 H   0  0  0  0  0  0  0  0  0  0  0  0
   -1.8070   -2.7670   -2.9550 C   0  0  0  0  0  0  0  0  0  0  0  0
   -2.4270   -1.6730   -2.1100 C   0  0  0  0  0  0  0  0  0  0  0  0
   -1.5020   -0.4950   -1.9520 C   0  0  0  0  0  0  0  0  0  0  0  0
   -3.0760   -2.1280   -0.8640 C   0  0  0  0  0  0  0  0  0  0  0  0
   -2.2760   -2.8370    0.1550 C   0  0  2  0  0  0  0  0  0  0  0  0
   -1.1570   -2.0610    0.6700 N   0  0  0  0  0  0  0  0  0  0  0  0
   -1.7950   -4.1760   -0.1840 C   0  0  0  0  0  0  0  0  0  0  0  0
   -2.5330   -5.0920   -0.6440 O   0  0  0  0  0  0  0  0  0  0  0  0
   -0.4470   -4.5590   -0.0210 O   0  0  0  0  0  0  0  0  0  0  0  0
   -1.7460   -2.4440   -4.0380 H   0  0  0  0  0  0  0  0  0  0  0  0
   -0.7490   -2.9420   -2.6660 H   0  0  0  0  0  0  0  0  0  0  0  0
   -2.4290   -3.6770   -2.9810 H   0  0  0  0  0  0  0  0  0  0  0  0
   -3.2780   -1.2890   -2.7580 H   0  0  0  0  0  0  0  0  0  0  0  0
   -1.7370    0.0380   -0.9950 H   0  0  0  0  0  0  0  0  0  0  0  0
   -1.6850    0.2830   -2.7520 H   0  0  0  0  0  0  0  0  0  0  0  0
   -0.4310   -0.7520   -2.0520 H   0  0  0  0  0  0  0  0  0  0  0  0
   -3.9320   -2.7920   -1.1440 H   0  0  0  0  0  0  0  0  0  0  0  0
   -3.5430   -1.2420   -0.3830 H   0  0  0  0  0  0  0  0  0  0  0  0
   -2.9950   -2.9760    1.0250 H   0  0  0  0  0  0  0  0  0  0  0  0
   -0.3260   -1.8270    0.0830 H   0  0  0  0  0  0  0  0  0  0  0  0
  1 11  1  0  0  0  0
  2 12  1  6  0  0  0
  2  1  1  0  0  0  0
  2  7  1  0  0  0  0
  3 14  1  0  0  0  0
  3  2  1  0  0  0  0
  4 15  1  0  0  0  0
  4  3  1  0  0  0  0
  5  4  1  0  0  0  0
  5  9  1  0  0  0  0
  6  5  2  0  0  0  0
  7  8  2  0  0  0  0
  9 17  1  0  0  0  0
 10  1  1  0  0  0  0
 13  3  1  0  0  0  0
 16  4  1  0  0  0  0
 18  7  1  0  0  0  0
 18 19  1  0  0  0  0
 19 20  1  0  0  0  0
 19 28  1  1  0  0  0
 20 30  1  0  0  0  0
 20 29  1  0  0  0  0
 21 22  1  0  0  0  0
 21 20  1  0  0  0  0
 22 33  1  0  0  0  0
 22 23  1  0  0  0  0
 23 36  1  0  0  0  0
 23 35  1  0  0  0  0
 24 37  1  0  0  0  0
 24 23  1  0  0  0  0
 25 19  1  0  0  0  0
 25 26  2  0  0  0  0
 27 18  1  0  0  0  0
 31 21  1  0  0  0  0
 32 21  1  0  0  0  0
 34 22  1  0  0  0  0
 38 24  1  0  0  0  0
 39 49  1  0  0  0  0
 39 40  1  0  0  0  0
 40 41  1  0  0  0  0
 40 42  1  0  0  0  0
 41 52  1  0  0  0  0
 42 56  1  0  0  0  0
 42 43  1  0  0  0  0
 43 44  1  0  0  0  0
 43 57  1  1  0  0  0
 44 25  1  0  0  0  0
 45 47  1  0  0  0  0
 45 43  1  0  0  0  0
 46 45  2  0  0  0  0
 48 39  1  0  0  0  0
 50 39  1  0  0  0  0
 51 40  1  0  0  0  0
 53 41  1  0  0  0  0
 54 41  1  0  0  0  0
 55 42  1  0  0  0  0
 58 44  1  0  0  0  0
M  END
$$$$
