EKP.pdb
 OpenBabel07022418193D

 53 53  0  0  1  0  0  0  0  0999 V2000
    4.4660   -3.2340    0.4700 N   0  0  0  0  0  0  0  0  0  0  0  0
    3.7780   -2.0160   -0.0140 C   0  0  1  0  0  0  0  0  0  0  0  0
    3.9340   -2.0520   -1.4960 C   0  0  0  0  0  0  0  0  0  0  0  0
    3.3290   -0.9270   -2.2560 C   0  0  0  0  0  0  0  0  0  0  0  0
    3.8580    0.3950   -1.8960 C   0  0  0  0  0  0  0  0  0  0  0  0
    4.7310    0.5760   -1.0360 O   0  0  0  0  0  0  0  0  0  0  0  0
    2.3810   -2.1120    0.4660 C   0  0  0  0  0  0  0  0  0  0  0  0
    1.9740   -3.1930    1.0100 O   0  0  0  0  0  0  0  0  0  0  0  0
    3.3480    1.5040   -2.5580 O   0  0  0  0  0  0  0  0  0  0  0  0
    4.0110   -4.0160   -0.0860 H   0  0  0  0  0  0  0  0  0  0  0  0
    4.2730   -3.3770    1.4740 H   0  0  0  0  0  0  0  0  0  0  0  0
    4.3230   -1.1780    0.4690 H   0  0  0  0  0  0  0  0  0  0  0  0
    3.6320   -3.0490   -1.8540 H   0  0  0  0  0  0  0  0  0  0  0  0
    5.0480   -2.0110   -1.6900 H   0  0  0  0  0  0  0  0  0  0  0  0
    2.2260   -1.0140   -2.2020 H   0  0  0  0  0  0  0  0  0  0  0  0
    3.5410   -1.0380   -3.3670 H   0  0  0  0  0  0  0  0  0  0  0  0
    3.8110    2.3940   -2.5440 H   0  0  0  0  0  0  0  0  0  0  0  0
    1.4190   -1.0690    0.3740 N   0  0  0  0  0  0  0  0  0  0  0  0
    0.0480   -1.2730    0.8840 C   0  0  1  0  0  0  0  0  0  0  0  0
   -0.1200   -0.3330    2.0850 C   0  0  0  0  0  0  0  0  0  0  0  0
    0.0570    1.0860    1.7080 C   0  0  0  0  0  0  0  0  0  0  0  0
   -0.0700    2.0560    2.8150 C   0  0  0  0  0  0  0  0  0  0  0  0
   -1.3830    2.1010    3.5300 C   0  0  0  0  0  0  0  0  0  0  0  0
   -1.7720    0.8980    4.1870 N   0  0  0  0  0  0  0  0  0  0  0  0
   -0.8940   -0.9910   -0.2040 C   0  0  0  0  0  0  0  0  0  0  0  0
   -0.3760   -0.4750   -1.2680 O   0  0  0  0  0  0  0  0  0  0  0  0
    1.7110   -0.1730   -0.0540 H   0  0  0  0  0  0  0  0  0  0  0  0
   -0.0690   -2.2940    1.2760 H   0  0  0  0  0  0  0  0  0  0  0  0
    0.7080   -0.5990    2.8040 H   0  0  0  0  0  0  0  0  0  0  0  0
   -1.0550   -0.5510    2.6060 H   0  0  0  0  0  0  0  0  0  0  0  0
   -0.7040    1.3610    0.9190 H   0  0  0  0  0  0  0  0  0  0  0  0
    1.0930    1.2130    1.2750 H   0  0  0  0  0  0  0  0  0  0  0  0
    0.1010    3.1150    2.4400 H   0  0  0  0  0  0  0  0  0  0  0  0
    0.7180    1.8900    3.6180 H   0  0  0  0  0  0  0  0  0  0  0  0
   -1.3880    2.9150    4.3130 H   0  0  0  0  0  0  0  0  0  0  0  0
   -2.2200    2.4090    2.8460 H   0  0  0  0  0  0  0  0  0  0  0  0
   -2.7780    0.6330    4.0120 H   0  0  0  0  0  0  0  0  0  0  0  0
   -1.6150    0.9550    5.2230 H   0  0  0  0  0  0  0  0  0  0  0  0
   -2.2730   -1.2100   -0.2330 N   0  0  0  0  0  0  0  0  0  0  0  0
   -3.1350   -0.8660   -1.3390 C   0  0  0  0  0  0  0  0  0  0  0  0
   -4.2260   -0.1060   -0.5710 C   0  0  0  0  0  0  0  0  0  0  0  0
   -4.4630   -1.0750    0.5680 C   0  0  0  0  0  0  0  0  0  0  0  0
   -3.1240   -1.8170    0.7400 C   0  0  1  0  0  0  0  0  0  0  0  0
   -3.4020   -3.2440    0.3290 C   0  0  0  0  0  0  0  0  0  0  0  0
   -4.1520   -3.9790    1.0270 O   0  0  0  0  0  0  0  0  0  0  0  0
   -2.8510   -3.7880   -0.8120 O   0  0  0  0  0  0  0  0  0  0  0  0
   -3.5350   -1.7830   -1.7690 H   0  0  0  0  0  0  0  0  0  0  0  0
   -2.6400   -0.2020   -2.0730 H   0  0  0  0  0  0  0  0  0  0  0  0
   -5.1040    0.0780   -1.1790 H   0  0  0  0  0  0  0  0  0  0  0  0
   -3.7330    0.7990   -0.1690 H   0  0  0  0  0  0  0  0  0  0  0  0
   -4.6700   -0.5290    1.5240 H   0  0  0  0  0  0  0  0  0  0  0  0
   -5.2730   -1.7510    0.2880 H   0  0  0  0  0  0  0  0  0  0  0  0
   -2.7980   -1.7930    1.7750 H   0  0  0  0  0  0  0  0  0  0  0  0
  1 11  1  0  0  0  0
  2  7  1  0  0  0  0
  2 12  1  1  0  0  0
  2  1  1  0  0  0  0
  3  2  1  0  0  0  0
  4 15  1  0  0  0  0
  4  5  1  0  0  0  0
  4  3  1  0  0  0  0
  5  6  2  0  0  0  0
  7  8  2  0  0  0  0
  9 17  1  0  0  0  0
  9  5  1  0  0  0  0
 10  1  1  0  0  0  0
 13  3  1  0  0  0  0
 14  3  1  0  0  0  0
 16  4  1  0  0  0  0
 18  7  1  0  0  0  0
 18 19  1  0  0  0  0
 19 28  1  1  0  0  0
 19 20  1  0  0  0  0
 20 30  1  0  0  0  0
 20 29  1  0  0  0  0
 21 20  1  0  0  0  0
 21 22  1  0  0  0  0
 22 23  1  0  0  0  0
 22 34  1  0  0  0  0
 23 24  1  0  0  0  0
 23 35  1  0  0  0  0
 24 38  1  0  0  0  0
 25 19  1  0  0  0  0
 26 25  2  0  0  0  0
 27 18  1  0  0  0  0
 31 21  1  0  0  0  0
 32 21  1  0  0  0  0
 33 22  1  0  0  0  0
 36 23  1  0  0  0  0
 37 24  1  0  0  0  0
 39 25  1  0  0  0  0
 39 43  1  0  0  0  0
 40 41  1  0  0  0  0
 40 39  1  0  0  0  0
 41 50  1  0  0  0  0
 41 42  1  0  0  0  0
 42 43  1  0  0  0  0
 42 51  1  0  0  0  0
 43 53  1  1  0  0  0
 44 43  1  0  0  0  0
 44 45  1  0  0  0  0
 46 44  2  0  0  0  0
 47 40  1  0  0  0  0
 48 40  1  0  0  0  0
 49 41  1  0  0  0  0
 52 42  1  0  0  0  0
M  END
$$$$
