EKQ.pdb
 OpenBabel07022418193D

 56 55  0  0  1  0  0  0  0  0999 V2000
    4.3910   -2.9140    0.7560 N   0  0  0  0  0  0  0  0  0  0  0  0
    3.5330   -2.5500    1.8240 C   0  0  1  0  0  0  0  0  0  0  0  0
    4.0740   -1.6520    2.8750 C   0  0  0  0  0  0  0  0  0  0  0  0
    4.5400   -0.3140    2.4370 C   0  0  0  0  0  0  0  0  0  0  0  0
    5.6690   -0.2900    1.5130 C   0  0  0  0  0  0  0  0  0  0  0  0
    6.3110   -1.3060    1.1700 O   0  0  0  0  0  0  0  0  0  0  0  0
    2.2070   -2.0420    1.2930 C   0  0  0  0  0  0  0  0  0  0  0  0
    2.0740   -1.9880    0.0500 O   0  0  0  0  0  0  0  0  0  0  0  0
    6.1150    0.9270    0.9340 O   0  0  0  0  0  0  0  0  0  0  0  0
    4.0010   -2.4820   -0.1300 H   0  0  0  0  0  0  0  0  0  0  0  0
    4.3300   -3.9420    0.5930 H   0  0  0  0  0  0  0  0  0  0  0  0
    3.2160   -3.4980    2.3700 H   0  0  0  0  0  0  0  0  0  0  0  0
    4.9550   -2.1270    3.4150 H   0  0  0  0  0  0  0  0  0  0  0  0
    3.3200   -1.5550    3.7160 H   0  0  0  0  0  0  0  0  0  0  0  0
    4.8060    0.2970    3.3390 H   0  0  0  0  0  0  0  0  0  0  0  0
    3.6620    0.2380    1.9900 H   0  0  0  0  0  0  0  0  0  0  0  0
    6.4520    0.9280   -0.0170 H   0  0  0  0  0  0  0  0  0  0  0  0
    1.1670   -1.6480    2.1350 N   0  0  0  0  0  0  0  0  0  0  0  0
   -0.0920   -1.1820    1.6790 C   0  0  1  0  0  0  0  0  0  0  0  0
   -0.2180    0.2700    1.4130 C   0  0  0  0  0  0  0  0  0  0  0  0
    0.6990    0.8150    0.3690 C   0  0  0  0  0  0  0  0  0  0  0  0
    0.4470    2.3010    0.2410 C   0  0  0  0  0  0  0  0  0  0  0  0
   -0.9610    2.6460   -0.1510 C   0  0  0  0  0  0  0  0  0  0  0  0
   -1.3650    2.0910   -1.4250 N   0  0  0  0  0  0  0  0  0  0  0  0
   -0.7220   -2.0080    0.6030 C   0  0  0  0  0  0  0  0  0  0  0  0
   -0.1650   -3.0780    0.2450 O   0  0  0  0  0  0  0  0  0  0  0  0
    1.3680   -1.7130    3.1900 H   0  0  0  0  0  0  0  0  0  0  0  0
   -0.8120   -1.4030    2.5550 H   0  0  0  0  0  0  0  0  0  0  0  0
   -0.0240    0.8930    2.3430 H   0  0  0  0  0  0  0  0  0  0  0  0
   -1.2670    0.5050    1.1600 H   0  0  0  0  0  0  0  0  0  0  0  0
    0.4750    0.3880   -0.6520 H   0  0  0  0  0  0  0  0  0  0  0  0
    1.7520    0.6790    0.6180 H   0  0  0  0  0  0  0  0  0  0  0  0
    0.6270    2.8200    1.2230 H   0  0  0  0  0  0  0  0  0  0  0  0
    1.1220    2.7180   -0.5450 H   0  0  0  0  0  0  0  0  0  0  0  0
   -0.9910    3.7740   -0.2230 H   0  0  0  0  0  0  0  0  0  0  0  0
   -1.7210    2.3980    0.6000 H   0  0  0  0  0  0  0  0  0  0  0  0
   -1.2770    2.7860   -2.2010 H   0  0  0  0  0  0  0  0  0  0  0  0
   -2.3200    1.6660   -1.3850 H   0  0  0  0  0  0  0  0  0  0  0  0
   -6.3290   -0.2390   -0.6400 N   0  0  0  0  0  0  0  0  0  0  0  0
   -5.4090   -1.2190   -1.1790 C   0  0  0  0  0  0  0  0  0  0  0  0
   -5.1720   -1.1210   -2.4020 O   0  0  0  0  0  0  0  0  0  0  0  0
   -4.8760   -2.1940   -0.2430 C   0  0  0  0  0  0  0  0  0  0  0  0
   -3.7940   -3.0980   -0.6720 C   0  0  0  0  0  0  0  0  0  0  0  0
   -2.5020   -2.5030   -1.0980 C   0  0  2  0  0  0  0  0  0  0  0  0
   -1.9180   -1.6790   -0.0610 N   0  0  0  0  0  0  0  0  0  0  0  0
   -2.5180   -1.9500   -2.4350 C   0  0  0  0  0  0  0  0  0  0  0  0
   -2.9060   -2.7190   -3.3870 O   0  0  0  0  0  0  0  0  0  0  0  0
   -2.1580   -0.6660   -2.8150 O   0  0  0  0  0  0  0  0  0  0  0  0
   -6.1500    0.7500   -0.9210 H   0  0  0  0  0  0  0  0  0  0  0  0
   -7.1000   -0.5110   -0.0250 H   0  0  0  0  0  0  0  0  0  0  0  0
   -4.6600   -1.7180    0.7680 H   0  0  0  0  0  0  0  0  0  0  0  0
   -5.7580   -2.8710    0.0260 H   0  0  0  0  0  0  0  0  0  0  0  0
   -3.6470   -3.8540    0.1580 H   0  0  0  0  0  0  0  0  0  0  0  0
   -4.1730   -3.7070   -1.5300 H   0  0  0  0  0  0  0  0  0  0  0  0
   -1.7890   -3.4130   -1.1730 H   0  0  0  0  0  0  0  0  0  0  0  0
   -2.4170   -0.8110    0.1950 H   0  0  0  0  0  0  0  0  0  0  0  0
  1  2  1  0  0  0  0
  2 12  1  1  0  0  0
  2  3  1  0  0  0  0
  3 13  1  0  0  0  0
  3 14  1  0  0  0  0
  4  3  1  0  0  0  0
  4 15  1  0  0  0  0
  5  4  1  0  0  0  0
  6  5  2  0  0  0  0
  7  2  1  0  0  0  0
  7 18  1  0  0  0  0
  8  7  2  0  0  0  0
  9  5  1  0  0  0  0
 10  1  1  0  0  0  0
 11  1  1  0  0  0  0
 16  4  1  0  0  0  0
 17  9  1  0  0  0  0
 18 27  1  0  0  0  0
 19 18  1  0  0  0  0
 19 28  1  1  0  0  0
 20 19  1  0  0  0  0
 20 29  1  0  0  0  0
 21 32  1  0  0  0  0
 21 20  1  0  0  0  0
 22 21  1  0  0  0  0
 22 33  1  0  0  0  0
 23 22  1  0  0  0  0
 23 36  1  0  0  0  0
 24 38  1  0  0  0  0
 24 23  1  0  0  0  0
 25 19  1  0  0  0  0
 26 25  2  0  0  0  0
 30 20  1  0  0  0  0
 31 21  1  0  0  0  0
 34 22  1  0  0  0  0
 35 23  1  0  0  0  0
 37 24  1  0  0  0  0
 39 50  1  0  0  0  0
 40 39  1  0  0  0  0
 40 42  1  0  0  0  0
 41 40  2  0  0  0  0
 42 52  1  0  0  0  0
 42 51  1  0  0  0  0
 43 42  1  0  0  0  0
 43 53  1  0  0  0  0
 44 55  1  6  0  0  0
 44 43  1  0  0  0  0
 44 45  1  0  0  0  0
 45 56  1  0  0  0  0
 45 25  1  0  0  0  0
 46 44  1  0  0  0  0
 47 46  2  0  0  0  0
 48 46  1  0  0  0  0
 49 39  1  0  0  0  0
 54 43  1  0  0  0  0
M  END
$$$$
