EKR.pdb
 OpenBabel07022418193D

 62 61  0  0  1  0  0  0  0  0999 V2000
    2.3490   -0.7490   -1.1320 N   0  0  0  0  0  0  0  0  0  0  0  0
    3.0380   -0.3180    0.1160 C   0  0  1  0  0  0  0  0  0  0  0  0
    3.7610    0.9160   -0.2620 C   0  0  0  0  0  0  0  0  0  0  0  0
    4.5860    1.6200    0.7370 C   0  0  0  0  0  0  0  0  0  0  0  0
    3.9590    2.1560    1.9250 C   0  0  0  0  0  0  0  0  0  0  0  0
    4.4300    1.9170    3.0720 O   0  0  0  0  0  0  0  0  0  0  0  0
    1.9820   -0.2190    1.1160 C   0  0  0  0  0  0  0  0  0  0  0  0
    2.2700   -0.0240    2.3230 O   0  0  0  0  0  0  0  0  0  0  0  0
    2.8250    2.9480    1.8410 O   0  0  0  0  0  0  0  0  0  0  0  0
    1.7520   -1.5730   -0.9770 H   0  0  0  0  0  0  0  0  0  0  0  0
    1.7520    0.0550   -1.4010 H   0  0  0  0  0  0  0  0  0  0  0  0
    3.7340   -1.1650    0.3610 H   0  0  0  0  0  0  0  0  0  0  0  0
    4.4220    0.6290   -1.1420 H   0  0  0  0  0  0  0  0  0  0  0  0
    3.0050    1.6000   -0.7570 H   0  0  0  0  0  0  0  0  0  0  0  0
    5.1540    2.4270    0.1610 H   0  0  0  0  0  0  0  0  0  0  0  0
    5.4400    0.9400    1.0640 H   0  0  0  0  0  0  0  0  0  0  0  0
    2.5110    3.5600    2.5940 H   0  0  0  0  0  0  0  0  0  0  0  0
    0.5930   -0.3290    0.8380 N   0  0  0  0  0  0  0  0  0  0  0  0
   -0.4330   -0.2290    1.8380 C   0  0  1  0  0  0  0  0  0  0  0  0
   -1.2650    1.0090    1.5410 C   0  0  0  0  0  0  0  0  0  0  0  0
   -0.3580    2.2040    1.5910 C   0  0  0  0  0  0  0  0  0  0  0  0
   -1.1360    3.4580    1.3360 C   0  0  0  0  0  0  0  0  0  0  0  0
   -1.7770    3.4070   -0.0210 C   0  0  0  0  0  0  0  0  0  0  0  0
   -0.7520    3.2500   -1.0200 N   0  0  0  0  0  0  0  0  0  0  0  0
   -1.2050   -1.4340    2.0690 C   0  0  0  0  0  0  0  0  0  0  0  0
   -2.1460   -1.4510    2.8870 O   0  0  0  0  0  0  0  0  0  0  0  0
    0.2890   -0.4880   -0.1310 H   0  0  0  0  0  0  0  0  0  0  0  0
    0.1100    0.0260    2.8080 H   0  0  0  0  0  0  0  0  0  0  0  0
   -2.0700    1.1680    2.2840 H   0  0  0  0  0  0  0  0  0  0  0  0
   -1.6420    0.9500    0.4920 H   0  0  0  0  0  0  0  0  0  0  0  0
    0.1570    2.2320    2.5780 H   0  0  0  0  0  0  0  0  0  0  0  0
    0.4280    2.1580    0.7830 H   0  0  0  0  0  0  0  0  0  0  0  0
   -0.5260    4.3770    1.4830 H   0  0  0  0  0  0  0  0  0  0  0  0
   -1.9610    3.4970    2.1100 H   0  0  0  0  0  0  0  0  0  0  0  0
   -2.5230    2.6150   -0.0540 H   0  0  0  0  0  0  0  0  0  0  0  0
   -2.2840    4.3960   -0.2550 H   0  0  0  0  0  0  0  0  0  0  0  0
   -0.7580    2.3280   -1.4880 H   0  0  0  0  0  0  0  0  0  0  0  0
   -0.6570    4.0560   -1.6600 H   0  0  0  0  0  0  0  0  0  0  0  0
   -4.4510   -2.2370   -1.8910 N   0  0  0  0  0  0  0  0  0  0  0  0
   -3.0440   -2.2380   -1.7130 C   0  0  0  0  0  0  0  0  0  0  0  0
   -2.4710   -1.3650   -0.9710 N   0  0  0  0  0  0  0  0  0  0  0  0
   -2.2460   -3.1990   -2.3470 N   0  0  0  0  0  0  0  0  0  0  0  0
   -1.1780   -3.9610   -1.7300 C   0  0  0  0  0  0  0  0  0  0  0  0
   -1.7140   -4.9170   -0.7430 C   0  0  0  0  0  0  0  0  0  0  0  0
   -2.3700   -4.4650    0.4880 C   0  0  0  0  0  0  0  0  0  0  0  0
   -1.6130   -3.8350    1.5720 C   0  0  2  0  0  0  0  0  0  0  0  0
   -0.8830   -2.6460    1.3450 N   0  0  0  0  0  0  0  0  0  0  0  0
   -0.7460   -4.8860    2.2360 C   0  0  0  0  0  0  0  0  0  0  0  0
   -1.2450   -6.0080    2.5080 O   0  0  0  0  0  0  0  0  0  0  0  0
    0.5800   -4.6490    2.5520 O   0  0  0  0  0  0  0  0  0  0  0  0
   -5.0710   -1.8970   -1.1420 H   0  0  0  0  0  0  0  0  0  0  0  0
   -4.8850   -2.5780   -2.7770 H   0  0  0  0  0  0  0  0  0  0  0  0
   -3.0450   -0.6460   -0.4930 H   0  0  0  0  0  0  0  0  0  0  0  0
   -2.4310   -3.4070   -3.3820 H   0  0  0  0  0  0  0  0  0  0  0  0
   -0.3260   -3.3450   -1.4470 H   0  0  0  0  0  0  0  0  0  0  0  0
   -0.7500   -4.6120   -2.5730 H   0  0  0  0  0  0  0  0  0  0  0  0
   -2.4930   -5.5410   -1.3100 H   0  0  0  0  0  0  0  0  0  0  0  0
   -0.9140   -5.6930   -0.5560 H   0  0  0  0  0  0  0  0  0  0  0  0
   -2.9770   -5.3280    0.9520 H   0  0  0  0  0  0  0  0  0  0  0  0
   -3.2280   -3.7530    0.2230 H   0  0  0  0  0  0  0  0  0  0  0  0
   -2.3980   -3.6230    2.3960 H   0  0  0  0  0  0  0  0  0  0  0  0
   -0.0810   -2.6310    0.6600 H   0  0  0  0  0  0  0  0  0  0  0  0
  1 10  1  0  0  0  0
  1  2  1  0  0  0  0
  2 12  1  1  0  0  0
  2  7  1  0  0  0  0
  3  2  1  0  0  0  0
  3  4  1  0  0  0  0
  4 16  1  0  0  0  0
  4  5  1  0  0  0  0
  5  6  2  0  0  0  0
  7  8  2  0  0  0  0
  9  5  1  0  0  0  0
  9 17  1  0  0  0  0
 11  1  1  0  0  0  0
 13  3  1  0  0  0  0
 14  3  1  0  0  0  0
 15  4  1  0  0  0  0
 18  7  1  0  0  0  0
 18 19  1  0  0  0  0
 19 25  1  0  0  0  0
 19 28  1  1  0  0  0
 20 21  1  0  0  0  0
 20 19  1  0  0  0  0
 20 29  1  0  0  0  0
 21 31  1  0  0  0  0
 22 33  1  0  0  0  0
 22 21  1  0  0  0  0
 22 34  1  0  0  0  0
 23 22  1  0  0  0  0
 24 23  1  0  0  0  0
 25 26  2  0  0  0  0
 27 18  1  0  0  0  0
 30 20  1  0  0  0  0
 32 21  1  0  0  0  0
 35 23  1  0  0  0  0
 36 23  1  0  0  0  0
 37 24  1  0  0  0  0
 38 24  1  0  0  0  0
 39 40  1  0  0  0  0
 39 51  1  0  0  0  0
 40 41  2  0  0  0  0
 41 53  1  0  0  0  0
 42 43  1  0  0  0  0
 42 40  1  0  0  0  0
 43 55  1  0  0  0  0
 43 44  1  0  0  0  0
 44 58  1  0  0  0  0
 44 45  1  0  0  0  0
 45 59  1  0  0  0  0
 45 46  1  0  0  0  0
 46 48  1  0  0  0  0
 46 61  1  1  0  0  0
 47 46  1  0  0  0  0
 47 25  1  0  0  0  0
 48 49  2  0  0  0  0
 48 50  1  0  0  0  0
 52 39  1  0  0  0  0
 54 42  1  0  0  0  0
 56 43  1  0  0  0  0
 57 44  1  0  0  0  0
 60 45  1  0  0  0  0
 62 47  1  0  0  0  0
M  END
$$$$
