EKW.pdb
 OpenBabel07022418193D

 63 64  0  0  1  0  0  0  0  0999 V2000
    3.0250   -0.5810    2.6790 N   0  0  0  0  0  0  0  0  0  0  0  0
    1.8610   -1.1480    3.2610 C   0  0  1  0  0  0  0  0  0  0  0  0
    1.5990   -0.8760    4.6900 C   0  0  0  0  0  0  0  0  0  0  0  0
    2.6060   -1.3190    5.6790 C   0  0  0  0  0  0  0  0  0  0  0  0
    3.9440   -0.7690    5.5940 C   0  0  0  0  0  0  0  0  0  0  0  0
    4.8390   -1.2920    6.3450 O   0  0  0  0  0  0  0  0  0  0  0  0
    0.6510   -0.7240    2.4690 C   0  0  0  0  0  0  0  0  0  0  0  0
   -0.5070   -1.0370    2.8630 O   0  0  0  0  0  0  0  0  0  0  0  0
    4.3440    0.2560    4.7920 O   0  0  0  0  0  0  0  0  0  0  0  0
    3.1720   -1.0100    1.7250 H   0  0  0  0  0  0  0  0  0  0  0  0
    2.8900    0.4500    2.4960 H   0  0  0  0  0  0  0  0  0  0  0  0
    1.9300   -2.2670    3.0610 H   0  0  0  0  0  0  0  0  0  0  0  0
    1.3130    0.2030    4.8690 H   0  0  0  0  0  0  0  0  0  0  0  0
    0.6400   -1.4230    4.9490 H   0  0  0  0  0  0  0  0  0  0  0  0
    2.6300   -2.4330    5.7520 H   0  0  0  0  0  0  0  0  0  0  0  0
    2.2000   -1.0120    6.6950 H   0  0  0  0  0  0  0  0  0  0  0  0
    5.0800    0.8880    5.1510 H   0  0  0  0  0  0  0  0  0  0  0  0
    0.7910    0.0190    1.2860 N   0  0  0  0  0  0  0  0  0  0  0  0
   -0.4560    0.4420    0.4880 C   0  0  1  0  0  0  0  0  0  0  0  0
   -0.4990    1.9050    0.6500 C   0  0  0  0  0  0  0  0  0  0  0  0
   -1.5510    2.7190    0.0830 C   0  0  0  0  0  0  0  0  0  0  0  0
   -1.7710    2.8340   -1.3670 C   0  0  0  0  0  0  0  0  0  0  0  0
   -0.5730    3.3500   -2.1320 C   0  0  0  0  0  0  0  0  0  0  0  0
   -0.9370    3.4150   -3.5340 N   0  0  0  0  0  0  0  0  0  0  0  0
   -0.2300   -0.1980   -0.7830 C   0  0  0  0  0  0  0  0  0  0  0  0
    0.9690   -0.5820   -1.0850 O   0  0  0  0  0  0  0  0  0  0  0  0
    1.6880    0.3240    0.8800 H   0  0  0  0  0  0  0  0  0  0  0  0
   -1.2860    0.0050    1.0890 H   0  0  0  0  0  0  0  0  0  0  0  0
   -0.5620    2.0630    1.7980 H   0  0  0  0  0  0  0  0  0  0  0  0
    0.5460    2.3590    0.4790 H   0  0  0  0  0  0  0  0  0  0  0  0
   -2.5450    2.3090    0.5030 H   0  0  0  0  0  0  0  0  0  0  0  0
   -1.5780    3.7720    0.5110 H   0  0  0  0  0  0  0  0  0  0  0  0
   -2.2500    2.0360   -1.8900 H   0  0  0  0  0  0  0  0  0  0  0  0
   -2.5270    3.7110   -1.4780 H   0  0  0  0  0  0  0  0  0  0  0  0
   -0.3300    4.3800   -1.8120 H   0  0  0  0  0  0  0  0  0  0  0  0
    0.3210    2.7230   -2.0460 H   0  0  0  0  0  0  0  0  0  0  0  0
   -0.4170    2.7370   -4.1260 H   0  0  0  0  0  0  0  0  0  0  0  0
   -1.9540    3.2730   -3.7110 H   0  0  0  0  0  0  0  0  0  0  0  0
   -1.1870   -0.4850   -1.7710 N   0  0  0  0  0  0  0  0  0  0  0  0
   -0.8110   -1.1730   -2.9980 C   0  0  1  0  0  0  0  0  0  0  0  0
   -1.4430   -2.5690   -2.9370 C   0  0  0  0  0  0  0  0  0  0  0  0
   -1.0130   -3.3780   -1.7930 C   0  0  0  0  0  0  0  0  0  0  0  0
    0.0210   -4.3030   -1.8240 C   0  0  0  0  0  0  0  0  0  0  0  0
    0.1600   -4.8300   -0.6000 N   0  0  0  0  0  0  0  0  0  0  0  0
   -0.7480   -4.2840    0.2370 C   0  0  0  0  0  0  0  0  0  0  0  0
   -0.9790   -4.5320    1.5760 C   0  0  0  0  0  0  0  0  0  0  0  0
   -1.9990   -3.8220    2.1620 C   0  0  0  0  0  0  0  0  0  0  0  0
   -2.7600   -2.9090    1.4690 C   0  0  0  0  0  0  0  0  0  0  0  0
   -2.5080   -2.6810    0.1380 C   0  0  0  0  0  0  0  0  0  0  0  0
   -1.4920   -3.3750   -0.4830 C   0  0  0  0  0  0  0  0  0  0  0  0
   -1.4040   -0.5130   -4.1660 C   0  0  0  0  0  0  0  0  0  0  0  0
   -1.1620   -0.9080   -5.3540 O   0  0  0  0  0  0  0  0  0  0  0  0
   -2.2510    0.5620   -4.0120 O   0  0  0  0  0  0  0  0  0  0  0  0
   -2.1710   -0.2260   -1.6500 H   0  0  0  0  0  0  0  0  0  0  0  0
    0.3000   -1.2750   -3.0690 H   0  0  0  0  0  0  0  0  0  0  0  0
   -1.1780   -3.0380   -3.9110 H   0  0  0  0  0  0  0  0  0  0  0  0
   -2.5420   -2.4210   -2.9420 H   0  0  0  0  0  0  0  0  0  0  0  0
    0.6230   -4.5670   -2.6800 H   0  0  0  0  0  0  0  0  0  0  0  0
    0.8700   -5.5680   -0.3100 H   0  0  0  0  0  0  0  0  0  0  0  0
   -0.3780   -5.2600    2.1420 H   0  0  0  0  0  0  0  0  0  0  0  0
   -2.2030   -4.0000    3.2240 H   0  0  0  0  0  0  0  0  0  0  0  0
   -3.5740   -2.3540    1.9680 H   0  0  0  0  0  0  0  0  0  0  0  0
   -3.1030   -1.9770   -0.4290 H   0  0  0  0  0  0  0  0  0  0  0  0
  1  2  1  0  0  0  0
  2 12  1  6  0  0  0
  2  3  1  0  0  0  0
  3 13  1  0  0  0  0
  3 14  1  0  0  0  0
  3  4  1  0  0  0  0
  4 15  1  0  0  0  0
  4 16  1  0  0  0  0
  5  4  1  0  0  0  0
  5  6  2  0  0  0  0
  7  8  2  0  0  0  0
  7  2  1  0  0  0  0
  9 17  1  0  0  0  0
  9  5  1  0  0  0  0
 10  1  1  0  0  0  0
 11  1  1  0  0  0  0
 18  7  1  0  0  0  0
 19 20  1  0  0  0  0
 19 28  1  1  0  0  0
 19 18  1  0  0  0  0
 20 29  1  0  0  0  0
 21 31  1  0  0  0  0
 21 32  1  0  0  0  0
 21 20  1  0  0  0  0
 22 21  1  0  0  0  0
 23 36  1  0  0  0  0
 23 35  1  0  0  0  0
 23 22  1  0  0  0  0
 24 23  1  0  0  0  0
 25 19  1  0  0  0  0
 26 25  2  0  0  0  0
 27 18  1  0  0  0  0
 30 20  1  0  0  0  0
 33 22  1  0  0  0  0
 34 22  1  0  0  0  0
 37 24  1  0  0  0  0
 38 24  1  0  0  0  0
 39 54  1  0  0  0  0
 39 25  1  0  0  0  0
 40 55  1  6  0  0  0
 40 41  1  0  0  0  0
 40 39  1  0  0  0  0
 41 42  1  0  0  0  0
 42 50  1  0  0  0  0
 43 42  2  0  0  0  0
 43 44  1  0  0  0  0
 44 59  1  0  0  0  0
 44 45  1  0  0  0  0
 45 46  1  0  0  0  0
 46 60  1  0  0  0  0
 46 47  2  0  0  0  0
 47 61  1  0  0  0  0
 48 62  1  0  0  0  0
 48 47  1  0  0  0  0
 49 48  2  0  0  0  0
 50 49  1  0  0  0  0
 50 45  2  0  0  0  0
 51 53  1  0  0  0  0
 51 40  1  0  0  0  0
 52 51  2  0  0  0  0
 56 41  1  0  0  0  0
 57 41  1  0  0  0  0
 58 43  1  0  0  0  0
 63 49  1  0  0  0  0
M  END
$$$$
