ELA.pdb
 OpenBabel07022418193D

 47 46  0  0  1  0  0  0  0  0999 V2000
   -3.9720   -1.5520    0.3050 N   0  0  0  0  0  0  0  0  0  0  0  0
   -2.6350   -1.8110    0.7960 C   0  0  1  0  0  0  0  0  0  0  0  0
   -1.8250   -2.7110   -0.0860 C   0  0  0  0  0  0  0  0  0  0  0  0
   -2.3850   -4.0730   -0.3030 C   0  0  0  0  0  0  0  0  0  0  0  0
   -3.7190   -4.1050   -0.9280 C   0  0  0  0  0  0  0  0  0  0  0  0
   -4.7470   -4.0290   -0.2420 O   0  0  0  0  0  0  0  0  0  0  0  0
   -1.8610   -0.5400    0.9450 C   0  0  0  0  0  0  0  0  0  0  0  0
   -2.4430    0.5310    0.6360 O   0  0  0  0  0  0  0  0  0  0  0  0
   -3.8760   -4.2230   -2.3060 O   0  0  0  0  0  0  0  0  0  0  0  0
   -3.9270   -0.6530   -0.2240 H   0  0  0  0  0  0  0  0  0  0  0  0
   -4.6280   -1.3730    1.1100 H   0  0  0  0  0  0  0  0  0  0  0  0
   -2.7900   -2.2900    1.8080 H   0  0  0  0  0  0  0  0  0  0  0  0
   -0.8320   -2.8340    0.4010 H   0  0  0  0  0  0  0  0  0  0  0  0
   -1.6170   -2.2720   -1.0780 H   0  0  0  0  0  0  0  0  0  0  0  0
   -1.6890   -4.5880   -1.0240 H   0  0  0  0  0  0  0  0  0  0  0  0
   -2.3400   -4.6980    0.6160 H   0  0  0  0  0  0  0  0  0  0  0  0
   -4.7330   -3.9070   -2.7830 H   0  0  0  0  0  0  0  0  0  0  0  0
    0.6410    3.4320    2.8750 C   0  0  0  0  0  0  0  0  0  0  0  0
    1.4630    2.1830    3.2150 C   0  0  0  0  0  0  0  0  0  0  0  0
    1.7170    2.2130    4.7310 C   0  0  0  0  0  0  0  0  0  0  0  0
    0.6770    0.9340    2.9620 C   0  0  0  0  0  0  0  0  0  0  0  0
    0.2260    0.7730    1.5530 C   0  0  2  0  0  0  0  0  0  0  0  0
   -0.5440   -0.4790    1.4030 N   0  0  0  0  0  0  0  0  0  0  0  0
    1.3940    0.7120    0.6490 C   0  0  0  0  0  0  0  0  0  0  0  0
    2.1900    1.6690    0.5600 O   0  0  0  0  0  0  0  0  0  0  0  0
   -0.4180    3.1170    2.7650 H   0  0  0  0  0  0  0  0  0  0  0  0
    0.9740    3.8500    1.8890 H   0  0  0  0  0  0  0  0  0  0  0  0
    0.7900    4.2210    3.6320 H   0  0  0  0  0  0  0  0  0  0  0  0
    2.4340    2.2530    2.7370 H   0  0  0  0  0  0  0  0  0  0  0  0
    2.3310    3.0640    5.0260 H   0  0  0  0  0  0  0  0  0  0  0  0
    2.1000    1.2280    5.0460 H   0  0  0  0  0  0  0  0  0  0  0  0
    0.7110    2.3290    5.2060 H   0  0  0  0  0  0  0  0  0  0  0  0
    1.3120    0.0550    3.2200 H   0  0  0  0  0  0  0  0  0  0  0  0
   -0.2040    0.9710    3.6580 H   0  0  0  0  0  0  0  0  0  0  0  0
   -0.4880    1.5870    1.2410 H   0  0  0  0  0  0  0  0  0  0  0  0
   -0.0500   -1.3550    1.6640 H   0  0  0  0  0  0  0  0  0  0  0  0
    3.6470   -1.7330   -0.7800 C   0  0  0  0  0  0  0  0  0  0  0  0
    2.8030   -0.5090   -1.0450 C   0  0  2  0  0  0  0  0  0  0  0  0
    1.6560   -0.4310   -0.1480 N   0  0  0  0  0  0  0  0  0  0  0  0
    2.2840   -0.6180   -2.4270 C   0  0  0  0  0  0  0  0  0  0  0  0
    1.0480   -0.6290   -2.6440 O   0  0  0  0  0  0  0  0  0  0  0  0
    3.1150   -0.7120   -3.5380 O   0  0  0  0  0  0  0  0  0  0  0  0
    3.7570   -1.8440    0.3020 H   0  0  0  0  0  0  0  0  0  0  0  0
    4.6550   -1.5590   -1.2260 H   0  0  0  0  0  0  0  0  0  0  0  0
    3.2380   -2.6360   -1.2890 H   0  0  0  0  0  0  0  0  0  0  0  0
    3.4060    0.4150   -0.9980 H   0  0  0  0  0  0  0  0  0  0  0  0
    0.9910   -1.2310   -0.0750 H   0  0  0  0  0  0  0  0  0  0  0  0
  1  2  1  0  0  0  0
  1 11  1  0  0  0  0
  2  7  1  0  0  0  0
  2 12  1  1  0  0  0
  3 13  1  0  0  0  0
  3  2  1  0  0  0  0
  4  3  1  0  0  0  0
  4 16  1  0  0  0  0
  5  4  1  0  0  0  0
  5  6  2  0  0  0  0
  7 23  1  0  0  0  0
  8  7  2  0  0  0  0
  9  5  1  0  0  0  0
 10  1  1  0  0  0  0
 14  3  1  0  0  0  0
 15  4  1  0  0  0  0
 17  9  1  0  0  0  0
 18 19  1  0  0  0  0
 18 28  1  0  0  0  0
 19 20  1  0  0  0  0
 20 30  1  0  0  0  0
 20 31  1  0  0  0  0
 20 32  1  0  0  0  0
 21 19  1  0  0  0  0
 21 33  1  0  0  0  0
 21 34  1  0  0  0  0
 22 35  1  6  0  0  0
 22 21  1  0  0  0  0
 23 22  1  0  0  0  0
 23 36  1  0  0  0  0
 24 22  1  0  0  0  0
 25 24  2  0  0  0  0
 26 18  1  0  0  0  0
 27 18  1  0  0  0  0
 29 19  1  0  0  0  0
 37 43  1  0  0  0  0
 38 46  1  1  0  0  0
 38 37  1  0  0  0  0
 38 39  1  0  0  0  0
 39 47  1  0  0  0  0
 39 24  1  0  0  0  0
 40 38  1  0  0  0  0
 41 40  1  0  0  0  0
 42 40  2  0  0  0  0
 44 37  1  0  0  0  0
 45 37  1  0  0  0  0
M  END
$$$$
