ELC.pdb
 OpenBabel07022418193D

 48 47  0  0  1  0  0  0  0  0999 V2000
    1.2640   -1.5960    5.4720 N   0  0  0  0  0  0  0  0  0  0  0  0
    1.7150   -1.7980    4.0720 C   0  0  1  0  0  0  0  0  0  0  0  0
    1.5510   -3.2750    3.8360 C   0  0  0  0  0  0  0  0  0  0  0  0
    1.9350   -3.7700    2.4920 C   0  0  0  0  0  0  0  0  0  0  0  0
    3.3440   -3.5460    2.1230 C   0  0  0  0  0  0  0  0  0  0  0  0
    4.1150   -3.0010    2.9420 O   0  0  0  0  0  0  0  0  0  0  0  0
    0.8020   -1.0440    3.1970 C   0  0  0  0  0  0  0  0  0  0  0  0
   -0.2410   -0.5590    3.7030 O   0  0  0  0  0  0  0  0  0  0  0  0
    3.8280   -3.9260    0.8960 O   0  0  0  0  0  0  0  0  0  0  0  0
    0.8300   -0.6410    5.5120 H   0  0  0  0  0  0  0  0  0  0  0  0
    0.6240   -2.3380    5.7750 H   0  0  0  0  0  0  0  0  0  0  0  0
    2.7650   -1.4650    3.9890 H   0  0  0  0  0  0  0  0  0  0  0  0
    2.1570   -3.8660    4.5840 H   0  0  0  0  0  0  0  0  0  0  0  0
    0.4810   -3.5410    4.0070 H   0  0  0  0  0  0  0  0  0  0  0  0
    1.8130   -4.9030    2.4690 H   0  0  0  0  0  0  0  0  0  0  0  0
    1.2090   -3.4540    1.6860 H   0  0  0  0  0  0  0  0  0  0  0  0
    4.7050   -3.5600    0.5500 H   0  0  0  0  0  0  0  0  0  0  0  0
    0.7910    3.4420   -0.3760 C   0  0  0  0  0  0  0  0  0  0  0  0
   -0.1300    2.2180   -0.1290 C   0  0  0  0  0  0  0  0  0  0  0  0
   -1.3720    2.7130    0.6040 C   0  0  0  0  0  0  0  0  0  0  0  0
    0.6720    1.2640    0.6540 C   0  0  0  0  0  0  0  0  0  0  0  0
   -0.0030   -0.0220    1.0290 C   0  0  2  0  0  0  0  0  0  0  0  0
    0.9860   -0.8020    1.8100 N   0  0  0  0  0  0  0  0  0  0  0  0
   -0.4990   -0.8400   -0.0630 C   0  0  0  0  0  0  0  0  0  0  0  0
    0.0780   -1.9680   -0.2880 O   0  0  0  0  0  0  0  0  0  0  0  0
    1.4290    3.2660   -1.2630 H   0  0  0  0  0  0  0  0  0  0  0  0
    0.1350    4.2910   -0.5680 H   0  0  0  0  0  0  0  0  0  0  0  0
    1.4430    3.6060    0.4850 H   0  0  0  0  0  0  0  0  0  0  0  0
   -0.4410    1.9200   -1.1300 H   0  0  0  0  0  0  0  0  0  0  0  0
   -1.8610    1.8310    1.0440 H   0  0  0  0  0  0  0  0  0  0  0  0
   -2.0540    3.1160   -0.1720 H   0  0  0  0  0  0  0  0  0  0  0  0
   -1.1100    3.4840    1.3590 H   0  0  0  0  0  0  0  0  0  0  0  0
    0.9310    1.7640    1.6340 H   0  0  0  0  0  0  0  0  0  0  0  0
    1.6570    1.1050    0.1670 H   0  0  0  0  0  0  0  0  0  0  0  0
   -0.8230    0.2130    1.7250 H   0  0  0  0  0  0  0  0  0  0  0  0
    1.8450   -1.1900    1.3680 H   0  0  0  0  0  0  0  0  0  0  0  0
   -1.5630   -0.5440   -0.9260 N   0  0  0  0  0  0  0  0  0  0  0  0
   -1.9850   -1.4330   -2.0010 C   0  0  1  0  0  0  0  0  0  0  0  0
   -3.4360   -1.8020   -1.7250 C   0  0  0  0  0  0  0  0  0  0  0  0
   -4.4570   -0.2930   -1.6990 S   0  0  0  0  0  0  0  0  0  0  0  0
   -1.8540   -0.7360   -3.3060 C   0  0  0  0  0  0  0  0  0  0  0  0
   -1.4310    0.4450   -3.3290 O   0  0  0  0  0  0  0  0  0  0  0  0
   -2.1790   -1.3330   -4.5110 O   0  0  0  0  0  0  0  0  0  0  0  0
   -2.0930    0.3290   -0.8030 H   0  0  0  0  0  0  0  0  0  0  0  0
   -1.3770   -2.3520   -2.0320 H   0  0  0  0  0  0  0  0  0  0  0  0
   -3.4850   -2.2380   -0.7090 H   0  0  0  0  0  0  0  0  0  0  0  0
   -3.7570   -2.4990   -2.5100 H   0  0  0  0  0  0  0  0  0  0  0  0
   -4.5660    0.2600   -2.9980 H   0  0  0  0  0  0  0  0  0  0  0  0
  1 10  1  0  0  0  0
  1 11  1  0  0  0  0
  2 12  1  6  0  0  0
  2  1  1  0  0  0  0
  3 14  1  0  0  0  0
  3  2  1  0  0  0  0
  3 13  1  0  0  0  0
  4  3  1  0  0  0  0
  5  4  1  0  0  0  0
  5  6  2  0  0  0  0
  7  8  2  0  0  0  0
  7  2  1  0  0  0  0
  9  5  1  0  0  0  0
 15  4  1  0  0  0  0
 16  4  1  0  0  0  0
 17  9  1  0  0  0  0
 18 19  1  0  0  0  0
 18 28  1  0  0  0  0
 19 20  1  0  0  0  0
 19 21  1  0  0  0  0
 20 30  1  0  0  0  0
 20 32  1  0  0  0  0
 21 22  1  0  0  0  0
 21 33  1  0  0  0  0
 22 35  1  1  0  0  0
 22 23  1  0  0  0  0
 23  7  1  0  0  0  0
 24 22  1  0  0  0  0
 25 24  2  0  0  0  0
 26 18  1  0  0  0  0
 27 18  1  0  0  0  0
 29 19  1  0  0  0  0
 31 20  1  0  0  0  0
 34 21  1  0  0  0  0
 36 23  1  0  0  0  0
 37 44  1  0  0  0  0
 37 24  1  0  0  0  0
 38 45  1  1  0  0  0
 38 39  1  0  0  0  0
 38 37  1  0  0  0  0
 39 40  1  0  0  0  0
 39 46  1  0  0  0  0
 41 38  1  0  0  0  0
 42 41  1  0  0  0  0
 43 41  2  0  0  0  0
 47 39  1  0  0  0  0
 48 40  1  0  0  0  0
M  END
$$$$
