ELD.pdb
 OpenBabel07022418193D

 50 49  0  0  1  0  0  0  0  0999 V2000
    3.2740   -2.9040    3.2740 N   0  0  0  0  0  0  0  0  0  0  0  0
    3.0180   -2.4310    1.8280 C   0  0  1  0  0  0  0  0  0  0  0  0
    3.0380   -3.7230    1.0760 C   0  0  0  0  0  0  0  0  0  0  0  0
    2.9240   -3.7210   -0.3830 C   0  0  0  0  0  0  0  0  0  0  0  0
    1.7400   -3.1380   -1.0140 C   0  0  0  0  0  0  0  0  0  0  0  0
    1.8820   -2.2420   -1.9050 O   0  0  0  0  0  0  0  0  0  0  0  0
    1.6750   -1.8420    1.8810 C   0  0  0  0  0  0  0  0  0  0  0  0
    0.8790   -2.2400    2.7940 O   0  0  0  0  0  0  0  0  0  0  0  0
    0.4640   -3.5550   -0.6480 O   0  0  0  0  0  0  0  0  0  0  0  0
    4.1120   -3.5410    3.2170 H   0  0  0  0  0  0  0  0  0  0  0  0
    3.5210   -2.0230    3.7960 H   0  0  0  0  0  0  0  0  0  0  0  0
    3.8280   -1.7440    1.6240 H   0  0  0  0  0  0  0  0  0  0  0  0
    3.9490   -4.3350    1.4020 H   0  0  0  0  0  0  0  0  0  0  0  0
    2.1970   -4.4080    1.4570 H   0  0  0  0  0  0  0  0  0  0  0  0
    3.8480   -3.2540   -0.8750 H   0  0  0  0  0  0  0  0  0  0  0  0
    2.9310   -4.8140   -0.7370 H   0  0  0  0  0  0  0  0  0  0  0  0
   -0.3150   -3.5360   -1.3200 H   0  0  0  0  0  0  0  0  0  0  0  0
    0.9790    2.7650    3.2350 C   0  0  0  0  0  0  0  0  0  0  0  0
    0.8100    1.2730    2.9310 C   0  0  0  0  0  0  0  0  0  0  0  0
   -0.1460    0.7680    4.0010 C   0  0  0  0  0  0  0  0  0  0  0  0
    0.1280    1.1870    1.6160 C   0  0  0  0  0  0  0  0  0  0  0  0
   -0.1110   -0.2610    1.1310 C   0  0  2  0  0  0  0  0  0  0  0  0
    1.2010   -0.8650    1.0180 N   0  0  0  0  0  0  0  0  0  0  0  0
   -0.9420   -0.2480   -0.0740 C   0  0  0  0  0  0  0  0  0  0  0  0
   -0.4910   -0.6750   -1.1420 O   0  0  0  0  0  0  0  0  0  0  0  0
    0.3260    3.1020    4.0450 H   0  0  0  0  0  0  0  0  0  0  0  0
    0.8230    3.3790    2.3110 H   0  0  0  0  0  0  0  0  0  0  0  0
    2.0340    2.9700    3.5430 H   0  0  0  0  0  0  0  0  0  0  0  0
    1.7960    0.8190    2.9800 H   0  0  0  0  0  0  0  0  0  0  0  0
   -1.1880    0.7430    3.6280 H   0  0  0  0  0  0  0  0  0  0  0  0
   -0.1790    1.4680    4.8900 H   0  0  0  0  0  0  0  0  0  0  0  0
    0.1720   -0.2110    4.4050 H   0  0  0  0  0  0  0  0  0  0  0  0
   -0.8050    1.7500    1.6360 H   0  0  0  0  0  0  0  0  0  0  0  0
    0.8200    1.6260    0.8370 H   0  0  0  0  0  0  0  0  0  0  0  0
   -0.6430   -0.7630    1.9560 H   0  0  0  0  0  0  0  0  0  0  0  0
    1.8100   -0.5380    0.2440 H   0  0  0  0  0  0  0  0  0  0  0  0
   -2.2700    0.2430   -0.0680 N   0  0  0  0  0  0  0  0  0  0  0  0
   -3.2180    0.3770   -1.0840 C   0  0  1  0  0  0  0  0  0  0  0  0
   -2.9130   -0.1400   -2.4680 C   0  0  0  0  0  0  0  0  0  0  0  0
   -1.7970    0.5780   -3.1230 C   0  0  0  0  0  0  0  0  0  0  0  0
   -1.4050    1.6460   -2.5910 O   0  0  0  0  0  0  0  0  0  0  0  0
   -4.6210    0.1380   -0.7750 C   0  0  0  0  0  0  0  0  0  0  0  0
   -5.5050    0.2610   -1.6890 O   0  0  0  0  0  0  0  0  0  0  0  0
   -1.1610    0.1610   -4.2720 O   0  0  0  0  0  0  0  0  0  0  0  0
   -5.1260   -0.2260    0.4700 O   0  0  0  0  0  0  0  0  0  0  0  0
   -2.6280    0.5830    0.9070 H   0  0  0  0  0  0  0  0  0  0  0  0
   -3.1590    1.5410   -1.3340 H   0  0  0  0  0  0  0  0  0  0  0  0
   -3.8270    0.1240   -3.0840 H   0  0  0  0  0  0  0  0  0  0  0  0
   -2.8440   -1.2250   -2.5340 H   0  0  0  0  0  0  0  0  0  0  0  0
   -0.7760    0.9160   -4.8580 H   0  0  0  0  0  0  0  0  0  0  0  0
  1 11  1  0  0  0  0
  2 12  1  6  0  0  0
  2  7  1  0  0  0  0
  2  1  1  0  0  0  0
  3 13  1  0  0  0  0
  3 14  1  0  0  0  0
  3  2  1  0  0  0  0
  4  3  1  0  0  0  0
  5  9  1  0  0  0  0
  5  4  1  0  0  0  0
  6  5  2  0  0  0  0
  7  8  2  0  0  0  0
 10  1  1  0  0  0  0
 15  4  1  0  0  0  0
 16  4  1  0  0  0  0
 17  9  1  0  0  0  0
 18 28  1  0  0  0  0
 18 26  1  0  0  0  0
 19 29  1  0  0  0  0
 19 18  1  0  0  0  0
 19 20  1  0  0  0  0
 20 32  1  0  0  0  0
 20 31  1  0  0  0  0
 21 33  1  0  0  0  0
 21 19  1  0  0  0  0
 22 21  1  0  0  0  0
 22 35  1  1  0  0  0
 23 22  1  0  0  0  0
 23  7  1  0  0  0  0
 24 37  1  0  0  0  0
 24 22  1  0  0  0  0
 25 24  2  0  0  0  0
 27 18  1  0  0  0  0
 30 20  1  0  0  0  0
 34 21  1  0  0  0  0
 36 23  1  0  0  0  0
 37 46  1  0  0  0  0
 38 47  1  6  0  0  0
 38 42  1  0  0  0  0
 38 37  1  0  0  0  0
 39 38  1  0  0  0  0
 40 41  2  0  0  0  0
 40 39  1  0  0  0  0
 42 45  1  0  0  0  0
 43 42  2  0  0  0  0
 44 40  1  0  0  0  0
 48 39  1  0  0  0  0
 49 39  1  0  0  0  0
 50 44  1  0  0  0  0
M  END
$$$$
