ELE.pdb
 OpenBabel07022418193D

 53 52  0  0  1  0  0  0  0  0999 V2000
    2.2370   -0.4660   -2.1110 N   0  0  0  0  0  0  0  0  0  0  0  0
    2.9770   -0.5000   -0.8910 C   0  0  1  0  0  0  0  0  0  0  0  0
    4.0650    0.5270   -0.7750 C   0  0  0  0  0  0  0  0  0  0  0  0
    3.5640    1.9410   -0.8660 C   0  0  0  0  0  0  0  0  0  0  0  0
    4.7090    2.8800   -0.7390 C   0  0  0  0  0  0  0  0  0  0  0  0
    5.9010    2.4870   -0.5830 O   0  0  0  0  0  0  0  0  0  0  0  0
    2.1020   -0.5340    0.3170 C   0  0  0  0  0  0  0  0  0  0  0  0
    2.5900   -0.5460    1.4780 O   0  0  0  0  0  0  0  0  0  0  0  0
    4.5000    4.2500   -0.7910 O   0  0  0  0  0  0  0  0  0  0  0  0
    2.9360   -0.2810   -2.8820 H   0  0  0  0  0  0  0  0  0  0  0  0
    1.4400    0.1770   -2.1310 H   0  0  0  0  0  0  0  0  0  0  0  0
    3.5070   -1.5010   -0.8810 H   0  0  0  0  0  0  0  0  0  0  0  0
    4.4870    0.4150    0.2660 H   0  0  0  0  0  0  0  0  0  0  0  0
    4.8990    0.3680   -1.4590 H   0  0  0  0  0  0  0  0  0  0  0  0
    3.1850    2.0740   -1.9230 H   0  0  0  0  0  0  0  0  0  0  0  0
    2.8280    2.2080   -0.1080 H   0  0  0  0  0  0  0  0  0  0  0  0
    5.2690    4.9280   -0.7700 H   0  0  0  0  0  0  0  0  0  0  0  0
   -2.7470    1.8820    2.8080 C   0  0  0  0  0  0  0  0  0  0  0  0
   -1.8920    0.6140    2.7310 C   0  0  0  0  0  0  0  0  0  0  0  0
   -1.1170    0.5470    4.0150 C   0  0  0  0  0  0  0  0  0  0  0  0
   -1.0200    0.6250    1.5170 C   0  0  0  0  0  0  0  0  0  0  0  0
   -0.1740   -0.5870    1.4440 C   0  0  2  0  0  0  0  0  0  0  0  0
    0.6870   -0.5540    0.2410 N   0  0  0  0  0  0  0  0  0  0  0  0
   -0.9400   -1.8290    1.4800 C   0  0  0  0  0  0  0  0  0  0  0  0
   -1.6780   -2.1660    2.4270 O   0  0  0  0  0  0  0  0  0  0  0  0
   -3.2450    2.1170    1.8680 H   0  0  0  0  0  0  0  0  0  0  0  0
   -3.4790    1.7290    3.6270 H   0  0  0  0  0  0  0  0  0  0  0  0
   -2.0880    2.7220    3.1250 H   0  0  0  0  0  0  0  0  0  0  0  0
   -2.6480   -0.2110    2.7490 H   0  0  0  0  0  0  0  0  0  0  0  0
   -0.6330    1.5450    4.2020 H   0  0  0  0  0  0  0  0  0  0  0  0
   -1.8810    0.4340    4.8370 H   0  0  0  0  0  0  0  0  0  0  0  0
   -0.4010   -0.2780    4.0820 H   0  0  0  0  0  0  0  0  0  0  0  0
   -1.5890    0.8360    0.5830 H   0  0  0  0  0  0  0  0  0  0  0  0
   -0.3240    1.5090    1.6480 H   0  0  0  0  0  0  0  0  0  0  0  0
    0.5430   -0.5670    2.3010 H   0  0  0  0  0  0  0  0  0  0  0  0
    0.2100   -0.5460   -0.6790 H   0  0  0  0  0  0  0  0  0  0  0  0
   -0.8990   -2.7890    0.3910 N   0  0  0  0  0  0  0  0  0  0  0  0
   -1.6270   -4.0080    0.3910 C   0  0  1  0  0  0  0  0  0  0  0  0
   -2.7090   -4.2110   -0.5940 C   0  0  0  0  0  0  0  0  0  0  0  0
   -3.8320   -3.2570   -0.5250 C   0  0  0  0  0  0  0  0  0  0  0  0
   -3.5630   -1.8480   -0.8110 C   0  0  0  0  0  0  0  0  0  0  0  0
   -2.4910   -1.3680   -1.2510 O   0  0  0  0  0  0  0  0  0  0  0  0
   -0.6940   -5.1970    0.4170 C   0  0  0  0  0  0  0  0  0  0  0  0
   -1.1550   -6.3650    0.4200 O   0  0  0  0  0  0  0  0  0  0  0  0
   -4.5770   -0.8840   -0.5890 O   0  0  0  0  0  0  0  0  0  0  0  0
    0.6840   -5.0470    0.4390 O   0  0  0  0  0  0  0  0  0  0  0  0
   -0.2790   -2.5670   -0.4260 H   0  0  0  0  0  0  0  0  0  0  0  0
   -2.1390   -4.0610    1.4130 H   0  0  0  0  0  0  0  0  0  0  0  0
   -3.0940   -5.2680   -0.4250 H   0  0  0  0  0  0  0  0  0  0  0  0
   -2.3430   -4.2500   -1.6530 H   0  0  0  0  0  0  0  0  0  0  0  0
   -4.2550   -3.3190    0.5150 H   0  0  0  0  0  0  0  0  0  0  0  0
   -4.6120   -3.5840   -1.2640 H   0  0  0  0  0  0  0  0  0  0  0  0
   -4.5880   -0.0500   -1.1350 H   0  0  0  0  0  0  0  0  0  0  0  0
  1  2  1  0  0  0  0
  2 12  1  6  0  0  0
  2  3  1  0  0  0  0
  2  7  1  0  0  0  0
  3 13  1  0  0  0  0
  4  3  1  0  0  0  0
  4  5  1  0  0  0  0
  4 16  1  0  0  0  0
  5  6  2  0  0  0  0
  7  8  2  0  0  0  0
  9 17  1  0  0  0  0
  9  5  1  0  0  0  0
 10  1  1  0  0  0  0
 11  1  1  0  0  0  0
 14  3  1  0  0  0  0
 15  4  1  0  0  0  0
 18 28  1  0  0  0  0
 18 27  1  0  0  0  0
 19 29  1  0  0  0  0
 19 18  1  0  0  0  0
 19 20  1  0  0  0  0
 20 32  1  0  0  0  0
 20 30  1  0  0  0  0
 20 31  1  0  0  0  0
 21 34  1  0  0  0  0
 21 19  1  0  0  0  0
 22 24  1  0  0  0  0
 22 21  1  0  0  0  0
 22 35  1  1  0  0  0
 23  7  1  0  0  0  0
 23 22  1  0  0  0  0
 24 25  2  0  0  0  0
 26 18  1  0  0  0  0
 33 21  1  0  0  0  0
 36 23  1  0  0  0  0
 37 24  1  0  0  0  0
 38 37  1  0  0  0  0
 38 43  1  0  0  0  0
 38 48  1  1  0  0  0
 39 40  1  0  0  0  0
 39 49  1  0  0  0  0
 39 38  1  0  0  0  0
 40 51  1  0  0  0  0
 41 45  1  0  0  0  0
 41 40  1  0  0  0  0
 42 41  2  0  0  0  0
 43 44  2  0  0  0  0
 43 46  1  0  0  0  0
 47 37  1  0  0  0  0
 50 39  1  0  0  0  0
 52 40  1  0  0  0  0
 53 45  1  0  0  0  0
M  END
$$$$
