ELF.pdb
 OpenBabel07022418193D

 57 57  0  0  1  0  0  0  0  0999 V2000
   -1.7450    0.6180    3.8200 N   0  0  0  0  0  0  0  0  0  0  0  0
   -0.4970    1.2650    3.7310 C   0  0  1  0  0  0  0  0  0  0  0  0
    0.4400    1.1830    4.8690 C   0  0  0  0  0  0  0  0  0  0  0  0
    0.9190   -0.1330    5.3230 C   0  0  0  0  0  0  0  0  0  0  0  0
   -0.0580   -1.0760    5.8450 C   0  0  0  0  0  0  0  0  0  0  0  0
   -1.2490   -0.7570    6.0110 O   0  0  0  0  0  0  0  0  0  0  0  0
    0.1970    1.0510    2.4010 C   0  0  0  0  0  0  0  0  0  0  0  0
    1.3740    1.4770    2.2570 O   0  0  0  0  0  0  0  0  0  0  0  0
    0.2740   -2.3910    6.1910 O   0  0  0  0  0  0  0  0  0  0  0  0
   -1.8610   -0.3140    3.4360 H   0  0  0  0  0  0  0  0  0  0  0  0
   -2.5780    1.1970    3.9450 H   0  0  0  0  0  0  0  0  0  0  0  0
   -0.7600    2.3880    3.6770 H   0  0  0  0  0  0  0  0  0  0  0  0
    1.3560    1.7830    4.5840 H   0  0  0  0  0  0  0  0  0  0  0  0
   -0.0470    1.6930    5.7330 H   0  0  0  0  0  0  0  0  0  0  0  0
    1.6290    0.0770    6.1860 H   0  0  0  0  0  0  0  0  0  0  0  0
    1.6220   -0.6160    4.5760 H   0  0  0  0  0  0  0  0  0  0  0  0
   -0.4680   -3.0890    6.2750 H   0  0  0  0  0  0  0  0  0  0  0  0
   -0.5050    2.4920   -1.4850 C   0  0  0  0  0  0  0  0  0  0  0  0
    0.5770    2.5080   -0.3880 C   0  0  0  0  0  0  0  0  0  0  0  0
    1.6110    3.5670   -0.7220 C   0  0  0  0  0  0  0  0  0  0  0  0
    1.1810    1.1330   -0.3540 C   0  0  0  0  0  0  0  0  0  0  0  0
    0.1000    0.1380    0.0080 C   0  0  2  0  0  0  0  0  0  0  0  0
   -0.4270    0.3940    1.3230 N   0  0  0  0  0  0  0  0  0  0  0  0
    0.4370   -1.2600   -0.2560 C   0  0  0  0  0  0  0  0  0  0  0  0
    0.2510   -2.1080    0.6660 O   0  0  0  0  0  0  0  0  0  0  0  0
   -0.5500    3.4870   -1.9830 H   0  0  0  0  0  0  0  0  0  0  0  0
   -1.5100    2.3160   -1.0700 H   0  0  0  0  0  0  0  0  0  0  0  0
   -0.2720    1.6990   -2.2120 H   0  0  0  0  0  0  0  0  0  0  0  0
    0.0560    2.8070    0.5170 H   0  0  0  0  0  0  0  0  0  0  0  0
    1.1930    4.5380   -0.3760 H   0  0  0  0  0  0  0  0  0  0  0  0
    2.5100    3.3670   -0.1280 H   0  0  0  0  0  0  0  0  0  0  0  0
    1.7770    3.6600   -1.7980 H   0  0  0  0  0  0  0  0  0  0  0  0
    1.4620    0.9320   -1.4500 H   0  0  0  0  0  0  0  0  0  0  0  0
    2.1150    1.0300    0.1890 H   0  0  0  0  0  0  0  0  0  0  0  0
   -0.7560    0.5090   -0.6830 H   0  0  0  0  0  0  0  0  0  0  0  0
   -1.4290    0.0640    1.5590 H   0  0  0  0  0  0  0  0  0  0  0  0
    0.9600   -1.7500   -1.4720 N   0  0  0  0  0  0  0  0  0  0  0  0
    1.2920   -3.1130   -1.7410 C   0  0  1  0  0  0  0  0  0  0  0  0
    0.4150   -3.7020   -2.8480 C   0  0  0  0  0  0  0  0  0  0  0  0
   -1.0150   -3.6580   -2.4720 C   0  0  0  0  0  0  0  0  0  0  0  0
   -1.8040   -2.5600   -2.7820 C   0  0  0  0  0  0  0  0  0  0  0  0
   -3.1290   -2.4820   -2.4540 C   0  0  0  0  0  0  0  0  0  0  0  0
   -3.7220   -3.5460   -1.7780 C   0  0  0  0  0  0  0  0  0  0  0  0
   -2.9480   -4.6460   -1.4620 C   0  0  0  0  0  0  0  0  0  0  0  0
   -1.5950   -4.7140   -1.8030 C   0  0  0  0  0  0  0  0  0  0  0  0
    2.7250   -3.3160   -2.0580 C   0  0  0  0  0  0  0  0  0  0  0  0
    3.5280   -2.3440   -2.0740 O   0  0  0  0  0  0  0  0  0  0  0  0
    3.2620   -4.5600   -2.3510 O   0  0  0  0  0  0  0  0  0  0  0  0
    1.1100   -1.0240   -2.2350 H   0  0  0  0  0  0  0  0  0  0  0  0
    1.0720   -3.7070   -0.8300 H   0  0  0  0  0  0  0  0  0  0  0  0
    0.6050   -3.1620   -3.8100 H   0  0  0  0  0  0  0  0  0  0  0  0
    0.6920   -4.7660   -2.9850 H   0  0  0  0  0  0  0  0  0  0  0  0
   -1.3530   -1.7340   -3.3040 H   0  0  0  0  0  0  0  0  0  0  0  0
   -3.6860   -1.5890   -2.7290 H   0  0  0  0  0  0  0  0  0  0  0  0
   -4.7630   -3.4440   -1.5390 H   0  0  0  0  0  0  0  0  0  0  0  0
   -3.4440   -5.4510   -0.9380 H   0  0  0  0  0  0  0  0  0  0  0  0
   -1.0540   -5.6060   -1.5230 H   0  0  0  0  0  0  0  0  0  0  0  0
  1 11  1  0  0  0  0
  2 12  1  6  0  0  0
  2  1  1  0  0  0  0
  2  3  1  0  0  0  0
  3  4  1  0  0  0  0
  3 14  1  0  0  0  0
  4  5  1  0  0  0  0
  4 15  1  0  0  0  0
  5  6  2  0  0  0  0
  5  9  1  0  0  0  0
  7  2  1  0  0  0  0
  8  7  2  0  0  0  0
  9 17  1  0  0  0  0
 10  1  1  0  0  0  0
 13  3  1  0  0  0  0
 16  4  1  0  0  0  0
 18 27  1  0  0  0  0
 18 19  1  0  0  0  0
 19 21  1  0  0  0  0
 19 29  1  0  0  0  0
 20 19  1  0  0  0  0
 20 30  1  0  0  0  0
 20 31  1  0  0  0  0
 21 22  1  0  0  0  0
 21 34  1  0  0  0  0
 22 35  1  6  0  0  0
 22 23  1  0  0  0  0
 23 36  1  0  0  0  0
 23  7  1  0  0  0  0
 24 22  1  0  0  0  0
 24 25  2  0  0  0  0
 26 18  1  0  0  0  0
 28 18  1  0  0  0  0
 32 20  1  0  0  0  0
 33 21  1  0  0  0  0
 37 24  1  0  0  0  0
 38 37  1  0  0  0  0
 38 50  1  1  0  0  0
 39 40  1  0  0  0  0
 39 38  1  0  0  0  0
 40 45  1  0  0  0  0
 41 40  2  0  0  0  0
 41 42  1  0  0  0  0
 42 43  2  0  0  0  0
 43 55  1  0  0  0  0
 43 44  1  0  0  0  0
 44 56  1  0  0  0  0
 45 57  1  0  0  0  0
 45 44  2  0  0  0  0
 46 38  1  0  0  0  0
 47 46  1  0  0  0  0
 48 46  2  0  0  0  0
 49 37  1  0  0  0  0
 51 39  1  0  0  0  0
 52 39  1  0  0  0  0
 53 41  1  0  0  0  0
 54 42  1  0  0  0  0
M  END
$$$$
