ELG.pdb
 OpenBabel07022418193D

 44 43  0  0  1  0  0  0  0  0999 V2000
    1.5170   -3.2990    3.2830 N   0  0  0  0  0  0  0  0  0  0  0  0
    1.5050   -2.4550    2.1050 C   0  0  1  0  0  0  0  0  0  0  0  0
    0.7900   -3.1850    0.9860 C   0  0  0  0  0  0  0  0  0  0  0  0
    1.4690   -4.4810    0.6380 C   0  0  0  0  0  0  0  0  0  0  0  0
    2.8520   -4.3110    0.1930 C   0  0  0  0  0  0  0  0  0  0  0  0
    3.7690   -4.1080    1.0250 O   0  0  0  0  0  0  0  0  0  0  0  0
    0.7560   -1.1940    2.4320 C   0  0  0  0  0  0  0  0  0  0  0  0
    0.2680   -1.0330    3.6040 O   0  0  0  0  0  0  0  0  0  0  0  0
    3.1910   -4.3660   -1.1470 O   0  0  0  0  0  0  0  0  0  0  0  0
    0.6040   -3.8020    3.4140 H   0  0  0  0  0  0  0  0  0  0  0  0
    1.8630   -2.8190    4.1230 H   0  0  0  0  0  0  0  0  0  0  0  0
    2.5470   -2.2020    1.8330 H   0  0  0  0  0  0  0  0  0  0  0  0
   -0.2530   -3.4140    1.2830 H   0  0  0  0  0  0  0  0  0  0  0  0
    0.7260   -2.4990    0.1170 H   0  0  0  0  0  0  0  0  0  0  0  0
    1.3760   -5.2000    1.4770 H   0  0  0  0  0  0  0  0  0  0  0  0
    0.8460   -4.9360   -0.1880 H   0  0  0  0  0  0  0  0  0  0  0  0
    4.0870   -4.0470   -1.4560 H   0  0  0  0  0  0  0  0  0  0  0  0
    0.3390    2.7520   -0.9120 C   0  0  0  0  0  0  0  0  0  0  0  0
    1.2590    2.6090    0.2450 C   0  0  0  0  0  0  0  0  0  0  0  0
    2.4220    1.7370   -0.1860 C   0  0  0  0  0  0  0  0  0  0  0  0
    0.6640    2.2470    1.5360 C   0  0  0  0  0  0  0  0  0  0  0  0
   -0.0800    0.9790    1.6810 C   0  0  2  0  0  0  0  0  0  0  0  0
    0.6130   -0.2190    1.4230 N   0  0  0  0  0  0  0  0  0  0  0  0
   -1.3960    1.0270    0.9390 C   0  0  0  0  0  0  0  0  0  0  0  0
   -2.1150    2.0550    1.0610 O   0  0  0  0  0  0  0  0  0  0  0  0
   -0.3490    3.6160   -0.8410 H   0  0  0  0  0  0  0  0  0  0  0  0
   -0.1800    1.8060   -1.1640 H   0  0  0  0  0  0  0  0  0  0  0  0
    0.9600    2.9720   -1.8320 H   0  0  0  0  0  0  0  0  0  0  0  0
    1.7230    3.6350    0.3920 H   0  0  0  0  0  0  0  0  0  0  0  0
    3.2570    2.3510   -0.6370 H   0  0  0  0  0  0  0  0  0  0  0  0
    2.1190    1.0620   -1.0400 H   0  0  0  0  0  0  0  0  0  0  0  0
    2.8820    1.1810    0.6420 H   0  0  0  0  0  0  0  0  0  0  0  0
   -0.0360    3.0820    1.8380 H   0  0  0  0  0  0  0  0  0  0  0  0
    1.4790    2.3020    2.3140 H   0  0  0  0  0  0  0  0  0  0  0  0
   -0.4350    0.9400    2.7570 H   0  0  0  0  0  0  0  0  0  0  0  0
    1.0290   -0.4100    0.4980 H   0  0  0  0  0  0  0  0  0  0  0  0
   -1.8520   -0.0130    0.1260 N   0  0  0  0  0  0  0  0  0  0  0  0
   -3.1010    0.0220   -0.5840 C   0  0  0  0  0  0  0  0  0  0  0  0
   -4.2630    0.1720    0.3530 C   0  0  0  0  0  0  0  0  0  0  0  0
   -5.4010    0.2110   -0.1880 O   0  0  0  0  0  0  0  0  0  0  0  0
   -4.0640    0.2590    1.7050 O   0  0  0  0  0  0  0  0  0  0  0  0
   -1.2610   -0.8670    0.0210 H   0  0  0  0  0  0  0  0  0  0  0  0
   -3.3000   -0.9210   -1.1410 H   0  0  0  0  0  0  0  0  0  0  0  0
   -3.1800    0.8350   -1.3180 H   0  0  0  0  0  0  0  0  0  0  0  0
  1 10  1  0  0  0  0
  1 11  1  0  0  0  0
  2 12  1  6  0  0  0
  2  7  1  0  0  0  0
  2  1  1  0  0  0  0
  3 13  1  0  0  0  0
  3  2  1  0  0  0  0
  4  3  1  0  0  0  0
  4 15  1  0  0  0  0
  5  4  1  0  0  0  0
  5  6  2  0  0  0  0
  7  8  2  0  0  0  0
  9  5  1  0  0  0  0
 14  3  1  0  0  0  0
 16  4  1  0  0  0  0
 17  9  1  0  0  0  0
 18 26  1  0  0  0  0
 18 19  1  0  0  0  0
 19 29  1  0  0  0  0
 19 21  1  0  0  0  0
 20 19  1  0  0  0  0
 20 32  1  0  0  0  0
 21 22  1  0  0  0  0
 21 33  1  0  0  0  0
 21 34  1  0  0  0  0
 22 35  1  1  0  0  0
 23 22  1  0  0  0  0
 23  7  1  0  0  0  0
 24 25  2  0  0  0  0
 24 22  1  0  0  0  0
 27 18  1  0  0  0  0
 28 18  1  0  0  0  0
 30 20  1  0  0  0  0
 31 20  1  0  0  0  0
 36 23  1  0  0  0  0
 37 24  1  0  0  0  0
 38 37  1  0  0  0  0
 38 39  1  0  0  0  0
 39 41  1  0  0  0  0
 40 39  2  0  0  0  0
 42 37  1  0  0  0  0
 43 38  1  0  0  0  0
 44 38  1  0  0  0  0
M  END
$$$$
