ELK.pdb
 OpenBabel07022418193D

 58 57  0  0  1  0  0  0  0  0999 V2000
    3.0630   -0.5800    2.3850 N   0  0  0  0  0  0  0  0  0  0  0  0
    2.2010    0.1480    3.2840 C   0  0  1  0  0  0  0  0  0  0  0  0
    2.8690    1.4100    3.8040 C   0  0  0  0  0  0  0  0  0  0  0  0
    4.1380    1.0990    4.5580 C   0  0  0  0  0  0  0  0  0  0  0  0
    4.7050    2.3920    5.0210 C   0  0  0  0  0  0  0  0  0  0  0  0
    5.7810    2.3420    5.6800 O   0  0  0  0  0  0  0  0  0  0  0  0
    0.9500    0.6040    2.6270 C   0  0  0  0  0  0  0  0  0  0  0  0
    0.1270    1.2380    3.2950 O   0  0  0  0  0  0  0  0  0  0  0  0
    4.1010    3.6110    4.7560 O   0  0  0  0  0  0  0  0  0  0  0  0
    3.3610   -0.0000    1.5900 H   0  0  0  0  0  0  0  0  0  0  0  0
    2.5970   -1.4620    2.1320 H   0  0  0  0  0  0  0  0  0  0  0  0
    1.9160   -0.4750    4.1450 H   0  0  0  0  0  0  0  0  0  0  0  0
    3.0590    2.0630    2.9340 H   0  0  0  0  0  0  0  0  0  0  0  0
    2.1180    1.9280    4.4370 H   0  0  0  0  0  0  0  0  0  0  0  0
    3.8730    0.4460    5.4140 H   0  0  0  0  0  0  0  0  0  0  0  0
    4.8170    0.5820    3.8490 H   0  0  0  0  0  0  0  0  0  0  0  0
    4.6660    4.4370    4.7740 H   0  0  0  0  0  0  0  0  0  0  0  0
   -2.3620    3.0120   -0.7560 C   0  0  0  0  0  0  0  0  0  0  0  0
   -1.2240    2.2580   -1.3820 C   0  0  0  0  0  0  0  0  0  0  0  0
   -1.7540    1.3720   -2.4710 C   0  0  0  0  0  0  0  0  0  0  0  0
   -0.2110    1.7010   -0.5100 C   0  0  0  0  0  0  0  0  0  0  0  0
   -0.5080    0.7400    0.5580 C   0  0  2  0  0  0  0  0  0  0  0  0
    0.6870    0.3340    1.2830 N   0  0  0  0  0  0  0  0  0  0  0  0
   -1.2380   -0.4840    0.1990 C   0  0  0  0  0  0  0  0  0  0  0  0
   -2.3620   -0.5460   -0.3570 O   0  0  0  0  0  0  0  0  0  0  0  0
   -2.0820    4.0590   -0.4770 H   0  0  0  0  0  0  0  0  0  0  0  0
   -3.2160    3.1190   -1.4580 H   0  0  0  0  0  0  0  0  0  0  0  0
   -2.7600    2.5550    0.1590 H   0  0  0  0  0  0  0  0  0  0  0  0
   -0.7040    3.1090   -1.9890 H   0  0  0  0  0  0  0  0  0  0  0  0
   -1.6710    1.8350   -3.4910 H   0  0  0  0  0  0  0  0  0  0  0  0
   -1.2090    0.4080   -2.5870 H   0  0  0  0  0  0  0  0  0  0  0  0
   -2.8410    1.1410   -2.3840 H   0  0  0  0  0  0  0  0  0  0  0  0
    0.5530    1.1900   -1.1860 H   0  0  0  0  0  0  0  0  0  0  0  0
    0.3180    2.5700    0.0070 H   0  0  0  0  0  0  0  0  0  0  0  0
   -1.1080    1.3060    1.3440 H   0  0  0  0  0  0  0  0  0  0  0  0
    1.4150   -0.2040    0.7620 H   0  0  0  0  0  0  0  0  0  0  0  0
   -0.6540   -1.7720    0.4920 N   0  0  0  0  0  0  0  0  0  0  0  0
   -1.3690   -3.0060    0.1420 C   0  0  1  0  0  0  0  0  0  0  0  0
   -0.4840   -3.8490   -0.7400 C   0  0  0  0  0  0  0  0  0  0  0  0
   -1.0910   -5.1310   -1.1770 C   0  0  0  0  0  0  0  0  0  0  0  0
   -2.3680   -4.8830   -1.9520 C   0  0  0  0  0  0  0  0  0  0  0  0
   -2.1270   -4.0500   -3.1810 C   0  0  0  0  0  0  0  0  0  0  0  0
   -1.2000   -4.6840   -4.0930 N   0  0  0  0  0  0  0  0  0  0  0  0
   -1.6540   -3.7520    1.3860 C   0  0  0  0  0  0  0  0  0  0  0  0
   -2.2800   -4.8200    1.4780 O   0  0  0  0  0  0  0  0  0  0  0  0
   -1.1730   -3.2110    2.5970 O   0  0  0  0  0  0  0  0  0  0  0  0
    0.2730   -1.8820    0.9500 H   0  0  0  0  0  0  0  0  0  0  0  0
   -2.3380   -2.7600   -0.3420 H   0  0  0  0  0  0  0  0  0  0  0  0
    0.4350   -4.0940   -0.1590 H   0  0  0  0  0  0  0  0  0  0  0  0
   -0.1390   -3.2090   -1.5810 H   0  0  0  0  0  0  0  0  0  0  0  0
   -1.3020   -5.7770   -0.3290 H   0  0  0  0  0  0  0  0  0  0  0  0
   -0.3400   -5.6310   -1.8500 H   0  0  0  0  0  0  0  0  0  0  0  0
   -3.0840   -4.3980   -1.2840 H   0  0  0  0  0  0  0  0  0  0  0  0
   -2.8130   -5.8640   -2.2460 H   0  0  0  0  0  0  0  0  0  0  0  0
   -1.7610   -3.0400   -2.8820 H   0  0  0  0  0  0  0  0  0  0  0  0
   -3.0940   -3.8880   -3.6920 H   0  0  0  0  0  0  0  0  0  0  0  0
   -1.3620   -4.4060   -5.0820 H   0  0  0  0  0  0  0  0  0  0  0  0
   -0.2150   -4.4280   -3.8580 H   0  0  0  0  0  0  0  0  0  0  0  0
  1  2  1  0  0  0  0
  2  3  1  0  0  0  0
  2 12  1  1  0  0  0
  3 14  1  0  0  0  0
  3  4  1  0  0  0  0
  4  5  1  0  0  0  0
  4 15  1  0  0  0  0
  5  6  2  0  0  0  0
  7  2  1  0  0  0  0
  7  8  2  0  0  0  0
  9 17  1  0  0  0  0
  9  5  1  0  0  0  0
 10  1  1  0  0  0  0
 11  1  1  0  0  0  0
 13  3  1  0  0  0  0
 16  4  1  0  0  0  0
 18 26  1  0  0  0  0
 18 28  1  0  0  0  0
 19 18  1  0  0  0  0
 19 21  1  0  0  0  0
 20 32  1  0  0  0  0
 20 19  1  0  0  0  0
 21 34  1  0  0  0  0
 21 22  1  0  0  0  0
 22 23  1  0  0  0  0
 22 35  1  1  0  0  0
 23  7  1  0  0  0  0
 24 37  1  0  0  0  0
 24 22  1  0  0  0  0
 25 24  2  0  0  0  0
 27 18  1  0  0  0  0
 29 19  1  0  0  0  0
 30 20  1  0  0  0  0
 31 20  1  0  0  0  0
 33 21  1  0  0  0  0
 36 23  1  0  0  0  0
 37 47  1  0  0  0  0
 38 48  1  6  0  0  0
 38 37  1  0  0  0  0
 38 44  1  0  0  0  0
 39 49  1  0  0  0  0
 39 38  1  0  0  0  0
 40 39  1  0  0  0  0
 40 51  1  0  0  0  0
 41 53  1  0  0  0  0
 41 40  1  0  0  0  0
 42 55  1  0  0  0  0
 42 41  1  0  0  0  0
 43 58  1  0  0  0  0
 43 42  1  0  0  0  0
 44 45  2  0  0  0  0
 44 46  1  0  0  0  0
 50 39  1  0  0  0  0
 52 40  1  0  0  0  0
 54 41  1  0  0  0  0
 56 42  1  0  0  0  0
 57 43  1  0  0  0  0
M  END
$$$$
