ELL.pdb
 OpenBabel07022418193D

 56 55  0  0  1  0  0  0  0  0999 V2000
    2.2190   -3.0330   -0.3440 N   0  0  0  0  0  0  0  0  0  0  0  0
    2.4280   -2.7420    1.0760 C   0  0  1  0  0  0  0  0  0  0  0  0
    3.8110   -2.9890    1.5080 C   0  0  0  0  0  0  0  0  0  0  0  0
    4.9240   -2.2970    0.8270 C   0  0  0  0  0  0  0  0  0  0  0  0
    4.9020   -0.8460    0.9520 C   0  0  0  0  0  0  0  0  0  0  0  0
    4.0880   -0.2640    1.6800 O   0  0  0  0  0  0  0  0  0  0  0  0
    1.6800   -1.5880    1.5310 C   0  0  0  0  0  0  0  0  0  0  0  0
    1.5760   -1.2540    2.7610 O   0  0  0  0  0  0  0  0  0  0  0  0
    5.8060   -0.0240    0.2500 O   0  0  0  0  0  0  0  0  0  0  0  0
    2.6330   -3.9700   -0.5000 H   0  0  0  0  0  0  0  0  0  0  0  0
    1.1910   -3.1210   -0.4860 H   0  0  0  0  0  0  0  0  0  0  0  0
    1.8360   -3.6570    1.5520 H   0  0  0  0  0  0  0  0  0  0  0  0
    3.8450   -2.8190    2.6380 H   0  0  0  0  0  0  0  0  0  0  0  0
    4.0160   -4.1130    1.4630 H   0  0  0  0  0  0  0  0  0  0  0  0
    5.0370   -2.6290   -0.2470 H   0  0  0  0  0  0  0  0  0  0  0  0
    5.9160   -2.6260    1.2950 H   0  0  0  0  0  0  0  0  0  0  0  0
    5.4800    0.9040   -0.0110 H   0  0  0  0  0  0  0  0  0  0  0  0
    2.2500    3.2590   -0.6400 C   0  0  0  0  0  0  0  0  0  0  0  0
    1.9940    2.0270    0.2410 C   0  0  0  0  0  0  0  0  0  0  0  0
    2.3480    2.4760    1.6490 C   0  0  0  0  0  0  0  0  0  0  0  0
    0.5710    1.5840    0.1400 C   0  0  0  0  0  0  0  0  0  0  0  0
    0.2290    0.3960    0.9510 C   0  0  2  0  0  0  0  0  0  0  0  0
    1.0010   -0.7540    0.5650 N   0  0  0  0  0  0  0  0  0  0  0  0
   -1.2390    0.1000    0.9230 C   0  0  0  0  0  0  0  0  0  0  0  0
   -2.0570    0.9980    1.2490 O   0  0  0  0  0  0  0  0  0  0  0  0
    3.0150    3.9280   -0.1700 H   0  0  0  0  0  0  0  0  0  0  0  0
    1.3240    3.8650   -0.7270 H   0  0  0  0  0  0  0  0  0  0  0  0
    2.6050    2.9880   -1.6420 H   0  0  0  0  0  0  0  0  0  0  0  0
    2.7230    1.2700   -0.0890 H   0  0  0  0  0  0  0  0  0  0  0  0
    1.5490    3.2020    1.9300 H   0  0  0  0  0  0  0  0  0  0  0  0
    3.3510    2.9370    1.7150 H   0  0  0  0  0  0  0  0  0  0  0  0
    2.3060    1.6580    2.3940 H   0  0  0  0  0  0  0  0  0  0  0  0
    0.3860    1.3580   -0.9500 H   0  0  0  0  0  0  0  0  0  0  0  0
   -0.0820    2.4300    0.4530 H   0  0  0  0  0  0  0  0  0  0  0  0
    0.4470    0.5920    2.0410 H   0  0  0  0  0  0  0  0  0  0  0  0
    1.0660   -0.9870   -0.4490 H   0  0  0  0  0  0  0  0  0  0  0  0
   -5.9780   -0.7610   -0.5190 C   0  0  0  0  0  0  0  0  0  0  0  0
   -5.1710   -1.9920   -0.9310 C   0  0  0  0  0  0  0  0  0  0  0  0
   -5.5440   -2.2570   -2.3980 C   0  0  0  0  0  0  0  0  0  0  0  0
   -3.7030   -1.7480   -0.8320 C   0  0  0  0  0  0  0  0  0  0  0  0
   -3.2130   -1.3810    0.5410 C   0  0  2  0  0  0  0  0  0  0  0  0
   -1.7740   -1.1560    0.5460 N   0  0  0  0  0  0  0  0  0  0  0  0
   -3.4920   -2.4790    1.4810 C   0  0  0  0  0  0  0  0  0  0  0  0
   -4.6430   -2.9060    1.7330 O   0  0  0  0  0  0  0  0  0  0  0  0
   -2.4410   -3.0920    2.1350 O   0  0  0  0  0  0  0  0  0  0  0  0
   -7.0020   -0.9440   -0.9110 H   0  0  0  0  0  0  0  0  0  0  0  0
   -6.0830   -0.6950    0.5810 H   0  0  0  0  0  0  0  0  0  0  0  0
   -5.6110    0.1610   -0.9730 H   0  0  0  0  0  0  0  0  0  0  0  0
   -5.5660   -2.8400   -0.3730 H   0  0  0  0  0  0  0  0  0  0  0  0
   -4.6960   -2.7970   -2.8610 H   0  0  0  0  0  0  0  0  0  0  0  0
   -5.7160   -1.2660   -2.8770 H   0  0  0  0  0  0  0  0  0  0  0  0
   -6.4310   -2.9150   -2.4400 H   0  0  0  0  0  0  0  0  0  0  0  0
   -3.4740   -0.8780   -1.5060 H   0  0  0  0  0  0  0  0  0  0  0  0
   -3.1300   -2.6130   -1.2190 H   0  0  0  0  0  0  0  0  0  0  0  0
   -3.7550   -0.4640    0.8820 H   0  0  0  0  0  0  0  0  0  0  0  0
   -1.1490   -1.9350    0.2660 H   0  0  0  0  0  0  0  0  0  0  0  0
  1  2  1  0  0  0  0
  2  3  1  0  0  0  0
  2  7  1  0  0  0  0
  2 12  1  1  0  0  0
  3 13  1  0  0  0  0
  4  5  1  0  0  0  0
  4 16  1  0  0  0  0
  4  3  1  0  0  0  0
  5  6  2  0  0  0  0
  7  8  2  0  0  0  0
  9  5  1  0  0  0  0
 10  1  1  0  0  0  0
 11  1  1  0  0  0  0
 14  3  1  0  0  0  0
 15  4  1  0  0  0  0
 17  9  1  0  0  0  0
 18 26  1  0  0  0  0
 18 19  1  0  0  0  0
 19 20  1  0  0  0  0
 20 31  1  0  0  0  0
 20 30  1  0  0  0  0
 20 32  1  0  0  0  0
 21 19  1  0  0  0  0
 21 34  1  0  0  0  0
 21 22  1  0  0  0  0
 22 35  1  1  0  0  0
 23 22  1  0  0  0  0
 23  7  1  0  0  0  0
 24 22  1  0  0  0  0
 24 25  2  0  0  0  0
 27 18  1  0  0  0  0
 28 18  1  0  0  0  0
 29 19  1  0  0  0  0
 33 21  1  0  0  0  0
 36 23  1  0  0  0  0
 37 47  1  0  0  0  0
 38 40  1  0  0  0  0
 38 37  1  0  0  0  0
 38 49  1  0  0  0  0
 39 38  1  0  0  0  0
 40 41  1  0  0  0  0
 41 42  1  0  0  0  0
 41 55  1  1  0  0  0
 41 43  1  0  0  0  0
 42 24  1  0  0  0  0
 43 44  2  0  0  0  0
 43 45  1  0  0  0  0
 46 37  1  0  0  0  0
 48 37  1  0  0  0  0
 50 39  1  0  0  0  0
 51 39  1  0  0  0  0
 52 39  1  0  0  0  0
 53 40  1  0  0  0  0
 54 40  1  0  0  0  0
 56 42  1  0  0  0  0
M  END
$$$$
