ELM.pdb
 OpenBabel07022418193D

 54 53  0  0  1  0  0  0  0  0999 V2000
   -1.0670   -2.5690    4.1410 N   0  0  0  0  0  0  0  0  0  0  0  0
    0.0840   -2.3530    3.1670 C   0  0  1  0  0  0  0  0  0  0  0  0
   -0.1250   -3.2230    2.0000 C   0  0  0  0  0  0  0  0  0  0  0  0
    0.9130   -3.3290    0.9580 C   0  0  0  0  0  0  0  0  0  0  0  0
    0.4630   -4.2530   -0.1630 C   0  0  0  0  0  0  0  0  0  0  0  0
   -0.6580   -4.8160   -0.1280 O   0  0  0  0  0  0  0  0  0  0  0  0
    0.0410   -0.9020    2.9260 C   0  0  0  0  0  0  0  0  0  0  0  0
   -0.1970   -0.1210    3.9420 O   0  0  0  0  0  0  0  0  0  0  0  0
    1.2720   -4.5020   -1.2560 O   0  0  0  0  0  0  0  0  0  0  0  0
   -0.6870   -3.1730    4.8790 H   0  0  0  0  0  0  0  0  0  0  0  0
   -1.8510   -2.9730    3.6010 H   0  0  0  0  0  0  0  0  0  0  0  0
    1.0190   -2.6110    3.6700 H   0  0  0  0  0  0  0  0  0  0  0  0
   -0.3090   -4.2830    2.4140 H   0  0  0  0  0  0  0  0  0  0  0  0
   -1.1600   -3.0310    1.5300 H   0  0  0  0  0  0  0  0  0  0  0  0
    1.7800   -3.9430    1.4000 H   0  0  0  0  0  0  0  0  0  0  0  0
    1.3280   -2.4290    0.5700 H   0  0  0  0  0  0  0  0  0  0  0  0
    0.9040   -5.0480   -2.0260 H   0  0  0  0  0  0  0  0  0  0  0  0
    2.9810    0.0290    2.2720 C   0  0  0  0  0  0  0  0  0  0  0  0
    2.6500    1.4340    1.9740 C   0  0  0  0  0  0  0  0  0  0  0  0
    3.9060    2.1090    1.4300 C   0  0  0  0  0  0  0  0  0  0  0  0
    1.4660    1.7170    1.1050 C   0  0  0  0  0  0  0  0  0  0  0  0
    0.1530    1.2340    1.6240 C   0  0  2  0  0  0  0  0  0  0  0  0
    0.2170   -0.2440    1.7370 N   0  0  0  0  0  0  0  0  0  0  0  0
   -0.9690    1.5340    0.7080 C   0  0  0  0  0  0  0  0  0  0  0  0
   -1.2080    2.7550    0.4150 O   0  0  0  0  0  0  0  0  0  0  0  0
    4.1150   -0.1320    2.2300 H   0  0  0  0  0  0  0  0  0  0  0  0
    2.7720   -0.2620    3.3470 H   0  0  0  0  0  0  0  0  0  0  0  0
    2.5680   -0.6480    1.5330 H   0  0  0  0  0  0  0  0  0  0  0  0
    2.5020    1.9460    2.9860 H   0  0  0  0  0  0  0  0  0  0  0  0
    3.7240    3.1800    1.2990 H   0  0  0  0  0  0  0  0  0  0  0  0
    4.7380    1.8960    2.1140 H   0  0  0  0  0  0  0  0  0  0  0  0
    4.1270    1.5800    0.4710 H   0  0  0  0  0  0  0  0  0  0  0  0
    1.4480    2.8110    0.8650 H   0  0  0  0  0  0  0  0  0  0  0  0
    1.6580    1.1760    0.1310 H   0  0  0  0  0  0  0  0  0  0  0  0
   -0.0490    1.6520    2.6500 H   0  0  0  0  0  0  0  0  0  0  0  0
    0.3700   -0.6810    0.8130 H   0  0  0  0  0  0  0  0  0  0  0  0
   -0.4790   -2.0100   -3.9190 C   0  0  0  0  0  0  0  0  0  0  0  0
   -0.8750   -0.2680   -4.1670 S   0  0  0  0  0  0  0  0  0  0  0  0
   -1.2950    0.5660   -2.6210 C   0  0  0  0  0  0  0  0  0  0  0  0
   -2.5740    0.0380   -2.0370 C   0  0  0  0  0  0  0  0  0  0  0  0
   -2.8810    0.7610   -0.7460 C   0  0  2  0  0  0  0  0  0  0  0  0
   -1.7740    0.5180    0.1570 N   0  0  0  0  0  0  0  0  0  0  0  0
   -4.1090    0.1950   -0.1540 C   0  0  0  0  0  0  0  0  0  0  0  0
   -4.0460   -0.3770    0.9590 O   0  0  0  0  0  0  0  0  0  0  0  0
   -5.3430    0.2730   -0.7870 O   0  0  0  0  0  0  0  0  0  0  0  0
    0.6100   -2.2080   -4.0550 H   0  0  0  0  0  0  0  0  0  0  0  0
   -0.7730   -2.3720   -2.9120 H   0  0  0  0  0  0  0  0  0  0  0  0
   -1.0070   -2.5970   -4.6990 H   0  0  0  0  0  0  0  0  0  0  0  0
   -1.3740    1.6550   -2.8550 H   0  0  0  0  0  0  0  0  0  0  0  0
   -0.4270    0.4580   -1.9460 H   0  0  0  0  0  0  0  0  0  0  0  0
   -2.5150   -1.0420   -1.9190 H   0  0  0  0  0  0  0  0  0  0  0  0
   -3.3840    0.2580   -2.7660 H   0  0  0  0  0  0  0  0  0  0  0  0
   -2.9490    1.8570   -0.9010 H   0  0  0  0  0  0  0  0  0  0  0  0
   -1.5770   -0.4700    0.4050 H   0  0  0  0  0  0  0  0  0  0  0  0
  1 10  1  0  0  0  0
  2 12  1  1  0  0  0
  2  1  1  0  0  0  0
  3 13  1  0  0  0  0
  3  2  1  0  0  0  0
  4 15  1  0  0  0  0
  4  3  1  0  0  0  0
  5  6  2  0  0  0  0
  5  4  1  0  0  0  0
  7  2  1  0  0  0  0
  7  8  2  0  0  0  0
  9  5  1  0  0  0  0
 11  1  1  0  0  0  0
 14  3  1  0  0  0  0
 16  4  1  0  0  0  0
 17  9  1  0  0  0  0
 18 27  1  0  0  0  0
 19 18  1  0  0  0  0
 19 29  1  0  0  0  0
 20 19  1  0  0  0  0
 20 31  1  0  0  0  0
 21 22  1  0  0  0  0
 21 19  1  0  0  0  0
 22 23  1  0  0  0  0
 22 35  1  1  0  0  0
 23  7  1  0  0  0  0
 24 22  1  0  0  0  0
 25 24  2  0  0  0  0
 26 18  1  0  0  0  0
 28 18  1  0  0  0  0
 30 20  1  0  0  0  0
 32 20  1  0  0  0  0
 33 21  1  0  0  0  0
 34 21  1  0  0  0  0
 36 23  1  0  0  0  0
 37 47  1  0  0  0  0
 38 37  1  0  0  0  0
 38 39  1  0  0  0  0
 39 40  1  0  0  0  0
 39 50  1  0  0  0  0
 40 51  1  0  0  0  0
 40 41  1  0  0  0  0
 41 53  1  6  0  0  0
 41 43  1  0  0  0  0
 41 42  1  0  0  0  0
 42 54  1  0  0  0  0
 42 24  1  0  0  0  0
 43 44  1  0  0  0  0
 45 43  2  0  0  0  0
 46 37  1  0  0  0  0
 48 37  1  0  0  0  0
 49 39  1  0  0  0  0
 52 40  1  0  0  0  0
M  END
$$$$
