ELP.pdb
 OpenBabel07022418193D

 51 51  0  0  1  0  0  0  0  0999 V2000
    2.6850   -3.8360    2.8840 N   0  0  0  0  0  0  0  0  0  0  0  0
    2.5930   -2.8610    1.8090 C   0  0  1  0  0  0  0  0  0  0  0  0
    3.1140   -3.4400    0.5510 C   0  0  0  0  0  0  0  0  0  0  0  0
    2.4960   -4.6730    0.0260 C   0  0  0  0  0  0  0  0  0  0  0  0
    1.0830   -4.6530   -0.3420 C   0  0  0  0  0  0  0  0  0  0  0  0
    0.3990   -3.6160   -0.2880 O   0  0  0  0  0  0  0  0  0  0  0  0
    1.3620   -2.0960    1.7850 C   0  0  0  0  0  0  0  0  0  0  0  0
    0.4220   -2.4810    2.5610 O   0  0  0  0  0  0  0  0  0  0  0  0
    0.4110   -5.8040   -0.7800 O   0  0  0  0  0  0  0  0  0  0  0  0
    1.7720   -4.0240    3.3390 H   0  0  0  0  0  0  0  0  0  0  0  0
    3.2130   -4.6910    2.6090 H   0  0  0  0  0  0  0  0  0  0  0  0
    3.4010   -2.0860    2.1170 H   0  0  0  0  0  0  0  0  0  0  0  0
    3.1520   -2.6490   -0.2410 H   0  0  0  0  0  0  0  0  0  0  0  0
    4.2180   -3.6510    0.7370 H   0  0  0  0  0  0  0  0  0  0  0  0
    3.0470   -4.9280   -0.9410 H   0  0  0  0  0  0  0  0  0  0  0  0
    2.7350   -5.5730    0.6630 H   0  0  0  0  0  0  0  0  0  0  0  0
   -0.5260   -5.6800   -1.1240 H   0  0  0  0  0  0  0  0  0  0  0  0
    1.9980    0.9320    2.9580 C   0  0  0  0  0  0  0  0  0  0  0  0
    0.6260    1.4670    2.7260 C   0  0  0  0  0  0  0  0  0  0  0  0
    0.7270    2.9960    2.8730 C   0  0  0  0  0  0  0  0  0  0  0  0
    0.0480    1.1940    1.3930 C   0  0  0  0  0  0  0  0  0  0  0  0
   -0.1310   -0.2530    1.0170 C   0  0  2  0  0  0  0  0  0  0  0  0
    1.1210   -0.9590    0.9760 N   0  0  0  0  0  0  0  0  0  0  0  0
   -0.7820   -0.2760   -0.3600 C   0  0  0  0  0  0  0  0  0  0  0  0
   -0.0510   -0.6380   -1.3110 O   0  0  0  0  0  0  0  0  0  0  0  0
    2.5740    0.7970    2.0270 H   0  0  0  0  0  0  0  0  0  0  0  0
    2.6240    1.6650    3.5620 H   0  0  0  0  0  0  0  0  0  0  0  0
    2.0370    0.0100    3.5810 H   0  0  0  0  0  0  0  0  0  0  0  0
   -0.0800    1.1810    3.5670 H   0  0  0  0  0  0  0  0  0  0  0  0
    1.7760    3.3260    2.6840 H   0  0  0  0  0  0  0  0  0  0  0  0
    0.4650    3.3400    3.8740 H   0  0  0  0  0  0  0  0  0  0  0  0
    0.0930    3.5090    2.1440 H   0  0  0  0  0  0  0  0  0  0  0  0
   -0.8490    1.7690    1.1840 H   0  0  0  0  0  0  0  0  0  0  0  0
    0.8040    1.5980    0.6210 H   0  0  0  0  0  0  0  0  0  0  0  0
   -0.7990   -0.7380    1.7400 H   0  0  0  0  0  0  0  0  0  0  0  0
    1.8710   -0.6460    0.3350 H   0  0  0  0  0  0  0  0  0  0  0  0
   -2.0990    0.0780   -0.5540 N   0  0  0  0  0  0  0  0  0  0  0  0
   -3.0260    0.4190    0.5580 C   0  0  0  0  0  0  0  0  0  0  0  0
   -3.5180    1.7440    0.0740 C   0  0  0  0  0  0  0  0  0  0  0  0
   -3.3630    1.7280   -1.4460 C   0  0  0  0  0  0  0  0  0  0  0  0
   -2.9390    0.2540   -1.6760 C   0  0  1  0  0  0  0  0  0  0  0  0
   -2.4690    0.0470   -3.0150 C   0  0  0  0  0  0  0  0  0  0  0  0
   -1.3330   -0.2700   -3.3480 O   0  0  0  0  0  0  0  0  0  0  0  0
   -3.3930    0.2230   -4.0650 O   0  0  0  0  0  0  0  0  0  0  0  0
   -2.5910    0.3580    1.5330 H   0  0  0  0  0  0  0  0  0  0  0  0
   -3.8670   -0.3130    0.3960 H   0  0  0  0  0  0  0  0  0  0  0  0
   -4.6260    1.8480    0.2670 H   0  0  0  0  0  0  0  0  0  0  0  0
   -3.0070    2.5960    0.5300 H   0  0  0  0  0  0  0  0  0  0  0  0
   -2.5840    2.4180   -1.7830 H   0  0  0  0  0  0  0  0  0  0  0  0
   -4.3040    1.9500   -1.9660 H   0  0  0  0  0  0  0  0  0  0  0  0
   -3.9530   -0.2800   -1.5020 H   0  0  0  0  0  0  0  0  0  0  0  0
  1 10  1  0  0  0  0
  2 12  1  1  0  0  0
  2  1  1  0  0  0  0
  3 14  1  0  0  0  0
  3  2  1  0  0  0  0
  4  3  1  0  0  0  0
  4 16  1  0  0  0  0
  5  6  2  0  0  0  0
  5  4  1  0  0  0  0
  7  2  1  0  0  0  0
  7  8  2  0  0  0  0
  9  5  1  0  0  0  0
 11  1  1  0  0  0  0
 13  3  1  0  0  0  0
 15  4  1  0  0  0  0
 17  9  1  0  0  0  0
 18 27  1  0  0  0  0
 18 28  1  0  0  0  0
 19 20  1  0  0  0  0
 19 18  1  0  0  0  0
 19 29  1  0  0  0  0
 20 31  1  0  0  0  0
 21 19  1  0  0  0  0
 22 21  1  0  0  0  0
 22 35  1  1  0  0  0
 23 22  1  0  0  0  0
 23  7  1  0  0  0  0
 24 22  1  0  0  0  0
 25 24  2  0  0  0  0
 26 18  1  0  0  0  0
 30 20  1  0  0  0  0
 32 20  1  0  0  0  0
 33 21  1  0  0  0  0
 34 21  1  0  0  0  0
 36 23  1  0  0  0  0
 37 24  1  0  0  0  0
 37 38  1  0  0  0  0
 38 45  1  0  0  0  0
 39 47  1  0  0  0  0
 39 48  1  0  0  0  0
 39 38  1  0  0  0  0
 40 39  1  0  0  0  0
 41 51  1  1  0  0  0
 41 40  1  0  0  0  0
 41 37  1  0  0  0  0
 42 41  1  0  0  0  0
 43 42  1  0  0  0  0
 44 42  2  0  0  0  0
 46 38  1  0  0  0  0
 49 40  1  0  0  0  0
 50 40  1  0  0  0  0
M  END
$$$$
