ELS.pdb
 OpenBabel07022418193D

 48 47  0  0  1  0  0  0  0  0999 V2000
    1.0450   -3.8780    0.5540 N   0  0  0  0  0  0  0  0  0  0  0  0
    1.6000   -2.9710    1.5260 C   0  0  1  0  0  0  0  0  0  0  0  0
    3.0820   -3.2050    1.5440 C   0  0  0  0  0  0  0  0  0  0  0  0
    3.8640   -2.3640    2.4830 C   0  0  0  0  0  0  0  0  0  0  0  0
    3.4980   -2.5440    3.8850 C   0  0  0  0  0  0  0  0  0  0  0  0
    2.6320   -3.3700    4.2400 O   0  0  0  0  0  0  0  0  0  0  0  0
    1.2260   -1.5620    1.2950 C   0  0  0  0  0  0  0  0  0  0  0  0
    1.6750   -0.7170    2.1140 O   0  0  0  0  0  0  0  0  0  0  0  0
    4.1310   -1.7720    4.8560 O   0  0  0  0  0  0  0  0  0  0  0  0
    0.0830   -4.1740    0.7390 H   0  0  0  0  0  0  0  0  0  0  0  0
    1.2010   -3.4660   -0.3960 H   0  0  0  0  0  0  0  0  0  0  0  0
    1.1720   -3.2660    2.5010 H   0  0  0  0  0  0  0  0  0  0  0  0
    3.2100   -4.2760    1.8860 H   0  0  0  0  0  0  0  0  0  0  0  0
    3.5250   -3.1640    0.5250 H   0  0  0  0  0  0  0  0  0  0  0  0
    3.9350   -1.2980    2.1750 H   0  0  0  0  0  0  0  0  0  0  0  0
    4.9350   -2.7260    2.4020 H   0  0  0  0  0  0  0  0  0  0  0  0
    3.7990   -1.8510    5.8060 H   0  0  0  0  0  0  0  0  0  0  0  0
    0.9580    2.8510   -2.6270 C   0  0  0  0  0  0  0  0  0  0  0  0
    0.3410    2.3360   -1.3110 C   0  0  0  0  0  0  0  0  0  0  0  0
    0.8760    3.1900   -0.1880 C   0  0  0  0  0  0  0  0  0  0  0  0
    0.6620    0.8810   -1.1560 C   0  0  0  0  0  0  0  0  0  0  0  0
    0.1050    0.3090    0.1010 C   0  0  2  0  0  0  0  0  0  0  0  0
    0.4220   -1.0990    0.2510 N   0  0  0  0  0  0  0  0  0  0  0  0
   -1.3380    0.5300    0.3130 C   0  0  0  0  0  0  0  0  0  0  0  0
   -1.9340    1.6300    0.2870 O   0  0  0  0  0  0  0  0  0  0  0  0
    0.7140    2.0680   -3.4020 H   0  0  0  0  0  0  0  0  0  0  0  0
    0.4540    3.7860   -2.8990 H   0  0  0  0  0  0  0  0  0  0  0  0
    2.0400    2.9860   -2.5270 H   0  0  0  0  0  0  0  0  0  0  0  0
   -0.7400    2.5620   -1.4210 H   0  0  0  0  0  0  0  0  0  0  0  0
    1.5230    2.6070    0.4710 H   0  0  0  0  0  0  0  0  0  0  0  0
    0.0370    3.6270    0.4180 H   0  0  0  0  0  0  0  0  0  0  0  0
    1.4740    4.0490   -0.5600 H   0  0  0  0  0  0  0  0  0  0  0  0
    0.2930    0.3690   -2.0680 H   0  0  0  0  0  0  0  0  0  0  0  0
    1.7770    0.8170   -1.0710 H   0  0  0  0  0  0  0  0  0  0  0  0
    0.6200    0.8410    0.9450 H   0  0  0  0  0  0  0  0  0  0  0  0
    0.0380   -1.7560   -0.4350 H   0  0  0  0  0  0  0  0  0  0  0  0
   -4.1570   -2.6270   -0.1600 O   0  0  0  0  0  0  0  0  0  0  0  0
   -4.4070   -1.2770   -0.1820 C   0  0  0  0  0  0  0  0  0  0  0  0
   -3.5730   -0.4910    0.7940 C   0  0  2  0  0  0  0  0  0  0  0  0
   -2.1710   -0.6060    0.5770 N   0  0  0  0  0  0  0  0  0  0  0  0
   -3.8970   -0.9680    2.1500 C   0  0  0  0  0  0  0  0  0  0  0  0
   -2.9870   -1.3850    2.8940 O   0  0  0  0  0  0  0  0  0  0  0  0
   -5.1910   -0.9690    2.6320 O   0  0  0  0  0  0  0  0  0  0  0  0
   -4.9820   -3.1470   -0.3300 H   0  0  0  0  0  0  0  0  0  0  0  0
   -4.3190   -0.8040   -1.1730 H   0  0  0  0  0  0  0  0  0  0  0  0
   -5.4790   -1.1340    0.1300 H   0  0  0  0  0  0  0  0  0  0  0  0
   -3.8930    0.5700    0.7340 H   0  0  0  0  0  0  0  0  0  0  0  0
   -1.7570   -1.5830    0.6190 H   0  0  0  0  0  0  0  0  0  0  0  0
  1 10  1  0  0  0  0
  1  2  1  0  0  0  0
  2  3  1  0  0  0  0
  2 12  1  1  0  0  0
  3 13  1  0  0  0  0
  3  4  1  0  0  0  0
  4  5  1  0  0  0  0
  5  6  2  0  0  0  0
  5  9  1  0  0  0  0
  7  2  1  0  0  0  0
  7  8  2  0  0  0  0
  9 17  1  0  0  0  0
 11  1  1  0  0  0  0
 14  3  1  0  0  0  0
 15  4  1  0  0  0  0
 16  4  1  0  0  0  0
 18 28  1  0  0  0  0
 18 19  1  0  0  0  0
 19 21  1  0  0  0  0
 19 20  1  0  0  0  0
 20 31  1  0  0  0  0
 20 30  1  0  0  0  0
 21 34  1  0  0  0  0
 21 22  1  0  0  0  0
 22 23  1  0  0  0  0
 22 24  1  0  0  0  0
 22 35  1  1  0  0  0
 23  7  1  0  0  0  0
 24 40  1  0  0  0  0
 25 24  2  0  0  0  0
 26 18  1  0  0  0  0
 27 18  1  0  0  0  0
 29 19  1  0  0  0  0
 32 20  1  0  0  0  0
 33 21  1  0  0  0  0
 36 23  1  0  0  0  0
 38 37  1  0  0  0  0
 38 46  1  0  0  0  0
 38 39  1  0  0  0  0
 39 47  1  6  0  0  0
 39 41  1  0  0  0  0
 40 48  1  0  0  0  0
 40 39  1  0  0  0  0
 41 43  2  0  0  0  0
 41 42  1  0  0  0  0
 44 37  1  0  0  0  0
 45 38  1  0  0  0  0
M  END
$$$$
