ELV.pdb
 OpenBabel07022418193D

 53 52  0  0  1  0  0  0  0  0999 V2000
    2.0410   -3.1690    4.5070 N   0  0  0  0  0  0  0  0  0  0  0  0
    2.1400   -2.6690    3.1100 C   0  0  1  0  0  0  0  0  0  0  0  0
    2.1460   -3.9160    2.2740 C   0  0  0  0  0  0  0  0  0  0  0  0
    2.2340   -3.7170    0.8030 C   0  0  0  0  0  0  0  0  0  0  0  0
    2.2450   -5.0950    0.1880 C   0  0  0  0  0  0  0  0  0  0  0  0
    2.1880   -6.1340    0.8520 O   0  0  0  0  0  0  0  0  0  0  0  0
    1.0170   -1.7570    2.8550 C   0  0  0  0  0  0  0  0  0  0  0  0
    0.0540   -1.7150    3.6690 O   0  0  0  0  0  0  0  0  0  0  0  0
    2.3240   -5.1480   -1.1940 O   0  0  0  0  0  0  0  0  0  0  0  0
    1.6600   -2.3820    5.1100 H   0  0  0  0  0  0  0  0  0  0  0  0
    1.2600   -3.8730    4.4730 H   0  0  0  0  0  0  0  0  0  0  0  0
    3.1260   -2.1500    3.0730 H   0  0  0  0  0  0  0  0  0  0  0  0
    3.0530   -4.5210    2.5700 H   0  0  0  0  0  0  0  0  0  0  0  0
    1.2890   -4.5640    2.5700 H   0  0  0  0  0  0  0  0  0  0  0  0
    3.1550   -3.2070    0.4710 H   0  0  0  0  0  0  0  0  0  0  0  0
    1.3740   -3.1370    0.3970 H   0  0  0  0  0  0  0  0  0  0  0  0
    2.5480   -5.9840   -1.7060 H   0  0  0  0  0  0  0  0  0  0  0  0
    2.5390    1.5420    1.3470 C   0  0  0  0  0  0  0  0  0  0  0  0
    1.1640    2.1340    1.1440 C   0  0  0  0  0  0  0  0  0  0  0  0
    1.2130    3.5430    1.7630 C   0  0  0  0  0  0  0  0  0  0  0  0
    0.1010    1.4040    1.8450 C   0  0  0  0  0  0  0  0  0  0  0  0
   -0.1470   -0.0260    1.5030 C   0  0  2  0  0  0  0  0  0  0  0  0
    0.9750   -0.9100    1.7170 N   0  0  0  0  0  0  0  0  0  0  0  0
   -0.6620   -0.2360    0.1400 C   0  0  0  0  0  0  0  0  0  0  0  0
   -0.1060   -1.0740   -0.6030 O   0  0  0  0  0  0  0  0  0  0  0  0
    2.6060    0.9040    2.2500 H   0  0  0  0  0  0  0  0  0  0  0  0
    3.2950    2.3650    1.5600 H   0  0  0  0  0  0  0  0  0  0  0  0
    2.9030    1.0640    0.4170 H   0  0  0  0  0  0  0  0  0  0  0  0
    0.9610    2.3320    0.0660 H   0  0  0  0  0  0  0  0  0  0  0  0
    1.9640    4.1530    1.2190 H   0  0  0  0  0  0  0  0  0  0  0  0
    1.4820    3.4840    2.8310 H   0  0  0  0  0  0  0  0  0  0  0  0
    0.2070    4.0200    1.6470 H   0  0  0  0  0  0  0  0  0  0  0  0
    0.3550    1.4210    2.9480 H   0  0  0  0  0  0  0  0  0  0  0  0
   -0.8580    1.9750    1.7950 H   0  0  0  0  0  0  0  0  0  0  0  0
   -0.9370   -0.3520    2.2630 H   0  0  0  0  0  0  0  0  0  0  0  0
    1.7410   -0.9000    1.0030 H   0  0  0  0  0  0  0  0  0  0  0  0
   -3.5500   -1.6390   -0.8670 C   0  0  0  0  0  0  0  0  0  0  0  0
   -3.6740   -0.3160   -1.6030 C   0  0  0  0  0  0  0  0  0  0  0  0
   -4.2650   -0.6350   -2.9630 C   0  0  0  0  0  0  0  0  0  0  0  0
   -2.2880    0.2760   -1.7250 C   0  0  2  0  0  0  0  0  0  0  0  0
   -1.7760    0.4680   -0.4020 N   0  0  0  0  0  0  0  0  0  0  0  0
   -2.2500    1.4780   -2.5580 C   0  0  0  0  0  0  0  0  0  0  0  0
   -1.7930    2.5500   -2.0860 O   0  0  0  0  0  0  0  0  0  0  0  0
   -2.6960    1.5110   -3.8690 O   0  0  0  0  0  0  0  0  0  0  0  0
   -3.3200   -2.4800   -1.5540 H   0  0  0  0  0  0  0  0  0  0  0  0
   -4.4920   -1.8980   -0.3360 H   0  0  0  0  0  0  0  0  0  0  0  0
   -2.7540   -1.6250   -0.1000 H   0  0  0  0  0  0  0  0  0  0  0  0
   -4.3130    0.3360   -1.0090 H   0  0  0  0  0  0  0  0  0  0  0  0
   -5.1420   -1.3020   -2.8350 H   0  0  0  0  0  0  0  0  0  0  0  0
   -4.6540    0.3130   -3.4090 H   0  0  0  0  0  0  0  0  0  0  0  0
   -3.5510   -1.1430   -3.6100 H   0  0  0  0  0  0  0  0  0  0  0  0
   -1.6560   -0.5130   -2.2280 H   0  0  0  0  0  0  0  0  0  0  0  0
   -2.2420    1.1660    0.2080 H   0  0  0  0  0  0  0  0  0  0  0  0
  1 10  1  0  0  0  0
  2 12  1  6  0  0  0
  2  1  1  0  0  0  0
  3 14  1  0  0  0  0
  3 13  1  0  0  0  0
  3  2  1  0  0  0  0
  4  3  1  0  0  0  0
  5  4  1  0  0  0  0
  5  6  2  0  0  0  0
  7  2  1  0  0  0  0
  7  8  2  0  0  0  0
  9  5  1  0  0  0  0
 11  1  1  0  0  0  0
 15  4  1  0  0  0  0
 16  4  1  0  0  0  0
 17  9  1  0  0  0  0
 18 27  1  0  0  0  0
 18 26  1  0  0  0  0
 19 18  1  0  0  0  0
 19 20  1  0  0  0  0
 19 21  1  0  0  0  0
 20 31  1  0  0  0  0
 21 33  1  0  0  0  0
 22 23  1  0  0  0  0
 22 21  1  0  0  0  0
 22 35  1  1  0  0  0
 23  7  1  0  0  0  0
 24 22  1  0  0  0  0
 25 24  2  0  0  0  0
 28 18  1  0  0  0  0
 29 19  1  0  0  0  0
 30 20  1  0  0  0  0
 32 20  1  0  0  0  0
 34 21  1  0  0  0  0
 36 23  1  0  0  0  0
 37 46  1  0  0  0  0
 37 47  1  0  0  0  0
 38 48  1  0  0  0  0
 38 37  1  0  0  0  0
 39 49  1  0  0  0  0
 39 38  1  0  0  0  0
 40 52  1  6  0  0  0
 40 38  1  0  0  0  0
 40 41  1  0  0  0  0
 41 24  1  0  0  0  0
 41 53  1  0  0  0  0
 42 43  1  0  0  0  0
 42 40  1  0  0  0  0
 44 42  2  0  0  0  0
 45 37  1  0  0  0  0
 50 39  1  0  0  0  0
 51 39  1  0  0  0  0
M  END
$$$$
