ELW.pdb
 OpenBabel07022418193D

 61 62  0  0  1  0  0  0  0  0999 V2000
    1.2650    3.2470    3.6810 N   0  0  0  0  0  0  0  0  0  0  0  0
    1.8440    3.4990    2.3500 C   0  0  1  0  0  0  0  0  0  0  0  0
    3.2730    3.8290    2.5540 C   0  0  0  0  0  0  0  0  0  0  0  0
    4.1020    4.0780    1.3570 C   0  0  0  0  0  0  0  0  0  0  0  0
    4.3430    2.9120    0.4980 C   0  0  0  0  0  0  0  0  0  0  0  0
    4.1100    1.7460    0.9160 O   0  0  0  0  0  0  0  0  0  0  0  0
    1.4510    2.4370    1.4630 C   0  0  0  0  0  0  0  0  0  0  0  0
    1.4520    2.6240    0.2040 O   0  0  0  0  0  0  0  0  0  0  0  0
    4.8340    3.0230   -0.8050 O   0  0  0  0  0  0  0  0  0  0  0  0
    1.9310    2.7080    4.2770 H   0  0  0  0  0  0  0  0  0  0  0  0
    0.9150    4.1150    4.1080 H   0  0  0  0  0  0  0  0  0  0  0  0
    1.3670    4.4910    2.0000 H   0  0  0  0  0  0  0  0  0  0  0  0
    3.7950    3.1170    3.2450 H   0  0  0  0  0  0  0  0  0  0  0  0
    3.2790    4.7930    3.1600 H   0  0  0  0  0  0  0  0  0  0  0  0
    5.1250    4.4660    1.6390 H   0  0  0  0  0  0  0  0  0  0  0  0
    3.6160    4.8500    0.6870 H   0  0  0  0  0  0  0  0  0  0  0  0
    4.6280    2.3050   -1.5010 H   0  0  0  0  0  0  0  0  0  0  0  0
    2.5760   -2.9750    2.2920 C   0  0  0  0  0  0  0  0  0  0  0  0
    1.6190   -1.7820    2.4970 C   0  0  0  0  0  0  0  0  0  0  0  0
    0.3490   -2.3930    3.0080 C   0  0  0  0  0  0  0  0  0  0  0  0
    1.5130   -1.1280    1.1620 C   0  0  0  0  0  0  0  0  0  0  0  0
    0.6480    0.0670    1.0680 C   0  0  2  0  0  0  0  0  0  0  0  0
    1.0500    1.1590    1.9300 N   0  0  0  0  0  0  0  0  0  0  0  0
   -0.8130   -0.1840    1.1410 C   0  0  0  0  0  0  0  0  0  0  0  0
   -1.5180    0.5590    1.9130 O   0  0  0  0  0  0  0  0  0  0  0  0
    3.5240   -2.6060    1.8840 H   0  0  0  0  0  0  0  0  0  0  0  0
    2.0760   -3.5900    1.5000 H   0  0  0  0  0  0  0  0  0  0  0  0
    2.6460   -3.5470    3.2160 H   0  0  0  0  0  0  0  0  0  0  0  0
    2.1210   -1.1610    3.2720 H   0  0  0  0  0  0  0  0  0  0  0  0
    0.0970   -3.3090    2.4010 H   0  0  0  0  0  0  0  0  0  0  0  0
    0.5280   -2.7550    4.0290 H   0  0  0  0  0  0  0  0  0  0  0  0
   -0.5240   -1.7570    3.0070 H   0  0  0  0  0  0  0  0  0  0  0  0
    2.5670   -0.8770    0.8560 H   0  0  0  0  0  0  0  0  0  0  0  0
    1.2180   -1.9290    0.4350 H   0  0  0  0  0  0  0  0  0  0  0  0
    0.7900    0.4730    0.0160 H   0  0  0  0  0  0  0  0  0  0  0  0
    1.0580    1.0350    2.9690 H   0  0  0  0  0  0  0  0  0  0  0  0
   -1.4980   -1.1720    0.4330 N   0  0  0  0  0  0  0  0  0  0  0  0
   -2.9320   -1.3740    0.5360 C   0  0  1  0  0  0  0  0  0  0  0  0
   -3.6080   -1.0340   -0.7550 C   0  0  0  0  0  0  0  0  0  0  0  0
   -3.1740   -1.7800   -1.9310 C   0  0  0  0  0  0  0  0  0  0  0  0
   -2.2120   -1.3110   -2.8430 C   0  0  0  0  0  0  0  0  0  0  0  0
   -1.9990   -2.2300   -3.7820 N   0  0  0  0  0  0  0  0  0  0  0  0
   -2.7910   -3.2890   -3.5190 C   0  0  0  0  0  0  0  0  0  0  0  0
   -2.9430   -4.5010   -4.2090 C   0  0  0  0  0  0  0  0  0  0  0  0
   -3.8390   -5.4220   -3.7260 C   0  0  0  0  0  0  0  0  0  0  0  0
   -4.5700   -5.1560   -2.5880 C   0  0  0  0  0  0  0  0  0  0  0  0
   -4.4390   -3.9810   -1.8970 C   0  0  0  0  0  0  0  0  0  0  0  0
   -3.5220   -3.0300   -2.3830 C   0  0  0  0  0  0  0  0  0  0  0  0
   -3.3280   -2.6430    1.1440 C   0  0  0  0  0  0  0  0  0  0  0  0
   -4.5410   -2.8480    1.3980 O   0  0  0  0  0  0  0  0  0  0  0  0
   -2.4620   -3.6810    1.4800 O   0  0  0  0  0  0  0  0  0  0  0  0
   -0.9640   -1.7990   -0.2030 H   0  0  0  0  0  0  0  0  0  0  0  0
   -3.2830   -0.5720    1.2670 H   0  0  0  0  0  0  0  0  0  0  0  0
   -4.7050   -1.2120   -0.5950 H   0  0  0  0  0  0  0  0  0  0  0  0
   -3.5250    0.0560   -0.9680 H   0  0  0  0  0  0  0  0  0  0  0  0
   -1.7080   -0.3490   -2.8050 H   0  0  0  0  0  0  0  0  0  0  0  0
   -1.3430   -2.1980   -4.6100 H   0  0  0  0  0  0  0  0  0  0  0  0
   -2.3500   -4.6700   -5.0970 H   0  0  0  0  0  0  0  0  0  0  0  0
   -3.9750   -6.3680   -4.2400 H   0  0  0  0  0  0  0  0  0  0  0  0
   -5.2800   -5.9000   -2.2160 H   0  0  0  0  0  0  0  0  0  0  0  0
   -5.0050   -3.7430   -1.0160 H   0  0  0  0  0  0  0  0  0  0  0  0
  1 11  1  0  0  0  0
  1 10  1  0  0  0  0
  2 12  1  6  0  0  0
  2  3  1  0  0  0  0
  2  1  1  0  0  0  0
  3 14  1  0  0  0  0
  3 13  1  0  0  0  0
  4 15  1  0  0  0  0
  4  3  1  0  0  0  0
  5  6  2  0  0  0  0
  5  4  1  0  0  0  0
  7 23  1  0  0  0  0
  7  2  1  0  0  0  0
  8  7  2  0  0  0  0
  9  5  1  0  0  0  0
 16  4  1  0  0  0  0
 17  9  1  0  0  0  0
 18 19  1  0  0  0  0
 18 28  1  0  0  0  0
 19 20  1  0  0  0  0
 19 29  1  0  0  0  0
 20 31  1  0  0  0  0
 21 19  1  0  0  0  0
 22 35  1  6  0  0  0
 22 24  1  0  0  0  0
 22 21  1  0  0  0  0
 22 23  1  0  0  0  0
 23 36  1  0  0  0  0
 24 25  2  0  0  0  0
 26 18  1  0  0  0  0
 27 18  1  0  0  0  0
 30 20  1  0  0  0  0
 32 20  1  0  0  0  0
 33 21  1  0  0  0  0
 34 21  1  0  0  0  0
 37 38  1  0  0  0  0
 37 24  1  0  0  0  0
 38 49  1  0  0  0  0
 38 53  1  1  0  0  0
 39 54  1  0  0  0  0
 39 38  1  0  0  0  0
 40 39  1  0  0  0  0
 41 56  1  0  0  0  0
 41 40  2  0  0  0  0
 42 43  1  0  0  0  0
 42 41  1  0  0  0  0
 43 48  1  0  0  0  0
 44 45  1  0  0  0  0
 44 43  2  0  0  0  0
 45 46  2  0  0  0  0
 46 60  1  0  0  0  0
 46 47  1  0  0  0  0
 47 61  1  0  0  0  0
 48 40  1  0  0  0  0
 48 47  2  0  0  0  0
 49 50  2  0  0  0  0
 49 51  1  0  0  0  0
 52 37  1  0  0  0  0
 55 39  1  0  0  0  0
 57 42  1  0  0  0  0
 58 44  1  0  0  0  0
 59 45  1  0  0  0  0
M  END
$$$$
