ELY.pdb
 OpenBabel07022418193D

 58 58  0  0  1  0  0  0  0  0999 V2000
    1.3240    0.9720    3.3730 N   0  0  0  0  0  0  0  0  0  0  0  0
    1.7060    0.5360    2.0470 C   0  0  1  0  0  0  0  0  0  0  0  0
    2.0800   -0.9290    2.1230 C   0  0  0  0  0  0  0  0  0  0  0  0
    3.2330   -1.0830    3.0790 C   0  0  0  0  0  0  0  0  0  0  0  0
    2.9200   -0.6180    4.4520 C   0  0  0  0  0  0  0  0  0  0  0  0
    2.1670   -1.2970    5.1920 O   0  0  0  0  0  0  0  0  0  0  0  0
    0.5870    0.7790    1.1120 C   0  0  0  0  0  0  0  0  0  0  0  0
   -0.4730    1.2800    1.5530 O   0  0  0  0  0  0  0  0  0  0  0  0
    3.4320    0.5620    4.9680 O   0  0  0  0  0  0  0  0  0  0  0  0
    0.5520    0.4070    3.7660 H   0  0  0  0  0  0  0  0  0  0  0  0
    0.9700    1.9640    3.2600 H   0  0  0  0  0  0  0  0  0  0  0  0
    2.6070    1.1120    1.7210 H   0  0  0  0  0  0  0  0  0  0  0  0
    2.3640   -1.3480    1.1570 H   0  0  0  0  0  0  0  0  0  0  0  0
    1.2430   -1.5410    2.5170 H   0  0  0  0  0  0  0  0  0  0  0  0
    4.1280   -0.5450    2.6630 H   0  0  0  0  0  0  0  0  0  0  0  0
    3.5590   -2.1630    3.1120 H   0  0  0  0  0  0  0  0  0  0  0  0
    3.1940    0.9210    5.8930 H   0  0  0  0  0  0  0  0  0  0  0  0
    1.3190    3.2000   -0.9210 C   0  0  0  0  0  0  0  0  0  0  0  0
    0.1110    3.0990   -1.7830 C   0  0  0  0  0  0  0  0  0  0  0  0
   -1.1050    3.7670   -1.1770 C   0  0  0  0  0  0  0  0  0  0  0  0
   -0.1860    1.7050   -2.2600 C   0  0  0  0  0  0  0  0  0  0  0  0
   -0.4360    0.7030   -1.2030 C   0  0  2  0  0  0  0  0  0  0  0  0
    0.6430    0.4740   -0.2750 N   0  0  0  0  0  0  0  0  0  0  0  0
   -0.9430   -0.5950   -1.7040 C   0  0  0  0  0  0  0  0  0  0  0  0
   -1.8890   -0.5590   -2.5260 O   0  0  0  0  0  0  0  0  0  0  0  0
    1.0090    3.4530    0.1290 H   0  0  0  0  0  0  0  0  0  0  0  0
    1.9680    4.0820   -1.2070 H   0  0  0  0  0  0  0  0  0  0  0  0
    2.0080    2.3380   -0.9570 H   0  0  0  0  0  0  0  0  0  0  0  0
    0.3350    3.7080   -2.7110 H   0  0  0  0  0  0  0  0  0  0  0  0
   -1.0510    3.6960   -0.0730 H   0  0  0  0  0  0  0  0  0  0  0  0
   -1.1280    4.8500   -1.4270 H   0  0  0  0  0  0  0  0  0  0  0  0
   -2.0510    3.3390   -1.5920 H   0  0  0  0  0  0  0  0  0  0  0  0
   -1.1000    1.7590   -2.9230 H   0  0  0  0  0  0  0  0  0  0  0  0
    0.6280    1.4400   -2.9670 H   0  0  0  0  0  0  0  0  0  0  0  0
   -1.2760    1.1250   -0.5690 H   0  0  0  0  0  0  0  0  0  0  0  0
    1.5680    0.0430   -0.5850 H   0  0  0  0  0  0  0  0  0  0  0  0
   -1.5350   -4.0550    4.4650 O   0  0  0  0  0  0  0  0  0  0  0  0
   -1.6780   -3.9520    3.0890 C   0  0  0  0  0  0  0  0  0  0  0  0
   -2.1910   -2.8240    2.4730 C   0  0  0  0  0  0  0  0  0  0  0  0
   -2.3350   -2.7180    1.1060 C   0  0  0  0  0  0  0  0  0  0  0  0
   -1.9640   -3.7510    0.2990 C   0  0  0  0  0  0  0  0  0  0  0  0
   -2.0960   -3.6920   -1.2020 C   0  0  0  0  0  0  0  0  0  0  0  0
   -0.8270   -3.1430   -1.7380 C   0  0  2  0  0  0  0  0  0  0  0  0
   -0.4380   -1.8530   -1.3240 N   0  0  0  0  0  0  0  0  0  0  0  0
   -0.9130   -3.2040   -3.2420 C   0  0  0  0  0  0  0  0  0  0  0  0
   -0.5550   -2.1980   -3.8870 O   0  0  0  0  0  0  0  0  0  0  0  0
   -1.4500   -4.8900    0.8740 C   0  0  0  0  0  0  0  0  0  0  0  0
   -1.3120   -4.9810    2.2430 C   0  0  0  0  0  0  0  0  0  0  0  0
   -1.3740   -4.3390   -3.8900 O   0  0  0  0  0  0  0  0  0  0  0  0
   -1.0090   -4.8430    4.8180 H   0  0  0  0  0  0  0  0  0  0  0  0
   -2.4840   -2.0040    3.1320 H   0  0  0  0  0  0  0  0  0  0  0  0
   -2.7380   -1.8280    0.6450 H   0  0  0  0  0  0  0  0  0  0  0  0
   -2.9980   -3.1330   -1.4920 H   0  0  0  0  0  0  0  0  0  0  0  0
   -2.2910   -4.7420   -1.5080 H   0  0  0  0  0  0  0  0  0  0  0  0
    0.0420   -3.8690   -1.5510 H   0  0  0  0  0  0  0  0  0  0  0  0
    0.3580   -1.7800   -0.6120 H   0  0  0  0  0  0  0  0  0  0  0  0
   -1.1470   -5.7300    0.2330 H   0  0  0  0  0  0  0  0  0  0  0  0
   -0.9050   -5.8780    2.7260 H   0  0  0  0  0  0  0  0  0  0  0  0
  1 10  1  0  0  0  0
  2 12  1  6  0  0  0
  2  3  1  0  0  0  0
  2  1  1  0  0  0  0
  3 14  1  0  0  0  0
  3  4  1  0  0  0  0
  4 16  1  0  0  0  0
  4  5  1  0  0  0  0
  5  9  1  0  0  0  0
  5  6  2  0  0  0  0
  7  8  2  0  0  0  0
  7  2  1  0  0  0  0
  9 17  1  0  0  0  0
 11  1  1  0  0  0  0
 13  3  1  0  0  0  0
 15  4  1  0  0  0  0
 18 26  1  0  0  0  0
 19 20  1  0  0  0  0
 19 18  1  0  0  0  0
 20 30  1  0  0  0  0
 21 19  1  0  0  0  0
 21 22  1  0  0  0  0
 22 35  1  1  0  0  0
 22 23  1  0  0  0  0
 23  7  1  0  0  0  0
 24 44  1  0  0  0  0
 24 22  1  0  0  0  0
 25 24  2  0  0  0  0
 27 18  1  0  0  0  0
 28 18  1  0  0  0  0
 29 19  1  0  0  0  0
 31 20  1  0  0  0  0
 32 20  1  0  0  0  0
 33 21  1  0  0  0  0
 34 21  1  0  0  0  0
 36 23  1  0  0  0  0
 37 50  1  0  0  0  0
 38 37  1  0  0  0  0
 39 38  1  0  0  0  0
 39 51  1  0  0  0  0
 40 39  2  0  0  0  0
 41 47  2  0  0  0  0
 41 40  1  0  0  0  0
 42 41  1  0  0  0  0
 43 55  1  1  0  0  0
 43 44  1  0  0  0  0
 43 42  1  0  0  0  0
 44 56  1  0  0  0  0
 45 43  1  0  0  0  0
 46 45  1  0  0  0  0
 47 48  1  0  0  0  0
 48 58  1  0  0  0  0
 48 38  2  0  0  0  0
 49 45  2  0  0  0  0
 52 40  1  0  0  0  0
 53 42  1  0  0  0  0
 54 42  1  0  0  0  0
 57 47  1  0  0  0  0
M  END
$$$$
