EMC.pdb
 OpenBabel07022418193D

 46 45  0  0  1  0  0  0  0  0999 V2000
   -0.1320   -3.1860    0.1910 N   0  0  0  0  0  0  0  0  0  0  0  0
    1.2260   -3.1530    0.7520 C   0  0  1  0  0  0  0  0  0  0  0  0
    2.2060   -3.7040   -0.2050 C   0  0  0  0  0  0  0  0  0  0  0  0
    3.6410   -3.7160    0.2050 C   0  0  0  0  0  0  0  0  0  0  0  0
    4.2710   -2.3990    0.3850 C   0  0  0  0  0  0  0  0  0  0  0  0
    5.1960   -2.2450    1.2190 O   0  0  0  0  0  0  0  0  0  0  0  0
    1.4940   -1.8680    1.3600 C   0  0  0  0  0  0  0  0  0  0  0  0
    2.3820   -1.6100    2.2080 O   0  0  0  0  0  0  0  0  0  0  0  0
    3.8780   -1.2870   -0.3520 O   0  0  0  0  0  0  0  0  0  0  0  0
   -0.1350   -2.8880   -0.8080 H   0  0  0  0  0  0  0  0  0  0  0  0
   -0.6120   -4.0730    0.3650 H   0  0  0  0  0  0  0  0  0  0  0  0
    1.1620   -3.9040    1.6040 H   0  0  0  0  0  0  0  0  0  0  0  0
    1.8950   -4.7580   -0.4700 H   0  0  0  0  0  0  0  0  0  0  0  0
    2.1360   -3.1790   -1.2040 H   0  0  0  0  0  0  0  0  0  0  0  0
    3.7370   -4.3320    1.1360 H   0  0  0  0  0  0  0  0  0  0  0  0
    4.2220   -4.2980   -0.5760 H   0  0  0  0  0  0  0  0  0  0  0  0
    4.2620   -0.3640   -0.1220 H   0  0  0  0  0  0  0  0  0  0  0  0
   -0.7480    3.2460   -2.9030 C   0  0  0  0  0  0  0  0  0  0  0  0
    0.5830    3.0860   -1.6950 S   0  0  0  0  0  0  0  0  0  0  0  0
    0.1290    1.7870   -0.5120 C   0  0  0  0  0  0  0  0  0  0  0  0
    1.2110    1.6040    0.5330 C   0  0  0  0  0  0  0  0  0  0  0  0
    0.8780    0.5440    1.5270 C   0  0  2  0  0  0  0  0  0  0  0  0
    0.6800   -0.7550    0.9770 N   0  0  0  0  0  0  0  0  0  0  0  0
   -0.3710    0.9250    2.2430 C   0  0  0  0  0  0  0  0  0  0  0  0
   -0.4430    2.0420    2.8140 O   0  0  0  0  0  0  0  0  0  0  0  0
   -0.7290    4.2350   -3.4050 H   0  0  0  0  0  0  0  0  0  0  0  0
   -1.7090    3.0900   -2.3450 H   0  0  0  0  0  0  0  0  0  0  0  0
   -0.6330    2.4290   -3.6370 H   0  0  0  0  0  0  0  0  0  0  0  0
   -0.0890    0.8770   -1.0790 H   0  0  0  0  0  0  0  0  0  0  0  0
   -0.7820    2.1360    0.0090 H   0  0  0  0  0  0  0  0  0  0  0  0
    1.2590    2.5760    1.0920 H   0  0  0  0  0  0  0  0  0  0  0  0
    2.2170    1.4780    0.0830 H   0  0  0  0  0  0  0  0  0  0  0  0
    1.7230    0.4950    2.2480 H   0  0  0  0  0  0  0  0  0  0  0  0
   -0.0950   -0.8750    0.2680 H   0  0  0  0  0  0  0  0  0  0  0  0
   -1.5120    0.0800    2.3190 N   0  0  0  0  0  0  0  0  0  0  0  0
   -2.7320    0.4380    3.0110 C   0  0  1  0  0  0  0  0  0  0  0  0
   -3.8760    0.3370    2.0090 C   0  0  0  0  0  0  0  0  0  0  0  0
   -3.6330    1.4440    0.6190 S   0  0  0  0  0  0  0  0  0  0  0  0
   -2.9880   -0.6000    4.0390 C   0  0  0  0  0  0  0  0  0  0  0  0
   -4.0050   -0.4840    4.7610 O   0  0  0  0  0  0  0  0  0  0  0  0
   -2.1580   -1.6850    4.2360 O   0  0  0  0  0  0  0  0  0  0  0  0
   -1.4740   -0.8530    1.8510 H   0  0  0  0  0  0  0  0  0  0  0  0
   -2.6870    1.4330    3.4630 H   0  0  0  0  0  0  0  0  0  0  0  0
   -4.8500    0.5710    2.5060 H   0  0  0  0  0  0  0  0  0  0  0  0
   -3.9740   -0.7020    1.6420 H   0  0  0  0  0  0  0  0  0  0  0  0
   -2.9740    2.6310    0.9900 H   0  0  0  0  0  0  0  0  0  0  0  0
  1 11  1  0  0  0  0
  1  2  1  0  0  0  0
  2  7  1  0  0  0  0
  2 12  1  1  0  0  0
  3  4  1  0  0  0  0
  3  2  1  0  0  0  0
  4  5  1  0  0  0  0
  4 15  1  0  0  0  0
  5  6  2  0  0  0  0
  7  8  2  0  0  0  0
  9 17  1  0  0  0  0
  9  5  1  0  0  0  0
 10  1  1  0  0  0  0
 13  3  1  0  0  0  0
 14  3  1  0  0  0  0
 16  4  1  0  0  0  0
 18 27  1  0  0  0  0
 18 19  1  0  0  0  0
 19 20  1  0  0  0  0
 20 30  1  0  0  0  0
 20 21  1  0  0  0  0
 21 31  1  0  0  0  0
 21 22  1  0  0  0  0
 22 24  1  0  0  0  0
 22 33  1  1  0  0  0
 23  7  1  0  0  0  0
 23 22  1  0  0  0  0
 24 35  1  0  0  0  0
 24 25  2  0  0  0  0
 26 18  1  0  0  0  0
 28 18  1  0  0  0  0
 29 20  1  0  0  0  0
 32 21  1  0  0  0  0
 34 23  1  0  0  0  0
 35 36  1  0  0  0  0
 36 43  1  1  0  0  0
 36 39  1  0  0  0  0
 37 44  1  0  0  0  0
 37 36  1  0  0  0  0
 38 46  1  0  0  0  0
 38 37  1  0  0  0  0
 39 41  2  0  0  0  0
 39 40  1  0  0  0  0
 42 35  1  0  0  0  0
 45 37  1  0  0  0  0
M  END
$$$$
