EMD.pdb
 OpenBabel07022418193D

 48 47  0  0  1  0  0  0  0  0999 V2000
    1.9840   -1.1080    5.2730 N   0  0  0  0  0  0  0  0  0  0  0  0
    1.5960   -1.8690    4.0370 C   0  0  1  0  0  0  0  0  0  0  0  0
    0.7860   -2.9940    4.5440 C   0  0  0  0  0  0  0  0  0  0  0  0
    0.1960   -3.9660    3.5950 C   0  0  0  0  0  0  0  0  0  0  0  0
   -0.8470   -3.3880    2.7600 C   0  0  0  0  0  0  0  0  0  0  0  0
   -1.3240   -2.2710    3.0040 O   0  0  0  0  0  0  0  0  0  0  0  0
    1.0170   -0.8780    3.1500 C   0  0  0  0  0  0  0  0  0  0  0  0
    0.4660    0.1780    3.6140 O   0  0  0  0  0  0  0  0  0  0  0  0
   -1.3480   -4.0880    1.6400 O   0  0  0  0  0  0  0  0  0  0  0  0
    2.3170   -1.7800    5.9920 H   0  0  0  0  0  0  0  0  0  0  0  0
    2.7540   -0.4390    5.0090 H   0  0  0  0  0  0  0  0  0  0  0  0
    2.6060   -2.2110    3.6460 H   0  0  0  0  0  0  0  0  0  0  0  0
    1.3680   -3.6180    5.3000 H   0  0  0  0  0  0  0  0  0  0  0  0
   -0.0690   -2.5430    5.1460 H   0  0  0  0  0  0  0  0  0  0  0  0
    0.9700   -4.4040    2.8990 H   0  0  0  0  0  0  0  0  0  0  0  0
   -0.2690   -4.7980    4.1880 H   0  0  0  0  0  0  0  0  0  0  0  0
   -2.3200   -3.9330    1.3720 H   0  0  0  0  0  0  0  0  0  0  0  0
    4.7610    1.0550   -0.8670 C   0  0  0  0  0  0  0  0  0  0  0  0
    3.8040    2.2540    0.0890 S   0  0  0  0  0  0  0  0  0  0  0  0
    2.5320    1.4000    1.0590 C   0  0  0  0  0  0  0  0  0  0  0  0
    1.5160    0.7810    0.1110 C   0  0  0  0  0  0  0  0  0  0  0  0
    0.4320    0.0600    0.9100 C   0  0  2  0  0  0  0  0  0  0  0  0
    1.0170   -0.9790    1.7120 N   0  0  0  0  0  0  0  0  0  0  0  0
   -0.5840   -0.4290   -0.0460 C   0  0  0  0  0  0  0  0  0  0  0  0
   -0.9110   -1.6400   -0.1580 O   0  0  0  0  0  0  0  0  0  0  0  0
    5.6260    1.5480   -1.3510 H   0  0  0  0  0  0  0  0  0  0  0  0
    4.1320    0.6270   -1.6890 H   0  0  0  0  0  0  0  0  0  0  0  0
    5.0720    0.2110   -0.2270 H   0  0  0  0  0  0  0  0  0  0  0  0
    2.0460    2.0730    1.7840 H   0  0  0  0  0  0  0  0  0  0  0  0
    3.0150    0.5640    1.6370 H   0  0  0  0  0  0  0  0  0  0  0  0
    2.0520    0.0240   -0.4870 H   0  0  0  0  0  0  0  0  0  0  0  0
    1.0760    1.5310   -0.5500 H   0  0  0  0  0  0  0  0  0  0  0  0
    0.0060    0.8610    1.5770 H   0  0  0  0  0  0  0  0  0  0  0  0
    1.4450   -1.8140    1.2550 H   0  0  0  0  0  0  0  0  0  0  0  0
   -1.2520    0.4970   -0.9060 N   0  0  0  0  0  0  0  0  0  0  0  0
   -2.2660   -0.0110   -1.8570 C   0  0  1  0  0  0  0  0  0  0  0  0
   -3.5760    0.6620   -1.6010 C   0  0  0  0  0  0  0  0  0  0  0  0
   -4.6710    0.2060   -2.4560 C   0  0  0  0  0  0  0  0  0  0  0  0
   -4.5390   -0.7420   -3.2450 O   0  0  0  0  0  0  0  0  0  0  0  0
   -1.7420    0.3310   -3.2020 C   0  0  0  0  0  0  0  0  0  0  0  0
   -0.6350    0.9550   -3.3370 O   0  0  0  0  0  0  0  0  0  0  0  0
   -5.9220    0.8270   -2.4200 O   0  0  0  0  0  0  0  0  0  0  0  0
   -2.4140   -0.0030   -4.3410 O   0  0  0  0  0  0  0  0  0  0  0  0
   -1.0340    1.5120   -0.8700 H   0  0  0  0  0  0  0  0  0  0  0  0
   -2.3700   -1.1010   -1.7900 H   0  0  0  0  0  0  0  0  0  0  0  0
   -3.8780    0.5850   -0.5270 H   0  0  0  0  0  0  0  0  0  0  0  0
   -3.4720    1.7660   -1.7840 H   0  0  0  0  0  0  0  0  0  0  0  0
   -6.6000    0.6410   -3.1350 H   0  0  0  0  0  0  0  0  0  0  0  0
  1 10  1  0  0  0  0
  2 12  1  6  0  0  0
  2  3  1  0  0  0  0
  2  1  1  0  0  0  0
  3 14  1  0  0  0  0
  3 13  1  0  0  0  0
  4 16  1  0  0  0  0
  4  3  1  0  0  0  0
  5  6  2  0  0  0  0
  5  4  1  0  0  0  0
  7  8  2  0  0  0  0
  7  2  1  0  0  0  0
  9  5  1  0  0  0  0
 11  1  1  0  0  0  0
 15  4  1  0  0  0  0
 17  9  1  0  0  0  0
 18 28  1  0  0  0  0
 18 19  1  0  0  0  0
 19 20  1  0  0  0  0
 20 30  1  0  0  0  0
 20 29  1  0  0  0  0
 21 22  1  0  0  0  0
 21 20  1  0  0  0  0
 22 33  1  1  0  0  0
 22 23  1  0  0  0  0
 23  7  1  0  0  0  0
 24 22  1  0  0  0  0
 25 24  2  0  0  0  0
 26 18  1  0  0  0  0
 27 18  1  0  0  0  0
 31 21  1  0  0  0  0
 32 21  1  0  0  0  0
 34 23  1  0  0  0  0
 35 44  1  0  0  0  0
 35 24  1  0  0  0  0
 36 45  1  1  0  0  0
 36 37  1  0  0  0  0
 36 35  1  0  0  0  0
 37 46  1  0  0  0  0
 38 42  1  0  0  0  0
 38 37  1  0  0  0  0
 39 38  2  0  0  0  0
 40 36  1  0  0  0  0
 41 40  1  0  0  0  0
 43 40  2  0  0  0  0
 47 37  1  0  0  0  0
 48 42  1  0  0  0  0
M  END
$$$$
