EMF.pdb
 OpenBabel07022418193D

 55 55  0  0  1  0  0  0  0  0999 V2000
    2.9240   -0.9820    1.7160 N   0  0  0  0  0  0  0  0  0  0  0  0
    2.5120   -0.8370    3.0990 C   0  0  1  0  0  0  0  0  0  0  0  0
    3.4850    0.0150    3.8830 C   0  0  0  0  0  0  0  0  0  0  0  0
    4.8740   -0.5100    3.9340 C   0  0  0  0  0  0  0  0  0  0  0  0
    5.0430   -1.8260    4.5460 C   0  0  0  0  0  0  0  0  0  0  0  0
    4.0420   -2.4280    5.0020 O   0  0  0  0  0  0  0  0  0  0  0  0
    1.2220   -0.1040    3.1160 C   0  0  0  0  0  0  0  0  0  0  0  0
    0.6010    0.1510    4.1810 O   0  0  0  0  0  0  0  0  0  0  0  0
    6.2680   -2.4660    4.6570 O   0  0  0  0  0  0  0  0  0  0  0  0
    3.9290   -1.3230    1.6520 H   0  0  0  0  0  0  0  0  0  0  0  0
    2.3550   -1.7430    1.2790 H   0  0  0  0  0  0  0  0  0  0  0  0
    2.3410   -1.8340    3.5570 H   0  0  0  0  0  0  0  0  0  0  0  0
    3.5270    1.0020    3.3530 H   0  0  0  0  0  0  0  0  0  0  0  0
    3.0320    0.2200    4.8640 H   0  0  0  0  0  0  0  0  0  0  0  0
    5.4690    0.2150    4.5490 H   0  0  0  0  0  0  0  0  0  0  0  0
    5.3100   -0.4420    2.9120 H   0  0  0  0  0  0  0  0  0  0  0  0
    6.4630   -3.1710    5.3740 H   0  0  0  0  0  0  0  0  0  0  0  0
   -1.2950    4.7610   -1.0600 C   0  0  0  0  0  0  0  0  0  0  0  0
    0.3470    4.0560   -0.8280 S   0  0  0  0  0  0  0  0  0  0  0  0
    0.1770    2.3660   -0.1870 C   0  0  0  0  0  0  0  0  0  0  0  0
   -0.4200    2.4120    1.2040 C   0  0  0  0  0  0  0  0  0  0  0  0
   -0.5870    1.0440    1.7920 C   0  0  2  0  0  0  0  0  0  0  0  0
    0.6600    0.3260    1.9130 N   0  0  0  0  0  0  0  0  0  0  0  0
   -1.5090    0.2720    0.9160 C   0  0  0  0  0  0  0  0  0  0  0  0
   -2.6670    0.7010    0.6510 O   0  0  0  0  0  0  0  0  0  0  0  0
   -1.3170    5.8550   -0.8140 H   0  0  0  0  0  0  0  0  0  0  0  0
   -1.6230    4.5860   -2.0910 H   0  0  0  0  0  0  0  0  0  0  0  0
   -1.9870    4.2400   -0.3380 H   0  0  0  0  0  0  0  0  0  0  0  0
    1.2190    1.9660   -0.1010 H   0  0  0  0  0  0  0  0  0  0  0  0
   -0.3900    1.7100   -0.8560 H   0  0  0  0  0  0  0  0  0  0  0  0
   -1.4470    2.8420    1.0840 H   0  0  0  0  0  0  0  0  0  0  0  0
    0.1430    3.1050    1.8280 H   0  0  0  0  0  0  0  0  0  0  0  0
   -0.9980    1.1620    2.8030 H   0  0  0  0  0  0  0  0  0  0  0  0
    1.1560    0.1280    1.0100 H   0  0  0  0  0  0  0  0  0  0  0  0
   -1.1460   -0.9730    0.3360 N   0  0  0  0  0  0  0  0  0  0  0  0
   -2.0660   -1.7290   -0.5310 C   0  0  1  0  0  0  0  0  0  0  0  0
   -1.4640   -1.9640   -1.8750 C   0  0  0  0  0  0  0  0  0  0  0  0
   -2.3830   -2.7220   -2.7450 C   0  0  0  0  0  0  0  0  0  0  0  0
   -3.3250   -2.0330   -3.5050 C   0  0  0  0  0  0  0  0  0  0  0  0
   -4.1990   -2.6870   -4.3450 C   0  0  0  0  0  0  0  0  0  0  0  0
   -4.1730   -4.0530   -4.4650 C   0  0  0  0  0  0  0  0  0  0  0  0
   -3.2440   -4.7640   -3.7200 C   0  0  0  0  0  0  0  0  0  0  0  0
   -2.3780   -4.0890   -2.8840 C   0  0  0  0  0  0  0  0  0  0  0  0
   -2.4520   -2.9660    0.1720 C   0  0  0  0  0  0  0  0  0  0  0  0
   -1.9470   -3.2060    1.3060 O   0  0  0  0  0  0  0  0  0  0  0  0
   -3.3450   -3.9050   -0.3230 O   0  0  0  0  0  0  0  0  0  0  0  0
   -0.1930   -1.3380    0.5490 H   0  0  0  0  0  0  0  0  0  0  0  0
   -3.0220   -1.1420   -0.6450 H   0  0  0  0  0  0  0  0  0  0  0  0
   -0.5600   -2.6140   -1.7210 H   0  0  0  0  0  0  0  0  0  0  0  0
   -1.0910   -1.0380   -2.3430 H   0  0  0  0  0  0  0  0  0  0  0  0
   -3.3860   -0.9720   -3.4480 H   0  0  0  0  0  0  0  0  0  0  0  0
   -4.9290   -2.1450   -4.9310 H   0  0  0  0  0  0  0  0  0  0  0  0
   -4.8610   -4.5590   -5.1260 H   0  0  0  0  0  0  0  0  0  0  0  0
   -3.2350   -5.8250   -3.8220 H   0  0  0  0  0  0  0  0  0  0  0  0
   -1.6580   -4.6760   -2.3180 H   0  0  0  0  0  0  0  0  0  0  0  0
  1  2  1  0  0  0  0
  2  7  1  0  0  0  0
  2 12  1  1  0  0  0
  2  3  1  0  0  0  0
  3  4  1  0  0  0  0
  3 14  1  0  0  0  0
  4  5  1  0  0  0  0
  4 15  1  0  0  0  0
  5  9  1  0  0  0  0
  5  6  2  0  0  0  0
  7  8  2  0  0  0  0
  9 17  1  0  0  0  0
 10  1  1  0  0  0  0
 11  1  1  0  0  0  0
 13  3  1  0  0  0  0
 16  4  1  0  0  0  0
 18 19  1  0  0  0  0
 18 26  1  0  0  0  0
 18 28  1  0  0  0  0
 19 20  1  0  0  0  0
 20 29  1  0  0  0  0
 20 21  1  0  0  0  0
 21 22  1  0  0  0  0
 21 32  1  0  0  0  0
 22 23  1  0  0  0  0
 22 33  1  1  0  0  0
 23  7  1  0  0  0  0
 24 22  1  0  0  0  0
 25 24  2  0  0  0  0
 27 18  1  0  0  0  0
 30 20  1  0  0  0  0
 31 21  1  0  0  0  0
 34 23  1  0  0  0  0
 35 47  1  0  0  0  0
 35 24  1  0  0  0  0
 36 48  1  6  0  0  0
 36 44  1  0  0  0  0
 36 35  1  0  0  0  0
 37 49  1  0  0  0  0
 37 36  1  0  0  0  0
 38 37  1  0  0  0  0
 39 51  1  0  0  0  0
 39 38  2  0  0  0  0
 40 39  1  0  0  0  0
 41 40  2  0  0  0  0
 41 42  1  0  0  0  0
 42 43  2  0  0  0  0
 43 38  1  0  0  0  0
 43 55  1  0  0  0  0
 44 45  1  0  0  0  0
 46 44  2  0  0  0  0
 50 37  1  0  0  0  0
 52 40  1  0  0  0  0
 53 41  1  0  0  0  0
 54 42  1  0  0  0  0
M  END
$$$$
