EMG.pdb
 OpenBabel07022418193D

 42 41  0  0  1  0  0  0  0  0999 V2000
    0.9750   -1.8510    4.8280 N   0  0  0  0  0  0  0  0  0  0  0  0
    1.5890   -1.7950    3.4580 C   0  0  1  0  0  0  0  0  0  0  0  0
    1.5090   -3.2010    3.0230 C   0  0  0  0  0  0  0  0  0  0  0  0
    2.0420   -3.7480    1.7950 C   0  0  0  0  0  0  0  0  0  0  0  0
    1.6590   -3.3950    0.4660 C   0  0  0  0  0  0  0  0  0  0  0  0
    2.3570   -2.6310   -0.2660 O   0  0  0  0  0  0  0  0  0  0  0  0
    0.8030   -0.7410    2.8170 C   0  0  0  0  0  0  0  0  0  0  0  0
   -0.2750   -0.2840    3.4050 O   0  0  0  0  0  0  0  0  0  0  0  0
    0.4810   -3.8550   -0.1650 O   0  0  0  0  0  0  0  0  0  0  0  0
   -0.0420   -1.9090    4.7660 H   0  0  0  0  0  0  0  0  0  0  0  0
    1.3710   -1.1210    5.4270 H   0  0  0  0  0  0  0  0  0  0  0  0
    2.6290   -1.4640    3.6880 H   0  0  0  0  0  0  0  0  0  0  0  0
    1.9500   -3.8670    3.8750 H   0  0  0  0  0  0  0  0  0  0  0  0
    0.4120   -3.5640    3.0990 H   0  0  0  0  0  0  0  0  0  0  0  0
    3.2140   -3.7680    1.8550 H   0  0  0  0  0  0  0  0  0  0  0  0
    1.8590   -4.8960    1.8680 H   0  0  0  0  0  0  0  0  0  0  0  0
    0.4360   -3.9800   -1.1670 H   0  0  0  0  0  0  0  0  0  0  0  0
    2.1340    3.3010   -2.7590 C   0  0  0  0  0  0  0  0  0  0  0  0
    1.5010    4.1240   -1.2750 S   0  0  0  0  0  0  0  0  0  0  0  0
    0.4040    2.9920   -0.3360 C   0  0  0  0  0  0  0  0  0  0  0  0
    1.1790    1.8450    0.2230 C   0  0  0  0  0  0  0  0  0  0  0  0
    0.3490    0.9200    1.0240 C   0  0  2  0  0  0  0  0  0  0  0  0
    1.1650   -0.1770    1.5820 N   0  0  0  0  0  0  0  0  0  0  0  0
   -0.7790    0.3730    0.2410 C   0  0  0  0  0  0  0  0  0  0  0  0
   -1.5650    1.0250   -0.4780 O   0  0  0  0  0  0  0  0  0  0  0  0
    1.3410    2.7200   -3.2760 H   0  0  0  0  0  0  0  0  0  0  0  0
    3.0080    2.7080   -2.4670 H   0  0  0  0  0  0  0  0  0  0  0  0
    2.4780    4.0880   -3.4590 H   0  0  0  0  0  0  0  0  0  0  0  0
   -0.4140    2.7520   -1.0040 H   0  0  0  0  0  0  0  0  0  0  0  0
   -0.0030    3.6280    0.4980 H   0  0  0  0  0  0  0  0  0  0  0  0
    2.0630    2.2410    0.7870 H   0  0  0  0  0  0  0  0  0  0  0  0
    1.5620    1.2670   -0.6710 H   0  0  0  0  0  0  0  0  0  0  0  0
   -0.0910    1.4120    1.9470 H   0  0  0  0  0  0  0  0  0  0  0  0
    1.9810   -0.4370    1.0090 H   0  0  0  0  0  0  0  0  0  0  0  0
   -1.0170   -1.0380    0.3040 N   0  0  0  0  0  0  0  0  0  0  0  0
   -2.0780   -1.6650   -0.4210 C   0  0  0  0  0  0  0  0  0  0  0  0
   -3.3990   -1.1190   -0.0200 C   0  0  0  0  0  0  0  0  0  0  0  0
   -4.4250   -1.5860   -0.5710 O   0  0  0  0  0  0  0  0  0  0  0  0
   -3.5650   -0.1220    0.9270 O   0  0  0  0  0  0  0  0  0  0  0  0
   -0.4050   -1.5860    0.9140 H   0  0  0  0  0  0  0  0  0  0  0  0
   -2.0860   -2.7460   -0.1770 H   0  0  0  0  0  0  0  0  0  0  0  0
   -1.8730   -1.5450   -1.5070 H   0  0  0  0  0  0  0  0  0  0  0  0
  1 11  1  0  0  0  0
  2 12  1  1  0  0  0
  2  1  1  0  0  0  0
  3 14  1  0  0  0  0
  3  2  1  0  0  0  0
  3 13  1  0  0  0  0
  4 15  1  0  0  0  0
  4 16  1  0  0  0  0
  4  3  1  0  0  0  0
  5  4  1  0  0  0  0
  6  5  2  0  0  0  0
  7  8  2  0  0  0  0
  7  2  1  0  0  0  0
  9  5  1  0  0  0  0
 10  1  1  0  0  0  0
 17  9  1  0  0  0  0
 18 27  1  0  0  0  0
 18 19  1  0  0  0  0
 19 20  1  0  0  0  0
 20 21  1  0  0  0  0
 20 30  1  0  0  0  0
 21 31  1  0  0  0  0
 21 22  1  0  0  0  0
 22 23  1  0  0  0  0
 22 33  1  1  0  0  0
 23  7  1  0  0  0  0
 24 35  1  0  0  0  0
 24 22  1  0  0  0  0
 25 24  2  0  0  0  0
 26 18  1  0  0  0  0
 28 18  1  0  0  0  0
 29 20  1  0  0  0  0
 32 21  1  0  0  0  0
 34 23  1  0  0  0  0
 35 40  1  0  0  0  0
 36 41  1  0  0  0  0
 36 37  1  0  0  0  0
 36 35  1  0  0  0  0
 37 39  1  0  0  0  0
 38 37  2  0  0  0  0
 42 36  1  0  0  0  0
M  END
$$$$
