EMI.pdb
 OpenBabel07022418193D

 54 53  0  0  1  0  0  0  0  0999 V2000
    3.4340   -2.4090    3.5400 N   0  0  0  0  0  0  0  0  0  0  0  0
    3.0190   -1.9850    2.1040 C   0  0  1  0  0  0  0  0  0  0  0  0
    2.9130   -3.2990    1.4310 C   0  0  0  0  0  0  0  0  0  0  0  0
    2.6360   -3.4350    0.0050 C   0  0  0  0  0  0  0  0  0  0  0  0
    1.3950   -2.9070   -0.5390 C   0  0  0  0  0  0  0  0  0  0  0  0
    1.4330   -1.8710   -1.2760 O   0  0  0  0  0  0  0  0  0  0  0  0
    1.8100   -1.2160    2.4150 C   0  0  0  0  0  0  0  0  0  0  0  0
    1.1760   -1.4350    3.5400 O   0  0  0  0  0  0  0  0  0  0  0  0
    0.1630   -3.4820   -0.2930 O   0  0  0  0  0  0  0  0  0  0  0  0
    2.6850   -3.0960    3.8000 H   0  0  0  0  0  0  0  0  0  0  0  0
    4.3740   -2.8460    3.4280 H   0  0  0  0  0  0  0  0  0  0  0  0
    3.8680   -1.3780    1.7960 H   0  0  0  0  0  0  0  0  0  0  0  0
    3.8490   -3.9330    1.6460 H   0  0  0  0  0  0  0  0  0  0  0  0
    2.1430   -3.9200    2.0350 H   0  0  0  0  0  0  0  0  0  0  0  0
    3.5140   -3.0450   -0.6360 H   0  0  0  0  0  0  0  0  0  0  0  0
    2.6510   -4.5390   -0.3230 H   0  0  0  0  0  0  0  0  0  0  0  0
   -0.5780   -3.4240   -0.9920 H   0  0  0  0  0  0  0  0  0  0  0  0
    3.9990    2.0480    1.3890 C   0  0  0  0  0  0  0  0  0  0  0  0
    3.1400    1.3940    2.8090 S   0  0  0  0  0  0  0  0  0  0  0  0
    1.5910    2.2060    3.1650 C   0  0  0  0  0  0  0  0  0  0  0  0
    0.5130    2.0190    2.1500 C   0  0  0  0  0  0  0  0  0  0  0  0
    0.1380    0.5290    1.9940 C   0  0  2  0  0  0  0  0  0  0  0  0
    1.2740   -0.2110    1.5690 N   0  0  0  0  0  0  0  0  0  0  0  0
   -1.1250    0.3960    1.3070 C   0  0  0  0  0  0  0  0  0  0  0  0
   -2.1270    1.1030    1.7530 O   0  0  0  0  0  0  0  0  0  0  0  0
    4.7850    2.7880    1.6430 H   0  0  0  0  0  0  0  0  0  0  0  0
    3.2800    2.4030    0.6410 H   0  0  0  0  0  0  0  0  0  0  0  0
    4.5500    1.1930    0.8960 H   0  0  0  0  0  0  0  0  0  0  0  0
    1.1960    1.9570    4.1890 H   0  0  0  0  0  0  0  0  0  0  0  0
    1.8000    3.3200    3.1800 H   0  0  0  0  0  0  0  0  0  0  0  0
   -0.4040    2.5120    2.5610 H   0  0  0  0  0  0  0  0  0  0  0  0
    0.8370    2.4570    1.2030 H   0  0  0  0  0  0  0  0  0  0  0  0
   -0.0650    0.2430    3.0890 H   0  0  0  0  0  0  0  0  0  0  0  0
    1.7340   -0.0230    0.6420 H   0  0  0  0  0  0  0  0  0  0  0  0
   -5.1660    0.8710   -1.8600 C   0  0  0  0  0  0  0  0  0  0  0  0
   -4.1950   -0.0960   -2.4560 C   0  0  0  0  0  0  0  0  0  0  0  0
   -2.8550   -0.1190   -1.8190 C   0  0  2  0  0  0  0  0  0  0  0  0
   -2.0250   -1.1700   -2.5730 C   0  0  0  0  0  0  0  0  0  0  0  0
   -2.8390   -0.3890   -0.3590 C   0  0  2  0  0  0  0  0  0  0  0  0
   -1.4870   -0.3930    0.1960 N   0  0  0  0  0  0  0  0  0  0  0  0
   -3.4330   -1.7200   -0.0770 C   0  0  0  0  0  0  0  0  0  0  0  0
   -4.5970   -2.0510   -0.4150 O   0  0  0  0  0  0  0  0  0  0  0  0
   -2.6870   -2.6900    0.6010 O   0  0  0  0  0  0  0  0  0  0  0  0
   -5.9480    1.0720   -2.6340 H   0  0  0  0  0  0  0  0  0  0  0  0
   -5.7330    0.4160   -0.9970 H   0  0  0  0  0  0  0  0  0  0  0  0
   -4.7370    1.8410   -1.5950 H   0  0  0  0  0  0  0  0  0  0  0  0
   -4.0430    0.2230   -3.5290 H   0  0  0  0  0  0  0  0  0  0  0  0
   -4.6800   -1.0840   -2.5210 H   0  0  0  0  0  0  0  0  0  0  0  0
   -2.3010    0.8450   -1.9970 H   0  0  0  0  0  0  0  0  0  0  0  0
   -2.2890   -1.0620   -3.6570 H   0  0  0  0  0  0  0  0  0  0  0  0
   -2.4270   -2.1620   -2.2670 H   0  0  0  0  0  0  0  0  0  0  0  0
   -0.9630   -1.0760   -2.3630 H   0  0  0  0  0  0  0  0  0  0  0  0
   -3.4870    0.3430    0.1580 H   0  0  0  0  0  0  0  0  0  0  0  0
   -0.7700   -0.9900   -0.2420 H   0  0  0  0  0  0  0  0  0  0  0  0
  1 10  1  0  0  0  0
  2 12  1  6  0  0  0
  2  7  1  0  0  0  0
  2  1  1  0  0  0  0
  3 13  1  0  0  0  0
  3 14  1  0  0  0  0
  3  2  1  0  0  0  0
  4  3  1  0  0  0  0
  5  9  1  0  0  0  0
  5  4  1  0  0  0  0
  6  5  2  0  0  0  0
  7  8  2  0  0  0  0
 11  1  1  0  0  0  0
 15  4  1  0  0  0  0
 16  4  1  0  0  0  0
 17  9  1  0  0  0  0
 18 26  1  0  0  0  0
 18 19  1  0  0  0  0
 19 20  1  0  0  0  0
 20 30  1  0  0  0  0
 20 29  1  0  0  0  0
 21 31  1  0  0  0  0
 21 20  1  0  0  0  0
 22 21  1  0  0  0  0
 22 33  1  1  0  0  0
 23 22  1  0  0  0  0
 23  7  1  0  0  0  0
 24 25  2  0  0  0  0
 24 22  1  0  0  0  0
 27 18  1  0  0  0  0
 28 18  1  0  0  0  0
 32 21  1  0  0  0  0
 34 23  1  0  0  0  0
 35 46  1  0  0  0  0
 35 45  1  0  0  0  0
 36 35  1  0  0  0  0
 36 37  1  0  0  0  0
 37 49  1  6  0  0  0
 37 39  1  0  0  0  0
 38 52  1  0  0  0  0
 38 51  1  0  0  0  0
 38 37  1  0  0  0  0
 39 41  1  0  0  0  0
 39 53  1  1  0  0  0
 39 40  1  0  0  0  0
 40 24  1  0  0  0  0
 41 43  1  0  0  0  0
 42 41  2  0  0  0  0
 44 35  1  0  0  0  0
 47 36  1  0  0  0  0
 48 36  1  0  0  0  0
 50 38  1  0  0  0  0
 54 40  1  0  0  0  0
M  END
$$$$
