EMK.pdb
 OpenBabel07022418193D

 56 55  0  0  1  0  0  0  0  0999 V2000
    1.1930   -1.8720    2.4400 N   0  0  0  0  0  0  0  0  0  0  0  0
    0.2460   -1.1530    3.2080 C   0  0  1  0  0  0  0  0  0  0  0  0
    0.7770   -0.7040    4.5330 C   0  0  0  0  0  0  0  0  0  0  0  0
    1.9510    0.2100    4.5240 C   0  0  0  0  0  0  0  0  0  0  0  0
    3.1990   -0.2930    3.9730 C   0  0  0  0  0  0  0  0  0  0  0  0
    3.4110   -1.4380    3.5720 O   0  0  0  0  0  0  0  0  0  0  0  0
   -0.3310    0.0440    2.4960 C   0  0  0  0  0  0  0  0  0  0  0  0
   -1.1050    0.7550    3.2190 O   0  0  0  0  0  0  0  0  0  0  0  0
    4.2860    0.6020    3.8820 O   0  0  0  0  0  0  0  0  0  0  0  0
    0.8010   -2.0300    1.4670 H   0  0  0  0  0  0  0  0  0  0  0  0
    1.2050   -2.8660    2.8360 H   0  0  0  0  0  0  0  0  0  0  0  0
   -0.6460   -1.8130    3.4280 H   0  0  0  0  0  0  0  0  0  0  0  0
   -0.0450   -0.1530    5.1020 H   0  0  0  0  0  0  0  0  0  0  0  0
    0.9660   -1.6130    5.1830 H   0  0  0  0  0  0  0  0  0  0  0  0
    1.6660    1.2050    4.0400 H   0  0  0  0  0  0  0  0  0  0  0  0
    2.1210    0.5250    5.6050 H   0  0  0  0  0  0  0  0  0  0  0  0
    5.1200    0.3320    3.3480 H   0  0  0  0  0  0  0  0  0  0  0  0
    3.6310    1.2570    0.5530 C   0  0  0  0  0  0  0  0  0  0  0  0
    2.3950    0.8850   -0.6760 S   0  0  0  0  0  0  0  0  0  0  0  0
    1.2300    2.1790   -1.0130 C   0  0  0  0  0  0  0  0  0  0  0  0
    0.2890    2.5590    0.0590 C   0  0  0  0  0  0  0  0  0  0  0  0
   -0.6470    1.5220    0.5610 C   0  0  2  0  0  0  0  0  0  0  0  0
   -0.0440    0.3580    1.1470 N   0  0  0  0  0  0  0  0  0  0  0  0
   -1.6360    1.1040   -0.5050 C   0  0  0  0  0  0  0  0  0  0  0  0
   -2.2530    2.0100   -1.0930 O   0  0  0  0  0  0  0  0  0  0  0  0
    4.6150    1.3730    0.0070 H   0  0  0  0  0  0  0  0  0  0  0  0
    3.7730    0.3490    1.2070 H   0  0  0  0  0  0  0  0  0  0  0  0
    3.4880    2.1780    1.1150 H   0  0  0  0  0  0  0  0  0  0  0  0
    1.8330    3.0690   -1.3740 H   0  0  0  0  0  0  0  0  0  0  0  0
    0.6570    1.8920   -1.9440 H   0  0  0  0  0  0  0  0  0  0  0  0
   -0.2670    3.4730   -0.3090 H   0  0  0  0  0  0  0  0  0  0  0  0
    0.8220    2.9650    0.9710 H   0  0  0  0  0  0  0  0  0  0  0  0
   -1.2430    2.0200    1.3890 H   0  0  0  0  0  0  0  0  0  0  0  0
    0.5810   -0.2380    0.5820 H   0  0  0  0  0  0  0  0  0  0  0  0
   -1.8840   -0.2370   -0.8560 N   0  0  0  0  0  0  0  0  0  0  0  0
   -2.8400   -0.6220   -1.8840 C   0  0  1  0  0  0  0  0  0  0  0  0
   -2.2460   -1.2840   -3.0680 C   0  0  0  0  0  0  0  0  0  0  0  0
   -1.4950   -2.5410   -2.8560 C   0  0  0  0  0  0  0  0  0  0  0  0
   -2.2350   -3.6900   -2.2690 C   0  0  0  0  0  0  0  0  0  0  0  0
   -1.2120   -4.8410   -2.1840 C   0  0  0  0  0  0  0  0  0  0  0  0
   -0.1000   -4.4300   -1.3350 N   0  0  0  0  0  0  0  0  0  0  0  0
   -3.9320   -1.4060   -1.3300 C   0  0  0  0  0  0  0  0  0  0  0  0
   -4.8150   -1.8500   -2.1370 O   0  0  0  0  0  0  0  0  0  0  0  0
   -4.1090   -1.7200    0.0100 O   0  0  0  0  0  0  0  0  0  0  0  0
   -1.3670   -0.9970   -0.3660 H   0  0  0  0  0  0  0  0  0  0  0  0
   -3.3360    0.3310   -2.2910 H   0  0  0  0  0  0  0  0  0  0  0  0
   -1.5380   -0.5520   -3.5330 H   0  0  0  0  0  0  0  0  0  0  0  0
   -3.0710   -1.4930   -3.7910 H   0  0  0  0  0  0  0  0  0  0  0  0
   -0.5640   -2.4120   -2.2580 H   0  0  0  0  0  0  0  0  0  0  0  0
   -1.1260   -2.8710   -3.8640 H   0  0  0  0  0  0  0  0  0  0  0  0
   -2.5500   -3.5430   -1.2190 H   0  0  0  0  0  0  0  0  0  0  0  0
   -3.0650   -4.0540   -2.9160 H   0  0  0  0  0  0  0  0  0  0  0  0
   -1.6690   -5.7660   -1.8170 H   0  0  0  0  0  0  0  0  0  0  0  0
   -0.7770   -5.0490   -3.1910 H   0  0  0  0  0  0  0  0  0  0  0  0
   -0.3570   -4.5870   -0.3260 H   0  0  0  0  0  0  0  0  0  0  0  0
    0.7780   -4.9210   -1.5640 H   0  0  0  0  0  0  0  0  0  0  0  0
  1 11  1  0  0  0  0
  1  2  1  0  0  0  0
  2 12  1  1  0  0  0
  2  3  1  0  0  0  0
  3 13  1  0  0  0  0
  3 14  1  0  0  0  0
  4  3  1  0  0  0  0
  4 16  1  0  0  0  0
  5  4  1  0  0  0  0
  6  5  2  0  0  0  0
  7  2  1  0  0  0  0
  7  8  2  0  0  0  0
  9  5  1  0  0  0  0
 10  1  1  0  0  0  0
 15  4  1  0  0  0  0
 17  9  1  0  0  0  0
 18 28  1  0  0  0  0
 18 27  1  0  0  0  0
 19 18  1  0  0  0  0
 20 19  1  0  0  0  0
 20 21  1  0  0  0  0
 21 22  1  0  0  0  0
 21 32  1  0  0  0  0
 22 23  1  0  0  0  0
 22 33  1  1  0  0  0
 23  7  1  0  0  0  0
 24 22  1  0  0  0  0
 25 24  2  0  0  0  0
 26 18  1  0  0  0  0
 29 20  1  0  0  0  0
 30 20  1  0  0  0  0
 31 21  1  0  0  0  0
 34 23  1  0  0  0  0
 35 24  1  0  0  0  0
 35 45  1  0  0  0  0
 36 46  1  6  0  0  0
 36 42  1  0  0  0  0
 36 35  1  0  0  0  0
 37 38  1  0  0  0  0
 37 36  1  0  0  0  0
 38 39  1  0  0  0  0
 38 49  1  0  0  0  0
 39 40  1  0  0  0  0
 39 51  1  0  0  0  0
 40 53  1  0  0  0  0
 40 41  1  0  0  0  0
 41 55  1  0  0  0  0
 42 44  1  0  0  0  0
 43 42  2  0  0  0  0
 47 37  1  0  0  0  0
 48 37  1  0  0  0  0
 50 38  1  0  0  0  0
 52 39  1  0  0  0  0
 54 40  1  0  0  0  0
 56 41  1  0  0  0  0
M  END
$$$$
