EML.pdb
 OpenBabel07022418193D

 54 53  0  0  1  0  0  0  0  0999 V2000
   -0.4240   -3.4570    3.4240 N   0  0  0  0  0  0  0  0  0  0  0  0
    0.9090   -3.0290    3.1050 C   0  0  1  0  0  0  0  0  0  0  0  0
    1.4970   -3.7110    1.9040 C   0  0  0  0  0  0  0  0  0  0  0  0
    2.9060   -3.2000    1.6810 C   0  0  0  0  0  0  0  0  0  0  0  0
    3.5280   -3.8380    0.4960 C   0  0  0  0  0  0  0  0  0  0  0  0
    4.6950   -3.5640    0.1270 O   0  0  0  0  0  0  0  0  0  0  0  0
    0.8950   -1.5470    2.9810 C   0  0  0  0  0  0  0  0  0  0  0  0
    0.8880   -0.8210    4.0220 O   0  0  0  0  0  0  0  0  0  0  0  0
    2.7960   -4.7640   -0.2240 O   0  0  0  0  0  0  0  0  0  0  0  0
   -0.7730   -4.1600    2.7350 H   0  0  0  0  0  0  0  0  0  0  0  0
   -0.4430   -3.8160    4.3840 H   0  0  0  0  0  0  0  0  0  0  0  0
    1.6090   -3.2470    3.9610 H   0  0  0  0  0  0  0  0  0  0  0  0
    1.4900   -4.8010    2.0060 H   0  0  0  0  0  0  0  0  0  0  0  0
    0.9050   -3.4640    0.9860 H   0  0  0  0  0  0  0  0  0  0  0  0
    2.9740   -2.1040    1.6500 H   0  0  0  0  0  0  0  0  0  0  0  0
    3.5440   -3.4940    2.5660 H   0  0  0  0  0  0  0  0  0  0  0  0
    3.0880   -4.9160   -1.2010 H   0  0  0  0  0  0  0  0  0  0  0  0
    5.1230    2.3340    0.6460 C   0  0  0  0  0  0  0  0  0  0  0  0
    3.6900    2.7690   -0.3780 S   0  0  0  0  0  0  0  0  0  0  0  0
    2.1510    2.4850    0.5870 C   0  0  0  0  0  0  0  0  0  0  0  0
    2.0660    1.0130    0.8060 C   0  0  0  0  0  0  0  0  0  0  0  0
    0.8780    0.5500    1.5850 C   0  0  2  0  0  0  0  0  0  0  0  0
    0.8880   -0.8890    1.7440 N   0  0  0  0  0  0  0  0  0  0  0  0
   -0.4280    0.9440    1.0110 C   0  0  0  0  0  0  0  0  0  0  0  0
   -0.7710    2.1270    0.7530 O   0  0  0  0  0  0  0  0  0  0  0  0
    5.8970    3.1160    0.5630 H   0  0  0  0  0  0  0  0  0  0  0  0
    5.5000    1.3290    0.3130 H   0  0  0  0  0  0  0  0  0  0  0  0
    4.8250    2.1940    1.7190 H   0  0  0  0  0  0  0  0  0  0  0  0
    1.2890    2.9390    0.0770 H   0  0  0  0  0  0  0  0  0  0  0  0
    2.2960    3.0580    1.5260 H   0  0  0  0  0  0  0  0  0  0  0  0
    2.0800    0.4460   -0.1490 H   0  0  0  0  0  0  0  0  0  0  0  0
    2.9690    0.7420    1.4310 H   0  0  0  0  0  0  0  0  0  0  0  0
    0.9020    1.0200    2.6070 H   0  0  0  0  0  0  0  0  0  0  0  0
    0.8800   -1.4300    0.8350 H   0  0  0  0  0  0  0  0  0  0  0  0
   -3.9400   -0.9590   -3.3050 C   0  0  0  0  0  0  0  0  0  0  0  0
   -3.9910   -0.2200   -1.9730 C   0  0  0  0  0  0  0  0  0  0  0  0
   -4.1120    1.2630   -2.3490 C   0  0  0  0  0  0  0  0  0  0  0  0
   -2.7370   -0.4200   -1.1850 C   0  0  0  0  0  0  0  0  0  0  0  0
   -2.7050    0.2820    0.1460 C   0  0  2  0  0  0  0  0  0  0  0  0
   -1.3840   -0.0580    0.7200 N   0  0  0  0  0  0  0  0  0  0  0  0
   -3.7460   -0.2150    1.0610 C   0  0  0  0  0  0  0  0  0  0  0  0
   -3.4260   -0.8560    2.1140 O   0  0  0  0  0  0  0  0  0  0  0  0
   -5.0810    0.0070    0.7890 O   0  0  0  0  0  0  0  0  0  0  0  0
   -2.8940   -0.9420   -3.6480 H   0  0  0  0  0  0  0  0  0  0  0  0
   -4.6170   -0.4390   -3.9920 H   0  0  0  0  0  0  0  0  0  0  0  0
   -4.2630   -2.0230   -3.1680 H   0  0  0  0  0  0  0  0  0  0  0  0
   -4.9080   -0.4840   -1.4350 H   0  0  0  0  0  0  0  0  0  0  0  0
   -5.0010    1.4230   -3.0020 H   0  0  0  0  0  0  0  0  0  0  0  0
   -3.2170    1.5070   -2.9620 H   0  0  0  0  0  0  0  0  0  0  0  0
   -4.1140    1.9140   -1.4530 H   0  0  0  0  0  0  0  0  0  0  0  0
   -2.5660   -1.5130   -1.0920 H   0  0  0  0  0  0  0  0  0  0  0  0
   -1.8400   -0.0440   -1.7560 H   0  0  0  0  0  0  0  0  0  0  0  0
   -2.7910    1.3610   -0.0050 H   0  0  0  0  0  0  0  0  0  0  0  0
   -1.2240   -1.0740    0.8860 H   0  0  0  0  0  0  0  0  0  0  0  0
  1 11  1  0  0  0  0
  2  1  1  0  0  0  0
  2 12  1  1  0  0  0
  3 13  1  0  0  0  0
  3  2  1  0  0  0  0
  4  3  1  0  0  0  0
  4 16  1  0  0  0  0
  5  4  1  0  0  0  0
  6  5  2  0  0  0  0
  7  2  1  0  0  0  0
  7  8  2  0  0  0  0
  9  5  1  0  0  0  0
 10  1  1  0  0  0  0
 14  3  1  0  0  0  0
 15  4  1  0  0  0  0
 17  9  1  0  0  0  0
 18 28  1  0  0  0  0
 19 20  1  0  0  0  0
 19 18  1  0  0  0  0
 20 21  1  0  0  0  0
 20 30  1  0  0  0  0
 21 32  1  0  0  0  0
 21 22  1  0  0  0  0
 22 23  1  0  0  0  0
 22 33  1  1  0  0  0
 23  7  1  0  0  0  0
 24 22  1  0  0  0  0
 25 24  2  0  0  0  0
 26 18  1  0  0  0  0
 27 18  1  0  0  0  0
 29 20  1  0  0  0  0
 31 21  1  0  0  0  0
 34 23  1  0  0  0  0
 35 46  1  0  0  0  0
 35 36  1  0  0  0  0
 36 47  1  0  0  0  0
 36 38  1  0  0  0  0
 37 36  1  0  0  0  0
 37 50  1  0  0  0  0
 38 51  1  0  0  0  0
 38 39  1  0  0  0  0
 39 53  1  6  0  0  0
 39 40  1  0  0  0  0
 39 41  1  0  0  0  0
 40 54  1  0  0  0  0
 40 24  1  0  0  0  0
 41 42  1  0  0  0  0
 43 41  2  0  0  0  0
 44 35  1  0  0  0  0
 45 35  1  0  0  0  0
 48 37  1  0  0  0  0
 49 37  1  0  0  0  0
 52 38  1  0  0  0  0
M  END
$$$$
