EMM.pdb
 OpenBabel07022418193D

 52 51  0  0  1  0  0  0  0  0999 V2000
    1.6550   -3.5700   -0.4230 N   0  0  0  0  0  0  0  0  0  0  0  0
    2.2440   -2.1900   -0.4220 C   0  0  1  0  0  0  0  0  0  0  0  0
    1.8380   -1.6050   -1.7190 C   0  0  0  0  0  0  0  0  0  0  0  0
    2.3100   -0.2490   -2.0790 C   0  0  0  0  0  0  0  0  0  0  0  0
    1.9380    0.8900   -1.2450 C   0  0  0  0  0  0  0  0  0  0  0  0
    2.8290    1.6420   -0.7200 O   0  0  0  0  0  0  0  0  0  0  0  0
    1.6430   -1.5880    0.7980 C   0  0  0  0  0  0  0  0  0  0  0  0
    2.0000   -0.4610    1.1550 O   0  0  0  0  0  0  0  0  0  0  0  0
    0.6210    1.2100   -0.9850 O   0  0  0  0  0  0  0  0  0  0  0  0
    0.6540   -3.4530   -0.6240 H   0  0  0  0  0  0  0  0  0  0  0  0
    1.8940   -4.0600    0.4450 H   0  0  0  0  0  0  0  0  0  0  0  0
    3.3160   -2.2800   -0.2630 H   0  0  0  0  0  0  0  0  0  0  0  0
    0.7100   -1.7060   -1.8820 H   0  0  0  0  0  0  0  0  0  0  0  0
    2.2190   -2.2840   -2.5610 H   0  0  0  0  0  0  0  0  0  0  0  0
    1.9540   -0.0790   -3.1510 H   0  0  0  0  0  0  0  0  0  0  0  0
    3.4510   -0.2620   -2.2300 H   0  0  0  0  0  0  0  0  0  0  0  0
    0.3410    2.1790   -0.7820 H   0  0  0  0  0  0  0  0  0  0  0  0
    4.5380   -1.6460    2.6000 C   0  0  0  0  0  0  0  0  0  0  0  0
    3.2570   -2.7060    3.3110 S   0  0  0  0  0  0  0  0  0  0  0  0
    2.1040   -1.8520    4.3420 C   0  0  0  0  0  0  0  0  0  0  0  0
    1.1150   -0.9400    3.7150 C   0  0  0  0  0  0  0  0  0  0  0  0
    0.1450   -1.5910    2.7690 C   0  0  2  0  0  0  0  0  0  0  0  0
    0.6650   -2.2220    1.6110 N   0  0  0  0  0  0  0  0  0  0  0  0
   -1.0670   -0.8010    2.4900 C   0  0  0  0  0  0  0  0  0  0  0  0
   -1.6200   -0.1370    3.4420 O   0  0  0  0  0  0  0  0  0  0  0  0
    4.2760   -0.5550    2.6720 H   0  0  0  0  0  0  0  0  0  0  0  0
    4.7760   -1.8560    1.5600 H   0  0  0  0  0  0  0  0  0  0  0  0
    5.4990   -1.7270    3.1730 H   0  0  0  0  0  0  0  0  0  0  0  0
    2.6820   -1.2370    5.0850 H   0  0  0  0  0  0  0  0  0  0  0  0
    1.5970   -2.6200    5.0080 H   0  0  0  0  0  0  0  0  0  0  0  0
    1.5650    0.0010    3.3450 H   0  0  0  0  0  0  0  0  0  0  0  0
    0.4580   -0.5800    4.5790 H   0  0  0  0  0  0  0  0  0  0  0  0
   -0.2780   -2.4480    3.4680 H   0  0  0  0  0  0  0  0  0  0  0  0
    0.3330   -3.1920    1.3220 H   0  0  0  0  0  0  0  0  0  0  0  0
   -4.5060    0.8890   -2.8510 C   0  0  0  0  0  0  0  0  0  0  0  0
   -4.9050    1.5920   -1.2490 S   0  0  0  0  0  0  0  0  0  0  0  0
   -3.4820    2.1880   -0.3590 C   0  0  0  0  0  0  0  0  0  0  0  0
   -2.5070    1.1700    0.0770 C   0  0  0  0  0  0  0  0  0  0  0  0
   -2.9380    0.1230    1.0510 C   0  0  2  0  0  0  0  0  0  0  0  0
   -1.7020   -0.7000    1.2490 N   0  0  0  0  0  0  0  0  0  0  0  0
   -4.0430   -0.7460    0.6780 C   0  0  0  0  0  0  0  0  0  0  0  0
   -5.2110   -0.3330    0.5810 O   0  0  0  0  0  0  0  0  0  0  0  0
   -3.8630   -2.1180    0.4010 O   0  0  0  0  0  0  0  0  0  0  0  0
   -4.1880    1.6290   -3.6090 H   0  0  0  0  0  0  0  0  0  0  0  0
   -5.4360    0.4180   -3.2480 H   0  0  0  0  0  0  0  0  0  0  0  0
   -3.7750    0.0370   -2.7700 H   0  0  0  0  0  0  0  0  0  0  0  0
   -2.9670    2.9380   -1.0410 H   0  0  0  0  0  0  0  0  0  0  0  0
   -3.8110    2.8520    0.5000 H   0  0  0  0  0  0  0  0  0  0  0  0
   -2.0410    0.6480   -0.8170 H   0  0  0  0  0  0  0  0  0  0  0  0
   -1.5960    1.6630    0.5510 H   0  0  0  0  0  0  0  0  0  0  0  0
   -3.1280    0.6290    2.0390 H   0  0  0  0  0  0  0  0  0  0  0  0
   -1.3370   -1.1920    0.4180 H   0  0  0  0  0  0  0  0  0  0  0  0
  1  2  1  0  0  0  0
  1 11  1  0  0  0  0
  2 12  1  1  0  0  0
  2  7  1  0  0  0  0
  3  2  1  0  0  0  0
  4  3  1  0  0  0  0
  4  5  1  0  0  0  0
  5  9  1  0  0  0  0
  5  6  2  0  0  0  0
  7  8  2  0  0  0  0
  7 23  1  0  0  0  0
  9 17  1  0  0  0  0
 10  1  1  0  0  0  0
 13  3  1  0  0  0  0
 14  3  1  0  0  0  0
 15  4  1  0  0  0  0
 16  4  1  0  0  0  0
 18 26  1  0  0  0  0
 18 28  1  0  0  0  0
 18 19  1  0  0  0  0
 19 20  1  0  0  0  0
 20 30  1  0  0  0  0
 20 29  1  0  0  0  0
 21 20  1  0  0  0  0
 21 32  1  0  0  0  0
 22 33  1  1  0  0  0
 22 21  1  0  0  0  0
 23 22  1  0  0  0  0
 24 22  1  0  0  0  0
 24 25  2  0  0  0  0
 27 18  1  0  0  0  0
 31 21  1  0  0  0  0
 34 23  1  0  0  0  0
 35 46  1  0  0  0  0
 35 36  1  0  0  0  0
 36 37  1  0  0  0  0
 37 38  1  0  0  0  0
 37 48  1  0  0  0  0
 38 50  1  0  0  0  0
 38 39  1  0  0  0  0
 39 40  1  0  0  0  0
 39 51  1  1  0  0  0
 40 24  1  0  0  0  0
 41 39  1  0  0  0  0
 42 41  1  0  0  0  0
 43 41  2  0  0  0  0
 44 35  1  0  0  0  0
 45 35  1  0  0  0  0
 47 37  1  0  0  0  0
 49 38  1  0  0  0  0
 52 40  1  0  0  0  0
M  END
$$$$
