EMP.pdb
 OpenBabel07022418193D

 49 49  0  0  1  0  0  0  0  0999 V2000
   -0.4690   -3.8880    1.2450 N   0  0  0  0  0  0  0  0  0  0  0  0
    0.8790   -3.3400    1.3420 C   0  0  1  0  0  0  0  0  0  0  0  0
    1.4710   -3.3930   -0.0540 C   0  0  0  0  0  0  0  0  0  0  0  0
    2.8870   -2.8670   -0.1150 C   0  0  0  0  0  0  0  0  0  0  0  0
    3.3850   -2.9410   -1.5200 C   0  0  0  0  0  0  0  0  0  0  0  0
    2.6390   -2.4590   -2.4390 O   0  0  0  0  0  0  0  0  0  0  0  0
    0.8470   -1.9510    1.8640 C   0  0  0  0  0  0  0  0  0  0  0  0
    1.2740   -1.7710    3.0280 O   0  0  0  0  0  0  0  0  0  0  0  0
    4.5880   -3.4930   -1.9170 O   0  0  0  0  0  0  0  0  0  0  0  0
   -0.7440   -4.0540    0.2770 H   0  0  0  0  0  0  0  0  0  0  0  0
   -0.5140   -4.7010    1.8900 H   0  0  0  0  0  0  0  0  0  0  0  0
    1.4760   -4.0010    1.9820 H   0  0  0  0  0  0  0  0  0  0  0  0
    0.7930   -2.9450   -0.7750 H   0  0  0  0  0  0  0  0  0  0  0  0
    1.5530   -4.4990   -0.2790 H   0  0  0  0  0  0  0  0  0  0  0  0
    2.9230   -1.7910    0.1800 H   0  0  0  0  0  0  0  0  0  0  0  0
    3.5970   -3.4210    0.5170 H   0  0  0  0  0  0  0  0  0  0  0  0
    4.6240   -4.0880   -2.7640 H   0  0  0  0  0  0  0  0  0  0  0  0
    4.2850    2.6930    0.1390 C   0  0  0  0  0  0  0  0  0  0  0  0
    2.6380    3.4020   -0.1100 S   0  0  0  0  0  0  0  0  0  0  0  0
    1.4320    2.7010    1.0900 C   0  0  0  0  0  0  0  0  0  0  0  0
    1.2810    1.2700    0.7470 C   0  0  0  0  0  0  0  0  0  0  0  0
    0.3190    0.4740    1.6040 C   0  0  2  0  0  0  0  0  0  0  0  0
    0.3550   -0.8700    1.0760 N   0  0  0  0  0  0  0  0  0  0  0  0
   -0.9720    1.0900    1.7660 C   0  0  0  0  0  0  0  0  0  0  0  0
   -0.9900    2.2580    2.2740 O   0  0  0  0  0  0  0  0  0  0  0  0
    5.0180    3.4450   -0.2540 H   0  0  0  0  0  0  0  0  0  0  0  0
    4.5200    2.5660    1.2150 H   0  0  0  0  0  0  0  0  0  0  0  0
    4.4370    1.7460   -0.3820 H   0  0  0  0  0  0  0  0  0  0  0  0
    0.5530    3.3390    0.9960 H   0  0  0  0  0  0  0  0  0  0  0  0
    1.9620    2.7980    2.0840 H   0  0  0  0  0  0  0  0  0  0  0  0
    1.0040    1.1680   -0.3310 H   0  0  0  0  0  0  0  0  0  0  0  0
    2.3030    0.8030    0.8400 H   0  0  0  0  0  0  0  0  0  0  0  0
    0.7950    0.4150    2.6360 H   0  0  0  0  0  0  0  0  0  0  0  0
    0.0420   -1.0750    0.0810 H   0  0  0  0  0  0  0  0  0  0  0  0
   -2.2300    0.5370    1.4180 N   0  0  0  0  0  0  0  0  0  0  0  0
   -3.5020    1.2720    1.5940 C   0  0  0  0  0  0  0  0  0  0  0  0
   -4.6120    0.3160    1.2740 C   0  0  0  0  0  0  0  0  0  0  0  0
   -3.9830   -1.0580    1.4080 C   0  0  0  0  0  0  0  0  0  0  0  0
   -2.5710   -0.7380    0.8570 C   0  0  1  0  0  0  0  0  0  0  0  0
   -2.7150   -0.6970   -0.6180 C   0  0  0  0  0  0  0  0  0  0  0  0
   -2.9530   -1.7650   -1.2230 O   0  0  0  0  0  0  0  0  0  0  0  0
   -2.5870    0.4790   -1.2860 O   0  0  0  0  0  0  0  0  0  0  0  0
   -3.5850    1.6250    2.6400 H   0  0  0  0  0  0  0  0  0  0  0  0
   -3.5530    2.1280    0.8730 H   0  0  0  0  0  0  0  0  0  0  0  0
   -5.5120    0.4140    1.9010 H   0  0  0  0  0  0  0  0  0  0  0  0
   -4.9830    0.3950    0.2170 H   0  0  0  0  0  0  0  0  0  0  0  0
   -4.4480   -1.7790    0.7370 H   0  0  0  0  0  0  0  0  0  0  0  0
   -3.9530   -1.3700    2.4500 H   0  0  0  0  0  0  0  0  0  0  0  0
   -1.9010   -1.5180    1.2370 H   0  0  0  0  0  0  0  0  0  0  0  0
  1  2  1  0  0  0  0
  1 11  1  0  0  0  0
  2  7  1  0  0  0  0
  2 12  1  1  0  0  0
  3  2  1  0  0  0  0
  4  3  1  0  0  0  0
  4 15  1  0  0  0  0
  4 16  1  0  0  0  0
  5  4  1  0  0  0  0
  6  5  2  0  0  0  0
  7  8  2  0  0  0  0
  9  5  1  0  0  0  0
 10  1  1  0  0  0  0
 13  3  1  0  0  0  0
 14  3  1  0  0  0  0
 17  9  1  0  0  0  0
 18 27  1  0  0  0  0
 19 18  1  0  0  0  0
 19 20  1  0  0  0  0
 20 30  1  0  0  0  0
 21 32  1  0  0  0  0
 21 20  1  0  0  0  0
 21 22  1  0  0  0  0
 22 24  1  0  0  0  0
 22 33  1  1  0  0  0
 23 22  1  0  0  0  0
 23  7  1  0  0  0  0
 24 25  2  0  0  0  0
 26 18  1  0  0  0  0
 28 18  1  0  0  0  0
 29 20  1  0  0  0  0
 31 21  1  0  0  0  0
 34 23  1  0  0  0  0
 35 36  1  0  0  0  0
 35 24  1  0  0  0  0
 36 43  1  0  0  0  0
 37 38  1  0  0  0  0
 37 36  1  0  0  0  0
 37 45  1  0  0  0  0
 38 48  1  0  0  0  0
 39 49  1  1  0  0  0
 39 38  1  0  0  0  0
 39 35  1  0  0  0  0
 40 39  1  0  0  0  0
 41 40  1  0  0  0  0
 42 40  2  0  0  0  0
 44 36  1  0  0  0  0
 46 37  1  0  0  0  0
 47 38  1  0  0  0  0
M  END
$$$$
