EMR.pdb
 OpenBabel07022418193D

 58 57  0  0  1  0  0  0  0  0999 V2000
    2.9910   -0.9150    1.8780 N   0  0  0  0  0  0  0  0  0  0  0  0
    2.4470   -0.5520    3.1760 C   0  0  1  0  0  0  0  0  0  0  0  0
    3.1310    0.7310    3.5720 C   0  0  0  0  0  0  0  0  0  0  0  0
    4.6150    0.6340    3.6790 C   0  0  0  0  0  0  0  0  0  0  0  0
    5.0050   -0.3430    4.7090 C   0  0  0  0  0  0  0  0  0  0  0  0
    4.1670   -0.9520    5.4000 O   0  0  0  0  0  0  0  0  0  0  0  0
    0.9800   -0.2120    3.0370 C   0  0  0  0  0  0  0  0  0  0  0  0
    0.3010    0.1160    4.0410 O   0  0  0  0  0  0  0  0  0  0  0  0
    6.3540   -0.6430    4.9700 O   0  0  0  0  0  0  0  0  0  0  0  0
    2.9000   -0.0940    1.2580 H   0  0  0  0  0  0  0  0  0  0  0  0
    2.5250   -1.7710    1.5160 H   0  0  0  0  0  0  0  0  0  0  0  0
    2.4850   -1.3490    3.9100 H   0  0  0  0  0  0  0  0  0  0  0  0
    2.9110    1.4940    2.7750 H   0  0  0  0  0  0  0  0  0  0  0  0
    2.7010    1.1560    4.5030 H   0  0  0  0  0  0  0  0  0  0  0  0
    5.0470    1.6260    3.9900 H   0  0  0  0  0  0  0  0  0  0  0  0
    5.0760    0.3560    2.6930 H   0  0  0  0  0  0  0  0  0  0  0  0
    6.6240   -1.2550    5.7180 H   0  0  0  0  0  0  0  0  0  0  0  0
   -0.1450    3.5540   -1.5430 C   0  0  0  0  0  0  0  0  0  0  0  0
   -0.9420    3.8770    0.0420 S   0  0  0  0  0  0  0  0  0  0  0  0
   -0.6340    2.4970    1.1790 C   0  0  0  0  0  0  0  0  0  0  0  0
   -1.3100    1.2310    0.6980 C   0  0  0  0  0  0  0  0  0  0  0  0
   -1.0640    0.0710    1.6300 C   0  0  2  0  0  0  0  0  0  0  0  0
    0.3230   -0.2490    1.7790 N   0  0  0  0  0  0  0  0  0  0  0  0
   -1.7770   -1.1040    1.0760 C   0  0  0  0  0  0  0  0  0  0  0  0
   -3.0190   -1.0600    0.8450 O   0  0  0  0  0  0  0  0  0  0  0  0
   -0.9400    3.6580   -2.3310 H   0  0  0  0  0  0  0  0  0  0  0  0
    0.2850    2.5240   -1.5780 H   0  0  0  0  0  0  0  0  0  0  0  0
    0.6950    4.2410   -1.7500 H   0  0  0  0  0  0  0  0  0  0  0  0
    0.4790    2.3580    1.2040 H   0  0  0  0  0  0  0  0  0  0  0  0
   -1.0150    2.8170    2.1700 H   0  0  0  0  0  0  0  0  0  0  0  0
   -2.3960    1.4430    0.6360 H   0  0  0  0  0  0  0  0  0  0  0  0
   -0.9550    0.9590   -0.3130 H   0  0  0  0  0  0  0  0  0  0  0  0
   -1.5460    0.3420    2.5980 H   0  0  0  0  0  0  0  0  0  0  0  0
    0.9220   -0.5260    0.9650 H   0  0  0  0  0  0  0  0  0  0  0  0
   -2.9940    0.2280   -4.9380 N   0  0  0  0  0  0  0  0  0  0  0  0
   -3.1900   -1.0420   -4.3060 C   0  0  0  0  0  0  0  0  0  0  0  0
   -4.3010   -1.6520   -4.3390 N   0  0  0  0  0  0  0  0  0  0  0  0
   -2.0820   -1.6150   -3.6230 N   0  0  0  0  0  0  0  0  0  0  0  0
   -2.2580   -2.5910   -2.5550 C   0  0  0  0  0  0  0  0  0  0  0  0
   -0.8890   -2.9780   -2.0660 C   0  0  0  0  0  0  0  0  0  0  0  0
   -0.9280   -3.9860   -0.9530 C   0  0  0  0  0  0  0  0  0  0  0  0
   -1.6760   -3.4850    0.2580 C   0  0  2  0  0  0  0  0  0  0  0  0
   -1.0680   -2.2840    0.8020 N   0  0  0  0  0  0  0  0  0  0  0  0
   -1.5950   -4.5700    1.2900 C   0  0  0  0  0  0  0  0  0  0  0  0
   -2.0520   -5.7210    1.0740 O   0  0  0  0  0  0  0  0  0  0  0  0
   -1.0110   -4.3590    2.5370 O   0  0  0  0  0  0  0  0  0  0  0  0
   -2.4000    0.9490   -4.4890 H   0  0  0  0  0  0  0  0  0  0  0  0
   -3.4400    0.4570   -5.8600 H   0  0  0  0  0  0  0  0  0  0  0  0
   -4.4050   -2.5690   -3.8700 H   0  0  0  0  0  0  0  0  0  0  0  0
   -1.1350   -1.3030   -3.9230 H   0  0  0  0  0  0  0  0  0  0  0  0
   -2.9210   -2.2210   -1.7490 H   0  0  0  0  0  0  0  0  0  0  0  0
   -2.7780   -3.4550   -3.0180 H   0  0  0  0  0  0  0  0  0  0  0  0
   -0.2830   -2.1180   -1.7590 H   0  0  0  0  0  0  0  0  0  0  0  0
   -0.3650   -3.4600   -2.9230 H   0  0  0  0  0  0  0  0  0  0  0  0
    0.1090   -4.1830   -0.6340 H   0  0  0  0  0  0  0  0  0  0  0  0
   -1.3340   -4.9480   -1.3120 H   0  0  0  0  0  0  0  0  0  0  0  0
   -2.7340   -3.2870    0.1010 H   0  0  0  0  0  0  0  0  0  0  0  0
   -0.0470   -2.3150    0.9950 H   0  0  0  0  0  0  0  0  0  0  0  0
  1  2  1  0  0  0  0
  2  3  1  0  0  0  0
  2 12  1  1  0  0  0
  3  4  1  0  0  0  0
  3 14  1  0  0  0  0
  4 15  1  0  0  0  0
  4  5  1  0  0  0  0
  5  9  1  0  0  0  0
  5  6  2  0  0  0  0
  7  2  1  0  0  0  0
  7  8  2  0  0  0  0
  9 17  1  0  0  0  0
 10  1  1  0  0  0  0
 11  1  1  0  0  0  0
 13  3  1  0  0  0  0
 16  4  1  0  0  0  0
 18 19  1  0  0  0  0
 19 20  1  0  0  0  0
 20 29  1  0  0  0  0
 20 30  1  0  0  0  0
 21 20  1  0  0  0  0
 21 22  1  0  0  0  0
 22 23  1  0  0  0  0
 22 33  1  1  0  0  0
 23  7  1  0  0  0  0
 24 22  1  0  0  0  0
 25 24  2  0  0  0  0
 26 18  1  0  0  0  0
 27 18  1  0  0  0  0
 28 18  1  0  0  0  0
 31 21  1  0  0  0  0
 32 21  1  0  0  0  0
 34 23  1  0  0  0  0
 35 47  1  0  0  0  0
 35 36  1  0  0  0  0
 36 38  1  0  0  0  0
 37 36  2  0  0  0  0
 37 49  1  0  0  0  0
 38 39  1  0  0  0  0
 39 40  1  0  0  0  0
 39 51  1  0  0  0  0
 40 53  1  0  0  0  0
 40 41  1  0  0  0  0
 41 55  1  0  0  0  0
 41 42  1  0  0  0  0
 42 57  1  6  0  0  0
 42 43  1  0  0  0  0
 42 44  1  0  0  0  0
 43 58  1  0  0  0  0
 43 24  1  0  0  0  0
 44 46  1  0  0  0  0
 45 44  2  0  0  0  0
 48 35  1  0  0  0  0
 50 38  1  0  0  0  0
 52 39  1  0  0  0  0
 54 40  1  0  0  0  0
 56 41  1  0  0  0  0
M  END
$$$$
