EMS.pdb
 OpenBabel07022418193D

 46 45  0  0  1  0  0  0  0  0999 V2000
    0.9930   -3.6300    1.8490 N   0  0  0  0  0  0  0  0  0  0  0  0
    0.7950   -2.3760    2.5780 C   0  0  1  0  0  0  0  0  0  0  0  0
    2.0910   -2.0500    3.2590 C   0  0  0  0  0  0  0  0  0  0  0  0
    3.1720   -1.9090    2.2470 C   0  0  0  0  0  0  0  0  0  0  0  0
    4.4910   -1.5920    2.8410 C   0  0  0  0  0  0  0  0  0  0  0  0
    4.6890   -1.4540    4.0720 O   0  0  0  0  0  0  0  0  0  0  0  0
    0.3890   -1.3280    1.6090 C   0  0  0  0  0  0  0  0  0  0  0  0
    0.2040   -1.6280    0.3760 O   0  0  0  0  0  0  0  0  0  0  0  0
    5.5690   -1.4400    1.9850 O   0  0  0  0  0  0  0  0  0  0  0  0
    0.9240   -4.4580    2.4480 H   0  0  0  0  0  0  0  0  0  0  0  0
    0.4440   -3.6650    0.9760 H   0  0  0  0  0  0  0  0  0  0  0  0
   -0.0290   -2.5380    3.3380 H   0  0  0  0  0  0  0  0  0  0  0  0
    2.3000   -2.9230    3.9460 H   0  0  0  0  0  0  0  0  0  0  0  0
    2.0090   -1.1810    3.9450 H   0  0  0  0  0  0  0  0  0  0  0  0
    3.1920   -2.8480    1.6420 H   0  0  0  0  0  0  0  0  0  0  0  0
    2.9160   -1.1000    1.5380 H   0  0  0  0  0  0  0  0  0  0  0  0
    6.3620   -0.8440    2.1880 H   0  0  0  0  0  0  0  0  0  0  0  0
    1.6710    3.2180   -2.5540 C   0  0  0  0  0  0  0  0  0  0  0  0
    2.6540    2.0310   -1.6100 S   0  0  0  0  0  0  0  0  0  0  0  0
    1.4840    0.9870   -0.6570 C   0  0  0  0  0  0  0  0  0  0  0  0
    0.7730    1.8080    0.3790 C   0  0  0  0  0  0  0  0  0  0  0  0
   -0.2190    1.1010    1.2130 C   0  0  2  0  0  0  0  0  0  0  0  0
    0.1930    0.0220    2.0230 N   0  0  0  0  0  0  0  0  0  0  0  0
   -1.5010    0.8470    0.4520 C   0  0  0  0  0  0  0  0  0  0  0  0
   -1.8010    1.6980   -0.4200 O   0  0  0  0  0  0  0  0  0  0  0  0
    2.2630    4.1500   -2.7300 H   0  0  0  0  0  0  0  0  0  0  0  0
    0.7320    3.4820   -2.0290 H   0  0  0  0  0  0  0  0  0  0  0  0
    1.3870    2.7290   -3.5020 H   0  0  0  0  0  0  0  0  0  0  0  0
    2.1070    0.1860   -0.2210 H   0  0  0  0  0  0  0  0  0  0  0  0
    0.7830    0.5710   -1.4000 H   0  0  0  0  0  0  0  0  0  0  0  0
    1.5390    2.3350    1.0240 H   0  0  0  0  0  0  0  0  0  0  0  0
    0.2980    2.6710   -0.1870 H   0  0  0  0  0  0  0  0  0  0  0  0
   -0.6030    1.9060    1.9640 H   0  0  0  0  0  0  0  0  0  0  0  0
    0.3970    0.1710    3.0630 H   0  0  0  0  0  0  0  0  0  0  0  0
   -3.2280   -2.7330   -0.0680 O   0  0  0  0  0  0  0  0  0  0  0  0
   -3.3690   -1.6660   -0.9410 C   0  0  0  0  0  0  0  0  0  0  0  0
   -3.5440   -0.3830   -0.1390 C   0  0  2  0  0  0  0  0  0  0  0  0
   -2.3360   -0.2530    0.6730 N   0  0  0  0  0  0  0  0  0  0  0  0
   -4.6980   -0.4650    0.7700 C   0  0  0  0  0  0  0  0  0  0  0  0
   -5.8600   -0.5830    0.2930 O   0  0  0  0  0  0  0  0  0  0  0  0
   -4.5900   -0.4200    2.1570 O   0  0  0  0  0  0  0  0  0  0  0  0
   -2.7020   -3.4880   -0.4500 H   0  0  0  0  0  0  0  0  0  0  0  0
   -4.3010   -1.8540   -1.5290 H   0  0  0  0  0  0  0  0  0  0  0  0
   -2.4770   -1.5530   -1.5780 H   0  0  0  0  0  0  0  0  0  0  0  0
   -3.6290    0.4550   -0.8510 H   0  0  0  0  0  0  0  0  0  0  0  0
   -2.1390   -0.9620    1.3940 H   0  0  0  0  0  0  0  0  0  0  0  0
  1 10  1  0  0  0  0
  1  2  1  0  0  0  0
  2  3  1  0  0  0  0
  2 12  1  1  0  0  0
  3 14  1  0  0  0  0
  3 13  1  0  0  0  0
  4  5  1  0  0  0  0
  4  3  1  0  0  0  0
  5  6  2  0  0  0  0
  7 23  1  0  0  0  0
  7  2  1  0  0  0  0
  8  7  2  0  0  0  0
  9 17  1  0  0  0  0
  9  5  1  0  0  0  0
 11  1  1  0  0  0  0
 15  4  1  0  0  0  0
 16  4  1  0  0  0  0
 18 27  1  0  0  0  0
 18 19  1  0  0  0  0
 19 20  1  0  0  0  0
 20 29  1  0  0  0  0
 20 21  1  0  0  0  0
 21 31  1  0  0  0  0
 21 22  1  0  0  0  0
 22 33  1  1  0  0  0
 22 23  1  0  0  0  0
 23 34  1  0  0  0  0
 24 38  1  0  0  0  0
 24 22  1  0  0  0  0
 25 24  2  0  0  0  0
 26 18  1  0  0  0  0
 28 18  1  0  0  0  0
 30 20  1  0  0  0  0
 32 21  1  0  0  0  0
 36 37  1  0  0  0  0
 36 35  1  0  0  0  0
 37 45  1  6  0  0  0
 37 38  1  0  0  0  0
 37 39  1  0  0  0  0
 38 46  1  0  0  0  0
 39 41  1  0  0  0  0
 40 39  2  0  0  0  0
 42 35  1  0  0  0  0
 43 36  1  0  0  0  0
 44 36  1  0  0  0  0
M  END
$$$$
