EMW.pdb
 OpenBabel07022418193D

 59 60  0  0  1  0  0  0  0  0999 V2000
   -0.2250   -0.6810   -2.6280 N   0  0  0  0  0  0  0  0  0  0  0  0
   -1.6630   -0.6250   -2.6160 C   0  0  1  0  0  0  0  0  0  0  0  0
   -2.2530   -1.6250   -3.5900 C   0  0  0  0  0  0  0  0  0  0  0  0
   -1.8390   -3.0400   -3.2370 C   0  0  0  0  0  0  0  0  0  0  0  0
   -2.4190   -4.0110   -4.1880 C   0  0  0  0  0  0  0  0  0  0  0  0
   -3.1590   -3.6140   -5.1370 O   0  0  0  0  0  0  0  0  0  0  0  0
   -2.1860   -0.8340   -1.2420 C   0  0  0  0  0  0  0  0  0  0  0  0
   -3.4270   -0.7770   -1.0480 O   0  0  0  0  0  0  0  0  0  0  0  0
   -2.1970   -5.3750   -4.1020 O   0  0  0  0  0  0  0  0  0  0  0  0
    0.0890   -0.6310   -3.6280 H   0  0  0  0  0  0  0  0  0  0  0  0
    0.1980   -1.5150   -2.2130 H   0  0  0  0  0  0  0  0  0  0  0  0
   -1.9730    0.3820   -2.9490 H   0  0  0  0  0  0  0  0  0  0  0  0
   -1.8580   -1.4040   -4.5990 H   0  0  0  0  0  0  0  0  0  0  0  0
   -3.3470   -1.5650   -3.5620 H   0  0  0  0  0  0  0  0  0  0  0  0
   -0.7440   -3.1680   -3.2420 H   0  0  0  0  0  0  0  0  0  0  0  0
   -2.2320   -3.2480   -2.2190 H   0  0  0  0  0  0  0  0  0  0  0  0
   -2.1240   -5.9770   -4.8900 H   0  0  0  0  0  0  0  0  0  0  0  0
   -1.6780   -2.6710    6.0110 C   0  0  0  0  0  0  0  0  0  0  0  0
   -1.0920   -2.0430    4.4260 S   0  0  0  0  0  0  0  0  0  0  0  0
   -1.7670   -2.9980    3.0740 C   0  0  0  0  0  0  0  0  0  0  0  0
   -1.3720   -2.6180    1.7050 C   0  0  0  0  0  0  0  0  0  0  0  0
   -1.8180   -1.3070    1.2270 C   0  0  2  0  0  0  0  0  0  0  0  0
   -1.3420   -1.0920   -0.1590 N   0  0  0  0  0  0  0  0  0  0  0  0
   -1.3820   -0.1690    2.0210 C   0  0  0  0  0  0  0  0  0  0  0  0
   -1.7830    0.1010    3.2060 O   0  0  0  0  0  0  0  0  0  0  0  0
   -0.7840   -2.8000    6.6730 H   0  0  0  0  0  0  0  0  0  0  0  0
   -2.1010   -3.6800    5.8330 H   0  0  0  0  0  0  0  0  0  0  0  0
   -2.4160   -1.9820    6.4890 H   0  0  0  0  0  0  0  0  0  0  0  0
   -2.9130   -2.9420    3.1070 H   0  0  0  0  0  0  0  0  0  0  0  0
   -1.6050   -4.0990    3.2770 H   0  0  0  0  0  0  0  0  0  0  0  0
   -0.2360   -2.7290    1.6610 H   0  0  0  0  0  0  0  0  0  0  0  0
   -1.7810   -3.4610    1.0350 H   0  0  0  0  0  0  0  0  0  0  0  0
   -2.9490   -1.3420    1.1490 H   0  0  0  0  0  0  0  0  0  0  0  0
   -0.3110   -1.1650   -0.2730 H   0  0  0  0  0  0  0  0  0  0  0  0
   -0.4150    0.7510    1.4480 N   0  0  0  0  0  0  0  0  0  0  0  0
    0.0230    1.8740    2.2270 C   0  0  1  0  0  0  0  0  0  0  0  0
    1.4430    1.7560    2.7400 C   0  0  0  0  0  0  0  0  0  0  0  0
    2.4660    1.6120    1.7050 C   0  0  0  0  0  0  0  0  0  0  0  0
    3.2650    2.6320    1.2230 C   0  0  0  0  0  0  0  0  0  0  0  0
    4.0440    2.0890    0.2830 N   0  0  0  0  0  0  0  0  0  0  0  0
    3.7790    0.7570    0.1390 C   0  0  0  0  0  0  0  0  0  0  0  0
    4.2880   -0.2310   -0.6630 C   0  0  0  0  0  0  0  0  0  0  0  0
    3.8310   -1.5280   -0.5980 C   0  0  0  0  0  0  0  0  0  0  0  0
    2.8340   -1.8760    0.2890 C   0  0  0  0  0  0  0  0  0  0  0  0
    2.3270   -0.8770    1.0910 C   0  0  0  0  0  0  0  0  0  0  0  0
    2.7790    0.4330    1.0340 C   0  0  0  0  0  0  0  0  0  0  0  0
   -0.1260    3.1770    1.5320 C   0  0  0  0  0  0  0  0  0  0  0  0
   -0.6010    3.2860    0.3650 O   0  0  0  0  0  0  0  0  0  0  0  0
    0.2680    4.3360    2.1760 O   0  0  0  0  0  0  0  0  0  0  0  0
   -0.0560    0.6020    0.4870 H   0  0  0  0  0  0  0  0  0  0  0  0
   -0.5970    1.9480    3.1760 H   0  0  0  0  0  0  0  0  0  0  0  0
    1.5170    0.8470    3.4100 H   0  0  0  0  0  0  0  0  0  0  0  0
    1.6930    2.6220    3.3750 H   0  0  0  0  0  0  0  0  0  0  0  0
    3.2700    3.6870    1.5410 H   0  0  0  0  0  0  0  0  0  0  0  0
    4.7710    2.5590   -0.2970 H   0  0  0  0  0  0  0  0  0  0  0  0
    5.0850    0.0480   -1.3700 H   0  0  0  0  0  0  0  0  0  0  0  0
    4.2480   -2.3150   -1.2480 H   0  0  0  0  0  0  0  0  0  0  0  0
    2.5110   -2.9050    0.3010 H   0  0  0  0  0  0  0  0  0  0  0  0
    1.5560   -1.1440    1.7860 H   0  0  0  0  0  0  0  0  0  0  0  0
  1  2  1  0  0  0  0
  1 11  1  0  0  0  0
  2 12  1  6  0  0  0
  2  7  1  0  0  0  0
  3 14  1  0  0  0  0
  3  4  1  0  0  0  0
  3  2  1  0  0  0  0
  4 16  1  0  0  0  0
  5  9  1  0  0  0  0
  5  4  1  0  0  0  0
  6  5  2  0  0  0  0
  7  8  2  0  0  0  0
  7 23  1  0  0  0  0
 10  1  1  0  0  0  0
 13  3  1  0  0  0  0
 15  4  1  0  0  0  0
 17  9  1  0  0  0  0
 18 28  1  0  0  0  0
 18 26  1  0  0  0  0
 19 18  1  0  0  0  0
 20 29  1  0  0  0  0
 20 30  1  0  0  0  0
 20 19  1  0  0  0  0
 21 20  1  0  0  0  0
 22 33  1  6  0  0  0
 22 21  1  0  0  0  0
 22 24  1  0  0  0  0
 23 22  1  0  0  0  0
 24 25  2  0  0  0  0
 27 18  1  0  0  0  0
 31 21  1  0  0  0  0
 32 21  1  0  0  0  0
 34 23  1  0  0  0  0
 35 24  1  0  0  0  0
 35 36  1  0  0  0  0
 36 37  1  0  0  0  0
 36 51  1  1  0  0  0
 37 53  1  0  0  0  0
 37 52  1  0  0  0  0
 38 37  1  0  0  0  0
 39 54  1  0  0  0  0
 39 38  2  0  0  0  0
 40 39  1  0  0  0  0
 41 40  1  0  0  0  0
 41 46  1  0  0  0  0
 42 43  1  0  0  0  0
 42 41  2  0  0  0  0
 43 44  2  0  0  0  0
 44 58  1  0  0  0  0
 44 45  1  0  0  0  0
 45 59  1  0  0  0  0
 46 45  2  0  0  0  0
 46 38  1  0  0  0  0
 47 49  1  0  0  0  0
 47 36  1  0  0  0  0
 48 47  2  0  0  0  0
 50 35  1  0  0  0  0
 55 40  1  0  0  0  0
 56 42  1  0  0  0  0
 57 43  1  0  0  0  0
M  END
$$$$
