ENC.pdb
 OpenBabel07022418173D

 43 42  0  0  1  0  0  0  0  0999 V2000
   -0.7300   -1.7220    4.5110 N   0  0  0  0  0  0  0  0  0  0  0  0
    0.1720   -1.4590    3.4210 C   0  0  1  0  0  0  0  0  0  0  0  0
    0.0110   -2.5000    2.3380 C   0  0  0  0  0  0  0  0  0  0  0  0
    0.3000   -3.8890    2.8480 C   0  0  0  0  0  0  0  0  0  0  0  0
    0.1260   -4.8530    1.7430 C   0  0  0  0  0  0  0  0  0  0  0  0
   -0.2090   -4.4690    0.6050 O   0  0  0  0  0  0  0  0  0  0  0  0
   -0.0220   -0.0950    2.8760 C   0  0  0  0  0  0  0  0  0  0  0  0
   -0.9000    0.7000    3.3570 O   0  0  0  0  0  0  0  0  0  0  0  0
    0.3340   -6.2290    1.9500 O   0  0  0  0  0  0  0  0  0  0  0  0
   -1.3850   -2.5050    4.3440 H   0  0  0  0  0  0  0  0  0  0  0  0
   -1.3170   -0.8540    4.6620 H   0  0  0  0  0  0  0  0  0  0  0  0
    1.2230   -1.5410    3.7920 H   0  0  0  0  0  0  0  0  0  0  0  0
    0.6500   -2.2920    1.4640 H   0  0  0  0  0  0  0  0  0  0  0  0
   -1.0420   -2.4950    1.9610 H   0  0  0  0  0  0  0  0  0  0  0  0
    1.3550   -3.9620    3.2200 H   0  0  0  0  0  0  0  0  0  0  0  0
   -0.4220   -4.1660    3.6570 H   0  0  0  0  0  0  0  0  0  0  0  0
    0.1820   -6.8460    1.1620 H   0  0  0  0  0  0  0  0  0  0  0  0
    3.1400    4.5690    1.2250 N   0  0  0  0  0  0  0  0  0  0  0  0
    1.9140    3.8760    1.0900 C   0  0  0  0  0  0  0  0  0  0  0  0
    0.9330    4.4840    0.6260 O   0  0  0  0  0  0  0  0  0  0  0  0
    1.8260    2.4860    1.4910 C   0  0  0  0  0  0  0  0  0  0  0  0
    0.5210    1.7920    1.2790 C   0  0  2  0  0  0  0  0  0  0  0  0
    0.7440    0.4200    1.7970 N   0  0  0  0  0  0  0  0  0  0  0  0
    0.1030    1.7070   -0.1420 C   0  0  0  0  0  0  0  0  0  0  0  0
   -0.1760    2.6910   -0.8590 O   0  0  0  0  0  0  0  0  0  0  0  0
    3.5950    5.1310    0.4750 H   0  0  0  0  0  0  0  0  0  0  0  0
    3.6300    4.5170    2.1420 H   0  0  0  0  0  0  0  0  0  0  0  0
    2.0040    2.4620    2.6100 H   0  0  0  0  0  0  0  0  0  0  0  0
    2.6110    1.8340    1.0470 H   0  0  0  0  0  0  0  0  0  0  0  0
   -0.2870    2.2860    1.8470 H   0  0  0  0  0  0  0  0  0  0  0  0
    1.4760   -0.1860    1.3660 H   0  0  0  0  0  0  0  0  0  0  0  0
   -0.0090    0.4270   -0.8050 N   0  0  0  0  0  0  0  0  0  0  0  0
   -0.4040    0.2760   -2.1630 C   0  0  1  0  0  0  0  0  0  0  0  0
    0.6320   -0.3750   -3.0440 C   0  0  0  0  0  0  0  0  0  0  0  0
    1.0480   -2.0400   -2.4660 S   0  0  0  0  0  0  0  0  0  0  0  0
   -1.6690   -0.5100   -2.3110 C   0  0  0  0  0  0  0  0  0  0  0  0
   -2.2660   -0.9550   -1.2980 O   0  0  0  0  0  0  0  0  0  0  0  0
   -2.2180   -0.7700   -3.5520 O   0  0  0  0  0  0  0  0  0  0  0  0
    0.2120   -0.4310   -0.2540 H   0  0  0  0  0  0  0  0  0  0  0  0
   -0.6000    1.2910   -2.5810 H   0  0  0  0  0  0  0  0  0  0  0  0
    0.1310   -0.5160   -4.0480 H   0  0  0  0  0  0  0  0  0  0  0  0
    1.5060    0.2520   -3.2240 H   0  0  0  0  0  0  0  0  0  0  0  0
    1.6110   -2.7440   -3.5540 H   0  0  0  0  0  0  0  0  0  0  0  0
  1 11  1  0  0  0  0
  2 12  1  1  0  0  0
  2  1  1  0  0  0  0
  3  4  1  0  0  0  0
  3  2  1  0  0  0  0
  4 15  1  0  0  0  0
  4 16  1  0  0  0  0
  5  9  1  0  0  0  0
  5  4  1  0  0  0  0
  6  5  2  0  0  0  0
  7  8  2  0  0  0  0
  7  2  1  0  0  0  0
 10  1  1  0  0  0  0
 13  3  1  0  0  0  0
 14  3  1  0  0  0  0
 17  9  1  0  0  0  0
 18 27  1  0  0  0  0
 19 18  1  0  0  0  0
 19 21  1  0  0  0  0
 20 19  2  0  0  0  0
 21 28  1  0  0  0  0
 22 21  1  0  0  0  0
 22 23  1  0  0  0  0
 22 30  1  1  0  0  0
 23  7  1  0  0  0  0
 24 22  1  0  0  0  0
 25 24  2  0  0  0  0
 26 18  1  0  0  0  0
 29 21  1  0  0  0  0
 31 23  1  0  0  0  0
 32 39  1  0  0  0  0
 32 24  1  0  0  0  0
 33 40  1  6  0  0  0
 33 32  1  0  0  0  0
 34 35  1  0  0  0  0
 34 33  1  0  0  0  0
 36 33  1  0  0  0  0
 36 37  1  0  0  0  0
 38 36  2  0  0  0  0
 41 34  1  0  0  0  0
 42 34  1  0  0  0  0
 43 35  1  0  0  0  0
M  END
$$$$
