END.pdb
 OpenBabel07022418173D

 45 44  0  0  1  0  0  0  0  0999 V2000
    4.2400   -2.6910    1.7840 N   0  0  0  0  0  0  0  0  0  0  0  0
    3.3790   -1.7580    1.0060 C   0  0  1  0  0  0  0  0  0  0  0  0
    2.8850   -2.5340   -0.1340 C   0  0  0  0  0  0  0  0  0  0  0  0
    2.0000   -1.8910   -1.1340 C   0  0  0  0  0  0  0  0  0  0  0  0
    2.5740   -0.7250   -1.8110 C   0  0  0  0  0  0  0  0  0  0  0  0
    3.7180   -0.3390   -1.5350 O   0  0  0  0  0  0  0  0  0  0  0  0
    2.4070   -1.2210    1.9650 C   0  0  0  0  0  0  0  0  0  0  0  0
    2.4410   -1.6450    3.1720 O   0  0  0  0  0  0  0  0  0  0  0  0
    1.8400   -0.0590   -2.7550 O   0  0  0  0  0  0  0  0  0  0  0  0
    4.6750   -3.3680    1.1260 H   0  0  0  0  0  0  0  0  0  0  0  0
    3.6530   -3.2320    2.4550 H   0  0  0  0  0  0  0  0  0  0  0  0
    4.0830   -0.9360    0.7500 H   0  0  0  0  0  0  0  0  0  0  0  0
    3.7760   -2.9410   -0.7000 H   0  0  0  0  0  0  0  0  0  0  0  0
    2.3970   -3.4710    0.2680 H   0  0  0  0  0  0  0  0  0  0  0  0
    0.9950   -1.7430   -0.7000 H   0  0  0  0  0  0  0  0  0  0  0  0
    1.7950   -2.6340   -1.9810 H   0  0  0  0  0  0  0  0  0  0  0  0
    2.2210    0.5720   -3.4480 H   0  0  0  0  0  0  0  0  0  0  0  0
    1.6980    2.9640    1.0600 N   0  0  0  0  0  0  0  0  0  0  0  0
    0.6230    2.5000    1.8490 C   0  0  0  0  0  0  0  0  0  0  0  0
   -0.5670    2.8120    1.5120 O   0  0  0  0  0  0  0  0  0  0  0  0
    0.8460    1.6600    3.0560 C   0  0  0  0  0  0  0  0  0  0  0  0
    0.5400    0.1960    2.7490 C   0  0  2  0  0  0  0  0  0  0  0  0
    1.4030   -0.2480    1.7010 N   0  0  0  0  0  0  0  0  0  0  0  0
   -0.8830    0.0380    2.4230 C   0  0  0  0  0  0  0  0  0  0  0  0
   -1.7340    0.3970    3.3090 O   0  0  0  0  0  0  0  0  0  0  0  0
    2.6790    2.8660    1.3830 H   0  0  0  0  0  0  0  0  0  0  0  0
    1.5290    3.4130    0.1400 H   0  0  0  0  0  0  0  0  0  0  0  0
    0.2020    2.0560    3.8520 H   0  0  0  0  0  0  0  0  0  0  0  0
    1.8880    1.7930    3.3680 H   0  0  0  0  0  0  0  0  0  0  0  0
    0.7820   -0.3540    3.7100 H   0  0  0  0  0  0  0  0  0  0  0  0
    1.3330    0.1150    0.7420 H   0  0  0  0  0  0  0  0  0  0  0  0
   -1.3890   -0.4770    1.2140 N   0  0  0  0  0  0  0  0  0  0  0  0
   -2.8420   -0.5860    1.0110 C   0  0  1  0  0  0  0  0  0  0  0  0
   -3.1950    0.1110   -0.2760 C   0  0  0  0  0  0  0  0  0  0  0  0
   -4.6410    0.0720   -0.5400 C   0  0  0  0  0  0  0  0  0  0  0  0
   -5.0990    0.3920   -1.6690 O   0  0  0  0  0  0  0  0  0  0  0  0
   -3.1200   -2.0410    0.9050 C   0  0  0  0  0  0  0  0  0  0  0  0
   -4.2740   -2.4920    0.7400 O   0  0  0  0  0  0  0  0  0  0  0  0
   -5.5630   -0.3070    0.4170 O   0  0  0  0  0  0  0  0  0  0  0  0
   -2.0800   -2.9510    0.9870 O   0  0  0  0  0  0  0  0  0  0  0  0
   -0.7570   -0.7800    0.4550 H   0  0  0  0  0  0  0  0  0  0  0  0
   -3.3820   -0.1860    1.8760 H   0  0  0  0  0  0  0  0  0  0  0  0
   -2.6170   -0.3740   -1.1140 H   0  0  0  0  0  0  0  0  0  0  0  0
   -2.8100    1.1700   -0.2770 H   0  0  0  0  0  0  0  0  0  0  0  0
   -6.5690   -0.2600    0.2760 H   0  0  0  0  0  0  0  0  0  0  0  0
  1 11  1  0  0  0  0
  2 12  1  6  0  0  0
  2  1  1  0  0  0  0
  2  7  1  0  0  0  0
  3 14  1  0  0  0  0
  3  2  1  0  0  0  0
  4 15  1  0  0  0  0
  4  3  1  0  0  0  0
  5  6  2  0  0  0  0
  5  4  1  0  0  0  0
  7  8  2  0  0  0  0
  9  5  1  0  0  0  0
 10  1  1  0  0  0  0
 13  3  1  0  0  0  0
 16  4  1  0  0  0  0
 17  9  1  0  0  0  0
 18 26  1  0  0  0  0
 18 19  1  0  0  0  0
 19 21  1  0  0  0  0
 20 19  2  0  0  0  0
 21 29  1  0  0  0  0
 21 28  1  0  0  0  0
 22 21  1  0  0  0  0
 22 30  1  1  0  0  0
 23  7  1  0  0  0  0
 23 22  1  0  0  0  0
 24 22  1  0  0  0  0
 24 25  2  0  0  0  0
 27 18  1  0  0  0  0
 31 23  1  0  0  0  0
 32 24  1  0  0  0  0
 33 32  1  0  0  0  0
 33 42  1  1  0  0  0
 34 33  1  0  0  0  0
 35 34  1  0  0  0  0
 35 39  1  0  0  0  0
 36 35  2  0  0  0  0
 37 40  1  0  0  0  0
 37 33  1  0  0  0  0
 38 37  2  0  0  0  0
 41 32  1  0  0  0  0
 43 34  1  0  0  0  0
 44 34  1  0  0  0  0
 45 39  1  0  0  0  0
M  END
$$$$
