ENE.pdb
 OpenBabel07022418173D

 48 47  0  0  1  0  0  0  0  0999 V2000
    1.4810   -3.0760    1.9890 N   0  0  0  0  0  0  0  0  0  0  0  0
    1.4890   -2.0430    3.0500 C   0  0  1  0  0  0  0  0  0  0  0  0
    2.8300   -2.1500    3.7120 C   0  0  0  0  0  0  0  0  0  0  0  0
    3.1320   -1.1790    4.7960 C   0  0  0  0  0  0  0  0  0  0  0  0
    3.2740    0.2130    4.3750 C   0  0  0  0  0  0  0  0  0  0  0  0
    3.4170    0.5120    3.1430 O   0  0  0  0  0  0  0  0  0  0  0  0
    1.0220   -0.7500    2.6220 C   0  0  0  0  0  0  0  0  0  0  0  0
    0.5640    0.1010    3.4520 O   0  0  0  0  0  0  0  0  0  0  0  0
    3.2680    1.2970    5.2370 O   0  0  0  0  0  0  0  0  0  0  0  0
    0.5140   -3.0620    1.5860 H   0  0  0  0  0  0  0  0  0  0  0  0
    1.6070   -3.9880    2.4680 H   0  0  0  0  0  0  0  0  0  0  0  0
    0.7630   -2.4870    3.8050 H   0  0  0  0  0  0  0  0  0  0  0  0
    2.9820   -3.2090    4.0920 H   0  0  0  0  0  0  0  0  0  0  0  0
    3.6470   -2.0760    2.9210 H   0  0  0  0  0  0  0  0  0  0  0  0
    2.4290   -1.3040    5.6570 H   0  0  0  0  0  0  0  0  0  0  0  0
    4.1310   -1.4700    5.2420 H   0  0  0  0  0  0  0  0  0  0  0  0
    3.4460    2.2410    4.9090 H   0  0  0  0  0  0  0  0  0  0  0  0
    3.0870    1.9870   -1.7620 N   0  0  0  0  0  0  0  0  0  0  0  0
    2.0750    1.2400   -1.0580 C   0  0  0  0  0  0  0  0  0  0  0  0
    1.6660    0.1520   -1.4980 O   0  0  0  0  0  0  0  0  0  0  0  0
    1.5740    1.8410    0.1820 C   0  0  0  0  0  0  0  0  0  0  0  0
    0.5380    1.0260    0.8780 C   0  0  2  0  0  0  0  0  0  0  0  0
    1.0160   -0.2820    1.2630 N   0  0  0  0  0  0  0  0  0  0  0  0
   -0.7280    0.9170    0.0680 C   0  0  0  0  0  0  0  0  0  0  0  0
   -1.2870    1.9530   -0.3730 O   0  0  0  0  0  0  0  0  0  0  0  0
    2.7880    2.9260   -2.1320 H   0  0  0  0  0  0  0  0  0  0  0  0
    4.0400    1.6210   -1.8920 H   0  0  0  0  0  0  0  0  0  0  0  0
    2.4340    1.9740    0.9010 H   0  0  0  0  0  0  0  0  0  0  0  0
    1.2120    2.8790   -0.0070 H   0  0  0  0  0  0  0  0  0  0  0  0
    0.2070    1.6200    1.7810 H   0  0  0  0  0  0  0  0  0  0  0  0
    1.3770   -0.9310    0.5360 H   0  0  0  0  0  0  0  0  0  0  0  0
   -1.2860   -0.3590   -0.1950 N   0  0  0  0  0  0  0  0  0  0  0  0
   -2.5360   -0.5260   -0.9890 C   0  0  1  0  0  0  0  0  0  0  0  0
   -2.2530   -1.2630   -2.2280 C   0  0  0  0  0  0  0  0  0  0  0  0
   -3.4320   -1.5440   -3.0660 C   0  0  0  0  0  0  0  0  0  0  0  0
   -4.3710   -2.5280   -2.5060 C   0  0  0  0  0  0  0  0  0  0  0  0
   -3.9830   -3.3240   -1.6020 O   0  0  0  0  0  0  0  0  0  0  0  0
   -3.5880   -0.9240   -0.0800 C   0  0  0  0  0  0  0  0  0  0  0  0
   -4.8330   -0.9330   -0.3190 O   0  0  0  0  0  0  0  0  0  0  0  0
   -5.6670   -2.6030   -2.9430 O   0  0  0  0  0  0  0  0  0  0  0  0
   -3.2740   -1.3590    1.2280 O   0  0  0  0  0  0  0  0  0  0  0  0
   -0.7870   -1.1870    0.1910 H   0  0  0  0  0  0  0  0  0  0  0  0
   -2.8230    0.5570   -1.3000 H   0  0  0  0  0  0  0  0  0  0  0  0
   -1.7290   -2.2140   -1.9440 H   0  0  0  0  0  0  0  0  0  0  0  0
   -1.5300   -0.6310   -2.8230 H   0  0  0  0  0  0  0  0  0  0  0  0
   -4.0360   -0.6270   -3.3070 H   0  0  0  0  0  0  0  0  0  0  0  0
   -3.1000   -1.9030   -4.0890 H   0  0  0  0  0  0  0  0  0  0  0  0
   -6.3200   -3.1710   -2.4130 H   0  0  0  0  0  0  0  0  0  0  0  0
  1 11  1  0  0  0  0
  1  2  1  0  0  0  0
  2  3  1  0  0  0  0
  2 12  1  1  0  0  0
  3 13  1  0  0  0  0
  3  4  1  0  0  0  0
  4 16  1  0  0  0  0
  4 15  1  0  0  0  0
  5  4  1  0  0  0  0
  5  9  1  0  0  0  0
  6  5  2  0  0  0  0
  7  2  1  0  0  0  0
  7  8  2  0  0  0  0
 10  1  1  0  0  0  0
 14  3  1  0  0  0  0
 17  9  1  0  0  0  0
 18 19  1  0  0  0  0
 19 21  1  0  0  0  0
 20 19  2  0  0  0  0
 21 22  1  0  0  0  0
 21 28  1  0  0  0  0
 22 23  1  0  0  0  0
 22 30  1  1  0  0  0
 23  7  1  0  0  0  0
 24 22  1  0  0  0  0
 25 24  2  0  0  0  0
 26 18  1  0  0  0  0
 27 18  1  0  0  0  0
 29 21  1  0  0  0  0
 31 23  1  0  0  0  0
 32 24  1  0  0  0  0
 32 42  1  0  0  0  0
 33 43  1  6  0  0  0
 33 32  1  0  0  0  0
 33 38  1  0  0  0  0
 34 44  1  0  0  0  0
 34 33  1  0  0  0  0
 35 36  1  0  0  0  0
 35 34  1  0  0  0  0
 36 37  2  0  0  0  0
 38 41  1  0  0  0  0
 39 38  2  0  0  0  0
 40 36  1  0  0  0  0
 40 48  1  0  0  0  0
 45 34  1  0  0  0  0
 46 35  1  0  0  0  0
 47 35  1  0  0  0  0
M  END
$$$$
