ENG.pdb
 OpenBabel07022418173D

 39 38  0  0  1  0  0  0  0  0999 V2000
    3.3620    0.5440   -1.7950 N   0  0  0  0  0  0  0  0  0  0  0  0
    2.8870   -0.3590   -0.7020 C   0  0  1  0  0  0  0  0  0  0  0  0
    3.9090   -0.3580    0.3580 C   0  0  0  0  0  0  0  0  0  0  0  0
    3.6730   -1.1640    1.5750 C   0  0  0  0  0  0  0  0  0  0  0  0
    2.5740   -0.7050    2.4450 C   0  0  0  0  0  0  0  0  0  0  0  0
    2.0100    0.3770    2.2380 O   0  0  0  0  0  0  0  0  0  0  0  0
    1.5170    0.0520   -0.4500 C   0  0  0  0  0  0  0  0  0  0  0  0
    1.2060    1.2880   -0.5710 O   0  0  0  0  0  0  0  0  0  0  0  0
    2.1360   -1.4770    3.5330 O   0  0  0  0  0  0  0  0  0  0  0  0
    4.0560    0.0610   -2.3800 H   0  0  0  0  0  0  0  0  0  0  0  0
    3.6820    1.4400   -1.3880 H   0  0  0  0  0  0  0  0  0  0  0  0
    2.9060   -1.3690   -1.2180 H   0  0  0  0  0  0  0  0  0  0  0  0
    4.8880   -0.7060   -0.0900 H   0  0  0  0  0  0  0  0  0  0  0  0
    4.0560    0.7200    0.6850 H   0  0  0  0  0  0  0  0  0  0  0  0
    4.5880   -1.1780    2.2430 H   0  0  0  0  0  0  0  0  0  0  0  0
    3.5250   -2.2600    1.3450 H   0  0  0  0  0  0  0  0  0  0  0  0
    1.6490   -0.9890    4.2650 H   0  0  0  0  0  0  0  0  0  0  0  0
   -2.2820   -1.6360   -3.1880 N   0  0  0  0  0  0  0  0  0  0  0  0
   -1.4900   -0.9570   -2.2020 C   0  0  0  0  0  0  0  0  0  0  0  0
   -0.5500   -0.2120   -2.5020 O   0  0  0  0  0  0  0  0  0  0  0  0
   -1.8470   -1.1860   -0.7960 C   0  0  0  0  0  0  0  0  0  0  0  0
   -0.9180   -0.3950    0.1290 C   0  0  2  0  0  0  0  0  0  0  0  0
    0.4280   -0.8090   -0.0790 N   0  0  0  0  0  0  0  0  0  0  0  0
   -1.4040   -0.5670    1.5430 C   0  0  0  0  0  0  0  0  0  0  0  0
   -0.6520   -1.0910    2.3760 O   0  0  0  0  0  0  0  0  0  0  0  0
   -3.3020   -1.6580   -3.0850 H   0  0  0  0  0  0  0  0  0  0  0  0
   -1.7910   -2.0800   -3.9700 H   0  0  0  0  0  0  0  0  0  0  0  0
   -1.8680   -2.2610   -0.5240 H   0  0  0  0  0  0  0  0  0  0  0  0
   -2.8710   -0.7390   -0.6430 H   0  0  0  0  0  0  0  0  0  0  0  0
   -1.0980    0.6770   -0.0880 H   0  0  0  0  0  0  0  0  0  0  0  0
    0.6690   -1.8160    0.0430 H   0  0  0  0  0  0  0  0  0  0  0  0
   -2.6960   -0.1340    1.8940 N   0  0  0  0  0  0  0  0  0  0  0  0
   -3.2310   -0.2720    3.2550 C   0  0  0  0  0  0  0  0  0  0  0  0
   -2.3130    0.5050    4.1510 C   0  0  0  0  0  0  0  0  0  0  0  0
   -2.5240    0.5690    5.3980 O   0  0  0  0  0  0  0  0  0  0  0  0
   -1.2060    1.1840    3.6790 O   0  0  0  0  0  0  0  0  0  0  0  0
   -3.2790    0.2980    1.1460 H   0  0  0  0  0  0  0  0  0  0  0  0
   -4.2060    0.2120    3.3000 H   0  0  0  0  0  0  0  0  0  0  0  0
   -3.2110   -1.3260    3.5590 H   0  0  0  0  0  0  0  0  0  0  0  0
  1 11  1  0  0  0  0
  1  2  1  0  0  0  0
  2 12  1  6  0  0  0
  2  7  1  0  0  0  0
  2  3  1  0  0  0  0
  3 14  1  0  0  0  0
  3  4  1  0  0  0  0
  4 15  1  0  0  0  0
  4  5  1  0  0  0  0
  5  9  1  0  0  0  0
  6  5  2  0  0  0  0
  7 23  1  0  0  0  0
  8  7  2  0  0  0  0
  9 17  1  0  0  0  0
 10  1  1  0  0  0  0
 13  3  1  0  0  0  0
 16  4  1  0  0  0  0
 18 26  1  0  0  0  0
 18 19  1  0  0  0  0
 19 21  1  0  0  0  0
 20 19  2  0  0  0  0
 21 29  1  0  0  0  0
 21 28  1  0  0  0  0
 21 22  1  0  0  0  0
 22 30  1  6  0  0  0
 22 24  1  0  0  0  0
 23 31  1  0  0  0  0
 23 22  1  0  0  0  0
 24 32  1  0  0  0  0
 24 25  2  0  0  0  0
 27 18  1  0  0  0  0
 32 33  1  0  0  0  0
 33 38  1  0  0  0  0
 33 39  1  0  0  0  0
 33 34  1  0  0  0  0
 34 35  1  0  0  0  0
 36 34  2  0  0  0  0
 37 32  1  0  0  0  0
M  END
$$$$
