ENH.pdb
 OpenBabel07022418173D

 49 49  0  0  1  0  0  0  0  0999 V2000
    2.5630   -2.6130    0.8990 N   0  0  0  0  0  0  0  0  0  0  0  0
    1.7290   -1.7420    1.7130 C   0  0  1  0  0  0  0  0  0  0  0  0
    2.4890   -1.2610    2.9350 C   0  0  0  0  0  0  0  0  0  0  0  0
    3.7220   -0.4820    2.5280 C   0  0  0  0  0  0  0  0  0  0  0  0
    4.6900   -1.2630    1.7570 C   0  0  0  0  0  0  0  0  0  0  0  0
    5.1100   -2.3880    2.1300 O   0  0  0  0  0  0  0  0  0  0  0  0
    1.2510   -0.6300    0.8920 C   0  0  0  0  0  0  0  0  0  0  0  0
    1.7370   -0.4470   -0.2380 O   0  0  0  0  0  0  0  0  0  0  0  0
    5.1750   -0.7550    0.5550 O   0  0  0  0  0  0  0  0  0  0  0  0
    2.7040   -3.4860    1.4740 H   0  0  0  0  0  0  0  0  0  0  0  0
    1.9770   -2.9310    0.0660 H   0  0  0  0  0  0  0  0  0  0  0  0
    0.8760   -2.3350    2.0630 H   0  0  0  0  0  0  0  0  0  0  0  0
    1.7950   -0.6520    3.5320 H   0  0  0  0  0  0  0  0  0  0  0  0
    2.8140   -2.1430    3.4990 H   0  0  0  0  0  0  0  0  0  0  0  0
    4.1990   -0.0320    3.4160 H   0  0  0  0  0  0  0  0  0  0  0  0
    3.3220    0.3960    1.9500 H   0  0  0  0  0  0  0  0  0  0  0  0
    6.0580   -1.0760    0.1280 H   0  0  0  0  0  0  0  0  0  0  0  0
    1.0760    2.4640    2.6670 N   0  0  0  0  0  0  0  0  0  0  0  0
    1.4930    2.8740    1.3840 C   0  0  0  0  0  0  0  0  0  0  0  0
    2.4210    3.7060    1.2840 O   0  0  0  0  0  0  0  0  0  0  0  0
    0.8550    2.3420    0.1620 C   0  0  0  0  0  0  0  0  0  0  0  0
   -0.2610    1.3870    0.5560 C   0  0  2  0  0  0  0  0  0  0  0  0
    0.2290    0.2760    1.3360 N   0  0  0  0  0  0  0  0  0  0  0  0
   -1.0870    0.9740   -0.5760 C   0  0  0  0  0  0  0  0  0  0  0  0
   -1.5460    1.8190   -1.3610 O   0  0  0  0  0  0  0  0  0  0  0  0
    0.0620    2.5470    2.9720 H   0  0  0  0  0  0  0  0  0  0  0  0
    1.7080    2.0610    3.3920 H   0  0  0  0  0  0  0  0  0  0  0  0
    1.6030    1.8240   -0.4710 H   0  0  0  0  0  0  0  0  0  0  0  0
    0.4360    3.1500   -0.4790 H   0  0  0  0  0  0  0  0  0  0  0  0
   -0.9120    1.9930    1.2620 H   0  0  0  0  0  0  0  0  0  0  0  0
   -0.1400    0.0540    2.2900 H   0  0  0  0  0  0  0  0  0  0  0  0
   -1.3700   -0.3990   -0.7850 N   0  0  0  0  0  0  0  0  0  0  0  0
   -2.1190   -1.0180   -1.8090 C   0  0  1  0  0  0  0  0  0  0  0  0
   -3.4980   -1.3630   -1.2910 C   0  0  0  0  0  0  0  0  0  0  0  0
   -3.4970   -2.2780   -0.1490 C   0  0  0  0  0  0  0  0  0  0  0  0
   -3.4550   -1.9280    1.1860 C   0  0  0  0  0  0  0  0  0  0  0  0
   -3.4760   -3.0700    1.8900 N   0  0  0  0  0  0  0  0  0  0  0  0
   -3.5280   -4.1210    1.0540 C   0  0  0  0  0  0  0  0  0  0  0  0
   -3.5420   -3.6300   -0.1970 N   0  0  0  0  0  0  0  0  0  0  0  0
   -2.1630   -0.4070   -3.1340 C   0  0  0  0  0  0  0  0  0  0  0  0
   -2.9260   -0.9240   -3.9930 O   0  0  0  0  0  0  0  0  0  0  0  0
   -1.4340    0.6740   -3.5040 O   0  0  0  0  0  0  0  0  0  0  0  0
   -0.9560   -1.0810   -0.0510 H   0  0  0  0  0  0  0  0  0  0  0  0
   -1.6050   -2.0490   -1.9860 H   0  0  0  0  0  0  0  0  0  0  0  0
   -4.0860   -1.7790   -2.1500 H   0  0  0  0  0  0  0  0  0  0  0  0
   -4.0320   -0.4010   -1.0280 H   0  0  0  0  0  0  0  0  0  0  0  0
   -3.4140   -0.9410    1.6310 H   0  0  0  0  0  0  0  0  0  0  0  0
   -3.4550   -3.1170    2.9510 H   0  0  0  0  0  0  0  0  0  0  0  0
   -3.5580   -5.1870    1.3030 H   0  0  0  0  0  0  0  0  0  0  0  0
  1 10  1  0  0  0  0
  1  2  1  0  0  0  0
  2 12  1  1  0  0  0
  2  3  1  0  0  0  0
  3 14  1  0  0  0  0
  3 13  1  0  0  0  0
  4  3  1  0  0  0  0
  4 15  1  0  0  0  0
  5  6  2  0  0  0  0
  5  4  1  0  0  0  0
  7 23  1  0  0  0  0
  7  2  1  0  0  0  0
  8  7  2  0  0  0  0
  9  5  1  0  0  0  0
 11  1  1  0  0  0  0
 16  4  1  0  0  0  0
 17  9  1  0  0  0  0
 18 26  1  0  0  0  0
 18 27  1  0  0  0  0
 19 18  1  0  0  0  0
 20 19  2  0  0  0  0
 21 22  1  0  0  0  0
 21 19  1  0  0  0  0
 22 30  1  1  0  0  0
 22 23  1  0  0  0  0
 23 31  1  0  0  0  0
 24 22  1  0  0  0  0
 25 24  2  0  0  0  0
 28 21  1  0  0  0  0
 29 21  1  0  0  0  0
 32 24  1  0  0  0  0
 32 43  1  0  0  0  0
 33 44  1  6  0  0  0
 33 34  1  0  0  0  0
 33 32  1  0  0  0  0
 34 46  1  0  0  0  0
 34 35  1  0  0  0  0
 35 36  2  0  0  0  0
 36 47  1  0  0  0  0
 36 37  1  0  0  0  0
 37 48  1  0  0  0  0
 38 49  1  0  0  0  0
 38 37  1  0  0  0  0
 39 35  1  0  0  0  0
 39 38  2  0  0  0  0
 40 33  1  0  0  0  0
 41 40  2  0  0  0  0
 42 40  1  0  0  0  0
 45 34  1  0  0  0  0
M  END
$$$$
