ENK.pdb
 OpenBabel07022418173D

 53 52  0  0  1  0  0  0  0  0999 V2000
    1.7990   -2.1330    4.3810 N   0  0  0  0  0  0  0  0  0  0  0  0
    2.2020   -1.3840    3.1420 C   0  0  1  0  0  0  0  0  0  0  0  0
    2.6340   -2.4340    2.2050 C   0  0  0  0  0  0  0  0  0  0  0  0
    3.1350   -1.9750    0.8900 C   0  0  0  0  0  0  0  0  0  0  0  0
    4.3100   -1.0780    0.9730 C   0  0  0  0  0  0  0  0  0  0  0  0
    4.8000   -0.8060    2.0840 O   0  0  0  0  0  0  0  0  0  0  0  0
    1.0980   -0.5300    2.7390 C   0  0  0  0  0  0  0  0  0  0  0  0
    0.0150   -0.6330    3.4230 O   0  0  0  0  0  0  0  0  0  0  0  0
    4.8480   -0.5540   -0.1690 O   0  0  0  0  0  0  0  0  0  0  0  0
    2.5770   -2.8140    4.5200 H   0  0  0  0  0  0  0  0  0  0  0  0
    0.8900   -2.6300    4.1580 H   0  0  0  0  0  0  0  0  0  0  0  0
    3.0180   -0.7320    3.5230 H   0  0  0  0  0  0  0  0  0  0  0  0
    1.8000   -3.1650    2.0300 H   0  0  0  0  0  0  0  0  0  0  0  0
    3.4690   -3.0010    2.7030 H   0  0  0  0  0  0  0  0  0  0  0  0
    3.5540   -2.8890    0.3240 H   0  0  0  0  0  0  0  0  0  0  0  0
    2.3120   -1.5700    0.2840 H   0  0  0  0  0  0  0  0  0  0  0  0
    5.5700    0.1530   -0.1370 H   0  0  0  0  0  0  0  0  0  0  0  0
    0.9140    3.5480   -1.0220 N   0  0  0  0  0  0  0  0  0  0  0  0
    1.2270    2.9930    0.2440 C   0  0  0  0  0  0  0  0  0  0  0  0
    2.4350    2.7420    0.4680 O   0  0  0  0  0  0  0  0  0  0  0  0
    0.2400    2.6930    1.3050 C   0  0  0  0  0  0  0  0  0  0  0  0
   -0.0840    1.2310    1.4030 C   0  0  2  0  0  0  0  0  0  0  0  0
    1.0640    0.4030    1.7000 N   0  0  0  0  0  0  0  0  0  0  0  0
   -0.9030    0.7440    0.2600 C   0  0  0  0  0  0  0  0  0  0  0  0
   -1.8740    1.4670   -0.1690 O   0  0  0  0  0  0  0  0  0  0  0  0
    0.2050    3.0650   -1.6470 H   0  0  0  0  0  0  0  0  0  0  0  0
    1.3380    4.4180   -1.3990 H   0  0  0  0  0  0  0  0  0  0  0  0
    0.6640    3.0390    2.2870 H   0  0  0  0  0  0  0  0  0  0  0  0
   -0.6620    3.2950    1.1490 H   0  0  0  0  0  0  0  0  0  0  0  0
   -0.7720    1.1220    2.3110 H   0  0  0  0  0  0  0  0  0  0  0  0
    1.9170    0.5230    1.1150 H   0  0  0  0  0  0  0  0  0  0  0  0
   -0.6910   -0.4820   -0.4040 N   0  0  0  0  0  0  0  0  0  0  0  0
   -1.4430   -1.0100   -1.5000 C   0  0  1  0  0  0  0  0  0  0  0  0
   -2.8790   -0.6680   -1.5650 C   0  0  0  0  0  0  0  0  0  0  0  0
   -3.8000   -1.0200   -0.4800 C   0  0  0  0  0  0  0  0  0  0  0  0
   -4.0590   -2.4060   -0.0770 C   0  0  0  0  0  0  0  0  0  0  0  0
   -2.9780   -3.2490    0.4730 C   0  0  0  0  0  0  0  0  0  0  0  0
   -3.6000   -4.5670    0.8230 N   0  0  0  0  0  0  0  0  0  0  0  0
   -0.8050   -0.5050   -2.7460 C   0  0  0  0  0  0  0  0  0  0  0  0
   -1.2890   -0.8340   -3.8400 O   0  0  0  0  0  0  0  0  0  0  0  0
    0.2910    0.3040   -2.6840 O   0  0  0  0  0  0  0  0  0  0  0  0
    0.1300   -1.0430    0.0080 H   0  0  0  0  0  0  0  0  0  0  0  0
   -1.3580   -2.1220   -1.5820 H   0  0  0  0  0  0  0  0  0  0  0  0
   -3.3440   -1.1510   -2.5140 H   0  0  0  0  0  0  0  0  0  0  0  0
   -2.9660    0.4270   -1.8580 H   0  0  0  0  0  0  0  0  0  0  0  0
   -3.5990   -0.4390    0.4770 H   0  0  0  0  0  0  0  0  0  0  0  0
   -4.8320   -0.6040   -0.8050 H   0  0  0  0  0  0  0  0  0  0  0  0
   -4.6160   -2.9920   -0.8750 H   0  0  0  0  0  0  0  0  0  0  0  0
   -4.8580   -2.3600    0.7430 H   0  0  0  0  0  0  0  0  0  0  0  0
   -2.1610   -3.5490   -0.1840 H   0  0  0  0  0  0  0  0  0  0  0  0
   -2.6380   -2.8150    1.4370 H   0  0  0  0  0  0  0  0  0  0  0  0
   -2.8660   -5.2740    0.9720 H   0  0  0  0  0  0  0  0  0  0  0  0
   -4.2630   -4.8030    0.0500 H   0  0  0  0  0  0  0  0  0  0  0  0
  1 10  1  0  0  0  0
  2 12  1  1  0  0  0
  2  1  1  0  0  0  0
  3 14  1  0  0  0  0
  3  2  1  0  0  0  0
  4  5  1  0  0  0  0
  4  3  1  0  0  0  0
  5  6  2  0  0  0  0
  7  2  1  0  0  0  0
  7  8  2  0  0  0  0
  9 17  1  0  0  0  0
  9  5  1  0  0  0  0
 11  1  1  0  0  0  0
 13  3  1  0  0  0  0
 15  4  1  0  0  0  0
 16  4  1  0  0  0  0
 18 19  1  0  0  0  0
 19 20  2  0  0  0  0
 19 21  1  0  0  0  0
 21 22  1  0  0  0  0
 21 28  1  0  0  0  0
 22 23  1  0  0  0  0
 22 30  1  1  0  0  0
 23  7  1  0  0  0  0
 24 22  1  0  0  0  0
 25 24  2  0  0  0  0
 26 18  1  0  0  0  0
 27 18  1  0  0  0  0
 29 21  1  0  0  0  0
 31 23  1  0  0  0  0
 32 42  1  0  0  0  0
 32 24  1  0  0  0  0
 33 43  1  1  0  0  0
 33 32  1  0  0  0  0
 34 33  1  0  0  0  0
 34 35  1  0  0  0  0
 35 36  1  0  0  0  0
 35 46  1  0  0  0  0
 36 37  1  0  0  0  0
 36 49  1  0  0  0  0
 37 38  1  0  0  0  0
 37 51  1  0  0  0  0
 38 52  1  0  0  0  0
 39 41  1  0  0  0  0
 39 33  1  0  0  0  0
 40 39  2  0  0  0  0
 44 34  1  0  0  0  0
 45 34  1  0  0  0  0
 47 35  1  0  0  0  0
 48 36  1  0  0  0  0
 50 37  1  0  0  0  0
 53 38  1  0  0  0  0
M  END
$$$$
