ENM.pdb
 OpenBabel07022418173D

 49 48  0  0  1  0  0  0  0  0999 V2000
    1.3810   -3.4410    1.7170 N   0  0  0  0  0  0  0  0  0  0  0  0
    2.2460   -2.2570    1.8950 C   0  0  1  0  0  0  0  0  0  0  0  0
    2.8960   -2.0230    0.5750 C   0  0  0  0  0  0  0  0  0  0  0  0
    3.8280   -0.8630    0.5050 C   0  0  0  0  0  0  0  0  0  0  0  0
    4.9750   -0.9180    1.4040 C   0  0  0  0  0  0  0  0  0  0  0  0
    5.1720   -1.8810    2.1610 O   0  0  0  0  0  0  0  0  0  0  0  0
    1.3610   -1.1850    2.3600 C   0  0  0  0  0  0  0  0  0  0  0  0
    1.2010   -1.0550    3.6140 O   0  0  0  0  0  0  0  0  0  0  0  0
    5.8830    0.1250    1.4300 O   0  0  0  0  0  0  0  0  0  0  0  0
    1.7750   -4.0750    1.0050 H   0  0  0  0  0  0  0  0  0  0  0  0
    0.4230   -3.1270    1.4010 H   0  0  0  0  0  0  0  0  0  0  0  0
    3.0130   -2.4960    2.6790 H   0  0  0  0  0  0  0  0  0  0  0  0
    3.5200   -2.9450    0.3740 H   0  0  0  0  0  0  0  0  0  0  0  0
    2.1450   -2.0260   -0.2340 H   0  0  0  0  0  0  0  0  0  0  0  0
    3.2570    0.0870    0.6070 H   0  0  0  0  0  0  0  0  0  0  0  0
    4.2480   -0.8090   -0.5430 H   0  0  0  0  0  0  0  0  0  0  0  0
    6.5770    0.1600    2.1640 H   0  0  0  0  0  0  0  0  0  0  0  0
    2.2160    3.6930    1.4900 N   0  0  0  0  0  0  0  0  0  0  0  0
    1.6440    2.4470    1.8600 C   0  0  0  0  0  0  0  0  0  0  0  0
    2.2600    1.6670    2.6130 O   0  0  0  0  0  0  0  0  0  0  0  0
    0.3190    2.0720    1.3560 C   0  0  0  0  0  0  0  0  0  0  0  0
   -0.1440    0.7110    1.8260 C   0  0  2  0  0  0  0  0  0  0  0  0
    0.7210   -0.3410    1.4220 N   0  0  0  0  0  0  0  0  0  0  0  0
   -1.5390    0.5640    1.4180 C   0  0  0  0  0  0  0  0  0  0  0  0
   -2.3610    1.4490    1.7420 O   0  0  0  0  0  0  0  0  0  0  0  0
    2.8100    4.2610    2.1150 H   0  0  0  0  0  0  0  0  0  0  0  0
    2.0420    4.0890    0.5240 H   0  0  0  0  0  0  0  0  0  0  0  0
    0.3110    2.0330    0.2410 H   0  0  0  0  0  0  0  0  0  0  0  0
   -0.4720    2.8190    1.6270 H   0  0  0  0  0  0  0  0  0  0  0  0
   -0.1670    0.7850    2.9590 H   0  0  0  0  0  0  0  0  0  0  0  0
    0.9070   -0.5140    0.4190 H   0  0  0  0  0  0  0  0  0  0  0  0
   -0.7920   -2.1960   -1.9680 C   0  0  0  0  0  0  0  0  0  0  0  0
   -1.8750   -1.0570   -2.7690 S   0  0  0  0  0  0  0  0  0  0  0  0
   -3.5400   -0.9270   -2.2630 C   0  0  0  0  0  0  0  0  0  0  0  0
   -3.8720   -0.2350   -1.0330 C   0  0  0  0  0  0  0  0  0  0  0  0
   -3.4230   -0.5930    0.3170 C   0  0  2  0  0  0  0  0  0  0  0  0
   -2.0430   -0.5660    0.6470 N   0  0  0  0  0  0  0  0  0  0  0  0
   -4.0180   -1.8930    0.7880 C   0  0  0  0  0  0  0  0  0  0  0  0
   -3.2680   -2.7040    1.3600 O   0  0  0  0  0  0  0  0  0  0  0  0
   -5.3420   -2.1930    0.6010 O   0  0  0  0  0  0  0  0  0  0  0  0
    0.0650   -1.7020   -1.4640 H   0  0  0  0  0  0  0  0  0  0  0  0
   -1.3470   -2.8890   -1.2880 H   0  0  0  0  0  0  0  0  0  0  0  0
   -0.3000   -2.8260   -2.7730 H   0  0  0  0  0  0  0  0  0  0  0  0
   -4.0940   -0.3500   -3.1060 H   0  0  0  0  0  0  0  0  0  0  0  0
   -4.0880   -1.9350   -2.3480 H   0  0  0  0  0  0  0  0  0  0  0  0
   -5.0340   -0.2340   -0.9760 H   0  0  0  0  0  0  0  0  0  0  0  0
   -3.6640    0.8990   -1.1310 H   0  0  0  0  0  0  0  0  0  0  0  0
   -3.9870    0.1670    1.0020 H   0  0  0  0  0  0  0  0  0  0  0  0
   -1.3040   -1.2520    0.4510 H   0  0  0  0  0  0  0  0  0  0  0  0
  1  2  1  0  0  0  0
  2  7  1  0  0  0  0
  2 12  1  1  0  0  0
  3  2  1  0  0  0  0
  4  3  1  0  0  0  0
  4 15  1  0  0  0  0
  4  5  1  0  0  0  0
  5  9  1  0  0  0  0
  5  6  2  0  0  0  0
  7  8  2  0  0  0  0
  9 17  1  0  0  0  0
 10  1  1  0  0  0  0
 11  1  1  0  0  0  0
 13  3  1  0  0  0  0
 14  3  1  0  0  0  0
 16  4  1  0  0  0  0
 18 19  1  0  0  0  0
 18 26  1  0  0  0  0
 19 20  2  0  0  0  0
 21 29  1  0  0  0  0
 21 22  1  0  0  0  0
 21 19  1  0  0  0  0
 22 30  1  1  0  0  0
 23 22  1  0  0  0  0
 23  7  1  0  0  0  0
 24 25  2  0  0  0  0
 24 22  1  0  0  0  0
 27 18  1  0  0  0  0
 28 21  1  0  0  0  0
 31 23  1  0  0  0  0
 32 41  1  0  0  0  0
 32 42  1  0  0  0  0
 33 34  1  0  0  0  0
 33 32  1  0  0  0  0
 34 35  1  0  0  0  0
 35 46  1  0  0  0  0
 35 36  1  0  0  0  0
 36 37  1  0  0  0  0
 36 38  1  0  0  0  0
 36 48  1  1  0  0  0
 37 24  1  0  0  0  0
 38 39  1  0  0  0  0
 40 38  2  0  0  0  0
 43 32  1  0  0  0  0
 44 34  1  0  0  0  0
 45 34  1  0  0  0  0
 47 35  1  0  0  0  0
 49 37  1  0  0  0  0
M  END
$$$$
