ENN.pdb
 OpenBabel07022418173D

 46 45  0  0  1  0  0  0  0  0999 V2000
    3.6580    0.3330    4.3810 N   0  0  0  0  0  0  0  0  0  0  0  0
    3.3820    0.5300    2.9400 C   0  0  1  0  0  0  0  0  0  0  0  0
    4.1250   -0.5830    2.2610 C   0  0  0  0  0  0  0  0  0  0  0  0
    4.0340   -0.6120    0.7830 C   0  0  0  0  0  0  0  0  0  0  0  0
    4.5750    0.5970    0.1390 C   0  0  0  0  0  0  0  0  0  0  0  0
    5.0990    1.4940    0.8090 O   0  0  0  0  0  0  0  0  0  0  0  0
    1.9270    0.5400    2.7220 C   0  0  0  0  0  0  0  0  0  0  0  0
    1.1420    0.2590    3.6960 O   0  0  0  0  0  0  0  0  0  0  0  0
    4.4810    0.7020   -1.2380 O   0  0  0  0  0  0  0  0  0  0  0  0
    3.8140   -0.6820    4.5810 H   0  0  0  0  0  0  0  0  0  0  0  0
    2.8810    0.7250    4.9680 H   0  0  0  0  0  0  0  0  0  0  0  0
    3.8100    1.4930    2.6900 H   0  0  0  0  0  0  0  0  0  0  0  0
    5.2100   -0.4520    2.5400 H   0  0  0  0  0  0  0  0  0  0  0  0
    3.7970   -1.5890    2.6650 H   0  0  0  0  0  0  0  0  0  0  0  0
    3.0100   -0.8650    0.4720 H   0  0  0  0  0  0  0  0  0  0  0  0
    4.6630   -1.4720    0.4080 H   0  0  0  0  0  0  0  0  0  0  0  0
    4.8710    1.4530   -1.7710 H   0  0  0  0  0  0  0  0  0  0  0  0
   -1.1770    1.9380   -1.8170 N   0  0  0  0  0  0  0  0  0  0  0  0
   -0.3820    2.2170   -0.6810 C   0  0  0  0  0  0  0  0  0  0  0  0
    0.7440    2.7200   -0.9080 O   0  0  0  0  0  0  0  0  0  0  0  0
   -0.7840    1.9620    0.6870 C   0  0  0  0  0  0  0  0  0  0  0  0
   -0.1800    0.8260    1.3810 C   0  0  2  0  0  0  0  0  0  0  0  0
    1.2530    0.8340    1.5270 N   0  0  0  0  0  0  0  0  0  0  0  0
   -0.5460   -0.5240    0.8370 C   0  0  0  0  0  0  0  0  0  0  0  0
    0.3310   -1.3790    0.5710 O   0  0  0  0  0  0  0  0  0  0  0  0
   -0.9250    1.1580   -2.4940 H   0  0  0  0  0  0  0  0  0  0  0  0
   -2.0230    2.4930   -2.0050 H   0  0  0  0  0  0  0  0  0  0  0  0
   -0.7080    2.8600    1.3260 H   0  0  0  0  0  0  0  0  0  0  0  0
   -1.9000    1.7620    0.6530 H   0  0  0  0  0  0  0  0  0  0  0  0
   -0.5790    0.8360    2.4460 H   0  0  0  0  0  0  0  0  0  0  0  0
    1.7980    1.0970    0.6810 H   0  0  0  0  0  0  0  0  0  0  0  0
   -4.8660   -4.7430    1.3170 N   0  0  0  0  0  0  0  0  0  0  0  0
   -3.8270   -4.0930    0.5750 C   0  0  0  0  0  0  0  0  0  0  0  0
   -3.3680   -4.7010   -0.4110 O   0  0  0  0  0  0  0  0  0  0  0  0
   -3.3710   -2.7720    1.0080 C   0  0  0  0  0  0  0  0  0  0  0  0
   -2.3250   -2.1790    0.0900 C   0  0  2  0  0  0  0  0  0  0  0  0
   -1.8910   -0.8740    0.6110 N   0  0  0  0  0  0  0  0  0  0  0  0
   -2.9750   -1.8670   -1.2030 C   0  0  0  0  0  0  0  0  0  0  0  0
   -3.4620   -2.7230   -1.9960 O   0  0  0  0  0  0  0  0  0  0  0  0
   -3.0970   -0.5470   -1.6530 O   0  0  0  0  0  0  0  0  0  0  0  0
   -5.6590   -4.1730    1.6350 H   0  0  0  0  0  0  0  0  0  0  0  0
   -4.7850   -5.7590    1.5080 H   0  0  0  0  0  0  0  0  0  0  0  0
   -3.0580   -2.7500    2.0870 H   0  0  0  0  0  0  0  0  0  0  0  0
   -4.2980   -2.1190    1.0090 H   0  0  0  0  0  0  0  0  0  0  0  0
   -1.4760   -2.8510   -0.1090 H   0  0  0  0  0  0  0  0  0  0  0  0
   -2.6180   -0.1610    0.8280 H   0  0  0  0  0  0  0  0  0  0  0  0
  1 10  1  0  0  0  0
  1 11  1  0  0  0  0
  2 12  1  6  0  0  0
  2  1  1  0  0  0  0
  3 13  1  0  0  0  0
  3 14  1  0  0  0  0
  3  2  1  0  0  0  0
  4  3  1  0  0  0  0
  5  4  1  0  0  0  0
  5  6  2  0  0  0  0
  7  2  1  0  0  0  0
  7  8  2  0  0  0  0
  9  5  1  0  0  0  0
 15  4  1  0  0  0  0
 16  4  1  0  0  0  0
 17  9  1  0  0  0  0
 18 19  1  0  0  0  0
 19 21  1  0  0  0  0
 20 19  2  0  0  0  0
 21 28  1  0  0  0  0
 21 22  1  0  0  0  0
 22 23  1  0  0  0  0
 22 30  1  1  0  0  0
 23  7  1  0  0  0  0
 24 22  1  0  0  0  0
 25 24  2  0  0  0  0
 26 18  1  0  0  0  0
 27 18  1  0  0  0  0
 29 21  1  0  0  0  0
 31 23  1  0  0  0  0
 32 42  1  0  0  0  0
 32 41  1  0  0  0  0
 33 35  1  0  0  0  0
 33 32  1  0  0  0  0
 34 33  2  0  0  0  0
 35 44  1  0  0  0  0
 35 43  1  0  0  0  0
 36 45  1  6  0  0  0
 36 37  1  0  0  0  0
 36 35  1  0  0  0  0
 37 46  1  0  0  0  0
 37 24  1  0  0  0  0
 38 36  1  0  0  0  0
 39 38  2  0  0  0  0
 40 38  1  0  0  0  0
M  END
$$$$
