ENP.pdb
 OpenBabel07022418173D

 46 46  0  0  1  0  0  0  0  0999 V2000
    2.8000   -2.3860   -2.0500 N   0  0  0  0  0  0  0  0  0  0  0  0
    1.6390   -3.2100   -1.7080 C   0  0  1  0  0  0  0  0  0  0  0  0
    2.0250   -3.9470   -0.4580 C   0  0  0  0  0  0  0  0  0  0  0  0
    0.9390   -4.8430    0.0340 C   0  0  0  0  0  0  0  0  0  0  0  0
    0.5290   -5.9050   -0.9000 C   0  0  0  0  0  0  0  0  0  0  0  0
   -0.4520   -6.6150   -0.5480 O   0  0  0  0  0  0  0  0  0  0  0  0
    0.4630   -2.3520   -1.4170 C   0  0  0  0  0  0  0  0  0  0  0  0
   -0.6970   -2.8110   -1.2710 O   0  0  0  0  0  0  0  0  0  0  0  0
    1.1810   -6.1100   -2.0890 O   0  0  0  0  0  0  0  0  0  0  0  0
    3.1580   -1.8420   -1.2590 H   0  0  0  0  0  0  0  0  0  0  0  0
    2.5350   -1.6960   -2.7980 H   0  0  0  0  0  0  0  0  0  0  0  0
    1.5090   -3.9030   -2.5250 H   0  0  0  0  0  0  0  0  0  0  0  0
    2.1610   -3.1420    0.3290 H   0  0  0  0  0  0  0  0  0  0  0  0
    3.0020   -4.4710   -0.5620 H   0  0  0  0  0  0  0  0  0  0  0  0
    0.0140   -4.2770    0.3200 H   0  0  0  0  0  0  0  0  0  0  0  0
    1.2500   -5.3280    1.0240 H   0  0  0  0  0  0  0  0  0  0  0  0
    0.7880   -6.7170   -2.8090 H   0  0  0  0  0  0  0  0  0  0  0  0
    0.1540    0.4970    2.7180 N   0  0  0  0  0  0  0  0  0  0  0  0
   -0.0960   -0.1010    1.4610 C   0  0  0  0  0  0  0  0  0  0  0  0
   -0.1460   -1.3440    1.3750 O   0  0  0  0  0  0  0  0  0  0  0  0
   -0.2950    0.7330    0.2730 C   0  0  0  0  0  0  0  0  0  0  0  0
   -0.5500   -0.0580   -0.9990 C   0  0  2  0  0  0  0  0  0  0  0  0
    0.5780   -0.9310   -1.2830 N   0  0  0  0  0  0  0  0  0  0  0  0
   -0.7030    0.8660   -2.1510 C   0  0  0  0  0  0  0  0  0  0  0  0
    0.1870    0.7930   -3.0690 O   0  0  0  0  0  0  0  0  0  0  0  0
    0.8970    0.1980    3.3850 H   0  0  0  0  0  0  0  0  0  0  0  0
   -0.4280    1.3180    3.0640 H   0  0  0  0  0  0  0  0  0  0  0  0
    0.6080    1.3710    0.0530 H   0  0  0  0  0  0  0  0  0  0  0  0
   -1.0940    1.4590    0.5030 H   0  0  0  0  0  0  0  0  0  0  0  0
   -1.4960   -0.5940   -0.8720 H   0  0  0  0  0  0  0  0  0  0  0  0
    1.5170   -0.5000   -1.3950 H   0  0  0  0  0  0  0  0  0  0  0  0
   -1.7710    1.7920   -2.2560 N   0  0  0  0  0  0  0  0  0  0  0  0
   -2.8500    1.9690   -1.3190 C   0  0  0  0  0  0  0  0  0  0  0  0
   -4.0570    2.2680   -2.2300 C   0  0  0  0  0  0  0  0  0  0  0  0
   -3.4800    2.5250   -3.6050 C   0  0  0  0  0  0  0  0  0  0  0  0
   -2.0170    2.7540   -3.3030 C   0  0  1  0  0  0  0  0  0  0  0  0
   -1.7440    4.1410   -2.8740 C   0  0  0  0  0  0  0  0  0  0  0  0
   -1.9270    5.0500   -3.7280 O   0  0  0  0  0  0  0  0  0  0  0  0
   -1.3130    4.5140   -1.6310 O   0  0  0  0  0  0  0  0  0  0  0  0
   -3.0370    1.0100   -0.7940 H   0  0  0  0  0  0  0  0  0  0  0  0
   -2.7040    2.8040   -0.6040 H   0  0  0  0  0  0  0  0  0  0  0  0
   -4.6450    3.1040   -1.8330 H   0  0  0  0  0  0  0  0  0  0  0  0
   -4.6620    1.3200   -2.3240 H   0  0  0  0  0  0  0  0  0  0  0  0
   -3.6360    1.6840   -4.3070 H   0  0  0  0  0  0  0  0  0  0  0  0
   -3.9420    3.4760   -3.9560 H   0  0  0  0  0  0  0  0  0  0  0  0
   -1.4000    2.5080   -4.1870 H   0  0  0  0  0  0  0  0  0  0  0  0
  1  2  1  0  0  0  0
  1 10  1  0  0  0  0
  2 12  1  6  0  0  0
  2  7  1  0  0  0  0
  2  3  1  0  0  0  0
  3  4  1  0  0  0  0
  3 13  1  0  0  0  0
  4 15  1  0  0  0  0
  4 16  1  0  0  0  0
  5  6  2  0  0  0  0
  5  4  1  0  0  0  0
  7 23  1  0  0  0  0
  7  8  2  0  0  0  0
  9  5  1  0  0  0  0
 11  1  1  0  0  0  0
 14  3  1  0  0  0  0
 17  9  1  0  0  0  0
 18 27  1  0  0  0  0
 18 26  1  0  0  0  0
 19 18  1  0  0  0  0
 20 19  2  0  0  0  0
 21 29  1  0  0  0  0
 21 19  1  0  0  0  0
 22 30  1  1  0  0  0
 22 21  1  0  0  0  0
 23 22  1  0  0  0  0
 24 22  1  0  0  0  0
 25 24  2  0  0  0  0
 28 21  1  0  0  0  0
 31 23  1  0  0  0  0
 32 24  1  0  0  0  0
 32 33  1  0  0  0  0
 33 40  1  0  0  0  0
 33 41  1  0  0  0  0
 34 42  1  0  0  0  0
 34 33  1  0  0  0  0
 35 36  1  0  0  0  0
 35 34  1  0  0  0  0
 36 46  1  6  0  0  0
 36 37  1  0  0  0  0
 36 32  1  0  0  0  0
 37 39  1  0  0  0  0
 38 37  2  0  0  0  0
 43 34  1  0  0  0  0
 44 35  1  0  0  0  0
 45 35  1  0  0  0  0
M  END
$$$$
