ENQ.pdb
 OpenBabel07022418173D

 49 48  0  0  1  0  0  0  0  0999 V2000
    3.7200    0.1060    3.8100 N   0  0  0  0  0  0  0  0  0  0  0  0
    2.8580    0.1120    2.5910 C   0  0  1  0  0  0  0  0  0  0  0  0
    3.4470   -0.9270    1.7110 C   0  0  0  0  0  0  0  0  0  0  0  0
    2.8090   -1.1580    0.3910 C   0  0  0  0  0  0  0  0  0  0  0  0
    2.8140    0.0350   -0.4740 C   0  0  0  0  0  0  0  0  0  0  0  0
    3.3410    1.0980   -0.0960 O   0  0  0  0  0  0  0  0  0  0  0  0
    1.4990   -0.0990    3.0550 C   0  0  0  0  0  0  0  0  0  0  0  0
    1.3180   -0.4710    4.2670 O   0  0  0  0  0  0  0  0  0  0  0  0
    2.2360    0.0360   -1.7450 O   0  0  0  0  0  0  0  0  0  0  0  0
    3.4200   -0.6120    4.4830 H   0  0  0  0  0  0  0  0  0  0  0  0
    3.6310    1.0470    4.2770 H   0  0  0  0  0  0  0  0  0  0  0  0
    2.9860    1.1300    2.1640 H   0  0  0  0  0  0  0  0  0  0  0  0
    4.5070   -0.5890    1.4950 H   0  0  0  0  0  0  0  0  0  0  0  0
    3.6070   -1.8850    2.2760 H   0  0  0  0  0  0  0  0  0  0  0  0
    1.7980   -1.5810    0.4380 H   0  0  0  0  0  0  0  0  0  0  0  0
    3.4330   -1.9800   -0.1040 H   0  0  0  0  0  0  0  0  0  0  0  0
    2.4790    0.7850   -2.4180 H   0  0  0  0  0  0  0  0  0  0  0  0
   -1.1460    3.4550    2.2060 N   0  0  0  0  0  0  0  0  0  0  0  0
   -1.7190    2.1340    2.1000 C   0  0  0  0  0  0  0  0  0  0  0  0
   -2.3240    1.8460    1.0610 O   0  0  0  0  0  0  0  0  0  0  0  0
   -1.5490    1.2140    3.2170 C   0  0  0  0  0  0  0  0  0  0  0  0
   -0.9380   -0.1260    2.8040 C   0  0  2  0  0  0  0  0  0  0  0  0
    0.3690    0.0960    2.2220 N   0  0  0  0  0  0  0  0  0  0  0  0
   -1.7840   -0.8940    1.9180 C   0  0  0  0  0  0  0  0  0  0  0  0
   -2.9420   -1.2080    2.3000 O   0  0  0  0  0  0  0  0  0  0  0  0
   -0.4520    3.8010    1.5020 H   0  0  0  0  0  0  0  0  0  0  0  0
   -1.3970    4.1060    2.9760 H   0  0  0  0  0  0  0  0  0  0  0  0
   -0.8690    1.6150    3.9960 H   0  0  0  0  0  0  0  0  0  0  0  0
   -2.5170    1.0270    3.7070 H   0  0  0  0  0  0  0  0  0  0  0  0
   -0.8130   -0.6400    3.8110 H   0  0  0  0  0  0  0  0  0  0  0  0
    0.5040    0.3910    1.2370 H   0  0  0  0  0  0  0  0  0  0  0  0
    0.4700   -1.6580   -3.9180 N   0  0  0  0  0  0  0  0  0  0  0  0
   -0.5810   -2.0490   -3.0020 C   0  0  0  0  0  0  0  0  0  0  0  0
   -0.6160   -3.2470   -2.7250 O   0  0  0  0  0  0  0  0  0  0  0  0
   -1.5050   -1.0620   -2.4730 C   0  0  0  0  0  0  0  0  0  0  0  0
   -2.5620   -1.4830   -1.5350 C   0  0  0  0  0  0  0  0  0  0  0  0
   -2.2320   -2.0960   -0.2540 C   0  0  2  0  0  0  0  0  0  0  0  0
   -1.4000   -1.3260    0.6360 N   0  0  0  0  0  0  0  0  0  0  0  0
   -1.8380   -3.5110   -0.2790 C   0  0  0  0  0  0  0  0  0  0  0  0
   -0.7930   -3.9780    0.2910 O   0  0  0  0  0  0  0  0  0  0  0  0
   -2.6050   -4.4890   -0.9470 O   0  0  0  0  0  0  0  0  0  0  0  0
    1.4380   -1.8410   -3.5620 H   0  0  0  0  0  0  0  0  0  0  0  0
    0.2510   -1.2390   -4.8330 H   0  0  0  0  0  0  0  0  0  0  0  0
   -0.8670   -0.2230   -2.0750 H   0  0  0  0  0  0  0  0  0  0  0  0
   -2.0600   -0.6570   -3.3930 H   0  0  0  0  0  0  0  0  0  0  0  0
   -3.3530   -0.6950   -1.3880 H   0  0  0  0  0  0  0  0  0  0  0  0
   -3.1630   -2.2730   -2.1050 H   0  0  0  0  0  0  0  0  0  0  0  0
   -3.2400   -2.1330    0.3200 H   0  0  0  0  0  0  0  0  0  0  0  0
   -0.4610   -1.0950    0.2430 H   0  0  0  0  0  0  0  0  0  0  0  0
  1 11  1  0  0  0  0
  1 10  1  0  0  0  0
  2 12  1  6  0  0  0
  2  7  1  0  0  0  0
  2  1  1  0  0  0  0
  3 14  1  0  0  0  0
  3  2  1  0  0  0  0
  4 15  1  0  0  0  0
  4  3  1  0  0  0  0
  5  6  2  0  0  0  0
  5  4  1  0  0  0  0
  7  8  2  0  0  0  0
  9  5  1  0  0  0  0
 13  3  1  0  0  0  0
 16  4  1  0  0  0  0
 17  9  1  0  0  0  0
 18 27  1  0  0  0  0
 19 18  1  0  0  0  0
 19 21  1  0  0  0  0
 20 19  2  0  0  0  0
 21 29  1  0  0  0  0
 21 28  1  0  0  0  0
 22 21  1  0  0  0  0
 22 30  1  1  0  0  0
 23 22  1  0  0  0  0
 23  7  1  0  0  0  0
 24 25  2  0  0  0  0
 24 22  1  0  0  0  0
 26 18  1  0  0  0  0
 31 23  1  0  0  0  0
 32 42  1  0  0  0  0
 32 33  1  0  0  0  0
 33 34  2  0  0  0  0
 33 35  1  0  0  0  0
 35 44  1  0  0  0  0
 35 36  1  0  0  0  0
 36 46  1  0  0  0  0
 36 37  1  0  0  0  0
 37 48  1  1  0  0  0
 37 38  1  0  0  0  0
 38 24  1  0  0  0  0
 39 37  1  0  0  0  0
 39 40  1  0  0  0  0
 41 39  2  0  0  0  0
 43 32  1  0  0  0  0
 45 35  1  0  0  0  0
 47 36  1  0  0  0  0
 49 38  1  0  0  0  0
M  END
$$$$
