ENR.pdb
 OpenBabel07022418173D

 55 54  0  0  1  0  0  0  0  0999 V2000
   -0.0290   -0.0490    5.1080 N   0  0  0  0  0  0  0  0  0  0  0  0
    0.8560    0.1610    3.9860 C   0  0  1  0  0  0  0  0  0  0  0  0
    1.4990   -1.1280    3.5450 C   0  0  0  0  0  0  0  0  0  0  0  0
    0.4860   -2.1570    3.1210 C   0  0  0  0  0  0  0  0  0  0  0  0
    1.1720   -3.3980    2.7000 C   0  0  0  0  0  0  0  0  0  0  0  0
    1.6500   -4.1870    3.5660 O   0  0  0  0  0  0  0  0  0  0  0  0
    0.1730    0.8370    2.8470 C   0  0  0  0  0  0  0  0  0  0  0  0
   -1.0370    1.1760    2.8700 O   0  0  0  0  0  0  0  0  0  0  0  0
    1.3220   -3.7470    1.3820 O   0  0  0  0  0  0  0  0  0  0  0  0
    0.5440   -0.4300    5.8810 H   0  0  0  0  0  0  0  0  0  0  0  0
   -0.8160   -0.6830    4.9290 H   0  0  0  0  0  0  0  0  0  0  0  0
    1.6450    0.8600    4.3320 H   0  0  0  0  0  0  0  0  0  0  0  0
    2.0450   -1.5410    4.4180 H   0  0  0  0  0  0  0  0  0  0  0  0
    2.1850   -0.8910    2.7250 H   0  0  0  0  0  0  0  0  0  0  0  0
   -0.1640   -1.8240    2.3080 H   0  0  0  0  0  0  0  0  0  0  0  0
   -0.1790   -2.3870    3.9990 H   0  0  0  0  0  0  0  0  0  0  0  0
    2.0970   -4.2540    1.0230 H   0  0  0  0  0  0  0  0  0  0  0  0
    0.6740    3.7820    2.6010 N   0  0  0  0  0  0  0  0  0  0  0  0
    1.2210    3.9230    1.3130 C   0  0  0  0  0  0  0  0  0  0  0  0
    1.8850    4.9890    1.1070 O   0  0  0  0  0  0  0  0  0  0  0  0
    1.1010    2.9720    0.2000 C   0  0  0  0  0  0  0  0  0  0  0  0
    0.2900    1.7620    0.5730 C   0  0  2  0  0  0  0  0  0  0  0  0
    0.9470    1.1020    1.6840 N   0  0  0  0  0  0  0  0  0  0  0  0
    0.2840    0.8210   -0.6260 C   0  0  0  0  0  0  0  0  0  0  0  0
   -0.2390    1.2110   -1.6990 O   0  0  0  0  0  0  0  0  0  0  0  0
   -0.3520    3.8630    2.7060 H   0  0  0  0  0  0  0  0  0  0  0  0
    1.2400    3.5990    3.4650 H   0  0  0  0  0  0  0  0  0  0  0  0
    0.6840    3.5130   -0.6710 H   0  0  0  0  0  0  0  0  0  0  0  0
    2.1490    2.6870   -0.0920 H   0  0  0  0  0  0  0  0  0  0  0  0
   -0.7340    2.0570    0.8050 H   0  0  0  0  0  0  0  0  0  0  0  0
    1.9730    0.8270    1.6310 H   0  0  0  0  0  0  0  0  0  0  0  0
   -5.4630   -2.1260   -2.0820 N   0  0  0  0  0  0  0  0  0  0  0  0
   -4.2030   -2.7290   -2.3390 C   0  0  0  0  0  0  0  0  0  0  0  0
   -3.9220   -3.2520   -3.4820 N   0  0  0  0  0  0  0  0  0  0  0  0
   -3.2560   -2.7270   -1.2640 N   0  0  0  0  0  0  0  0  0  0  0  0
   -1.8290   -2.8070   -1.5480 C   0  0  0  0  0  0  0  0  0  0  0  0
   -1.4580   -1.5000   -2.2260 C   0  0  0  0  0  0  0  0  0  0  0  0
   -0.0310   -1.4130   -2.6000 C   0  0  0  0  0  0  0  0  0  0  0  0
    0.9580   -1.5020   -1.4620 C   0  0  2  0  0  0  0  0  0  0  0  0
    0.8510   -0.4510   -0.5320 N   0  0  0  0  0  0  0  0  0  0  0  0
    2.2920   -1.8490   -1.9330 C   0  0  0  0  0  0  0  0  0  0  0  0
    3.2770   -1.2020   -1.4920 O   0  0  0  0  0  0  0  0  0  0  0  0
    2.5660   -2.8560   -2.8450 O   0  0  0  0  0  0  0  0  0  0  0  0
   -5.8770   -1.5060   -2.8050 H   0  0  0  0  0  0  0  0  0  0  0  0
   -5.9540   -2.3040   -1.1920 H   0  0  0  0  0  0  0  0  0  0  0  0
   -3.0120   -3.6870   -3.6660 H   0  0  0  0  0  0  0  0  0  0  0  0
   -3.6510   -2.6670   -0.3000 H   0  0  0  0  0  0  0  0  0  0  0  0
   -1.6090   -3.6570   -2.2170 H   0  0  0  0  0  0  0  0  0  0  0  0
   -1.3490   -2.9430   -0.5590 H   0  0  0  0  0  0  0  0  0  0  0  0
   -2.0370   -1.5300   -3.2040 H   0  0  0  0  0  0  0  0  0  0  0  0
   -1.9160   -0.6950   -1.6620 H   0  0  0  0  0  0  0  0  0  0  0  0
    0.1760   -2.2250   -3.3500 H   0  0  0  0  0  0  0  0  0  0  0  0
    0.1530   -0.4790   -3.1610 H   0  0  0  0  0  0  0  0  0  0  0  0
    0.5580   -2.4640   -0.9240 H   0  0  0  0  0  0  0  0  0  0  0  0
    1.2870   -0.6700    0.4330 H   0  0  0  0  0  0  0  0  0  0  0  0
  1 10  1  0  0  0  0
  2 12  1  1  0  0  0
  2  1  1  0  0  0  0
  3  2  1  0  0  0  0
  3 13  1  0  0  0  0
  4  3  1  0  0  0  0
  4 16  1  0  0  0  0
  5  4  1  0  0  0  0
  5  6  2  0  0  0  0
  7  8  2  0  0  0  0
  7  2  1  0  0  0  0
  9  5  1  0  0  0  0
 11  1  1  0  0  0  0
 14  3  1  0  0  0  0
 15  4  1  0  0  0  0
 17  9  1  0  0  0  0
 18 26  1  0  0  0  0
 18 27  1  0  0  0  0
 19 18  1  0  0  0  0
 20 19  2  0  0  0  0
 21 22  1  0  0  0  0
 21 19  1  0  0  0  0
 22 30  1  1  0  0  0
 22 23  1  0  0  0  0
 23  7  1  0  0  0  0
 24 40  1  0  0  0  0
 24 22  1  0  0  0  0
 25 24  2  0  0  0  0
 28 21  1  0  0  0  0
 29 21  1  0  0  0  0
 31 23  1  0  0  0  0
 32 45  1  0  0  0  0
 33 32  1  0  0  0  0
 33 35  1  0  0  0  0
 34 33  2  0  0  0  0
 35 47  1  0  0  0  0
 36 35  1  0  0  0  0
 36 49  1  0  0  0  0
 37 51  1  0  0  0  0
 37 36  1  0  0  0  0
 38 37  1  0  0  0  0
 38 39  1  0  0  0  0
 39 54  1  1  0  0  0
 39 40  1  0  0  0  0
 40 55  1  0  0  0  0
 41 42  1  0  0  0  0
 41 39  1  0  0  0  0
 43 41  2  0  0  0  0
 44 32  1  0  0  0  0
 46 34  1  0  0  0  0
 48 36  1  0  0  0  0
 50 37  1  0  0  0  0
 52 38  1  0  0  0  0
 53 38  1  0  0  0  0
M  END
$$$$
