ENS.pdb
 OpenBabel07022418173D

 43 42  0  0  1  0  0  0  0  0999 V2000
   -0.8020   -2.5530    4.2300 N   0  0  0  0  0  0  0  0  0  0  0  0
    0.1120   -1.7340    3.4860 C   0  0  1  0  0  0  0  0  0  0  0  0
    1.0230   -2.5330    2.6260 C   0  0  0  0  0  0  0  0  0  0  0  0
    0.3430   -3.3780    1.6020 C   0  0  0  0  0  0  0  0  0  0  0  0
    1.3540   -4.1350    0.7900 C   0  0  0  0  0  0  0  0  0  0  0  0
    2.5710   -3.9700    1.0450 O   0  0  0  0  0  0  0  0  0  0  0  0
   -0.5660   -0.6250    2.8060 C   0  0  0  0  0  0  0  0  0  0  0  0
   -1.8090   -0.5210    2.9480 O   0  0  0  0  0  0  0  0  0  0  0  0
    0.9750   -4.9990   -0.2200 O   0  0  0  0  0  0  0  0  0  0  0  0
   -1.5750   -1.9150    4.5570 H   0  0  0  0  0  0  0  0  0  0  0  0
   -1.2020   -3.3510    3.7090 H   0  0  0  0  0  0  0  0  0  0  0  0
    0.7730   -1.2460    4.2690 H   0  0  0  0  0  0  0  0  0  0  0  0
    1.8050   -1.9000    2.1600 H   0  0  0  0  0  0  0  0  0  0  0  0
    1.5990   -3.2220    3.3110 H   0  0  0  0  0  0  0  0  0  0  0  0
   -0.2760   -4.1780    2.0910 H   0  0  0  0  0  0  0  0  0  0  0  0
   -0.3570   -2.8120    0.9730 H   0  0  0  0  0  0  0  0  0  0  0  0
    1.7360   -5.4540   -0.7430 H   0  0  0  0  0  0  0  0  0  0  0  0
    0.0290    5.1930    1.7030 N   0  0  0  0  0  0  0  0  0  0  0  0
   -0.5760    3.9380    1.3270 C   0  0  0  0  0  0  0  0  0  0  0  0
   -1.5760    4.0250    0.5750 O   0  0  0  0  0  0  0  0  0  0  0  0
    0.0020    2.7070    1.8330 C   0  0  0  0  0  0  0  0  0  0  0  0
   -0.5820    1.4240    1.3380 C   0  0  2  0  0  0  0  0  0  0  0  0
    0.1240    0.3150    2.0080 N   0  0  0  0  0  0  0  0  0  0  0  0
   -0.3740    1.3120   -0.1300 C   0  0  0  0  0  0  0  0  0  0  0  0
   -0.8550    2.1370   -0.9060 O   0  0  0  0  0  0  0  0  0  0  0  0
   -0.3270    6.1020    1.3940 H   0  0  0  0  0  0  0  0  0  0  0  0
    0.8660    5.1660    2.3170 H   0  0  0  0  0  0  0  0  0  0  0  0
    0.0140    2.7590    2.9540 H   0  0  0  0  0  0  0  0  0  0  0  0
    1.1070    2.7050    1.5690 H   0  0  0  0  0  0  0  0  0  0  0  0
   -1.6580    1.3990    1.5900 H   0  0  0  0  0  0  0  0  0  0  0  0
    1.1520    0.2450    1.8810 H   0  0  0  0  0  0  0  0  0  0  0  0
    2.5770   -1.3090   -1.6580 O   0  0  0  0  0  0  0  0  0  0  0  0
    2.1260   -0.1820   -2.3490 C   0  0  0  0  0  0  0  0  0  0  0  0
    0.6590    0.0300   -2.0520 C   0  0  2  0  0  0  0  0  0  0  0  0
    0.3910    0.2370   -0.6510 N   0  0  0  0  0  0  0  0  0  0  0  0
   -0.0440   -1.2500   -2.4250 C   0  0  0  0  0  0  0  0  0  0  0  0
   -0.7070   -1.9300   -1.6050 O   0  0  0  0  0  0  0  0  0  0  0  0
    0.0840   -1.6490   -3.7540 O   0  0  0  0  0  0  0  0  0  0  0  0
    1.8220   -1.8680   -1.3310 H   0  0  0  0  0  0  0  0  0  0  0  0
    2.2270   -0.4100   -3.4230 H   0  0  0  0  0  0  0  0  0  0  0  0
    2.7340    0.7140   -2.1320 H   0  0  0  0  0  0  0  0  0  0  0  0
    0.2370    0.8270   -2.6940 H   0  0  0  0  0  0  0  0  0  0  0  0
    0.7860   -0.4510    0.0190 H   0  0  0  0  0  0  0  0  0  0  0  0
  1 10  1  0  0  0  0
  2  1  1  0  0  0  0
  2 12  1  1  0  0  0
  3 14  1  0  0  0  0
  3  2  1  0  0  0  0
  4 15  1  0  0  0  0
  4  3  1  0  0  0  0
  5  6  2  0  0  0  0
  5  4  1  0  0  0  0
  7  8  2  0  0  0  0
  7  2  1  0  0  0  0
  9  5  1  0  0  0  0
 11  1  1  0  0  0  0
 13  3  1  0  0  0  0
 16  4  1  0  0  0  0
 17  9  1  0  0  0  0
 18 27  1  0  0  0  0
 19 18  1  0  0  0  0
 19 21  1  0  0  0  0
 20 19  2  0  0  0  0
 21 28  1  0  0  0  0
 22 30  1  1  0  0  0
 22 21  1  0  0  0  0
 22 23  1  0  0  0  0
 23  7  1  0  0  0  0
 24 22  1  0  0  0  0
 25 24  2  0  0  0  0
 26 18  1  0  0  0  0
 29 21  1  0  0  0  0
 31 23  1  0  0  0  0
 32 39  1  0  0  0  0
 33 41  1  0  0  0  0
 33 34  1  0  0  0  0
 33 32  1  0  0  0  0
 34 42  1  6  0  0  0
 34 35  1  0  0  0  0
 35 24  1  0  0  0  0
 35 43  1  0  0  0  0
 36 34  1  0  0  0  0
 36 37  1  0  0  0  0
 38 36  2  0  0  0  0
 40 33  1  0  0  0  0
M  END
$$$$
