ENT.pdb
 OpenBabel07022418173D

 46 45  0  0  1  0  0  0  0  0999 V2000
    2.4870   -2.2860    4.1500 N   0  0  0  0  0  0  0  0  0  0  0  0
    2.3250   -1.7780    2.7520 C   0  0  1  0  0  0  0  0  0  0  0  0
    1.9470   -2.9530    1.9420 C   0  0  0  0  0  0  0  0  0  0  0  0
    1.7350   -2.7650    0.4830 C   0  0  0  0  0  0  0  0  0  0  0  0
    2.9090   -2.2570   -0.2560 C   0  0  0  0  0  0  0  0  0  0  0  0
    3.9750   -2.0350    0.3400 O   0  0  0  0  0  0  0  0  0  0  0  0
    1.3800   -0.6710    2.8630 C   0  0  0  0  0  0  0  0  0  0  0  0
    0.8560   -0.3660    3.9760 O   0  0  0  0  0  0  0  0  0  0  0  0
    2.8150   -2.0310   -1.6120 O   0  0  0  0  0  0  0  0  0  0  0  0
    1.5240   -2.5110    4.4800 H   0  0  0  0  0  0  0  0  0  0  0  0
    2.9770   -3.2120    4.0360 H   0  0  0  0  0  0  0  0  0  0  0  0
    3.3570   -1.4420    2.4850 H   0  0  0  0  0  0  0  0  0  0  0  0
    1.0260   -3.4440    2.3440 H   0  0  0  0  0  0  0  0  0  0  0  0
    2.7460   -3.7230    2.0780 H   0  0  0  0  0  0  0  0  0  0  0  0
    1.6070   -3.8350    0.0750 H   0  0  0  0  0  0  0  0  0  0  0  0
    0.8090   -2.2570    0.2040 H   0  0  0  0  0  0  0  0  0  0  0  0
    3.5290   -1.5580   -2.1590 H   0  0  0  0  0  0  0  0  0  0  0  0
    2.8260    3.8770    1.6800 N   0  0  0  0  0  0  0  0  0  0  0  0
    2.0440    2.7300    2.0830 C   0  0  0  0  0  0  0  0  0  0  0  0
    2.4900    2.0450    3.0180 O   0  0  0  0  0  0  0  0  0  0  0  0
    0.7820    2.4590    1.3590 C   0  0  0  0  0  0  0  0  0  0  0  0
    0.0950    1.2160    1.9200 C   0  0  2  0  0  0  0  0  0  0  0  0
    1.0070    0.1160    1.7530 N   0  0  0  0  0  0  0  0  0  0  0  0
   -1.2170    1.0730    1.2960 C   0  0  0  0  0  0  0  0  0  0  0  0
   -2.0270    2.0400    1.4100 O   0  0  0  0  0  0  0  0  0  0  0  0
    2.2990    4.7190    1.4110 H   0  0  0  0  0  0  0  0  0  0  0  0
    3.8600    3.7860    1.6850 H   0  0  0  0  0  0  0  0  0  0  0  0
    0.0810    3.3170    1.3770 H   0  0  0  0  0  0  0  0  0  0  0  0
    1.0510    2.1840    0.3000 H   0  0  0  0  0  0  0  0  0  0  0  0
   -0.0190    1.3990    3.0190 H   0  0  0  0  0  0  0  0  0  0  0  0
    1.3620   -0.0460    0.7910 H   0  0  0  0  0  0  0  0  0  0  0  0
   -2.0620   -1.3590   -2.0260 C   0  0  0  0  0  0  0  0  0  0  0  0
   -2.8790   -0.2100   -1.5300 C   0  0  1  0  0  0  0  0  0  0  0  0
   -4.1630   -0.2840   -2.0430 O   0  0  0  0  0  0  0  0  0  0  0  0
   -2.9770   -0.1420   -0.0270 C   0  0  2  0  0  0  0  0  0  0  0  0
   -1.6430   -0.0620    0.5780 N   0  0  0  0  0  0  0  0  0  0  0  0
   -3.7580   -1.2430    0.5580 C   0  0  0  0  0  0  0  0  0  0  0  0
   -3.3150   -2.0030    1.4560 O   0  0  0  0  0  0  0  0  0  0  0  0
   -5.0520   -1.4920    0.1260 O   0  0  0  0  0  0  0  0  0  0  0  0
   -1.1090   -0.9640   -2.4360 H   0  0  0  0  0  0  0  0  0  0  0  0
   -1.7920   -2.0860   -1.2390 H   0  0  0  0  0  0  0  0  0  0  0  0
   -2.5800   -1.8510   -2.8860 H   0  0  0  0  0  0  0  0  0  0  0  0
   -2.4470    0.7630   -1.8710 H   0  0  0  0  0  0  0  0  0  0  0  0
   -4.0930   -0.5140   -2.9940 H   0  0  0  0  0  0  0  0  0  0  0  0
   -3.4760    0.8180    0.2150 H   0  0  0  0  0  0  0  0  0  0  0  0
   -1.0470   -0.9020    0.4380 H   0  0  0  0  0  0  0  0  0  0  0  0
  1 10  1  0  0  0  0
  2 12  1  6  0  0  0
  2  7  1  0  0  0  0
  2  1  1  0  0  0  0
  3 14  1  0  0  0  0
  3 13  1  0  0  0  0
  3  2  1  0  0  0  0
  4  3  1  0  0  0  0
  5  6  2  0  0  0  0
  5  4  1  0  0  0  0
  7  8  2  0  0  0  0
  9  5  1  0  0  0  0
 11  1  1  0  0  0  0
 15  4  1  0  0  0  0
 16  4  1  0  0  0  0
 17  9  1  0  0  0  0
 18 27  1  0  0  0  0
 18 19  1  0  0  0  0
 19 20  2  0  0  0  0
 21 28  1  0  0  0  0
 21 22  1  0  0  0  0
 21 19  1  0  0  0  0
 22 30  1  1  0  0  0
 23 22  1  0  0  0  0
 23  7  1  0  0  0  0
 24 25  2  0  0  0  0
 24 22  1  0  0  0  0
 26 18  1  0  0  0  0
 29 21  1  0  0  0  0
 31 23  1  0  0  0  0
 32 33  1  0  0  0  0
 32 41  1  0  0  0  0
 33 43  1  6  0  0  0
 33 35  1  0  0  0  0
 34 33  1  0  0  0  0
 35 45  1  1  0  0  0
 35 37  1  0  0  0  0
 35 36  1  0  0  0  0
 36 24  1  0  0  0  0
 37 38  1  0  0  0  0
 39 37  2  0  0  0  0
 40 32  1  0  0  0  0
 42 32  1  0  0  0  0
 44 34  1  0  0  0  0
 46 36  1  0  0  0  0
M  END
$$$$
