ENV.pdb
 OpenBabel07022418173D

 48 47  0  0  1  0  0  0  0  0999 V2000
    3.4350   -1.6780    0.7630 N   0  0  0  0  0  0  0  0  0  0  0  0
    3.1690   -0.2420    0.9810 C   0  0  1  0  0  0  0  0  0  0  0  0
    2.7050    0.3250   -0.3260 C   0  0  0  0  0  0  0  0  0  0  0  0
    2.4170    1.8050   -0.2710 C   0  0  0  0  0  0  0  0  0  0  0  0
    1.9470    2.3200   -1.5810 C   0  0  0  0  0  0  0  0  0  0  0  0
    1.8470    1.5140   -2.5330 O   0  0  0  0  0  0  0  0  0  0  0  0
    2.0860   -0.2040    1.9780 C   0  0  0  0  0  0  0  0  0  0  0  0
    2.3050   -0.4090    3.2230 O   0  0  0  0  0  0  0  0  0  0  0  0
    1.6450    3.6680   -1.6720 O   0  0  0  0  0  0  0  0  0  0  0  0
    4.2920   -1.8080    0.1780 H   0  0  0  0  0  0  0  0  0  0  0  0
    3.5170   -2.1710    1.6800 H   0  0  0  0  0  0  0  0  0  0  0  0
    4.0990    0.2530    1.3480 H   0  0  0  0  0  0  0  0  0  0  0  0
    1.8270   -0.2100   -0.7290 H   0  0  0  0  0  0  0  0  0  0  0  0
    3.4970    0.1740   -1.1220 H   0  0  0  0  0  0  0  0  0  0  0  0
    3.4450    2.2820   -0.1340 H   0  0  0  0  0  0  0  0  0  0  0  0
    1.7760    2.1230    0.5530 H   0  0  0  0  0  0  0  0  0  0  0  0
    1.4500    4.0190   -2.6160 H   0  0  0  0  0  0  0  0  0  0  0  0
   -0.7770    3.8540    2.9290 N   0  0  0  0  0  0  0  0  0  0  0  0
   -0.1890    2.5590    2.9200 C   0  0  0  0  0  0  0  0  0  0  0  0
    1.0340    2.4210    3.1710 O   0  0  0  0  0  0  0  0  0  0  0  0
   -1.0480    1.3980    2.6090 C   0  0  0  0  0  0  0  0  0  0  0  0
   -0.3160    0.0950    2.6110 C   0  0  2  0  0  0  0  0  0  0  0  0
    0.7640    0.0550    1.6240 N   0  0  0  0  0  0  0  0  0  0  0  0
   -1.2920   -0.9820    2.2920 C   0  0  0  0  0  0  0  0  0  0  0  0
   -2.3270   -1.1810    2.9810 O   0  0  0  0  0  0  0  0  0  0  0  0
   -1.2170    4.2800    3.7860 H   0  0  0  0  0  0  0  0  0  0  0  0
   -0.7980    4.4480    2.0760 H   0  0  0  0  0  0  0  0  0  0  0  0
   -1.5570    1.5510    1.6450 H   0  0  0  0  0  0  0  0  0  0  0  0
   -1.8420    1.3680    3.3830 H   0  0  0  0  0  0  0  0  0  0  0  0
    0.1320   -0.1390    3.5880 H   0  0  0  0  0  0  0  0  0  0  0  0
    0.4470    0.2260    0.6400 H   0  0  0  0  0  0  0  0  0  0  0  0
   -3.6070   -3.9900   -0.6630 C   0  0  0  0  0  0  0  0  0  0  0  0
   -2.6590   -2.8210   -0.4940 C   0  0  0  0  0  0  0  0  0  0  0  0
   -1.6060   -2.9530   -1.5850 C   0  0  0  0  0  0  0  0  0  0  0  0
   -2.0580   -2.9120    0.8600 C   0  0  2  0  0  0  0  0  0  0  0  0
   -1.1310   -1.8650    1.1890 N   0  0  0  0  0  0  0  0  0  0  0  0
   -1.3660   -4.2100    0.9980 C   0  0  0  0  0  0  0  0  0  0  0  0
   -1.9140   -5.3360    0.7920 O   0  0  0  0  0  0  0  0  0  0  0  0
   -0.0370   -4.2510    1.3750 O   0  0  0  0  0  0  0  0  0  0  0  0
   -3.1020   -4.8540   -1.1370 H   0  0  0  0  0  0  0  0  0  0  0  0
   -3.9470   -4.3170    0.3400 H   0  0  0  0  0  0  0  0  0  0  0  0
   -4.4710   -3.7250   -1.3130 H   0  0  0  0  0  0  0  0  0  0  0  0
   -3.2860   -1.9120   -0.6490 H   0  0  0  0  0  0  0  0  0  0  0  0
   -0.5950   -3.1100   -1.1550 H   0  0  0  0  0  0  0  0  0  0  0  0
   -1.6400   -2.0480   -2.2420 H   0  0  0  0  0  0  0  0  0  0  0  0
   -1.7950   -3.8170   -2.2540 H   0  0  0  0  0  0  0  0  0  0  0  0
   -2.8820   -2.8890    1.6070 H   0  0  0  0  0  0  0  0  0  0  0  0
   -0.2990   -1.7640    0.5710 H   0  0  0  0  0  0  0  0  0  0  0  0
  1  2  1  0  0  0  0
  1 11  1  0  0  0  0
  2 12  1  1  0  0  0
  2  7  1  0  0  0  0
  3  4  1  0  0  0  0
  3  2  1  0  0  0  0
  4 15  1  0  0  0  0
  4 16  1  0  0  0  0
  5  4  1  0  0  0  0
  6  5  2  0  0  0  0
  7  8  2  0  0  0  0
  9  5  1  0  0  0  0
 10  1  1  0  0  0  0
 13  3  1  0  0  0  0
 14  3  1  0  0  0  0
 17  9  1  0  0  0  0
 18 26  1  0  0  0  0
 19 18  1  0  0  0  0
 19 20  2  0  0  0  0
 21 22  1  0  0  0  0
 21 19  1  0  0  0  0
 21 29  1  0  0  0  0
 22 30  1  1  0  0  0
 23  7  1  0  0  0  0
 23 22  1  0  0  0  0
 24 22  1  0  0  0  0
 24 25  2  0  0  0  0
 27 18  1  0  0  0  0
 28 21  1  0  0  0  0
 31 23  1  0  0  0  0
 32 33  1  0  0  0  0
 32 41  1  0  0  0  0
 33 35  1  0  0  0  0
 34 44  1  0  0  0  0
 34 33  1  0  0  0  0
 35 37  1  0  0  0  0
 35 36  1  0  0  0  0
 35 47  1  1  0  0  0
 36 24  1  0  0  0  0
 37 39  1  0  0  0  0
 38 37  2  0  0  0  0
 40 32  1  0  0  0  0
 42 32  1  0  0  0  0
 43 33  1  0  0  0  0
 45 34  1  0  0  0  0
 46 34  1  0  0  0  0
 48 36  1  0  0  0  0
M  END
$$$$
