ENW.pdb
 OpenBabel07022418173D

 56 57  0  0  1  0  0  0  0  0999 V2000
   -3.4780    2.4430    1.3800 N   0  0  0  0  0  0  0  0  0  0  0  0
   -2.1820    1.8090    1.4730 C   0  0  1  0  0  0  0  0  0  0  0  0
   -2.2940    0.3480    1.7700 C   0  0  0  0  0  0  0  0  0  0  0  0
   -3.0120    0.1030    3.0910 C   0  0  0  0  0  0  0  0  0  0  0  0
   -3.1150   -1.3420    3.3850 C   0  0  0  0  0  0  0  0  0  0  0  0
   -3.9800   -2.0690    2.8330 O   0  0  0  0  0  0  0  0  0  0  0  0
   -1.4590    2.0840    0.2110 C   0  0  0  0  0  0  0  0  0  0  0  0
   -1.9630    2.7890   -0.7170 O   0  0  0  0  0  0  0  0  0  0  0  0
   -2.2540   -1.9550    4.2870 O   0  0  0  0  0  0  0  0  0  0  0  0
   -3.6130    2.9510    0.4790 H   0  0  0  0  0  0  0  0  0  0  0  0
   -3.6940    3.0590    2.2100 H   0  0  0  0  0  0  0  0  0  0  0  0
   -1.6730    2.2870    2.3570 H   0  0  0  0  0  0  0  0  0  0  0  0
   -1.3280   -0.1830    1.7300 H   0  0  0  0  0  0  0  0  0  0  0  0
   -2.9360   -0.1270    0.9800 H   0  0  0  0  0  0  0  0  0  0  0  0
   -2.4630    0.6310    3.8940 H   0  0  0  0  0  0  0  0  0  0  0  0
   -4.0330    0.5060    3.0820 H   0  0  0  0  0  0  0  0  0  0  0  0
   -1.9600   -2.9080    4.2310 H   0  0  0  0  0  0  0  0  0  0  0  0
    1.9110    5.0310   -0.8330 N   0  0  0  0  0  0  0  0  0  0  0  0
    1.6370    3.7990   -0.1930 C   0  0  0  0  0  0  0  0  0  0  0  0
    1.2070    3.8250    0.9810 O   0  0  0  0  0  0  0  0  0  0  0  0
    1.8590    2.5420   -0.9040 C   0  0  0  0  0  0  0  0  0  0  0  0
    0.5620    1.8460   -1.2890 C   0  0  2  0  0  0  0  0  0  0  0  0
   -0.1500    1.5790   -0.0540 N   0  0  0  0  0  0  0  0  0  0  0  0
    0.9440    0.5900   -1.9840 C   0  0  0  0  0  0  0  0  0  0  0  0
    1.5550    0.7030   -3.0770 O   0  0  0  0  0  0  0  0  0  0  0  0
    1.2080    5.5580   -1.3890 H   0  0  0  0  0  0  0  0  0  0  0  0
    2.8710    5.4580   -0.7550 H   0  0  0  0  0  0  0  0  0  0  0  0
    2.4870    1.8660   -0.2640 H   0  0  0  0  0  0  0  0  0  0  0  0
    2.4870    2.7290   -1.8120 H   0  0  0  0  0  0  0  0  0  0  0  0
   -0.0120    2.4980   -1.9710 H   0  0  0  0  0  0  0  0  0  0  0  0
    0.3220    0.9950    0.6580 H   0  0  0  0  0  0  0  0  0  0  0  0
    0.6650   -0.6930   -1.4980 N   0  0  0  0  0  0  0  0  0  0  0  0
    1.0490   -1.9310   -2.2000 C   0  0  1  0  0  0  0  0  0  0  0  0
    2.1230   -2.5950   -1.3990 C   0  0  0  0  0  0  0  0  0  0  0  0
    1.7720   -2.9370   -0.0130 C   0  0  0  0  0  0  0  0  0  0  0  0
    2.0460   -2.1730    1.1260 C   0  0  0  0  0  0  0  0  0  0  0  0
    1.5440   -2.7920    2.1830 N   0  0  0  0  0  0  0  0  0  0  0  0
    0.9390   -3.9500    1.8050 C   0  0  0  0  0  0  0  0  0  0  0  0
    0.2890   -4.9240    2.5570 C   0  0  0  0  0  0  0  0  0  0  0  0
   -0.2210   -6.0110    1.8840 C   0  0  0  0  0  0  0  0  0  0  0  0
   -0.0910   -6.1270    0.5190 C   0  0  0  0  0  0  0  0  0  0  0  0
    0.5530   -5.1600   -0.2170 C   0  0  0  0  0  0  0  0  0  0  0  0
    1.0810   -4.0430    0.4360 C   0  0  0  0  0  0  0  0  0  0  0  0
   -0.0950   -2.7250   -2.6000 C   0  0  0  0  0  0  0  0  0  0  0  0
   -1.2870   -2.4190   -2.2370 O   0  0  0  0  0  0  0  0  0  0  0  0
   -0.0340   -3.8620   -3.3940 O   0  0  0  0  0  0  0  0  0  0  0  0
    0.1590   -0.7810   -0.5910 H   0  0  0  0  0  0  0  0  0  0  0  0
    1.5560   -1.6080   -3.1710 H   0  0  0  0  0  0  0  0  0  0  0  0
    2.4570   -3.5400   -1.9240 H   0  0  0  0  0  0  0  0  0  0  0  0
    3.0560   -1.9840   -1.3570 H   0  0  0  0  0  0  0  0  0  0  0  0
    2.5740   -1.2510    1.1010 H   0  0  0  0  0  0  0  0  0  0  0  0
    1.5750   -2.4900    3.1860 H   0  0  0  0  0  0  0  0  0  0  0  0
    0.2000   -4.8120    3.6280 H   0  0  0  0  0  0  0  0  0  0  0  0
   -0.7450   -6.8100    2.4290 H   0  0  0  0  0  0  0  0  0  0  0  0
   -0.5030   -7.0000   -0.0090 H   0  0  0  0  0  0  0  0  0  0  0  0
    0.6920   -5.2160   -1.2780 H   0  0  0  0  0  0  0  0  0  0  0  0
  1  2  1  0  0  0  0
  1 11  1  0  0  0  0
  2  3  1  0  0  0  0
  2 12  1  1  0  0  0
  3  4  1  0  0  0  0
  4  5  1  0  0  0  0
  4 15  1  0  0  0  0
  5  9  1  0  0  0  0
  6  5  2  0  0  0  0
  7  2  1  0  0  0  0
  8  7  2  0  0  0  0
 10  1  1  0  0  0  0
 13  3  1  0  0  0  0
 14  3  1  0  0  0  0
 16  4  1  0  0  0  0
 17  9  1  0  0  0  0
 18 27  1  0  0  0  0
 18 19  1  0  0  0  0
 19 20  2  0  0  0  0
 21 28  1  0  0  0  0
 21 19  1  0  0  0  0
 22 30  1  6  0  0  0
 22 21  1  0  0  0  0
 22 23  1  0  0  0  0
 23  7  1  0  0  0  0
 23 31  1  0  0  0  0
 24 32  1  0  0  0  0
 24 22  1  0  0  0  0
 25 24  2  0  0  0  0
 26 18  1  0  0  0  0
 29 21  1  0  0  0  0
 32 47  1  0  0  0  0
 33 48  1  6  0  0  0
 33 32  1  0  0  0  0
 33 34  1  0  0  0  0
 34 50  1  0  0  0  0
 34 35  1  0  0  0  0
 35 43  1  0  0  0  0
 35 36  2  0  0  0  0
 36 37  1  0  0  0  0
 37 52  1  0  0  0  0
 38 37  1  0  0  0  0
 38 39  1  0  0  0  0
 39 53  1  0  0  0  0
 40 54  1  0  0  0  0
 40 39  2  0  0  0  0
 41 40  1  0  0  0  0
 42 43  1  0  0  0  0
 42 41  2  0  0  0  0
 43 38  2  0  0  0  0
 44 45  1  0  0  0  0
 44 33  1  0  0  0  0
 46 44  2  0  0  0  0
 49 34  1  0  0  0  0
 51 36  1  0  0  0  0
 55 41  1  0  0  0  0
 56 42  1  0  0  0  0
M  END
$$$$
