ENY.pdb
 OpenBabel07022418173D

 53 53  0  0  1  0  0  0  0  0999 V2000
    0.8000   -1.8720    2.5350 N   0  0  0  0  0  0  0  0  0  0  0  0
    1.0730   -0.5790    3.1410 C   0  0  1  0  0  0  0  0  0  0  0  0
    2.3110   -0.7270    3.9850 C   0  0  0  0  0  0  0  0  0  0  0  0
    2.7450    0.5090    4.6860 C   0  0  0  0  0  0  0  0  0  0  0  0
    1.7670    1.0450    5.6330 C   0  0  0  0  0  0  0  0  0  0  0  0
    0.6830    0.4570    5.8370 O   0  0  0  0  0  0  0  0  0  0  0  0
    1.3050    0.3960    2.0520 C   0  0  0  0  0  0  0  0  0  0  0  0
    1.5450    1.6210    2.3160 O   0  0  0  0  0  0  0  0  0  0  0  0
    2.0550    2.2370    6.3210 O   0  0  0  0  0  0  0  0  0  0  0  0
   -0.0240   -1.7800    1.9090 H   0  0  0  0  0  0  0  0  0  0  0  0
    1.6050   -2.1760    1.9530 H   0  0  0  0  0  0  0  0  0  0  0  0
    0.1770   -0.2880    3.7440 H   0  0  0  0  0  0  0  0  0  0  0  0
    2.0830   -1.5580    4.7080 H   0  0  0  0  0  0  0  0  0  0  0  0
    3.1290   -1.1310    3.3390 H   0  0  0  0  0  0  0  0  0  0  0  0
    3.1230    1.2950    3.9950 H   0  0  0  0  0  0  0  0  0  0  0  0
    3.6550    0.2300    5.3000 H   0  0  0  0  0  0  0  0  0  0  0  0
    1.5150    2.3860    7.1790 H   0  0  0  0  0  0  0  0  0  0  0  0
    3.8210   -1.2710   -2.4420 N   0  0  0  0  0  0  0  0  0  0  0  0
    2.6700   -0.7690   -1.7340 C   0  0  0  0  0  0  0  0  0  0  0  0
    1.6850   -1.5430   -1.6960 O   0  0  0  0  0  0  0  0  0  0  0  0
    2.7390    0.5740   -1.1290 C   0  0  0  0  0  0  0  0  0  0  0  0
    1.4980    0.9800   -0.3840 C   0  0  2  0  0  0  0  0  0  0  0  0
    1.2730    0.0350    0.7000 N   0  0  0  0  0  0  0  0  0  0  0  0
    0.3630    0.9790   -1.3420 C   0  0  0  0  0  0  0  0  0  0  0  0
    0.3750    1.6980   -2.3870 O   0  0  0  0  0  0  0  0  0  0  0  0
    4.7650   -0.9820   -2.1300 H   0  0  0  0  0  0  0  0  0  0  0  0
    3.7200   -1.9030   -3.2410 H   0  0  0  0  0  0  0  0  0  0  0  0
    3.5990    0.5330   -0.4010 H   0  0  0  0  0  0  0  0  0  0  0  0
    3.0220    1.3080   -1.9140 H   0  0  0  0  0  0  0  0  0  0  0  0
    1.6630    2.0000    0.0440 H   0  0  0  0  0  0  0  0  0  0  0  0
    1.0790   -0.9500    0.4370 H   0  0  0  0  0  0  0  0  0  0  0  0
   -3.7320   -4.8950    1.2780 O   0  0  0  0  0  0  0  0  0  0  0  0
   -3.3790   -3.9660    0.3080 C   0  0  0  0  0  0  0  0  0  0  0  0
   -4.3320   -3.1780   -0.2980 C   0  0  0  0  0  0  0  0  0  0  0  0
   -3.9780   -2.2570   -1.2600 C   0  0  0  0  0  0  0  0  0  0  0  0
   -2.6650   -2.1000   -1.6390 C   0  0  0  0  0  0  0  0  0  0  0  0
   -2.2160   -1.1360   -2.6660 C   0  0  0  0  0  0  0  0  0  0  0  0
   -1.8800    0.2250   -2.1260 C   0  0  2  0  0  0  0  0  0  0  0  0
   -0.8200    0.1780   -1.1630 N   0  0  0  0  0  0  0  0  0  0  0  0
   -3.1100    0.8610   -1.5770 C   0  0  0  0  0  0  0  0  0  0  0  0
   -3.1080    1.2740   -0.4000 O   0  0  0  0  0  0  0  0  0  0  0  0
   -1.7210   -2.8890   -1.0300 C   0  0  0  0  0  0  0  0  0  0  0  0
   -2.0700   -3.8270   -0.0520 C   0  0  0  0  0  0  0  0  0  0  0  0
   -4.2530    1.0090   -2.3300 O   0  0  0  0  0  0  0  0  0  0  0  0
   -4.5410   -4.7070    1.8650 H   0  0  0  0  0  0  0  0  0  0  0  0
   -5.3880   -3.2970   -0.0010 H   0  0  0  0  0  0  0  0  0  0  0  0
   -4.7440   -1.6490   -1.7230 H   0  0  0  0  0  0  0  0  0  0  0  0
   -3.0720   -1.0050   -3.3690 H   0  0  0  0  0  0  0  0  0  0  0  0
   -1.3880   -1.5830   -3.2460 H   0  0  0  0  0  0  0  0  0  0  0  0
   -1.5990    0.8600   -3.0180 H   0  0  0  0  0  0  0  0  0  0  0  0
   -0.8510   -0.4190   -0.3140 H   0  0  0  0  0  0  0  0  0  0  0  0
   -0.6760   -2.8370   -1.2620 H   0  0  0  0  0  0  0  0  0  0  0  0
   -1.3140   -4.4350    0.4130 H   0  0  0  0  0  0  0  0  0  0  0  0
  1  2  1  0  0  0  0
  2 12  1  1  0  0  0
  2  3  1  0  0  0  0
  3  4  1  0  0  0  0
  3 13  1  0  0  0  0
  4 16  1  0  0  0  0
  4  5  1  0  0  0  0
  5  6  2  0  0  0  0
  5  9  1  0  0  0  0
  7  8  2  0  0  0  0
  7  2  1  0  0  0  0
  9 17  1  0  0  0  0
 10  1  1  0  0  0  0
 11  1  1  0  0  0  0
 14  3  1  0  0  0  0
 15  4  1  0  0  0  0
 18 26  1  0  0  0  0
 18 19  1  0  0  0  0
 19 20  2  0  0  0  0
 19 21  1  0  0  0  0
 21 28  1  0  0  0  0
 21 22  1  0  0  0  0
 22 30  1  1  0  0  0
 22 23  1  0  0  0  0
 23  7  1  0  0  0  0
 24 39  1  0  0  0  0
 24 22  1  0  0  0  0
 25 24  2  0  0  0  0
 27 18  1  0  0  0  0
 29 21  1  0  0  0  0
 31 23  1  0  0  0  0
 32 45  1  0  0  0  0
 33 32  1  0  0  0  0
 34 46  1  0  0  0  0
 34 33  2  0  0  0  0
 35 34  1  0  0  0  0
 36 35  2  0  0  0  0
 36 42  1  0  0  0  0
 37 38  1  0  0  0  0
 37 36  1  0  0  0  0
 38 50  1  6  0  0  0
 38 40  1  0  0  0  0
 38 39  1  0  0  0  0
 39 51  1  0  0  0  0
 40 41  1  0  0  0  0
 42 43  2  0  0  0  0
 43 33  1  0  0  0  0
 43 53  1  0  0  0  0
 44 40  2  0  0  0  0
 47 35  1  0  0  0  0
 48 37  1  0  0  0  0
 49 37  1  0  0  0  0
 52 42  1  0  0  0  0
M  END
$$$$
