EPE.pdb
 OpenBabel07022418203D

 48 48  0  0  1  0  0  0  0  0999 V2000
    1.4170   -0.1280   -0.2690 N   0  0  0  0  0  0  0  0  0  0  0  0
    1.9470    1.0580    0.3350 C   0  0  1  0  0  0  0  0  0  0  0  0
    1.3300    2.3180   -0.2310 C   0  0  0  0  0  0  0  0  0  0  0  0
    1.5830    2.4130   -1.7220 C   0  0  0  0  0  0  0  0  0  0  0  0
    3.0280    2.4410   -2.0210 C   0  0  0  0  0  0  0  0  0  0  0  0
    3.7190    1.4040   -2.1270 O   0  0  0  0  0  0  0  0  0  0  0  0
    1.8720    0.9800    1.7870 C   0  0  0  0  0  0  0  0  0  0  0  0
    2.2590    2.0330    2.4130 O   0  0  0  0  0  0  0  0  0  0  0  0
    3.6590    3.6630   -2.1960 O   0  0  0  0  0  0  0  0  0  0  0  0
    0.4580    0.0170   -0.6640 H   0  0  0  0  0  0  0  0  0  0  0  0
    2.0650   -0.5060   -1.0160 H   0  0  0  0  0  0  0  0  0  0  0  0
    3.0390    1.0950    0.0670 H   0  0  0  0  0  0  0  0  0  0  0  0
    1.7080    3.2260    0.2350 H   0  0  0  0  0  0  0  0  0  0  0  0
    0.2170    2.2030   -0.1220 H   0  0  0  0  0  0  0  0  0  0  0  0
    1.1320    3.3530   -2.1180 H   0  0  0  0  0  0  0  0  0  0  0  0
    1.0730    1.5540   -2.2520 H   0  0  0  0  0  0  0  0  0  0  0  0
    4.5720    3.7680   -2.6390 H   0  0  0  0  0  0  0  0  0  0  0  0
    1.4390   -0.0810    2.5920 N   0  0  0  0  0  0  0  0  0  0  0  0
    1.3770   -0.0820    4.0390 C   0  0  0  0  0  0  0  0  0  0  0  0
    1.5500   -1.5170    4.4530 C   0  0  0  0  0  0  0  0  0  0  0  0
    1.0820   -2.3110    3.2950 C   0  0  0  0  0  0  0  0  0  0  0  0
    0.9870   -1.3710    2.1250 C   0  0  1  0  0  0  0  0  0  0  0  0
   -0.4540   -1.3230    1.7210 C   0  0  0  0  0  0  0  0  0  0  0  0
   -1.0550   -0.2530    1.8360 O   0  0  0  0  0  0  0  0  0  0  0  0
    0.4070    0.3160    4.4120 H   0  0  0  0  0  0  0  0  0  0  0  0
    2.2030    0.4930    4.5050 H   0  0  0  0  0  0  0  0  0  0  0  0
    2.6180   -1.7790    4.6320 H   0  0  0  0  0  0  0  0  0  0  0  0
    0.9430   -1.7460    5.3600 H   0  0  0  0  0  0  0  0  0  0  0  0
    0.0550   -2.7110    3.5470 H   0  0  0  0  0  0  0  0  0  0  0  0
    1.7310   -3.1920    3.0680 H   0  0  0  0  0  0  0  0  0  0  0  0
    1.6330   -1.8030    1.3300 H   0  0  0  0  0  0  0  0  0  0  0  0
   -1.1510   -2.4280    1.2240 N   0  0  0  0  0  0  0  0  0  0  0  0
   -2.4940   -2.5230    0.8130 C   0  0  1  0  0  0  0  0  0  0  0  0
   -2.7920   -3.0450   -0.5270 C   0  0  0  0  0  0  0  0  0  0  0  0
   -2.2050   -2.2440   -1.6700 C   0  0  0  0  0  0  0  0  0  0  0  0
   -2.7530   -0.8570   -1.6570 C   0  0  0  0  0  0  0  0  0  0  0  0
   -2.2640    0.0610   -0.9760 O   0  0  0  0  0  0  0  0  0  0  0  0
   -3.2500   -3.3180    1.8150 C   0  0  0  0  0  0  0  0  0  0  0  0
   -4.4740   -3.5590    1.7120 O   0  0  0  0  0  0  0  0  0  0  0  0
   -3.8800   -0.6160   -2.4690 O   0  0  0  0  0  0  0  0  0  0  0  0
   -2.5780   -3.8170    2.9100 O   0  0  0  0  0  0  0  0  0  0  0  0
   -0.5750   -3.3230    1.1480 H   0  0  0  0  0  0  0  0  0  0  0  0
   -2.9370   -1.4830    0.8880 H   0  0  0  0  0  0  0  0  0  0  0  0
   -2.6430   -4.1330   -0.6610 H   0  0  0  0  0  0  0  0  0  0  0  0
   -3.9140   -2.9220   -0.6740 H   0  0  0  0  0  0  0  0  0  0  0  0
   -1.0940   -2.2270   -1.6390 H   0  0  0  0  0  0  0  0  0  0  0  0
   -2.4550   -2.6840   -2.6550 H   0  0  0  0  0  0  0  0  0  0  0  0
   -4.5690    0.0710   -2.1370 H   0  0  0  0  0  0  0  0  0  0  0  0
  1  2  1  0  0  0  0
  2 12  1  6  0  0  0
  2  7  1  0  0  0  0
  3 14  1  0  0  0  0
  3 13  1  0  0  0  0
  3  2  1  0  0  0  0
  4  3  1  0  0  0  0
  5  4  1  0  0  0  0
  6  5  2  0  0  0  0
  7  8  2  0  0  0  0
  7 18  1  0  0  0  0
  9  5  1  0  0  0  0
 10  1  1  0  0  0  0
 11  1  1  0  0  0  0
 15  4  1  0  0  0  0
 16  4  1  0  0  0  0
 17  9  1  0  0  0  0
 18 19  1  0  0  0  0
 19 25  1  0  0  0  0
 19 20  1  0  0  0  0
 19 26  1  0  0  0  0
 20 27  1  0  0  0  0
 20 28  1  0  0  0  0
 21 29  1  0  0  0  0
 21 20  1  0  0  0  0
 22 31  1  6  0  0  0
 22 18  1  0  0  0  0
 22 21  1  0  0  0  0
 23 24  2  0  0  0  0
 23 22  1  0  0  0  0
 30 21  1  0  0  0  0
 32 23  1  0  0  0  0
 33 43  1  1  0  0  0
 33 32  1  0  0  0  0
 33 38  1  0  0  0  0
 34 33  1  0  0  0  0
 35 36  1  0  0  0  0
 35 46  1  0  0  0  0
 35 34  1  0  0  0  0
 36 37  2  0  0  0  0
 38 41  1  0  0  0  0
 39 38  2  0  0  0  0
 40 48  1  0  0  0  0
 40 36  1  0  0  0  0
 42 32  1  0  0  0  0
 44 34  1  0  0  0  0
 45 34  1  0  0  0  0
 47 35  1  0  0  0  0
M  END
$$$$
