EPF.pdb
 OpenBabel07022418203D

 52 53  0  0  1  0  0  0  0  0999 V2000
    3.2310    0.0210    0.0370 N   0  0  0  0  0  0  0  0  0  0  0  0
    1.9850   -0.2480    0.7740 C   0  0  1  0  0  0  0  0  0  0  0  0
    1.9040   -1.7010    1.2170 C   0  0  0  0  0  0  0  0  0  0  0  0
    1.9050   -2.7080    0.1280 C   0  0  0  0  0  0  0  0  0  0  0  0
    3.1120   -2.8050   -0.6770 C   0  0  0  0  0  0  0  0  0  0  0  0
    4.1650   -2.2270   -0.3810 O   0  0  0  0  0  0  0  0  0  0  0  0
    2.0030    0.5700    1.9900 C   0  0  0  0  0  0  0  0  0  0  0  0
    3.1990    0.9440    2.3810 O   0  0  0  0  0  0  0  0  0  0  0  0
    3.0950   -3.5910   -1.8520 O   0  0  0  0  0  0  0  0  0  0  0  0
    3.8280    0.6350    0.5920 H   0  0  0  0  0  0  0  0  0  0  0  0
    3.0310    0.3610   -0.9240 H   0  0  0  0  0  0  0  0  0  0  0  0
    1.1570   -0.0190    0.0890 H   0  0  0  0  0  0  0  0  0  0  0  0
    0.9940   -1.8150    1.8290 H   0  0  0  0  0  0  0  0  0  0  0  0
    2.7590   -1.8930    1.9450 H   0  0  0  0  0  0  0  0  0  0  0  0
    1.0060   -2.5220   -0.5550 H   0  0  0  0  0  0  0  0  0  0  0  0
    1.6610   -3.7290    0.5400 H   0  0  0  0  0  0  0  0  0  0  0  0
    3.7070   -3.3530   -2.6210 H   0  0  0  0  0  0  0  0  0  0  0  0
    0.9260    1.0040    2.7880 N   0  0  0  0  0  0  0  0  0  0  0  0
    1.3230    1.8000    4.0370 C   0  0  0  0  0  0  0  0  0  0  0  0
    0.3710    2.9710    3.9610 C   0  0  0  0  0  0  0  0  0  0  0  0
   -0.6470    2.6070    2.9050 C   0  0  0  0  0  0  0  0  0  0  0  0
   -0.4420    1.0450    2.9280 C   0  0  1  0  0  0  0  0  0  0  0  0
   -1.5060    0.4060    2.2690 C   0  0  0  0  0  0  0  0  0  0  0  0
   -2.6900    0.7690    2.7510 O   0  0  0  0  0  0  0  0  0  0  0  0
    1.0960    1.1090    4.8690 H   0  0  0  0  0  0  0  0  0  0  0  0
    2.3590    2.0910    4.0020 H   0  0  0  0  0  0  0  0  0  0  0  0
    0.9050    3.9200    3.7380 H   0  0  0  0  0  0  0  0  0  0  0  0
   -0.1690    3.0450    4.9440 H   0  0  0  0  0  0  0  0  0  0  0  0
   -0.3050    3.0040    1.9370 H   0  0  0  0  0  0  0  0  0  0  0  0
   -1.6750    2.8620    3.1490 H   0  0  0  0  0  0  0  0  0  0  0  0
   -0.6460    0.8720    4.0770 H   0  0  0  0  0  0  0  0  0  0  0  0
   -1.6540   -0.5210    1.2300 N   0  0  0  0  0  0  0  0  0  0  0  0
   -2.9480   -1.0060    0.7610 C   0  0  1  0  0  0  0  0  0  0  0  0
   -3.1940   -0.7160   -0.6800 C   0  0  0  0  0  0  0  0  0  0  0  0
   -2.2210   -1.3080   -1.6050 C   0  0  0  0  0  0  0  0  0  0  0  0
   -1.1040   -0.5750   -1.9300 C   0  0  0  0  0  0  0  0  0  0  0  0
   -0.1810   -1.1150   -2.7980 C   0  0  0  0  0  0  0  0  0  0  0  0
   -0.3830   -2.3840   -3.3340 C   0  0  0  0  0  0  0  0  0  0  0  0
   -1.5100   -3.1000   -2.9940 C   0  0  0  0  0  0  0  0  0  0  0  0
   -2.4270   -2.5620   -2.1310 C   0  0  0  0  0  0  0  0  0  0  0  0
   -3.0300   -2.4450    1.0510 C   0  0  0  0  0  0  0  0  0  0  0  0
   -2.0770   -3.0210    1.6090 O   0  0  0  0  0  0  0  0  0  0  0  0
   -4.1450   -3.1850    0.7210 O   0  0  0  0  0  0  0  0  0  0  0  0
   -0.7970   -0.8680    0.7820 H   0  0  0  0  0  0  0  0  0  0  0  0
   -3.7840   -0.5270    1.3380 H   0  0  0  0  0  0  0  0  0  0  0  0
   -4.1920   -1.1410   -0.9340 H   0  0  0  0  0  0  0  0  0  0  0  0
   -3.3090    0.3900   -0.8430 H   0  0  0  0  0  0  0  0  0  0  0  0
   -0.9300    0.4300   -1.5150 H   0  0  0  0  0  0  0  0  0  0  0  0
    0.7080   -0.5400   -3.0610 H   0  0  0  0  0  0  0  0  0  0  0  0
    0.3480   -2.7950   -4.0130 H   0  0  0  0  0  0  0  0  0  0  0  0
   -1.6890   -4.1010   -3.4050 H   0  0  0  0  0  0  0  0  0  0  0  0
   -3.3010   -3.1640   -1.8920 H   0  0  0  0  0  0  0  0  0  0  0  0
  1 10  1  0  0  0  0
  1  2  1  0  0  0  0
  2 12  1  6  0  0  0
  2  3  1  0  0  0  0
  2  7  1  0  0  0  0
  3 13  1  0  0  0  0
  3 14  1  0  0  0  0
  4 16  1  0  0  0  0
  4  3  1  0  0  0  0
  5  6  2  0  0  0  0
  5  4  1  0  0  0  0
  7  8  2  0  0  0  0
  7 18  1  0  0  0  0
  9  5  1  0  0  0  0
 11  1  1  0  0  0  0
 15  4  1  0  0  0  0
 17  9  1  0  0  0  0
 18 22  1  0  0  0  0
 18 19  1  0  0  0  0
 19 25  1  0  0  0  0
 20 19  1  0  0  0  0
 20 28  1  0  0  0  0
 21 22  1  0  0  0  0
 21 30  1  0  0  0  0
 21 20  1  0  0  0  0
 22 31  1  1  0  0  0
 23 24  2  0  0  0  0
 23 22  1  0  0  0  0
 26 19  1  0  0  0  0
 27 20  1  0  0  0  0
 29 21  1  0  0  0  0
 32 23  1  0  0  0  0
 33 41  1  0  0  0  0
 33 32  1  0  0  0  0
 33 45  1  1  0  0  0
 34 33  1  0  0  0  0
 35 34  1  0  0  0  0
 36 35  1  0  0  0  0
 36 48  1  0  0  0  0
 37 36  2  0  0  0  0
 38 39  2  0  0  0  0
 38 37  1  0  0  0  0
 39 40  1  0  0  0  0
 40 52  1  0  0  0  0
 40 35  2  0  0  0  0
 41 42  1  0  0  0  0
 43 41  2  0  0  0  0
 44 32  1  0  0  0  0
 46 34  1  0  0  0  0
 47 34  1  0  0  0  0
 49 37  1  0  0  0  0
 50 38  1  0  0  0  0
 51 39  1  0  0  0  0
M  END
$$$$
