EPH.pdb
 OpenBabel07022418203D

 49 50  0  0  1  0  0  0  0  0999 V2000
    4.7370   -1.8520    0.3930 N   0  0  0  0  0  0  0  0  0  0  0  0
    3.5160   -1.0250    0.5080 C   0  0  1  0  0  0  0  0  0  0  0  0
    2.4640   -1.4850   -0.4060 C   0  0  0  0  0  0  0  0  0  0  0  0
    2.9380   -1.4580   -1.8790 C   0  0  0  0  0  0  0  0  0  0  0  0
    3.3070   -0.0810   -2.2540 C   0  0  0  0  0  0  0  0  0  0  0  0
    4.4730    0.3120   -2.1080 O   0  0  0  0  0  0  0  0  0  0  0  0
    3.2620   -0.7860    1.9090 C   0  0  0  0  0  0  0  0  0  0  0  0
    4.3820   -0.9110    2.6220 O   0  0  0  0  0  0  0  0  0  0  0  0
    2.3750    0.8070   -2.7730 O   0  0  0  0  0  0  0  0  0  0  0  0
    5.0540   -2.1780    1.3490 H   0  0  0  0  0  0  0  0  0  0  0  0
    4.5630   -2.6760   -0.2310 H   0  0  0  0  0  0  0  0  0  0  0  0
    3.8850   -0.0130    0.0830 H   0  0  0  0  0  0  0  0  0  0  0  0
    2.1330   -2.5190   -0.2300 H   0  0  0  0  0  0  0  0  0  0  0  0
    1.5740   -0.8010   -0.4400 H   0  0  0  0  0  0  0  0  0  0  0  0
    3.8060   -2.1160   -2.0340 H   0  0  0  0  0  0  0  0  0  0  0  0
    2.0710   -1.7430   -2.5320 H   0  0  0  0  0  0  0  0  0  0  0  0
    2.5790    1.8130   -2.7510 H   0  0  0  0  0  0  0  0  0  0  0  0
    2.1760   -0.4600    2.6910 N   0  0  0  0  0  0  0  0  0  0  0  0
    2.4330   -0.1320    4.1710 C   0  0  0  0  0  0  0  0  0  0  0  0
    1.6640    1.1960    4.2660 C   0  0  0  0  0  0  0  0  0  0  0  0
    0.7230    1.2170    3.0390 C   0  0  0  0  0  0  0  0  0  0  0  0
    0.7720   -0.2690    2.7120 C   0  0  1  0  0  0  0  0  0  0  0  0
   -0.1520   -0.7920    1.7750 C   0  0  0  0  0  0  0  0  0  0  0  0
   -0.0400   -1.9580    1.3340 O   0  0  0  0  0  0  0  0  0  0  0  0
    3.4830   -0.0500    4.3650 H   0  0  0  0  0  0  0  0  0  0  0  0
    1.8630   -0.9060    4.7050 H   0  0  0  0  0  0  0  0  0  0  0  0
    0.9930    1.1980    5.1460 H   0  0  0  0  0  0  0  0  0  0  0  0
    2.3340    2.0520    4.2690 H   0  0  0  0  0  0  0  0  0  0  0  0
    1.2210    1.8370    2.2760 H   0  0  0  0  0  0  0  0  0  0  0  0
   -0.2710    1.5690    3.3070 H   0  0  0  0  0  0  0  0  0  0  0  0
    0.4610   -0.7240    3.7590 H   0  0  0  0  0  0  0  0  0  0  0  0
   -1.2680   -0.0250    1.2740 N   0  0  0  0  0  0  0  0  0  0  0  0
   -2.1480   -0.6640    0.3190 C   0  0  1  0  0  0  0  0  0  0  0  0
   -3.5540   -0.7790    0.8540 C   0  0  0  0  0  0  0  0  0  0  0  0
   -4.4890   -1.4230   -0.0880 C   0  0  0  0  0  0  0  0  0  0  0  0
   -5.2990   -0.8510   -1.0440 C   0  0  0  0  0  0  0  0  0  0  0  0
   -6.0090   -1.8080   -1.6810 N   0  0  0  0  0  0  0  0  0  0  0  0
   -5.6520   -2.9790   -1.1320 C   0  0  0  0  0  0  0  0  0  0  0  0
   -4.7380   -2.7480   -0.1730 N   0  0  0  0  0  0  0  0  0  0  0  0
   -2.1370    0.0500   -0.9680 C   0  0  0  0  0  0  0  0  0  0  0  0
   -2.7780   -0.2920   -1.9850 O   0  0  0  0  0  0  0  0  0  0  0  0
   -1.3480    1.2090   -1.0780 O   0  0  0  0  0  0  0  0  0  0  0  0
   -1.4200    0.9440    1.5970 H   0  0  0  0  0  0  0  0  0  0  0  0
   -1.8230   -1.7140    0.1020 H   0  0  0  0  0  0  0  0  0  0  0  0
   -3.9360    0.2170    1.1930 H   0  0  0  0  0  0  0  0  0  0  0  0
   -3.5550   -1.4090    1.7820 H   0  0  0  0  0  0  0  0  0  0  0  0
   -5.3510    0.2130   -1.2430 H   0  0  0  0  0  0  0  0  0  0  0  0
   -6.7010   -1.6710   -2.4490 H   0  0  0  0  0  0  0  0  0  0  0  0
   -6.0690   -3.9450   -1.4490 H   0  0  0  0  0  0  0  0  0  0  0  0
  1  2  1  0  0  0  0
  1 10  1  0  0  0  0
  2 12  1  6  0  0  0
  2  7  1  0  0  0  0
  3 13  1  0  0  0  0
  3  2  1  0  0  0  0
  4  3  1  0  0  0  0
  5  6  2  0  0  0  0
  5  4  1  0  0  0  0
  7  8  2  0  0  0  0
  7 18  1  0  0  0  0
  9 17  1  0  0  0  0
  9  5  1  0  0  0  0
 11  1  1  0  0  0  0
 14  3  1  0  0  0  0
 15  4  1  0  0  0  0
 16  4  1  0  0  0  0
 18 22  1  0  0  0  0
 18 19  1  0  0  0  0
 19 20  1  0  0  0  0
 19 25  1  0  0  0  0
 19 26  1  0  0  0  0
 20 28  1  0  0  0  0
 20 27  1  0  0  0  0
 21 30  1  0  0  0  0
 21 20  1  0  0  0  0
 22 21  1  0  0  0  0
 22 31  1  1  0  0  0
 23 22  1  0  0  0  0
 24 23  2  0  0  0  0
 29 21  1  0  0  0  0
 32 43  1  0  0  0  0
 32 23  1  0  0  0  0
 33 44  1  6  0  0  0
 33 34  1  0  0  0  0
 33 32  1  0  0  0  0
 34 45  1  0  0  0  0
 34 46  1  0  0  0  0
 35 34  1  0  0  0  0
 36 35  2  0  0  0  0
 37 38  1  0  0  0  0
 37 36  1  0  0  0  0
 38 39  2  0  0  0  0
 39 35  1  0  0  0  0
 40 33  1  0  0  0  0
 41 40  2  0  0  0  0
 42 40  1  0  0  0  0
 47 36  1  0  0  0  0
 48 37  1  0  0  0  0
 49 38  1  0  0  0  0
M  END
$$$$
