EPI.pdb
 OpenBabel07022418203D

 51 51  0  0  1  0  0  0  0  0999 V2000
    3.1360   -3.0460    2.6510 N   0  0  0  0  0  0  0  0  0  0  0  0
    3.1650   -2.2070    1.4190 C   0  0  1  0  0  0  0  0  0  0  0  0
    2.8700   -3.1700    0.2870 C   0  0  0  0  0  0  0  0  0  0  0  0
    2.8510   -2.5280   -1.0620 C   0  0  0  0  0  0  0  0  0  0  0  0
    2.5540   -3.5110   -2.1440 C   0  0  0  0  0  0  0  0  0  0  0  0
    2.4960   -3.1630   -3.3320 O   0  0  0  0  0  0  0  0  0  0  0  0
    2.1370   -1.1830    1.6120 C   0  0  0  0  0  0  0  0  0  0  0  0
    1.1420   -1.5110    2.3460 O   0  0  0  0  0  0  0  0  0  0  0  0
    2.3410   -4.8300   -1.7970 O   0  0  0  0  0  0  0  0  0  0  0  0
    2.1640   -3.4620    2.7300 H   0  0  0  0  0  0  0  0  0  0  0  0
    3.3090   -2.4330    3.4810 H   0  0  0  0  0  0  0  0  0  0  0  0
    4.1570   -1.7880    1.3100 H   0  0  0  0  0  0  0  0  0  0  0  0
    1.8930   -3.6720    0.4340 H   0  0  0  0  0  0  0  0  0  0  0  0
    3.6400   -3.9680    0.2940 H   0  0  0  0  0  0  0  0  0  0  0  0
    3.8510   -2.0950   -1.3420 H   0  0  0  0  0  0  0  0  0  0  0  0
    2.1260   -1.6900   -1.1130 H   0  0  0  0  0  0  0  0  0  0  0  0
    2.1710   -5.5200   -2.5170 H   0  0  0  0  0  0  0  0  0  0  0  0
    2.1270    0.1300    1.0760 N   0  0  0  0  0  0  0  0  0  0  0  0
    3.1270    0.7560    0.2800 C   0  0  0  0  0  0  0  0  0  0  0  0
    2.3970    1.8890   -0.4200 C   0  0  0  0  0  0  0  0  0  0  0  0
    1.4230    2.3540    0.6680 C   0  0  0  0  0  0  0  0  0  0  0  0
    1.0160    1.0650    1.2920 C   0  0  1  0  0  0  0  0  0  0  0  0
   -0.1970    0.4620    0.7800 C   0  0  0  0  0  0  0  0  0  0  0  0
   -0.1350   -0.6620    0.2300 O   0  0  0  0  0  0  0  0  0  0  0  0
    3.9130    1.2150    0.9340 H   0  0  0  0  0  0  0  0  0  0  0  0
    3.5720    0.1190   -0.4860 H   0  0  0  0  0  0  0  0  0  0  0  0
    1.8490    1.5240   -1.3180 H   0  0  0  0  0  0  0  0  0  0  0  0
    3.1290    2.6890   -0.6650 H   0  0  0  0  0  0  0  0  0  0  0  0
    0.6290    2.9820    0.2910 H   0  0  0  0  0  0  0  0  0  0  0  0
    2.0250    2.9340    1.3930 H   0  0  0  0  0  0  0  0  0  0  0  0
    0.9240    1.1700    2.4050 H   0  0  0  0  0  0  0  0  0  0  0  0
   -2.9130   -2.0360    2.1380 C   0  0  0  0  0  0  0  0  0  0  0  0
   -3.2170   -0.6270    2.5370 C   0  0  0  0  0  0  0  0  0  0  0  0
   -3.7020    0.2370    1.4110 C   0  0  2  0  0  0  0  0  0  0  0  0
   -4.9630   -0.3400    0.8410 C   0  0  0  0  0  0  0  0  0  0  0  0
   -2.6680    0.4330    0.3360 C   0  0  2  0  0  0  0  0  0  0  0  0
   -1.4910    1.0560    0.8520 N   0  0  0  0  0  0  0  0  0  0  0  0
   -3.2640    1.2390   -0.7370 C   0  0  0  0  0  0  0  0  0  0  0  0
   -2.7290    2.3140   -1.0740 O   0  0  0  0  0  0  0  0  0  0  0  0
   -4.4170    0.8540   -1.4050 O   0  0  0  0  0  0  0  0  0  0  0  0
   -2.3570   -2.5050    2.9910 H   0  0  0  0  0  0  0  0  0  0  0  0
   -2.2640   -2.1370    1.2590 H   0  0  0  0  0  0  0  0  0  0  0  0
   -3.8330   -2.6170    1.9560 H   0  0  0  0  0  0  0  0  0  0  0  0
   -4.0370   -0.6670    3.2930 H   0  0  0  0  0  0  0  0  0  0  0  0
   -2.3530   -0.1620    3.0700 H   0  0  0  0  0  0  0  0  0  0  0  0
   -3.9350    1.2330    1.8310 H   0  0  0  0  0  0  0  0  0  0  0  0
   -5.4180   -1.0230    1.5990 H   0  0  0  0  0  0  0  0  0  0  0  0
   -4.6820   -1.0060   -0.0130 H   0  0  0  0  0  0  0  0  0  0  0  0
   -5.6520    0.4650    0.5460 H   0  0  0  0  0  0  0  0  0  0  0  0
   -2.3790   -0.5450   -0.1020 H   0  0  0  0  0  0  0  0  0  0  0  0
   -1.5540    1.9910    1.3070 H   0  0  0  0  0  0  0  0  0  0  0  0
  1 10  1  0  0  0  0
  1 11  1  0  0  0  0
  2 12  1  6  0  0  0
  2  7  1  0  0  0  0
  2  1  1  0  0  0  0
  3 14  1  0  0  0  0
  3 13  1  0  0  0  0
  3  2  1  0  0  0  0
  4  3  1  0  0  0  0
  5  9  1  0  0  0  0
  5  4  1  0  0  0  0
  6  5  2  0  0  0  0
  7  8  2  0  0  0  0
 15  4  1  0  0  0  0
 16  4  1  0  0  0  0
 17  9  1  0  0  0  0
 18 22  1  0  0  0  0
 18  7  1  0  0  0  0
 19 25  1  0  0  0  0
 19 18  1  0  0  0  0
 20 19  1  0  0  0  0
 20 21  1  0  0  0  0
 21 22  1  0  0  0  0
 21 30  1  0  0  0  0
 22 31  1  1  0  0  0
 23 37  1  0  0  0  0
 23 22  1  0  0  0  0
 24 23  2  0  0  0  0
 26 19  1  0  0  0  0
 27 20  1  0  0  0  0
 28 20  1  0  0  0  0
 29 21  1  0  0  0  0
 32 33  1  0  0  0  0
 32 41  1  0  0  0  0
 33 45  1  0  0  0  0
 33 44  1  0  0  0  0
 34 46  1  1  0  0  0
 34 33  1  0  0  0  0
 35 34  1  0  0  0  0
 35 47  1  0  0  0  0
 36 50  1  6  0  0  0
 36 37  1  0  0  0  0
 36 34  1  0  0  0  0
 37 51  1  0  0  0  0
 38 36  1  0  0  0  0
 39 38  1  0  0  0  0
 40 38  2  0  0  0  0
 42 32  1  0  0  0  0
 43 32  1  0  0  0  0
 48 35  1  0  0  0  0
 49 35  1  0  0  0  0
M  END
$$$$
