EPK.pdb
 OpenBabel07022418203D

 53 53  0  0  1  0  0  0  0  0999 V2000
    1.8200   -2.7580    1.7410 N   0  0  0  0  0  0  0  0  0  0  0  0
    2.8800   -1.8960    1.3490 C   0  0  1  0  0  0  0  0  0  0  0  0
    3.0540   -1.8210   -0.1580 C   0  0  0  0  0  0  0  0  0  0  0  0
    3.3610   -3.1520   -0.7620 C   0  0  0  0  0  0  0  0  0  0  0  0
    3.5150   -2.9880   -2.2280 C   0  0  0  0  0  0  0  0  0  0  0  0
    3.3870   -1.8890   -2.8230 O   0  0  0  0  0  0  0  0  0  0  0  0
    2.6290   -0.5290    1.8190 C   0  0  0  0  0  0  0  0  0  0  0  0
    3.4200    0.3700    1.3680 O   0  0  0  0  0  0  0  0  0  0  0  0
    3.8210   -4.0820   -3.0580 O   0  0  0  0  0  0  0  0  0  0  0  0
    1.1630   -3.0190    0.9830 H   0  0  0  0  0  0  0  0  0  0  0  0
    2.2150   -3.6430    2.1210 H   0  0  0  0  0  0  0  0  0  0  0  0
    3.8350   -2.3130    1.7530 H   0  0  0  0  0  0  0  0  0  0  0  0
    3.9460   -1.1630   -0.3510 H   0  0  0  0  0  0  0  0  0  0  0  0
    2.2000   -1.3720   -0.6620 H   0  0  0  0  0  0  0  0  0  0  0  0
    2.5740   -3.9120   -0.5840 H   0  0  0  0  0  0  0  0  0  0  0  0
    4.3180   -3.5910   -0.4040 H   0  0  0  0  0  0  0  0  0  0  0  0
    3.7040   -4.0390   -4.0670 H   0  0  0  0  0  0  0  0  0  0  0  0
    1.5920   -0.2120    2.7060 N   0  0  0  0  0  0  0  0  0  0  0  0
    1.3750    1.2040    3.1040 C   0  0  0  0  0  0  0  0  0  0  0  0
    0.9540    1.1340    4.5330 C   0  0  0  0  0  0  0  0  0  0  0  0
    0.3820   -0.2220    4.7140 C   0  0  0  0  0  0  0  0  0  0  0  0
    0.5930   -0.9290    3.4070 C   0  0  1  0  0  0  0  0  0  0  0  0
   -0.6770   -1.1100    2.6580 C   0  0  0  0  0  0  0  0  0  0  0  0
   -1.5950   -1.7580    3.2280 O   0  0  0  0  0  0  0  0  0  0  0  0
    2.3320    1.7550    3.0570 H   0  0  0  0  0  0  0  0  0  0  0  0
    0.5900    1.6230    2.4470 H   0  0  0  0  0  0  0  0  0  0  0  0
    1.8080    1.2430    5.2420 H   0  0  0  0  0  0  0  0  0  0  0  0
    0.1920    1.9290    4.7810 H   0  0  0  0  0  0  0  0  0  0  0  0
   -0.7090   -0.1600    4.9680 H   0  0  0  0  0  0  0  0  0  0  0  0
    0.8490   -0.7770    5.5620 H   0  0  0  0  0  0  0  0  0  0  0  0
    1.0030   -1.9530    3.6810 H   0  0  0  0  0  0  0  0  0  0  0  0
   -0.8780   -0.5960    1.3690 N   0  0  0  0  0  0  0  0  0  0  0  0
   -2.1660   -0.7890    0.6240 C   0  0  1  0  0  0  0  0  0  0  0  0
   -2.6840    0.5830    0.4190 C   0  0  0  0  0  0  0  0  0  0  0  0
   -3.9520    0.8780   -0.2280 C   0  0  0  0  0  0  0  0  0  0  0  0
   -4.2390    0.5040   -1.6220 C   0  0  0  0  0  0  0  0  0  0  0  0
   -3.2700    1.0520   -2.6470 C   0  0  0  0  0  0  0  0  0  0  0  0
   -3.6670    0.6080   -3.9650 N   0  0  0  0  0  0  0  0  0  0  0  0
   -1.8450   -1.5830   -0.5810 C   0  0  0  0  0  0  0  0  0  0  0  0
   -2.6590   -2.0680   -1.3840 O   0  0  0  0  0  0  0  0  0  0  0  0
   -0.4920   -1.8510   -0.9060 O   0  0  0  0  0  0  0  0  0  0  0  0
   -0.1270   -0.0680    0.9010 H   0  0  0  0  0  0  0  0  0  0  0  0
   -2.8250   -1.3930    1.2690 H   0  0  0  0  0  0  0  0  0  0  0  0
   -1.8790    1.2370   -0.0830 H   0  0  0  0  0  0  0  0  0  0  0  0
   -2.7070    1.0950    1.4540 H   0  0  0  0  0  0  0  0  0  0  0  0
   -4.8530    0.5360    0.3790 H   0  0  0  0  0  0  0  0  0  0  0  0
   -4.1090    2.0210   -0.1820 H   0  0  0  0  0  0  0  0  0  0  0  0
   -4.5320   -0.4980   -1.8730 H   0  0  0  0  0  0  0  0  0  0  0  0
   -5.2230    1.0990   -1.8740 H   0  0  0  0  0  0  0  0  0  0  0  0
   -2.2540    0.7030   -2.4480 H   0  0  0  0  0  0  0  0  0  0  0  0
   -3.3840    2.1600   -2.6330 H   0  0  0  0  0  0  0  0  0  0  0  0
   -3.2280   -0.3170   -4.1720 H   0  0  0  0  0  0  0  0  0  0  0  0
   -3.4370    1.3220   -4.6930 H   0  0  0  0  0  0  0  0  0  0  0  0
  1 11  1  0  0  0  0
  2  1  1  0  0  0  0
  2 12  1  1  0  0  0
  2  7  1  0  0  0  0
  3  2  1  0  0  0  0
  4 15  1  0  0  0  0
  4 16  1  0  0  0  0
  4  3  1  0  0  0  0
  5  4  1  0  0  0  0
  6  5  2  0  0  0  0
  7 18  1  0  0  0  0
  8  7  2  0  0  0  0
  9  5  1  0  0  0  0
 10  1  1  0  0  0  0
 13  3  1  0  0  0  0
 14  3  1  0  0  0  0
 17  9  1  0  0  0  0
 18 19  1  0  0  0  0
 18 22  1  0  0  0  0
 19 20  1  0  0  0  0
 20 21  1  0  0  0  0
 20 28  1  0  0  0  0
 20 27  1  0  0  0  0
 21 29  1  0  0  0  0
 21 30  1  0  0  0  0
 22 31  1  1  0  0  0
 22 21  1  0  0  0  0
 23 24  2  0  0  0  0
 23 22  1  0  0  0  0
 25 19  1  0  0  0  0
 26 19  1  0  0  0  0
 32 23  1  0  0  0  0
 33 43  1  1  0  0  0
 33 32  1  0  0  0  0
 34 33  1  0  0  0  0
 34 45  1  0  0  0  0
 35 47  1  0  0  0  0
 35 46  1  0  0  0  0
 35 34  1  0  0  0  0
 36 35  1  0  0  0  0
 37 51  1  0  0  0  0
 37 50  1  0  0  0  0
 37 36  1  0  0  0  0
 38 37  1  0  0  0  0
 39 33  1  0  0  0  0
 40 39  2  0  0  0  0
 41 39  1  0  0  0  0
 42 32  1  0  0  0  0
 44 34  1  0  0  0  0
 48 36  1  0  0  0  0
 49 36  1  0  0  0  0
 52 38  1  0  0  0  0
 53 38  1  0  0  0  0
M  END
$$$$
