EPL.pdb
 OpenBabel07022418203D

 51 51  0  0  1  0  0  0  0  0999 V2000
    2.4830   -1.4460    1.6330 N   0  0  0  0  0  0  0  0  0  0  0  0
    3.2990   -1.2220    0.4170 C   0  0  1  0  0  0  0  0  0  0  0  0
    3.0800   -2.4160   -0.4250 C   0  0  0  0  0  0  0  0  0  0  0  0
    3.7370   -2.5220   -1.7370 C   0  0  0  0  0  0  0  0  0  0  0  0
    3.3740   -1.5400   -2.7580 C   0  0  0  0  0  0  0  0  0  0  0  0
    4.2210   -1.1190   -3.6200 O   0  0  0  0  0  0  0  0  0  0  0  0
    3.0970    0.0950   -0.1460 C   0  0  0  0  0  0  0  0  0  0  0  0
    3.9480    0.4960   -1.0200 O   0  0  0  0  0  0  0  0  0  0  0  0
    2.0990   -0.9960   -2.8750 O   0  0  0  0  0  0  0  0  0  0  0  0
    1.6160   -1.9490    1.3370 H   0  0  0  0  0  0  0  0  0  0  0  0
    2.9870   -2.1220    2.2490 H   0  0  0  0  0  0  0  0  0  0  0  0
    4.3620   -1.3090    0.8160 H   0  0  0  0  0  0  0  0  0  0  0  0
    1.9690   -2.6430   -0.5070 H   0  0  0  0  0  0  0  0  0  0  0  0
    3.4420   -3.3010    0.1920 H   0  0  0  0  0  0  0  0  0  0  0  0
    3.4400   -3.5290   -2.1670 H   0  0  0  0  0  0  0  0  0  0  0  0
    4.8420   -2.5970   -1.5850 H   0  0  0  0  0  0  0  0  0  0  0  0
    2.0090   -0.0150   -3.1450 H   0  0  0  0  0  0  0  0  0  0  0  0
    2.0410    1.0050    0.1700 N   0  0  0  0  0  0  0  0  0  0  0  0
    1.8810    2.3350   -0.4400 C   0  0  0  0  0  0  0  0  0  0  0  0
    1.5070    3.1580    0.7830 C   0  0  0  0  0  0  0  0  0  0  0  0
    0.4160    2.2840    1.3630 C   0  0  0  0  0  0  0  0  0  0  0  0
    0.9500    0.8900    1.0850 C   0  0  1  0  0  0  0  0  0  0  0  0
   -0.1650    0.1390    0.4240 C   0  0  0  0  0  0  0  0  0  0  0  0
   -0.0490   -0.2870   -0.7630 O   0  0  0  0  0  0  0  0  0  0  0  0
    1.1300    2.3510   -1.2260 H   0  0  0  0  0  0  0  0  0  0  0  0
    2.8820    2.7380   -0.7660 H   0  0  0  0  0  0  0  0  0  0  0  0
    1.1450    4.1620    0.5330 H   0  0  0  0  0  0  0  0  0  0  0  0
    2.3630    3.1440    1.4760 H   0  0  0  0  0  0  0  0  0  0  0  0
    0.2150    2.4730    2.4210 H   0  0  0  0  0  0  0  0  0  0  0  0
   -0.5060    2.4940    0.7880 H   0  0  0  0  0  0  0  0  0  0  0  0
    1.2120    0.4780    2.0780 H   0  0  0  0  0  0  0  0  0  0  0  0
   -3.2610   -3.5990    3.0530 C   0  0  0  0  0  0  0  0  0  0  0  0
   -3.0590   -2.1530    2.5630 C   0  0  0  0  0  0  0  0  0  0  0  0
   -4.2970   -1.3510    2.8360 C   0  0  0  0  0  0  0  0  0  0  0  0
   -2.7180   -2.1600    1.1250 C   0  0  0  0  0  0  0  0  0  0  0  0
   -2.4780   -0.8490    0.4670 C   0  0  2  0  0  0  0  0  0  0  0  0
   -1.3880   -0.1220    1.0950 N   0  0  0  0  0  0  0  0  0  0  0  0
   -3.6650   -0.0250    0.2060 C   0  0  0  0  0  0  0  0  0  0  0  0
   -3.6720    1.1780    0.5260 O   0  0  0  0  0  0  0  0  0  0  0  0
   -4.7680   -0.5820   -0.3930 O   0  0  0  0  0  0  0  0  0  0  0  0
   -3.8910   -3.5820    3.9640 H   0  0  0  0  0  0  0  0  0  0  0  0
   -3.7410   -4.2230    2.2930 H   0  0  0  0  0  0  0  0  0  0  0  0
   -2.2740   -4.0230    3.3470 H   0  0  0  0  0  0  0  0  0  0  0  0
   -2.2600   -1.7580    3.2240 H   0  0  0  0  0  0  0  0  0  0  0  0
   -5.0810   -1.5880    2.1040 H   0  0  0  0  0  0  0  0  0  0  0  0
   -4.0240   -0.2880    2.7820 H   0  0  0  0  0  0  0  0  0  0  0  0
   -4.6760   -1.5780    3.8690 H   0  0  0  0  0  0  0  0  0  0  0  0
   -1.7830   -2.7780    0.9860 H   0  0  0  0  0  0  0  0  0  0  0  0
   -3.5110   -2.7060    0.5710 H   0  0  0  0  0  0  0  0  0  0  0  0
   -2.0840   -1.1100   -0.5740 H   0  0  0  0  0  0  0  0  0  0  0  0
   -1.4630    0.2430    2.0850 H   0  0  0  0  0  0  0  0  0  0  0  0
  1 11  1  0  0  0  0
  2 12  1  1  0  0  0
  2  1  1  0  0  0  0
  3 14  1  0  0  0  0
  3  2  1  0  0  0  0
  4 16  1  0  0  0  0
  4  3  1  0  0  0  0
  5  4  1  0  0  0  0
  6  5  2  0  0  0  0
  7 18  1  0  0  0  0
  7  2  1  0  0  0  0
  8  7  2  0  0  0  0
  9  5  1  0  0  0  0
 10  1  1  0  0  0  0
 13  3  1  0  0  0  0
 15  4  1  0  0  0  0
 17  9  1  0  0  0  0
 18 22  1  0  0  0  0
 19 18  1  0  0  0  0
 19 20  1  0  0  0  0
 20 21  1  0  0  0  0
 20 28  1  0  0  0  0
 21 29  1  0  0  0  0
 22 21  1  0  0  0  0
 22 31  1  1  0  0  0
 23 22  1  0  0  0  0
 23 37  1  0  0  0  0
 24 23  2  0  0  0  0
 25 19  1  0  0  0  0
 26 19  1  0  0  0  0
 27 20  1  0  0  0  0
 30 21  1  0  0  0  0
 32 43  1  0  0  0  0
 32 41  1  0  0  0  0
 33 34  1  0  0  0  0
 33 32  1  0  0  0  0
 33 44  1  0  0  0  0
 34 47  1  0  0  0  0
 35 33  1  0  0  0  0
 36 50  1  6  0  0  0
 36 37  1  0  0  0  0
 36 35  1  0  0  0  0
 37 51  1  0  0  0  0
 38 36  1  0  0  0  0
 38 39  1  0  0  0  0
 40 38  2  0  0  0  0
 42 32  1  0  0  0  0
 45 34  1  0  0  0  0
 46 34  1  0  0  0  0
 48 35  1  0  0  0  0
 49 35  1  0  0  0  0
M  END
$$$$
