EPM.pdb
 OpenBabel07022418203D

 49 49  0  0  1  0  0  0  0  0999 V2000
    3.2550   -1.4500   -1.9670 N   0  0  0  0  0  0  0  0  0  0  0  0
    2.3760   -0.3550   -1.4800 C   0  0  1  0  0  0  0  0  0  0  0  0
    0.9960   -0.5680   -2.0790 C   0  0  0  0  0  0  0  0  0  0  0  0
    1.0150   -0.5440   -3.5760 C   0  0  0  0  0  0  0  0  0  0  0  0
    1.5140    0.7550   -4.0780 C   0  0  0  0  0  0  0  0  0  0  0  0
    2.7470    0.9690   -4.0800 O   0  0  0  0  0  0  0  0  0  0  0  0
    2.3070   -0.5390   -0.0080 C   0  0  0  0  0  0  0  0  0  0  0  0
    2.5920   -1.6620    0.5090 O   0  0  0  0  0  0  0  0  0  0  0  0
    0.6880    1.7620   -4.5530 O   0  0  0  0  0  0  0  0  0  0  0  0
    2.9370   -2.3060   -1.4440 H   0  0  0  0  0  0  0  0  0  0  0  0
    4.1950   -1.2220   -1.5540 H   0  0  0  0  0  0  0  0  0  0  0  0
    2.8470    0.5740   -1.7830 H   0  0  0  0  0  0  0  0  0  0  0  0
    0.3080    0.2060   -1.7210 H   0  0  0  0  0  0  0  0  0  0  0  0
    0.6530   -1.5720   -1.7110 H   0  0  0  0  0  0  0  0  0  0  0  0
   -0.0380   -0.6740   -3.9150 H   0  0  0  0  0  0  0  0  0  0  0  0
    1.5750   -1.4060   -4.0140 H   0  0  0  0  0  0  0  0  0  0  0  0
    0.9680    2.3570   -5.3480 H   0  0  0  0  0  0  0  0  0  0  0  0
    1.9270    0.5160    0.8690 N   0  0  0  0  0  0  0  0  0  0  0  0
    1.6350    1.8560    0.4340 C   0  0  0  0  0  0  0  0  0  0  0  0
    0.6350    2.3340    1.4920 C   0  0  0  0  0  0  0  0  0  0  0  0
    1.3590    1.7940    2.7400 C   0  0  0  0  0  0  0  0  0  0  0  0
    1.7810    0.3930    2.3080 C   0  0  1  0  0  0  0  0  0  0  0  0
    0.7450   -0.6020    2.6990 C   0  0  0  0  0  0  0  0  0  0  0  0
    0.6030   -0.8940    3.9160 O   0  0  0  0  0  0  0  0  0  0  0  0
    2.5750    2.4490    0.5910 H   0  0  0  0  0  0  0  0  0  0  0  0
    1.2460    1.9710   -0.5690 H   0  0  0  0  0  0  0  0  0  0  0  0
    0.6390    3.4250    1.4630 H   0  0  0  0  0  0  0  0  0  0  0  0
   -0.3280    1.8490    1.3340 H   0  0  0  0  0  0  0  0  0  0  0  0
    2.2510    2.4370    2.8850 H   0  0  0  0  0  0  0  0  0  0  0  0
    0.7020    1.7690    3.6080 H   0  0  0  0  0  0  0  0  0  0  0  0
    2.7590    0.1110    2.7340 H   0  0  0  0  0  0  0  0  0  0  0  0
   -4.2300   -1.4610    4.8120 C   0  0  0  0  0  0  0  0  0  0  0  0
   -3.8250   -2.8700    3.7960 S   0  0  0  0  0  0  0  0  0  0  0  0
   -3.6180   -2.5050    2.0620 C   0  0  0  0  0  0  0  0  0  0  0  0
   -2.4400   -1.6360    1.7480 C   0  0  0  0  0  0  0  0  0  0  0  0
   -1.1180   -2.2280    2.1690 C   0  0  2  0  0  0  0  0  0  0  0  0
   -0.0960   -1.2440    1.7820 N   0  0  0  0  0  0  0  0  0  0  0  0
   -0.8240   -3.5200    1.5090 C   0  0  0  0  0  0  0  0  0  0  0  0
   -1.5780   -4.4980    1.7130 O   0  0  0  0  0  0  0  0  0  0  0  0
    0.2610   -3.6960    0.6690 O   0  0  0  0  0  0  0  0  0  0  0  0
   -4.3800   -0.5210    4.2760 H   0  0  0  0  0  0  0  0  0  0  0  0
   -3.4670   -1.3800    5.6330 H   0  0  0  0  0  0  0  0  0  0  0  0
   -5.1940   -1.6840    5.3540 H   0  0  0  0  0  0  0  0  0  0  0  0
   -4.5250   -1.9180    1.7290 H   0  0  0  0  0  0  0  0  0  0  0  0
   -3.6360   -3.4250    1.4680 H   0  0  0  0  0  0  0  0  0  0  0  0
   -2.5310   -0.6590    2.2470 H   0  0  0  0  0  0  0  0  0  0  0  0
   -2.4080   -1.4910    0.6500 H   0  0  0  0  0  0  0  0  0  0  0  0
   -1.0390   -2.3260    3.2720 H   0  0  0  0  0  0  0  0  0  0  0  0
   -0.0440   -1.0490    0.7610 H   0  0  0  0  0  0  0  0  0  0  0  0
  1 11  1  0  0  0  0
  1  2  1  0  0  0  0
  1 10  1  0  0  0  0
  2 12  1  6  0  0  0
  2  7  1  0  0  0  0
  3 13  1  0  0  0  0
  3 14  1  0  0  0  0
  3  2  1  0  0  0  0
  4  3  1  0  0  0  0
  5  4  1  0  0  0  0
  6  5  2  0  0  0  0
  7  8  2  0  0  0  0
  7 18  1  0  0  0  0
  9  5  1  0  0  0  0
 15  4  1  0  0  0  0
 16  4  1  0  0  0  0
 17  9  1  0  0  0  0
 18 22  1  0  0  0  0
 19 25  1  0  0  0  0
 19 18  1  0  0  0  0
 19 20  1  0  0  0  0
 20 21  1  0  0  0  0
 21 29  1  0  0  0  0
 21 30  1  0  0  0  0
 22 23  1  0  0  0  0
 22 31  1  1  0  0  0
 22 21  1  0  0  0  0
 23 24  2  0  0  0  0
 26 19  1  0  0  0  0
 27 20  1  0  0  0  0
 28 20  1  0  0  0  0
 32 43  1  0  0  0  0
 32 42  1  0  0  0  0
 33 32  1  0  0  0  0
 34 33  1  0  0  0  0
 35 34  1  0  0  0  0
 35 36  1  0  0  0  0
 35 46  1  0  0  0  0
 36 48  1  1  0  0  0
 37 36  1  0  0  0  0
 37 23  1  0  0  0  0
 38 39  1  0  0  0  0
 38 36  1  0  0  0  0
 40 38  2  0  0  0  0
 41 32  1  0  0  0  0
 44 34  1  0  0  0  0
 45 34  1  0  0  0  0
 47 35  1  0  0  0  0
 49 37  1  0  0  0  0
M  END
$$$$
