EPQ.pdb
 OpenBabel07022418203D

 49 49  0  0  1  0  0  0  0  0999 V2000
   -1.2580    0.0960    1.2090 N   0  0  0  0  0  0  0  0  0  0  0  0
   -2.2220    1.0600    0.8150 C   0  0  1  0  0  0  0  0  0  0  0  0
   -1.9050    2.4820    1.1480 C   0  0  0  0  0  0  0  0  0  0  0  0
   -0.6670    3.0900    0.6430 C   0  0  0  0  0  0  0  0  0  0  0  0
    0.6000    2.5130    1.1010 C   0  0  0  0  0  0  0  0  0  0  0  0
    1.3190    1.7970    0.3780 O   0  0  0  0  0  0  0  0  0  0  0  0
   -3.0460    0.8540   -0.3450 C   0  0  0  0  0  0  0  0  0  0  0  0
   -3.9940    1.7800   -0.4240 O   0  0  0  0  0  0  0  0  0  0  0  0
    1.0520    2.7510    2.3970 O   0  0  0  0  0  0  0  0  0  0  0  0
   -0.5950    0.4340    1.9200 H   0  0  0  0  0  0  0  0  0  0  0  0
   -1.6310   -0.8560    1.3650 H   0  0  0  0  0  0  0  0  0  0  0  0
   -3.0580    0.8490    1.6880 H   0  0  0  0  0  0  0  0  0  0  0  0
   -2.7570    3.1480    0.8520 H   0  0  0  0  0  0  0  0  0  0  0  0
   -1.8980    2.5740    2.2780 H   0  0  0  0  0  0  0  0  0  0  0  0
   -0.6730    3.2370   -0.4820 H   0  0  0  0  0  0  0  0  0  0  0  0
   -0.6610    4.1630    1.0170 H   0  0  0  0  0  0  0  0  0  0  0  0
    1.5610    2.0420    2.9250 H   0  0  0  0  0  0  0  0  0  0  0  0
   -3.0460   -0.0950   -1.3410 N   0  0  0  0  0  0  0  0  0  0  0  0
   -4.2120   -0.1210   -2.2810 C   0  0  0  0  0  0  0  0  0  0  0  0
   -3.5500   -0.3860   -3.5870 C   0  0  0  0  0  0  0  0  0  0  0  0
   -2.2810   -1.0990   -3.2930 C   0  0  0  0  0  0  0  0  0  0  0  0
   -2.2370   -1.1390   -1.7630 C   0  0  1  0  0  0  0  0  0  0  0  0
   -0.7870   -1.1460   -1.3970 C   0  0  0  0  0  0  0  0  0  0  0  0
   -0.1690   -0.0800   -1.4180 O   0  0  0  0  0  0  0  0  0  0  0  0
   -4.7910   -1.0090   -1.9250 H   0  0  0  0  0  0  0  0  0  0  0  0
   -4.7890    0.8000   -2.2380 H   0  0  0  0  0  0  0  0  0  0  0  0
   -4.2360   -1.1050   -4.1370 H   0  0  0  0  0  0  0  0  0  0  0  0
   -3.4150    0.5350   -4.2020 H   0  0  0  0  0  0  0  0  0  0  0  0
   -1.3730   -0.5290   -3.6590 H   0  0  0  0  0  0  0  0  0  0  0  0
   -2.2170   -2.1430   -3.6780 H   0  0  0  0  0  0  0  0  0  0  0  0
   -2.7470   -2.1080   -1.5030 H   0  0  0  0  0  0  0  0  0  0  0  0
    3.2640   -2.0030   -4.5160 N   0  0  0  0  0  0  0  0  0  0  0  0
    3.0890   -2.2790   -3.1350 C   0  0  0  0  0  0  0  0  0  0  0  0
    3.3880   -3.4080   -2.7100 O   0  0  0  0  0  0  0  0  0  0  0  0
    2.5570   -1.2010   -2.2460 C   0  0  0  0  0  0  0  0  0  0  0  0
    2.2250   -1.6450   -0.8780 C   0  0  0  0  0  0  0  0  0  0  0  0
    1.1670   -2.6600   -0.6920 C   0  0  2  0  0  0  0  0  0  0  0  0
   -0.1840   -2.3450   -1.0490 N   0  0  0  0  0  0  0  0  0  0  0  0
    1.3010   -3.3650    0.5870 C   0  0  0  0  0  0  0  0  0  0  0  0
    2.4150   -3.7290    1.0160 O   0  0  0  0  0  0  0  0  0  0  0  0
    0.1750   -3.6440    1.3500 O   0  0  0  0  0  0  0  0  0  0  0  0
    3.0500   -2.6220   -5.2980 H   0  0  0  0  0  0  0  0  0  0  0  0
    3.6600   -1.0520   -4.7580 H   0  0  0  0  0  0  0  0  0  0  0  0
    3.4290   -0.4610   -2.1140 H   0  0  0  0  0  0  0  0  0  0  0  0
    1.7750   -0.6550   -2.7440 H   0  0  0  0  0  0  0  0  0  0  0  0
    3.1720   -2.1010   -0.4530 H   0  0  0  0  0  0  0  0  0  0  0  0
    2.0850   -0.7360   -0.2370 H   0  0  0  0  0  0  0  0  0  0  0  0
    1.4680   -3.4510   -1.4980 H   0  0  0  0  0  0  0  0  0  0  0  0
   -0.8740   -3.1910   -1.0410 H   0  0  0  0  0  0  0  0  0  0  0  0
  1 11  1  0  0  0  0
  1 10  1  0  0  0  0
  2  3  1  0  0  0  0
  2  1  1  0  0  0  0
  2 12  1  1  0  0  0
  3 14  1  0  0  0  0
  4 16  1  0  0  0  0
  4  5  1  0  0  0  0
  4  3  1  0  0  0  0
  5  9  1  0  0  0  0
  6  5  2  0  0  0  0
  7  2  1  0  0  0  0
  8  7  2  0  0  0  0
  9 17  1  0  0  0  0
 13  3  1  0  0  0  0
 15  4  1  0  0  0  0
 18  7  1  0  0  0  0
 19 26  1  0  0  0  0
 19 25  1  0  0  0  0
 19 18  1  0  0  0  0
 20 21  1  0  0  0  0
 20 19  1  0  0  0  0
 21 22  1  0  0  0  0
 22 31  1  1  0  0  0
 22 23  1  0  0  0  0
 22 18  1  0  0  0  0
 23 38  1  0  0  0  0
 24 23  2  0  0  0  0
 27 20  1  0  0  0  0
 28 20  1  0  0  0  0
 29 21  1  0  0  0  0
 30 21  1  0  0  0  0
 32 33  1  0  0  0  0
 33 34  2  0  0  0  0
 33 35  1  0  0  0  0
 35 44  1  0  0  0  0
 35 36  1  0  0  0  0
 36 37  1  0  0  0  0
 36 46  1  0  0  0  0
 36 47  1  0  0  0  0
 37 48  1  6  0  0  0
 37 39  1  0  0  0  0
 38 49  1  0  0  0  0
 38 37  1  0  0  0  0
 39 40  2  0  0  0  0
 39 41  1  0  0  0  0
 42 32  1  0  0  0  0
 43 32  1  0  0  0  0
 45 35  1  0  0  0  0
M  END
$$$$
