EPS.pdb
 OpenBabel07022418203D

 43 43  0  0  1  0  0  0  0  0999 V2000
   -0.0900   -1.7860    0.7390 N   0  0  0  0  0  0  0  0  0  0  0  0
    0.6700   -2.2940    1.8340 C   0  0  1  0  0  0  0  0  0  0  0  0
    0.7500   -3.7760    1.7860 C   0  0  0  0  0  0  0  0  0  0  0  0
    1.3740   -4.4040    0.6040 C   0  0  0  0  0  0  0  0  0  0  0  0
    0.7670   -4.1500   -0.6980 C   0  0  0  0  0  0  0  0  0  0  0  0
    1.3670   -3.4080   -1.5180 O   0  0  0  0  0  0  0  0  0  0  0  0
    1.9680   -1.6170    1.9080 C   0  0  0  0  0  0  0  0  0  0  0  0
    2.9330   -2.3710    2.3320 O   0  0  0  0  0  0  0  0  0  0  0  0
   -0.4470   -4.6830   -1.0930 O   0  0  0  0  0  0  0  0  0  0  0  0
    0.5310   -1.3910    0.0280 H   0  0  0  0  0  0  0  0  0  0  0  0
   -0.8920   -2.3390    0.4300 H   0  0  0  0  0  0  0  0  0  0  0  0
    0.1460   -2.0330    2.8090 H   0  0  0  0  0  0  0  0  0  0  0  0
   -0.3010   -4.1880    1.8730 H   0  0  0  0  0  0  0  0  0  0  0  0
    1.3070   -4.1210    2.6860 H   0  0  0  0  0  0  0  0  0  0  0  0
    2.4680   -4.1850    0.5900 H   0  0  0  0  0  0  0  0  0  0  0  0
    1.3280   -5.5210    0.7640 H   0  0  0  0  0  0  0  0  0  0  0  0
   -0.9000   -4.2230   -1.9050 H   0  0  0  0  0  0  0  0  0  0  0  0
    2.2380   -0.3040    1.5740 N   0  0  0  0  0  0  0  0  0  0  0  0
    3.6610    0.1940    1.5380 C   0  0  0  0  0  0  0  0  0  0  0  0
    3.6960    1.0160    0.2640 C   0  0  0  0  0  0  0  0  0  0  0  0
    2.2110    1.1590   -0.1170 C   0  0  0  0  0  0  0  0  0  0  0  0
    1.5680    0.9060    1.2140 C   0  0  1  0  0  0  0  0  0  0  0  0
    0.1720    1.0820    1.3940 C   0  0  0  0  0  0  0  0  0  0  0  0
   -0.3650    0.6150    2.4580 O   0  0  0  0  0  0  0  0  0  0  0  0
    4.3620   -0.6280    1.4820 H   0  0  0  0  0  0  0  0  0  0  0  0
    3.8560    0.8140    2.4170 H   0  0  0  0  0  0  0  0  0  0  0  0
    4.1090    2.0170    0.4690 H   0  0  0  0  0  0  0  0  0  0  0  0
    4.2720    0.5170   -0.5200 H   0  0  0  0  0  0  0  0  0  0  0  0
    1.9880    2.1180   -0.5770 H   0  0  0  0  0  0  0  0  0  0  0  0
    2.0390    0.3360   -0.8420 H   0  0  0  0  0  0  0  0  0  0  0  0
    2.1000    1.7160    1.8890 H   0  0  0  0  0  0  0  0  0  0  0  0
   -3.9450    3.3650    1.0840 O   0  0  0  0  0  0  0  0  0  0  0  0
   -2.5830    3.2690    0.7620 C   0  0  0  0  0  0  0  0  0  0  0  0
   -2.1110    1.8330    0.8240 C   0  0  2  0  0  0  0  0  0  0  0  0
   -0.7120    1.7350    0.4970 N   0  0  0  0  0  0  0  0  0  0  0  0
   -2.9840    1.0540   -0.1000 C   0  0  0  0  0  0  0  0  0  0  0  0
   -4.2400    1.0710    0.0690 O   0  0  0  0  0  0  0  0  0  0  0  0
   -2.4940    0.3070   -1.1440 O   0  0  0  0  0  0  0  0  0  0  0  0
   -4.0870    2.9240    1.9540 H   0  0  0  0  0  0  0  0  0  0  0  0
   -2.4840    3.6660   -0.2690 H   0  0  0  0  0  0  0  0  0  0  0  0
   -2.0270    3.8550    1.5150 H   0  0  0  0  0  0  0  0  0  0  0  0
   -2.3560    1.4470    1.8410 H   0  0  0  0  0  0  0  0  0  0  0  0
   -0.3600    2.1300   -0.3770 H   0  0  0  0  0  0  0  0  0  0  0  0
  1  2  1  0  0  0  0
  2  7  1  0  0  0  0
  2 12  1  1  0  0  0
  3  2  1  0  0  0  0
  3 13  1  0  0  0  0
  3 14  1  0  0  0  0
  4 16  1  0  0  0  0
  4  3  1  0  0  0  0
  5  4  1  0  0  0  0
  6  5  2  0  0  0  0
  7  8  2  0  0  0  0
  9  5  1  0  0  0  0
 10  1  1  0  0  0  0
 11  1  1  0  0  0  0
 15  4  1  0  0  0  0
 17  9  1  0  0  0  0
 18  7  1  0  0  0  0
 19 18  1  0  0  0  0
 19 26  1  0  0  0  0
 20 27  1  0  0  0  0
 20 19  1  0  0  0  0
 21 20  1  0  0  0  0
 21 22  1  0  0  0  0
 22 23  1  0  0  0  0
 22 18  1  0  0  0  0
 22 31  1  1  0  0  0
 23 24  2  0  0  0  0
 25 19  1  0  0  0  0
 28 20  1  0  0  0  0
 29 21  1  0  0  0  0
 30 21  1  0  0  0  0
 32 39  1  0  0  0  0
 33 34  1  0  0  0  0
 33 32  1  0  0  0  0
 33 41  1  0  0  0  0
 34 42  1  1  0  0  0
 35 34  1  0  0  0  0
 35 23  1  0  0  0  0
 36 37  1  0  0  0  0
 36 34  1  0  0  0  0
 38 36  2  0  0  0  0
 40 33  1  0  0  0  0
 43 35  1  0  0  0  0
M  END
$$$$
