EPT.pdb
 OpenBabel07022418203D

 46 46  0  0  1  0  0  0  0  0999 V2000
    2.2550   -3.0910   -2.1960 N   0  0  0  0  0  0  0  0  0  0  0  0
    1.9740   -2.3110   -0.9600 C   0  0  1  0  0  0  0  0  0  0  0  0
    3.2030   -2.5770   -0.1150 C   0  0  0  0  0  0  0  0  0  0  0  0
    3.2250   -1.9300    1.2150 C   0  0  0  0  0  0  0  0  0  0  0  0
    4.5210   -2.3050    1.8780 C   0  0  0  0  0  0  0  0  0  0  0  0
    5.3700   -3.0420    1.3190 O   0  0  0  0  0  0  0  0  0  0  0  0
    1.8200   -0.8940   -1.3390 C   0  0  0  0  0  0  0  0  0  0  0  0
    2.3290   -0.5710   -2.4760 O   0  0  0  0  0  0  0  0  0  0  0  0
    4.8230   -1.8350    3.1580 O   0  0  0  0  0  0  0  0  0  0  0  0
    2.2070   -4.1060   -2.0060 H   0  0  0  0  0  0  0  0  0  0  0  0
    1.6490   -2.7660   -2.9730 H   0  0  0  0  0  0  0  0  0  0  0  0
    1.0840   -2.7760   -0.5140 H   0  0  0  0  0  0  0  0  0  0  0  0
    3.2610   -3.7020   -0.0300 H   0  0  0  0  0  0  0  0  0  0  0  0
    4.0790   -2.3010   -0.7350 H   0  0  0  0  0  0  0  0  0  0  0  0
    2.3680   -2.2170    1.8620 H   0  0  0  0  0  0  0  0  0  0  0  0
    3.2370   -0.8290    1.1160 H   0  0  0  0  0  0  0  0  0  0  0  0
    5.8080   -1.7140    3.3770 H   0  0  0  0  0  0  0  0  0  0  0  0
    1.1870    0.1160   -0.6080 N   0  0  0  0  0  0  0  0  0  0  0  0
    1.1160    1.5210   -1.0550 C   0  0  0  0  0  0  0  0  0  0  0  0
    1.5230    2.2400    0.2220 C   0  0  0  0  0  0  0  0  0  0  0  0
    0.8160    1.4490    1.2760 C   0  0  0  0  0  0  0  0  0  0  0  0
    0.4670    0.1240    0.6390 C   0  0  1  0  0  0  0  0  0  0  0  0
   -1.0220    0.1620    0.3830 C   0  0  0  0  0  0  0  0  0  0  0  0
   -1.5020    0.1660   -0.7750 O   0  0  0  0  0  0  0  0  0  0  0  0
    1.8350    1.6860   -1.8680 H   0  0  0  0  0  0  0  0  0  0  0  0
    0.0910    1.7690   -1.3290 H   0  0  0  0  0  0  0  0  0  0  0  0
    1.1570    3.2810    0.1600 H   0  0  0  0  0  0  0  0  0  0  0  0
    2.6160    2.1590    0.3030 H   0  0  0  0  0  0  0  0  0  0  0  0
   -0.0780    2.0000    1.6300 H   0  0  0  0  0  0  0  0  0  0  0  0
    1.4910    1.3350    2.1480 H   0  0  0  0  0  0  0  0  0  0  0  0
    0.6490   -0.6980    1.3140 H   0  0  0  0  0  0  0  0  0  0  0  0
   -3.6100   -0.9230    3.3320 C   0  0  0  0  0  0  0  0  0  0  0  0
   -3.9790   -0.9950    1.8680 C   0  0  1  0  0  0  0  0  0  0  0  0
   -5.3520   -1.0700    1.6770 O   0  0  0  0  0  0  0  0  0  0  0  0
   -3.3890    0.2320    1.1890 C   0  0  2  0  0  0  0  0  0  0  0  0
   -1.9440    0.1950    1.4630 N   0  0  0  0  0  0  0  0  0  0  0  0
   -3.9750    1.4200    1.8540 C   0  0  0  0  0  0  0  0  0  0  0  0
   -5.2050    1.6240    1.7340 O   0  0  0  0  0  0  0  0  0  0  0  0
   -3.2220    2.3100    2.5980 O   0  0  0  0  0  0  0  0  0  0  0  0
   -4.2900   -1.5710    3.9300 H   0  0  0  0  0  0  0  0  0  0  0  0
   -3.6060    0.0920    3.7330 H   0  0  0  0  0  0  0  0  0  0  0  0
   -2.5690   -1.3240    3.4310 H   0  0  0  0  0  0  0  0  0  0  0  0
   -3.4640   -1.8760    1.4320 H   0  0  0  0  0  0  0  0  0  0  0  0
   -5.5130   -1.7570    0.9870 H   0  0  0  0  0  0  0  0  0  0  0  0
   -3.5920    0.2290    0.1160 H   0  0  0  0  0  0  0  0  0  0  0  0
   -1.6200    0.1940    2.4540 H   0  0  0  0  0  0  0  0  0  0  0  0
  1 10  1  0  0  0  0
  1  2  1  0  0  0  0
  2 12  1  1  0  0  0
  2  3  1  0  0  0  0
  3 13  1  0  0  0  0
  3  4  1  0  0  0  0
  4 15  1  0  0  0  0
  4  5  1  0  0  0  0
  5  9  1  0  0  0  0
  6  5  2  0  0  0  0
  7  2  1  0  0  0  0
  7 18  1  0  0  0  0
  8  7  2  0  0  0  0
  9 17  1  0  0  0  0
 11  1  1  0  0  0  0
 14  3  1  0  0  0  0
 16  4  1  0  0  0  0
 18 22  1  0  0  0  0
 19 18  1  0  0  0  0
 19 20  1  0  0  0  0
 20 28  1  0  0  0  0
 20 21  1  0  0  0  0
 21 29  1  0  0  0  0
 21 30  1  0  0  0  0
 22 21  1  0  0  0  0
 22 31  1  1  0  0  0
 23 22  1  0  0  0  0
 23 36  1  0  0  0  0
 24 23  2  0  0  0  0
 25 19  1  0  0  0  0
 26 19  1  0  0  0  0
 27 20  1  0  0  0  0
 32 42  1  0  0  0  0
 32 41  1  0  0  0  0
 32 40  1  0  0  0  0
 33 43  1  6  0  0  0
 33 32  1  0  0  0  0
 34 33  1  0  0  0  0
 35 45  1  6  0  0  0
 35 36  1  0  0  0  0
 35 37  1  0  0  0  0
 35 33  1  0  0  0  0
 36 46  1  0  0  0  0
 37 39  1  0  0  0  0
 38 37  2  0  0  0  0
 44 34  1  0  0  0  0
M  END
$$$$
