EPV.pdb
 OpenBabel07022418203D

 48 48  0  0  1  0  0  0  0  0999 V2000
    1.4080   -3.7990    2.1700 N   0  0  0  0  0  0  0  0  0  0  0  0
    1.6690   -2.3210    2.1850 C   0  0  1  0  0  0  0  0  0  0  0  0
    3.0900   -2.2590    2.6990 C   0  0  0  0  0  0  0  0  0  0  0  0
    3.6510   -0.8950    2.8620 C   0  0  0  0  0  0  0  0  0  0  0  0
    2.8900   -0.1520    3.8900 C   0  0  0  0  0  0  0  0  0  0  0  0
    1.9400   -0.6550    4.5320 O   0  0  0  0  0  0  0  0  0  0  0  0
    1.6400   -1.8420    0.7780 C   0  0  0  0  0  0  0  0  0  0  0  0
    1.9620   -2.7430   -0.0800 O   0  0  0  0  0  0  0  0  0  0  0  0
    3.2970    1.1710    4.1120 O   0  0  0  0  0  0  0  0  0  0  0  0
    1.0780   -4.1060    3.0940 H   0  0  0  0  0  0  0  0  0  0  0  0
    2.2220   -4.2930    1.7900 H   0  0  0  0  0  0  0  0  0  0  0  0
    0.9550   -1.8370    2.8390 H   0  0  0  0  0  0  0  0  0  0  0  0
    3.7200   -2.8720    1.9980 H   0  0  0  0  0  0  0  0  0  0  0  0
    3.1070   -2.8310    3.6710 H   0  0  0  0  0  0  0  0  0  0  0  0
    4.7190   -0.9850    3.1870 H   0  0  0  0  0  0  0  0  0  0  0  0
    3.6070   -0.3890    1.8680 H   0  0  0  0  0  0  0  0  0  0  0  0
    2.7810    1.6670    4.8390 H   0  0  0  0  0  0  0  0  0  0  0  0
    1.3130   -0.5730    0.3050 N   0  0  0  0  0  0  0  0  0  0  0  0
    1.3800   -0.2410   -1.1380 C   0  0  0  0  0  0  0  0  0  0  0  0
    2.1970    1.0370   -1.0580 C   0  0  0  0  0  0  0  0  0  0  0  0
    1.4940    1.7260    0.0960 C   0  0  0  0  0  0  0  0  0  0  0  0
    0.8460    0.6450    0.9050 C   0  0  1  0  0  0  0  0  0  0  0  0
   -0.6530    0.7750    0.7700 C   0  0  0  0  0  0  0  0  0  0  0  0
   -1.1810    1.8590    1.1290 O   0  0  0  0  0  0  0  0  0  0  0  0
    1.8760   -1.0140   -1.7210 H   0  0  0  0  0  0  0  0  0  0  0  0
    0.3800   -0.0100   -1.5130 H   0  0  0  0  0  0  0  0  0  0  0  0
    2.1470    1.6190   -1.9840 H   0  0  0  0  0  0  0  0  0  0  0  0
    3.2400    0.7930   -0.8290 H   0  0  0  0  0  0  0  0  0  0  0  0
    2.2640    2.2380    0.7070 H   0  0  0  0  0  0  0  0  0  0  0  0
    0.7660    2.4790   -0.2370 H   0  0  0  0  0  0  0  0  0  0  0  0
    1.1040    0.7730    1.9680 H   0  0  0  0  0  0  0  0  0  0  0  0
   -2.8610   -1.4690   -1.8820 C   0  0  0  0  0  0  0  0  0  0  0  0
   -3.2380   -0.1220   -1.3140 C   0  0  0  0  0  0  0  0  0  0  0  0
   -4.7130    0.1260   -1.5450 C   0  0  0  0  0  0  0  0  0  0  0  0
   -2.8960   -0.0670    0.1610 C   0  0  2  0  0  0  0  0  0  0  0  0
   -1.4440   -0.2860    0.2570 N   0  0  0  0  0  0  0  0  0  0  0  0
   -3.6010   -1.1160    0.9330 C   0  0  0  0  0  0  0  0  0  0  0  0
   -4.8580   -1.0790    0.9590 O   0  0  0  0  0  0  0  0  0  0  0  0
   -2.9220   -2.1180    1.6150 O   0  0  0  0  0  0  0  0  0  0  0  0
   -3.6190   -1.8660   -2.5760 H   0  0  0  0  0  0  0  0  0  0  0  0
   -1.8870   -1.3550   -2.3780 H   0  0  0  0  0  0  0  0  0  0  0  0
   -2.7450   -2.1780   -1.0560 H   0  0  0  0  0  0  0  0  0  0  0  0
   -2.6940    0.7130   -1.7980 H   0  0  0  0  0  0  0  0  0  0  0  0
   -4.9010    0.6340   -2.5130 H   0  0  0  0  0  0  0  0  0  0  0  0
   -5.1040    0.7900   -0.7560 H   0  0  0  0  0  0  0  0  0  0  0  0
   -5.2810   -0.8320   -1.5930 H   0  0  0  0  0  0  0  0  0  0  0  0
   -3.1640    0.9320    0.5200 H   0  0  0  0  0  0  0  0  0  0  0  0
   -1.0300   -1.1930   -0.0380 H   0  0  0  0  0  0  0  0  0  0  0  0
  1  2  1  0  0  0  0
  1 10  1  0  0  0  0
  2  3  1  0  0  0  0
  2 12  1  1  0  0  0
  3  4  1  0  0  0  0
  3 14  1  0  0  0  0
  4 15  1  0  0  0  0
  4  5  1  0  0  0  0
  5  9  1  0  0  0  0
  5  6  2  0  0  0  0
  7  2  1  0  0  0  0
  8  7  2  0  0  0  0
  9 17  1  0  0  0  0
 11  1  1  0  0  0  0
 13  3  1  0  0  0  0
 16  4  1  0  0  0  0
 18  7  1  0  0  0  0
 18 22  1  0  0  0  0
 19 20  1  0  0  0  0
 19 18  1  0  0  0  0
 20 28  1  0  0  0  0
 20 21  1  0  0  0  0
 21 29  1  0  0  0  0
 21 22  1  0  0  0  0
 22 31  1  1  0  0  0
 23 22  1  0  0  0  0
 23 24  2  0  0  0  0
 25 19  1  0  0  0  0
 26 19  1  0  0  0  0
 27 20  1  0  0  0  0
 30 21  1  0  0  0  0
 32 33  1  0  0  0  0
 32 42  1  0  0  0  0
 33 35  1  0  0  0  0
 34 33  1  0  0  0  0
 34 45  1  0  0  0  0
 35 36  1  0  0  0  0
 35 47  1  1  0  0  0
 35 37  1  0  0  0  0
 36 23  1  0  0  0  0
 37 38  2  0  0  0  0
 37 39  1  0  0  0  0
 40 32  1  0  0  0  0
 41 32  1  0  0  0  0
 43 33  1  0  0  0  0
 44 34  1  0  0  0  0
 46 34  1  0  0  0  0
 48 36  1  0  0  0  0
M  END
$$$$
