EPW.pdb
 OpenBabel07022418203D

 56 58  0  0  1  0  0  0  0  0999 V2000
    2.4570    3.4810    0.4080 N   0  0  0  0  0  0  0  0  0  0  0  0
    2.6500    2.2160    1.1640 C   0  0  1  0  0  0  0  0  0  0  0  0
    2.6670    2.6680    2.6070 C   0  0  0  0  0  0  0  0  0  0  0  0
    3.7790    3.6450    2.8910 C   0  0  0  0  0  0  0  0  0  0  0  0
    5.1290    3.1160    2.6610 C   0  0  0  0  0  0  0  0  0  0  0  0
    5.3070    1.9310    2.2990 O   0  0  0  0  0  0  0  0  0  0  0  0
    1.5020    1.3390    0.8640 C   0  0  0  0  0  0  0  0  0  0  0  0
    0.4710    1.8730    0.4200 O   0  0  0  0  0  0  0  0  0  0  0  0
    6.2370    3.9460    2.8470 O   0  0  0  0  0  0  0  0  0  0  0  0
    1.4540    3.5470    0.1100 H   0  0  0  0  0  0  0  0  0  0  0  0
    3.0940    3.4970   -0.4240 H   0  0  0  0  0  0  0  0  0  0  0  0
    3.5720    1.7640    0.8180 H   0  0  0  0  0  0  0  0  0  0  0  0
    2.7410    1.8050    3.2820 H   0  0  0  0  0  0  0  0  0  0  0  0
    1.7270    3.1930    2.8800 H   0  0  0  0  0  0  0  0  0  0  0  0
    3.7470    3.9920    3.9610 H   0  0  0  0  0  0  0  0  0  0  0  0
    3.6300    4.5940    2.3090 H   0  0  0  0  0  0  0  0  0  0  0  0
    7.1200    3.5500    3.1000 H   0  0  0  0  0  0  0  0  0  0  0  0
    1.4970   -0.0750    1.0480 N   0  0  0  0  0  0  0  0  0  0  0  0
    2.7280   -0.7420    1.5000 C   0  0  0  0  0  0  0  0  0  0  0  0
    2.3160   -2.1430    1.8530 C   0  0  0  0  0  0  0  0  0  0  0  0
    0.8080   -2.0870    1.9680 C   0  0  0  0  0  0  0  0  0  0  0  0
    0.5110   -1.0570    0.8650 C   0  0  1  0  0  0  0  0  0  0  0  0
   -0.9030   -0.6680    0.9490 C   0  0  0  0  0  0  0  0  0  0  0  0
   -1.3530    0.4390    1.3130 O   0  0  0  0  0  0  0  0  0  0  0  0
    3.2490   -0.2210    2.2940 H   0  0  0  0  0  0  0  0  0  0  0  0
    3.4000   -0.7990    0.5880 H   0  0  0  0  0  0  0  0  0  0  0  0
    2.6290   -2.8650    1.0450 H   0  0  0  0  0  0  0  0  0  0  0  0
    2.7800   -2.4910    2.8190 H   0  0  0  0  0  0  0  0  0  0  0  0
    0.5970   -1.6260    2.9660 H   0  0  0  0  0  0  0  0  0  0  0  0
    0.3050   -3.0370    1.8030 H   0  0  0  0  0  0  0  0  0  0  0  0
    0.6660   -1.6400   -0.0930 H   0  0  0  0  0  0  0  0  0  0  0  0
   -1.8900   -1.6360    0.5820 N   0  0  0  0  0  0  0  0  0  0  0  0
   -3.3050   -1.3370    0.6330 C   0  0  1  0  0  0  0  0  0  0  0  0
   -3.9820   -1.2790   -0.6960 C   0  0  0  0  0  0  0  0  0  0  0  0
   -3.9470   -2.4840   -1.5050 C   0  0  0  0  0  0  0  0  0  0  0  0
   -4.9520   -3.4030   -1.6380 C   0  0  0  0  0  0  0  0  0  0  0  0
   -4.5390   -4.3820   -2.4570 N   0  0  0  0  0  0  0  0  0  0  0  0
   -3.2830   -4.1320   -2.8690 C   0  0  0  0  0  0  0  0  0  0  0  0
   -2.4450   -4.8350   -3.7100 C   0  0  0  0  0  0  0  0  0  0  0  0
   -1.1880   -4.3460   -3.9770 C   0  0  0  0  0  0  0  0  0  0  0  0
   -0.7700   -3.1760   -3.4160 C   0  0  0  0  0  0  0  0  0  0  0  0
   -1.6350   -2.4990   -2.5790 C   0  0  0  0  0  0  0  0  0  0  0  0
   -2.9080   -2.9450   -2.2760 C   0  0  0  0  0  0  0  0  0  0  0  0
   -4.0220   -2.1780    1.6100 C   0  0  0  0  0  0  0  0  0  0  0  0
   -3.4330   -3.0420    2.2870 O   0  0  0  0  0  0  0  0  0  0  0  0
   -5.3810   -2.0030    1.7790 O   0  0  0  0  0  0  0  0  0  0  0  0
   -1.5360   -2.5790    0.2800 H   0  0  0  0  0  0  0  0  0  0  0  0
   -3.3980   -0.2840    1.0470 H   0  0  0  0  0  0  0  0  0  0  0  0
   -3.5360   -0.3940   -1.2410 H   0  0  0  0  0  0  0  0  0  0  0  0
   -5.0450   -0.9640   -0.4930 H   0  0  0  0  0  0  0  0  0  0  0  0
   -5.9230   -3.3700   -1.1740 H   0  0  0  0  0  0  0  0  0  0  0  0
   -5.0950   -5.2320   -2.7500 H   0  0  0  0  0  0  0  0  0  0  0  0
   -2.7830   -5.7640   -4.1540 H   0  0  0  0  0  0  0  0  0  0  0  0
   -0.4910   -4.8640   -4.6330 H   0  0  0  0  0  0  0  0  0  0  0  0
    0.2040   -2.7350   -3.5830 H   0  0  0  0  0  0  0  0  0  0  0  0
   -1.3010   -1.5620   -2.1330 H   0  0  0  0  0  0  0  0  0  0  0  0
  1  2  1  0  0  0  0
  2 12  1  6  0  0  0
  2  3  1  0  0  0  0
  3 14  1  0  0  0  0
  3  4  1  0  0  0  0
  3 13  1  0  0  0  0
  4 15  1  0  0  0  0
  5  9  1  0  0  0  0
  5  4  1  0  0  0  0
  6  5  2  0  0  0  0
  7 18  1  0  0  0  0
  7  2  1  0  0  0  0
  8  7  2  0  0  0  0
  9 17  1  0  0  0  0
 10  1  1  0  0  0  0
 11  1  1  0  0  0  0
 16  4  1  0  0  0  0
 18 19  1  0  0  0  0
 19 20  1  0  0  0  0
 19 25  1  0  0  0  0
 20 21  1  0  0  0  0
 20 28  1  0  0  0  0
 21 29  1  0  0  0  0
 22 31  1  6  0  0  0
 22 23  1  0  0  0  0
 22 18  1  0  0  0  0
 22 21  1  0  0  0  0
 23 24  2  0  0  0  0
 26 19  1  0  0  0  0
 27 20  1  0  0  0  0
 30 21  1  0  0  0  0
 32 33  1  0  0  0  0
 32 23  1  0  0  0  0
 33 48  1  1  0  0  0
 33 44  1  0  0  0  0
 34 50  1  0  0  0  0
 34 33  1  0  0  0  0
 35 34  1  0  0  0  0
 36 35  2  0  0  0  0
 36 51  1  0  0  0  0
 37 36  1  0  0  0  0
 38 37  1  0  0  0  0
 38 43  1  0  0  0  0
 39 38  2  0  0  0  0
 40 39  1  0  0  0  0
 40 41  2  0  0  0  0
 41 42  1  0  0  0  0
 42 43  2  0  0  0  0
 42 56  1  0  0  0  0
 43 35  1  0  0  0  0
 44 46  2  0  0  0  0
 44 45  1  0  0  0  0
 47 32  1  0  0  0  0
 49 34  1  0  0  0  0
 52 37  1  0  0  0  0
 53 39  1  0  0  0  0
 54 40  1  0  0  0  0
 55 41  1  0  0  0  0
M  END
$$$$
