EPY.pdb
 OpenBabel07022418203D

 53 54  0  0  1  0  0  0  0  0999 V2000
   -0.5060   -0.6430    1.9110 N   0  0  0  0  0  0  0  0  0  0  0  0
    0.6960   -0.5210    2.7080 C   0  0  1  0  0  0  0  0  0  0  0  0
    1.4320   -1.8210    2.6740 C   0  0  0  0  0  0  0  0  0  0  0  0
    2.7020   -1.8870    3.4390 C   0  0  0  0  0  0  0  0  0  0  0  0
    2.5140   -1.6490    4.8750 C   0  0  0  0  0  0  0  0  0  0  0  0
    3.5600   -1.6310    5.5950 O   0  0  0  0  0  0  0  0  0  0  0  0
    1.4570    0.6430    2.2710 C   0  0  0  0  0  0  0  0  0  0  0  0
    2.4990    0.8890    2.9340 O   0  0  0  0  0  0  0  0  0  0  0  0
    1.3070   -1.4440    5.5170 O   0  0  0  0  0  0  0  0  0  0  0  0
   -0.6600   -1.6130    1.5670 H   0  0  0  0  0  0  0  0  0  0  0  0
   -1.3720   -0.3630    2.4240 H   0  0  0  0  0  0  0  0  0  0  0  0
    0.3490   -0.3310    3.7430 H   0  0  0  0  0  0  0  0  0  0  0  0
    1.6360   -2.1630    1.6150 H   0  0  0  0  0  0  0  0  0  0  0  0
    0.7530   -2.6040    3.0810 H   0  0  0  0  0  0  0  0  0  0  0  0
    3.5240   -1.2820    3.0030 H   0  0  0  0  0  0  0  0  0  0  0  0
    3.0680   -2.9540    3.3450 H   0  0  0  0  0  0  0  0  0  0  0  0
    1.1420   -1.8250    6.4560 H   0  0  0  0  0  0  0  0  0  0  0  0
    1.1570    1.5270    1.1850 N   0  0  0  0  0  0  0  0  0  0  0  0
    1.9970    2.6370    0.8690 C   0  0  0  0  0  0  0  0  0  0  0  0
    1.5530    3.2090   -0.4160 C   0  0  0  0  0  0  0  0  0  0  0  0
    0.0620    2.8390   -0.3940 C   0  0  0  0  0  0  0  0  0  0  0  0
    0.0600    1.4810    0.2720 C   0  0  1  0  0  0  0  0  0  0  0  0
    0.1610    0.3890   -0.7190 C   0  0  0  0  0  0  0  0  0  0  0  0
    1.1860   -0.3340   -0.6910 O   0  0  0  0  0  0  0  0  0  0  0  0
    1.7680    3.4190    1.6630 H   0  0  0  0  0  0  0  0  0  0  0  0
    3.0830    2.3820    0.9050 H   0  0  0  0  0  0  0  0  0  0  0  0
    1.6560    4.3290   -0.4680 H   0  0  0  0  0  0  0  0  0  0  0  0
    2.0890    2.7360   -1.2570 H   0  0  0  0  0  0  0  0  0  0  0  0
   -0.4820    3.6020    0.1890 H   0  0  0  0  0  0  0  0  0  0  0  0
   -0.2840    2.8290   -1.4270 H   0  0  0  0  0  0  0  0  0  0  0  0
   -0.9110    1.3900    0.8440 H   0  0  0  0  0  0  0  0  0  0  0  0
   -3.0160   -4.3220    2.3530 O   0  0  0  0  0  0  0  0  0  0  0  0
   -2.7110   -3.7470    1.1240 C   0  0  0  0  0  0  0  0  0  0  0  0
   -3.2710   -2.5470    0.7200 C   0  0  0  0  0  0  0  0  0  0  0  0
   -2.9930   -1.9480   -0.4880 C   0  0  0  0  0  0  0  0  0  0  0  0
   -2.1120   -2.5620   -1.3530 C   0  0  0  0  0  0  0  0  0  0  0  0
   -1.8240   -1.9170   -2.6350 C   0  0  0  0  0  0  0  0  0  0  0  0
   -0.6530   -0.9610   -2.6080 C   0  0  2  0  0  0  0  0  0  0  0  0
   -0.8290    0.1160   -1.6890 N   0  0  0  0  0  0  0  0  0  0  0  0
   -0.5330   -0.4100   -3.9820 C   0  0  0  0  0  0  0  0  0  0  0  0
   -0.6010    0.8370   -4.1260 O   0  0  0  0  0  0  0  0  0  0  0  0
   -1.5480   -3.7570   -0.9610 C   0  0  0  0  0  0  0  0  0  0  0  0
   -1.8320   -4.3510    0.2510 C   0  0  0  0  0  0  0  0  0  0  0  0
   -0.3510   -1.2330   -5.0920 O   0  0  0  0  0  0  0  0  0  0  0  0
   -3.1470   -3.7030    3.1400 H   0  0  0  0  0  0  0  0  0  0  0  0
   -3.9710   -2.0530    1.3990 H   0  0  0  0  0  0  0  0  0  0  0  0
   -3.4750   -0.9920   -0.7440 H   0  0  0  0  0  0  0  0  0  0  0  0
   -2.6900   -1.4000   -3.0770 H   0  0  0  0  0  0  0  0  0  0  0  0
   -1.5530   -2.7370   -3.3590 H   0  0  0  0  0  0  0  0  0  0  0  0
    0.3020   -1.4720   -2.3880 H   0  0  0  0  0  0  0  0  0  0  0  0
   -1.6760    0.7410   -1.6860 H   0  0  0  0  0  0  0  0  0  0  0  0
   -0.8550   -4.2460   -1.6330 H   0  0  0  0  0  0  0  0  0  0  0  0
   -1.3720   -5.2890    0.5280 H   0  0  0  0  0  0  0  0  0  0  0  0
  1 11  1  0  0  0  0
  1  2  1  0  0  0  0
  2 12  1  1  0  0  0
  3  2  1  0  0  0  0
  3 14  1  0  0  0  0
  3  4  1  0  0  0  0
  4  5  1  0  0  0  0
  5  9  1  0  0  0  0
  5  6  2  0  0  0  0
  7  2  1  0  0  0  0
  7  8  2  0  0  0  0
  9 17  1  0  0  0  0
 10  1  1  0  0  0  0
 13  3  1  0  0  0  0
 15  4  1  0  0  0  0
 16  4  1  0  0  0  0
 18  7  1  0  0  0  0
 19 26  1  0  0  0  0
 19 18  1  0  0  0  0
 19 25  1  0  0  0  0
 20 21  1  0  0  0  0
 20 19  1  0  0  0  0
 21 29  1  0  0  0  0
 21 22  1  0  0  0  0
 22 31  1  1  0  0  0
 22 18  1  0  0  0  0
 23 24  2  0  0  0  0
 23 22  1  0  0  0  0
 27 20  1  0  0  0  0
 28 20  1  0  0  0  0
 30 21  1  0  0  0  0
 32 45  1  0  0  0  0
 33 32  1  0  0  0  0
 34 33  1  0  0  0  0
 34 46  1  0  0  0  0
 35 34  2  0  0  0  0
 36 42  2  0  0  0  0
 36 35  1  0  0  0  0
 37 38  1  0  0  0  0
 37 36  1  0  0  0  0
 38 50  1  1  0  0  0
 38 39  1  0  0  0  0
 39 51  1  0  0  0  0
 39 23  1  0  0  0  0
 40 38  1  0  0  0  0
 41 40  1  0  0  0  0
 42 43  1  0  0  0  0
 43 53  1  0  0  0  0
 43 33  2  0  0  0  0
 44 40  2  0  0  0  0
 47 35  1  0  0  0  0
 48 37  1  0  0  0  0
 49 37  1  0  0  0  0
 52 42  1  0  0  0  0
M  END
$$$$
