EQC.pdb
 OpenBabel07022418183D

 46 45  0  0  1  0  0  0  0  0999 V2000
    1.6630   -4.2980    2.5350 N   0  0  0  0  0  0  0  0  0  0  0  0
    2.0850   -3.2450    1.6130 C   0  0  1  0  0  0  0  0  0  0  0  0
    2.2930   -3.6810    0.2340 C   0  0  0  0  0  0  0  0  0  0  0  0
    1.1930   -4.3020   -0.5280 C   0  0  0  0  0  0  0  0  0  0  0  0
   -0.0010   -3.5280   -0.7900 C   0  0  0  0  0  0  0  0  0  0  0  0
   -0.0360   -2.7020   -1.7480 O   0  0  0  0  0  0  0  0  0  0  0  0
    1.4860   -1.9890    1.9630 C   0  0  0  0  0  0  0  0  0  0  0  0
    0.9170   -1.9130    3.1160 O   0  0  0  0  0  0  0  0  0  0  0  0
   -1.1270   -3.6670   -0.0080 O   0  0  0  0  0  0  0  0  0  0  0  0
    0.6220   -4.3440    2.6040 H   0  0  0  0  0  0  0  0  0  0  0  0
    2.0250   -4.1400    3.5020 H   0  0  0  0  0  0  0  0  0  0  0  0
    3.2070   -3.0930    1.9970 H   0  0  0  0  0  0  0  0  0  0  0  0
    2.7880   -2.8550   -0.3380 H   0  0  0  0  0  0  0  0  0  0  0  0
    3.1180   -4.4730    0.2670 H   0  0  0  0  0  0  0  0  0  0  0  0
    0.9710   -5.3140   -0.0800 H   0  0  0  0  0  0  0  0  0  0  0  0
    1.6290   -4.5820   -1.5370 H   0  0  0  0  0  0  0  0  0  0  0  0
   -2.0720   -3.5170   -0.3610 H   0  0  0  0  0  0  0  0  0  0  0  0
    2.4680    5.2090    2.1310 N   0  0  0  0  0  0  0  0  0  0  0  0
    2.5730    3.8360    1.7900 C   0  0  0  0  0  0  0  0  0  0  0  0
    3.6690    3.4120    1.3100 O   0  0  0  0  0  0  0  0  0  0  0  0
    1.4120    2.8950    1.9890 C   0  0  0  0  0  0  0  0  0  0  0  0
    1.8450    1.5440    1.5540 C   0  0  0  0  0  0  0  0  0  0  0  0
    0.8370    0.4480    1.6980 C   0  0  2  0  0  0  0  0  0  0  0  0
    1.4310   -0.7900    1.2210 N   0  0  0  0  0  0  0  0  0  0  0  0
   -0.5050    0.7430    1.2500 C   0  0  0  0  0  0  0  0  0  0  0  0
   -1.0410    1.8270    1.6520 O   0  0  0  0  0  0  0  0  0  0  0  0
    3.1790    5.9080    1.8510 H   0  0  0  0  0  0  0  0  0  0  0  0
    1.6370    5.5120    2.6860 H   0  0  0  0  0  0  0  0  0  0  0  0
    1.1240    2.9360    3.0460 H   0  0  0  0  0  0  0  0  0  0  0  0
    0.5890    3.3270    1.3610 H   0  0  0  0  0  0  0  0  0  0  0  0
    2.7970    1.3100    2.0950 H   0  0  0  0  0  0  0  0  0  0  0  0
    2.1420    1.5960    0.4820 H   0  0  0  0  0  0  0  0  0  0  0  0
    0.7400    0.2610    2.8290 H   0  0  0  0  0  0  0  0  0  0  0  0
    1.8420   -0.7650    0.2560 H   0  0  0  0  0  0  0  0  0  0  0  0
   -1.3230   -0.0600    0.3880 N   0  0  0  0  0  0  0  0  0  0  0  0
   -2.6690    0.3880    0.0260 C   0  0  1  0  0  0  0  0  0  0  0  0
   -2.8940    0.3190   -1.4640 C   0  0  0  0  0  0  0  0  0  0  0  0
   -4.5800    0.8930   -1.8010 S   0  0  0  0  0  0  0  0  0  0  0  0
   -3.6780   -0.5180    0.6750 C   0  0  0  0  0  0  0  0  0  0  0  0
   -3.3030   -1.4960    1.3930 O   0  0  0  0  0  0  0  0  0  0  0  0
   -5.0210   -0.3220    0.5170 O   0  0  0  0  0  0  0  0  0  0  0  0
   -0.9290   -0.9460    0.0480 H   0  0  0  0  0  0  0  0  0  0  0  0
   -2.8240    1.4030    0.4400 H   0  0  0  0  0  0  0  0  0  0  0  0
   -2.7790   -0.7660   -1.7320 H   0  0  0  0  0  0  0  0  0  0  0  0
   -2.1910    0.9150   -2.0590 H   0  0  0  0  0  0  0  0  0  0  0  0
   -5.0180    1.7260   -0.7520 H   0  0  0  0  0  0  0  0  0  0  0  0
  1 10  1  0  0  0  0
  1 11  1  0  0  0  0
  2  7  1  0  0  0  0
  2 12  1  1  0  0  0
  2  1  1  0  0  0  0
  3 14  1  0  0  0  0
  3  2  1  0  0  0  0
  4 15  1  0  0  0  0
  4  3  1  0  0  0  0
  5  4  1  0  0  0  0
  5  9  1  0  0  0  0
  6  5  2  0  0  0  0
  7  8  2  0  0  0  0
 13  3  1  0  0  0  0
 16  4  1  0  0  0  0
 17  9  1  0  0  0  0
 18 28  1  0  0  0  0
 19 21  1  0  0  0  0
 19 18  1  0  0  0  0
 20 19  2  0  0  0  0
 21 29  1  0  0  0  0
 22 23  1  0  0  0  0
 22 21  1  0  0  0  0
 22 31  1  0  0  0  0
 23 33  1  1  0  0  0
 24 23  1  0  0  0  0
 24  7  1  0  0  0  0
 25 26  2  0  0  0  0
 25 23  1  0  0  0  0
 27 18  1  0  0  0  0
 30 21  1  0  0  0  0
 32 22  1  0  0  0  0
 34 24  1  0  0  0  0
 35 25  1  0  0  0  0
 36 35  1  0  0  0  0
 36 43  1  1  0  0  0
 36 39  1  0  0  0  0
 37 36  1  0  0  0  0
 38 37  1  0  0  0  0
 38 46  1  0  0  0  0
 39 40  1  0  0  0  0
 41 39  2  0  0  0  0
 42 35  1  0  0  0  0
 44 37  1  0  0  0  0
 45 37  1  0  0  0  0
M  END
$$$$
