EQD.pdb
 OpenBabel07022418183D

 48 47  0  0  1  0  0  0  0  0999 V2000
    2.7220   -3.8230   -0.2230 N   0  0  0  0  0  0  0  0  0  0  0  0
    3.2910   -2.9390    0.8510 C   0  0  1  0  0  0  0  0  0  0  0  0
    4.5460   -2.3550    0.3500 C   0  0  0  0  0  0  0  0  0  0  0  0
    5.3720   -1.4530    1.1720 C   0  0  0  0  0  0  0  0  0  0  0  0
    4.8070   -0.1650    1.5830 C   0  0  0  0  0  0  0  0  0  0  0  0
    4.6300    0.0900    2.7930 O   0  0  0  0  0  0  0  0  0  0  0  0
    2.2590   -1.9400    1.1900 C   0  0  0  0  0  0  0  0  0  0  0  0
    2.2380   -1.5280    2.3760 O   0  0  0  0  0  0  0  0  0  0  0  0
    4.4480    0.8240    0.6490 O   0  0  0  0  0  0  0  0  0  0  0  0
    3.2760   -4.7010   -0.1610 H   0  0  0  0  0  0  0  0  0  0  0  0
    2.7660   -3.3450   -1.1290 H   0  0  0  0  0  0  0  0  0  0  0  0
    3.4830   -3.6160    1.7010 H   0  0  0  0  0  0  0  0  0  0  0  0
    5.2560   -3.1640   -0.0430 H   0  0  0  0  0  0  0  0  0  0  0  0
    4.3530   -1.7690   -0.6290 H   0  0  0  0  0  0  0  0  0  0  0  0
    6.3090   -1.1870    0.5840 H   0  0  0  0  0  0  0  0  0  0  0  0
    5.8260   -1.9930    2.0670 H   0  0  0  0  0  0  0  0  0  0  0  0
    4.3670    1.7620    1.0100 H   0  0  0  0  0  0  0  0  0  0  0  0
   -1.9360    3.5520    0.3280 N   0  0  0  0  0  0  0  0  0  0  0  0
   -1.1360    2.4440   -0.0440 C   0  0  0  0  0  0  0  0  0  0  0  0
   -1.5110    1.7480   -1.0070 O   0  0  0  0  0  0  0  0  0  0  0  0
    0.0840    2.1330    0.6700 C   0  0  0  0  0  0  0  0  0  0  0  0
    0.8040    0.9000    0.4230 C   0  0  0  0  0  0  0  0  0  0  0  0
    0.2990   -0.4420    0.7530 C   0  0  2  0  0  0  0  0  0  0  0  0
    1.3190   -1.4360    0.2920 N   0  0  0  0  0  0  0  0  0  0  0  0
   -1.0190   -0.8830    0.3660 C   0  0  0  0  0  0  0  0  0  0  0  0
   -1.1070   -1.7770   -0.5530 O   0  0  0  0  0  0  0  0  0  0  0  0
   -2.0370    3.9030    1.2980 H   0  0  0  0  0  0  0  0  0  0  0  0
   -2.4610    4.0500   -0.4370 H   0  0  0  0  0  0  0  0  0  0  0  0
   -0.0760    2.2860    1.7790 H   0  0  0  0  0  0  0  0  0  0  0  0
    0.8040    2.9910    0.4220 H   0  0  0  0  0  0  0  0  0  0  0  0
    1.8040    1.0170    0.9980 H   0  0  0  0  0  0  0  0  0  0  0  0
    1.2090    0.9510   -0.6480 H   0  0  0  0  0  0  0  0  0  0  0  0
    0.3630   -0.5200    1.8860 H   0  0  0  0  0  0  0  0  0  0  0  0
    1.3300   -1.7500   -0.6990 H   0  0  0  0  0  0  0  0  0  0  0  0
   -2.2630   -0.4640    0.8810 N   0  0  0  0  0  0  0  0  0  0  0  0
   -3.5220   -1.0270    0.3910 C   0  0  1  0  0  0  0  0  0  0  0  0
   -4.1080   -1.9550    1.4380 C   0  0  0  0  0  0  0  0  0  0  0  0
   -5.3480   -2.5870    0.9750 C   0  0  0  0  0  0  0  0  0  0  0  0
   -5.8820   -2.5120   -0.1460 O   0  0  0  0  0  0  0  0  0  0  0  0
   -4.4410    0.0860    0.1630 C   0  0  0  0  0  0  0  0  0  0  0  0
   -5.5580   -0.0510   -0.3760 O   0  0  0  0  0  0  0  0  0  0  0  0
   -6.0430   -3.3890    1.9030 O   0  0  0  0  0  0  0  0  0  0  0  0
   -4.1250    1.3920    0.5430 O   0  0  0  0  0  0  0  0  0  0  0  0
   -2.2880    0.2520    1.6200 H   0  0  0  0  0  0  0  0  0  0  0  0
   -3.3130   -1.5720   -0.5310 H   0  0  0  0  0  0  0  0  0  0  0  0
   -4.3920   -1.2870    2.2990 H   0  0  0  0  0  0  0  0  0  0  0  0
   -3.4170   -2.7510    1.7470 H   0  0  0  0  0  0  0  0  0  0  0  0
   -6.5790   -4.1990    1.6020 H   0  0  0  0  0  0  0  0  0  0  0  0
  1 10  1  0  0  0  0
  1  2  1  0  0  0  0
  2  7  1  0  0  0  0
  2 12  1  1  0  0  0
  3  2  1  0  0  0  0
  3  4  1  0  0  0  0
  4  5  1  0  0  0  0
  4 16  1  0  0  0  0
  5  6  2  0  0  0  0
  7  8  2  0  0  0  0
  9 17  1  0  0  0  0
  9  5  1  0  0  0  0
 11  1  1  0  0  0  0
 13  3  1  0  0  0  0
 14  3  1  0  0  0  0
 15  4  1  0  0  0  0
 18 27  1  0  0  0  0
 19 18  1  0  0  0  0
 19 21  1  0  0  0  0
 20 19  2  0  0  0  0
 21 29  1  0  0  0  0
 22 21  1  0  0  0  0
 22 23  1  0  0  0  0
 22 31  1  0  0  0  0
 23 33  1  1  0  0  0
 24 23  1  0  0  0  0
 24  7  1  0  0  0  0
 25 23  1  0  0  0  0
 25 35  1  0  0  0  0
 26 25  2  0  0  0  0
 28 18  1  0  0  0  0
 30 21  1  0  0  0  0
 32 22  1  0  0  0  0
 34 24  1  0  0  0  0
 35 44  1  0  0  0  0
 36 45  1  6  0  0  0
 36 35  1  0  0  0  0
 36 37  1  0  0  0  0
 37 47  1  0  0  0  0
 37 46  1  0  0  0  0
 38 37  1  0  0  0  0
 38 42  1  0  0  0  0
 39 38  2  0  0  0  0
 40 36  1  0  0  0  0
 40 43  1  0  0  0  0
 41 40  2  0  0  0  0
 48 42  1  0  0  0  0
M  END
$$$$
