EQE.pdb
 OpenBabel07022418183D

 51 50  0  0  1  0  0  0  0  0999 V2000
    1.8980   -1.9370   -0.5640 N   0  0  0  0  0  0  0  0  0  0  0  0
    2.1670   -2.3880    0.7810 C   0  0  1  0  0  0  0  0  0  0  0  0
    3.6440   -2.3970    1.0710 C   0  0  0  0  0  0  0  0  0  0  0  0
    4.1990   -1.0000    0.9100 C   0  0  0  0  0  0  0  0  0  0  0  0
    5.6650   -1.0780    1.2140 C   0  0  0  0  0  0  0  0  0  0  0  0
    6.2230   -2.1630    1.5450 O   0  0  0  0  0  0  0  0  0  0  0  0
    1.3860   -1.6410    1.7680 C   0  0  0  0  0  0  0  0  0  0  0  0
    1.4070   -1.8190    2.9980 O   0  0  0  0  0  0  0  0  0  0  0  0
    6.4210    0.0670    1.1290 O   0  0  0  0  0  0  0  0  0  0  0  0
    2.1090   -0.9520   -0.7390 H   0  0  0  0  0  0  0  0  0  0  0  0
    0.9430   -2.1500   -0.8870 H   0  0  0  0  0  0  0  0  0  0  0  0
    1.8550   -3.4780    0.7840 H   0  0  0  0  0  0  0  0  0  0  0  0
    3.7720   -2.7690    2.1100 H   0  0  0  0  0  0  0  0  0  0  0  0
    4.2070   -3.0610    0.3910 H   0  0  0  0  0  0  0  0  0  0  0  0
    3.7240   -0.2840    1.6180 H   0  0  0  0  0  0  0  0  0  0  0  0
    4.0520   -0.7100   -0.1490 H   0  0  0  0  0  0  0  0  0  0  0  0
    7.4400   -0.0400    1.1420 H   0  0  0  0  0  0  0  0  0  0  0  0
   -0.0770    4.6540   -0.0740 N   0  0  0  0  0  0  0  0  0  0  0  0
    0.0440    3.7690    1.0190 C   0  0  0  0  0  0  0  0  0  0  0  0
    0.4080    4.2720    2.1340 O   0  0  0  0  0  0  0  0  0  0  0  0
   -0.2400    2.2970    0.8890 C   0  0  0  0  0  0  0  0  0  0  0  0
   -0.0230    1.6310    2.2250 C   0  0  0  0  0  0  0  0  0  0  0  0
   -0.2850    0.1620    2.2020 C   0  0  2  0  0  0  0  0  0  0  0  0
    0.5070   -0.6060    1.3180 N   0  0  0  0  0  0  0  0  0  0  0  0
   -1.7190   -0.1420    1.9460 C   0  0  0  0  0  0  0  0  0  0  0  0
   -2.6430    0.4100    2.6090 O   0  0  0  0  0  0  0  0  0  0  0  0
    0.5590    5.4610   -0.2300 H   0  0  0  0  0  0  0  0  0  0  0  0
   -0.8390    4.5010   -0.7640 H   0  0  0  0  0  0  0  0  0  0  0  0
    0.4260    1.9340    0.0880 H   0  0  0  0  0  0  0  0  0  0  0  0
   -1.2670    2.2090    0.5450 H   0  0  0  0  0  0  0  0  0  0  0  0
    0.9570    1.8230    2.6560 H   0  0  0  0  0  0  0  0  0  0  0  0
   -0.7720    2.0790    2.9200 H   0  0  0  0  0  0  0  0  0  0  0  0
   -0.0880   -0.2030    3.2510 H   0  0  0  0  0  0  0  0  0  0  0  0
    0.4300   -0.3880    0.2890 H   0  0  0  0  0  0  0  0  0  0  0  0
   -2.0780   -1.0720    0.9360 N   0  0  0  0  0  0  0  0  0  0  0  0
   -3.4530   -1.4290    0.6160 C   0  0  1  0  0  0  0  0  0  0  0  0
   -3.8380   -0.9720   -0.7560 C   0  0  0  0  0  0  0  0  0  0  0  0
   -3.0080   -1.5320   -1.8520 C   0  0  0  0  0  0  0  0  0  0  0  0
   -3.0110   -2.9860   -2.0010 C   0  0  0  0  0  0  0  0  0  0  0  0
   -4.0600   -3.6460   -2.1850 O   0  0  0  0  0  0  0  0  0  0  0  0
   -3.7530   -2.8320    0.9180 C   0  0  0  0  0  0  0  0  0  0  0  0
   -4.9060   -3.2990    0.7340 O   0  0  0  0  0  0  0  0  0  0  0  0
   -1.8140   -3.6840   -1.9380 O   0  0  0  0  0  0  0  0  0  0  0  0
   -2.8170   -3.7510    1.4210 O   0  0  0  0  0  0  0  0  0  0  0  0
   -1.3320   -1.5400    0.3780 H   0  0  0  0  0  0  0  0  0  0  0  0
   -4.0800   -0.8130    1.3270 H   0  0  0  0  0  0  0  0  0  0  0  0
   -4.9160   -1.2500   -0.8930 H   0  0  0  0  0  0  0  0  0  0  0  0
   -3.7790    0.1210   -0.7930 H   0  0  0  0  0  0  0  0  0  0  0  0
   -1.9660   -1.1160   -1.7870 H   0  0  0  0  0  0  0  0  0  0  0  0
   -3.3970   -1.0680   -2.8080 H   0  0  0  0  0  0  0  0  0  0  0  0
   -1.7440   -4.6000   -1.5000 H   0  0  0  0  0  0  0  0  0  0  0  0
  1  2  1  0  0  0  0
  2 12  1  1  0  0  0
  2  3  1  0  0  0  0
  2  7  1  0  0  0  0
  3 13  1  0  0  0  0
  4  3  1  0  0  0  0
  4  5  1  0  0  0  0
  4 15  1  0  0  0  0
  5  6  2  0  0  0  0
  7  8  2  0  0  0  0
  9 17  1  0  0  0  0
  9  5  1  0  0  0  0
 10  1  1  0  0  0  0
 11  1  1  0  0  0  0
 14  3  1  0  0  0  0
 16  4  1  0  0  0  0
 18 19  1  0  0  0  0
 19 20  2  0  0  0  0
 21 19  1  0  0  0  0
 21 22  1  0  0  0  0
 22 31  1  0  0  0  0
 22 32  1  0  0  0  0
 23 22  1  0  0  0  0
 23 33  1  1  0  0  0
 24  7  1  0  0  0  0
 24 23  1  0  0  0  0
 25 23  1  0  0  0  0
 25 26  2  0  0  0  0
 27 18  1  0  0  0  0
 28 18  1  0  0  0  0
 29 21  1  0  0  0  0
 30 21  1  0  0  0  0
 34 24  1  0  0  0  0
 35 25  1  0  0  0  0
 36 41  1  0  0  0  0
 36 35  1  0  0  0  0
 36 46  1  1  0  0  0
 37 36  1  0  0  0  0
 38 49  1  0  0  0  0
 38 37  1  0  0  0  0
 39 43  1  0  0  0  0
 39 38  1  0  0  0  0
 40 39  2  0  0  0  0
 41 44  1  0  0  0  0
 42 41  2  0  0  0  0
 43 51  1  0  0  0  0
 45 35  1  0  0  0  0
 47 37  1  0  0  0  0
 48 37  1  0  0  0  0
 50 38  1  0  0  0  0
M  END
$$$$
