EQH.pdb
 OpenBabel07022418183D

 52 52  0  0  1  0  0  0  0  0999 V2000
   -0.1370    3.0190    2.7380 N   0  0  0  0  0  0  0  0  0  0  0  0
    1.2190    2.4640    2.5130 C   0  0  1  0  0  0  0  0  0  0  0  0
    1.9570    2.4660    3.7970 C   0  0  0  0  0  0  0  0  0  0  0  0
    3.3400    1.9230    3.6580 C   0  0  0  0  0  0  0  0  0  0  0  0
    4.0750    1.9620    4.9730 C   0  0  0  0  0  0  0  0  0  0  0  0
    3.5300    2.4060    6.0030 O   0  0  0  0  0  0  0  0  0  0  0  0
    1.1540    1.2210    1.7620 C   0  0  0  0  0  0  0  0  0  0  0  0
    2.1970    0.6640    1.3600 O   0  0  0  0  0  0  0  0  0  0  0  0
    5.3680    1.5000    5.0320 O   0  0  0  0  0  0  0  0  0  0  0  0
   -0.4490    3.5860    1.9350 H   0  0  0  0  0  0  0  0  0  0  0  0
   -0.1420    3.6270    3.5890 H   0  0  0  0  0  0  0  0  0  0  0  0
    1.7050    3.2350    1.8440 H   0  0  0  0  0  0  0  0  0  0  0  0
    1.3980    2.0290    4.6490 H   0  0  0  0  0  0  0  0  0  0  0  0
    2.0740    3.5530    4.0920 H   0  0  0  0  0  0  0  0  0  0  0  0
    3.9510    2.4830    2.9240 H   0  0  0  0  0  0  0  0  0  0  0  0
    3.3390    0.8530    3.2890 H   0  0  0  0  0  0  0  0  0  0  0  0
    5.9520    1.5060    5.8450 H   0  0  0  0  0  0  0  0  0  0  0  0
   -3.1220   -1.0120    3.8810 N   0  0  0  0  0  0  0  0  0  0  0  0
   -1.8270   -1.1790    3.3350 C   0  0  0  0  0  0  0  0  0  0  0  0
   -0.8700   -0.5590    3.8420 O   0  0  0  0  0  0  0  0  0  0  0  0
   -1.6330   -2.0740    2.1970 C   0  0  0  0  0  0  0  0  0  0  0  0
   -0.3880   -1.9320    1.4210 C   0  0  0  0  0  0  0  0  0  0  0  0
   -0.1280   -0.6720    0.6900 C   0  0  2  0  0  0  0  0  0  0  0  0
   -0.0720    0.5440    1.4250 N   0  0  0  0  0  0  0  0  0  0  0  0
   -0.9490   -0.5480   -0.5590 C   0  0  0  0  0  0  0  0  0  0  0  0
   -1.4960    0.5780   -0.8230 O   0  0  0  0  0  0  0  0  0  0  0  0
   -3.3480   -0.1460    4.4030 H   0  0  0  0  0  0  0  0  0  0  0  0
   -3.8820   -1.7230    3.7880 H   0  0  0  0  0  0  0  0  0  0  0  0
   -1.6070   -3.1200    2.6410 H   0  0  0  0  0  0  0  0  0  0  0  0
   -2.5560   -2.1340    1.5440 H   0  0  0  0  0  0  0  0  0  0  0  0
    0.4640   -2.2050    2.1200 H   0  0  0  0  0  0  0  0  0  0  0  0
   -0.3610   -2.7670    0.6750 H   0  0  0  0  0  0  0  0  0  0  0  0
    0.9370   -0.8220    0.2780 H   0  0  0  0  0  0  0  0  0  0  0  0
   -0.9410    1.0570    1.7620 H   0  0  0  0  0  0  0  0  0  0  0  0
   -1.1600   -1.5910   -1.4680 N   0  0  0  0  0  0  0  0  0  0  0  0
   -1.9700   -1.3780   -2.6510 C   0  0  1  0  0  0  0  0  0  0  0  0
   -1.1690   -1.5770   -3.9230 C   0  0  0  0  0  0  0  0  0  0  0  0
   -0.6140   -2.9350   -4.0250 C   0  0  0  0  0  0  0  0  0  0  0  0
    0.6100   -3.3610   -3.5590 C   0  0  0  0  0  0  0  0  0  0  0  0
    0.7160   -4.6780   -3.8640 N   0  0  0  0  0  0  0  0  0  0  0  0
   -0.3970   -5.0830   -4.5000 C   0  0  0  0  0  0  0  0  0  0  0  0
   -1.1960   -3.9910   -4.5850 N   0  0  0  0  0  0  0  0  0  0  0  0
   -3.1400   -2.2650   -2.7010 C   0  0  0  0  0  0  0  0  0  0  0  0
   -3.9110   -2.1660   -3.6850 O   0  0  0  0  0  0  0  0  0  0  0  0
   -3.4490   -3.2050   -1.7320 O   0  0  0  0  0  0  0  0  0  0  0  0
   -0.7420   -2.5120   -1.3010 H   0  0  0  0  0  0  0  0  0  0  0  0
   -2.3440   -0.3260   -2.6770 H   0  0  0  0  0  0  0  0  0  0  0  0
   -1.8880   -1.4420   -4.7630 H   0  0  0  0  0  0  0  0  0  0  0  0
   -0.3910   -0.7890   -4.0490 H   0  0  0  0  0  0  0  0  0  0  0  0
    1.3460   -2.7720   -3.0520 H   0  0  0  0  0  0  0  0  0  0  0  0
    1.5390   -5.2860   -3.6370 H   0  0  0  0  0  0  0  0  0  0  0  0
   -0.5760   -6.0810   -4.8540 H   0  0  0  0  0  0  0  0  0  0  0  0
  1 11  1  0  0  0  0
  2 12  1  6  0  0  0
  2  1  1  0  0  0  0
  2  3  1  0  0  0  0
  3 14  1  0  0  0  0
  3 13  1  0  0  0  0
  4  3  1  0  0  0  0
  4  5  1  0  0  0  0
  5  9  1  0  0  0  0
  5  6  2  0  0  0  0
  7  2  1  0  0  0  0
  8  7  2  0  0  0  0
  9 17  1  0  0  0  0
 10  1  1  0  0  0  0
 15  4  1  0  0  0  0
 16  4  1  0  0  0  0
 18 27  1  0  0  0  0
 19 20  2  0  0  0  0
 19 18  1  0  0  0  0
 21 29  1  0  0  0  0
 21 19  1  0  0  0  0
 22 31  1  0  0  0  0
 22 21  1  0  0  0  0
 23 33  1  6  0  0  0
 23 22  1  0  0  0  0
 23 24  1  0  0  0  0
 24 34  1  0  0  0  0
 24  7  1  0  0  0  0
 25 23  1  0  0  0  0
 26 25  2  0  0  0  0
 28 18  1  0  0  0  0
 30 21  1  0  0  0  0
 32 22  1  0  0  0  0
 35 46  1  0  0  0  0
 35 25  1  0  0  0  0
 36 47  1  1  0  0  0
 36 35  1  0  0  0  0
 37 36  1  0  0  0  0
 38 37  1  0  0  0  0
 38 39  2  0  0  0  0
 39 50  1  0  0  0  0
 40 51  1  0  0  0  0
 40 39  1  0  0  0  0
 41 40  1  0  0  0  0
 42 41  2  0  0  0  0
 42 38  1  0  0  0  0
 43 36  1  0  0  0  0
 43 45  1  0  0  0  0
 44 43  2  0  0  0  0
 48 37  1  0  0  0  0
 49 37  1  0  0  0  0
 52 41  1  0  0  0  0
M  END
$$$$
