EQI.pdb
 OpenBabel07022418183D

 54 53  0  0  1  0  0  0  0  0999 V2000
    2.6360   -2.9230    2.5730 N   0  0  0  0  0  0  0  0  0  0  0  0
    2.2130   -1.7130    3.2940 C   0  0  1  0  0  0  0  0  0  0  0  0
    3.4430   -0.9440    3.7280 C   0  0  0  0  0  0  0  0  0  0  0  0
    4.3230   -1.7690    4.6410 C   0  0  0  0  0  0  0  0  0  0  0  0
    5.4980   -0.9560    5.0210 C   0  0  0  0  0  0  0  0  0  0  0  0
    6.3740   -1.4320    5.7790 O   0  0  0  0  0  0  0  0  0  0  0  0
    1.4940   -0.8600    2.3130 C   0  0  0  0  0  0  0  0  0  0  0  0
    1.0250    0.2530    2.6930 O   0  0  0  0  0  0  0  0  0  0  0  0
    5.6620    0.3370    4.5590 O   0  0  0  0  0  0  0  0  0  0  0  0
    2.9680   -3.6520    3.2180 H   0  0  0  0  0  0  0  0  0  0  0  0
    3.3990   -2.6520    1.9250 H   0  0  0  0  0  0  0  0  0  0  0  0
    1.5650   -1.9900    4.1510 H   0  0  0  0  0  0  0  0  0  0  0  0
    3.0980   -0.0390    4.2560 H   0  0  0  0  0  0  0  0  0  0  0  0
    4.0260   -0.7310    2.8110 H   0  0  0  0  0  0  0  0  0  0  0  0
    3.7730   -2.1510    5.5270 H   0  0  0  0  0  0  0  0  0  0  0  0
    4.6940   -2.6620    4.0900 H   0  0  0  0  0  0  0  0  0  0  0  0
    6.5530    0.7870    4.6890 H   0  0  0  0  0  0  0  0  0  0  0  0
   -0.5920    1.2550   -3.9230 N   0  0  0  0  0  0  0  0  0  0  0  0
    0.1770    0.3950   -3.1020 C   0  0  0  0  0  0  0  0  0  0  0  0
    0.0830   -0.8380   -3.2570 O   0  0  0  0  0  0  0  0  0  0  0  0
    1.0660    0.9590   -2.0990 C   0  0  0  0  0  0  0  0  0  0  0  0
    1.5460    0.1120   -1.0060 C   0  0  0  0  0  0  0  0  0  0  0  0
    0.5810   -0.3610   -0.0050 C   0  0  2  0  0  0  0  0  0  0  0  0
    1.3050   -1.2240    0.9760 N   0  0  0  0  0  0  0  0  0  0  0  0
   -0.6080   -1.1020   -0.3560 C   0  0  0  0  0  0  0  0  0  0  0  0
   -0.6570   -2.3710   -0.1310 O   0  0  0  0  0  0  0  0  0  0  0  0
   -0.9990    2.1070   -3.4990 H   0  0  0  0  0  0  0  0  0  0  0  0
   -0.7170    0.9920   -4.9200 H   0  0  0  0  0  0  0  0  0  0  0  0
    0.6480    1.9180   -1.6740 H   0  0  0  0  0  0  0  0  0  0  0  0
    1.9970    1.3420   -2.6440 H   0  0  0  0  0  0  0  0  0  0  0  0
    2.3000    0.7590   -0.4270 H   0  0  0  0  0  0  0  0  0  0  0  0
    2.1340   -0.7330   -1.4800 H   0  0  0  0  0  0  0  0  0  0  0  0
    0.2790    0.5560    0.6080 H   0  0  0  0  0  0  0  0  0  0  0  0
    1.6590   -2.1120    0.6010 H   0  0  0  0  0  0  0  0  0  0  0  0
   -3.8030    1.2440    0.3760 C   0  0  0  0  0  0  0  0  0  0  0  0
   -4.6140    0.1870   -0.2370 C   0  0  0  0  0  0  0  0  0  0  0  0
   -4.0980   -1.1920   -0.2380 C   0  0  2  0  0  0  0  0  0  0  0  0
   -3.8270   -1.8000    1.0880 C   0  0  0  0  0  0  0  0  0  0  0  0
   -2.9420   -1.4320   -1.2320 C   0  0  2  0  0  0  0  0  0  0  0  0
   -1.8210   -0.5930   -0.9440 N   0  0  0  0  0  0  0  0  0  0  0  0
   -3.4360   -1.4360   -2.6000 C   0  0  0  0  0  0  0  0  0  0  0  0
   -4.4350   -2.1980   -2.8460 O   0  0  0  0  0  0  0  0  0  0  0  0
   -2.9730   -0.7250   -3.6790 O   0  0  0  0  0  0  0  0  0  0  0  0
   -3.4630    1.9980   -0.3650 H   0  0  0  0  0  0  0  0  0  0  0  0
   -2.9130    0.9240    0.9430 H   0  0  0  0  0  0  0  0  0  0  0  0
   -4.4030    1.8510    1.1210 H   0  0  0  0  0  0  0  0  0  0  0  0
   -5.6290    0.1790    0.2380 H   0  0  0  0  0  0  0  0  0  0  0  0
   -4.8330    0.4590   -1.3130 H   0  0  0  0  0  0  0  0  0  0  0  0
   -4.9240   -1.8290   -0.6940 H   0  0  0  0  0  0  0  0  0  0  0  0
   -3.3090   -1.1570    1.8090 H   0  0  0  0  0  0  0  0  0  0  0  0
   -3.1780   -2.7010    0.9340 H   0  0  0  0  0  0  0  0  0  0  0  0
   -4.7530   -2.2040    1.5860 H   0  0  0  0  0  0  0  0  0  0  0  0
   -2.6560   -2.5010   -0.9890 H   0  0  0  0  0  0  0  0  0  0  0  0
   -1.8240    0.4320   -1.1300 H   0  0  0  0  0  0  0  0  0  0  0  0
  1 10  1  0  0  0  0
  1  2  1  0  0  0  0
  2  3  1  0  0  0  0
  2 12  1  1  0  0  0
  3 13  1  0  0  0  0
  3  4  1  0  0  0  0
  4  5  1  0  0  0  0
  4 15  1  0  0  0  0
  5  6  2  0  0  0  0
  7  8  2  0  0  0  0
  7  2  1  0  0  0  0
  9 17  1  0  0  0  0
  9  5  1  0  0  0  0
 11  1  1  0  0  0  0
 14  3  1  0  0  0  0
 16  4  1  0  0  0  0
 18 27  1  0  0  0  0
 18 19  1  0  0  0  0
 19 21  1  0  0  0  0
 20 19  2  0  0  0  0
 21 29  1  0  0  0  0
 21 22  1  0  0  0  0
 22 31  1  0  0  0  0
 22 23  1  0  0  0  0
 23 33  1  1  0  0  0
 23 24  1  0  0  0  0
 24  7  1  0  0  0  0
 25 26  2  0  0  0  0
 25 23  1  0  0  0  0
 28 18  1  0  0  0  0
 30 21  1  0  0  0  0
 32 22  1  0  0  0  0
 34 24  1  0  0  0  0
 35 45  1  0  0  0  0
 35 46  1  0  0  0  0
 36 47  1  0  0  0  0
 36 35  1  0  0  0  0
 37 49  1  6  0  0  0
 37 36  1  0  0  0  0
 37 38  1  0  0  0  0
 38 52  1  0  0  0  0
 38 50  1  0  0  0  0
 39 53  1  1  0  0  0
 39 40  1  0  0  0  0
 39 37  1  0  0  0  0
 40 25  1  0  0  0  0
 41 39  1  0  0  0  0
 42 41  1  0  0  0  0
 43 41  2  0  0  0  0
 44 35  1  0  0  0  0
 48 36  1  0  0  0  0
 51 38  1  0  0  0  0
 54 40  1  0  0  0  0
M  END
$$$$
