EQK.pdb
 OpenBabel07022418183D

 56 55  0  0  1  0  0  0  0  0999 V2000
    3.2730    2.2970   -1.3600 N   0  0  0  0  0  0  0  0  0  0  0  0
    3.5420    0.9500   -1.7190 C   0  0  1  0  0  0  0  0  0  0  0  0
    4.9690    0.5880   -1.4460 C   0  0  0  0  0  0  0  0  0  0  0  0
    5.3880    0.7100   -0.0140 C   0  0  0  0  0  0  0  0  0  0  0  0
    5.2400    2.0980    0.4570 C   0  0  0  0  0  0  0  0  0  0  0  0
    4.7880    2.3300    1.5920 O   0  0  0  0  0  0  0  0  0  0  0  0
    2.6520   -0.0470   -1.0340 C   0  0  0  0  0  0  0  0  0  0  0  0
    2.8250   -1.2890   -1.2490 O   0  0  0  0  0  0  0  0  0  0  0  0
    5.6030    3.1430   -0.3590 O   0  0  0  0  0  0  0  0  0  0  0  0
    2.9510    2.4950   -0.4160 H   0  0  0  0  0  0  0  0  0  0  0  0
    2.6200    2.7110   -2.0650 H   0  0  0  0  0  0  0  0  0  0  0  0
    3.3460    0.8140   -2.8280 H   0  0  0  0  0  0  0  0  0  0  0  0
    5.1110   -0.4560   -1.8170 H   0  0  0  0  0  0  0  0  0  0  0  0
    5.5930    1.2260   -2.1080 H   0  0  0  0  0  0  0  0  0  0  0  0
    4.7630    0.0430    0.6420 H   0  0  0  0  0  0  0  0  0  0  0  0
    6.4340    0.3510    0.1040 H   0  0  0  0  0  0  0  0  0  0  0  0
    5.8560    4.0510   -0.0140 H   0  0  0  0  0  0  0  0  0  0  0  0
   -0.2910    2.6120    3.1780 N   0  0  0  0  0  0  0  0  0  0  0  0
   -0.1860    1.2370    2.8040 C   0  0  0  0  0  0  0  0  0  0  0  0
   -1.2410    0.6140    2.6080 O   0  0  0  0  0  0  0  0  0  0  0  0
    1.1130    0.6020    2.6670 C   0  0  0  0  0  0  0  0  0  0  0  0
    1.1690   -0.6920    1.9370 C   0  0  0  0  0  0  0  0  0  0  0  0
    0.7610   -0.6810    0.5090 C   0  0  2  0  0  0  0  0  0  0  0  0
    1.6190    0.3050   -0.1520 N   0  0  0  0  0  0  0  0  0  0  0  0
   -0.6140   -0.4640    0.1480 C   0  0  0  0  0  0  0  0  0  0  0  0
   -0.9550    0.5920   -0.4500 O   0  0  0  0  0  0  0  0  0  0  0  0
   -1.1660    3.1210    3.0040 H   0  0  0  0  0  0  0  0  0  0  0  0
    0.5160    3.0720    3.6160 H   0  0  0  0  0  0  0  0  0  0  0  0
    1.5480    0.4750    3.7140 H   0  0  0  0  0  0  0  0  0  0  0  0
    1.8700    1.2990    2.1980 H   0  0  0  0  0  0  0  0  0  0  0  0
    0.6490   -1.5100    2.5150 H   0  0  0  0  0  0  0  0  0  0  0  0
    2.2580   -1.0200    1.9820 H   0  0  0  0  0  0  0  0  0  0  0  0
    1.1400   -1.6940    0.0930 H   0  0  0  0  0  0  0  0  0  0  0  0
    1.4320    1.3000    0.0550 H   0  0  0  0  0  0  0  0  0  0  0  0
   -1.6900   -1.3790    0.4040 N   0  0  0  0  0  0  0  0  0  0  0  0
   -3.0500   -1.1770    0.0430 C   0  0  1  0  0  0  0  0  0  0  0  0
   -3.5300   -1.9160   -1.1480 C   0  0  0  0  0  0  0  0  0  0  0  0
   -3.4520   -3.4090   -1.1110 C   0  0  0  0  0  0  0  0  0  0  0  0
   -4.2510   -4.0420   -0.0270 C   0  0  0  0  0  0  0  0  0  0  0  0
   -4.1480   -5.5580   -0.0440 C   0  0  0  0  0  0  0  0  0  0  0  0
   -4.9620   -6.0550    1.0500 N   0  0  0  0  0  0  0  0  0  0  0  0
   -3.9310   -1.2740    1.2120 C   0  0  0  0  0  0  0  0  0  0  0  0
   -3.4400   -1.4810    2.3480 O   0  0  0  0  0  0  0  0  0  0  0  0
   -5.3120   -1.1470    1.1430 O   0  0  0  0  0  0  0  0  0  0  0  0
   -1.4300   -2.2570    0.8970 H   0  0  0  0  0  0  0  0  0  0  0  0
   -3.0790   -0.0680   -0.2750 H   0  0  0  0  0  0  0  0  0  0  0  0
   -3.1440   -1.4950   -2.1130 H   0  0  0  0  0  0  0  0  0  0  0  0
   -4.6420   -1.6940   -1.2330 H   0  0  0  0  0  0  0  0  0  0  0  0
   -2.4140   -3.7940   -1.0190 H   0  0  0  0  0  0  0  0  0  0  0  0
   -3.8360   -3.8070   -2.0850 H   0  0  0  0  0  0  0  0  0  0  0  0
   -3.9950   -3.7190    0.9780 H   0  0  0  0  0  0  0  0  0  0  0  0
   -5.3340   -3.8030   -0.2030 H   0  0  0  0  0  0  0  0  0  0  0  0
   -3.1190   -5.9130    0.1250 H   0  0  0  0  0  0  0  0  0  0  0  0
   -4.6050   -5.9290   -0.9840 H   0  0  0  0  0  0  0  0  0  0  0  0
   -5.5590   -5.3050    1.4590 H   0  0  0  0  0  0  0  0  0  0  0  0
   -5.6460   -6.7960    0.7190 H   0  0  0  0  0  0  0  0  0  0  0  0
  1 10  1  0  0  0  0
  2 12  1  6  0  0  0
  2  3  1  0  0  0  0
  2  1  1  0  0  0  0
  2  7  1  0  0  0  0
  3  4  1  0  0  0  0
  4 16  1  0  0  0  0
  4  5  1  0  0  0  0
  4 15  1  0  0  0  0
  5  6  2  0  0  0  0
  7 24  1  0  0  0  0
  8  7  2  0  0  0  0
  9 17  1  0  0  0  0
  9  5  1  0  0  0  0
 11  1  1  0  0  0  0
 13  3  1  0  0  0  0
 14  3  1  0  0  0  0
 18 28  1  0  0  0  0
 19 18  1  0  0  0  0
 20 19  2  0  0  0  0
 21 19  1  0  0  0  0
 21 29  1  0  0  0  0
 22 32  1  0  0  0  0
 22 31  1  0  0  0  0
 22 21  1  0  0  0  0
 23 33  1  6  0  0  0
 23 22  1  0  0  0  0
 24 34  1  0  0  0  0
 24 23  1  0  0  0  0
 25 35  1  0  0  0  0
 25 23  1  0  0  0  0
 26 25  2  0  0  0  0
 27 18  1  0  0  0  0
 30 21  1  0  0  0  0
 35 45  1  0  0  0  0
 36 46  1  6  0  0  0
 36 35  1  0  0  0  0
 36 42  1  0  0  0  0
 37 38  1  0  0  0  0
 37 36  1  0  0  0  0
 38 49  1  0  0  0  0
 38 39  1  0  0  0  0
 39 51  1  0  0  0  0
 40 39  1  0  0  0  0
 40 53  1  0  0  0  0
 40 41  1  0  0  0  0
 41 55  1  0  0  0  0
 42 43  1  0  0  0  0
 44 42  2  0  0  0  0
 47 37  1  0  0  0  0
 48 37  1  0  0  0  0
 50 38  1  0  0  0  0
 52 39  1  0  0  0  0
 54 40  1  0  0  0  0
 56 41  1  0  0  0  0
M  END
$$$$
