EQL.pdb
 OpenBabel07022418183D

 54 53  0  0  1  0  0  0  0  0999 V2000
    2.1520   -2.9440    3.8710 N   0  0  0  0  0  0  0  0  0  0  0  0
    2.3400   -1.4880    4.1690 C   0  0  1  0  0  0  0  0  0  0  0  0
    3.8170   -1.3080    4.1670 C   0  0  0  0  0  0  0  0  0  0  0  0
    4.3870    0.0180    4.4510 C   0  0  0  0  0  0  0  0  0  0  0  0
    4.0560    1.1300    3.5790 C   0  0  0  0  0  0  0  0  0  0  0  0
    3.5580    2.1900    4.0440 O   0  0  0  0  0  0  0  0  0  0  0  0
    1.6380   -0.7750    3.0600 C   0  0  0  0  0  0  0  0  0  0  0  0
    1.3220    0.4330    3.1430 O   0  0  0  0  0  0  0  0  0  0  0  0
    4.2750    1.0610    2.2170 O   0  0  0  0  0  0  0  0  0  0  0  0
    2.3170   -3.4240    4.7800 H   0  0  0  0  0  0  0  0  0  0  0  0
    2.8540   -3.2060    3.1490 H   0  0  0  0  0  0  0  0  0  0  0  0
    1.8480   -1.2830    5.1310 H   0  0  0  0  0  0  0  0  0  0  0  0
    4.2670   -2.0300    4.9230 H   0  0  0  0  0  0  0  0  0  0  0  0
    4.2510   -1.6810    3.2010 H   0  0  0  0  0  0  0  0  0  0  0  0
    4.1790    0.2460    5.5390 H   0  0  0  0  0  0  0  0  0  0  0  0
    5.5140   -0.1020    4.4430 H   0  0  0  0  0  0  0  0  0  0  0  0
    4.3040    1.9450    1.6850 H   0  0  0  0  0  0  0  0  0  0  0  0
    1.5310    1.6410   -3.5290 N   0  0  0  0  0  0  0  0  0  0  0  0
    1.9370    0.8530   -2.4270 C   0  0  0  0  0  0  0  0  0  0  0  0
    3.1100    0.5100   -2.2800 O   0  0  0  0  0  0  0  0  0  0  0  0
    0.9210    0.4120   -1.3960 C   0  0  0  0  0  0  0  0  0  0  0  0
    1.6010   -0.3230   -0.2820 C   0  0  0  0  0  0  0  0  0  0  0  0
    0.5950   -0.6960    0.7900 C   0  0  2  0  0  0  0  0  0  0  0  0
    1.2900   -1.4200    1.8510 N   0  0  0  0  0  0  0  0  0  0  0  0
   -0.4510   -1.5720    0.2570 C   0  0  0  0  0  0  0  0  0  0  0  0
   -0.3880   -2.8150    0.5520 O   0  0  0  0  0  0  0  0  0  0  0  0
    1.6390    2.6900   -3.4330 H   0  0  0  0  0  0  0  0  0  0  0  0
    1.1530    1.2130   -4.3740 H   0  0  0  0  0  0  0  0  0  0  0  0
    0.3210    1.2700   -1.1190 H   0  0  0  0  0  0  0  0  0  0  0  0
    0.2500   -0.2960   -1.9840 H   0  0  0  0  0  0  0  0  0  0  0  0
    2.3500    0.3840    0.1580 H   0  0  0  0  0  0  0  0  0  0  0  0
    2.0640   -1.2230   -0.6980 H   0  0  0  0  0  0  0  0  0  0  0  0
    0.2130    0.2710    1.1710 H   0  0  0  0  0  0  0  0  0  0  0  0
    1.5080   -2.4090    1.6810 H   0  0  0  0  0  0  0  0  0  0  0  0
   -5.6460   -0.3080    0.2930 C   0  0  0  0  0  0  0  0  0  0  0  0
   -4.3440   -0.4450   -0.5120 C   0  0  0  0  0  0  0  0  0  0  0  0
   -4.6980   -0.0960   -1.9310 C   0  0  0  0  0  0  0  0  0  0  0  0
   -3.8210   -1.8270   -0.3230 C   0  0  0  0  0  0  0  0  0  0  0  0
   -2.5330   -2.1210   -1.0510 C   0  0  2  0  0  0  0  0  0  0  0  0
   -1.5400   -1.1940   -0.5540 N   0  0  0  0  0  0  0  0  0  0  0  0
   -2.6510   -2.1890   -2.5010 C   0  0  0  0  0  0  0  0  0  0  0  0
   -3.4700   -2.9580   -3.0530 O   0  0  0  0  0  0  0  0  0  0  0  0
   -1.8620   -1.4070   -3.3210 O   0  0  0  0  0  0  0  0  0  0  0  0
   -5.9120    0.7470    0.3700 H   0  0  0  0  0  0  0  0  0  0  0  0
   -5.5850   -0.8330    1.2480 H   0  0  0  0  0  0  0  0  0  0  0  0
   -6.4290   -0.7610   -0.3800 H   0  0  0  0  0  0  0  0  0  0  0  0
   -3.6610    0.3140   -0.0940 H   0  0  0  0  0  0  0  0  0  0  0  0
   -5.1950   -0.9220   -2.4660 H   0  0  0  0  0  0  0  0  0  0  0  0
   -5.4580    0.7420   -1.9560 H   0  0  0  0  0  0  0  0  0  0  0  0
   -3.8170    0.3240   -2.4580 H   0  0  0  0  0  0  0  0  0  0  0  0
   -4.5740   -2.5720   -0.6700 H   0  0  0  0  0  0  0  0  0  0  0  0
   -3.6690   -2.0130    0.7670 H   0  0  0  0  0  0  0  0  0  0  0  0
   -2.1820   -3.1380   -0.6880 H   0  0  0  0  0  0  0  0  0  0  0  0
   -1.6610   -0.1940   -0.7930 H   0  0  0  0  0  0  0  0  0  0  0  0
  1  2  1  0  0  0  0
  1 10  1  0  0  0  0
  2 12  1  1  0  0  0
  3  2  1  0  0  0  0
  3  4  1  0  0  0  0
  3 13  1  0  0  0  0
  4 15  1  0  0  0  0
  5  6  2  0  0  0  0
  5  4  1  0  0  0  0
  7  8  2  0  0  0  0
  7  2  1  0  0  0  0
  9  5  1  0  0  0  0
 11  1  1  0  0  0  0
 14  3  1  0  0  0  0
 16  4  1  0  0  0  0
 17  9  1  0  0  0  0
 18 27  1  0  0  0  0
 18 19  1  0  0  0  0
 19 20  2  0  0  0  0
 19 21  1  0  0  0  0
 21 29  1  0  0  0  0
 21 22  1  0  0  0  0
 22 31  1  0  0  0  0
 22 23  1  0  0  0  0
 23 33  1  1  0  0  0
 23 24  1  0  0  0  0
 24  7  1  0  0  0  0
 25 26  2  0  0  0  0
 25 23  1  0  0  0  0
 28 18  1  0  0  0  0
 30 21  1  0  0  0  0
 32 22  1  0  0  0  0
 34 24  1  0  0  0  0
 35 44  1  0  0  0  0
 35 45  1  0  0  0  0
 36 38  1  0  0  0  0
 36 47  1  0  0  0  0
 36 35  1  0  0  0  0
 37 36  1  0  0  0  0
 38 52  1  0  0  0  0
 39 53  1  1  0  0  0
 39 40  1  0  0  0  0
 39 38  1  0  0  0  0
 40 25  1  0  0  0  0
 41 39  1  0  0  0  0
 42 41  1  0  0  0  0
 43 41  2  0  0  0  0
 46 35  1  0  0  0  0
 48 37  1  0  0  0  0
 49 37  1  0  0  0  0
 50 37  1  0  0  0  0
 51 38  1  0  0  0  0
 54 40  1  0  0  0  0
M  END
$$$$
