EQM.pdb
 OpenBabel07022418183D

 52 51  0  0  1  0  0  0  0  0999 V2000
    2.5570   -1.3820    4.7180 N   0  0  0  0  0  0  0  0  0  0  0  0
    2.3160   -1.1490    3.3120 C   0  0  1  0  0  0  0  0  0  0  0  0
    2.1790   -2.3990    2.4990 C   0  0  0  0  0  0  0  0  0  0  0  0
    3.4060   -3.2760    2.5470 C   0  0  0  0  0  0  0  0  0  0  0  0
    4.5540   -2.5000    2.0200 C   0  0  0  0  0  0  0  0  0  0  0  0
    5.1820   -1.6810    2.7520 O   0  0  0  0  0  0  0  0  0  0  0  0
    1.1000   -0.3080    3.1030 C   0  0  0  0  0  0  0  0  0  0  0  0
    0.4520    0.1500    4.1020 O   0  0  0  0  0  0  0  0  0  0  0  0
    4.9640   -2.6560    0.7060 O   0  0  0  0  0  0  0  0  0  0  0  0
    2.1910   -2.3320    4.9410 H   0  0  0  0  0  0  0  0  0  0  0  0
    2.1590   -0.6380    5.3230 H   0  0  0  0  0  0  0  0  0  0  0  0
    3.1780   -0.5150    2.9600 H   0  0  0  0  0  0  0  0  0  0  0  0
    1.9460   -2.0890    1.4590 H   0  0  0  0  0  0  0  0  0  0  0  0
    1.2730   -2.9320    2.8630 H   0  0  0  0  0  0  0  0  0  0  0  0
    3.5760   -3.7330    3.5210 H   0  0  0  0  0  0  0  0  0  0  0  0
    3.2010   -4.1190    1.8220 H   0  0  0  0  0  0  0  0  0  0  0  0
    5.8500   -2.2400    0.3740 H   0  0  0  0  0  0  0  0  0  0  0  0
   -1.4820    5.2910   -0.6610 N   0  0  0  0  0  0  0  0  0  0  0  0
   -0.7200    4.1570   -0.3020 C   0  0  0  0  0  0  0  0  0  0  0  0
    0.4550    4.0600   -0.7190 O   0  0  0  0  0  0  0  0  0  0  0  0
   -1.2430    3.0500    0.5590 C   0  0  0  0  0  0  0  0  0  0  0  0
   -0.1960    2.0310    0.8400 C   0  0  0  0  0  0  0  0  0  0  0  0
   -0.6240    0.8790    1.7030 C   0  0  2  0  0  0  0  0  0  0  0  0
    0.5880    0.0360    1.8300 N   0  0  0  0  0  0  0  0  0  0  0  0
   -1.6590    0.0730    1.0320 C   0  0  0  0  0  0  0  0  0  0  0  0
   -2.7930    0.5560    0.8400 O   0  0  0  0  0  0  0  0  0  0  0  0
   -1.0430    6.2310   -0.5490 H   0  0  0  0  0  0  0  0  0  0  0  0
   -2.4570    5.2640   -1.0310 H   0  0  0  0  0  0  0  0  0  0  0  0
   -2.1390    2.6340    0.1060 H   0  0  0  0  0  0  0  0  0  0  0  0
   -1.5420    3.5490    1.5190 H   0  0  0  0  0  0  0  0  0  0  0  0
    0.1230    1.5750   -0.1440 H   0  0  0  0  0  0  0  0  0  0  0  0
    0.7450    2.4710    1.2510 H   0  0  0  0  0  0  0  0  0  0  0  0
   -0.9480    1.1890    2.7230 H   0  0  0  0  0  0  0  0  0  0  0  0
    1.0800   -0.3120    0.9830 H   0  0  0  0  0  0  0  0  0  0  0  0
   -2.5640   -2.3500   -4.8190 C   0  0  0  0  0  0  0  0  0  0  0  0
   -1.2560   -1.4750   -3.9430 S   0  0  0  0  0  0  0  0  0  0  0  0
   -1.7720   -1.0570   -2.2370 C   0  0  0  0  0  0  0  0  0  0  0  0
   -1.9310   -2.3640   -1.4860 C   0  0  0  0  0  0  0  0  0  0  0  0
   -2.3650   -2.0510   -0.0490 C   0  0  2  0  0  0  0  0  0  0  0  0
   -1.3740   -1.2380    0.6070 N   0  0  0  0  0  0  0  0  0  0  0  0
   -2.5700   -3.3220    0.6700 C   0  0  0  0  0  0  0  0  0  0  0  0
   -3.4160   -4.1480    0.2150 O   0  0  0  0  0  0  0  0  0  0  0  0
   -1.8880   -3.6640    1.8190 O   0  0  0  0  0  0  0  0  0  0  0  0
   -3.5320   -1.9310   -4.5150 H   0  0  0  0  0  0  0  0  0  0  0  0
   -2.4500   -2.1990   -5.9200 H   0  0  0  0  0  0  0  0  0  0  0  0
   -2.4860   -3.4370   -4.5510 H   0  0  0  0  0  0  0  0  0  0  0  0
   -0.9660   -0.4490   -1.8030 H   0  0  0  0  0  0  0  0  0  0  0  0
   -2.7590   -0.5610   -2.2440 H   0  0  0  0  0  0  0  0  0  0  0  0
   -1.0000   -2.9630   -1.4880 H   0  0  0  0  0  0  0  0  0  0  0  0
   -2.7740   -2.9080   -1.9570 H   0  0  0  0  0  0  0  0  0  0  0  0
   -3.3380   -1.5340   -0.1390 H   0  0  0  0  0  0  0  0  0  0  0  0
   -0.4240   -1.6900    0.7470 H   0  0  0  0  0  0  0  0  0  0  0  0
  1 10  1  0  0  0  0
  1 11  1  0  0  0  0
  2 12  1  6  0  0  0
  2  1  1  0  0  0  0
  3  4  1  0  0  0  0
  3 14  1  0  0  0  0
  3  2  1  0  0  0  0
  4 15  1  0  0  0  0
  5  4  1  0  0  0  0
  5  6  2  0  0  0  0
  7  2  1  0  0  0  0
  7  8  2  0  0  0  0
  9  5  1  0  0  0  0
 13  3  1  0  0  0  0
 16  4  1  0  0  0  0
 17  9  1  0  0  0  0
 18 27  1  0  0  0  0
 18 19  1  0  0  0  0
 19 21  1  0  0  0  0
 20 19  2  0  0  0  0
 21 22  1  0  0  0  0
 21 30  1  0  0  0  0
 22 32  1  0  0  0  0
 22 23  1  0  0  0  0
 23 24  1  0  0  0  0
 23 33  1  1  0  0  0
 24  7  1  0  0  0  0
 25 23  1  0  0  0  0
 26 25  2  0  0  0  0
 28 18  1  0  0  0  0
 29 21  1  0  0  0  0
 31 22  1  0  0  0  0
 34 24  1  0  0  0  0
 35 46  1  0  0  0  0
 35 44  1  0  0  0  0
 35 36  1  0  0  0  0
 36 37  1  0  0  0  0
 37 47  1  0  0  0  0
 37 38  1  0  0  0  0
 38 39  1  0  0  0  0
 39 51  1  6  0  0  0
 39 40  1  0  0  0  0
 39 41  1  0  0  0  0
 40 52  1  0  0  0  0
 40 25  1  0  0  0  0
 41 43  1  0  0  0  0
 42 41  2  0  0  0  0
 45 35  1  0  0  0  0
 48 37  1  0  0  0  0
 49 38  1  0  0  0  0
 50 38  1  0  0  0  0
M  END
$$$$
