EQN.pdb
 OpenBabel07022418183D

 49 48  0  0  1  0  0  0  0  0999 V2000
    1.3690   -2.5310   -1.1670 N   0  0  0  0  0  0  0  0  0  0  0  0
    2.3010   -2.3300   -0.0410 C   0  0  1  0  0  0  0  0  0  0  0  0
    3.6260   -2.0010   -0.6800 C   0  0  0  0  0  0  0  0  0  0  0  0
    4.7420   -1.7540    0.2760 C   0  0  0  0  0  0  0  0  0  0  0  0
    5.0700   -2.8750    1.1550 C   0  0  0  0  0  0  0  0  0  0  0  0
    4.4430   -3.9540    1.0570 O   0  0  0  0  0  0  0  0  0  0  0  0
    1.7910   -1.1090    0.6780 C   0  0  0  0  0  0  0  0  0  0  0  0
    2.3670   -0.6790    1.7140 O   0  0  0  0  0  0  0  0  0  0  0  0
    6.0670   -2.7880    2.1100 O   0  0  0  0  0  0  0  0  0  0  0  0
    1.4050   -3.5100   -1.4880 H   0  0  0  0  0  0  0  0  0  0  0  0
    1.6280   -1.8720   -1.9240 H   0  0  0  0  0  0  0  0  0  0  0  0
    2.3060   -3.1880    0.6280 H   0  0  0  0  0  0  0  0  0  0  0  0
    3.9060   -2.8170   -1.4040 H   0  0  0  0  0  0  0  0  0  0  0  0
    3.4510   -1.1080   -1.3230 H   0  0  0  0  0  0  0  0  0  0  0  0
    5.6670   -1.4630   -0.3070 H   0  0  0  0  0  0  0  0  0  0  0  0
    4.5250   -0.8280    0.8740 H   0  0  0  0  0  0  0  0  0  0  0  0
    6.1720   -3.5540    2.7870 H   0  0  0  0  0  0  0  0  0  0  0  0
   -0.5510    5.7120    0.5210 N   0  0  0  0  0  0  0  0  0  0  0  0
   -0.1640    4.4560    0.0180 C   0  0  0  0  0  0  0  0  0  0  0  0
    0.2360    4.3860   -1.1740 O   0  0  0  0  0  0  0  0  0  0  0  0
   -0.2270    3.2260    0.8810 C   0  0  0  0  0  0  0  0  0  0  0  0
    0.2280    2.0150    0.1380 C   0  0  0  0  0  0  0  0  0  0  0  0
    0.2040    0.7890    0.9720 C   0  0  2  0  0  0  0  0  0  0  0  0
    0.6560   -0.3850    0.2420 N   0  0  0  0  0  0  0  0  0  0  0  0
   -1.1170    0.4310    1.5280 C   0  0  0  0  0  0  0  0  0  0  0  0
   -1.7250    1.2370    2.2620 O   0  0  0  0  0  0  0  0  0  0  0  0
   -1.5660    5.9420    0.5960 H   0  0  0  0  0  0  0  0  0  0  0  0
    0.1360    6.4360    0.8280 H   0  0  0  0  0  0  0  0  0  0  0  0
   -1.2850    3.1640    1.2120 H   0  0  0  0  0  0  0  0  0  0  0  0
    0.3800    3.4530    1.7770 H   0  0  0  0  0  0  0  0  0  0  0  0
    1.3040    2.2130   -0.1500 H   0  0  0  0  0  0  0  0  0  0  0  0
   -0.3750    1.8320   -0.7850 H   0  0  0  0  0  0  0  0  0  0  0  0
    0.9080    0.9560    1.8290 H   0  0  0  0  0  0  0  0  0  0  0  0
    0.1320   -0.6820   -0.6080 H   0  0  0  0  0  0  0  0  0  0  0  0
   -4.5930   -3.0610   -1.1450 N   0  0  0  0  0  0  0  0  0  0  0  0
   -3.7000   -2.6530   -0.1310 C   0  0  0  0  0  0  0  0  0  0  0  0
   -2.6120   -3.2490   -0.0020 O   0  0  0  0  0  0  0  0  0  0  0  0
   -4.0460   -1.5470    0.7550 C   0  0  0  0  0  0  0  0  0  0  0  0
   -3.0240   -1.2020    1.7800 C   0  0  2  0  0  0  0  0  0  0  0  0
   -1.7500   -0.8090    1.2680 N   0  0  0  0  0  0  0  0  0  0  0  0
   -2.8040   -2.3940    2.6590 C   0  0  0  0  0  0  0  0  0  0  0  0
   -3.7650   -2.9550    3.2490 O   0  0  0  0  0  0  0  0  0  0  0  0
   -1.5360   -2.9350    2.8650 O   0  0  0  0  0  0  0  0  0  0  0  0
   -4.4410   -2.7080   -2.1160 H   0  0  0  0  0  0  0  0  0  0  0  0
   -5.3750   -3.7000   -0.8960 H   0  0  0  0  0  0  0  0  0  0  0  0
   -4.3610   -0.6250    0.2110 H   0  0  0  0  0  0  0  0  0  0  0  0
   -4.9730   -1.8570    1.3220 H   0  0  0  0  0  0  0  0  0  0  0  0
   -3.4720   -0.4110    2.4350 H   0  0  0  0  0  0  0  0  0  0  0  0
   -1.2420   -1.4820    0.6550 H   0  0  0  0  0  0  0  0  0  0  0  0
  1  2  1  0  0  0  0
  2 12  1  1  0  0  0
  2  7  1  0  0  0  0
  3  2  1  0  0  0  0
  3  4  1  0  0  0  0
  4 16  1  0  0  0  0
  4  5  1  0  0  0  0
  5  9  1  0  0  0  0
  6  5  2  0  0  0  0
  7  8  2  0  0  0  0
  9 17  1  0  0  0  0
 10  1  1  0  0  0  0
 11  1  1  0  0  0  0
 13  3  1  0  0  0  0
 14  3  1  0  0  0  0
 15  4  1  0  0  0  0
 18 27  1  0  0  0  0
 18 28  1  0  0  0  0
 19 18  1  0  0  0  0
 19 21  1  0  0  0  0
 20 19  2  0  0  0  0
 21 29  1  0  0  0  0
 21 30  1  0  0  0  0
 22 21  1  0  0  0  0
 22 23  1  0  0  0  0
 23 25  1  0  0  0  0
 23 33  1  1  0  0  0
 24  7  1  0  0  0  0
 24 23  1  0  0  0  0
 25 26  2  0  0  0  0
 31 22  1  0  0  0  0
 32 22  1  0  0  0  0
 34 24  1  0  0  0  0
 35 45  1  0  0  0  0
 35 36  1  0  0  0  0
 36 37  2  0  0  0  0
 36 38  1  0  0  0  0
 38 47  1  0  0  0  0
 38 39  1  0  0  0  0
 39 48  1  1  0  0  0
 39 41  1  0  0  0  0
 40 25  1  0  0  0  0
 40 39  1  0  0  0  0
 41 43  2  0  0  0  0
 41 42  1  0  0  0  0
 44 35  1  0  0  0  0
 46 38  1  0  0  0  0
 49 40  1  0  0  0  0
M  END
$$$$
