EQP.pdb
 OpenBabel07022418183D

 49 49  0  0  1  0  0  0  0  0999 V2000
    3.8250   -2.4780    1.7670 N   0  0  0  0  0  0  0  0  0  0  0  0
    2.4790   -2.4810    2.3150 C   0  0  1  0  0  0  0  0  0  0  0  0
    2.3930   -2.0700    3.7430 C   0  0  0  0  0  0  0  0  0  0  0  0
    0.9740   -2.1320    4.2220 C   0  0  0  0  0  0  0  0  0  0  0  0
    0.9310   -1.7060    5.6430 C   0  0  0  0  0  0  0  0  0  0  0  0
    1.9950   -1.3770    6.2100 O   0  0  0  0  0  0  0  0  0  0  0  0
    1.5870   -1.6890    1.4060 C   0  0  0  0  0  0  0  0  0  0  0  0
    1.2110   -2.2620    0.3680 O   0  0  0  0  0  0  0  0  0  0  0  0
   -0.2680   -1.6660    6.3530 O   0  0  0  0  0  0  0  0  0  0  0  0
    3.9770   -3.3130    1.1540 H   0  0  0  0  0  0  0  0  0  0  0  0
    4.5000   -2.5290    2.5450 H   0  0  0  0  0  0  0  0  0  0  0  0
    2.1200   -3.5300    2.2580 H   0  0  0  0  0  0  0  0  0  0  0  0
    2.9570   -2.8380    4.3310 H   0  0  0  0  0  0  0  0  0  0  0  0
    2.8640   -1.0960    3.8840 H   0  0  0  0  0  0  0  0  0  0  0  0
    0.5840   -3.1840    4.1940 H   0  0  0  0  0  0  0  0  0  0  0  0
    0.2520   -1.5400    3.6410 H   0  0  0  0  0  0  0  0  0  0  0  0
   -0.2850   -1.0180    7.1400 H   0  0  0  0  0  0  0  0  0  0  0  0
    3.2220    0.6350   -3.3830 N   0  0  0  0  0  0  0  0  0  0  0  0
    2.3890    1.0890   -2.3410 C   0  0  0  0  0  0  0  0  0  0  0  0
    2.1200    2.3100   -2.2730 O   0  0  0  0  0  0  0  0  0  0  0  0
    1.8110    0.1840   -1.3120 C   0  0  0  0  0  0  0  0  0  0  0  0
    0.9910    0.9740   -0.3720 C   0  0  0  0  0  0  0  0  0  0  0  0
    0.2970    0.3120    0.7350 C   0  0  2  0  0  0  0  0  0  0  0  0
    1.1710   -0.3860    1.6530 N   0  0  0  0  0  0  0  0  0  0  0  0
   -0.9630   -0.4020    0.4580 C   0  0  0  0  0  0  0  0  0  0  0  0
   -1.1220   -1.5830    0.9750 O   0  0  0  0  0  0  0  0  0  0  0  0
    4.2260    0.4270   -3.1860 H   0  0  0  0  0  0  0  0  0  0  0  0
    2.8730    0.4970   -4.3540 H   0  0  0  0  0  0  0  0  0  0  0  0
    2.6740   -0.3420   -0.8710 H   0  0  0  0  0  0  0  0  0  0  0  0
    1.2190   -0.5660   -1.8750 H   0  0  0  0  0  0  0  0  0  0  0  0
    1.6900    1.7340    0.1120 H   0  0  0  0  0  0  0  0  0  0  0  0
    0.3190    1.6000   -0.9750 H   0  0  0  0  0  0  0  0  0  0  0  0
   -0.0790    1.1780    1.3810 H   0  0  0  0  0  0  0  0  0  0  0  0
    1.5450    0.0690    2.5490 H   0  0  0  0  0  0  0  0  0  0  0  0
   -2.0610    0.0110   -0.3060 N   0  0  0  0  0  0  0  0  0  0  0  0
   -2.2330    1.2630   -0.9550 C   0  0  0  0  0  0  0  0  0  0  0  0
   -3.7370    1.4530   -1.0440 C   0  0  0  0  0  0  0  0  0  0  0  0
   -4.3950    0.1870   -0.5960 C   0  0  0  0  0  0  0  0  0  0  0  0
   -3.2350   -0.7700   -0.6050 C   0  0  1  0  0  0  0  0  0  0  0  0
   -3.1220   -1.5300   -1.8550 C   0  0  0  0  0  0  0  0  0  0  0  0
   -4.0490   -2.2640   -2.2710 O   0  0  0  0  0  0  0  0  0  0  0  0
   -1.9670   -1.4520   -2.6170 O   0  0  0  0  0  0  0  0  0  0  0  0
   -1.7960    1.2630   -1.9820 H   0  0  0  0  0  0  0  0  0  0  0  0
   -1.8240    2.1240   -0.3660 H   0  0  0  0  0  0  0  0  0  0  0  0
   -4.0440    1.6570   -2.0930 H   0  0  0  0  0  0  0  0  0  0  0  0
   -4.0630    2.2890   -0.3860 H   0  0  0  0  0  0  0  0  0  0  0  0
   -5.1780   -0.1780   -1.2930 H   0  0  0  0  0  0  0  0  0  0  0  0
   -4.8260    0.2280    0.4090 H   0  0  0  0  0  0  0  0  0  0  0  0
   -3.4260   -1.5330    0.2070 H   0  0  0  0  0  0  0  0  0  0  0  0
  1  2  1  0  0  0  0
  1 11  1  0  0  0  0
  2 12  1  6  0  0  0
  2  3  1  0  0  0  0
  3 14  1  0  0  0  0
  3  4  1  0  0  0  0
  3 13  1  0  0  0  0
  4  5  1  0  0  0  0
  5  6  2  0  0  0  0
  5  9  1  0  0  0  0
  7 24  1  0  0  0  0
  7  2  1  0  0  0  0
  8  7  2  0  0  0  0
  9 17  1  0  0  0  0
 10  1  1  0  0  0  0
 15  4  1  0  0  0  0
 16  4  1  0  0  0  0
 18 27  1  0  0  0  0
 18 19  1  0  0  0  0
 19 20  2  0  0  0  0
 19 21  1  0  0  0  0
 21 29  1  0  0  0  0
 21 22  1  0  0  0  0
 22 31  1  0  0  0  0
 22 23  1  0  0  0  0
 23 33  1  1  0  0  0
 23 24  1  0  0  0  0
 24 34  1  0  0  0  0
 25 23  1  0  0  0  0
 25 26  2  0  0  0  0
 28 18  1  0  0  0  0
 30 21  1  0  0  0  0
 32 22  1  0  0  0  0
 35 25  1  0  0  0  0
 36 44  1  0  0  0  0
 36 35  1  0  0  0  0
 37 36  1  0  0  0  0
 37 38  1  0  0  0  0
 37 46  1  0  0  0  0
 38 48  1  0  0  0  0
 39 38  1  0  0  0  0
 39 35  1  0  0  0  0
 39 49  1  1  0  0  0
 40 39  1  0  0  0  0
 41 40  1  0  0  0  0
 42 40  2  0  0  0  0
 43 36  1  0  0  0  0
 45 37  1  0  0  0  0
 47 38  1  0  0  0  0
M  END
$$$$
