EQV.pdb
 OpenBabel07022418183D

 51 50  0  0  1  0  0  0  0  0999 V2000
    4.5120   -2.7780    1.9270 N   0  0  0  0  0  0  0  0  0  0  0  0
    3.2480   -3.1810    1.3500 C   0  0  1  0  0  0  0  0  0  0  0  0
    2.4340   -3.8340    2.4510 C   0  0  0  0  0  0  0  0  0  0  0  0
    2.1800   -2.9140    3.5940 C   0  0  0  0  0  0  0  0  0  0  0  0
    3.3920   -2.4530    4.2770 C   0  0  0  0  0  0  0  0  0  0  0  0
    4.2670   -3.2860    4.6210 O   0  0  0  0  0  0  0  0  0  0  0  0
    2.5680   -1.9830    0.8130 C   0  0  0  0  0  0  0  0  0  0  0  0
    3.0790   -0.8140    0.9230 O   0  0  0  0  0  0  0  0  0  0  0  0
    3.6380   -1.1100    4.5720 O   0  0  0  0  0  0  0  0  0  0  0  0
    4.9930   -2.0190    1.3890 H   0  0  0  0  0  0  0  0  0  0  0  0
    5.1780   -3.5750    2.0670 H   0  0  0  0  0  0  0  0  0  0  0  0
    3.4840   -3.9310    0.5760 H   0  0  0  0  0  0  0  0  0  0  0  0
    2.9680   -4.7370    2.8000 H   0  0  0  0  0  0  0  0  0  0  0  0
    1.4510   -4.1680    2.0290 H   0  0  0  0  0  0  0  0  0  0  0  0
    1.4730   -3.4430    4.3070 H   0  0  0  0  0  0  0  0  0  0  0  0
    1.6310   -2.0330    3.2550 H   0  0  0  0  0  0  0  0  0  0  0  0
    4.4730   -0.7930    5.0890 H   0  0  0  0  0  0  0  0  0  0  0  0
    0.2230    2.6730   -3.1370 N   0  0  0  0  0  0  0  0  0  0  0  0
    0.7020    1.5070   -2.4420 C   0  0  0  0  0  0  0  0  0  0  0  0
    1.7270    1.6320   -1.7380 O   0  0  0  0  0  0  0  0  0  0  0  0
   -0.0040    0.2200   -2.5710 C   0  0  0  0  0  0  0  0  0  0  0  0
    0.6000   -0.9370   -1.8750 C   0  0  0  0  0  0  0  0  0  0  0  0
    0.6800   -0.7780   -0.3800 C   0  0  2  0  0  0  0  0  0  0  0  0
    1.3200   -2.0270    0.1480 N   0  0  0  0  0  0  0  0  0  0  0  0
   -0.6400   -0.6380    0.2840 C   0  0  0  0  0  0  0  0  0  0  0  0
   -1.1500   -1.6660    0.8240 O   0  0  0  0  0  0  0  0  0  0  0  0
   -0.4940    3.2790   -2.7300 H   0  0  0  0  0  0  0  0  0  0  0  0
    0.6200    2.8960   -4.0810 H   0  0  0  0  0  0  0  0  0  0  0  0
   -0.2190   -0.0060   -3.6560 H   0  0  0  0  0  0  0  0  0  0  0  0
   -1.0450    0.3750   -2.1600 H   0  0  0  0  0  0  0  0  0  0  0  0
   -0.0580   -1.8280   -2.1200 H   0  0  0  0  0  0  0  0  0  0  0  0
    1.6070   -1.1940   -2.2860 H   0  0  0  0  0  0  0  0  0  0  0  0
    1.3450    0.0490   -0.1390 H   0  0  0  0  0  0  0  0  0  0  0  0
    0.8100   -2.9050    0.0000 H   0  0  0  0  0  0  0  0  0  0  0  0
   -5.1140    0.7190    0.7540 C   0  0  0  0  0  0  0  0  0  0  0  0
   -3.7930    0.4870    0.0630 C   0  0  0  0  0  0  0  0  0  0  0  0
   -3.7310    1.2420   -1.2260 C   0  0  0  0  0  0  0  0  0  0  0  0
   -2.6380    0.7840    0.9750 C   0  0  2  0  0  0  0  0  0  0  0  0
   -1.3630    0.5820    0.3510 N   0  0  0  0  0  0  0  0  0  0  0  0
   -2.7710    0.1940    2.3280 C   0  0  0  0  0  0  0  0  0  0  0  0
   -3.8650    0.2330    2.9670 O   0  0  0  0  0  0  0  0  0  0  0  0
   -1.7030   -0.4160    2.9350 O   0  0  0  0  0  0  0  0  0  0  0  0
   -5.0310    1.5800    1.4710 H   0  0  0  0  0  0  0  0  0  0  0  0
   -5.8770    1.0540    0.0010 H   0  0  0  0  0  0  0  0  0  0  0  0
   -5.4820   -0.1410    1.3340 H   0  0  0  0  0  0  0  0  0  0  0  0
   -3.7390   -0.6060   -0.2030 H   0  0  0  0  0  0  0  0  0  0  0  0
   -4.7180    1.7070   -1.4130 H   0  0  0  0  0  0  0  0  0  0  0  0
   -2.9680    2.0550   -1.1900 H   0  0  0  0  0  0  0  0  0  0  0  0
   -3.4990    0.5650   -2.0760 H   0  0  0  0  0  0  0  0  0  0  0  0
   -2.6780    1.9120    1.1830 H   0  0  0  0  0  0  0  0  0  0  0  0
   -0.8540    1.4040   -0.0970 H   0  0  0  0  0  0  0  0  0  0  0  0
  1 11  1  0  0  0  0
  2 12  1  6  0  0  0
  2  1  1  0  0  0  0
  2  3  1  0  0  0  0
  3 13  1  0  0  0  0
  3  4  1  0  0  0  0
  4  5  1  0  0  0  0
  4 15  1  0  0  0  0
  5  9  1  0  0  0  0
  5  6  2  0  0  0  0
  7  8  2  0  0  0  0
  7  2  1  0  0  0  0
  9 17  1  0  0  0  0
 10  1  1  0  0  0  0
 14  3  1  0  0  0  0
 16  4  1  0  0  0  0
 18 27  1  0  0  0  0
 18 19  1  0  0  0  0
 19 20  2  0  0  0  0
 21 19  1  0  0  0  0
 21 30  1  0  0  0  0
 21 22  1  0  0  0  0
 22 23  1  0  0  0  0
 23 33  1  1  0  0  0
 23 24  1  0  0  0  0
 23 25  1  0  0  0  0
 24  7  1  0  0  0  0
 25 39  1  0  0  0  0
 25 26  2  0  0  0  0
 28 18  1  0  0  0  0
 29 21  1  0  0  0  0
 31 22  1  0  0  0  0
 32 22  1  0  0  0  0
 34 24  1  0  0  0  0
 35 45  1  0  0  0  0
 35 43  1  0  0  0  0
 36 35  1  0  0  0  0
 36 38  1  0  0  0  0
 37 48  1  0  0  0  0
 37 36  1  0  0  0  0
 38 50  1  1  0  0  0
 38 40  1  0  0  0  0
 39 38  1  0  0  0  0
 40 42  2  0  0  0  0
 40 41  1  0  0  0  0
 44 35  1  0  0  0  0
 46 36  1  0  0  0  0
 47 37  1  0  0  0  0
 49 37  1  0  0  0  0
 51 39  1  0  0  0  0
M  END
$$$$
