ERA.pdb
 OpenBabel07022418173D

 51 50  0  0  1  0  0  0  0  0999 V2000
    1.3160   -3.4330    4.2420 N   0  0  0  0  0  0  0  0  0  0  0  0
    1.5170   -2.9800    2.8410 C   0  0  1  0  0  0  0  0  0  0  0  0
    1.6520   -4.2470    2.0600 C   0  0  0  0  0  0  0  0  0  0  0  0
    1.8750   -4.1140    0.6000 C   0  0  0  0  0  0  0  0  0  0  0  0
    3.0960   -3.3790    0.2390 C   0  0  0  0  0  0  0  0  0  0  0  0
    3.8890   -2.9050    1.0860 O   0  0  0  0  0  0  0  0  0  0  0  0
    0.3000   -2.1900    2.5090 C   0  0  0  0  0  0  0  0  0  0  0  0
   -0.7050   -2.2000    3.3170 O   0  0  0  0  0  0  0  0  0  0  0  0
    3.4100   -3.1860   -1.0990 O   0  0  0  0  0  0  0  0  0  0  0  0
    0.5830   -4.1990    4.1470 H   0  0  0  0  0  0  0  0  0  0  0  0
    0.8080   -2.6610    4.7610 H   0  0  0  0  0  0  0  0  0  0  0  0
    2.4260   -2.3680    2.8690 H   0  0  0  0  0  0  0  0  0  0  0  0
    0.7400   -4.8640    2.2980 H   0  0  0  0  0  0  0  0  0  0  0  0
    2.4940   -4.8550    2.4770 H   0  0  0  0  0  0  0  0  0  0  0  0
    0.9580   -3.7110    0.1280 H   0  0  0  0  0  0  0  0  0  0  0  0
    1.9860   -5.1350    0.1140 H   0  0  0  0  0  0  0  0  0  0  0  0
    3.9700   -2.3950   -1.3720 H   0  0  0  0  0  0  0  0  0  0  0  0
    3.3400    2.8870    0.0570 N   0  0  0  0  0  0  0  0  0  0  0  0
    2.3690    2.8340    1.0880 C   0  0  0  0  0  0  0  0  0  0  0  0
    2.7130    2.4770    2.2740 N   0  0  0  0  0  0  0  0  0  0  0  0
    1.0060    3.1650    0.8550 N   0  0  0  0  0  0  0  0  0  0  0  0
    0.0410    2.9130    1.8820 C   0  0  0  0  0  0  0  0  0  0  0  0
   -0.1840    1.4300    2.1230 C   0  0  0  0  0  0  0  0  0  0  0  0
   -0.6720    0.8320    0.8500 C   0  0  0  0  0  0  0  0  0  0  0  0
   -0.9360   -0.6440    0.9550 C   0  0  2  0  0  0  0  0  0  0  0  0
    0.2220   -1.4190    1.3140 N   0  0  0  0  0  0  0  0  0  0  0  0
   -1.6070   -1.1610   -0.2610 C   0  0  0  0  0  0  0  0  0  0  0  0
   -1.1070   -2.1730   -0.8150 O   0  0  0  0  0  0  0  0  0  0  0  0
    4.2680    3.3620    0.2320 H   0  0  0  0  0  0  0  0  0  0  0  0
    3.2110    2.4840   -0.8890 H   0  0  0  0  0  0  0  0  0  0  0  0
    3.6920    2.2180    2.5270 H   0  0  0  0  0  0  0  0  0  0  0  0
    0.7750    3.5860   -0.0760 H   0  0  0  0  0  0  0  0  0  0  0  0
   -0.9550    3.3050    1.5200 H   0  0  0  0  0  0  0  0  0  0  0  0
    0.2800    3.4200    2.8500 H   0  0  0  0  0  0  0  0  0  0  0  0
   -0.9550    1.3810    2.9460 H   0  0  0  0  0  0  0  0  0  0  0  0
    0.7870    1.0200    2.4590 H   0  0  0  0  0  0  0  0  0  0  0  0
   -1.6190    1.3330    0.5680 H   0  0  0  0  0  0  0  0  0  0  0  0
    0.0590    1.0830    0.0570 H   0  0  0  0  0  0  0  0  0  0  0  0
   -1.6800   -0.7740    1.7960 H   0  0  0  0  0  0  0  0  0  0  0  0
    1.0450   -1.4170    0.6860 H   0  0  0  0  0  0  0  0  0  0  0  0
   -4.8580   -1.4630   -1.7710 C   0  0  0  0  0  0  0  0  0  0  0  0
   -3.4100   -1.1110   -2.0230 C   0  0  2  0  0  0  0  0  0  0  0  0
   -2.7640   -0.5950   -0.8340 N   0  0  0  0  0  0  0  0  0  0  0  0
   -3.3700   -0.0690   -3.0780 C   0  0  0  0  0  0  0  0  0  0  0  0
   -3.8650   -0.2480   -4.2270 O   0  0  0  0  0  0  0  0  0  0  0  0
   -2.7750    1.1760   -2.8430 O   0  0  0  0  0  0  0  0  0  0  0  0
   -5.3040   -0.8320   -0.9780 H   0  0  0  0  0  0  0  0  0  0  0  0
   -5.4590   -1.4200   -2.6860 H   0  0  0  0  0  0  0  0  0  0  0  0
   -4.9290   -2.5170   -1.3770 H   0  0  0  0  0  0  0  0  0  0  0  0
   -2.8820   -2.0010   -2.4280 H   0  0  0  0  0  0  0  0  0  0  0  0
   -3.1700    0.2400   -0.3710 H   0  0  0  0  0  0  0  0  0  0  0  0
  1 11  1  0  0  0  0
  2 12  1  6  0  0  0
  2  1  1  0  0  0  0
  3 13  1  0  0  0  0
  3 14  1  0  0  0  0
  3  2  1  0  0  0  0
  4  3  1  0  0  0  0
  5  4  1  0  0  0  0
  5  6  2  0  0  0  0
  7  2  1  0  0  0  0
  7  8  2  0  0  0  0
  9  5  1  0  0  0  0
 10  1  1  0  0  0  0
 15  4  1  0  0  0  0
 16  4  1  0  0  0  0
 17  9  1  0  0  0  0
 18 29  1  0  0  0  0
 18 19  1  0  0  0  0
 19 20  2  0  0  0  0
 20 31  1  0  0  0  0
 21 19  1  0  0  0  0
 21 22  1  0  0  0  0
 22 23  1  0  0  0  0
 22 34  1  0  0  0  0
 23 36  1  0  0  0  0
 23 35  1  0  0  0  0
 24 25  1  0  0  0  0
 24 23  1  0  0  0  0
 25 26  1  0  0  0  0
 25 39  1  1  0  0  0
 26  7  1  0  0  0  0
 27 25  1  0  0  0  0
 28 27  2  0  0  0  0
 30 18  1  0  0  0  0
 32 21  1  0  0  0  0
 33 22  1  0  0  0  0
 37 24  1  0  0  0  0
 38 24  1  0  0  0  0
 40 26  1  0  0  0  0
 41 49  1  0  0  0  0
 41 47  1  0  0  0  0
 42 50  1  6  0  0  0
 42 41  1  0  0  0  0
 42 43  1  0  0  0  0
 43 51  1  0  0  0  0
 43 27  1  0  0  0  0
 44 46  1  0  0  0  0
 44 42  1  0  0  0  0
 45 44  2  0  0  0  0
 48 41  1  0  0  0  0
M  END
$$$$
