ERD.pdb
 OpenBabel07022418173D

 54 53  0  0  1  0  0  0  0  0999 V2000
    1.6950   -2.3380   -1.1820 N   0  0  0  0  0  0  0  0  0  0  0  0
    1.8760   -2.8910    0.1690 C   0  0  1  0  0  0  0  0  0  0  0  0
    3.3200   -2.6880    0.5180 C   0  0  0  0  0  0  0  0  0  0  0  0
    3.7210   -3.1870    1.8660 C   0  0  0  0  0  0  0  0  0  0  0  0
    5.1670   -2.9230    2.0720 C   0  0  0  0  0  0  0  0  0  0  0  0
    5.8420   -2.3650    1.1830 O   0  0  0  0  0  0  0  0  0  0  0  0
    0.9490   -2.2760    1.1240 C   0  0  0  0  0  0  0  0  0  0  0  0
    0.9080   -2.5990    2.3380 O   0  0  0  0  0  0  0  0  0  0  0  0
    5.8330   -3.2810    3.2480 O   0  0  0  0  0  0  0  0  0  0  0  0
    0.7040   -2.4290   -1.4940 H   0  0  0  0  0  0  0  0  0  0  0  0
    1.9880   -1.3550   -1.1920 H   0  0  0  0  0  0  0  0  0  0  0  0
    1.7150   -3.9920    0.0570 H   0  0  0  0  0  0  0  0  0  0  0  0
    3.5700   -1.5900    0.4930 H   0  0  0  0  0  0  0  0  0  0  0  0
    3.9960   -3.1460   -0.2320 H   0  0  0  0  0  0  0  0  0  0  0  0
    3.2070   -2.6060    2.6880 H   0  0  0  0  0  0  0  0  0  0  0  0
    3.5580   -4.2750    1.9930 H   0  0  0  0  0  0  0  0  0  0  0  0
    6.8150   -3.4800    3.2960 H   0  0  0  0  0  0  0  0  0  0  0  0
    2.2590    4.9300    1.9730 N   0  0  0  0  0  0  0  0  0  0  0  0
    0.9570    4.6720    1.4680 C   0  0  0  0  0  0  0  0  0  0  0  0
    0.1240    5.6540    1.2630 N   0  0  0  0  0  0  0  0  0  0  0  0
    0.5340    3.3540    1.1760 N   0  0  0  0  0  0  0  0  0  0  0  0
   -0.7920    3.0430    0.7150 C   0  0  0  0  0  0  0  0  0  0  0  0
   -0.9780    1.5590    0.4870 C   0  0  0  0  0  0  0  0  0  0  0  0
   -0.7440    0.8500    1.7850 C   0  0  0  0  0  0  0  0  0  0  0  0
   -0.9020   -0.6430    1.6810 C   0  0  2  0  0  0  0  0  0  0  0  0
    0.0100   -1.2490    0.7400 N   0  0  0  0  0  0  0  0  0  0  0  0
   -2.2970   -0.9740    1.2560 C   0  0  0  0  0  0  0  0  0  0  0  0
   -3.3050   -0.5740    1.8950 O   0  0  0  0  0  0  0  0  0  0  0  0
    3.0100    5.2000    1.3340 H   0  0  0  0  0  0  0  0  0  0  0  0
    2.4260    4.8370    2.9970 H   0  0  0  0  0  0  0  0  0  0  0  0
    0.3650    6.6440    1.4540 H   0  0  0  0  0  0  0  0  0  0  0  0
    1.2150    2.5640    1.2990 H   0  0  0  0  0  0  0  0  0  0  0  0
   -1.5190    3.4250    1.4600 H   0  0  0  0  0  0  0  0  0  0  0  0
   -0.9690    3.6310   -0.2110 H   0  0  0  0  0  0  0  0  0  0  0  0
   -0.3860    1.1760   -0.3430 H   0  0  0  0  0  0  0  0  0  0  0  0
   -2.0680    1.4360    0.2180 H   0  0  0  0  0  0  0  0  0  0  0  0
   -1.4840    1.1980    2.5360 H   0  0  0  0  0  0  0  0  0  0  0  0
    0.2530    1.0380    2.2280 H   0  0  0  0  0  0  0  0  0  0  0  0
   -0.7880   -1.0540    2.7040 H   0  0  0  0  0  0  0  0  0  0  0  0
    0.0170   -0.9570   -0.2600 H   0  0  0  0  0  0  0  0  0  0  0  0
   -2.5480   -1.7720    0.0890 N   0  0  0  0  0  0  0  0  0  0  0  0
   -3.9100   -2.0900   -0.3180 C   0  0  1  0  0  0  0  0  0  0  0  0
   -4.2240   -1.5260   -1.6770 C   0  0  0  0  0  0  0  0  0  0  0  0
   -3.3270   -2.0570   -2.7320 C   0  0  0  0  0  0  0  0  0  0  0  0
   -2.4080   -2.8910   -2.5230 O   0  0  0  0  0  0  0  0  0  0  0  0
   -4.0490   -3.5540   -0.4030 C   0  0  0  0  0  0  0  0  0  0  0  0
   -5.1360   -4.0670   -0.7350 O   0  0  0  0  0  0  0  0  0  0  0  0
   -3.4700   -1.6370   -4.0510 O   0  0  0  0  0  0  0  0  0  0  0  0
   -2.9780   -4.3680   -0.1170 O   0  0  0  0  0  0  0  0  0  0  0  0
   -1.7180   -2.1050   -0.4430 H   0  0  0  0  0  0  0  0  0  0  0  0
   -4.6480   -1.6430    0.3840 H   0  0  0  0  0  0  0  0  0  0  0  0
   -4.2470   -0.4090   -1.6860 H   0  0  0  0  0  0  0  0  0  0  0  0
   -5.2510   -1.8580   -1.9380 H   0  0  0  0  0  0  0  0  0  0  0  0
   -2.8500   -1.9680   -4.7820 H   0  0  0  0  0  0  0  0  0  0  0  0
  1  2  1  0  0  0  0
  2 12  1  6  0  0  0
  2  3  1  0  0  0  0
  2  7  1  0  0  0  0
  3  4  1  0  0  0  0
  4 16  1  0  0  0  0
  4  5  1  0  0  0  0
  4 15  1  0  0  0  0
  5  9  1  0  0  0  0
  6  5  2  0  0  0  0
  7  8  2  0  0  0  0
  9 17  1  0  0  0  0
 10  1  1  0  0  0  0
 11  1  1  0  0  0  0
 13  3  1  0  0  0  0
 14  3  1  0  0  0  0
 18 30  1  0  0  0  0
 19 18  1  0  0  0  0
 20 31  1  0  0  0  0
 20 19  2  0  0  0  0
 21 32  1  0  0  0  0
 21 19  1  0  0  0  0
 22 21  1  0  0  0  0
 22 33  1  0  0  0  0
 23 22  1  0  0  0  0
 23 24  1  0  0  0  0
 24 38  1  0  0  0  0
 24 37  1  0  0  0  0
 25 24  1  0  0  0  0
 25 39  1  1  0  0  0
 26  7  1  0  0  0  0
 26 25  1  0  0  0  0
 27 25  1  0  0  0  0
 27 28  2  0  0  0  0
 29 18  1  0  0  0  0
 34 22  1  0  0  0  0
 35 23  1  0  0  0  0
 36 23  1  0  0  0  0
 40 26  1  0  0  0  0
 41 27  1  0  0  0  0
 42 41  1  0  0  0  0
 42 51  1  1  0  0  0
 43 42  1  0  0  0  0
 44 45  2  0  0  0  0
 44 43  1  0  0  0  0
 46 42  1  0  0  0  0
 46 49  1  0  0  0  0
 47 46  2  0  0  0  0
 48 44  1  0  0  0  0
 50 41  1  0  0  0  0
 52 43  1  0  0  0  0
 53 43  1  0  0  0  0
 54 48  1  0  0  0  0
M  END
$$$$
