ERE.pdb
 OpenBabel07022418173D

 57 56  0  0  1  0  0  0  0  0999 V2000
    1.9610   -1.4960    1.6260 N   0  0  0  0  0  0  0  0  0  0  0  0
    1.0040   -1.2320    2.6500 C   0  0  1  0  0  0  0  0  0  0  0  0
    1.6120   -0.4220    3.7460 C   0  0  0  0  0  0  0  0  0  0  0  0
    2.7820   -1.1230    4.3950 C   0  0  0  0  0  0  0  0  0  0  0  0
    3.3400   -0.2630    5.4740 C   0  0  0  0  0  0  0  0  0  0  0  0
    4.3170   -0.6390    6.1600 O   0  0  0  0  0  0  0  0  0  0  0  0
   -0.2690   -0.6790    2.1380 C   0  0  0  0  0  0  0  0  0  0  0  0
   -1.2030   -0.3760    2.9240 O   0  0  0  0  0  0  0  0  0  0  0  0
    2.8070    0.9840    5.7690 O   0  0  0  0  0  0  0  0  0  0  0  0
    2.8070   -0.8850    1.6520 H   0  0  0  0  0  0  0  0  0  0  0  0
    2.1720   -2.4940    1.4970 H   0  0  0  0  0  0  0  0  0  0  0  0
    0.7340   -2.2320    3.1040 H   0  0  0  0  0  0  0  0  0  0  0  0
    0.8700   -0.1540    4.5210 H   0  0  0  0  0  0  0  0  0  0  0  0
    1.9760    0.5620    3.3380 H   0  0  0  0  0  0  0  0  0  0  0  0
    3.5520   -1.4190    3.6600 H   0  0  0  0  0  0  0  0  0  0  0  0
    2.3980   -2.0510    4.9020 H   0  0  0  0  0  0  0  0  0  0  0  0
    2.7730    1.3210    6.7290 H   0  0  0  0  0  0  0  0  0  0  0  0
    2.3400    2.8570   -2.0570 N   0  0  0  0  0  0  0  0  0  0  0  0
    1.4530    3.2320   -1.0270 C   0  0  0  0  0  0  0  0  0  0  0  0
    1.8840    3.3040    0.1820 N   0  0  0  0  0  0  0  0  0  0  0  0
    0.0880    3.5360   -1.2690 N   0  0  0  0  0  0  0  0  0  0  0  0
   -0.8450    3.7650   -0.1620 C   0  0  0  0  0  0  0  0  0  0  0  0
   -1.0180    2.4320    0.5390 C   0  0  0  0  0  0  0  0  0  0  0  0
   -1.5810    1.4110   -0.4550 C   0  0  0  0  0  0  0  0  0  0  0  0
   -1.7590    0.0810    0.2320 C   0  0  2  0  0  0  0  0  0  0  0  0
   -0.5210   -0.4570    0.7570 N   0  0  0  0  0  0  0  0  0  0  0  0
   -2.4870   -0.8880   -0.6000 C   0  0  0  0  0  0  0  0  0  0  0  0
   -3.5790   -0.5960   -1.1370 O   0  0  0  0  0  0  0  0  0  0  0  0
    3.2920    3.2580   -2.0810 H   0  0  0  0  0  0  0  0  0  0  0  0
    2.0440    2.1880   -2.7810 H   0  0  0  0  0  0  0  0  0  0  0  0
    2.8740    3.0930    0.4230 H   0  0  0  0  0  0  0  0  0  0  0  0
   -0.2860    3.6050   -2.2550 H   0  0  0  0  0  0  0  0  0  0  0  0
   -0.4060    4.4820    0.5420 H   0  0  0  0  0  0  0  0  0  0  0  0
   -1.8320    4.0820   -0.5330 H   0  0  0  0  0  0  0  0  0  0  0  0
   -0.0440    2.0270    0.8890 H   0  0  0  0  0  0  0  0  0  0  0  0
   -1.6770    2.5150    1.4260 H   0  0  0  0  0  0  0  0  0  0  0  0
   -0.9210    1.3400   -1.3320 H   0  0  0  0  0  0  0  0  0  0  0  0
   -2.5880    1.7770   -0.7200 H   0  0  0  0  0  0  0  0  0  0  0  0
   -2.3940    0.2830    1.1470 H   0  0  0  0  0  0  0  0  0  0  0  0
    0.2280   -0.6950    0.0760 H   0  0  0  0  0  0  0  0  0  0  0  0
   -1.9730   -2.1870   -0.8190 N   0  0  0  0  0  0  0  0  0  0  0  0
   -2.6260   -3.1850   -1.6150 C   0  0  1  0  0  0  0  0  0  0  0  0
   -1.9170   -3.4840   -2.8890 C   0  0  0  0  0  0  0  0  0  0  0  0
   -0.5030   -3.9260   -2.7900 C   0  0  0  0  0  0  0  0  0  0  0  0
   -0.1960   -5.1580   -2.0650 C   0  0  0  0  0  0  0  0  0  0  0  0
   -1.0200   -5.9250   -1.5290 O   0  0  0  0  0  0  0  0  0  0  0  0
   -3.1600   -4.3380   -0.8880 C   0  0  0  0  0  0  0  0  0  0  0  0
   -3.8660   -5.2030   -1.4660 O   0  0  0  0  0  0  0  0  0  0  0  0
    1.1490   -5.5840   -1.9190 O   0  0  0  0  0  0  0  0  0  0  0  0
   -2.9020   -4.5060    0.4610 O   0  0  0  0  0  0  0  0  0  0  0  0
   -1.0500   -2.4380   -0.3660 H   0  0  0  0  0  0  0  0  0  0  0  0
   -3.6010   -2.6480   -1.9820 H   0  0  0  0  0  0  0  0  0  0  0  0
   -2.4610   -4.3270   -3.4320 H   0  0  0  0  0  0  0  0  0  0  0  0
   -2.0340   -2.6370   -3.6390 H   0  0  0  0  0  0  0  0  0  0  0  0
    0.1400   -3.1050   -2.3570 H   0  0  0  0  0  0  0  0  0  0  0  0
   -0.1620   -4.1040   -3.8540 H   0  0  0  0  0  0  0  0  0  0  0  0
    1.4000   -6.1130   -1.0780 H   0  0  0  0  0  0  0  0  0  0  0  0
  1 10  1  0  0  0  0
  1  2  1  0  0  0  0
  2 12  1  1  0  0  0
  2  3  1  0  0  0  0
  3  4  1  0  0  0  0
  3 13  1  0  0  0  0
  4 16  1  0  0  0  0
  4  5  1  0  0  0  0
  5  9  1  0  0  0  0
  5  6  2  0  0  0  0
  7  2  1  0  0  0  0
  7  8  2  0  0  0  0
  9 17  1  0  0  0  0
 11  1  1  0  0  0  0
 14  3  1  0  0  0  0
 15  4  1  0  0  0  0
 18 19  1  0  0  0  0
 19 20  2  0  0  0  0
 20 31  1  0  0  0  0
 21 19  1  0  0  0  0
 21 22  1  0  0  0  0
 22 23  1  0  0  0  0
 22 33  1  0  0  0  0
 23 35  1  0  0  0  0
 23 36  1  0  0  0  0
 24 25  1  0  0  0  0
 24 23  1  0  0  0  0
 25 26  1  0  0  0  0
 25 39  1  1  0  0  0
 26  7  1  0  0  0  0
 27 25  1  0  0  0  0
 28 27  2  0  0  0  0
 29 18  1  0  0  0  0
 30 18  1  0  0  0  0
 32 21  1  0  0  0  0
 34 22  1  0  0  0  0
 37 24  1  0  0  0  0
 38 24  1  0  0  0  0
 40 26  1  0  0  0  0
 41 27  1  0  0  0  0
 41 51  1  0  0  0  0
 42 52  1  6  0  0  0
 42 47  1  0  0  0  0
 42 41  1  0  0  0  0
 43 44  1  0  0  0  0
 43 42  1  0  0  0  0
 44 55  1  0  0  0  0
 44 45  1  0  0  0  0
 45 49  1  0  0  0  0
 45 46  2  0  0  0  0
 47 50  1  0  0  0  0
 48 47  2  0  0  0  0
 49 57  1  0  0  0  0
 53 43  1  0  0  0  0
 54 43  1  0  0  0  0
 56 44  1  0  0  0  0
M  END
$$$$
