ERF.pdb
 OpenBabel07022418173D

 61 61  0  0  1  0  0  0  0  0999 V2000
   -1.2440   -2.0690    4.2370 N   0  0  0  0  0  0  0  0  0  0  0  0
   -1.3310   -0.6200    4.4210 C   0  0  1  0  0  0  0  0  0  0  0  0
   -0.4200   -0.1610    5.4900 C   0  0  0  0  0  0  0  0  0  0  0  0
   -0.3290    1.2900    5.7780 C   0  0  0  0  0  0  0  0  0  0  0  0
    0.2970    2.1060    4.7190 C   0  0  0  0  0  0  0  0  0  0  0  0
    0.9750    1.5450    3.8030 O   0  0  0  0  0  0  0  0  0  0  0  0
   -1.3370    0.1480    3.1860 C   0  0  0  0  0  0  0  0  0  0  0  0
   -1.8320    1.3330    3.1620 O   0  0  0  0  0  0  0  0  0  0  0  0
    0.1930    3.4820    4.6560 O   0  0  0  0  0  0  0  0  0  0  0  0
   -0.2890   -2.3940    4.0680 H   0  0  0  0  0  0  0  0  0  0  0  0
   -1.9650   -2.4240    3.6020 H   0  0  0  0  0  0  0  0  0  0  0  0
   -2.3930   -0.4470    4.8610 H   0  0  0  0  0  0  0  0  0  0  0  0
    0.6320   -0.5070    5.2590 H   0  0  0  0  0  0  0  0  0  0  0  0
   -0.6880   -0.7520    6.4210 H   0  0  0  0  0  0  0  0  0  0  0  0
    0.2200    1.4120    6.7600 H   0  0  0  0  0  0  0  0  0  0  0  0
   -1.3670    1.7180    5.9360 H   0  0  0  0  0  0  0  0  0  0  0  0
    0.9240    4.0920    4.2890 H   0  0  0  0  0  0  0  0  0  0  0  0
    4.6750   -1.0640   -2.3500 N   0  0  0  0  0  0  0  0  0  0  0  0
    4.1910    0.0750   -1.6750 C   0  0  0  0  0  0  0  0  0  0  0  0
    4.9970    0.9890   -1.2530 N   0  0  0  0  0  0  0  0  0  0  0  0
    2.7910    0.2870   -1.4180 N   0  0  0  0  0  0  0  0  0  0  0  0
    2.2730    1.6100   -1.1820 C   0  0  0  0  0  0  0  0  0  0  0  0
    0.7890    1.5270   -0.9150 C   0  0  0  0  0  0  0  0  0  0  0  0
    0.5610    0.7030    0.3020 C   0  0  0  0  0  0  0  0  0  0  0  0
   -0.8680    0.5360    0.7220 C   0  0  2  0  0  0  0  0  0  0  0  0
   -0.8250   -0.3020    1.9380 N   0  0  0  0  0  0  0  0  0  0  0  0
   -1.6940   -0.1060   -0.3120 C   0  0  0  0  0  0  0  0  0  0  0  0
   -1.8900    0.4500   -1.4160 O   0  0  0  0  0  0  0  0  0  0  0  0
    5.1710   -1.8000   -1.7740 H   0  0  0  0  0  0  0  0  0  0  0  0
    4.5860   -1.2410   -3.3600 H   0  0  0  0  0  0  0  0  0  0  0  0
    4.6870    1.8460   -0.7500 H   0  0  0  0  0  0  0  0  0  0  0  0
    2.1700   -0.5430   -1.4170 H   0  0  0  0  0  0  0  0  0  0  0  0
    2.5080    2.3120   -2.0080 H   0  0  0  0  0  0  0  0  0  0  0  0
    2.7270    1.9790   -0.2150 H   0  0  0  0  0  0  0  0  0  0  0  0
    0.2340    1.1870   -1.8210 H   0  0  0  0  0  0  0  0  0  0  0  0
    0.4210    2.5710   -0.6840 H   0  0  0  0  0  0  0  0  0  0  0  0
    0.9620   -0.3360    0.1390 H   0  0  0  0  0  0  0  0  0  0  0  0
    1.1980    1.1190    1.1150 H   0  0  0  0  0  0  0  0  0  0  0  0
   -1.2590    1.5200    1.0390 H   0  0  0  0  0  0  0  0  0  0  0  0
   -0.4130   -1.2610    1.9110 H   0  0  0  0  0  0  0  0  0  0  0  0
   -2.3210   -1.3810   -0.1400 N   0  0  0  0  0  0  0  0  0  0  0  0
   -3.1320   -2.0130   -1.1480 C   0  0  1  0  0  0  0  0  0  0  0  0
   -2.6370   -3.3630   -1.5540 C   0  0  0  0  0  0  0  0  0  0  0  0
   -1.2820   -3.3580   -2.1120 C   0  0  0  0  0  0  0  0  0  0  0  0
   -0.1970   -3.5230   -1.2760 C   0  0  0  0  0  0  0  0  0  0  0  0
    1.1020   -3.5280   -1.7390 C   0  0  0  0  0  0  0  0  0  0  0  0
    1.2790   -3.3570   -3.1010 C   0  0  0  0  0  0  0  0  0  0  0  0
    0.1920   -3.1910   -3.9390 C   0  0  0  0  0  0  0  0  0  0  0  0
   -1.1050   -3.1870   -3.4710 C   0  0  0  0  0  0  0  0  0  0  0  0
   -4.5530   -2.1320   -0.6700 C   0  0  0  0  0  0  0  0  0  0  0  0
   -5.3600   -2.6710   -1.4670 O   0  0  0  0  0  0  0  0  0  0  0  0
   -4.9490   -1.6820    0.5610 O   0  0  0  0  0  0  0  0  0  0  0  0
   -2.1650   -1.8560    0.7740 H   0  0  0  0  0  0  0  0  0  0  0  0
   -3.2040   -1.3880   -2.0770 H   0  0  0  0  0  0  0  0  0  0  0  0
   -3.3110   -3.8640   -2.2770 H   0  0  0  0  0  0  0  0  0  0  0  0
   -2.6370   -4.0430   -0.6510 H   0  0  0  0  0  0  0  0  0  0  0  0
   -0.3140   -3.6590   -0.1990 H   0  0  0  0  0  0  0  0  0  0  0  0
    1.9540   -3.6560   -1.0980 H   0  0  0  0  0  0  0  0  0  0  0  0
    2.2900   -3.3570   -3.4890 H   0  0  0  0  0  0  0  0  0  0  0  0
    0.3390   -3.0560   -5.0200 H   0  0  0  0  0  0  0  0  0  0  0  0
   -1.9370   -3.0550   -4.1560 H   0  0  0  0  0  0  0  0  0  0  0  0
  1  2  1  0  0  0  0
  2 12  1  1  0  0  0
  2  3  1  0  0  0  0
  3  4  1  0  0  0  0
  3 14  1  0  0  0  0
  4 16  1  0  0  0  0
  4 15  1  0  0  0  0
  5  4  1  0  0  0  0
  6  5  2  0  0  0  0
  7  2  1  0  0  0  0
  8  7  2  0  0  0  0
  9  5  1  0  0  0  0
 10  1  1  0  0  0  0
 11  1  1  0  0  0  0
 13  3  1  0  0  0  0
 17  9  1  0  0  0  0
 18 29  1  0  0  0  0
 18 19  1  0  0  0  0
 19 21  1  0  0  0  0
 19 20  2  0  0  0  0
 20 31  1  0  0  0  0
 21 32  1  0  0  0  0
 21 22  1  0  0  0  0
 22 23  1  0  0  0  0
 22 34  1  0  0  0  0
 23 36  1  0  0  0  0
 23 24  1  0  0  0  0
 24 25  1  0  0  0  0
 24 38  1  0  0  0  0
 25 39  1  1  0  0  0
 25 26  1  0  0  0  0
 26  7  1  0  0  0  0
 27 41  1  0  0  0  0
 27 25  1  0  0  0  0
 28 27  2  0  0  0  0
 30 18  1  0  0  0  0
 33 22  1  0  0  0  0
 35 23  1  0  0  0  0
 37 24  1  0  0  0  0
 40 26  1  0  0  0  0
 41 53  1  0  0  0  0
 42 54  1  6  0  0  0
 42 50  1  0  0  0  0
 42 41  1  0  0  0  0
 43 42  1  0  0  0  0
 43 56  1  0  0  0  0
 44 43  1  0  0  0  0
 44 45  1  0  0  0  0
 45 57  1  0  0  0  0
 46 45  2  0  0  0  0
 46 58  1  0  0  0  0
 47 46  1  0  0  0  0
 48 49  1  0  0  0  0
 48 47  2  0  0  0  0
 49 44  2  0  0  0  0
 50 52  1  0  0  0  0
 51 50  2  0  0  0  0
 55 43  1  0  0  0  0
 59 47  1  0  0  0  0
 60 48  1  0  0  0  0
 61 49  1  0  0  0  0
M  END
$$$$
