ERG.pdb
 OpenBabel07022418173D

 48 47  0  0  1  0  0  0  0  0999 V2000
    0.4960   -3.6250    0.8720 N   0  0  0  0  0  0  0  0  0  0  0  0
    0.3790   -3.3070    2.2620 C   0  0  1  0  0  0  0  0  0  0  0  0
    1.4920   -3.7230    3.1400 C   0  0  0  0  0  0  0  0  0  0  0  0
    2.8420   -3.1800    2.8660 C   0  0  0  0  0  0  0  0  0  0  0  0
    2.9410   -1.7100    2.9610 C   0  0  0  0  0  0  0  0  0  0  0  0
    2.8260   -0.9740    1.9620 O   0  0  0  0  0  0  0  0  0  0  0  0
    0.0370   -1.8800    2.4090 C   0  0  0  0  0  0  0  0  0  0  0  0
    0.0730   -1.2710    3.5160 O   0  0  0  0  0  0  0  0  0  0  0  0
    3.1680   -1.1370    4.1990 O   0  0  0  0  0  0  0  0  0  0  0  0
    0.7610   -4.6150    0.6860 H   0  0  0  0  0  0  0  0  0  0  0  0
    0.9960   -2.9430    0.2840 H   0  0  0  0  0  0  0  0  0  0  0  0
   -0.5480   -3.8760    2.6100 H   0  0  0  0  0  0  0  0  0  0  0  0
    1.2290   -3.4310    4.1970 H   0  0  0  0  0  0  0  0  0  0  0  0
    1.5320   -4.8490    3.1990 H   0  0  0  0  0  0  0  0  0  0  0  0
    3.2980   -3.5680    1.9230 H   0  0  0  0  0  0  0  0  0  0  0  0
    3.5230   -3.5950    3.6680 H   0  0  0  0  0  0  0  0  0  0  0  0
    3.1470   -0.1320    4.3150 H   0  0  0  0  0  0  0  0  0  0  0  0
    0.6500    0.0560   -3.7070 N   0  0  0  0  0  0  0  0  0  0  0  0
    1.5170    0.8200   -2.8740 C   0  0  0  0  0  0  0  0  0  0  0  0
    2.7650    0.4770   -2.7600 N   0  0  0  0  0  0  0  0  0  0  0  0
    1.0540    1.9570   -2.1630 N   0  0  0  0  0  0  0  0  0  0  0  0
    1.6170    2.2780   -0.8820 C   0  0  0  0  0  0  0  0  0  0  0  0
    1.2550    1.2770    0.2040 C   0  0  0  0  0  0  0  0  0  0  0  0
   -0.2390    1.2380    0.3900 C   0  0  0  0  0  0  0  0  0  0  0  0
   -0.7010    0.3040    1.4470 C   0  0  2  0  0  0  0  0  0  0  0  0
   -0.3700   -1.0720    1.2900 N   0  0  0  0  0  0  0  0  0  0  0  0
   -2.2200    0.3450    1.4650 C   0  0  0  0  0  0  0  0  0  0  0  0
   -2.8030    1.4460    1.6040 O   0  0  0  0  0  0  0  0  0  0  0  0
   -0.3670    0.2240   -3.7340 H   0  0  0  0  0  0  0  0  0  0  0  0
    1.0530   -0.6950   -4.3110 H   0  0  0  0  0  0  0  0  0  0  0  0
    3.0860   -0.3590   -3.2920 H   0  0  0  0  0  0  0  0  0  0  0  0
    0.3070    2.5360   -2.5980 H   0  0  0  0  0  0  0  0  0  0  0  0
    2.7360    2.3850   -0.8960 H   0  0  0  0  0  0  0  0  0  0  0  0
    1.2480    3.2760   -0.5150 H   0  0  0  0  0  0  0  0  0  0  0  0
    1.7200    1.5410    1.1670 H   0  0  0  0  0  0  0  0  0  0  0  0
    1.6680    0.3030   -0.1260 H   0  0  0  0  0  0  0  0  0  0  0  0
   -0.5050    2.2950    0.6980 H   0  0  0  0  0  0  0  0  0  0  0  0
   -0.7810    1.1070   -0.5740 H   0  0  0  0  0  0  0  0  0  0  0  0
   -0.4310    0.6990    2.4540 H   0  0  0  0  0  0  0  0  0  0  0  0
   -0.4270   -1.5070    0.3360 H   0  0  0  0  0  0  0  0  0  0  0  0
   -3.0110   -0.8200    1.3300 N   0  0  0  0  0  0  0  0  0  0  0  0
   -4.4620   -0.8060    1.3450 C   0  0  0  0  0  0  0  0  0  0  0  0
   -4.9810    0.0650    0.2340 C   0  0  0  0  0  0  0  0  0  0  0  0
   -6.2100    0.2220    0.0490 O   0  0  0  0  0  0  0  0  0  0  0  0
   -4.1290    0.7310   -0.6330 O   0  0  0  0  0  0  0  0  0  0  0  0
   -2.4790   -1.7200    1.2180 H   0  0  0  0  0  0  0  0  0  0  0  0
   -4.7960   -1.8330    1.0820 H   0  0  0  0  0  0  0  0  0  0  0  0
   -4.8900   -0.4370    2.2740 H   0  0  0  0  0  0  0  0  0  0  0  0
  1  2  1  0  0  0  0
  2  7  1  0  0  0  0
  2 12  1  1  0  0  0
  2  3  1  0  0  0  0
  3 14  1  0  0  0  0
  3 13  1  0  0  0  0
  4  5  1  0  0  0  0
  4  3  1  0  0  0  0
  4 16  1  0  0  0  0
  5  9  1  0  0  0  0
  6  5  2  0  0  0  0
  7  8  2  0  0  0  0
  9 17  1  0  0  0  0
 10  1  1  0  0  0  0
 11  1  1  0  0  0  0
 15  4  1  0  0  0  0
 18 19  1  0  0  0  0
 19 20  2  0  0  0  0
 19 21  1  0  0  0  0
 21 22  1  0  0  0  0
 22 34  1  0  0  0  0
 22 23  1  0  0  0  0
 23 24  1  0  0  0  0
 23 35  1  0  0  0  0
 24 37  1  0  0  0  0
 24 25  1  0  0  0  0
 25 27  1  0  0  0  0
 25 39  1  1  0  0  0
 26 25  1  0  0  0  0
 26  7  1  0  0  0  0
 27 28  2  0  0  0  0
 29 18  1  0  0  0  0
 30 18  1  0  0  0  0
 31 20  1  0  0  0  0
 32 21  1  0  0  0  0
 33 22  1  0  0  0  0
 36 23  1  0  0  0  0
 38 24  1  0  0  0  0
 40 26  1  0  0  0  0
 41 42  1  0  0  0  0
 41 27  1  0  0  0  0
 42 48  1  0  0  0  0
 43 42  1  0  0  0  0
 44 43  1  0  0  0  0
 45 43  2  0  0  0  0
 46 41  1  0  0  0  0
 47 42  1  0  0  0  0
M  END
$$$$
