ERH.pdb
 OpenBabel07022418173D

 58 58  0  0  1  0  0  0  0  0999 V2000
    0.0350   -0.8590    3.2550 N   0  0  0  0  0  0  0  0  0  0  0  0
    1.0490   -0.0990    2.5340 C   0  0  1  0  0  0  0  0  0  0  0  0
    2.1710   -1.0420    2.2530 C   0  0  0  0  0  0  0  0  0  0  0  0
    2.7230   -1.5740    3.5390 C   0  0  0  0  0  0  0  0  0  0  0  0
    3.2800   -0.5090    4.3840 C   0  0  0  0  0  0  0  0  0  0  0  0
    3.3550    0.6990    4.0470 O   0  0  0  0  0  0  0  0  0  0  0  0
    0.4640    0.4560    1.2610 C   0  0  0  0  0  0  0  0  0  0  0  0
    1.1390    1.1720    0.5040 O   0  0  0  0  0  0  0  0  0  0  0  0
    3.7740   -0.8270    5.6700 O   0  0  0  0  0  0  0  0  0  0  0  0
    0.2560   -0.7880    4.2740 H   0  0  0  0  0  0  0  0  0  0  0  0
   -0.0070   -1.8580    2.9390 H   0  0  0  0  0  0  0  0  0  0  0  0
    1.2800    0.7650    3.1540 H   0  0  0  0  0  0  0  0  0  0  0  0
    1.8280   -1.9340    1.6510 H   0  0  0  0  0  0  0  0  0  0  0  0
    2.9370   -0.5490    1.6230 H   0  0  0  0  0  0  0  0  0  0  0  0
    3.5230   -2.3220    3.3440 H   0  0  0  0  0  0  0  0  0  0  0  0
    1.8730   -2.0490    4.1100 H   0  0  0  0  0  0  0  0  0  0  0  0
    4.1720   -0.1010    6.2370 H   0  0  0  0  0  0  0  0  0  0  0  0
    3.0190    2.5970   -2.0610 N   0  0  0  0  0  0  0  0  0  0  0  0
    1.9350    3.4220   -1.6230 C   0  0  0  0  0  0  0  0  0  0  0  0
    2.0700    4.2250   -0.6260 N   0  0  0  0  0  0  0  0  0  0  0  0
    0.6800    3.3830   -2.2660 N   0  0  0  0  0  0  0  0  0  0  0  0
   -0.5570    3.8410   -1.6960 C   0  0  0  0  0  0  0  0  0  0  0  0
   -1.0160    2.9500   -0.5530 C   0  0  0  0  0  0  0  0  0  0  0  0
   -1.2110    1.5780   -1.1000 C   0  0  0  0  0  0  0  0  0  0  0  0
   -1.6750    0.5320   -0.1450 C   0  0  2  0  0  0  0  0  0  0  0  0
   -0.8560    0.1520    0.9420 N   0  0  0  0  0  0  0  0  0  0  0  0
   -2.2790   -0.5900   -0.8540 C   0  0  0  0  0  0  0  0  0  0  0  0
   -3.0420   -0.4620   -1.8580 O   0  0  0  0  0  0  0  0  0  0  0  0
    2.9010    1.8250   -2.7300 H   0  0  0  0  0  0  0  0  0  0  0  0
    3.9640    2.7970   -1.6810 H   0  0  0  0  0  0  0  0  0  0  0  0
    3.0020    4.2620   -0.1390 H   0  0  0  0  0  0  0  0  0  0  0  0
    0.6910    2.9760   -3.2480 H   0  0  0  0  0  0  0  0  0  0  0  0
   -1.3360    3.8700   -2.4840 H   0  0  0  0  0  0  0  0  0  0  0  0
   -0.4110    4.8870   -1.3360 H   0  0  0  0  0  0  0  0  0  0  0  0
   -2.0950    3.3320   -0.3570 H   0  0  0  0  0  0  0  0  0  0  0  0
   -0.4980    3.0850    0.3750 H   0  0  0  0  0  0  0  0  0  0  0  0
   -2.0350    1.6680   -1.8720 H   0  0  0  0  0  0  0  0  0  0  0  0
   -0.3360    1.2340   -1.7190 H   0  0  0  0  0  0  0  0  0  0  0  0
   -2.5270    1.1500    0.4070 H   0  0  0  0  0  0  0  0  0  0  0  0
   -1.3620   -0.4950    1.6500 H   0  0  0  0  0  0  0  0  0  0  0  0
   -2.0580   -1.9390   -0.4690 N   0  0  0  0  0  0  0  0  0  0  0  0
   -2.5860   -3.0880   -1.0810 C   0  0  1  0  0  0  0  0  0  0  0  0
   -1.6400   -4.0980   -1.6110 C   0  0  0  0  0  0  0  0  0  0  0  0
   -0.7430   -4.6640   -0.5430 C   0  0  0  0  0  0  0  0  0  0  0  0
   -0.9710   -5.7720    0.2460 C   0  0  0  0  0  0  0  0  0  0  0  0
    0.0520   -5.9590    1.0720 N   0  0  0  0  0  0  0  0  0  0  0  0
    0.9390   -4.9800    0.8220 C   0  0  0  0  0  0  0  0  0  0  0  0
    0.4590   -4.2020   -0.1510 N   0  0  0  0  0  0  0  0  0  0  0  0
   -3.5360   -3.7560   -0.1610 C   0  0  0  0  0  0  0  0  0  0  0  0
   -3.7500   -3.2630    0.9740 O   0  0  0  0  0  0  0  0  0  0  0  0
   -4.2200   -4.9140   -0.4790 O   0  0  0  0  0  0  0  0  0  0  0  0
   -1.4230   -2.0900    0.3730 H   0  0  0  0  0  0  0  0  0  0  0  0
   -3.2170   -2.7470   -1.9540 H   0  0  0  0  0  0  0  0  0  0  0  0
   -2.2360   -4.9660   -1.9710 H   0  0  0  0  0  0  0  0  0  0  0  0
   -1.0520   -3.7770   -2.4940 H   0  0  0  0  0  0  0  0  0  0  0  0
   -1.8530   -6.3900    0.1930 H   0  0  0  0  0  0  0  0  0  0  0  0
    0.1310   -6.7320    1.7780 H   0  0  0  0  0  0  0  0  0  0  0  0
    1.8850   -4.9090    1.3790 H   0  0  0  0  0  0  0  0  0  0  0  0
  1 10  1  0  0  0  0
  2 12  1  1  0  0  0
  2  1  1  0  0  0  0
  3  2  1  0  0  0  0
  3  4  1  0  0  0  0
  4 16  1  0  0  0  0
  4  5  1  0  0  0  0
  5  9  1  0  0  0  0
  6  5  2  0  0  0  0
  7  2  1  0  0  0  0
  8  7  2  0  0  0  0
  9 17  1  0  0  0  0
 11  1  1  0  0  0  0
 13  3  1  0  0  0  0
 14  3  1  0  0  0  0
 15  4  1  0  0  0  0
 18 30  1  0  0  0  0
 18 19  1  0  0  0  0
 19 20  2  0  0  0  0
 20 31  1  0  0  0  0
 21 22  1  0  0  0  0
 21 19  1  0  0  0  0
 22 34  1  0  0  0  0
 22 23  1  0  0  0  0
 23 35  1  0  0  0  0
 23 36  1  0  0  0  0
 24 23  1  0  0  0  0
 24 25  1  0  0  0  0
 25 39  1  1  0  0  0
 25 26  1  0  0  0  0
 26  7  1  0  0  0  0
 26 40  1  0  0  0  0
 27 41  1  0  0  0  0
 27 25  1  0  0  0  0
 28 27  2  0  0  0  0
 29 18  1  0  0  0  0
 32 21  1  0  0  0  0
 33 22  1  0  0  0  0
 37 24  1  0  0  0  0
 38 24  1  0  0  0  0
 41 52  1  0  0  0  0
 42 53  1  6  0  0  0
 42 41  1  0  0  0  0
 42 49  1  0  0  0  0
 43 42  1  0  0  0  0
 43 44  1  0  0  0  0
 44 48  1  0  0  0  0
 44 45  2  0  0  0  0
 45 46  1  0  0  0  0
 46 57  1  0  0  0  0
 47 46  1  0  0  0  0
 47 58  1  0  0  0  0
 48 47  2  0  0  0  0
 49 50  1  0  0  0  0
 51 49  2  0  0  0  0
 54 43  1  0  0  0  0
 55 43  1  0  0  0  0
 56 45  1  0  0  0  0
M  END
$$$$
