ERI.pdb
 OpenBabel07022418173D

 60 59  0  0  1  0  0  0  0  0999 V2000
    3.0910   -1.0680    3.6280 N   0  0  0  0  0  0  0  0  0  0  0  0
    2.6010   -0.9700    2.2390 C   0  0  1  0  0  0  0  0  0  0  0  0
    2.7470   -2.3320    1.6420 C   0  0  0  0  0  0  0  0  0  0  0  0
    4.2050   -2.7430    1.6730 C   0  0  0  0  0  0  0  0  0  0  0  0
    4.7690   -2.8010    3.0380 C   0  0  0  0  0  0  0  0  0  0  0  0
    4.1910   -3.5500    3.8750 O   0  0  0  0  0  0  0  0  0  0  0  0
    1.2590   -0.3980    2.1970 C   0  0  0  0  0  0  0  0  0  0  0  0
    0.6680   -0.0620    3.2830 O   0  0  0  0  0  0  0  0  0  0  0  0
    5.8990   -2.0370    3.3490 O   0  0  0  0  0  0  0  0  0  0  0  0
    3.3160   -0.1140    3.9950 H   0  0  0  0  0  0  0  0  0  0  0  0
    2.3930   -1.5480    4.2460 H   0  0  0  0  0  0  0  0  0  0  0  0
    3.3470   -0.3100    1.7220 H   0  0  0  0  0  0  0  0  0  0  0  0
    2.4430   -2.3920    0.5830 H   0  0  0  0  0  0  0  0  0  0  0  0
    2.1540   -3.0870    2.1860 H   0  0  0  0  0  0  0  0  0  0  0  0
    4.8060   -2.1080    0.9990 H   0  0  0  0  0  0  0  0  0  0  0  0
    4.2420   -3.7780    1.2260 H   0  0  0  0  0  0  0  0  0  0  0  0
    6.2660   -2.1110    4.2920 H   0  0  0  0  0  0  0  0  0  0  0  0
   -0.1120    5.5650    1.7980 N   0  0  0  0  0  0  0  0  0  0  0  0
   -1.3710    4.9160    1.5590 C   0  0  0  0  0  0  0  0  0  0  0  0
   -2.3060    5.5350    0.9090 N   0  0  0  0  0  0  0  0  0  0  0  0
   -1.6320    3.5990    2.0170 N   0  0  0  0  0  0  0  0  0  0  0  0
   -2.5830    2.7200    1.3680 C   0  0  0  0  0  0  0  0  0  0  0  0
   -2.0490    2.3370   -0.0060 C   0  0  0  0  0  0  0  0  0  0  0  0
   -0.7290    1.6380    0.1240 C   0  0  0  0  0  0  0  0  0  0  0  0
   -0.7880    0.3860    0.9520 C   0  0  2  0  0  0  0  0  0  0  0  0
    0.5680   -0.1930    1.0050 N   0  0  0  0  0  0  0  0  0  0  0  0
   -1.6870   -0.6000    0.3130 C   0  0  0  0  0  0  0  0  0  0  0  0
   -2.9390   -0.3780    0.1620 O   0  0  0  0  0  0  0  0  0  0  0  0
    0.7490    5.3360    1.2460 H   0  0  0  0  0  0  0  0  0  0  0  0
   -0.1010    6.2800    2.5540 H   0  0  0  0  0  0  0  0  0  0  0  0
   -2.1730    6.5100    0.5460 H   0  0  0  0  0  0  0  0  0  0  0  0
   -1.1030    3.2550    2.8750 H   0  0  0  0  0  0  0  0  0  0  0  0
   -3.5340    3.3040    1.2350 H   0  0  0  0  0  0  0  0  0  0  0  0
   -2.7910    1.8340    1.9790 H   0  0  0  0  0  0  0  0  0  0  0  0
   -1.9320    3.3170   -0.5700 H   0  0  0  0  0  0  0  0  0  0  0  0
   -2.7610    1.7680   -0.6150 H   0  0  0  0  0  0  0  0  0  0  0  0
    0.0600    2.3190    0.5540 H   0  0  0  0  0  0  0  0  0  0  0  0
   -0.3420    1.4290   -0.9150 H   0  0  0  0  0  0  0  0  0  0  0  0
   -1.1390    0.6370    1.9660 H   0  0  0  0  0  0  0  0  0  0  0  0
    1.0310   -0.4600    0.1090 H   0  0  0  0  0  0  0  0  0  0  0  0
   -2.2980   -4.2030   -4.3480 C   0  0  0  0  0  0  0  0  0  0  0  0
   -2.5810   -4.0800   -2.8550 C   0  0  0  0  0  0  0  0  0  0  0  0
   -1.6670   -3.0670   -2.2120 C   0  0  2  0  0  0  0  0  0  0  0  0
   -0.2500   -3.5270   -2.4000 C   0  0  0  0  0  0  0  0  0  0  0  0
   -2.0830   -2.8320   -0.8020 C   0  0  2  0  0  0  0  0  0  0  0  0
   -1.2030   -1.8350   -0.1610 N   0  0  0  0  0  0  0  0  0  0  0  0
   -1.9460   -4.0620    0.0040 C   0  0  0  0  0  0  0  0  0  0  0  0
   -2.5990   -5.1080   -0.2170 O   0  0  0  0  0  0  0  0  0  0  0  0
   -1.0580   -4.1560    1.0980 O   0  0  0  0  0  0  0  0  0  0  0  0
   -1.2960   -4.6180   -4.5350 H   0  0  0  0  0  0  0  0  0  0  0  0
   -2.4350   -3.2290   -4.8520 H   0  0  0  0  0  0  0  0  0  0  0  0
   -3.0500   -4.9350   -4.7450 H   0  0  0  0  0  0  0  0  0  0  0  0
   -3.6360   -3.9180   -2.6260 H   0  0  0  0  0  0  0  0  0  0  0  0
   -2.2980   -5.0950   -2.4440 H   0  0  0  0  0  0  0  0  0  0  0  0
   -1.7320   -2.0810   -2.7550 H   0  0  0  0  0  0  0  0  0  0  0  0
   -0.1930   -4.6550   -2.4490 H   0  0  0  0  0  0  0  0  0  0  0  0
    0.0950   -3.1920   -3.4190 H   0  0  0  0  0  0  0  0  0  0  0  0
    0.4620   -3.1100   -1.6800 H   0  0  0  0  0  0  0  0  0  0  0  0
   -3.1250   -2.4820   -0.8110 H   0  0  0  0  0  0  0  0  0  0  0  0
   -0.1940   -2.0590   -0.0610 H   0  0  0  0  0  0  0  0  0  0  0  0
  1 10  1  0  0  0  0
  1 11  1  0  0  0  0
  2 12  1  6  0  0  0
  2  1  1  0  0  0  0
  3  4  1  0  0  0  0
  3 14  1  0  0  0  0
  3  2  1  0  0  0  0
  4  5  1  0  0  0  0
  5  9  1  0  0  0  0
  5  6  2  0  0  0  0
  7  2  1  0  0  0  0
  7  8  2  0  0  0  0
  9 17  1  0  0  0  0
 13  3  1  0  0  0  0
 15  4  1  0  0  0  0
 16  4  1  0  0  0  0
 18 30  1  0  0  0  0
 19 18  1  0  0  0  0
 19 21  1  0  0  0  0
 20 19  2  0  0  0  0
 21 32  1  0  0  0  0
 22 34  1  0  0  0  0
 22 21  1  0  0  0  0
 23 24  1  0  0  0  0
 23 22  1  0  0  0  0
 24 37  1  0  0  0  0
 24 25  1  0  0  0  0
 25 26  1  0  0  0  0
 25 39  1  1  0  0  0
 26  7  1  0  0  0  0
 27 25  1  0  0  0  0
 28 27  2  0  0  0  0
 29 18  1  0  0  0  0
 31 20  1  0  0  0  0
 33 22  1  0  0  0  0
 35 23  1  0  0  0  0
 36 23  1  0  0  0  0
 38 24  1  0  0  0  0
 40 26  1  0  0  0  0
 41 42  1  0  0  0  0
 42 53  1  0  0  0  0
 42 54  1  0  0  0  0
 42 43  1  0  0  0  0
 43 55  1  6  0  0  0
 43 45  1  0  0  0  0
 44 43  1  0  0  0  0
 44 58  1  0  0  0  0
 45 59  1  1  0  0  0
 45 46  1  0  0  0  0
 45 47  1  0  0  0  0
 46 60  1  0  0  0  0
 46 27  1  0  0  0  0
 47 49  1  0  0  0  0
 48 47  2  0  0  0  0
 50 41  1  0  0  0  0
 51 41  1  0  0  0  0
 52 41  1  0  0  0  0
 56 44  1  0  0  0  0
 57 44  1  0  0  0  0
M  END
$$$$
