ERK.pdb
 OpenBabel07022418173D

 62 61  0  0  1  0  0  0  0  0999 V2000
    1.8740   -2.6400    1.4310 N   0  0  0  0  0  0  0  0  0  0  0  0
    1.8090   -1.6040    2.4800 C   0  0  1  0  0  0  0  0  0  0  0  0
    3.1850   -1.1930    2.8730 C   0  0  0  0  0  0  0  0  0  0  0  0
    3.1470   -0.1480    3.9430 C   0  0  0  0  0  0  0  0  0  0  0  0
    4.5490    0.2440    4.3510 C   0  0  0  0  0  0  0  0  0  0  0  0
    5.4920   -0.3160    3.7830 O   0  0  0  0  0  0  0  0  0  0  0  0
    0.9990   -0.4590    2.0020 C   0  0  0  0  0  0  0  0  0  0  0  0
    0.6590    0.5220    2.6720 O   0  0  0  0  0  0  0  0  0  0  0  0
    4.7970    1.1930    5.3230 O   0  0  0  0  0  0  0  0  0  0  0  0
    2.1160   -3.5690    1.8710 H   0  0  0  0  0  0  0  0  0  0  0  0
    2.6620   -2.4020    0.7680 H   0  0  0  0  0  0  0  0  0  0  0  0
    1.3270   -2.0990    3.3480 H   0  0  0  0  0  0  0  0  0  0  0  0
    3.7540   -0.7790    2.0050 H   0  0  0  0  0  0  0  0  0  0  0  0
    3.7010   -2.0910    3.2870 H   0  0  0  0  0  0  0  0  0  0  0  0
    2.6050   -0.4800    4.8360 H   0  0  0  0  0  0  0  0  0  0  0  0
    2.6790    0.8190    3.6160 H   0  0  0  0  0  0  0  0  0  0  0  0
    5.6110    1.0180    5.9250 H   0  0  0  0  0  0  0  0  0  0  0  0
    2.1040    5.6670    0.9710 N   0  0  0  0  0  0  0  0  0  0  0  0
    0.8300    5.1210    0.5950 C   0  0  0  0  0  0  0  0  0  0  0  0
   -0.2610    5.6370    1.0860 N   0  0  0  0  0  0  0  0  0  0  0  0
    0.8060    4.0300   -0.3040 N   0  0  0  0  0  0  0  0  0  0  0  0
   -0.4560    3.5150   -0.7550 C   0  0  0  0  0  0  0  0  0  0  0  0
   -0.2940    2.3530   -1.7120 C   0  0  0  0  0  0  0  0  0  0  0  0
    0.4350    1.2030   -1.0990 C   0  0  0  0  0  0  0  0  0  0  0  0
   -0.2370    0.6280    0.1260 C   0  0  2  0  0  0  0  0  0  0  0  0
    0.5550   -0.4700    0.6350 N   0  0  0  0  0  0  0  0  0  0  0  0
   -1.5460    0.0310   -0.2770 C   0  0  0  0  0  0  0  0  0  0  0  0
   -2.4820    0.7250   -0.7410 O   0  0  0  0  0  0  0  0  0  0  0  0
    2.8190    5.0660    1.4210 H   0  0  0  0  0  0  0  0  0  0  0  0
    2.3150    6.6850    0.7880 H   0  0  0  0  0  0  0  0  0  0  0  0
   -0.2080    6.4260    1.7350 H   0  0  0  0  0  0  0  0  0  0  0  0
    1.7040    3.6200   -0.6250 H   0  0  0  0  0  0  0  0  0  0  0  0
   -1.1030    3.1960    0.0980 H   0  0  0  0  0  0  0  0  0  0  0  0
   -0.9990    4.3390   -1.2570 H   0  0  0  0  0  0  0  0  0  0  0  0
    0.3610    2.7140   -2.5570 H   0  0  0  0  0  0  0  0  0  0  0  0
   -1.2680    2.0820   -2.1530 H   0  0  0  0  0  0  0  0  0  0  0  0
    0.6100    0.4140   -1.8710 H   0  0  0  0  0  0  0  0  0  0  0  0
    1.4560    1.5480   -0.8170 H   0  0  0  0  0  0  0  0  0  0  0  0
   -0.4130    1.4080    0.8740 H   0  0  0  0  0  0  0  0  0  0  0  0
    0.7850   -1.2460   -0.0130 H   0  0  0  0  0  0  0  0  0  0  0  0
   -1.8320   -1.3590   -0.1660 N   0  0  0  0  0  0  0  0  0  0  0  0
   -3.0780   -1.9440   -0.5460 C   0  0  1  0  0  0  0  0  0  0  0  0
   -3.0080   -2.9740   -1.6120 C   0  0  0  0  0  0  0  0  0  0  0  0
   -2.1400   -4.1610   -1.2330 C   0  0  0  0  0  0  0  0  0  0  0  0
   -2.1040   -5.1790   -2.3590 C   0  0  0  0  0  0  0  0  0  0  0  0
   -3.4840   -5.7000   -2.6790 C   0  0  0  0  0  0  0  0  0  0  0  0
   -4.0820   -6.3510   -1.5180 N   0  0  0  0  0  0  0  0  0  0  0  0
   -3.6890   -2.5590    0.6590 C   0  0  0  0  0  0  0  0  0  0  0  0
   -4.8080   -3.1560    0.6250 O   0  0  0  0  0  0  0  0  0  0  0  0
   -3.0550   -2.5080    1.8910 O   0  0  0  0  0  0  0  0  0  0  0  0
   -1.0950   -1.9940    0.2140 H   0  0  0  0  0  0  0  0  0  0  0  0
   -3.7480   -1.1360   -0.9100 H   0  0  0  0  0  0  0  0  0  0  0  0
   -2.7500   -2.5840   -2.6160 H   0  0  0  0  0  0  0  0  0  0  0  0
   -4.0450   -3.3950   -1.7250 H   0  0  0  0  0  0  0  0  0  0  0  0
   -2.4320   -4.6160   -0.2910 H   0  0  0  0  0  0  0  0  0  0  0  0
   -1.1030   -3.7790   -1.1210 H   0  0  0  0  0  0  0  0  0  0  0  0
   -1.7390   -4.6630   -3.2750 H   0  0  0  0  0  0  0  0  0  0  0  0
   -1.4800   -6.0200   -2.0550 H   0  0  0  0  0  0  0  0  0  0  0  0
   -3.3590   -6.4950   -3.4440 H   0  0  0  0  0  0  0  0  0  0  0  0
   -4.1470   -4.9450   -3.1050 H   0  0  0  0  0  0  0  0  0  0  0  0
   -4.1140   -5.7220   -0.6970 H   0  0  0  0  0  0  0  0  0  0  0  0
   -3.6280   -7.2720   -1.3280 H   0  0  0  0  0  0  0  0  0  0  0  0
  1 10  1  0  0  0  0
  1  2  1  0  0  0  0
  2  3  1  0  0  0  0
  2 12  1  1  0  0  0
  3 14  1  0  0  0  0
  3  4  1  0  0  0  0
  4  5  1  0  0  0  0
  4 15  1  0  0  0  0
  5  9  1  0  0  0  0
  6  5  2  0  0  0  0
  7  2  1  0  0  0  0
  7  8  2  0  0  0  0
  9 17  1  0  0  0  0
 11  1  1  0  0  0  0
 13  3  1  0  0  0  0
 16  4  1  0  0  0  0
 18 29  1  0  0  0  0
 19 18  1  0  0  0  0
 19 20  2  0  0  0  0
 20 31  1  0  0  0  0
 21 19  1  0  0  0  0
 22 21  1  0  0  0  0
 22 33  1  0  0  0  0
 23 24  1  0  0  0  0
 23 22  1  0  0  0  0
 24 38  1  0  0  0  0
 24 25  1  0  0  0  0
 25 26  1  0  0  0  0
 25 39  1  1  0  0  0
 26  7  1  0  0  0  0
 27 41  1  0  0  0  0
 27 25  1  0  0  0  0
 28 27  2  0  0  0  0
 30 18  1  0  0  0  0
 32 21  1  0  0  0  0
 34 22  1  0  0  0  0
 35 23  1  0  0  0  0
 36 23  1  0  0  0  0
 37 24  1  0  0  0  0
 40 26  1  0  0  0  0
 41 51  1  0  0  0  0
 42 52  1  6  0  0  0
 42 41  1  0  0  0  0
 42 48  1  0  0  0  0
 43 44  1  0  0  0  0
 43 42  1  0  0  0  0
 44 56  1  0  0  0  0
 44 55  1  0  0  0  0
 45 58  1  0  0  0  0
 45 44  1  0  0  0  0
 46 45  1  0  0  0  0
 46 47  1  0  0  0  0
 47 62  1  0  0  0  0
 47 61  1  0  0  0  0
 48 50  1  0  0  0  0
 49 48  2  0  0  0  0
 53 43  1  0  0  0  0
 54 43  1  0  0  0  0
 57 45  1  0  0  0  0
 59 46  1  0  0  0  0
 60 46  1  0  0  0  0
M  END
$$$$
