ERN.pdb
 OpenBabel07022418173D

 55 54  0  0  1  0  0  0  0  0999 V2000
    2.3420   -0.9910    1.4560 N   0  0  0  0  0  0  0  0  0  0  0  0
    0.9500   -1.0720    1.8110 C   0  0  1  0  0  0  0  0  0  0  0  0
    0.5400   -0.4010    3.0610 C   0  0  0  0  0  0  0  0  0  0  0  0
    1.2640   -0.9380    4.2540 C   0  0  0  0  0  0  0  0  0  0  0  0
    2.6830   -0.6510    4.2420 C   0  0  0  0  0  0  0  0  0  0  0  0
    3.2300    0.1160    3.4400 O   0  0  0  0  0  0  0  0  0  0  0  0
    0.1650   -0.6170    0.6260 C   0  0  0  0  0  0  0  0  0  0  0  0
    0.7700   -0.3930   -0.4300 O   0  0  0  0  0  0  0  0  0  0  0  0
    3.5550   -1.2480    5.1810 O   0  0  0  0  0  0  0  0  0  0  0  0
    2.6690   -1.9150    1.1190 H   0  0  0  0  0  0  0  0  0  0  0  0
    2.5070   -0.3070    0.6560 H   0  0  0  0  0  0  0  0  0  0  0  0
    0.6350   -2.1660    1.9270 H   0  0  0  0  0  0  0  0  0  0  0  0
   -0.5780   -0.5600    3.1680 H   0  0  0  0  0  0  0  0  0  0  0  0
    0.6810    0.7180    2.9720 H   0  0  0  0  0  0  0  0  0  0  0  0
    0.7400   -0.5400    5.1640 H   0  0  0  0  0  0  0  0  0  0  0  0
    1.1080   -2.0640    4.3290 H   0  0  0  0  0  0  0  0  0  0  0  0
    4.5420   -1.3410    4.9370 H   0  0  0  0  0  0  0  0  0  0  0  0
    2.9960    3.7150   -0.1180 N   0  0  0  0  0  0  0  0  0  0  0  0
    1.5620    3.6250   -0.2460 C   0  0  0  0  0  0  0  0  0  0  0  0
    0.9120    4.4380   -1.0060 N   0  0  0  0  0  0  0  0  0  0  0  0
    0.8950    2.6100    0.5100 N   0  0  0  0  0  0  0  0  0  0  0  0
   -0.5100    2.6560    0.7150 C   0  0  0  0  0  0  0  0  0  0  0  0
   -1.4010    2.4660   -0.4290 C   0  0  0  0  0  0  0  0  0  0  0  0
   -1.4560    1.2060   -1.1740 C   0  0  0  0  0  0  0  0  0  0  0  0
   -1.9430    0.0040   -0.4470 C   0  0  2  0  0  0  0  0  0  0  0  0
   -1.2250   -0.4410    0.6940 N   0  0  0  0  0  0  0  0  0  0  0  0
   -2.2540   -1.1510   -1.3190 C   0  0  0  0  0  0  0  0  0  0  0  0
   -2.7790   -0.9600   -2.4680 O   0  0  0  0  0  0  0  0  0  0  0  0
    3.5050    4.6320   -0.1650 H   0  0  0  0  0  0  0  0  0  0  0  0
    3.5750    2.8650    0.0280 H   0  0  0  0  0  0  0  0  0  0  0  0
    1.4520    5.1620   -1.5250 H   0  0  0  0  0  0  0  0  0  0  0  0
    1.4750    1.8580    0.9070 H   0  0  0  0  0  0  0  0  0  0  0  0
   -0.7240    3.6920    1.1270 H   0  0  0  0  0  0  0  0  0  0  0  0
   -0.7940    1.9880    1.5580 H   0  0  0  0  0  0  0  0  0  0  0  0
   -1.2740    3.3310   -1.1590 H   0  0  0  0  0  0  0  0  0  0  0  0
   -2.4570    2.6710   -0.0380 H   0  0  0  0  0  0  0  0  0  0  0  0
   -2.1790    1.3250   -2.0460 H   0  0  0  0  0  0  0  0  0  0  0  0
   -0.4810    1.0740   -1.7020 H   0  0  0  0  0  0  0  0  0  0  0  0
   -3.0030    0.3460   -0.0980 H   0  0  0  0  0  0  0  0  0  0  0  0
   -1.7460   -0.6360    1.5770 H   0  0  0  0  0  0  0  0  0  0  0  0
    0.7310   -4.7450   -0.2320 N   0  0  0  0  0  0  0  0  0  0  0  0
   -0.5850   -4.9230   -0.7150 C   0  0  0  0  0  0  0  0  0  0  0  0
   -1.4780   -5.5510   -0.0420 O   0  0  0  0  0  0  0  0  0  0  0  0
   -1.0420   -4.3920   -2.0370 C   0  0  0  0  0  0  0  0  0  0  0  0
   -2.3290   -3.6090   -1.8740 C   0  0  2  0  0  0  0  0  0  0  0  0
   -2.0130   -2.5050   -0.9820 N   0  0  0  0  0  0  0  0  0  0  0  0
   -3.3360   -4.5200   -1.2650 C   0  0  0  0  0  0  0  0  0  0  0  0
   -3.8450   -4.3170   -0.1360 O   0  0  0  0  0  0  0  0  0  0  0  0
   -3.7560   -5.6510   -1.9390 O   0  0  0  0  0  0  0  0  0  0  0  0
    1.5690   -4.9540   -0.8010 H   0  0  0  0  0  0  0  0  0  0  0  0
    0.9080   -4.3840    0.7550 H   0  0  0  0  0  0  0  0  0  0  0  0
   -0.2160   -3.7850   -2.4830 H   0  0  0  0  0  0  0  0  0  0  0  0
   -1.1680   -5.2600   -2.7270 H   0  0  0  0  0  0  0  0  0  0  0  0
   -2.6860   -3.3120   -2.8560 H   0  0  0  0  0  0  0  0  0  0  0  0
   -1.5930   -2.7200   -0.0590 H   0  0  0  0  0  0  0  0  0  0  0  0
  1  2  1  0  0  0  0
  2 12  1  1  0  0  0
  2  3  1  0  0  0  0
  3 13  1  0  0  0  0
  3  4  1  0  0  0  0
  4 16  1  0  0  0  0
  4 15  1  0  0  0  0
  5  4  1  0  0  0  0
  5  9  1  0  0  0  0
  6  5  2  0  0  0  0
  7 26  1  0  0  0  0
  7  2  1  0  0  0  0
  8  7  2  0  0  0  0
 10  1  1  0  0  0  0
 11  1  1  0  0  0  0
 14  3  1  0  0  0  0
 17  9  1  0  0  0  0
 18 30  1  0  0  0  0
 19 18  1  0  0  0  0
 19 21  1  0  0  0  0
 20 19  2  0  0  0  0
 21 22  1  0  0  0  0
 21 32  1  0  0  0  0
 22 33  1  0  0  0  0
 22 34  1  0  0  0  0
 23 36  1  0  0  0  0
 23 22  1  0  0  0  0
 24 25  1  0  0  0  0
 24 23  1  0  0  0  0
 25 39  1  1  0  0  0
 25 26  1  0  0  0  0
 26 40  1  0  0  0  0
 27 46  1  0  0  0  0
 27 25  1  0  0  0  0
 28 27  2  0  0  0  0
 29 18  1  0  0  0  0
 31 20  1  0  0  0  0
 35 23  1  0  0  0  0
 37 24  1  0  0  0  0
 38 24  1  0  0  0  0
 41 51  1  0  0  0  0
 42 41  1  0  0  0  0
 42 43  2  0  0  0  0
 44 45  1  0  0  0  0
 44 42  1  0  0  0  0
 45 54  1  6  0  0  0
 45 47  1  0  0  0  0
 45 46  1  0  0  0  0
 46 55  1  0  0  0  0
 47 48  1  0  0  0  0
 49 47  2  0  0  0  0
 50 41  1  0  0  0  0
 52 44  1  0  0  0  0
 53 44  1  0  0  0  0
M  END
$$$$
