ERP.pdb
 OpenBabel07022418173D

 55 55  0  0  1  0  0  0  0  0999 V2000
    0.4180   -0.5440    5.0570 N   0  0  0  0  0  0  0  0  0  0  0  0
    1.1480   -0.5860    3.7530 C   0  0  1  0  0  0  0  0  0  0  0  0
    2.2770   -1.5050    3.9820 C   0  0  0  0  0  0  0  0  0  0  0  0
    3.2090   -1.7920    2.8640 C   0  0  0  0  0  0  0  0  0  0  0  0
    2.6290   -2.5060    1.7060 C   0  0  0  0  0  0  0  0  0  0  0  0
    3.1530   -2.3930    0.5440 O   0  0  0  0  0  0  0  0  0  0  0  0
    0.1430   -0.9440    2.7560 C   0  0  0  0  0  0  0  0  0  0  0  0
   -0.8900   -1.5840    3.0970 O   0  0  0  0  0  0  0  0  0  0  0  0
    1.5150   -3.3320    1.7690 O   0  0  0  0  0  0  0  0  0  0  0  0
    1.0780   -0.2530    5.8050 H   0  0  0  0  0  0  0  0  0  0  0  0
   -0.0380   -1.4510    5.2270 H   0  0  0  0  0  0  0  0  0  0  0  0
    1.5060    0.4460    3.5280 H   0  0  0  0  0  0  0  0  0  0  0  0
    2.9160   -1.0190    4.7930 H   0  0  0  0  0  0  0  0  0  0  0  0
    1.9690   -2.4640    4.4850 H   0  0  0  0  0  0  0  0  0  0  0  0
    4.0790   -2.4390    3.1910 H   0  0  0  0  0  0  0  0  0  0  0  0
    3.7400   -0.8530    2.5120 H   0  0  0  0  0  0  0  0  0  0  0  0
    1.1250   -3.8050    0.9680 H   0  0  0  0  0  0  0  0  0  0  0  0
    2.3920    3.1940    1.4000 N   0  0  0  0  0  0  0  0  0  0  0  0
    0.9650    3.3490    1.3200 C   0  0  0  0  0  0  0  0  0  0  0  0
    0.4300    4.3440    1.9080 N   0  0  0  0  0  0  0  0  0  0  0  0
    0.2050    2.3860    0.5870 N   0  0  0  0  0  0  0  0  0  0  0  0
   -1.1970    2.3690    0.7780 C   0  0  0  0  0  0  0  0  0  0  0  0
   -2.0060    1.3240    0.1490 C   0  0  0  0  0  0  0  0  0  0  0  0
   -1.9680   -0.0730    0.4770 C   0  0  0  0  0  0  0  0  0  0  0  0
   -0.8360   -0.9990    0.4360 C   0  0  2  0  0  0  0  0  0  0  0  0
    0.2200   -0.6160    1.3740 N   0  0  0  0  0  0  0  0  0  0  0  0
   -0.3100   -1.3390   -0.8730 C   0  0  0  0  0  0  0  0  0  0  0  0
    0.9270   -1.0470   -1.0730 O   0  0  0  0  0  0  0  0  0  0  0  0
    2.8870    3.0240    2.3000 H   0  0  0  0  0  0  0  0  0  0  0  0
    2.9840    3.2480    0.5420 H   0  0  0  0  0  0  0  0  0  0  0  0
   -0.5740    4.5560    1.9200 H   0  0  0  0  0  0  0  0  0  0  0  0
    0.6970    1.7740   -0.0560 H   0  0  0  0  0  0  0  0  0  0  0  0
   -1.4890    2.4670    1.8610 H   0  0  0  0  0  0  0  0  0  0  0  0
   -1.5710    3.3630    0.3560 H   0  0  0  0  0  0  0  0  0  0  0  0
   -3.1010    1.6520    0.3490 H   0  0  0  0  0  0  0  0  0  0  0  0
   -1.9780    1.5380   -0.9750 H   0  0  0  0  0  0  0  0  0  0  0  0
   -2.8490   -0.5730   -0.0160 H   0  0  0  0  0  0  0  0  0  0  0  0
   -2.3310   -0.1340    1.5920 H   0  0  0  0  0  0  0  0  0  0  0  0
   -1.2450   -1.9550    0.9050 H   0  0  0  0  0  0  0  0  0  0  0  0
    1.0450   -0.1390    1.0310 H   0  0  0  0  0  0  0  0  0  0  0  0
   -0.9700   -1.9470   -1.9550 N   0  0  0  0  0  0  0  0  0  0  0  0
   -0.3010   -2.1930   -3.2690 C   0  0  0  0  0  0  0  0  0  0  0  0
   -1.3720   -2.0920   -4.3020 C   0  0  0  0  0  0  0  0  0  0  0  0
   -2.6400   -1.8180   -3.5070 C   0  0  0  0  0  0  0  0  0  0  0  0
   -2.2720   -2.4920   -2.1770 C   0  0  1  0  0  0  0  0  0  0  0  0
   -2.2410   -3.9800   -2.4330 C   0  0  0  0  0  0  0  0  0  0  0  0
   -3.3310   -4.5380   -2.6780 O   0  0  0  0  0  0  0  0  0  0  0  0
   -1.1020   -4.7370   -2.4100 O   0  0  0  0  0  0  0  0  0  0  0  0
    0.2900   -3.1010   -3.2620 H   0  0  0  0  0  0  0  0  0  0  0  0
    0.4130   -1.3410   -3.4230 H   0  0  0  0  0  0  0  0  0  0  0  0
   -1.5050   -3.0050   -4.8950 H   0  0  0  0  0  0  0  0  0  0  0  0
   -1.2230   -1.1970   -4.9680 H   0  0  0  0  0  0  0  0  0  0  0  0
   -2.7200   -0.7490   -3.3080 H   0  0  0  0  0  0  0  0  0  0  0  0
   -3.5310   -2.2810   -3.9500 H   0  0  0  0  0  0  0  0  0  0  0  0
   -3.0480   -2.2820   -1.4620 H   0  0  0  0  0  0  0  0  0  0  0  0
  1 11  1  0  0  0  0
  1 10  1  0  0  0  0
  2 12  1  6  0  0  0
  2  3  1  0  0  0  0
  2  1  1  0  0  0  0
  3 14  1  0  0  0  0
  3 13  1  0  0  0  0
  4 15  1  0  0  0  0
  4  3  1  0  0  0  0
  5  9  1  0  0  0  0
  5  4  1  0  0  0  0
  6  5  2  0  0  0  0
  7  8  2  0  0  0  0
  7  2  1  0  0  0  0
 16  4  1  0  0  0  0
 17  9  1  0  0  0  0
 18 29  1  0  0  0  0
 19 18  1  0  0  0  0
 19 20  2  0  0  0  0
 20 31  1  0  0  0  0
 21 22  1  0  0  0  0
 21 19  1  0  0  0  0
 22 33  1  0  0  0  0
 23 35  1  0  0  0  0
 23 24  1  0  0  0  0
 23 22  1  0  0  0  0
 24 38  1  0  0  0  0
 25 24  1  0  0  0  0
 25 39  1  1  0  0  0
 25 26  1  0  0  0  0
 26  7  1  0  0  0  0
 27 25  1  0  0  0  0
 28 27  2  0  0  0  0
 30 18  1  0  0  0  0
 32 21  1  0  0  0  0
 34 22  1  0  0  0  0
 36 23  1  0  0  0  0
 37 24  1  0  0  0  0
 40 26  1  0  0  0  0
 41 27  1  0  0  0  0
 42 49  1  0  0  0  0
 42 41  1  0  0  0  0
 43 44  1  0  0  0  0
 43 42  1  0  0  0  0
 44 53  1  0  0  0  0
 44 45  1  0  0  0  0
 45 41  1  0  0  0  0
 45 55  1  1  0  0  0
 46 48  1  0  0  0  0
 46 45  1  0  0  0  0
 47 46  2  0  0  0  0
 50 42  1  0  0  0  0
 51 43  1  0  0  0  0
 52 43  1  0  0  0  0
 54 44  1  0  0  0  0
M  END
$$$$
