ERQ.pdb
 OpenBabel07022418173D

 58 57  0  0  1  0  0  0  0  0999 V2000
    2.5640    0.3070    4.7490 N   0  0  0  0  0  0  0  0  0  0  0  0
    2.5480   -0.0700    3.3510 C   0  0  1  0  0  0  0  0  0  0  0  0
    3.4500   -1.1930    3.0270 C   0  0  0  0  0  0  0  0  0  0  0  0
    3.2990   -2.4810    3.7150 C   0  0  0  0  0  0  0  0  0  0  0  0
    2.0450   -3.2280    3.5760 C   0  0  0  0  0  0  0  0  0  0  0  0
    1.0310   -2.9070    2.9230 O   0  0  0  0  0  0  0  0  0  0  0  0
    1.2130   -0.1510    2.7520 C   0  0  0  0  0  0  0  0  0  0  0  0
    0.1530   -0.0730    3.4750 O   0  0  0  0  0  0  0  0  0  0  0  0
    1.8960   -4.4800    4.2420 O   0  0  0  0  0  0  0  0  0  0  0  0
    2.1510    1.2710    4.8030 H   0  0  0  0  0  0  0  0  0  0  0  0
    3.5800    0.4350    4.9950 H   0  0  0  0  0  0  0  0  0  0  0  0
    3.0780    0.8510    2.8570 H   0  0  0  0  0  0  0  0  0  0  0  0
    3.3770   -1.4100    1.9060 H   0  0  0  0  0  0  0  0  0  0  0  0
    4.5400   -0.8920    3.1150 H   0  0  0  0  0  0  0  0  0  0  0  0
    3.5870   -2.4260    4.8040 H   0  0  0  0  0  0  0  0  0  0  0  0
    4.1070   -3.1640    3.2960 H   0  0  0  0  0  0  0  0  0  0  0  0
    0.9770   -4.8670    4.4010 H   0  0  0  0  0  0  0  0  0  0  0  0
    2.7430    3.3000   -2.5490 N   0  0  0  0  0  0  0  0  0  0  0  0
    1.7840    3.3740   -1.5020 C   0  0  0  0  0  0  0  0  0  0  0  0
    2.1200    3.7430   -0.3030 N   0  0  0  0  0  0  0  0  0  0  0  0
    0.4260    3.0450   -1.7420 N   0  0  0  0  0  0  0  0  0  0  0  0
   -0.6150    3.1420   -0.7530 C   0  0  0  0  0  0  0  0  0  0  0  0
   -0.3620    2.0890    0.3050 C   0  0  0  0  0  0  0  0  0  0  0  0
   -0.3720    0.7310   -0.3060 C   0  0  0  0  0  0  0  0  0  0  0  0
   -0.1300   -0.3930    0.6690 C   0  0  2  0  0  0  0  0  0  0  0  0
    1.1220   -0.3120    1.3380 N   0  0  0  0  0  0  0  0  0  0  0  0
   -0.2810   -1.6500   -0.1040 C   0  0  0  0  0  0  0  0  0  0  0  0
    0.6490   -2.4800   -0.0970 O   0  0  0  0  0  0  0  0  0  0  0  0
    3.6760    2.9010   -2.3280 H   0  0  0  0  0  0  0  0  0  0  0  0
    2.5600    3.6240   -3.5220 H   0  0  0  0  0  0  0  0  0  0  0  0
    3.1210    3.9820   -0.1430 H   0  0  0  0  0  0  0  0  0  0  0  0
    0.1970    2.7100   -2.7190 H   0  0  0  0  0  0  0  0  0  0  0  0
   -0.4880    4.1270   -0.2240 H   0  0  0  0  0  0  0  0  0  0  0  0
   -1.6270    3.0740   -1.1920 H   0  0  0  0  0  0  0  0  0  0  0  0
    0.5370    2.3660    0.8480 H   0  0  0  0  0  0  0  0  0  0  0  0
   -1.2110    2.2140    1.0420 H   0  0  0  0  0  0  0  0  0  0  0  0
    0.3650    0.7010   -1.1320 H   0  0  0  0  0  0  0  0  0  0  0  0
   -1.3740    0.5730   -0.7600 H   0  0  0  0  0  0  0  0  0  0  0  0
   -0.9410   -0.3800    1.4460 H   0  0  0  0  0  0  0  0  0  0  0  0
    2.0110   -0.3710    0.7990 H   0  0  0  0  0  0  0  0  0  0  0  0
   -5.4070   -2.3280    0.3560 N   0  0  0  0  0  0  0  0  0  0  0  0
   -4.1370   -2.9700    0.2550 C   0  0  0  0  0  0  0  0  0  0  0  0
   -3.2590   -2.6440    1.0910 O   0  0  0  0  0  0  0  0  0  0  0  0
   -3.8220   -3.9770   -0.7590 C   0  0  0  0  0  0  0  0  0  0  0  0
   -2.3990   -4.2450   -1.0190 C   0  0  0  0  0  0  0  0  0  0  0  0
   -1.5550   -3.1610   -1.5840 C   0  0  2  0  0  0  0  0  0  0  0  0
   -1.4410   -1.9510   -0.8540 N   0  0  0  0  0  0  0  0  0  0  0  0
   -1.7970   -2.9380   -3.0450 C   0  0  0  0  0  0  0  0  0  0  0  0
   -1.9320   -3.8900   -3.8500 O   0  0  0  0  0  0  0  0  0  0  0  0
   -1.8800   -1.6560   -3.5730 O   0  0  0  0  0  0  0  0  0  0  0  0
   -6.1710   -2.7370    0.9180 H   0  0  0  0  0  0  0  0  0  0  0  0
   -5.5240   -1.4300   -0.1630 H   0  0  0  0  0  0  0  0  0  0  0  0
   -4.4200   -3.7320   -1.6660 H   0  0  0  0  0  0  0  0  0  0  0  0
   -4.2810   -4.9460   -0.3990 H   0  0  0  0  0  0  0  0  0  0  0  0
   -1.9230   -4.5380   -0.0380 H   0  0  0  0  0  0  0  0  0  0  0  0
   -2.2300   -5.1520   -1.6630 H   0  0  0  0  0  0  0  0  0  0  0  0
   -0.5000   -3.6180   -1.5790 H   0  0  0  0  0  0  0  0  0  0  0  0
   -2.2520   -1.2570   -0.9040 H   0  0  0  0  0  0  0  0  0  0  0  0
  1 10  1  0  0  0  0
  1 11  1  0  0  0  0
  2 12  1  6  0  0  0
  2  1  1  0  0  0  0
  3 14  1  0  0  0  0
  3  2  1  0  0  0  0
  3  4  1  0  0  0  0
  4 15  1  0  0  0  0
  5  4  1  0  0  0  0
  5  9  1  0  0  0  0
  6  5  2  0  0  0  0
  7  2  1  0  0  0  0
  7  8  2  0  0  0  0
  9 17  1  0  0  0  0
 13  3  1  0  0  0  0
 16  4  1  0  0  0  0
 18 29  1  0  0  0  0
 18 19  1  0  0  0  0
 19 20  2  0  0  0  0
 20 31  1  0  0  0  0
 21 19  1  0  0  0  0
 21 22  1  0  0  0  0
 22 33  1  0  0  0  0
 22 23  1  0  0  0  0
 23 35  1  0  0  0  0
 23 36  1  0  0  0  0
 24 23  1  0  0  0  0
 24 25  1  0  0  0  0
 25 26  1  0  0  0  0
 25 39  1  1  0  0  0
 26  7  1  0  0  0  0
 27 28  2  0  0  0  0
 27 25  1  0  0  0  0
 30 18  1  0  0  0  0
 32 21  1  0  0  0  0
 34 22  1  0  0  0  0
 37 24  1  0  0  0  0
 38 24  1  0  0  0  0
 40 26  1  0  0  0  0
 41 51  1  0  0  0  0
 42 41  1  0  0  0  0
 42 43  2  0  0  0  0
 44 54  1  0  0  0  0
 44 42  1  0  0  0  0
 45 44  1  0  0  0  0
 45 55  1  0  0  0  0
 46 57  1  1  0  0  0
 46 45  1  0  0  0  0
 46 47  1  0  0  0  0
 47 27  1  0  0  0  0
 48 46  1  0  0  0  0
 49 48  2  0  0  0  0
 50 48  1  0  0  0  0
 52 41  1  0  0  0  0
 53 44  1  0  0  0  0
 56 45  1  0  0  0  0
 58 47  1  0  0  0  0
M  END
$$$$
