ERR.pdb
 OpenBabel07022418173D

 64 63  0  0  1  0  0  0  0  0999 V2000
    2.1360   -0.5800    4.4690 N   0  0  0  0  0  0  0  0  0  0  0  0
    1.8530   -0.7430    3.0570 C   0  0  1  0  0  0  0  0  0  0  0  0
    1.6950   -2.2350    2.8310 C   0  0  0  0  0  0  0  0  0  0  0  0
    3.0410   -2.8440    3.2560 C   0  0  0  0  0  0  0  0  0  0  0  0
    4.1070   -2.2540    2.3850 C   0  0  0  0  0  0  0  0  0  0  0  0
    3.9910   -2.2350    1.1200 O   0  0  0  0  0  0  0  0  0  0  0  0
    0.6670    0.0460    2.7140 C   0  0  0  0  0  0  0  0  0  0  0  0
    0.0640    0.7140    3.6190 O   0  0  0  0  0  0  0  0  0  0  0  0
    5.2720   -1.6950    2.9170 O   0  0  0  0  0  0  0  0  0  0  0  0
    1.3430   -1.0160    5.0060 H   0  0  0  0  0  0  0  0  0  0  0  0
    2.1100    0.4580    4.7010 H   0  0  0  0  0  0  0  0  0  0  0  0
    2.7690   -0.4440    2.5110 H   0  0  0  0  0  0  0  0  0  0  0  0
    1.6400   -2.3600    1.7320 H   0  0  0  0  0  0  0  0  0  0  0  0
    0.8940   -2.6970    3.3980 H   0  0  0  0  0  0  0  0  0  0  0  0
    3.0320   -3.9360    3.1580 H   0  0  0  0  0  0  0  0  0  0  0  0
    3.3070   -2.6050    4.2980 H   0  0  0  0  0  0  0  0  0  0  0  0
    5.8680   -1.0490    2.3900 H   0  0  0  0  0  0  0  0  0  0  0  0
    1.3280    2.1480   -3.2190 N   0  0  0  0  0  0  0  0  0  0  0  0
    0.9720    3.1150   -2.2570 C   0  0  0  0  0  0  0  0  0  0  0  0
    1.8180    3.4950   -1.3340 N   0  0  0  0  0  0  0  0  0  0  0  0
   -0.2960    3.7510   -2.2140 N   0  0  0  0  0  0  0  0  0  0  0  0
   -1.0330    4.1160   -1.0540 C   0  0  0  0  0  0  0  0  0  0  0  0
   -1.6300    2.9800   -0.2890 C   0  0  0  0  0  0  0  0  0  0  0  0
   -0.5990    2.0510    0.1970 C   0  0  0  0  0  0  0  0  0  0  0  0
   -1.0660    0.9160    1.0670 C   0  0  2  0  0  0  0  0  0  0  0  0
    0.1050    0.1370    1.4140 N   0  0  0  0  0  0  0  0  0  0  0  0
   -2.2240    0.1550    0.6490 C   0  0  0  0  0  0  0  0  0  0  0  0
   -3.2550    0.7220    0.1880 O   0  0  0  0  0  0  0  0  0  0  0  0
    1.0230    1.1500   -3.1770 H   0  0  0  0  0  0  0  0  0  0  0  0
    1.9360    2.3860   -4.0560 H   0  0  0  0  0  0  0  0  0  0  0  0
    2.7660    3.0830   -1.3050 H   0  0  0  0  0  0  0  0  0  0  0  0
   -0.7140    3.9600   -3.1810 H   0  0  0  0  0  0  0  0  0  0  0  0
   -1.8080    4.9000   -1.2780 H   0  0  0  0  0  0  0  0  0  0  0  0
   -0.2660    4.5710   -0.3390 H   0  0  0  0  0  0  0  0  0  0  0  0
   -2.4330    2.4790   -0.8940 H   0  0  0  0  0  0  0  0  0  0  0  0
   -2.1430    3.4510    0.6050 H   0  0  0  0  0  0  0  0  0  0  0  0
   -0.0940    1.6030   -0.7140 H   0  0  0  0  0  0  0  0  0  0  0  0
    0.1770    2.6250    0.7290 H   0  0  0  0  0  0  0  0  0  0  0  0
   -1.3970    1.4620    2.0360 H   0  0  0  0  0  0  0  0  0  0  0  0
    0.5710   -0.3930    0.6500 H   0  0  0  0  0  0  0  0  0  0  0  0
    1.4660   -1.3160   -1.9400 N   0  0  0  0  0  0  0  0  0  0  0  0
    0.7820   -2.4300   -1.4110 C   0  0  0  0  0  0  0  0  0  0  0  0
    1.4460   -3.3910   -0.8840 N   0  0  0  0  0  0  0  0  0  0  0  0
   -0.6540   -2.5650   -1.4370 N   0  0  0  0  0  0  0  0  0  0  0  0
   -1.2830   -3.8270   -1.2760 C   0  0  0  0  0  0  0  0  0  0  0  0
   -2.7360   -3.8820   -1.2020 C   0  0  0  0  0  0  0  0  0  0  0  0
   -3.5160   -3.3110   -0.1130 C   0  0  0  0  0  0  0  0  0  0  0  0
   -3.5270   -1.9030    0.2730 C   0  0  2  0  0  0  0  0  0  0  0  0
   -2.3100   -1.2890    0.7240 N   0  0  0  0  0  0  0  0  0  0  0  0
   -4.4940   -1.8480    1.4860 C   0  0  0  0  0  0  0  0  0  0  0  0
   -5.6470   -2.3290    1.3410 O   0  0  0  0  0  0  0  0  0  0  0  0
   -4.1280   -1.3030    2.6730 O   0  0  0  0  0  0  0  0  0  0  0  0
    1.5290   -1.1550   -2.9730 H   0  0  0  0  0  0  0  0  0  0  0  0
    1.9530   -0.5870   -1.3570 H   0  0  0  0  0  0  0  0  0  0  0  0
    2.4830   -3.3400   -0.8510 H   0  0  0  0  0  0  0  0  0  0  0  0
   -1.1960   -1.7030   -1.6070 H   0  0  0  0  0  0  0  0  0  0  0  0
   -0.8510   -4.4180   -0.4230 H   0  0  0  0  0  0  0  0  0  0  0  0
   -0.9660   -4.4470   -2.1770 H   0  0  0  0  0  0  0  0  0  0  0  0
   -3.1360   -3.5430   -2.2240 H   0  0  0  0  0  0  0  0  0  0  0  0
   -3.0350   -4.9990   -1.2520 H   0  0  0  0  0  0  0  0  0  0  0  0
   -4.6150   -3.6010   -0.3470 H   0  0  0  0  0  0  0  0  0  0  0  0
   -3.3690   -3.9090    0.8660 H   0  0  0  0  0  0  0  0  0  0  0  0
   -4.0800   -1.2170   -0.4300 H   0  0  0  0  0  0  0  0  0  0  0  0
   -1.4850   -1.8010    1.1020 H   0  0  0  0  0  0  0  0  0  0  0  0
  1 11  1  0  0  0  0
  1 10  1  0  0  0  0
  2 12  1  6  0  0  0
  2  1  1  0  0  0  0
  3  2  1  0  0  0  0
  3  4  1  0  0  0  0
  3 14  1  0  0  0  0
  4 16  1  0  0  0  0
  5  9  1  0  0  0  0
  5  4  1  0  0  0  0
  6  5  2  0  0  0  0
  7  2  1  0  0  0  0
  7  8  2  0  0  0  0
 13  3  1  0  0  0  0
 15  4  1  0  0  0  0
 17  9  1  0  0  0  0
 18 29  1  0  0  0  0
 18 19  1  0  0  0  0
 19 21  1  0  0  0  0
 19 20  2  0  0  0  0
 20 31  1  0  0  0  0
 21 22  1  0  0  0  0
 22 34  1  0  0  0  0
 22 23  1  0  0  0  0
 23 24  1  0  0  0  0
 23 36  1  0  0  0  0
 24 38  1  0  0  0  0
 24 25  1  0  0  0  0
 25 26  1  0  0  0  0
 25 39  1  1  0  0  0
 26  7  1  0  0  0  0
 27 49  1  0  0  0  0
 27 25  1  0  0  0  0
 28 27  2  0  0  0  0
 30 18  1  0  0  0  0
 32 21  1  0  0  0  0
 33 22  1  0  0  0  0
 35 23  1  0  0  0  0
 37 24  1  0  0  0  0
 40 26  1  0  0  0  0
 41 42  1  0  0  0  0
 41 54  1  0  0  0  0
 42 43  2  0  0  0  0
 43 55  1  0  0  0  0
 44 42  1  0  0  0  0
 44 45  1  0  0  0  0
 45 46  1  0  0  0  0
 45 57  1  0  0  0  0
 46 47  1  0  0  0  0
 47 48  1  0  0  0  0
 47 62  1  0  0  0  0
 48 63  1  6  0  0  0
 48 49  1  0  0  0  0
 48 50  1  0  0  0  0
 49 64  1  0  0  0  0
 50 52  1  0  0  0  0
 51 50  2  0  0  0  0
 53 41  1  0  0  0  0
 56 44  1  0  0  0  0
 58 45  1  0  0  0  0
 59 46  1  0  0  0  0
 60 46  1  0  0  0  0
 61 47  1  0  0  0  0
M  END
$$$$
