ERT.pdb
 OpenBabel07022418173D

 55 54  0  0  1  0  0  0  0  0999 V2000
    2.7090   -2.2780   -0.4410 N   0  0  0  0  0  0  0  0  0  0  0  0
    2.2810   -2.4160    0.9240 C   0  0  1  0  0  0  0  0  0  0  0  0
    3.4070   -2.0410    1.8490 C   0  0  0  0  0  0  0  0  0  0  0  0
    4.5680   -2.9850    1.5590 C   0  0  0  0  0  0  0  0  0  0  0  0
    5.7030   -2.6400    2.4620 C   0  0  0  0  0  0  0  0  0  0  0  0
    5.6070   -1.7070    3.2830 O   0  0  0  0  0  0  0  0  0  0  0  0
    1.0310   -1.6640    1.2130 C   0  0  0  0  0  0  0  0  0  0  0  0
    0.5290   -1.6680    2.3670 O   0  0  0  0  0  0  0  0  0  0  0  0
    6.8710   -3.3870    2.3630 O   0  0  0  0  0  0  0  0  0  0  0  0
    1.9870   -2.4030   -1.1540 H   0  0  0  0  0  0  0  0  0  0  0  0
    3.2200   -1.3990   -0.6080 H   0  0  0  0  0  0  0  0  0  0  0  0
    2.0840   -3.4990    1.0930 H   0  0  0  0  0  0  0  0  0  0  0  0
    3.1310   -2.0590    2.9060 H   0  0  0  0  0  0  0  0  0  0  0  0
    3.7350   -1.0050    1.6010 H   0  0  0  0  0  0  0  0  0  0  0  0
    4.8860   -2.8380    0.5050 H   0  0  0  0  0  0  0  0  0  0  0  0
    4.2540   -4.0380    1.6830 H   0  0  0  0  0  0  0  0  0  0  0  0
    7.6550   -3.2390    2.9960 H   0  0  0  0  0  0  0  0  0  0  0  0
    0.8030    4.6030    2.6520 N   0  0  0  0  0  0  0  0  0  0  0  0
   -0.4540    4.3520    2.0000 C   0  0  0  0  0  0  0  0  0  0  0  0
   -1.5530    4.4370    2.6490 N   0  0  0  0  0  0  0  0  0  0  0  0
   -0.4800    4.0050    0.6220 N   0  0  0  0  0  0  0  0  0  0  0  0
   -1.6540    3.5050   -0.0530 C   0  0  0  0  0  0  0  0  0  0  0  0
   -2.0150    2.0980    0.4620 C   0  0  0  0  0  0  0  0  0  0  0  0
   -0.8320    1.2510    0.1690 C   0  0  0  0  0  0  0  0  0  0  0  0
   -0.9080   -0.1780    0.5800 C   0  0  2  0  0  0  0  0  0  0  0  0
    0.3250   -0.9030    0.2420 N   0  0  0  0  0  0  0  0  0  0  0  0
   -2.0000   -0.8370   -0.1670 C   0  0  0  0  0  0  0  0  0  0  0  0
   -3.1680   -0.4300   -0.0210 O   0  0  0  0  0  0  0  0  0  0  0  0
    1.0120    4.1880    3.5720 H   0  0  0  0  0  0  0  0  0  0  0  0
    1.5160    5.2100    2.1960 H   0  0  0  0  0  0  0  0  0  0  0  0
   -1.5240    4.6960    3.6720 H   0  0  0  0  0  0  0  0  0  0  0  0
    0.4400    4.1390    0.1070 H   0  0  0  0  0  0  0  0  0  0  0  0
   -1.4040    3.3730   -1.1260 H   0  0  0  0  0  0  0  0  0  0  0  0
   -2.5210    4.1790    0.0190 H   0  0  0  0  0  0  0  0  0  0  0  0
   -2.9290    1.8350   -0.1070 H   0  0  0  0  0  0  0  0  0  0  0  0
   -2.2960    2.1360    1.5300 H   0  0  0  0  0  0  0  0  0  0  0  0
   -0.6210    1.3630   -0.9360 H   0  0  0  0  0  0  0  0  0  0  0  0
    0.0570    1.7620    0.6430 H   0  0  0  0  0  0  0  0  0  0  0  0
   -1.0920   -0.2970    1.6850 H   0  0  0  0  0  0  0  0  0  0  0  0
    0.7160   -0.8750   -0.7220 H   0  0  0  0  0  0  0  0  0  0  0  0
   -2.2150   -4.6870   -0.6120 C   0  0  0  0  0  0  0  0  0  0  0  0
   -3.3200   -3.7450   -1.0370 C   0  0  1  0  0  0  0  0  0  0  0  0
   -3.9400   -3.3020    0.1250 O   0  0  0  0  0  0  0  0  0  0  0  0
   -2.7140   -2.5970   -1.7990 C   0  0  2  0  0  0  0  0  0  0  0  0
   -1.7310   -1.9090   -1.0310 N   0  0  0  0  0  0  0  0  0  0  0  0
   -3.7150   -1.7480   -2.4820 C   0  0  0  0  0  0  0  0  0  0  0  0
   -3.6560   -0.5080   -2.4700 O   0  0  0  0  0  0  0  0  0  0  0  0
   -4.7420   -2.3680   -3.1500 O   0  0  0  0  0  0  0  0  0  0  0  0
   -2.6780   -5.6480   -0.3180 H   0  0  0  0  0  0  0  0  0  0  0  0
   -1.4390   -4.8050   -1.3920 H   0  0  0  0  0  0  0  0  0  0  0  0
   -1.7690   -4.2760    0.3380 H   0  0  0  0  0  0  0  0  0  0  0  0
   -4.0650   -4.3000   -1.6360 H   0  0  0  0  0  0  0  0  0  0  0  0
   -4.0660   -4.0450    0.7510 H   0  0  0  0  0  0  0  0  0  0  0  0
   -2.1740   -3.0850   -2.6990 H   0  0  0  0  0  0  0  0  0  0  0  0
   -0.7180   -2.2490   -1.1330 H   0  0  0  0  0  0  0  0  0  0  0  0
  1  2  1  0  0  0  0
  2 12  1  1  0  0  0
  2  7  1  0  0  0  0
  2  3  1  0  0  0  0
  3 13  1  0  0  0  0
  4 16  1  0  0  0  0
  4  3  1  0  0  0  0
  4  5  1  0  0  0  0
  5  6  2  0  0  0  0
  7  8  2  0  0  0  0
  9  5  1  0  0  0  0
  9 17  1  0  0  0  0
 10  1  1  0  0  0  0
 11  1  1  0  0  0  0
 14  3  1  0  0  0  0
 15  4  1  0  0  0  0
 18 29  1  0  0  0  0
 19 20  2  0  0  0  0
 19 18  1  0  0  0  0
 20 31  1  0  0  0  0
 21 19  1  0  0  0  0
 22 34  1  0  0  0  0
 22 23  1  0  0  0  0
 22 21  1  0  0  0  0
 23 36  1  0  0  0  0
 24 23  1  0  0  0  0
 24 25  1  0  0  0  0
 24 38  1  0  0  0  0
 25 39  1  1  0  0  0
 26 25  1  0  0  0  0
 26  7  1  0  0  0  0
 27 28  2  0  0  0  0
 27 25  1  0  0  0  0
 30 18  1  0  0  0  0
 32 21  1  0  0  0  0
 33 22  1  0  0  0  0
 35 23  1  0  0  0  0
 37 24  1  0  0  0  0
 40 26  1  0  0  0  0
 41 49  1  0  0  0  0
 41 51  1  0  0  0  0
 42 52  1  6  0  0  0
 42 41  1  0  0  0  0
 42 43  1  0  0  0  0
 43 53  1  0  0  0  0
 44 54  1  6  0  0  0
 44 42  1  0  0  0  0
 44 45  1  0  0  0  0
 45 27  1  0  0  0  0
 46 47  1  0  0  0  0
 46 44  1  0  0  0  0
 48 46  2  0  0  0  0
 50 41  1  0  0  0  0
 55 45  1  0  0  0  0
M  END
$$$$
