ERV.pdb
 OpenBabel07022418173D

 57 56  0  0  1  0  0  0  0  0999 V2000
    4.0310   -1.9950    1.5360 N   0  0  0  0  0  0  0  0  0  0  0  0
    3.0810   -1.5010    0.5990 C   0  0  1  0  0  0  0  0  0  0  0  0
    2.8320   -2.3190   -0.6050 C   0  0  0  0  0  0  0  0  0  0  0  0
    4.0040   -2.5710   -1.4990 C   0  0  0  0  0  0  0  0  0  0  0  0
    5.1210   -3.3170   -0.9560 C   0  0  0  0  0  0  0  0  0  0  0  0
    5.1100   -3.8380    0.1630 O   0  0  0  0  0  0  0  0  0  0  0  0
    1.8430   -1.0970    1.3100 C   0  0  0  0  0  0  0  0  0  0  0  0
    1.8010   -1.2730    2.5520 O   0  0  0  0  0  0  0  0  0  0  0  0
    6.2650   -3.4510   -1.7390 O   0  0  0  0  0  0  0  0  0  0  0  0
    4.5960   -1.2240    1.9710 H   0  0  0  0  0  0  0  0  0  0  0  0
    3.5290   -2.4510    2.3320 H   0  0  0  0  0  0  0  0  0  0  0  0
    3.5060   -0.5120    0.2190 H   0  0  0  0  0  0  0  0  0  0  0  0
    2.0180   -1.9370   -1.2560 H   0  0  0  0  0  0  0  0  0  0  0  0
    2.4720   -3.3380   -0.2660 H   0  0  0  0  0  0  0  0  0  0  0  0
    4.3200   -1.6150   -2.0000 H   0  0  0  0  0  0  0  0  0  0  0  0
    3.5970   -3.1940   -2.3630 H   0  0  0  0  0  0  0  0  0  0  0  0
    7.1410   -3.6930   -1.2810 H   0  0  0  0  0  0  0  0  0  0  0  0
    0.9140    4.2230    4.1580 N   0  0  0  0  0  0  0  0  0  0  0  0
   -0.4040    4.0210    3.7080 C   0  0  0  0  0  0  0  0  0  0  0  0
   -1.3570    3.8840    4.5540 N   0  0  0  0  0  0  0  0  0  0  0  0
   -0.7310    3.9600    2.3130 N   0  0  0  0  0  0  0  0  0  0  0  0
   -1.9630    3.3250    1.8730 C   0  0  0  0  0  0  0  0  0  0  0  0
   -1.8880    1.8070    2.1350 C   0  0  0  0  0  0  0  0  0  0  0  0
   -0.7270    1.3070    1.3550 C   0  0  0  0  0  0  0  0  0  0  0  0
   -0.4490   -0.1730    1.4850 C   0  0  2  0  0  0  0  0  0  0  0  0
    0.7110   -0.5290    0.6780 N   0  0  0  0  0  0  0  0  0  0  0  0
   -1.6500   -0.9150    1.0370 C   0  0  0  0  0  0  0  0  0  0  0  0
   -2.7650   -0.8290    1.6010 O   0  0  0  0  0  0  0  0  0  0  0  0
    1.2570    3.6870    5.0050 H   0  0  0  0  0  0  0  0  0  0  0  0
    1.5940    4.8820    3.7020 H   0  0  0  0  0  0  0  0  0  0  0  0
   -1.1590    3.9220    5.5780 H   0  0  0  0  0  0  0  0  0  0  0  0
   -0.0370    4.3920    1.6630 H   0  0  0  0  0  0  0  0  0  0  0  0
   -2.0080    3.4270    0.7710 H   0  0  0  0  0  0  0  0  0  0  0  0
   -2.8630    3.7720    2.3020 H   0  0  0  0  0  0  0  0  0  0  0  0
   -1.8810    1.5760    3.2020 H   0  0  0  0  0  0  0  0  0  0  0  0
   -2.8790    1.4400    1.7370 H   0  0  0  0  0  0  0  0  0  0  0  0
   -0.8640    1.6150    0.2990 H   0  0  0  0  0  0  0  0  0  0  0  0
    0.1900    1.8370    1.6990 H   0  0  0  0  0  0  0  0  0  0  0  0
   -0.2620   -0.4420    2.5400 H   0  0  0  0  0  0  0  0  0  0  0  0
    0.7610   -0.3880   -0.3510 H   0  0  0  0  0  0  0  0  0  0  0  0
   -2.0580   -2.3360   -2.9660 C   0  0  0  0  0  0  0  0  0  0  0  0
   -3.1250   -2.1010   -1.9530 C   0  0  0  0  0  0  0  0  0  0  0  0
   -4.4660   -2.6180   -2.3460 C   0  0  0  0  0  0  0  0  0  0  0  0
   -2.7480   -2.5300   -0.5530 C   0  0  2  0  0  0  0  0  0  0  0  0
   -1.5730   -1.7930   -0.1030 N   0  0  0  0  0  0  0  0  0  0  0  0
   -2.3960   -3.9720   -0.4830 C   0  0  0  0  0  0  0  0  0  0  0  0
   -3.1950   -4.8990   -0.8010 O   0  0  0  0  0  0  0  0  0  0  0  0
   -1.1320   -4.4180   -0.0500 O   0  0  0  0  0  0  0  0  0  0  0  0
   -1.6090   -3.3470   -2.9240 H   0  0  0  0  0  0  0  0  0  0  0  0
   -2.5310   -2.2380   -3.9760 H   0  0  0  0  0  0  0  0  0  0  0  0
   -1.2660   -1.5650   -2.9210 H   0  0  0  0  0  0  0  0  0  0  0  0
   -3.2400   -0.9770   -1.8800 H   0  0  0  0  0  0  0  0  0  0  0  0
   -5.3070   -2.0110   -1.8950 H   0  0  0  0  0  0  0  0  0  0  0  0
   -4.6710   -3.6580   -2.1100 H   0  0  0  0  0  0  0  0  0  0  0  0
   -4.5760   -2.4570   -3.4560 H   0  0  0  0  0  0  0  0  0  0  0  0
   -3.6170   -2.3430    0.0790 H   0  0  0  0  0  0  0  0  0  0  0  0
   -0.6420   -1.8530   -0.5580 H   0  0  0  0  0  0  0  0  0  0  0  0
  1 10  1  0  0  0  0
  1 11  1  0  0  0  0
  2 12  1  6  0  0  0
  2  7  1  0  0  0  0
  2  1  1  0  0  0  0
  3 14  1  0  0  0  0
  3  2  1  0  0  0  0
  4  5  1  0  0  0  0
  4  3  1  0  0  0  0
  5  6  2  0  0  0  0
  7  8  2  0  0  0  0
  9 17  1  0  0  0  0
  9  5  1  0  0  0  0
 13  3  1  0  0  0  0
 15  4  1  0  0  0  0
 16  4  1  0  0  0  0
 18 29  1  0  0  0  0
 19 18  1  0  0  0  0
 19 20  2  0  0  0  0
 20 31  1  0  0  0  0
 21 19  1  0  0  0  0
 22 23  1  0  0  0  0
 22 34  1  0  0  0  0
 22 21  1  0  0  0  0
 23 35  1  0  0  0  0
 24 25  1  0  0  0  0
 24 38  1  0  0  0  0
 24 23  1  0  0  0  0
 25 39  1  1  0  0  0
 26  7  1  0  0  0  0
 26 25  1  0  0  0  0
 27 25  1  0  0  0  0
 27 28  2  0  0  0  0
 30 18  1  0  0  0  0
 32 21  1  0  0  0  0
 33 22  1  0  0  0  0
 36 23  1  0  0  0  0
 37 24  1  0  0  0  0
 40 26  1  0  0  0  0
 41 49  1  0  0  0  0
 41 51  1  0  0  0  0
 41 42  1  0  0  0  0
 42 52  1  0  0  0  0
 42 44  1  0  0  0  0
 43 54  1  0  0  0  0
 43 42  1  0  0  0  0
 43 53  1  0  0  0  0
 44 46  1  0  0  0  0
 44 45  1  0  0  0  0
 44 56  1  1  0  0  0
 45 27  1  0  0  0  0
 46 48  1  0  0  0  0
 47 46  2  0  0  0  0
 50 41  1  0  0  0  0
 55 43  1  0  0  0  0
 57 45  1  0  0  0  0
M  END
$$$$
