ERW.pdb
 OpenBabel07022418173D

 65 66  0  0  1  0  0  0  0  0999 V2000
   -0.1190   -0.0090    4.3010 N   0  0  0  0  0  0  0  0  0  0  0  0
    0.9460    0.1130    3.2700 C   0  0  1  0  0  0  0  0  0  0  0  0
    1.9170   -0.9540    3.5370 C   0  0  0  0  0  0  0  0  0  0  0  0
    3.1170   -1.0520    2.6500 C   0  0  0  0  0  0  0  0  0  0  0  0
    3.9660    0.1640    2.6470 C   0  0  0  0  0  0  0  0  0  0  0  0
    3.6730    1.1380    3.3610 O   0  0  0  0  0  0  0  0  0  0  0  0
    0.2830    0.2030    1.9870 C   0  0  0  0  0  0  0  0  0  0  0  0
   -1.0070    0.1700    1.9860 O   0  0  0  0  0  0  0  0  0  0  0  0
    5.1000    0.1930    1.8260 O   0  0  0  0  0  0  0  0  0  0  0  0
   -0.3640   -1.0200    4.3870 H   0  0  0  0  0  0  0  0  0  0  0  0
   -0.9500    0.4910    3.9360 H   0  0  0  0  0  0  0  0  0  0  0  0
    1.4130    1.1110    3.5460 H   0  0  0  0  0  0  0  0  0  0  0  0
    2.2870   -0.7870    4.6040 H   0  0  0  0  0  0  0  0  0  0  0  0
    1.4620   -1.9770    3.6100 H   0  0  0  0  0  0  0  0  0  0  0  0
    3.7830   -1.8720    3.0950 H   0  0  0  0  0  0  0  0  0  0  0  0
    2.8960   -1.4470    1.6470 H   0  0  0  0  0  0  0  0  0  0  0  0
    5.4370    1.0960    1.4680 H   0  0  0  0  0  0  0  0  0  0  0  0
   -2.7370    4.2580   -3.4400 N   0  0  0  0  0  0  0  0  0  0  0  0
   -1.8570    4.2920   -2.3250 C   0  0  0  0  0  0  0  0  0  0  0  0
   -0.9990    5.2690   -2.1820 N   0  0  0  0  0  0  0  0  0  0  0  0
   -1.9340    3.2450   -1.3700 N   0  0  0  0  0  0  0  0  0  0  0  0
   -1.0250    3.1930   -0.2570 C   0  0  0  0  0  0  0  0  0  0  0  0
    0.3950    2.9010   -0.6530 C   0  0  0  0  0  0  0  0  0  0  0  0
    0.5560    1.5790   -1.3600 C   0  0  0  0  0  0  0  0  0  0  0  0
    0.1200    0.4320   -0.5200 C   0  0  2  0  0  0  0  0  0  0  0  0
    0.8620    0.3300    0.7070 N   0  0  0  0  0  0  0  0  0  0  0  0
    0.1230   -0.8640   -1.2460 C   0  0  0  0  0  0  0  0  0  0  0  0
   -0.3090   -0.9970   -2.4090 O   0  0  0  0  0  0  0  0  0  0  0  0
   -2.4030    3.9490   -4.3920 H   0  0  0  0  0  0  0  0  0  0  0  0
   -3.7390    4.5270   -3.3960 H   0  0  0  0  0  0  0  0  0  0  0  0
   -0.9570    6.0280   -2.8890 H   0  0  0  0  0  0  0  0  0  0  0  0
   -2.6550    2.4970   -1.4680 H   0  0  0  0  0  0  0  0  0  0  0  0
   -1.0850    4.1820    0.2620 H   0  0  0  0  0  0  0  0  0  0  0  0
   -1.3580    2.4400    0.4840 H   0  0  0  0  0  0  0  0  0  0  0  0
    0.8440    3.6850   -1.2760 H   0  0  0  0  0  0  0  0  0  0  0  0
    0.9910    2.8650    0.2840 H   0  0  0  0  0  0  0  0  0  0  0  0
    1.6480    1.4680   -1.5610 H   0  0  0  0  0  0  0  0  0  0  0  0
    0.0800    1.6100   -2.3540 H   0  0  0  0  0  0  0  0  0  0  0  0
   -0.9570    0.5850   -0.2330 H   0  0  0  0  0  0  0  0  0  0  0  0
    1.8830    0.3650    0.6410 H   0  0  0  0  0  0  0  0  0  0  0  0
    0.6390   -2.0070   -0.5900 N   0  0  0  0  0  0  0  0  0  0  0  0
    0.7370   -3.2990   -1.1460 C   0  0  1  0  0  0  0  0  0  0  0  0
   -0.4330   -4.1910   -1.1530 C   0  0  0  0  0  0  0  0  0  0  0  0
   -1.0140   -4.5450    0.1500 C   0  0  0  0  0  0  0  0  0  0  0  0
   -0.7760   -5.7140    0.8860 C   0  0  0  0  0  0  0  0  0  0  0  0
   -1.4740   -5.6360    2.0140 N   0  0  0  0  0  0  0  0  0  0  0  0
   -2.1730   -4.4860    2.0920 C   0  0  0  0  0  0  0  0  0  0  0  0
   -3.0350   -3.9310    3.0100 C   0  0  0  0  0  0  0  0  0  0  0  0
   -3.6240   -2.7090    2.8030 C   0  0  0  0  0  0  0  0  0  0  0  0
   -3.3460   -2.0260    1.6510 C   0  0  0  0  0  0  0  0  0  0  0  0
   -2.4900   -2.5630    0.7260 C   0  0  0  0  0  0  0  0  0  0  0  0
   -1.8810   -3.8050    0.9210 C   0  0  0  0  0  0  0  0  0  0  0  0
    1.3790   -3.1950   -2.5100 C   0  0  0  0  0  0  0  0  0  0  0  0
    1.4500   -4.2690   -3.1670 O   0  0  0  0  0  0  0  0  0  0  0  0
    1.8740   -2.0620   -3.0640 O   0  0  0  0  0  0  0  0  0  0  0  0
    0.9780   -1.8920    0.4260 H   0  0  0  0  0  0  0  0  0  0  0  0
    1.5660   -3.8820   -0.5810 H   0  0  0  0  0  0  0  0  0  0  0  0
   -1.2320   -3.8540   -1.8800 H   0  0  0  0  0  0  0  0  0  0  0  0
   -0.0900   -5.1660   -1.6240 H   0  0  0  0  0  0  0  0  0  0  0  0
   -0.1190   -6.4810    0.5050 H   0  0  0  0  0  0  0  0  0  0  0  0
   -1.5040   -6.3600    2.7720 H   0  0  0  0  0  0  0  0  0  0  0  0
   -3.2360   -4.4950    3.9140 H   0  0  0  0  0  0  0  0  0  0  0  0
   -4.3110   -2.2720    3.5390 H   0  0  0  0  0  0  0  0  0  0  0  0
   -3.7910   -1.0640    1.4520 H   0  0  0  0  0  0  0  0  0  0  0  0
   -2.2360   -2.0760   -0.2060 H   0  0  0  0  0  0  0  0  0  0  0  0
  1 10  1  0  0  0  0
  2  3  1  0  0  0  0
  2 12  1  1  0  0  0
  2  1  1  0  0  0  0
  3 14  1  0  0  0  0
  3 13  1  0  0  0  0
  4 15  1  0  0  0  0
  4  3  1  0  0  0  0
  5  4  1  0  0  0  0
  5  6  2  0  0  0  0
  7  2  1  0  0  0  0
  8  7  2  0  0  0  0
  9  5  1  0  0  0  0
 11  1  1  0  0  0  0
 16  4  1  0  0  0  0
 17  9  1  0  0  0  0
 18 30  1  0  0  0  0
 18 19  1  0  0  0  0
 19 20  2  0  0  0  0
 19 21  1  0  0  0  0
 21 22  1  0  0  0  0
 22 33  1  0  0  0  0
 22 34  1  0  0  0  0
 23 22  1  0  0  0  0
 23 36  1  0  0  0  0
 24 23  1  0  0  0  0
 24 25  1  0  0  0  0
 25 39  1  1  0  0  0
 25 26  1  0  0  0  0
 26  7  1  0  0  0  0
 27 41  1  0  0  0  0
 27 25  1  0  0  0  0
 28 27  2  0  0  0  0
 29 18  1  0  0  0  0
 31 20  1  0  0  0  0
 32 21  1  0  0  0  0
 35 23  1  0  0  0  0
 37 24  1  0  0  0  0
 38 24  1  0  0  0  0
 40 26  1  0  0  0  0
 41 56  1  0  0  0  0
 42 41  1  0  0  0  0
 42 57  1  1  0  0  0
 43 42  1  0  0  0  0
 43 44  1  0  0  0  0
 44 45  2  0  0  0  0
 44 52  1  0  0  0  0
 45 46  1  0  0  0  0
 46 47  1  0  0  0  0
 46 61  1  0  0  0  0
 47 48  1  0  0  0  0
 48 62  1  0  0  0  0
 49 48  2  0  0  0  0
 49 63  1  0  0  0  0
 50 49  1  0  0  0  0
 51 52  1  0  0  0  0
 51 50  2  0  0  0  0
 52 47  2  0  0  0  0
 53 42  1  0  0  0  0
 54 53  2  0  0  0  0
 55 53  1  0  0  0  0
 58 43  1  0  0  0  0
 59 43  1  0  0  0  0
 60 45  1  0  0  0  0
 64 50  1  0  0  0  0
 65 51  1  0  0  0  0
M  END
$$$$
