ERY.pdb
 OpenBabel07022418173D

 62 62  0  0  1  0  0  0  0  0999 V2000
    4.3760   -0.8660    0.4140 N   0  0  0  0  0  0  0  0  0  0  0  0
    3.9450   -1.9210   -0.4620 C   0  0  1  0  0  0  0  0  0  0  0  0
    4.0890   -3.2610    0.2020 C   0  0  0  0  0  0  0  0  0  0  0  0
    5.5220   -3.5530    0.5980 C   0  0  0  0  0  0  0  0  0  0  0  0
    6.0590   -2.5770    1.5430 C   0  0  0  0  0  0  0  0  0  0  0  0
    5.7400   -2.6300    2.7510 O   0  0  0  0  0  0  0  0  0  0  0  0
    2.4650   -1.7230   -0.7280 C   0  0  0  0  0  0  0  0  0  0  0  0
    1.8570   -2.5580   -1.4390 O   0  0  0  0  0  0  0  0  0  0  0  0
    6.9210   -1.5870    1.1250 O   0  0  0  0  0  0  0  0  0  0  0  0
    3.8920   -0.8690    1.3310 H   0  0  0  0  0  0  0  0  0  0  0  0
    4.3290    0.0700    0.0040 H   0  0  0  0  0  0  0  0  0  0  0  0
    4.4420   -1.9140   -1.4360 H   0  0  0  0  0  0  0  0  0  0  0  0
    3.8130   -4.0430   -0.5420 H   0  0  0  0  0  0  0  0  0  0  0  0
    3.4220   -3.3320    1.0760 H   0  0  0  0  0  0  0  0  0  0  0  0
    6.1850   -3.5640   -0.3130 H   0  0  0  0  0  0  0  0  0  0  0  0
    5.5490   -4.5940    0.9820 H   0  0  0  0  0  0  0  0  0  0  0  0
    7.1390   -0.8390    1.7920 H   0  0  0  0  0  0  0  0  0  0  0  0
    1.0050    3.1080   -3.2790 N   0  0  0  0  0  0  0  0  0  0  0  0
    0.1260    2.8920   -2.2020 C   0  0  0  0  0  0  0  0  0  0  0  0
    0.4980    3.0670   -0.9620 N   0  0  0  0  0  0  0  0  0  0  0  0
   -1.2060    2.4790   -2.4040 N   0  0  0  0  0  0  0  0  0  0  0  0
   -1.8680    1.3770   -1.7690 C   0  0  0  0  0  0  0  0  0  0  0  0
   -1.3630    0.0440   -2.2160 C   0  0  0  0  0  0  0  0  0  0  0  0
    0.0570   -0.2630   -1.8690 C   0  0  0  0  0  0  0  0  0  0  0  0
    0.3490   -0.3410   -0.3900 C   0  0  2  0  0  0  0  0  0  0  0  0
    1.7770   -0.6250   -0.1920 N   0  0  0  0  0  0  0  0  0  0  0  0
   -0.3520   -1.4460    0.3070 C   0  0  0  0  0  0  0  0  0  0  0  0
    0.2920   -2.5060    0.6470 O   0  0  0  0  0  0  0  0  0  0  0  0
    2.0270    2.9370   -3.1850 H   0  0  0  0  0  0  0  0  0  0  0  0
    0.6580    3.4440   -4.2020 H   0  0  0  0  0  0  0  0  0  0  0  0
    1.4460    3.3700   -0.7320 H   0  0  0  0  0  0  0  0  0  0  0  0
   -1.7790    3.0400   -3.1120 H   0  0  0  0  0  0  0  0  0  0  0  0
   -2.9580    1.4000   -1.9280 H   0  0  0  0  0  0  0  0  0  0  0  0
   -1.7340    1.4460   -0.6580 H   0  0  0  0  0  0  0  0  0  0  0  0
   -1.5070   -0.0400   -3.3490 H   0  0  0  0  0  0  0  0  0  0  0  0
   -2.0140   -0.7540   -1.8030 H   0  0  0  0  0  0  0  0  0  0  0  0
    0.2830   -1.2570   -2.3330 H   0  0  0  0  0  0  0  0  0  0  0  0
    0.7270    0.4770   -2.3740 H   0  0  0  0  0  0  0  0  0  0  0  0
    0.1250    0.6390    0.0470 H   0  0  0  0  0  0  0  0  0  0  0  0
    2.3430    0.0500    0.4040 H   0  0  0  0  0  0  0  0  0  0  0  0
   -6.0770    2.0830    3.7180 O   0  0  0  0  0  0  0  0  0  0  0  0
   -5.2700    0.9930    3.4890 C   0  0  0  0  0  0  0  0  0  0  0  0
   -3.8890    1.2100    3.3560 C   0  0  0  0  0  0  0  0  0  0  0  0
   -3.0910    0.1190    3.1280 C   0  0  0  0  0  0  0  0  0  0  0  0
   -3.5390   -1.1780    3.0190 C   0  0  0  0  0  0  0  0  0  0  0  0
   -2.6280   -2.2840    2.7880 C   0  0  0  0  0  0  0  0  0  0  0  0
   -2.3290   -2.5990    1.3420 C   0  0  2  0  0  0  0  0  0  0  0  0
   -1.7280   -1.4570    0.6630 N   0  0  0  0  0  0  0  0  0  0  0  0
   -3.5830   -2.9890    0.6800 C   0  0  0  0  0  0  0  0  0  0  0  0
   -4.2300   -3.9690    1.1320 O   0  0  0  0  0  0  0  0  0  0  0  0
   -4.9140   -1.3790    3.1550 C   0  0  0  0  0  0  0  0  0  0  0  0
   -5.7420   -0.2990    3.3850 C   0  0  0  0  0  0  0  0  0  0  0  0
   -4.1000   -2.3300   -0.4290 O   0  0  0  0  0  0  0  0  0  0  0  0
   -6.0530    2.5800    4.5820 H   0  0  0  0  0  0  0  0  0  0  0  0
   -3.4770    2.2160    3.4310 H   0  0  0  0  0  0  0  0  0  0  0  0
   -2.0110    0.2570    3.0170 H   0  0  0  0  0  0  0  0  0  0  0  0
   -2.9880   -3.2380    3.2570 H   0  0  0  0  0  0  0  0  0  0  0  0
   -1.6420   -2.0690    3.2860 H   0  0  0  0  0  0  0  0  0  0  0  0
   -1.5640   -3.4180    1.3770 H   0  0  0  0  0  0  0  0  0  0  0  0
   -2.2760   -0.6010    0.4350 H   0  0  0  0  0  0  0  0  0  0  0  0
   -5.3200   -2.3900    3.0790 H   0  0  0  0  0  0  0  0  0  0  0  0
   -6.8320   -0.4160    3.4980 H   0  0  0  0  0  0  0  0  0  0  0  0
  1 10  1  0  0  0  0
  2 12  1  6  0  0  0
  2  3  1  0  0  0  0
  2  1  1  0  0  0  0
  3  4  1  0  0  0  0
  3 14  1  0  0  0  0
  4 16  1  0  0  0  0
  4  5  1  0  0  0  0
  5  6  2  0  0  0  0
  7  2  1  0  0  0  0
  7 26  1  0  0  0  0
  8  7  2  0  0  0  0
  9  5  1  0  0  0  0
  9 17  1  0  0  0  0
 11  1  1  0  0  0  0
 13  3  1  0  0  0  0
 15  4  1  0  0  0  0
 18 29  1  0  0  0  0
 18 19  1  0  0  0  0
 19 20  2  0  0  0  0
 20 31  1  0  0  0  0
 21 19  1  0  0  0  0
 21 22  1  0  0  0  0
 22 34  1  0  0  0  0
 23 24  1  0  0  0  0
 23 36  1  0  0  0  0
 23 22  1  0  0  0  0
 24 25  1  0  0  0  0
 25 26  1  0  0  0  0
 25 39  1  1  0  0  0
 25 27  1  0  0  0  0
 26 40  1  0  0  0  0
 27 28  2  0  0  0  0
 27 48  1  0  0  0  0
 30 18  1  0  0  0  0
 32 21  1  0  0  0  0
 33 22  1  0  0  0  0
 35 23  1  0  0  0  0
 37 24  1  0  0  0  0
 38 24  1  0  0  0  0
 41 54  1  0  0  0  0
 42 41  1  0  0  0  0
 43 55  1  0  0  0  0
 43 42  2  0  0  0  0
 44 43  1  0  0  0  0
 45 44  2  0  0  0  0
 45 51  1  0  0  0  0
 46 45  1  0  0  0  0
 46 57  1  0  0  0  0
 46 58  1  0  0  0  0
 47 59  1  6  0  0  0
 47 46  1  0  0  0  0
 48 47  1  0  0  0  0
 49 50  1  0  0  0  0
 49 47  1  0  0  0  0
 51 52  2  0  0  0  0
 52 42  1  0  0  0  0
 52 62  1  0  0  0  0
 53 49  2  0  0  0  0
 56 44  1  0  0  0  0
 60 48  1  0  0  0  0
 61 51  1  0  0  0  0
M  END
$$$$
