ESA.pdb
 OpenBabel07022418203D

 39 38  0  0  1  0  0  0  0  0999 V2000
   -0.2270   -5.0220    0.4030 N   0  0  0  0  0  0  0  0  0  0  0  0
   -0.0840   -3.6680    0.9830 C   0  0  1  0  0  0  0  0  0  0  0  0
    1.2740   -3.6520    1.6000 C   0  0  0  0  0  0  0  0  0  0  0  0
    1.6970   -2.4010    2.2690 C   0  0  0  0  0  0  0  0  0  0  0  0
    0.8530   -1.9900    3.3910 C   0  0  0  0  0  0  0  0  0  0  0  0
   -0.1370   -2.6670    3.7550 O   0  0  0  0  0  0  0  0  0  0  0  0
   -0.3390   -2.6480   -0.0350 C   0  0  0  0  0  0  0  0  0  0  0  0
   -0.3060   -2.9280   -1.2800 O   0  0  0  0  0  0  0  0  0  0  0  0
    1.1250   -0.8210    4.0980 O   0  0  0  0  0  0  0  0  0  0  0  0
   -1.2240   -5.2640    0.3990 H   0  0  0  0  0  0  0  0  0  0  0  0
    0.2450   -5.0720   -0.5220 H   0  0  0  0  0  0  0  0  0  0  0  0
   -0.8470   -3.6210    1.7770 H   0  0  0  0  0  0  0  0  0  0  0  0
    1.3290   -4.4800    2.3650 H   0  0  0  0  0  0  0  0  0  0  0  0
    2.0270   -3.9340    0.8250 H   0  0  0  0  0  0  0  0  0  0  0  0
    1.8260   -1.6240    1.4870 H   0  0  0  0  0  0  0  0  0  0  0  0
    2.7640   -2.5850    2.6240 H   0  0  0  0  0  0  0  0  0  0  0  0
    0.4710   -0.3890    4.7300 H   0  0  0  0  0  0  0  0  0  0  0  0
   -2.8360    0.5940    0.2720 O   0  0  0  0  0  0  0  0  0  0  0  0
   -2.3560    0.0240   -0.9010 C   0  0  0  0  0  0  0  0  0  0  0  0
   -0.8890   -0.3460   -0.7930 C   0  0  2  0  0  0  0  0  0  0  0  0
   -0.6440   -1.2940    0.2590 N   0  0  0  0  0  0  0  0  0  0  0  0
   -0.1130    0.8830   -0.5570 C   0  0  0  0  0  0  0  0  0  0  0  0
   -0.1780    1.7870   -1.4590 O   0  0  0  0  0  0  0  0  0  0  0  0
   -3.5910    1.2070    0.1170 H   0  0  0  0  0  0  0  0  0  0  0  0
   -2.4110    0.8140   -1.6810 H   0  0  0  0  0  0  0  0  0  0  0  0
   -2.9450   -0.8230   -1.2620 H   0  0  0  0  0  0  0  0  0  0  0  0
   -0.6310   -0.8020   -1.7560 H   0  0  0  0  0  0  0  0  0  0  0  0
   -0.7080   -0.9410    1.2370 H   0  0  0  0  0  0  0  0  0  0  0  0
    2.5570    2.5000   -0.2420 C   0  0  0  0  0  0  0  0  0  0  0  0
    1.4250    2.3950    0.7280 C   0  0  2  0  0  0  0  0  0  0  0  0
    0.6960    1.1600    0.5730 N   0  0  0  0  0  0  0  0  0  0  0  0
    0.4860    3.5580    0.6530 C   0  0  0  0  0  0  0  0  0  0  0  0
   -0.7370    3.3590    0.5160 O   0  0  0  0  0  0  0  0  0  0  0  0
    1.0470    4.8240    0.7430 O   0  0  0  0  0  0  0  0  0  0  0  0
    3.3490    3.1640    0.1610 H   0  0  0  0  0  0  0  0  0  0  0  0
    2.2010    2.8330   -1.2420 H   0  0  0  0  0  0  0  0  0  0  0  0
    2.9940    1.4850   -0.3790 H   0  0  0  0  0  0  0  0  0  0  0  0
    1.8320    2.4470    1.7660 H   0  0  0  0  0  0  0  0  0  0  0  0
    0.7520    0.4380    1.3140 H   0  0  0  0  0  0  0  0  0  0  0  0
  1  2  1  0  0  0  0
  2  3  1  0  0  0  0
  2 12  1  1  0  0  0
  3  4  1  0  0  0  0
  3 13  1  0  0  0  0
  4 16  1  0  0  0  0
  4  5  1  0  0  0  0
  5  6  2  0  0  0  0
  5  9  1  0  0  0  0
  7 21  1  0  0  0  0
  7  2  1  0  0  0  0
  8  7  2  0  0  0  0
  9 17  1  0  0  0  0
 10  1  1  0  0  0  0
 11  1  1  0  0  0  0
 14  3  1  0  0  0  0
 15  4  1  0  0  0  0
 19 20  1  0  0  0  0
 19 18  1  0  0  0  0
 20 27  1  6  0  0  0
 20 22  1  0  0  0  0
 20 21  1  0  0  0  0
 21 28  1  0  0  0  0
 22 31  1  0  0  0  0
 23 22  2  0  0  0  0
 24 18  1  0  0  0  0
 25 19  1  0  0  0  0
 26 19  1  0  0  0  0
 29 35  1  0  0  0  0
 29 30  1  0  0  0  0
 30 38  1  1  0  0  0
 31 30  1  0  0  0  0
 31 39  1  0  0  0  0
 32 30  1  0  0  0  0
 32 34  1  0  0  0  0
 33 32  2  0  0  0  0
 36 29  1  0  0  0  0
 37 29  1  0  0  0  0
M  END
$$$$
