ESC.pdb
 OpenBabel07022418203D

 40 39  0  0  1  0  0  0  0  0999 V2000
    1.4400   -2.7070   -1.5020 N   0  0  0  0  0  0  0  0  0  0  0  0
    2.4570   -1.9980   -0.7620 C   0  0  1  0  0  0  0  0  0  0  0  0
    3.3400   -1.2940   -1.7330 C   0  0  0  0  0  0  0  0  0  0  0  0
    4.0540   -2.1290   -2.7230 C   0  0  0  0  0  0  0  0  0  0  0  0
    4.9620   -3.0790   -2.0710 C   0  0  0  0  0  0  0  0  0  0  0  0
    5.5380   -3.9600   -2.7800 O   0  0  0  0  0  0  0  0  0  0  0  0
    1.8530   -0.9390    0.1130 C   0  0  0  0  0  0  0  0  0  0  0  0
    2.6430   -0.2470    0.7950 O   0  0  0  0  0  0  0  0  0  0  0  0
    5.1980   -3.0310   -0.7130 O   0  0  0  0  0  0  0  0  0  0  0  0
    1.1200   -2.2400   -2.3550 H   0  0  0  0  0  0  0  0  0  0  0  0
    1.8520   -3.6290   -1.7840 H   0  0  0  0  0  0  0  0  0  0  0  0
    3.0090   -2.7370   -0.1760 H   0  0  0  0  0  0  0  0  0  0  0  0
    2.7330   -0.4750   -2.1920 H   0  0  0  0  0  0  0  0  0  0  0  0
    4.1120   -0.7430   -1.1240 H   0  0  0  0  0  0  0  0  0  0  0  0
    4.7090   -1.4270   -3.3210 H   0  0  0  0  0  0  0  0  0  0  0  0
    3.3930   -2.6110   -3.4760 H   0  0  0  0  0  0  0  0  0  0  0  0
    5.4570   -3.8760   -0.1860 H   0  0  0  0  0  0  0  0  0  0  0  0
   -1.7960    0.7230   -0.6680 O   0  0  0  0  0  0  0  0  0  0  0  0
   -0.8180    1.3180    0.1260 C   0  0  0  0  0  0  0  0  0  0  0  0
   -0.1410    0.3130    1.0260 C   0  0  2  0  0  0  0  0  0  0  0  0
    0.4780   -0.6940    0.2000 N   0  0  0  0  0  0  0  0  0  0  0  0
   -1.0400   -0.2430    2.0400 C   0  0  0  0  0  0  0  0  0  0  0  0
   -1.1810   -1.4870    2.1170 O   0  0  0  0  0  0  0  0  0  0  0  0
   -1.3460    0.3890   -1.4750 H   0  0  0  0  0  0  0  0  0  0  0  0
   -0.1170    1.8400   -0.5360 H   0  0  0  0  0  0  0  0  0  0  0  0
   -1.3300    2.0660    0.7980 H   0  0  0  0  0  0  0  0  0  0  0  0
    0.6570    0.8900    1.5800 H   0  0  0  0  0  0  0  0  0  0  0  0
   -0.1500   -1.3050   -0.3950 H   0  0  0  0  0  0  0  0  0  0  0  0
   -1.7450    0.5790    2.9260 N   0  0  0  0  0  0  0  0  0  0  0  0
   -2.6400    0.1360    3.9470 C   0  0  1  0  0  0  0  0  0  0  0  0
   -2.0770    0.5660    5.2920 C   0  0  0  0  0  0  0  0  0  0  0  0
   -1.9220    2.3910    5.3480 S   0  0  0  0  0  0  0  0  0  0  0  0
   -4.0130    0.6690    3.7510 C   0  0  0  0  0  0  0  0  0  0  0  0
   -4.9430    0.3940    4.5450 O   0  0  0  0  0  0  0  0  0  0  0  0
   -4.2640    1.4810    2.6740 O   0  0  0  0  0  0  0  0  0  0  0  0
   -1.6050    1.6280    2.8360 H   0  0  0  0  0  0  0  0  0  0  0  0
   -2.6730   -0.9660    3.9450 H   0  0  0  0  0  0  0  0  0  0  0  0
   -2.7410    0.2560    6.1020 H   0  0  0  0  0  0  0  0  0  0  0  0
   -1.0750    0.1600    5.4700 H   0  0  0  0  0  0  0  0  0  0  0  0
   -2.7400    2.9070    4.3390 H   0  0  0  0  0  0  0  0  0  0  0  0
  1  2  1  0  0  0  0
  2 12  1  1  0  0  0
  2  7  1  0  0  0  0
  3 14  1  0  0  0  0
  3  2  1  0  0  0  0
  4  5  1  0  0  0  0
  4  3  1  0  0  0  0
  5  9  1  0  0  0  0
  6  5  2  0  0  0  0
  7 21  1  0  0  0  0
  7  8  2  0  0  0  0
  9 17  1  0  0  0  0
 10  1  1  0  0  0  0
 11  1  1  0  0  0  0
 13  3  1  0  0  0  0
 15  4  1  0  0  0  0
 16  4  1  0  0  0  0
 18 19  1  0  0  0  0
 19 26  1  0  0  0  0
 19 20  1  0  0  0  0
 20 27  1  1  0  0  0
 20 22  1  0  0  0  0
 21 20  1  0  0  0  0
 22 23  2  0  0  0  0
 22 29  1  0  0  0  0
 24 18  1  0  0  0  0
 25 19  1  0  0  0  0
 28 21  1  0  0  0  0
 29 30  1  0  0  0  0
 30 37  1  6  0  0  0
 30 31  1  0  0  0  0
 31 32  1  0  0  0  0
 31 39  1  0  0  0  0
 31 38  1  0  0  0  0
 33 30  1  0  0  0  0
 33 34  1  0  0  0  0
 35 33  2  0  0  0  0
 36 29  1  0  0  0  0
 40 32  1  0  0  0  0
M  END
$$$$
