ESE.pdb
 OpenBabel07022418203D

 45 44  0  0  1  0  0  0  0  0999 V2000
    1.0660   -3.0810    1.2560 N   0  0  0  0  0  0  0  0  0  0  0  0
    2.4050   -2.4590    1.4650 C   0  0  1  0  0  0  0  0  0  0  0  0
    3.3410   -3.3170    0.7090 C   0  0  0  0  0  0  0  0  0  0  0  0
    4.7740   -2.9770    0.6610 C   0  0  0  0  0  0  0  0  0  0  0  0
    5.1600   -1.7510   -0.0410 C   0  0  0  0  0  0  0  0  0  0  0  0
    4.4590   -1.0270   -0.7620 O   0  0  0  0  0  0  0  0  0  0  0  0
    2.2950   -1.0570    1.1690 C   0  0  0  0  0  0  0  0  0  0  0  0
    3.1120   -0.2300    1.7030 O   0  0  0  0  0  0  0  0  0  0  0  0
    6.4980   -1.3110    0.1010 O   0  0  0  0  0  0  0  0  0  0  0  0
    0.9700   -3.2250    0.2100 H   0  0  0  0  0  0  0  0  0  0  0  0
    1.1280   -4.0460    1.6500 H   0  0  0  0  0  0  0  0  0  0  0  0
    2.5880   -2.6690    2.5580 H   0  0  0  0  0  0  0  0  0  0  0  0
    3.0030   -3.5140   -0.3440 H   0  0  0  0  0  0  0  0  0  0  0  0
    3.2580   -4.3500    1.1830 H   0  0  0  0  0  0  0  0  0  0  0  0
    5.2710   -3.0500    1.6780 H   0  0  0  0  0  0  0  0  0  0  0  0
    5.2860   -3.8190    0.0940 H   0  0  0  0  0  0  0  0  0  0  0  0
    6.9500   -0.8110   -0.6660 H   0  0  0  0  0  0  0  0  0  0  0  0
    1.3560    2.6460   -1.5310 O   0  0  0  0  0  0  0  0  0  0  0  0
    1.4680    1.2600   -1.4200 C   0  0  0  0  0  0  0  0  0  0  0  0
    1.2350    0.9080    0.0290 C   0  0  2  0  0  0  0  0  0  0  0  0
    1.3210   -0.4860    0.3020 N   0  0  0  0  0  0  0  0  0  0  0  0
   -0.1330    1.3900    0.4120 C   0  0  0  0  0  0  0  0  0  0  0  0
   -0.4430    2.6080    0.2660 O   0  0  0  0  0  0  0  0  0  0  0  0
    2.0440    3.1400   -1.0410 H   0  0  0  0  0  0  0  0  0  0  0  0
    2.4960    0.9930   -1.7120 H   0  0  0  0  0  0  0  0  0  0  0  0
    0.6870    0.8410   -2.0850 H   0  0  0  0  0  0  0  0  0  0  0  0
    1.9590    1.4690    0.6180 H   0  0  0  0  0  0  0  0  0  0  0  0
    0.6040   -1.1060   -0.1840 H   0  0  0  0  0  0  0  0  0  0  0  0
   -1.1010    0.5250    0.9360 N   0  0  0  0  0  0  0  0  0  0  0  0
   -2.4510    1.0220    1.3030 C   0  0  1  0  0  0  0  0  0  0  0  0
   -3.3910    0.3240    0.3980 C   0  0  0  0  0  0  0  0  0  0  0  0
   -4.8320    0.5810    0.4510 C   0  0  0  0  0  0  0  0  0  0  0  0
   -5.5770    0.2770    1.6650 C   0  0  0  0  0  0  0  0  0  0  0  0
   -6.3210    1.1410    2.1930 O   0  0  0  0  0  0  0  0  0  0  0  0
   -2.6340    0.7560    2.7240 C   0  0  0  0  0  0  0  0  0  0  0  0
   -3.6060    1.1390    3.4020 O   0  0  0  0  0  0  0  0  0  0  0  0
   -5.4830   -0.9650    2.2590 O   0  0  0  0  0  0  0  0  0  0  0  0
   -1.6700    0.0140    3.4370 O   0  0  0  0  0  0  0  0  0  0  0  0
   -0.9150   -0.4740    1.0850 H   0  0  0  0  0  0  0  0  0  0  0  0
   -2.4460    2.1330    1.0980 H   0  0  0  0  0  0  0  0  0  0  0  0
   -3.1960   -0.7900    0.5430 H   0  0  0  0  0  0  0  0  0  0  0  0
   -3.0540    0.5720   -0.6590 H   0  0  0  0  0  0  0  0  0  0  0  0
   -5.2990   -0.0780   -0.3610 H   0  0  0  0  0  0  0  0  0  0  0  0
   -5.0500    1.6240    0.0780 H   0  0  0  0  0  0  0  0  0  0  0  0
   -6.2910   -1.3590    2.7620 H   0  0  0  0  0  0  0  0  0  0  0  0
  1  2  1  0  0  0  0
  1 11  1  0  0  0  0
  2 12  1  1  0  0  0
  3 14  1  0  0  0  0
  3  2  1  0  0  0  0
  4  3  1  0  0  0  0
  4 15  1  0  0  0  0
  5  9  1  0  0  0  0
  5  4  1  0  0  0  0
  6  5  2  0  0  0  0
  7  2  1  0  0  0  0
  7  8  2  0  0  0  0
 10  1  1  0  0  0  0
 13  3  1  0  0  0  0
 16  4  1  0  0  0  0
 17  9  1  0  0  0  0
 18 19  1  0  0  0  0
 18 24  1  0  0  0  0
 19 20  1  0  0  0  0
 20 21  1  0  0  0  0
 20 22  1  0  0  0  0
 20 27  1  1  0  0  0
 21  7  1  0  0  0  0
 22 29  1  0  0  0  0
 23 22  2  0  0  0  0
 25 19  1  0  0  0  0
 26 19  1  0  0  0  0
 28 21  1  0  0  0  0
 29 39  1  0  0  0  0
 29 30  1  0  0  0  0
 30 40  1  6  0  0  0
 30 35  1  0  0  0  0
 31 32  1  0  0  0  0
 31 41  1  0  0  0  0
 31 30  1  0  0  0  0
 32 33  1  0  0  0  0
 33 34  2  0  0  0  0
 33 37  1  0  0  0  0
 35 36  2  0  0  0  0
 35 38  1  0  0  0  0
 37 45  1  0  0  0  0
 42 31  1  0  0  0  0
 43 32  1  0  0  0  0
 44 32  1  0  0  0  0
M  END
$$$$
