ESF.pdb
 OpenBabel07022418203D

 49 49  0  0  1  0  0  0  0  0999 V2000
    0.3170    1.1650   -2.2240 N   0  0  0  0  0  0  0  0  0  0  0  0
    1.7820    1.0360   -2.2080 C   0  0  1  0  0  0  0  0  0  0  0  0
    2.3310    2.2480   -2.8580 C   0  0  0  0  0  0  0  0  0  0  0  0
    3.8020    2.3990   -2.9560 C   0  0  0  0  0  0  0  0  0  0  0  0
    4.4450    2.5360   -1.6370 C   0  0  0  0  0  0  0  0  0  0  0  0
    5.6450    2.1570   -1.4060 O   0  0  0  0  0  0  0  0  0  0  0  0
    2.2830    0.6230   -0.9160 C   0  0  0  0  0  0  0  0  0  0  0  0
    3.4450    0.1400   -0.7710 O   0  0  0  0  0  0  0  0  0  0  0  0
    3.6880    3.1160   -0.6070 O   0  0  0  0  0  0  0  0  0  0  0  0
   -0.1400    0.2900   -1.8930 H   0  0  0  0  0  0  0  0  0  0  0  0
    0.0060    1.2930   -3.2230 H   0  0  0  0  0  0  0  0  0  0  0  0
    1.9880    0.1780   -2.9320 H   0  0  0  0  0  0  0  0  0  0  0  0
    1.9430    2.3040   -3.9290 H   0  0  0  0  0  0  0  0  0  0  0  0
    1.8690    3.1660   -2.3990 H   0  0  0  0  0  0  0  0  0  0  0  0
    4.2910    1.5750   -3.5270 H   0  0  0  0  0  0  0  0  0  0  0  0
    4.0980    3.3250   -3.5360 H   0  0  0  0  0  0  0  0  0  0  0  0
    4.1700    3.4840    0.2030 H   0  0  0  0  0  0  0  0  0  0  0  0
    2.4430    2.6250    2.1790 O   0  0  0  0  0  0  0  0  0  0  0  0
    1.7810    1.4610    2.5450 C   0  0  0  0  0  0  0  0  0  0  0  0
    1.9870    0.3220    1.5820 C   0  0  2  0  0  0  0  0  0  0  0  0
    1.4890    0.7370    0.2820 N   0  0  0  0  0  0  0  0  0  0  0  0
    1.0570   -0.7730    2.0460 C   0  0  0  0  0  0  0  0  0  0  0  0
    1.2480   -1.3350    3.1570 O   0  0  0  0  0  0  0  0  0  0  0  0
    1.8260    3.3770    2.0090 H   0  0  0  0  0  0  0  0  0  0  0  0
    0.7160    1.7250    2.6700 H   0  0  0  0  0  0  0  0  0  0  0  0
    2.1190    1.0940    3.5400 H   0  0  0  0  0  0  0  0  0  0  0  0
    3.0150   -0.0350    1.5460 H   0  0  0  0  0  0  0  0  0  0  0  0
    0.5350    1.1370    0.1510 H   0  0  0  0  0  0  0  0  0  0  0  0
   -0.0500   -1.2100    1.2700 N   0  0  0  0  0  0  0  0  0  0  0  0
   -0.9060   -2.2830    1.7960 C   0  0  1  0  0  0  0  0  0  0  0  0
   -2.3310   -1.8170    1.9010 C   0  0  0  0  0  0  0  0  0  0  0  0
   -3.2720   -2.8300    2.4120 C   0  0  0  0  0  0  0  0  0  0  0  0
   -3.5250   -3.0580    3.7480 C   0  0  0  0  0  0  0  0  0  0  0  0
   -4.4250   -4.0050    4.1850 C   0  0  0  0  0  0  0  0  0  0  0  0
   -5.1150   -4.7700    3.2650 C   0  0  0  0  0  0  0  0  0  0  0  0
   -4.8820   -4.5620    1.9280 C   0  0  0  0  0  0  0  0  0  0  0  0
   -3.9720   -3.6030    1.5150 C   0  0  0  0  0  0  0  0  0  0  0  0
   -0.8380   -3.4180    0.8540 C   0  0  0  0  0  0  0  0  0  0  0  0
   -1.4170   -4.5210    1.0190 O   0  0  0  0  0  0  0  0  0  0  0  0
   -0.0890   -3.3180   -0.3270 O   0  0  0  0  0  0  0  0  0  0  0  0
   -0.2450   -0.7710    0.3450 H   0  0  0  0  0  0  0  0  0  0  0  0
   -0.5150   -2.6170    2.7920 H   0  0  0  0  0  0  0  0  0  0  0  0
   -2.3020   -0.9440    2.6220 H   0  0  0  0  0  0  0  0  0  0  0  0
   -2.6890   -1.3520    0.9500 H   0  0  0  0  0  0  0  0  0  0  0  0
   -3.0050   -2.4800    4.4920 H   0  0  0  0  0  0  0  0  0  0  0  0
   -4.6360   -4.1980    5.2280 H   0  0  0  0  0  0  0  0  0  0  0  0
   -5.8230   -5.5150    3.6090 H   0  0  0  0  0  0  0  0  0  0  0  0
   -5.4200   -5.1590    1.2060 H   0  0  0  0  0  0  0  0  0  0  0  0
   -3.8400   -3.4820    0.4280 H   0  0  0  0  0  0  0  0  0  0  0  0
  1  2  1  0  0  0  0
  1 10  1  0  0  0  0
  2 12  1  6  0  0  0
  2  7  1  0  0  0  0
  3 14  1  0  0  0  0
  3  2  1  0  0  0  0
  4  3  1  0  0  0  0
  4  5  1  0  0  0  0
  5  6  2  0  0  0  0
  5  9  1  0  0  0  0
  7  8  2  0  0  0  0
  7 21  1  0  0  0  0
  9 17  1  0  0  0  0
 11  1  1  0  0  0  0
 13  3  1  0  0  0  0
 15  4  1  0  0  0  0
 16  4  1  0  0  0  0
 18 19  1  0  0  0  0
 19 25  1  0  0  0  0
 19 26  1  0  0  0  0
 20 27  1  6  0  0  0
 20 22  1  0  0  0  0
 20 19  1  0  0  0  0
 21 20  1  0  0  0  0
 22 23  2  0  0  0  0
 24 18  1  0  0  0  0
 28 21  1  0  0  0  0
 29 30  1  0  0  0  0
 29 22  1  0  0  0  0
 30 31  1  0  0  0  0
 30 42  1  1  0  0  0
 31 32  1  0  0  0  0
 31 43  1  0  0  0  0
 32 33  1  0  0  0  0
 33 34  2  0  0  0  0
 33 45  1  0  0  0  0
 34 46  1  0  0  0  0
 35 47  1  0  0  0  0
 35 34  1  0  0  0  0
 36 35  2  0  0  0  0
 37 36  1  0  0  0  0
 37 32  2  0  0  0  0
 38 39  1  0  0  0  0
 38 30  1  0  0  0  0
 40 38  2  0  0  0  0
 41 29  1  0  0  0  0
 44 31  1  0  0  0  0
 48 36  1  0  0  0  0
 49 37  1  0  0  0  0
M  END
$$$$
