ESH.pdb
 OpenBabel07022418203D

 46 46  0  0  1  0  0  0  0  0999 V2000
    4.0120   -3.6250    0.1600 N   0  0  0  0  0  0  0  0  0  0  0  0
    3.0000   -2.5530   -0.2920 C   0  0  1  0  0  0  0  0  0  0  0  0
    1.9960   -3.3790   -0.9860 C   0  0  0  0  0  0  0  0  0  0  0  0
    0.8450   -2.7780   -1.6690 C   0  0  0  0  0  0  0  0  0  0  0  0
   -0.1060   -1.9770   -0.9330 C   0  0  0  0  0  0  0  0  0  0  0  0
   -0.2710   -0.7760   -1.2970 O   0  0  0  0  0  0  0  0  0  0  0  0
    2.6830   -1.9210    0.9760 C   0  0  0  0  0  0  0  0  0  0  0  0
    2.9510   -2.4810    2.1060 O   0  0  0  0  0  0  0  0  0  0  0  0
   -0.8300   -2.4570    0.1300 O   0  0  0  0  0  0  0  0  0  0  0  0
    4.1870   -4.2060   -0.6940 H   0  0  0  0  0  0  0  0  0  0  0  0
    3.4130   -4.2130    0.7800 H   0  0  0  0  0  0  0  0  0  0  0  0
    3.6050   -1.9430   -0.9820 H   0  0  0  0  0  0  0  0  0  0  0  0
    1.6700   -4.2110   -0.2870 H   0  0  0  0  0  0  0  0  0  0  0  0
    2.5490   -3.9850   -1.7880 H   0  0  0  0  0  0  0  0  0  0  0  0
    0.2700   -3.6480   -2.1430 H   0  0  0  0  0  0  0  0  0  0  0  0
    1.2300   -2.2510   -2.5950 H   0  0  0  0  0  0  0  0  0  0  0  0
   -1.8130   -2.2080    0.2180 H   0  0  0  0  0  0  0  0  0  0  0  0
    4.1750    0.4300    2.4560 O   0  0  0  0  0  0  0  0  0  0  0  0
    2.9270    1.0520    2.5010 C   0  0  0  0  0  0  0  0  0  0  0  0
    1.8230   -0.0390    2.3710 C   0  0  2  0  0  0  0  0  0  0  0  0
    2.0760   -0.6480    1.1140 N   0  0  0  0  0  0  0  0  0  0  0  0
    0.5520    0.4530    2.7740 C   0  0  0  0  0  0  0  0  0  0  0  0
    0.5220    0.9780    3.9610 O   0  0  0  0  0  0  0  0  0  0  0  0
    4.7240    0.7500    1.6820 H   0  0  0  0  0  0  0  0  0  0  0  0
    2.7730    1.6490    3.4030 H   0  0  0  0  0  0  0  0  0  0  0  0
    2.8460    1.6960    1.5970 H   0  0  0  0  0  0  0  0  0  0  0  0
    2.1630   -0.7840    3.1670 H   0  0  0  0  0  0  0  0  0  0  0  0
    1.7900   -0.0850    0.2680 H   0  0  0  0  0  0  0  0  0  0  0  0
   -0.7020    0.4800    2.1230 N   0  0  0  0  0  0  0  0  0  0  0  0
   -1.8810    1.0600    2.7740 C   0  0  1  0  0  0  0  0  0  0  0  0
   -2.4200    2.2000    1.9750 C   0  0  0  0  0  0  0  0  0  0  0  0
   -2.8300    1.7940    0.6130 C   0  0  0  0  0  0  0  0  0  0  0  0
   -2.0810    1.7860   -0.5430 C   0  0  0  0  0  0  0  0  0  0  0  0
   -2.8490    1.3500   -1.5590 N   0  0  0  0  0  0  0  0  0  0  0  0
   -4.0610    1.0850   -1.0670 C   0  0  0  0  0  0  0  0  0  0  0  0
   -4.0540    1.3500    0.2370 N   0  0  0  0  0  0  0  0  0  0  0  0
   -2.9550    0.0400    2.9200 C   0  0  0  0  0  0  0  0  0  0  0  0
   -2.7410   -1.1130    2.5220 O   0  0  0  0  0  0  0  0  0  0  0  0
   -4.1720    0.3410    3.4820 O   0  0  0  0  0  0  0  0  0  0  0  0
   -0.7820    0.0790    1.1650 H   0  0  0  0  0  0  0  0  0  0  0  0
   -1.5820    1.4260    3.7870 H   0  0  0  0  0  0  0  0  0  0  0  0
   -1.6480    3.0190    1.9070 H   0  0  0  0  0  0  0  0  0  0  0  0
   -3.2800    2.6280    2.5440 H   0  0  0  0  0  0  0  0  0  0  0  0
   -1.0370    2.0780   -0.6510 H   0  0  0  0  0  0  0  0  0  0  0  0
   -2.5850    1.2250   -2.5750 H   0  0  0  0  0  0  0  0  0  0  0  0
   -4.8880    0.7210   -1.6440 H   0  0  0  0  0  0  0  0  0  0  0  0
  1 11  1  0  0  0  0
  2 12  1  6  0  0  0
  2  1  1  0  0  0  0
  2  7  1  0  0  0  0
  3  2  1  0  0  0  0
  3 13  1  0  0  0  0
  4  3  1  0  0  0  0
  4  5  1  0  0  0  0
  5  9  1  0  0  0  0
  6  5  2  0  0  0  0
  7 21  1  0  0  0  0
  7  8  2  0  0  0  0
  9 17  1  0  0  0  0
 10  1  1  0  0  0  0
 14  3  1  0  0  0  0
 15  4  1  0  0  0  0
 16  4  1  0  0  0  0
 18 19  1  0  0  0  0
 19 25  1  0  0  0  0
 20 19  1  0  0  0  0
 20 22  1  0  0  0  0
 20 27  1  1  0  0  0
 21 20  1  0  0  0  0
 22 23  2  0  0  0  0
 24 18  1  0  0  0  0
 26 19  1  0  0  0  0
 28 21  1  0  0  0  0
 29 22  1  0  0  0  0
 29 30  1  0  0  0  0
 30 37  1  0  0  0  0
 30 41  1  1  0  0  0
 31 43  1  0  0  0  0
 31 30  1  0  0  0  0
 32 31  1  0  0  0  0
 33 32  2  0  0  0  0
 34 35  1  0  0  0  0
 34 33  1  0  0  0  0
 35 36  2  0  0  0  0
 36 32  1  0  0  0  0
 37 39  1  0  0  0  0
 38 37  2  0  0  0  0
 40 29  1  0  0  0  0
 42 31  1  0  0  0  0
 44 33  1  0  0  0  0
 45 34  1  0  0  0  0
 46 35  1  0  0  0  0
M  END
$$$$
