ESI.pdb
 OpenBabel07022418203D

 48 47  0  0  1  0  0  0  0  0999 V2000
    1.6340   -2.5650    1.5030 N   0  0  0  0  0  0  0  0  0  0  0  0
    2.5560   -1.4260    1.3800 C   0  0  1  0  0  0  0  0  0  0  0  0
    3.9120   -1.9050    0.9580 C   0  0  0  0  0  0  0  0  0  0  0  0
    4.9450   -0.8480    0.7960 C   0  0  0  0  0  0  0  0  0  0  0  0
    6.2240   -1.5330    0.3820 C   0  0  0  0  0  0  0  0  0  0  0  0
    6.3020   -2.7620    0.2280 O   0  0  0  0  0  0  0  0  0  0  0  0
    1.9880   -0.3980    0.4730 C   0  0  0  0  0  0  0  0  0  0  0  0
    2.5670    0.6790    0.2390 O   0  0  0  0  0  0  0  0  0  0  0  0
    7.3280   -0.7180    0.1750 O   0  0  0  0  0  0  0  0  0  0  0  0
    1.5360   -2.9550    0.5420 H   0  0  0  0  0  0  0  0  0  0  0  0
    0.7210   -2.2360    1.8280 H   0  0  0  0  0  0  0  0  0  0  0  0
    2.6470   -1.0100    2.4100 H   0  0  0  0  0  0  0  0  0  0  0  0
    4.2790   -2.6990    1.6290 H   0  0  0  0  0  0  0  0  0  0  0  0
    3.7770   -2.3870   -0.0540 H   0  0  0  0  0  0  0  0  0  0  0  0
    4.6800   -0.1980   -0.0880 H   0  0  0  0  0  0  0  0  0  0  0  0
    5.1680   -0.2740    1.6940 H   0  0  0  0  0  0  0  0  0  0  0  0
    8.2730   -1.0780    0.1200 H   0  0  0  0  0  0  0  0  0  0  0  0
    1.1980   -0.7030   -2.9280 O   0  0  0  0  0  0  0  0  0  0  0  0
   -0.0030   -0.2190   -2.4260 C   0  0  0  0  0  0  0  0  0  0  0  0
    0.1920    0.4290   -1.0720 C   0  0  2  0  0  0  0  0  0  0  0  0
    0.7230   -0.5950   -0.1900 N   0  0  0  0  0  0  0  0  0  0  0  0
   -1.0990    0.8900   -0.5020 C   0  0  0  0  0  0  0  0  0  0  0  0
   -1.7740    1.7830   -1.0770 O   0  0  0  0  0  0  0  0  0  0  0  0
    1.1440   -0.8680   -3.8870 H   0  0  0  0  0  0  0  0  0  0  0  0
   -0.7800   -0.9820   -2.4060 H   0  0  0  0  0  0  0  0  0  0  0  0
   -0.3410    0.5900   -3.1210 H   0  0  0  0  0  0  0  0  0  0  0  0
    0.8650    1.2890   -1.1300 H   0  0  0  0  0  0  0  0  0  0  0  0
    0.2300   -1.4910   -0.0020 H   0  0  0  0  0  0  0  0  0  0  0  0
   -3.2480   -1.4800    3.4330 C   0  0  0  0  0  0  0  0  0  0  0  0
   -3.4450   -1.6190    1.9500 C   0  0  0  0  0  0  0  0  0  0  0  0
   -3.8640   -0.3720    1.2570 C   0  0  2  0  0  0  0  0  0  0  0  0
   -4.0100   -0.7290   -0.2300 C   0  0  0  0  0  0  0  0  0  0  0  0
   -2.8610    0.7480    1.3060 C   0  0  2  0  0  0  0  0  0  0  0  0
   -1.6160    0.3520    0.6930 N   0  0  0  0  0  0  0  0  0  0  0  0
   -2.6980    1.3900    2.6070 C   0  0  0  0  0  0  0  0  0  0  0  0
   -1.5630    1.5450    3.0850 O   0  0  0  0  0  0  0  0  0  0  0  0
   -3.7910    1.8280    3.3110 O   0  0  0  0  0  0  0  0  0  0  0  0
   -3.9820   -0.8380    3.9190 H   0  0  0  0  0  0  0  0  0  0  0  0
   -3.2690   -2.4640    3.9530 H   0  0  0  0  0  0  0  0  0  0  0  0
   -2.2400   -1.0610    3.6280 H   0  0  0  0  0  0  0  0  0  0  0  0
   -4.2440   -2.3740    1.7950 H   0  0  0  0  0  0  0  0  0  0  0  0
   -2.5380   -2.0310    1.4650 H   0  0  0  0  0  0  0  0  0  0  0  0
   -4.8480   -0.0340    1.5980 H   0  0  0  0  0  0  0  0  0  0  0  0
   -4.0070    0.1920   -0.8550 H   0  0  0  0  0  0  0  0  0  0  0  0
   -4.9470   -1.2630   -0.4270 H   0  0  0  0  0  0  0  0  0  0  0  0
   -3.1670   -1.3520   -0.5780 H   0  0  0  0  0  0  0  0  0  0  0  0
   -3.2800    1.5460    0.6190 H   0  0  0  0  0  0  0  0  0  0  0  0
   -1.0440   -0.3950    1.1670 H   0  0  0  0  0  0  0  0  0  0  0  0
  1 11  1  0  0  0  0
  2  1  1  0  0  0  0
  2 12  1  1  0  0  0
  3  2  1  0  0  0  0
  3 13  1  0  0  0  0
  4  3  1  0  0  0  0
  4 16  1  0  0  0  0
  5  4  1  0  0  0  0
  6  5  2  0  0  0  0
  7  2  1  0  0  0  0
  8  7  2  0  0  0  0
  9  5  1  0  0  0  0
 10  1  1  0  0  0  0
 14  3  1  0  0  0  0
 15  4  1  0  0  0  0
 17  9  1  0  0  0  0
 18 19  1  0  0  0  0
 19 25  1  0  0  0  0
 19 20  1  0  0  0  0
 20 27  1  6  0  0  0
 20 22  1  0  0  0  0
 20 21  1  0  0  0  0
 21 28  1  0  0  0  0
 21  7  1  0  0  0  0
 22 34  1  0  0  0  0
 23 22  2  0  0  0  0
 24 18  1  0  0  0  0
 26 19  1  0  0  0  0
 29 40  1  0  0  0  0
 29 38  1  0  0  0  0
 29 39  1  0  0  0  0
 30 29  1  0  0  0  0
 31 33  1  0  0  0  0
 31 43  1  1  0  0  0
 31 30  1  0  0  0  0
 32 31  1  0  0  0  0
 33 47  1  6  0  0  0
 33 35  1  0  0  0  0
 34 48  1  0  0  0  0
 34 33  1  0  0  0  0
 35 36  2  0  0  0  0
 35 37  1  0  0  0  0
 41 30  1  0  0  0  0
 42 30  1  0  0  0  0
 44 32  1  0  0  0  0
 45 32  1  0  0  0  0
 46 32  1  0  0  0  0
M  END
$$$$
