ESK.pdb
 OpenBabel07022418203D

 50 49  0  0  1  0  0  0  0  0999 V2000
    1.3920   -3.7440    0.2950 N   0  0  0  0  0  0  0  0  0  0  0  0
    2.6780   -3.4270    0.8700 C   0  0  1  0  0  0  0  0  0  0  0  0
    3.7830   -4.2720    0.3760 C   0  0  0  0  0  0  0  0  0  0  0  0
    4.0710   -4.3160   -1.0700 C   0  0  0  0  0  0  0  0  0  0  0  0
    4.4540   -3.0900   -1.7560 C   0  0  0  0  0  0  0  0  0  0  0  0
    4.5880   -2.0040   -1.1940 O   0  0  0  0  0  0  0  0  0  0  0  0
    2.9110   -1.9830    0.9910 C   0  0  0  0  0  0  0  0  0  0  0  0
    3.8950   -1.5070    1.6570 O   0  0  0  0  0  0  0  0  0  0  0  0
    4.6780   -3.1580   -3.1220 O   0  0  0  0  0  0  0  0  0  0  0  0
    1.4160   -3.8110   -0.7430 H   0  0  0  0  0  0  0  0  0  0  0  0
    0.8820   -4.4980    0.7610 H   0  0  0  0  0  0  0  0  0  0  0  0
    2.5350   -3.7780    1.9690 H   0  0  0  0  0  0  0  0  0  0  0  0
    4.7320   -3.8980    0.8790 H   0  0  0  0  0  0  0  0  0  0  0  0
    3.6760   -5.3110    0.7770 H   0  0  0  0  0  0  0  0  0  0  0  0
    4.9770   -5.0080   -1.1810 H   0  0  0  0  0  0  0  0  0  0  0  0
    3.2920   -4.8970   -1.6510 H   0  0  0  0  0  0  0  0  0  0  0  0
    4.6420   -2.2920   -3.6790 H   0  0  0  0  0  0  0  0  0  0  0  0
    2.5650    2.2740   -1.0010 O   0  0  0  0  0  0  0  0  0  0  0  0
    2.4080    0.8890   -0.9730 C   0  0  0  0  0  0  0  0  0  0  0  0
    2.2000    0.3830    0.4380 C   0  0  2  0  0  0  0  0  0  0  0  0
    2.0470   -1.0480    0.3700 N   0  0  0  0  0  0  0  0  0  0  0  0
    0.9970    1.0090    1.0470 C   0  0  0  0  0  0  0  0  0  0  0  0
    0.9680    2.2600    1.1800 O   0  0  0  0  0  0  0  0  0  0  0  0
    3.4020    2.4640   -0.5040 H   0  0  0  0  0  0  0  0  0  0  0  0
    3.3180    0.4220   -1.3900 H   0  0  0  0  0  0  0  0  0  0  0  0
    1.5110    0.6570   -1.5730 H   0  0  0  0  0  0  0  0  0  0  0  0
    3.0970    0.6720    1.0380 H   0  0  0  0  0  0  0  0  0  0  0  0
    1.2450   -1.4280   -0.1730 H   0  0  0  0  0  0  0  0  0  0  0  0
   -0.1230    0.2780    1.4890 N   0  0  0  0  0  0  0  0  0  0  0  0
   -1.3140    0.8950    2.0920 C   0  0  1  0  0  0  0  0  0  0  0  0
   -2.4540    0.5630    1.1680 C   0  0  0  0  0  0  0  0  0  0  0  0
   -3.7830    1.1030    1.5940 C   0  0  0  0  0  0  0  0  0  0  0  0
   -4.8730    0.7170    0.5840 C   0  0  0  0  0  0  0  0  0  0  0  0
   -6.1650    1.3220    1.1270 C   0  0  0  0  0  0  0  0  0  0  0  0
   -5.9740    2.7440    1.2070 N   0  0  0  0  0  0  0  0  0  0  0  0
   -1.5360    0.2520    3.3890 C   0  0  0  0  0  0  0  0  0  0  0  0
   -0.7740   -0.6850    3.7950 O   0  0  0  0  0  0  0  0  0  0  0  0
   -2.5670    0.5920    4.2720 O   0  0  0  0  0  0  0  0  0  0  0  0
   -0.1210   -0.7540    1.3900 H   0  0  0  0  0  0  0  0  0  0  0  0
   -1.2000    1.9960    2.1450 H   0  0  0  0  0  0  0  0  0  0  0  0
   -2.4850   -0.5290    0.9490 H   0  0  0  0  0  0  0  0  0  0  0  0
   -2.2260    1.0360    0.1700 H   0  0  0  0  0  0  0  0  0  0  0  0
   -4.0830    0.6160    2.5340 H   0  0  0  0  0  0  0  0  0  0  0  0
   -3.7680    2.2070    1.6370 H   0  0  0  0  0  0  0  0  0  0  0  0
   -4.9940   -0.3670    0.5050 H   0  0  0  0  0  0  0  0  0  0  0  0
   -4.6440    1.1240   -0.4140 H   0  0  0  0  0  0  0  0  0  0  0  0
   -6.2720    0.9380    2.1600 H   0  0  0  0  0  0  0  0  0  0  0  0
   -7.0230    1.0700    0.4780 H   0  0  0  0  0  0  0  0  0  0  0  0
   -5.2480    3.0830    0.5190 H   0  0  0  0  0  0  0  0  0  0  0  0
   -5.7410    3.0640    2.1860 H   0  0  0  0  0  0  0  0  0  0  0  0
  1 11  1  0  0  0  0
  1  2  1  0  0  0  0
  2  7  1  0  0  0  0
  2 12  1  1  0  0  0
  3 14  1  0  0  0  0
  3  2  1  0  0  0  0
  3 13  1  0  0  0  0
  4  3  1  0  0  0  0
  5  6  2  0  0  0  0
  5  4  1  0  0  0  0
  7  8  2  0  0  0  0
  9  5  1  0  0  0  0
 10  1  1  0  0  0  0
 15  4  1  0  0  0  0
 16  4  1  0  0  0  0
 17  9  1  0  0  0  0
 18 19  1  0  0  0  0
 18 24  1  0  0  0  0
 19 20  1  0  0  0  0
 20 27  1  1  0  0  0
 20 22  1  0  0  0  0
 21 20  1  0  0  0  0
 21  7  1  0  0  0  0
 22 23  2  0  0  0  0
 22 29  1  0  0  0  0
 25 19  1  0  0  0  0
 26 19  1  0  0  0  0
 28 21  1  0  0  0  0
 29 30  1  0  0  0  0
 30 40  1  1  0  0  0
 30 36  1  0  0  0  0
 31 32  1  0  0  0  0
 31 30  1  0  0  0  0
 32 44  1  0  0  0  0
 32 43  1  0  0  0  0
 33 34  1  0  0  0  0
 33 32  1  0  0  0  0
 34 35  1  0  0  0  0
 34 47  1  0  0  0  0
 35 50  1  0  0  0  0
 36 37  2  0  0  0  0
 36 38  1  0  0  0  0
 39 29  1  0  0  0  0
 41 31  1  0  0  0  0
 42 31  1  0  0  0  0
 45 33  1  0  0  0  0
 46 33  1  0  0  0  0
 48 34  1  0  0  0  0
 49 35  1  0  0  0  0
M  END
$$$$
