ESM.pdb
 OpenBabel07022418203D

 46 45  0  0  1  0  0  0  0  0999 V2000
    1.5050   -2.1380    1.4540 N   0  0  0  0  0  0  0  0  0  0  0  0
    2.4210   -1.0430    1.1150 C   0  0  1  0  0  0  0  0  0  0  0  0
    3.7370   -1.5850    0.6680 C   0  0  0  0  0  0  0  0  0  0  0  0
    4.7630   -0.5740    0.2940 C   0  0  0  0  0  0  0  0  0  0  0  0
    6.0090   -1.2600   -0.1190 C   0  0  0  0  0  0  0  0  0  0  0  0
    6.0370   -2.5110   -0.1010 O   0  0  0  0  0  0  0  0  0  0  0  0
    1.7830   -0.1840    0.0790 C   0  0  0  0  0  0  0  0  0  0  0  0
    2.3080    0.8530   -0.3940 O   0  0  0  0  0  0  0  0  0  0  0  0
    7.1320   -0.5670   -0.5190 O   0  0  0  0  0  0  0  0  0  0  0  0
    1.0960   -2.0230    2.4010 H   0  0  0  0  0  0  0  0  0  0  0  0
    2.0180   -3.0600    1.4620 H   0  0  0  0  0  0  0  0  0  0  0  0
    2.5750   -0.4640    2.0550 H   0  0  0  0  0  0  0  0  0  0  0  0
    4.1350   -2.2530    1.4660 H   0  0  0  0  0  0  0  0  0  0  0  0
    3.5800   -2.2780   -0.2090 H   0  0  0  0  0  0  0  0  0  0  0  0
    4.4600    0.0310   -0.6110 H   0  0  0  0  0  0  0  0  0  0  0  0
    5.0440    0.1010    1.1350 H   0  0  0  0  0  0  0  0  0  0  0  0
    8.0690   -0.9530   -0.5030 H   0  0  0  0  0  0  0  0  0  0  0  0
   -1.3790   -1.5050   -2.4320 O   0  0  0  0  0  0  0  0  0  0  0  0
   -0.4980   -0.4600   -2.6930 C   0  0  0  0  0  0  0  0  0  0  0  0
   -0.1390    0.2970   -1.4380 C   0  0  2  0  0  0  0  0  0  0  0  0
    0.4920   -0.5170   -0.4410 N   0  0  0  0  0  0  0  0  0  0  0  0
   -1.3990    0.8590   -0.8450 C   0  0  0  0  0  0  0  0  0  0  0  0
   -2.1190    1.6070   -1.5460 O   0  0  0  0  0  0  0  0  0  0  0  0
   -1.2710   -2.1500   -3.1820 H   0  0  0  0  0  0  0  0  0  0  0  0
   -1.0260    0.2550   -3.3610 H   0  0  0  0  0  0  0  0  0  0  0  0
    0.4050   -0.7950   -3.2180 H   0  0  0  0  0  0  0  0  0  0  0  0
    0.4650    1.1690   -1.7380 H   0  0  0  0  0  0  0  0  0  0  0  0
    0.0400   -1.3740   -0.0610 H   0  0  0  0  0  0  0  0  0  0  0  0
   -2.2160   -1.4980    4.9770 C   0  0  0  0  0  0  0  0  0  0  0  0
   -2.9610   -0.3280    3.8320 S   0  0  0  0  0  0  0  0  0  0  0  0
   -3.3210   -1.0970    2.2360 C   0  0  0  0  0  0  0  0  0  0  0  0
   -3.9400   -0.0800    1.3200 C   0  0  0  0  0  0  0  0  0  0  0  0
   -3.0180    1.1030    1.0810 C   0  0  2  0  0  0  0  0  0  0  0  0
   -1.8100    0.5770    0.4790 N   0  0  0  0  0  0  0  0  0  0  0  0
   -2.7580    1.8500    2.3100 C   0  0  0  0  0  0  0  0  0  0  0  0
   -1.5920    1.9890    2.7500 O   0  0  0  0  0  0  0  0  0  0  0  0
   -3.8040    2.4190    3.0100 O   0  0  0  0  0  0  0  0  0  0  0  0
   -1.5860   -0.9310    5.7100 H   0  0  0  0  0  0  0  0  0  0  0  0
   -3.0030   -1.9980    5.5940 H   0  0  0  0  0  0  0  0  0  0  0  0
   -1.6040   -2.2090    4.4120 H   0  0  0  0  0  0  0  0  0  0  0  0
   -4.0760   -1.8850    2.4160 H   0  0  0  0  0  0  0  0  0  0  0  0
   -2.4410   -1.5990    1.7910 H   0  0  0  0  0  0  0  0  0  0  0  0
   -4.8770    0.2760    1.8190 H   0  0  0  0  0  0  0  0  0  0  0  0
   -4.2070   -0.5490    0.3550 H   0  0  0  0  0  0  0  0  0  0  0  0
   -3.5590    1.7540    0.3380 H   0  0  0  0  0  0  0  0  0  0  0  0
   -1.2020   -0.0440    1.0450 H   0  0  0  0  0  0  0  0  0  0  0  0
  1 11  1  0  0  0  0
  1 10  1  0  0  0  0
  2  1  1  0  0  0  0
  2 12  1  1  0  0  0
  3  2  1  0  0  0  0
  3 13  1  0  0  0  0
  4  3  1  0  0  0  0
  4 16  1  0  0  0  0
  5  6  2  0  0  0  0
  5  4  1  0  0  0  0
  7  2  1  0  0  0  0
  8  7  2  0  0  0  0
  9 17  1  0  0  0  0
  9  5  1  0  0  0  0
 14  3  1  0  0  0  0
 15  4  1  0  0  0  0
 19 18  1  0  0  0  0
 19 20  1  0  0  0  0
 20 27  1  6  0  0  0
 20 22  1  0  0  0  0
 20 21  1  0  0  0  0
 21 28  1  0  0  0  0
 21  7  1  0  0  0  0
 22 34  1  0  0  0  0
 23 22  2  0  0  0  0
 24 18  1  0  0  0  0
 25 19  1  0  0  0  0
 26 19  1  0  0  0  0
 29 39  1  0  0  0  0
 29 38  1  0  0  0  0
 30 29  1  0  0  0  0
 31 41  1  0  0  0  0
 31 30  1  0  0  0  0
 32 43  1  0  0  0  0
 32 31  1  0  0  0  0
 33 45  1  6  0  0  0
 33 32  1  0  0  0  0
 33 35  1  0  0  0  0
 34 46  1  0  0  0  0
 34 33  1  0  0  0  0
 35 36  2  0  0  0  0
 35 37  1  0  0  0  0
 40 29  1  0  0  0  0
 42 31  1  0  0  0  0
 44 32  1  0  0  0  0
M  END
$$$$
