ESQ.pdb
 OpenBabel07022418203D

 46 45  0  0  1  0  0  0  0  0999 V2000
    1.2830   -2.8100    4.1400 N   0  0  0  0  0  0  0  0  0  0  0  0
    2.1420   -1.6730    3.8940 C   0  0  1  0  0  0  0  0  0  0  0  0
    3.5720   -1.9290    4.1180 C   0  0  0  0  0  0  0  0  0  0  0  0
    4.2660   -2.9880    3.3860 C   0  0  0  0  0  0  0  0  0  0  0  0
    4.3220   -2.9160    1.9170 C   0  0  0  0  0  0  0  0  0  0  0  0
    3.8320   -2.0310    1.2080 O   0  0  0  0  0  0  0  0  0  0  0  0
    1.7390   -0.9570    2.6820 C   0  0  0  0  0  0  0  0  0  0  0  0
    2.1940    0.1700    2.3530 O   0  0  0  0  0  0  0  0  0  0  0  0
    4.9940   -3.9400    1.1890 O   0  0  0  0  0  0  0  0  0  0  0  0
    1.5930   -3.4090    4.9080 H   0  0  0  0  0  0  0  0  0  0  0  0
    0.3320   -2.4480    4.3770 H   0  0  0  0  0  0  0  0  0  0  0  0
    1.8390   -0.9440    4.7440 H   0  0  0  0  0  0  0  0  0  0  0  0
    4.1160   -0.9550    3.8920 H   0  0  0  0  0  0  0  0  0  0  0  0
    3.7800   -2.0450    5.2300 H   0  0  0  0  0  0  0  0  0  0  0  0
    5.3590   -2.9910    3.7110 H   0  0  0  0  0  0  0  0  0  0  0  0
    3.9420   -4.0270    3.6460 H   0  0  0  0  0  0  0  0  0  0  0  0
    4.7110   -4.1280    0.2370 H   0  0  0  0  0  0  0  0  0  0  0  0
   -0.0360   -2.8540   -0.5760 O   0  0  0  0  0  0  0  0  0  0  0  0
    0.6730   -1.6460   -0.6320 C   0  0  0  0  0  0  0  0  0  0  0  0
    0.3850   -0.8360    0.6150 C   0  0  2  0  0  0  0  0  0  0  0  0
    0.7820   -1.5450    1.8130 N   0  0  0  0  0  0  0  0  0  0  0  0
   -1.0600   -0.4800    0.6720 C   0  0  0  0  0  0  0  0  0  0  0  0
   -1.7330   -0.8000    1.6810 O   0  0  0  0  0  0  0  0  0  0  0  0
   -0.6750   -2.9100   -1.3290 H   0  0  0  0  0  0  0  0  0  0  0  0
    1.7650   -1.8650   -0.6690 H   0  0  0  0  0  0  0  0  0  0  0  0
    0.3780   -1.1080   -1.5490 H   0  0  0  0  0  0  0  0  0  0  0  0
    0.9650    0.1260    0.5240 H   0  0  0  0  0  0  0  0  0  0  0  0
    0.3490   -2.4790    2.0050 H   0  0  0  0  0  0  0  0  0  0  0  0
   -0.6460    3.6820   -1.9880 N   0  0  0  0  0  0  0  0  0  0  0  0
   -1.4200    3.1040   -0.9170 C   0  0  0  0  0  0  0  0  0  0  0  0
   -0.7400    2.6820    0.0520 O   0  0  0  0  0  0  0  0  0  0  0  0
   -2.8940    3.0280   -0.9710 C   0  0  0  0  0  0  0  0  0  0  0  0
   -3.4350    1.9910   -0.0710 C   0  0  0  0  0  0  0  0  0  0  0  0
   -3.1100    0.5720   -0.3560 C   0  0  2  0  0  0  0  0  0  0  0  0
   -1.7180    0.2120   -0.3780 N   0  0  0  0  0  0  0  0  0  0  0  0
   -3.8060    0.0190   -1.5300 C   0  0  0  0  0  0  0  0  0  0  0  0
   -3.1580   -0.6520   -2.3580 O   0  0  0  0  0  0  0  0  0  0  0  0
   -5.1540    0.2200   -1.7430 O   0  0  0  0  0  0  0  0  0  0  0  0
   -0.6530    4.7100   -2.0450 H   0  0  0  0  0  0  0  0  0  0  0  0
   -0.1160    3.0940   -2.6570 H   0  0  0  0  0  0  0  0  0  0  0  0
   -3.2150    2.9200   -2.0300 H   0  0  0  0  0  0  0  0  0  0  0  0
   -3.2590    4.0630   -0.6930 H   0  0  0  0  0  0  0  0  0  0  0  0
   -4.5580    2.1270   -0.0410 H   0  0  0  0  0  0  0  0  0  0  0  0
   -3.1470    2.1680    1.0110 H   0  0  0  0  0  0  0  0  0  0  0  0
   -3.5320   -0.0320    0.5320 H   0  0  0  0  0  0  0  0  0  0  0  0
   -1.0940    0.4250   -1.2110 H   0  0  0  0  0  0  0  0  0  0  0  0
  1 11  1  0  0  0  0
  1 10  1  0  0  0  0
  2  3  1  0  0  0  0
  2  1  1  0  0  0  0
  2 12  1  1  0  0  0
  3 14  1  0  0  0  0
  4 16  1  0  0  0  0
  4 15  1  0  0  0  0
  4  3  1  0  0  0  0
  5  4  1  0  0  0  0
  6  5  2  0  0  0  0
  7  2  1  0  0  0  0
  8  7  2  0  0  0  0
  9  5  1  0  0  0  0
 13  3  1  0  0  0  0
 17  9  1  0  0  0  0
 19 18  1  0  0  0  0
 19 20  1  0  0  0  0
 20 27  1  6  0  0  0
 20 22  1  0  0  0  0
 20 21  1  0  0  0  0
 21 28  1  0  0  0  0
 21  7  1  0  0  0  0
 22 23  2  0  0  0  0
 24 18  1  0  0  0  0
 25 19  1  0  0  0  0
 26 19  1  0  0  0  0
 29 30  1  0  0  0  0
 30 31  2  0  0  0  0
 32 30  1  0  0  0  0
 32 42  1  0  0  0  0
 32 33  1  0  0  0  0
 33 43  1  0  0  0  0
 33 44  1  0  0  0  0
 34 33  1  0  0  0  0
 34 45  1  1  0  0  0
 35 34  1  0  0  0  0
 35 22  1  0  0  0  0
 36 34  1  0  0  0  0
 37 36  2  0  0  0  0
 38 36  1  0  0  0  0
 39 29  1  0  0  0  0
 40 29  1  0  0  0  0
 41 32  1  0  0  0  0
 46 35  1  0  0  0  0
M  END
$$$$
