ESR.pdb
 OpenBabel07022418203D

 52 51  0  0  1  0  0  0  0  0999 V2000
    4.3210   -0.0710    1.5890 N   0  0  0  0  0  0  0  0  0  0  0  0
    3.2950   -0.2080    0.6200 C   0  0  1  0  0  0  0  0  0  0  0  0
    2.3700   -1.3540    0.8170 C   0  0  0  0  0  0  0  0  0  0  0  0
    1.5920   -1.3720    2.0810 C   0  0  0  0  0  0  0  0  0  0  0  0
    2.3260   -1.4740    3.3290 C   0  0  0  0  0  0  0  0  0  0  0  0
    3.5590   -1.6360    3.4390 O   0  0  0  0  0  0  0  0  0  0  0  0
    2.5390    1.0880    0.4370 C   0  0  0  0  0  0  0  0  0  0  0  0
    2.8270    2.1170    1.1100 O   0  0  0  0  0  0  0  0  0  0  0  0
    1.6100   -1.3850    4.5370 O   0  0  0  0  0  0  0  0  0  0  0  0
    4.7140    0.8890    1.6320 H   0  0  0  0  0  0  0  0  0  0  0  0
    5.1120   -0.7140    1.3650 H   0  0  0  0  0  0  0  0  0  0  0  0
    3.8180   -0.3990   -0.3700 H   0  0  0  0  0  0  0  0  0  0  0  0
    1.6020   -1.3430   -0.0200 H   0  0  0  0  0  0  0  0  0  0  0  0
    2.9190   -2.3330    0.7300 H   0  0  0  0  0  0  0  0  0  0  0  0
    0.9840   -0.4300    2.0980 H   0  0  0  0  0  0  0  0  0  0  0  0
    0.7930   -2.1740    1.9880 H   0  0  0  0  0  0  0  0  0  0  0  0
    2.0960   -1.2630    5.4240 H   0  0  0  0  0  0  0  0  0  0  0  0
    0.4300    2.0980   -3.0370 O   0  0  0  0  0  0  0  0  0  0  0  0
    0.9000    2.9760   -2.0800 C   0  0  0  0  0  0  0  0  0  0  0  0
    0.7510    2.4330   -0.6740 C   0  0  2  0  0  0  0  0  0  0  0  0
    1.4790    1.1960   -0.4960 N   0  0  0  0  0  0  0  0  0  0  0  0
   -0.6900    2.2180   -0.3760 C   0  0  0  0  0  0  0  0  0  0  0  0
   -1.5400    3.1410   -0.4440 O   0  0  0  0  0  0  0  0  0  0  0  0
    0.8890    2.3100   -3.8880 H   0  0  0  0  0  0  0  0  0  0  0  0
    0.3390    3.9260   -2.1850 H   0  0  0  0  0  0  0  0  0  0  0  0
    1.9580    3.2050   -2.3200 H   0  0  0  0  0  0  0  0  0  0  0  0
    1.1290    3.2320    0.0020 H   0  0  0  0  0  0  0  0  0  0  0  0
    1.2340    0.3580   -1.0570 H   0  0  0  0  0  0  0  0  0  0  0  0
   -0.9890   -5.7700    1.1600 N   0  0  0  0  0  0  0  0  0  0  0  0
   -1.9980   -4.7630    1.1750 C   0  0  0  0  0  0  0  0  0  0  0  0
   -2.8650   -4.7220    2.1500 N   0  0  0  0  0  0  0  0  0  0  0  0
   -2.1120   -3.7810    0.1620 N   0  0  0  0  0  0  0  0  0  0  0  0
   -2.6600   -2.4510    0.4270 C   0  0  0  0  0  0  0  0  0  0  0  0
   -2.6750   -1.6070   -0.8040 C   0  0  0  0  0  0  0  0  0  0  0  0
   -3.2180   -0.2390   -0.6490 C   0  0  0  0  0  0  0  0  0  0  0  0
   -2.5290    0.6710    0.3000 C   0  0  2  0  0  0  0  0  0  0  0  0
   -1.1460    0.9280    0.0020 N   0  0  0  0  0  0  0  0  0  0  0  0
   -2.7140    0.3010    1.7160 C   0  0  0  0  0  0  0  0  0  0  0  0
   -3.8380   -0.0030    2.1820 O   0  0  0  0  0  0  0  0  0  0  0  0
   -1.6450    0.2720    2.6200 O   0  0  0  0  0  0  0  0  0  0  0  0
   -0.3950   -5.8820    2.0100 H   0  0  0  0  0  0  0  0  0  0  0  0
   -0.8000   -6.4070    0.3570 H   0  0  0  0  0  0  0  0  0  0  0  0
   -2.8220   -5.4240    2.9190 H   0  0  0  0  0  0  0  0  0  0  0  0
   -1.7950   -4.0130   -0.8010 H   0  0  0  0  0  0  0  0  0  0  0  0
   -3.6880   -2.6350    0.8280 H   0  0  0  0  0  0  0  0  0  0  0  0
   -2.0350   -2.0100    1.2180 H   0  0  0  0  0  0  0  0  0  0  0  0
   -3.3650   -2.1360   -1.5310 H   0  0  0  0  0  0  0  0  0  0  0  0
   -1.6880   -1.6370   -1.3330 H   0  0  0  0  0  0  0  0  0  0  0  0
   -3.3400    0.2050   -1.6660 H   0  0  0  0  0  0  0  0  0  0  0  0
   -4.2810   -0.3580   -0.2800 H   0  0  0  0  0  0  0  0  0  0  0  0
   -3.0830    1.6690    0.2010 H   0  0  0  0  0  0  0  0  0  0  0  0
   -0.4590    0.1220    0.0700 H   0  0  0  0  0  0  0  0  0  0  0  0
  1 10  1  0  0  0  0
  2 12  1  6  0  0  0
  2  3  1  0  0  0  0
  2  1  1  0  0  0  0
  3  4  1  0  0  0  0
  4 15  1  0  0  0  0
  4  5  1  0  0  0  0
  5  6  2  0  0  0  0
  5  9  1  0  0  0  0
  7  2  1  0  0  0  0
  7  8  2  0  0  0  0
  9 17  1  0  0  0  0
 11  1  1  0  0  0  0
 13  3  1  0  0  0  0
 14  3  1  0  0  0  0
 16  4  1  0  0  0  0
 18 19  1  0  0  0  0
 19 20  1  0  0  0  0
 20 21  1  0  0  0  0
 20 22  1  0  0  0  0
 20 27  1  1  0  0  0
 21  7  1  0  0  0  0
 22 37  1  0  0  0  0
 23 22  2  0  0  0  0
 24 18  1  0  0  0  0
 25 19  1  0  0  0  0
 26 19  1  0  0  0  0
 28 21  1  0  0  0  0
 29 30  1  0  0  0  0
 29 41  1  0  0  0  0
 30 31  2  0  0  0  0
 31 43  1  0  0  0  0
 32 33  1  0  0  0  0
 32 30  1  0  0  0  0
 33 45  1  0  0  0  0
 33 46  1  0  0  0  0
 34 35  1  0  0  0  0
 34 33  1  0  0  0  0
 35 50  1  0  0  0  0
 35 36  1  0  0  0  0
 36 51  1  6  0  0  0
 36 38  1  0  0  0  0
 37 52  1  0  0  0  0
 37 36  1  0  0  0  0
 38 39  2  0  0  0  0
 38 40  1  0  0  0  0
 42 29  1  0  0  0  0
 44 32  1  0  0  0  0
 47 34  1  0  0  0  0
 48 34  1  0  0  0  0
 49 35  1  0  0  0  0
M  END
$$$$
