ESS.pdb
 OpenBabel07022418203D

 40 39  0  0  1  0  0  0  0  0999 V2000
    2.1690   -0.0550   -2.1870 N   0  0  0  0  0  0  0  0  0  0  0  0
    1.1130   -1.0640   -2.1270 C   0  0  1  0  0  0  0  0  0  0  0  0
    1.6420   -2.3320   -2.6940 C   0  0  0  0  0  0  0  0  0  0  0  0
    0.6280   -3.4180   -2.6730 C   0  0  0  0  0  0  0  0  0  0  0  0
    1.1510   -4.6910   -3.2610 C   0  0  0  0  0  0  0  0  0  0  0  0
    0.3740   -5.6660   -3.2890 O   0  0  0  0  0  0  0  0  0  0  0  0
    0.5160   -1.1410   -0.7920 C   0  0  0  0  0  0  0  0  0  0  0  0
   -0.4680   -1.8720   -0.5210 O   0  0  0  0  0  0  0  0  0  0  0  0
    2.4240   -4.8390   -3.7630 O   0  0  0  0  0  0  0  0  0  0  0  0
    3.1140   -0.5060   -2.0360 H   0  0  0  0  0  0  0  0  0  0  0  0
    2.1810    0.3800   -3.1240 H   0  0  0  0  0  0  0  0  0  0  0  0
    0.3130   -0.6930   -2.8260 H   0  0  0  0  0  0  0  0  0  0  0  0
    1.8820   -2.1320   -3.7790 H   0  0  0  0  0  0  0  0  0  0  0  0
    2.6170   -2.6430   -2.2390 H   0  0  0  0  0  0  0  0  0  0  0  0
   -0.2990   -3.0690   -3.1540 H   0  0  0  0  0  0  0  0  0  0  0  0
    0.3590   -3.6910   -1.6100 H   0  0  0  0  0  0  0  0  0  0  0  0
    2.6670   -5.5130   -4.4780 H   0  0  0  0  0  0  0  0  0  0  0  0
    1.8260   -2.3450    2.1440 O   0  0  0  0  0  0  0  0  0  0  0  0
    1.4250   -1.0810    2.5700 C   0  0  0  0  0  0  0  0  0  0  0  0
    0.3980   -0.4800    1.6360 C   0  0  2  0  0  0  0  0  0  0  0  0
    1.0120   -0.3800    0.3280 N   0  0  0  0  0  0  0  0  0  0  0  0
   -0.1130    0.8130    2.1180 C   0  0  0  0  0  0  0  0  0  0  0  0
    0.0250    1.8370    1.3840 O   0  0  0  0  0  0  0  0  0  0  0  0
    2.4570   -2.6970    2.8200 H   0  0  0  0  0  0  0  0  0  0  0  0
    0.9780   -1.2150    3.5790 H   0  0  0  0  0  0  0  0  0  0  0  0
    2.3070   -0.4110    2.7090 H   0  0  0  0  0  0  0  0  0  0  0  0
   -0.4430   -1.1930    1.5830 H   0  0  0  0  0  0  0  0  0  0  0  0
    1.8310    0.2420    0.1480 H   0  0  0  0  0  0  0  0  0  0  0  0
   -3.4790    2.0010    2.9220 O   0  0  0  0  0  0  0  0  0  0  0  0
   -2.7530    2.2610    4.0590 C   0  0  0  0  0  0  0  0  0  0  0  0
   -1.2590    2.2520    3.8400 C   0  0  2  0  0  0  0  0  0  0  0  0
   -0.7580    1.0020    3.3610 N   0  0  0  0  0  0  0  0  0  0  0  0
   -0.6200    2.7000    5.0900 C   0  0  0  0  0  0  0  0  0  0  0  0
   -0.9400    3.7770    5.6500 O   0  0  0  0  0  0  0  0  0  0  0  0
    0.3670    1.9310    5.6900 O   0  0  0  0  0  0  0  0  0  0  0  0
   -3.6210    2.8490    2.4360 H   0  0  0  0  0  0  0  0  0  0  0  0
   -3.0100    3.3030    4.3920 H   0  0  0  0  0  0  0  0  0  0  0  0
   -3.0440    1.6130    4.9240 H   0  0  0  0  0  0  0  0  0  0  0  0
   -1.0460    3.0280    3.0610 H   0  0  0  0  0  0  0  0  0  0  0  0
   -0.8710    0.1470    3.9680 H   0  0  0  0  0  0  0  0  0  0  0  0
  1  2  1  0  0  0  0
  1 10  1  0  0  0  0
  2 12  1  6  0  0  0
  2  7  1  0  0  0  0
  3  4  1  0  0  0  0
  3 14  1  0  0  0  0
  3  2  1  0  0  0  0
  4 16  1  0  0  0  0
  5  4  1  0  0  0  0
  6  5  2  0  0  0  0
  7  8  2  0  0  0  0
  7 21  1  0  0  0  0
  9  5  1  0  0  0  0
 11  1  1  0  0  0  0
 13  3  1  0  0  0  0
 15  4  1  0  0  0  0
 17  9  1  0  0  0  0
 18 19  1  0  0  0  0
 18 24  1  0  0  0  0
 19 26  1  0  0  0  0
 19 25  1  0  0  0  0
 20 27  1  6  0  0  0
 20 22  1  0  0  0  0
 20 19  1  0  0  0  0
 21 20  1  0  0  0  0
 22 32  1  0  0  0  0
 23 22  2  0  0  0  0
 28 21  1  0  0  0  0
 29 30  1  0  0  0  0
 30 37  1  0  0  0  0
 30 38  1  0  0  0  0
 31 39  1  6  0  0  0
 31 30  1  0  0  0  0
 31 33  1  0  0  0  0
 32 31  1  0  0  0  0
 32 40  1  0  0  0  0
 33 34  2  0  0  0  0
 33 35  1  0  0  0  0
 36 29  1  0  0  0  0
M  END
$$$$
