EST.pdb
 OpenBabel07022418203D

 43 42  0  0  1  0  0  0  0  0999 V2000
    1.6190   -2.5090    0.4720 N   0  0  0  0  0  0  0  0  0  0  0  0
    2.5750   -1.5420    0.0110 C   0  0  1  0  0  0  0  0  0  0  0  0
    3.3880   -2.1670   -1.0970 C   0  0  0  0  0  0  0  0  0  0  0  0
    4.0760   -3.3930   -0.4860 C   0  0  0  0  0  0  0  0  0  0  0  0
    4.9050   -4.0660   -1.5230 C   0  0  0  0  0  0  0  0  0  0  0  0
    6.0170   -3.5590   -1.8020 O   0  0  0  0  0  0  0  0  0  0  0  0
    1.9370   -0.2700   -0.4100 C   0  0  0  0  0  0  0  0  0  0  0  0
    2.6420    0.6700   -0.8550 O   0  0  0  0  0  0  0  0  0  0  0  0
    4.4710   -5.2030   -2.1560 O   0  0  0  0  0  0  0  0  0  0  0  0
    1.1560   -2.2060    1.3540 H   0  0  0  0  0  0  0  0  0  0  0  0
    0.9320   -2.7670   -0.2690 H   0  0  0  0  0  0  0  0  0  0  0  0
    3.2580   -1.2970    0.8690 H   0  0  0  0  0  0  0  0  0  0  0  0
    2.7480   -2.4880   -1.9230 H   0  0  0  0  0  0  0  0  0  0  0  0
    4.1920   -1.4780   -1.4570 H   0  0  0  0  0  0  0  0  0  0  0  0
    3.3330   -4.1290   -0.1380 H   0  0  0  0  0  0  0  0  0  0  0  0
    4.6740   -3.0980    0.3950 H   0  0  0  0  0  0  0  0  0  0  0  0
    5.0020   -5.6780   -2.8890 H   0  0  0  0  0  0  0  0  0  0  0  0
   -2.0300   -0.1460   -1.2800 O   0  0  0  0  0  0  0  0  0  0  0  0
   -1.1230    0.7890   -1.8030 C   0  0  0  0  0  0  0  0  0  0  0  0
   -0.1480    1.1180   -0.7160 C   0  0  2  0  0  0  0  0  0  0  0  0
    0.5390   -0.1060   -0.3160 N   0  0  0  0  0  0  0  0  0  0  0  0
   -0.9090    1.6950    0.4250 C   0  0  0  0  0  0  0  0  0  0  0  0
   -1.5510    2.7560    0.2270 O   0  0  0  0  0  0  0  0  0  0  0  0
   -2.7510   -0.3590   -1.8980 H   0  0  0  0  0  0  0  0  0  0  0  0
   -0.6760    0.3390   -2.6970 H   0  0  0  0  0  0  0  0  0  0  0  0
   -1.7170    1.6640   -2.1170 H   0  0  0  0  0  0  0  0  0  0  0  0
    0.5940    1.8490   -1.1200 H   0  0  0  0  0  0  0  0  0  0  0  0
   -0.0210   -0.9060    0.0600 H   0  0  0  0  0  0  0  0  0  0  0  0
   -3.5370    0.9700    4.2960 C   0  0  0  0  0  0  0  0  0  0  0  0
   -2.6640    0.5840    3.1530 C   0  0  1  0  0  0  0  0  0  0  0  0
   -3.4550    0.4080    1.9910 O   0  0  0  0  0  0  0  0  0  0  0  0
   -1.6180    1.5950    2.7880 C   0  0  2  0  0  0  0  0  0  0  0  0
   -0.8670    1.0190    1.6730 N   0  0  0  0  0  0  0  0  0  0  0  0
   -0.7120    1.9620    3.8720 C   0  0  0  0  0  0  0  0  0  0  0  0
   -1.1490    2.4830    4.9210 O   0  0  0  0  0  0  0  0  0  0  0  0
    0.6510    1.7500    3.7860 O   0  0  0  0  0  0  0  0  0  0  0  0
   -4.2270    0.0920    4.4740 H   0  0  0  0  0  0  0  0  0  0  0  0
   -4.2070    1.8190    4.0940 H   0  0  0  0  0  0  0  0  0  0  0  0
   -2.9590    1.0550    5.2360 H   0  0  0  0  0  0  0  0  0  0  0  0
   -2.1870   -0.3870    3.3600 H   0  0  0  0  0  0  0  0  0  0  0  0
   -3.6840   -0.5320    1.8910 H   0  0  0  0  0  0  0  0  0  0  0  0
   -2.1340    2.5250    2.4440 H   0  0  0  0  0  0  0  0  0  0  0  0
   -0.3210    0.1510    1.7720 H   0  0  0  0  0  0  0  0  0  0  0  0
  1 10  1  0  0  0  0
  2  1  1  0  0  0  0
  2 12  1  1  0  0  0
  3  4  1  0  0  0  0
  3  2  1  0  0  0  0
  4 15  1  0  0  0  0
  4 16  1  0  0  0  0
  5  4  1  0  0  0  0
  6  5  2  0  0  0  0
  7 21  1  0  0  0  0
  7  2  1  0  0  0  0
  8  7  2  0  0  0  0
  9  5  1  0  0  0  0
 11  1  1  0  0  0  0
 13  3  1  0  0  0  0
 14  3  1  0  0  0  0
 17  9  1  0  0  0  0
 19 18  1  0  0  0  0
 19 20  1  0  0  0  0
 20 27  1  6  0  0  0
 20 21  1  0  0  0  0
 20 22  1  0  0  0  0
 21 28  1  0  0  0  0
 22 33  1  0  0  0  0
 23 22  2  0  0  0  0
 24 18  1  0  0  0  0
 25 19  1  0  0  0  0
 26 19  1  0  0  0  0
 29 37  1  0  0  0  0
 29 39  1  0  0  0  0
 30 40  1  1  0  0  0
 30 29  1  0  0  0  0
 31 30  1  0  0  0  0
 32 42  1  6  0  0  0
 32 30  1  0  0  0  0
 32 34  1  0  0  0  0
 33 43  1  0  0  0  0
 33 32  1  0  0  0  0
 34 35  1  0  0  0  0
 36 34  2  0  0  0  0
 38 29  1  0  0  0  0
 41 31  1  0  0  0  0
M  END
$$$$
