ESW.pdb
 OpenBabel07022418203D

 53 54  0  0  1  0  0  0  0  0999 V2000
    2.8270   -1.6710    0.5130 N   0  0  0  0  0  0  0  0  0  0  0  0
    2.7160   -1.3180    1.9030 C   0  0  1  0  0  0  0  0  0  0  0  0
    4.0990   -1.1600    2.4630 C   0  0  0  0  0  0  0  0  0  0  0  0
    4.8680   -0.1280    1.7070 C   0  0  0  0  0  0  0  0  0  0  0  0
    4.3370    1.2310    1.7070 C   0  0  0  0  0  0  0  0  0  0  0  0
    4.1110    1.8740    2.7820 O   0  0  0  0  0  0  0  0  0  0  0  0
    1.8870   -0.1600    2.1780 C   0  0  0  0  0  0  0  0  0  0  0  0
    1.7370    0.1460    3.4180 O   0  0  0  0  0  0  0  0  0  0  0  0
    4.0380    1.9260    0.5230 O   0  0  0  0  0  0  0  0  0  0  0  0
    3.6320   -2.3010    0.3590 H   0  0  0  0  0  0  0  0  0  0  0  0
    1.9440   -1.9720    0.0800 H   0  0  0  0  0  0  0  0  0  0  0  0
    2.2920   -2.2330    2.4780 H   0  0  0  0  0  0  0  0  0  0  0  0
    4.0410   -0.8060    3.5410 H   0  0  0  0  0  0  0  0  0  0  0  0
    4.6430   -2.1320    2.5120 H   0  0  0  0  0  0  0  0  0  0  0  0
    5.0090   -0.4170    0.6270 H   0  0  0  0  0  0  0  0  0  0  0  0
    5.9290   -0.1270    2.1160 H   0  0  0  0  0  0  0  0  0  0  0  0
    4.1180    2.9450    0.5460 H   0  0  0  0  0  0  0  0  0  0  0  0
    0.6850    2.9270   -0.3770 O   0  0  0  0  0  0  0  0  0  0  0  0
    0.8190    3.0790    1.0200 C   0  0  0  0  0  0  0  0  0  0  0  0
    0.4240    1.7880    1.6650 C   0  0  2  0  0  0  0  0  0  0  0  0
    1.2260    0.6670    1.2460 N   0  0  0  0  0  0  0  0  0  0  0  0
   -1.0420    1.5070    1.4420 C   0  0  0  0  0  0  0  0  0  0  0  0
   -1.8780    2.4080    1.7380 O   0  0  0  0  0  0  0  0  0  0  0  0
    1.5460    2.6040   -0.7220 H   0  0  0  0  0  0  0  0  0  0  0  0
    0.1680    3.9270    1.3280 H   0  0  0  0  0  0  0  0  0  0  0  0
    1.8550    3.3950    1.2090 H   0  0  0  0  0  0  0  0  0  0  0  0
    0.5520    1.8890    2.7790 H   0  0  0  0  0  0  0  0  0  0  0  0
    1.3500    0.4190    0.2180 H   0  0  0  0  0  0  0  0  0  0  0  0
   -1.5240    0.3010    0.9260 N   0  0  0  0  0  0  0  0  0  0  0  0
   -2.9780    0.1100    0.7370 C   0  0  1  0  0  0  0  0  0  0  0  0
   -3.2510   -0.1050   -0.7000 C   0  0  0  0  0  0  0  0  0  0  0  0
   -2.5600   -1.2650   -1.3220 C   0  0  0  0  0  0  0  0  0  0  0  0
   -1.3330   -1.2120   -1.9850 C   0  0  0  0  0  0  0  0  0  0  0  0
   -1.0250   -2.4470   -2.3510 N   0  0  0  0  0  0  0  0  0  0  0  0
   -1.9820   -3.3170   -1.9680 C   0  0  0  0  0  0  0  0  0  0  0  0
   -2.0940   -4.7000   -2.1400 C   0  0  0  0  0  0  0  0  0  0  0  0
   -3.2070   -5.3320   -1.6460 C   0  0  0  0  0  0  0  0  0  0  0  0
   -4.1770   -4.5930   -1.0010 C   0  0  0  0  0  0  0  0  0  0  0  0
   -4.0810   -3.2400   -0.8250 C   0  0  0  0  0  0  0  0  0  0  0  0
   -2.9540   -2.5810   -1.3190 C   0  0  0  0  0  0  0  0  0  0  0  0
   -3.5160   -0.9240    1.6150 C   0  0  0  0  0  0  0  0  0  0  0  0
   -4.7220   -1.1930    1.7690 O   0  0  0  0  0  0  0  0  0  0  0  0
   -2.6000   -1.6820    2.3500 O   0  0  0  0  0  0  0  0  0  0  0  0
   -0.8550   -0.4540    0.6770 H   0  0  0  0  0  0  0  0  0  0  0  0
   -3.4980    1.0720    1.0240 H   0  0  0  0  0  0  0  0  0  0  0  0
   -4.3570   -0.2430   -0.8420 H   0  0  0  0  0  0  0  0  0  0  0  0
   -3.0010    0.8040   -1.2860 H   0  0  0  0  0  0  0  0  0  0  0  0
   -0.7710   -0.2860   -2.1430 H   0  0  0  0  0  0  0  0  0  0  0  0
   -0.1540   -2.7700   -2.8790 H   0  0  0  0  0  0  0  0  0  0  0  0
   -1.3140   -5.2470   -2.6500 H   0  0  0  0  0  0  0  0  0  0  0  0
   -3.3160   -6.4140   -1.7670 H   0  0  0  0  0  0  0  0  0  0  0  0
   -5.0320   -5.1480   -0.6340 H   0  0  0  0  0  0  0  0  0  0  0  0
   -4.8530   -2.6860   -0.3400 H   0  0  0  0  0  0  0  0  0  0  0  0
  1  2  1  0  0  0  0
  2  7  1  0  0  0  0
  2  3  1  0  0  0  0
  2 12  1  1  0  0  0
  3 14  1  0  0  0  0
  3 13  1  0  0  0  0
  4 16  1  0  0  0  0
  4  3  1  0  0  0  0
  5  4  1  0  0  0  0
  5  6  2  0  0  0  0
  7  8  2  0  0  0  0
  9 17  1  0  0  0  0
  9  5  1  0  0  0  0
 10  1  1  0  0  0  0
 11  1  1  0  0  0  0
 15  4  1  0  0  0  0
 18 19  1  0  0  0  0
 19 26  1  0  0  0  0
 19 25  1  0  0  0  0
 19 20  1  0  0  0  0
 20 27  1  1  0  0  0
 21 20  1  0  0  0  0
 21  7  1  0  0  0  0
 22 20  1  0  0  0  0
 22 23  2  0  0  0  0
 24 18  1  0  0  0  0
 28 21  1  0  0  0  0
 29 22  1  0  0  0  0
 30 29  1  0  0  0  0
 30 45  1  1  0  0  0
 30 41  1  0  0  0  0
 31 30  1  0  0  0  0
 32 40  1  0  0  0  0
 32 31  1  0  0  0  0
 33 32  2  0  0  0  0
 34 33  1  0  0  0  0
 34 35  1  0  0  0  0
 35 40  1  0  0  0  0
 36 35  2  0  0  0  0
 36 37  1  0  0  0  0
 37 38  2  0  0  0  0
 38 39  1  0  0  0  0
 38 52  1  0  0  0  0
 39 53  1  0  0  0  0
 40 39  2  0  0  0  0
 41 42  2  0  0  0  0
 41 43  1  0  0  0  0
 44 29  1  0  0  0  0
 46 31  1  0  0  0  0
 47 31  1  0  0  0  0
 48 33  1  0  0  0  0
 49 34  1  0  0  0  0
 50 36  1  0  0  0  0
 51 37  1  0  0  0  0
M  END
$$$$
