ESY.pdb
 OpenBabel07022418203D

 50 50  0  0  1  0  0  0  0  0999 V2000
    2.5930   -2.8630    1.5720 N   0  0  0  0  0  0  0  0  0  0  0  0
    3.0630   -1.4700    1.6930 C   0  0  1  0  0  0  0  0  0  0  0  0
    3.1380   -0.9110    0.3090 C   0  0  0  0  0  0  0  0  0  0  0  0
    3.6030    0.5020    0.2090 C   0  0  0  0  0  0  0  0  0  0  0  0
    4.9600    0.7490    0.7280 C   0  0  0  0  0  0  0  0  0  0  0  0
    5.6270   -0.1990    1.1860 O   0  0  0  0  0  0  0  0  0  0  0  0
    2.1120   -0.7920    2.5860 C   0  0  0  0  0  0  0  0  0  0  0  0
    2.2020   -0.8460    3.8550 O   0  0  0  0  0  0  0  0  0  0  0  0
    5.5130    2.0150    0.7200 O   0  0  0  0  0  0  0  0  0  0  0  0
    2.3870   -3.1650    2.5500 H   0  0  0  0  0  0  0  0  0  0  0  0
    1.7150   -2.8080    1.0230 H   0  0  0  0  0  0  0  0  0  0  0  0
    4.0470   -1.5370    2.2070 H   0  0  0  0  0  0  0  0  0  0  0  0
    2.0970   -0.9390   -0.1100 H   0  0  0  0  0  0  0  0  0  0  0  0
    3.7460   -1.5440   -0.3760 H   0  0  0  0  0  0  0  0  0  0  0  0
    2.8660    1.2320    0.6510 H   0  0  0  0  0  0  0  0  0  0  0  0
    3.5580    0.7580   -0.8940 H   0  0  0  0  0  0  0  0  0  0  0  0
    6.4950    2.2050    0.8070 H   0  0  0  0  0  0  0  0  0  0  0  0
    1.6050    2.4660    3.0310 O   0  0  0  0  0  0  0  0  0  0  0  0
    0.2880    2.1340    2.7490 C   0  0  0  0  0  0  0  0  0  0  0  0
    0.1060    0.6290    2.9840 C   0  0  2  0  0  0  0  0  0  0  0  0
    1.0270   -0.0310    2.0850 N   0  0  0  0  0  0  0  0  0  0  0  0
   -1.2940    0.3020    2.7310 C   0  0  0  0  0  0  0  0  0  0  0  0
   -2.1680    0.8260    3.4660 O   0  0  0  0  0  0  0  0  0  0  0  0
    1.9690    3.1770    2.4490 H   0  0  0  0  0  0  0  0  0  0  0  0
   -0.3640    2.6500    3.4670 H   0  0  0  0  0  0  0  0  0  0  0  0
    0.0710    2.3770    1.6880 H   0  0  0  0  0  0  0  0  0  0  0  0
    0.4080    0.4300    4.0080 H   0  0  0  0  0  0  0  0  0  0  0  0
    0.8310    0.0920    1.0750 H   0  0  0  0  0  0  0  0  0  0  0  0
   -1.0200   -2.5490   -4.3500 O   0  0  0  0  0  0  0  0  0  0  0  0
   -1.6920   -2.0460   -3.2290 C   0  0  0  0  0  0  0  0  0  0  0  0
   -1.2230   -0.8690   -2.6710 C   0  0  0  0  0  0  0  0  0  0  0  0
   -1.8580   -0.3430   -1.5680 C   0  0  0  0  0  0  0  0  0  0  0  0
   -2.9470   -0.9660   -1.0130 C   0  0  0  0  0  0  0  0  0  0  0  0
   -3.6140   -0.4090    0.1490 C   0  0  0  0  0  0  0  0  0  0  0  0
   -3.0910   -0.8740    1.4770 C   0  0  2  0  0  0  0  0  0  0  0  0
   -1.7170   -0.5720    1.7020 N   0  0  0  0  0  0  0  0  0  0  0  0
   -3.4260   -2.2990    1.6900 C   0  0  0  0  0  0  0  0  0  0  0  0
   -4.6080   -2.6660    1.5200 O   0  0  0  0  0  0  0  0  0  0  0  0
   -3.3940   -2.1310   -1.5830 C   0  0  0  0  0  0  0  0  0  0  0  0
   -2.7780   -2.6860   -2.6920 C   0  0  0  0  0  0  0  0  0  0  0  0
   -2.4860   -3.2340    2.0680 O   0  0  0  0  0  0  0  0  0  0  0  0
   -1.1910   -3.5130   -4.5830 H   0  0  0  0  0  0  0  0  0  0  0  0
   -0.3530   -0.3490   -3.0950 H   0  0  0  0  0  0  0  0  0  0  0  0
   -1.4440    0.5870   -1.1710 H   0  0  0  0  0  0  0  0  0  0  0  0
   -3.5610    0.7090    0.0900 H   0  0  0  0  0  0  0  0  0  0  0  0
   -4.7200   -0.6290    0.1510 H   0  0  0  0  0  0  0  0  0  0  0  0
   -3.6930   -0.3070    2.2490 H   0  0  0  0  0  0  0  0  0  0  0  0
   -0.9620   -0.9920    1.1040 H   0  0  0  0  0  0  0  0  0  0  0  0
   -4.2550   -2.6940   -1.2060 H   0  0  0  0  0  0  0  0  0  0  0  0
   -3.1140   -3.6030   -3.1570 H   0  0  0  0  0  0  0  0  0  0  0  0
  1  2  1  0  0  0  0
  1 10  1  0  0  0  0
  2 12  1  1  0  0  0
  2  7  1  0  0  0  0
  3  2  1  0  0  0  0
  4  3  1  0  0  0  0
  4 15  1  0  0  0  0
  4  5  1  0  0  0  0
  5  6  2  0  0  0  0
  7  8  2  0  0  0  0
  9  5  1  0  0  0  0
  9 17  1  0  0  0  0
 11  1  1  0  0  0  0
 13  3  1  0  0  0  0
 14  3  1  0  0  0  0
 16  4  1  0  0  0  0
 19 20  1  0  0  0  0
 19 18  1  0  0  0  0
 19 25  1  0  0  0  0
 20 27  1  1  0  0  0
 21  7  1  0  0  0  0
 21 20  1  0  0  0  0
 22 20  1  0  0  0  0
 22 23  2  0  0  0  0
 24 18  1  0  0  0  0
 26 19  1  0  0  0  0
 28 21  1  0  0  0  0
 29 30  1  0  0  0  0
 30 40  2  0  0  0  0
 30 31  1  0  0  0  0
 31 32  2  0  0  0  0
 32 44  1  0  0  0  0
 32 33  1  0  0  0  0
 33 34  1  0  0  0  0
 34 46  1  0  0  0  0
 34 35  1  0  0  0  0
 35 37  1  0  0  0  0
 35 36  1  0  0  0  0
 35 47  1  1  0  0  0
 36 22  1  0  0  0  0
 37 41  1  0  0  0  0
 38 37  2  0  0  0  0
 39 49  1  0  0  0  0
 39 33  2  0  0  0  0
 40 39  1  0  0  0  0
 42 29  1  0  0  0  0
 43 31  1  0  0  0  0
 45 34  1  0  0  0  0
 48 36  1  0  0  0  0
 50 40  1  0  0  0  0
M  END
$$$$
