ETA.pdb
 OpenBabel07022418203D

 42 41  0  0  1  0  0  0  0  0999 V2000
   -1.6580   -3.8500   -0.6340 N   0  0  0  0  0  0  0  0  0  0  0  0
   -1.4210   -2.6360    0.0830 C   0  0  1  0  0  0  0  0  0  0  0  0
   -0.7480   -2.8870    1.4230 C   0  0  0  0  0  0  0  0  0  0  0  0
   -1.6350   -3.7640    2.2940 C   0  0  0  0  0  0  0  0  0  0  0  0
   -1.0060   -4.0290    3.6130 C   0  0  0  0  0  0  0  0  0  0  0  0
    0.1560   -4.5280    3.6410 O   0  0  0  0  0  0  0  0  0  0  0  0
   -0.6620   -1.6310   -0.7150 C   0  0  0  0  0  0  0  0  0  0  0  0
   -0.2470   -1.9010   -1.8760 O   0  0  0  0  0  0  0  0  0  0  0  0
   -1.6500   -3.7470    4.8340 O   0  0  0  0  0  0  0  0  0  0  0  0
   -2.3740   -4.4020   -0.1110 H   0  0  0  0  0  0  0  0  0  0  0  0
   -2.1450   -3.5860   -1.5340 H   0  0  0  0  0  0  0  0  0  0  0  0
   -2.4070   -2.1750    0.3230 H   0  0  0  0  0  0  0  0  0  0  0  0
   -0.5890   -1.9400    1.9630 H   0  0  0  0  0  0  0  0  0  0  0  0
    0.2140   -3.3890    1.2760 H   0  0  0  0  0  0  0  0  0  0  0  0
   -1.8140   -4.7500    1.8140 H   0  0  0  0  0  0  0  0  0  0  0  0
   -2.6140   -3.2780    2.4660 H   0  0  0  0  0  0  0  0  0  0  0  0
   -1.0890   -3.3640    5.5990 H   0  0  0  0  0  0  0  0  0  0  0  0
    0.2700    2.7010   -2.2370 C   0  0  0  0  0  0  0  0  0  0  0  0
   -0.5480    1.8320   -1.3000 C   0  0  1  0  0  0  0  0  0  0  0  0
   -1.6010    1.3380   -2.0960 O   0  0  0  0  0  0  0  0  0  0  0  0
    0.3400    0.6640   -0.9080 C   0  0  2  0  0  0  0  0  0  0  0  0
   -0.3930   -0.3400   -0.1740 N   0  0  0  0  0  0  0  0  0  0  0  0
    1.4870    1.1920   -0.1710 C   0  0  0  0  0  0  0  0  0  0  0  0
    2.1950    2.0810   -0.6940 O   0  0  0  0  0  0  0  0  0  0  0  0
   -0.3600    3.0790   -3.0830 H   0  0  0  0  0  0  0  0  0  0  0  0
    0.7560    3.5520   -1.7300 H   0  0  0  0  0  0  0  0  0  0  0  0
    1.0770    2.0990   -2.7280 H   0  0  0  0  0  0  0  0  0  0  0  0
   -0.9430    2.3890   -0.4290 H   0  0  0  0  0  0  0  0  0  0  0  0
   -2.1420    2.1360   -2.3610 H   0  0  0  0  0  0  0  0  0  0  0  0
    0.6890    0.2220   -1.8540 H   0  0  0  0  0  0  0  0  0  0  0  0
   -0.7590   -0.1660    0.7870 H   0  0  0  0  0  0  0  0  0  0  0  0
    2.5230    1.7980    3.2240 C   0  0  0  0  0  0  0  0  0  0  0  0
    2.9630    1.2490    1.8810 C   0  0  2  0  0  0  0  0  0  0  0  0
    1.8280    0.7180    1.1460 N   0  0  0  0  0  0  0  0  0  0  0  0
    3.9400    0.1530    2.0300 C   0  0  0  0  0  0  0  0  0  0  0  0
    3.7210   -1.0070    1.6060 O   0  0  0  0  0  0  0  0  0  0  0  0
    5.1780    0.3560    2.6590 O   0  0  0  0  0  0  0  0  0  0  0  0
    1.4280    1.6450    3.4030 H   0  0  0  0  0  0  0  0  0  0  0  0
    3.0920    1.2240    4.0040 H   0  0  0  0  0  0  0  0  0  0  0  0
    2.8010    2.8570    3.2830 H   0  0  0  0  0  0  0  0  0  0  0  0
    3.4150    2.0490    1.2880 H   0  0  0  0  0  0  0  0  0  0  0  0
    1.1970   -0.0250    1.5150 H   0  0  0  0  0  0  0  0  0  0  0  0
  1 10  1  0  0  0  0
  1  2  1  0  0  0  0
  2 12  1  1  0  0  0
  2  3  1  0  0  0  0
  3 13  1  0  0  0  0
  3  4  1  0  0  0  0
  4 16  1  0  0  0  0
  4  5  1  0  0  0  0
  5  6  2  0  0  0  0
  5  9  1  0  0  0  0
  7 22  1  0  0  0  0
  7  2  1  0  0  0  0
  8  7  2  0  0  0  0
  9 17  1  0  0  0  0
 11  1  1  0  0  0  0
 14  3  1  0  0  0  0
 15  4  1  0  0  0  0
 18 26  1  0  0  0  0
 18 19  1  0  0  0  0
 19 21  1  0  0  0  0
 19 28  1  1  0  0  0
 20 19  1  0  0  0  0
 21 30  1  6  0  0  0
 21 22  1  0  0  0  0
 21 23  1  0  0  0  0
 22 31  1  0  0  0  0
 23 34  1  0  0  0  0
 24 23  2  0  0  0  0
 25 18  1  0  0  0  0
 27 18  1  0  0  0  0
 29 20  1  0  0  0  0
 32 40  1  0  0  0  0
 32 38  1  0  0  0  0
 32 39  1  0  0  0  0
 33 41  1  6  0  0  0
 33 35  1  0  0  0  0
 33 32  1  0  0  0  0
 34 42  1  0  0  0  0
 34 33  1  0  0  0  0
 35 37  1  0  0  0  0
 36 35  2  0  0  0  0
M  END
$$$$
