ETC.pdb
 OpenBabel07022418203D

 43 42  0  0  1  0  0  0  0  0999 V2000
    0.1420   -3.2980    1.6710 N   0  0  0  0  0  0  0  0  0  0  0  0
    0.3370   -2.2370    2.6420 C   0  0  1  0  0  0  0  0  0  0  0  0
    1.1970   -2.6540    3.7850 C   0  0  0  0  0  0  0  0  0  0  0  0
    2.5550   -3.1460    3.5050 C   0  0  0  0  0  0  0  0  0  0  0  0
    3.5320   -2.2980    2.8670 C   0  0  0  0  0  0  0  0  0  0  0  0
    3.3670   -1.1330    2.5550 O   0  0  0  0  0  0  0  0  0  0  0  0
    0.6290   -0.9280    2.1020 C   0  0  0  0  0  0  0  0  0  0  0  0
    0.6820    0.0470    2.9220 O   0  0  0  0  0  0  0  0  0  0  0  0
    4.7920   -2.8750    2.5820 O   0  0  0  0  0  0  0  0  0  0  0  0
    0.1350   -4.2080    2.1750 H   0  0  0  0  0  0  0  0  0  0  0  0
   -0.7920   -3.2140    1.2100 H   0  0  0  0  0  0  0  0  0  0  0  0
   -0.7310   -2.1790    3.1250 H   0  0  0  0  0  0  0  0  0  0  0  0
    0.6380   -3.5200    4.2750 H   0  0  0  0  0  0  0  0  0  0  0  0
    1.1770   -1.8670    4.5880 H   0  0  0  0  0  0  0  0  0  0  0  0
    2.4670   -4.1430    2.9660 H   0  0  0  0  0  0  0  0  0  0  0  0
    3.0130   -3.4480    4.5100 H   0  0  0  0  0  0  0  0  0  0  0  0
    5.4330   -2.3600    2.0070 H   0  0  0  0  0  0  0  0  0  0  0  0
    2.4940    2.3270   -1.0050 C   0  0  0  0  0  0  0  0  0  0  0  0
    2.2900    0.8900   -0.5910 C   0  0  1  0  0  0  0  0  0  0  0  0
    3.4910    0.4440   -0.0540 O   0  0  0  0  0  0  0  0  0  0  0  0
    1.1280    0.7220    0.3380 C   0  0  2  0  0  0  0  0  0  0  0  0
    0.8580   -0.6270    0.7390 N   0  0  0  0  0  0  0  0  0  0  0  0
   -0.1060    1.3040   -0.3110 C   0  0  0  0  0  0  0  0  0  0  0  0
   -0.0350    2.4810   -0.7010 O   0  0  0  0  0  0  0  0  0  0  0  0
    2.3090    2.9820   -0.1490 H   0  0  0  0  0  0  0  0  0  0  0  0
    1.9390    2.6020   -1.9250 H   0  0  0  0  0  0  0  0  0  0  0  0
    3.5780    2.4200   -1.3090 H   0  0  0  0  0  0  0  0  0  0  0  0
    2.0420    0.2610   -1.5010 H   0  0  0  0  0  0  0  0  0  0  0  0
    3.7070    1.0190    0.7230 H   0  0  0  0  0  0  0  0  0  0  0  0
    1.2900    1.3570    1.2460 H   0  0  0  0  0  0  0  0  0  0  0  0
    0.8310   -1.3830    0.0290 H   0  0  0  0  0  0  0  0  0  0  0  0
   -1.3020    0.5730   -0.4820 N   0  0  0  0  0  0  0  0  0  0  0  0
   -2.4550    1.1750   -1.1080 C   0  0  1  0  0  0  0  0  0  0  0  0
   -2.9130    0.3970   -2.3200 C   0  0  0  0  0  0  0  0  0  0  0  0
   -3.3490   -1.2850   -1.7950 S   0  0  0  0  0  0  0  0  0  0  0  0
   -3.5960    1.2250   -0.1550 C   0  0  0  0  0  0  0  0  0  0  0  0
   -3.4670    0.7720    1.0230 O   0  0  0  0  0  0  0  0  0  0  0  0
   -4.8270    1.7550   -0.4980 O   0  0  0  0  0  0  0  0  0  0  0  0
   -1.3610   -0.4360   -0.1470 H   0  0  0  0  0  0  0  0  0  0  0  0
   -2.1980    2.2190   -1.3740 H   0  0  0  0  0  0  0  0  0  0  0  0
   -2.1440    0.4110   -3.1030 H   0  0  0  0  0  0  0  0  0  0  0  0
   -3.8440    0.9190   -2.6870 H   0  0  0  0  0  0  0  0  0  0  0  0
   -2.1430   -2.0050   -1.6500 H   0  0  0  0  0  0  0  0  0  0  0  0
  1 10  1  0  0  0  0
  1  2  1  0  0  0  0
  2 12  1  1  0  0  0
  2  3  1  0  0  0  0
  3 13  1  0  0  0  0
  3 14  1  0  0  0  0
  4  3  1  0  0  0  0
  4 16  1  0  0  0  0
  5  4  1  0  0  0  0
  6  5  2  0  0  0  0
  7  2  1  0  0  0  0
  7  8  2  0  0  0  0
  9  5  1  0  0  0  0
 11  1  1  0  0  0  0
 15  4  1  0  0  0  0
 17  9  1  0  0  0  0
 18 19  1  0  0  0  0
 18 25  1  0  0  0  0
 19 28  1  6  0  0  0
 19 20  1  0  0  0  0
 19 21  1  0  0  0  0
 20 29  1  0  0  0  0
 21 22  1  0  0  0  0
 21 30  1  1  0  0  0
 22  7  1  0  0  0  0
 23 21  1  0  0  0  0
 24 23  2  0  0  0  0
 26 18  1  0  0  0  0
 27 18  1  0  0  0  0
 31 22  1  0  0  0  0
 32 23  1  0  0  0  0
 32 39  1  0  0  0  0
 33 40  1  6  0  0  0
 33 32  1  0  0  0  0
 33 36  1  0  0  0  0
 34 35  1  0  0  0  0
 34 33  1  0  0  0  0
 35 43  1  0  0  0  0
 36 37  1  0  0  0  0
 38 36  2  0  0  0  0
 41 34  1  0  0  0  0
 42 34  1  0  0  0  0
M  END
$$$$
