ETD.pdb
 OpenBabel07022418203D

 45 44  0  0  1  0  0  0  0  0999 V2000
    4.2580   -3.5020    0.6910 N   0  0  0  0  0  0  0  0  0  0  0  0
    3.2830   -2.8840   -0.3010 C   0  0  1  0  0  0  0  0  0  0  0  0
    2.5250   -4.0680   -0.7810 C   0  0  0  0  0  0  0  0  0  0  0  0
    1.5090   -3.8480   -1.8100 C   0  0  0  0  0  0  0  0  0  0  0  0
    0.3910   -2.9720   -1.4880 C   0  0  0  0  0  0  0  0  0  0  0  0
    0.1020   -2.0640   -2.2990 O   0  0  0  0  0  0  0  0  0  0  0  0
    2.4740   -2.0050    0.5530 C   0  0  0  0  0  0  0  0  0  0  0  0
    2.3830   -2.3220    1.7950 O   0  0  0  0  0  0  0  0  0  0  0  0
   -0.3320   -3.1320   -0.3270 O   0  0  0  0  0  0  0  0  0  0  0  0
    3.7120   -4.2070    1.2150 H   0  0  0  0  0  0  0  0  0  0  0  0
    4.6360   -2.7300    1.2820 H   0  0  0  0  0  0  0  0  0  0  0  0
    3.8500   -2.3540   -1.0630 H   0  0  0  0  0  0  0  0  0  0  0  0
    2.0560   -4.6310    0.0990 H   0  0  0  0  0  0  0  0  0  0  0  0
    3.2330   -4.8720   -1.1810 H   0  0  0  0  0  0  0  0  0  0  0  0
    1.0500   -4.8380   -2.1290 H   0  0  0  0  0  0  0  0  0  0  0  0
    2.0360   -3.5070   -2.7480 H   0  0  0  0  0  0  0  0  0  0  0  0
   -1.3560   -3.0250   -0.3370 H   0  0  0  0  0  0  0  0  0  0  0  0
    3.1920    0.8850    1.8870 C   0  0  0  0  0  0  0  0  0  0  0  0
    1.8110    1.2660    1.3560 C   0  0  1  0  0  0  0  0  0  0  0  0
    1.9470    2.0260    0.2150 O   0  0  0  0  0  0  0  0  0  0  0  0
    1.0540   -0.0360    1.0860 C   0  0  2  0  0  0  0  0  0  0  0  0
    1.7810   -0.8130    0.1170 N   0  0  0  0  0  0  0  0  0  0  0  0
   -0.3540    0.2330    0.7680 C   0  0  0  0  0  0  0  0  0  0  0  0
   -0.9650   -0.1310   -0.2560 O   0  0  0  0  0  0  0  0  0  0  0  0
    3.7880    0.3260    1.1230 H   0  0  0  0  0  0  0  0  0  0  0  0
    3.7740    1.8160    2.1190 H   0  0  0  0  0  0  0  0  0  0  0  0
    3.1350    0.3060    2.8220 H   0  0  0  0  0  0  0  0  0  0  0  0
    1.2860    1.8210    2.1230 H   0  0  0  0  0  0  0  0  0  0  0  0
    1.8230    3.0070    0.4310 H   0  0  0  0  0  0  0  0  0  0  0  0
    1.0790   -0.5750    2.0570 H   0  0  0  0  0  0  0  0  0  0  0  0
    1.8600   -0.5760   -0.8890 H   0  0  0  0  0  0  0  0  0  0  0  0
   -1.1770    0.9950    1.6930 N   0  0  0  0  0  0  0  0  0  0  0  0
   -2.5560    1.2940    1.4500 C   0  0  1  0  0  0  0  0  0  0  0  0
   -3.4530    0.9000    2.5850 C   0  0  0  0  0  0  0  0  0  0  0  0
   -4.8780    1.1760    2.3960 C   0  0  0  0  0  0  0  0  0  0  0  0
   -5.3580    2.2750    2.7460 O   0  0  0  0  0  0  0  0  0  0  0  0
   -2.6790    2.7520    1.2270 C   0  0  0  0  0  0  0  0  0  0  0  0
   -1.6600    3.4980    1.3070 O   0  0  0  0  0  0  0  0  0  0  0  0
   -5.7100    0.2360    1.8340 O   0  0  0  0  0  0  0  0  0  0  0  0
   -3.8810    3.3660    0.9290 O   0  0  0  0  0  0  0  0  0  0  0  0
   -0.6940    1.3110    2.5470 H   0  0  0  0  0  0  0  0  0  0  0  0
   -2.9270    0.8270    0.4950 H   0  0  0  0  0  0  0  0  0  0  0  0
   -3.1490    1.3760    3.5500 H   0  0  0  0  0  0  0  0  0  0  0  0
   -3.3630   -0.2210    2.7230 H   0  0  0  0  0  0  0  0  0  0  0  0
   -6.7060    0.3740    1.9310 H   0  0  0  0  0  0  0  0  0  0  0  0
  1 10  1  0  0  0  0
  1 11  1  0  0  0  0
  2 12  1  6  0  0  0
  2  7  1  0  0  0  0
  2  1  1  0  0  0  0
  3  2  1  0  0  0  0
  3 13  1  0  0  0  0
  4  5  1  0  0  0  0
  4  3  1  0  0  0  0
  5  9  1  0  0  0  0
  6  5  2  0  0  0  0
  7  8  2  0  0  0  0
 14  3  1  0  0  0  0
 15  4  1  0  0  0  0
 16  4  1  0  0  0  0
 17  9  1  0  0  0  0
 18 26  1  0  0  0  0
 18 27  1  0  0  0  0
 19 18  1  0  0  0  0
 19 28  1  1  0  0  0
 20 29  1  0  0  0  0
 20 19  1  0  0  0  0
 21 19  1  0  0  0  0
 21 30  1  1  0  0  0
 22  7  1  0  0  0  0
 22 21  1  0  0  0  0
 23 21  1  0  0  0  0
 23 32  1  0  0  0  0
 24 23  2  0  0  0  0
 25 18  1  0  0  0  0
 31 22  1  0  0  0  0
 32 41  1  0  0  0  0
 33 42  1  6  0  0  0
 33 32  1  0  0  0  0
 33 34  1  0  0  0  0
 34 44  1  0  0  0  0
 34 43  1  0  0  0  0
 35 34  1  0  0  0  0
 35 36  2  0  0  0  0
 37 38  1  0  0  0  0
 37 33  1  0  0  0  0
 39 45  1  0  0  0  0
 39 35  1  0  0  0  0
 40 37  2  0  0  0  0
M  END
$$$$
