ETE.pdb
 OpenBabel07022418203D

 48 47  0  0  1  0  0  0  0  0999 V2000
    3.3210   -3.2430    2.8250 N   0  0  0  0  0  0  0  0  0  0  0  0
    2.9260   -2.2530    1.8470 C   0  0  1  0  0  0  0  0  0  0  0  0
    2.2870   -2.9790    0.6630 C   0  0  0  0  0  0  0  0  0  0  0  0
    3.2830   -3.9560    0.0330 C   0  0  0  0  0  0  0  0  0  0  0  0
    2.6080   -4.6400   -1.1110 C   0  0  0  0  0  0  0  0  0  0  0  0
    3.2690   -5.4790   -1.7750 O   0  0  0  0  0  0  0  0  0  0  0  0
    1.8460   -1.4190    2.4380 C   0  0  0  0  0  0  0  0  0  0  0  0
    1.4670   -1.6550    3.5990 O   0  0  0  0  0  0  0  0  0  0  0  0
    1.3020   -4.4010   -1.4760 O   0  0  0  0  0  0  0  0  0  0  0  0
    2.5870   -3.9890    2.8040 H   0  0  0  0  0  0  0  0  0  0  0  0
    3.2670   -2.7980    3.7660 H   0  0  0  0  0  0  0  0  0  0  0  0
    3.7710   -1.6350    1.5230 H   0  0  0  0  0  0  0  0  0  0  0  0
    1.3720   -3.5030    0.9980 H   0  0  0  0  0  0  0  0  0  0  0  0
    1.9810   -2.2570   -0.1230 H   0  0  0  0  0  0  0  0  0  0  0  0
    4.1660   -3.3710   -0.2920 H   0  0  0  0  0  0  0  0  0  0  0  0
    3.6000   -4.7150    0.7700 H   0  0  0  0  0  0  0  0  0  0  0  0
    1.0080   -4.4280   -2.4610 H   0  0  0  0  0  0  0  0  0  0  0  0
   -0.2330    2.7560    3.2020 C   0  0  0  0  0  0  0  0  0  0  0  0
    0.6990    1.8060    2.5300 C   0  0  1  0  0  0  0  0  0  0  0  0
    1.8560    1.7200    3.3230 O   0  0  0  0  0  0  0  0  0  0  0  0
    0.1700    0.3990    2.3910 C   0  0  2  0  0  0  0  0  0  0  0  0
    1.2180   -0.3670    1.7510 N   0  0  0  0  0  0  0  0  0  0  0  0
   -1.0990    0.3440    1.6230 C   0  0  0  0  0  0  0  0  0  0  0  0
   -2.0990    0.9370    2.0970 O   0  0  0  0  0  0  0  0  0  0  0  0
   -0.5370    2.3670    4.2040 H   0  0  0  0  0  0  0  0  0  0  0  0
   -1.1520    2.9900    2.6450 H   0  0  0  0  0  0  0  0  0  0  0  0
    0.3150    3.7380    3.3100 H   0  0  0  0  0  0  0  0  0  0  0  0
    1.0340    2.1950    1.5590 H   0  0  0  0  0  0  0  0  0  0  0  0
    2.2560    2.6130    3.4720 H   0  0  0  0  0  0  0  0  0  0  0  0
    0.0160   -0.0060    3.4040 H   0  0  0  0  0  0  0  0  0  0  0  0
    1.4880   -0.1230    0.7910 H   0  0  0  0  0  0  0  0  0  0  0  0
   -1.2280   -0.3430    0.3930 N   0  0  0  0  0  0  0  0  0  0  0  0
   -2.4690   -0.3970   -0.3510 C   0  0  1  0  0  0  0  0  0  0  0  0
   -2.3430    0.2450   -1.7050 C   0  0  0  0  0  0  0  0  0  0  0  0
   -1.9620    1.6960   -1.6710 C   0  0  0  0  0  0  0  0  0  0  0  0
   -2.9720    2.5170   -0.9780 C   0  0  0  0  0  0  0  0  0  0  0  0
   -2.7610    3.7300   -0.6770 O   0  0  0  0  0  0  0  0  0  0  0  0
   -2.9290   -1.8050   -0.5340 C   0  0  0  0  0  0  0  0  0  0  0  0
   -2.1890   -2.7110   -0.0510 O   0  0  0  0  0  0  0  0  0  0  0  0
   -4.2080    2.0110   -0.6190 O   0  0  0  0  0  0  0  0  0  0  0  0
   -4.0960   -2.1410   -1.1910 O   0  0  0  0  0  0  0  0  0  0  0  0
   -0.3910   -0.8250    0.0120 H   0  0  0  0  0  0  0  0  0  0  0  0
   -3.2570    0.1270    0.2130 H   0  0  0  0  0  0  0  0  0  0  0  0
   -1.6980   -0.3420   -2.3940 H   0  0  0  0  0  0  0  0  0  0  0  0
   -3.3630    0.2050   -2.1880 H   0  0  0  0  0  0  0  0  0  0  0  0
   -1.0280    1.7760   -1.0660 H   0  0  0  0  0  0  0  0  0  0  0  0
   -1.7550    2.0900   -2.6920 H   0  0  0  0  0  0  0  0  0  0  0  0
   -4.6820    2.3590    0.2140 H   0  0  0  0  0  0  0  0  0  0  0  0
  1 11  1  0  0  0  0
  2 12  1  6  0  0  0
  2  7  1  0  0  0  0
  2  1  1  0  0  0  0
  3 13  1  0  0  0  0
  3  2  1  0  0  0  0
  4  3  1  0  0  0  0
  4 16  1  0  0  0  0
  5  4  1  0  0  0  0
  6  5  2  0  0  0  0
  7  8  2  0  0  0  0
  9  5  1  0  0  0  0
 10  1  1  0  0  0  0
 14  3  1  0  0  0  0
 15  4  1  0  0  0  0
 17  9  1  0  0  0  0
 18 27  1  0  0  0  0
 18 25  1  0  0  0  0
 19 28  1  6  0  0  0
 19 18  1  0  0  0  0
 19 20  1  0  0  0  0
 20 29  1  0  0  0  0
 21 19  1  0  0  0  0
 21 30  1  1  0  0  0
 22 21  1  0  0  0  0
 22  7  1  0  0  0  0
 23 24  2  0  0  0  0
 23 21  1  0  0  0  0
 26 18  1  0  0  0  0
 31 22  1  0  0  0  0
 32 23  1  0  0  0  0
 33 43  1  1  0  0  0
 33 32  1  0  0  0  0
 34 35  1  0  0  0  0
 34 33  1  0  0  0  0
 35 46  1  0  0  0  0
 35 36  1  0  0  0  0
 36 37  2  0  0  0  0
 36 40  1  0  0  0  0
 38 33  1  0  0  0  0
 38 39  1  0  0  0  0
 40 48  1  0  0  0  0
 41 38  2  0  0  0  0
 42 32  1  0  0  0  0
 44 34  1  0  0  0  0
 45 34  1  0  0  0  0
 47 35  1  0  0  0  0
M  END
$$$$
