ETF.pdb
 OpenBabel07022418203D

 52 52  0  0  1  0  0  0  0  0999 V2000
    2.9740   -3.3600    4.6310 N   0  0  0  0  0  0  0  0  0  0  0  0
    2.8140   -2.9700    3.2070 C   0  0  1  0  0  0  0  0  0  0  0  0
    2.6260   -4.2350    2.4550 C   0  0  0  0  0  0  0  0  0  0  0  0
    2.4520   -4.1400    0.9710 C   0  0  0  0  0  0  0  0  0  0  0  0
    3.6230   -3.5000    0.3120 C   0  0  0  0  0  0  0  0  0  0  0  0
    4.6240   -3.0550    0.8860 O   0  0  0  0  0  0  0  0  0  0  0  0
    1.7690   -1.9550    3.1190 C   0  0  0  0  0  0  0  0  0  0  0  0
    1.1030   -1.6930    4.1940 O   0  0  0  0  0  0  0  0  0  0  0  0
    3.5870   -3.3970   -1.0900 O   0  0  0  0  0  0  0  0  0  0  0  0
    2.4310   -2.7130    5.2470 H   0  0  0  0  0  0  0  0  0  0  0  0
    2.6310   -4.3420    4.7680 H   0  0  0  0  0  0  0  0  0  0  0  0
    3.8070   -2.4810    2.9820 H   0  0  0  0  0  0  0  0  0  0  0  0
    3.5390   -4.9040    2.6180 H   0  0  0  0  0  0  0  0  0  0  0  0
    1.8020   -4.8530    2.9270 H   0  0  0  0  0  0  0  0  0  0  0  0
    1.5260   -3.6120    0.6790 H   0  0  0  0  0  0  0  0  0  0  0  0
    2.3750   -5.2090    0.5890 H   0  0  0  0  0  0  0  0  0  0  0  0
    4.4750   -3.3940   -1.6390 H   0  0  0  0  0  0  0  0  0  0  0  0
    2.0650    1.4950    2.1970 C   0  0  0  0  0  0  0  0  0  0  0  0
    0.8400    1.0470    1.3880 C   0  0  1  0  0  0  0  0  0  0  0  0
    1.2640    0.9630    0.0660 O   0  0  0  0  0  0  0  0  0  0  0  0
    0.3730   -0.2280    1.9670 C   0  0  2  0  0  0  0  0  0  0  0  0
    1.4160   -1.2290    1.9710 N   0  0  0  0  0  0  0  0  0  0  0  0
   -0.8390   -0.8100    1.3400 C   0  0  0  0  0  0  0  0  0  0  0  0
   -0.9950   -2.0510    1.2780 O   0  0  0  0  0  0  0  0  0  0  0  0
    2.9510    1.1010    1.6740 H   0  0  0  0  0  0  0  0  0  0  0  0
    2.1290    2.5970    2.2450 H   0  0  0  0  0  0  0  0  0  0  0  0
    1.9780    1.0510    3.2190 H   0  0  0  0  0  0  0  0  0  0  0  0
    0.0820    1.8600    1.4950 H   0  0  0  0  0  0  0  0  0  0  0  0
    1.6420    1.8350   -0.2410 H   0  0  0  0  0  0  0  0  0  0  0  0
    0.1600   -0.0400    3.0710 H   0  0  0  0  0  0  0  0  0  0  0  0
    1.9580   -1.4050    1.0650 H   0  0  0  0  0  0  0  0  0  0  0  0
   -1.8630    0.0340    0.7800 N   0  0  0  0  0  0  0  0  0  0  0  0
   -3.0500   -0.5690    0.1940 C   0  0  1  0  0  0  0  0  0  0  0  0
   -4.1230    0.4010   -0.1690 C   0  0  0  0  0  0  0  0  0  0  0  0
   -3.6060    1.3920   -1.1980 C   0  0  0  0  0  0  0  0  0  0  0  0
   -3.0190    2.5650   -0.8280 C   0  0  0  0  0  0  0  0  0  0  0  0
   -2.5170    3.4030   -1.8260 C   0  0  0  0  0  0  0  0  0  0  0  0
   -2.6010    3.0720   -3.1620 C   0  0  0  0  0  0  0  0  0  0  0  0
   -3.1930    1.8940   -3.5060 C   0  0  0  0  0  0  0  0  0  0  0  0
   -3.6920    1.0630   -2.5280 C   0  0  0  0  0  0  0  0  0  0  0  0
   -2.6110   -1.3770   -1.0270 C   0  0  0  0  0  0  0  0  0  0  0  0
   -1.4180   -1.3280   -1.4180 O   0  0  0  0  0  0  0  0  0  0  0  0
   -3.4950   -2.1750   -1.7260 O   0  0  0  0  0  0  0  0  0  0  0  0
   -1.6620    1.0470    0.8410 H   0  0  0  0  0  0  0  0  0  0  0  0
   -3.3990   -1.3620    0.8770 H   0  0  0  0  0  0  0  0  0  0  0  0
   -4.9760   -0.0940   -0.6830 H   0  0  0  0  0  0  0  0  0  0  0  0
   -4.5520    0.9600    0.6670 H   0  0  0  0  0  0  0  0  0  0  0  0
   -2.9430    2.8780    0.2250 H   0  0  0  0  0  0  0  0  0  0  0  0
   -2.0380    4.3490   -1.5320 H   0  0  0  0  0  0  0  0  0  0  0  0
   -2.1970    3.7430   -3.9460 H   0  0  0  0  0  0  0  0  0  0  0  0
   -3.2670    1.6230   -4.5450 H   0  0  0  0  0  0  0  0  0  0  0  0
   -4.1830    0.1260   -2.8190 H   0  0  0  0  0  0  0  0  0  0  0  0
  1 11  1  0  0  0  0
  1 10  1  0  0  0  0
  2 12  1  6  0  0  0
  2  1  1  0  0  0  0
  3 13  1  0  0  0  0
  3 14  1  0  0  0  0
  3  2  1  0  0  0  0
  4  3  1  0  0  0  0
  5  6  2  0  0  0  0
  5  4  1  0  0  0  0
  7  2  1  0  0  0  0
  7  8  2  0  0  0  0
  9  5  1  0  0  0  0
 15  4  1  0  0  0  0
 16  4  1  0  0  0  0
 17  9  1  0  0  0  0
 18 26  1  0  0  0  0
 18 27  1  0  0  0  0
 19 28  1  1  0  0  0
 19 21  1  0  0  0  0
 19 18  1  0  0  0  0
 20 19  1  0  0  0  0
 21 22  1  0  0  0  0
 21 30  1  1  0  0  0
 22  7  1  0  0  0  0
 23 21  1  0  0  0  0
 24 23  2  0  0  0  0
 25 18  1  0  0  0  0
 29 20  1  0  0  0  0
 31 22  1  0  0  0  0
 32 44  1  0  0  0  0
 32 23  1  0  0  0  0
 33 32  1  0  0  0  0
 33 45  1  1  0  0  0
 34 33  1  0  0  0  0
 34 47  1  0  0  0  0
 35 36  1  0  0  0  0
 35 34  1  0  0  0  0
 36 48  1  0  0  0  0
 37 49  1  0  0  0  0
 37 36  2  0  0  0  0
 38 37  1  0  0  0  0
 39 38  2  0  0  0  0
 39 40  1  0  0  0  0
 40 35  2  0  0  0  0
 41 33  1  0  0  0  0
 42 41  1  0  0  0  0
 43 41  2  0  0  0  0
 46 34  1  0  0  0  0
 50 38  1  0  0  0  0
 51 39  1  0  0  0  0
 52 40  1  0  0  0  0
M  END
$$$$
