ETK.pdb
 OpenBabel07022418203D

 53 52  0  0  1  0  0  0  0  0999 V2000
    3.9170   -3.7690    1.4820 N   0  0  0  0  0  0  0  0  0  0  0  0
    3.4510   -2.4390    1.1330 C   0  0  1  0  0  0  0  0  0  0  0  0
    2.8310   -2.5040   -0.2450 C   0  0  0  0  0  0  0  0  0  0  0  0
    1.6690   -3.4510   -0.3110 C   0  0  0  0  0  0  0  0  0  0  0  0
    1.1200   -3.4630   -1.6680 C   0  0  0  0  0  0  0  0  0  0  0  0
    1.6260   -2.7470   -2.5620 O   0  0  0  0  0  0  0  0  0  0  0  0
    2.5200   -1.9760    2.1690 C   0  0  0  0  0  0  0  0  0  0  0  0
    2.1950   -2.6400    3.1870 O   0  0  0  0  0  0  0  0  0  0  0  0
    0.0320   -4.2450   -2.0510 O   0  0  0  0  0  0  0  0  0  0  0  0
    4.7560   -3.9850    0.8980 H   0  0  0  0  0  0  0  0  0  0  0  0
    4.2020   -3.8300    2.4870 H   0  0  0  0  0  0  0  0  0  0  0  0
    4.3520   -1.7820    1.0440 H   0  0  0  0  0  0  0  0  0  0  0  0
    3.6470   -2.8900   -0.9210 H   0  0  0  0  0  0  0  0  0  0  0  0
    2.5710   -1.4940   -0.6150 H   0  0  0  0  0  0  0  0  0  0  0  0
    1.9980   -4.4800   -0.0690 H   0  0  0  0  0  0  0  0  0  0  0  0
    0.9100   -3.1860    0.4560 H   0  0  0  0  0  0  0  0  0  0  0  0
   -0.0230   -4.5640   -3.0110 H   0  0  0  0  0  0  0  0  0  0  0  0
    0.7100    1.6160    4.7430 C   0  0  0  0  0  0  0  0  0  0  0  0
    1.6280    1.0670    3.6560 C   0  0  1  0  0  0  0  0  0  0  0  0
    2.8020    0.6710    4.2950 O   0  0  0  0  0  0  0  0  0  0  0  0
    1.0000   -0.1390    3.0020 C   0  0  2  0  0  0  0  0  0  0  0  0
    1.9140   -0.6800    2.0530 N   0  0  0  0  0  0  0  0  0  0  0  0
   -0.3360    0.1480    2.4470 C   0  0  0  0  0  0  0  0  0  0  0  0
   -1.2260    0.6280    3.1900 O   0  0  0  0  0  0  0  0  0  0  0  0
    0.2010    0.7720    5.2500 H   0  0  0  0  0  0  0  0  0  0  0  0
   -0.0560    2.3050    4.3280 H   0  0  0  0  0  0  0  0  0  0  0  0
    1.3140    2.1420    5.5330 H   0  0  0  0  0  0  0  0  0  0  0  0
    1.8820    1.8470    2.9110 H   0  0  0  0  0  0  0  0  0  0  0  0
    2.8950    1.0890    5.1760 H   0  0  0  0  0  0  0  0  0  0  0  0
    0.8680   -0.9040    3.8140 H   0  0  0  0  0  0  0  0  0  0  0  0
    2.1540   -0.0810    1.2150 H   0  0  0  0  0  0  0  0  0  0  0  0
   -0.6480   -0.1010    1.1020 N   0  0  0  0  0  0  0  0  0  0  0  0
   -2.0500    0.2220    0.6010 C   0  0  1  0  0  0  0  0  0  0  0  0
   -1.8790    1.2470   -0.4370 C   0  0  0  0  0  0  0  0  0  0  0  0
   -2.9760    1.8910   -1.1480 C   0  0  0  0  0  0  0  0  0  0  0  0
   -3.8460    1.0170   -1.9800 C   0  0  0  0  0  0  0  0  0  0  0  0
   -2.9930    0.2670   -2.9740 C   0  0  0  0  0  0  0  0  0  0  0  0
   -3.8260   -0.6070   -3.8120 N   0  0  0  0  0  0  0  0  0  0  0  0
   -2.6090   -1.0900    0.2440 C   0  0  0  0  0  0  0  0  0  0  0  0
   -3.8090   -1.3710    0.0280 O   0  0  0  0  0  0  0  0  0  0  0  0
   -1.7070   -2.1720    0.1230 O   0  0  0  0  0  0  0  0  0  0  0  0
   -0.0220   -0.4830    0.4070 H   0  0  0  0  0  0  0  0  0  0  0  0
   -2.5970    0.6240    1.4640 H   0  0  0  0  0  0  0  0  0  0  0  0
   -1.0860    0.8580   -1.2060 H   0  0  0  0  0  0  0  0  0  0  0  0
   -1.2520    2.1280    0.0050 H   0  0  0  0  0  0  0  0  0  0  0  0
   -3.6200    2.5320   -0.4500 H   0  0  0  0  0  0  0  0  0  0  0  0
   -2.5920    2.6990   -1.8690 H   0  0  0  0  0  0  0  0  0  0  0  0
   -4.5580    1.7060   -2.6050 H   0  0  0  0  0  0  0  0  0  0  0  0
   -4.5150    0.4190   -1.3790 H   0  0  0  0  0  0  0  0  0  0  0  0
   -2.1740   -0.2770   -2.4920 H   0  0  0  0  0  0  0  0  0  0  0  0
   -2.5480    1.0160   -3.6710 H   0  0  0  0  0  0  0  0  0  0  0  0
   -3.4810   -1.5810   -3.6550 H   0  0  0  0  0  0  0  0  0  0  0  0
   -4.8030   -0.5500   -3.4410 H   0  0  0  0  0  0  0  0  0  0  0  0
  1 11  1  0  0  0  0
  2 12  1  6  0  0  0
  2  1  1  0  0  0  0
  2  7  1  0  0  0  0
  3  2  1  0  0  0  0
  4  3  1  0  0  0  0
  4 15  1  0  0  0  0
  4 16  1  0  0  0  0
  5  4  1  0  0  0  0
  6  5  2  0  0  0  0
  7  8  2  0  0  0  0
  9  5  1  0  0  0  0
 10  1  1  0  0  0  0
 13  3  1  0  0  0  0
 14  3  1  0  0  0  0
 17  9  1  0  0  0  0
 18 25  1  0  0  0  0
 18 27  1  0  0  0  0
 19 28  1  6  0  0  0
 19 20  1  0  0  0  0
 19 18  1  0  0  0  0
 20 29  1  0  0  0  0
 21 19  1  0  0  0  0
 21 30  1  1  0  0  0
 22  7  1  0  0  0  0
 22 21  1  0  0  0  0
 23 21  1  0  0  0  0
 23 24  2  0  0  0  0
 26 18  1  0  0  0  0
 31 22  1  0  0  0  0
 32 23  1  0  0  0  0
 33 32  1  0  0  0  0
 33 43  1  1  0  0  0
 34 45  1  0  0  0  0
 34 33  1  0  0  0  0
 35 46  1  0  0  0  0
 35 34  1  0  0  0  0
 36 49  1  0  0  0  0
 36 35  1  0  0  0  0
 37 50  1  0  0  0  0
 37 36  1  0  0  0  0
 38 52  1  0  0  0  0
 38 53  1  0  0  0  0
 38 37  1  0  0  0  0
 39 33  1  0  0  0  0
 40 39  2  0  0  0  0
 41 39  1  0  0  0  0
 42 32  1  0  0  0  0
 44 34  1  0  0  0  0
 47 35  1  0  0  0  0
 48 36  1  0  0  0  0
 51 37  1  0  0  0  0
M  END
$$$$
