ETP.pdb
 OpenBabel07022418203D

 46 46  0  0  1  0  0  0  0  0999 V2000
    0.9230   -3.2140    0.2440 N   0  0  0  0  0  0  0  0  0  0  0  0
    1.7740   -2.3480    0.9940 C   0  0  1  0  0  0  0  0  0  0  0  0
    3.1890   -2.6960    0.6300 C   0  0  0  0  0  0  0  0  0  0  0  0
    4.2490   -1.9050    1.3000 C   0  0  0  0  0  0  0  0  0  0  0  0
    4.2760   -2.0120    2.7580 C   0  0  0  0  0  0  0  0  0  0  0  0
    3.4710   -2.7590    3.3520 O   0  0  0  0  0  0  0  0  0  0  0  0
    1.4590   -0.9210    0.7330 C   0  0  0  0  0  0  0  0  0  0  0  0
    2.0530    0.0240    1.3100 O   0  0  0  0  0  0  0  0  0  0  0  0
    5.1770   -1.3080    3.5570 O   0  0  0  0  0  0  0  0  0  0  0  0
    0.1360   -3.6230    0.7340 H   0  0  0  0  0  0  0  0  0  0  0  0
    1.3520   -3.7370   -0.5130 H   0  0  0  0  0  0  0  0  0  0  0  0
    1.6000   -2.5770    2.0620 H   0  0  0  0  0  0  0  0  0  0  0  0
    3.4030   -3.7840    0.8220 H   0  0  0  0  0  0  0  0  0  0  0  0
    3.3300   -2.5440   -0.4830 H   0  0  0  0  0  0  0  0  0  0  0  0
    4.1690   -0.8550    0.9420 H   0  0  0  0  0  0  0  0  0  0  0  0
    5.2410   -2.2610    0.9100 H   0  0  0  0  0  0  0  0  0  0  0  0
    5.5000   -1.7880    4.4030 H   0  0  0  0  0  0  0  0  0  0  0  0
   -0.2630    2.4750   -2.2090 C   0  0  0  0  0  0  0  0  0  0  0  0
    0.0030    1.0050   -2.0010 C   0  0  1  0  0  0  0  0  0  0  0  0
    1.2410    0.7530   -2.6250 O   0  0  0  0  0  0  0  0  0  0  0  0
    0.0800    0.7210   -0.5200 C   0  0  2  0  0  0  0  0  0  0  0  0
    0.4410   -0.6170   -0.2130 N   0  0  0  0  0  0  0  0  0  0  0  0
   -1.1860    1.0990    0.1060 C   0  0  0  0  0  0  0  0  0  0  0  0
   -1.6700    2.2430   -0.2310 O   0  0  0  0  0  0  0  0  0  0  0  0
    0.3420    2.7930   -3.1130 H   0  0  0  0  0  0  0  0  0  0  0  0
    0.1540    3.0780   -1.3870 H   0  0  0  0  0  0  0  0  0  0  0  0
   -1.3250    2.6920   -2.4520 H   0  0  0  0  0  0  0  0  0  0  0  0
   -0.7920    0.4300   -2.4840 H   0  0  0  0  0  0  0  0  0  0  0  0
    1.8900    1.4820   -2.3890 H   0  0  0  0  0  0  0  0  0  0  0  0
    0.9210    1.3880   -0.1260 H   0  0  0  0  0  0  0  0  0  0  0  0
   -0.0680   -1.3920   -0.7510 H   0  0  0  0  0  0  0  0  0  0  0  0
   -1.9380    0.3440    1.0460 N   0  0  0  0  0  0  0  0  0  0  0  0
   -1.7550   -0.9170    1.6750 C   0  0  0  0  0  0  0  0  0  0  0  0
   -3.1430   -1.4280    2.0010 C   0  0  0  0  0  0  0  0  0  0  0  0
   -4.0930   -0.3650    1.4910 C   0  0  0  0  0  0  0  0  0  0  0  0
   -3.2200    0.8550    1.6040 C   0  0  1  0  0  0  0  0  0  0  0  0
   -2.9660    1.2620    3.0030 C   0  0  0  0  0  0  0  0  0  0  0  0
   -3.9160    1.6860    3.7390 O   0  0  0  0  0  0  0  0  0  0  0  0
   -1.7260    1.2270    3.6240 O   0  0  0  0  0  0  0  0  0  0  0  0
   -1.2900   -1.7160    1.0840 H   0  0  0  0  0  0  0  0  0  0  0  0
   -1.2460   -0.8120    2.6780 H   0  0  0  0  0  0  0  0  0  0  0  0
   -3.3610   -2.4220    1.5970 H   0  0  0  0  0  0  0  0  0  0  0  0
   -3.3310   -1.5000    3.1050 H   0  0  0  0  0  0  0  0  0  0  0  0
   -4.2570   -0.5610    0.4160 H   0  0  0  0  0  0  0  0  0  0  0  0
   -5.0260   -0.2980    2.0790 H   0  0  0  0  0  0  0  0  0  0  0  0
   -3.6000    1.6990    0.9870 H   0  0  0  0  0  0  0  0  0  0  0  0
  1 10  1  0  0  0  0
  1  2  1  0  0  0  0
  2 12  1  1  0  0  0
  3 13  1  0  0  0  0
  3  2  1  0  0  0  0
  3  4  1  0  0  0  0
  4  5  1  0  0  0  0
  5  6  2  0  0  0  0
  5  9  1  0  0  0  0
  7  2  1  0  0  0  0
  7  8  2  0  0  0  0
  9 17  1  0  0  0  0
 11  1  1  0  0  0  0
 14  3  1  0  0  0  0
 15  4  1  0  0  0  0
 16  4  1  0  0  0  0
 18 19  1  0  0  0  0
 18 26  1  0  0  0  0
 19 28  1  6  0  0  0
 19 21  1  0  0  0  0
 20 29  1  0  0  0  0
 20 19  1  0  0  0  0
 21 22  1  0  0  0  0
 21 30  1  1  0  0  0
 21 23  1  0  0  0  0
 22  7  1  0  0  0  0
 23 32  1  0  0  0  0
 24 23  2  0  0  0  0
 25 18  1  0  0  0  0
 27 18  1  0  0  0  0
 31 22  1  0  0  0  0
 32 36  1  0  0  0  0
 32 33  1  0  0  0  0
 33 34  1  0  0  0  0
 33 41  1  0  0  0  0
 34 43  1  0  0  0  0
 35 36  1  0  0  0  0
 35 34  1  0  0  0  0
 35 45  1  0  0  0  0
 36 46  1  6  0  0  0
 36 37  1  0  0  0  0
 37 39  2  0  0  0  0
 37 38  1  0  0  0  0
 40 33  1  0  0  0  0
 42 34  1  0  0  0  0
 44 35  1  0  0  0  0
M  END
$$$$
