ETV.pdb
 OpenBabel07022418203D

 48 47  0  0  1  0  0  0  0  0999 V2000
    1.0200   -2.4420    3.4270 N   0  0  0  0  0  0  0  0  0  0  0  0
    2.0900   -1.6190    2.8570 C   0  0  1  0  0  0  0  0  0  0  0  0
    2.6400   -2.3500    1.6720 C   0  0  0  0  0  0  0  0  0  0  0  0
    3.7530   -1.6570    0.9580 C   0  0  0  0  0  0  0  0  0  0  0  0
    4.9450   -1.4120    1.7760 C   0  0  0  0  0  0  0  0  0  0  0  0
    4.9990   -1.7890    2.9640 O   0  0  0  0  0  0  0  0  0  0  0  0
    1.4510   -0.3360    2.4870 C   0  0  0  0  0  0  0  0  0  0  0  0
    1.3620    0.5780    3.3630 O   0  0  0  0  0  0  0  0  0  0  0  0
    6.0480   -0.7530    1.2510 O   0  0  0  0  0  0  0  0  0  0  0  0
    0.5640   -1.8810    4.2070 H   0  0  0  0  0  0  0  0  0  0  0  0
    0.2810   -2.5370    2.6930 H   0  0  0  0  0  0  0  0  0  0  0  0
    2.8320   -1.4650    3.6760 H   0  0  0  0  0  0  0  0  0  0  0  0
    3.0000   -3.3600    2.0260 H   0  0  0  0  0  0  0  0  0  0  0  0
    1.7880   -2.5900    1.0070 H   0  0  0  0  0  0  0  0  0  0  0  0
    3.3670   -0.6950    0.5060 H   0  0  0  0  0  0  0  0  0  0  0  0
    3.9850   -2.2820    0.0490 H   0  0  0  0  0  0  0  0  0  0  0  0
    6.8130   -0.5260    1.8520 H   0  0  0  0  0  0  0  0  0  0  0  0
    0.5230    3.2070   -0.5310 C   0  0  0  0  0  0  0  0  0  0  0  0
    1.1180    1.8310   -0.2270 C   0  0  1  0  0  0  0  0  0  0  0  0
    2.4400    2.0340    0.1650 O   0  0  0  0  0  0  0  0  0  0  0  0
    0.3000    1.2240    0.8690 C   0  0  2  0  0  0  0  0  0  0  0  0
    0.9270   -0.0670    1.1960 N   0  0  0  0  0  0  0  0  0  0  0  0
   -1.0950    0.9910    0.5420 C   0  0  0  0  0  0  0  0  0  0  0  0
   -1.8270    1.9640    0.2290 O   0  0  0  0  0  0  0  0  0  0  0  0
   -0.3290    3.1370   -1.2260 H   0  0  0  0  0  0  0  0  0  0  0  0
    0.1890    3.7120    0.4100 H   0  0  0  0  0  0  0  0  0  0  0  0
    1.2670    3.8820   -0.9930 H   0  0  0  0  0  0  0  0  0  0  0  0
    1.1390    1.2620   -1.1500 H   0  0  0  0  0  0  0  0  0  0  0  0
    2.9550    2.2590   -0.6590 H   0  0  0  0  0  0  0  0  0  0  0  0
    0.3530    1.8300    1.7920 H   0  0  0  0  0  0  0  0  0  0  0  0
    0.9870   -0.8160    0.4510 H   0  0  0  0  0  0  0  0  0  0  0  0
   -2.2400   -2.7210   -0.8070 C   0  0  0  0  0  0  0  0  0  0  0  0
   -3.0150   -1.4500   -1.0120 C   0  0  0  0  0  0  0  0  0  0  0  0
   -4.3760   -1.6980   -1.5730 C   0  0  0  0  0  0  0  0  0  0  0  0
   -3.0380   -0.5970    0.2480 C   0  0  2  0  0  0  0  0  0  0  0  0
   -1.6600   -0.2880    0.5620 N   0  0  0  0  0  0  0  0  0  0  0  0
   -3.7490   -1.2450    1.3490 C   0  0  0  0  0  0  0  0  0  0  0  0
   -3.2430   -1.5200    2.4670 O   0  0  0  0  0  0  0  0  0  0  0  0
   -5.0810   -1.5880    1.1630 O   0  0  0  0  0  0  0  0  0  0  0  0
   -1.1460   -2.5310   -0.7630 H   0  0  0  0  0  0  0  0  0  0  0  0
   -2.4100   -3.3620   -1.6960 H   0  0  0  0  0  0  0  0  0  0  0  0
   -2.5930   -3.3020    0.0690 H   0  0  0  0  0  0  0  0  0  0  0  0
   -2.4450   -0.8550   -1.7810 H   0  0  0  0  0  0  0  0  0  0  0  0
   -4.3900   -1.5400   -2.6910 H   0  0  0  0  0  0  0  0  0  0  0  0
   -4.6330   -2.7740   -1.4300 H   0  0  0  0  0  0  0  0  0  0  0  0
   -5.1070   -1.0140   -1.1020 H   0  0  0  0  0  0  0  0  0  0  0  0
   -3.5410    0.3550   -0.0030 H   0  0  0  0  0  0  0  0  0  0  0  0
   -1.0430   -1.0890    0.8230 H   0  0  0  0  0  0  0  0  0  0  0  0
  1 10  1  0  0  0  0
  2  1  1  0  0  0  0
  2 12  1  1  0  0  0
  3 13  1  0  0  0  0
  3  2  1  0  0  0  0
  4  3  1  0  0  0  0
  4  5  1  0  0  0  0
  5  6  2  0  0  0  0
  7  2  1  0  0  0  0
  7  8  2  0  0  0  0
  9  5  1  0  0  0  0
  9 17  1  0  0  0  0
 11  1  1  0  0  0  0
 14  3  1  0  0  0  0
 15  4  1  0  0  0  0
 16  4  1  0  0  0  0
 18 19  1  0  0  0  0
 18 26  1  0  0  0  0
 19 28  1  6  0  0  0
 19 20  1  0  0  0  0
 19 21  1  0  0  0  0
 21 22  1  0  0  0  0
 21 30  1  1  0  0  0
 22  7  1  0  0  0  0
 23 36  1  0  0  0  0
 23 21  1  0  0  0  0
 24 23  2  0  0  0  0
 25 18  1  0  0  0  0
 27 18  1  0  0  0  0
 29 20  1  0  0  0  0
 31 22  1  0  0  0  0
 32 40  1  0  0  0  0
 32 42  1  0  0  0  0
 33 32  1  0  0  0  0
 33 35  1  0  0  0  0
 34 45  1  0  0  0  0
 34 46  1  0  0  0  0
 34 33  1  0  0  0  0
 35 47  1  6  0  0  0
 35 36  1  0  0  0  0
 35 37  1  0  0  0  0
 36 48  1  0  0  0  0
 37 38  1  0  0  0  0
 39 37  2  0  0  0  0
 41 32  1  0  0  0  0
 43 33  1  0  0  0  0
 44 34  1  0  0  0  0
M  END
$$$$
