ETW.pdb
 OpenBabel07022418203D

 56 57  0  0  1  0  0  0  0  0999 V2000
    0.8530    3.2840    3.9490 N   0  0  0  0  0  0  0  0  0  0  0  0
    1.4300    2.3210    3.0710 C   0  0  1  0  0  0  0  0  0  0  0  0
    1.0080    0.9090    3.4340 C   0  0  0  0  0  0  0  0  0  0  0  0
    1.4610    0.5930    4.8670 C   0  0  0  0  0  0  0  0  0  0  0  0
    2.9320    0.7040    4.9360 C   0  0  0  0  0  0  0  0  0  0  0  0
    3.6940    0.0730    4.1510 O   0  0  0  0  0  0  0  0  0  0  0  0
    0.9590    2.5540    1.6590 C   0  0  0  0  0  0  0  0  0  0  0  0
    0.1990    3.4940    1.3400 O   0  0  0  0  0  0  0  0  0  0  0  0
    3.4910    1.5390    5.9060 O   0  0  0  0  0  0  0  0  0  0  0  0
    0.1400    2.8490    4.5690 H   0  0  0  0  0  0  0  0  0  0  0  0
    0.5420    4.1340    3.4610 H   0  0  0  0  0  0  0  0  0  0  0  0
    2.5450    2.4110    3.0640 H   0  0  0  0  0  0  0  0  0  0  0  0
    1.4520    0.1570    2.7640 H   0  0  0  0  0  0  0  0  0  0  0  0
   -0.0910    0.8250    3.4170 H   0  0  0  0  0  0  0  0  0  0  0  0
    1.1980   -0.4710    5.0910 H   0  0  0  0  0  0  0  0  0  0  0  0
    0.9810    1.2360    5.6160 H   0  0  0  0  0  0  0  0  0  0  0  0
    4.4650    1.5130    6.1720 H   0  0  0  0  0  0  0  0  0  0  0  0
    3.0400    0.4630   -1.5880 C   0  0  0  0  0  0  0  0  0  0  0  0
    2.1780    1.7080   -1.7040 C   0  0  1  0  0  0  0  0  0  0  0  0
    1.6510    1.7320   -2.9930 O   0  0  0  0  0  0  0  0  0  0  0  0
    1.0580    1.7220   -0.7420 C   0  0  2  0  0  0  0  0  0  0  0  0
    1.3730    1.6920    0.6300 N   0  0  0  0  0  0  0  0  0  0  0  0
    0.0630    0.6530   -1.0690 C   0  0  0  0  0  0  0  0  0  0  0  0
   -0.2570    0.5270   -2.2930 O   0  0  0  0  0  0  0  0  0  0  0  0
    2.4580   -0.3770   -1.1540 H   0  0  0  0  0  0  0  0  0  0  0  0
    3.9600    0.6690   -0.9990 H   0  0  0  0  0  0  0  0  0  0  0  0
    3.3950    0.0990   -2.5760 H   0  0  0  0  0  0  0  0  0  0  0  0
    2.7970    2.6350   -1.6390 H   0  0  0  0  0  0  0  0  0  0  0  0
    1.9930    2.4520   -3.5650 H   0  0  0  0  0  0  0  0  0  0  0  0
    0.4700    2.6780   -0.9250 H   0  0  0  0  0  0  0  0  0  0  0  0
    2.0270    0.8940    0.9220 H   0  0  0  0  0  0  0  0  0  0  0  0
   -0.5160   -0.1900   -0.0920 N   0  0  0  0  0  0  0  0  0  0  0  0
   -1.4600   -1.1860   -0.4810 C   0  0  1  0  0  0  0  0  0  0  0  0
   -0.9500   -2.5230    0.0790 C   0  0  0  0  0  0  0  0  0  0  0  0
   -1.8990   -3.6030   -0.2990 C   0  0  0  0  0  0  0  0  0  0  0  0
   -2.8300   -4.2320    0.5360 C   0  0  0  0  0  0  0  0  0  0  0  0
   -3.5010   -5.1550   -0.1660 N   0  0  0  0  0  0  0  0  0  0  0  0
   -3.0570   -5.1770   -1.4560 C   0  0  0  0  0  0  0  0  0  0  0  0
   -3.4210   -5.9390   -2.5510 C   0  0  0  0  0  0  0  0  0  0  0  0
   -2.7980   -5.7550   -3.7650 C   0  0  0  0  0  0  0  0  0  0  0  0
   -1.8100   -4.7940   -3.8360 C   0  0  0  0  0  0  0  0  0  0  0  0
   -1.4410   -4.0320   -2.7550 C   0  0  0  0  0  0  0  0  0  0  0  0
   -2.0730   -4.2190   -1.5270 C   0  0  0  0  0  0  0  0  0  0  0  0
   -2.8320   -0.9120    0.0090 C   0  0  0  0  0  0  0  0  0  0  0  0
   -3.1510    0.0860    0.7000 O   0  0  0  0  0  0  0  0  0  0  0  0
   -3.8250   -1.8200   -0.3200 O   0  0  0  0  0  0  0  0  0  0  0  0
   -0.2390   -0.0680    0.9300 H   0  0  0  0  0  0  0  0  0  0  0  0
   -1.5230   -1.2070   -1.5850 H   0  0  0  0  0  0  0  0  0  0  0  0
   -0.9020   -2.4860    1.1810 H   0  0  0  0  0  0  0  0  0  0  0  0
    0.0400   -2.7180   -0.3510 H   0  0  0  0  0  0  0  0  0  0  0  0
   -2.9360   -3.9640    1.5840 H   0  0  0  0  0  0  0  0  0  0  0  0
   -4.2650   -5.7950    0.1800 H   0  0  0  0  0  0  0  0  0  0  0  0
   -4.1900   -6.6930   -2.5130 H   0  0  0  0  0  0  0  0  0  0  0  0
   -3.0600   -6.3350   -4.6550 H   0  0  0  0  0  0  0  0  0  0  0  0
   -1.2990   -4.6330   -4.7970 H   0  0  0  0  0  0  0  0  0  0  0  0
   -0.6580   -3.2620   -2.7710 H   0  0  0  0  0  0  0  0  0  0  0  0
  1 10  1  0  0  0  0
  2 12  1  1  0  0  0
  2  3  1  0  0  0  0
  2  1  1  0  0  0  0
  3  4  1  0  0  0  0
  4  5  1  0  0  0  0
  4 15  1  0  0  0  0
  4 16  1  0  0  0  0
  5  9  1  0  0  0  0
  6  5  2  0  0  0  0
  7  2  1  0  0  0  0
  8  7  2  0  0  0  0
  9 17  1  0  0  0  0
 11  1  1  0  0  0  0
 13  3  1  0  0  0  0
 14  3  1  0  0  0  0
 18 25  1  0  0  0  0
 18 26  1  0  0  0  0
 19 28  1  1  0  0  0
 19 18  1  0  0  0  0
 19 21  1  0  0  0  0
 20 19  1  0  0  0  0
 21 30  1  6  0  0  0
 21 22  1  0  0  0  0
 22 31  1  0  0  0  0
 22  7  1  0  0  0  0
 23 21  1  0  0  0  0
 23 32  1  0  0  0  0
 24 23  2  0  0  0  0
 27 18  1  0  0  0  0
 29 20  1  0  0  0  0
 32 47  1  0  0  0  0
 33 48  1  6  0  0  0
 33 32  1  0  0  0  0
 33 44  1  0  0  0  0
 33 34  1  0  0  0  0
 34 49  1  0  0  0  0
 35 34  1  0  0  0  0
 35 36  2  0  0  0  0
 36 51  1  0  0  0  0
 37 52  1  0  0  0  0
 37 36  1  0  0  0  0
 38 37  1  0  0  0  0
 39 53  1  0  0  0  0
 39 38  2  0  0  0  0
 40 39  1  0  0  0  0
 41 40  2  0  0  0  0
 41 42  1  0  0  0  0
 42 43  2  0  0  0  0
 43 38  1  0  0  0  0
 43 35  1  0  0  0  0
 44 45  1  0  0  0  0
 46 44  2  0  0  0  0
 50 34  1  0  0  0  0
 54 40  1  0  0  0  0
 55 41  1  0  0  0  0
 56 42  1  0  0  0  0
M  END
$$$$
