EVC.pdb
 OpenBabel07022418213D

 45 44  0  0  1  0  0  0  0  0999 V2000
    3.1140   -2.9260    2.8570 N   0  0  0  0  0  0  0  0  0  0  0  0
    1.6830   -2.6910    2.4150 C   0  0  1  0  0  0  0  0  0  0  0  0
    0.8830   -2.9790    3.6280 C   0  0  0  0  0  0  0  0  0  0  0  0
   -0.5750   -2.8730    3.6190 C   0  0  0  0  0  0  0  0  0  0  0  0
   -1.2040   -1.5820    3.3830 C   0  0  0  0  0  0  0  0  0  0  0  0
   -0.6530   -0.4790    3.1830 O   0  0  0  0  0  0  0  0  0  0  0  0
    1.7270   -1.3060    1.9230 C   0  0  0  0  0  0  0  0  0  0  0  0
    2.3500   -0.4240    2.6140 O   0  0  0  0  0  0  0  0  0  0  0  0
   -2.6200   -1.5330    3.3740 O   0  0  0  0  0  0  0  0  0  0  0  0
    3.7390   -2.4990    2.1430 H   0  0  0  0  0  0  0  0  0  0  0  0
    3.2600   -3.9490    2.9690 H   0  0  0  0  0  0  0  0  0  0  0  0
    1.5620   -3.4460    1.6120 H   0  0  0  0  0  0  0  0  0  0  0  0
    1.3010   -2.4020    4.5260 H   0  0  0  0  0  0  0  0  0  0  0  0
    1.1220   -4.0520    3.9530 H   0  0  0  0  0  0  0  0  0  0  0  0
   -0.9360   -3.2050    4.6490 H   0  0  0  0  0  0  0  0  0  0  0  0
   -1.0590   -3.6290    2.9420 H   0  0  0  0  0  0  0  0  0  0  0  0
   -3.1010   -0.6650    3.6220 H   0  0  0  0  0  0  0  0  0  0  0  0
    2.4890    2.1330   -1.0990 C   0  0  0  0  0  0  0  0  0  0  0  0
    2.4060    0.6710   -0.7300 C   0  0  0  0  0  0  0  0  0  0  0  0
    3.6800    0.2910   -0.0360 C   0  0  0  0  0  0  0  0  0  0  0  0
    1.2670    0.5470    0.3070 C   0  0  2  0  0  0  0  0  0  0  0  0
    1.1380   -0.8350    0.7080 N   0  0  0  0  0  0  0  0  0  0  0  0
    0.0380    1.1240   -0.2470 C   0  0  0  0  0  0  0  0  0  0  0  0
    0.0050    2.3320   -0.5940 O   0  0  0  0  0  0  0  0  0  0  0  0
    3.5560    2.4080   -1.3270 H   0  0  0  0  0  0  0  0  0  0  0  0
    1.8810    2.4230   -1.9590 H   0  0  0  0  0  0  0  0  0  0  0  0
    2.2560    2.7390   -0.1780 H   0  0  0  0  0  0  0  0  0  0  0  0
    2.2010    0.0230   -1.5940 H   0  0  0  0  0  0  0  0  0  0  0  0
    3.7120   -0.7620    0.2860 H   0  0  0  0  0  0  0  0  0  0  0  0
    4.5520    0.5090   -0.7330 H   0  0  0  0  0  0  0  0  0  0  0  0
    3.8590    0.9620    0.8260 H   0  0  0  0  0  0  0  0  0  0  0  0
    1.6220    1.1570    1.1520 H   0  0  0  0  0  0  0  0  0  0  0  0
    0.6190   -1.5350    0.1420 H   0  0  0  0  0  0  0  0  0  0  0  0
   -1.1490    0.3850   -0.4270 N   0  0  0  0  0  0  0  0  0  0  0  0
   -2.3540    0.9990   -1.0070 C   0  0  1  0  0  0  0  0  0  0  0  0
   -2.6480    0.1930   -2.2630 C   0  0  0  0  0  0  0  0  0  0  0  0
   -2.9350   -1.5460   -1.8590 S   0  0  0  0  0  0  0  0  0  0  0  0
   -3.4690    0.8020   -0.0660 C   0  0  0  0  0  0  0  0  0  0  0  0
   -3.3860    0.2170    1.0250 O   0  0  0  0  0  0  0  0  0  0  0  0
   -4.7510    1.2970   -0.3830 O   0  0  0  0  0  0  0  0  0  0  0  0
   -1.2260   -0.6130   -0.1620 H   0  0  0  0  0  0  0  0  0  0  0  0
   -2.1220    2.0520   -1.2390 H   0  0  0  0  0  0  0  0  0  0  0  0
   -1.8340    0.2370   -3.0050 H   0  0  0  0  0  0  0  0  0  0  0  0
   -3.5510    0.6510   -2.7510 H   0  0  0  0  0  0  0  0  0  0  0  0
   -2.0270   -2.4010   -2.5410 H   0  0  0  0  0  0  0  0  0  0  0  0
  1 11  1  0  0  0  0
  2 12  1  6  0  0  0
  2  1  1  0  0  0  0
  2  3  1  0  0  0  0
  3 14  1  0  0  0  0
  3 13  1  0  0  0  0
  4  3  1  0  0  0  0
  4 15  1  0  0  0  0
  5  4  1  0  0  0  0
  6  5  2  0  0  0  0
  7  2  1  0  0  0  0
  7  8  2  0  0  0  0
  9  5  1  0  0  0  0
  9 17  1  0  0  0  0
 10  1  1  0  0  0  0
 16  4  1  0  0  0  0
 18 19  1  0  0  0  0
 18 27  1  0  0  0  0
 19 20  1  0  0  0  0
 19 21  1  0  0  0  0
 20 29  1  0  0  0  0
 20 31  1  0  0  0  0
 21 22  1  0  0  0  0
 21 32  1  1  0  0  0
 22  7  1  0  0  0  0
 23 21  1  0  0  0  0
 24 23  2  0  0  0  0
 25 18  1  0  0  0  0
 26 18  1  0  0  0  0
 28 19  1  0  0  0  0
 30 20  1  0  0  0  0
 33 22  1  0  0  0  0
 34 23  1  0  0  0  0
 34 41  1  0  0  0  0
 35 42  1  6  0  0  0
 35 34  1  0  0  0  0
 35 38  1  0  0  0  0
 36 37  1  0  0  0  0
 36 35  1  0  0  0  0
 38 39  1  0  0  0  0
 40 38  2  0  0  0  0
 43 36  1  0  0  0  0
 44 36  1  0  0  0  0
 45 37  1  0  0  0  0
M  END
$$$$
