EVD.pdb
 OpenBabel07022418213D

 47 46  0  0  1  0  0  0  0  0999 V2000
    2.5790   -4.7200    0.9220 N   0  0  0  0  0  0  0  0  0  0  0  0
    2.6980   -3.3450    0.4780 C   0  0  1  0  0  0  0  0  0  0  0  0
    2.5730   -3.3360   -1.0180 C   0  0  0  0  0  0  0  0  0  0  0  0
    1.2840   -3.8750   -1.5420 C   0  0  0  0  0  0  0  0  0  0  0  0
    1.2750   -3.8160   -3.0120 C   0  0  0  0  0  0  0  0  0  0  0  0
    2.2800   -3.3540   -3.6100 O   0  0  0  0  0  0  0  0  0  0  0  0
    1.7320   -2.5150    1.1890 C   0  0  0  0  0  0  0  0  0  0  0  0
    0.9860   -3.0460    2.0520 O   0  0  0  0  0  0  0  0  0  0  0  0
    0.2040   -4.2490   -3.7890 O   0  0  0  0  0  0  0  0  0  0  0  0
    1.5760   -5.0270    0.7380 H   0  0  0  0  0  0  0  0  0  0  0  0
    2.7000   -4.7440    1.9630 H   0  0  0  0  0  0  0  0  0  0  0  0
    3.7450   -3.0100    0.6950 H   0  0  0  0  0  0  0  0  0  0  0  0
    3.3880   -4.0200   -1.3970 H   0  0  0  0  0  0  0  0  0  0  0  0
    2.8210   -2.3480   -1.4620 H   0  0  0  0  0  0  0  0  0  0  0  0
    1.1810   -4.9590   -1.2680 H   0  0  0  0  0  0  0  0  0  0  0  0
    0.4090   -3.3760   -1.0820 H   0  0  0  0  0  0  0  0  0  0  0  0
    0.0810   -3.7930   -4.6890 H   0  0  0  0  0  0  0  0  0  0  0  0
    2.1300    1.5840    1.8070 C   0  0  0  0  0  0  0  0  0  0  0  0
    1.3180    0.6190    2.6040 C   0  0  0  0  0  0  0  0  0  0  0  0
    0.4520    1.3330    3.5760 C   0  0  0  0  0  0  0  0  0  0  0  0
    0.5740   -0.3790    1.7430 C   0  0  2  0  0  0  0  0  0  0  0  0
    1.5580   -1.1240    0.9860 N   0  0  0  0  0  0  0  0  0  0  0  0
   -0.3720    0.2250    0.7990 C   0  0  0  0  0  0  0  0  0  0  0  0
   -0.2090    0.0690   -0.4620 O   0  0  0  0  0  0  0  0  0  0  0  0
    1.4320    2.1950    1.1790 H   0  0  0  0  0  0  0  0  0  0  0  0
    2.6820    2.2320    2.5360 H   0  0  0  0  0  0  0  0  0  0  0  0
    2.8990    1.0730    1.2100 H   0  0  0  0  0  0  0  0  0  0  0  0
    2.0260   -0.0200    3.2170 H   0  0  0  0  0  0  0  0  0  0  0  0
    1.1160    1.6140    4.4510 H   0  0  0  0  0  0  0  0  0  0  0  0
   -0.3520    0.7300    4.0270 H   0  0  0  0  0  0  0  0  0  0  0  0
    0.0880    2.3090    3.1850 H   0  0  0  0  0  0  0  0  0  0  0  0
    0.0670   -1.0780    2.4680 H   0  0  0  0  0  0  0  0  0  0  0  0
    2.1360   -0.6260    0.2920 H   0  0  0  0  0  0  0  0  0  0  0  0
   -1.5070    1.0030    1.1320 N   0  0  0  0  0  0  0  0  0  0  0  0
   -2.4110    1.5780    0.1450 C   0  0  1  0  0  0  0  0  0  0  0  0
   -3.7890    0.9830    0.4770 C   0  0  0  0  0  0  0  0  0  0  0  0
   -4.1370    1.3810    1.8600 C   0  0  0  0  0  0  0  0  0  0  0  0
   -4.5020    2.5730    2.1190 O   0  0  0  0  0  0  0  0  0  0  0  0
   -2.5310    3.0360    0.2910 C   0  0  0  0  0  0  0  0  0  0  0  0
   -1.8900    3.6340    1.1840 O   0  0  0  0  0  0  0  0  0  0  0  0
   -4.0850    0.4900    2.9360 O   0  0  0  0  0  0  0  0  0  0  0  0
   -3.3460    3.7810   -0.5450 O   0  0  0  0  0  0  0  0  0  0  0  0
   -1.7130    1.1730    2.1270 H   0  0  0  0  0  0  0  0  0  0  0  0
   -2.1120    1.3320   -0.8770 H   0  0  0  0  0  0  0  0  0  0  0  0
   -4.5570    1.2930   -0.2370 H   0  0  0  0  0  0  0  0  0  0  0  0
   -3.7340   -0.1440    0.4590 H   0  0  0  0  0  0  0  0  0  0  0  0
   -4.2070    0.8480    3.8850 H   0  0  0  0  0  0  0  0  0  0  0  0
  1 11  1  0  0  0  0
  2 12  1  1  0  0  0
  2  1  1  0  0  0  0
  2  7  1  0  0  0  0
  3  2  1  0  0  0  0
  4 15  1  0  0  0  0
  4 16  1  0  0  0  0
  4  3  1  0  0  0  0
  5  4  1  0  0  0  0
  6  5  2  0  0  0  0
  7  8  2  0  0  0  0
  9  5  1  0  0  0  0
 10  1  1  0  0  0  0
 13  3  1  0  0  0  0
 14  3  1  0  0  0  0
 17  9  1  0  0  0  0
 18 26  1  0  0  0  0
 18 19  1  0  0  0  0
 19 28  1  0  0  0  0
 19 20  1  0  0  0  0
 20 30  1  0  0  0  0
 20 29  1  0  0  0  0
 21 32  1  1  0  0  0
 21 19  1  0  0  0  0
 22  7  1  0  0  0  0
 22 21  1  0  0  0  0
 23 34  1  0  0  0  0
 23 21  1  0  0  0  0
 24 23  2  0  0  0  0
 25 18  1  0  0  0  0
 27 18  1  0  0  0  0
 31 20  1  0  0  0  0
 33 22  1  0  0  0  0
 34 43  1  0  0  0  0
 35 44  1  6  0  0  0
 35 39  1  0  0  0  0
 35 36  1  0  0  0  0
 35 34  1  0  0  0  0
 36 37  1  0  0  0  0
 37 38  2  0  0  0  0
 37 41  1  0  0  0  0
 39 40  1  0  0  0  0
 41 47  1  0  0  0  0
 42 39  2  0  0  0  0
 45 36  1  0  0  0  0
 46 36  1  0  0  0  0
M  END
$$$$
