EVH.pdb
 OpenBabel07022418213D

 51 51  0  0  1  0  0  0  0  0999 V2000
   -0.1910    0.6710    4.9940 N   0  0  0  0  0  0  0  0  0  0  0  0
   -0.8120    1.5010    3.9820 C   0  0  1  0  0  0  0  0  0  0  0  0
   -0.5810    2.9510    4.1870 C   0  0  0  0  0  0  0  0  0  0  0  0
    0.8150    3.4380    4.2160 C   0  0  0  0  0  0  0  0  0  0  0  0
    1.6360    3.2050    3.0370 C   0  0  0  0  0  0  0  0  0  0  0  0
    2.2680    2.1240    2.9640 O   0  0  0  0  0  0  0  0  0  0  0  0
   -0.6350    1.0030    2.6020 C   0  0  0  0  0  0  0  0  0  0  0  0
   -1.1150    1.7340    1.6870 O   0  0  0  0  0  0  0  0  0  0  0  0
    1.7750    4.0910    1.9860 O   0  0  0  0  0  0  0  0  0  0  0  0
   -0.1330    1.2540    5.8590 H   0  0  0  0  0  0  0  0  0  0  0  0
   -0.7210   -0.2220    5.1580 H   0  0  0  0  0  0  0  0  0  0  0  0
   -1.9380    1.3670    4.2290 H   0  0  0  0  0  0  0  0  0  0  0  0
   -1.0290    3.2160    5.1910 H   0  0  0  0  0  0  0  0  0  0  0  0
   -1.2110    3.5250    3.4610 H   0  0  0  0  0  0  0  0  0  0  0  0
    0.7470    4.5580    4.3770 H   0  0  0  0  0  0  0  0  0  0  0  0
    1.3650    3.1070    5.1500 H   0  0  0  0  0  0  0  0  0  0  0  0
    1.9290    3.6970    1.0450 H   0  0  0  0  0  0  0  0  0  0  0  0
    2.2930   -1.8300    1.1350 C   0  0  0  0  0  0  0  0  0  0  0  0
    1.5220   -0.7840    0.3660 C   0  0  0  0  0  0  0  0  0  0  0  0
    2.2440    0.5090    0.1990 C   0  0  0  0  0  0  0  0  0  0  0  0
    0.1130   -0.6030    0.8720 C   0  0  2  0  0  0  0  0  0  0  0  0
    0.0120   -0.2040    2.2410 N   0  0  0  0  0  0  0  0  0  0  0  0
   -0.6350   -1.8640    0.7190 C   0  0  0  0  0  0  0  0  0  0  0  0
   -1.1730   -2.4100    1.7030 O   0  0  0  0  0  0  0  0  0  0  0  0
    2.4890   -1.5560    2.1820 H   0  0  0  0  0  0  0  0  0  0  0  0
    3.2790   -1.9290    0.6370 H   0  0  0  0  0  0  0  0  0  0  0  0
    1.7720   -2.7990    1.0120 H   0  0  0  0  0  0  0  0  0  0  0  0
    1.4110   -1.2210   -0.6720 H   0  0  0  0  0  0  0  0  0  0  0  0
    1.5470    1.3680    0.3990 H   0  0  0  0  0  0  0  0  0  0  0  0
    2.6270    0.6330   -0.8310 H   0  0  0  0  0  0  0  0  0  0  0  0
    3.1270    0.5650    0.8720 H   0  0  0  0  0  0  0  0  0  0  0  0
   -0.3310    0.2140    0.2360 H   0  0  0  0  0  0  0  0  0  0  0  0
    0.4160   -0.8020    2.9900 H   0  0  0  0  0  0  0  0  0  0  0  0
   -0.7490   -2.4670   -0.5530 N   0  0  0  0  0  0  0  0  0  0  0  0
   -1.4810   -3.7210   -0.7490 C   0  0  1  0  0  0  0  0  0  0  0  0
   -2.5820   -3.5090   -1.7700 C   0  0  0  0  0  0  0  0  0  0  0  0
   -1.9830   -3.0770   -3.0590 C   0  0  0  0  0  0  0  0  0  0  0  0
   -1.7170   -1.8020   -3.5090 C   0  0  0  0  0  0  0  0  0  0  0  0
   -1.1730   -1.8510   -4.7310 N   0  0  0  0  0  0  0  0  0  0  0  0
   -1.0940   -3.1690   -5.0530 C   0  0  0  0  0  0  0  0  0  0  0  0
   -1.5800   -3.9130   -4.0510 N   0  0  0  0  0  0  0  0  0  0  0  0
   -0.5280   -4.7080   -1.2890 C   0  0  0  0  0  0  0  0  0  0  0  0
   -0.9310   -5.8820   -1.5460 O   0  0  0  0  0  0  0  0  0  0  0  0
    0.7910   -4.4100   -1.5280 O   0  0  0  0  0  0  0  0  0  0  0  0
   -0.3000   -1.9970   -1.3640 H   0  0  0  0  0  0  0  0  0  0  0  0
   -1.8720   -4.0560    0.2130 H   0  0  0  0  0  0  0  0  0  0  0  0
   -3.2520   -2.7050   -1.4020 H   0  0  0  0  0  0  0  0  0  0  0  0
   -3.1250   -4.4730   -1.8730 H   0  0  0  0  0  0  0  0  0  0  0  0
   -1.9180   -0.8920   -2.9600 H   0  0  0  0  0  0  0  0  0  0  0  0
   -0.8490   -1.0840   -5.3680 H   0  0  0  0  0  0  0  0  0  0  0  0
   -0.7010   -3.5850   -5.9770 H   0  0  0  0  0  0  0  0  0  0  0  0
  1 11  1  0  0  0  0
  1 10  1  0  0  0  0
  2  3  1  0  0  0  0
  2 12  1  1  0  0  0
  2  1  1  0  0  0  0
  3  4  1  0  0  0  0
  3 13  1  0  0  0  0
  4 15  1  0  0  0  0
  4 16  1  0  0  0  0
  5  4  1  0  0  0  0
  6  5  2  0  0  0  0
  7  2  1  0  0  0  0
  8  7  2  0  0  0  0
  9  5  1  0  0  0  0
 14  3  1  0  0  0  0
 17  9  1  0  0  0  0
 18 25  1  0  0  0  0
 19 21  1  0  0  0  0
 19 18  1  0  0  0  0
 20 19  1  0  0  0  0
 20 29  1  0  0  0  0
 20 31  1  0  0  0  0
 21 32  1  6  0  0  0
 21 22  1  0  0  0  0
 22  7  1  0  0  0  0
 22 33  1  0  0  0  0
 23 21  1  0  0  0  0
 23 24  2  0  0  0  0
 26 18  1  0  0  0  0
 27 18  1  0  0  0  0
 28 19  1  0  0  0  0
 30 20  1  0  0  0  0
 34 23  1  0  0  0  0
 35 34  1  0  0  0  0
 35 46  1  1  0  0  0
 36 47  1  0  0  0  0
 36 35  1  0  0  0  0
 37 36  1  0  0  0  0
 38 37  2  0  0  0  0
 38 49  1  0  0  0  0
 39 38  1  0  0  0  0
 40 39  1  0  0  0  0
 40 41  2  0  0  0  0
 41 37  1  0  0  0  0
 42 35  1  0  0  0  0
 43 42  2  0  0  0  0
 44 42  1  0  0  0  0
 45 34  1  0  0  0  0
 48 36  1  0  0  0  0
 50 39  1  0  0  0  0
 51 40  1  0  0  0  0
M  END
$$$$
