EVI.pdb
 OpenBabel07022418213D

 53 52  0  0  1  0  0  0  0  0999 V2000
    1.2080   -4.1620    4.1420 N   0  0  0  0  0  0  0  0  0  0  0  0
    1.7490   -3.4520    2.9570 C   0  0  1  0  0  0  0  0  0  0  0  0
    1.9030   -4.4290    1.8630 C   0  0  0  0  0  0  0  0  0  0  0  0
    2.4210   -3.8820    0.5600 C   0  0  0  0  0  0  0  0  0  0  0  0
    2.5810   -5.0430   -0.3890 C   0  0  0  0  0  0  0  0  0  0  0  0
    3.2220   -6.0350   -0.0040 O   0  0  0  0  0  0  0  0  0  0  0  0
    1.0110   -2.2200    2.7230 C   0  0  0  0  0  0  0  0  0  0  0  0
   -0.0680   -2.0180    3.3840 O   0  0  0  0  0  0  0  0  0  0  0  0
    2.0170   -4.9770   -1.6510 O   0  0  0  0  0  0  0  0  0  0  0  0
    0.1540   -4.1060    4.0730 H   0  0  0  0  0  0  0  0  0  0  0  0
    1.4220   -5.2050    4.0230 H   0  0  0  0  0  0  0  0  0  0  0  0
    2.7960   -3.1430    3.2900 H   0  0  0  0  0  0  0  0  0  0  0  0
    0.9370   -4.9720    1.6560 H   0  0  0  0  0  0  0  0  0  0  0  0
    2.6130   -5.2450    2.2030 H   0  0  0  0  0  0  0  0  0  0  0  0
    3.3400   -3.3010    0.6240 H   0  0  0  0  0  0  0  0  0  0  0  0
    1.6210   -3.2060    0.1440 H   0  0  0  0  0  0  0  0  0  0  0  0
    1.5800   -5.8440   -2.0120 H   0  0  0  0  0  0  0  0  0  0  0  0
    2.5540    1.3290    1.0230 C   0  0  0  0  0  0  0  0  0  0  0  0
    1.4170    1.1980    1.9750 C   0  0  0  0  0  0  0  0  0  0  0  0
    0.6500    2.4650    2.1810 C   0  0  0  0  0  0  0  0  0  0  0  0
    0.5570   -0.0210    1.6980 C   0  0  2  0  0  0  0  0  0  0  0  0
    1.3800   -1.2090    1.8230 N   0  0  0  0  0  0  0  0  0  0  0  0
   -0.0350   -0.0300    0.3430 C   0  0  0  0  0  0  0  0  0  0  0  0
    0.2780   -0.9340   -0.4620 O   0  0  0  0  0  0  0  0  0  0  0  0
    2.2930    1.3170   -0.0460 H   0  0  0  0  0  0  0  0  0  0  0  0
    3.0980    2.2810    1.2650 H   0  0  0  0  0  0  0  0  0  0  0  0
    3.2850    0.5220    1.2830 H   0  0  0  0  0  0  0  0  0  0  0  0
    1.8950    0.9680    2.9830 H   0  0  0  0  0  0  0  0  0  0  0  0
   -0.3400    2.2760    2.6820 H   0  0  0  0  0  0  0  0  0  0  0  0
    1.1810    3.1400    2.9290 H   0  0  0  0  0  0  0  0  0  0  0  0
    0.5510    3.1000    1.2810 H   0  0  0  0  0  0  0  0  0  0  0  0
   -0.2420   -0.0160    2.4860 H   0  0  0  0  0  0  0  0  0  0  0  0
    2.2340   -1.2780    1.2580 H   0  0  0  0  0  0  0  0  0  0  0  0
   -3.4150   -0.1890    0.8490 C   0  0  0  0  0  0  0  0  0  0  0  0
   -3.7170   -0.0600   -0.6000 C   0  0  0  0  0  0  0  0  0  0  0  0
   -3.0380    1.0250   -1.3470 C   0  0  2  0  0  0  0  0  0  0  0  0
   -3.5640    0.9640   -2.7910 C   0  0  0  0  0  0  0  0  0  0  0  0
   -1.5450    0.9240   -1.4380 C   0  0  2  0  0  0  0  0  0  0  0  0
   -0.9670    0.9530   -0.1060 N   0  0  0  0  0  0  0  0  0  0  0  0
   -1.0490    2.0680   -2.2500 C   0  0  0  0  0  0  0  0  0  0  0  0
   -0.2490    2.9000   -1.7400 O   0  0  0  0  0  0  0  0  0  0  0  0
   -1.4330    2.2640   -3.5570 O   0  0  0  0  0  0  0  0  0  0  0  0
   -2.6440   -0.9630    1.0260 H   0  0  0  0  0  0  0  0  0  0  0  0
   -3.1890    0.7510    1.3690 H   0  0  0  0  0  0  0  0  0  0  0  0
   -4.3200   -0.6060    1.4130 H   0  0  0  0  0  0  0  0  0  0  0  0
   -4.8330   -0.0030   -0.7010 H   0  0  0  0  0  0  0  0  0  0  0  0
   -3.4680   -1.0350   -1.1310 H   0  0  0  0  0  0  0  0  0  0  0  0
   -3.2610    2.0330   -0.9220 H   0  0  0  0  0  0  0  0  0  0  0  0
   -2.8270    0.4130   -3.4010 H   0  0  0  0  0  0  0  0  0  0  0  0
   -3.6870    1.9970   -3.1960 H   0  0  0  0  0  0  0  0  0  0  0  0
   -4.5100    0.4020   -2.8000 H   0  0  0  0  0  0  0  0  0  0  0  0
   -1.2800    0.0110   -1.9920 H   0  0  0  0  0  0  0  0  0  0  0  0
   -1.2160    1.6990    0.5710 H   0  0  0  0  0  0  0  0  0  0  0  0
  2 12  1  1  0  0  0
  2  1  1  0  0  0  0
  3 14  1  0  0  0  0
  3  2  1  0  0  0  0
  4 15  1  0  0  0  0
  4  3  1  0  0  0  0
  5  6  2  0  0  0  0
  5  4  1  0  0  0  0
  7  2  1  0  0  0  0
  7  8  2  0  0  0  0
  9  5  1  0  0  0  0
 10  1  1  0  0  0  0
 11  1  1  0  0  0  0
 13  3  1  0  0  0  0
 16  4  1  0  0  0  0
 17  9  1  0  0  0  0
 18 26  1  0  0  0  0
 18 27  1  0  0  0  0
 18 19  1  0  0  0  0
 19 20  1  0  0  0  0
 19 28  1  0  0  0  0
 20 29  1  0  0  0  0
 20 30  1  0  0  0  0
 21 22  1  0  0  0  0
 21 19  1  0  0  0  0
 21 32  1  1  0  0  0
 22  7  1  0  0  0  0
 23 21  1  0  0  0  0
 24 23  2  0  0  0  0
 25 18  1  0  0  0  0
 31 20  1  0  0  0  0
 33 22  1  0  0  0  0
 34 43  1  0  0  0  0
 34 44  1  0  0  0  0
 34 45  1  0  0  0  0
 35 34  1  0  0  0  0
 36 48  1  1  0  0  0
 36 35  1  0  0  0  0
 37 36  1  0  0  0  0
 38 52  1  6  0  0  0
 38 36  1  0  0  0  0
 38 39  1  0  0  0  0
 39 23  1  0  0  0  0
 39 53  1  0  0  0  0
 40 41  1  0  0  0  0
 40 38  1  0  0  0  0
 42 40  2  0  0  0  0
 46 35  1  0  0  0  0
 47 35  1  0  0  0  0
 49 37  1  0  0  0  0
 50 37  1  0  0  0  0
 51 37  1  0  0  0  0
M  END
$$$$
