EVM.pdb
 OpenBabel07022418213D

 51 50  0  0  1  0  0  0  0  0999 V2000
    3.3610   -3.3620    1.9400 N   0  0  0  0  0  0  0  0  0  0  0  0
    2.0470   -3.8740    2.2860 C   0  0  1  0  0  0  0  0  0  0  0  0
    1.9780   -4.4510    3.6410 C   0  0  0  0  0  0  0  0  0  0  0  0
    2.3330   -3.6350    4.8080 C   0  0  0  0  0  0  0  0  0  0  0  0
    1.5480   -2.4320    5.0940 C   0  0  0  0  0  0  0  0  0  0  0  0
    0.5600   -2.0920    4.4450 O   0  0  0  0  0  0  0  0  0  0  0  0
    0.9670   -2.9750    1.8700 C   0  0  0  0  0  0  0  0  0  0  0  0
   -0.2330   -3.3960    1.9230 O   0  0  0  0  0  0  0  0  0  0  0  0
    1.9230   -1.5950    6.1710 O   0  0  0  0  0  0  0  0  0  0  0  0
    3.7260   -2.6690    2.6030 H   0  0  0  0  0  0  0  0  0  0  0  0
    4.0190   -4.1210    1.7180 H   0  0  0  0  0  0  0  0  0  0  0  0
    1.9630   -4.8010    1.5850 H   0  0  0  0  0  0  0  0  0  0  0  0
    2.5600   -5.4150    3.6870 H   0  0  0  0  0  0  0  0  0  0  0  0
    0.9160   -4.8010    3.7880 H   0  0  0  0  0  0  0  0  0  0  0  0
    3.4370   -3.4150    4.8780 H   0  0  0  0  0  0  0  0  0  0  0  0
    2.1850   -4.3090    5.7220 H   0  0  0  0  0  0  0  0  0  0  0  0
    1.1950   -1.0890    6.6640 H   0  0  0  0  0  0  0  0  0  0  0  0
    1.1580    1.2740    1.6870 C   0  0  0  0  0  0  0  0  0  0  0  0
   -0.0450    0.4070    1.8490 C   0  0  0  0  0  0  0  0  0  0  0  0
   -1.2870    1.2160    1.6500 C   0  0  0  0  0  0  0  0  0  0  0  0
    0.0010   -0.8570    1.0180 C   0  0  2  0  0  0  0  0  0  0  0  0
    1.1520   -1.6620    1.4080 N   0  0  0  0  0  0  0  0  0  0  0  0
    0.1250   -0.5670   -0.4430 C   0  0  0  0  0  0  0  0  0  0  0  0
    1.1870   -0.9090   -1.0510 O   0  0  0  0  0  0  0  0  0  0  0  0
    1.4660    1.3810    0.6110 H   0  0  0  0  0  0  0  0  0  0  0  0
    0.8880    2.3000    2.0120 H   0  0  0  0  0  0  0  0  0  0  0  0
    2.0170    0.9650    2.3250 H   0  0  0  0  0  0  0  0  0  0  0  0
   -0.0580    0.1140    2.9490 H   0  0  0  0  0  0  0  0  0  0  0  0
   -1.1930    2.0010    0.8460 H   0  0  0  0  0  0  0  0  0  0  0  0
   -1.4070    1.8640    2.5840 H   0  0  0  0  0  0  0  0  0  0  0  0
   -2.2220    0.6420    1.5960 H   0  0  0  0  0  0  0  0  0  0  0  0
   -0.9210   -1.4270    1.2040 H   0  0  0  0  0  0  0  0  0  0  0  0
    2.0890   -1.2570    1.3400 H   0  0  0  0  0  0  0  0  0  0  0  0
   -3.5610    2.5400   -2.3400 C   0  0  0  0  0  0  0  0  0  0  0  0
   -3.9180    1.3390   -3.6220 S   0  0  0  0  0  0  0  0  0  0  0  0
   -3.1450   -0.2210   -3.3760 C   0  0  0  0  0  0  0  0  0  0  0  0
   -1.6910   -0.3590   -3.5090 C   0  0  0  0  0  0  0  0  0  0  0  0
   -0.7640    0.3600   -2.6290 C   0  0  2  0  0  0  0  0  0  0  0  0
   -0.8840    0.0720   -1.2090 N   0  0  0  0  0  0  0  0  0  0  0  0
   -0.5540    1.7800   -2.9350 C   0  0  0  0  0  0  0  0  0  0  0  0
   -0.4040    2.6100   -2.0140 O   0  0  0  0  0  0  0  0  0  0  0  0
   -0.5200    2.2150   -4.2400 O   0  0  0  0  0  0  0  0  0  0  0  0
   -3.0420    2.1120   -1.4630 H   0  0  0  0  0  0  0  0  0  0  0  0
   -2.9400    3.3920   -2.7020 H   0  0  0  0  0  0  0  0  0  0  0  0
   -4.4910    3.0020   -1.9180 H   0  0  0  0  0  0  0  0  0  0  0  0
   -3.4100   -0.6500   -2.3470 H   0  0  0  0  0  0  0  0  0  0  0  0
   -3.6540   -0.9750   -4.0690 H   0  0  0  0  0  0  0  0  0  0  0  0
   -1.3790   -1.4600   -3.4820 H   0  0  0  0  0  0  0  0  0  0  0  0
   -1.3940   -0.0830   -4.5770 H   0  0  0  0  0  0  0  0  0  0  0  0
    0.2760   -0.1040   -2.8770 H   0  0  0  0  0  0  0  0  0  0  0  0
   -1.7460    0.3130   -0.6760 H   0  0  0  0  0  0  0  0  0  0  0  0
  1  2  1  0  0  0  0
  1 10  1  0  0  0  0
  2 12  1  6  0  0  0
  2  3  1  0  0  0  0
  3 13  1  0  0  0  0
  3 14  1  0  0  0  0
  3  4  1  0  0  0  0
  4 15  1  0  0  0  0
  4  5  1  0  0  0  0
  4 16  1  0  0  0  0
  5  9  1  0  0  0  0
  6  5  2  0  0  0  0
  7  8  2  0  0  0  0
  7  2  1  0  0  0  0
  9 17  1  0  0  0  0
 11  1  1  0  0  0  0
 18 19  1  0  0  0  0
 18 26  1  0  0  0  0
 18 27  1  0  0  0  0
 19 28  1  0  0  0  0
 20 19  1  0  0  0  0
 20 30  1  0  0  0  0
 21 32  1  1  0  0  0
 21 22  1  0  0  0  0
 21 19  1  0  0  0  0
 22  7  1  0  0  0  0
 23 21  1  0  0  0  0
 24 23  2  0  0  0  0
 25 18  1  0  0  0  0
 29 20  1  0  0  0  0
 31 20  1  0  0  0  0
 33 22  1  0  0  0  0
 34 45  1  0  0  0  0
 34 43  1  0  0  0  0
 35 36  1  0  0  0  0
 35 34  1  0  0  0  0
 36 46  1  0  0  0  0
 37 48  1  0  0  0  0
 37 36  1  0  0  0  0
 37 38  1  0  0  0  0
 38 50  1  6  0  0  0
 38 39  1  0  0  0  0
 39 51  1  0  0  0  0
 39 23  1  0  0  0  0
 40 38  1  0  0  0  0
 40 41  1  0  0  0  0
 42 40  2  0  0  0  0
 44 34  1  0  0  0  0
 47 36  1  0  0  0  0
 49 37  1  0  0  0  0
M  END
$$$$
