EVN.pdb
 OpenBabel07022418213D

 48 47  0  0  1  0  0  0  0  0999 V2000
    0.7680   -4.5390    1.5070 N   0  0  0  0  0  0  0  0  0  0  0  0
    1.4270   -3.6200    2.3890 C   0  0  1  0  0  0  0  0  0  0  0  0
    2.8420   -4.0200    2.5990 C   0  0  0  0  0  0  0  0  0  0  0  0
    3.6980   -4.1210    1.3830 C   0  0  0  0  0  0  0  0  0  0  0  0
    3.8240   -2.8790    0.6060 C   0  0  0  0  0  0  0  0  0  0  0  0
    3.1520   -2.7020   -0.4340 O   0  0  0  0  0  0  0  0  0  0  0  0
    1.2370   -2.2010    2.0130 C   0  0  0  0  0  0  0  0  0  0  0  0
    1.7480   -1.2720    2.7210 O   0  0  0  0  0  0  0  0  0  0  0  0
    4.6960   -1.8890    1.0270 O   0  0  0  0  0  0  0  0  0  0  0  0
   -0.2120   -4.7560    1.8140 H   0  0  0  0  0  0  0  0  0  0  0  0
    1.3120   -5.4080    1.3160 H   0  0  0  0  0  0  0  0  0  0  0  0
    0.8970   -3.7700    3.4130 H   0  0  0  0  0  0  0  0  0  0  0  0
    2.8230   -5.0200    3.1270 H   0  0  0  0  0  0  0  0  0  0  0  0
    3.3700   -3.3390    3.3370 H   0  0  0  0  0  0  0  0  0  0  0  0
    3.2750   -4.8890    0.6890 H   0  0  0  0  0  0  0  0  0  0  0  0
    4.7410   -4.4540    1.6780 H   0  0  0  0  0  0  0  0  0  0  0  0
    4.6720   -0.9230    0.6860 H   0  0  0  0  0  0  0  0  0  0  0  0
    0.8670   -0.6940   -1.8450 C   0  0  0  0  0  0  0  0  0  0  0  0
    1.1910    0.0410   -0.6010 C   0  0  0  0  0  0  0  0  0  0  0  0
    1.1920    1.5210   -0.8830 C   0  0  0  0  0  0  0  0  0  0  0  0
    0.3420   -0.3350    0.5890 C   0  0  2  0  0  0  0  0  0  0  0  0
    0.5060   -1.7610    0.8910 N   0  0  0  0  0  0  0  0  0  0  0  0
   -1.1020   -0.0950    0.4180 C   0  0  0  0  0  0  0  0  0  0  0  0
   -1.8880   -1.0730    0.4190 O   0  0  0  0  0  0  0  0  0  0  0  0
    0.2180   -0.1220   -2.5490 H   0  0  0  0  0  0  0  0  0  0  0  0
    1.8210   -0.8900   -2.4140 H   0  0  0  0  0  0  0  0  0  0  0  0
    0.3860   -1.6760   -1.7070 H   0  0  0  0  0  0  0  0  0  0  0  0
    2.2550   -0.1720   -0.2650 H   0  0  0  0  0  0  0  0  0  0  0  0
    1.1800    2.0820    0.0670 H   0  0  0  0  0  0  0  0  0  0  0  0
    2.1630    1.8350   -1.3700 H   0  0  0  0  0  0  0  0  0  0  0  0
    0.3620    1.8450   -1.5280 H   0  0  0  0  0  0  0  0  0  0  0  0
    0.7720    0.2170    1.4430 H   0  0  0  0  0  0  0  0  0  0  0  0
    0.0750   -2.4610    0.2630 H   0  0  0  0  0  0  0  0  0  0  0  0
   -4.1500    2.4540    3.5790 N   0  0  0  0  0  0  0  0  0  0  0  0
   -3.6070    1.7050    2.5030 C   0  0  0  0  0  0  0  0  0  0  0  0
   -3.0040    0.6360    2.7300 O   0  0  0  0  0  0  0  0  0  0  0  0
   -3.7670    2.2070    1.1370 C   0  0  0  0  0  0  0  0  0  0  0  0
   -3.1580    1.3480    0.0790 C   0  0  2  0  0  0  0  0  0  0  0  0
   -1.7110    1.1770    0.2480 N   0  0  0  0  0  0  0  0  0  0  0  0
   -3.4320    1.9210   -1.2730 C   0  0  0  0  0  0  0  0  0  0  0  0
   -4.6030    2.1600   -1.6240 O   0  0  0  0  0  0  0  0  0  0  0  0
   -2.3950    2.1860   -2.1330 O   0  0  0  0  0  0  0  0  0  0  0  0
   -4.6520    3.3590    3.4250 H   0  0  0  0  0  0  0  0  0  0  0  0
   -4.0550    2.1050    4.5720 H   0  0  0  0  0  0  0  0  0  0  0  0
   -4.8730    2.2230    0.9230 H   0  0  0  0  0  0  0  0  0  0  0  0
   -3.3520    3.2340    1.0110 H   0  0  0  0  0  0  0  0  0  0  0  0
   -3.6010    0.3240    0.1650 H   0  0  0  0  0  0  0  0  0  0  0  0
   -1.1570    2.0520    0.2480 H   0  0  0  0  0  0  0  0  0  0  0  0
  1 10  1  0  0  0  0
  1  2  1  0  0  0  0
  2  3  1  0  0  0  0
  2 12  1  1  0  0  0
  3 13  1  0  0  0  0
  3 14  1  0  0  0  0
  4 16  1  0  0  0  0
  4  3  1  0  0  0  0
  5  9  1  0  0  0  0
  5  4  1  0  0  0  0
  6  5  2  0  0  0  0
  7  2  1  0  0  0  0
  7  8  2  0  0  0  0
 11  1  1  0  0  0  0
 15  4  1  0  0  0  0
 17  9  1  0  0  0  0
 18 27  1  0  0  0  0
 18 19  1  0  0  0  0
 19 28  1  0  0  0  0
 19 21  1  0  0  0  0
 20 19  1  0  0  0  0
 20 29  1  0  0  0  0
 21 22  1  0  0  0  0
 21 32  1  1  0  0  0
 22  7  1  0  0  0  0
 23 24  2  0  0  0  0
 23 21  1  0  0  0  0
 25 18  1  0  0  0  0
 26 18  1  0  0  0  0
 30 20  1  0  0  0  0
 31 20  1  0  0  0  0
 33 22  1  0  0  0  0
 34 44  1  0  0  0  0
 35 36  2  0  0  0  0
 35 34  1  0  0  0  0
 37 35  1  0  0  0  0
 38 47  1  1  0  0  0
 38 39  1  0  0  0  0
 38 37  1  0  0  0  0
 39 23  1  0  0  0  0
 40 38  1  0  0  0  0
 41 40  1  0  0  0  0
 42 40  2  0  0  0  0
 43 34  1  0  0  0  0
 45 37  1  0  0  0  0
 46 37  1  0  0  0  0
 48 39  1  0  0  0  0
M  END
$$$$
