EVP.pdb
 OpenBabel07022418213D

 48 48  0  0  1  0  0  0  0  0999 V2000
    2.4120   -3.0780    2.2160 N   0  0  0  0  0  0  0  0  0  0  0  0
    1.2640   -2.1990    2.2640 C   0  0  1  0  0  0  0  0  0  0  0  0
    1.3380   -1.4370    3.5730 C   0  0  0  0  0  0  0  0  0  0  0  0
    2.6290   -0.6370    3.6190 C   0  0  0  0  0  0  0  0  0  0  0  0
    2.6930    0.1050    4.9050 C   0  0  0  0  0  0  0  0  0  0  0  0
    1.7720    0.0080    5.7400 O   0  0  0  0  0  0  0  0  0  0  0  0
    1.2680   -1.2300    1.1170 C   0  0  0  0  0  0  0  0  0  0  0  0
    2.2270   -1.3160    0.3370 O   0  0  0  0  0  0  0  0  0  0  0  0
    3.7920    0.9140    5.1810 O   0  0  0  0  0  0  0  0  0  0  0  0
    2.7220   -3.3570    3.1810 H   0  0  0  0  0  0  0  0  0  0  0  0
    2.2150   -3.9060    1.6160 H   0  0  0  0  0  0  0  0  0  0  0  0
    0.3580   -2.8320    2.2100 H   0  0  0  0  0  0  0  0  0  0  0  0
    1.3220   -2.1030    4.4420 H   0  0  0  0  0  0  0  0  0  0  0  0
    0.5150   -0.7020    3.6130 H   0  0  0  0  0  0  0  0  0  0  0  0
    3.4700   -1.3790    3.5860 H   0  0  0  0  0  0  0  0  0  0  0  0
    2.7290    0.0280    2.7610 H   0  0  0  0  0  0  0  0  0  0  0  0
    3.9430    1.2290    6.1160 H   0  0  0  0  0  0  0  0  0  0  0  0
    0.9140    1.7690   -2.1430 C   0  0  0  0  0  0  0  0  0  0  0  0
    1.2140    0.7220   -1.0610 C   0  0  0  0  0  0  0  0  0  0  0  0
    2.4240    1.2850   -0.3410 C   0  0  0  0  0  0  0  0  0  0  0  0
    0.0650    0.7150   -0.0450 C   0  0  2  0  0  0  0  0  0  0  0  0
    0.2460   -0.2830    0.9390 N   0  0  0  0  0  0  0  0  0  0  0  0
   -1.2260    0.7120   -0.6860 C   0  0  0  0  0  0  0  0  0  0  0  0
   -1.6060    1.7490   -1.3830 O   0  0  0  0  0  0  0  0  0  0  0  0
    1.8930    1.9800   -2.6210 H   0  0  0  0  0  0  0  0  0  0  0  0
    0.5900    2.6820   -1.6440 H   0  0  0  0  0  0  0  0  0  0  0  0
    0.2550    1.3860   -2.9220 H   0  0  0  0  0  0  0  0  0  0  0  0
    1.3840   -0.2390   -1.4820 H   0  0  0  0  0  0  0  0  0  0  0  0
    2.3130    1.2820    0.7660 H   0  0  0  0  0  0  0  0  0  0  0  0
    2.4980    2.3790   -0.6530 H   0  0  0  0  0  0  0  0  0  0  0  0
    3.3690    0.8500   -0.7100 H   0  0  0  0  0  0  0  0  0  0  0  0
    0.2870    1.7210    0.4950 H   0  0  0  0  0  0  0  0  0  0  0  0
   -0.5070   -0.3290    1.7420 H   0  0  0  0  0  0  0  0  0  0  0  0
   -2.1490   -0.3440   -0.6340 N   0  0  0  0  0  0  0  0  0  0  0  0
   -3.4860   -0.1690   -1.2900 C   0  0  0  0  0  0  0  0  0  0  0  0
   -4.3750   -1.2200   -0.7350 C   0  0  0  0  0  0  0  0  0  0  0  0
   -3.5870   -1.7220    0.4830 C   0  0  0  0  0  0  0  0  0  0  0  0
   -2.1710   -1.6750   -0.1210 C   0  0  1  0  0  0  0  0  0  0  0  0
   -2.1990   -2.6250   -1.3040 C   0  0  0  0  0  0  0  0  0  0  0  0
   -2.1750   -2.2070   -2.4800 O   0  0  0  0  0  0  0  0  0  0  0  0
   -2.2530   -3.9940   -1.0940 O   0  0  0  0  0  0  0  0  0  0  0  0
   -3.3220   -0.2040   -2.3610 H   0  0  0  0  0  0  0  0  0  0  0  0
   -3.8690    0.8390   -0.9720 H   0  0  0  0  0  0  0  0  0  0  0  0
   -5.3730   -0.8350   -0.4230 H   0  0  0  0  0  0  0  0  0  0  0  0
   -4.4610   -2.0780   -1.4360 H   0  0  0  0  0  0  0  0  0  0  0  0
   -3.8620   -2.7470    0.7490 H   0  0  0  0  0  0  0  0  0  0  0  0
   -3.6250   -0.9990    1.2990 H   0  0  0  0  0  0  0  0  0  0  0  0
   -1.4350   -1.9820    0.5980 H   0  0  0  0  0  0  0  0  0  0  0  0
  1  2  1  0  0  0  0
  1 10  1  0  0  0  0
  2 12  1  6  0  0  0
  2  3  1  0  0  0  0
  3 14  1  0  0  0  0
  3  4  1  0  0  0  0
  3 13  1  0  0  0  0
  4  5  1  0  0  0  0
  5  9  1  0  0  0  0
  5  6  2  0  0  0  0
  7  2  1  0  0  0  0
  8  7  2  0  0  0  0
  9 17  1  0  0  0  0
 11  1  1  0  0  0  0
 15  4  1  0  0  0  0
 16  4  1  0  0  0  0
 18 26  1  0  0  0  0
 18 19  1  0  0  0  0
 19 20  1  0  0  0  0
 19 21  1  0  0  0  0
 20 29  1  0  0  0  0
 21 32  1  1  0  0  0
 21 22  1  0  0  0  0
 22  7  1  0  0  0  0
 22 33  1  0  0  0  0
 23 34  1  0  0  0  0
 23 21  1  0  0  0  0
 24 23  2  0  0  0  0
 25 18  1  0  0  0  0
 27 18  1  0  0  0  0
 28 19  1  0  0  0  0
 30 20  1  0  0  0  0
 31 20  1  0  0  0  0
 34 38  1  0  0  0  0
 35 43  1  0  0  0  0
 35 36  1  0  0  0  0
 35 34  1  0  0  0  0
 36 44  1  0  0  0  0
 36 37  1  0  0  0  0
 37 46  1  0  0  0  0
 37 47  1  0  0  0  0
 38 37  1  0  0  0  0
 38 48  1  1  0  0  0
 39 41  1  0  0  0  0
 39 38  1  0  0  0  0
 40 39  2  0  0  0  0
 42 35  1  0  0  0  0
 45 36  1  0  0  0  0
M  END
$$$$
