EVR.pdb
 OpenBabel07022418213D

 57 56  0  0  1  0  0  0  0  0999 V2000
   -0.7900    1.0340    3.5110 N   0  0  0  0  0  0  0  0  0  0  0  0
    0.5090    0.4130    3.2380 C   0  0  1  0  0  0  0  0  0  0  0  0
    0.3970   -0.9890    3.7660 C   0  0  0  0  0  0  0  0  0  0  0  0
    1.6580   -1.7460    3.5680 C   0  0  0  0  0  0  0  0  0  0  0  0
    1.5400   -3.1250    4.1150 C   0  0  0  0  0  0  0  0  0  0  0  0
    0.4750   -3.4840    4.6490 O   0  0  0  0  0  0  0  0  0  0  0  0
    0.8100    0.4620    1.7880 C   0  0  0  0  0  0  0  0  0  0  0  0
    1.9460    0.1300    1.3700 O   0  0  0  0  0  0  0  0  0  0  0  0
    2.6060   -3.9890    4.0270 O   0  0  0  0  0  0  0  0  0  0  0  0
   -0.7630    1.9970    3.1310 H   0  0  0  0  0  0  0  0  0  0  0  0
   -1.5890    0.4830    3.1900 H   0  0  0  0  0  0  0  0  0  0  0  0
    1.2850    0.9480    3.8160 H   0  0  0  0  0  0  0  0  0  0  0  0
   -0.3890   -1.4970    3.1340 H   0  0  0  0  0  0  0  0  0  0  0  0
    0.0410   -0.9840    4.8170 H   0  0  0  0  0  0  0  0  0  0  0  0
    2.4670   -1.2450    4.1660 H   0  0  0  0  0  0  0  0  0  0  0  0
    1.9880   -1.8030    2.5140 H   0  0  0  0  0  0  0  0  0  0  0  0
    2.7440   -4.7270    4.7100 H   0  0  0  0  0  0  0  0  0  0  0  0
   -0.0100    3.4120   -0.5180 C   0  0  0  0  0  0  0  0  0  0  0  0
    0.7110    2.1490   -1.0140 C   0  0  0  0  0  0  0  0  0  0  0  0
    2.1300    2.2650   -0.6060 C   0  0  0  0  0  0  0  0  0  0  0  0
   -0.0660    0.9910   -0.5050 C   0  0  2  0  0  0  0  0  0  0  0  0
   -0.1990    0.8870    0.9000 N   0  0  0  0  0  0  0  0  0  0  0  0
    0.2720   -0.3180   -1.1150 C   0  0  0  0  0  0  0  0  0  0  0  0
    0.6090   -0.3910   -2.3440 O   0  0  0  0  0  0  0  0  0  0  0  0
   -0.3750    3.1830    0.5020 H   0  0  0  0  0  0  0  0  0  0  0  0
   -0.9020    3.5440   -1.1590 H   0  0  0  0  0  0  0  0  0  0  0  0
    0.6800    4.2790   -0.5410 H   0  0  0  0  0  0  0  0  0  0  0  0
    0.6650    2.1740   -2.1280 H   0  0  0  0  0  0  0  0  0  0  0  0
    2.5590    3.1230   -1.2260 H   0  0  0  0  0  0  0  0  0  0  0  0
    2.7850    1.4240   -0.8480 H   0  0  0  0  0  0  0  0  0  0  0  0
    2.2120    2.6530    0.4340 H   0  0  0  0  0  0  0  0  0  0  0  0
   -1.1320    1.1730   -0.9650 H   0  0  0  0  0  0  0  0  0  0  0  0
   -1.1410    1.1530    1.3260 H   0  0  0  0  0  0  0  0  0  0  0  0
   -3.4850   -0.3270    0.9790 N   0  0  0  0  0  0  0  0  0  0  0  0
   -3.3040   -0.6430   -0.3920 C   0  0  0  0  0  0  0  0  0  0  0  0
   -3.8470    0.1100   -1.2860 N   0  0  0  0  0  0  0  0  0  0  0  0
   -2.5400   -1.7690   -0.8270 N   0  0  0  0  0  0  0  0  0  0  0  0
   -2.2830   -2.0250   -2.2210 C   0  0  0  0  0  0  0  0  0  0  0  0
   -1.3740   -3.1290   -2.5330 C   0  0  0  0  0  0  0  0  0  0  0  0
    0.0640   -3.1090   -2.2480 C   0  0  0  0  0  0  0  0  0  0  0  0
    0.5330   -2.8320   -0.8640 C   0  0  2  0  0  0  0  0  0  0  0  0
    0.2320   -1.5160   -0.3790 N   0  0  0  0  0  0  0  0  0  0  0  0
    1.9040   -3.2880   -0.6220 C   0  0  0  0  0  0  0  0  0  0  0  0
    2.2470   -4.4310   -0.9940 O   0  0  0  0  0  0  0  0  0  0  0  0
    2.8330   -2.4900    0.0070 O   0  0  0  0  0  0  0  0  0  0  0  0
   -3.5000   -1.0720    1.6910 H   0  0  0  0  0  0  0  0  0  0  0  0
   -3.6050    0.6580    1.3010 H   0  0  0  0  0  0  0  0  0  0  0  0
   -3.7660   -0.0470   -2.3080 H   0  0  0  0  0  0  0  0  0  0  0  0
   -2.2110   -2.4130   -0.0820 H   0  0  0  0  0  0  0  0  0  0  0  0
   -1.9960   -1.0700   -2.7490 H   0  0  0  0  0  0  0  0  0  0  0  0
   -3.3140   -2.2440   -2.6610 H   0  0  0  0  0  0  0  0  0  0  0  0
   -1.5430   -3.4440   -3.6210 H   0  0  0  0  0  0  0  0  0  0  0  0
   -1.7800   -4.0640   -1.9950 H   0  0  0  0  0  0  0  0  0  0  0  0
    0.4450   -4.1860   -2.4530 H   0  0  0  0  0  0  0  0  0  0  0  0
    0.6640   -2.5440   -3.0220 H   0  0  0  0  0  0  0  0  0  0  0  0
   -0.1360   -3.5470   -0.2360 H   0  0  0  0  0  0  0  0  0  0  0  0
   -0.0650   -1.4650    0.6420 H   0  0  0  0  0  0  0  0  0  0  0  0
  2  1  1  0  0  0  0
  2  3  1  0  0  0  0
  2 12  1  1  0  0  0
  3 14  1  0  0  0  0
  4  3  1  0  0  0  0
  4  5  1  0  0  0  0
  4 15  1  0  0  0  0
  5  6  2  0  0  0  0
  7  2  1  0  0  0  0
  8  7  2  0  0  0  0
  9  5  1  0  0  0  0
  9 17  1  0  0  0  0
 10  1  1  0  0  0  0
 11  1  1  0  0  0  0
 13  3  1  0  0  0  0
 16  4  1  0  0  0  0
 18 25  1  0  0  0  0
 19 20  1  0  0  0  0
 19 18  1  0  0  0  0
 19 21  1  0  0  0  0
 20 31  1  0  0  0  0
 21 32  1  6  0  0  0
 21 22  1  0  0  0  0
 22 33  1  0  0  0  0
 22  7  1  0  0  0  0
 23 21  1  0  0  0  0
 23 42  1  0  0  0  0
 24 23  2  0  0  0  0
 26 18  1  0  0  0  0
 27 18  1  0  0  0  0
 28 19  1  0  0  0  0
 29 20  1  0  0  0  0
 30 20  1  0  0  0  0
 34 47  1  0  0  0  0
 34 46  1  0  0  0  0
 35 34  1  0  0  0  0
 36 35  2  0  0  0  0
 37 35  1  0  0  0  0
 37 49  1  0  0  0  0
 38 37  1  0  0  0  0
 39 40  1  0  0  0  0
 39 38  1  0  0  0  0
 39 53  1  0  0  0  0
 40 41  1  0  0  0  0
 41 43  1  0  0  0  0
 41 42  1  0  0  0  0
 41 56  1  1  0  0  0
 42 57  1  0  0  0  0
 43 45  1  0  0  0  0
 44 43  2  0  0  0  0
 48 36  1  0  0  0  0
 50 38  1  0  0  0  0
 51 38  1  0  0  0  0
 52 39  1  0  0  0  0
 54 40  1  0  0  0  0
 55 40  1  0  0  0  0
M  END
$$$$
