EVS.pdb
 OpenBabel07022418213D

 45 44  0  0  1  0  0  0  0  0999 V2000
    3.1510   -3.3860    1.4860 N   0  0  0  0  0  0  0  0  0  0  0  0
    2.6940   -2.0470    1.2760 C   0  0  1  0  0  0  0  0  0  0  0  0
    2.5930   -1.6740   -0.1700 C   0  0  0  0  0  0  0  0  0  0  0  0
    1.6320   -2.5620   -0.9280 C   0  0  0  0  0  0  0  0  0  0  0  0
    1.5440   -2.1790   -2.3520 C   0  0  0  0  0  0  0  0  0  0  0  0
    2.2260   -1.2200   -2.7780 O   0  0  0  0  0  0  0  0  0  0  0  0
    1.4410   -1.7490    2.0250 C   0  0  0  0  0  0  0  0  0  0  0  0
    0.9630   -2.6930    2.7270 O   0  0  0  0  0  0  0  0  0  0  0  0
    0.7240   -2.8570   -3.2310 O   0  0  0  0  0  0  0  0  0  0  0  0
    2.4320   -3.9790    1.9540 H   0  0  0  0  0  0  0  0  0  0  0  0
    3.5170   -3.8460    0.6240 H   0  0  0  0  0  0  0  0  0  0  0  0
    3.4740   -1.3660    1.7240 H   0  0  0  0  0  0  0  0  0  0  0  0
    3.5970   -1.8370   -0.6230 H   0  0  0  0  0  0  0  0  0  0  0  0
    2.3660   -0.6140   -0.2660 H   0  0  0  0  0  0  0  0  0  0  0  0
    0.6630   -2.5550   -0.4050 H   0  0  0  0  0  0  0  0  0  0  0  0
    2.0040   -3.6060   -0.8910 H   0  0  0  0  0  0  0  0  0  0  0  0
    0.7160   -2.6540   -4.2400 H   0  0  0  0  0  0  0  0  0  0  0  0
    0.1740    2.2400    3.0450 C   0  0  0  0  0  0  0  0  0  0  0  0
   -0.2330    0.9360    3.6570 C   0  0  0  0  0  0  0  0  0  0  0  0
    0.7100    0.5790    4.7610 C   0  0  0  0  0  0  0  0  0  0  0  0
   -0.3680   -0.1850    2.6570 C   0  0  2  0  0  0  0  0  0  0  0  0
    0.8280   -0.4760    1.9450 N   0  0  0  0  0  0  0  0  0  0  0  0
   -1.4790    0.1110    1.7130 C   0  0  0  0  0  0  0  0  0  0  0  0
   -2.6350    0.3980    2.1170 O   0  0  0  0  0  0  0  0  0  0  0  0
   -0.5190    2.5910    2.2560 H   0  0  0  0  0  0  0  0  0  0  0  0
    1.1990    2.1790    2.6370 H   0  0  0  0  0  0  0  0  0  0  0  0
    0.1800    2.9970    3.8520 H   0  0  0  0  0  0  0  0  0  0  0  0
   -1.2490    1.0550    4.1260 H   0  0  0  0  0  0  0  0  0  0  0  0
    1.5420   -0.0750    4.4520 H   0  0  0  0  0  0  0  0  0  0  0  0
    1.1950    1.5330    5.1220 H   0  0  0  0  0  0  0  0  0  0  0  0
    0.1830    0.1860    5.6740 H   0  0  0  0  0  0  0  0  0  0  0  0
   -0.6780   -1.0840    3.2280 H   0  0  0  0  0  0  0  0  0  0  0  0
    1.2710    0.2510    1.3520 H   0  0  0  0  0  0  0  0  0  0  0  0
   -1.8300    2.6910   -0.7360 O   0  0  0  0  0  0  0  0  0  0  0  0
   -1.9300    1.5630   -1.5200 C   0  0  0  0  0  0  0  0  0  0  0  0
   -2.2430    0.3410   -0.6850 C   0  0  2  0  0  0  0  0  0  0  0  0
   -1.2380    0.0720    0.3050 N   0  0  0  0  0  0  0  0  0  0  0  0
   -2.5290   -0.8420   -1.5360 C   0  0  0  0  0  0  0  0  0  0  0  0
   -3.3970   -0.7100   -2.4370 O   0  0  0  0  0  0  0  0  0  0  0  0
   -1.8980   -2.0590   -1.3890 O   0  0  0  0  0  0  0  0  0  0  0  0
   -2.6350    2.8100   -0.1870 H   0  0  0  0  0  0  0  0  0  0  0  0
   -1.0150    1.4430   -2.1200 H   0  0  0  0  0  0  0  0  0  0  0  0
   -2.7800    1.6900   -2.2240 H   0  0  0  0  0  0  0  0  0  0  0  0
   -3.1890    0.5710   -0.1400 H   0  0  0  0  0  0  0  0  0  0  0  0
   -0.2560   -0.1720    0.0060 H   0  0  0  0  0  0  0  0  0  0  0  0
  1 10  1  0  0  0  0
  2  1  1  0  0  0  0
  2 12  1  1  0  0  0
  2  7  1  0  0  0  0
  3  2  1  0  0  0  0
  4 16  1  0  0  0  0
  4 15  1  0  0  0  0
  4  3  1  0  0  0  0
  5  4  1  0  0  0  0
  6  5  2  0  0  0  0
  7  8  2  0  0  0  0
  9  5  1  0  0  0  0
 11  1  1  0  0  0  0
 13  3  1  0  0  0  0
 14  3  1  0  0  0  0
 17  9  1  0  0  0  0
 18 19  1  0  0  0  0
 18 27  1  0  0  0  0
 19 28  1  0  0  0  0
 19 20  1  0  0  0  0
 20 30  1  0  0  0  0
 20 31  1  0  0  0  0
 21 32  1  1  0  0  0
 21 19  1  0  0  0  0
 22  7  1  0  0  0  0
 22 21  1  0  0  0  0
 23 24  2  0  0  0  0
 23 21  1  0  0  0  0
 25 18  1  0  0  0  0
 26 18  1  0  0  0  0
 29 20  1  0  0  0  0
 33 22  1  0  0  0  0
 34 41  1  0  0  0  0
 35 34  1  0  0  0  0
 35 36  1  0  0  0  0
 36 44  1  1  0  0  0
 36 37  1  0  0  0  0
 37 23  1  0  0  0  0
 38 40  1  0  0  0  0
 38 36  1  0  0  0  0
 39 38  2  0  0  0  0
 42 35  1  0  0  0  0
 43 35  1  0  0  0  0
 45 37  1  0  0  0  0
M  END
$$$$
