EVT.pdb
 OpenBabel07022418213D

 48 47  0  0  1  0  0  0  0  0999 V2000
    2.3440   -4.3960    1.4680 N   0  0  0  0  0  0  0  0  0  0  0  0
    2.0100   -3.0000    1.8410 C   0  0  1  0  0  0  0  0  0  0  0  0
    3.3080   -2.4410    2.3540 C   0  0  0  0  0  0  0  0  0  0  0  0
    3.2180   -1.0270    2.8150 C   0  0  0  0  0  0  0  0  0  0  0  0
    2.2710   -0.8230    3.9400 C   0  0  0  0  0  0  0  0  0  0  0  0
    1.6020   -1.7180    4.4750 O   0  0  0  0  0  0  0  0  0  0  0  0
    1.5600   -2.2920    0.5700 C   0  0  0  0  0  0  0  0  0  0  0  0
    1.9130   -2.8780   -0.4720 O   0  0  0  0  0  0  0  0  0  0  0  0
    2.1450    0.4890    4.4090 O   0  0  0  0  0  0  0  0  0  0  0  0
    1.4670   -4.9340    1.4770 H   0  0  0  0  0  0  0  0  0  0  0  0
    2.7700   -4.3830    0.5200 H   0  0  0  0  0  0  0  0  0  0  0  0
    1.2050   -3.0460    2.5660 H   0  0  0  0  0  0  0  0  0  0  0  0
    3.6880   -3.1060    3.1590 H   0  0  0  0  0  0  0  0  0  0  0  0
    4.0140   -2.4450    1.4800 H   0  0  0  0  0  0  0  0  0  0  0  0
    2.9130   -0.3820    1.9770 H   0  0  0  0  0  0  0  0  0  0  0  0
    4.2380   -0.6330    3.1120 H   0  0  0  0  0  0  0  0  0  0  0  0
    1.9230    0.6880    5.3830 H   0  0  0  0  0  0  0  0  0  0  0  0
    0.1130   -0.0660   -2.9370 C   0  0  0  0  0  0  0  0  0  0  0  0
    0.6990   -0.8770   -1.7870 C   0  0  0  0  0  0  0  0  0  0  0  0
    2.2110   -0.6370   -1.9690 C   0  0  0  0  0  0  0  0  0  0  0  0
    0.3500   -0.3090   -0.4520 C   0  0  2  0  0  0  0  0  0  0  0  0
    0.8190   -1.0980    0.6260 N   0  0  0  0  0  0  0  0  0  0  0  0
   -1.0250    0.0900   -0.2700 C   0  0  0  0  0  0  0  0  0  0  0  0
   -1.6550    0.8820   -1.0300 O   0  0  0  0  0  0  0  0  0  0  0  0
   -0.9350   -0.2570   -3.1230 H   0  0  0  0  0  0  0  0  0  0  0  0
    0.3170    1.0150   -2.8170 H   0  0  0  0  0  0  0  0  0  0  0  0
    0.6850   -0.3890   -3.8420 H   0  0  0  0  0  0  0  0  0  0  0  0
    0.4940   -1.9150   -1.9340 H   0  0  0  0  0  0  0  0  0  0  0  0
    2.6660   -0.4470   -1.0000 H   0  0  0  0  0  0  0  0  0  0  0  0
    2.3250    0.3410   -2.5540 H   0  0  0  0  0  0  0  0  0  0  0  0
    2.7080   -1.4190   -2.5360 H   0  0  0  0  0  0  0  0  0  0  0  0
    1.0310    0.6430   -0.4360 H   0  0  0  0  0  0  0  0  0  0  0  0
    0.6140   -0.7870    1.6490 H   0  0  0  0  0  0  0  0  0  0  0  0
   -2.7480    2.3290    1.4930 C   0  0  0  0  0  0  0  0  0  0  0  0
   -3.3460    1.0570    2.0130 C   0  0  1  0  0  0  0  0  0  0  0  0
   -4.6960    1.2430    2.2260 O   0  0  0  0  0  0  0  0  0  0  0  0
   -3.1400   -0.1210    1.1330 C   0  0  2  0  0  0  0  0  0  0  0  0
   -1.7630   -0.4210    0.8310 N   0  0  0  0  0  0  0  0  0  0  0  0
   -4.0550   -0.1880   -0.0360 C   0  0  0  0  0  0  0  0  0  0  0  0
   -5.2480    0.1710    0.0920 O   0  0  0  0  0  0  0  0  0  0  0  0
   -3.6130   -0.6380   -1.2420 O   0  0  0  0  0  0  0  0  0  0  0  0
   -1.6680    2.3110    1.3530 H   0  0  0  0  0  0  0  0  0  0  0  0
   -2.9920    3.1740    2.1690 H   0  0  0  0  0  0  0  0  0  0  0  0
   -3.2240    2.6010    0.5070 H   0  0  0  0  0  0  0  0  0  0  0  0
   -2.8710    0.8330    2.9980 H   0  0  0  0  0  0  0  0  0  0  0  0
   -5.0530    2.0620    1.8300 H   0  0  0  0  0  0  0  0  0  0  0  0
   -3.5010   -1.0320    1.7460 H   0  0  0  0  0  0  0  0  0  0  0  0
   -1.2860   -1.0930    1.5110 H   0  0  0  0  0  0  0  0  0  0  0  0
  1 10  1  0  0  0  0
  1  2  1  0  0  0  0
  2  3  1  0  0  0  0
  2 12  1  1  0  0  0
  3  4  1  0  0  0  0
  3 13  1  0  0  0  0
  4 16  1  0  0  0  0
  4  5  1  0  0  0  0
  5  9  1  0  0  0  0
  5  6  2  0  0  0  0
  7 22  1  0  0  0  0
  7  2  1  0  0  0  0
  8  7  2  0  0  0  0
  9 17  1  0  0  0  0
 11  1  1  0  0  0  0
 14  3  1  0  0  0  0
 15  4  1  0  0  0  0
 18 26  1  0  0  0  0
 18 19  1  0  0  0  0
 19 21  1  0  0  0  0
 20 19  1  0  0  0  0
 20 29  1  0  0  0  0
 21 32  1  1  0  0  0
 21 23  1  0  0  0  0
 21 22  1  0  0  0  0
 22 33  1  0  0  0  0
 23 38  1  0  0  0  0
 24 23  2  0  0  0  0
 25 18  1  0  0  0  0
 27 18  1  0  0  0  0
 28 19  1  0  0  0  0
 30 20  1  0  0  0  0
 31 20  1  0  0  0  0
 34 35  1  0  0  0  0
 34 43  1  0  0  0  0
 35 36  1  0  0  0  0
 35 45  1  1  0  0  0
 37 47  1  1  0  0  0
 37 35  1  0  0  0  0
 38 37  1  0  0  0  0
 38 48  1  0  0  0  0
 39 40  1  0  0  0  0
 39 37  1  0  0  0  0
 41 39  2  0  0  0  0
 42 34  1  0  0  0  0
 44 34  1  0  0  0  0
 46 36  1  0  0  0  0
M  END
$$$$
