EVV.pdb
 OpenBabel07022418213D

 50 49  0  0  1  0  0  0  0  0999 V2000
    1.1500   -2.8360    2.2510 N   0  0  0  0  0  0  0  0  0  0  0  0
    2.0710   -1.7310    2.5420 C   0  0  1  0  0  0  0  0  0  0  0  0
    3.4140   -2.3390    2.7250 C   0  0  0  0  0  0  0  0  0  0  0  0
    4.5160   -1.3930    3.0320 C   0  0  0  0  0  0  0  0  0  0  0  0
    4.3190   -0.6180    4.2730 C   0  0  0  0  0  0  0  0  0  0  0  0
    5.2340    0.2060    4.5780 O   0  0  0  0  0  0  0  0  0  0  0  0
    1.9950   -0.7030    1.4980 C   0  0  0  0  0  0  0  0  0  0  0  0
    2.7210    0.3150    1.5960 O   0  0  0  0  0  0  0  0  0  0  0  0
    3.2450   -0.7130    5.1120 O   0  0  0  0  0  0  0  0  0  0  0  0
    0.1740   -2.5320    2.1950 H   0  0  0  0  0  0  0  0  0  0  0  0
    1.4820   -3.4190    1.4590 H   0  0  0  0  0  0  0  0  0  0  0  0
    1.6650   -1.2680    3.4820 H   0  0  0  0  0  0  0  0  0  0  0  0
    3.3460   -3.0750    3.5540 H   0  0  0  0  0  0  0  0  0  0  0  0
    3.6720   -2.9060    1.8220 H   0  0  0  0  0  0  0  0  0  0  0  0
    4.7200   -0.7630    2.1440 H   0  0  0  0  0  0  0  0  0  0  0  0
    5.4450   -2.0010    3.1830 H   0  0  0  0  0  0  0  0  0  0  0  0
    3.3340   -0.3550    6.0550 H   0  0  0  0  0  0  0  0  0  0  0  0
    1.1700    0.6200   -3.0410 C   0  0  0  0  0  0  0  0  0  0  0  0
    1.3250   -0.4730   -2.0050 C   0  0  0  0  0  0  0  0  0  0  0  0
    0.4590   -1.6580   -2.3640 C   0  0  0  0  0  0  0  0  0  0  0  0
    0.9870    0.0770   -0.6440 C   0  0  2  0  0  0  0  0  0  0  0  0
    1.1060   -0.8890    0.4070 N   0  0  0  0  0  0  0  0  0  0  0  0
   -0.3790    0.6320   -0.7260 C   0  0  0  0  0  0  0  0  0  0  0  0
   -0.6810    1.4950   -1.5840 O   0  0  0  0  0  0  0  0  0  0  0  0
    0.1820    0.5510   -3.5370 H   0  0  0  0  0  0  0  0  0  0  0  0
    1.3960    1.6270   -2.6400 H   0  0  0  0  0  0  0  0  0  0  0  0
    1.9160    0.4750   -3.8770 H   0  0  0  0  0  0  0  0  0  0  0  0
    2.3750   -0.8230   -2.0760 H   0  0  0  0  0  0  0  0  0  0  0  0
    0.6580   -2.4480   -1.6050 H   0  0  0  0  0  0  0  0  0  0  0  0
   -0.6210   -1.4320   -2.3030 H   0  0  0  0  0  0  0  0  0  0  0  0
    0.6780   -1.9730   -3.3870 H   0  0  0  0  0  0  0  0  0  0  0  0
    1.6780    0.9150   -0.4300 H   0  0  0  0  0  0  0  0  0  0  0  0
    0.5090   -1.7440    0.3420 H   0  0  0  0  0  0  0  0  0  0  0  0
   -3.6160   -1.4860    0.8810 C   0  0  0  0  0  0  0  0  0  0  0  0
   -3.6570   -0.4280   -0.1800 C   0  0  0  0  0  0  0  0  0  0  0  0
   -5.0790    0.0500   -0.3800 C   0  0  0  0  0  0  0  0  0  0  0  0
   -2.7210    0.7250    0.1050 C   0  0  2  0  0  0  0  0  0  0  0  0
   -1.3820    0.1880    0.1780 N   0  0  0  0  0  0  0  0  0  0  0  0
   -3.0900    1.3270    1.4090 C   0  0  0  0  0  0  0  0  0  0  0  0
   -4.2280    1.8440    1.5260 O   0  0  0  0  0  0  0  0  0  0  0  0
   -2.2320    1.3430    2.5070 O   0  0  0  0  0  0  0  0  0  0  0  0
   -4.5770   -2.0630    0.8870 H   0  0  0  0  0  0  0  0  0  0  0  0
   -3.5100   -1.0770    1.9060 H   0  0  0  0  0  0  0  0  0  0  0  0
   -2.8090   -2.2280    0.7480 H   0  0  0  0  0  0  0  0  0  0  0  0
   -3.3440   -0.9120   -1.1400 H   0  0  0  0  0  0  0  0  0  0  0  0
   -5.5830   -0.6600   -1.0450 H   0  0  0  0  0  0  0  0  0  0  0  0
   -5.5970    0.1840    0.5920 H   0  0  0  0  0  0  0  0  0  0  0  0
   -5.0260    1.0360   -0.9210 H   0  0  0  0  0  0  0  0  0  0  0  0
   -2.8090    1.4600   -0.6930 H   0  0  0  0  0  0  0  0  0  0  0  0
   -1.1060   -0.5230    0.8730 H   0  0  0  0  0  0  0  0  0  0  0  0
  1  2  1  0  0  0  0
  2  3  1  0  0  0  0
  2 12  1  1  0  0  0
  3  4  1  0  0  0  0
  3 13  1  0  0  0  0
  4 16  1  0  0  0  0
  4  5  1  0  0  0  0
  5  6  2  0  0  0  0
  5  9  1  0  0  0  0
  7  8  2  0  0  0  0
  7  2  1  0  0  0  0
  9 17  1  0  0  0  0
 10  1  1  0  0  0  0
 11  1  1  0  0  0  0
 14  3  1  0  0  0  0
 15  4  1  0  0  0  0
 18 26  1  0  0  0  0
 18 19  1  0  0  0  0
 19 21  1  0  0  0  0
 20 30  1  0  0  0  0
 20 19  1  0  0  0  0
 20 29  1  0  0  0  0
 21 32  1  1  0  0  0
 21 22  1  0  0  0  0
 22  7  1  0  0  0  0
 23 21  1  0  0  0  0
 23 38  1  0  0  0  0
 24 23  2  0  0  0  0
 25 18  1  0  0  0  0
 27 18  1  0  0  0  0
 28 19  1  0  0  0  0
 31 20  1  0  0  0  0
 33 22  1  0  0  0  0
 34 42  1  0  0  0  0
 34 43  1  0  0  0  0
 35 37  1  0  0  0  0
 35 34  1  0  0  0  0
 36 35  1  0  0  0  0
 36 47  1  0  0  0  0
 37 49  1  6  0  0  0
 37 38  1  0  0  0  0
 37 39  1  0  0  0  0
 38 50  1  0  0  0  0
 39 40  2  0  0  0  0
 39 41  1  0  0  0  0
 44 34  1  0  0  0  0
 45 35  1  0  0  0  0
 46 36  1  0  0  0  0
 48 36  1  0  0  0  0
M  END
$$$$
