EVW.pdb
 OpenBabel07022418213D

 58 59  0  0  1  0  0  0  0  0999 V2000
    2.3920   -3.0970    0.0830 N   0  0  0  0  0  0  0  0  0  0  0  0
    1.3870   -3.7340   -0.7380 C   0  0  1  0  0  0  0  0  0  0  0  0
    0.6100   -4.7550    0.0110 C   0  0  0  0  0  0  0  0  0  0  0  0
    1.5660   -5.8440    0.5160 C   0  0  0  0  0  0  0  0  0  0  0  0
    0.8970   -6.9180    1.2520 C   0  0  0  0  0  0  0  0  0  0  0  0
    1.5610   -7.8000    1.8030 O   0  0  0  0  0  0  0  0  0  0  0  0
    0.5200   -2.7260   -1.3930 C   0  0  0  0  0  0  0  0  0  0  0  0
   -0.1240   -2.9690   -2.4340 O   0  0  0  0  0  0  0  0  0  0  0  0
   -0.4880   -6.9100    1.3080 O   0  0  0  0  0  0  0  0  0  0  0  0
    3.2840   -3.6640    0.0840 H   0  0  0  0  0  0  0  0  0  0  0  0
    2.1290   -2.7810    0.9860 H   0  0  0  0  0  0  0  0  0  0  0  0
    1.9780   -4.2640   -1.5400 H   0  0  0  0  0  0  0  0  0  0  0  0
    0.1810   -4.3280    0.9810 H   0  0  0  0  0  0  0  0  0  0  0  0
   -0.1930   -5.2570   -0.5200 H   0  0  0  0  0  0  0  0  0  0  0  0
    2.3480   -5.4200    1.1410 H   0  0  0  0  0  0  0  0  0  0  0  0
    2.0830   -6.2850   -0.3920 H   0  0  0  0  0  0  0  0  0  0  0  0
   -1.0070   -7.4760    1.9810 H   0  0  0  0  0  0  0  0  0  0  0  0
   -2.4290   -1.2050   -2.1270 C   0  0  0  0  0  0  0  0  0  0  0  0
   -1.7550   -0.2520   -1.1790 C   0  0  0  0  0  0  0  0  0  0  0  0
   -2.4000    1.0860   -1.3210 C   0  0  0  0  0  0  0  0  0  0  0  0
   -0.2620   -0.2760   -1.2380 C   0  0  2  0  0  0  0  0  0  0  0  0
    0.4270   -1.4150   -0.8220 N   0  0  0  0  0  0  0  0  0  0  0  0
    0.2880    1.0140   -0.7630 C   0  0  0  0  0  0  0  0  0  0  0  0
   -0.2770    2.1190   -1.1050 O   0  0  0  0  0  0  0  0  0  0  0  0
   -3.3610   -0.6760   -2.6000 H   0  0  0  0  0  0  0  0  0  0  0  0
   -1.7720   -1.2700   -3.0390 H   0  0  0  0  0  0  0  0  0  0  0  0
   -2.7180   -2.1750   -1.7510 H   0  0  0  0  0  0  0  0  0  0  0  0
   -2.0090   -0.5980   -0.1380 H   0  0  0  0  0  0  0  0  0  0  0  0
   -3.5220    0.8820   -1.4680 H   0  0  0  0  0  0  0  0  0  0  0  0
   -2.1520    1.6420   -2.2480 H   0  0  0  0  0  0  0  0  0  0  0  0
   -2.4000    1.6760   -0.3830 H   0  0  0  0  0  0  0  0  0  0  0  0
   -0.1210   -0.3090   -2.4160 H   0  0  0  0  0  0  0  0  0  0  0  0
    1.0210   -1.3280    0.1210 H   0  0  0  0  0  0  0  0  0  0  0  0
    1.4140    1.1770    0.0610 N   0  0  0  0  0  0  0  0  0  0  0  0
    1.8460    2.4960    0.4790 C   0  0  1  0  0  0  0  0  0  0  0  0
    1.5760    2.6090    1.9630 C   0  0  0  0  0  0  0  0  0  0  0  0
    0.1620    2.4400    2.2390 C   0  0  0  0  0  0  0  0  0  0  0  0
   -0.7590    3.4820    2.3560 C   0  0  0  0  0  0  0  0  0  0  0  0
   -1.9830    2.9850    2.5710 N   0  0  0  0  0  0  0  0  0  0  0  0
   -1.9150    1.6360    2.6040 C   0  0  0  0  0  0  0  0  0  0  0  0
   -2.9390    0.7290    2.8140 C   0  0  0  0  0  0  0  0  0  0  0  0
   -2.5920   -0.6070    2.8180 C   0  0  0  0  0  0  0  0  0  0  0  0
   -1.2680   -0.9810    2.6120 C   0  0  0  0  0  0  0  0  0  0  0  0
   -0.2910   -0.0480    2.4070 C   0  0  0  0  0  0  0  0  0  0  0  0
   -0.6150    1.2820    2.4020 C   0  0  0  0  0  0  0  0  0  0  0  0
    3.2300    2.8240    0.1320 C   0  0  0  0  0  0  0  0  0  0  0  0
    3.7750    3.9060    0.4080 O   0  0  0  0  0  0  0  0  0  0  0  0
    3.9910    1.8670   -0.5520 O   0  0  0  0  0  0  0  0  0  0  0  0
    1.9820    0.3780    0.4000 H   0  0  0  0  0  0  0  0  0  0  0  0
    1.1960    3.2920    0.0060 H   0  0  0  0  0  0  0  0  0  0  0  0
    2.1820    1.7650    2.4430 H   0  0  0  0  0  0  0  0  0  0  0  0
    1.9930    3.5760    2.3510 H   0  0  0  0  0  0  0  0  0  0  0  0
   -0.5090    4.5420    2.2900 H   0  0  0  0  0  0  0  0  0  0  0  0
   -2.8360    3.5680    2.6980 H   0  0  0  0  0  0  0  0  0  0  0  0
   -3.9770    1.0280    2.9610 H   0  0  0  0  0  0  0  0  0  0  0  0
   -3.3440   -1.3660    2.9740 H   0  0  0  0  0  0  0  0  0  0  0  0
   -0.9810   -2.0530    2.6240 H   0  0  0  0  0  0  0  0  0  0  0  0
    0.7610   -0.3430    2.2660 H   0  0  0  0  0  0  0  0  0  0  0  0
  1 10  1  0  0  0  0
  1 11  1  0  0  0  0
  2 12  1  6  0  0  0
  2  3  1  0  0  0  0
  2  1  1  0  0  0  0
  3  4  1  0  0  0  0
  3 13  1  0  0  0  0
  4 15  1  0  0  0  0
  4  5  1  0  0  0  0
  5  9  1  0  0  0  0
  5  6  2  0  0  0  0
  7 22  1  0  0  0  0
  7  2  1  0  0  0  0
  8  7  2  0  0  0  0
  9 17  1  0  0  0  0
 14  3  1  0  0  0  0
 16  4  1  0  0  0  0
 18 27  1  0  0  0  0
 18 19  1  0  0  0  0
 19 28  1  0  0  0  0
 20 19  1  0  0  0  0
 20 31  1  0  0  0  0
 21 32  1  6  0  0  0
 21 19  1  0  0  0  0
 21 22  1  0  0  0  0
 21 23  1  0  0  0  0
 22 33  1  0  0  0  0
 23 34  1  0  0  0  0
 24 23  2  0  0  0  0
 25 18  1  0  0  0  0
 26 18  1  0  0  0  0
 29 20  1  0  0  0  0
 30 20  1  0  0  0  0
 34 49  1  0  0  0  0
 34 35  1  0  0  0  0
 35 50  1  6  0  0  0
 35 36  1  0  0  0  0
 36 37  1  0  0  0  0
 36 52  1  0  0  0  0
 36 51  1  0  0  0  0
 37 38  2  0  0  0  0
 37 45  1  0  0  0  0
 38 39  1  0  0  0  0
 39 40  1  0  0  0  0
 39 54  1  0  0  0  0
 40 41  1  0  0  0  0
 41 42  2  0  0  0  0
 41 55  1  0  0  0  0
 42 56  1  0  0  0  0
 43 57  1  0  0  0  0
 43 42  1  0  0  0  0
 44 43  2  0  0  0  0
 45 44  1  0  0  0  0
 45 40  2  0  0  0  0
 46 47  1  0  0  0  0
 46 35  1  0  0  0  0
 48 46  2  0  0  0  0
 53 38  1  0  0  0  0
 58 44  1  0  0  0  0
M  END
$$$$
