EVY.pdb
 OpenBabel07022418213D

 55 55  0  0  1  0  0  0  0  0999 V2000
    0.3820   -1.7710    2.3580 N   0  0  0  0  0  0  0  0  0  0  0  0
    0.7020   -0.4350    2.8850 C   0  0  1  0  0  0  0  0  0  0  0  0
    1.9850   -0.6220    3.6640 C   0  0  0  0  0  0  0  0  0  0  0  0
    2.5280    0.6010    4.3040 C   0  0  0  0  0  0  0  0  0  0  0  0
    1.5960    1.1440    5.2920 C   0  0  0  0  0  0  0  0  0  0  0  0
    0.5320    0.5330    5.5510 O   0  0  0  0  0  0  0  0  0  0  0  0
    0.9800    0.4400    1.7170 C   0  0  0  0  0  0  0  0  0  0  0  0
    1.2700    1.6680    1.8670 O   0  0  0  0  0  0  0  0  0  0  0  0
    1.8640    2.3560    5.9760 O   0  0  0  0  0  0  0  0  0  0  0  0
    0.4010   -2.4840    3.1170 H   0  0  0  0  0  0  0  0  0  0  0  0
   -0.5260   -1.7720    1.8470 H   0  0  0  0  0  0  0  0  0  0  0  0
   -0.1380   -0.0600    3.4870 H   0  0  0  0  0  0  0  0  0  0  0  0
    1.8580   -1.4210    4.4330 H   0  0  0  0  0  0  0  0  0  0  0  0
    2.7980   -1.0270    2.9970 H   0  0  0  0  0  0  0  0  0  0  0  0
    2.8530    1.3500    3.5470 H   0  0  0  0  0  0  0  0  0  0  0  0
    3.4690    0.3480    4.8800 H   0  0  0  0  0  0  0  0  0  0  0  0
    1.5190    2.4440    6.9310 H   0  0  0  0  0  0  0  0  0  0  0  0
    3.6290    0.1250   -0.8430 C   0  0  0  0  0  0  0  0  0  0  0  0
    2.3240    0.1550   -1.5870 C   0  0  0  0  0  0  0  0  0  0  0  0
    2.5090    1.0530   -2.7890 C   0  0  0  0  0  0  0  0  0  0  0  0
    1.1770    0.6730   -0.7620 C   0  0  2  0  0  0  0  0  0  0  0  0
    0.9210   -0.1060    0.4140 N   0  0  0  0  0  0  0  0  0  0  0  0
   -0.0030    0.6830   -1.6630 C   0  0  0  0  0  0  0  0  0  0  0  0
   -0.0120    1.2960   -2.7570 O   0  0  0  0  0  0  0  0  0  0  0  0
    3.8620    1.1080   -0.3820 H   0  0  0  0  0  0  0  0  0  0  0  0
    3.7210   -0.7160   -0.1360 H   0  0  0  0  0  0  0  0  0  0  0  0
    4.4330   -0.0330   -1.6120 H   0  0  0  0  0  0  0  0  0  0  0  0
    2.1220   -0.8660   -1.9660 H   0  0  0  0  0  0  0  0  0  0  0  0
    3.5970    1.1240   -3.0410 H   0  0  0  0  0  0  0  0  0  0  0  0
    2.1780    2.0910   -2.6170 H   0  0  0  0  0  0  0  0  0  0  0  0
    2.0100    0.6290   -3.7080 H   0  0  0  0  0  0  0  0  0  0  0  0
    1.4340    1.7290   -0.4560 H   0  0  0  0  0  0  0  0  0  0  0  0
    0.6850   -1.1140    0.3100 H   0  0  0  0  0  0  0  0  0  0  0  0
   -2.6680   -5.2440    1.7910 O   0  0  0  0  0  0  0  0  0  0  0  0
   -2.6460   -4.3340    0.7380 C   0  0  0  0  0  0  0  0  0  0  0  0
   -3.7910   -3.7780    0.2170 C   0  0  0  0  0  0  0  0  0  0  0  0
   -3.7800   -2.8760   -0.8250 C   0  0  0  0  0  0  0  0  0  0  0  0
   -2.5750   -2.5100   -1.3740 C   0  0  0  0  0  0  0  0  0  0  0  0
   -2.4970   -1.5540   -2.4870 C   0  0  0  0  0  0  0  0  0  0  0  0
   -2.3700   -0.1130   -2.0240 C   0  0  2  0  0  0  0  0  0  0  0  0
   -1.1470   -0.0390   -1.2400 N   0  0  0  0  0  0  0  0  0  0  0  0
   -3.5410    0.3530   -1.2820 C   0  0  0  0  0  0  0  0  0  0  0  0
   -3.4630    0.7660   -0.1010 O   0  0  0  0  0  0  0  0  0  0  0  0
   -1.4310   -3.0670   -0.8520 C   0  0  0  0  0  0  0  0  0  0  0  0
   -1.4400   -3.9700    0.1910 C   0  0  0  0  0  0  0  0  0  0  0  0
   -4.7770    0.3400   -1.8980 O   0  0  0  0  0  0  0  0  0  0  0  0
   -3.5270   -5.4610    2.2850 H   0  0  0  0  0  0  0  0  0  0  0  0
   -4.7350   -4.0980    0.6860 H   0  0  0  0  0  0  0  0  0  0  0  0
   -4.7300   -2.4870   -1.1740 H   0  0  0  0  0  0  0  0  0  0  0  0
   -3.4150   -1.6520   -3.1210 H   0  0  0  0  0  0  0  0  0  0  0  0
   -1.6270   -1.7540   -3.1650 H   0  0  0  0  0  0  0  0  0  0  0  0
   -2.1880    0.4860   -2.9390 H   0  0  0  0  0  0  0  0  0  0  0  0
   -1.1510   -0.5480   -0.3370 H   0  0  0  0  0  0  0  0  0  0  0  0
   -0.4350   -2.8160   -1.2470 H   0  0  0  0  0  0  0  0  0  0  0  0
   -0.5040   -4.3920    0.5800 H   0  0  0  0  0  0  0  0  0  0  0  0
  1  2  1  0  0  0  0
  1 10  1  0  0  0  0
  2 12  1  1  0  0  0
  2  3  1  0  0  0  0
  3  4  1  0  0  0  0
  3 13  1  0  0  0  0
  4 16  1  0  0  0  0
  4  5  1  0  0  0  0
  5  6  2  0  0  0  0
  5  9  1  0  0  0  0
  7  8  2  0  0  0  0
  7  2  1  0  0  0  0
  9 17  1  0  0  0  0
 11  1  1  0  0  0  0
 14  3  1  0  0  0  0
 15  4  1  0  0  0  0
 18 25  1  0  0  0  0
 18 26  1  0  0  0  0
 19 18  1  0  0  0  0
 19 21  1  0  0  0  0
 20 30  1  0  0  0  0
 20 19  1  0  0  0  0
 21 32  1  1  0  0  0
 21 22  1  0  0  0  0
 22  7  1  0  0  0  0
 23 41  1  0  0  0  0
 23 21  1  0  0  0  0
 24 23  2  0  0  0  0
 27 18  1  0  0  0  0
 28 19  1  0  0  0  0
 29 20  1  0  0  0  0
 31 20  1  0  0  0  0
 33 22  1  0  0  0  0
 34 47  1  0  0  0  0
 35 34  1  0  0  0  0
 36 48  1  0  0  0  0
 36 35  1  0  0  0  0
 37 36  2  0  0  0  0
 38 44  2  0  0  0  0
 38 37  1  0  0  0  0
 39 40  1  0  0  0  0
 39 38  1  0  0  0  0
 40 52  1  6  0  0  0
 40 42  1  0  0  0  0
 40 41  1  0  0  0  0
 41 53  1  0  0  0  0
 42 43  1  0  0  0  0
 44 45  1  0  0  0  0
 45 55  1  0  0  0  0
 45 35  2  0  0  0  0
 46 42  2  0  0  0  0
 49 37  1  0  0  0  0
 50 39  1  0  0  0  0
 51 39  1  0  0  0  0
 54 44  1  0  0  0  0
M  END
$$$$
