EWA.pdb
 OpenBabel07022418203D

 52 53  0  0  1  0  0  0  0  0999 V2000
   -0.3840   -0.9800    3.5770 N   0  0  0  0  0  0  0  0  0  0  0  0
    0.8990   -1.0350    2.9390 C   0  0  1  0  0  0  0  0  0  0  0  0
    1.5070   -2.3900    3.2240 C   0  0  0  0  0  0  0  0  0  0  0  0
    2.8650   -2.5860    2.6060 C   0  0  0  0  0  0  0  0  0  0  0  0
    3.8660   -1.6250    3.0680 C   0  0  0  0  0  0  0  0  0  0  0  0
    4.1570   -1.4290    4.2860 O   0  0  0  0  0  0  0  0  0  0  0  0
    0.7060   -0.8320    1.4740 C   0  0  0  0  0  0  0  0  0  0  0  0
    1.7480   -0.8080    0.7910 O   0  0  0  0  0  0  0  0  0  0  0  0
    4.5610   -0.8620    2.1230 O   0  0  0  0  0  0  0  0  0  0  0  0
   -0.8810   -0.0870    3.3820 H   0  0  0  0  0  0  0  0  0  0  0  0
   -0.9750   -1.7530    3.2060 H   0  0  0  0  0  0  0  0  0  0  0  0
    1.5390   -0.2390    3.3420 H   0  0  0  0  0  0  0  0  0  0  0  0
    1.6140   -2.4920    4.3140 H   0  0  0  0  0  0  0  0  0  0  0  0
    0.8550   -3.1920    2.8420 H   0  0  0  0  0  0  0  0  0  0  0  0
    3.2050   -3.6030    2.9890 H   0  0  0  0  0  0  0  0  0  0  0  0
    2.8830   -2.6810    1.5240 H   0  0  0  0  0  0  0  0  0  0  0  0
    4.8060    0.1250    2.3260 H   0  0  0  0  0  0  0  0  0  0  0  0
   -0.5550   -0.6810    0.8900 N   0  0  0  0  0  0  0  0  0  0  0  0
   -0.7430   -0.4870   -0.5290 C   0  0  1  0  0  0  0  0  0  0  0  0
    0.0330    0.7240   -0.9730 C   0  0  0  0  0  0  0  0  0  0  0  0
   -0.5030    1.8830   -0.1980 C   0  0  0  0  0  0  0  0  0  0  0  0
    0.0550    2.5180    0.8910 C   0  0  0  0  0  0  0  0  0  0  0  0
   -0.7610    3.5150    1.2910 N   0  0  0  0  0  0  0  0  0  0  0  0
   -1.8490    3.5730    0.5050 C   0  0  0  0  0  0  0  0  0  0  0  0
   -2.9710    4.3810    0.4680 C   0  0  0  0  0  0  0  0  0  0  0  0
   -3.9780    4.2280   -0.4730 C   0  0  0  0  0  0  0  0  0  0  0  0
   -3.8280    3.2180   -1.4010 C   0  0  0  0  0  0  0  0  0  0  0  0
   -2.7060    2.4050   -1.3680 C   0  0  0  0  0  0  0  0  0  0  0  0
   -1.7020    2.5610   -0.4270 C   0  0  0  0  0  0  0  0  0  0  0  0
   -0.5210   -1.6920   -1.3160 C   0  0  0  0  0  0  0  0  0  0  0  0
   -0.6270   -1.7710   -2.5620 O   0  0  0  0  0  0  0  0  0  0  0  0
   -1.4090   -0.7110    1.5340 H   0  0  0  0  0  0  0  0  0  0  0  0
   -1.8350   -0.1930   -0.6670 H   0  0  0  0  0  0  0  0  0  0  0  0
   -0.1360    0.9000   -2.0800 H   0  0  0  0  0  0  0  0  0  0  0  0
    1.0960    0.6130   -0.8310 H   0  0  0  0  0  0  0  0  0  0  0  0
    1.0070    2.2410    1.3430 H   0  0  0  0  0  0  0  0  0  0  0  0
   -0.5760    4.1450    2.0900 H   0  0  0  0  0  0  0  0  0  0  0  0
   -3.1150    5.1880    1.1830 H   0  0  0  0  0  0  0  0  0  0  0  0
   -4.8510    4.8840   -0.4770 H   0  0  0  0  0  0  0  0  0  0  0  0
   -4.5920    3.0660   -2.1530 H   0  0  0  0  0  0  0  0  0  0  0  0
   -2.5500    1.6010   -2.0760 H   0  0  0  0  0  0  0  0  0  0  0  0
    1.4630   -4.6750   -1.1730 C   0  0  0  0  0  0  0  0  0  0  0  0
    0.0910   -4.1310   -1.3250 C   0  0  2  0  0  0  0  0  0  0  0  0
   -0.1520   -2.8920   -0.6460 N   0  0  0  0  0  0  0  0  0  0  0  0
   -0.9700   -5.0930   -0.9510 C   0  0  0  0  0  0  0  0  0  0  0  0
   -1.0010   -6.2680   -1.4100 O   0  0  0  0  0  0  0  0  0  0  0  0
   -1.9820   -4.7340   -0.0730 O   0  0  0  0  0  0  0  0  0  0  0  0
    1.3830   -5.7980   -1.2730 H   0  0  0  0  0  0  0  0  0  0  0  0
    2.0900   -4.3540   -2.0230 H   0  0  0  0  0  0  0  0  0  0  0  0
    1.9260   -4.5030   -0.1940 H   0  0  0  0  0  0  0  0  0  0  0  0
   -0.0680   -3.9230   -2.4260 H   0  0  0  0  0  0  0  0  0  0  0  0
   -0.0470   -2.9040    0.4020 H   0  0  0  0  0  0  0  0  0  0  0  0
  2  3  1  0  0  0  0
  2 12  1  1  0  0  0
  2  1  1  0  0  0  0
  3 13  1  0  0  0  0
  4 15  1  0  0  0  0
  4  5  1  0  0  0  0
  4  3  1  0  0  0  0
  5  6  2  0  0  0  0
  7  2  1  0  0  0  0
  8  7  2  0  0  0  0
  9 17  1  0  0  0  0
  9  5  1  0  0  0  0
 10  1  1  0  0  0  0
 11  1  1  0  0  0  0
 14  3  1  0  0  0  0
 16  4  1  0  0  0  0
 18  7  1  0  0  0  0
 18 32  1  0  0  0  0
 19 33  1  6  0  0  0
 19 18  1  0  0  0  0
 20 35  1  0  0  0  0
 20 19  1  0  0  0  0
 20 21  1  0  0  0  0
 21 22  2  0  0  0  0
 22 23  1  0  0  0  0
 22 36  1  0  0  0  0
 23 37  1  0  0  0  0
 24 23  1  0  0  0  0
 25 24  1  0  0  0  0
 25 38  1  0  0  0  0
 26 25  2  0  0  0  0
 27 28  2  0  0  0  0
 27 26  1  0  0  0  0
 28 29  1  0  0  0  0
 29 21  1  0  0  0  0
 29 24  2  0  0  0  0
 30 44  1  0  0  0  0
 30 19  1  0  0  0  0
 31 30  2  0  0  0  0
 34 20  1  0  0  0  0
 39 26  1  0  0  0  0
 40 27  1  0  0  0  0
 41 28  1  0  0  0  0
 42 50  1  0  0  0  0
 43 51  1  6  0  0  0
 43 42  1  0  0  0  0
 43 45  1  0  0  0  0
 43 44  1  0  0  0  0
 44 52  1  0  0  0  0
 45 47  1  0  0  0  0
 46 45  2  0  0  0  0
 48 42  1  0  0  0  0
 49 42  1  0  0  0  0
M  END
$$$$
