EWC.pdb
 OpenBabel07022418203D

 53 54  0  0  1  0  0  0  0  0999 V2000
    4.3520   -1.5920   -0.6040 N   0  0  0  0  0  0  0  0  0  0  0  0
    4.4150   -1.0790    0.7500 C   0  0  1  0  0  0  0  0  0  0  0  0
    5.0890    0.2520    0.6530 C   0  0  0  0  0  0  0  0  0  0  0  0
    5.3290    1.0300    1.8900 C   0  0  0  0  0  0  0  0  0  0  0  0
    4.1520    1.4760    2.6470 C   0  0  0  0  0  0  0  0  0  0  0  0
    4.1040    1.3050    3.9150 O   0  0  0  0  0  0  0  0  0  0  0  0
    3.0100   -0.9610    1.2010 C   0  0  0  0  0  0  0  0  0  0  0  0
    2.7520   -0.8950    2.4380 O   0  0  0  0  0  0  0  0  0  0  0  0
    3.0740    2.0880    2.0260 O   0  0  0  0  0  0  0  0  0  0  0  0
    3.7930   -2.4190   -0.7330 H   0  0  0  0  0  0  0  0  0  0  0  0
    5.1490   -1.4030   -1.1840 H   0  0  0  0  0  0  0  0  0  0  0  0
    4.9700   -1.7760    1.4070 H   0  0  0  0  0  0  0  0  0  0  0  0
    6.0960    0.0750    0.1530 H   0  0  0  0  0  0  0  0  0  0  0  0
    4.5180    0.8880   -0.0990 H   0  0  0  0  0  0  0  0  0  0  0  0
    5.9130    1.9550    1.5600 H   0  0  0  0  0  0  0  0  0  0  0  0
    6.0260    0.4550    2.5600 H   0  0  0  0  0  0  0  0  0  0  0  0
    2.1990    2.2700    2.5270 H   0  0  0  0  0  0  0  0  0  0  0  0
    1.9940   -0.9250    0.2350 N   0  0  0  0  0  0  0  0  0  0  0  0
    0.5800   -0.8090    0.6400 C   0  0  1  0  0  0  0  0  0  0  0  0
    0.0870    0.5460    0.3050 C   0  0  0  0  0  0  0  0  0  0  0  0
   -1.3010    0.9040    0.6040 C   0  0  0  0  0  0  0  0  0  0  0  0
   -1.8000    1.3800    1.8360 C   0  0  0  0  0  0  0  0  0  0  0  0
   -3.1090    1.5520    1.7430 N   0  0  0  0  0  0  0  0  0  0  0  0
   -3.5660    1.2270    0.5230 C   0  0  0  0  0  0  0  0  0  0  0  0
   -4.8140    1.2510   -0.0730 C   0  0  0  0  0  0  0  0  0  0  0  0
   -4.9810    0.8760   -1.3910 C   0  0  0  0  0  0  0  0  0  0  0  0
   -3.8780    0.4730   -2.1180 C   0  0  0  0  0  0  0  0  0  0  0  0
   -2.6500    0.4610   -1.4930 C   0  0  0  0  0  0  0  0  0  0  0  0
   -2.4420    0.8260   -0.1820 C   0  0  0  0  0  0  0  0  0  0  0  0
   -0.1130   -2.0240    0.3500 C   0  0  0  0  0  0  0  0  0  0  0  0
    0.5520   -2.9560   -0.2490 O   0  0  0  0  0  0  0  0  0  0  0  0
    2.1850   -0.9770   -0.7730 H   0  0  0  0  0  0  0  0  0  0  0  0
    0.6540   -0.7950    1.8080 H   0  0  0  0  0  0  0  0  0  0  0  0
    0.3030    0.7590   -0.8000 H   0  0  0  0  0  0  0  0  0  0  0  0
    0.7370    1.3110    0.8470 H   0  0  0  0  0  0  0  0  0  0  0  0
   -1.1270    1.5500    2.6820 H   0  0  0  0  0  0  0  0  0  0  0  0
   -3.7020    1.8990    2.5350 H   0  0  0  0  0  0  0  0  0  0  0  0
   -5.7020    1.5590    0.4620 H   0  0  0  0  0  0  0  0  0  0  0  0
   -5.9720    0.8980   -1.8560 H   0  0  0  0  0  0  0  0  0  0  0  0
   -3.9580    0.1690   -3.1520 H   0  0  0  0  0  0  0  0  0  0  0  0
   -1.7380    0.1500   -2.0290 H   0  0  0  0  0  0  0  0  0  0  0  0
   -1.4570   -2.3180    0.6650 N   0  0  0  0  0  0  0  0  0  0  0  0
   -2.0360   -3.6220    0.3700 C   0  0  1  0  0  0  0  0  0  0  0  0
   -2.7830   -4.0740    1.5880 C   0  0  0  0  0  0  0  0  0  0  0  0
   -3.5660   -5.6740    1.3970 S   0  0  0  0  0  0  0  0  0  0  0  0
   -2.8020   -3.6690   -0.8760 C   0  0  0  0  0  0  0  0  0  0  0  0
   -3.4140   -4.7540   -1.2060 O   0  0  0  0  0  0  0  0  0  0  0  0
   -2.9030   -2.6070   -1.7300 O   0  0  0  0  0  0  0  0  0  0  0  0
   -2.0500   -1.6050    1.1280 H   0  0  0  0  0  0  0  0  0  0  0  0
   -1.1330   -4.3060    0.2160 H   0  0  0  0  0  0  0  0  0  0  0  0
   -2.0110   -4.1840    2.4070 H   0  0  0  0  0  0  0  0  0  0  0  0
   -3.4700   -3.2950    1.9390 H   0  0  0  0  0  0  0  0  0  0  0  0
   -4.7780   -5.6150    0.6970 H   0  0  0  0  0  0  0  0  0  0  0  0
  1  2  1  0  0  0  0
  2  7  1  0  0  0  0
  2 12  1  1  0  0  0
  3  2  1  0  0  0  0
  3  4  1  0  0  0  0
  4 16  1  0  0  0  0
  4  5  1  0  0  0  0
  5  6  2  0  0  0  0
  7  8  2  0  0  0  0
  9 17  1  0  0  0  0
  9  5  1  0  0  0  0
 10  1  1  0  0  0  0
 11  1  1  0  0  0  0
 13  3  1  0  0  0  0
 14  3  1  0  0  0  0
 15  4  1  0  0  0  0
 18 19  1  0  0  0  0
 18  7  1  0  0  0  0
 19 33  1  1  0  0  0
 20 21  1  0  0  0  0
 20 19  1  0  0  0  0
 20 35  1  0  0  0  0
 21 22  2  0  0  0  0
 22 36  1  0  0  0  0
 23 22  1  0  0  0  0
 23 37  1  0  0  0  0
 24 23  1  0  0  0  0
 25 38  1  0  0  0  0
 25 24  1  0  0  0  0
 26 25  2  0  0  0  0
 27 28  2  0  0  0  0
 27 26  1  0  0  0  0
 28 29  1  0  0  0  0
 29 24  2  0  0  0  0
 29 21  1  0  0  0  0
 30 19  1  0  0  0  0
 30 42  1  0  0  0  0
 31 30  2  0  0  0  0
 32 18  1  0  0  0  0
 34 20  1  0  0  0  0
 39 26  1  0  0  0  0
 40 27  1  0  0  0  0
 41 28  1  0  0  0  0
 42 49  1  0  0  0  0
 43 50  1  6  0  0  0
 43 42  1  0  0  0  0
 43 44  1  0  0  0  0
 44 52  1  0  0  0  0
 44 51  1  0  0  0  0
 45 44  1  0  0  0  0
 46 43  1  0  0  0  0
 47 46  1  0  0  0  0
 48 46  2  0  0  0  0
 53 45  1  0  0  0  0
M  END
$$$$
