EWE.pdb
 OpenBabel07022418203D

 58 59  0  0  1  0  0  0  0  0999 V2000
    2.9130    2.1060    0.8600 N   0  0  0  0  0  0  0  0  0  0  0  0
    3.0560    0.9310    1.6550 C   0  0  1  0  0  0  0  0  0  0  0  0
    2.9960    1.1090    3.1270 C   0  0  0  0  0  0  0  0  0  0  0  0
    4.0030    1.9670    3.7790 C   0  0  0  0  0  0  0  0  0  0  0  0
    4.0790    3.3670    3.4450 C   0  0  0  0  0  0  0  0  0  0  0  0
    3.2900    3.9360    2.6770 O   0  0  0  0  0  0  0  0  0  0  0  0
    1.9880   -0.0410    1.2840 C   0  0  0  0  0  0  0  0  0  0  0  0
    1.8260   -1.1180    1.9320 O   0  0  0  0  0  0  0  0  0  0  0  0
    5.0850    4.1880    3.9920 O   0  0  0  0  0  0  0  0  0  0  0  0
    3.4000    2.0920   -0.0560 H   0  0  0  0  0  0  0  0  0  0  0  0
    1.9740    2.5110    0.8040 H   0  0  0  0  0  0  0  0  0  0  0  0
    4.0160    0.3820    1.3590 H   0  0  0  0  0  0  0  0  0  0  0  0
    3.0810    0.0810    3.5780 H   0  0  0  0  0  0  0  0  0  0  0  0
    1.9370    1.4130    3.3710 H   0  0  0  0  0  0  0  0  0  0  0  0
    5.0410    1.5250    3.7100 H   0  0  0  0  0  0  0  0  0  0  0  0
    3.7990    1.8870    4.9000 H   0  0  0  0  0  0  0  0  0  0  0  0
    4.8720    5.1730    4.1990 H   0  0  0  0  0  0  0  0  0  0  0  0
    1.1370    0.2330    0.1930 N   0  0  0  0  0  0  0  0  0  0  0  0
    0.0720   -0.6670   -0.2280 C   0  0  1  0  0  0  0  0  0  0  0  0
   -1.2870   -0.0130   -0.0950 C   0  0  0  0  0  0  0  0  0  0  0  0
   -1.5620    0.3790    1.3120 C   0  0  0  0  0  0  0  0  0  0  0  0
   -1.5070    1.6620    1.8540 C   0  0  0  0  0  0  0  0  0  0  0  0
   -1.8190    1.6080    3.1530 N   0  0  0  0  0  0  0  0  0  0  0  0
   -2.0870    0.3320    3.5260 C   0  0  0  0  0  0  0  0  0  0  0  0
   -2.4510   -0.2320    4.7320 C   0  0  0  0  0  0  0  0  0  0  0  0
   -2.6680   -1.5890    4.8340 C   0  0  0  0  0  0  0  0  0  0  0  0
   -2.5060   -2.3410    3.6880 C   0  0  0  0  0  0  0  0  0  0  0  0
   -2.1430   -1.7870    2.4790 C   0  0  0  0  0  0  0  0  0  0  0  0
   -1.9250   -0.4220    2.3780 C   0  0  0  0  0  0  0  0  0  0  0  0
    0.3030   -1.2130   -1.5670 C   0  0  0  0  0  0  0  0  0  0  0  0
    1.3530   -0.8580   -2.1890 O   0  0  0  0  0  0  0  0  0  0  0  0
    1.2400    1.0980   -0.3670 H   0  0  0  0  0  0  0  0  0  0  0  0
    0.1000   -1.5310    0.4850 H   0  0  0  0  0  0  0  0  0  0  0  0
   -2.0350   -0.7480   -0.4610 H   0  0  0  0  0  0  0  0  0  0  0  0
   -1.2730    0.9080   -0.7150 H   0  0  0  0  0  0  0  0  0  0  0  0
   -1.2480    2.5360    1.2800 H   0  0  0  0  0  0  0  0  0  0  0  0
   -1.8700    2.3970    3.8490 H   0  0  0  0  0  0  0  0  0  0  0  0
   -2.5790    0.3530    5.6320 H   0  0  0  0  0  0  0  0  0  0  0  0
   -2.9570   -2.0430    5.7870 H   0  0  0  0  0  0  0  0  0  0  0  0
   -2.6780   -3.4090    3.7720 H   0  0  0  0  0  0  0  0  0  0  0  0
   -2.0140   -2.3660    1.5760 H   0  0  0  0  0  0  0  0  0  0  0  0
   -0.5930   -2.1150   -2.1920 N   0  0  0  0  0  0  0  0  0  0  0  0
   -0.3390   -2.6510   -3.5380 C   0  0  1  0  0  0  0  0  0  0  0  0
   -0.1130   -4.1150   -3.3940 C   0  0  0  0  0  0  0  0  0  0  0  0
   -1.2150   -4.8740   -2.7510 C   0  0  0  0  0  0  0  0  0  0  0  0
   -2.5110   -4.9300   -3.3920 C   0  0  0  0  0  0  0  0  0  0  0  0
   -2.8060   -4.4890   -4.5030 O   0  0  0  0  0  0  0  0  0  0  0  0
   -1.2840   -2.2000   -4.5450 C   0  0  0  0  0  0  0  0  0  0  0  0
   -2.2780   -1.5060   -4.2020 O   0  0  0  0  0  0  0  0  0  0  0  0
   -3.5630   -5.5520   -2.6830 O   0  0  0  0  0  0  0  0  0  0  0  0
   -1.1530   -2.4900   -5.9010 O   0  0  0  0  0  0  0  0  0  0  0  0
   -1.4660   -2.4320   -1.7180 H   0  0  0  0  0  0  0  0  0  0  0  0
    0.6690   -2.1700   -3.8650 H   0  0  0  0  0  0  0  0  0  0  0  0
    0.1820   -4.5840   -4.3860 H   0  0  0  0  0  0  0  0  0  0  0  0
    0.8120   -4.2680   -2.7570 H   0  0  0  0  0  0  0  0  0  0  0  0
   -0.8470   -5.9440   -2.6040 H   0  0  0  0  0  0  0  0  0  0  0  0
   -1.2980   -4.4760   -1.6910 H   0  0  0  0  0  0  0  0  0  0  0  0
   -4.5010   -5.2710   -2.9300 H   0  0  0  0  0  0  0  0  0  0  0  0
  1  2  1  0  0  0  0
  2 12  1  6  0  0  0
  2  3  1  0  0  0  0
  3 14  1  0  0  0  0
  3 13  1  0  0  0  0
  3  4  1  0  0  0  0
  4 16  1  0  0  0  0
  5  4  1  0  0  0  0
  5  9  1  0  0  0  0
  6  5  2  0  0  0  0
  7  2  1  0  0  0  0
  7  8  2  0  0  0  0
  9 17  1  0  0  0  0
 10  1  1  0  0  0  0
 11  1  1  0  0  0  0
 15  4  1  0  0  0  0
 18  7  1  0  0  0  0
 19 20  1  0  0  0  0
 19 18  1  0  0  0  0
 19 33  1  1  0  0  0
 20 21  1  0  0  0  0
 21 22  2  0  0  0  0
 21 29  1  0  0  0  0
 22 23  1  0  0  0  0
 23 24  1  0  0  0  0
 23 37  1  0  0  0  0
 24 25  1  0  0  0  0
 25 26  2  0  0  0  0
 25 38  1  0  0  0  0
 26 39  1  0  0  0  0
 27 40  1  0  0  0  0
 27 26  1  0  0  0  0
 28 27  2  0  0  0  0
 29 28  1  0  0  0  0
 29 24  2  0  0  0  0
 30 19  1  0  0  0  0
 31 30  2  0  0  0  0
 32 18  1  0  0  0  0
 34 20  1  0  0  0  0
 35 20  1  0  0  0  0
 36 22  1  0  0  0  0
 41 28  1  0  0  0  0
 42 52  1  0  0  0  0
 42 30  1  0  0  0  0
 43 53  1  6  0  0  0
 43 44  1  0  0  0  0
 43 42  1  0  0  0  0
 44 55  1  0  0  0  0
 44 45  1  0  0  0  0
 45 56  1  0  0  0  0
 45 57  1  0  0  0  0
 46 45  1  0  0  0  0
 46 50  1  0  0  0  0
 47 46  2  0  0  0  0
 48 49  1  0  0  0  0
 48 43  1  0  0  0  0
 51 48  2  0  0  0  0
 54 44  1  0  0  0  0
 58 50  1  0  0  0  0
M  END
$$$$
