EWF.pdb
 OpenBabel07022418203D

 62 64  0  0  1  0  0  0  0  0999 V2000
   -0.4730   -1.3800    3.9910 N   0  0  0  0  0  0  0  0  0  0  0  0
    0.1930   -1.1630    2.7590 C   0  0  1  0  0  0  0  0  0  0  0  0
    0.6790   -2.3480    2.0090 C   0  0  0  0  0  0  0  0  0  0  0  0
    1.6740   -3.1840    2.7440 C   0  0  0  0  0  0  0  0  0  0  0  0
    1.1650   -3.8310    3.9570 C   0  0  0  0  0  0  0  0  0  0  0  0
   -0.0220   -3.8250    4.2860 O   0  0  0  0  0  0  0  0  0  0  0  0
   -0.7580   -0.3950    1.8660 C   0  0  0  0  0  0  0  0  0  0  0  0
   -1.9160   -0.0720    2.2570 O   0  0  0  0  0  0  0  0  0  0  0  0
    2.0450   -4.5150    4.8360 O   0  0  0  0  0  0  0  0  0  0  0  0
   -1.5020   -1.5070    3.9090 H   0  0  0  0  0  0  0  0  0  0  0  0
   -0.3050   -0.6330    4.6990 H   0  0  0  0  0  0  0  0  0  0  0  0
    1.0780   -0.4950    2.9940 H   0  0  0  0  0  0  0  0  0  0  0  0
   -0.1570   -2.9650    1.5860 H   0  0  0  0  0  0  0  0  0  0  0  0
    1.2060   -1.9820    1.0700 H   0  0  0  0  0  0  0  0  0  0  0  0
    2.1000   -3.9960    2.0940 H   0  0  0  0  0  0  0  0  0  0  0  0
    2.5160   -2.5100    3.0800 H   0  0  0  0  0  0  0  0  0  0  0  0
    1.7390   -5.3440    5.3350 H   0  0  0  0  0  0  0  0  0  0  0  0
   -0.3990   -0.0010    0.5530 N   0  0  0  0  0  0  0  0  0  0  0  0
   -1.2680    0.7310   -0.3370 C   0  0  1  0  0  0  0  0  0  0  0  0
   -0.7040    2.1220   -0.6350 C   0  0  0  0  0  0  0  0  0  0  0  0
   -0.5640    2.9050    0.6270 C   0  0  0  0  0  0  0  0  0  0  0  0
    0.5980    3.1720    1.3260 C   0  0  0  0  0  0  0  0  0  0  0  0
    0.3050    3.9070    2.4130 N   0  0  0  0  0  0  0  0  0  0  0  0
   -1.0310    4.1500    2.4730 C   0  0  0  0  0  0  0  0  0  0  0  0
   -1.8260    4.8390    3.3650 C   0  0  0  0  0  0  0  0  0  0  0  0
   -3.1890    4.9300    3.1790 C   0  0  0  0  0  0  0  0  0  0  0  0
   -3.7320    4.3070    2.0690 C   0  0  0  0  0  0  0  0  0  0  0  0
   -2.9390    3.6160    1.1730 C   0  0  0  0  0  0  0  0  0  0  0  0
   -1.5610    3.5230    1.3590 C   0  0  0  0  0  0  0  0  0  0  0  0
   -1.5360    0.0120   -1.5940 C   0  0  0  0  0  0  0  0  0  0  0  0
   -2.2780    0.5130   -2.4800 O   0  0  0  0  0  0  0  0  0  0  0  0
    0.5490   -0.2550    0.2100 H   0  0  0  0  0  0  0  0  0  0  0  0
   -2.2570    0.9300    0.1720 H   0  0  0  0  0  0  0  0  0  0  0  0
   -1.3670    2.6150   -1.3590 H   0  0  0  0  0  0  0  0  0  0  0  0
    0.3120    2.0170   -1.0710 H   0  0  0  0  0  0  0  0  0  0  0  0
    1.5620    2.8100    0.9900 H   0  0  0  0  0  0  0  0  0  0  0  0
    0.9700    4.2620    3.1310 H   0  0  0  0  0  0  0  0  0  0  0  0
   -1.3900    5.3210    4.2280 H   0  0  0  0  0  0  0  0  0  0  0  0
   -3.8440    5.4680    3.8670 H   0  0  0  0  0  0  0  0  0  0  0  0
   -4.8000    4.3400    1.8620 H   0  0  0  0  0  0  0  0  0  0  0  0
   -3.3330    3.1160    0.2910 H   0  0  0  0  0  0  0  0  0  0  0  0
   -0.9490   -1.2580   -1.8050 N   0  0  0  0  0  0  0  0  0  0  0  0
   -1.1650   -2.0340   -3.0200 C   0  0  1  0  0  0  0  0  0  0  0  0
    0.1600   -2.2420   -3.7230 C   0  0  0  0  0  0  0  0  0  0  0  0
    1.1540   -2.9580   -2.9020 C   0  0  0  0  0  0  0  0  0  0  0  0
    2.0220   -2.2730   -2.0500 C   0  0  0  0  0  0  0  0  0  0  0  0
    2.9600   -2.9220   -1.2790 C   0  0  0  0  0  0  0  0  0  0  0  0
    3.0400   -4.2870   -1.3550 C   0  0  0  0  0  0  0  0  0  0  0  0
    2.1880   -4.9700   -2.1930 C   0  0  0  0  0  0  0  0  0  0  0  0
    1.2390   -4.3290   -2.9750 C   0  0  0  0  0  0  0  0  0  0  0  0
   -1.7350   -3.3620   -2.7140 C   0  0  0  0  0  0  0  0  0  0  0  0
   -1.9290   -3.6550   -1.4850 O   0  0  0  0  0  0  0  0  0  0  0  0
   -2.0690   -4.2960   -3.6590 O   0  0  0  0  0  0  0  0  0  0  0  0
   -0.3400   -1.6510   -1.0600 H   0  0  0  0  0  0  0  0  0  0  0  0
   -1.8460   -1.4740   -3.7180 H   0  0  0  0  0  0  0  0  0  0  0  0
   -0.0490   -2.7740   -4.6890 H   0  0  0  0  0  0  0  0  0  0  0  0
    0.6190   -1.2630   -4.0130 H   0  0  0  0  0  0  0  0  0  0  0  0
    1.9780   -1.1950   -1.9720 H   0  0  0  0  0  0  0  0  0  0  0  0
    3.6300   -2.3970   -0.6210 H   0  0  0  0  0  0  0  0  0  0  0  0
    3.7780   -4.8100   -0.7500 H   0  0  0  0  0  0  0  0  0  0  0  0
    2.2880   -6.0420   -2.2190 H   0  0  0  0  0  0  0  0  0  0  0  0
    0.5840   -4.9230   -3.6310 H   0  0  0  0  0  0  0  0  0  0  0  0
  1 11  1  0  0  0  0
  2 12  1  1  0  0  0
  2  1  1  0  0  0  0
  3  4  1  0  0  0  0
  3  2  1  0  0  0  0
  4 16  1  0  0  0  0
  4  5  1  0  0  0  0
  5  6  2  0  0  0  0
  5  9  1  0  0  0  0
  7  8  2  0  0  0  0
  7  2  1  0  0  0  0
  9 17  1  0  0  0  0
 10  1  1  0  0  0  0
 13  3  1  0  0  0  0
 14  3  1  0  0  0  0
 15  4  1  0  0  0  0
 18  7  1  0  0  0  0
 19 33  1  1  0  0  0
 19 18  1  0  0  0  0
 20 19  1  0  0  0  0
 20 21  1  0  0  0  0
 21 22  2  0  0  0  0
 21 29  1  0  0  0  0
 22 23  1  0  0  0  0
 23 24  1  0  0  0  0
 23 37  1  0  0  0  0
 24 25  1  0  0  0  0
 25 38  1  0  0  0  0
 26 25  2  0  0  0  0
 26 39  1  0  0  0  0
 27 26  1  0  0  0  0
 28 29  1  0  0  0  0
 28 27  2  0  0  0  0
 29 24  2  0  0  0  0
 30 19  1  0  0  0  0
 31 30  2  0  0  0  0
 32 18  1  0  0  0  0
 34 20  1  0  0  0  0
 35 20  1  0  0  0  0
 36 22  1  0  0  0  0
 40 27  1  0  0  0  0
 41 28  1  0  0  0  0
 42 30  1  0  0  0  0
 42 54  1  0  0  0  0
 43 55  1  6  0  0  0
 43 51  1  0  0  0  0
 43 42  1  0  0  0  0
 44 43  1  0  0  0  0
 44 45  1  0  0  0  0
 45 46  1  0  0  0  0
 46 58  1  0  0  0  0
 46 47  2  0  0  0  0
 47 59  1  0  0  0  0
 48 47  1  0  0  0  0
 48 60  1  0  0  0  0
 49 48  2  0  0  0  0
 50 45  2  0  0  0  0
 50 49  1  0  0  0  0
 51 52  1  0  0  0  0
 53 51  2  0  0  0  0
 56 44  1  0  0  0  0
 57 44  1  0  0  0  0
 61 49  1  0  0  0  0
 62 50  1  0  0  0  0
M  END
$$$$
