EWG.pdb
 OpenBabel07022418203D

 49 50  0  0  1  0  0  0  0  0999 V2000
    2.5790   -0.9550    3.1280 N   0  0  0  0  0  0  0  0  0  0  0  0
    2.3450   -0.9410    1.7220 C   0  0  1  0  0  0  0  0  0  0  0  0
    2.8140   -2.2690    1.1650 C   0  0  0  0  0  0  0  0  0  0  0  0
    4.2940   -2.4360    1.4520 C   0  0  0  0  0  0  0  0  0  0  0  0
    4.8020   -3.7090    0.9310 C   0  0  0  0  0  0  0  0  0  0  0  0
    4.3030   -4.8120    1.3050 O   0  0  0  0  0  0  0  0  0  0  0  0
    0.9050   -0.7180    1.4550 C   0  0  0  0  0  0  0  0  0  0  0  0
    0.4800   -0.6230    0.2920 O   0  0  0  0  0  0  0  0  0  0  0  0
    5.8610   -3.7140    0.0020 O   0  0  0  0  0  0  0  0  0  0  0  0
    3.4640   -0.4270    3.3420 H   0  0  0  0  0  0  0  0  0  0  0  0
    2.7140   -1.9240    3.4960 H   0  0  0  0  0  0  0  0  0  0  0  0
    2.8990   -0.1220    1.1930 H   0  0  0  0  0  0  0  0  0  0  0  0
    2.2690   -3.0990    1.6840 H   0  0  0  0  0  0  0  0  0  0  0  0
    2.6130   -2.3620    0.0820 H   0  0  0  0  0  0  0  0  0  0  0  0
    4.4920   -2.4110    2.5420 H   0  0  0  0  0  0  0  0  0  0  0  0
    4.7940   -1.5710    0.9790 H   0  0  0  0  0  0  0  0  0  0  0  0
    5.8600   -4.4450   -0.7170 H   0  0  0  0  0  0  0  0  0  0  0  0
   -0.0080   -0.6080    2.5290 N   0  0  0  0  0  0  0  0  0  0  0  0
   -1.4250   -0.4010    2.3950 C   0  0  1  0  0  0  0  0  0  0  0  0
   -1.7110    1.0530    2.2760 C   0  0  0  0  0  0  0  0  0  0  0  0
   -1.0720    1.7780    1.1680 C   0  0  0  0  0  0  0  0  0  0  0  0
    0.1420    2.4690    1.2590 C   0  0  0  0  0  0  0  0  0  0  0  0
    0.4410    2.9740    0.0650 N   0  0  0  0  0  0  0  0  0  0  0  0
   -0.5140    2.6590   -0.8300 C   0  0  0  0  0  0  0  0  0  0  0  0
   -0.6500    2.9700   -2.1900 C   0  0  0  0  0  0  0  0  0  0  0  0
   -1.7520    2.5320   -2.8870 C   0  0  0  0  0  0  0  0  0  0  0  0
   -2.7020    1.7920   -2.2220 C   0  0  0  0  0  0  0  0  0  0  0  0
   -2.5410    1.5010   -0.8850 C   0  0  0  0  0  0  0  0  0  0  0  0
   -1.4520    1.9180   -0.1460 C   0  0  0  0  0  0  0  0  0  0  0  0
   -2.1590   -1.3400    1.5800 C   0  0  0  0  0  0  0  0  0  0  0  0
   -3.3550   -1.1340    1.2850 O   0  0  0  0  0  0  0  0  0  0  0  0
    0.3960   -0.6820    3.4860 H   0  0  0  0  0  0  0  0  0  0  0  0
   -1.7960   -0.7080    3.4900 H   0  0  0  0  0  0  0  0  0  0  0  0
   -1.4430    1.5450    3.2700 H   0  0  0  0  0  0  0  0  0  0  0  0
   -2.8290    1.2480    2.2300 H   0  0  0  0  0  0  0  0  0  0  0  0
    0.7040    2.5430    2.1870 H   0  0  0  0  0  0  0  0  0  0  0  0
    1.3030    3.5430   -0.1550 H   0  0  0  0  0  0  0  0  0  0  0  0
    0.1200    3.5570   -2.6840 H   0  0  0  0  0  0  0  0  0  0  0  0
   -1.8900    2.7570   -3.9540 H   0  0  0  0  0  0  0  0  0  0  0  0
   -3.5650    1.4520   -2.7790 H   0  0  0  0  0  0  0  0  0  0  0  0
   -3.2870    0.9310   -0.3590 H   0  0  0  0  0  0  0  0  0  0  0  0
   -1.5830   -2.5420    1.0770 N   0  0  0  0  0  0  0  0  0  0  0  0
   -2.3640   -3.4510    0.2730 C   0  0  0  0  0  0  0  0  0  0  0  0
   -2.8690   -2.8900   -0.9830 C   0  0  0  0  0  0  0  0  0  0  0  0
   -3.6040   -3.6200   -1.7220 O   0  0  0  0  0  0  0  0  0  0  0  0
   -2.6190   -1.6240   -1.4470 O   0  0  0  0  0  0  0  0  0  0  0  0
   -0.5950   -2.8200    1.2800 H   0  0  0  0  0  0  0  0  0  0  0  0
   -3.2550   -3.8090    0.8720 H   0  0  0  0  0  0  0  0  0  0  0  0
   -1.8050   -4.3740    0.0180 H   0  0  0  0  0  0  0  0  0  0  0  0
  1 10  1  0  0  0  0
  1 11  1  0  0  0  0
  2 12  1  6  0  0  0
  2  1  1  0  0  0  0
  3  4  1  0  0  0  0
  3 13  1  0  0  0  0
  3  2  1  0  0  0  0
  4 15  1  0  0  0  0
  5  6  2  0  0  0  0
  5  4  1  0  0  0  0
  7  2  1  0  0  0  0
  7 18  1  0  0  0  0
  8  7  2  0  0  0  0
  9  5  1  0  0  0  0
 14  3  1  0  0  0  0
 16  4  1  0  0  0  0
 17  9  1  0  0  0  0
 18 32  1  0  0  0  0
 19 18  1  0  0  0  0
 19 33  1  1  0  0  0
 20 19  1  0  0  0  0
 20 34  1  0  0  0  0
 21 22  2  0  0  0  0
 21 20  1  0  0  0  0
 22 36  1  0  0  0  0
 23 22  1  0  0  0  0
 24 29  1  0  0  0  0
 24 23  1  0  0  0  0
 25 24  2  0  0  0  0
 26 27  2  0  0  0  0
 26 25  1  0  0  0  0
 27 28  1  0  0  0  0
 28 41  1  0  0  0  0
 28 29  2  0  0  0  0
 29 21  1  0  0  0  0
 30 19  1  0  0  0  0
 31 30  2  0  0  0  0
 35 20  1  0  0  0  0
 37 23  1  0  0  0  0
 38 25  1  0  0  0  0
 39 26  1  0  0  0  0
 40 27  1  0  0  0  0
 42 47  1  0  0  0  0
 42 30  1  0  0  0  0
 43 48  1  0  0  0  0
 43 42  1  0  0  0  0
 44 43  1  0  0  0  0
 45 44  2  0  0  0  0
 46 44  1  0  0  0  0
 49 43  1  0  0  0  0
M  END
$$$$
