EWH.pdb
 OpenBabel07022418203D

 59 61  0  0  1  0  0  0  0  0999 V2000
    4.6720    0.9210    1.9160 N   0  0  0  0  0  0  0  0  0  0  0  0
    3.2780    0.8610    2.2130 C   0  0  1  0  0  0  0  0  0  0  0  0
    2.7090    2.1690    2.5920 C   0  0  0  0  0  0  0  0  0  0  0  0
    3.3640    2.7210    3.8110 C   0  0  0  0  0  0  0  0  0  0  0  0
    4.7730    3.0830    3.7310 C   0  0  0  0  0  0  0  0  0  0  0  0
    5.4040    3.1460    2.6710 O   0  0  0  0  0  0  0  0  0  0  0  0
    2.5660    0.1920    1.0990 C   0  0  0  0  0  0  0  0  0  0  0  0
    3.2140   -0.2090    0.1040 O   0  0  0  0  0  0  0  0  0  0  0  0
    5.5220    3.3900    4.8870 O   0  0  0  0  0  0  0  0  0  0  0  0
    4.8980    0.8300    0.8970 H   0  0  0  0  0  0  0  0  0  0  0  0
    5.2590    0.2870    2.4950 H   0  0  0  0  0  0  0  0  0  0  0  0
    3.2130    0.2240    3.1590 H   0  0  0  0  0  0  0  0  0  0  0  0
    2.7180    2.9170    1.7550 H   0  0  0  0  0  0  0  0  0  0  0  0
    1.6240    1.9900    2.8830 H   0  0  0  0  0  0  0  0  0  0  0  0
    3.3110    1.8850    4.5900 H   0  0  0  0  0  0  0  0  0  0  0  0
    2.7440    3.5240    4.2980 H   0  0  0  0  0  0  0  0  0  0  0  0
    6.5210    3.2300    4.9360 H   0  0  0  0  0  0  0  0  0  0  0  0
    1.1600   -0.0320    1.0810 N   0  0  0  0  0  0  0  0  0  0  0  0
    0.4830   -0.6890   -0.0200 C   0  0  1  0  0  0  0  0  0  0  0  0
   -0.0800   -1.9780    0.4640 C   0  0  0  0  0  0  0  0  0  0  0  0
   -1.0520   -1.9210    1.5410 C   0  0  0  0  0  0  0  0  0  0  0  0
   -1.7800   -0.9090    2.1170 C   0  0  0  0  0  0  0  0  0  0  0  0
   -2.5710   -1.3990    3.1120 N   0  0  0  0  0  0  0  0  0  0  0  0
   -2.3730   -2.7230    3.1980 C   0  0  0  0  0  0  0  0  0  0  0  0
   -2.9360   -3.6650    4.0430 C   0  0  0  0  0  0  0  0  0  0  0  0
   -2.5470   -4.9700    3.9130 C   0  0  0  0  0  0  0  0  0  0  0  0
   -1.6300   -5.3660    2.9830 C   0  0  0  0  0  0  0  0  0  0  0  0
   -1.0900   -4.3990    2.1570 C   0  0  0  0  0  0  0  0  0  0  0  0
   -1.4440   -3.0680    2.2420 C   0  0  0  0  0  0  0  0  0  0  0  0
   -0.4920    0.1560   -0.7050 C   0  0  0  0  0  0  0  0  0  0  0  0
   -0.7160    1.3400   -0.4070 O   0  0  0  0  0  0  0  0  0  0  0  0
    0.6370    0.3000    1.9010 H   0  0  0  0  0  0  0  0  0  0  0  0
    1.2510   -0.9670   -0.8040 H   0  0  0  0  0  0  0  0  0  0  0  0
    0.8060   -2.5630    0.8650 H   0  0  0  0  0  0  0  0  0  0  0  0
   -0.4220   -2.6370   -0.3910 H   0  0  0  0  0  0  0  0  0  0  0  0
   -1.7210    0.1190    1.8080 H   0  0  0  0  0  0  0  0  0  0  0  0
   -3.2190   -0.7900    3.6930 H   0  0  0  0  0  0  0  0  0  0  0  0
   -3.6570   -3.3140    4.7660 H   0  0  0  0  0  0  0  0  0  0  0  0
   -3.0080   -5.6990    4.5960 H   0  0  0  0  0  0  0  0  0  0  0  0
   -1.3700   -6.4090    2.9350 H   0  0  0  0  0  0  0  0  0  0  0  0
   -0.3610   -4.7000    1.4150 H   0  0  0  0  0  0  0  0  0  0  0  0
   -1.2340   -0.4050   -1.7830 N   0  0  0  0  0  0  0  0  0  0  0  0
   -2.2250    0.3650   -2.5210 C   0  0  1  0  0  0  0  0  0  0  0  0
   -1.8050    0.3180   -3.9860 C   0  0  0  0  0  0  0  0  0  0  0  0
   -1.7750   -1.0880   -4.4670 C   0  0  0  0  0  0  0  0  0  0  0  0
   -0.7320   -1.9890   -4.4520 C   0  0  0  0  0  0  0  0  0  0  0  0
   -1.1400   -3.1460   -4.9850 N   0  0  0  0  0  0  0  0  0  0  0  0
   -2.4270   -3.0160   -5.3460 C   0  0  0  0  0  0  0  0  0  0  0  0
   -2.8020   -1.7830   -5.0340 N   0  0  0  0  0  0  0  0  0  0  0  0
   -3.5530   -0.2700   -2.4450 C   0  0  0  0  0  0  0  0  0  0  0  0
   -3.6970   -1.3270   -1.8040 O   0  0  0  0  0  0  0  0  0  0  0  0
   -4.6330    0.2990   -3.0780 O   0  0  0  0  0  0  0  0  0  0  0  0
   -1.1020   -1.3930   -2.0910 H   0  0  0  0  0  0  0  0  0  0  0  0
   -2.3180    1.3920   -2.1540 H   0  0  0  0  0  0  0  0  0  0  0  0
   -0.8270    0.8000   -4.1460 H   0  0  0  0  0  0  0  0  0  0  0  0
   -2.5410    0.8800   -4.5980 H   0  0  0  0  0  0  0  0  0  0  0  0
    0.2620   -1.8070   -4.0740 H   0  0  0  0  0  0  0  0  0  0  0  0
   -0.6050   -4.0490   -5.1320 H   0  0  0  0  0  0  0  0  0  0  0  0
   -3.0890   -3.7570   -5.8150 H   0  0  0  0  0  0  0  0  0  0  0  0
  1  2  1  0  0  0  0
  1 11  1  0  0  0  0
  2  3  1  0  0  0  0
  2 12  1  1  0  0  0
  3 14  1  0  0  0  0
  3  4  1  0  0  0  0
  4 16  1  0  0  0  0
  4 15  1  0  0  0  0
  5  4  1  0  0  0  0
  5  9  1  0  0  0  0
  6  5  2  0  0  0  0
  7  2  1  0  0  0  0
  8  7  2  0  0  0  0
  9 17  1  0  0  0  0
 10  1  1  0  0  0  0
 13  3  1  0  0  0  0
 18  7  1  0  0  0  0
 18 32  1  0  0  0  0
 19 33  1  6  0  0  0
 19 20  1  0  0  0  0
 19 18  1  0  0  0  0
 20 34  1  0  0  0  0
 20 21  1  0  0  0  0
 21 22  2  0  0  0  0
 21 29  1  0  0  0  0
 22 23  1  0  0  0  0
 23 24  1  0  0  0  0
 23 37  1  0  0  0  0
 24 25  1  0  0  0  0
 25 38  1  0  0  0  0
 26 25  2  0  0  0  0
 26 39  1  0  0  0  0
 27 26  1  0  0  0  0
 28 29  1  0  0  0  0
 28 27  2  0  0  0  0
 29 24  2  0  0  0  0
 30 31  2  0  0  0  0
 30 19  1  0  0  0  0
 35 20  1  0  0  0  0
 36 22  1  0  0  0  0
 40 27  1  0  0  0  0
 41 28  1  0  0  0  0
 42 30  1  0  0  0  0
 43 50  1  0  0  0  0
 43 54  1  1  0  0  0
 43 42  1  0  0  0  0
 44 43  1  0  0  0  0
 45 46  2  0  0  0  0
 45 44  1  0  0  0  0
 46 57  1  0  0  0  0
 47 46  1  0  0  0  0
 48 49  2  0  0  0  0
 48 47  1  0  0  0  0
 49 45  1  0  0  0  0
 50 51  1  0  0  0  0
 52 50  2  0  0  0  0
 53 42  1  0  0  0  0
 55 44  1  0  0  0  0
 56 44  1  0  0  0  0
 58 47  1  0  0  0  0
 59 48  1  0  0  0  0
M  END
$$$$
