EWL.pdb
 OpenBabel07022418203D

 61 62  0  0  1  0  0  0  0  0999 V2000
    0.2060   -0.1850    3.8660 N   0  0  0  0  0  0  0  0  0  0  0  0
    1.3730   -0.1390    3.0020 C   0  0  1  0  0  0  0  0  0  0  0  0
    1.9730   -1.5260    3.0510 C   0  0  0  0  0  0  0  0  0  0  0  0
    2.3680   -1.9060    4.4500 C   0  0  0  0  0  0  0  0  0  0  0  0
    3.3870   -1.0490    5.0630 C   0  0  0  0  0  0  0  0  0  0  0  0
    3.8960   -0.1150    4.4000 O   0  0  0  0  0  0  0  0  0  0  0  0
    0.9570    0.0720    1.5680 C   0  0  0  0  0  0  0  0  0  0  0  0
    1.8300    0.2320    0.6840 O   0  0  0  0  0  0  0  0  0  0  0  0
    3.8380   -1.2100    6.3660 O   0  0  0  0  0  0  0  0  0  0  0  0
   -0.3640   -1.0150    3.6020 H   0  0  0  0  0  0  0  0  0  0  0  0
   -0.3390    0.6810    3.6940 H   0  0  0  0  0  0  0  0  0  0  0  0
    2.0230    0.6550    3.3530 H   0  0  0  0  0  0  0  0  0  0  0  0
    1.1210   -2.2160    2.7740 H   0  0  0  0  0  0  0  0  0  0  0  0
    2.8080   -1.6500    2.3310 H   0  0  0  0  0  0  0  0  0  0  0  0
    2.7280   -2.9730    4.4970 H   0  0  0  0  0  0  0  0  0  0  0  0
    1.4700   -1.8770    5.1320 H   0  0  0  0  0  0  0  0  0  0  0  0
    4.2600   -0.4080    6.8130 H   0  0  0  0  0  0  0  0  0  0  0  0
   -0.3970    0.0960    1.1830 N   0  0  0  0  0  0  0  0  0  0  0  0
   -0.9400    0.3020   -0.1200 C   0  0  1  0  0  0  0  0  0  0  0  0
   -0.1230    1.3170   -0.9480 C   0  0  0  0  0  0  0  0  0  0  0  0
   -0.0940    2.6530   -0.3230 C   0  0  0  0  0  0  0  0  0  0  0  0
    0.8910    3.2930    0.3680 C   0  0  0  0  0  0  0  0  0  0  0  0
    0.4480    4.5300    0.7550 N   0  0  0  0  0  0  0  0  0  0  0  0
   -0.8130    4.7180    0.3310 C   0  0  0  0  0  0  0  0  0  0  0  0
   -1.6700    5.7910    0.4700 C   0  0  0  0  0  0  0  0  0  0  0  0
   -2.9220    5.6820   -0.0910 C   0  0  0  0  0  0  0  0  0  0  0  0
   -3.3040    4.5400   -0.7700 C   0  0  0  0  0  0  0  0  0  0  0  0
   -2.4130    3.4880   -0.8860 C   0  0  0  0  0  0  0  0  0  0  0  0
   -1.1690    3.5540   -0.3460 C   0  0  0  0  0  0  0  0  0  0  0  0
   -1.2480   -0.8970   -0.8930 C   0  0  0  0  0  0  0  0  0  0  0  0
   -1.7660   -0.7370   -2.0290 O   0  0  0  0  0  0  0  0  0  0  0  0
   -1.1030   -0.0660    1.9710 H   0  0  0  0  0  0  0  0  0  0  0  0
   -1.8830    0.9460    0.0880 H   0  0  0  0  0  0  0  0  0  0  0  0
    0.8700    0.9240   -1.2020 H   0  0  0  0  0  0  0  0  0  0  0  0
   -0.6820    1.4140   -1.9270 H   0  0  0  0  0  0  0  0  0  0  0  0
    1.8730    2.8960    0.5770 H   0  0  0  0  0  0  0  0  0  0  0  0
    1.0170    5.2090    1.2960 H   0  0  0  0  0  0  0  0  0  0  0  0
   -1.4290    6.7040    0.9860 H   0  0  0  0  0  0  0  0  0  0  0  0
   -3.6470    6.5030   -0.0120 H   0  0  0  0  0  0  0  0  0  0  0  0
   -4.2800    4.4160   -1.2260 H   0  0  0  0  0  0  0  0  0  0  0  0
   -2.6850    2.5720   -1.4230 H   0  0  0  0  0  0  0  0  0  0  0  0
   -0.4530   -6.5290   -1.6910 C   0  0  0  0  0  0  0  0  0  0  0  0
    0.1830   -5.2760   -2.2090 C   0  0  0  0  0  0  0  0  0  0  0  0
   -0.0800   -5.1130   -3.7100 C   0  0  0  0  0  0  0  0  0  0  0  0
    0.0060   -4.0350   -1.4580 C   0  0  0  0  0  0  0  0  0  0  0  0
   -1.3130   -3.4240   -1.2230 C   0  0  2  0  0  0  0  0  0  0  0  0
   -1.0010   -2.1890   -0.4430 N   0  0  0  0  0  0  0  0  0  0  0  0
   -2.2800   -4.1380   -0.3800 C   0  0  0  0  0  0  0  0  0  0  0  0
   -2.9230   -5.1710   -0.6980 O   0  0  0  0  0  0  0  0  0  0  0  0
   -2.5830   -3.6940    0.9280 O   0  0  0  0  0  0  0  0  0  0  0  0
   -1.4030   -6.7020   -2.2400 H   0  0  0  0  0  0  0  0  0  0  0  0
   -0.6510   -6.5510   -0.6240 H   0  0  0  0  0  0  0  0  0  0  0  0
    0.2210   -7.3930   -1.9820 H   0  0  0  0  0  0  0  0  0  0  0  0
    1.3070   -5.4850   -2.1880 H   0  0  0  0  0  0  0  0  0  0  0  0
    0.6580   -4.4070   -4.0910 H   0  0  0  0  0  0  0  0  0  0  0  0
   -1.1220   -4.8690   -3.9250 H   0  0  0  0  0  0  0  0  0  0  0  0
    0.1260   -6.1050   -4.1780 H   0  0  0  0  0  0  0  0  0  0  0  0
    0.6200   -3.2400   -1.9990 H   0  0  0  0  0  0  0  0  0  0  0  0
    0.5350   -4.1380   -0.4690 H   0  0  0  0  0  0  0  0  0  0  0  0
   -1.8210   -3.0920   -2.1580 H   0  0  0  0  0  0  0  0  0  0  0  0
   -0.5740   -2.3590    0.4830 H   0  0  0  0  0  0  0  0  0  0  0  0
  2  3  1  0  0  0  0
  2 12  1  1  0  0  0
  2  1  1  0  0  0  0
  3  4  1  0  0  0  0
  4 15  1  0  0  0  0
  4  5  1  0  0  0  0
  4 16  1  0  0  0  0
  5  9  1  0  0  0  0
  6  5  2  0  0  0  0
  7  2  1  0  0  0  0
  8  7  2  0  0  0  0
  9 17  1  0  0  0  0
 10  1  1  0  0  0  0
 11  1  1  0  0  0  0
 13  3  1  0  0  0  0
 14  3  1  0  0  0  0
 18  7  1  0  0  0  0
 18 32  1  0  0  0  0
 19 33  1  1  0  0  0
 19 18  1  0  0  0  0
 20 21  1  0  0  0  0
 20 19  1  0  0  0  0
 21 22  2  0  0  0  0
 22 36  1  0  0  0  0
 22 23  1  0  0  0  0
 23 37  1  0  0  0  0
 24 25  1  0  0  0  0
 24 23  1  0  0  0  0
 25 38  1  0  0  0  0
 26 39  1  0  0  0  0
 26 25  2  0  0  0  0
 27 26  1  0  0  0  0
 28 27  2  0  0  0  0
 28 29  1  0  0  0  0
 29 21  1  0  0  0  0
 29 24  2  0  0  0  0
 30 47  1  0  0  0  0
 30 19  1  0  0  0  0
 31 30  2  0  0  0  0
 34 20  1  0  0  0  0
 35 20  1  0  0  0  0
 40 27  1  0  0  0  0
 41 28  1  0  0  0  0
 42 52  1  0  0  0  0
 43 54  1  0  0  0  0
 43 42  1  0  0  0  0
 43 45  1  0  0  0  0
 44 43  1  0  0  0  0
 45 46  1  0  0  0  0
 45 59  1  0  0  0  0
 46 60  1  6  0  0  0
 46 47  1  0  0  0  0
 46 48  1  0  0  0  0
 47 61  1  0  0  0  0
 48 50  1  0  0  0  0
 49 48  2  0  0  0  0
 51 42  1  0  0  0  0
 53 42  1  0  0  0  0
 55 44  1  0  0  0  0
 56 44  1  0  0  0  0
 57 44  1  0  0  0  0
 58 45  1  0  0  0  0
M  END
$$$$
