EWM.pdb
 OpenBabel07022418203D

 59 60  0  0  1  0  0  0  0  0999 V2000
    2.0550   -1.7390    3.7290 N   0  0  0  0  0  0  0  0  0  0  0  0
    2.4080   -0.3900    3.4110 C   0  0  1  0  0  0  0  0  0  0  0  0
    3.8890   -0.3170    3.2780 C   0  0  0  0  0  0  0  0  0  0  0  0
    4.5450   -0.7250    4.5620 C   0  0  0  0  0  0  0  0  0  0  0  0
    4.2600    0.1130    5.7250 C   0  0  0  0  0  0  0  0  0  0  0  0
    3.5770    1.1550    5.6110 O   0  0  0  0  0  0  0  0  0  0  0  0
    1.7210    0.0020    2.1240 C   0  0  0  0  0  0  0  0  0  0  0  0
    1.8710    1.1570    1.6550 O   0  0  0  0  0  0  0  0  0  0  0  0
    4.7140   -0.1770    7.0100 O   0  0  0  0  0  0  0  0  0  0  0  0
    1.0550   -1.8650    3.8690 H   0  0  0  0  0  0  0  0  0  0  0  0
    2.4160   -2.3800    3.0090 H   0  0  0  0  0  0  0  0  0  0  0  0
    2.0630    0.2700    4.2270 H   0  0  0  0  0  0  0  0  0  0  0  0
    4.2600    0.7040    3.0300 H   0  0  0  0  0  0  0  0  0  0  0  0
    4.2430   -1.0570    2.5070 H   0  0  0  0  0  0  0  0  0  0  0  0
    4.2470   -1.7780    4.8530 H   0  0  0  0  0  0  0  0  0  0  0  0
    5.6530   -0.8210    4.3990 H   0  0  0  0  0  0  0  0  0  0  0  0
    4.2880    0.2760    7.8090 H   0  0  0  0  0  0  0  0  0  0  0  0
    0.8970   -0.8960    1.4040 N   0  0  0  0  0  0  0  0  0  0  0  0
    0.1780   -0.6720    0.2040 C   0  0  1  0  0  0  0  0  0  0  0  0
   -0.3430    0.7370   -0.0280 C   0  0  0  0  0  0  0  0  0  0  0  0
   -1.3100    1.1870    0.9850 C   0  0  0  0  0  0  0  0  0  0  0  0
   -1.1430    2.0840    1.9930 C   0  0  0  0  0  0  0  0  0  0  0  0
   -2.3090    2.2200    2.6950 N   0  0  0  0  0  0  0  0  0  0  0  0
   -3.2430    1.4160    2.1520 C   0  0  0  0  0  0  0  0  0  0  0  0
   -4.5580    1.2210    2.5170 C   0  0  0  0  0  0  0  0  0  0  0  0
   -5.2980    0.3370    1.7830 C   0  0  0  0  0  0  0  0  0  0  0  0
   -4.7360   -0.3330    0.7130 C   0  0  0  0  0  0  0  0  0  0  0  0
   -3.3970   -0.1130    0.3670 C   0  0  0  0  0  0  0  0  0  0  0  0
   -2.6400    0.7660    1.0880 C   0  0  0  0  0  0  0  0  0  0  0  0
    0.7560   -1.2940   -1.0010 C   0  0  0  0  0  0  0  0  0  0  0  0
    1.8530   -1.9540   -0.9470 O   0  0  0  0  0  0  0  0  0  0  0  0
    0.8340   -1.8720    1.8640 H   0  0  0  0  0  0  0  0  0  0  0  0
   -0.8310   -1.2200    0.3990 H   0  0  0  0  0  0  0  0  0  0  0  0
    0.4590    1.4960   -0.0970 H   0  0  0  0  0  0  0  0  0  0  0  0
   -0.8630    0.7380   -1.0400 H   0  0  0  0  0  0  0  0  0  0  0  0
   -0.2630    2.6570    2.2730 H   0  0  0  0  0  0  0  0  0  0  0  0
   -2.4440    2.8480    3.5170 H   0  0  0  0  0  0  0  0  0  0  0  0
   -5.0030    1.7520    3.3660 H   0  0  0  0  0  0  0  0  0  0  0  0
   -6.3300    0.1810    2.0670 H   0  0  0  0  0  0  0  0  0  0  0  0
   -5.3090   -1.0390    0.1190 H   0  0  0  0  0  0  0  0  0  0  0  0
   -2.9680   -0.6360   -0.4690 H   0  0  0  0  0  0  0  0  0  0  0  0
   -2.7690   -4.9130   -3.3430 C   0  0  0  0  0  0  0  0  0  0  0  0
   -2.5240   -3.8680   -4.8070 S   0  0  0  0  0  0  0  0  0  0  0  0
   -1.5100   -2.4310   -4.2870 C   0  0  0  0  0  0  0  0  0  0  0  0
   -0.1470   -2.9540   -3.9080 C   0  0  0  0  0  0  0  0  0  0  0  0
    0.7940   -1.8600   -3.4560 C   0  0  2  0  0  0  0  0  0  0  0  0
    0.1850   -1.2320   -2.2990 N   0  0  0  0  0  0  0  0  0  0  0  0
    0.9840   -0.9130   -4.5660 C   0  0  0  0  0  0  0  0  0  0  0  0
    1.5000   -1.2770   -5.6530 O   0  0  0  0  0  0  0  0  0  0  0  0
    0.6120    0.4350   -4.4930 O   0  0  0  0  0  0  0  0  0  0  0  0
   -3.5110   -5.7110   -3.5330 H   0  0  0  0  0  0  0  0  0  0  0  0
   -1.7840   -5.3990   -3.1070 H   0  0  0  0  0  0  0  0  0  0  0  0
   -3.0750   -4.3280   -2.4630 H   0  0  0  0  0  0  0  0  0  0  0  0
   -1.4410   -1.7730   -5.1780 H   0  0  0  0  0  0  0  0  0  0  0  0
   -2.0110   -1.8670   -3.4980 H   0  0  0  0  0  0  0  0  0  0  0  0
   -0.2230   -3.7240   -3.1280 H   0  0  0  0  0  0  0  0  0  0  0  0
    0.2880   -3.4120   -4.8180 H   0  0  0  0  0  0  0  0  0  0  0  0
    1.7520   -2.3630   -3.1870 H   0  0  0  0  0  0  0  0  0  0  0  0
   -0.7070   -0.7160   -2.4160 H   0  0  0  0  0  0  0  0  0  0  0  0
  1 10  1  0  0  0  0
  2  1  1  0  0  0  0
  2 12  1  1  0  0  0
  3  2  1  0  0  0  0
  3  4  1  0  0  0  0
  4 15  1  0  0  0  0
  4  5  1  0  0  0  0
  5  9  1  0  0  0  0
  6  5  2  0  0  0  0
  7  2  1  0  0  0  0
  8  7  2  0  0  0  0
  9 17  1  0  0  0  0
 11  1  1  0  0  0  0
 13  3  1  0  0  0  0
 14  3  1  0  0  0  0
 16  4  1  0  0  0  0
 18 32  1  0  0  0  0
 18  7  1  0  0  0  0
 19 33  1  1  0  0  0
 19 18  1  0  0  0  0
 20 19  1  0  0  0  0
 20 21  1  0  0  0  0
 21 29  1  0  0  0  0
 21 22  2  0  0  0  0
 22 36  1  0  0  0  0
 22 23  1  0  0  0  0
 23 37  1  0  0  0  0
 24 25  1  0  0  0  0
 24 23  1  0  0  0  0
 25 38  1  0  0  0  0
 26 39  1  0  0  0  0
 26 25  2  0  0  0  0
 27 26  1  0  0  0  0
 28 27  2  0  0  0  0
 28 29  1  0  0  0  0
 29 24  2  0  0  0  0
 30 31  2  0  0  0  0
 30 19  1  0  0  0  0
 34 20  1  0  0  0  0
 35 20  1  0  0  0  0
 40 27  1  0  0  0  0
 41 28  1  0  0  0  0
 42 52  1  0  0  0  0
 42 53  1  0  0  0  0
 43 44  1  0  0  0  0
 43 42  1  0  0  0  0
 44 45  1  0  0  0  0
 44 55  1  0  0  0  0
 45 46  1  0  0  0  0
 45 56  1  0  0  0  0
 46 58  1  1  0  0  0
 46 47  1  0  0  0  0
 47 30  1  0  0  0  0
 48 50  1  0  0  0  0
 48 46  1  0  0  0  0
 49 48  2  0  0  0  0
 51 42  1  0  0  0  0
 54 44  1  0  0  0  0
 57 45  1  0  0  0  0
 59 47  1  0  0  0  0
M  END
$$$$
