EWN.pdb
 OpenBabel07022418203D

 56 57  0  0  1  0  0  0  0  0999 V2000
    3.1690    1.9400    1.6300 N   0  0  0  0  0  0  0  0  0  0  0  0
    3.8220    0.8170    1.1030 C   0  0  1  0  0  0  0  0  0  0  0  0
    4.8530    0.2010    2.0060 C   0  0  0  0  0  0  0  0  0  0  0  0
    4.3970   -0.3050    3.3160 C   0  0  0  0  0  0  0  0  0  0  0  0
    3.8470    0.6420    4.2740 C   0  0  0  0  0  0  0  0  0  0  0  0
    3.8460    1.8650    4.1250 O   0  0  0  0  0  0  0  0  0  0  0  0
    2.9060   -0.2990    0.6600 C   0  0  0  0  0  0  0  0  0  0  0  0
    3.4370   -1.4060    0.3050 O   0  0  0  0  0  0  0  0  0  0  0  0
    3.2820    0.1350    5.4400 O   0  0  0  0  0  0  0  0  0  0  0  0
    2.2210    1.8740    1.9800 H   0  0  0  0  0  0  0  0  0  0  0  0
    3.4380    2.8570    1.2160 H   0  0  0  0  0  0  0  0  0  0  0  0
    4.4000    1.1380    0.1780 H   0  0  0  0  0  0  0  0  0  0  0  0
    5.6930    0.9120    2.1930 H   0  0  0  0  0  0  0  0  0  0  0  0
    5.3620   -0.6730    1.4870 H   0  0  0  0  0  0  0  0  0  0  0  0
    5.3260   -0.7410    3.8200 H   0  0  0  0  0  0  0  0  0  0  0  0
    3.7430   -1.2220    3.2270 H   0  0  0  0  0  0  0  0  0  0  0  0
    3.2250    0.6880    6.2860 H   0  0  0  0  0  0  0  0  0  0  0  0
    1.5110   -0.1730    0.6210 N   0  0  0  0  0  0  0  0  0  0  0  0
    0.6810   -1.2980    0.1850 C   0  0  1  0  0  0  0  0  0  0  0  0
   -0.2680   -1.7280    1.2200 C   0  0  0  0  0  0  0  0  0  0  0  0
   -1.2400   -0.7630    1.7060 C   0  0  0  0  0  0  0  0  0  0  0  0
   -0.9740    0.1710    2.7060 C   0  0  0  0  0  0  0  0  0  0  0  0
   -2.0190    0.9770    2.8970 N   0  0  0  0  0  0  0  0  0  0  0  0
   -2.9910    0.6010    2.0420 C   0  0  0  0  0  0  0  0  0  0  0  0
   -4.2720    1.0640    1.8250 C   0  0  0  0  0  0  0  0  0  0  0  0
   -5.0750    0.4670    0.8890 C   0  0  0  0  0  0  0  0  0  0  0  0
   -4.6290   -0.6030    0.1470 C   0  0  0  0  0  0  0  0  0  0  0  0
   -3.3480   -1.0670    0.3600 C   0  0  0  0  0  0  0  0  0  0  0  0
   -2.5170   -0.4850    1.2930 C   0  0  0  0  0  0  0  0  0  0  0  0
    0.1950   -1.1360   -1.1580 C   0  0  0  0  0  0  0  0  0  0  0  0
    0.5920   -0.1360   -1.8930 O   0  0  0  0  0  0  0  0  0  0  0  0
    1.0490    0.7360    0.8990 H   0  0  0  0  0  0  0  0  0  0  0  0
    1.4510   -2.1740    0.1120 H   0  0  0  0  0  0  0  0  0  0  0  0
   -0.8260   -2.6240    0.7830 H   0  0  0  0  0  0  0  0  0  0  0  0
    0.2800   -2.1960    2.0890 H   0  0  0  0  0  0  0  0  0  0  0  0
   -0.0510    0.2320    3.2520 H   0  0  0  0  0  0  0  0  0  0  0  0
   -2.1190    1.7700    3.5730 H   0  0  0  0  0  0  0  0  0  0  0  0
   -4.6010    1.9160    2.4290 H   0  0  0  0  0  0  0  0  0  0  0  0
   -6.0830    0.8760    0.7590 H   0  0  0  0  0  0  0  0  0  0  0  0
   -5.2860   -1.0560   -0.5900 H   0  0  0  0  0  0  0  0  0  0  0  0
   -2.9650   -1.9040   -0.1960 H   0  0  0  0  0  0  0  0  0  0  0  0
   -2.0820   -4.8350   -2.1440 N   0  0  0  0  0  0  0  0  0  0  0  0
   -2.3700   -3.8660   -3.1440 C   0  0  0  0  0  0  0  0  0  0  0  0
   -3.5620   -3.6250   -3.4510 O   0  0  0  0  0  0  0  0  0  0  0  0
   -1.2940   -3.1040   -3.8590 C   0  0  0  0  0  0  0  0  0  0  0  0
   -1.0920   -1.7540   -3.2130 C   0  0  2  0  0  0  0  0  0  0  0  0
   -0.7080   -1.9770   -1.8300 N   0  0  0  0  0  0  0  0  0  0  0  0
   -2.1960   -0.8320   -3.4430 C   0  0  0  0  0  0  0  0  0  0  0  0
   -2.7390   -0.2010   -2.5330 O   0  0  0  0  0  0  0  0  0  0  0  0
   -2.6580   -0.6520   -4.7370 O   0  0  0  0  0  0  0  0  0  0  0  0
   -2.6460   -4.8600   -1.2720 H   0  0  0  0  0  0  0  0  0  0  0  0
   -1.3220   -5.5360   -2.2370 H   0  0  0  0  0  0  0  0  0  0  0  0
   -1.5010   -3.0130   -4.9450 H   0  0  0  0  0  0  0  0  0  0  0  0
   -0.3480   -3.6690   -3.7510 H   0  0  0  0  0  0  0  0  0  0  0  0
   -0.1400   -1.2850   -3.6590 H   0  0  0  0  0  0  0  0  0  0  0  0
   -1.1110   -2.7930   -1.3260 H   0  0  0  0  0  0  0  0  0  0  0  0
  1 10  1  0  0  0  0
  2 12  1  6  0  0  0
  2  1  1  0  0  0  0
  2  3  1  0  0  0  0
  3 13  1  0  0  0  0
  3  4  1  0  0  0  0
  4 15  1  0  0  0  0
  4  5  1  0  0  0  0
  5  9  1  0  0  0  0
  6  5  2  0  0  0  0
  7  2  1  0  0  0  0
  8  7  2  0  0  0  0
  9 17  1  0  0  0  0
 11  1  1  0  0  0  0
 14  3  1  0  0  0  0
 16  4  1  0  0  0  0
 18  7  1  0  0  0  0
 18 32  1  0  0  0  0
 19 33  1  6  0  0  0
 19 18  1  0  0  0  0
 19 20  1  0  0  0  0
 20 21  1  0  0  0  0
 20 35  1  0  0  0  0
 21 22  2  0  0  0  0
 22 23  1  0  0  0  0
 22 36  1  0  0  0  0
 23 37  1  0  0  0  0
 24 23  1  0  0  0  0
 25 24  1  0  0  0  0
 25 38  1  0  0  0  0
 26 25  2  0  0  0  0
 27 28  2  0  0  0  0
 27 26  1  0  0  0  0
 28 29  1  0  0  0  0
 29 21  1  0  0  0  0
 29 24  2  0  0  0  0
 30 19  1  0  0  0  0
 31 30  2  0  0  0  0
 34 20  1  0  0  0  0
 39 26  1  0  0  0  0
 40 27  1  0  0  0  0
 41 28  1  0  0  0  0
 42 51  1  0  0  0  0
 43 42  1  0  0  0  0
 44 43  2  0  0  0  0
 45 54  1  0  0  0  0
 45 46  1  0  0  0  0
 45 43  1  0  0  0  0
 46 55  1  6  0  0  0
 46 47  1  0  0  0  0
 47 56  1  0  0  0  0
 47 30  1  0  0  0  0
 48 46  1  0  0  0  0
 48 49  1  0  0  0  0
 50 48  2  0  0  0  0
 52 42  1  0  0  0  0
 53 45  1  0  0  0  0
M  END
$$$$
