EWQ.pdb
 OpenBabel07022418203D

 59 60  0  0  1  0  0  0  0  0999 V2000
    3.1810    1.2210    2.2000 N   0  0  0  0  0  0  0  0  0  0  0  0
    2.5950    0.0710    2.9000 C   0  0  1  0  0  0  0  0  0  0  0  0
    2.0320    0.4730    4.2240 C   0  0  0  0  0  0  0  0  0  0  0  0
    3.0050    1.0630    5.1870 C   0  0  0  0  0  0  0  0  0  0  0  0
    4.1240    0.1800    5.5640 C   0  0  0  0  0  0  0  0  0  0  0  0
    5.0160    0.5690    6.3500 O   0  0  0  0  0  0  0  0  0  0  0  0
    1.4520   -0.4490    2.0810 C   0  0  0  0  0  0  0  0  0  0  0  0
    0.8270   -1.4310    2.5420 O   0  0  0  0  0  0  0  0  0  0  0  0
    4.2060   -1.1000    5.0530 O   0  0  0  0  0  0  0  0  0  0  0  0
    3.4930    0.8910    1.2550 H   0  0  0  0  0  0  0  0  0  0  0  0
    2.5120    1.9950    2.0850 H   0  0  0  0  0  0  0  0  0  0  0  0
    3.3900   -0.6850    2.9320 H   0  0  0  0  0  0  0  0  0  0  0  0
    1.4640   -0.3810    4.6520 H   0  0  0  0  0  0  0  0  0  0  0  0
    1.2600    1.2580    4.0290 H   0  0  0  0  0  0  0  0  0  0  0  0
    2.4330    1.2500    6.1450 H   0  0  0  0  0  0  0  0  0  0  0  0
    3.3500    2.0780    4.8800 H   0  0  0  0  0  0  0  0  0  0  0  0
    5.1400   -1.5370    5.0510 H   0  0  0  0  0  0  0  0  0  0  0  0
    1.0500    0.0940    0.8470 N   0  0  0  0  0  0  0  0  0  0  0  0
   -0.0730   -0.4580    0.0890 C   0  0  1  0  0  0  0  0  0  0  0  0
   -1.1410    0.5850   -0.0860 C   0  0  0  0  0  0  0  0  0  0  0  0
   -1.6620    1.0670    1.2190 C   0  0  0  0  0  0  0  0  0  0  0  0
   -1.3670    2.2690    1.8290 C   0  0  0  0  0  0  0  0  0  0  0  0
   -2.0330    2.3450    3.0040 N   0  0  0  0  0  0  0  0  0  0  0  0
   -2.7680    1.2260    3.1990 C   0  0  0  0  0  0  0  0  0  0  0  0
   -3.5960    0.8510    4.2310 C   0  0  0  0  0  0  0  0  0  0  0  0
   -4.2240   -0.3710    4.1540 C   0  0  0  0  0  0  0  0  0  0  0  0
   -4.0040   -1.1800    3.0480 C   0  0  0  0  0  0  0  0  0  0  0  0
   -3.1680   -0.7790    2.0280 C   0  0  0  0  0  0  0  0  0  0  0  0
   -2.5400    0.4310    2.0930 C   0  0  0  0  0  0  0  0  0  0  0  0
    0.3990   -0.9960   -1.2150 C   0  0  0  0  0  0  0  0  0  0  0  0
    1.6200   -0.9270   -1.5500 O   0  0  0  0  0  0  0  0  0  0  0  0
    1.5890    0.9150    0.4860 H   0  0  0  0  0  0  0  0  0  0  0  0
   -0.5100   -1.3000    0.6620 H   0  0  0  0  0  0  0  0  0  0  0  0
   -0.7890    1.4690   -0.6520 H   0  0  0  0  0  0  0  0  0  0  0  0
   -1.9920    0.1630   -0.6500 H   0  0  0  0  0  0  0  0  0  0  0  0
   -0.7080    3.0360    1.4380 H   0  0  0  0  0  0  0  0  0  0  0  0
   -2.0150    3.1400    3.7040 H   0  0  0  0  0  0  0  0  0  0  0  0
   -3.7850    1.4580    5.1020 H   0  0  0  0  0  0  0  0  0  0  0  0
   -4.8970   -0.7300    4.9460 H   0  0  0  0  0  0  0  0  0  0  0  0
   -4.4920   -2.1470    2.9730 H   0  0  0  0  0  0  0  0  0  0  0  0
   -2.9760   -1.3940    1.1460 H   0  0  0  0  0  0  0  0  0  0  0  0
   -0.3440   -4.5460   -6.9970 N   0  0  0  0  0  0  0  0  0  0  0  0
   -0.7250   -4.3650   -5.6480 C   0  0  0  0  0  0  0  0  0  0  0  0
   -1.9590   -4.0960   -5.4310 O   0  0  0  0  0  0  0  0  0  0  0  0
    0.1740   -4.4660   -4.4840 C   0  0  0  0  0  0  0  0  0  0  0  0
   -0.1630   -3.6280   -3.3170 C   0  0  0  0  0  0  0  0  0  0  0  0
   -0.0490   -2.1470   -3.4320 C   0  0  2  0  0  0  0  0  0  0  0  0
   -0.4960   -1.6050   -2.1310 N   0  0  0  0  0  0  0  0  0  0  0  0
   -0.7520   -1.5240   -4.5320 C   0  0  0  0  0  0  0  0  0  0  0  0
   -0.3980   -1.6580   -5.7530 O   0  0  0  0  0  0  0  0  0  0  0  0
   -1.8700   -0.7370   -4.2590 O   0  0  0  0  0  0  0  0  0  0  0  0
    0.6140   -4.3210   -7.3650 H   0  0  0  0  0  0  0  0  0  0  0  0
   -1.0140   -4.9230   -7.7090 H   0  0  0  0  0  0  0  0  0  0  0  0
    0.0900   -5.5430   -4.1410 H   0  0  0  0  0  0  0  0  0  0  0  0
    1.2130   -4.2790   -4.8510 H   0  0  0  0  0  0  0  0  0  0  0  0
   -1.2660   -3.8240   -3.0970 H   0  0  0  0  0  0  0  0  0  0  0  0
    0.3590   -3.9580   -2.3780 H   0  0  0  0  0  0  0  0  0  0  0  0
    1.0740   -1.9410   -3.5130 H   0  0  0  0  0  0  0  0  0  0  0  0
   -1.4990   -1.6660   -1.8640 H   0  0  0  0  0  0  0  0  0  0  0  0
  1  2  1  0  0  0  0
  2 12  1  1  0  0  0
  2  3  1  0  0  0  0
  3 13  1  0  0  0  0
  3  4  1  0  0  0  0
  4  5  1  0  0  0  0
  4 15  1  0  0  0  0
  5  6  2  0  0  0  0
  7  8  2  0  0  0  0
  7  2  1  0  0  0  0
  9  5  1  0  0  0  0
 10  1  1  0  0  0  0
 11  1  1  0  0  0  0
 14  3  1  0  0  0  0
 16  4  1  0  0  0  0
 17  9  1  0  0  0  0
 18  7  1  0  0  0  0
 19 33  1  1  0  0  0
 19 18  1  0  0  0  0
 20 19  1  0  0  0  0
 20 21  1  0  0  0  0
 21 22  2  0  0  0  0
 21 29  1  0  0  0  0
 22 23  1  0  0  0  0
 23 24  1  0  0  0  0
 23 37  1  0  0  0  0
 24 25  1  0  0  0  0
 25 38  1  0  0  0  0
 26 25  2  0  0  0  0
 26 39  1  0  0  0  0
 27 26  1  0  0  0  0
 28 29  1  0  0  0  0
 28 27  2  0  0  0  0
 29 24  2  0  0  0  0
 30 19  1  0  0  0  0
 31 30  2  0  0  0  0
 32 18  1  0  0  0  0
 34 20  1  0  0  0  0
 35 20  1  0  0  0  0
 36 22  1  0  0  0  0
 40 27  1  0  0  0  0
 41 28  1  0  0  0  0
 42 43  1  0  0  0  0
 43 44  2  0  0  0  0
 43 45  1  0  0  0  0
 45 54  1  0  0  0  0
 45 46  1  0  0  0  0
 46 56  1  0  0  0  0
 46 57  1  0  0  0  0
 47 58  1  6  0  0  0
 47 46  1  0  0  0  0
 47 48  1  0  0  0  0
 48 59  1  0  0  0  0
 48 30  1  0  0  0  0
 49 51  1  0  0  0  0
 49 47  1  0  0  0  0
 50 49  2  0  0  0  0
 52 42  1  0  0  0  0
 53 42  1  0  0  0  0
 55 45  1  0  0  0  0
M  END
$$$$
