EWR.pdb
 OpenBabel07022418203D

 65 66  0  0  1  0  0  0  0  0999 V2000
    2.5840    0.3380    4.2710 N   0  0  0  0  0  0  0  0  0  0  0  0
    1.4780    1.3280    4.4310 C   0  0  1  0  0  0  0  0  0  0  0  0
    2.1370    2.6380    4.1560 C   0  0  0  0  0  0  0  0  0  0  0  0
    1.2910    3.8550    4.2400 C   0  0  0  0  0  0  0  0  0  0  0  0
    0.6700    4.0880    5.5530 C   0  0  0  0  0  0  0  0  0  0  0  0
    0.8550    3.2780    6.4990 O   0  0  0  0  0  0  0  0  0  0  0  0
    0.3990    0.9430    3.5030 C   0  0  0  0  0  0  0  0  0  0  0  0
   -0.8430    1.0480    3.8230 O   0  0  0  0  0  0  0  0  0  0  0  0
   -0.1360    5.1980    5.8110 O   0  0  0  0  0  0  0  0  0  0  0  0
    3.0390    0.5500    3.3500 H   0  0  0  0  0  0  0  0  0  0  0  0
    3.2740    0.4990    5.0300 H   0  0  0  0  0  0  0  0  0  0  0  0
    1.1710    1.2120    5.4960 H   0  0  0  0  0  0  0  0  0  0  0  0
    2.9370    2.7400    4.9580 H   0  0  0  0  0  0  0  0  0  0  0  0
    2.7300    2.5660    3.2130 H   0  0  0  0  0  0  0  0  0  0  0  0
    1.9620    4.7500    4.0680 H   0  0  0  0  0  0  0  0  0  0  0  0
    0.5160    3.8860    3.4350 H   0  0  0  0  0  0  0  0  0  0  0  0
   -0.3540    5.4770    6.7530 H   0  0  0  0  0  0  0  0  0  0  0  0
    0.6670    0.4330    2.1990 N   0  0  0  0  0  0  0  0  0  0  0  0
   -0.4430    0.0180    1.3520 C   0  0  1  0  0  0  0  0  0  0  0  0
   -0.8830    1.1110    0.4470 C   0  0  0  0  0  0  0  0  0  0  0  0
   -2.0180    0.6870   -0.3940 C   0  0  0  0  0  0  0  0  0  0  0  0
   -1.9830    0.4130   -1.7670 C   0  0  0  0  0  0  0  0  0  0  0  0
   -3.2030    0.1010   -2.2080 N   0  0  0  0  0  0  0  0  0  0  0  0
   -4.0900    0.1500   -1.1890 C   0  0  0  0  0  0  0  0  0  0  0  0
   -5.4490   -0.0640   -1.0460 C   0  0  0  0  0  0  0  0  0  0  0  0
   -6.1130    0.0540    0.1450 C   0  0  0  0  0  0  0  0  0  0  0  0
   -5.3700    0.4160    1.2630 C   0  0  0  0  0  0  0  0  0  0  0  0
   -4.0220    0.6370    1.1470 C   0  0  0  0  0  0  0  0  0  0  0  0
   -3.3630    0.5100   -0.0600 C   0  0  0  0  0  0  0  0  0  0  0  0
   -0.1470   -1.2750    0.6410 C   0  0  0  0  0  0  0  0  0  0  0  0
   -1.1250   -1.9610    0.2030 O   0  0  0  0  0  0  0  0  0  0  0  0
    1.6740    0.4080    1.9290 H   0  0  0  0  0  0  0  0  0  0  0  0
   -1.2800   -0.1900    2.0160 H   0  0  0  0  0  0  0  0  0  0  0  0
   -1.2230    1.9580    1.0640 H   0  0  0  0  0  0  0  0  0  0  0  0
   -0.0910    1.4710   -0.2430 H   0  0  0  0  0  0  0  0  0  0  0  0
   -1.0960    0.4590   -2.4010 H   0  0  0  0  0  0  0  0  0  0  0  0
   -3.4400   -0.1430   -3.1890 H   0  0  0  0  0  0  0  0  0  0  0  0
   -6.0430   -0.3440   -1.9250 H   0  0  0  0  0  0  0  0  0  0  0  0
   -7.1830   -0.1150    0.2460 H   0  0  0  0  0  0  0  0  0  0  0  0
   -5.8490    0.5270    2.2230 H   0  0  0  0  0  0  0  0  0  0  0  0
   -3.4050    0.9170    1.9980 H   0  0  0  0  0  0  0  0  0  0  0  0
    1.9160   -5.3380   -4.9430 N   0  0  0  0  0  0  0  0  0  0  0  0
    0.6970   -4.9630   -4.3110 C   0  0  0  0  0  0  0  0  0  0  0  0
   -0.3060   -4.6540   -5.0830 N   0  0  0  0  0  0  0  0  0  0  0  0
    0.5150   -4.9120   -2.9090 N   0  0  0  0  0  0  0  0  0  0  0  0
   -0.2220   -3.8010   -2.3330 C   0  0  0  0  0  0  0  0  0  0  0  0
    0.6200   -2.5310   -2.4310 C   0  0  0  0  0  0  0  0  0  0  0  0
    1.8810   -2.7320   -1.6560 C   0  0  0  0  0  0  0  0  0  0  0  0
    1.6920   -2.9010   -0.1580 C   0  0  2  0  0  0  0  0  0  0  0  0
    1.1630   -1.7230    0.4510 N   0  0  0  0  0  0  0  0  0  0  0  0
    2.9380   -3.2390    0.4890 C   0  0  0  0  0  0  0  0  0  0  0  0
    3.4080   -2.4730    1.4250 O   0  0  0  0  0  0  0  0  0  0  0  0
    3.7250   -4.3720    0.1890 O   0  0  0  0  0  0  0  0  0  0  0  0
    2.0790   -6.3020   -5.3380 H   0  0  0  0  0  0  0  0  0  0  0  0
    2.7190   -4.6750   -5.0420 H   0  0  0  0  0  0  0  0  0  0  0  0
   -0.2100   -4.6820   -6.1290 H   0  0  0  0  0  0  0  0  0  0  0  0
    0.9140   -5.6600   -2.3190 H   0  0  0  0  0  0  0  0  0  0  0  0
   -0.5350   -4.0100   -1.3110 H   0  0  0  0  0  0  0  0  0  0  0  0
   -1.1590   -3.7000   -2.9560 H   0  0  0  0  0  0  0  0  0  0  0  0
    0.8470   -2.4550   -3.5580 H   0  0  0  0  0  0  0  0  0  0  0  0
    0.0720   -1.6150   -2.2050 H   0  0  0  0  0  0  0  0  0  0  0  0
    2.5600   -1.8560   -1.8610 H   0  0  0  0  0  0  0  0  0  0  0  0
    2.4510   -3.6230   -2.0050 H   0  0  0  0  0  0  0  0  0  0  0  0
    0.8970   -3.6930   -0.0600 H   0  0  0  0  0  0  0  0  0  0  0  0
    1.9330   -1.0550    0.8030 H   0  0  0  0  0  0  0  0  0  0  0  0
  1  2  1  0  0  0  0
  1 11  1  0  0  0  0
  2 12  1  1  0  0  0
  3  4  1  0  0  0  0
  3  2  1  0  0  0  0
  3 13  1  0  0  0  0
  4  5  1  0  0  0  0
  5  9  1  0  0  0  0
  5  6  2  0  0  0  0
  7  8  2  0  0  0  0
  7  2  1  0  0  0  0
  9 17  1  0  0  0  0
 10  1  1  0  0  0  0
 14  3  1  0  0  0  0
 15  4  1  0  0  0  0
 16  4  1  0  0  0  0
 18  7  1  0  0  0  0
 19 33  1  1  0  0  0
 19 18  1  0  0  0  0
 20 34  1  0  0  0  0
 20 19  1  0  0  0  0
 21 29  1  0  0  0  0
 21 20  1  0  0  0  0
 22 21  2  0  0  0  0
 23 22  1  0  0  0  0
 23 24  1  0  0  0  0
 24 25  2  0  0  0  0
 24 29  1  0  0  0  0
 25 26  1  0  0  0  0
 26 39  1  0  0  0  0
 26 27  2  0  0  0  0
 27 40  1  0  0  0  0
 28 27  1  0  0  0  0
 28 41  1  0  0  0  0
 29 28  2  0  0  0  0
 30 19  1  0  0  0  0
 31 30  2  0  0  0  0
 32 18  1  0  0  0  0
 35 20  1  0  0  0  0
 36 22  1  0  0  0  0
 37 23  1  0  0  0  0
 38 25  1  0  0  0  0
 42 43  1  0  0  0  0
 43 45  1  0  0  0  0
 44 43  2  0  0  0  0
 45 46  1  0  0  0  0
 45 57  1  0  0  0  0
 46 58  1  0  0  0  0
 47 46  1  0  0  0  0
 47 61  1  0  0  0  0
 47 48  1  0  0  0  0
 48 49  1  0  0  0  0
 49 64  1  1  0  0  0
 49 50  1  0  0  0  0
 49 51  1  0  0  0  0
 50 30  1  0  0  0  0
 50 65  1  0  0  0  0
 51 52  1  0  0  0  0
 53 51  2  0  0  0  0
 54 42  1  0  0  0  0
 55 42  1  0  0  0  0
 56 44  1  0  0  0  0
 59 46  1  0  0  0  0
 60 47  1  0  0  0  0
 62 48  1  0  0  0  0
 63 48  1  0  0  0  0
M  END
$$$$
