EWS.pdb
 OpenBabel07022418213D

 53 54  0  0  1  0  0  0  0  0999 V2000
    2.7360   -2.1840    1.3830 N   0  0  0  0  0  0  0  0  0  0  0  0
    1.6470   -1.9630    2.3230 C   0  0  1  0  0  0  0  0  0  0  0  0
    2.0520   -1.1830    3.5070 C   0  0  0  0  0  0  0  0  0  0  0  0
    2.6320    0.1610    3.3150 C   0  0  0  0  0  0  0  0  0  0  0  0
    1.8060    1.1870    2.6670 C   0  0  0  0  0  0  0  0  0  0  0  0
    0.6360    1.0710    2.2910 O   0  0  0  0  0  0  0  0  0  0  0  0
    0.3740   -1.6230    1.7090 C   0  0  0  0  0  0  0  0  0  0  0  0
   -0.6620   -1.5650    2.4380 O   0  0  0  0  0  0  0  0  0  0  0  0
    2.3620    2.4780    2.4190 O   0  0  0  0  0  0  0  0  0  0  0  0
    2.5360   -3.0560    0.8080 H   0  0  0  0  0  0  0  0  0  0  0  0
    2.8810   -1.3700    0.7520 H   0  0  0  0  0  0  0  0  0  0  0  0
    1.4460   -3.0340    2.7530 H   0  0  0  0  0  0  0  0  0  0  0  0
    2.7170   -1.8330    4.1480 H   0  0  0  0  0  0  0  0  0  0  0  0
    1.1280   -1.0430    4.1510 H   0  0  0  0  0  0  0  0  0  0  0  0
    3.6110    0.0970    2.7650 H   0  0  0  0  0  0  0  0  0  0  0  0
    2.9140    0.6020    4.3250 H   0  0  0  0  0  0  0  0  0  0  0  0
    1.7250    3.2820    2.4440 H   0  0  0  0  0  0  0  0  0  0  0  0
    0.2020   -1.3500    0.3280 N   0  0  0  0  0  0  0  0  0  0  0  0
   -1.0130   -1.0240   -0.3290 C   0  0  1  0  0  0  0  0  0  0  0  0
   -0.9510    0.1160   -1.3020 C   0  0  0  0  0  0  0  0  0  0  0  0
   -0.5490    1.4110   -0.7140 C   0  0  0  0  0  0  0  0  0  0  0  0
    0.6660    2.0630   -0.7910 C   0  0  0  0  0  0  0  0  0  0  0  0
    0.5980    3.2220   -0.1180 N   0  0  0  0  0  0  0  0  0  0  0  0
   -0.6320    3.3920    0.4240 C   0  0  0  0  0  0  0  0  0  0  0  0
   -1.2020    4.3900    1.1890 C   0  0  0  0  0  0  0  0  0  0  0  0
   -2.5080    4.3010    1.6140 C   0  0  0  0  0  0  0  0  0  0  0  0
   -3.2340    3.1850    1.2540 C   0  0  0  0  0  0  0  0  0  0  0  0
   -2.6520    2.1910    0.4860 C   0  0  0  0  0  0  0  0  0  0  0  0
   -1.3470    2.2650    0.0530 C   0  0  0  0  0  0  0  0  0  0  0  0
   -1.5390   -2.2640   -1.0140 C   0  0  0  0  0  0  0  0  0  0  0  0
   -2.5960   -2.2620   -1.6710 O   0  0  0  0  0  0  0  0  0  0  0  0
    1.0680   -1.3980   -0.2550 H   0  0  0  0  0  0  0  0  0  0  0  0
   -1.8250   -0.8000    0.4270 H   0  0  0  0  0  0  0  0  0  0  0  0
   -0.1930   -0.1240   -2.1020 H   0  0  0  0  0  0  0  0  0  0  0  0
   -1.9090    0.2150   -1.8620 H   0  0  0  0  0  0  0  0  0  0  0  0
    1.5310    1.6580   -1.3310 H   0  0  0  0  0  0  0  0  0  0  0  0
    1.3640    3.9150   -0.0090 H   0  0  0  0  0  0  0  0  0  0  0  0
   -0.6360    5.2620    1.4720 H   0  0  0  0  0  0  0  0  0  0  0  0
   -2.9820    5.0800    2.2220 H   0  0  0  0  0  0  0  0  0  0  0  0
   -4.2590    3.1180    1.5890 H   0  0  0  0  0  0  0  0  0  0  0  0
   -3.2130    1.2990    0.1910 H   0  0  0  0  0  0  0  0  0  0  0  0
   -0.0690   -4.2340   -3.5400 O   0  0  0  0  0  0  0  0  0  0  0  0
   -0.1620   -5.1690   -2.5330 C   0  0  0  0  0  0  0  0  0  0  0  0
   -1.1730   -4.7150   -1.4950 C   0  0  2  0  0  0  0  0  0  0  0  0
   -0.8000   -3.4440   -0.8960 N   0  0  0  0  0  0  0  0  0  0  0  0
   -1.3040   -5.7150   -0.4330 C   0  0  0  0  0  0  0  0  0  0  0  0
   -1.6220   -6.8910   -0.7380 O   0  0  0  0  0  0  0  0  0  0  0  0
   -1.0940   -5.4270    0.9050 O   0  0  0  0  0  0  0  0  0  0  0  0
    0.7710   -4.4050   -4.0310 H   0  0  0  0  0  0  0  0  0  0  0  0
    0.8290   -5.3740   -2.0740 H   0  0  0  0  0  0  0  0  0  0  0  0
   -0.5500   -6.1130   -2.9550 H   0  0  0  0  0  0  0  0  0  0  0  0
   -2.1390   -4.5630   -2.0600 H   0  0  0  0  0  0  0  0  0  0  0  0
    0.0960   -3.4560   -0.3420 H   0  0  0  0  0  0  0  0  0  0  0  0
  1  2  1  0  0  0  0
  2 12  1  1  0  0  0
  2  3  1  0  0  0  0
  3 13  1  0  0  0  0
  3 14  1  0  0  0  0
  4  3  1  0  0  0  0
  4 16  1  0  0  0  0
  5  4  1  0  0  0  0
  6  5  2  0  0  0  0
  7  2  1  0  0  0  0
  7  8  2  0  0  0  0
  9 17  1  0  0  0  0
  9  5  1  0  0  0  0
 10  1  1  0  0  0  0
 11  1  1  0  0  0  0
 15  4  1  0  0  0  0
 18  7  1  0  0  0  0
 19 18  1  0  0  0  0
 19 33  1  1  0  0  0
 20 21  1  0  0  0  0
 20 19  1  0  0  0  0
 21 29  1  0  0  0  0
 22 21  2  0  0  0  0
 22 23  1  0  0  0  0
 23 37  1  0  0  0  0
 23 24  1  0  0  0  0
 24 25  1  0  0  0  0
 25 38  1  0  0  0  0
 25 26  2  0  0  0  0
 26 39  1  0  0  0  0
 27 40  1  0  0  0  0
 27 26  1  0  0  0  0
 28 27  2  0  0  0  0
 29 24  2  0  0  0  0
 29 28  1  0  0  0  0
 30 45  1  0  0  0  0
 30 19  1  0  0  0  0
 31 30  2  0  0  0  0
 32 18  1  0  0  0  0
 34 20  1  0  0  0  0
 35 20  1  0  0  0  0
 36 22  1  0  0  0  0
 41 28  1  0  0  0  0
 42 43  1  0  0  0  0
 43 50  1  0  0  0  0
 43 44  1  0  0  0  0
 44 52  1  6  0  0  0
 44 45  1  0  0  0  0
 44 46  1  0  0  0  0
 45 53  1  0  0  0  0
 46 48  1  0  0  0  0
 47 46  2  0  0  0  0
 49 42  1  0  0  0  0
 51 43  1  0  0  0  0
M  END
$$$$
