EWT.pdb
 OpenBabel07022418213D

 56 57  0  0  1  0  0  0  0  0999 V2000
    0.5380   -1.0100    4.0430 N   0  0  0  0  0  0  0  0  0  0  0  0
    0.9820   -0.7510    2.6790 C   0  0  1  0  0  0  0  0  0  0  0  0
    2.0560   -1.7670    2.3520 C   0  0  0  0  0  0  0  0  0  0  0  0
    3.1540   -1.5200    3.3950 C   0  0  0  0  0  0  0  0  0  0  0  0
    3.6670   -0.1330    3.2570 C   0  0  0  0  0  0  0  0  0  0  0  0
    4.1170    0.2840    2.1320 O   0  0  0  0  0  0  0  0  0  0  0  0
   -0.2100   -0.8550    1.8040 C   0  0  0  0  0  0  0  0  0  0  0  0
   -1.3270   -1.1440    2.2890 O   0  0  0  0  0  0  0  0  0  0  0  0
    3.6890    0.7800    4.3210 O   0  0  0  0  0  0  0  0  0  0  0  0
    0.5400   -2.0470    4.1440 H   0  0  0  0  0  0  0  0  0  0  0  0
   -0.4530   -0.6980    4.1140 H   0  0  0  0  0  0  0  0  0  0  0  0
    1.4660    0.2490    2.6100 H   0  0  0  0  0  0  0  0  0  0  0  0
    1.7320   -2.8050    2.3820 H   0  0  0  0  0  0  0  0  0  0  0  0
    2.5420   -1.4990    1.3830 H   0  0  0  0  0  0  0  0  0  0  0  0
    3.9880   -2.2260    3.2200 H   0  0  0  0  0  0  0  0  0  0  0  0
    2.7710   -1.6690    4.4200 H   0  0  0  0  0  0  0  0  0  0  0  0
    3.8530    1.7810    4.0950 H   0  0  0  0  0  0  0  0  0  0  0  0
   -0.1540   -0.6390    0.3990 N   0  0  0  0  0  0  0  0  0  0  0  0
   -1.2930   -0.7310   -0.4730 C   0  0  1  0  0  0  0  0  0  0  0  0
   -1.5500    0.6460   -1.0870 C   0  0  0  0  0  0  0  0  0  0  0  0
   -1.8240    1.6480   -0.0180 C   0  0  0  0  0  0  0  0  0  0  0  0
   -1.0050    2.6300    0.5000 C   0  0  0  0  0  0  0  0  0  0  0  0
   -1.6670    3.3030    1.4560 N   0  0  0  0  0  0  0  0  0  0  0  0
   -2.9150    2.8020    1.6000 C   0  0  0  0  0  0  0  0  0  0  0  0
   -3.9740    3.1220    2.4250 C   0  0  0  0  0  0  0  0  0  0  0  0
   -5.1630    2.4290    2.3650 C   0  0  0  0  0  0  0  0  0  0  0  0
   -5.2710    1.4000    1.4540 C   0  0  0  0  0  0  0  0  0  0  0  0
   -4.2120    1.0780    0.6270 C   0  0  0  0  0  0  0  0  0  0  0  0
   -3.0160    1.7660    0.6790 C   0  0  0  0  0  0  0  0  0  0  0  0
   -1.0810   -1.6910   -1.5800 C   0  0  0  0  0  0  0  0  0  0  0  0
   -1.9540   -1.9290   -2.4500 O   0  0  0  0  0  0  0  0  0  0  0  0
    0.7800   -0.4020   -0.0030 H   0  0  0  0  0  0  0  0  0  0  0  0
   -2.2320   -0.9790    0.0920 H   0  0  0  0  0  0  0  0  0  0  0  0
   -0.6450    0.9910   -1.6210 H   0  0  0  0  0  0  0  0  0  0  0  0
   -2.3720    0.6130   -1.8380 H   0  0  0  0  0  0  0  0  0  0  0  0
    0.0050    2.8330    0.1960 H   0  0  0  0  0  0  0  0  0  0  0  0
   -1.3180    4.1030    2.0340 H   0  0  0  0  0  0  0  0  0  0  0  0
   -3.9020    3.9270    3.1420 H   0  0  0  0  0  0  0  0  0  0  0  0
   -6.0130    2.6540    2.9970 H   0  0  0  0  0  0  0  0  0  0  0  0
   -6.1830    0.8350    1.3790 H   0  0  0  0  0  0  0  0  0  0  0  0
   -4.2700    0.2690   -0.0980 H   0  0  0  0  0  0  0  0  0  0  0  0
    2.8880   -2.8910   -2.8660 C   0  0  0  0  0  0  0  0  0  0  0  0
    1.6000   -2.9680   -3.6370 C   0  0  1  0  0  0  0  0  0  0  0  0
    1.6900   -3.9970   -4.6080 O   0  0  0  0  0  0  0  0  0  0  0  0
    0.4200   -3.3550   -2.7700 C   0  0  2  0  0  0  0  0  0  0  0  0
    0.1630   -2.4150   -1.7170 N   0  0  0  0  0  0  0  0  0  0  0  0
    0.7000   -4.6850   -2.2060 C   0  0  0  0  0  0  0  0  0  0  0  0
    0.6920   -4.8370   -0.9580 O   0  0  0  0  0  0  0  0  0  0  0  0
    0.9730   -5.7820   -3.0220 O   0  0  0  0  0  0  0  0  0  0  0  0
    3.4250   -3.8720   -2.8470 H   0  0  0  0  0  0  0  0  0  0  0  0
    3.5340   -2.1320   -3.3810 H   0  0  0  0  0  0  0  0  0  0  0  0
    2.6850   -2.5870   -1.8320 H   0  0  0  0  0  0  0  0  0  0  0  0
    1.3590   -2.0420   -4.1880 H   0  0  0  0  0  0  0  0  0  0  0  0
    0.7990   -4.2100   -4.9740 H   0  0  0  0  0  0  0  0  0  0  0  0
   -0.4360   -3.4670   -3.4660 H   0  0  0  0  0  0  0  0  0  0  0  0
    0.8740   -2.2080   -0.9860 H   0  0  0  0  0  0  0  0  0  0  0  0
  1 11  1  0  0  0  0
  1 10  1  0  0  0  0
  2 12  1  6  0  0  0
  2  1  1  0  0  0  0
  3 13  1  0  0  0  0
  3  2  1  0  0  0  0
  3  4  1  0  0  0  0
  4 16  1  0  0  0  0
  5  4  1  0  0  0  0
  5  9  1  0  0  0  0
  6  5  2  0  0  0  0
  7  8  2  0  0  0  0
  7  2  1  0  0  0  0
 14  3  1  0  0  0  0
 15  4  1  0  0  0  0
 17  9  1  0  0  0  0
 18  7  1  0  0  0  0
 19 33  1  1  0  0  0
 19 18  1  0  0  0  0
 20 19  1  0  0  0  0
 20 21  1  0  0  0  0
 21 22  2  0  0  0  0
 21 29  1  0  0  0  0
 22 23  1  0  0  0  0
 23 24  1  0  0  0  0
 23 37  1  0  0  0  0
 24 25  1  0  0  0  0
 25 38  1  0  0  0  0
 26 25  2  0  0  0  0
 26 39  1  0  0  0  0
 27 26  1  0  0  0  0
 28 29  1  0  0  0  0
 28 27  2  0  0  0  0
 29 24  2  0  0  0  0
 30 19  1  0  0  0  0
 31 30  2  0  0  0  0
 32 18  1  0  0  0  0
 34 20  1  0  0  0  0
 35 20  1  0  0  0  0
 36 22  1  0  0  0  0
 40 27  1  0  0  0  0
 41 28  1  0  0  0  0
 42 50  1  0  0  0  0
 42 52  1  0  0  0  0
 43 53  1  6  0  0  0
 43 42  1  0  0  0  0
 43 45  1  0  0  0  0
 44 43  1  0  0  0  0
 45 55  1  6  0  0  0
 45 47  1  0  0  0  0
 45 46  1  0  0  0  0
 46 30  1  0  0  0  0
 46 56  1  0  0  0  0
 47 48  1  0  0  0  0
 49 47  2  0  0  0  0
 51 42  1  0  0  0  0
 54 44  1  0  0  0  0
M  END
$$$$
