EWW.pdb
 OpenBabel07022418213D

 66 69  0  0  1  0  0  0  0  0999 V2000
    4.9670    0.5140    1.2720 N   0  0  0  0  0  0  0  0  0  0  0  0
    4.2440   -0.6140    0.7580 C   0  0  1  0  0  0  0  0  0  0  0  0
    4.1310   -1.7920    1.6480 C   0  0  0  0  0  0  0  0  0  0  0  0
    3.4670   -1.6300    2.9570 C   0  0  0  0  0  0  0  0  0  0  0  0
    4.1080   -0.7220    3.9050 C   0  0  0  0  0  0  0  0  0  0  0  0
    5.2150   -0.2090    3.6880 O   0  0  0  0  0  0  0  0  0  0  0  0
    2.9090   -0.1770    0.1970 C   0  0  0  0  0  0  0  0  0  0  0  0
    2.5660    1.0260    0.2580 O   0  0  0  0  0  0  0  0  0  0  0  0
    3.4560   -0.4200    5.0920 O   0  0  0  0  0  0  0  0  0  0  0  0
    4.7040    1.4140    0.8510 H   0  0  0  0  0  0  0  0  0  0  0  0
    5.9850    0.3660    1.1120 H   0  0  0  0  0  0  0  0  0  0  0  0
    4.8510   -0.9700   -0.1420 H   0  0  0  0  0  0  0  0  0  0  0  0
    5.1950   -2.1240    1.8680 H   0  0  0  0  0  0  0  0  0  0  0  0
    3.6940   -2.6850    1.1260 H   0  0  0  0  0  0  0  0  0  0  0  0
    2.3620   -1.4570    2.8780 H   0  0  0  0  0  0  0  0  0  0  0  0
    3.5050   -2.6570    3.4550 H   0  0  0  0  0  0  0  0  0  0  0  0
    3.7460    0.3540    5.7010 H   0  0  0  0  0  0  0  0  0  0  0  0
    2.0280   -1.0960   -0.4030 N   0  0  0  0  0  0  0  0  0  0  0  0
    0.7520   -0.6150   -0.9330 C   0  0  1  0  0  0  0  0  0  0  0  0
    0.6960   -0.7450   -2.4000 C   0  0  0  0  0  0  0  0  0  0  0  0
   -0.5660   -0.2840   -2.9980 C   0  0  0  0  0  0  0  0  0  0  0  0
   -0.8440    1.0460   -3.3850 C   0  0  0  0  0  0  0  0  0  0  0  0
   -2.0970    1.1210   -3.8430 N   0  0  0  0  0  0  0  0  0  0  0  0
   -2.6940   -0.0730   -3.7950 C   0  0  0  0  0  0  0  0  0  0  0  0
   -3.9650   -0.4950   -4.1760 C   0  0  0  0  0  0  0  0  0  0  0  0
   -4.2680   -1.8220   -4.0220 C   0  0  0  0  0  0  0  0  0  0  0  0
   -3.3410   -2.7020   -3.5080 C   0  0  0  0  0  0  0  0  0  0  0  0
   -2.0990   -2.2700   -3.1380 C   0  0  0  0  0  0  0  0  0  0  0  0
   -1.7440   -0.9500   -3.2700 C   0  0  0  0  0  0  0  0  0  0  0  0
   -0.3400   -1.2000   -0.1660 C   0  0  0  0  0  0  0  0  0  0  0  0
   -1.5340   -0.9520   -0.4000 O   0  0  0  0  0  0  0  0  0  0  0  0
    2.2480   -2.1080   -0.4900 H   0  0  0  0  0  0  0  0  0  0  0  0
    0.6790    0.5090   -0.7260 H   0  0  0  0  0  0  0  0  0  0  0  0
    1.5750   -0.2860   -2.9200 H   0  0  0  0  0  0  0  0  0  0  0  0
    0.7930   -1.8520   -2.6600 H   0  0  0  0  0  0  0  0  0  0  0  0
   -0.0940    1.8210   -3.2890 H   0  0  0  0  0  0  0  0  0  0  0  0
   -2.5430    1.9920   -4.1890 H   0  0  0  0  0  0  0  0  0  0  0  0
   -4.6770    0.2100   -4.5770 H   0  0  0  0  0  0  0  0  0  0  0  0
   -5.2450   -2.2270   -4.2980 H   0  0  0  0  0  0  0  0  0  0  0  0
   -3.5670   -3.7660   -3.3790 H   0  0  0  0  0  0  0  0  0  0  0  0
   -1.3470   -2.9360   -2.7310 H   0  0  0  0  0  0  0  0  0  0  0  0
   -0.0370   -2.0990    0.9100 N   0  0  0  0  0  0  0  0  0  0  0  0
   -0.9270   -2.7750    1.7680 C   0  0  1  0  0  0  0  0  0  0  0  0
   -1.2920   -2.1120    3.0450 C   0  0  0  0  0  0  0  0  0  0  0  0
   -1.9580   -0.8060    2.9330 C   0  0  0  0  0  0  0  0  0  0  0  0
   -3.3250   -0.5980    3.0620 C   0  0  0  0  0  0  0  0  0  0  0  0
   -3.5710    0.7160    2.8900 N   0  0  0  0  0  0  0  0  0  0  0  0
   -2.4290    1.3870    2.6530 C   0  0  0  0  0  0  0  0  0  0  0  0
   -2.1580    2.7210    2.4230 C   0  0  0  0  0  0  0  0  0  0  0  0
   -0.8810    3.1560    2.2120 C   0  0  0  0  0  0  0  0  0  0  0  0
    0.1410    2.2160    2.2360 C   0  0  0  0  0  0  0  0  0  0  0  0
   -0.1410    0.8920    2.4660 C   0  0  0  0  0  0  0  0  0  0  0  0
   -1.4120    0.4230    2.6810 C   0  0  0  0  0  0  0  0  0  0  0  0
   -2.0950   -3.3730    1.0750 C   0  0  0  0  0  0  0  0  0  0  0  0
   -2.1810   -3.3530   -0.1510 O   0  0  0  0  0  0  0  0  0  0  0  0
   -3.1040   -3.9620    1.8210 O   0  0  0  0  0  0  0  0  0  0  0  0
    1.0110   -2.2790    1.0930 H   0  0  0  0  0  0  0  0  0  0  0  0
   -0.3480   -3.7320    2.1000 H   0  0  0  0  0  0  0  0  0  0  0  0
   -1.9030   -2.8350    3.6680 H   0  0  0  0  0  0  0  0  0  0  0  0
   -0.3340   -2.0330    3.6470 H   0  0  0  0  0  0  0  0  0  0  0  0
   -4.0830   -1.3490    3.2670 H   0  0  0  0  0  0  0  0  0  0  0  0
   -4.5110    1.1670    2.9320 H   0  0  0  0  0  0  0  0  0  0  0  0
   -2.9510    3.4730    2.4010 H   0  0  0  0  0  0  0  0  0  0  0  0
   -0.5990    4.1860    2.0260 H   0  0  0  0  0  0  0  0  0  0  0  0
    1.1630    2.5130    2.0770 H   0  0  0  0  0  0  0  0  0  0  0  0
    0.6680    0.1740    2.4790 H   0  0  0  0  0  0  0  0  0  0  0  0
  2 12  1  6  0  0  0
  2  1  1  0  0  0  0
  2  3  1  0  0  0  0
  3 13  1  0  0  0  0
  3  4  1  0  0  0  0
  4 16  1  0  0  0  0
  4  5  1  0  0  0  0
  5  9  1  0  0  0  0
  6  5  2  0  0  0  0
  7  8  2  0  0  0  0
  7  2  1  0  0  0  0
  9 17  1  0  0  0  0
 10  1  1  0  0  0  0
 11  1  1  0  0  0  0
 14  3  1  0  0  0  0
 15  4  1  0  0  0  0
 18  7  1  0  0  0  0
 19 33  1  1  0  0  0
 19 18  1  0  0  0  0
 19 30  1  0  0  0  0
 20 19  1  0  0  0  0
 21 20  1  0  0  0  0
 22 36  1  0  0  0  0
 22 21  2  0  0  0  0
 23 24  1  0  0  0  0
 23 22  1  0  0  0  0
 24 29  1  0  0  0  0
 25 26  1  0  0  0  0
 25 24  2  0  0  0  0
 26 27  2  0  0  0  0
 27 40  1  0  0  0  0
 27 28  1  0  0  0  0
 28 41  1  0  0  0  0
 29 28  2  0  0  0  0
 29 21  1  0  0  0  0
 30 42  1  0  0  0  0
 31 30  2  0  0  0  0
 32 18  1  0  0  0  0
 34 20  1  0  0  0  0
 35 20  1  0  0  0  0
 37 23  1  0  0  0  0
 38 25  1  0  0  0  0
 39 26  1  0  0  0  0
 42 57  1  0  0  0  0
 42 43  1  0  0  0  0
 43 58  1  1  0  0  0
 43 44  1  0  0  0  0
 44 60  1  0  0  0  0
 44 59  1  0  0  0  0
 45 44  1  0  0  0  0
 45 46  2  0  0  0  0
 46 61  1  0  0  0  0
 47 62  1  0  0  0  0
 47 46  1  0  0  0  0
 48 53  1  0  0  0  0
 48 47  1  0  0  0  0
 49 48  2  0  0  0  0
 50 51  2  0  0  0  0
 50 49  1  0  0  0  0
 51 52  1  0  0  0  0
 52 66  1  0  0  0  0
 52 53  2  0  0  0  0
 53 45  1  0  0  0  0
 54 43  1  0  0  0  0
 54 56  1  0  0  0  0
 55 54  2  0  0  0  0
 63 49  1  0  0  0  0
 64 50  1  0  0  0  0
 65 51  1  0  0  0  0
M  END
$$$$
