EYD.pdb
 OpenBabel07022418213D

 52 52  0  0  1  0  0  0  0  0999 V2000
   -1.9230    2.3740    2.3080 N   0  0  0  0  0  0  0  0  0  0  0  0
   -0.8670    1.4070    2.5110 C   0  0  1  0  0  0  0  0  0  0  0  0
   -1.3750    0.4440    3.5910 C   0  0  0  0  0  0  0  0  0  0  0  0
   -1.6680    1.1900    4.8710 C   0  0  0  0  0  0  0  0  0  0  0  0
   -2.1580    0.2570    5.9100 C   0  0  0  0  0  0  0  0  0  0  0  0
   -2.2650   -0.9560    5.6230 O   0  0  0  0  0  0  0  0  0  0  0  0
   -0.6870    0.6260    1.2870 C   0  0  0  0  0  0  0  0  0  0  0  0
   -1.4360    0.8940    0.2880 O   0  0  0  0  0  0  0  0  0  0  0  0
   -2.5010    0.6850    7.1840 O   0  0  0  0  0  0  0  0  0  0  0  0
   -1.6090    3.3450    2.5290 H   0  0  0  0  0  0  0  0  0  0  0  0
   -2.2920    2.3730    1.3400 H   0  0  0  0  0  0  0  0  0  0  0  0
    0.0450    1.9250    2.8500 H   0  0  0  0  0  0  0  0  0  0  0  0
   -2.3290   -0.0160    3.2620 H   0  0  0  0  0  0  0  0  0  0  0  0
   -0.5650   -0.2860    3.7610 H   0  0  0  0  0  0  0  0  0  0  0  0
   -0.7630    1.7540    5.2260 H   0  0  0  0  0  0  0  0  0  0  0  0
   -2.4510    1.9620    4.7310 H   0  0  0  0  0  0  0  0  0  0  0  0
   -2.2440    0.1050    7.9880 H   0  0  0  0  0  0  0  0  0  0  0  0
    1.9160    4.7930   -1.6740 O   0  0  0  0  0  0  0  0  0  0  0  0
    1.8420    3.4120   -1.5000 C   0  0  0  0  0  0  0  0  0  0  0  0
    2.3350    2.8620   -0.3350 C   0  0  0  0  0  0  0  0  0  0  0  0
    2.2820    1.4810   -0.1160 C   0  0  0  0  0  0  0  0  0  0  0  0
    1.7400    0.6310   -1.0520 C   0  0  0  0  0  0  0  0  0  0  0  0
    1.6840   -0.8320   -0.8200 C   0  0  0  0  0  0  0  0  0  0  0  0
    0.3520   -1.1150   -0.1250 C   0  0  2  0  0  0  0  0  0  0  0  0
    0.2620   -0.4100    1.1300 N   0  0  0  0  0  0  0  0  0  0  0  0
    0.1600   -2.5660    0.0790 C   0  0  0  0  0  0  0  0  0  0  0  0
   -0.0460   -3.0000    1.2340 O   0  0  0  0  0  0  0  0  0  0  0  0
    1.2500    1.2060   -2.2170 C   0  0  0  0  0  0  0  0  0  0  0  0
    1.3030    2.5660   -2.4310 C   0  0  0  0  0  0  0  0  0  0  0  0
    1.1420    5.3980   -1.4180 H   0  0  0  0  0  0  0  0  0  0  0  0
    2.7660    3.5000    0.4190 H   0  0  0  0  0  0  0  0  0  0  0  0
    2.6620    1.0330    0.7870 H   0  0  0  0  0  0  0  0  0  0  0  0
    2.5440   -1.1500   -0.2050 H   0  0  0  0  0  0  0  0  0  0  0  0
    1.6370   -1.3590   -1.7900 H   0  0  0  0  0  0  0  0  0  0  0  0
   -0.4040   -0.6880   -0.8150 H   0  0  0  0  0  0  0  0  0  0  0  0
    0.8690   -0.6220    1.9540 H   0  0  0  0  0  0  0  0  0  0  0  0
    0.8220    0.5180   -2.9520 H   0  0  0  0  0  0  0  0  0  0  0  0
    0.9110    2.9640   -3.3480 H   0  0  0  0  0  0  0  0  0  0  0  0
    0.2140   -3.4320   -1.0380 N   0  0  0  0  0  0  0  0  0  0  0  0
    0.0370   -4.8430   -0.9320 C   0  0  1  0  0  0  0  0  0  0  0  0
   -1.0170   -5.3070   -1.8650 C   0  0  0  0  0  0  0  0  0  0  0  0
   -2.2980   -4.6370   -1.5390 C   0  0  0  0  0  0  0  0  0  0  0  0
   -3.3320   -4.8980   -2.2230 O   0  0  0  0  0  0  0  0  0  0  0  0
    1.3320   -5.5530   -1.1250 C   0  0  0  0  0  0  0  0  0  0  0  0
    1.4590   -6.7840   -1.0820 O   0  0  0  0  0  0  0  0  0  0  0  0
   -2.4600   -3.7180   -0.5130 O   0  0  0  0  0  0  0  0  0  0  0  0
    2.4510   -4.7750   -1.3650 O   0  0  0  0  0  0  0  0  0  0  0  0
    0.3930   -3.0210   -1.9870 H   0  0  0  0  0  0  0  0  0  0  0  0
   -0.2800   -5.0720    0.1180 H   0  0  0  0  0  0  0  0  0  0  0  0
   -1.1730   -6.4110   -1.8400 H   0  0  0  0  0  0  0  0  0  0  0  0
   -0.7930   -5.0600   -2.9260 H   0  0  0  0  0  0  0  0  0  0  0  0
   -3.2900   -3.1120   -0.4440 H   0  0  0  0  0  0  0  0  0  0  0  0
  1  2  1  0  0  0  0
  1 10  1  0  0  0  0
  2 12  1  1  0  0  0
  2  3  1  0  0  0  0
  3 14  1  0  0  0  0
  3  4  1  0  0  0  0
  4 15  1  0  0  0  0
  4  5  1  0  0  0  0
  5  9  1  0  0  0  0
  6  5  2  0  0  0  0
  7  2  1  0  0  0  0
  8  7  2  0  0  0  0
  9 17  1  0  0  0  0
 11  1  1  0  0  0  0
 13  3  1  0  0  0  0
 16  4  1  0  0  0  0
 18 19  1  0  0  0  0
 18 30  1  0  0  0  0
 19 20  1  0  0  0  0
 20 21  2  0  0  0  0
 20 31  1  0  0  0  0
 21 32  1  0  0  0  0
 22 23  1  0  0  0  0
 22 21  1  0  0  0  0
 23 33  1  0  0  0  0
 23 24  1  0  0  0  0
 24 35  1  6  0  0  0
 24 26  1  0  0  0  0
 24 25  1  0  0  0  0
 25  7  1  0  0  0  0
 25 36  1  0  0  0  0
 26 27  2  0  0  0  0
 28 22  2  0  0  0  0
 29 28  1  0  0  0  0
 29 19  2  0  0  0  0
 34 23  1  0  0  0  0
 37 28  1  0  0  0  0
 38 29  1  0  0  0  0
 39 40  1  0  0  0  0
 39 26  1  0  0  0  0
 40 49  1  1  0  0  0
 41 50  1  0  0  0  0
 41 42  1  0  0  0  0
 41 40  1  0  0  0  0
 42 46  1  0  0  0  0
 43 42  2  0  0  0  0
 44 45  1  0  0  0  0
 44 40  1  0  0  0  0
 46 52  1  0  0  0  0
 47 44  2  0  0  0  0
 48 39  1  0  0  0  0
 51 41  1  0  0  0  0
M  END
$$$$
