EYF.pdb
 OpenBabel07022418213D

 59 60  0  0  1  0  0  0  0  0999 V2000
    2.1930    0.2870    4.8390 N   0  0  0  0  0  0  0  0  0  0  0  0
    2.2240    0.3020    3.3500 C   0  0  1  0  0  0  0  0  0  0  0  0
    3.1770   -0.8110    2.9810 C   0  0  0  0  0  0  0  0  0  0  0  0
    3.3450   -0.9580    1.5150 C   0  0  0  0  0  0  0  0  0  0  0  0
    3.9090    0.2420    0.8870 C   0  0  0  0  0  0  0  0  0  0  0  0
    4.2510    1.2180    1.5730 O   0  0  0  0  0  0  0  0  0  0  0  0
    0.8570    0.1060    2.8340 C   0  0  0  0  0  0  0  0  0  0  0  0
   -0.0280   -0.3300    3.6470 O   0  0  0  0  0  0  0  0  0  0  0  0
    4.0870    0.3420   -0.4920 O   0  0  0  0  0  0  0  0  0  0  0  0
    1.3640    0.8640    5.1560 H   0  0  0  0  0  0  0  0  0  0  0  0
    3.0720    0.7000    5.2200 H   0  0  0  0  0  0  0  0  0  0  0  0
    2.5660    1.3060    3.0700 H   0  0  0  0  0  0  0  0  0  0  0  0
    4.2030   -0.6010    3.4100 H   0  0  0  0  0  0  0  0  0  0  0  0
    2.8750   -1.7560    3.4890 H   0  0  0  0  0  0  0  0  0  0  0  0
    4.0050   -1.8550    1.3280 H   0  0  0  0  0  0  0  0  0  0  0  0
    2.3860   -1.2150    1.0100 H   0  0  0  0  0  0  0  0  0  0  0  0
    4.9220    0.7640   -0.8900 H   0  0  0  0  0  0  0  0  0  0  0  0
    1.3540    4.0600   -3.2810 O   0  0  0  0  0  0  0  0  0  0  0  0
    0.6220    3.4060   -2.3040 C   0  0  0  0  0  0  0  0  0  0  0  0
    0.9990    3.5630   -0.9980 C   0  0  0  0  0  0  0  0  0  0  0  0
    0.2900    2.9250   -0.0060 C   0  0  0  0  0  0  0  0  0  0  0  0
   -0.7910    2.1350   -0.3250 C   0  0  0  0  0  0  0  0  0  0  0  0
   -1.5230    1.4740    0.7670 C   0  0  0  0  0  0  0  0  0  0  0  0
   -0.9870    0.1150    1.1210 C   0  0  2  0  0  0  0  0  0  0  0  0
    0.4130    0.3550    1.5170 N   0  0  0  0  0  0  0  0  0  0  0  0
   -1.0390   -0.8920    0.0820 C   0  0  0  0  0  0  0  0  0  0  0  0
    0.0290   -1.3810   -0.3790 O   0  0  0  0  0  0  0  0  0  0  0  0
   -1.1540    1.9910   -1.6410 C   0  0  0  0  0  0  0  0  0  0  0  0
   -0.4550    2.6230   -2.6510 C   0  0  0  0  0  0  0  0  0  0  0  0
    2.0120    3.5670   -3.8650 H   0  0  0  0  0  0  0  0  0  0  0  0
    1.8430    4.1790   -0.7400 H   0  0  0  0  0  0  0  0  0  0  0  0
    0.6090    3.0650    1.0280 H   0  0  0  0  0  0  0  0  0  0  0  0
   -1.4350    2.1010    1.6810 H   0  0  0  0  0  0  0  0  0  0  0  0
   -2.5950    1.4710    0.4950 H   0  0  0  0  0  0  0  0  0  0  0  0
   -1.5060   -0.2880    2.0200 H   0  0  0  0  0  0  0  0  0  0  0  0
    1.0800    0.7220    0.8230 H   0  0  0  0  0  0  0  0  0  0  0  0
   -2.0030    1.3780   -1.9480 H   0  0  0  0  0  0  0  0  0  0  0  0
   -0.7630    2.4890   -3.6570 H   0  0  0  0  0  0  0  0  0  0  0  0
   -2.2290   -1.4070   -0.4900 N   0  0  0  0  0  0  0  0  0  0  0  0
   -2.2470   -2.3990   -1.5050 C   0  0  1  0  0  0  0  0  0  0  0  0
   -2.8800   -3.7020   -1.0990 C   0  0  0  0  0  0  0  0  0  0  0  0
   -2.2230   -4.3600    0.0340 C   0  0  0  0  0  0  0  0  0  0  0  0
   -1.2060   -5.2440   -0.1840 C   0  0  0  0  0  0  0  0  0  0  0  0
   -0.5820   -5.8690    0.8770 C   0  0  0  0  0  0  0  0  0  0  0  0
   -0.9750   -5.6110    2.1870 C   0  0  0  0  0  0  0  0  0  0  0  0
   -2.0030   -4.7150    2.3730 C   0  0  0  0  0  0  0  0  0  0  0  0
   -2.6200   -4.0970    1.3110 C   0  0  0  0  0  0  0  0  0  0  0  0
   -3.0030   -1.9070   -2.6740 C   0  0  0  0  0  0  0  0  0  0  0  0
   -3.5240   -0.7700   -2.6440 O   0  0  0  0  0  0  0  0  0  0  0  0
   -3.1200   -2.7160   -3.7840 O   0  0  0  0  0  0  0  0  0  0  0  0
   -3.1390   -1.0340   -0.1430 H   0  0  0  0  0  0  0  0  0  0  0  0
   -1.2200   -2.6370   -1.8290 H   0  0  0  0  0  0  0  0  0  0  0  0
   -3.9860   -3.5820   -0.9480 H   0  0  0  0  0  0  0  0  0  0  0  0
   -2.7910   -4.3810   -1.9770 H   0  0  0  0  0  0  0  0  0  0  0  0
   -0.8480   -5.4930   -1.1680 H   0  0  0  0  0  0  0  0  0  0  0  0
    0.2300   -6.5770    0.7340 H   0  0  0  0  0  0  0  0  0  0  0  0
   -0.4800   -6.1050    3.0150 H   0  0  0  0  0  0  0  0  0  0  0  0
   -2.3210   -4.5050    3.4090 H   0  0  0  0  0  0  0  0  0  0  0  0
   -3.4230   -3.4030    1.5540 H   0  0  0  0  0  0  0  0  0  0  0  0
  1 10  1  0  0  0  0
  1 11  1  0  0  0  0
  2 12  1  6  0  0  0
  2  1  1  0  0  0  0
  3  2  1  0  0  0  0
  3 13  1  0  0  0  0
  3 14  1  0  0  0  0
  4  3  1  0  0  0  0
  5  4  1  0  0  0  0
  5  6  2  0  0  0  0
  7  2  1  0  0  0  0
  7  8  2  0  0  0  0
  9  5  1  0  0  0  0
 15  4  1  0  0  0  0
 16  4  1  0  0  0  0
 17  9  1  0  0  0  0
 18 19  1  0  0  0  0
 19 20  1  0  0  0  0
 20 31  1  0  0  0  0
 20 21  2  0  0  0  0
 21 32  1  0  0  0  0
 22 21  1  0  0  0  0
 22 23  1  0  0  0  0
 23 24  1  0  0  0  0
 23 33  1  0  0  0  0
 24 25  1  0  0  0  0
 24 35  1  1  0  0  0
 25  7  1  0  0  0  0
 26 24  1  0  0  0  0
 27 26  2  0  0  0  0
 28 22  2  0  0  0  0
 29 19  2  0  0  0  0
 29 28  1  0  0  0  0
 30 18  1  0  0  0  0
 34 23  1  0  0  0  0
 36 25  1  0  0  0  0
 37 28  1  0  0  0  0
 38 29  1  0  0  0  0
 39 51  1  0  0  0  0
 39 26  1  0  0  0  0
 40 52  1  6  0  0  0
 40 41  1  0  0  0  0
 40 39  1  0  0  0  0
 41 53  1  0  0  0  0
 41 42  1  0  0  0  0
 42 47  1  0  0  0  0
 43 42  2  0  0  0  0
 43 44  1  0  0  0  0
 44 45  2  0  0  0  0
 45 46  1  0  0  0  0
 45 57  1  0  0  0  0
 46 58  1  0  0  0  0
 47 59  1  0  0  0  0
 47 46  2  0  0  0  0
 48 49  1  0  0  0  0
 48 40  1  0  0  0  0
 50 48  2  0  0  0  0
 54 41  1  0  0  0  0
 55 43  1  0  0  0  0
 56 44  1  0  0  0  0
M  END
$$$$
