EYI.pdb
 OpenBabel07022418213D

 58 58  0  0  1  0  0  0  0  0999 V2000
   -0.2990   -1.3250    5.3690 N   0  0  0  0  0  0  0  0  0  0  0  0
   -0.8340   -0.5160    4.2730 C   0  0  1  0  0  0  0  0  0  0  0  0
   -0.4790    0.9250    4.4710 C   0  0  0  0  0  0  0  0  0  0  0  0
    1.0500    1.0250    4.4920 C   0  0  0  0  0  0  0  0  0  0  0  0
    1.4680    2.4260    4.7120 C   0  0  0  0  0  0  0  0  0  0  0  0
    0.9650    3.0600    5.6730 O   0  0  0  0  0  0  0  0  0  0  0  0
   -0.2940   -1.0560    2.9670 C   0  0  0  0  0  0  0  0  0  0  0  0
    0.4850   -2.0170    3.0050 O   0  0  0  0  0  0  0  0  0  0  0  0
    2.3890    3.0450    3.8880 O   0  0  0  0  0  0  0  0  0  0  0  0
   -1.0490   -1.6310    6.0030 H   0  0  0  0  0  0  0  0  0  0  0  0
    0.3080   -2.0800    4.9950 H   0  0  0  0  0  0  0  0  0  0  0  0
   -1.9400   -0.6560    4.2840 H   0  0  0  0  0  0  0  0  0  0  0  0
   -0.8890    1.2310    5.4780 H   0  0  0  0  0  0  0  0  0  0  0  0
   -0.9020    1.5410    3.6590 H   0  0  0  0  0  0  0  0  0  0  0  0
    1.4270    0.5580    3.5800 H   0  0  0  0  0  0  0  0  0  0  0  0
    1.3490    0.3790    5.3750 H   0  0  0  0  0  0  0  0  0  0  0  0
    2.3650    4.0560    3.7260 H   0  0  0  0  0  0  0  0  0  0  0  0
   -0.8560    5.5120   -0.4950 O   0  0  0  0  0  0  0  0  0  0  0  0
   -0.4660    4.1840   -0.3990 C   0  0  0  0  0  0  0  0  0  0  0  0
   -0.6900    3.2860   -1.4210 C   0  0  0  0  0  0  0  0  0  0  0  0
   -0.3180    1.9480   -1.3680 C   0  0  0  0  0  0  0  0  0  0  0  0
    0.3220    1.4880   -0.2100 C   0  0  0  0  0  0  0  0  0  0  0  0
    0.7360    0.0620   -0.1420 C   0  0  0  0  0  0  0  0  0  0  0  0
   -0.3120   -0.8290    0.4140 C   0  0  2  0  0  0  0  0  0  0  0  0
   -0.6820   -0.4680    1.7490 N   0  0  0  0  0  0  0  0  0  0  0  0
   -0.1080   -2.2710    0.2090 C   0  0  0  0  0  0  0  0  0  0  0  0
   -0.3240   -3.1520    1.0640 O   0  0  0  0  0  0  0  0  0  0  0  0
    0.5460    2.3760    0.8040 C   0  0  0  0  0  0  0  0  0  0  0  0
    0.1700    3.7080    0.7390 C   0  0  0  0  0  0  0  0  0  0  0  0
   -1.3410    5.8410   -1.3180 H   0  0  0  0  0  0  0  0  0  0  0  0
   -1.1940    3.6760   -2.3100 H   0  0  0  0  0  0  0  0  0  0  0  0
   -0.5140    1.2720   -2.2030 H   0  0  0  0  0  0  0  0  0  0  0  0
    1.1110   -0.2080   -1.1380 H   0  0  0  0  0  0  0  0  0  0  0  0
    1.6480    0.0280    0.5220 H   0  0  0  0  0  0  0  0  0  0  0  0
   -1.2480   -0.6370   -0.2360 H   0  0  0  0  0  0  0  0  0  0  0  0
   -1.3440    0.3680    1.8670 H   0  0  0  0  0  0  0  0  0  0  0  0
    1.0580    2.0220    1.7180 H   0  0  0  0  0  0  0  0  0  0  0  0
    0.3560    4.4090    1.5640 H   0  0  0  0  0  0  0  0  0  0  0  0
   -0.9960   -2.7870   -3.7220 C   0  0  0  0  0  0  0  0  0  0  0  0
   -0.4330   -4.1640   -3.6150 C   0  0  0  0  0  0  0  0  0  0  0  0
   -0.4070   -4.7580   -2.2550 C   0  0  2  0  0  0  0  0  0  0  0  0
   -1.7530   -4.8840   -1.6220 C   0  0  0  0  0  0  0  0  0  0  0  0
    0.5920   -4.1540   -1.2970 C   0  0  2  0  0  0  0  0  0  0  0  0
    0.3780   -2.7500   -1.0650 N   0  0  0  0  0  0  0  0  0  0  0  0
    1.9810   -4.5030   -1.6390 C   0  0  0  0  0  0  0  0  0  0  0  0
    2.2810   -5.6920   -1.8560 O   0  0  0  0  0  0  0  0  0  0  0  0
    2.9380   -3.5260   -1.7180 O   0  0  0  0  0  0  0  0  0  0  0  0
   -1.7610   -2.7140   -4.5560 H   0  0  0  0  0  0  0  0  0  0  0  0
   -1.5490   -2.4340   -2.8350 H   0  0  0  0  0  0  0  0  0  0  0  0
   -0.1890   -2.1040   -4.0530 H   0  0  0  0  0  0  0  0  0  0  0  0
    0.5860   -4.2470   -4.0530 H   0  0  0  0  0  0  0  0  0  0  0  0
   -1.0700   -4.8410   -4.2540 H   0  0  0  0  0  0  0  0  0  0  0  0
   -0.0430   -5.8260   -2.3940 H   0  0  0  0  0  0  0  0  0  0  0  0
   -2.3820   -3.9760   -1.7590 H   0  0  0  0  0  0  0  0  0  0  0  0
   -1.6630   -5.0730   -0.5200 H   0  0  0  0  0  0  0  0  0  0  0  0
   -2.3520   -5.7270   -2.0220 H   0  0  0  0  0  0  0  0  0  0  0  0
    0.3850   -4.6870   -0.3170 H   0  0  0  0  0  0  0  0  0  0  0  0
    0.5530   -2.0190   -1.7790 H   0  0  0  0  0  0  0  0  0  0  0  0
  1 10  1  0  0  0  0
  2 12  1  6  0  0  0
  2  3  1  0  0  0  0
  2  1  1  0  0  0  0
  3  4  1  0  0  0  0
  3 13  1  0  0  0  0
  4  5  1  0  0  0  0
  4 16  1  0  0  0  0
  5  6  2  0  0  0  0
  7  8  2  0  0  0  0
  7  2  1  0  0  0  0
  9  5  1  0  0  0  0
 11  1  1  0  0  0  0
 14  3  1  0  0  0  0
 15  4  1  0  0  0  0
 17  9  1  0  0  0  0
 18 19  1  0  0  0  0
 19 29  1  0  0  0  0
 20 21  1  0  0  0  0
 20 19  2  0  0  0  0
 21 22  2  0  0  0  0
 22 23  1  0  0  0  0
 22 28  1  0  0  0  0
 23 24  1  0  0  0  0
 23 34  1  0  0  0  0
 24 35  1  6  0  0  0
 24 25  1  0  0  0  0
 25 36  1  0  0  0  0
 25  7  1  0  0  0  0
 26 24  1  0  0  0  0
 26 27  2  0  0  0  0
 28 37  1  0  0  0  0
 29 28  2  0  0  0  0
 29 38  1  0  0  0  0
 30 18  1  0  0  0  0
 31 20  1  0  0  0  0
 32 21  1  0  0  0  0
 33 23  1  0  0  0  0
 39 40  1  0  0  0  0
 39 49  1  0  0  0  0
 40 41  1  0  0  0  0
 41 53  1  6  0  0  0
 41 42  1  0  0  0  0
 41 43  1  0  0  0  0
 42 55  1  0  0  0  0
 43 44  1  0  0  0  0
 43 57  1  1  0  0  0
 44 26  1  0  0  0  0
 45 43  1  0  0  0  0
 46 45  2  0  0  0  0
 47 45  1  0  0  0  0
 48 39  1  0  0  0  0
 50 39  1  0  0  0  0
 51 40  1  0  0  0  0
 52 40  1  0  0  0  0
 54 42  1  0  0  0  0
 56 42  1  0  0  0  0
 58 44  1  0  0  0  0
M  END
$$$$
