EYK.pdb
 OpenBabel07022418213D

 60 60  0  0  1  0  0  0  0  0999 V2000
   -3.2770   -0.8710    3.9850 N   0  0  0  0  0  0  0  0  0  0  0  0
   -2.1290   -0.0090    4.2340 C   0  0  1  0  0  0  0  0  0  0  0  0
   -1.0560   -0.8150    4.8650 C   0  0  0  0  0  0  0  0  0  0  0  0
    0.1940   -0.0510    5.2060 C   0  0  0  0  0  0  0  0  0  0  0  0
    1.1880   -0.9650    5.8180 C   0  0  0  0  0  0  0  0  0  0  0  0
    0.9590   -2.1800    5.9960 O   0  0  0  0  0  0  0  0  0  0  0  0
   -1.7650    0.6280    2.9430 C   0  0  0  0  0  0  0  0  0  0  0  0
   -2.3990    1.6020    2.4650 O   0  0  0  0  0  0  0  0  0  0  0  0
    2.4050   -0.4540    6.2020 O   0  0  0  0  0  0  0  0  0  0  0  0
   -2.9840   -1.8550    3.8090 H   0  0  0  0  0  0  0  0  0  0  0  0
   -3.8970   -0.5150    3.2420 H   0  0  0  0  0  0  0  0  0  0  0  0
   -2.4750    0.7430    4.9810 H   0  0  0  0  0  0  0  0  0  0  0  0
   -0.7470   -1.6920    4.2240 H   0  0  0  0  0  0  0  0  0  0  0  0
   -1.4820   -1.2800    5.7780 H   0  0  0  0  0  0  0  0  0  0  0  0
   -0.0290    0.7170    6.0070 H   0  0  0  0  0  0  0  0  0  0  0  0
    0.6010    0.5260    4.3630 H   0  0  0  0  0  0  0  0  0  0  0  0
    3.2150   -0.9830    6.4390 H   0  0  0  0  0  0  0  0  0  0  0  0
    2.0610    3.7900   -4.1700 O   0  0  0  0  0  0  0  0  0  0  0  0
    1.8370    3.1490   -2.9590 C   0  0  0  0  0  0  0  0  0  0  0  0
    2.2210    1.8540   -2.7160 C   0  0  0  0  0  0  0  0  0  0  0  0
    1.9590    1.3080   -1.4980 C   0  0  0  0  0  0  0  0  0  0  0  0
    1.3200    1.9630   -0.4530 C   0  0  0  0  0  0  0  0  0  0  0  0
    1.0370    1.3500    0.8610 C   0  0  0  0  0  0  0  0  0  0  0  0
   -0.3160    0.7890    0.9100 C   0  0  2  0  0  0  0  0  0  0  0  0
   -0.6730    0.1680    2.1640 N   0  0  0  0  0  0  0  0  0  0  0  0
   -0.5730   -0.2230   -0.1460 C   0  0  0  0  0  0  0  0  0  0  0  0
   -0.4210    0.0300   -1.3800 O   0  0  0  0  0  0  0  0  0  0  0  0
    0.9330    3.2830   -0.7140 C   0  0  0  0  0  0  0  0  0  0  0  0
    1.1890    3.8550   -1.9410 C   0  0  0  0  0  0  0  0  0  0  0  0
    1.5820    3.4610   -4.9860 H   0  0  0  0  0  0  0  0  0  0  0  0
    2.7230    1.2900   -3.4890 H   0  0  0  0  0  0  0  0  0  0  0  0
    2.2890    0.2720   -1.3440 H   0  0  0  0  0  0  0  0  0  0  0  0
    1.0930    2.2060    1.6010 H   0  0  0  0  0  0  0  0  0  0  0  0
    1.8560    0.6240    1.0460 H   0  0  0  0  0  0  0  0  0  0  0  0
   -1.0400    1.6290    0.7400 H   0  0  0  0  0  0  0  0  0  0  0  0
   -0.0740   -0.6470    2.4490 H   0  0  0  0  0  0  0  0  0  0  0  0
    0.4330    3.8070    0.0900 H   0  0  0  0  0  0  0  0  0  0  0  0
    0.8920    4.8720   -2.1470 H   0  0  0  0  0  0  0  0  0  0  0  0
   -1.0080   -1.5430    0.1570 N   0  0  0  0  0  0  0  0  0  0  0  0
   -1.2490   -2.5050   -0.8980 C   0  0  1  0  0  0  0  0  0  0  0  0
   -0.3400   -3.6930   -0.6720 C   0  0  0  0  0  0  0  0  0  0  0  0
   -0.4960   -4.7490   -1.7060 C   0  0  0  0  0  0  0  0  0  0  0  0
   -0.2100   -4.3220   -3.1150 C   0  0  0  0  0  0  0  0  0  0  0  0
    1.1940   -3.8310   -3.3360 C   0  0  0  0  0  0  0  0  0  0  0  0
    1.5710   -2.6990   -2.5530 N   0  0  0  0  0  0  0  0  0  0  0  0
   -2.6520   -2.9480   -0.8010 C   0  0  0  0  0  0  0  0  0  0  0  0
   -3.1950   -3.7570   -1.5860 O   0  0  0  0  0  0  0  0  0  0  0  0
   -3.4510   -2.4540    0.2180 O   0  0  0  0  0  0  0  0  0  0  0  0
   -1.1530   -1.8140    1.1740 H   0  0  0  0  0  0  0  0  0  0  0  0
   -1.0340   -2.0060   -1.8600 H   0  0  0  0  0  0  0  0  0  0  0  0
   -0.7020   -4.1520    0.2970 H   0  0  0  0  0  0  0  0  0  0  0  0
    0.7040   -3.4250   -0.4710 H   0  0  0  0  0  0  0  0  0  0  0  0
   -1.4740   -5.2610   -1.6730 H   0  0  0  0  0  0  0  0  0  0  0  0
    0.2550   -5.5780   -1.4990 H   0  0  0  0  0  0  0  0  0  0  0  0
   -0.9570   -3.6300   -3.5240 H   0  0  0  0  0  0  0  0  0  0  0  0
   -0.3020   -5.2590   -3.7410 H   0  0  0  0  0  0  0  0  0  0  0  0
    1.3200   -3.5670   -4.4120 H   0  0  0  0  0  0  0  0  0  0  0  0
    1.9390   -4.6390   -3.1290 H   0  0  0  0  0  0  0  0  0  0  0  0
    2.4580   -2.8330   -2.0120 H   0  0  0  0  0  0  0  0  0  0  0  0
    1.5720   -1.8080   -3.0960 H   0  0  0  0  0  0  0  0  0  0  0  0
  1  2  1  0  0  0  0
  2  3  1  0  0  0  0
  2 12  1  1  0  0  0
  3  4  1  0  0  0  0
  3 14  1  0  0  0  0
  4  5  1  0  0  0  0
  4 15  1  0  0  0  0
  5  6  2  0  0  0  0
  5  9  1  0  0  0  0
  7  2  1  0  0  0  0
  8  7  2  0  0  0  0
  9 17  1  0  0  0  0
 10  1  1  0  0  0  0
 11  1  1  0  0  0  0
 13  3  1  0  0  0  0
 16  4  1  0  0  0  0
 18 19  1  0  0  0  0
 19 20  2  0  0  0  0
 19 29  1  0  0  0  0
 20 21  1  0  0  0  0
 21 32  1  0  0  0  0
 21 22  2  0  0  0  0
 22 23  1  0  0  0  0
 23 24  1  0  0  0  0
 23 34  1  0  0  0  0
 23 33  1  0  0  0  0
 24 35  1  6  0  0  0
 24 25  1  0  0  0  0
 25 36  1  0  0  0  0
 25  7  1  0  0  0  0
 26 39  1  0  0  0  0
 26 24  1  0  0  0  0
 27 26  2  0  0  0  0
 28 22  1  0  0  0  0
 28 37  1  0  0  0  0
 29 28  2  0  0  0  0
 30 18  1  0  0  0  0
 31 20  1  0  0  0  0
 38 29  1  0  0  0  0
 39 49  1  0  0  0  0
 40 50  1  6  0  0  0
 40 46  1  0  0  0  0
 40 41  1  0  0  0  0
 40 39  1  0  0  0  0
 41 52  1  0  0  0  0
 41 51  1  0  0  0  0
 42 53  1  0  0  0  0
 42 54  1  0  0  0  0
 42 41  1  0  0  0  0
 43 42  1  0  0  0  0
 44 58  1  0  0  0  0
 44 43  1  0  0  0  0
 44 45  1  0  0  0  0
 45 59  1  0  0  0  0
 46 48  1  0  0  0  0
 47 46  2  0  0  0  0
 55 43  1  0  0  0  0
 56 43  1  0  0  0  0
 57 44  1  0  0  0  0
 60 45  1  0  0  0  0
M  END
$$$$
