EYL.pdb
 OpenBabel07022418213D

 58 58  0  0  1  0  0  0  0  0999 V2000
    0.7380   -1.6970    5.4430 N   0  0  0  0  0  0  0  0  0  0  0  0
   -0.0970   -0.8690    4.6140 C   0  0  1  0  0  0  0  0  0  0  0  0
    0.2070    0.6040    4.9090 C   0  0  0  0  0  0  0  0  0  0  0  0
    1.6880    0.7780    4.5830 C   0  0  0  0  0  0  0  0  0  0  0  0
    2.1270    2.1560    4.8140 C   0  0  0  0  0  0  0  0  0  0  0  0
    1.3160    3.0130    5.2260 O   0  0  0  0  0  0  0  0  0  0  0  0
    0.1470   -1.1510    3.1580 C   0  0  0  0  0  0  0  0  0  0  0  0
    1.0400   -1.9670    2.8400 O   0  0  0  0  0  0  0  0  0  0  0  0
    3.4340    2.5260    4.5800 O   0  0  0  0  0  0  0  0  0  0  0  0
    0.2330   -1.9610    6.3110 H   0  0  0  0  0  0  0  0  0  0  0  0
    1.1320   -2.5070    4.9330 H   0  0  0  0  0  0  0  0  0  0  0  0
   -1.1820   -1.0140    4.7920 H   0  0  0  0  0  0  0  0  0  0  0  0
    0.0460    0.7820    5.9710 H   0  0  0  0  0  0  0  0  0  0  0  0
   -0.3810    1.2400    4.2370 H   0  0  0  0  0  0  0  0  0  0  0  0
    1.8290    0.4960    3.5410 H   0  0  0  0  0  0  0  0  0  0  0  0
    2.2610    0.0360    5.1860 H   0  0  0  0  0  0  0  0  0  0  0  0
    3.8660    3.3480    4.9810 H   0  0  0  0  0  0  0  0  0  0  0  0
   -1.6720    5.5610    0.6110 O   0  0  0  0  0  0  0  0  0  0  0  0
   -1.1610    4.2590    0.4840 C   0  0  0  0  0  0  0  0  0  0  0  0
   -1.5410    3.4540   -0.5640 C   0  0  0  0  0  0  0  0  0  0  0  0
   -1.0420    2.1760   -0.6920 C   0  0  0  0  0  0  0  0  0  0  0  0
   -0.1330    1.6410    0.2290 C   0  0  0  0  0  0  0  0  0  0  0  0
    0.3880    0.2530    0.0580 C   0  0  0  0  0  0  0  0  0  0  0  0
   -0.4950   -0.7010    0.7490 C   0  0  2  0  0  0  0  0  0  0  0  0
   -0.6280   -0.4990    2.1670 N   0  0  0  0  0  0  0  0  0  0  0  0
   -0.3930   -2.1150    0.3860 C   0  0  0  0  0  0  0  0  0  0  0  0
   -0.5490   -2.9910    1.2540 O   0  0  0  0  0  0  0  0  0  0  0  0
    0.2330    2.4650    1.2690 C   0  0  0  0  0  0  0  0  0  0  0  0
   -0.2680    3.7510    1.4000 C   0  0  0  0  0  0  0  0  0  0  0  0
   -1.7350    6.1030   -0.2460 H   0  0  0  0  0  0  0  0  0  0  0  0
   -2.2470    3.8460   -1.2930 H   0  0  0  0  0  0  0  0  0  0  0  0
   -1.3230    1.5200   -1.5050 H   0  0  0  0  0  0  0  0  0  0  0  0
    0.5440    0.0970   -1.0020 H   0  0  0  0  0  0  0  0  0  0  0  0
    1.4050    0.2310    0.5340 H   0  0  0  0  0  0  0  0  0  0  0  0
   -1.5670   -0.4470    0.3560 H   0  0  0  0  0  0  0  0  0  0  0  0
   -1.3540    0.1900    2.5600 H   0  0  0  0  0  0  0  0  0  0  0  0
    0.9360    2.0720    1.9930 H   0  0  0  0  0  0  0  0  0  0  0  0
    0.0310    4.3720    2.2160 H   0  0  0  0  0  0  0  0  0  0  0  0
    0.2830   -3.5880   -4.4860 C   0  0  0  0  0  0  0  0  0  0  0  0
   -0.9720   -3.5950   -3.7070 C   0  0  0  0  0  0  0  0  0  0  0  0
   -2.0780   -4.0720   -4.6330 C   0  0  0  0  0  0  0  0  0  0  0  0
   -0.9580   -4.3310   -2.4120 C   0  0  0  0  0  0  0  0  0  0  0  0
   -0.0010   -3.8820   -1.3910 C   0  0  2  0  0  0  0  0  0  0  0  0
   -0.1220   -2.5360   -0.9270 N   0  0  0  0  0  0  0  0  0  0  0  0
    1.4240   -4.1260   -1.7360 C   0  0  0  0  0  0  0  0  0  0  0  0
    2.3350   -3.2680   -1.6240 O   0  0  0  0  0  0  0  0  0  0  0  0
    1.7860   -5.3770   -2.2150 O   0  0  0  0  0  0  0  0  0  0  0  0
    0.6510   -4.6090   -4.7530 H   0  0  0  0  0  0  0  0  0  0  0  0
    1.1000   -2.9760   -4.0630 H   0  0  0  0  0  0  0  0  0  0  0  0
    0.0520   -3.1200   -5.4810 H   0  0  0  0  0  0  0  0  0  0  0  0
   -1.2370   -2.5290   -3.4820 H   0  0  0  0  0  0  0  0  0  0  0  0
   -2.2090   -3.3120   -5.4380 H   0  0  0  0  0  0  0  0  0  0  0  0
   -3.0560   -4.0830   -4.0840 H   0  0  0  0  0  0  0  0  0  0  0  0
   -1.8610   -5.0790   -5.0430 H   0  0  0  0  0  0  0  0  0  0  0  0
   -1.9740   -4.3790   -1.9700 H   0  0  0  0  0  0  0  0  0  0  0  0
   -0.7150   -5.3920   -2.6660 H   0  0  0  0  0  0  0  0  0  0  0  0
   -0.1720   -4.5260   -0.4750 H   0  0  0  0  0  0  0  0  0  0  0  0
    0.0010   -1.7670   -1.6240 H   0  0  0  0  0  0  0  0  0  0  0  0
  1 10  1  0  0  0  0
  2 12  1  1  0  0  0
  2  3  1  0  0  0  0
  2  1  1  0  0  0  0
  3 13  1  0  0  0  0
  4  5  1  0  0  0  0
  4  3  1  0  0  0  0
  4 16  1  0  0  0  0
  5  6  2  0  0  0  0
  7  2  1  0  0  0  0
  8  7  2  0  0  0  0
  9  5  1  0  0  0  0
  9 17  1  0  0  0  0
 11  1  1  0  0  0  0
 14  3  1  0  0  0  0
 15  4  1  0  0  0  0
 19 18  1  0  0  0  0
 19 29  1  0  0  0  0
 20 19  2  0  0  0  0
 21 20  1  0  0  0  0
 21 22  2  0  0  0  0
 22 28  1  0  0  0  0
 23 22  1  0  0  0  0
 23 34  1  0  0  0  0
 23 24  1  0  0  0  0
 24 35  1  6  0  0  0
 24 25  1  0  0  0  0
 25 36  1  0  0  0  0
 25  7  1  0  0  0  0
 26 24  1  0  0  0  0
 26 27  2  0  0  0  0
 28 29  2  0  0  0  0
 28 37  1  0  0  0  0
 29 38  1  0  0  0  0
 30 18  1  0  0  0  0
 31 20  1  0  0  0  0
 32 21  1  0  0  0  0
 33 23  1  0  0  0  0
 39 49  1  0  0  0  0
 39 40  1  0  0  0  0
 40 51  1  0  0  0  0
 40 42  1  0  0  0  0
 41 53  1  0  0  0  0
 41 40  1  0  0  0  0
 42 55  1  0  0  0  0
 42 43  1  0  0  0  0
 43 44  1  0  0  0  0
 43 57  1  1  0  0  0
 44 26  1  0  0  0  0
 45 46  1  0  0  0  0
 45 43  1  0  0  0  0
 47 45  2  0  0  0  0
 48 39  1  0  0  0  0
 50 39  1  0  0  0  0
 52 41  1  0  0  0  0
 54 41  1  0  0  0  0
 56 42  1  0  0  0  0
 58 44  1  0  0  0  0
M  END
$$$$
