EYM.pdb
 OpenBabel07022418213D

 56 56  0  0  1  0  0  0  0  0999 V2000
    3.7290    0.3130    1.6560 N   0  0  0  0  0  0  0  0  0  0  0  0
    2.6940   -0.4960    1.0480 C   0  0  1  0  0  0  0  0  0  0  0  0
    2.8050   -1.8680    1.6150 C   0  0  0  0  0  0  0  0  0  0  0  0
    2.6900   -1.9720    3.1010 C   0  0  0  0  0  0  0  0  0  0  0  0
    1.3980   -1.4260    3.5600 C   0  0  0  0  0  0  0  0  0  0  0  0
    1.3670   -0.4380    4.3690 O   0  0  0  0  0  0  0  0  0  0  0  0
    1.3540    0.1130    1.1140 C   0  0  0  0  0  0  0  0  0  0  0  0
    1.1770    1.1250    1.7970 O   0  0  0  0  0  0  0  0  0  0  0  0
    0.1700   -1.9220    3.1670 O   0  0  0  0  0  0  0  0  0  0  0  0
    3.3640    0.9260    2.3950 H   0  0  0  0  0  0  0  0  0  0  0  0
    4.5300   -0.2730    1.9680 H   0  0  0  0  0  0  0  0  0  0  0  0
    2.9530   -0.5600   -0.0700 H   0  0  0  0  0  0  0  0  0  0  0  0
    3.7920   -2.3510    1.3480 H   0  0  0  0  0  0  0  0  0  0  0  0
    2.0490   -2.5750    1.1920 H   0  0  0  0  0  0  0  0  0  0  0  0
    3.5430   -1.4920    3.6340 H   0  0  0  0  0  0  0  0  0  0  0  0
    2.6550   -3.0740    3.3430 H   0  0  0  0  0  0  0  0  0  0  0  0
   -0.6890   -1.8260    3.6790 H   0  0  0  0  0  0  0  0  0  0  0  0
    1.8490    5.5880   -1.1280 O   0  0  0  0  0  0  0  0  0  0  0  0
    1.0540    4.4510   -1.0490 C   0  0  0  0  0  0  0  0  0  0  0  0
    1.3810    3.2680   -1.6800 C   0  0  0  0  0  0  0  0  0  0  0  0
    0.6070    2.1330   -1.6120 C   0  0  0  0  0  0  0  0  0  0  0  0
   -0.5600    2.1440   -0.8870 C   0  0  0  0  0  0  0  0  0  0  0  0
   -1.4410    0.9370   -0.7780 C   0  0  0  0  0  0  0  0  0  0  0  0
   -1.0660    0.0780    0.4140 C   0  0  2  0  0  0  0  0  0  0  0  0
    0.2350   -0.4240    0.4080 N   0  0  0  0  0  0  0  0  0  0  0  0
   -2.0970   -0.9530    0.5330 C   0  0  0  0  0  0  0  0  0  0  0  0
   -3.3400   -0.6200    0.5700 O   0  0  0  0  0  0  0  0  0  0  0  0
   -0.9230    3.3020   -0.2430 C   0  0  0  0  0  0  0  0  0  0  0  0
   -0.1240    4.4210   -0.3320 C   0  0  0  0  0  0  0  0  0  0  0  0
    1.6830    6.2960   -0.4000 H   0  0  0  0  0  0  0  0  0  0  0  0
    2.3000    3.2390   -2.2580 H   0  0  0  0  0  0  0  0  0  0  0  0
    0.9060    1.2060   -2.1330 H   0  0  0  0  0  0  0  0  0  0  0  0
   -1.5210    0.3860   -1.7170 H   0  0  0  0  0  0  0  0  0  0  0  0
   -2.4520    1.3270   -0.5500 H   0  0  0  0  0  0  0  0  0  0  0  0
   -1.1580    0.7860    1.2830 H   0  0  0  0  0  0  0  0  0  0  0  0
    0.4490   -1.2670   -0.1680 H   0  0  0  0  0  0  0  0  0  0  0  0
   -1.8480    3.3670    0.3510 H   0  0  0  0  0  0  0  0  0  0  0  0
   -0.4140    5.3510    0.1840 H   0  0  0  0  0  0  0  0  0  0  0  0
   -0.9240   -2.4450   -2.9440 C   0  0  0  0  0  0  0  0  0  0  0  0
   -0.5590   -3.6650   -1.6560 S   0  0  0  0  0  0  0  0  0  0  0  0
   -2.0110   -4.6390   -1.2780 C   0  0  0  0  0  0  0  0  0  0  0  0
   -3.1320   -3.9140   -0.6440 C   0  0  0  0  0  0  0  0  0  0  0  0
   -2.8170   -3.2950    0.7070 C   0  0  2  0  0  0  0  0  0  0  0  0
   -1.7540   -2.3350    0.6060 N   0  0  0  0  0  0  0  0  0  0  0  0
   -2.6100   -4.3220    1.7340 C   0  0  0  0  0  0  0  0  0  0  0  0
   -3.4920   -5.1880    1.9190 O   0  0  0  0  0  0  0  0  0  0  0  0
   -1.4800   -4.3840    2.5130 O   0  0  0  0  0  0  0  0  0  0  0  0
   -1.2680   -3.0150   -3.8570 H   0  0  0  0  0  0  0  0  0  0  0  0
   -1.7740   -1.7950   -2.6730 H   0  0  0  0  0  0  0  0  0  0  0  0
   -0.0450   -1.8380   -3.1910 H   0  0  0  0  0  0  0  0  0  0  0  0
   -2.3940   -5.0470   -2.2520 H   0  0  0  0  0  0  0  0  0  0  0  0
   -1.7450   -5.5740   -0.6980 H   0  0  0  0  0  0  0  0  0  0  0  0
   -3.9710   -4.5990   -0.4890 H   0  0  0  0  0  0  0  0  0  0  0  0
   -3.4330   -3.0760   -1.3100 H   0  0  0  0  0  0  0  0  0  0  0  0
   -3.7660   -2.7240    0.9540 H   0  0  0  0  0  0  0  0  0  0  0  0
   -0.7400   -2.6430    0.6010 H   0  0  0  0  0  0  0  0  0  0  0  0
  1 11  1  0  0  0  0
  1 10  1  0  0  0  0
  2 12  1  6  0  0  0
  2  7  1  0  0  0  0
  2  3  1  0  0  0  0
  2  1  1  0  0  0  0
  3  4  1  0  0  0  0
  4 16  1  0  0  0  0
  4  5  1  0  0  0  0
  4 15  1  0  0  0  0
  5  6  2  0  0  0  0
  7  8  2  0  0  0  0
  9  5  1  0  0  0  0
  9 17  1  0  0  0  0
 13  3  1  0  0  0  0
 14  3  1  0  0  0  0
 18 19  1  0  0  0  0
 18 30  1  0  0  0  0
 19 29  1  0  0  0  0
 20 21  1  0  0  0  0
 20 19  2  0  0  0  0
 21 22  2  0  0  0  0
 22 23  1  0  0  0  0
 22 28  1  0  0  0  0
 23 34  1  0  0  0  0
 23 24  1  0  0  0  0
 24 26  1  0  0  0  0
 24 35  1  1  0  0  0
 25 24  1  0  0  0  0
 25  7  1  0  0  0  0
 26 27  2  0  0  0  0
 26 44  1  0  0  0  0
 28 37  1  0  0  0  0
 29 28  2  0  0  0  0
 29 38  1  0  0  0  0
 31 20  1  0  0  0  0
 32 21  1  0  0  0  0
 33 23  1  0  0  0  0
 36 25  1  0  0  0  0
 39 49  1  0  0  0  0
 39 40  1  0  0  0  0
 40 41  1  0  0  0  0
 41 52  1  0  0  0  0
 41 42  1  0  0  0  0
 42 53  1  0  0  0  0
 42 43  1  0  0  0  0
 43 55  1  1  0  0  0
 43 45  1  0  0  0  0
 44 43  1  0  0  0  0
 45 46  2  0  0  0  0
 45 47  1  0  0  0  0
 48 39  1  0  0  0  0
 50 39  1  0  0  0  0
 51 41  1  0  0  0  0
 54 42  1  0  0  0  0
 56 44  1  0  0  0  0
M  END
$$$$
