EYN.pdb
 OpenBabel07022418213D

 53 53  0  0  1  0  0  0  0  0999 V2000
    3.1950    0.1260    2.4710 N   0  0  0  0  0  0  0  0  0  0  0  0
    2.3210   -0.7970    1.7630 C   0  0  1  0  0  0  0  0  0  0  0  0
    1.7420   -1.7660    2.8120 C   0  0  0  0  0  0  0  0  0  0  0  0
    0.9740   -0.9790    3.8550 C   0  0  0  0  0  0  0  0  0  0  0  0
    0.4260   -1.8900    4.8840 C   0  0  0  0  0  0  0  0  0  0  0  0
    0.6000   -3.1310    4.8690 O   0  0  0  0  0  0  0  0  0  0  0  0
    1.2290   -0.0970    1.0630 C   0  0  0  0  0  0  0  0  0  0  0  0
    0.9450    1.0890    1.3270 O   0  0  0  0  0  0  0  0  0  0  0  0
   -0.3330   -1.3240    5.9320 O   0  0  0  0  0  0  0  0  0  0  0  0
    3.2550    1.0650    2.0220 H   0  0  0  0  0  0  0  0  0  0  0  0
    4.1160   -0.2810    2.6830 H   0  0  0  0  0  0  0  0  0  0  0  0
    2.9550   -1.3820    1.0750 H   0  0  0  0  0  0  0  0  0  0  0  0
    1.0490   -2.4710    2.3120 H   0  0  0  0  0  0  0  0  0  0  0  0
    2.5300   -2.3380    3.3090 H   0  0  0  0  0  0  0  0  0  0  0  0
    0.1490   -0.4510    3.3240 H   0  0  0  0  0  0  0  0  0  0  0  0
    1.6090   -0.2000    4.3040 H   0  0  0  0  0  0  0  0  0  0  0  0
   -0.2420   -1.6930    6.8800 H   0  0  0  0  0  0  0  0  0  0  0  0
    4.0180    3.8740   -2.3170 O   0  0  0  0  0  0  0  0  0  0  0  0
    3.0010    2.9290   -2.2730 C   0  0  0  0  0  0  0  0  0  0  0  0
    3.2190    1.5650   -2.2760 C   0  0  0  0  0  0  0  0  0  0  0  0
    2.2070    0.6310   -2.2310 C   0  0  0  0  0  0  0  0  0  0  0  0
    0.9070    1.0740   -2.1790 C   0  0  0  0  0  0  0  0  0  0  0  0
   -0.2560    0.1440   -2.1190 C   0  0  0  0  0  0  0  0  0  0  0  0
   -0.6130   -0.1390   -0.6670 C   0  0  2  0  0  0  0  0  0  0  0  0
    0.4540   -0.7470    0.0530 N   0  0  0  0  0  0  0  0  0  0  0  0
   -1.8080   -0.9930   -0.6530 C   0  0  0  0  0  0  0  0  0  0  0  0
   -2.8230   -0.5530   -1.2550 O   0  0  0  0  0  0  0  0  0  0  0  0
    0.6240    2.4250   -2.1740 C   0  0  0  0  0  0  0  0  0  0  0  0
    1.6640    3.3220   -2.2200 C   0  0  0  0  0  0  0  0  0  0  0  0
    3.8210    4.7670   -1.8520 H   0  0  0  0  0  0  0  0  0  0  0  0
    4.2580    1.2480   -2.3180 H   0  0  0  0  0  0  0  0  0  0  0  0
    2.4250   -0.4480   -2.2360 H   0  0  0  0  0  0  0  0  0  0  0  0
   -1.1160    0.6680   -2.5740 H   0  0  0  0  0  0  0  0  0  0  0  0
   -0.0880   -0.7780   -2.6820 H   0  0  0  0  0  0  0  0  0  0  0  0
   -0.8530    0.8160   -0.1490 H   0  0  0  0  0  0  0  0  0  0  0  0
    0.7040   -1.7350   -0.1580 H   0  0  0  0  0  0  0  0  0  0  0  0
   -0.4200    2.7840   -2.1340 H   0  0  0  0  0  0  0  0  0  0  0  0
    1.4380    4.3950   -2.2140 H   0  0  0  0  0  0  0  0  0  0  0  0
   -2.4090   -3.0400    2.5540 N   0  0  0  0  0  0  0  0  0  0  0  0
   -3.7130   -2.5620    2.2410 C   0  0  0  0  0  0  0  0  0  0  0  0
   -4.3970   -2.1530    3.2330 O   0  0  0  0  0  0  0  0  0  0  0  0
   -4.1790   -2.5670    0.8560 C   0  0  0  0  0  0  0  0  0  0  0  0
   -3.1160   -3.0700   -0.0520 C   0  0  2  0  0  0  0  0  0  0  0  0
   -1.9170   -2.2620   -0.0250 N   0  0  0  0  0  0  0  0  0  0  0  0
   -3.5750   -3.2700   -1.4600 C   0  0  0  0  0  0  0  0  0  0  0  0
   -4.6450   -3.9150   -1.7040 O   0  0  0  0  0  0  0  0  0  0  0  0
   -2.8860   -2.7870   -2.5310 O   0  0  0  0  0  0  0  0  0  0  0  0
   -2.0260   -3.9420    2.1880 H   0  0  0  0  0  0  0  0  0  0  0  0
   -1.7990   -2.4740    3.1780 H   0  0  0  0  0  0  0  0  0  0  0  0
   -5.0420   -3.2900    0.8100 H   0  0  0  0  0  0  0  0  0  0  0  0
   -4.6060   -1.5960    0.5240 H   0  0  0  0  0  0  0  0  0  0  0  0
   -2.8120   -4.0950    0.3110 H   0  0  0  0  0  0  0  0  0  0  0  0
   -1.0400   -2.5950    0.4800 H   0  0  0  0  0  0  0  0  0  0  0  0
  1 11  1  0  0  0  0
  2 12  1  6  0  0  0
  2  1  1  0  0  0  0
  2  3  1  0  0  0  0
  3 14  1  0  0  0  0
  3  4  1  0  0  0  0
  4 16  1  0  0  0  0
  4  5  1  0  0  0  0
  5  9  1  0  0  0  0
  6  5  2  0  0  0  0
  7  8  2  0  0  0  0
  7  2  1  0  0  0  0
  9 17  1  0  0  0  0
 10  1  1  0  0  0  0
 13  3  1  0  0  0  0
 15  4  1  0  0  0  0
 18 19  1  0  0  0  0
 18 30  1  0  0  0  0
 19 29  1  0  0  0  0
 20 19  2  0  0  0  0
 20 21  1  0  0  0  0
 21 22  2  0  0  0  0
 22 28  1  0  0  0  0
 22 23  1  0  0  0  0
 23 24  1  0  0  0  0
 24 26  1  0  0  0  0
 24 35  1  1  0  0  0
 24 25  1  0  0  0  0
 25  7  1  0  0  0  0
 26 44  1  0  0  0  0
 27 26  2  0  0  0  0
 28 37  1  0  0  0  0
 29 38  1  0  0  0  0
 29 28  2  0  0  0  0
 31 20  1  0  0  0  0
 32 21  1  0  0  0  0
 33 23  1  0  0  0  0
 34 23  1  0  0  0  0
 36 25  1  0  0  0  0
 39 49  1  0  0  0  0
 40 39  1  0  0  0  0
 40 41  2  0  0  0  0
 42 40  1  0  0  0  0
 43 44  1  0  0  0  0
 43 52  1  1  0  0  0
 43 42  1  0  0  0  0
 44 53  1  0  0  0  0
 45 43  1  0  0  0  0
 46 45  1  0  0  0  0
 47 45  2  0  0  0  0
 48 39  1  0  0  0  0
 50 42  1  0  0  0  0
 51 42  1  0  0  0  0
M  END
$$$$
