EYQ.pdb
 OpenBabel07022418213D

 56 56  0  0  1  0  0  0  0  0999 V2000
   -0.4860   -1.7190    3.7480 N   0  0  0  0  0  0  0  0  0  0  0  0
   -0.7940   -0.2940    3.9830 C   0  0  1  0  0  0  0  0  0  0  0  0
    0.2520    0.2180    4.8860 C   0  0  0  0  0  0  0  0  0  0  0  0
    0.2210    1.6600    5.2710 C   0  0  0  0  0  0  0  0  0  0  0  0
    0.4760    2.6210    4.1930 C   0  0  0  0  0  0  0  0  0  0  0  0
    0.9220    2.3000    3.0650 O   0  0  0  0  0  0  0  0  0  0  0  0
   -1.0710    0.3840    2.7250 C   0  0  0  0  0  0  0  0  0  0  0  0
   -1.8150    1.4170    2.6730 O   0  0  0  0  0  0  0  0  0  0  0  0
    0.2200    3.9620    4.3970 O   0  0  0  0  0  0  0  0  0  0  0  0
    0.4810   -1.8370    3.4260 H   0  0  0  0  0  0  0  0  0  0  0  0
   -1.2150   -2.1610    3.1670 H   0  0  0  0  0  0  0  0  0  0  0  0
   -1.7630   -0.3400    4.5800 H   0  0  0  0  0  0  0  0  0  0  0  0
    0.2280   -0.4330    5.8240 H   0  0  0  0  0  0  0  0  0  0  0  0
    1.2950    0.0260    4.5060 H   0  0  0  0  0  0  0  0  0  0  0  0
    1.0640    1.8160    6.0180 H   0  0  0  0  0  0  0  0  0  0  0  0
   -0.7460    1.9170    5.7590 H   0  0  0  0  0  0  0  0  0  0  0  0
   -0.0170    4.5270    3.5690 H   0  0  0  0  0  0  0  0  0  0  0  0
    4.9220   -2.1250   -1.1990 O   0  0  0  0  0  0  0  0  0  0  0  0
    3.8160   -1.2990   -0.9840 C   0  0  0  0  0  0  0  0  0  0  0  0
    3.5770   -0.6510    0.2070 C   0  0  0  0  0  0  0  0  0  0  0  0
    2.4880    0.1600    0.4160 C   0  0  0  0  0  0  0  0  0  0  0  0
    1.5700    0.3590   -0.5930 C   0  0  0  0  0  0  0  0  0  0  0  0
    0.4210    1.2510   -0.3260 C   0  0  0  0  0  0  0  0  0  0  0  0
   -0.7850    0.5690    0.2550 C   0  0  2  0  0  0  0  0  0  0  0  0
   -0.5220   -0.0770    1.5000 N   0  0  0  0  0  0  0  0  0  0  0  0
   -1.5300   -0.2670   -0.7200 C   0  0  0  0  0  0  0  0  0  0  0  0
   -1.7980    0.2850   -1.8310 O   0  0  0  0  0  0  0  0  0  0  0  0
    1.7760   -0.2710   -1.7940 C   0  0  0  0  0  0  0  0  0  0  0  0
    2.8740   -1.0780   -1.9760 C   0  0  0  0  0  0  0  0  0  0  0  0
    5.6880   -1.7000   -1.7270 H   0  0  0  0  0  0  0  0  0  0  0  0
    4.3080   -0.8120    1.0020 H   0  0  0  0  0  0  0  0  0  0  0  0
    2.3530    0.6550    1.4000 H   0  0  0  0  0  0  0  0  0  0  0  0
    0.1710    1.7550   -1.3010 H   0  0  0  0  0  0  0  0  0  0  0  0
    0.7630    2.0620    0.3430 H   0  0  0  0  0  0  0  0  0  0  0  0
   -1.5030    1.4220    0.4840 H   0  0  0  0  0  0  0  0  0  0  0  0
    0.0840   -0.9060    1.5320 H   0  0  0  0  0  0  0  0  0  0  0  0
    1.0530   -0.1240   -2.6060 H   0  0  0  0  0  0  0  0  0  0  0  0
    3.0660   -1.5930   -2.9270 H   0  0  0  0  0  0  0  0  0  0  0  0
    0.3950   -2.3590   -4.6090 N   0  0  0  0  0  0  0  0  0  0  0  0
   -0.7720   -2.6130   -3.8440 C   0  0  0  0  0  0  0  0  0  0  0  0
   -1.8390   -2.1090   -4.2730 O   0  0  0  0  0  0  0  0  0  0  0  0
   -0.6870   -3.4450   -2.5960 C   0  0  0  0  0  0  0  0  0  0  0  0
   -1.9730   -3.5680   -1.8950 C   0  0  0  0  0  0  0  0  0  0  0  0
   -2.6310   -2.3460   -1.3770 C   0  0  2  0  0  0  0  0  0  0  0  0
   -1.9140   -1.5970   -0.4150 N   0  0  0  0  0  0  0  0  0  0  0  0
   -3.9860   -2.6630   -0.8340 C   0  0  0  0  0  0  0  0  0  0  0  0
   -4.2920   -2.2630    0.3140 O   0  0  0  0  0  0  0  0  0  0  0  0
   -4.9210   -3.3900   -1.5620 O   0  0  0  0  0  0  0  0  0  0  0  0
    0.3560   -1.9510   -5.5590 H   0  0  0  0  0  0  0  0  0  0  0  0
    1.3140   -2.5980   -4.1880 H   0  0  0  0  0  0  0  0  0  0  0  0
    0.1640   -3.1160   -1.9660 H   0  0  0  0  0  0  0  0  0  0  0  0
   -0.3990   -4.4580   -2.9650 H   0  0  0  0  0  0  0  0  0  0  0  0
   -1.8410   -4.2740   -1.0400 H   0  0  0  0  0  0  0  0  0  0  0  0
   -2.6790   -4.1190   -2.5860 H   0  0  0  0  0  0  0  0  0  0  0  0
   -2.8320   -1.6840   -2.2660 H   0  0  0  0  0  0  0  0  0  0  0  0
   -1.6540   -1.9890    0.5220 H   0  0  0  0  0  0  0  0  0  0  0  0
  1  2  1  0  0  0  0
  2 12  1  1  0  0  0
  2  3  1  0  0  0  0
  3  4  1  0  0  0  0
  3 13  1  0  0  0  0
  4 16  1  0  0  0  0
  4 15  1  0  0  0  0
  5  9  1  0  0  0  0
  5  4  1  0  0  0  0
  6  5  2  0  0  0  0
  7  2  1  0  0  0  0
  8  7  2  0  0  0  0
 10  1  1  0  0  0  0
 11  1  1  0  0  0  0
 14  3  1  0  0  0  0
 17  9  1  0  0  0  0
 18 19  1  0  0  0  0
 19 20  1  0  0  0  0
 20 21  2  0  0  0  0
 20 31  1  0  0  0  0
 21 32  1  0  0  0  0
 22 23  1  0  0  0  0
 22 21  1  0  0  0  0
 23 24  1  0  0  0  0
 23 34  1  0  0  0  0
 24 35  1  1  0  0  0
 24 25  1  0  0  0  0
 25 36  1  0  0  0  0
 25  7  1  0  0  0  0
 26 45  1  0  0  0  0
 26 24  1  0  0  0  0
 27 26  2  0  0  0  0
 28 22  2  0  0  0  0
 29 28  1  0  0  0  0
 29 19  2  0  0  0  0
 30 18  1  0  0  0  0
 33 23  1  0  0  0  0
 37 28  1  0  0  0  0
 38 29  1  0  0  0  0
 39 50  1  0  0  0  0
 39 40  1  0  0  0  0
 40 42  1  0  0  0  0
 41 40  2  0  0  0  0
 42 51  1  0  0  0  0
 42 43  1  0  0  0  0
 43 44  1  0  0  0  0
 43 53  1  0  0  0  0
 44 55  1  6  0  0  0
 44 46  1  0  0  0  0
 44 45  1  0  0  0  0
 45 56  1  0  0  0  0
 46 47  1  0  0  0  0
 48 46  2  0  0  0  0
 49 39  1  0  0  0  0
 52 42  1  0  0  0  0
 54 43  1  0  0  0  0
M  END
$$$$
