EYS.pdb
 OpenBabel07022418213D

 50 50  0  0  1  0  0  0  0  0999 V2000
    3.5340   -0.9500    2.8730 N   0  0  0  0  0  0  0  0  0  0  0  0
    2.5600   -0.2200    3.6200 C   0  0  1  0  0  0  0  0  0  0  0  0
    2.9620    1.1510    4.0330 C   0  0  0  0  0  0  0  0  0  0  0  0
    4.1640    1.2560    4.9000 C   0  0  0  0  0  0  0  0  0  0  0  0
    5.4100    0.7330    4.3430 C   0  0  0  0  0  0  0  0  0  0  0  0
    5.6660   -0.4980    4.4060 O   0  0  0  0  0  0  0  0  0  0  0  0
    1.3180   -0.0770    2.7790 C   0  0  0  0  0  0  0  0  0  0  0  0
    0.3170    0.5480    3.2540 O   0  0  0  0  0  0  0  0  0  0  0  0
    6.3540    1.5600    3.7260 O   0  0  0  0  0  0  0  0  0  0  0  0
    3.1320   -1.8730    2.6110 H   0  0  0  0  0  0  0  0  0  0  0  0
    3.7360   -0.4490    1.9670 H   0  0  0  0  0  0  0  0  0  0  0  0
    2.2660   -0.8250    4.5150 H   0  0  0  0  0  0  0  0  0  0  0  0
    2.0990    1.5650    4.6330 H   0  0  0  0  0  0  0  0  0  0  0  0
    3.0400    1.8500    3.1670 H   0  0  0  0  0  0  0  0  0  0  0  0
    3.9760    0.8410    5.9290 H   0  0  0  0  0  0  0  0  0  0  0  0
    4.3260    2.3570    5.0900 H   0  0  0  0  0  0  0  0  0  0  0  0
    7.0470    1.1140    3.1430 H   0  0  0  0  0  0  0  0  0  0  0  0
   -3.9810    1.5230   -4.1350 O   0  0  0  0  0  0  0  0  0  0  0  0
   -2.9500    1.2260   -3.2430 C   0  0  0  0  0  0  0  0  0  0  0  0
   -2.6870    2.0090   -2.1390 C   0  0  0  0  0  0  0  0  0  0  0  0
   -1.6880    1.7540   -1.2400 C   0  0  0  0  0  0  0  0  0  0  0  0
   -0.8670    0.6430   -1.4200 C   0  0  0  0  0  0  0  0  0  0  0  0
    0.2400    0.3350   -0.5220 C   0  0  0  0  0  0  0  0  0  0  0  0
   -0.0600   -0.4140    0.7250 C   0  0  2  0  0  0  0  0  0  0  0  0
    1.2120   -0.6050    1.4860 N   0  0  0  0  0  0  0  0  0  0  0  0
   -0.5270   -1.7790    0.4420 C   0  0  0  0  0  0  0  0  0  0  0  0
    0.2290   -2.7930    0.6960 O   0  0  0  0  0  0  0  0  0  0  0  0
   -1.1190   -0.1500   -2.5200 C   0  0  0  0  0  0  0  0  0  0  0  0
   -2.1310    0.1310   -3.4070 C   0  0  0  0  0  0  0  0  0  0  0  0
   -4.0320    2.4940   -4.4510 H   0  0  0  0  0  0  0  0  0  0  0  0
   -3.3560    2.8760   -2.0310 H   0  0  0  0  0  0  0  0  0  0  0  0
   -1.5310    2.3940   -0.4050 H   0  0  0  0  0  0  0  0  0  0  0  0
    1.0480   -0.1360   -1.1300 H   0  0  0  0  0  0  0  0  0  0  0  0
    0.6720    1.3300   -0.1960 H   0  0  0  0  0  0  0  0  0  0  0  0
   -0.7670    0.1610    1.3610 H   0  0  0  0  0  0  0  0  0  0  0  0
    2.0050   -1.1230    1.0550 H   0  0  0  0  0  0  0  0  0  0  0  0
   -0.4830   -1.0390   -2.6910 H   0  0  0  0  0  0  0  0  0  0  0  0
   -2.3230   -0.5030   -4.2770 H   0  0  0  0  0  0  0  0  0  0  0  0
   -2.8620   -3.7920    1.9410 O   0  0  0  0  0  0  0  0  0  0  0  0
   -3.2920   -3.9130    0.6190 C   0  0  0  0  0  0  0  0  0  0  0  0
   -2.1790   -3.4980   -0.3390 C   0  0  2  0  0  0  0  0  0  0  0  0
   -1.7970   -2.1230   -0.1060 N   0  0  0  0  0  0  0  0  0  0  0  0
   -2.5780   -3.8200   -1.7060 C   0  0  0  0  0  0  0  0  0  0  0  0
   -2.6090   -2.9700   -2.6210 O   0  0  0  0  0  0  0  0  0  0  0  0
   -2.9490   -5.1150   -2.0620 O   0  0  0  0  0  0  0  0  0  0  0  0
   -3.5070   -3.2850    2.5090 H   0  0  0  0  0  0  0  0  0  0  0  0
   -4.1920   -3.2770    0.4830 H   0  0  0  0  0  0  0  0  0  0  0  0
   -3.5120   -4.9780    0.4180 H   0  0  0  0  0  0  0  0  0  0  0  0
   -1.2910   -4.1320   -0.0690 H   0  0  0  0  0  0  0  0  0  0  0  0
   -2.4510   -1.3350   -0.3230 H   0  0  0  0  0  0  0  0  0  0  0  0
  1  2  1  0  0  0  0
  2  3  1  0  0  0  0
  2 12  1  1  0  0  0
  3 13  1  0  0  0  0
  3  4  1  0  0  0  0
  4 16  1  0  0  0  0
  4 15  1  0  0  0  0
  5  6  2  0  0  0  0
  5  4  1  0  0  0  0
  7  8  2  0  0  0  0
  7  2  1  0  0  0  0
  9  5  1  0  0  0  0
 10  1  1  0  0  0  0
 11  1  1  0  0  0  0
 14  3  1  0  0  0  0
 17  9  1  0  0  0  0
 18 19  1  0  0  0  0
 19 20  1  0  0  0  0
 20 31  1  0  0  0  0
 20 21  2  0  0  0  0
 21 32  1  0  0  0  0
 22 21  1  0  0  0  0
 22 23  1  0  0  0  0
 23 34  1  0  0  0  0
 23 24  1  0  0  0  0
 24 35  1  1  0  0  0
 24 25  1  0  0  0  0
 25  7  1  0  0  0  0
 26 27  2  0  0  0  0
 26 24  1  0  0  0  0
 28 22  2  0  0  0  0
 29 19  2  0  0  0  0
 29 28  1  0  0  0  0
 30 18  1  0  0  0  0
 33 23  1  0  0  0  0
 36 25  1  0  0  0  0
 37 28  1  0  0  0  0
 38 29  1  0  0  0  0
 39 46  1  0  0  0  0
 40 39  1  0  0  0  0
 41 42  1  0  0  0  0
 41 49  1  1  0  0  0
 41 40  1  0  0  0  0
 42 26  1  0  0  0  0
 43 41  1  0  0  0  0
 44 43  2  0  0  0  0
 45 43  1  0  0  0  0
 47 40  1  0  0  0  0
 48 40  1  0  0  0  0
 50 42  1  0  0  0  0
M  END
$$$$
