EYW.pdb
 OpenBabel07022418213D

 63 65  0  0  1  0  0  0  0  0999 V2000
   -0.5360   -1.5830    5.1150 N   0  0  0  0  0  0  0  0  0  0  0  0
    0.0420   -0.6250    4.1350 C   0  0  1  0  0  0  0  0  0  0  0  0
    1.4980   -0.9410    4.1110 C   0  0  0  0  0  0  0  0  0  0  0  0
    2.3570   -0.1320    3.2150 C   0  0  0  0  0  0  0  0  0  0  0  0
    2.3350    1.2940    3.5580 C   0  0  0  0  0  0  0  0  0  0  0  0
    1.6530    1.6850    4.5300 O   0  0  0  0  0  0  0  0  0  0  0  0
   -0.6560   -0.8220    2.8380 C   0  0  0  0  0  0  0  0  0  0  0  0
   -1.4970   -1.7680    2.7190 O   0  0  0  0  0  0  0  0  0  0  0  0
    3.0490    2.2330    2.8350 O   0  0  0  0  0  0  0  0  0  0  0  0
   -0.7130   -2.4530    4.5330 H   0  0  0  0  0  0  0  0  0  0  0  0
   -1.4300   -1.2000    5.4950 H   0  0  0  0  0  0  0  0  0  0  0  0
   -0.2260    0.3630    4.5500 H   0  0  0  0  0  0  0  0  0  0  0  0
    1.6250   -2.0350    3.9640 H   0  0  0  0  0  0  0  0  0  0  0  0
    1.8700   -0.7570    5.1640 H   0  0  0  0  0  0  0  0  0  0  0  0
    2.2340   -0.3550    2.1360 H   0  0  0  0  0  0  0  0  0  0  0  0
    3.4290   -0.4630    3.4190 H   0  0  0  0  0  0  0  0  0  0  0  0
    3.2410    3.1200    3.2990 H   0  0  0  0  0  0  0  0  0  0  0  0
    0.7430    5.7490   -0.3710 O   0  0  0  0  0  0  0  0  0  0  0  0
    0.0580    4.5480   -0.3030 C   0  0  0  0  0  0  0  0  0  0  0  0
   -0.4460    4.1860    0.9330 C   0  0  0  0  0  0  0  0  0  0  0  0
   -1.1380    2.9850    1.0280 C   0  0  0  0  0  0  0  0  0  0  0  0
   -1.3290    2.1640   -0.0610 C   0  0  0  0  0  0  0  0  0  0  0  0
   -2.0690    0.9040    0.0980 C   0  0  0  0  0  0  0  0  0  0  0  0
   -1.1730   -0.2650    0.4470 C   0  0  2  0  0  0  0  0  0  0  0  0
   -0.4630   -0.0250    1.6870 N   0  0  0  0  0  0  0  0  0  0  0  0
   -0.2920   -0.6530   -0.6530 C   0  0  0  0  0  0  0  0  0  0  0  0
    0.9530   -0.7180   -0.5050 O   0  0  0  0  0  0  0  0  0  0  0  0
   -0.8060    2.5760   -1.2610 C   0  0  0  0  0  0  0  0  0  0  0  0
   -0.1100    3.7570   -1.4160 C   0  0  0  0  0  0  0  0  0  0  0  0
    0.1830    6.6140   -0.3450 H   0  0  0  0  0  0  0  0  0  0  0  0
   -0.2990    4.8280    1.7940 H   0  0  0  0  0  0  0  0  0  0  0  0
   -1.5180    2.7340    2.0070 H   0  0  0  0  0  0  0  0  0  0  0  0
   -2.5350    0.6620   -0.8820 H   0  0  0  0  0  0  0  0  0  0  0  0
   -2.9020    0.9650    0.8230 H   0  0  0  0  0  0  0  0  0  0  0  0
   -1.8890   -1.1150    0.6650 H   0  0  0  0  0  0  0  0  0  0  0  0
    0.1960    0.7660    1.7070 H   0  0  0  0  0  0  0  0  0  0  0  0
   -0.9510    1.9420   -2.1100 H   0  0  0  0  0  0  0  0  0  0  0  0
    0.3090    4.0970   -2.3520 H   0  0  0  0  0  0  0  0  0  0  0  0
   -0.8530   -0.9660   -1.9220 N   0  0  0  0  0  0  0  0  0  0  0  0
    0.0010   -1.3530   -3.0060 C   0  0  1  0  0  0  0  0  0  0  0  0
   -0.1690   -2.8380   -3.2850 C   0  0  0  0  0  0  0  0  0  0  0  0
    0.1680   -3.6970   -2.1270 C   0  0  0  0  0  0  0  0  0  0  0  0
    1.3960   -4.3480   -1.9260 C   0  0  0  0  0  0  0  0  0  0  0  0
    1.3610   -5.0060   -0.7750 N   0  0  0  0  0  0  0  0  0  0  0  0
    0.1720   -4.8460   -0.1640 C   0  0  0  0  0  0  0  0  0  0  0  0
   -0.3280   -5.3330    1.0250 C   0  0  0  0  0  0  0  0  0  0  0  0
   -1.6110   -5.0150    1.4180 C   0  0  0  0  0  0  0  0  0  0  0  0
   -2.3570   -4.2070    0.5860 C   0  0  0  0  0  0  0  0  0  0  0  0
   -1.8590   -3.7120   -0.6150 C   0  0  0  0  0  0  0  0  0  0  0  0
   -0.5770   -4.0300   -1.0050 C   0  0  0  0  0  0  0  0  0  0  0  0
   -0.2220   -0.6030   -4.2570 C   0  0  0  0  0  0  0  0  0  0  0  0
    0.4790   -0.8530   -5.2640 O   0  0  0  0  0  0  0  0  0  0  0  0
   -1.1920    0.3680   -4.3210 O   0  0  0  0  0  0  0  0  0  0  0  0
   -1.9110   -0.9010   -2.0350 H   0  0  0  0  0  0  0  0  0  0  0  0
    1.0760   -1.2640   -2.6690 H   0  0  0  0  0  0  0  0  0  0  0  0
   -1.2380   -3.0420   -3.5600 H   0  0  0  0  0  0  0  0  0  0  0  0
    0.4300   -3.1410   -4.1670 H   0  0  0  0  0  0  0  0  0  0  0  0
    2.2340   -4.3100   -2.6140 H   0  0  0  0  0  0  0  0  0  0  0  0
    2.1590   -5.5710   -0.3990 H   0  0  0  0  0  0  0  0  0  0  0  0
    0.2380   -5.9680    1.6940 H   0  0  0  0  0  0  0  0  0  0  0  0
   -2.0470   -5.3760    2.3490 H   0  0  0  0  0  0  0  0  0  0  0  0
   -3.3830   -3.9130    0.8320 H   0  0  0  0  0  0  0  0  0  0  0  0
   -2.4450   -3.0930   -1.2650 H   0  0  0  0  0  0  0  0  0  0  0  0
  1 11  1  0  0  0  0
  2 12  1  1  0  0  0
  2  1  1  0  0  0  0
  3  2  1  0  0  0  0
  3 14  1  0  0  0  0
  4 16  1  0  0  0  0
  4  5  1  0  0  0  0
  4  3  1  0  0  0  0
  5  6  2  0  0  0  0
  7  2  1  0  0  0  0
  8  7  2  0  0  0  0
  9 17  1  0  0  0  0
  9  5  1  0  0  0  0
 10  1  1  0  0  0  0
 13  3  1  0  0  0  0
 15  4  1  0  0  0  0
 18 30  1  0  0  0  0
 18 19  1  0  0  0  0
 19 20  1  0  0  0  0
 20 21  2  0  0  0  0
 20 31  1  0  0  0  0
 21 32  1  0  0  0  0
 22 23  1  0  0  0  0
 22 21  1  0  0  0  0
 23 24  1  0  0  0  0
 23 34  1  0  0  0  0
 24 35  1  1  0  0  0
 24 25  1  0  0  0  0
 25 36  1  0  0  0  0
 25  7  1  0  0  0  0
 26 27  2  0  0  0  0
 26 24  1  0  0  0  0
 28 22  2  0  0  0  0
 29 28  1  0  0  0  0
 29 19  2  0  0  0  0
 33 23  1  0  0  0  0
 37 28  1  0  0  0  0
 38 29  1  0  0  0  0
 39 26  1  0  0  0  0
 40 55  1  1  0  0  0
 40 39  1  0  0  0  0
 41 40  1  0  0  0  0
 41 42  1  0  0  0  0
 42 43  2  0  0  0  0
 42 50  1  0  0  0  0
 43 44  1  0  0  0  0
 44 59  1  0  0  0  0
 44 45  1  0  0  0  0
 45 46  1  0  0  0  0
 46 47  2  0  0  0  0
 46 60  1  0  0  0  0
 47 61  1  0  0  0  0
 48 62  1  0  0  0  0
 48 47  1  0  0  0  0
 49 48  2  0  0  0  0
 50 49  1  0  0  0  0
 50 45  2  0  0  0  0
 51 40  1  0  0  0  0
 52 51  2  0  0  0  0
 53 51  1  0  0  0  0
 54 39  1  0  0  0  0
 56 41  1  0  0  0  0
 57 41  1  0  0  0  0
 58 43  1  0  0  0  0
 63 49  1  0  0  0  0
M  END
$$$$
