FAA.pdb
 OpenBabel07022418573D

 42 42  0  0  1  0  0  0  0  0999 V2000
    2.4450   -4.8890    0.6120 N   0  0  0  0  0  0  0  0  0  0  0  0
    2.4310   -3.4080    0.4680 C   0  0  1  0  0  0  0  0  0  0  0  0
    2.4370   -3.1090   -0.9790 C   0  0  0  0  0  0  0  0  0  0  0  0
    2.4340   -1.7000   -1.3870 C   0  0  0  0  0  0  0  0  0  0  0  0
    3.5920   -0.9600   -1.5270 C   0  0  0  0  0  0  0  0  0  0  0  0
    3.5600    0.3430   -1.9400 C   0  0  0  0  0  0  0  0  0  0  0  0
    2.3850    1.0050   -2.2440 C   0  0  0  0  0  0  0  0  0  0  0  0
    1.2380    0.2560   -2.1010 C   0  0  0  0  0  0  0  0  0  0  0  0
    1.2430   -1.0520   -1.6870 C   0  0  0  0  0  0  0  0  0  0  0  0
    1.3230   -2.8620    1.2660 C   0  0  0  0  0  0  0  0  0  0  0  0
    0.4890   -3.6840    1.7660 O   0  0  0  0  0  0  0  0  0  0  0  0
    1.5950   -5.2910    0.1570 H   0  0  0  0  0  0  0  0  0  0  0  0
    2.4520   -5.0540    1.6470 H   0  0  0  0  0  0  0  0  0  0  0  0
    3.4330   -3.1040    0.8930 H   0  0  0  0  0  0  0  0  0  0  0  0
    1.5660   -3.5910   -1.4870 H   0  0  0  0  0  0  0  0  0  0  0  0
    3.3370   -3.6020   -1.4220 H   0  0  0  0  0  0  0  0  0  0  0  0
    4.5340   -1.4310   -1.3020 H   0  0  0  0  0  0  0  0  0  0  0  0
    4.4710    0.9480   -2.0570 H   0  0  0  0  0  0  0  0  0  0  0  0
    2.3820    2.0350   -2.5700 H   0  0  0  0  0  0  0  0  0  0  0  0
    0.2870    0.7440   -2.3310 H   0  0  0  0  0  0  0  0  0  0  0  0
    0.3150   -1.6320   -1.5790 H   0  0  0  0  0  0  0  0  0  0  0  0
    0.5810   -0.4410    3.6360 C   0  0  0  0  0  0  0  0  0  0  0  0
   -0.0100   -1.0250    2.3410 C   0  0  2  0  0  0  0  0  0  0  0  0
    1.1130   -1.4850    1.5260 N   0  0  0  0  0  0  0  0  0  0  0  0
   -0.7630    0.0810    1.7200 C   0  0  0  0  0  0  0  0  0  0  0  0
   -0.4460    0.5650    0.6060 O   0  0  0  0  0  0  0  0  0  0  0  0
   -0.1200    0.2180    4.1440 H   0  0  0  0  0  0  0  0  0  0  0  0
    1.4930    0.1250    3.2990 H   0  0  0  0  0  0  0  0  0  0  0  0
    0.9470   -1.2890    4.2180 H   0  0  0  0  0  0  0  0  0  0  0  0
   -0.6410   -1.8540    2.6700 H   0  0  0  0  0  0  0  0  0  0  0  0
    1.7860   -0.8040    1.1230 H   0  0  0  0  0  0  0  0  0  0  0  0
   -4.0870    1.3430    1.6060 C   0  0  0  0  0  0  0  0  0  0  0  0
   -2.6350    1.7590    1.7290 C   0  0  2  0  0  0  0  0  0  0  0  0
   -1.9030    0.6680    2.3550 N   0  0  0  0  0  0  0  0  0  0  0  0
   -2.6010    2.9790    2.5890 C   0  0  0  0  0  0  0  0  0  0  0  0
   -3.1660    4.0440    2.2530 O   0  0  0  0  0  0  0  0  0  0  0  0
   -1.9290    2.9300    3.7880 O   0  0  0  0  0  0  0  0  0  0  0  0
   -4.7740    2.1010    2.0440 H   0  0  0  0  0  0  0  0  0  0  0  0
   -4.2570    0.3540    2.0870 H   0  0  0  0  0  0  0  0  0  0  0  0
   -4.3270    1.3110    0.5220 H   0  0  0  0  0  0  0  0  0  0  0  0
   -2.2090    2.0440    0.7620 H   0  0  0  0  0  0  0  0  0  0  0  0
   -2.1750    0.2750    3.2790 H   0  0  0  0  0  0  0  0  0  0  0  0
  1 13  1  0  0  0  0
  2  1  1  0  0  0  0
  2 14  1  1  0  0  0
  2 10  1  0  0  0  0
  3  2  1  0  0  0  0
  4  3  1  0  0  0  0
  5  4  1  0  0  0  0
  5 17  1  0  0  0  0
  6  5  2  0  0  0  0
  7  8  2  0  0  0  0
  7  6  1  0  0  0  0
  8  9  1  0  0  0  0
  9 21  1  0  0  0  0
  9  4  2  0  0  0  0
 10 24  1  0  0  0  0
 10 11  2  0  0  0  0
 12  1  1  0  0  0  0
 15  3  1  0  0  0  0
 16  3  1  0  0  0  0
 18  6  1  0  0  0  0
 19  7  1  0  0  0  0
 20  8  1  0  0  0  0
 22 27  1  0  0  0  0
 22 29  1  0  0  0  0
 23 30  1  1  0  0  0
 23 22  1  0  0  0  0
 24 23  1  0  0  0  0
 25 23  1  0  0  0  0
 25 34  1  0  0  0  0
 26 25  2  0  0  0  0
 28 22  1  0  0  0  0
 31 24  1  0  0  0  0
 32 33  1  0  0  0  0
 32 38  1  0  0  0  0
 32 39  1  0  0  0  0
 33 41  1  6  0  0  0
 33 34  1  0  0  0  0
 33 35  1  0  0  0  0
 34 42  1  0  0  0  0
 35 37  1  0  0  0  0
 36 35  2  0  0  0  0
 40 32  1  0  0  0  0
M  END
$$$$
