FAC.pdb
 OpenBabel07022418573D

 43 43  0  0  1  0  0  0  0  0999 V2000
    2.4530   -3.4530    0.1580 N   0  0  0  0  0  0  0  0  0  0  0  0
    2.3150   -2.0000    0.0670 C   0  0  1  0  0  0  0  0  0  0  0  0
    1.5040   -1.7300   -1.1860 C   0  0  0  0  0  0  0  0  0  0  0  0
    2.1650   -2.2470   -2.3960 C   0  0  0  0  0  0  0  0  0  0  0  0
    1.9350   -3.5220   -2.8500 C   0  0  0  0  0  0  0  0  0  0  0  0
    2.5330   -4.0360   -3.9750 C   0  0  0  0  0  0  0  0  0  0  0  0
    3.4060   -3.2610   -4.6990 C   0  0  0  0  0  0  0  0  0  0  0  0
    3.6600   -1.9760   -4.2720 C   0  0  0  0  0  0  0  0  0  0  0  0
    3.0380   -1.4720   -3.1220 C   0  0  0  0  0  0  0  0  0  0  0  0
    1.5810   -1.5760    1.2870 C   0  0  0  0  0  0  0  0  0  0  0  0
    1.1900   -2.3710    2.1750 O   0  0  0  0  0  0  0  0  0  0  0  0
    3.2120   -3.7370    0.8090 H   0  0  0  0  0  0  0  0  0  0  0  0
    1.5400   -3.8010    0.5320 H   0  0  0  0  0  0  0  0  0  0  0  0
    3.3110   -1.5230    0.0040 H   0  0  0  0  0  0  0  0  0  0  0  0
    0.4700   -2.1160   -1.0980 H   0  0  0  0  0  0  0  0  0  0  0  0
    1.3870   -0.6070   -1.2240 H   0  0  0  0  0  0  0  0  0  0  0  0
    1.2440   -4.1890   -2.3100 H   0  0  0  0  0  0  0  0  0  0  0  0
    2.3450   -5.0400   -4.3210 H   0  0  0  0  0  0  0  0  0  0  0  0
    3.8950   -3.6570   -5.6030 H   0  0  0  0  0  0  0  0  0  0  0  0
    4.3470   -1.3540   -4.8350 H   0  0  0  0  0  0  0  0  0  0  0  0
    3.2450   -0.4690   -2.8000 H   0  0  0  0  0  0  0  0  0  0  0  0
    1.4140    1.2450    3.4700 C   0  0  0  0  0  0  0  0  0  0  0  0
    0.5670    0.2710    2.6830 C   0  0  2  0  0  0  0  0  0  0  0  0
    1.2830   -0.1890    1.5020 N   0  0  0  0  0  0  0  0  0  0  0  0
   -0.6970    0.8900    2.2130 C   0  0  0  0  0  0  0  0  0  0  0  0
   -0.9820    0.9460    0.9920 O   0  0  0  0  0  0  0  0  0  0  0  0
    0.8040    1.7960    4.1980 H   0  0  0  0  0  0  0  0  0  0  0  0
    1.9700    1.9010    2.7780 H   0  0  0  0  0  0  0  0  0  0  0  0
    2.1470    0.6330    4.0510 H   0  0  0  0  0  0  0  0  0  0  0  0
    0.3040   -0.5710    3.3500 H   0  0  0  0  0  0  0  0  0  0  0  0
    1.6120    0.4630    0.7590 H   0  0  0  0  0  0  0  0  0  0  0  0
   -1.6500    1.4530    3.1140 N   0  0  0  0  0  0  0  0  0  0  0  0
   -2.8840    2.0610    2.6990 C   0  0  1  0  0  0  0  0  0  0  0  0
   -4.0100    1.2050    3.2940 C   0  0  0  0  0  0  0  0  0  0  0  0
   -3.9020    1.1690    5.0840 S   0  0  0  0  0  0  0  0  0  0  0  0
   -3.0040    3.4640    3.1680 C   0  0  0  0  0  0  0  0  0  0  0  0
   -2.0590    3.9390    3.8430 O   0  0  0  0  0  0  0  0  0  0  0  0
   -4.0910    4.2770    2.9070 O   0  0  0  0  0  0  0  0  0  0  0  0
   -1.4100    1.4050    4.1280 H   0  0  0  0  0  0  0  0  0  0  0  0
   -3.0420    2.0610    1.6200 H   0  0  0  0  0  0  0  0  0  0  0  0
   -3.8610    0.1760    2.9080 H   0  0  0  0  0  0  0  0  0  0  0  0
   -4.9850    1.5680    2.9110 H   0  0  0  0  0  0  0  0  0  0  0  0
   -4.6830    0.0980    5.5650 H   0  0  0  0  0  0  0  0  0  0  0  0
  1 13  1  0  0  0  0
  1 12  1  0  0  0  0
  2 14  1  6  0  0  0
  2  1  1  0  0  0  0
  2 10  1  0  0  0  0
  3 15  1  0  0  0  0
  3  2  1  0  0  0  0
  4  3  1  0  0  0  0
  5  4  1  0  0  0  0
  5 17  1  0  0  0  0
  6  5  2  0  0  0  0
  7  8  2  0  0  0  0
  7  6  1  0  0  0  0
  8  9  1  0  0  0  0
  9 21  1  0  0  0  0
  9  4  2  0  0  0  0
 10 24  1  0  0  0  0
 10 11  2  0  0  0  0
 16  3  1  0  0  0  0
 18  6  1  0  0  0  0
 19  7  1  0  0  0  0
 20  8  1  0  0  0  0
 22 29  1  0  0  0  0
 22 27  1  0  0  0  0
 23 30  1  1  0  0  0
 23 22  1  0  0  0  0
 24 23  1  0  0  0  0
 25 23  1  0  0  0  0
 25 32  1  0  0  0  0
 26 25  2  0  0  0  0
 28 22  1  0  0  0  0
 31 24  1  0  0  0  0
 32 39  1  0  0  0  0
 33 40  1  6  0  0  0
 33 32  1  0  0  0  0
 33 36  1  0  0  0  0
 33 34  1  0  0  0  0
 34 35  1  0  0  0  0
 35 43  1  0  0  0  0
 36 37  1  0  0  0  0
 38 36  2  0  0  0  0
 41 34  1  0  0  0  0
 42 34  1  0  0  0  0
M  END
$$$$
