FAD.pdb
 OpenBabel07022418573D

 45 45  0  0  1  0  0  0  0  0999 V2000
    1.1500   -1.2850    4.5150 N   0  0  0  0  0  0  0  0  0  0  0  0
   -0.1280   -1.0720    3.9100 C   0  0  1  0  0  0  0  0  0  0  0  0
   -0.9330   -0.2090    4.8570 C   0  0  0  0  0  0  0  0  0  0  0  0
   -2.2900    0.1060    4.3740 C   0  0  0  0  0  0  0  0  0  0  0  0
   -3.3560   -0.7230    4.6480 C   0  0  0  0  0  0  0  0  0  0  0  0
   -4.6400   -0.4380    4.2070 C   0  0  0  0  0  0  0  0  0  0  0  0
   -4.8790    0.7130    3.4660 C   0  0  0  0  0  0  0  0  0  0  0  0
   -3.8180    1.5430    3.1910 C   0  0  0  0  0  0  0  0  0  0  0  0
   -2.5320    1.2450    3.6400 C   0  0  0  0  0  0  0  0  0  0  0  0
   -0.1150   -0.5910    2.5430 C   0  0  0  0  0  0  0  0  0  0  0  0
   -1.2100   -0.4380    1.9460 O   0  0  0  0  0  0  0  0  0  0  0  0
    1.0600   -1.3670    5.5520 H   0  0  0  0  0  0  0  0  0  0  0  0
    1.6780   -2.0880    4.1790 H   0  0  0  0  0  0  0  0  0  0  0  0
   -0.6620   -2.0700    3.9060 H   0  0  0  0  0  0  0  0  0  0  0  0
   -0.3330    0.7300    5.0160 H   0  0  0  0  0  0  0  0  0  0  0  0
   -0.9830   -0.6790    5.8750 H   0  0  0  0  0  0  0  0  0  0  0  0
   -3.2450   -1.6440    5.2240 H   0  0  0  0  0  0  0  0  0  0  0  0
   -5.4630   -1.1020    4.4320 H   0  0  0  0  0  0  0  0  0  0  0  0
   -5.8660    0.9610    3.1090 H   0  0  0  0  0  0  0  0  0  0  0  0
   -4.0010    2.4500    2.6070 H   0  0  0  0  0  0  0  0  0  0  0  0
   -1.7620    1.9560    3.3750 H   0  0  0  0  0  0  0  0  0  0  0  0
    1.5470    1.6150    0.2930 C   0  0  0  0  0  0  0  0  0  0  0  0
    0.9890    0.2090    0.4280 C   0  0  2  0  0  0  0  0  0  0  0  0
    1.0610   -0.2640    1.7890 N   0  0  0  0  0  0  0  0  0  0  0  0
    1.7120   -0.7160   -0.4790 C   0  0  0  0  0  0  0  0  0  0  0  0
    2.2590   -1.7270    0.0280 O   0  0  0  0  0  0  0  0  0  0  0  0
    1.2840    1.9510   -0.7280 H   0  0  0  0  0  0  0  0  0  0  0  0
    2.6160    1.6720    0.5260 H   0  0  0  0  0  0  0  0  0  0  0  0
    0.9770    2.2510    1.0170 H   0  0  0  0  0  0  0  0  0  0  0  0
   -0.0560    0.2730    0.0600 H   0  0  0  0  0  0  0  0  0  0  0  0
    1.9560   -0.3940    2.2930 H   0  0  0  0  0  0  0  0  0  0  0  0
    1.8050   -0.5000   -1.8800 N   0  0  0  0  0  0  0  0  0  0  0  0
    2.5320   -1.4340   -2.7710 C   0  0  1  0  0  0  0  0  0  0  0  0
    1.5770   -2.0490   -3.7440 C   0  0  0  0  0  0  0  0  0  0  0  0
    2.1630   -3.0230   -4.6660 C   0  0  0  0  0  0  0  0  0  0  0  0
    3.3420   -3.3900   -4.5990 O   0  0  0  0  0  0  0  0  0  0  0  0
    3.6510   -0.7080   -3.4180 C   0  0  0  0  0  0  0  0  0  0  0  0
    4.4810   -1.1730   -4.2160 O   0  0  0  0  0  0  0  0  0  0  0  0
    1.3160   -3.5470   -5.6650 O   0  0  0  0  0  0  0  0  0  0  0  0
    3.7860    0.6600   -3.0890 O   0  0  0  0  0  0  0  0  0  0  0  0
    1.3360    0.3500   -2.2630 H   0  0  0  0  0  0  0  0  0  0  0  0
    2.9460   -2.2180   -2.1190 H   0  0  0  0  0  0  0  0  0  0  0  0
    0.7090   -2.5310   -3.2520 H   0  0  0  0  0  0  0  0  0  0  0  0
    1.1990   -1.1980   -4.3870 H   0  0  0  0  0  0  0  0  0  0  0  0
    1.6770   -4.3910   -6.1320 H   0  0  0  0  0  0  0  0  0  0  0  0
  1 12  1  0  0  0  0
  2 14  1  6  0  0  0
  2  1  1  0  0  0  0
  2  3  1  0  0  0  0
  3 15  1  0  0  0  0
  3 16  1  0  0  0  0
  4  5  1  0  0  0  0
  4  3  1  0  0  0  0
  5 17  1  0  0  0  0
  6 18  1  0  0  0  0
  6  5  2  0  0  0  0
  7  6  1  0  0  0  0
  8  7  2  0  0  0  0
  8  9  1  0  0  0  0
  9  4  2  0  0  0  0
 10  2  1  0  0  0  0
 11 10  2  0  0  0  0
 13  1  1  0  0  0  0
 19  7  1  0  0  0  0
 20  8  1  0  0  0  0
 21  9  1  0  0  0  0
 22 23  1  0  0  0  0
 22 28  1  0  0  0  0
 22 29  1  0  0  0  0
 23 30  1  6  0  0  0
 23 24  1  0  0  0  0
 24 31  1  0  0  0  0
 24 10  1  0  0  0  0
 25 26  2  0  0  0  0
 25 23  1  0  0  0  0
 27 22  1  0  0  0  0
 32 25  1  0  0  0  0
 33 42  1  1  0  0  0
 33 32  1  0  0  0  0
 34 43  1  0  0  0  0
 34 33  1  0  0  0  0
 35 36  2  0  0  0  0
 35 34  1  0  0  0  0
 37 40  1  0  0  0  0
 37 33  1  0  0  0  0
 38 37  2  0  0  0  0
 39 35  1  0  0  0  0
 41 32  1  0  0  0  0
 44 34  1  0  0  0  0
 45 39  1  0  0  0  0
M  END
$$$$
