FAE.pdb
 OpenBabel07022418573D

 48 48  0  0  1  0  0  0  0  0999 V2000
    1.8230   -2.9860   -0.2100 N   0  0  0  0  0  0  0  0  0  0  0  0
    2.3710   -1.8800    0.5800 C   0  0  1  0  0  0  0  0  0  0  0  0
    3.7120   -1.5620   -0.0370 C   0  0  0  0  0  0  0  0  0  0  0  0
    4.4130   -0.4580    0.6360 C   0  0  0  0  0  0  0  0  0  0  0  0
    4.2750    0.8680    0.2270 C   0  0  0  0  0  0  0  0  0  0  0  0
    4.9200    1.9080    0.8420 C   0  0  0  0  0  0  0  0  0  0  0  0
    5.7430    1.6760    1.9090 C   0  0  0  0  0  0  0  0  0  0  0  0
    5.8980    0.3660    2.3350 C   0  0  0  0  0  0  0  0  0  0  0  0
    5.2540   -0.6750    1.7210 C   0  0  0  0  0  0  0  0  0  0  0  0
    1.4670   -0.7040    0.5130 C   0  0  0  0  0  0  0  0  0  0  0  0
    1.6820    0.3490    1.1520 O   0  0  0  0  0  0  0  0  0  0  0  0
    1.8180   -2.6500   -1.2100 H   0  0  0  0  0  0  0  0  0  0  0  0
    0.8580   -3.2250    0.0450 H   0  0  0  0  0  0  0  0  0  0  0  0
    2.4770   -2.2840    1.6120 H   0  0  0  0  0  0  0  0  0  0  0  0
    4.3290   -2.4840   -0.0730 H   0  0  0  0  0  0  0  0  0  0  0  0
    3.4880   -1.2280   -1.0910 H   0  0  0  0  0  0  0  0  0  0  0  0
    3.6280    1.0600   -0.6190 H   0  0  0  0  0  0  0  0  0  0  0  0
    4.7900    2.9230    0.5000 H   0  0  0  0  0  0  0  0  0  0  0  0
    6.2890    2.4300    2.4510 H   0  0  0  0  0  0  0  0  0  0  0  0
    6.5440    0.1580    3.1770 H   0  0  0  0  0  0  0  0  0  0  0  0
    5.3620   -1.7090    2.0410 H   0  0  0  0  0  0  0  0  0  0  0  0
   -0.5810    1.0430   -1.7750 C   0  0  0  0  0  0  0  0  0  0  0  0
   -0.6120    0.4170   -0.3760 C   0  0  2  0  0  0  0  0  0  0  0  0
    0.2760   -0.7010   -0.2960 N   0  0  0  0  0  0  0  0  0  0  0  0
   -2.0260    0.0760   -0.0320 C   0  0  0  0  0  0  0  0  0  0  0  0
   -2.8410    1.0110   -0.0710 O   0  0  0  0  0  0  0  0  0  0  0  0
   -1.5020    1.6230   -1.9880 H   0  0  0  0  0  0  0  0  0  0  0  0
   -0.5400    0.2140   -2.5160 H   0  0  0  0  0  0  0  0  0  0  0  0
    0.2730    1.7420   -1.8800 H   0  0  0  0  0  0  0  0  0  0  0  0
   -0.2330    1.2090    0.2990 H   0  0  0  0  0  0  0  0  0  0  0  0
    0.0680   -1.5780   -0.8480 H   0  0  0  0  0  0  0  0  0  0  0  0
   -2.3650   -1.2440    0.3120 N   0  0  0  0  0  0  0  0  0  0  0  0
   -3.6990   -1.6170    0.6660 C   0  0  1  0  0  0  0  0  0  0  0  0
   -4.5310   -0.5080    1.2910 C   0  0  0  0  0  0  0  0  0  0  0  0
   -3.9430   -0.0240    2.5740 C   0  0  0  0  0  0  0  0  0  0  0  0
   -3.9030   -1.1620    3.5610 C   0  0  0  0  0  0  0  0  0  0  0  0
   -2.8750   -1.8610    3.7020 O   0  0  0  0  0  0  0  0  0  0  0  0
   -4.4310   -2.3910   -0.3310 C   0  0  0  0  0  0  0  0  0  0  0  0
   -5.6040   -2.7480   -0.0780 O   0  0  0  0  0  0  0  0  0  0  0  0
   -5.0080   -1.4580    4.3360 O   0  0  0  0  0  0  0  0  0  0  0  0
   -3.9000   -2.7650   -1.5680 O   0  0  0  0  0  0  0  0  0  0  0  0
   -1.5980   -2.0130    0.3140 H   0  0  0  0  0  0  0  0  0  0  0  0
   -3.5640   -2.3130    1.5830 H   0  0  0  0  0  0  0  0  0  0  0  0
   -5.4950   -1.0430    1.5840 H   0  0  0  0  0  0  0  0  0  0  0  0
   -4.8640    0.2600    0.5940 H   0  0  0  0  0  0  0  0  0  0  0  0
   -2.9080    0.3110    2.4240 H   0  0  0  0  0  0  0  0  0  0  0  0
   -4.5840    0.7910    3.0130 H   0  0  0  0  0  0  0  0  0  0  0  0
   -5.0940   -2.4100    4.6570 H   0  0  0  0  0  0  0  0  0  0  0  0
  1 13  1  0  0  0  0
  1  2  1  0  0  0  0
  2 14  1  1  0  0  0
  3  2  1  0  0  0  0
  3  4  1  0  0  0  0
  4  9  1  0  0  0  0
  5  4  2  0  0  0  0
  5  6  1  0  0  0  0
  6  7  2  0  0  0  0
  7  8  1  0  0  0  0
  7 19  1  0  0  0  0
  8 20  1  0  0  0  0
  9 21  1  0  0  0  0
  9  8  2  0  0  0  0
 10  2  1  0  0  0  0
 10 11  2  0  0  0  0
 12  1  1  0  0  0  0
 15  3  1  0  0  0  0
 16  3  1  0  0  0  0
 17  5  1  0  0  0  0
 18  6  1  0  0  0  0
 22 23  1  0  0  0  0
 23 24  1  0  0  0  0
 23 25  1  0  0  0  0
 23 30  1  1  0  0  0
 24 10  1  0  0  0  0
 25 32  1  0  0  0  0
 26 25  2  0  0  0  0
 27 22  1  0  0  0  0
 28 22  1  0  0  0  0
 29 22  1  0  0  0  0
 31 24  1  0  0  0  0
 32 42  1  0  0  0  0
 32 33  1  0  0  0  0
 33 34  1  0  0  0  0
 33 43  1  1  0  0  0
 34 44  1  0  0  0  0
 34 35  1  0  0  0  0
 35 47  1  0  0  0  0
 35 36  1  0  0  0  0
 36 37  2  0  0  0  0
 36 40  1  0  0  0  0
 38 39  1  0  0  0  0
 38 33  1  0  0  0  0
 40 48  1  0  0  0  0
 41 38  2  0  0  0  0
 45 34  1  0  0  0  0
 46 35  1  0  0  0  0
M  END
$$$$
