FAF.pdb
 OpenBabel07022418583D

 52 53  0  0  1  0  0  0  0  0999 V2000
    3.3240    1.7950   -0.8940 N   0  0  0  0  0  0  0  0  0  0  0  0
    1.9390    1.4040   -0.7270 C   0  0  1  0  0  0  0  0  0  0  0  0
    1.7780   -0.0760   -1.1280 C   0  0  0  0  0  0  0  0  0  0  0  0
    2.6650   -0.9190   -0.2560 C   0  0  0  0  0  0  0  0  0  0  0  0
    3.9560   -1.2160   -0.6660 C   0  0  0  0  0  0  0  0  0  0  0  0
    4.7780   -1.9850    0.1320 C   0  0  0  0  0  0  0  0  0  0  0  0
    4.3610   -2.4850    1.3580 C   0  0  0  0  0  0  0  0  0  0  0  0
    3.0830   -2.1880    1.7590 C   0  0  0  0  0  0  0  0  0  0  0  0
    2.2740   -1.4240    0.9580 C   0  0  0  0  0  0  0  0  0  0  0  0
    1.4710    1.5370    0.6750 C   0  0  0  0  0  0  0  0  0  0  0  0
    2.2710    1.8240    1.5830 O   0  0  0  0  0  0  0  0  0  0  0  0
    3.4610    2.0180   -1.9050 H   0  0  0  0  0  0  0  0  0  0  0  0
    3.5080    2.6750   -0.3640 H   0  0  0  0  0  0  0  0  0  0  0  0
    1.3410    1.9760   -1.4480 H   0  0  0  0  0  0  0  0  0  0  0  0
    0.7370   -0.4020   -0.9490 H   0  0  0  0  0  0  0  0  0  0  0  0
    2.0360   -0.2040   -2.1990 H   0  0  0  0  0  0  0  0  0  0  0  0
    4.2770   -0.8230   -1.6240 H   0  0  0  0  0  0  0  0  0  0  0  0
    5.7850   -2.2020   -0.2150 H   0  0  0  0  0  0  0  0  0  0  0  0
    5.0300   -3.0900    1.9680 H   0  0  0  0  0  0  0  0  0  0  0  0
    2.7090   -2.5470    2.6920 H   0  0  0  0  0  0  0  0  0  0  0  0
    1.2790   -1.2030    1.3010 H   0  0  0  0  0  0  0  0  0  0  0  0
   -1.1390    2.7600    2.6100 C   0  0  0  0  0  0  0  0  0  0  0  0
   -0.3160    1.4850    2.4250 C   0  0  2  0  0  0  0  0  0  0  0  0
    0.1060    1.3480    1.0490 N   0  0  0  0  0  0  0  0  0  0  0  0
   -1.1190    0.3030    2.8020 C   0  0  0  0  0  0  0  0  0  0  0  0
   -1.5990    0.2010    3.9910 O   0  0  0  0  0  0  0  0  0  0  0  0
   -1.7790    2.9740    1.7490 H   0  0  0  0  0  0  0  0  0  0  0  0
   -0.4490    3.6230    2.7490 H   0  0  0  0  0  0  0  0  0  0  0  0
   -1.7240    2.6570    3.5590 H   0  0  0  0  0  0  0  0  0  0  0  0
    0.5500    1.6200    3.1100 H   0  0  0  0  0  0  0  0  0  0  0  0
   -0.5690    1.1150    0.3110 H   0  0  0  0  0  0  0  0  0  0  0  0
   -1.4050   -0.7540    1.9220 N   0  0  0  0  0  0  0  0  0  0  0  0
   -2.1970   -1.9120    2.2870 C   0  0  1  0  0  0  0  0  0  0  0  0
   -3.4940   -1.8080    1.5180 C   0  0  0  0  0  0  0  0  0  0  0  0
   -3.2960   -1.7950    0.0600 C   0  0  0  0  0  0  0  0  0  0  0  0
   -3.1230   -0.6000   -0.5890 C   0  0  0  0  0  0  0  0  0  0  0  0
   -2.9340   -0.5210   -1.9460 C   0  0  0  0  0  0  0  0  0  0  0  0
   -2.9160   -1.6710   -2.6930 C   0  0  0  0  0  0  0  0  0  0  0  0
   -3.0910   -2.8700   -2.0320 C   0  0  0  0  0  0  0  0  0  0  0  0
   -3.2810   -2.9540   -0.6710 C   0  0  0  0  0  0  0  0  0  0  0  0
   -1.5280   -3.1930    2.1340 C   0  0  0  0  0  0  0  0  0  0  0  0
   -0.3530   -3.3470    1.7200 O   0  0  0  0  0  0  0  0  0  0  0  0
   -2.1960   -4.3810    2.4600 O   0  0  0  0  0  0  0  0  0  0  0  0
   -1.0440   -0.7390    0.9450 H   0  0  0  0  0  0  0  0  0  0  0  0
   -2.4840   -1.7600    3.3690 H   0  0  0  0  0  0  0  0  0  0  0  0
   -4.1920   -2.6460    1.7680 H   0  0  0  0  0  0  0  0  0  0  0  0
   -4.0250   -0.8820    1.8610 H   0  0  0  0  0  0  0  0  0  0  0  0
   -3.1290    0.3540   -0.0400 H   0  0  0  0  0  0  0  0  0  0  0  0
   -2.7960    0.4420   -2.4560 H   0  0  0  0  0  0  0  0  0  0  0  0
   -2.7650   -1.6100   -3.7760 H   0  0  0  0  0  0  0  0  0  0  0  0
   -3.0700   -3.7630   -2.6660 H   0  0  0  0  0  0  0  0  0  0  0  0
   -3.4120   -3.9330   -0.2190 H   0  0  0  0  0  0  0  0  0  0  0  0
  1  2  1  0  0  0  0
  1 13  1  0  0  0  0
  2 14  1  6  0  0  0
  2 10  1  0  0  0  0
  3 15  1  0  0  0  0
  3  2  1  0  0  0  0
  3  4  1  0  0  0  0
  4  9  1  0  0  0  0
  5  4  2  0  0  0  0
  5  6  1  0  0  0  0
  6  7  2  0  0  0  0
  7  8  1  0  0  0  0
  7 19  1  0  0  0  0
  8 20  1  0  0  0  0
  9 21  1  0  0  0  0
  9  8  2  0  0  0  0
 10 24  1  0  0  0  0
 10 11  2  0  0  0  0
 12  1  1  0  0  0  0
 16  3  1  0  0  0  0
 17  5  1  0  0  0  0
 18  6  1  0  0  0  0
 22 28  1  0  0  0  0
 22 29  1  0  0  0  0
 23 22  1  0  0  0  0
 23 25  1  0  0  0  0
 23 30  1  1  0  0  0
 24 23  1  0  0  0  0
 25 26  2  0  0  0  0
 27 22  1  0  0  0  0
 31 24  1  0  0  0  0
 32 33  1  0  0  0  0
 32 25  1  0  0  0  0
 33 45  1  1  0  0  0
 34 46  1  0  0  0  0
 34 47  1  0  0  0  0
 34 33  1  0  0  0  0
 35 34  1  0  0  0  0
 36 48  1  0  0  0  0
 36 35  1  0  0  0  0
 37 36  2  0  0  0  0
 38 39  2  0  0  0  0
 38 37  1  0  0  0  0
 39 40  1  0  0  0  0
 40 52  1  0  0  0  0
 40 35  2  0  0  0  0
 41 33  1  0  0  0  0
 41 43  1  0  0  0  0
 42 41  2  0  0  0  0
 44 32  1  0  0  0  0
 49 37  1  0  0  0  0
 50 38  1  0  0  0  0
 51 39  1  0  0  0  0
M  END
$$$$
