FAH.pdb
 OpenBabel07022418573D

 49 50  0  0  1  0  0  0  0  0999 V2000
    1.9620   -0.8960    3.0380 N   0  0  0  0  0  0  0  0  0  0  0  0
    2.8310    0.0730    2.4090 C   0  0  1  0  0  0  0  0  0  0  0  0
    3.5440   -0.7210    1.2850 C   0  0  0  0  0  0  0  0  0  0  0  0
    4.3420   -1.8470    1.8250 C   0  0  0  0  0  0  0  0  0  0  0  0
    5.6980   -1.6840    2.0620 C   0  0  0  0  0  0  0  0  0  0  0  0
    6.4570   -2.7080    2.5690 C   0  0  0  0  0  0  0  0  0  0  0  0
    5.9160   -3.9470    2.8690 C   0  0  0  0  0  0  0  0  0  0  0  0
    4.5700   -4.0860    2.6250 C   0  0  0  0  0  0  0  0  0  0  0  0
    3.7850   -3.0740    2.1170 C   0  0  0  0  0  0  0  0  0  0  0  0
    2.0840    1.1700    1.7390 C   0  0  0  0  0  0  0  0  0  0  0  0
    2.3020    2.3650    2.0190 O   0  0  0  0  0  0  0  0  0  0  0  0
    2.4490   -1.5590    3.6560 H   0  0  0  0  0  0  0  0  0  0  0  0
    1.3160   -1.3160    2.3420 H   0  0  0  0  0  0  0  0  0  0  0  0
    3.5950    0.4110    3.0990 H   0  0  0  0  0  0  0  0  0  0  0  0
    4.1860   -0.0340    0.7300 H   0  0  0  0  0  0  0  0  0  0  0  0
    2.7760   -1.1530    0.5990 H   0  0  0  0  0  0  0  0  0  0  0  0
    6.1610   -0.7160    1.8340 H   0  0  0  0  0  0  0  0  0  0  0  0
    7.5280   -2.5510    2.7490 H   0  0  0  0  0  0  0  0  0  0  0  0
    6.5450   -4.7450    3.2690 H   0  0  0  0  0  0  0  0  0  0  0  0
    4.1100   -5.0450    2.8510 H   0  0  0  0  0  0  0  0  0  0  0  0
    2.7130   -3.2160    1.9360 H   0  0  0  0  0  0  0  0  0  0  0  0
    1.0470    2.3360   -1.2350 C   0  0  0  0  0  0  0  0  0  0  0  0
    0.3820    1.9970    0.1080 C   0  0  2  0  0  0  0  0  0  0  0  0
    1.0930    0.9110    0.7410 N   0  0  0  0  0  0  0  0  0  0  0  0
   -1.0580    1.7380   -0.1020 C   0  0  0  0  0  0  0  0  0  0  0  0
   -1.8160    2.6330   -0.6130 O   0  0  0  0  0  0  0  0  0  0  0  0
    1.7030    3.2130   -1.1390 H   0  0  0  0  0  0  0  0  0  0  0  0
    0.2330    2.4490   -1.9830 H   0  0  0  0  0  0  0  0  0  0  0  0
    1.5980    1.4260   -1.5420 H   0  0  0  0  0  0  0  0  0  0  0  0
    0.5050    2.9000    0.7310 H   0  0  0  0  0  0  0  0  0  0  0  0
    0.8960   -0.0810    0.4800 H   0  0  0  0  0  0  0  0  0  0  0  0
   -1.7060    0.5120    0.2240 N   0  0  0  0  0  0  0  0  0  0  0  0
   -3.1320    0.3540   -0.0430 C   0  0  1  0  0  0  0  0  0  0  0  0
   -3.1930   -0.6170   -1.2310 C   0  0  0  0  0  0  0  0  0  0  0  0
   -4.5640   -0.8990   -1.6730 C   0  0  0  0  0  0  0  0  0  0  0  0
   -5.4100   -1.8980   -1.2540 C   0  0  0  0  0  0  0  0  0  0  0  0
   -6.5580   -1.7730   -1.9440 N   0  0  0  0  0  0  0  0  0  0  0  0
   -6.4760   -0.7310   -2.7880 C   0  0  0  0  0  0  0  0  0  0  0  0
   -5.2670   -0.2090   -2.6160 N   0  0  0  0  0  0  0  0  0  0  0  0
   -3.8970   -0.1280    1.1010 C   0  0  0  0  0  0  0  0  0  0  0  0
   -3.4030   -0.3830    2.2440 O   0  0  0  0  0  0  0  0  0  0  0  0
   -5.2670   -0.3390    0.9900 O   0  0  0  0  0  0  0  0  0  0  0  0
   -1.1460   -0.2500    0.6500 H   0  0  0  0  0  0  0  0  0  0  0  0
   -3.5770    1.2980   -0.4120 H   0  0  0  0  0  0  0  0  0  0  0  0
   -2.6420   -1.5630   -0.9590 H   0  0  0  0  0  0  0  0  0  0  0  0
   -2.6220   -0.1990   -2.0940 H   0  0  0  0  0  0  0  0  0  0  0  0
   -5.2030   -2.6640   -0.4910 H   0  0  0  0  0  0  0  0  0  0  0  0
   -7.4070   -2.3660   -1.8630 H   0  0  0  0  0  0  0  0  0  0  0  0
   -7.2220   -0.3690   -3.4740 H   0  0  0  0  0  0  0  0  0  0  0  0
  1 12  1  0  0  0  0
  2  1  1  0  0  0  0
  2 14  1  1  0  0  0
  3  4  1  0  0  0  0
  3  2  1  0  0  0  0
  4  5  2  0  0  0  0
  4  9  1  0  0  0  0
  5  6  1  0  0  0  0
  6 18  1  0  0  0  0
  6  7  2  0  0  0  0
  7 19  1  0  0  0  0
  8 20  1  0  0  0  0
  8  7  1  0  0  0  0
  9  8  2  0  0  0  0
 10 11  2  0  0  0  0
 10  2  1  0  0  0  0
 13  1  1  0  0  0  0
 15  3  1  0  0  0  0
 16  3  1  0  0  0  0
 17  5  1  0  0  0  0
 21  9  1  0  0  0  0
 22 27  1  0  0  0  0
 22 23  1  0  0  0  0
 23 30  1  1  0  0  0
 23 24  1  0  0  0  0
 24 10  1  0  0  0  0
 25 23  1  0  0  0  0
 25 32  1  0  0  0  0
 26 25  2  0  0  0  0
 28 22  1  0  0  0  0
 29 22  1  0  0  0  0
 31 24  1  0  0  0  0
 32 43  1  0  0  0  0
 33 44  1  6  0  0  0
 33 32  1  0  0  0  0
 33 40  1  0  0  0  0
 34 45  1  0  0  0  0
 34 33  1  0  0  0  0
 35 36  2  0  0  0  0
 35 34  1  0  0  0  0
 36 47  1  0  0  0  0
 37 48  1  0  0  0  0
 37 36  1  0  0  0  0
 38 39  2  0  0  0  0
 38 37  1  0  0  0  0
 39 35  1  0  0  0  0
 40 41  1  0  0  0  0
 42 40  2  0  0  0  0
 46 34  1  0  0  0  0
 49 38  1  0  0  0  0
M  END
$$$$
