FAI.pdb
 OpenBabel07022418583D

 51 51  0  0  1  0  0  0  0  0999 V2000
    4.2550   -1.6800    3.5430 N   0  0  0  0  0  0  0  0  0  0  0  0
    3.7030   -0.9130    2.3990 C   0  0  1  0  0  0  0  0  0  0  0  0
    4.1300   -1.6520    1.1880 C   0  0  0  0  0  0  0  0  0  0  0  0
    3.7330   -1.1350   -0.1100 C   0  0  0  0  0  0  0  0  0  0  0  0
    2.5960   -1.5020   -0.7970 C   0  0  0  0  0  0  0  0  0  0  0  0
    2.2540   -0.9930   -2.0210 C   0  0  0  0  0  0  0  0  0  0  0  0
    3.0880   -0.0620   -2.6070 C   0  0  0  0  0  0  0  0  0  0  0  0
    4.2370    0.3360   -1.9560 C   0  0  0  0  0  0  0  0  0  0  0  0
    4.5500   -0.1880   -0.7400 C   0  0  0  0  0  0  0  0  0  0  0  0
    2.2800   -0.6700    2.5800 C   0  0  0  0  0  0  0  0  0  0  0  0
    1.6870   -1.2330    3.5360 O   0  0  0  0  0  0  0  0  0  0  0  0
    4.1800   -2.7010    3.3570 H   0  0  0  0  0  0  0  0  0  0  0  0
    3.8020   -1.3860    4.4260 H   0  0  0  0  0  0  0  0  0  0  0  0
    4.2290    0.0720    2.4700 H   0  0  0  0  0  0  0  0  0  0  0  0
    5.2570   -1.7040    1.1900 H   0  0  0  0  0  0  0  0  0  0  0  0
    3.8300   -2.7390    1.2120 H   0  0  0  0  0  0  0  0  0  0  0  0
    1.9330   -2.2270   -0.3560 H   0  0  0  0  0  0  0  0  0  0  0  0
    1.3680   -1.2710   -2.5710 H   0  0  0  0  0  0  0  0  0  0  0  0
    2.8900    0.3840   -3.5650 H   0  0  0  0  0  0  0  0  0  0  0  0
    4.9010    1.0620   -2.3970 H   0  0  0  0  0  0  0  0  0  0  0  0
    5.4480    0.1230   -0.2300 H   0  0  0  0  0  0  0  0  0  0  0  0
   -0.1960    1.8130    2.4610 C   0  0  0  0  0  0  0  0  0  0  0  0
    0.0650    0.3700    2.0000 C   0  0  2  0  0  0  0  0  0  0  0  0
    1.4710    0.1650    1.7640 N   0  0  0  0  0  0  0  0  0  0  0  0
   -0.8050    0.0170    0.8640 C   0  0  0  0  0  0  0  0  0  0  0  0
   -0.3970   -0.4280   -0.2400 O   0  0  0  0  0  0  0  0  0  0  0  0
    0.3580    2.5290    1.8200 H   0  0  0  0  0  0  0  0  0  0  0  0
    0.2370    1.8820    3.4800 H   0  0  0  0  0  0  0  0  0  0  0  0
   -1.2780    1.9610    2.4730 H   0  0  0  0  0  0  0  0  0  0  0  0
   -0.2030   -0.2480    2.8860 H   0  0  0  0  0  0  0  0  0  0  0  0
    1.9090    0.6700    0.9470 H   0  0  0  0  0  0  0  0  0  0  0  0
   -2.4610   -2.5570    1.8100 C   0  0  0  0  0  0  0  0  0  0  0  0
   -3.3720   -2.5780    0.6310 C   0  0  0  0  0  0  0  0  0  0  0  0
   -4.0160   -1.2890    0.2470 C   0  0  2  0  0  0  0  0  0  0  0  0
   -4.9010   -1.6020   -0.9640 C   0  0  0  0  0  0  0  0  0  0  0  0
   -3.0880   -0.1730   -0.1370 C   0  0  2  0  0  0  0  0  0  0  0  0
   -2.2350    0.1660    0.9570 N   0  0  0  0  0  0  0  0  0  0  0  0
   -3.8540    1.0140   -0.6350 C   0  0  0  0  0  0  0  0  0  0  0  0
   -3.7190    2.1480   -0.1110 O   0  0  0  0  0  0  0  0  0  0  0  0
   -4.7410    0.9000   -1.6940 O   0  0  0  0  0  0  0  0  0  0  0  0
   -2.7130   -3.4320    2.4980 H   0  0  0  0  0  0  0  0  0  0  0  0
   -1.3810   -2.6980    1.5220 H   0  0  0  0  0  0  0  0  0  0  0  0
   -2.5120   -1.6900    2.4620 H   0  0  0  0  0  0  0  0  0  0  0  0
   -2.8750   -3.0280   -0.2770 H   0  0  0  0  0  0  0  0  0  0  0  0
   -4.1800   -3.3490    0.8500 H   0  0  0  0  0  0  0  0  0  0  0  0
   -4.6860   -0.9490    1.0880 H   0  0  0  0  0  0  0  0  0  0  0  0
   -5.8300   -1.0110   -0.8940 H   0  0  0  0  0  0  0  0  0  0  0  0
   -4.3240   -1.4090   -1.8780 H   0  0  0  0  0  0  0  0  0  0  0  0
   -5.1920   -2.6820   -0.9660 H   0  0  0  0  0  0  0  0  0  0  0  0
   -2.5270   -0.5390   -1.0270 H   0  0  0  0  0  0  0  0  0  0  0  0
   -2.6470    0.5500    1.8570 H   0  0  0  0  0  0  0  0  0  0  0  0
  1 13  1  0  0  0  0
  2 14  1  6  0  0  0
  2 10  1  0  0  0  0
  2  1  1  0  0  0  0
  3 15  1  0  0  0  0
  3 16  1  0  0  0  0
  3  2  1  0  0  0  0
  4  3  1  0  0  0  0
  5 17  1  0  0  0  0
  5  4  2  0  0  0  0
  6  5  1  0  0  0  0
  7  6  2  0  0  0  0
  7  8  1  0  0  0  0
  8  9  2  0  0  0  0
  9 21  1  0  0  0  0
  9  4  1  0  0  0  0
 10 11  2  0  0  0  0
 12  1  1  0  0  0  0
 18  6  1  0  0  0  0
 19  7  1  0  0  0  0
 20  8  1  0  0  0  0
 22 29  1  0  0  0  0
 22 28  1  0  0  0  0
 23 22  1  0  0  0  0
 23 30  1  1  0  0  0
 24 23  1  0  0  0  0
 24 10  1  0  0  0  0
 25 37  1  0  0  0  0
 25 23  1  0  0  0  0
 26 25  2  0  0  0  0
 27 22  1  0  0  0  0
 31 24  1  0  0  0  0
 32 43  1  0  0  0  0
 32 41  1  0  0  0  0
 33 45  1  0  0  0  0
 33 32  1  0  0  0  0
 34 33  1  0  0  0  0
 34 46  1  1  0  0  0
 35 47  1  0  0  0  0
 35 34  1  0  0  0  0
 36 50  1  6  0  0  0
 36 34  1  0  0  0  0
 36 37  1  0  0  0  0
 37 51  1  0  0  0  0
 38 36  1  0  0  0  0
 38 39  1  0  0  0  0
 40 38  2  0  0  0  0
 42 32  1  0  0  0  0
 44 33  1  0  0  0  0
 48 35  1  0  0  0  0
 49 35  1  0  0  0  0
M  END
$$$$
