FAK.pdb
 OpenBabel07022418583D

 53 53  0  0  1  0  0  0  0  0999 V2000
    1.9200   -1.2990   -1.7090 N   0  0  0  0  0  0  0  0  0  0  0  0
    2.7260   -0.6860   -0.6620 C   0  0  1  0  0  0  0  0  0  0  0  0
    3.8380    0.0530   -1.3690 C   0  0  0  0  0  0  0  0  0  0  0  0
    4.7580    0.7450   -0.4530 C   0  0  0  0  0  0  0  0  0  0  0  0
    4.5530    2.0510   -0.0640 C   0  0  0  0  0  0  0  0  0  0  0  0
    5.4210    2.6690    0.7880 C   0  0  0  0  0  0  0  0  0  0  0  0
    6.5150    2.0120    1.2780 C   0  0  0  0  0  0  0  0  0  0  0  0
    6.7270    0.7120    0.8960 C   0  0  0  0  0  0  0  0  0  0  0  0
    5.8520    0.0800    0.0320 C   0  0  0  0  0  0  0  0  0  0  0  0
    1.9260    0.1590    0.2310 C   0  0  0  0  0  0  0  0  0  0  0  0
    2.5020    0.7280    1.2070 O   0  0  0  0  0  0  0  0  0  0  0  0
    1.1040   -1.8240   -1.3110 H   0  0  0  0  0  0  0  0  0  0  0  0
    1.5880   -0.5240   -2.3460 H   0  0  0  0  0  0  0  0  0  0  0  0
    3.2010   -1.5210   -0.1080 H   0  0  0  0  0  0  0  0  0  0  0  0
    3.4070    0.7810   -2.0850 H   0  0  0  0  0  0  0  0  0  0  0  0
    4.4240   -0.7200   -1.9240 H   0  0  0  0  0  0  0  0  0  0  0  0
    3.6750    2.5640   -0.4630 H   0  0  0  0  0  0  0  0  0  0  0  0
    5.2430    3.7010    1.0850 H   0  0  0  0  0  0  0  0  0  0  0  0
    7.1740    2.5600    1.9580 H   0  0  0  0  0  0  0  0  0  0  0  0
    7.5900    0.1820    1.2770 H   0  0  0  0  0  0  0  0  0  0  0  0
    6.0610   -0.9650   -0.2470 H   0  0  0  0  0  0  0  0  0  0  0  0
   -0.7420    2.4630    0.3270 C   0  0  0  0  0  0  0  0  0  0  0  0
   -0.1640    1.2420    1.0170 C   0  0  2  0  0  0  0  0  0  0  0  0
    0.5360    0.3920    0.0830 N   0  0  0  0  0  0  0  0  0  0  0  0
   -1.2640    0.4760    1.6940 C   0  0  0  0  0  0  0  0  0  0  0  0
   -1.9730    1.0490    2.5570 O   0  0  0  0  0  0  0  0  0  0  0  0
   -1.4720    2.9080    1.0330 H   0  0  0  0  0  0  0  0  0  0  0  0
   -1.2360    2.1970   -0.6350 H   0  0  0  0  0  0  0  0  0  0  0  0
    0.0840    3.1850    0.2070 H   0  0  0  0  0  0  0  0  0  0  0  0
    0.5600    1.6060    1.7650 H   0  0  0  0  0  0  0  0  0  0  0  0
    0.0230   -0.0550   -0.7070 H   0  0  0  0  0  0  0  0  0  0  0  0
   -1.5280   -0.8780    1.3900 N   0  0  0  0  0  0  0  0  0  0  0  0
   -2.5970   -1.5960    2.0620 C   0  0  1  0  0  0  0  0  0  0  0  0
   -3.6850   -1.8440    1.0420 C   0  0  0  0  0  0  0  0  0  0  0  0
   -4.8730   -2.5790    1.5530 C   0  0  0  0  0  0  0  0  0  0  0  0
   -5.8910   -2.7280    0.4310 C   0  0  0  0  0  0  0  0  0  0  0  0
   -5.3570   -3.4780   -0.7420 C   0  0  0  0  0  0  0  0  0  0  0  0
   -4.9300   -4.8200   -0.4200 N   0  0  0  0  0  0  0  0  0  0  0  0
   -2.0590   -2.7930    2.6920 C   0  0  0  0  0  0  0  0  0  0  0  0
   -2.8030   -3.5540    3.3540 O   0  0  0  0  0  0  0  0  0  0  0  0
   -0.7220   -3.1260    2.5830 O   0  0  0  0  0  0  0  0  0  0  0  0
   -0.9700   -1.3890    0.6830 H   0  0  0  0  0  0  0  0  0  0  0  0
   -3.0580   -0.9070    2.8190 H   0  0  0  0  0  0  0  0  0  0  0  0
   -3.9890   -0.9230    0.5290 H   0  0  0  0  0  0  0  0  0  0  0  0
   -3.2110   -2.4930    0.2470 H   0  0  0  0  0  0  0  0  0  0  0  0
   -4.6100   -3.5930    1.9280 H   0  0  0  0  0  0  0  0  0  0  0  0
   -5.3290   -2.0490    2.4110 H   0  0  0  0  0  0  0  0  0  0  0  0
   -6.8410   -3.1480    0.8220 H   0  0  0  0  0  0  0  0  0  0  0  0
   -6.1580   -1.6990    0.0620 H   0  0  0  0  0  0  0  0  0  0  0  0
   -6.1810   -3.5800   -1.4830 H   0  0  0  0  0  0  0  0  0  0  0  0
   -4.5430   -2.9240   -1.2080 H   0  0  0  0  0  0  0  0  0  0  0  0
   -4.9910   -5.3830   -1.3090 H   0  0  0  0  0  0  0  0  0  0  0  0
   -3.9420   -4.8980   -0.1220 H   0  0  0  0  0  0  0  0  0  0  0  0
  1 12  1  0  0  0  0
  1  2  1  0  0  0  0
  2 14  1  1  0  0  0
  2 10  1  0  0  0  0
  3  2  1  0  0  0  0
  3  4  1  0  0  0  0
  4  5  2  0  0  0  0
  4  9  1  0  0  0  0
  5  6  1  0  0  0  0
  6 18  1  0  0  0  0
  6  7  2  0  0  0  0
  7 19  1  0  0  0  0
  8 20  1  0  0  0  0
  8  7  1  0  0  0  0
  9  8  2  0  0  0  0
 10 11  2  0  0  0  0
 13  1  1  0  0  0  0
 15  3  1  0  0  0  0
 16  3  1  0  0  0  0
 17  5  1  0  0  0  0
 21  9  1  0  0  0  0
 22 23  1  0  0  0  0
 22 27  1  0  0  0  0
 23 25  1  0  0  0  0
 23 30  1  1  0  0  0
 24 10  1  0  0  0  0
 24 23  1  0  0  0  0
 25 26  2  0  0  0  0
 28 22  1  0  0  0  0
 29 22  1  0  0  0  0
 31 24  1  0  0  0  0
 32 25  1  0  0  0  0
 32 33  1  0  0  0  0
 33 39  1  0  0  0  0
 33 43  1  1  0  0  0
 34 35  1  0  0  0  0
 34 33  1  0  0  0  0
 35 46  1  0  0  0  0
 35 47  1  0  0  0  0
 36 48  1  0  0  0  0
 36 35  1  0  0  0  0
 37 38  1  0  0  0  0
 37 36  1  0  0  0  0
 38 53  1  0  0  0  0
 39 40  1  0  0  0  0
 41 39  2  0  0  0  0
 42 32  1  0  0  0  0
 44 34  1  0  0  0  0
 45 34  1  0  0  0  0
 49 36  1  0  0  0  0
 50 37  1  0  0  0  0
 51 37  1  0  0  0  0
 52 38  1  0  0  0  0
M  END
$$$$
