FAL.pdb
 OpenBabel07022418583D

 51 51  0  0  1  0  0  0  0  0999 V2000
    0.3980    1.2420    0.5160 N   0  0  0  0  0  0  0  0  0  0  0  0
    1.7070    0.8340    0.0820 C   0  0  1  0  0  0  0  0  0  0  0  0
    2.6820    1.9280    0.4350 C   0  0  0  0  0  0  0  0  0  0  0  0
    2.3620    3.2010   -0.2000 C   0  0  0  0  0  0  0  0  0  0  0  0
    2.8500    3.5710   -1.4370 C   0  0  0  0  0  0  0  0  0  0  0  0
    2.5350    4.7770   -2.0200 C   0  0  0  0  0  0  0  0  0  0  0  0
    1.7090    5.6670   -1.3730 C   0  0  0  0  0  0  0  0  0  0  0  0
    1.2050    5.3270   -0.1340 C   0  0  0  0  0  0  0  0  0  0  0  0
    1.5320    4.1070    0.4370 C   0  0  0  0  0  0  0  0  0  0  0  0
    2.1160   -0.4760    0.6320 C   0  0  0  0  0  0  0  0  0  0  0  0
    3.2350   -0.9790    0.3510 O   0  0  0  0  0  0  0  0  0  0  0  0
    0.4090    1.2190    1.5810 H   0  0  0  0  0  0  0  0  0  0  0  0
   -0.2700    0.4640    0.2460 H   0  0  0  0  0  0  0  0  0  0  0  0
    1.6850    0.7400   -1.0230 H   0  0  0  0  0  0  0  0  0  0  0  0
    3.7380    1.6140    0.2020 H   0  0  0  0  0  0  0  0  0  0  0  0
    2.6580    2.0610    1.5360 H   0  0  0  0  0  0  0  0  0  0  0  0
    3.5030    2.9060   -1.9860 H   0  0  0  0  0  0  0  0  0  0  0  0
    2.9560    5.0110   -3.0050 H   0  0  0  0  0  0  0  0  0  0  0  0
    1.4700    6.6120   -1.8420 H   0  0  0  0  0  0  0  0  0  0  0  0
    0.5580    6.0490    0.3470 H   0  0  0  0  0  0  0  0  0  0  0  0
    1.0940    3.9160    1.4140 H   0  0  0  0  0  0  0  0  0  0  0  0
    1.7430   -2.5630    3.5320 C   0  0  0  0  0  0  0  0  0  0  0  0
    1.7260   -2.5330    2.0250 C   0  0  2  0  0  0  0  0  0  0  0  0
    1.2920   -1.2540    1.5060 N   0  0  0  0  0  0  0  0  0  0  0  0
    0.7860   -3.5650    1.5490 C   0  0  0  0  0  0  0  0  0  0  0  0
    0.9760   -4.7780    1.8970 O   0  0  0  0  0  0  0  0  0  0  0  0
    2.7380   -2.2790    3.9290 H   0  0  0  0  0  0  0  0  0  0  0  0
    1.5690   -3.6190    3.8400 H   0  0  0  0  0  0  0  0  0  0  0  0
    0.9160   -1.9780    3.9810 H   0  0  0  0  0  0  0  0  0  0  0  0
    2.7490   -2.7210    1.6300 H   0  0  0  0  0  0  0  0  0  0  0  0
    0.3620   -0.8280    1.7370 H   0  0  0  0  0  0  0  0  0  0  0  0
   -2.7050   -1.5710    1.3290 C   0  0  0  0  0  0  0  0  0  0  0  0
   -3.3450   -2.7880    0.7330 C   0  0  0  0  0  0  0  0  0  0  0  0
   -4.7170   -2.9390    1.4120 C   0  0  0  0  0  0  0  0  0  0  0  0
   -2.5970   -4.0570    0.8520 C   0  0  0  0  0  0  0  0  0  0  0  0
   -1.2600   -4.1530    0.2210 C   0  0  2  0  0  0  0  0  0  0  0  0
   -0.3070   -3.2050    0.7210 N   0  0  0  0  0  0  0  0  0  0  0  0
   -1.4090   -4.0890   -1.2520 C   0  0  0  0  0  0  0  0  0  0  0  0
   -0.7740   -3.2940   -1.9900 O   0  0  0  0  0  0  0  0  0  0  0  0
   -2.3010   -4.9550   -1.8650 O   0  0  0  0  0  0  0  0  0  0  0  0
   -3.4890   -0.9210    1.8490 H   0  0  0  0  0  0  0  0  0  0  0  0
   -1.9800   -1.7940    2.1300 H   0  0  0  0  0  0  0  0  0  0  0  0
   -2.3040   -0.8560    0.5560 H   0  0  0  0  0  0  0  0  0  0  0  0
   -3.5890   -2.6200   -0.3540 H   0  0  0  0  0  0  0  0  0  0  0  0
   -4.5770   -3.6940    2.2040 H   0  0  0  0  0  0  0  0  0  0  0  0
   -5.4610   -3.3350    0.6870 H   0  0  0  0  0  0  0  0  0  0  0  0
   -5.0260   -1.9900    1.8680 H   0  0  0  0  0  0  0  0  0  0  0  0
   -2.5790   -4.3500    1.9410 H   0  0  0  0  0  0  0  0  0  0  0  0
   -3.2420   -4.8580    0.3680 H   0  0  0  0  0  0  0  0  0  0  0  0
   -0.8070   -5.1720    0.4680 H   0  0  0  0  0  0  0  0  0  0  0  0
   -0.4000   -2.2090    0.4560 H   0  0  0  0  0  0  0  0  0  0  0  0
  1 12  1  0  0  0  0
  2 14  1  6  0  0  0
  2  3  1  0  0  0  0
  2  1  1  0  0  0  0
  2 10  1  0  0  0  0
  3 16  1  0  0  0  0
  4  3  1  0  0  0  0
  4  9  1  0  0  0  0
  5  4  2  0  0  0  0
  6  5  1  0  0  0  0
  6  7  2  0  0  0  0
  7  8  1  0  0  0  0
  8 20  1  0  0  0  0
  8  9  2  0  0  0  0
  9 21  1  0  0  0  0
 10 24  1  0  0  0  0
 11 10  2  0  0  0  0
 13  1  1  0  0  0  0
 15  3  1  0  0  0  0
 17  5  1  0  0  0  0
 18  6  1  0  0  0  0
 19  7  1  0  0  0  0
 22 28  1  0  0  0  0
 22 27  1  0  0  0  0
 22 29  1  0  0  0  0
 23 30  1  6  0  0  0
 23 22  1  0  0  0  0
 24 31  1  0  0  0  0
 24 23  1  0  0  0  0
 25 26  2  0  0  0  0
 25 23  1  0  0  0  0
 32 41  1  0  0  0  0
 32 42  1  0  0  0  0
 33 35  1  0  0  0  0
 33 32  1  0  0  0  0
 33 34  1  0  0  0  0
 34 47  1  0  0  0  0
 34 45  1  0  0  0  0
 35 48  1  0  0  0  0
 36 50  1  1  0  0  0
 36 37  1  0  0  0  0
 36 35  1  0  0  0  0
 37 25  1  0  0  0  0
 38 36  1  0  0  0  0
 39 38  2  0  0  0  0
 40 38  1  0  0  0  0
 43 32  1  0  0  0  0
 44 33  1  0  0  0  0
 46 34  1  0  0  0  0
 49 35  1  0  0  0  0
 51 37  1  0  0  0  0
M  END
$$$$
