FAM.pdb
 OpenBabel07022418583D

 49 49  0  0  1  0  0  0  0  0999 V2000
    1.3850   -0.3060   -2.1570 N   0  0  0  0  0  0  0  0  0  0  0  0
    2.1480    0.4190   -1.1350 C   0  0  1  0  0  0  0  0  0  0  0  0
    2.5840    1.7070   -1.7720 C   0  0  0  0  0  0  0  0  0  0  0  0
    3.3710    2.5900   -0.9020 C   0  0  0  0  0  0  0  0  0  0  0  0
    2.7070    3.5230   -0.1500 C   0  0  0  0  0  0  0  0  0  0  0  0
    3.4010    4.3830    0.6920 C   0  0  0  0  0  0  0  0  0  0  0  0
    4.7750    4.3360    0.8070 C   0  0  0  0  0  0  0  0  0  0  0  0
    5.4260    3.3900    0.0420 C   0  0  0  0  0  0  0  0  0  0  0  0
    4.7380    2.5410   -0.7900 C   0  0  0  0  0  0  0  0  0  0  0  0
    1.2880    0.6320    0.0510 C   0  0  0  0  0  0  0  0  0  0  0  0
    1.6950    1.2040    1.0900 O   0  0  0  0  0  0  0  0  0  0  0  0
    1.4150    0.1540   -3.0820 H   0  0  0  0  0  0  0  0  0  0  0  0
    1.7340   -1.2810   -2.2710 H   0  0  0  0  0  0  0  0  0  0  0  0
    3.0120   -0.2280   -0.8720 H   0  0  0  0  0  0  0  0  0  0  0  0
    1.6960    2.2490   -2.1260 H   0  0  0  0  0  0  0  0  0  0  0  0
    3.1420    1.4220   -2.7090 H   0  0  0  0  0  0  0  0  0  0  0  0
    1.6210    3.6340   -0.1770 H   0  0  0  0  0  0  0  0  0  0  0  0
    2.8940    5.1250    1.2950 H   0  0  0  0  0  0  0  0  0  0  0  0
    5.3120    5.0190    1.4750 H   0  0  0  0  0  0  0  0  0  0  0  0
    6.5080    3.3340    0.1150 H   0  0  0  0  0  0  0  0  0  0  0  0
    5.2440    1.7970   -1.3900 H   0  0  0  0  0  0  0  0  0  0  0  0
   -1.9410    1.4400    0.8470 C   0  0  0  0  0  0  0  0  0  0  0  0
   -0.8970    0.4130    1.2650 C   0  0  2  0  0  0  0  0  0  0  0  0
   -0.0840    0.1820    0.0670 N   0  0  0  0  0  0  0  0  0  0  0  0
   -1.5000   -0.8210    1.7520 C   0  0  0  0  0  0  0  0  0  0  0  0
   -2.1870   -0.9320    2.7920 O   0  0  0  0  0  0  0  0  0  0  0  0
   -2.1980    2.0120    1.7620 H   0  0  0  0  0  0  0  0  0  0  0  0
   -2.8760    0.9500    0.5040 H   0  0  0  0  0  0  0  0  0  0  0  0
   -1.5050    2.1390    0.1160 H   0  0  0  0  0  0  0  0  0  0  0  0
   -0.2750    0.8830    2.0430 H   0  0  0  0  0  0  0  0  0  0  0  0
   -0.4570   -0.2950   -0.7780 H   0  0  0  0  0  0  0  0  0  0  0  0
   -3.6520   -4.5540    3.8860 C   0  0  0  0  0  0  0  0  0  0  0  0
   -4.5880   -4.7860    2.4020 S   0  0  0  0  0  0  0  0  0  0  0  0
   -3.6870   -4.9800    0.8730 C   0  0  0  0  0  0  0  0  0  0  0  0
   -2.9760   -3.7200    0.5000 C   0  0  0  0  0  0  0  0  0  0  0  0
   -1.9140   -3.2880    1.4440 C   0  0  2  0  0  0  0  0  0  0  0  0
   -1.3150   -2.0150    1.0040 N   0  0  0  0  0  0  0  0  0  0  0  0
   -0.8210   -4.2840    1.5770 C   0  0  0  0  0  0  0  0  0  0  0  0
    0.3970   -3.9320    1.3740 O   0  0  0  0  0  0  0  0  0  0  0  0
   -0.9810   -5.6110    1.9120 O   0  0  0  0  0  0  0  0  0  0  0  0
   -2.6270   -4.9450    3.8870 H   0  0  0  0  0  0  0  0  0  0  0  0
   -4.1790   -5.1610    4.6980 H   0  0  0  0  0  0  0  0  0  0  0  0
   -3.7130   -3.5130    4.3010 H   0  0  0  0  0  0  0  0  0  0  0  0
   -4.4730   -5.1910    0.0710 H   0  0  0  0  0  0  0  0  0  0  0  0
   -3.0060   -5.8710    0.8850 H   0  0  0  0  0  0  0  0  0  0  0  0
   -3.7700   -2.9470    0.3540 H   0  0  0  0  0  0  0  0  0  0  0  0
   -2.4600   -3.9210   -0.4920 H   0  0  0  0  0  0  0  0  0  0  0  0
   -2.3410   -3.0940    2.4270 H   0  0  0  0  0  0  0  0  0  0  0  0
   -0.7640   -2.0880    0.1220 H   0  0  0  0  0  0  0  0  0  0  0  0
  1  2  1  0  0  0  0
  2 14  1  1  0  0  0
  2 10  1  0  0  0  0
  3  2  1  0  0  0  0
  3  4  1  0  0  0  0
  4  9  2  0  0  0  0
  4  5  1  0  0  0  0
  5  6  2  0  0  0  0
  6  7  1  0  0  0  0
  6 18  1  0  0  0  0
  7 19  1  0  0  0  0
  8 20  1  0  0  0  0
  8  7  2  0  0  0  0
  9  8  1  0  0  0  0
 10 24  1  0  0  0  0
 10 11  2  0  0  0  0
 12  1  1  0  0  0  0
 13  1  1  0  0  0  0
 15  3  1  0  0  0  0
 16  3  1  0  0  0  0
 17  5  1  0  0  0  0
 21  9  1  0  0  0  0
 22 23  1  0  0  0  0
 22 27  1  0  0  0  0
 23 25  1  0  0  0  0
 23 30  1  1  0  0  0
 24 23  1  0  0  0  0
 25 26  2  0  0  0  0
 28 22  1  0  0  0  0
 29 22  1  0  0  0  0
 31 24  1  0  0  0  0
 32 41  1  0  0  0  0
 32 43  1  0  0  0  0
 32 42  1  0  0  0  0
 33 32  1  0  0  0  0
 34 45  1  0  0  0  0
 34 33  1  0  0  0  0
 35 34  1  0  0  0  0
 35 36  1  0  0  0  0
 36 38  1  0  0  0  0
 36 48  1  1  0  0  0
 37 36  1  0  0  0  0
 37 25  1  0  0  0  0
 38 40  1  0  0  0  0
 39 38  2  0  0  0  0
 44 34  1  0  0  0  0
 46 35  1  0  0  0  0
 47 35  1  0  0  0  0
 49 37  1  0  0  0  0
M  END
$$$$
