FAS.pdb
 OpenBabel07022418583D

 43 43  0  0  1  0  0  0  0  0999 V2000
    3.1050   -3.3510   -0.5580 N   0  0  0  0  0  0  0  0  0  0  0  0
    2.8750   -2.1120    0.1540 C   0  0  1  0  0  0  0  0  0  0  0  0
    2.5910   -1.0520   -0.8940 C   0  0  0  0  0  0  0  0  0  0  0  0
    1.4030   -1.4160   -1.7030 C   0  0  0  0  0  0  0  0  0  0  0  0
    0.1650   -0.9950   -1.2700 C   0  0  0  0  0  0  0  0  0  0  0  0
   -0.9450   -1.3310   -2.0200 C   0  0  0  0  0  0  0  0  0  0  0  0
   -0.8050   -2.0780   -3.1840 C   0  0  0  0  0  0  0  0  0  0  0  0
    0.4300   -2.5060   -3.6280 C   0  0  0  0  0  0  0  0  0  0  0  0
    1.5370   -2.1690   -2.8770 C   0  0  0  0  0  0  0  0  0  0  0  0
    1.8130   -2.2280    1.1630 C   0  0  0  0  0  0  0  0  0  0  0  0
    1.1670   -3.3040    1.2420 O   0  0  0  0  0  0  0  0  0  0  0  0
    2.2120   -3.6560   -1.0300 H   0  0  0  0  0  0  0  0  0  0  0  0
    3.4250   -4.1200    0.0770 H   0  0  0  0  0  0  0  0  0  0  0  0
    3.8200   -1.8580    0.6710 H   0  0  0  0  0  0  0  0  0  0  0  0
    3.4630   -0.9660   -1.5730 H   0  0  0  0  0  0  0  0  0  0  0  0
    2.4760   -0.0960   -0.3660 H   0  0  0  0  0  0  0  0  0  0  0  0
    0.0320   -0.4150   -0.3710 H   0  0  0  0  0  0  0  0  0  0  0  0
   -1.9250   -0.9950   -1.6740 H   0  0  0  0  0  0  0  0  0  0  0  0
   -1.6820   -2.3360   -3.7650 H   0  0  0  0  0  0  0  0  0  0  0  0
    0.5320   -3.0880   -4.5360 H   0  0  0  0  0  0  0  0  0  0  0  0
    2.5400   -2.4770   -3.1750 H   0  0  0  0  0  0  0  0  0  0  0  0
    1.0890   -1.3440    4.4290 C   0  0  0  0  0  0  0  0  0  0  0  0
    0.4240   -1.3150    3.0510 C   0  0  2  0  0  0  0  0  0  0  0  0
    1.4700   -1.1850    2.0640 N   0  0  0  0  0  0  0  0  0  0  0  0
   -0.5490   -0.2150    3.0550 C   0  0  0  0  0  0  0  0  0  0  0  0
   -1.5190   -0.2520    3.8660 O   0  0  0  0  0  0  0  0  0  0  0  0
    0.3470   -1.1070    5.2150 H   0  0  0  0  0  0  0  0  0  0  0  0
    1.8720   -0.5540    4.4320 H   0  0  0  0  0  0  0  0  0  0  0  0
    1.5700   -2.3150    4.6330 H   0  0  0  0  0  0  0  0  0  0  0  0
   -0.0730   -2.2730    2.9090 H   0  0  0  0  0  0  0  0  0  0  0  0
    1.9850   -0.2730    2.0300 H   0  0  0  0  0  0  0  0  0  0  0  0
   -1.7310    4.2990    2.7840 O   0  0  0  0  0  0  0  0  0  0  0  0
   -0.8260    3.2630    2.7350 C   0  0  0  0  0  0  0  0  0  0  0  0
   -1.4770    1.9800    2.2440 C   0  0  2  0  0  0  0  0  0  0  0  0
   -0.5000    0.9210    2.2070 N   0  0  0  0  0  0  0  0  0  0  0  0
   -2.2060    2.1480    0.9890 C   0  0  0  0  0  0  0  0  0  0  0  0
   -1.9760    1.4220   -0.0040 O   0  0  0  0  0  0  0  0  0  0  0  0
   -3.1760    3.1260    0.8730 O   0  0  0  0  0  0  0  0  0  0  0  0
   -1.3920    5.1050    2.3210 H   0  0  0  0  0  0  0  0  0  0  0  0
   -0.0380    3.5380    1.9790 H   0  0  0  0  0  0  0  0  0  0  0  0
   -0.3260    3.0560    3.6880 H   0  0  0  0  0  0  0  0  0  0  0  0
   -2.2180    1.6960    3.0470 H   0  0  0  0  0  0  0  0  0  0  0  0
    0.2720    1.0030    1.5290 H   0  0  0  0  0  0  0  0  0  0  0  0
  1 13  1  0  0  0  0
  1  2  1  0  0  0  0
  2 14  1  1  0  0  0
  2 10  1  0  0  0  0
  3 16  1  0  0  0  0
  3  2  1  0  0  0  0
  4  5  1  0  0  0  0
  4  3  1  0  0  0  0
  5 17  1  0  0  0  0
  6 18  1  0  0  0  0
  6  5  2  0  0  0  0
  7  6  1  0  0  0  0
  8  7  2  0  0  0  0
  8  9  1  0  0  0  0
  9  4  2  0  0  0  0
 10 11  2  0  0  0  0
 10 24  1  0  0  0  0
 12  1  1  0  0  0  0
 15  3  1  0  0  0  0
 19  7  1  0  0  0  0
 20  8  1  0  0  0  0
 21  9  1  0  0  0  0
 22 28  1  0  0  0  0
 22 29  1  0  0  0  0
 22 27  1  0  0  0  0
 23 30  1  6  0  0  0
 23 25  1  0  0  0  0
 23 22  1  0  0  0  0
 24 23  1  0  0  0  0
 25 26  2  0  0  0  0
 31 24  1  0  0  0  0
 33 32  1  0  0  0  0
 33 41  1  0  0  0  0
 34 33  1  0  0  0  0
 34 42  1  1  0  0  0
 35 34  1  0  0  0  0
 35 25  1  0  0  0  0
 36 34  1  0  0  0  0
 37 36  2  0  0  0  0
 38 36  1  0  0  0  0
 39 32  1  0  0  0  0
 40 33  1  0  0  0  0
 43 35  1  0  0  0  0
M  END
$$$$
