FAT.pdb
 OpenBabel07022418583D

 46 46  0  0  1  0  0  0  0  0999 V2000
    0.5210   -2.8040    0.9820 N   0  0  0  0  0  0  0  0  0  0  0  0
    1.5650   -2.1200    1.6430 C   0  0  1  0  0  0  0  0  0  0  0  0
    2.8860   -2.7390    1.2360 C   0  0  0  0  0  0  0  0  0  0  0  0
    3.1560   -2.6770   -0.1890 C   0  0  0  0  0  0  0  0  0  0  0  0
    2.7530   -3.6890   -1.0260 C   0  0  0  0  0  0  0  0  0  0  0  0
    2.9940   -3.6620   -2.3860 C   0  0  0  0  0  0  0  0  0  0  0  0
    3.6580   -2.5860   -2.9170 C   0  0  0  0  0  0  0  0  0  0  0  0
    4.0840   -1.5420   -2.1160 C   0  0  0  0  0  0  0  0  0  0  0  0
    3.8190   -1.6120   -0.7430 C   0  0  0  0  0  0  0  0  0  0  0  0
    1.5540   -0.6590    1.5080 C   0  0  0  0  0  0  0  0  0  0  0  0
    2.4660   -0.0070    2.0810 O   0  0  0  0  0  0  0  0  0  0  0  0
   -0.1220   -3.3530    1.5420 H   0  0  0  0  0  0  0  0  0  0  0  0
    0.1890   -2.4240    0.0990 H   0  0  0  0  0  0  0  0  0  0  0  0
    1.4680   -2.3350    2.7500 H   0  0  0  0  0  0  0  0  0  0  0  0
    3.6860   -2.3000    1.8730 H   0  0  0  0  0  0  0  0  0  0  0  0
    2.8180   -3.8170    1.5700 H   0  0  0  0  0  0  0  0  0  0  0  0
    2.2240   -4.5580   -0.6400 H   0  0  0  0  0  0  0  0  0  0  0  0
    2.6820   -4.4480   -3.0470 H   0  0  0  0  0  0  0  0  0  0  0  0
    3.8470   -2.5700   -4.0010 H   0  0  0  0  0  0  0  0  0  0  0  0
    4.6100   -0.6840   -2.5130 H   0  0  0  0  0  0  0  0  0  0  0  0
    4.1390   -0.8190   -0.1140 H   0  0  0  0  0  0  0  0  0  0  0  0
    0.7150    2.0170   -0.7410 C   0  0  0  0  0  0  0  0  0  0  0  0
    0.6270    1.5120    0.6750 C   0  0  2  0  0  0  0  0  0  0  0  0
    0.6030    0.0910    0.7840 N   0  0  0  0  0  0  0  0  0  0  0  0
   -0.6200    2.0450    1.2830 C   0  0  0  0  0  0  0  0  0  0  0  0
   -0.8180    3.2880    1.3010 O   0  0  0  0  0  0  0  0  0  0  0  0
    1.7560    1.9090   -1.1320 H   0  0  0  0  0  0  0  0  0  0  0  0
    0.5180    3.1110   -0.7100 H   0  0  0  0  0  0  0  0  0  0  0  0
   -0.0400    1.5760   -1.4110 H   0  0  0  0  0  0  0  0  0  0  0  0
    1.4880    1.9510    1.2310 H   0  0  0  0  0  0  0  0  0  0  0  0
   -0.1690   -0.4250    0.2950 H   0  0  0  0  0  0  0  0  0  0  0  0
   -4.0090   -0.3540    2.0070 C   0  0  0  0  0  0  0  0  0  0  0  0
   -4.0170    1.1180    1.7140 C   0  0  1  0  0  0  0  0  0  0  0  0
   -5.1740    1.6600    2.3010 O   0  0  0  0  0  0  0  0  0  0  0  0
   -2.8220    1.7450    2.4390 C   0  0  2  0  0  0  0  0  0  0  0  0
   -1.5970    1.1950    1.8450 N   0  0  0  0  0  0  0  0  0  0  0  0
   -2.8890    1.2730    3.8490 C   0  0  0  0  0  0  0  0  0  0  0  0
   -3.8690    1.6360    4.5400 O   0  0  0  0  0  0  0  0  0  0  0  0
   -1.9390    0.4670    4.4230 O   0  0  0  0  0  0  0  0  0  0  0  0
   -4.9640   -0.8470    1.7330 H   0  0  0  0  0  0  0  0  0  0  0  0
   -3.1760   -0.8210    1.4390 H   0  0  0  0  0  0  0  0  0  0  0  0
   -3.8010   -0.5400    3.0790 H   0  0  0  0  0  0  0  0  0  0  0  0
   -3.9850    1.2890    0.6350 H   0  0  0  0  0  0  0  0  0  0  0  0
   -5.8340    1.7210    1.5590 H   0  0  0  0  0  0  0  0  0  0  0  0
   -2.8300    2.8330    2.3700 H   0  0  0  0  0  0  0  0  0  0  0  0
   -1.4310    0.1660    1.8280 H   0  0  0  0  0  0  0  0  0  0  0  0
  1 12  1  0  0  0  0
  1  2  1  0  0  0  0
  2 14  1  1  0  0  0
  3 16  1  0  0  0  0
  3  2  1  0  0  0  0
  3 15  1  0  0  0  0
  4  3  1  0  0  0  0
  5 17  1  0  0  0  0
  5  4  2  0  0  0  0
  6  5  1  0  0  0  0
  7  6  2  0  0  0  0
  7  8  1  0  0  0  0
  8  9  2  0  0  0  0
  9  4  1  0  0  0  0
  9 21  1  0  0  0  0
 10  2  1  0  0  0  0
 10 11  2  0  0  0  0
 13  1  1  0  0  0  0
 18  6  1  0  0  0  0
 19  7  1  0  0  0  0
 20  8  1  0  0  0  0
 22 28  1  0  0  0  0
 22 23  1  0  0  0  0
 23 24  1  0  0  0  0
 23 30  1  1  0  0  0
 23 25  1  0  0  0  0
 24 10  1  0  0  0  0
 25 26  2  0  0  0  0
 25 36  1  0  0  0  0
 27 22  1  0  0  0  0
 29 22  1  0  0  0  0
 31 24  1  0  0  0  0
 32 42  1  0  0  0  0
 33 43  1  6  0  0  0
 33 32  1  0  0  0  0
 33 34  1  0  0  0  0
 33 35  1  0  0  0  0
 35 45  1  6  0  0  0
 35 37  1  0  0  0  0
 36 35  1  0  0  0  0
 37 39  2  0  0  0  0
 37 38  1  0  0  0  0
 40 32  1  0  0  0  0
 41 32  1  0  0  0  0
 44 34  1  0  0  0  0
 46 36  1  0  0  0  0
M  END
$$$$
