FAW.pdb
 OpenBabel07022418583D

 56 58  0  0  1  0  0  0  0  0999 V2000
    4.8370   -1.7940    1.4490 N   0  0  0  0  0  0  0  0  0  0  0  0
    3.5570   -1.1890    1.8580 C   0  0  1  0  0  0  0  0  0  0  0  0
    3.7260   -0.6420    3.2880 C   0  0  0  0  0  0  0  0  0  0  0  0
    2.4430   -0.0140    3.6690 C   0  0  0  0  0  0  0  0  0  0  0  0
    1.4220   -0.6450    4.3400 C   0  0  0  0  0  0  0  0  0  0  0  0
    0.2720    0.0060    4.7190 C   0  0  0  0  0  0  0  0  0  0  0  0
    0.0740    1.3430    4.4420 C   0  0  0  0  0  0  0  0  0  0  0  0
    1.0780    2.0060    3.7670 C   0  0  0  0  0  0  0  0  0  0  0  0
    2.2520    1.3320    3.3840 C   0  0  0  0  0  0  0  0  0  0  0  0
    3.1530   -0.1330    0.9360 C   0  0  0  0  0  0  0  0  0  0  0  0
    3.9590    0.7600    0.4980 O   0  0  0  0  0  0  0  0  0  0  0  0
    4.5710   -2.4990    0.6960 H   0  0  0  0  0  0  0  0  0  0  0  0
    5.1980   -2.3700    2.2500 H   0  0  0  0  0  0  0  0  0  0  0  0
    2.8220   -2.0160    1.8890 H   0  0  0  0  0  0  0  0  0  0  0  0
    3.9060   -1.5370    3.9570 H   0  0  0  0  0  0  0  0  0  0  0  0
    4.5430    0.0730    3.3770 H   0  0  0  0  0  0  0  0  0  0  0  0
    1.6000   -1.7080    4.5470 H   0  0  0  0  0  0  0  0  0  0  0  0
   -0.5250   -0.4930    5.2590 H   0  0  0  0  0  0  0  0  0  0  0  0
   -0.8480    1.8590    4.7570 H   0  0  0  0  0  0  0  0  0  0  0  0
    0.9610    3.0530    3.5360 H   0  0  0  0  0  0  0  0  0  0  0  0
    3.0420    1.8560    2.8520 H   0  0  0  0  0  0  0  0  0  0  0  0
    2.1100    0.5590   -1.8000 C   0  0  0  0  0  0  0  0  0  0  0  0
    1.4620    1.0280   -0.4510 C   0  0  2  0  0  0  0  0  0  0  0  0
    1.7930   -0.0460    0.4550 N   0  0  0  0  0  0  0  0  0  0  0  0
    0.0490    1.2740   -0.6800 C   0  0  0  0  0  0  0  0  0  0  0  0
   -0.2970    2.3570   -1.3240 O   0  0  0  0  0  0  0  0  0  0  0  0
    1.3450    0.6570   -2.5680 H   0  0  0  0  0  0  0  0  0  0  0  0
    2.3640   -0.5180   -1.6890 H   0  0  0  0  0  0  0  0  0  0  0  0
    3.0150    1.1200   -1.9760 H   0  0  0  0  0  0  0  0  0  0  0  0
    2.0750    1.9120   -0.1970 H   0  0  0  0  0  0  0  0  0  0  0  0
    1.1140   -0.7580    0.7670 H   0  0  0  0  0  0  0  0  0  0  0  0
   -0.9820    0.4030   -0.2560 N   0  0  0  0  0  0  0  0  0  0  0  0
   -2.3600    0.7180   -0.5560 C   0  0  1  0  0  0  0  0  0  0  0  0
   -2.9990   -0.1250   -1.6090 C   0  0  0  0  0  0  0  0  0  0  0  0
   -2.9840   -1.5630   -1.2720 C   0  0  0  0  0  0  0  0  0  0  0  0
   -3.1340   -2.2290   -0.0830 C   0  0  0  0  0  0  0  0  0  0  0  0
   -3.0260   -3.5410   -0.3300 N   0  0  0  0  0  0  0  0  0  0  0  0
   -2.8110   -3.7600   -1.6340 C   0  0  0  0  0  0  0  0  0  0  0  0
   -2.6590   -4.9400   -2.3490 C   0  0  0  0  0  0  0  0  0  0  0  0
   -2.4660   -4.9020   -3.7350 C   0  0  0  0  0  0  0  0  0  0  0  0
   -2.4360   -3.6660   -4.3270 C   0  0  0  0  0  0  0  0  0  0  0  0
   -2.5860   -2.4950   -3.6300 C   0  0  0  0  0  0  0  0  0  0  0  0
   -2.7760   -2.5450   -2.2690 C   0  0  0  0  0  0  0  0  0  0  0  0
   -3.1870    0.7630    0.6410 C   0  0  0  0  0  0  0  0  0  0  0  0
   -2.7280    0.6920    1.8480 O   0  0  0  0  0  0  0  0  0  0  0  0
   -4.5840    0.8850    0.5360 O   0  0  0  0  0  0  0  0  0  0  0  0
   -0.7580   -0.4790    0.2900 H   0  0  0  0  0  0  0  0  0  0  0  0
   -2.3920    1.8110   -0.9610 H   0  0  0  0  0  0  0  0  0  0  0  0
   -2.5370    0.0410   -2.6170 H   0  0  0  0  0  0  0  0  0  0  0  0
   -4.0960    0.1520   -1.6590 H   0  0  0  0  0  0  0  0  0  0  0  0
   -3.3020   -1.7890    0.8720 H   0  0  0  0  0  0  0  0  0  0  0  0
   -3.0900   -4.3500    0.3610 H   0  0  0  0  0  0  0  0  0  0  0  0
   -2.6820   -5.9170   -1.8850 H   0  0  0  0  0  0  0  0  0  0  0  0
   -2.3510   -5.8070   -4.3210 H   0  0  0  0  0  0  0  0  0  0  0  0
   -2.2890   -3.6000   -5.4260 H   0  0  0  0  0  0  0  0  0  0  0  0
   -2.5610   -1.5060   -4.0930 H   0  0  0  0  0  0  0  0  0  0  0  0
  1  2  1  0  0  0  0
  1 13  1  0  0  0  0
  2 14  1  1  0  0  0
  2  3  1  0  0  0  0
  3 16  1  0  0  0  0
  3  4  1  0  0  0  0
  3 15  1  0  0  0  0
  4  5  1  0  0  0  0
  5 17  1  0  0  0  0
  5  6  2  0  0  0  0
  6 18  1  0  0  0  0
  7  6  1  0  0  0  0
  7 19  1  0  0  0  0
  8  7  2  0  0  0  0
  9  4  2  0  0  0  0
  9  8  1  0  0  0  0
 10  2  1  0  0  0  0
 11 10  2  0  0  0  0
 12  1  1  0  0  0  0
 20  8  1  0  0  0  0
 21  9  1  0  0  0  0
 22 28  1  0  0  0  0
 22 23  1  0  0  0  0
 23 30  1  1  0  0  0
 23 24  1  0  0  0  0
 24 31  1  0  0  0  0
 24 10  1  0  0  0  0
 25 23  1  0  0  0  0
 25 32  1  0  0  0  0
 26 25  2  0  0  0  0
 27 22  1  0  0  0  0
 29 22  1  0  0  0  0
 32 47  1  0  0  0  0
 33 48  1  6  0  0  0
 33 32  1  0  0  0  0
 33 44  1  0  0  0  0
 34 35  1  0  0  0  0
 34 33  1  0  0  0  0
 35 36  2  0  0  0  0
 36 51  1  0  0  0  0
 37 36  1  0  0  0  0
 37 52  1  0  0  0  0
 38 37  1  0  0  0  0
 39 53  1  0  0  0  0
 39 38  2  0  0  0  0
 40 39  1  0  0  0  0
 41 40  2  0  0  0  0
 41 42  1  0  0  0  0
 42 43  2  0  0  0  0
 43 38  1  0  0  0  0
 43 35  1  0  0  0  0
 44 45  1  0  0  0  0
 46 44  2  0  0  0  0
 49 34  1  0  0  0  0
 50 34  1  0  0  0  0
 54 40  1  0  0  0  0
 55 41  1  0  0  0  0
 56 42  1  0  0  0  0
M  END
$$$$
