FCA.pdb
 OpenBabel07022418593D

 43 43  0  0  1  0  0  0  0  0999 V2000
    0.2540   -2.1610   -0.8440 N   0  0  0  0  0  0  0  0  0  0  0  0
    0.5960   -2.6320    0.4960 C   0  0  1  0  0  0  0  0  0  0  0  0
    1.8960   -3.3900    0.3790 C   0  0  0  0  0  0  0  0  0  0  0  0
    3.0170   -2.5850   -0.1340 C   0  0  0  0  0  0  0  0  0  0  0  0
    3.8460   -1.8940    0.7310 C   0  0  0  0  0  0  0  0  0  0  0  0
    4.8940   -1.1480    0.2400 C   0  0  0  0  0  0  0  0  0  0  0  0
    5.1660   -1.0530   -1.1130 C   0  0  0  0  0  0  0  0  0  0  0  0
    4.3420   -1.7400   -1.9790 C   0  0  0  0  0  0  0  0  0  0  0  0
    3.2960   -2.4850   -1.4870 C   0  0  0  0  0  0  0  0  0  0  0  0
    0.6470   -1.5070    1.4610 C   0  0  0  0  0  0  0  0  0  0  0  0
    0.9830   -1.7320    2.6510 O   0  0  0  0  0  0  0  0  0  0  0  0
    0.2810   -2.9990   -1.4690 H   0  0  0  0  0  0  0  0  0  0  0  0
    1.0020   -1.5020   -1.1700 H   0  0  0  0  0  0  0  0  0  0  0  0
   -0.1980   -3.3730    0.8020 H   0  0  0  0  0  0  0  0  0  0  0  0
    2.1490   -3.9360    1.3120 H   0  0  0  0  0  0  0  0  0  0  0  0
    1.7050   -4.1910   -0.3830 H   0  0  0  0  0  0  0  0  0  0  0  0
    3.6660   -1.9420    1.8170 H   0  0  0  0  0  0  0  0  0  0  0  0
    5.5480   -0.6020    0.9360 H   0  0  0  0  0  0  0  0  0  0  0  0
    6.0000   -0.4570   -1.4690 H   0  0  0  0  0  0  0  0  0  0  0  0
    4.5170   -1.6950   -3.0520 H   0  0  0  0  0  0  0  0  0  0  0  0
    2.6470   -3.0270   -2.1940 H   0  0  0  0  0  0  0  0  0  0  0  0
    0.3070   -0.2100    0.9940 N   0  0  0  0  0  0  0  0  0  0  0  0
    0.3260    0.9270    1.8580 C   0  0  1  0  0  0  0  0  0  0  0  0
    1.1330    2.0880    1.3330 C   0  0  0  0  0  0  0  0  0  0  0  0
    2.8470    1.5360    1.1120 S   0  0  0  0  0  0  0  0  0  0  0  0
   -1.0600    1.4680    2.0850 C   0  0  0  0  0  0  0  0  0  0  0  0
   -1.1790    2.4740    2.8320 O   0  0  0  0  0  0  0  0  0  0  0  0
    0.0360   -0.0680   -0.0030 H   0  0  0  0  0  0  0  0  0  0  0  0
    0.6680    0.6070    2.8600 H   0  0  0  0  0  0  0  0  0  0  0  0
    0.7130    2.5120    0.4070 H   0  0  0  0  0  0  0  0  0  0  0  0
    1.1720    2.9260    2.0610 H   0  0  0  0  0  0  0  0  0  0  0  0
    3.1880    0.7860    2.2600 H   0  0  0  0  0  0  0  0  0  0  0  0
   -4.2020    1.7700    0.4070 C   0  0  0  0  0  0  0  0  0  0  0  0
   -3.5390    1.4330    1.7320 C   0  0  2  0  0  0  0  0  0  0  0  0
   -2.2100    0.9070    1.5090 N   0  0  0  0  0  0  0  0  0  0  0  0
   -4.3890    0.4140    2.3900 C   0  0  0  0  0  0  0  0  0  0  0  0
   -3.8950   -0.7060    2.6600 O   0  0  0  0  0  0  0  0  0  0  0  0
   -5.7270    0.6770    2.7170 O   0  0  0  0  0  0  0  0  0  0  0  0
   -4.6760    2.7620    0.4210 H   0  0  0  0  0  0  0  0  0  0  0  0
   -4.9410    0.9990    0.1060 H   0  0  0  0  0  0  0  0  0  0  0  0
   -3.4430    1.8040   -0.4210 H   0  0  0  0  0  0  0  0  0  0  0  0
   -3.5150    2.3170    2.4070 H   0  0  0  0  0  0  0  0  0  0  0  0
   -2.0970    0.0780    0.8950 H   0  0  0  0  0  0  0  0  0  0  0  0
  1  2  1  0  0  0  0
  2 14  1  1  0  0  0
  2 10  1  0  0  0  0
  3  2  1  0  0  0  0
  3 15  1  0  0  0  0
  4  3  1  0  0  0  0
  4  5  1  0  0  0  0
  5 17  1  0  0  0  0
  6  5  2  0  0  0  0
  6 18  1  0  0  0  0
  7  6  1  0  0  0  0
  8  9  1  0  0  0  0
  8  7  2  0  0  0  0
  9  4  2  0  0  0  0
 10 11  2  0  0  0  0
 12  1  1  0  0  0  0
 13  1  1  0  0  0  0
 16  3  1  0  0  0  0
 19  7  1  0  0  0  0
 20  8  1  0  0  0  0
 21  9  1  0  0  0  0
 22 10  1  0  0  0  0
 22 23  1  0  0  0  0
 23 26  1  0  0  0  0
 23 29  1  1  0  0  0
 24 23  1  0  0  0  0
 24 31  1  0  0  0  0
 25 24  1  0  0  0  0
 25 32  1  0  0  0  0
 26 27  2  0  0  0  0
 28 22  1  0  0  0  0
 30 24  1  0  0  0  0
 33 39  1  0  0  0  0
 33 34  1  0  0  0  0
 34 36  1  0  0  0  0
 34 42  1  1  0  0  0
 35 34  1  0  0  0  0
 35 26  1  0  0  0  0
 36 37  2  0  0  0  0
 36 38  1  0  0  0  0
 40 33  1  0  0  0  0
 41 33  1  0  0  0  0
 43 35  1  0  0  0  0
M  END
$$$$
