FCC.pdb
 OpenBabel07022418593D

 44 44  0  0  1  0  0  0  0  0999 V2000
    2.4820   -3.5920    1.9880 N   0  0  0  0  0  0  0  0  0  0  0  0
    2.4160   -2.1880    1.6070 C   0  0  1  0  0  0  0  0  0  0  0  0
    2.3020   -2.0850    0.1230 C   0  0  0  0  0  0  0  0  0  0  0  0
    1.1180   -2.7490   -0.4360 C   0  0  0  0  0  0  0  0  0  0  0  0
    1.2390   -4.0880   -0.8070 C   0  0  0  0  0  0  0  0  0  0  0  0
    0.2100   -4.8200   -1.3410 C   0  0  0  0  0  0  0  0  0  0  0  0
   -1.0040   -4.2200   -1.5250 C   0  0  0  0  0  0  0  0  0  0  0  0
   -1.1710   -2.9080   -1.1760 C   0  0  0  0  0  0  0  0  0  0  0  0
   -0.1110   -2.1750   -0.6330 C   0  0  0  0  0  0  0  0  0  0  0  0
    1.4360   -1.4370    2.3830 C   0  0  0  0  0  0  0  0  0  0  0  0
    0.7130   -2.0480    3.2180 O   0  0  0  0  0  0  0  0  0  0  0  0
    3.3230   -4.0450    1.5660 H   0  0  0  0  0  0  0  0  0  0  0  0
    1.6520   -4.1280    1.6540 H   0  0  0  0  0  0  0  0  0  0  0  0
    3.4330   -1.7720    1.8770 H   0  0  0  0  0  0  0  0  0  0  0  0
    3.2060   -2.5540   -0.3180 H   0  0  0  0  0  0  0  0  0  0  0  0
    2.3670   -1.0050   -0.1780 H   0  0  0  0  0  0  0  0  0  0  0  0
    2.1890   -4.5990   -0.6760 H   0  0  0  0  0  0  0  0  0  0  0  0
    0.3310   -5.8670   -1.6230 H   0  0  0  0  0  0  0  0  0  0  0  0
   -1.8530   -4.7390   -1.9390 H   0  0  0  0  0  0  0  0  0  0  0  0
   -2.1010   -2.3850   -1.2970 H   0  0  0  0  0  0  0  0  0  0  0  0
   -0.2130   -1.1480   -0.3510 H   0  0  0  0  0  0  0  0  0  0  0  0
    1.2360   -0.0460    2.2650 N   0  0  0  0  0  0  0  0  0  0  0  0
    0.2840    0.7040    3.0170 C   0  0  1  0  0  0  0  0  0  0  0  0
    1.0880    1.4940    4.0500 C   0  0  0  0  0  0  0  0  0  0  0  0
    1.9640    0.2520    5.0600 S   0  0  0  0  0  0  0  0  0  0  0  0
   -0.6310    1.5450    2.2640 C   0  0  0  0  0  0  0  0  0  0  0  0
   -1.5190    2.2360    2.8590 O   0  0  0  0  0  0  0  0  0  0  0  0
    1.8250    0.4920    1.5740 H   0  0  0  0  0  0  0  0  0  0  0  0
   -0.3070   -0.0210    3.6440 H   0  0  0  0  0  0  0  0  0  0  0  0
    0.4400    2.0680    4.7170 H   0  0  0  0  0  0  0  0  0  0  0  0
    1.8600    2.0870    3.5350 H   0  0  0  0  0  0  0  0  0  0  0  0
    1.0470   -0.5620    5.7560 H   0  0  0  0  0  0  0  0  0  0  0  0
   -0.6240    1.6740    0.8380 N   0  0  0  0  0  0  0  0  0  0  0  0
   -1.5740    2.5380    0.1660 C   0  0  1  0  0  0  0  0  0  0  0  0
   -0.8950    3.6430   -0.6120 C   0  0  0  0  0  0  0  0  0  0  0  0
    0.1930    2.9740   -1.8720 S   0  0  0  0  0  0  0  0  0  0  0  0
   -2.4910    1.7580   -0.7020 C   0  0  0  0  0  0  0  0  0  0  0  0
   -2.3710    0.4910   -0.7710 O   0  0  0  0  0  0  0  0  0  0  0  0
   -3.4890    2.3380   -1.4550 O   0  0  0  0  0  0  0  0  0  0  0  0
    0.0780    1.1380    0.2770 H   0  0  0  0  0  0  0  0  0  0  0  0
   -2.2310    3.0370    0.9270 H   0  0  0  0  0  0  0  0  0  0  0  0
   -1.7270    4.2290   -1.0890 H   0  0  0  0  0  0  0  0  0  0  0  0
   -0.3910    4.3600    0.0650 H   0  0  0  0  0  0  0  0  0  0  0  0
    1.4890    2.8670   -1.3360 H   0  0  0  0  0  0  0  0  0  0  0  0
  2 14  1  1  0  0  0
  2  1  1  0  0  0  0
  2 10  1  0  0  0  0
  3  2  1  0  0  0  0
  4  3  1  0  0  0  0
  5 17  1  0  0  0  0
  5  4  2  0  0  0  0
  6  5  1  0  0  0  0
  7  6  2  0  0  0  0
  7  8  1  0  0  0  0
  8  9  2  0  0  0  0
  9  4  1  0  0  0  0
  9 21  1  0  0  0  0
 10 11  2  0  0  0  0
 12  1  1  0  0  0  0
 13  1  1  0  0  0  0
 15  3  1  0  0  0  0
 16  3  1  0  0  0  0
 18  6  1  0  0  0  0
 19  7  1  0  0  0  0
 20  8  1  0  0  0  0
 22 10  1  0  0  0  0
 22 23  1  0  0  0  0
 23 29  1  1  0  0  0
 23 24  1  0  0  0  0
 24 30  1  0  0  0  0
 24 25  1  0  0  0  0
 25 32  1  0  0  0  0
 26 27  2  0  0  0  0
 26 23  1  0  0  0  0
 28 22  1  0  0  0  0
 31 24  1  0  0  0  0
 33 26  1  0  0  0  0
 34 33  1  0  0  0  0
 34 41  1  1  0  0  0
 35 43  1  0  0  0  0
 35 34  1  0  0  0  0
 36 44  1  0  0  0  0
 36 35  1  0  0  0  0
 37 34  1  0  0  0  0
 38 37  1  0  0  0  0
 39 37  2  0  0  0  0
 40 33  1  0  0  0  0
 42 35  1  0  0  0  0
M  END
$$$$
