FCD.pdb
 OpenBabel07022418593D

 46 46  0  0  1  0  0  0  0  0999 V2000
    3.3350   -2.4460    3.8720 N   0  0  0  0  0  0  0  0  0  0  0  0
    2.7310   -1.4890    2.8810 C   0  0  1  0  0  0  0  0  0  0  0  0
    3.3110   -1.8520    1.5650 C   0  0  0  0  0  0  0  0  0  0  0  0
    2.9350   -1.0940    0.3940 C   0  0  0  0  0  0  0  0  0  0  0  0
    3.6250    0.0570    0.0670 C   0  0  0  0  0  0  0  0  0  0  0  0
    3.3550    0.8110   -1.0520 C   0  0  0  0  0  0  0  0  0  0  0  0
    2.3360    0.4050   -1.9070 C   0  0  0  0  0  0  0  0  0  0  0  0
    1.6350   -0.7420   -1.5960 C   0  0  0  0  0  0  0  0  0  0  0  0
    1.9290   -1.4940   -0.4490 C   0  0  0  0  0  0  0  0  0  0  0  0
    1.2860   -1.6590    3.0520 C   0  0  0  0  0  0  0  0  0  0  0  0
    0.7850   -2.6440    3.7030 O   0  0  0  0  0  0  0  0  0  0  0  0
    2.9960   -2.1410    4.8350 H   0  0  0  0  0  0  0  0  0  0  0  0
    2.8720   -3.3890    3.7450 H   0  0  0  0  0  0  0  0  0  0  0  0
    3.1230   -0.5080    3.2290 H   0  0  0  0  0  0  0  0  0  0  0  0
    4.4400   -1.7530    1.6620 H   0  0  0  0  0  0  0  0  0  0  0  0
    3.2050   -2.9710    1.3700 H   0  0  0  0  0  0  0  0  0  0  0  0
    4.4130    0.3670    0.7340 H   0  0  0  0  0  0  0  0  0  0  0  0
    3.9010    1.7080   -1.2980 H   0  0  0  0  0  0  0  0  0  0  0  0
    2.1250    1.0040   -2.7920 H   0  0  0  0  0  0  0  0  0  0  0  0
    0.8490   -1.0330   -2.2800 H   0  0  0  0  0  0  0  0  0  0  0  0
    1.3390   -2.3720   -0.2780 H   0  0  0  0  0  0  0  0  0  0  0  0
    0.3210   -0.7540    2.5230 N   0  0  0  0  0  0  0  0  0  0  0  0
   -1.0770   -0.9520    2.7280 C   0  0  1  0  0  0  0  0  0  0  0  0
   -1.4870    0.1170    3.7740 C   0  0  0  0  0  0  0  0  0  0  0  0
   -0.4900   -0.2250    5.2600 S   0  0  0  0  0  0  0  0  0  0  0  0
   -1.9640   -0.7970    1.5940 C   0  0  0  0  0  0  0  0  0  0  0  0
   -3.2000   -1.0290    1.8050 O   0  0  0  0  0  0  0  0  0  0  0  0
    0.6100    0.0940    1.9610 H   0  0  0  0  0  0  0  0  0  0  0  0
   -1.2240   -1.9520    3.1960 H   0  0  0  0  0  0  0  0  0  0  0  0
   -2.5550    0.0520    3.9800 H   0  0  0  0  0  0  0  0  0  0  0  0
   -1.1740    1.0800    3.3700 H   0  0  0  0  0  0  0  0  0  0  0  0
    0.7610    0.4250    5.1000 H   0  0  0  0  0  0  0  0  0  0  0  0
   -1.6170   -0.4150    0.2730 N   0  0  0  0  0  0  0  0  0  0  0  0
   -2.6350   -0.3150   -0.7360 C   0  0  1  0  0  0  0  0  0  0  0  0
   -2.6210    1.0050   -1.4610 C   0  0  0  0  0  0  0  0  0  0  0  0
   -2.8360    2.1720   -0.5830 C   0  0  0  0  0  0  0  0  0  0  0  0
   -1.9050    2.4980    0.2080 O   0  0  0  0  0  0  0  0  0  0  0  0
   -2.4620   -1.3930   -1.7640 C   0  0  0  0  0  0  0  0  0  0  0  0
   -1.5710   -2.2470   -1.7400 O   0  0  0  0  0  0  0  0  0  0  0  0
   -4.0020    2.9290   -0.5810 O   0  0  0  0  0  0  0  0  0  0  0  0
   -3.3850   -1.4060   -2.8070 O   0  0  0  0  0  0  0  0  0  0  0  0
   -0.6000   -0.2050    0.0720 H   0  0  0  0  0  0  0  0  0  0  0  0
   -3.6240   -0.5080   -0.2850 H   0  0  0  0  0  0  0  0  0  0  0  0
   -1.7200    1.1140   -2.0900 H   0  0  0  0  0  0  0  0  0  0  0  0
   -3.4820    1.0130   -2.1940 H   0  0  0  0  0  0  0  0  0  0  0  0
   -4.3230    3.2630    0.3250 H   0  0  0  0  0  0  0  0  0  0  0  0
  1 12  1  0  0  0  0
  2 10  1  0  0  0  0
  2 14  1  1  0  0  0
  2  1  1  0  0  0  0
  3 15  1  0  0  0  0
  3  2  1  0  0  0  0
  4  3  1  0  0  0  0
  5  4  1  0  0  0  0
  5 17  1  0  0  0  0
  6  5  2  0  0  0  0
  7  8  2  0  0  0  0
  7  6  1  0  0  0  0
  8  9  1  0  0  0  0
  9 21  1  0  0  0  0
  9  4  2  0  0  0  0
 10 11  2  0  0  0  0
 13  1  1  0  0  0  0
 16  3  1  0  0  0  0
 18  6  1  0  0  0  0
 19  7  1  0  0  0  0
 20  8  1  0  0  0  0
 22 23  1  0  0  0  0
 22 10  1  0  0  0  0
 23 29  1  1  0  0  0
 23 24  1  0  0  0  0
 24 30  1  0  0  0  0
 24 25  1  0  0  0  0
 26 27  2  0  0  0  0
 26 23  1  0  0  0  0
 28 22  1  0  0  0  0
 31 24  1  0  0  0  0
 32 25  1  0  0  0  0
 33 26  1  0  0  0  0
 34 43  1  1  0  0  0
 34 33  1  0  0  0  0
 35 34  1  0  0  0  0
 35 36  1  0  0  0  0
 36 40  1  0  0  0  0
 36 37  2  0  0  0  0
 38 39  1  0  0  0  0
 38 34  1  0  0  0  0
 40 46  1  0  0  0  0
 41 38  2  0  0  0  0
 42 33  1  0  0  0  0
 44 35  1  0  0  0  0
 45 35  1  0  0  0  0
M  END
$$$$
