FCE.pdb
 OpenBabel07022418593D

 49 49  0  0  1  0  0  0  0  0999 V2000
    3.6940   -2.8590    0.0580 N   0  0  0  0  0  0  0  0  0  0  0  0
    2.8570   -1.7460    0.4620 C   0  0  1  0  0  0  0  0  0  0  0  0
    2.0420   -1.1990   -0.6910 C   0  0  0  0  0  0  0  0  0  0  0  0
    2.9250   -0.7170   -1.7810 C   0  0  0  0  0  0  0  0  0  0  0  0
    3.3860    0.5900   -1.8260 C   0  0  0  0  0  0  0  0  0  0  0  0
    4.2060    1.0070   -2.8530 C   0  0  0  0  0  0  0  0  0  0  0  0
    4.5590    0.1000   -3.8320 C   0  0  0  0  0  0  0  0  0  0  0  0
    4.1150   -1.2050   -3.8110 C   0  0  0  0  0  0  0  0  0  0  0  0
    3.2880   -1.6210   -2.7740 C   0  0  0  0  0  0  0  0  0  0  0  0
    2.0290   -2.1690    1.5910 C   0  0  0  0  0  0  0  0  0  0  0  0
    2.1110   -3.3510    2.0710 O   0  0  0  0  0  0  0  0  0  0  0  0
    3.8970   -3.4150    0.9350 H   0  0  0  0  0  0  0  0  0  0  0  0
    3.1160   -3.5190   -0.5430 H   0  0  0  0  0  0  0  0  0  0  0  0
    3.5720   -0.9180    0.7370 H   0  0  0  0  0  0  0  0  0  0  0  0
    1.2550   -1.8780   -1.0330 H   0  0  0  0  0  0  0  0  0  0  0  0
    1.5250   -0.2860   -0.2890 H   0  0  0  0  0  0  0  0  0  0  0  0
    3.0920    1.2820   -1.0400 H   0  0  0  0  0  0  0  0  0  0  0  0
    4.5790    2.0420   -2.9010 H   0  0  0  0  0  0  0  0  0  0  0  0
    5.2110    0.3730   -4.6760 H   0  0  0  0  0  0  0  0  0  0  0  0
    4.3980   -1.9040   -4.5820 H   0  0  0  0  0  0  0  0  0  0  0  0
    2.9490   -2.6510   -2.7740 H   0  0  0  0  0  0  0  0  0  0  0  0
    1.0780   -1.3310    2.2490 N   0  0  0  0  0  0  0  0  0  0  0  0
    0.2680   -1.7720    3.3670 C   0  0  1  0  0  0  0  0  0  0  0  0
    0.6800   -0.9290    4.5640 C   0  0  0  0  0  0  0  0  0  0  0  0
    0.3550    0.8160    4.1340 S   0  0  0  0  0  0  0  0  0  0  0  0
   -1.1810   -1.5650    3.1120 C   0  0  0  0  0  0  0  0  0  0  0  0
   -1.9820   -1.9110    4.0180 O   0  0  0  0  0  0  0  0  0  0  0  0
    0.9770   -0.3580    1.8910 H   0  0  0  0  0  0  0  0  0  0  0  0
    0.4840   -2.8280    3.6430 H   0  0  0  0  0  0  0  0  0  0  0  0
    0.1850   -1.2290    5.4920 H   0  0  0  0  0  0  0  0  0  0  0  0
    1.8030   -1.0140    4.6160 H   0  0  0  0  0  0  0  0  0  0  0  0
    1.2250    1.6800    4.8090 H   0  0  0  0  0  0  0  0  0  0  0  0
   -1.7070   -1.0140    1.9380 N   0  0  0  0  0  0  0  0  0  0  0  0
   -3.1480   -0.8220    1.7160 C   0  0  1  0  0  0  0  0  0  0  0  0
   -3.3190    0.6360    1.4090 C   0  0  0  0  0  0  0  0  0  0  0  0
   -4.7160    1.0780    1.1480 C   0  0  0  0  0  0  0  0  0  0  0  0
   -4.6940    2.5510    0.8700 C   0  0  0  0  0  0  0  0  0  0  0  0
   -3.6210    3.1870    0.8840 O   0  0  0  0  0  0  0  0  0  0  0  0
   -3.5890   -1.6150    0.5380 C   0  0  0  0  0  0  0  0  0  0  0  0
   -4.7700   -1.6570    0.1270 O   0  0  0  0  0  0  0  0  0  0  0  0
   -5.8510    3.2640    0.5890 O   0  0  0  0  0  0  0  0  0  0  0  0
   -2.6650   -2.3830   -0.1980 O   0  0  0  0  0  0  0  0  0  0  0  0
   -1.0750   -0.7200    1.1770 H   0  0  0  0  0  0  0  0  0  0  0  0
   -3.7330   -1.1580    2.5780 H   0  0  0  0  0  0  0  0  0  0  0  0
   -2.7250    0.8550    0.4780 H   0  0  0  0  0  0  0  0  0  0  0  0
   -2.8370    1.2260    2.2040 H   0  0  0  0  0  0  0  0  0  0  0  0
   -5.1510    0.6160    0.2460 H   0  0  0  0  0  0  0  0  0  0  0  0
   -5.3950    0.9490    2.0110 H   0  0  0  0  0  0  0  0  0  0  0  0
   -5.8290    4.0160   -0.1160 H   0  0  0  0  0  0  0  0  0  0  0  0
  1  2  1  0  0  0  0
  1 12  1  0  0  0  0
  2 14  1  1  0  0  0
  2 10  1  0  0  0  0
  3 16  1  0  0  0  0
  3  2  1  0  0  0  0
  4  3  1  0  0  0  0
  5  4  1  0  0  0  0
  5 17  1  0  0  0  0
  6  5  2  0  0  0  0
  7  8  2  0  0  0  0
  7  6  1  0  0  0  0
  8  9  1  0  0  0  0
  9  4  2  0  0  0  0
 10 11  2  0  0  0  0
 10 22  1  0  0  0  0
 13  1  1  0  0  0  0
 15  3  1  0  0  0  0
 18  6  1  0  0  0  0
 19  7  1  0  0  0  0
 20  8  1  0  0  0  0
 21  9  1  0  0  0  0
 22 23  1  0  0  0  0
 23 29  1  1  0  0  0
 23 24  1  0  0  0  0
 24 31  1  0  0  0  0
 24 30  1  0  0  0  0
 25 24  1  0  0  0  0
 25 32  1  0  0  0  0
 26 23  1  0  0  0  0
 26 27  2  0  0  0  0
 28 22  1  0  0  0  0
 33 26  1  0  0  0  0
 34 33  1  0  0  0  0
 34 44  1  1  0  0  0
 35 34  1  0  0  0  0
 35 46  1  0  0  0  0
 36 35  1  0  0  0  0
 36 48  1  0  0  0  0
 37 38  2  0  0  0  0
 37 36  1  0  0  0  0
 39 34  1  0  0  0  0
 40 39  1  0  0  0  0
 41 37  1  0  0  0  0
 42 39  2  0  0  0  0
 43 33  1  0  0  0  0
 45 35  1  0  0  0  0
 47 36  1  0  0  0  0
 49 41  1  0  0  0  0
M  END
$$$$
