FCH.pdb
 OpenBabel07022418593D

 50 51  0  0  1  0  0  0  0  0999 V2000
    1.7210   -0.2680   -0.2530 N   0  0  0  0  0  0  0  0  0  0  0  0
    2.0070    0.6080    0.8700 C   0  0  1  0  0  0  0  0  0  0  0  0
    3.0690    1.5760    0.4470 C   0  0  0  0  0  0  0  0  0  0  0  0
    4.2740    0.7880    0.0650 C   0  0  0  0  0  0  0  0  0  0  0  0
    4.4490    0.3560   -1.2430 C   0  0  0  0  0  0  0  0  0  0  0  0
    5.5620   -0.3730   -1.6000 C   0  0  0  0  0  0  0  0  0  0  0  0
    6.5430   -0.7050   -0.6890 C   0  0  0  0  0  0  0  0  0  0  0  0
    6.3790   -0.2830    0.6100 C   0  0  0  0  0  0  0  0  0  0  0  0
    5.2630    0.4460    0.9570 C   0  0  0  0  0  0  0  0  0  0  0  0
    0.7680    1.2510    1.3290 C   0  0  0  0  0  0  0  0  0  0  0  0
    0.7880    2.0580    2.3000 O   0  0  0  0  0  0  0  0  0  0  0  0
    1.2720    0.2640   -1.0180 H   0  0  0  0  0  0  0  0  0  0  0  0
    1.0310   -0.9740    0.0780 H   0  0  0  0  0  0  0  0  0  0  0  0
    2.4130   -0.0430    1.6740 H   0  0  0  0  0  0  0  0  0  0  0  0
    3.3390    2.2820    1.2590 H   0  0  0  0  0  0  0  0  0  0  0  0
    2.7460    2.1960   -0.4080 H   0  0  0  0  0  0  0  0  0  0  0  0
    3.6950    0.6030   -1.9750 H   0  0  0  0  0  0  0  0  0  0  0  0
    5.7120   -0.7210   -2.6350 H   0  0  0  0  0  0  0  0  0  0  0  0
    7.4120   -1.2850   -1.0100 H   0  0  0  0  0  0  0  0  0  0  0  0
    7.1110   -0.5110    1.3660 H   0  0  0  0  0  0  0  0  0  0  0  0
    5.1090    0.7950    1.9870 H   0  0  0  0  0  0  0  0  0  0  0  0
   -0.4950    1.0120    0.7270 N   0  0  0  0  0  0  0  0  0  0  0  0
   -1.7310    1.6300    1.1570 C   0  0  1  0  0  0  0  0  0  0  0  0
   -2.2740    2.5730    0.0820 C   0  0  0  0  0  0  0  0  0  0  0  0
   -3.8150    3.2720    0.7500 S   0  0  0  0  0  0  0  0  0  0  0  0
   -2.7430    0.6430    1.5680 C   0  0  0  0  0  0  0  0  0  0  0  0
   -3.8570    1.0720    1.9610 O   0  0  0  0  0  0  0  0  0  0  0  0
   -0.5330    0.3520   -0.0720 H   0  0  0  0  0  0  0  0  0  0  0  0
   -1.4650    2.2940    2.0190 H   0  0  0  0  0  0  0  0  0  0  0  0
   -1.5540    3.4020   -0.0200 H   0  0  0  0  0  0  0  0  0  0  0  0
   -2.4500    2.0280   -0.8670 H   0  0  0  0  0  0  0  0  0  0  0  0
   -3.6610    3.4090    2.1420 H   0  0  0  0  0  0  0  0  0  0  0  0
   -2.5570   -0.7600    1.5540 N   0  0  0  0  0  0  0  0  0  0  0  0
   -3.5800   -1.6960    1.9670 C   0  0  1  0  0  0  0  0  0  0  0  0
   -4.0000   -2.6310    0.8800 C   0  0  0  0  0  0  0  0  0  0  0  0
   -2.8940   -3.4510    0.3780 C   0  0  0  0  0  0  0  0  0  0  0  0
   -2.9770   -4.3980   -0.6200 C   0  0  0  0  0  0  0  0  0  0  0  0
   -1.7640   -4.9470   -0.8110 N   0  0  0  0  0  0  0  0  0  0  0  0
   -0.9220   -4.3490    0.0630 C   0  0  0  0  0  0  0  0  0  0  0  0
   -1.6110   -3.4560    0.7680 N   0  0  0  0  0  0  0  0  0  0  0  0
   -3.1490   -2.4920    3.1290 C   0  0  0  0  0  0  0  0  0  0  0  0
   -2.0350   -2.3820    3.6980 O   0  0  0  0  0  0  0  0  0  0  0  0
   -4.0230   -3.4380    3.6460 O   0  0  0  0  0  0  0  0  0  0  0  0
   -1.6420   -1.1270    1.2320 H   0  0  0  0  0  0  0  0  0  0  0  0
   -4.5120   -1.1470    2.2920 H   0  0  0  0  0  0  0  0  0  0  0  0
   -4.7630   -3.3250    1.3030 H   0  0  0  0  0  0  0  0  0  0  0  0
   -4.5030   -2.0800    0.0580 H   0  0  0  0  0  0  0  0  0  0  0  0
   -3.8690   -4.6820   -1.1860 H   0  0  0  0  0  0  0  0  0  0  0  0
   -1.4670   -5.6840   -1.4760 H   0  0  0  0  0  0  0  0  0  0  0  0
    0.1390   -4.5300    0.2030 H   0  0  0  0  0  0  0  0  0  0  0  0
  1 13  1  0  0  0  0
  1  2  1  0  0  0  0
  2 10  1  0  0  0  0
  2 14  1  1  0  0  0
  3  2  1  0  0  0  0
  3 15  1  0  0  0  0
  4  3  1  0  0  0  0
  4  9  1  0  0  0  0
  5  4  2  0  0  0  0
  6  5  1  0  0  0  0
  6  7  2  0  0  0  0
  7  8  1  0  0  0  0
  8  9  2  0  0  0  0
  8 20  1  0  0  0  0
  9 21  1  0  0  0  0
 10 11  2  0  0  0  0
 12  1  1  0  0  0  0
 16  3  1  0  0  0  0
 17  5  1  0  0  0  0
 18  6  1  0  0  0  0
 19  7  1  0  0  0  0
 22 23  1  0  0  0  0
 22 10  1  0  0  0  0
 23 26  1  0  0  0  0
 23 29  1  1  0  0  0
 24 25  1  0  0  0  0
 24 23  1  0  0  0  0
 25 32  1  0  0  0  0
 26 27  2  0  0  0  0
 28 22  1  0  0  0  0
 30 24  1  0  0  0  0
 31 24  1  0  0  0  0
 33 26  1  0  0  0  0
 33 34  1  0  0  0  0
 34 45  1  1  0  0  0
 34 41  1  0  0  0  0
 35 46  1  0  0  0  0
 35 34  1  0  0  0  0
 36 40  1  0  0  0  0
 36 35  1  0  0  0  0
 37 36  2  0  0  0  0
 38 37  1  0  0  0  0
 38 39  1  0  0  0  0
 39 50  1  0  0  0  0
 39 40  2  0  0  0  0
 41 43  2  0  0  0  0
 41 42  1  0  0  0  0
 44 33  1  0  0  0  0
 47 35  1  0  0  0  0
 48 37  1  0  0  0  0
 49 38  1  0  0  0  0
M  END
$$$$
