FCI.pdb
 OpenBabel07022418593D

 52 52  0  0  1  0  0  0  0  0999 V2000
    1.4430   -2.8410   -1.0900 N   0  0  0  0  0  0  0  0  0  0  0  0
    2.1520   -2.1850    0.0220 C   0  0  1  0  0  0  0  0  0  0  0  0
    3.5950   -1.9970   -0.3480 C   0  0  0  0  0  0  0  0  0  0  0  0
    4.4070   -1.3400    0.6950 C   0  0  0  0  0  0  0  0  0  0  0  0
    4.5850    0.0250    0.7130 C   0  0  0  0  0  0  0  0  0  0  0  0
    5.3480    0.6490    1.7040 C   0  0  0  0  0  0  0  0  0  0  0  0
    5.9370   -0.1090    2.6860 C   0  0  0  0  0  0  0  0  0  0  0  0
    5.7670   -1.4600    2.6760 C   0  0  0  0  0  0  0  0  0  0  0  0
    5.0150   -2.0810    1.7000 C   0  0  0  0  0  0  0  0  0  0  0  0
    1.4890   -0.8930    0.2560 C   0  0  0  0  0  0  0  0  0  0  0  0
    1.8750   -0.1690    1.2060 O   0  0  0  0  0  0  0  0  0  0  0  0
    2.1470   -3.2910   -1.7100 H   0  0  0  0  0  0  0  0  0  0  0  0
    0.7030   -3.4750   -0.7540 H   0  0  0  0  0  0  0  0  0  0  0  0
    2.0280   -2.8150    0.9270 H   0  0  0  0  0  0  0  0  0  0  0  0
    4.0260   -3.0020   -0.6210 H   0  0  0  0  0  0  0  0  0  0  0  0
    3.6770   -1.3990   -1.2820 H   0  0  0  0  0  0  0  0  0  0  0  0
    4.1410    0.6620   -0.0480 H   0  0  0  0  0  0  0  0  0  0  0  0
    5.4530    1.7320    1.6680 H   0  0  0  0  0  0  0  0  0  0  0  0
    6.5350    0.3460    3.4680 H   0  0  0  0  0  0  0  0  0  0  0  0
    6.2400   -2.0550    3.4620 H   0  0  0  0  0  0  0  0  0  0  0  0
    4.8630   -3.1470    1.6680 H   0  0  0  0  0  0  0  0  0  0  0  0
    0.4040   -0.4200   -0.5680 N   0  0  0  0  0  0  0  0  0  0  0  0
   -0.2240    0.8490   -0.3140 C   0  0  1  0  0  0  0  0  0  0  0  0
    0.0530    1.7830   -1.4930 C   0  0  0  0  0  0  0  0  0  0  0  0
   -0.7240    3.3970   -1.2100 S   0  0  0  0  0  0  0  0  0  0  0  0
   -1.6960    0.7140   -0.1010 C   0  0  0  0  0  0  0  0  0  0  0  0
   -2.3630    1.7440    0.1320 O   0  0  0  0  0  0  0  0  0  0  0  0
    0.1290   -1.0660   -1.3400 H   0  0  0  0  0  0  0  0  0  0  0  0
    0.2720    1.3120    0.5630 H   0  0  0  0  0  0  0  0  0  0  0  0
    1.1370    1.9590   -1.6060 H   0  0  0  0  0  0  0  0  0  0  0  0
   -0.3780    1.3660   -2.4340 H   0  0  0  0  0  0  0  0  0  0  0  0
   -0.8670    3.6750    0.1550 H   0  0  0  0  0  0  0  0  0  0  0  0
   -1.9910   -1.9620    2.2070 C   0  0  0  0  0  0  0  0  0  0  0  0
   -3.4700   -1.8830    2.2300 C   0  0  0  0  0  0  0  0  0  0  0  0
   -4.1180   -0.7970    1.4290 C   0  0  2  0  0  0  0  0  0  0  0  0
   -5.6170   -0.9460    1.6440 C   0  0  0  0  0  0  0  0  0  0  0  0
   -3.7260   -0.7980    0.0180 C   0  0  2  0  0  0  0  0  0  0  0  0
   -2.3230   -0.5830   -0.1640 N   0  0  0  0  0  0  0  0  0  0  0  0
   -4.4820    0.1140   -0.8620 C   0  0  0  0  0  0  0  0  0  0  0  0
   -3.8640    0.8330   -1.6690 O   0  0  0  0  0  0  0  0  0  0  0  0
   -5.8640    0.2250   -0.8470 O   0  0  0  0  0  0  0  0  0  0  0  0
   -1.6690   -2.7820    1.5000 H   0  0  0  0  0  0  0  0  0  0  0  0
   -1.6790   -2.3520    3.2310 H   0  0  0  0  0  0  0  0  0  0  0  0
   -1.4450   -1.0320    2.0980 H   0  0  0  0  0  0  0  0  0  0  0  0
   -3.8860   -2.8990    1.9550 H   0  0  0  0  0  0  0  0  0  0  0  0
   -3.8340   -1.7440    3.2950 H   0  0  0  0  0  0  0  0  0  0  0  0
   -3.8580    0.1710    1.9510 H   0  0  0  0  0  0  0  0  0  0  0  0
   -6.0300   -1.7660    1.0410 H   0  0  0  0  0  0  0  0  0  0  0  0
   -5.7510   -1.2060    2.7150 H   0  0  0  0  0  0  0  0  0  0  0  0
   -6.1430    0.0240    1.4950 H   0  0  0  0  0  0  0  0  0  0  0  0
   -3.9230   -1.8350   -0.4440 H   0  0  0  0  0  0  0  0  0  0  0  0
   -1.6390   -1.3610   -0.3660 H   0  0  0  0  0  0  0  0  0  0  0  0
  1 13  1  0  0  0  0
  1  2  1  0  0  0  0
  2 10  1  0  0  0  0
  2 14  1  1  0  0  0
  3  2  1  0  0  0  0
  3  4  1  0  0  0  0
  4  5  2  0  0  0  0
  4  9  1  0  0  0  0
  5  6  1  0  0  0  0
  6  7  2  0  0  0  0
  7 19  1  0  0  0  0
  8  7  1  0  0  0  0
  8 20  1  0  0  0  0
  9  8  2  0  0  0  0
 10 11  2  0  0  0  0
 12  1  1  0  0  0  0
 15  3  1  0  0  0  0
 16  3  1  0  0  0  0
 17  5  1  0  0  0  0
 18  6  1  0  0  0  0
 21  9  1  0  0  0  0
 22 23  1  0  0  0  0
 22 10  1  0  0  0  0
 23 26  1  0  0  0  0
 23 29  1  1  0  0  0
 24 25  1  0  0  0  0
 24 23  1  0  0  0  0
 25 32  1  0  0  0  0
 26 27  2  0  0  0  0
 28 22  1  0  0  0  0
 30 24  1  0  0  0  0
 31 24  1  0  0  0  0
 33 34  1  0  0  0  0
 33 43  1  0  0  0  0
 34 46  1  0  0  0  0
 35 36  1  0  0  0  0
 35 47  1  1  0  0  0
 35 34  1  0  0  0  0
 36 49  1  0  0  0  0
 37 51  1  6  0  0  0
 37 35  1  0  0  0  0
 38 26  1  0  0  0  0
 38 37  1  0  0  0  0
 39 41  1  0  0  0  0
 39 37  1  0  0  0  0
 40 39  2  0  0  0  0
 42 33  1  0  0  0  0
 44 33  1  0  0  0  0
 45 34  1  0  0  0  0
 48 36  1  0  0  0  0
 50 36  1  0  0  0  0
 52 38  1  0  0  0  0
M  END
$$$$
