FCK.pdb
 OpenBabel07022418593D

 54 54  0  0  1  0  0  0  0  0999 V2000
    4.0800    0.4220   -2.3330 N   0  0  0  0  0  0  0  0  0  0  0  0
    3.6680    0.2470   -0.9710 C   0  0  1  0  0  0  0  0  0  0  0  0
    3.6990    1.5770   -0.3220 C   0  0  0  0  0  0  0  0  0  0  0  0
    3.3260    1.6670    1.0810 C   0  0  0  0  0  0  0  0  0  0  0  0
    2.0250    1.9640    1.4250 C   0  0  0  0  0  0  0  0  0  0  0  0
    1.6080    2.0690    2.7540 C   0  0  0  0  0  0  0  0  0  0  0  0
    2.5100    1.8750    3.7590 C   0  0  0  0  0  0  0  0  0  0  0  0
    3.8180    1.5770    3.4420 C   0  0  0  0  0  0  0  0  0  0  0  0
    4.2110    1.4770    2.1270 C   0  0  0  0  0  0  0  0  0  0  0  0
    2.4380   -0.5140   -0.9470 C   0  0  0  0  0  0  0  0  0  0  0  0
    1.8560   -0.7630   -2.0640 O   0  0  0  0  0  0  0  0  0  0  0  0
    4.2260   -0.4130   -2.8770 H   0  0  0  0  0  0  0  0  0  0  0  0
    3.7850    1.2750   -2.7900 H   0  0  0  0  0  0  0  0  0  0  0  0
    4.4630   -0.3980   -0.4870 H   0  0  0  0  0  0  0  0  0  0  0  0
    3.0550    2.2910   -0.9010 H   0  0  0  0  0  0  0  0  0  0  0  0
    4.7450    1.9720   -0.4420 H   0  0  0  0  0  0  0  0  0  0  0  0
    1.2500    2.1320    0.6810 H   0  0  0  0  0  0  0  0  0  0  0  0
    0.5910    2.3010    3.0070 H   0  0  0  0  0  0  0  0  0  0  0  0
    2.2550    1.9410    4.8140 H   0  0  0  0  0  0  0  0  0  0  0  0
    4.5290    1.4240    4.2520 H   0  0  0  0  0  0  0  0  0  0  0  0
    5.2330    1.2440    1.9100 H   0  0  0  0  0  0  0  0  0  0  0  0
    1.7630   -1.0480    0.1860 N   0  0  0  0  0  0  0  0  0  0  0  0
    0.5440   -1.8050    0.0740 C   0  0  1  0  0  0  0  0  0  0  0  0
    0.7710   -3.2610    0.4390 C   0  0  0  0  0  0  0  0  0  0  0  0
    1.3630   -3.4630    2.1180 S   0  0  0  0  0  0  0  0  0  0  0  0
   -0.5360   -1.1970    0.8620 C   0  0  0  0  0  0  0  0  0  0  0  0
   -0.3920   -0.1550    1.5420 O   0  0  0  0  0  0  0  0  0  0  0  0
    2.1720   -0.8870    1.1260 H   0  0  0  0  0  0  0  0  0  0  0  0
    0.2650   -1.8470   -1.0220 H   0  0  0  0  0  0  0  0  0  0  0  0
    1.5400   -3.6480   -0.2530 H   0  0  0  0  0  0  0  0  0  0  0  0
   -0.1490   -3.8200    0.2590 H   0  0  0  0  0  0  0  0  0  0  0  0
    0.9540   -4.7540    2.5620 H   0  0  0  0  0  0  0  0  0  0  0  0
   -1.8640   -1.7650    0.9110 N   0  0  0  0  0  0  0  0  0  0  0  0
   -2.9110   -1.1710    1.6790 C   0  0  1  0  0  0  0  0  0  0  0  0
   -4.2020   -1.1090    0.9460 C   0  0  0  0  0  0  0  0  0  0  0  0
   -4.1850   -0.3210   -0.3200 C   0  0  0  0  0  0  0  0  0  0  0  0
   -3.3410   -0.8510   -1.4180 C   0  0  0  0  0  0  0  0  0  0  0  0
   -3.8230   -2.2300   -1.8490 C   0  0  0  0  0  0  0  0  0  0  0  0
   -2.9620   -2.7000   -2.9040 N   0  0  0  0  0  0  0  0  0  0  0  0
   -3.0920   -1.9220    2.9820 C   0  0  0  0  0  0  0  0  0  0  0  0
   -2.4050   -2.9080    3.2950 O   0  0  0  0  0  0  0  0  0  0  0  0
   -4.0700   -1.4610    3.8270 O   0  0  0  0  0  0  0  0  0  0  0  0
   -2.0120   -2.6320    0.3670 H   0  0  0  0  0  0  0  0  0  0  0  0
   -2.6420   -0.1410    2.0330 H   0  0  0  0  0  0  0  0  0  0  0  0
   -4.5950   -2.1660    0.7440 H   0  0  0  0  0  0  0  0  0  0  0  0
   -5.0280   -0.6860    1.5960 H   0  0  0  0  0  0  0  0  0  0  0  0
   -5.2360   -0.1990   -0.7380 H   0  0  0  0  0  0  0  0  0  0  0  0
   -3.8760    0.7520   -0.0940 H   0  0  0  0  0  0  0  0  0  0  0  0
   -2.2660   -0.8910   -1.2630 H   0  0  0  0  0  0  0  0  0  0  0  0
   -3.5250   -0.1940   -2.3160 H   0  0  0  0  0  0  0  0  0  0  0  0
   -3.8570   -2.9530   -1.0320 H   0  0  0  0  0  0  0  0  0  0  0  0
   -4.8800   -2.1360   -2.2330 H   0  0  0  0  0  0  0  0  0  0  0  0
   -2.1050   -3.1110   -2.4370 H   0  0  0  0  0  0  0  0  0  0  0  0
   -2.6700   -1.8800   -3.4790 H   0  0  0  0  0  0  0  0  0  0  0  0
  1  2  1  0  0  0  0
  2 10  1  0  0  0  0
  2 14  1  1  0  0  0
  2  3  1  0  0  0  0
  3  4  1  0  0  0  0
  4  5  2  0  0  0  0
  4  9  1  0  0  0  0
  5  6  1  0  0  0  0
  6 18  1  0  0  0  0
  6  7  2  0  0  0  0
  7 19  1  0  0  0  0
  8  7  1  0  0  0  0
  8 20  1  0  0  0  0
  9  8  2  0  0  0  0
 10 22  1  0  0  0  0
 11 10  2  0  0  0  0
 12  1  1  0  0  0  0
 13  1  1  0  0  0  0
 15  3  1  0  0  0  0
 16  3  1  0  0  0  0
 17  5  1  0  0  0  0
 21  9  1  0  0  0  0
 22 28  1  0  0  0  0
 23 29  1  6  0  0  0
 23 22  1  0  0  0  0
 23 24  1  0  0  0  0
 23 26  1  0  0  0  0
 24 25  1  0  0  0  0
 25 32  1  0  0  0  0
 26 33  1  0  0  0  0
 26 27  2  0  0  0  0
 30 24  1  0  0  0  0
 31 24  1  0  0  0  0
 33 34  1  0  0  0  0
 34 44  1  1  0  0  0
 34 40  1  0  0  0  0
 35 46  1  0  0  0  0
 35 34  1  0  0  0  0
 36 48  1  0  0  0  0
 36 35  1  0  0  0  0
 37 49  1  0  0  0  0
 37 36  1  0  0  0  0
 38 37  1  0  0  0  0
 38 51  1  0  0  0  0
 39 53  1  0  0  0  0
 39 38  1  0  0  0  0
 40 41  2  0  0  0  0
 40 42  1  0  0  0  0
 43 33  1  0  0  0  0
 45 35  1  0  0  0  0
 47 36  1  0  0  0  0
 50 37  1  0  0  0  0
 52 38  1  0  0  0  0
 54 39  1  0  0  0  0
M  END
$$$$
