FCL.pdb
 OpenBabel07022418593D

 52 52  0  0  1  0  0  0  0  0999 V2000
    2.1620   -2.5100   -0.7570 N   0  0  0  0  0  0  0  0  0  0  0  0
    2.6480   -1.6770    0.3050 C   0  0  1  0  0  0  0  0  0  0  0  0
    4.1080   -1.4060    0.0230 C   0  0  0  0  0  0  0  0  0  0  0  0
    4.7680   -0.5600    1.0210 C   0  0  0  0  0  0  0  0  0  0  0  0
    4.8300    0.8230    0.9310 C   0  0  0  0  0  0  0  0  0  0  0  0
    5.4670    1.5530    1.9090 C   0  0  0  0  0  0  0  0  0  0  0  0
    6.0630    0.9680    3.0050 C   0  0  0  0  0  0  0  0  0  0  0  0
    6.0030   -0.4010    3.0970 C   0  0  0  0  0  0  0  0  0  0  0  0
    5.3620   -1.1460    2.1130 C   0  0  0  0  0  0  0  0  0  0  0  0
    1.8440   -0.4830    0.5520 C   0  0  0  0  0  0  0  0  0  0  0  0
    2.1860    0.2960    1.4770 O   0  0  0  0  0  0  0  0  0  0  0  0
    1.5950   -3.3080   -0.4660 H   0  0  0  0  0  0  0  0  0  0  0  0
    1.8870   -2.0250   -1.6120 H   0  0  0  0  0  0  0  0  0  0  0  0
    2.6300   -2.2970    1.2470 H   0  0  0  0  0  0  0  0  0  0  0  0
    4.2520   -1.0500   -1.0190 H   0  0  0  0  0  0  0  0  0  0  0  0
    4.6100   -2.4160    0.0430 H   0  0  0  0  0  0  0  0  0  0  0  0
    4.3810    1.3230    0.0960 H   0  0  0  0  0  0  0  0  0  0  0  0
    5.4890    2.6410    1.7930 H   0  0  0  0  0  0  0  0  0  0  0  0
    6.5640    1.5590    3.7740 H   0  0  0  0  0  0  0  0  0  0  0  0
    6.4690   -0.8740    3.9560 H   0  0  0  0  0  0  0  0  0  0  0  0
    5.3340   -2.2360    2.2200 H   0  0  0  0  0  0  0  0  0  0  0  0
    0.6840   -0.1220   -0.1840 N   0  0  0  0  0  0  0  0  0  0  0  0
   -0.0730    1.0650    0.0980 C   0  0  1  0  0  0  0  0  0  0  0  0
   -0.0850    2.0420   -1.0460 C   0  0  0  0  0  0  0  0  0  0  0  0
    1.6130    2.5320   -1.4010 S   0  0  0  0  0  0  0  0  0  0  0  0
   -1.4450    0.7120    0.5340 C   0  0  0  0  0  0  0  0  0  0  0  0
   -2.2860    1.5920    0.8350 O   0  0  0  0  0  0  0  0  0  0  0  0
    0.4010   -0.7690   -0.9540 H   0  0  0  0  0  0  0  0  0  0  0  0
    0.4210    1.5790    0.9510 H   0  0  0  0  0  0  0  0  0  0  0  0
   -0.6330    1.6820   -1.9230 H   0  0  0  0  0  0  0  0  0  0  0  0
   -0.6200    2.9560   -0.6780 H   0  0  0  0  0  0  0  0  0  0  0  0
    1.9900    3.6770   -0.6650 H   0  0  0  0  0  0  0  0  0  0  0  0
   -5.6750   -2.8670   -1.1640 C   0  0  0  0  0  0  0  0  0  0  0  0
   -5.2080   -2.2180    0.1260 C   0  0  0  0  0  0  0  0  0  0  0  0
   -6.1770   -1.1230    0.4560 C   0  0  0  0  0  0  0  0  0  0  0  0
   -3.8150   -1.7260   -0.1130 C   0  0  0  0  0  0  0  0  0  0  0  0
   -3.1670   -1.0500    1.0420 C   0  0  2  0  0  0  0  0  0  0  0  0
   -1.8390   -0.6480    0.6220 N   0  0  0  0  0  0  0  0  0  0  0  0
   -3.0850   -1.8010    2.2750 C   0  0  0  0  0  0  0  0  0  0  0  0
   -1.9560   -2.0010    2.7980 O   0  0  0  0  0  0  0  0  0  0  0  0
   -4.1480   -2.3490    2.9760 O   0  0  0  0  0  0  0  0  0  0  0  0
   -6.5000   -3.5980   -0.9730 H   0  0  0  0  0  0  0  0  0  0  0  0
   -6.0210   -2.0980   -1.8980 H   0  0  0  0  0  0  0  0  0  0  0  0
   -4.8300   -3.4490   -1.5990 H   0  0  0  0  0  0  0  0  0  0  0  0
   -5.2590   -3.0210    0.8980 H   0  0  0  0  0  0  0  0  0  0  0  0
   -6.6060   -1.2380    1.4940 H   0  0  0  0  0  0  0  0  0  0  0  0
   -5.7200   -0.1130    0.4040 H   0  0  0  0  0  0  0  0  0  0  0  0
   -7.0590   -1.1430   -0.2160 H   0  0  0  0  0  0  0  0  0  0  0  0
   -3.1930   -2.5680   -0.4350 H   0  0  0  0  0  0  0  0  0  0  0  0
   -3.8570   -1.0040   -0.9550 H   0  0  0  0  0  0  0  0  0  0  0  0
   -3.7320   -0.0990    1.2580 H   0  0  0  0  0  0  0  0  0  0  0  0
   -1.1240   -1.3650    0.3680 H   0  0  0  0  0  0  0  0  0  0  0  0
  1 12  1  0  0  0  0
  1  2  1  0  0  0  0
  2 10  1  0  0  0  0
  2 14  1  1  0  0  0
  3 16  1  0  0  0  0
  3  2  1  0  0  0  0
  3  4  1  0  0  0  0
  4  9  1  0  0  0  0
  5  4  2  0  0  0  0
  5  6  1  0  0  0  0
  6  7  2  0  0  0  0
  7  8  1  0  0  0  0
  7 19  1  0  0  0  0
  8 20  1  0  0  0  0
  9 21  1  0  0  0  0
  9  8  2  0  0  0  0
 10 11  2  0  0  0  0
 13  1  1  0  0  0  0
 15  3  1  0  0  0  0
 17  5  1  0  0  0  0
 18  6  1  0  0  0  0
 22 23  1  0  0  0  0
 22 10  1  0  0  0  0
 23 26  1  0  0  0  0
 23 29  1  1  0  0  0
 24 31  1  0  0  0  0
 24 23  1  0  0  0  0
 25 24  1  0  0  0  0
 25 32  1  0  0  0  0
 26 38  1  0  0  0  0
 26 27  2  0  0  0  0
 28 22  1  0  0  0  0
 30 24  1  0  0  0  0
 33 42  1  0  0  0  0
 33 34  1  0  0  0  0
 34 35  1  0  0  0  0
 34 45  1  0  0  0  0
 35 46  1  0  0  0  0
 36 34  1  0  0  0  0
 36 37  1  0  0  0  0
 37 51  1  1  0  0  0
 37 39  1  0  0  0  0
 38 37  1  0  0  0  0
 39 40  2  0  0  0  0
 39 41  1  0  0  0  0
 43 33  1  0  0  0  0
 44 33  1  0  0  0  0
 47 35  1  0  0  0  0
 48 35  1  0  0  0  0
 49 36  1  0  0  0  0
 50 36  1  0  0  0  0
 52 38  1  0  0  0  0
M  END
$$$$
