FCM.pdb
 OpenBabel07022418593D

 50 50  0  0  1  0  0  0  0  0999 V2000
    1.3220   -3.5550    0.8940 N   0  0  0  0  0  0  0  0  0  0  0  0
    2.0730   -2.5000    1.5470 C   0  0  1  0  0  0  0  0  0  0  0  0
    3.5280   -2.6220    1.1910 C   0  0  0  0  0  0  0  0  0  0  0  0
    4.3850   -1.5930    1.7900 C   0  0  0  0  0  0  0  0  0  0  0  0
    4.7170   -0.4120    1.1220 C   0  0  0  0  0  0  0  0  0  0  0  0
    5.5180    0.5550    1.6810 C   0  0  0  0  0  0  0  0  0  0  0  0
    6.0320    0.3950    2.9370 C   0  0  0  0  0  0  0  0  0  0  0  0
    5.7190   -0.7590    3.6170 C   0  0  0  0  0  0  0  0  0  0  0  0
    4.9060   -1.7450    3.0570 C   0  0  0  0  0  0  0  0  0  0  0  0
    1.5900   -1.1590    1.2570 C   0  0  0  0  0  0  0  0  0  0  0  0
    2.1150   -0.2370    1.9850 O   0  0  0  0  0  0  0  0  0  0  0  0
    1.3310   -3.3750   -0.1350 H   0  0  0  0  0  0  0  0  0  0  0  0
    0.3080   -3.4470    1.1930 H   0  0  0  0  0  0  0  0  0  0  0  0
    2.0110   -2.6690    2.6430 H   0  0  0  0  0  0  0  0  0  0  0  0
    3.9400   -3.6080    1.5040 H   0  0  0  0  0  0  0  0  0  0  0  0
    3.6230   -2.5460    0.0830 H   0  0  0  0  0  0  0  0  0  0  0  0
    4.3230   -0.2690    0.1330 H   0  0  0  0  0  0  0  0  0  0  0  0
    5.7520    1.4430    1.1350 H   0  0  0  0  0  0  0  0  0  0  0  0
    6.6760    1.1390    3.4260 H   0  0  0  0  0  0  0  0  0  0  0  0
    6.1040   -0.9080    4.5970 H   0  0  0  0  0  0  0  0  0  0  0  0
    4.6870   -2.6450    3.6290 H   0  0  0  0  0  0  0  0  0  0  0  0
    0.6450   -0.7620    0.3110 N   0  0  0  0  0  0  0  0  0  0  0  0
    0.2650    0.6220    0.1540 C   0  0  1  0  0  0  0  0  0  0  0  0
    0.5580    1.1550   -1.2400 C   0  0  0  0  0  0  0  0  0  0  0  0
    2.3110    1.0510   -1.6240 S   0  0  0  0  0  0  0  0  0  0  0  0
   -1.2430    0.6700    0.3090 C   0  0  0  0  0  0  0  0  0  0  0  0
   -1.8480    1.7700    0.1810 O   0  0  0  0  0  0  0  0  0  0  0  0
    0.2280   -1.5250   -0.2850 H   0  0  0  0  0  0  0  0  0  0  0  0
    0.7010    1.2890    0.9000 H   0  0  0  0  0  0  0  0  0  0  0  0
    0.2750    2.2450   -1.2570 H   0  0  0  0  0  0  0  0  0  0  0  0
   -0.0500    0.6610   -2.0180 H   0  0  0  0  0  0  0  0  0  0  0  0
    2.9920    2.2430   -1.3030 H   0  0  0  0  0  0  0  0  0  0  0  0
   -5.6720    1.0620   -2.3790 C   0  0  0  0  0  0  0  0  0  0  0  0
   -6.1850    0.4370   -0.7570 S   0  0  0  0  0  0  0  0  0  0  0  0
   -5.5320   -1.2300   -0.4650 C   0  0  0  0  0  0  0  0  0  0  0  0
   -4.0470   -1.2140   -0.3810 C   0  0  0  0  0  0  0  0  0  0  0  0
   -3.4630   -0.3760    0.7160 C   0  0  2  0  0  0  0  0  0  0  0  0
   -1.9940   -0.4980    0.5910 N   0  0  0  0  0  0  0  0  0  0  0  0
   -3.8760   -0.7960    2.0700 C   0  0  0  0  0  0  0  0  0  0  0  0
   -5.0910   -0.7440    2.4090 O   0  0  0  0  0  0  0  0  0  0  0  0
   -2.9860   -1.2620    3.0280 O   0  0  0  0  0  0  0  0  0  0  0  0
   -5.9740    0.3510   -3.1680 H   0  0  0  0  0  0  0  0  0  0  0  0
   -4.5810    1.2360   -2.4430 H   0  0  0  0  0  0  0  0  0  0  0  0
   -6.1640    2.0400   -2.5600 H   0  0  0  0  0  0  0  0  0  0  0  0
   -5.8010   -1.8950   -1.3120 H   0  0  0  0  0  0  0  0  0  0  0  0
   -5.9840   -1.6360    0.4480 H   0  0  0  0  0  0  0  0  0  0  0  0
   -3.6120   -0.8210   -1.3400 H   0  0  0  0  0  0  0  0  0  0  0  0
   -3.6670   -2.2520   -0.2830 H   0  0  0  0  0  0  0  0  0  0  0  0
   -3.7360    0.6640    0.5660 H   0  0  0  0  0  0  0  0  0  0  0  0
   -1.5190   -1.4120    0.7090 H   0  0  0  0  0  0  0  0  0  0  0  0
  1 13  1  0  0  0  0
  1  2  1  0  0  0  0
  2 14  1  1  0  0  0
  3 15  1  0  0  0  0
  3  2  1  0  0  0  0
  3  4  1  0  0  0  0
  4  9  1  0  0  0  0
  5  6  1  0  0  0  0
  5  4  2  0  0  0  0
  6  7  2  0  0  0  0
  7 19  1  0  0  0  0
  7  8  1  0  0  0  0
  8 20  1  0  0  0  0
  9  8  2  0  0  0  0
  9 21  1  0  0  0  0
 10  2  1  0  0  0  0
 10 11  2  0  0  0  0
 12  1  1  0  0  0  0
 16  3  1  0  0  0  0
 17  5  1  0  0  0  0
 18  6  1  0  0  0  0
 22 10  1  0  0  0  0
 23 26  1  0  0  0  0
 23 22  1  0  0  0  0
 23 29  1  1  0  0  0
 24 23  1  0  0  0  0
 25 32  1  0  0  0  0
 25 24  1  0  0  0  0
 26 38  1  0  0  0  0
 27 26  2  0  0  0  0
 28 22  1  0  0  0  0
 30 24  1  0  0  0  0
 31 24  1  0  0  0  0
 33 34  1  0  0  0  0
 34 35  1  0  0  0  0
 35 36  1  0  0  0  0
 35 46  1  0  0  0  0
 36 48  1  0  0  0  0
 36 37  1  0  0  0  0
 37 49  1  6  0  0  0
 37 39  1  0  0  0  0
 38 50  1  0  0  0  0
 38 37  1  0  0  0  0
 39 40  2  0  0  0  0
 39 41  1  0  0  0  0
 42 33  1  0  0  0  0
 43 33  1  0  0  0  0
 44 33  1  0  0  0  0
 45 35  1  0  0  0  0
 47 36  1  0  0  0  0
M  END
$$$$
