FCP.pdb
 OpenBabel07022418593D

 47 48  0  0  1  0  0  0  0  0999 V2000
    4.9310   -0.8440    0.9770 N   0  0  0  0  0  0  0  0  0  0  0  0
    3.5390   -0.4170    0.6020 C   0  0  1  0  0  0  0  0  0  0  0  0
    3.4010   -0.8690   -0.8060 C   0  0  0  0  0  0  0  0  0  0  0  0
    2.1590   -0.6270   -1.5070 C   0  0  0  0  0  0  0  0  0  0  0  0
    1.2000   -1.6180   -1.5050 C   0  0  0  0  0  0  0  0  0  0  0  0
    0.0080   -1.4800   -2.1590 C   0  0  0  0  0  0  0  0  0  0  0  0
   -0.2810   -0.3310   -2.8520 C   0  0  0  0  0  0  0  0  0  0  0  0
    0.6900    0.6530   -2.8430 C   0  0  0  0  0  0  0  0  0  0  0  0
    1.8940    0.5310   -2.1910 C   0  0  0  0  0  0  0  0  0  0  0  0
    2.6290   -1.0310    1.5810 C   0  0  0  0  0  0  0  0  0  0  0  0
    2.9220   -2.1270    2.1660 O   0  0  0  0  0  0  0  0  0  0  0  0
    4.9110   -1.8930    0.8700 H   0  0  0  0  0  0  0  0  0  0  0  0
    5.0900   -0.6070    1.9760 H   0  0  0  0  0  0  0  0  0  0  0  0
    3.5780    0.6930    0.7130 H   0  0  0  0  0  0  0  0  0  0  0  0
    4.2210   -0.3860   -1.3880 H   0  0  0  0  0  0  0  0  0  0  0  0
    3.6380   -1.9640   -0.8160 H   0  0  0  0  0  0  0  0  0  0  0  0
    1.3780   -2.5660   -0.9620 H   0  0  0  0  0  0  0  0  0  0  0  0
   -0.7220   -2.3010   -2.1260 H   0  0  0  0  0  0  0  0  0  0  0  0
   -1.2300   -0.1890   -3.3880 H   0  0  0  0  0  0  0  0  0  0  0  0
    0.4230    1.5550   -3.4070 H   0  0  0  0  0  0  0  0  0  0  0  0
    2.6110    1.3420   -2.2260 H   0  0  0  0  0  0  0  0  0  0  0  0
    1.3750   -0.4490    1.9490 N   0  0  0  0  0  0  0  0  0  0  0  0
    0.5010   -1.0190    2.8950 C   0  0  1  0  0  0  0  0  0  0  0  0
    0.7850   -0.3740    4.2900 C   0  0  0  0  0  0  0  0  0  0  0  0
    0.5190    1.3980    4.2240 S   0  0  0  0  0  0  0  0  0  0  0  0
   -0.9160   -1.1040    2.7050 C   0  0  0  0  0  0  0  0  0  0  0  0
   -1.5090   -1.7080    3.7180 O   0  0  0  0  0  0  0  0  0  0  0  0
    1.1600    0.4470    1.4770 H   0  0  0  0  0  0  0  0  0  0  0  0
    0.8900   -2.0770    3.0850 H   0  0  0  0  0  0  0  0  0  0  0  0
    1.8600   -0.5750    4.4700 H   0  0  0  0  0  0  0  0  0  0  0  0
    0.1850   -0.8690    5.0640 H   0  0  0  0  0  0  0  0  0  0  0  0
   -0.7990    1.7650    4.5590 H   0  0  0  0  0  0  0  0  0  0  0  0
   -1.7750   -0.6760    1.6710 N   0  0  0  0  0  0  0  0  0  0  0  0
   -1.6160   -0.0180    0.4230 C   0  0  0  0  0  0  0  0  0  0  0  0
   -2.6240    1.1460    0.6060 C   0  0  0  0  0  0  0  0  0  0  0  0
   -3.7720    0.4760    1.3530 C   0  0  0  0  0  0  0  0  0  0  0  0
   -3.2470   -0.8710    1.7480 C   0  0  1  0  0  0  0  0  0  0  0  0
   -3.7190   -1.9270    0.8570 C   0  0  0  0  0  0  0  0  0  0  0  0
   -2.9740   -2.6670    0.1680 O   0  0  0  0  0  0  0  0  0  0  0  0
   -5.0990   -2.1730    0.7240 O   0  0  0  0  0  0  0  0  0  0  0  0
   -0.6900    0.4480    0.1690 H   0  0  0  0  0  0  0  0  0  0  0  0
   -2.0500   -0.6600   -0.3780 H   0  0  0  0  0  0  0  0  0  0  0  0
   -2.1690    1.9630    1.1850 H   0  0  0  0  0  0  0  0  0  0  0  0
   -2.9560    1.4870   -0.3730 H   0  0  0  0  0  0  0  0  0  0  0  0
   -3.9590    1.0990    2.2580 H   0  0  0  0  0  0  0  0  0  0  0  0
   -4.6850    0.4090    0.7130 H   0  0  0  0  0  0  0  0  0  0  0  0
   -3.5230   -1.0830    2.8150 H   0  0  0  0  0  0  0  0  0  0  0  0
  1 13  1  0  0  0  0
  2 14  1  1  0  0  0
  2  1  1  0  0  0  0
  2 10  1  0  0  0  0
  3  2  1  0  0  0  0
  4  5  1  0  0  0  0
  4  3  1  0  0  0  0
  5 17  1  0  0  0  0
  6 18  1  0  0  0  0
  6  5  2  0  0  0  0
  7  8  2  0  0  0  0
  7  6  1  0  0  0  0
  8  9  1  0  0  0  0
  9  4  2  0  0  0  0
 10 22  1  0  0  0  0
 10 11  2  0  0  0  0
 12  1  1  0  0  0  0
 15  3  1  0  0  0  0
 16  3  1  0  0  0  0
 19  7  1  0  0  0  0
 20  8  1  0  0  0  0
 21  9  1  0  0  0  0
 22 23  1  0  0  0  0
 23 29  1  1  0  0  0
 23 24  1  0  0  0  0
 24 30  1  0  0  0  0
 24 31  1  0  0  0  0
 25 24  1  0  0  0  0
 25 32  1  0  0  0  0
 26 23  1  0  0  0  0
 26 27  2  0  0  0  0
 28 22  1  0  0  0  0
 33 37  1  0  0  0  0
 33 26  1  0  0  0  0
 34 35  1  0  0  0  0
 34 33  1  0  0  0  0
 35 43  1  0  0  0  0
 35 36  1  0  0  0  0
 36 37  1  0  0  0  0
 36 45  1  0  0  0  0
 37 47  1  1  0  0  0
 38 37  1  0  0  0  0
 39 38  2  0  0  0  0
 40 38  1  0  0  0  0
 41 34  1  0  0  0  0
 42 34  1  0  0  0  0
 44 35  1  0  0  0  0
 46 36  1  0  0  0  0
M  END
$$$$
