FCR.pdb
 OpenBabel07022418593D

 56 56  0  0  1  0  0  0  0  0999 V2000
   -0.2750    2.5160    0.3490 N   0  0  0  0  0  0  0  0  0  0  0  0
    1.1700    2.3330    0.2440 C   0  0  1  0  0  0  0  0  0  0  0  0
    1.7220    1.5620    1.4540 C   0  0  0  0  0  0  0  0  0  0  0  0
    1.5210    2.2470    2.7330 C   0  0  0  0  0  0  0  0  0  0  0  0
    2.5600    3.0730    3.2330 C   0  0  0  0  0  0  0  0  0  0  0  0
    2.4510    3.7540    4.4370 C   0  0  0  0  0  0  0  0  0  0  0  0
    1.2930    3.6470    5.1990 C   0  0  0  0  0  0  0  0  0  0  0  0
    0.2780    2.8370    4.7150 C   0  0  0  0  0  0  0  0  0  0  0  0
    0.3910    2.1530    3.5130 C   0  0  0  0  0  0  0  0  0  0  0  0
    1.5700    1.6020   -1.0090 C   0  0  0  0  0  0  0  0  0  0  0  0
    2.6170    2.0170   -1.6170 O   0  0  0  0  0  0  0  0  0  0  0  0
   -0.5440    3.2350   -0.3790 H   0  0  0  0  0  0  0  0  0  0  0  0
   -0.5110    2.9440    1.2560 H   0  0  0  0  0  0  0  0  0  0  0  0
    1.6390    3.3350    0.2750 H   0  0  0  0  0  0  0  0  0  0  0  0
    2.7440    1.1860    1.2760 H   0  0  0  0  0  0  0  0  0  0  0  0
    1.0820    0.6050    1.4430 H   0  0  0  0  0  0  0  0  0  0  0  0
    3.4490    3.1520    2.6420 H   0  0  0  0  0  0  0  0  0  0  0  0
    3.2580    4.3680    4.7820 H   0  0  0  0  0  0  0  0  0  0  0  0
    1.2020    4.1960    6.1620 H   0  0  0  0  0  0  0  0  0  0  0  0
   -0.6430    2.7260    5.2890 H   0  0  0  0  0  0  0  0  0  0  0  0
   -0.4340    1.5190    3.1690 H   0  0  0  0  0  0  0  0  0  0  0  0
    0.8410    0.5050   -1.5130 N   0  0  0  0  0  0  0  0  0  0  0  0
    1.1150   -0.2550   -2.6910 C   0  0  1  0  0  0  0  0  0  0  0  0
    2.6140   -0.6680   -2.7330 C   0  0  0  0  0  0  0  0  0  0  0  0
    2.8640   -1.6690   -4.2090 S   0  0  0  0  0  0  0  0  0  0  0  0
    0.2940   -1.4020   -2.9600 C   0  0  0  0  0  0  0  0  0  0  0  0
    0.4480   -2.1440   -3.9720 O   0  0  0  0  0  0  0  0  0  0  0  0
   -0.0320    0.2720   -0.8830 H   0  0  0  0  0  0  0  0  0  0  0  0
    1.0850    0.4440   -3.5690 H   0  0  0  0  0  0  0  0  0  0  0  0
    2.9440   -1.1840   -1.8440 H   0  0  0  0  0  0  0  0  0  0  0  0
    3.1750    0.2680   -2.8870 H   0  0  0  0  0  0  0  0  0  0  0  0
    2.1060   -1.1580   -5.2910 H   0  0  0  0  0  0  0  0  0  0  0  0
   -2.4220   -4.7120    4.0660 N   0  0  0  0  0  0  0  0  0  0  0  0
   -1.7560   -4.3310    2.8890 C   0  0  0  0  0  0  0  0  0  0  0  0
   -0.7590   -5.0530    2.4050 N   0  0  0  0  0  0  0  0  0  0  0  0
   -2.0980   -3.1660    2.1720 N   0  0  0  0  0  0  0  0  0  0  0  0
   -1.5120   -2.9580    0.8520 C   0  0  0  0  0  0  0  0  0  0  0  0
   -2.1190   -4.0000   -0.0290 C   0  0  0  0  0  0  0  0  0  0  0  0
   -1.5950   -4.0770   -1.3810 C   0  0  0  0  0  0  0  0  0  0  0  0
   -1.5720   -2.9790   -2.3590 C   0  0  2  0  0  0  0  0  0  0  0  0
   -0.8000   -1.8140   -2.0880 N   0  0  0  0  0  0  0  0  0  0  0  0
   -2.9270   -2.6640   -2.9050 C   0  0  0  0  0  0  0  0  0  0  0  0
   -3.2550   -1.4960   -3.1310 O   0  0  0  0  0  0  0  0  0  0  0  0
   -3.7900   -3.6900   -3.1440 O   0  0  0  0  0  0  0  0  0  0  0  0
   -3.3160   -5.1970    4.0640 H   0  0  0  0  0  0  0  0  0  0  0  0
   -1.9770   -4.4880    4.9760 H   0  0  0  0  0  0  0  0  0  0  0  0
   -0.4060   -5.9210    2.8440 H   0  0  0  0  0  0  0  0  0  0  0  0
   -2.7440   -2.4580    2.5330 H   0  0  0  0  0  0  0  0  0  0  0  0
   -0.4270   -2.9150    0.8890 H   0  0  0  0  0  0  0  0  0  0  0  0
   -1.8630   -1.9450    0.5160 H   0  0  0  0  0  0  0  0  0  0  0  0
   -2.0370   -5.0390    0.4480 H   0  0  0  0  0  0  0  0  0  0  0  0
   -3.2360   -3.8220    0.0120 H   0  0  0  0  0  0  0  0  0  0  0  0
   -0.5150   -4.4480   -1.3120 H   0  0  0  0  0  0  0  0  0  0  0  0
   -2.1150   -4.9570   -1.8970 H   0  0  0  0  0  0  0  0  0  0  0  0
   -1.0680   -3.4500   -3.2910 H   0  0  0  0  0  0  0  0  0  0  0  0
   -1.0480   -1.2660   -1.2530 H   0  0  0  0  0  0  0  0  0  0  0  0
  1 13  1  0  0  0  0
  2 14  1  6  0  0  0
  2  1  1  0  0  0  0
  2  3  1  0  0  0  0
  3  4  1  0  0  0  0
  4  5  2  0  0  0  0
  4  9  1  0  0  0  0
  5  6  1  0  0  0  0
  6 18  1  0  0  0  0
  6  7  2  0  0  0  0
  7 19  1  0  0  0  0
  8  7  1  0  0  0  0
  8 20  1  0  0  0  0
  9  8  2  0  0  0  0
 10  2  1  0  0  0  0
 11 10  2  0  0  0  0
 12  1  1  0  0  0  0
 15  3  1  0  0  0  0
 16  3  1  0  0  0  0
 17  5  1  0  0  0  0
 21  9  1  0  0  0  0
 22 10  1  0  0  0  0
 22 28  1  0  0  0  0
 23 29  1  6  0  0  0
 23 22  1  0  0  0  0
 24 23  1  0  0  0  0
 24 30  1  0  0  0  0
 25 24  1  0  0  0  0
 26 23  1  0  0  0  0
 26 41  1  0  0  0  0
 27 26  2  0  0  0  0
 31 24  1  0  0  0  0
 32 25  1  0  0  0  0
 33 46  1  0  0  0  0
 34 33  1  0  0  0  0
 35 47  1  0  0  0  0
 35 34  2  0  0  0  0
 36 48  1  0  0  0  0
 36 34  1  0  0  0  0
 37 49  1  0  0  0  0
 37 36  1  0  0  0  0
 38 52  1  0  0  0  0
 38 51  1  0  0  0  0
 38 37  1  0  0  0  0
 39 53  1  0  0  0  0
 39 38  1  0  0  0  0
 40 55  1  6  0  0  0
 40 41  1  0  0  0  0
 40 39  1  0  0  0  0
 41 56  1  0  0  0  0
 42 40  1  0  0  0  0
 43 42  1  0  0  0  0
 44 42  2  0  0  0  0
 45 33  1  0  0  0  0
 50 37  1  0  0  0  0
 54 39  1  0  0  0  0
M  END
$$$$
