FCS.pdb
 OpenBabel07022418593D

 44 44  0  0  1  0  0  0  0  0999 V2000
    0.1320   -2.5070   -0.3120 N   0  0  0  0  0  0  0  0  0  0  0  0
    0.9540   -2.6130    0.8630 C   0  0  1  0  0  0  0  0  0  0  0  0
    2.3120   -3.2040    0.5890 C   0  0  0  0  0  0  0  0  0  0  0  0
    3.1140   -2.4410   -0.3630 C   0  0  0  0  0  0  0  0  0  0  0  0
    3.0090   -2.7440   -1.7060 C   0  0  0  0  0  0  0  0  0  0  0  0
    3.7450   -2.0540   -2.6500 C   0  0  0  0  0  0  0  0  0  0  0  0
    4.6040   -1.0430   -2.2810 C   0  0  0  0  0  0  0  0  0  0  0  0
    4.7240   -0.7240   -0.9450 C   0  0  0  0  0  0  0  0  0  0  0  0
    3.9830   -1.4240   -0.0200 C   0  0  0  0  0  0  0  0  0  0  0  0
    1.0160   -1.3320    1.5820 C   0  0  0  0  0  0  0  0  0  0  0  0
    1.7000   -1.2670    2.6330 O   0  0  0  0  0  0  0  0  0  0  0  0
   -0.5030   -3.2960   -0.4520 H   0  0  0  0  0  0  0  0  0  0  0  0
    0.5960   -2.1360   -1.1410 H   0  0  0  0  0  0  0  0  0  0  0  0
    0.4340   -3.3400    1.5500 H   0  0  0  0  0  0  0  0  0  0  0  0
    2.8280   -3.3250    1.5550 H   0  0  0  0  0  0  0  0  0  0  0  0
    2.1530   -4.2260    0.1870 H   0  0  0  0  0  0  0  0  0  0  0  0
    2.3600   -3.5200   -2.0780 H   0  0  0  0  0  0  0  0  0  0  0  0
    3.6700   -2.2820   -3.7000 H   0  0  0  0  0  0  0  0  0  0  0  0
    5.1840   -0.4970   -3.0110 H   0  0  0  0  0  0  0  0  0  0  0  0
    5.4050    0.0730   -0.6860 H   0  0  0  0  0  0  0  0  0  0  0  0
    4.0820   -1.1700    1.0120 H   0  0  0  0  0  0  0  0  0  0  0  0
    0.3350   -0.1920    1.1230 N   0  0  0  0  0  0  0  0  0  0  0  0
    0.3570    1.0920    1.7830 C   0  0  1  0  0  0  0  0  0  0  0  0
    0.8290    2.2080    0.8840 C   0  0  0  0  0  0  0  0  0  0  0  0
    0.7880    3.7370    1.8910 S   0  0  0  0  0  0  0  0  0  0  0  0
   -1.0390    1.4390    2.2120 C   0  0  0  0  0  0  0  0  0  0  0  0
   -1.3000    2.5070    2.8110 O   0  0  0  0  0  0  0  0  0  0  0  0
   -0.2440   -0.2400    0.2350 H   0  0  0  0  0  0  0  0  0  0  0  0
    0.9870    1.0210    2.6870 H   0  0  0  0  0  0  0  0  0  0  0  0
    1.8120    2.0440    0.4500 H   0  0  0  0  0  0  0  0  0  0  0  0
    0.1100    2.3790    0.0570 H   0  0  0  0  0  0  0  0  0  0  0  0
    0.8110    3.4420    3.2560 H   0  0  0  0  0  0  0  0  0  0  0  0
   -3.8240    1.8550    0.1880 O   0  0  0  0  0  0  0  0  0  0  0  0
   -4.3280    0.8980    1.0740 C   0  0  0  0  0  0  0  0  0  0  0  0
   -3.4910    0.8850    2.3610 C   0  0  2  0  0  0  0  0  0  0  0  0
   -2.1390    0.5560    1.9500 N   0  0  0  0  0  0  0  0  0  0  0  0
   -4.0770   -0.2160    3.2050 C   0  0  0  0  0  0  0  0  0  0  0  0
   -5.2270   -0.1450    3.6660 O   0  0  0  0  0  0  0  0  0  0  0  0
   -3.2750   -1.3210    3.4480 O   0  0  0  0  0  0  0  0  0  0  0  0
   -2.9480    1.5130   -0.1230 H   0  0  0  0  0  0  0  0  0  0  0  0
   -4.2480   -0.1270    0.6500 H   0  0  0  0  0  0  0  0  0  0  0  0
   -5.3910    1.0690    1.3210 H   0  0  0  0  0  0  0  0  0  0  0  0
   -3.5470    1.8560    2.8730 H   0  0  0  0  0  0  0  0  0  0  0  0
   -1.9380   -0.3370    1.4520 H   0  0  0  0  0  0  0  0  0  0  0  0
  1  2  1  0  0  0  0
  2 14  1  1  0  0  0
  2 10  1  0  0  0  0
  3  2  1  0  0  0  0
  3 15  1  0  0  0  0
  4  9  1  0  0  0  0
  4  3  1  0  0  0  0
  5  4  2  0  0  0  0
  6  7  2  0  0  0  0
  6  5  1  0  0  0  0
  7  8  1  0  0  0  0
  8 20  1  0  0  0  0
  8  9  2  0  0  0  0
  9 21  1  0  0  0  0
 10 11  2  0  0  0  0
 12  1  1  0  0  0  0
 13  1  1  0  0  0  0
 16  3  1  0  0  0  0
 17  5  1  0  0  0  0
 18  6  1  0  0  0  0
 19  7  1  0  0  0  0
 22 10  1  0  0  0  0
 22 23  1  0  0  0  0
 23 26  1  0  0  0  0
 23 29  1  1  0  0  0
 24 23  1  0  0  0  0
 24 25  1  0  0  0  0
 25 32  1  0  0  0  0
 26 27  2  0  0  0  0
 28 22  1  0  0  0  0
 30 24  1  0  0  0  0
 31 24  1  0  0  0  0
 33 34  1  0  0  0  0
 34 42  1  0  0  0  0
 34 35  1  0  0  0  0
 35 43  1  1  0  0  0
 35 37  1  0  0  0  0
 36 26  1  0  0  0  0
 36 35  1  0  0  0  0
 37 39  2  0  0  0  0
 37 38  1  0  0  0  0
 40 33  1  0  0  0  0
 41 34  1  0  0  0  0
 44 36  1  0  0  0  0
M  END
$$$$
