FCT.pdb
 OpenBabel07022418593D

 47 47  0  0  1  0  0  0  0  0999 V2000
    4.0310   -3.4300    0.3030 N   0  0  0  0  0  0  0  0  0  0  0  0
    3.2030   -2.1890    0.1800 C   0  0  1  0  0  0  0  0  0  0  0  0
    2.5510   -2.3240   -1.1610 C   0  0  0  0  0  0  0  0  0  0  0  0
    1.6860   -1.2200   -1.5830 C   0  0  0  0  0  0  0  0  0  0  0  0
    0.3270   -1.1660   -1.3980 C   0  0  0  0  0  0  0  0  0  0  0  0
   -0.4050   -0.1080   -1.8360 C   0  0  0  0  0  0  0  0  0  0  0  0
    0.1960    0.9470   -2.4800 C   0  0  0  0  0  0  0  0  0  0  0  0
    1.5550    0.9000   -2.6680 C   0  0  0  0  0  0  0  0  0  0  0  0
    2.3040   -0.1430   -2.2410 C   0  0  0  0  0  0  0  0  0  0  0  0
    2.3090   -2.2110    1.3280 C   0  0  0  0  0  0  0  0  0  0  0  0
    2.2590   -3.2720    2.0430 O   0  0  0  0  0  0  0  0  0  0  0  0
    3.4050   -4.2320    0.0240 H   0  0  0  0  0  0  0  0  0  0  0  0
    4.3760   -3.4990    1.2740 H   0  0  0  0  0  0  0  0  0  0  0  0
    3.9300   -1.3380    0.2010 H   0  0  0  0  0  0  0  0  0  0  0  0
    2.0050   -3.2990   -1.2140 H   0  0  0  0  0  0  0  0  0  0  0  0
    3.3930   -2.4220   -1.9160 H   0  0  0  0  0  0  0  0  0  0  0  0
   -0.1410   -2.0220   -0.8780 H   0  0  0  0  0  0  0  0  0  0  0  0
   -1.4790   -0.1000   -1.6730 H   0  0  0  0  0  0  0  0  0  0  0  0
   -0.4070    1.7810   -2.8210 H   0  0  0  0  0  0  0  0  0  0  0  0
    2.0670    1.7270   -3.1780 H   0  0  0  0  0  0  0  0  0  0  0  0
    3.3870   -0.1680   -2.3970 H   0  0  0  0  0  0  0  0  0  0  0  0
    1.4550   -1.1690    1.7860 N   0  0  0  0  0  0  0  0  0  0  0  0
    0.6350   -1.3060    2.9560 C   0  0  1  0  0  0  0  0  0  0  0  0
    1.3740   -0.4780    4.0440 C   0  0  0  0  0  0  0  0  0  0  0  0
    0.4830   -0.5330    5.5990 S   0  0  0  0  0  0  0  0  0  0  0  0
   -0.7310   -0.8330    2.8920 C   0  0  0  0  0  0  0  0  0  0  0  0
   -1.4530   -1.0090    3.9460 O   0  0  0  0  0  0  0  0  0  0  0  0
    1.4380   -0.2940    1.2490 H   0  0  0  0  0  0  0  0  0  0  0  0
    0.7250   -2.3760    3.3070 H   0  0  0  0  0  0  0  0  0  0  0  0
    1.5320    0.5390    3.6600 H   0  0  0  0  0  0  0  0  0  0  0  0
    2.3680   -0.9410    4.1890 H   0  0  0  0  0  0  0  0  0  0  0  0
    0.3230   -1.8590    5.9810 H   0  0  0  0  0  0  0  0  0  0  0  0
   -2.5880    2.1250    0.3020 C   0  0  0  0  0  0  0  0  0  0  0  0
   -2.9690    1.6890    1.7020 C   0  0  1  0  0  0  0  0  0  0  0  0
   -4.3490    1.9430    1.8180 O   0  0  0  0  0  0  0  0  0  0  0  0
   -2.7810    0.2220    1.9160 C   0  0  2  0  0  0  0  0  0  0  0  0
   -1.3960   -0.1950    1.8250 N   0  0  0  0  0  0  0  0  0  0  0  0
   -3.6160   -0.5070    0.9370 C   0  0  0  0  0  0  0  0  0  0  0  0
   -4.8410   -0.2540    0.8850 O   0  0  0  0  0  0  0  0  0  0  0  0
   -3.0760   -1.4520    0.0890 O   0  0  0  0  0  0  0  0  0  0  0  0
   -2.9060    1.4040   -0.4630 H   0  0  0  0  0  0  0  0  0  0  0  0
   -3.0810    3.0980    0.0350 H   0  0  0  0  0  0  0  0  0  0  0  0
   -1.4960    2.3370    0.2970 H   0  0  0  0  0  0  0  0  0  0  0  0
   -2.4620    2.3260    2.4500 H   0  0  0  0  0  0  0  0  0  0  0  0
   -4.7800    2.0840    0.9460 H   0  0  0  0  0  0  0  0  0  0  0  0
   -3.1640   -0.0190    2.9360 H   0  0  0  0  0  0  0  0  0  0  0  0
   -0.8400   -0.0320    0.9670 H   0  0  0  0  0  0  0  0  0  0  0  0
  1 13  1  0  0  0  0
  2 14  1  1  0  0  0
  2  1  1  0  0  0  0
  2 10  1  0  0  0  0
  3  2  1  0  0  0  0
  4  5  1  0  0  0  0
  4  3  1  0  0  0  0
  5 17  1  0  0  0  0
  6 18  1  0  0  0  0
  6  5  2  0  0  0  0
  7  6  1  0  0  0  0
  8  7  2  0  0  0  0
  8  9  1  0  0  0  0
  9  4  2  0  0  0  0
 10 22  1  0  0  0  0
 10 11  2  0  0  0  0
 12  1  1  0  0  0  0
 15  3  1  0  0  0  0
 16  3  1  0  0  0  0
 19  7  1  0  0  0  0
 20  8  1  0  0  0  0
 21  9  1  0  0  0  0
 22 23  1  0  0  0  0
 23 29  1  1  0  0  0
 23 24  1  0  0  0  0
 24 31  1  0  0  0  0
 24 25  1  0  0  0  0
 25 32  1  0  0  0  0
 26 23  1  0  0  0  0
 26 27  2  0  0  0  0
 28 22  1  0  0  0  0
 30 24  1  0  0  0  0
 33 34  1  0  0  0  0
 34 35  1  0  0  0  0
 34 36  1  0  0  0  0
 34 44  1  1  0  0  0
 36 46  1  1  0  0  0
 37 36  1  0  0  0  0
 37 26  1  0  0  0  0
 38 36  1  0  0  0  0
 39 38  1  0  0  0  0
 40 38  2  0  0  0  0
 41 33  1  0  0  0  0
 42 33  1  0  0  0  0
 43 33  1  0  0  0  0
 45 35  1  0  0  0  0
 47 37  1  0  0  0  0
M  END
$$$$
