FCV.pdb
 OpenBabel07022418593D

 49 49  0  0  1  0  0  0  0  0999 V2000
    4.6310   -0.9380    3.0030 N   0  0  0  0  0  0  0  0  0  0  0  0
    3.5770   -0.3810    2.0910 C   0  0  1  0  0  0  0  0  0  0  0  0
    3.9160   -0.9190    0.7680 C   0  0  0  0  0  0  0  0  0  0  0  0
    3.1020   -0.5700   -0.3880 C   0  0  0  0  0  0  0  0  0  0  0  0
    2.0840   -1.4090   -0.7880 C   0  0  0  0  0  0  0  0  0  0  0  0
    1.2840   -1.1420   -1.8790 C   0  0  0  0  0  0  0  0  0  0  0  0
    1.4720   -0.0030   -2.6320 C   0  0  0  0  0  0  0  0  0  0  0  0
    2.4930    0.8300   -2.2250 C   0  0  0  0  0  0  0  0  0  0  0  0
    3.2920    0.5750   -1.1450 C   0  0  0  0  0  0  0  0  0  0  0  0
    2.3190   -0.6970    2.7230 C   0  0  0  0  0  0  0  0  0  0  0  0
    2.3030   -1.5120    3.7220 O   0  0  0  0  0  0  0  0  0  0  0  0
    4.4720   -1.9820    3.0530 H   0  0  0  0  0  0  0  0  0  0  0  0
    5.5530   -0.8350    2.5100 H   0  0  0  0  0  0  0  0  0  0  0  0
    3.7580    0.7200    2.1960 H   0  0  0  0  0  0  0  0  0  0  0  0
    4.0050   -2.0450    0.8830 H   0  0  0  0  0  0  0  0  0  0  0  0
    4.9790   -0.6170    0.5430 H   0  0  0  0  0  0  0  0  0  0  0  0
    1.8920   -2.3320   -0.2200 H   0  0  0  0  0  0  0  0  0  0  0  0
    0.4760   -1.7900   -2.2150 H   0  0  0  0  0  0  0  0  0  0  0  0
    0.8490    0.2120   -3.4890 H   0  0  0  0  0  0  0  0  0  0  0  0
    2.6190    1.7340   -2.8460 H   0  0  0  0  0  0  0  0  0  0  0  0
    4.0610    1.2510   -0.8780 H   0  0  0  0  0  0  0  0  0  0  0  0
    1.0190   -0.2090    2.3950 N   0  0  0  0  0  0  0  0  0  0  0  0
   -0.1370   -0.6190    3.1610 C   0  0  1  0  0  0  0  0  0  0  0  0
   -0.5410    0.5520    4.0710 C   0  0  0  0  0  0  0  0  0  0  0  0
   -1.9900    0.1050    5.0640 S   0  0  0  0  0  0  0  0  0  0  0  0
   -1.2430   -1.0110    2.2940 C   0  0  0  0  0  0  0  0  0  0  0  0
   -2.3070   -1.4300    2.8570 O   0  0  0  0  0  0  0  0  0  0  0  0
    0.9340    0.4310    1.6090 H   0  0  0  0  0  0  0  0  0  0  0  0
    0.1150   -1.4390    3.8780 H   0  0  0  0  0  0  0  0  0  0  0  0
   -0.7360    1.4320    3.4590 H   0  0  0  0  0  0  0  0  0  0  0  0
    0.3160    0.7310    4.7470 H   0  0  0  0  0  0  0  0  0  0  0  0
   -2.9580    1.1440    4.9620 H   0  0  0  0  0  0  0  0  0  0  0  0
   -3.9890   -0.7550   -1.6640 C   0  0  0  0  0  0  0  0  0  0  0  0
   -2.8070   -0.2860   -0.8460 C   0  0  0  0  0  0  0  0  0  0  0  0
   -3.1630    0.9870   -0.1460 C   0  0  0  0  0  0  0  0  0  0  0  0
   -2.3340   -1.3580    0.1000 C   0  0  2  0  0  0  0  0  0  0  0  0
   -1.2140   -0.9570    0.8950 N   0  0  0  0  0  0  0  0  0  0  0  0
   -2.0770   -2.6580   -0.6050 C   0  0  0  0  0  0  0  0  0  0  0  0
   -0.9940   -3.2800   -0.4630 O   0  0  0  0  0  0  0  0  0  0  0  0
   -3.0290   -3.2180   -1.4400 O   0  0  0  0  0  0  0  0  0  0  0  0
   -3.6630   -1.2960   -2.5990 H   0  0  0  0  0  0  0  0  0  0  0  0
   -4.6820   -1.4040   -1.0930 H   0  0  0  0  0  0  0  0  0  0  0  0
   -4.6130    0.1220   -1.9880 H   0  0  0  0  0  0  0  0  0  0  0  0
   -1.9540   -0.1220   -1.5700 H   0  0  0  0  0  0  0  0  0  0  0  0
   -3.9860    1.5420   -0.6810 H   0  0  0  0  0  0  0  0  0  0  0  0
   -3.5170    0.8480    0.8930 H   0  0  0  0  0  0  0  0  0  0  0  0
   -2.2820    1.6690   -0.2010 H   0  0  0  0  0  0  0  0  0  0  0  0
   -3.1950   -1.5930    0.7860 H   0  0  0  0  0  0  0  0  0  0  0  0
   -0.3650   -0.6110    0.4090 H   0  0  0  0  0  0  0  0  0  0  0  0
  1 12  1  0  0  0  0
  2 14  1  6  0  0  0
  2 10  1  0  0  0  0
  2  1  1  0  0  0  0
  3 15  1  0  0  0  0
  3  2  1  0  0  0  0
  4  3  1  0  0  0  0
  5  4  1  0  0  0  0
  5 17  1  0  0  0  0
  6  5  2  0  0  0  0
  7  8  2  0  0  0  0
  7  6  1  0  0  0  0
  8  9  1  0  0  0  0
  9 21  1  0  0  0  0
  9  4  2  0  0  0  0
 10 11  2  0  0  0  0
 13  1  1  0  0  0  0
 16  3  1  0  0  0  0
 18  6  1  0  0  0  0
 19  7  1  0  0  0  0
 20  8  1  0  0  0  0
 22 10  1  0  0  0  0
 22 23  1  0  0  0  0
 23 29  1  1  0  0  0
 23 24  1  0  0  0  0
 24 31  1  0  0  0  0
 24 25  1  0  0  0  0
 26 27  2  0  0  0  0
 26 23  1  0  0  0  0
 28 22  1  0  0  0  0
 30 24  1  0  0  0  0
 32 25  1  0  0  0  0
 33 42  1  0  0  0  0
 33 34  1  0  0  0  0
 34 35  1  0  0  0  0
 34 36  1  0  0  0  0
 35 46  1  0  0  0  0
 36 48  1  1  0  0  0
 36 37  1  0  0  0  0
 37 26  1  0  0  0  0
 38 39  1  0  0  0  0
 38 36  1  0  0  0  0
 40 38  2  0  0  0  0
 41 33  1  0  0  0  0
 43 33  1  0  0  0  0
 44 34  1  0  0  0  0
 45 35  1  0  0  0  0
 47 35  1  0  0  0  0
 49 37  1  0  0  0  0
M  END
$$$$
