FDA.pdb
 OpenBabel07022418583D

 45 45  0  0  1  0  0  0  0  0999 V2000
    0.1060   -2.9620   -1.0400 N   0  0  0  0  0  0  0  0  0  0  0  0
    1.0080   -2.3560   -0.0810 C   0  0  1  0  0  0  0  0  0  0  0  0
    2.3680   -2.1250   -0.6370 C   0  0  0  0  0  0  0  0  0  0  0  0
    2.4430   -1.2470   -1.8100 C   0  0  0  0  0  0  0  0  0  0  0  0
    2.3190   -1.7790   -3.0980 C   0  0  0  0  0  0  0  0  0  0  0  0
    2.3960   -0.9590   -4.2040 C   0  0  0  0  0  0  0  0  0  0  0  0
    2.5960    0.4040   -4.0940 C   0  0  0  0  0  0  0  0  0  0  0  0
    2.7190    0.9310   -2.8280 C   0  0  0  0  0  0  0  0  0  0  0  0
    2.6420    0.1140   -1.7200 C   0  0  0  0  0  0  0  0  0  0  0  0
    0.3940   -1.1720    0.5720 C   0  0  0  0  0  0  0  0  0  0  0  0
   -0.7830   -0.9090    0.2980 O   0  0  0  0  0  0  0  0  0  0  0  0
   -0.6880   -3.4440   -0.5600 H   0  0  0  0  0  0  0  0  0  0  0  0
    0.6320   -3.7100   -1.5450 H   0  0  0  0  0  0  0  0  0  0  0  0
    1.1190   -3.1200    0.7320 H   0  0  0  0  0  0  0  0  0  0  0  0
    3.0450   -1.7170    0.1570 H   0  0  0  0  0  0  0  0  0  0  0  0
    2.7600   -3.1280   -0.9500 H   0  0  0  0  0  0  0  0  0  0  0  0
    2.1610   -2.8400   -3.2430 H   0  0  0  0  0  0  0  0  0  0  0  0
    2.2960   -1.3980   -5.1990 H   0  0  0  0  0  0  0  0  0  0  0  0
    2.6490    1.0100   -4.9980 H   0  0  0  0  0  0  0  0  0  0  0  0
    2.8750    1.9760   -2.6840 H   0  0  0  0  0  0  0  0  0  0  0  0
    2.7440    0.5710   -0.7240 H   0  0  0  0  0  0  0  0  0  0  0  0
    1.1080   -0.3400    1.4920 N   0  0  0  0  0  0  0  0  0  0  0  0
    0.5690    0.8020    2.1610 C   0  0  1  0  0  0  0  0  0  0  0  0
    0.4050    2.0420    1.3710 C   0  0  0  0  0  0  0  0  0  0  0  0
   -0.4610    2.0010    0.2070 C   0  0  0  0  0  0  0  0  0  0  0  0
   -0.0050    1.7750   -0.9330 O   0  0  0  0  0  0  0  0  0  0  0  0
   -0.5950    0.4780    3.0540 C   0  0  0  0  0  0  0  0  0  0  0  0
   -1.2510    1.3970    3.6080 O   0  0  0  0  0  0  0  0  0  0  0  0
   -1.8190    2.2110    0.3320 O   0  0  0  0  0  0  0  0  0  0  0  0
    2.1160   -0.6690    1.6320 H   0  0  0  0  0  0  0  0  0  0  0  0
    1.3730    1.0630    2.9440 H   0  0  0  0  0  0  0  0  0  0  0  0
    0.0130    2.8800    2.0280 H   0  0  0  0  0  0  0  0  0  0  0  0
    1.4470    2.4150    1.1240 H   0  0  0  0  0  0  0  0  0  0  0  0
   -2.3380    2.4550   -0.5030 H   0  0  0  0  0  0  0  0  0  0  0  0
   -1.8040   -1.4470    5.5690 C   0  0  0  0  0  0  0  0  0  0  0  0
   -2.0820   -1.2950    4.1140 C   0  0  2  0  0  0  0  0  0  0  0  0
   -0.9950   -0.8590    3.3070 N   0  0  0  0  0  0  0  0  0  0  0  0
   -3.3190   -0.5200    3.8080 C   0  0  0  0  0  0  0  0  0  0  0  0
   -3.4130    0.3310    2.9130 O   0  0  0  0  0  0  0  0  0  0  0  0
   -4.4610   -0.7690    4.5880 O   0  0  0  0  0  0  0  0  0  0  0  0
   -0.7270   -1.4560    5.8250 H   0  0  0  0  0  0  0  0  0  0  0  0
   -2.2930   -0.6260    6.1600 H   0  0  0  0  0  0  0  0  0  0  0  0
   -2.2240   -2.3900    5.9770 H   0  0  0  0  0  0  0  0  0  0  0  0
   -2.3540   -2.3450    3.7270 H   0  0  0  0  0  0  0  0  0  0  0  0
   -0.4060   -1.6140    2.8560 H   0  0  0  0  0  0  0  0  0  0  0  0
  1 12  1  0  0  0  0
  1  2  1  0  0  0  0
  2 10  1  0  0  0  0
  2 14  1  1  0  0  0
  3  2  1  0  0  0  0
  3 15  1  0  0  0  0
  4  9  1  0  0  0  0
  4  3  1  0  0  0  0
  5  4  2  0  0  0  0
  6  7  2  0  0  0  0
  6  5  1  0  0  0  0
  7  8  1  0  0  0  0
  8 20  1  0  0  0  0
  8  9  2  0  0  0  0
  9 21  1  0  0  0  0
 10 22  1  0  0  0  0
 11 10  2  0  0  0  0
 13  1  1  0  0  0  0
 16  3  1  0  0  0  0
 17  5  1  0  0  0  0
 18  6  1  0  0  0  0
 19  7  1  0  0  0  0
 22 30  1  0  0  0  0
 22 23  1  0  0  0  0
 23 31  1  1  0  0  0
 23 27  1  0  0  0  0
 24 32  1  0  0  0  0
 24 23  1  0  0  0  0
 25 29  1  0  0  0  0
 25 24  1  0  0  0  0
 26 25  2  0  0  0  0
 27 37  1  0  0  0  0
 27 28  2  0  0  0  0
 33 24  1  0  0  0  0
 34 29  1  0  0  0  0
 35 41  1  0  0  0  0
 35 43  1  0  0  0  0
 35 42  1  0  0  0  0
 36 44  1  6  0  0  0
 36 35  1  0  0  0  0
 37 36  1  0  0  0  0
 38 36  1  0  0  0  0
 38 40  1  0  0  0  0
 39 38  2  0  0  0  0
 45 37  1  0  0  0  0
M  END
$$$$
