FDC.pdb
 OpenBabel07022418583D

 46 46  0  0  1  0  0  0  0  0999 V2000
    0.9610   -3.4060    1.5240 N   0  0  0  0  0  0  0  0  0  0  0  0
    1.8070   -2.3350    1.0510 C   0  0  1  0  0  0  0  0  0  0  0  0
    1.7660   -2.3600   -0.4570 C   0  0  0  0  0  0  0  0  0  0  0  0
    2.5770   -1.3250   -1.1110 C   0  0  0  0  0  0  0  0  0  0  0  0
    2.0710   -0.0830   -1.4770 C   0  0  0  0  0  0  0  0  0  0  0  0
    2.8490    0.8730   -2.0860 C   0  0  0  0  0  0  0  0  0  0  0  0
    4.1770    0.6530   -2.3680 C   0  0  0  0  0  0  0  0  0  0  0  0
    4.6850   -0.5770   -2.0080 C   0  0  0  0  0  0  0  0  0  0  0  0
    3.9230   -1.5470   -1.3970 C   0  0  0  0  0  0  0  0  0  0  0  0
    1.3370   -1.0000    1.5280 C   0  0  0  0  0  0  0  0  0  0  0  0
    2.0900   -0.0400    1.2540 O   0  0  0  0  0  0  0  0  0  0  0  0
    0.1630   -3.6110    0.9110 H   0  0  0  0  0  0  0  0  0  0  0  0
    0.7620   -3.3770    2.5250 H   0  0  0  0  0  0  0  0  0  0  0  0
    2.8310   -2.4850    1.3990 H   0  0  0  0  0  0  0  0  0  0  0  0
    2.0980   -3.3520   -0.8580 H   0  0  0  0  0  0  0  0  0  0  0  0
    0.7020   -2.1950   -0.7750 H   0  0  0  0  0  0  0  0  0  0  0  0
    1.0270    0.1100   -1.2650 H   0  0  0  0  0  0  0  0  0  0  0  0
    2.4240    1.8240   -2.3550 H   0  0  0  0  0  0  0  0  0  0  0  0
    4.8120    1.3860   -2.8460 H   0  0  0  0  0  0  0  0  0  0  0  0
    5.7260   -0.8130   -2.2030 H   0  0  0  0  0  0  0  0  0  0  0  0
    4.3470   -2.5230   -1.1170 H   0  0  0  0  0  0  0  0  0  0  0  0
    0.1510   -0.8120    2.2270 N   0  0  0  0  0  0  0  0  0  0  0  0
   -0.3660    0.4230    2.7420 C   0  0  1  0  0  0  0  0  0  0  0  0
    0.5550    1.6210    2.6010 C   0  0  0  0  0  0  0  0  0  0  0  0
    1.7600    1.3870    3.4120 C   0  0  0  0  0  0  0  0  0  0  0  0
    1.8400    0.3950    4.1740 O   0  0  0  0  0  0  0  0  0  0  0  0
   -1.7730    0.6940    2.4370 C   0  0  0  0  0  0  0  0  0  0  0  0
   -2.2820    1.7570    2.8590 O   0  0  0  0  0  0  0  0  0  0  0  0
    2.8700    2.2310    3.3890 O   0  0  0  0  0  0  0  0  0  0  0  0
   -0.4220   -1.6990    2.3870 H   0  0  0  0  0  0  0  0  0  0  0  0
   -0.3230    0.3060    3.9130 H   0  0  0  0  0  0  0  0  0  0  0  0
    0.0140    2.4760    3.0530 H   0  0  0  0  0  0  0  0  0  0  0  0
    0.7650    1.8650    1.5480 H   0  0  0  0  0  0  0  0  0  0  0  0
    3.8050    1.9050    3.6720 H   0  0  0  0  0  0  0  0  0  0  0  0
   -2.6040   -0.1830    1.6830 N   0  0  0  0  0  0  0  0  0  0  0  0
   -3.9800    0.0480    1.3640 C   0  0  1  0  0  0  0  0  0  0  0  0
   -4.2400    0.0820   -0.1260 C   0  0  0  0  0  0  0  0  0  0  0  0
   -3.7930   -1.4550   -0.9480 S   0  0  0  0  0  0  0  0  0  0  0  0
   -4.8430   -1.0190    1.9390 C   0  0  0  0  0  0  0  0  0  0  0  0
   -4.3390   -1.9480    2.5990 O   0  0  0  0  0  0  0  0  0  0  0  0
   -6.2110   -0.9830    1.7410 O   0  0  0  0  0  0  0  0  0  0  0  0
   -2.1510   -1.0600    1.3460 H   0  0  0  0  0  0  0  0  0  0  0  0
   -4.3690    1.0110    1.7690 H   0  0  0  0  0  0  0  0  0  0  0  0
   -5.3340    0.2380   -0.2710 H   0  0  0  0  0  0  0  0  0  0  0  0
   -3.7450    0.9650   -0.6080 H   0  0  0  0  0  0  0  0  0  0  0  0
   -2.7770   -2.1570   -0.3090 H   0  0  0  0  0  0  0  0  0  0  0  0
  1 13  1  0  0  0  0
  2 14  1  1  0  0  0
  2  1  1  0  0  0  0
  2 10  1  0  0  0  0
  3  2  1  0  0  0  0
  4  3  1  0  0  0  0
  5 17  1  0  0  0  0
  5  4  2  0  0  0  0
  6  5  1  0  0  0  0
  7  6  2  0  0  0  0
  7  8  1  0  0  0  0
  8  9  2  0  0  0  0
  9 21  1  0  0  0  0
  9  4  1  0  0  0  0
 10 22  1  0  0  0  0
 11 10  2  0  0  0  0
 12  1  1  0  0  0  0
 15  3  1  0  0  0  0
 16  3  1  0  0  0  0
 18  6  1  0  0  0  0
 19  7  1  0  0  0  0
 20  8  1  0  0  0  0
 22 30  1  0  0  0  0
 22 23  1  0  0  0  0
 23 31  1  1  0  0  0
 24 23  1  0  0  0  0
 24 32  1  0  0  0  0
 24 25  1  0  0  0  0
 25 26  2  0  0  0  0
 27 23  1  0  0  0  0
 27 28  2  0  0  0  0
 29 25  1  0  0  0  0
 29 34  1  0  0  0  0
 33 24  1  0  0  0  0
 35 27  1  0  0  0  0
 36 35  1  0  0  0  0
 36 43  1  1  0  0  0
 36 39  1  0  0  0  0
 37 36  1  0  0  0  0
 38 46  1  0  0  0  0
 38 37  1  0  0  0  0
 39 40  1  0  0  0  0
 41 39  2  0  0  0  0
 42 35  1  0  0  0  0
 44 37  1  0  0  0  0
 45 37  1  0  0  0  0
M  END
$$$$
