FDE.pdb
 OpenBabel07022418583D

 51 51  0  0  1  0  0  0  0  0999 V2000
    0.2070    1.3480   -2.0380 N   0  0  0  0  0  0  0  0  0  0  0  0
    1.3240    0.6970   -1.3800 C   0  0  1  0  0  0  0  0  0  0  0  0
    2.5660    1.5340   -1.5030 C   0  0  0  0  0  0  0  0  0  0  0  0
    3.7630    0.9540   -0.8600 C   0  0  0  0  0  0  0  0  0  0  0  0
    4.5740    0.0590   -1.5640 C   0  0  0  0  0  0  0  0  0  0  0  0
    5.7100   -0.5050   -1.0270 C   0  0  0  0  0  0  0  0  0  0  0  0
    6.0580   -0.1650    0.2650 C   0  0  0  0  0  0  0  0  0  0  0  0
    5.2860    0.7130    0.9930 C   0  0  0  0  0  0  0  0  0  0  0  0
    4.1570    1.2580    0.4250 C   0  0  0  0  0  0  0  0  0  0  0  0
    1.0070    0.3000   -0.0010 C   0  0  0  0  0  0  0  0  0  0  0  0
    1.9470   -0.2990    0.6310 O   0  0  0  0  0  0  0  0  0  0  0  0
    0.5230    1.5580   -3.0130 H   0  0  0  0  0  0  0  0  0  0  0  0
   -0.0570    2.2140   -1.5230 H   0  0  0  0  0  0  0  0  0  0  0  0
    1.5420   -0.2570   -1.9480 H   0  0  0  0  0  0  0  0  0  0  0  0
    2.8050    1.7540   -2.5690 H   0  0  0  0  0  0  0  0  0  0  0  0
    2.3500    2.4980   -0.9750 H   0  0  0  0  0  0  0  0  0  0  0  0
    4.3260   -0.2280   -2.5840 H   0  0  0  0  0  0  0  0  0  0  0  0
    6.3190   -1.1980   -1.5990 H   0  0  0  0  0  0  0  0  0  0  0  0
    6.9590   -0.6060    0.7050 H   0  0  0  0  0  0  0  0  0  0  0  0
    5.5980    0.9550    2.0150 H   0  0  0  0  0  0  0  0  0  0  0  0
    3.5810    1.9370    1.0130 H   0  0  0  0  0  0  0  0  0  0  0  0
   -0.2430    0.5480    0.6160 N   0  0  0  0  0  0  0  0  0  0  0  0
   -0.4570    0.1190    1.9680 C   0  0  1  0  0  0  0  0  0  0  0  0
   -0.9260    1.2180    2.8850 C   0  0  0  0  0  0  0  0  0  0  0  0
    0.0960    2.2870    2.9050 C   0  0  0  0  0  0  0  0  0  0  0  0
    1.1540    2.2190    2.2370 O   0  0  0  0  0  0  0  0  0  0  0  0
   -1.3640   -1.0660    2.0390 C   0  0  0  0  0  0  0  0  0  0  0  0
   -1.6130   -1.5360    3.1590 O   0  0  0  0  0  0  0  0  0  0  0  0
   -0.0720    3.4440    3.6850 O   0  0  0  0  0  0  0  0  0  0  0  0
   -0.9910    1.0310    0.0980 H   0  0  0  0  0  0  0  0  0  0  0  0
    0.5090   -0.2540    2.3660 H   0  0  0  0  0  0  0  0  0  0  0  0
   -1.0040    0.8330    3.9230 H   0  0  0  0  0  0  0  0  0  0  0  0
   -1.9330    1.5960    2.6170 H   0  0  0  0  0  0  0  0  0  0  0  0
    0.2790    4.3560    3.3510 H   0  0  0  0  0  0  0  0  0  0  0  0
   -1.9550   -1.6890    0.9440 N   0  0  0  0  0  0  0  0  0  0  0  0
   -2.8390   -2.8410    0.9780 C   0  0  1  0  0  0  0  0  0  0  0  0
   -4.1390   -2.6940    0.3830 C   0  0  0  0  0  0  0  0  0  0  0  0
   -5.0040   -3.9120    0.4610 C   0  0  0  0  0  0  0  0  0  0  0  0
   -5.2800   -4.3810    1.8460 C   0  0  0  0  0  0  0  0  0  0  0  0
   -5.9110   -5.4620    2.0300 O   0  0  0  0  0  0  0  0  0  0  0  0
   -2.0630   -3.9280    0.3360 C   0  0  0  0  0  0  0  0  0  0  0  0
   -2.5130   -5.0870    0.2840 O   0  0  0  0  0  0  0  0  0  0  0  0
   -4.8900   -3.7050    2.9870 O   0  0  0  0  0  0  0  0  0  0  0  0
   -0.8030   -3.7440   -0.2460 O   0  0  0  0  0  0  0  0  0  0  0  0
   -1.7640   -1.3150   -0.0060 H   0  0  0  0  0  0  0  0  0  0  0  0
   -2.8950   -3.1030    2.0550 H   0  0  0  0  0  0  0  0  0  0  0  0
   -4.7830   -1.8570    0.7100 H   0  0  0  0  0  0  0  0  0  0  0  0
   -4.0210   -2.4860   -0.7300 H   0  0  0  0  0  0  0  0  0  0  0  0
   -6.0150   -3.7070   -0.0330 H   0  0  0  0  0  0  0  0  0  0  0  0
   -4.6440   -4.7870   -0.1110 H   0  0  0  0  0  0  0  0  0  0  0  0
   -4.5790   -4.1860    3.8290 H   0  0  0  0  0  0  0  0  0  0  0  0
  1 13  1  0  0  0  0
  1  2  1  0  0  0  0
  2 14  1  6  0  0  0
  2 10  1  0  0  0  0
  3  2  1  0  0  0  0
  3 16  1  0  0  0  0
  3  4  1  0  0  0  0
  4  9  1  0  0  0  0
  5  6  1  0  0  0  0
  5  4  2  0  0  0  0
  6  7  2  0  0  0  0
  7 19  1  0  0  0  0
  7  8  1  0  0  0  0
  8 20  1  0  0  0  0
  9  8  2  0  0  0  0
  9 21  1  0  0  0  0
 10 22  1  0  0  0  0
 10 11  2  0  0  0  0
 12  1  1  0  0  0  0
 15  3  1  0  0  0  0
 17  5  1  0  0  0  0
 18  6  1  0  0  0  0
 22 23  1  0  0  0  0
 23 27  1  0  0  0  0
 23 31  1  1  0  0  0
 23 24  1  0  0  0  0
 24 25  1  0  0  0  0
 24 32  1  0  0  0  0
 25 29  1  0  0  0  0
 26 25  2  0  0  0  0
 27 28  2  0  0  0  0
 30 22  1  0  0  0  0
 33 24  1  0  0  0  0
 34 29  1  0  0  0  0
 35 36  1  0  0  0  0
 35 27  1  0  0  0  0
 36 46  1  1  0  0  0
 37 38  1  0  0  0  0
 37 47  1  0  0  0  0
 37 36  1  0  0  0  0
 38 39  1  0  0  0  0
 39 40  2  0  0  0  0
 39 43  1  0  0  0  0
 41 36  1  0  0  0  0
 42 41  1  0  0  0  0
 43 51  1  0  0  0  0
 44 41  2  0  0  0  0
 45 35  1  0  0  0  0
 48 37  1  0  0  0  0
 49 38  1  0  0  0  0
 50 38  1  0  0  0  0
M  END
$$$$
