FDF.pdb
 OpenBabel07022418583D

 55 56  0  0  1  0  0  0  0  0999 V2000
    3.0730   -2.3730    4.7360 N   0  0  0  0  0  0  0  0  0  0  0  0
    2.8030   -1.0960    4.0160 C   0  0  1  0  0  0  0  0  0  0  0  0
    3.8290   -1.0700    2.9290 C   0  0  0  0  0  0  0  0  0  0  0  0
    3.8260    0.1090    2.0570 C   0  0  0  0  0  0  0  0  0  0  0  0
    4.4610    1.2770    2.4800 C   0  0  0  0  0  0  0  0  0  0  0  0
    4.4930    2.3840    1.6650 C   0  0  0  0  0  0  0  0  0  0  0  0
    3.9180    2.3990    0.4200 C   0  0  0  0  0  0  0  0  0  0  0  0
    3.2760    1.2380   -0.0170 C   0  0  0  0  0  0  0  0  0  0  0  0
    3.2380    0.1110    0.8000 C   0  0  0  0  0  0  0  0  0  0  0  0
    1.4120   -1.2160    3.5570 C   0  0  0  0  0  0  0  0  0  0  0  0
    0.7640   -2.2910    3.7550 O   0  0  0  0  0  0  0  0  0  0  0  0
    3.8590   -2.2640    5.3790 H   0  0  0  0  0  0  0  0  0  0  0  0
    2.2330   -2.8080    5.1050 H   0  0  0  0  0  0  0  0  0  0  0  0
    2.9320   -0.2650    4.7460 H   0  0  0  0  0  0  0  0  0  0  0  0
    4.8660   -1.2340    3.3330 H   0  0  0  0  0  0  0  0  0  0  0  0
    3.6810   -1.9530    2.2340 H   0  0  0  0  0  0  0  0  0  0  0  0
    4.9420    1.3260    3.4670 H   0  0  0  0  0  0  0  0  0  0  0  0
    4.9920    3.3130    1.9930 H   0  0  0  0  0  0  0  0  0  0  0  0
    3.9150    3.2460   -0.2540 H   0  0  0  0  0  0  0  0  0  0  0  0
    2.7990    1.1870   -0.9870 H   0  0  0  0  0  0  0  0  0  0  0  0
    2.7700   -0.7930    0.4800 H   0  0  0  0  0  0  0  0  0  0  0  0
    0.6560   -0.2060    2.8750 N   0  0  0  0  0  0  0  0  0  0  0  0
   -0.6960   -0.4090    2.4780 C   0  0  1  0  0  0  0  0  0  0  0  0
   -1.6880    0.6450    2.9310 C   0  0  0  0  0  0  0  0  0  0  0  0
   -1.3830    1.9730    2.4200 C   0  0  0  0  0  0  0  0  0  0  0  0
   -0.2070    2.3640    2.2590 O   0  0  0  0  0  0  0  0  0  0  0  0
   -0.8900   -0.7080    1.0330 C   0  0  0  0  0  0  0  0  0  0  0  0
    0.1240   -0.7220    0.2950 O   0  0  0  0  0  0  0  0  0  0  0  0
   -2.4070    2.8540    2.0840 O   0  0  0  0  0  0  0  0  0  0  0  0
    1.2240    0.6810    2.7140 H   0  0  0  0  0  0  0  0  0  0  0  0
   -1.0430   -1.3640    2.9670 H   0  0  0  0  0  0  0  0  0  0  0  0
   -2.6780    0.2610    2.6570 H   0  0  0  0  0  0  0  0  0  0  0  0
   -1.6520    0.6310    4.0680 H   0  0  0  0  0  0  0  0  0  0  0  0
   -2.2020    3.5590    1.3500 H   0  0  0  0  0  0  0  0  0  0  0  0
   -2.1260   -0.9720    0.4400 N   0  0  0  0  0  0  0  0  0  0  0  0
   -2.2550   -1.2570   -0.9770 C   0  0  1  0  0  0  0  0  0  0  0  0
   -2.8820   -2.5910   -1.2260 C   0  0  0  0  0  0  0  0  0  0  0  0
   -2.9960   -2.8790   -2.6730 C   0  0  0  0  0  0  0  0  0  0  0  0
   -4.1130   -2.5980   -3.4370 C   0  0  0  0  0  0  0  0  0  0  0  0
   -4.1700   -2.8620   -4.7840 C   0  0  0  0  0  0  0  0  0  0  0  0
   -3.0630   -3.4360   -5.4110 C   0  0  0  0  0  0  0  0  0  0  0  0
   -1.9290   -3.7350   -4.6960 C   0  0  0  0  0  0  0  0  0  0  0  0
   -1.9130   -3.4560   -3.3490 C   0  0  0  0  0  0  0  0  0  0  0  0
   -2.9650   -0.1680   -1.6780 C   0  0  0  0  0  0  0  0  0  0  0  0
   -3.4230    0.7990   -0.9710 O   0  0  0  0  0  0  0  0  0  0  0  0
   -3.1720   -0.1080   -3.0360 O   0  0  0  0  0  0  0  0  0  0  0  0
   -2.9670   -0.9540    1.0710 H   0  0  0  0  0  0  0  0  0  0  0  0
   -1.2200   -1.2740   -1.4000 H   0  0  0  0  0  0  0  0  0  0  0  0
   -2.2610   -3.4110   -0.7970 H   0  0  0  0  0  0  0  0  0  0  0  0
   -3.9000   -2.6910   -0.7810 H   0  0  0  0  0  0  0  0  0  0  0  0
   -4.9670   -2.1640   -2.9460 H   0  0  0  0  0  0  0  0  0  0  0  0
   -5.0350   -2.6430   -5.3890 H   0  0  0  0  0  0  0  0  0  0  0  0
   -3.1410   -3.6200   -6.4760 H   0  0  0  0  0  0  0  0  0  0  0  0
   -1.0740   -4.1750   -5.1580 H   0  0  0  0  0  0  0  0  0  0  0  0
   -1.0330   -3.6900   -2.7640 H   0  0  0  0  0  0  0  0  0  0  0  0
  1 13  1  0  0  0  0
  1 12  1  0  0  0  0
  2  1  1  0  0  0  0
  2 14  1  1  0  0  0
  3 15  1  0  0  0  0
  3  2  1  0  0  0  0
  4  5  1  0  0  0  0
  4  3  1  0  0  0  0
  5 17  1  0  0  0  0
  6 18  1  0  0  0  0
  6  5  2  0  0  0  0
  7  6  1  0  0  0  0
  8  7  2  0  0  0  0
  8  9  1  0  0  0  0
  9  4  2  0  0  0  0
 10 11  2  0  0  0  0
 10  2  1  0  0  0  0
 16  3  1  0  0  0  0
 19  7  1  0  0  0  0
 20  8  1  0  0  0  0
 21  9  1  0  0  0  0
 22 10  1  0  0  0  0
 23 22  1  0  0  0  0
 23 24  1  0  0  0  0
 23 31  1  1  0  0  0
 24 33  1  0  0  0  0
 25 24  1  0  0  0  0
 26 25  2  0  0  0  0
 27 23  1  0  0  0  0
 28 27  2  0  0  0  0
 29 25  1  0  0  0  0
 30 22  1  0  0  0  0
 32 24  1  0  0  0  0
 34 29  1  0  0  0  0
 35 27  1  0  0  0  0
 35 47  1  0  0  0  0
 36 48  1  6  0  0  0
 36 35  1  0  0  0  0
 37 36  1  0  0  0  0
 37 49  1  0  0  0  0
 37 50  1  0  0  0  0
 38 37  1  0  0  0  0
 39 51  1  0  0  0  0
 39 38  2  0  0  0  0
 40 39  1  0  0  0  0
 41 40  2  0  0  0  0
 41 42  1  0  0  0  0
 42 43  2  0  0  0  0
 43 55  1  0  0  0  0
 43 38  1  0  0  0  0
 44 36  1  0  0  0  0
 44 45  1  0  0  0  0
 46 44  2  0  0  0  0
 52 40  1  0  0  0  0
 53 41  1  0  0  0  0
 54 42  1  0  0  0  0
M  END
$$$$
