FDH.pdb
 OpenBabel07022418583D

 52 53  0  0  1  0  0  0  0  0999 V2000
    1.2580   -0.7250   -1.5670 N   0  0  0  0  0  0  0  0  0  0  0  0
    1.9930   -0.5270   -0.3200 C   0  0  1  0  0  0  0  0  0  0  0  0
    3.2310    0.2690   -0.5410 C   0  0  0  0  0  0  0  0  0  0  0  0
    4.0230    0.5090    0.6880 C   0  0  0  0  0  0  0  0  0  0  0  0
    5.0070   -0.4020    1.0860 C   0  0  0  0  0  0  0  0  0  0  0  0
    5.7370   -0.1600    2.2290 C   0  0  0  0  0  0  0  0  0  0  0  0
    5.5420    0.9560    3.0130 C   0  0  0  0  0  0  0  0  0  0  0  0
    4.5710    1.8480    2.6130 C   0  0  0  0  0  0  0  0  0  0  0  0
    3.8320    1.6280    1.4790 C   0  0  0  0  0  0  0  0  0  0  0  0
    1.0720   -0.0330    0.6990 C   0  0  0  0  0  0  0  0  0  0  0  0
    1.5340    0.1660    1.8700 O   0  0  0  0  0  0  0  0  0  0  0  0
    1.8240   -0.4710   -2.4050 H   0  0  0  0  0  0  0  0  0  0  0  0
    0.9600   -1.7190   -1.6840 H   0  0  0  0  0  0  0  0  0  0  0  0
    2.3180   -1.5600    0.0010 H   0  0  0  0  0  0  0  0  0  0  0  0
    3.0680    1.2110   -1.1020 H   0  0  0  0  0  0  0  0  0  0  0  0
    3.8940   -0.3520   -1.2110 H   0  0  0  0  0  0  0  0  0  0  0  0
    5.1570   -1.2790    0.4660 H   0  0  0  0  0  0  0  0  0  0  0  0
    6.4980   -0.8560    2.5440 H   0  0  0  0  0  0  0  0  0  0  0  0
    6.1190    1.1450    3.9140 H   0  0  0  0  0  0  0  0  0  0  0  0
    4.3750    2.7480    3.1960 H   0  0  0  0  0  0  0  0  0  0  0  0
    3.0600    2.3320    1.1540 H   0  0  0  0  0  0  0  0  0  0  0  0
   -0.2840    0.2480    0.5180 N   0  0  0  0  0  0  0  0  0  0  0  0
   -1.1840    0.7460    1.5730 C   0  0  1  0  0  0  0  0  0  0  0  0
   -1.6470    2.0970    1.1580 C   0  0  0  0  0  0  0  0  0  0  0  0
   -2.5270    2.7910    2.1020 C   0  0  0  0  0  0  0  0  0  0  0  0
   -2.7480    2.3170    3.2340 O   0  0  0  0  0  0  0  0  0  0  0  0
   -2.2370   -0.2470    1.8340 C   0  0  0  0  0  0  0  0  0  0  0  0
   -3.1050   -0.0800    2.6960 O   0  0  0  0  0  0  0  0  0  0  0  0
   -3.1560    4.0000    1.7950 O   0  0  0  0  0  0  0  0  0  0  0  0
   -0.7150    0.1080   -0.4110 H   0  0  0  0  0  0  0  0  0  0  0  0
   -0.5620    0.8370    2.4780 H   0  0  0  0  0  0  0  0  0  0  0  0
   -0.7100    2.7360    1.1000 H   0  0  0  0  0  0  0  0  0  0  0  0
   -2.0380    2.1220    0.1110 H   0  0  0  0  0  0  0  0  0  0  0  0
   -4.1370    4.1500    2.0530 H   0  0  0  0  0  0  0  0  0  0  0  0
   -2.2850   -1.4520    1.0840 N   0  0  0  0  0  0  0  0  0  0  0  0
   -3.2600   -2.4910    1.2470 C   0  0  1  0  0  0  0  0  0  0  0  0
   -4.1540   -2.6410    0.0300 C   0  0  0  0  0  0  0  0  0  0  0  0
   -3.3950   -2.9670   -1.1820 C   0  0  0  0  0  0  0  0  0  0  0  0
   -3.1030   -4.2390   -1.6170 C   0  0  0  0  0  0  0  0  0  0  0  0
   -2.3880   -4.1290   -2.7710 N   0  0  0  0  0  0  0  0  0  0  0  0
   -2.2360   -2.8230   -3.0540 C   0  0  0  0  0  0  0  0  0  0  0  0
   -2.8580   -2.1170   -2.0730 N   0  0  0  0  0  0  0  0  0  0  0  0
   -2.6890   -3.7800    1.6710 C   0  0  0  0  0  0  0  0  0  0  0  0
   -3.4580   -4.7530    1.8410 O   0  0  0  0  0  0  0  0  0  0  0  0
   -1.3380   -3.9680    1.8910 O   0  0  0  0  0  0  0  0  0  0  0  0
   -1.5430   -1.5830    0.3560 H   0  0  0  0  0  0  0  0  0  0  0  0
   -3.9510   -2.1590    2.0760 H   0  0  0  0  0  0  0  0  0  0  0  0
   -4.7540   -1.7160   -0.0930 H   0  0  0  0  0  0  0  0  0  0  0  0
   -4.8960   -3.4380    0.2980 H   0  0  0  0  0  0  0  0  0  0  0  0
   -3.3520   -5.1910   -1.1880 H   0  0  0  0  0  0  0  0  0  0  0  0
   -2.0100   -4.9050   -3.3580 H   0  0  0  0  0  0  0  0  0  0  0  0
   -1.7050   -2.4550   -3.9200 H   0  0  0  0  0  0  0  0  0  0  0  0
  1  2  1  0  0  0  0
  2 14  1  1  0  0  0
  2 10  1  0  0  0  0
  3  2  1  0  0  0  0
  3  4  1  0  0  0  0
  4  5  2  0  0  0  0
  4  9  1  0  0  0  0
  5  6  1  0  0  0  0
  6 18  1  0  0  0  0
  6  7  2  0  0  0  0
  7 19  1  0  0  0  0
  8  7  1  0  0  0  0
  8 20  1  0  0  0  0
  9  8  2  0  0  0  0
 10 11  2  0  0  0  0
 12  1  1  0  0  0  0
 13  1  1  0  0  0  0
 15  3  1  0  0  0  0
 16  3  1  0  0  0  0
 17  5  1  0  0  0  0
 21  9  1  0  0  0  0
 22 10  1  0  0  0  0
 22 23  1  0  0  0  0
 23 27  1  0  0  0  0
 23 31  1  1  0  0  0
 24 23  1  0  0  0  0
 24 25  1  0  0  0  0
 25 26  2  0  0  0  0
 27 28  2  0  0  0  0
 29 34  1  0  0  0  0
 29 25  1  0  0  0  0
 30 22  1  0  0  0  0
 32 24  1  0  0  0  0
 33 24  1  0  0  0  0
 35 36  1  0  0  0  0
 35 27  1  0  0  0  0
 36 43  1  0  0  0  0
 36 47  1  1  0  0  0
 37 49  1  0  0  0  0
 37 36  1  0  0  0  0
 38 37  1  0  0  0  0
 39 50  1  0  0  0  0
 39 38  2  0  0  0  0
 40 39  1  0  0  0  0
 41 40  1  0  0  0  0
 41 42  2  0  0  0  0
 42 38  1  0  0  0  0
 43 44  2  0  0  0  0
 43 45  1  0  0  0  0
 46 35  1  0  0  0  0
 48 37  1  0  0  0  0
 51 40  1  0  0  0  0
 52 41  1  0  0  0  0
M  END
$$$$
