FDK.pdb
 OpenBabel07022418583D

 56 56  0  0  1  0  0  0  0  0999 V2000
    1.9770   -1.0270   -1.0820 N   0  0  0  0  0  0  0  0  0  0  0  0
    2.3140   -1.7730    0.1200 C   0  0  1  0  0  0  0  0  0  0  0  0
    3.7620   -1.5990    0.4710 C   0  0  0  0  0  0  0  0  0  0  0  0
    4.1510   -0.1760    0.7090 C   0  0  0  0  0  0  0  0  0  0  0  0
    4.0480    0.3390    1.9850 C   0  0  0  0  0  0  0  0  0  0  0  0
    4.3930    1.6560    2.2710 C   0  0  0  0  0  0  0  0  0  0  0  0
    4.8460    2.4570    1.2570 C   0  0  0  0  0  0  0  0  0  0  0  0
    4.9430    1.9310   -0.0090 C   0  0  0  0  0  0  0  0  0  0  0  0
    4.6030    0.6380   -0.2870 C   0  0  0  0  0  0  0  0  0  0  0  0
    1.4380   -1.4740    1.2630 C   0  0  0  0  0  0  0  0  0  0  0  0
    1.6820   -1.9980    2.3810 O   0  0  0  0  0  0  0  0  0  0  0  0
    2.7850   -1.1500   -1.7570 H   0  0  0  0  0  0  0  0  0  0  0  0
    1.1720   -1.5300   -1.5680 H   0  0  0  0  0  0  0  0  0  0  0  0
    2.2060   -2.8550   -0.1990 H   0  0  0  0  0  0  0  0  0  0  0  0
    4.4320   -2.0380   -0.3020 H   0  0  0  0  0  0  0  0  0  0  0  0
    3.9500   -2.1440    1.4240 H   0  0  0  0  0  0  0  0  0  0  0  0
    3.6980   -0.2510    2.8310 H   0  0  0  0  0  0  0  0  0  0  0  0
    4.3030    2.0450    3.2800 H   0  0  0  0  0  0  0  0  0  0  0  0
    5.1290    3.5020    1.4440 H   0  0  0  0  0  0  0  0  0  0  0  0
    5.3130    2.6120   -0.7930 H   0  0  0  0  0  0  0  0  0  0  0  0
    4.6820    0.2450   -1.2860 H   0  0  0  0  0  0  0  0  0  0  0  0
    0.3110   -0.6190    1.1830 N   0  0  0  0  0  0  0  0  0  0  0  0
   -0.5430   -0.3270    2.3130 C   0  0  1  0  0  0  0  0  0  0  0  0
   -0.6720    1.1660    2.5300 C   0  0  0  0  0  0  0  0  0  0  0  0
    0.6680    1.7370    2.8080 C   0  0  0  0  0  0  0  0  0  0  0  0
    1.4750    1.2400    3.6290 O   0  0  0  0  0  0  0  0  0  0  0  0
   -1.8670   -0.9950    2.1930 C   0  0  0  0  0  0  0  0  0  0  0  0
   -2.7050   -0.8240    3.1010 O   0  0  0  0  0  0  0  0  0  0  0  0
    1.0280    2.8820    2.1050 O   0  0  0  0  0  0  0  0  0  0  0  0
    0.0860   -0.1740    0.2530 H   0  0  0  0  0  0  0  0  0  0  0  0
   -0.1110   -0.7510    3.2650 H   0  0  0  0  0  0  0  0  0  0  0  0
   -1.1740    1.6830    1.7060 H   0  0  0  0  0  0  0  0  0  0  0  0
   -1.2830    1.2910    3.4700 H   0  0  0  0  0  0  0  0  0  0  0  0
    1.8430    3.4390    2.3820 H   0  0  0  0  0  0  0  0  0  0  0  0
   -2.1440   -1.8030    1.0630 N   0  0  0  0  0  0  0  0  0  0  0  0
   -3.4280   -2.4810    0.9090 C   0  0  1  0  0  0  0  0  0  0  0  0
   -4.1010   -2.1460   -0.3800 C   0  0  0  0  0  0  0  0  0  0  0  0
   -3.2820   -2.5200   -1.5830 C   0  0  0  0  0  0  0  0  0  0  0  0
   -3.9780   -2.1920   -2.8750 C   0  0  0  0  0  0  0  0  0  0  0  0
   -4.2790   -0.7150   -3.0110 C   0  0  0  0  0  0  0  0  0  0  0  0
   -3.0420   -0.0050   -2.9560 N   0  0  0  0  0  0  0  0  0  0  0  0
   -3.2360   -3.9620    1.0350 C   0  0  0  0  0  0  0  0  0  0  0  0
   -4.2110   -4.7470    0.9640 O   0  0  0  0  0  0  0  0  0  0  0  0
   -1.9720   -4.4590    1.2330 O   0  0  0  0  0  0  0  0  0  0  0  0
   -1.3950   -1.8940    0.3450 H   0  0  0  0  0  0  0  0  0  0  0  0
   -4.0670   -2.1580    1.7510 H   0  0  0  0  0  0  0  0  0  0  0  0
   -4.3160   -1.0580   -0.4030 H   0  0  0  0  0  0  0  0  0  0  0  0
   -5.0590   -2.7080   -0.4100 H   0  0  0  0  0  0  0  0  0  0  0  0
   -2.9910   -3.5840   -1.5990 H   0  0  0  0  0  0  0  0  0  0  0  0
   -2.3210   -1.9380   -1.4760 H   0  0  0  0  0  0  0  0  0  0  0  0
   -4.9010   -2.8020   -2.9850 H   0  0  0  0  0  0  0  0  0  0  0  0
   -3.3210   -2.4590   -3.7510 H   0  0  0  0  0  0  0  0  0  0  0  0
   -4.9700   -0.3870   -2.2060 H   0  0  0  0  0  0  0  0  0  0  0  0
   -4.8360   -0.5540   -3.9600 H   0  0  0  0  0  0  0  0  0  0  0  0
   -3.0570    0.8950   -2.4750 H   0  0  0  0  0  0  0  0  0  0  0  0
   -2.1800   -0.5470   -2.9680 H   0  0  0  0  0  0  0  0  0  0  0  0
  1  2  1  0  0  0  0
  2 14  1  6  0  0  0
  2  3  1  0  0  0  0
  2 10  1  0  0  0  0
  3  4  1  0  0  0  0
  3 16  1  0  0  0  0
  4  5  1  0  0  0  0
  5  6  2  0  0  0  0
  5 17  1  0  0  0  0
  6 18  1  0  0  0  0
  7 19  1  0  0  0  0
  7  6  1  0  0  0  0
  8  7  2  0  0  0  0
  9  8  1  0  0  0  0
  9  4  2  0  0  0  0
 10 11  2  0  0  0  0
 12  1  1  0  0  0  0
 13  1  1  0  0  0  0
 15  3  1  0  0  0  0
 20  8  1  0  0  0  0
 21  9  1  0  0  0  0
 22 10  1  0  0  0  0
 22 23  1  0  0  0  0
 23 24  1  0  0  0  0
 23 31  1  1  0  0  0
 24 25  1  0  0  0  0
 24 33  1  0  0  0  0
 25 26  2  0  0  0  0
 27 23  1  0  0  0  0
 27 28  2  0  0  0  0
 29 34  1  0  0  0  0
 29 25  1  0  0  0  0
 30 22  1  0  0  0  0
 32 24  1  0  0  0  0
 35 27  1  0  0  0  0
 36 42  1  0  0  0  0
 36 35  1  0  0  0  0
 36 46  1  1  0  0  0
 37 36  1  0  0  0  0
 38 50  1  0  0  0  0
 38 37  1  0  0  0  0
 39 38  1  0  0  0  0
 40 41  1  0  0  0  0
 40 39  1  0  0  0  0
 40 53  1  0  0  0  0
 41 55  1  0  0  0  0
 42 44  1  0  0  0  0
 43 42  2  0  0  0  0
 45 35  1  0  0  0  0
 47 37  1  0  0  0  0
 48 37  1  0  0  0  0
 49 38  1  0  0  0  0
 51 39  1  0  0  0  0
 52 39  1  0  0  0  0
 54 40  1  0  0  0  0
 56 41  1  0  0  0  0
M  END
$$$$
