FDL.pdb
 OpenBabel07022418583D

 54 54  0  0  1  0  0  0  0  0999 V2000
    0.9800   -0.0310    4.5420 N   0  0  0  0  0  0  0  0  0  0  0  0
    0.6190    0.8070    3.4140 C   0  0  1  0  0  0  0  0  0  0  0  0
    1.5420    1.9700    3.2640 C   0  0  0  0  0  0  0  0  0  0  0  0
    2.9500    1.6290    3.0580 C   0  0  0  0  0  0  0  0  0  0  0  0
    3.5380    1.4450    1.8260 C   0  0  0  0  0  0  0  0  0  0  0  0
    4.8880    1.1180    1.6780 C   0  0  0  0  0  0  0  0  0  0  0  0
    5.6680    0.9740    2.8050 C   0  0  0  0  0  0  0  0  0  0  0  0
    5.1230    1.1500    4.0520 C   0  0  0  0  0  0  0  0  0  0  0  0
    3.7910    1.4700    4.1650 C   0  0  0  0  0  0  0  0  0  0  0  0
    0.4330    0.0300    2.1580 C   0  0  0  0  0  0  0  0  0  0  0  0
    0.6910   -1.1950    2.2360 O   0  0  0  0  0  0  0  0  0  0  0  0
    0.1780   -0.2580    5.1570 H   0  0  0  0  0  0  0  0  0  0  0  0
    1.4250   -0.9310    4.2330 H   0  0  0  0  0  0  0  0  0  0  0  0
   -0.3930    1.2240    3.6770 H   0  0  0  0  0  0  0  0  0  0  0  0
    1.4100    2.6140    4.1680 H   0  0  0  0  0  0  0  0  0  0  0  0
    1.2040    2.5620    2.3880 H   0  0  0  0  0  0  0  0  0  0  0  0
    2.9530    1.5530    0.9410 H   0  0  0  0  0  0  0  0  0  0  0  0
    5.3020    0.9830    0.6830 H   0  0  0  0  0  0  0  0  0  0  0  0
    6.7170    0.7220    2.7190 H   0  0  0  0  0  0  0  0  0  0  0  0
    5.7280    1.0380    4.9420 H   0  0  0  0  0  0  0  0  0  0  0  0
    3.3930    1.6020    5.1660 H   0  0  0  0  0  0  0  0  0  0  0  0
   -0.0090    0.6280    0.9520 N   0  0  0  0  0  0  0  0  0  0  0  0
   -0.2200   -0.0660   -0.2680 C   0  0  1  0  0  0  0  0  0  0  0  0
    0.9560   -0.3040   -1.1300 C   0  0  0  0  0  0  0  0  0  0  0  0
    1.5220    1.0380   -1.4990 C   0  0  0  0  0  0  0  0  0  0  0  0
    1.0120    2.1130   -1.0950 O   0  0  0  0  0  0  0  0  0  0  0  0
   -1.0670   -1.2800   -0.0100 C   0  0  0  0  0  0  0  0  0  0  0  0
   -1.5370   -1.5320    1.1170 O   0  0  0  0  0  0  0  0  0  0  0  0
    2.6450    1.1280   -2.3120 O   0  0  0  0  0  0  0  0  0  0  0  0
   -0.1760    1.6760    1.0310 H   0  0  0  0  0  0  0  0  0  0  0  0
   -0.9200    0.6120   -0.8870 H   0  0  0  0  0  0  0  0  0  0  0  0
    1.7660   -0.8950   -0.6670 H   0  0  0  0  0  0  0  0  0  0  0  0
    0.6510   -0.8420   -2.0400 H   0  0  0  0  0  0  0  0  0  0  0  0
    2.8800    1.9750   -2.8240 H   0  0  0  0  0  0  0  0  0  0  0  0
   -5.5890   -2.3020   -2.2480 C   0  0  0  0  0  0  0  0  0  0  0  0
   -4.3210   -2.2170   -1.3470 C   0  0  0  0  0  0  0  0  0  0  0  0
   -3.7880   -0.8530   -1.5650 C   0  0  0  0  0  0  0  0  0  0  0  0
   -3.4240   -3.3710   -1.6600 C   0  0  0  0  0  0  0  0  0  0  0  0
   -2.1930   -3.3910   -0.8200 C   0  0  2  0  0  0  0  0  0  0  0  0
   -1.3940   -2.2290   -1.0320 N   0  0  0  0  0  0  0  0  0  0  0  0
   -1.4060   -4.6520   -1.0330 C   0  0  0  0  0  0  0  0  0  0  0  0
   -0.2020   -4.5580   -1.3540 O   0  0  0  0  0  0  0  0  0  0  0  0
   -1.9530   -5.9080   -0.8890 O   0  0  0  0  0  0  0  0  0  0  0  0
   -6.2250   -1.4680   -1.9280 H   0  0  0  0  0  0  0  0  0  0  0  0
   -5.2820   -2.1390   -3.2900 H   0  0  0  0  0  0  0  0  0  0  0  0
   -6.0840   -3.2700   -2.1030 H   0  0  0  0  0  0  0  0  0  0  0  0
   -4.7460   -2.2770   -0.3110 H   0  0  0  0  0  0  0  0  0  0  0  0
   -2.8930   -0.7670   -2.1900 H   0  0  0  0  0  0  0  0  0  0  0  0
   -3.6410   -0.2810   -0.6020 H   0  0  0  0  0  0  0  0  0  0  0  0
   -4.5440   -0.1810   -2.1000 H   0  0  0  0  0  0  0  0  0  0  0  0
   -3.9800   -4.3450   -1.6160 H   0  0  0  0  0  0  0  0  0  0  0  0
   -3.0750   -3.2020   -2.7250 H   0  0  0  0  0  0  0  0  0  0  0  0
   -2.5520   -3.4780    0.2390 H   0  0  0  0  0  0  0  0  0  0  0  0
   -0.9790   -2.0220   -1.9820 H   0  0  0  0  0  0  0  0  0  0  0  0
  1 12  1  0  0  0  0
  2 14  1  1  0  0  0
  2  1  1  0  0  0  0
  3  2  1  0  0  0  0
  3 15  1  0  0  0  0
  4  3  1  0  0  0  0
  4  9  1  0  0  0  0
  5  4  2  0  0  0  0
  6  5  1  0  0  0  0
  6  7  2  0  0  0  0
  7  8  1  0  0  0  0
  8  9  2  0  0  0  0
  8 20  1  0  0  0  0
  9 21  1  0  0  0  0
 10 11  2  0  0  0  0
 10  2  1  0  0  0  0
 13  1  1  0  0  0  0
 16  3  1  0  0  0  0
 17  5  1  0  0  0  0
 18  6  1  0  0  0  0
 19  7  1  0  0  0  0
 22 30  1  0  0  0  0
 22 10  1  0  0  0  0
 23 31  1  6  0  0  0
 23 27  1  0  0  0  0
 23 22  1  0  0  0  0
 24 32  1  0  0  0  0
 24 23  1  0  0  0  0
 25 24  1  0  0  0  0
 25 26  2  0  0  0  0
 27 28  2  0  0  0  0
 29 25  1  0  0  0  0
 33 24  1  0  0  0  0
 34 29  1  0  0  0  0
 35 46  1  0  0  0  0
 35 44  1  0  0  0  0
 35 36  1  0  0  0  0
 36 47  1  0  0  0  0
 37 36  1  0  0  0  0
 37 49  1  0  0  0  0
 38 51  1  0  0  0  0
 38 36  1  0  0  0  0
 38 39  1  0  0  0  0
 39 53  1  1  0  0  0
 40 39  1  0  0  0  0
 40 27  1  0  0  0  0
 41 43  1  0  0  0  0
 41 39  1  0  0  0  0
 42 41  2  0  0  0  0
 45 35  1  0  0  0  0
 48 37  1  0  0  0  0
 50 37  1  0  0  0  0
 52 38  1  0  0  0  0
 54 40  1  0  0  0  0
M  END
$$$$
