FDN.pdb
 OpenBabel07022418583D

 49 49  0  0  1  0  0  0  0  0999 V2000
    1.5080    0.2510   -0.3150 N   0  0  0  0  0  0  0  0  0  0  0  0
    1.9250   -0.0990    1.0060 C   0  0  1  0  0  0  0  0  0  0  0  0
    2.8660    0.9500    1.5710 C   0  0  0  0  0  0  0  0  0  0  0  0
    4.0510    1.0250    0.6770 C   0  0  0  0  0  0  0  0  0  0  0  0
    4.1140    1.8830   -0.4080 C   0  0  0  0  0  0  0  0  0  0  0  0
    5.2270    1.9390   -1.2300 C   0  0  0  0  0  0  0  0  0  0  0  0
    6.3250    1.1380   -1.0000 C   0  0  0  0  0  0  0  0  0  0  0  0
    6.2640    0.2820    0.0800 C   0  0  0  0  0  0  0  0  0  0  0  0
    5.1540    0.2250    0.9020 C   0  0  0  0  0  0  0  0  0  0  0  0
    0.7900   -0.3580    1.9350 C   0  0  0  0  0  0  0  0  0  0  0  0
    1.0680   -0.6690    3.1070 O   0  0  0  0  0  0  0  0  0  0  0  0
    0.9120    1.0880   -0.3650 H   0  0  0  0  0  0  0  0  0  0  0  0
    1.2330   -0.5310   -0.9180 H   0  0  0  0  0  0  0  0  0  0  0  0
    2.4700   -1.0850    0.9250 H   0  0  0  0  0  0  0  0  0  0  0  0
    2.3070    1.9090    1.6120 H   0  0  0  0  0  0  0  0  0  0  0  0
    3.1870    0.6430    2.5700 H   0  0  0  0  0  0  0  0  0  0  0  0
    3.2530    2.5210   -0.6000 H   0  0  0  0  0  0  0  0  0  0  0  0
    5.2890    2.6050   -2.0810 H   0  0  0  0  0  0  0  0  0  0  0  0
    7.2040    1.1710   -1.6360 H   0  0  0  0  0  0  0  0  0  0  0  0
    7.1430   -0.3470    0.2490 H   0  0  0  0  0  0  0  0  0  0  0  0
    5.1230   -0.4570    1.7510 H   0  0  0  0  0  0  0  0  0  0  0  0
   -0.5670   -0.2700    1.5600 N   0  0  0  0  0  0  0  0  0  0  0  0
   -1.6860   -0.5140    2.4340 C   0  0  1  0  0  0  0  0  0  0  0  0
   -2.6050    0.6590    2.5580 C   0  0  0  0  0  0  0  0  0  0  0  0
   -1.9400    1.8610    3.0940 C   0  0  0  0  0  0  0  0  0  0  0  0
   -0.7250    1.8410    3.3970 O   0  0  0  0  0  0  0  0  0  0  0  0
   -2.4760   -1.6660    1.9510 C   0  0  0  0  0  0  0  0  0  0  0  0
   -3.4910   -2.0390    2.5750 O   0  0  0  0  0  0  0  0  0  0  0  0
   -2.6670    3.0240    3.2630 O   0  0  0  0  0  0  0  0  0  0  0  0
   -0.7840   -0.0080    0.5750 H   0  0  0  0  0  0  0  0  0  0  0  0
   -1.3530   -0.7830    3.4730 H   0  0  0  0  0  0  0  0  0  0  0  0
   -3.1560    0.8720    1.6090 H   0  0  0  0  0  0  0  0  0  0  0  0
   -3.3980    0.3780    3.2950 H   0  0  0  0  0  0  0  0  0  0  0  0
   -2.2100    3.9150    3.3690 H   0  0  0  0  0  0  0  0  0  0  0  0
   -4.4230   -1.5280   -2.6180 N   0  0  0  0  0  0  0  0  0  0  0  0
   -3.9800   -1.9910   -1.3520 C   0  0  0  0  0  0  0  0  0  0  0  0
   -4.3370   -1.3670   -0.3220 O   0  0  0  0  0  0  0  0  0  0  0  0
   -3.1150   -3.1810   -1.2120 C   0  0  0  0  0  0  0  0  0  0  0  0
   -2.7760   -3.4780    0.2260 C   0  0  2  0  0  0  0  0  0  0  0  0
   -2.0810   -2.3440    0.7860 N   0  0  0  0  0  0  0  0  0  0  0  0
   -1.8950   -4.6910    0.2130 C   0  0  0  0  0  0  0  0  0  0  0  0
   -2.3450   -5.7710   -0.2450 O   0  0  0  0  0  0  0  0  0  0  0  0
   -0.6020   -4.6730    0.6830 O   0  0  0  0  0  0  0  0  0  0  0  0
   -3.7650   -1.1770   -3.3540 H   0  0  0  0  0  0  0  0  0  0  0  0
   -5.4410   -1.5170   -2.8750 H   0  0  0  0  0  0  0  0  0  0  0  0
   -3.6570   -4.0960   -1.5930 H   0  0  0  0  0  0  0  0  0  0  0  0
   -2.2120   -3.0530   -1.8390 H   0  0  0  0  0  0  0  0  0  0  0  0
   -3.6580   -3.6870    0.8380 H   0  0  0  0  0  0  0  0  0  0  0  0
   -1.2320   -2.0130    0.2880 H   0  0  0  0  0  0  0  0  0  0  0  0
  1  2  1  0  0  0  0
  2 14  1  6  0  0  0
  2  3  1  0  0  0  0
  2 10  1  0  0  0  0
  3 15  1  0  0  0  0
  3 16  1  0  0  0  0
  4  9  1  0  0  0  0
  4  3  1  0  0  0  0
  5  4  2  0  0  0  0
  6  7  2  0  0  0  0
  6  5  1  0  0  0  0
  7  8  1  0  0  0  0
  8 20  1  0  0  0  0
  8  9  2  0  0  0  0
  9 21  1  0  0  0  0
 10 11  2  0  0  0  0
 12  1  1  0  0  0  0
 13  1  1  0  0  0  0
 17  5  1  0  0  0  0
 18  6  1  0  0  0  0
 19  7  1  0  0  0  0
 22 10  1  0  0  0  0
 22 23  1  0  0  0  0
 23 24  1  0  0  0  0
 23 31  1  1  0  0  0
 24 25  1  0  0  0  0
 24 33  1  0  0  0  0
 25 29  1  0  0  0  0
 25 26  2  0  0  0  0
 27 23  1  0  0  0  0
 27 28  2  0  0  0  0
 29 34  1  0  0  0  0
 30 22  1  0  0  0  0
 32 24  1  0  0  0  0
 35 36  1  0  0  0  0
 36 38  1  0  0  0  0
 36 37  2  0  0  0  0
 38 39  1  0  0  0  0
 39 40  1  0  0  0  0
 39 48  1  1  0  0  0
 40 27  1  0  0  0  0
 41 39  1  0  0  0  0
 41 43  1  0  0  0  0
 42 41  2  0  0  0  0
 44 35  1  0  0  0  0
 45 35  1  0  0  0  0
 46 38  1  0  0  0  0
 47 38  1  0  0  0  0
 49 40  1  0  0  0  0
M  END
$$$$
