FDP.pdb
 OpenBabel07022418583D

 49 50  0  0  1  0  0  0  0  0999 V2000
    1.0770   -1.2970    5.4110 N   0  0  0  0  0  0  0  0  0  0  0  0
    1.6220   -1.1750    4.0360 C   0  0  1  0  0  0  0  0  0  0  0  0
    2.0730   -2.5560    3.6600 C   0  0  0  0  0  0  0  0  0  0  0  0
    2.6680   -2.6900    2.3220 C   0  0  0  0  0  0  0  0  0  0  0  0
    1.9270   -3.0350    1.2190 C   0  0  0  0  0  0  0  0  0  0  0  0
    2.5270   -3.1570   -0.0150 C   0  0  0  0  0  0  0  0  0  0  0  0
    3.8690   -2.9390   -0.1810 C   0  0  0  0  0  0  0  0  0  0  0  0
    4.6350   -2.5940    0.8980 C   0  0  0  0  0  0  0  0  0  0  0  0
    4.0270   -2.4750    2.1250 C   0  0  0  0  0  0  0  0  0  0  0  0
    0.5520   -0.6100    3.2090 C   0  0  0  0  0  0  0  0  0  0  0  0
   -0.6200   -0.5220    3.7130 O   0  0  0  0  0  0  0  0  0  0  0  0
    1.7670   -1.0060    6.1150 H   0  0  0  0  0  0  0  0  0  0  0  0
    0.1540   -0.8570    5.4930 H   0  0  0  0  0  0  0  0  0  0  0  0
    2.4590   -0.4610    4.1330 H   0  0  0  0  0  0  0  0  0  0  0  0
    1.2380   -3.2960    3.8080 H   0  0  0  0  0  0  0  0  0  0  0  0
    2.8580   -2.8870    4.4040 H   0  0  0  0  0  0  0  0  0  0  0  0
    0.8600   -3.2230    1.2680 H   0  0  0  0  0  0  0  0  0  0  0  0
    1.9350   -3.4310   -0.8880 H   0  0  0  0  0  0  0  0  0  0  0  0
    4.3310   -3.0410   -1.1750 H   0  0  0  0  0  0  0  0  0  0  0  0
    5.6970   -2.4170    0.7910 H   0  0  0  0  0  0  0  0  0  0  0  0
    4.6600   -2.1980    2.9720 H   0  0  0  0  0  0  0  0  0  0  0  0
    0.6960   -0.1420    1.8840 N   0  0  0  0  0  0  0  0  0  0  0  0
   -0.4880    0.4050    1.2090 C   0  0  1  0  0  0  0  0  0  0  0  0
   -0.1700    1.9080    1.1580 C   0  0  0  0  0  0  0  0  0  0  0  0
   -1.1690    2.7430    0.5420 C   0  0  0  0  0  0  0  0  0  0  0  0
   -2.2010    3.1090    1.1560 O   0  0  0  0  0  0  0  0  0  0  0  0
   -0.6800   -0.1890   -0.1130 C   0  0  0  0  0  0  0  0  0  0  0  0
    0.3150   -0.8790   -0.5540 O   0  0  0  0  0  0  0  0  0  0  0  0
   -1.0130    3.1740   -0.7660 O   0  0  0  0  0  0  0  0  0  0  0  0
    1.6070   -0.1760    1.3960 H   0  0  0  0  0  0  0  0  0  0  0  0
   -1.3680    0.2720    1.8410 H   0  0  0  0  0  0  0  0  0  0  0  0
    0.0390    2.1860    2.2320 H   0  0  0  0  0  0  0  0  0  0  0  0
    0.8360    2.0230    0.6580 H   0  0  0  0  0  0  0  0  0  0  0  0
   -1.5040    3.9550   -1.1680 H   0  0  0  0  0  0  0  0  0  0  0  0
   -1.8260   -0.0860   -0.9360 N   0  0  0  0  0  0  0  0  0  0  0  0
   -3.0620    0.6090   -0.6410 C   0  0  0  0  0  0  0  0  0  0  0  0
   -4.0940   -0.2860   -1.3720 C   0  0  0  0  0  0  0  0  0  0  0  0
   -3.3660   -0.4360   -2.6900 C   0  0  0  0  0  0  0  0  0  0  0  0
   -1.9520   -0.7040   -2.2650 C   0  0  1  0  0  0  0  0  0  0  0  0
   -0.9500   -0.2020   -3.1960 C   0  0  0  0  0  0  0  0  0  0  0  0
   -0.9120   -0.6180   -4.3710 O   0  0  0  0  0  0  0  0  0  0  0  0
   -0.0310    0.7410   -2.7870 O   0  0  0  0  0  0  0  0  0  0  0  0
   -3.3030    0.6850    0.4160 H   0  0  0  0  0  0  0  0  0  0  0  0
   -3.1550    1.5810   -1.2040 H   0  0  0  0  0  0  0  0  0  0  0  0
   -5.0580    0.2210   -1.4590 H   0  0  0  0  0  0  0  0  0  0  0  0
   -4.1350   -1.2830   -0.9070 H   0  0  0  0  0  0  0  0  0  0  0  0
   -3.4370    0.5340   -3.2390 H   0  0  0  0  0  0  0  0  0  0  0  0
   -3.7740   -1.2710   -3.3080 H   0  0  0  0  0  0  0  0  0  0  0  0
   -1.8460   -1.8070   -2.1880 H   0  0  0  0  0  0  0  0  0  0  0  0
  1 13  1  0  0  0  0
  1 12  1  0  0  0  0
  2 14  1  1  0  0  0
  2  1  1  0  0  0  0
  3 15  1  0  0  0  0
  3  2  1  0  0  0  0
  3 16  1  0  0  0  0
  4  3  1  0  0  0  0
  5 17  1  0  0  0  0
  5  4  2  0  0  0  0
  6  5  1  0  0  0  0
  7  6  2  0  0  0  0
  7  8  1  0  0  0  0
  8  9  2  0  0  0  0
  9  4  1  0  0  0  0
  9 21  1  0  0  0  0
 10 11  2  0  0  0  0
 10  2  1  0  0  0  0
 18  6  1  0  0  0  0
 19  7  1  0  0  0  0
 20  8  1  0  0  0  0
 22 10  1  0  0  0  0
 23 31  1  1  0  0  0
 23 22  1  0  0  0  0
 24 23  1  0  0  0  0
 24 32  1  0  0  0  0
 25 26  2  0  0  0  0
 25 24  1  0  0  0  0
 27 23  1  0  0  0  0
 28 27  2  0  0  0  0
 29 25  1  0  0  0  0
 30 22  1  0  0  0  0
 33 24  1  0  0  0  0
 34 29  1  0  0  0  0
 35 36  1  0  0  0  0
 35 27  1  0  0  0  0
 36 43  1  0  0  0  0
 37 46  1  0  0  0  0
 37 36  1  0  0  0  0
 38 39  1  0  0  0  0
 38 37  1  0  0  0  0
 39 49  1  1  0  0  0
 39 35  1  0  0  0  0
 40 42  1  0  0  0  0
 40 39  1  0  0  0  0
 41 40  2  0  0  0  0
 44 36  1  0  0  0  0
 45 37  1  0  0  0  0
 47 38  1  0  0  0  0
 48 38  1  0  0  0  0
M  END
$$$$
