FDR.pdb
 OpenBabel07022418583D

 58 58  0  0  1  0  0  0  0  0999 V2000
    2.1910   -0.3230   -1.2810 N   0  0  0  0  0  0  0  0  0  0  0  0
    2.9210   -0.2720   -0.0100 C   0  0  1  0  0  0  0  0  0  0  0  0
    3.8980    0.8600   -0.0430 C   0  0  0  0  0  0  0  0  0  0  0  0
    4.7020    1.0310    1.1770 C   0  0  0  0  0  0  0  0  0  0  0  0
    5.8830    0.3260    1.2860 C   0  0  0  0  0  0  0  0  0  0  0  0
    6.6610    0.4750    2.4140 C   0  0  0  0  0  0  0  0  0  0  0  0
    6.3120    1.3100    3.4590 C   0  0  0  0  0  0  0  0  0  0  0  0
    5.1190    2.0010    3.3120 C   0  0  0  0  0  0  0  0  0  0  0  0
    4.3310    1.8680    2.2000 C   0  0  0  0  0  0  0  0  0  0  0  0
    2.0120   -0.1270    1.1300 C   0  0  0  0  0  0  0  0  0  0  0  0
    2.4330   -0.1190    2.3130 O   0  0  0  0  0  0  0  0  0  0  0  0
    2.9130   -0.5690   -2.0050 H   0  0  0  0  0  0  0  0  0  0  0  0
    1.5600   -1.1710   -1.2320 H   0  0  0  0  0  0  0  0  0  0  0  0
    3.5160   -1.2140    0.0190 H   0  0  0  0  0  0  0  0  0  0  0  0
    4.6170    0.7420   -0.9060 H   0  0  0  0  0  0  0  0  0  0  0  0
    3.3640    1.8220   -0.2220 H   0  0  0  0  0  0  0  0  0  0  0  0
    6.1980   -0.3520    0.4740 H   0  0  0  0  0  0  0  0  0  0  0  0
    7.5870   -0.0760    2.5030 H   0  0  0  0  0  0  0  0  0  0  0  0
    6.9230    1.4300    4.3500 H   0  0  0  0  0  0  0  0  0  0  0  0
    4.8250    2.6580    4.1120 H   0  0  0  0  0  0  0  0  0  0  0  0
    3.4050    2.4240    2.1100 H   0  0  0  0  0  0  0  0  0  0  0  0
    0.5960    0.0140    0.9790 N   0  0  0  0  0  0  0  0  0  0  0  0
   -0.2790    0.1550    2.1180 C   0  0  1  0  0  0  0  0  0  0  0  0
   -1.0690    1.4160    2.1500 C   0  0  0  0  0  0  0  0  0  0  0  0
   -1.9600    1.6290    1.0110 C   0  0  0  0  0  0  0  0  0  0  0  0
   -2.0470    0.8180    0.0760 O   0  0  0  0  0  0  0  0  0  0  0  0
   -1.1290   -1.0580    2.1950 C   0  0  0  0  0  0  0  0  0  0  0  0
   -1.9830   -1.1560    3.0870 O   0  0  0  0  0  0  0  0  0  0  0  0
   -2.7690    2.7680    0.9160 O   0  0  0  0  0  0  0  0  0  0  0  0
    0.2180    0.0120    0.0200 H   0  0  0  0  0  0  0  0  0  0  0  0
    0.3220    0.1450    3.0790 H   0  0  0  0  0  0  0  0  0  0  0  0
   -0.3570    2.2720    2.2070 H   0  0  0  0  0  0  0  0  0  0  0  0
   -1.6450    1.4390    3.0910 H   0  0  0  0  0  0  0  0  0  0  0  0
   -3.2280    3.0330    0.0700 H   0  0  0  0  0  0  0  0  0  0  0  0
   -5.2360   -0.1080   -3.7030 N   0  0  0  0  0  0  0  0  0  0  0  0
   -4.3980   -0.9980   -3.0040 C   0  0  0  0  0  0  0  0  0  0  0  0
   -3.1450   -0.7470   -2.8410 N   0  0  0  0  0  0  0  0  0  0  0  0
   -4.8650   -2.2250   -2.4330 N   0  0  0  0  0  0  0  0  0  0  0  0
   -3.9770   -3.1350   -1.7830 C   0  0  0  0  0  0  0  0  0  0  0  0
   -3.4070   -2.6090   -0.4860 C   0  0  0  0  0  0  0  0  0  0  0  0
   -2.5020   -3.6930    0.0580 C   0  0  0  0  0  0  0  0  0  0  0  0
   -1.8450   -3.3320    1.3650 C   0  0  2  0  0  0  0  0  0  0  0  0
   -1.0100   -2.1490    1.2730 N   0  0  0  0  0  0  0  0  0  0  0  0
   -0.9780   -4.4730    1.7290 C   0  0  0  0  0  0  0  0  0  0  0  0
    0.2410   -4.2930    1.8950 O   0  0  0  0  0  0  0  0  0  0  0  0
   -1.5080   -5.7350    1.8850 O   0  0  0  0  0  0  0  0  0  0  0  0
   -6.2420   -0.2880   -3.8890 H   0  0  0  0  0  0  0  0  0  0  0  0
   -4.8340    0.7810   -4.0570 H   0  0  0  0  0  0  0  0  0  0  0  0
   -2.6700    0.0980   -3.1980 H   0  0  0  0  0  0  0  0  0  0  0  0
   -5.8870   -2.4160   -2.5170 H   0  0  0  0  0  0  0  0  0  0  0  0
   -3.1020   -3.4220   -2.4160 H   0  0  0  0  0  0  0  0  0  0  0  0
   -4.5050   -4.0800   -1.5410 H   0  0  0  0  0  0  0  0  0  0  0  0
   -2.7830   -1.7180   -0.6210 H   0  0  0  0  0  0  0  0  0  0  0  0
   -4.1790   -2.3750    0.2640 H   0  0  0  0  0  0  0  0  0  0  0  0
   -1.6670   -3.8950   -0.6670 H   0  0  0  0  0  0  0  0  0  0  0  0
   -3.0830   -4.6150    0.1160 H   0  0  0  0  0  0  0  0  0  0  0  0
   -2.5870   -3.2340    2.1880 H   0  0  0  0  0  0  0  0  0  0  0  0
   -0.2830   -2.0290    0.5350 H   0  0  0  0  0  0  0  0  0  0  0  0
  1 13  1  0  0  0  0
  1  2  1  0  0  0  0
  2 14  1  1  0  0  0
  2 10  1  0  0  0  0
  3  2  1  0  0  0  0
  3  4  1  0  0  0  0
  4  5  2  0  0  0  0
  4  9  1  0  0  0  0
  5  6  1  0  0  0  0
  6 18  1  0  0  0  0
  6  7  2  0  0  0  0
  7 19  1  0  0  0  0
  8  7  1  0  0  0  0
  8 20  1  0  0  0  0
  9  8  2  0  0  0  0
 10 11  2  0  0  0  0
 12  1  1  0  0  0  0
 15  3  1  0  0  0  0
 16  3  1  0  0  0  0
 17  5  1  0  0  0  0
 21  9  1  0  0  0  0
 22 10  1  0  0  0  0
 22 23  1  0  0  0  0
 23 24  1  0  0  0  0
 23 27  1  0  0  0  0
 23 31  1  1  0  0  0
 24 32  1  0  0  0  0
 24 33  1  0  0  0  0
 25 24  1  0  0  0  0
 26 25  2  0  0  0  0
 27 28  2  0  0  0  0
 29 25  1  0  0  0  0
 30 22  1  0  0  0  0
 34 29  1  0  0  0  0
 35 36  1  0  0  0  0
 36 37  2  0  0  0  0
 36 38  1  0  0  0  0
 38 39  1  0  0  0  0
 39 52  1  0  0  0  0
 39 40  1  0  0  0  0
 40 41  1  0  0  0  0
 40 54  1  0  0  0  0
 41 56  1  0  0  0  0
 41 42  1  0  0  0  0
 42 44  1  0  0  0  0
 42 57  1  1  0  0  0
 43 42  1  0  0  0  0
 43 27  1  0  0  0  0
 44 46  2  0  0  0  0
 44 45  1  0  0  0  0
 47 35  1  0  0  0  0
 48 35  1  0  0  0  0
 49 37  1  0  0  0  0
 50 38  1  0  0  0  0
 51 39  1  0  0  0  0
 53 40  1  0  0  0  0
 55 41  1  0  0  0  0
 58 43  1  0  0  0  0
M  END
$$$$
