FDS.pdb
 OpenBabel07022418583D

 46 46  0  0  1  0  0  0  0  0999 V2000
    0.9600   -3.6340    0.6100 N   0  0  0  0  0  0  0  0  0  0  0  0
    1.8530   -2.5210    0.6970 C   0  0  1  0  0  0  0  0  0  0  0  0
    2.0670   -2.0120   -0.7160 C   0  0  0  0  0  0  0  0  0  0  0  0
    2.9720   -0.8450   -0.7650 C   0  0  0  0  0  0  0  0  0  0  0  0
    2.5070    0.4680   -0.7230 C   0  0  0  0  0  0  0  0  0  0  0  0
    3.3190    1.5670   -0.7670 C   0  0  0  0  0  0  0  0  0  0  0  0
    4.6830    1.4160   -0.8590 C   0  0  0  0  0  0  0  0  0  0  0  0
    5.1830    0.1220   -0.9030 C   0  0  0  0  0  0  0  0  0  0  0  0
    4.3630   -0.9830   -0.8580 C   0  0  0  0  0  0  0  0  0  0  0  0
    1.3480   -1.3890    1.5060 C   0  0  0  0  0  0  0  0  0  0  0  0
    2.1770   -0.5070    1.7790 O   0  0  0  0  0  0  0  0  0  0  0  0
    0.3010   -3.6270   -0.1910 H   0  0  0  0  0  0  0  0  0  0  0  0
    0.5570   -3.9470    1.5060 H   0  0  0  0  0  0  0  0  0  0  0  0
    2.8150   -2.8720    1.1200 H   0  0  0  0  0  0  0  0  0  0  0  0
    1.0580   -1.6390   -1.0630 H   0  0  0  0  0  0  0  0  0  0  0  0
    2.3980   -2.8310   -1.3890 H   0  0  0  0  0  0  0  0  0  0  0  0
    1.4210    0.5930   -0.6500 H   0  0  0  0  0  0  0  0  0  0  0  0
    2.9140    2.5630   -0.7330 H   0  0  0  0  0  0  0  0  0  0  0  0
    5.3740    2.2500   -0.8980 H   0  0  0  0  0  0  0  0  0  0  0  0
    6.2450   -0.0280   -0.9740 H   0  0  0  0  0  0  0  0  0  0  0  0
    4.7570   -1.9870   -0.8930 H   0  0  0  0  0  0  0  0  0  0  0  0
    0.0190   -1.2870    1.9500 N   0  0  0  0  0  0  0  0  0  0  0  0
   -0.6140   -0.2850    2.7450 C   0  0  1  0  0  0  0  0  0  0  0  0
    0.2250    0.9240    3.1080 C   0  0  0  0  0  0  0  0  0  0  0  0
    1.3800    0.6280    3.9740 C   0  0  0  0  0  0  0  0  0  0  0  0
    2.2950    1.4800    4.1030 O   0  0  0  0  0  0  0  0  0  0  0  0
   -1.9620    0.1120    2.3030 C   0  0  0  0  0  0  0  0  0  0  0  0
   -2.6190    0.9960    2.9340 O   0  0  0  0  0  0  0  0  0  0  0  0
    1.5400   -0.5680    4.6920 O   0  0  0  0  0  0  0  0  0  0  0  0
   -0.5790   -2.1330    1.6150 H   0  0  0  0  0  0  0  0  0  0  0  0
   -0.6890   -0.7860    3.7880 H   0  0  0  0  0  0  0  0  0  0  0  0
   -0.4140    1.6420    3.6580 H   0  0  0  0  0  0  0  0  0  0  0  0
    0.6380    1.3520    2.1570 H   0  0  0  0  0  0  0  0  0  0  0  0
    2.4980   -0.8970    4.7850 H   0  0  0  0  0  0  0  0  0  0  0  0
   -5.1480    0.7700   -1.1070 O   0  0  0  0  0  0  0  0  0  0  0  0
   -3.8540    0.4670   -0.7250 C   0  0  0  0  0  0  0  0  0  0  0  0
   -3.9020   -0.1000    0.6820 C   0  0  2  0  0  0  0  0  0  0  0  0
   -2.6080   -0.4470    1.1680 N   0  0  0  0  0  0  0  0  0  0  0  0
   -4.9120   -1.1780    0.7800 C   0  0  0  0  0  0  0  0  0  0  0  0
   -4.5520   -2.2630    1.2910 O   0  0  0  0  0  0  0  0  0  0  0  0
   -6.2110   -1.0470    0.3420 O   0  0  0  0  0  0  0  0  0  0  0  0
   -5.4830    1.6100   -0.6570 H   0  0  0  0  0  0  0  0  0  0  0  0
   -3.4240   -0.2320   -1.4640 H   0  0  0  0  0  0  0  0  0  0  0  0
   -3.3080    1.4320   -0.6540 H   0  0  0  0  0  0  0  0  0  0  0  0
   -4.2860    0.7300    1.3350 H   0  0  0  0  0  0  0  0  0  0  0  0
   -2.0770   -1.1870    0.6390 H   0  0  0  0  0  0  0  0  0  0  0  0
  1  2  1  0  0  0  0
  1 13  1  0  0  0  0
  2 14  1  1  0  0  0
  2 10  1  0  0  0  0
  3  2  1  0  0  0  0
  4  5  1  0  0  0  0
  4  3  1  0  0  0  0
  5 17  1  0  0  0  0
  6 18  1  0  0  0  0
  6  5  2  0  0  0  0
  7  6  1  0  0  0  0
  8  7  2  0  0  0  0
  8  9  1  0  0  0  0
  9  4  2  0  0  0  0
 10 11  2  0  0  0  0
 10 22  1  0  0  0  0
 12  1  1  0  0  0  0
 15  3  1  0  0  0  0
 16  3  1  0  0  0  0
 19  7  1  0  0  0  0
 20  8  1  0  0  0  0
 21  9  1  0  0  0  0
 22 23  1  0  0  0  0
 23 24  1  0  0  0  0
 23 31  1  1  0  0  0
 24 32  1  0  0  0  0
 24 25  1  0  0  0  0
 25 26  2  0  0  0  0
 25 29  1  0  0  0  0
 27 23  1  0  0  0  0
 27 28  2  0  0  0  0
 29 34  1  0  0  0  0
 30 22  1  0  0  0  0
 33 24  1  0  0  0  0
 35 36  1  0  0  0  0
 35 42  1  0  0  0  0
 36 44  1  0  0  0  0
 36 37  1  0  0  0  0
 37 39  1  0  0  0  0
 37 38  1  0  0  0  0
 37 45  1  1  0  0  0
 38 27  1  0  0  0  0
 39 40  1  0  0  0  0
 41 39  2  0  0  0  0
 43 36  1  0  0  0  0
 46 38  1  0  0  0  0
M  END
$$$$
