FDY.pdb
 OpenBabel07022418583D

 56 57  0  0  1  0  0  0  0  0999 V2000
    2.1360   -0.8780    4.2460 N   0  0  0  0  0  0  0  0  0  0  0  0
    1.6260   -0.4750    2.9690 C   0  0  1  0  0  0  0  0  0  0  0  0
    2.1590   -1.3210    1.8410 C   0  0  0  0  0  0  0  0  0  0  0  0
    3.6380   -1.2210    1.7810 C   0  0  0  0  0  0  0  0  0  0  0  0
    4.2360   -0.2350    1.0110 C   0  0  0  0  0  0  0  0  0  0  0  0
    5.6090   -0.1110    0.9290 C   0  0  0  0  0  0  0  0  0  0  0  0
    6.4300   -0.9710    1.6170 C   0  0  0  0  0  0  0  0  0  0  0  0
    5.8640   -1.9510    2.3830 C   0  0  0  0  0  0  0  0  0  0  0  0
    4.4990   -2.0610    2.4530 C   0  0  0  0  0  0  0  0  0  0  0  0
    0.1510   -0.3920    2.9670 C   0  0  0  0  0  0  0  0  0  0  0  0
   -0.5220   -0.6500    4.0180 O   0  0  0  0  0  0  0  0  0  0  0  0
    1.4290   -0.5940    4.9760 H   0  0  0  0  0  0  0  0  0  0  0  0
    2.2580   -1.9010    4.3650 H   0  0  0  0  0  0  0  0  0  0  0  0
    1.9980    0.5730    2.7750 H   0  0  0  0  0  0  0  0  0  0  0  0
    1.6720   -1.1250    0.8870 H   0  0  0  0  0  0  0  0  0  0  0  0
    1.9060   -2.3900    2.1040 H   0  0  0  0  0  0  0  0  0  0  0  0
    3.6130    0.4550    0.4590 H   0  0  0  0  0  0  0  0  0  0  0  0
    6.0720    0.6580    0.3290 H   0  0  0  0  0  0  0  0  0  0  0  0
    7.5240   -0.8570    1.5400 H   0  0  0  0  0  0  0  0  0  0  0  0
    6.5380   -2.6260    2.9240 H   0  0  0  0  0  0  0  0  0  0  0  0
    4.0620   -2.8470    3.0680 H   0  0  0  0  0  0  0  0  0  0  0  0
   -0.5870   -0.0260    1.8120 N   0  0  0  0  0  0  0  0  0  0  0  0
   -2.0390    0.0690    1.7650 C   0  0  1  0  0  0  0  0  0  0  0  0
   -2.4970    1.4350    1.3720 C   0  0  0  0  0  0  0  0  0  0  0  0
   -3.9710    1.4800    1.3430 C   0  0  0  0  0  0  0  0  0  0  0  0
   -4.6200    1.2790    0.2920 O   0  0  0  0  0  0  0  0  0  0  0  0
   -2.4930   -0.9570    0.8110 C   0  0  0  0  0  0  0  0  0  0  0  0
   -3.7150   -1.1130    0.6010 O   0  0  0  0  0  0  0  0  0  0  0  0
   -4.7290    1.7510    2.4960 O   0  0  0  0  0  0  0  0  0  0  0  0
   -0.0430    0.1860    0.9480 H   0  0  0  0  0  0  0  0  0  0  0  0
   -2.4950   -0.1730    2.7470 H   0  0  0  0  0  0  0  0  0  0  0  0
   -2.0810    1.7680    0.3980 H   0  0  0  0  0  0  0  0  0  0  0  0
   -2.1850    2.1730    2.1690 H   0  0  0  0  0  0  0  0  0  0  0  0
   -5.6730    2.1480    2.4170 H   0  0  0  0  0  0  0  0  0  0  0  0
   -2.4700    2.6120   -4.1110 O   0  0  0  0  0  0  0  0  0  0  0  0
   -2.1940    1.3330   -3.6280 C   0  0  0  0  0  0  0  0  0  0  0  0
   -1.1210    1.0990   -2.7920 C   0  0  0  0  0  0  0  0  0  0  0  0
   -0.8570   -0.1540   -2.3240 C   0  0  0  0  0  0  0  0  0  0  0  0
   -1.6560   -1.2060   -2.6780 C   0  0  0  0  0  0  0  0  0  0  0  0
   -1.3430   -2.5630   -2.1510 C   0  0  0  0  0  0  0  0  0  0  0  0
   -2.0490   -2.8090   -0.8360 C   0  0  2  0  0  0  0  0  0  0  0  0
   -1.5910   -1.7950    0.1070 N   0  0  0  0  0  0  0  0  0  0  0  0
   -1.5750   -4.1210   -0.3270 C   0  0  0  0  0  0  0  0  0  0  0  0
   -0.9110   -4.2290    0.7290 O   0  0  0  0  0  0  0  0  0  0  0  0
   -2.7370   -1.0220   -3.5090 C   0  0  0  0  0  0  0  0  0  0  0  0
   -2.9830    0.2530   -3.9690 C   0  0  0  0  0  0  0  0  0  0  0  0
   -1.8770   -5.2600   -1.0410 O   0  0  0  0  0  0  0  0  0  0  0  0
   -3.0640    2.7490   -4.9080 H   0  0  0  0  0  0  0  0  0  0  0  0
   -0.4900    1.9410   -2.5150 H   0  0  0  0  0  0  0  0  0  0  0  0
    0.0010   -0.3300   -1.6590 H   0  0  0  0  0  0  0  0  0  0  0  0
   -0.2560   -2.5940   -1.9350 H   0  0  0  0  0  0  0  0  0  0  0  0
   -1.5800   -3.3550   -2.8920 H   0  0  0  0  0  0  0  0  0  0  0  0
   -3.1580   -2.7890   -0.9240 H   0  0  0  0  0  0  0  0  0  0  0  0
   -0.5600   -1.7140    0.2410 H   0  0  0  0  0  0  0  0  0  0  0  0
   -3.3700   -1.8750   -3.7840 H   0  0  0  0  0  0  0  0  0  0  0  0
   -3.8440    0.3830   -4.6270 H   0  0  0  0  0  0  0  0  0  0  0  0
  1 13  1  0  0  0  0
  1 12  1  0  0  0  0
  2 14  1  6  0  0  0
  2  1  1  0  0  0  0
  3 16  1  0  0  0  0
  3  2  1  0  0  0  0
  4  3  1  0  0  0  0
  4  9  1  0  0  0  0
  5  4  2  0  0  0  0
  6  5  1  0  0  0  0
  6  7  2  0  0  0  0
  7  8  1  0  0  0  0
  8  9  2  0  0  0  0
  8 20  1  0  0  0  0
  9 21  1  0  0  0  0
 10  2  1  0  0  0  0
 10 11  2  0  0  0  0
 15  3  1  0  0  0  0
 17  5  1  0  0  0  0
 18  6  1  0  0  0  0
 19  7  1  0  0  0  0
 22 10  1  0  0  0  0
 23 22  1  0  0  0  0
 23 31  1  1  0  0  0
 24 23  1  0  0  0  0
 24 33  1  0  0  0  0
 25 24  1  0  0  0  0
 25 29  1  0  0  0  0
 26 25  2  0  0  0  0
 27 23  1  0  0  0  0
 28 27  2  0  0  0  0
 30 22  1  0  0  0  0
 32 24  1  0  0  0  0
 34 29  1  0  0  0  0
 35 36  1  0  0  0  0
 36 37  1  0  0  0  0
 37 49  1  0  0  0  0
 37 38  2  0  0  0  0
 38 50  1  0  0  0  0
 39 38  1  0  0  0  0
 39 40  1  0  0  0  0
 40 51  1  0  0  0  0
 40 41  1  0  0  0  0
 41 53  1  6  0  0  0
 41 43  1  0  0  0  0
 41 42  1  0  0  0  0
 42 54  1  0  0  0  0
 42 27  1  0  0  0  0
 43 44  1  0  0  0  0
 45 39  2  0  0  0  0
 46 36  2  0  0  0  0
 46 45  1  0  0  0  0
 47 43  2  0  0  0  0
 48 35  1  0  0  0  0
 52 40  1  0  0  0  0
 55 45  1  0  0  0  0
 56 46  1  0  0  0  0
M  END
$$$$
