FEA.pdb
 OpenBabel07022418583D

 48 48  0  0  1  0  0  0  0  0999 V2000
    0.2240   -2.4400    3.4370 N   0  0  0  0  0  0  0  0  0  0  0  0
    1.2110   -2.0270    2.4530 C   0  0  1  0  0  0  0  0  0  0  0  0
    1.2550   -3.0750    1.3730 C   0  0  0  0  0  0  0  0  0  0  0  0
    2.2060   -2.8060    0.2930 C   0  0  0  0  0  0  0  0  0  0  0  0
    1.8770   -2.1620   -0.8970 C   0  0  0  0  0  0  0  0  0  0  0  0
    2.8060   -1.9260   -1.8790 C   0  0  0  0  0  0  0  0  0  0  0  0
    4.1130   -2.3120   -1.7430 C   0  0  0  0  0  0  0  0  0  0  0  0
    4.4570   -2.9520   -0.5690 C   0  0  0  0  0  0  0  0  0  0  0  0
    3.5330   -3.1940    0.4240 C   0  0  0  0  0  0  0  0  0  0  0  0
    0.8070   -0.7340    1.8130 C   0  0  0  0  0  0  0  0  0  0  0  0
    1.6530   -0.2540    1.0290 O   0  0  0  0  0  0  0  0  0  0  0  0
    0.3610   -3.4810    3.5730 H   0  0  0  0  0  0  0  0  0  0  0  0
    0.4420   -1.9760    4.3270 H   0  0  0  0  0  0  0  0  0  0  0  0
    2.2090   -1.8950    2.8640 H   0  0  0  0  0  0  0  0  0  0  0  0
    1.5140   -4.0700    1.8090 H   0  0  0  0  0  0  0  0  0  0  0  0
    0.2290   -3.1820    0.9510 H   0  0  0  0  0  0  0  0  0  0  0  0
    0.8450   -1.8540   -1.0200 H   0  0  0  0  0  0  0  0  0  0  0  0
    2.5030   -1.4260   -2.7780 H   0  0  0  0  0  0  0  0  0  0  0  0
    4.8540   -2.1270   -2.5190 H   0  0  0  0  0  0  0  0  0  0  0  0
    5.4770   -3.2740   -0.4180 H   0  0  0  0  0  0  0  0  0  0  0  0
    3.8230   -3.7010    1.3410 H   0  0  0  0  0  0  0  0  0  0  0  0
   -0.4020   -0.1020    2.0550 N   0  0  0  0  0  0  0  0  0  0  0  0
   -0.7860    1.1440    1.4580 C   0  0  1  0  0  0  0  0  0  0  0  0
    0.3730    2.0200    1.0460 C   0  0  0  0  0  0  0  0  0  0  0  0
    1.1780    2.3990    2.2560 C   0  0  0  0  0  0  0  0  0  0  0  0
    0.3420    3.2510    3.1600 C   0  0  0  0  0  0  0  0  0  0  0  0
    0.7800    3.4000    4.3400 O   0  0  0  0  0  0  0  0  0  0  0  0
   -1.8080    0.9780    0.4020 C   0  0  0  0  0  0  0  0  0  0  0  0
   -2.2680    1.9400   -0.2570 O   0  0  0  0  0  0  0  0  0  0  0  0
   -0.8270    3.8690    2.8210 O   0  0  0  0  0  0  0  0  0  0  0  0
   -1.0740   -0.5900    2.7310 H   0  0  0  0  0  0  0  0  0  0  0  0
   -1.2990    1.7740    2.2810 H   0  0  0  0  0  0  0  0  0  0  0  0
   -0.1260    2.9770    0.6470 H   0  0  0  0  0  0  0  0  0  0  0  0
    0.9520    1.6740    0.1940 H   0  0  0  0  0  0  0  0  0  0  0  0
    2.0960    2.9700    1.9630 H   0  0  0  0  0  0  0  0  0  0  0  0
    1.4490    1.5260    2.8830 H   0  0  0  0  0  0  0  0  0  0  0  0
   -1.2760    4.4820    3.4700 H   0  0  0  0  0  0  0  0  0  0  0  0
   -2.7570   -1.4220   -2.0160 C   0  0  0  0  0  0  0  0  0  0  0  0
   -3.3270   -0.5170   -0.9490 C   0  0  2  0  0  0  0  0  0  0  0  0
   -2.3250   -0.3080    0.0800 N   0  0  0  0  0  0  0  0  0  0  0  0
   -4.5850   -1.0840   -0.3550 C   0  0  0  0  0  0  0  0  0  0  0  0
   -4.6510   -1.3040    0.8660 O   0  0  0  0  0  0  0  0  0  0  0  0
   -5.6190   -1.3310   -1.2490 O   0  0  0  0  0  0  0  0  0  0  0  0
   -2.1510   -0.8420   -2.7400 H   0  0  0  0  0  0  0  0  0  0  0  0
   -2.0480   -2.1200   -1.4860 H   0  0  0  0  0  0  0  0  0  0  0  0
   -3.5450   -2.0420   -2.5010 H   0  0  0  0  0  0  0  0  0  0  0  0
   -3.5740    0.4550   -1.4620 H   0  0  0  0  0  0  0  0  0  0  0  0
   -1.9470   -1.1100    0.6250 H   0  0  0  0  0  0  0  0  0  0  0  0
  1 12  1  0  0  0  0
  1 13  1  0  0  0  0
  2 14  1  1  0  0  0
  2  1  1  0  0  0  0
  3 15  1  0  0  0  0
  3  2  1  0  0  0  0
  4  9  1  0  0  0  0
  4  3  1  0  0  0  0
  5  4  2  0  0  0  0
  6  7  2  0  0  0  0
  6  5  1  0  0  0  0
  7  8  1  0  0  0  0
  8 20  1  0  0  0  0
  8  9  2  0  0  0  0
  9 21  1  0  0  0  0
 10 22  1  0  0  0  0
 10  2  1  0  0  0  0
 11 10  2  0  0  0  0
 16  3  1  0  0  0  0
 17  5  1  0  0  0  0
 18  6  1  0  0  0  0
 19  7  1  0  0  0  0
 22 31  1  0  0  0  0
 23 22  1  0  0  0  0
 23 32  1  1  0  0  0
 24 23  1  0  0  0  0
 24 25  1  0  0  0  0
 25 36  1  0  0  0  0
 25 26  1  0  0  0  0
 26 27  2  0  0  0  0
 28 23  1  0  0  0  0
 29 28  2  0  0  0  0
 30 26  1  0  0  0  0
 30 37  1  0  0  0  0
 33 24  1  0  0  0  0
 34 24  1  0  0  0  0
 35 25  1  0  0  0  0
 38 45  1  0  0  0  0
 38 39  1  0  0  0  0
 39 47  1  6  0  0  0
 39 41  1  0  0  0  0
 39 40  1  0  0  0  0
 40 28  1  0  0  0  0
 40 48  1  0  0  0  0
 41 42  1  0  0  0  0
 43 41  2  0  0  0  0
 44 38  1  0  0  0  0
 46 38  1  0  0  0  0
M  END
$$$$
