FEE.pdb
 OpenBabel07022418583D

 54 54  0  0  1  0  0  0  0  0999 V2000
    2.6920    3.2810    1.2220 N   0  0  0  0  0  0  0  0  0  0  0  0
    2.0240    2.3750    0.2710 C   0  0  1  0  0  0  0  0  0  0  0  0
    3.0430    1.2430    0.0300 C   0  0  0  0  0  0  0  0  0  0  0  0
    3.3380    0.5770    1.3480 C   0  0  0  0  0  0  0  0  0  0  0  0
    2.6140   -0.5010    1.8040 C   0  0  0  0  0  0  0  0  0  0  0  0
    2.9270   -1.0790    3.0400 C   0  0  0  0  0  0  0  0  0  0  0  0
    3.9470   -0.6020    3.8290 C   0  0  0  0  0  0  0  0  0  0  0  0
    4.6700    0.4800    3.3680 C   0  0  0  0  0  0  0  0  0  0  0  0
    4.3590    1.0470    2.1500 C   0  0  0  0  0  0  0  0  0  0  0  0
    0.8670    1.7730    0.9820 C   0  0  0  0  0  0  0  0  0  0  0  0
    0.6900    1.9640    2.2250 O   0  0  0  0  0  0  0  0  0  0  0  0
    2.5710    2.8390    2.1610 H   0  0  0  0  0  0  0  0  0  0  0  0
    2.1070    4.1560    1.2350 H   0  0  0  0  0  0  0  0  0  0  0  0
    1.7610    2.8720   -0.6700 H   0  0  0  0  0  0  0  0  0  0  0  0
    2.6500    0.4870   -0.6490 H   0  0  0  0  0  0  0  0  0  0  0  0
    3.9550    1.7240   -0.3660 H   0  0  0  0  0  0  0  0  0  0  0  0
    1.8110   -0.8820    1.1920 H   0  0  0  0  0  0  0  0  0  0  0  0
    2.3470   -1.9400    3.4010 H   0  0  0  0  0  0  0  0  0  0  0  0
    4.1530   -1.0820    4.7820 H   0  0  0  0  0  0  0  0  0  0  0  0
    5.4670    0.8460    3.9980 H   0  0  0  0  0  0  0  0  0  0  0  0
    4.9330    1.9030    1.7850 H   0  0  0  0  0  0  0  0  0  0  0  0
   -0.1020    0.9630    0.3480 N   0  0  0  0  0  0  0  0  0  0  0  0
   -1.2150    0.3990    1.0990 C   0  0  1  0  0  0  0  0  0  0  0  0
   -2.4340    1.2570    0.7410 C   0  0  0  0  0  0  0  0  0  0  0  0
   -3.6670    0.8120    1.4380 C   0  0  0  0  0  0  0  0  0  0  0  0
   -4.7760    1.7500    1.0270 C   0  0  0  0  0  0  0  0  0  0  0  0
   -4.6020    2.6950    0.2330 O   0  0  0  0  0  0  0  0  0  0  0  0
   -1.4210   -1.0210    0.8280 C   0  0  0  0  0  0  0  0  0  0  0  0
   -2.3050   -1.6200    1.5030 O   0  0  0  0  0  0  0  0  0  0  0  0
   -6.0260    1.5460    1.5570 O   0  0  0  0  0  0  0  0  0  0  0  0
   -0.0100    0.7740   -0.6660 H   0  0  0  0  0  0  0  0  0  0  0  0
   -1.0880    0.5530    2.1860 H   0  0  0  0  0  0  0  0  0  0  0  0
   -2.1830    2.2830    1.1300 H   0  0  0  0  0  0  0  0  0  0  0  0
   -2.5550    1.3410   -0.3630 H   0  0  0  0  0  0  0  0  0  0  0  0
   -3.5520    0.9190    2.5190 H   0  0  0  0  0  0  0  0  0  0  0  0
   -4.0040   -0.2020    1.1220 H   0  0  0  0  0  0  0  0  0  0  0  0
   -6.6700    2.3140    1.7620 H   0  0  0  0  0  0  0  0  0  0  0  0
   -0.6970   -1.7660   -0.1410 N   0  0  0  0  0  0  0  0  0  0  0  0
   -1.0210   -3.1790   -0.3030 C   0  0  1  0  0  0  0  0  0  0  0  0
   -1.6140   -3.4240   -1.6690 C   0  0  0  0  0  0  0  0  0  0  0  0
   -1.9830   -4.8570   -1.9100 C   0  0  0  0  0  0  0  0  0  0  0  0
   -2.5730   -4.9020   -3.2900 C   0  0  0  0  0  0  0  0  0  0  0  0
   -3.7580   -4.5850   -3.4960 O   0  0  0  0  0  0  0  0  0  0  0  0
    0.1800   -3.9920   -0.0650 C   0  0  0  0  0  0  0  0  0  0  0  0
    0.1110   -5.2340   -0.0870 O   0  0  0  0  0  0  0  0  0  0  0  0
   -1.7520   -5.3100   -4.3240 O   0  0  0  0  0  0  0  0  0  0  0  0
    1.3990   -3.3860    0.1860 O   0  0  0  0  0  0  0  0  0  0  0  0
    0.0380   -1.2860   -0.7040 H   0  0  0  0  0  0  0  0  0  0  0  0
   -1.7900   -3.4390    0.4430 H   0  0  0  0  0  0  0  0  0  0  0  0
   -2.4250   -2.7200   -1.8720 H   0  0  0  0  0  0  0  0  0  0  0  0
   -0.8140   -3.1740   -2.4250 H   0  0  0  0  0  0  0  0  0  0  0  0
   -2.7150   -5.2300   -1.1590 H   0  0  0  0  0  0  0  0  0  0  0  0
   -1.1510   -5.5660   -1.9160 H   0  0  0  0  0  0  0  0  0  0  0  0
   -2.0020   -5.2230   -5.3020 H   0  0  0  0  0  0  0  0  0  0  0  0
  1 13  1  0  0  0  0
  1 12  1  0  0  0  0
  2 14  1  6  0  0  0
  2 10  1  0  0  0  0
  2  1  1  0  0  0  0
  3  2  1  0  0  0  0
  3  4  1  0  0  0  0
  4  5  2  0  0  0  0
  4  9  1  0  0  0  0
  5  6  1  0  0  0  0
  6 18  1  0  0  0  0
  6  7  2  0  0  0  0
  7 19  1  0  0  0  0
  8  7  1  0  0  0  0
  8 20  1  0  0  0  0
  9  8  2  0  0  0  0
 10 11  2  0  0  0  0
 15  3  1  0  0  0  0
 16  3  1  0  0  0  0
 17  5  1  0  0  0  0
 21  9  1  0  0  0  0
 22 10  1  0  0  0  0
 22 23  1  0  0  0  0
 23 32  1  1  0  0  0
 24 23  1  0  0  0  0
 24 33  1  0  0  0  0
 24 25  1  0  0  0  0
 25 35  1  0  0  0  0
 26 25  1  0  0  0  0
 26 30  1  0  0  0  0
 27 26  2  0  0  0  0
 28 23  1  0  0  0  0
 28 29  2  0  0  0  0
 30 37  1  0  0  0  0
 31 22  1  0  0  0  0
 34 24  1  0  0  0  0
 36 25  1  0  0  0  0
 38 28  1  0  0  0  0
 39 38  1  0  0  0  0
 39 44  1  0  0  0  0
 39 49  1  1  0  0  0
 40 39  1  0  0  0  0
 41 40  1  0  0  0  0
 41 52  1  0  0  0  0
 42 41  1  0  0  0  0
 43 42  2  0  0  0  0
 44 47  1  0  0  0  0
 45 44  2  0  0  0  0
 46 42  1  0  0  0  0
 48 38  1  0  0  0  0
 50 40  1  0  0  0  0
 51 40  1  0  0  0  0
 53 41  1  0  0  0  0
 54 46  1  0  0  0  0
M  END
$$$$
