FEG.pdb
 OpenBabel07022418583D

 45 45  0  0  1  0  0  0  0  0999 V2000
   -3.4470   -2.2430    1.3980 N   0  0  0  0  0  0  0  0  0  0  0  0
   -2.3350   -2.1510    0.4800 C   0  0  1  0  0  0  0  0  0  0  0  0
   -2.6850   -1.1860   -0.6060 C   0  0  0  0  0  0  0  0  0  0  0  0
   -2.9860    0.1810   -0.1380 C   0  0  0  0  0  0  0  0  0  0  0  0
   -4.2880    0.5700    0.2030 C   0  0  0  0  0  0  0  0  0  0  0  0
   -4.6110    1.8170    0.6390 C   0  0  0  0  0  0  0  0  0  0  0  0
   -3.6260    2.7680    0.7650 C   0  0  0  0  0  0  0  0  0  0  0  0
   -2.3300    2.4290    0.4410 C   0  0  0  0  0  0  0  0  0  0  0  0
   -2.0300    1.1650    0.0030 C   0  0  0  0  0  0  0  0  0  0  0  0
   -1.0560   -1.8460    1.1790 C   0  0  0  0  0  0  0  0  0  0  0  0
   -1.0060   -1.6580    2.4240 O   0  0  0  0  0  0  0  0  0  0  0  0
   -4.1620   -2.8620    0.9590 H   0  0  0  0  0  0  0  0  0  0  0  0
   -3.1010   -2.6440    2.3070 H   0  0  0  0  0  0  0  0  0  0  0  0
   -2.2470   -3.1590   -0.0270 H   0  0  0  0  0  0  0  0  0  0  0  0
   -1.9510   -1.2040   -1.4550 H   0  0  0  0  0  0  0  0  0  0  0  0
   -3.6390   -1.5890   -1.0620 H   0  0  0  0  0  0  0  0  0  0  0  0
   -5.0570   -0.1830    0.1000 H   0  0  0  0  0  0  0  0  0  0  0  0
   -5.6280    2.0670    0.8890 H   0  0  0  0  0  0  0  0  0  0  0  0
   -3.8390    3.7700    1.1080 H   0  0  0  0  0  0  0  0  0  0  0  0
   -1.5560    3.1910    0.5450 H   0  0  0  0  0  0  0  0  0  0  0  0
   -1.0110    0.9370   -0.2420 H   0  0  0  0  0  0  0  0  0  0  0  0
    0.1460   -1.7580    0.4520 N   0  0  0  0  0  0  0  0  0  0  0  0
    1.3850   -1.4560    1.1880 C   0  0  1  0  0  0  0  0  0  0  0  0
    2.2130   -2.7260    1.0640 C   0  0  0  0  0  0  0  0  0  0  0  0
    3.5420   -2.5800    1.7520 C   0  0  0  0  0  0  0  0  0  0  0  0
    4.2520   -3.8890    1.5950 C   0  0  0  0  0  0  0  0  0  0  0  0
    3.9300   -4.8320    2.3410 O   0  0  0  0  0  0  0  0  0  0  0  0
    2.0310   -0.2580    0.6760 C   0  0  0  0  0  0  0  0  0  0  0  0
    1.6380    0.2410   -0.4120 O   0  0  0  0  0  0  0  0  0  0  0  0
    5.2350   -4.0500    0.6520 O   0  0  0  0  0  0  0  0  0  0  0  0
    0.2110   -1.8990   -0.5900 H   0  0  0  0  0  0  0  0  0  0  0  0
    1.1490   -1.3350    2.2520 H   0  0  0  0  0  0  0  0  0  0  0  0
    1.6220   -3.5330    1.5400 H   0  0  0  0  0  0  0  0  0  0  0  0
    2.4240   -2.9680    0.0000 H   0  0  0  0  0  0  0  0  0  0  0  0
    3.4960   -2.2960    2.8010 H   0  0  0  0  0  0  0  0  0  0  0  0
    4.1900   -1.8310    1.2000 H   0  0  0  0  0  0  0  0  0  0  0  0
    5.3930   -4.9410    0.2000 H   0  0  0  0  0  0  0  0  0  0  0  0
    3.0930    0.3940    1.3430 N   0  0  0  0  0  0  0  0  0  0  0  0
    3.7000    1.5860    0.7680 C   0  0  0  0  0  0  0  0  0  0  0  0
    2.6900    2.6410    0.6250 C   0  0  0  0  0  0  0  0  0  0  0  0
    1.5010    2.4610    0.9860 O   0  0  0  0  0  0  0  0  0  0  0  0
    3.0660    3.8600    0.0800 O   0  0  0  0  0  0  0  0  0  0  0  0
    3.4570    0.0520    2.2680 H   0  0  0  0  0  0  0  0  0  0  0  0
    4.0880    1.3330   -0.2450 H   0  0  0  0  0  0  0  0  0  0  0  0
    4.5620    1.9090    1.3650 H   0  0  0  0  0  0  0  0  0  0  0  0
  1 13  1  0  0  0  0
  2 14  1  6  0  0  0
  2 10  1  0  0  0  0
  2  1  1  0  0  0  0
  3  4  1  0  0  0  0
  3  2  1  0  0  0  0
  4  9  2  0  0  0  0
  4  5  1  0  0  0  0
  5  6  2  0  0  0  0
  6  7  1  0  0  0  0
  6 18  1  0  0  0  0
  7 19  1  0  0  0  0
  8 20  1  0  0  0  0
  8  7  2  0  0  0  0
  9  8  1  0  0  0  0
 10 11  2  0  0  0  0
 12  1  1  0  0  0  0
 15  3  1  0  0  0  0
 16  3  1  0  0  0  0
 17  5  1  0  0  0  0
 21  9  1  0  0  0  0
 22 10  1  0  0  0  0
 22 23  1  0  0  0  0
 23 32  1  1  0  0  0
 24 23  1  0  0  0  0
 24 33  1  0  0  0  0
 24 25  1  0  0  0  0
 25 35  1  0  0  0  0
 26 25  1  0  0  0  0
 26 27  2  0  0  0  0
 28 23  1  0  0  0  0
 28 38  1  0  0  0  0
 29 28  2  0  0  0  0
 30 26  1  0  0  0  0
 31 22  1  0  0  0  0
 34 24  1  0  0  0  0
 36 25  1  0  0  0  0
 37 30  1  0  0  0  0
 38 43  1  0  0  0  0
 39 38  1  0  0  0  0
 39 45  1  0  0  0  0
 40 39  1  0  0  0  0
 40 41  1  0  0  0  0
 42 40  2  0  0  0  0
 44 39  1  0  0  0  0
M  END
$$$$
