FEI.pdb
 OpenBabel07022418583D

 57 57  0  0  1  0  0  0  0  0999 V2000
    2.8040    3.6940    0.7910 N   0  0  0  0  0  0  0  0  0  0  0  0
    1.4820    3.2680    0.3670 C   0  0  1  0  0  0  0  0  0  0  0  0
    1.5140    3.0910   -1.1320 C   0  0  0  0  0  0  0  0  0  0  0  0
    2.5300    2.0740   -1.5530 C   0  0  0  0  0  0  0  0  0  0  0  0
    2.2300    0.7410   -1.6980 C   0  0  0  0  0  0  0  0  0  0  0  0
    3.2130   -0.1480   -2.0870 C   0  0  0  0  0  0  0  0  0  0  0  0
    4.5130    0.2570   -2.3420 C   0  0  0  0  0  0  0  0  0  0  0  0
    4.7640    1.6020   -2.1830 C   0  0  0  0  0  0  0  0  0  0  0  0
    3.8160    2.5110   -1.8000 C   0  0  0  0  0  0  0  0  0  0  0  0
    1.1130    2.0610    1.1210 C   0  0  0  0  0  0  0  0  0  0  0  0
    1.9460    1.4710    1.8980 O   0  0  0  0  0  0  0  0  0  0  0  0
    2.8270    3.7260    1.8360 H   0  0  0  0  0  0  0  0  0  0  0  0
    2.9570    4.6500    0.3800 H   0  0  0  0  0  0  0  0  0  0  0  0
    0.8090    4.1280    0.5700 H   0  0  0  0  0  0  0  0  0  0  0  0
    0.5200    2.7750   -1.5280 H   0  0  0  0  0  0  0  0  0  0  0  0
    1.7720    4.0530   -1.5780 H   0  0  0  0  0  0  0  0  0  0  0  0
    1.2220    0.3780   -1.5100 H   0  0  0  0  0  0  0  0  0  0  0  0
    2.9810   -1.1850   -2.1990 H   0  0  0  0  0  0  0  0  0  0  0  0
    5.2960   -0.4350   -2.6490 H   0  0  0  0  0  0  0  0  0  0  0  0
    5.7910    1.9360   -2.3830 H   0  0  0  0  0  0  0  0  0  0  0  0
    4.0780    3.5760   -1.6900 H   0  0  0  0  0  0  0  0  0  0  0  0
   -0.1660    1.4460    1.0710 N   0  0  0  0  0  0  0  0  0  0  0  0
   -0.4910    0.2750    1.8230 C   0  0  1  0  0  0  0  0  0  0  0  0
   -1.4280    0.5070    2.9500 C   0  0  0  0  0  0  0  0  0  0  0  0
   -2.7560    1.0800    2.6440 C   0  0  0  0  0  0  0  0  0  0  0  0
   -3.6350    0.3340    1.7560 C   0  0  0  0  0  0  0  0  0  0  0  0
   -3.5770    0.5060    0.5160 O   0  0  0  0  0  0  0  0  0  0  0  0
   -0.8780   -0.8570    0.9640 C   0  0  0  0  0  0  0  0  0  0  0  0
   -0.9350   -0.7420   -0.2920 O   0  0  0  0  0  0  0  0  0  0  0  0
   -4.5650   -0.5850    2.2150 O   0  0  0  0  0  0  0  0  0  0  0  0
   -0.8840    1.8740    0.4590 H   0  0  0  0  0  0  0  0  0  0  0  0
    0.4690   -0.1120    2.3480 H   0  0  0  0  0  0  0  0  0  0  0  0
   -0.9110    1.0400    3.8050 H   0  0  0  0  0  0  0  0  0  0  0  0
   -1.6160   -0.5180    3.4020 H   0  0  0  0  0  0  0  0  0  0  0  0
   -2.6280    2.1460    2.2660 H   0  0  0  0  0  0  0  0  0  0  0  0
   -3.3270    1.2560    3.6110 H   0  0  0  0  0  0  0  0  0  0  0  0
   -5.4080   -0.7860    1.6920 H   0  0  0  0  0  0  0  0  0  0  0  0
   -1.2620   -4.8050   -1.7930 C   0  0  0  0  0  0  0  0  0  0  0  0
   -0.9430   -5.3590   -0.4160 C   0  0  0  0  0  0  0  0  0  0  0  0
   -0.5030   -4.2760    0.5350 C   0  0  2  0  0  0  0  0  0  0  0  0
   -0.2150   -4.8850    1.8770 C   0  0  0  0  0  0  0  0  0  0  0  0
   -1.5750   -3.2100    0.5940 C   0  0  2  0  0  0  0  0  0  0  0  0
   -1.2060   -2.1360    1.4870 N   0  0  0  0  0  0  0  0  0  0  0  0
   -2.8070   -3.8310    1.1250 C   0  0  0  0  0  0  0  0  0  0  0  0
   -3.4590   -4.7490    0.5730 O   0  0  0  0  0  0  0  0  0  0  0  0
   -3.3420   -3.3960    2.3530 O   0  0  0  0  0  0  0  0  0  0  0  0
   -2.2040   -4.2490   -1.8260 H   0  0  0  0  0  0  0  0  0  0  0  0
   -1.3060   -5.6600   -2.5020 H   0  0  0  0  0  0  0  0  0  0  0  0
   -0.3830   -4.1990   -2.1080 H   0  0  0  0  0  0  0  0  0  0  0  0
   -0.0370   -6.0280   -0.6110 H   0  0  0  0  0  0  0  0  0  0  0  0
   -1.6920   -6.0440   -0.0270 H   0  0  0  0  0  0  0  0  0  0  0  0
    0.4410   -3.8640    0.0630 H   0  0  0  0  0  0  0  0  0  0  0  0
   -0.8700   -5.7810    2.0790 H   0  0  0  0  0  0  0  0  0  0  0  0
    0.8290   -5.2980    1.8940 H   0  0  0  0  0  0  0  0  0  0  0  0
   -0.3820   -4.1960    2.7210 H   0  0  0  0  0  0  0  0  0  0  0  0
   -1.6750   -2.8040   -0.4140 H   0  0  0  0  0  0  0  0  0  0  0  0
   -1.1890   -2.3300    2.5090 H   0  0  0  0  0  0  0  0  0  0  0  0
  1 12  1  0  0  0  0
  2 14  1  1  0  0  0
  2  1  1  0  0  0  0
  2 10  1  0  0  0  0
  3  2  1  0  0  0  0
  4  3  1  0  0  0  0
  5  4  1  0  0  0  0
  5 17  1  0  0  0  0
  6  5  2  0  0  0  0
  7  8  2  0  0  0  0
  7  6  1  0  0  0  0
  8  9  1  0  0  0  0
  9 21  1  0  0  0  0
  9  4  2  0  0  0  0
 10 11  2  0  0  0  0
 13  1  1  0  0  0  0
 15  3  1  0  0  0  0
 16  3  1  0  0  0  0
 18  6  1  0  0  0  0
 19  7  1  0  0  0  0
 20  8  1  0  0  0  0
 22 10  1  0  0  0  0
 22 23  1  0  0  0  0
 23 32  1  1  0  0  0
 23 24  1  0  0  0  0
 24 34  1  0  0  0  0
 24 33  1  0  0  0  0
 25 24  1  0  0  0  0
 25 36  1  0  0  0  0
 26 30  1  0  0  0  0
 26 25  1  0  0  0  0
 27 26  2  0  0  0  0
 28 43  1  0  0  0  0
 28 23  1  0  0  0  0
 29 28  2  0  0  0  0
 31 22  1  0  0  0  0
 35 25  1  0  0  0  0
 37 30  1  0  0  0  0
 38 39  1  0  0  0  0
 39 51  1  0  0  0  0
 39 40  1  0  0  0  0
 40 52  1  6  0  0  0
 40 42  1  0  0  0  0
 40 41  1  0  0  0  0
 41 54  1  0  0  0  0
 41 53  1  0  0  0  0
 41 55  1  0  0  0  0
 42 56  1  6  0  0  0
 42 44  1  0  0  0  0
 42 43  1  0  0  0  0
 43 57  1  0  0  0  0
 44 46  1  0  0  0  0
 45 44  2  0  0  0  0
 47 38  1  0  0  0  0
 48 38  1  0  0  0  0
 49 38  1  0  0  0  0
 50 39  1  0  0  0  0
M  END
$$$$
