FEL.pdb
 OpenBabel07022418583D

 57 57  0  0  1  0  0  0  0  0999 V2000
    2.1700    3.0580    1.6640 N   0  0  0  0  0  0  0  0  0  0  0  0
    1.5380    2.2010    0.6810 C   0  0  1  0  0  0  0  0  0  0  0  0
    2.6540    1.3940    0.0440 C   0  0  0  0  0  0  0  0  0  0  0  0
    3.3730    0.5870    1.0770 C   0  0  0  0  0  0  0  0  0  0  0  0
    2.9400   -0.6910    1.3950 C   0  0  0  0  0  0  0  0  0  0  0  0
    3.5840   -1.4590    2.3400 C   0  0  0  0  0  0  0  0  0  0  0  0
    4.6890   -0.9730    3.0050 C   0  0  0  0  0  0  0  0  0  0  0  0
    5.1320    0.2960    2.7000 C   0  0  0  0  0  0  0  0  0  0  0  0
    4.4800    1.0560    1.7530 C   0  0  0  0  0  0  0  0  0  0  0  0
    0.5330    1.3640    1.3690 C   0  0  0  0  0  0  0  0  0  0  0  0
    0.4510    1.4000    2.6040 O   0  0  0  0  0  0  0  0  0  0  0  0
    2.1230    2.5740    2.5930 H   0  0  0  0  0  0  0  0  0  0  0  0
    1.6590    3.9700    1.7590 H   0  0  0  0  0  0  0  0  0  0  0  0
    1.0740    2.8160   -0.1320 H   0  0  0  0  0  0  0  0  0  0  0  0
    3.3760    2.1000   -0.4120 H   0  0  0  0  0  0  0  0  0  0  0  0
    2.3110    0.7090   -0.7330 H   0  0  0  0  0  0  0  0  0  0  0  0
    2.0710   -1.0780    0.8780 H   0  0  0  0  0  0  0  0  0  0  0  0
    3.2460   -2.4710    2.5960 H   0  0  0  0  0  0  0  0  0  0  0  0
    5.1730   -1.6020    3.7430 H   0  0  0  0  0  0  0  0  0  0  0  0
    6.0000    0.6600    3.2320 H   0  0  0  0  0  0  0  0  0  0  0  0
    4.8350    2.0410    1.5250 H   0  0  0  0  0  0  0  0  0  0  0  0
   -0.3620    0.5050    0.6500 N   0  0  0  0  0  0  0  0  0  0  0  0
   -1.3290   -0.2870    1.3670 C   0  0  1  0  0  0  0  0  0  0  0  0
   -2.7070    0.3550    1.2100 C   0  0  0  0  0  0  0  0  0  0  0  0
   -2.6530    1.7500    1.7750 C   0  0  0  0  0  0  0  0  0  0  0  0
   -3.9790    2.4160    1.6430 C   0  0  0  0  0  0  0  0  0  0  0  0
   -4.1650    3.5910    2.0510 O   0  0  0  0  0  0  0  0  0  0  0  0
   -1.3690   -1.6990    0.9800 C   0  0  0  0  0  0  0  0  0  0  0  0
   -2.1740   -2.5260    1.5390 O   0  0  0  0  0  0  0  0  0  0  0  0
   -5.0230    1.7300    1.0610 O   0  0  0  0  0  0  0  0  0  0  0  0
   -0.2600    0.5010   -0.3860 H   0  0  0  0  0  0  0  0  0  0  0  0
   -1.1230   -0.2170    2.4580 H   0  0  0  0  0  0  0  0  0  0  0  0
   -3.0370    0.4230    0.1750 H   0  0  0  0  0  0  0  0  0  0  0  0
   -3.4170   -0.2930    1.7610 H   0  0  0  0  0  0  0  0  0  0  0  0
   -1.8280    2.3470    1.3950 H   0  0  0  0  0  0  0  0  0  0  0  0
   -2.4780    1.6320    2.8810 H   0  0  0  0  0  0  0  0  0  0  0  0
   -5.9290    2.1060    0.8770 H   0  0  0  0  0  0  0  0  0  0  0  0
   -2.0950   -1.6760   -2.4360 C   0  0  0  0  0  0  0  0  0  0  0  0
   -1.8640   -3.1400   -2.5650 C   0  0  0  0  0  0  0  0  0  0  0  0
   -3.1410   -3.8460   -2.1640 C   0  0  0  0  0  0  0  0  0  0  0  0
   -0.6530   -3.6900   -1.9240 C   0  0  0  0  0  0  0  0  0  0  0  0
   -0.5130   -3.5330   -0.4540 C   0  0  2  0  0  0  0  0  0  0  0  0
   -0.4970   -2.1650   -0.0430 N   0  0  0  0  0  0  0  0  0  0  0  0
    0.7380   -4.2810   -0.0670 C   0  0  0  0  0  0  0  0  0  0  0  0
    1.6870   -3.7510    0.5560 O   0  0  0  0  0  0  0  0  0  0  0  0
    0.8710   -5.6200   -0.4040 O   0  0  0  0  0  0  0  0  0  0  0  0
   -2.6930   -1.3700   -1.5540 H   0  0  0  0  0  0  0  0  0  0  0  0
   -2.6890   -1.2610   -3.3080 H   0  0  0  0  0  0  0  0  0  0  0  0
   -1.0950   -1.1600   -2.4830 H   0  0  0  0  0  0  0  0  0  0  0  0
   -1.7620   -3.3440   -3.6740 H   0  0  0  0  0  0  0  0  0  0  0  0
   -3.2080   -4.0010   -1.0720 H   0  0  0  0  0  0  0  0  0  0  0  0
   -3.2420   -4.7690   -2.7440 H   0  0  0  0  0  0  0  0  0  0  0  0
   -3.9890   -3.1860   -2.4470 H   0  0  0  0  0  0  0  0  0  0  0  0
   -0.5690   -4.7650   -2.2230 H   0  0  0  0  0  0  0  0  0  0  0  0
    0.2310   -3.1590   -2.3850 H   0  0  0  0  0  0  0  0  0  0  0  0
   -1.3130   -4.0540    0.1240 H   0  0  0  0  0  0  0  0  0  0  0  0
    0.1640   -1.4960   -0.4950 H   0  0  0  0  0  0  0  0  0  0  0  0
  1 13  1  0  0  0  0
  1 12  1  0  0  0  0
  2 14  1  6  0  0  0
  2 10  1  0  0  0  0
  2  1  1  0  0  0  0
  3  2  1  0  0  0  0
  3  4  1  0  0  0  0
  4  5  2  0  0  0  0
  4  9  1  0  0  0  0
  5  6  1  0  0  0  0
  6 18  1  0  0  0  0
  6  7  2  0  0  0  0
  7 19  1  0  0  0  0
  8  7  1  0  0  0  0
  8 20  1  0  0  0  0
  9  8  2  0  0  0  0
 10 11  2  0  0  0  0
 15  3  1  0  0  0  0
 16  3  1  0  0  0  0
 17  5  1  0  0  0  0
 21  9  1  0  0  0  0
 22 23  1  0  0  0  0
 22 10  1  0  0  0  0
 23 32  1  1  0  0  0
 24 23  1  0  0  0  0
 24 34  1  0  0  0  0
 24 25  1  0  0  0  0
 25 36  1  0  0  0  0
 26 25  1  0  0  0  0
 26 27  2  0  0  0  0
 28 23  1  0  0  0  0
 28 29  2  0  0  0  0
 30 26  1  0  0  0  0
 31 22  1  0  0  0  0
 33 24  1  0  0  0  0
 35 25  1  0  0  0  0
 37 30  1  0  0  0  0
 38 47  1  0  0  0  0
 39 38  1  0  0  0  0
 39 40  1  0  0  0  0
 39 41  1  0  0  0  0
 40 51  1  0  0  0  0
 41 42  1  0  0  0  0
 42 44  1  0  0  0  0
 42 43  1  0  0  0  0
 42 56  1  1  0  0  0
 43 28  1  0  0  0  0
 44 45  1  0  0  0  0
 46 44  2  0  0  0  0
 48 38  1  0  0  0  0
 49 38  1  0  0  0  0
 50 39  1  0  0  0  0
 52 40  1  0  0  0  0
 53 40  1  0  0  0  0
 54 41  1  0  0  0  0
 55 41  1  0  0  0  0
 57 43  1  0  0  0  0
M  END
$$$$
