FEM.pdb
 OpenBabel07022418583D

 55 55  0  0  1  0  0  0  0  0999 V2000
    2.0710   -1.4470    1.4630 N   0  0  0  0  0  0  0  0  0  0  0  0
    2.8460   -0.4850    0.6920 C   0  0  1  0  0  0  0  0  0  0  0  0
    3.5620   -1.2590   -0.4330 C   0  0  0  0  0  0  0  0  0  0  0  0
    4.4480   -2.2820    0.0990 C   0  0  0  0  0  0  0  0  0  0  0  0
    5.7790   -2.0580    0.3000 C   0  0  0  0  0  0  0  0  0  0  0  0
    6.6370   -3.0100    0.8330 C   0  0  0  0  0  0  0  0  0  0  0  0
    6.1450   -4.2590    1.1870 C   0  0  0  0  0  0  0  0  0  0  0  0
    4.8050   -4.4960    0.9880 C   0  0  0  0  0  0  0  0  0  0  0  0
    3.9620   -3.5480    0.4590 C   0  0  0  0  0  0  0  0  0  0  0  0
    1.9160    0.4100   -0.0490 C   0  0  0  0  0  0  0  0  0  0  0  0
    2.3870    1.4150   -0.6290 O   0  0  0  0  0  0  0  0  0  0  0  0
    2.6940   -2.0280    2.0740 H   0  0  0  0  0  0  0  0  0  0  0  0
    1.3580   -0.9320    2.0320 H   0  0  0  0  0  0  0  0  0  0  0  0
    3.5460    0.0130    1.3430 H   0  0  0  0  0  0  0  0  0  0  0  0
    4.0910   -0.4630   -1.0140 H   0  0  0  0  0  0  0  0  0  0  0  0
    2.7640   -1.6350   -1.0920 H   0  0  0  0  0  0  0  0  0  0  0  0
    6.2250   -1.0950    0.0410 H   0  0  0  0  0  0  0  0  0  0  0  0
    7.6890   -2.8350    0.9940 H   0  0  0  0  0  0  0  0  0  0  0  0
    6.8190   -5.0190    1.6120 H   0  0  0  0  0  0  0  0  0  0  0  0
    4.4390   -5.4770    1.2700 H   0  0  0  0  0  0  0  0  0  0  0  0
    2.9180   -3.7850    0.3230 H   0  0  0  0  0  0  0  0  0  0  0  0
    0.5160    0.1690   -0.1260 N   0  0  0  0  0  0  0  0  0  0  0  0
   -0.4110    1.0520   -0.8600 C   0  0  1  0  0  0  0  0  0  0  0  0
   -0.5540    0.5540   -2.2590 C   0  0  0  0  0  0  0  0  0  0  0  0
   -1.4860    1.2590   -3.1770 C   0  0  0  0  0  0  0  0  0  0  0  0
   -2.9060    1.1080   -2.7860 C   0  0  0  0  0  0  0  0  0  0  0  0
   -3.8000    1.9530   -3.1200 O   0  0  0  0  0  0  0  0  0  0  0  0
   -1.5760    1.4140   -0.1020 C   0  0  0  0  0  0  0  0  0  0  0  0
   -2.3280    2.3570   -0.4890 O   0  0  0  0  0  0  0  0  0  0  0  0
   -3.3760    0.0180   -2.0220 O   0  0  0  0  0  0  0  0  0  0  0  0
    0.1810   -0.6830    0.3860 H   0  0  0  0  0  0  0  0  0  0  0  0
    0.2300    1.9950   -0.9770 H   0  0  0  0  0  0  0  0  0  0  0  0
    0.4540    0.5060   -2.7750 H   0  0  0  0  0  0  0  0  0  0  0  0
   -0.8790   -0.5310   -2.2870 H   0  0  0  0  0  0  0  0  0  0  0  0
   -1.2860    2.3570   -3.2420 H   0  0  0  0  0  0  0  0  0  0  0  0
   -1.4000    0.8040   -4.1930 H   0  0  0  0  0  0  0  0  0  0  0  0
   -4.2520   -0.4340   -2.2530 H   0  0  0  0  0  0  0  0  0  0  0  0
   -4.8840   -3.2280    0.9720 C   0  0  0  0  0  0  0  0  0  0  0  0
   -4.6400   -2.5530    2.6460 S   0  0  0  0  0  0  0  0  0  0  0  0
   -3.5050   -1.1240    2.5830 C   0  0  0  0  0  0  0  0  0  0  0  0
   -4.1830    0.0120    1.8360 C   0  0  0  0  0  0  0  0  0  0  0  0
   -3.1880    1.1920    1.7980 C   0  0  2  0  0  0  0  0  0  0  0  0
   -1.9910    0.7820    1.1010 N   0  0  0  0  0  0  0  0  0  0  0  0
   -2.8470    1.5960    3.1840 C   0  0  0  0  0  0  0  0  0  0  0  0
   -1.6700    1.5550    3.5650 O   0  0  0  0  0  0  0  0  0  0  0  0
   -3.8410    2.0160    4.0490 O   0  0  0  0  0  0  0  0  0  0  0  0
   -5.5360   -2.6070    0.3490 H   0  0  0  0  0  0  0  0  0  0  0  0
   -3.8970   -3.3400    0.4500 H   0  0  0  0  0  0  0  0  0  0  0  0
   -5.2920   -4.2570    1.0120 H   0  0  0  0  0  0  0  0  0  0  0  0
   -2.6660   -1.4630    1.9230 H   0  0  0  0  0  0  0  0  0  0  0  0
   -3.1810   -0.8360    3.5960 H   0  0  0  0  0  0  0  0  0  0  0  0
   -4.2910   -0.3670    0.7860 H   0  0  0  0  0  0  0  0  0  0  0  0
   -5.1510    0.3010    2.2290 H   0  0  0  0  0  0  0  0  0  0  0  0
   -3.6490    2.0630    1.3010 H   0  0  0  0  0  0  0  0  0  0  0  0
   -1.4110    0.0180    1.4710 H   0  0  0  0  0  0  0  0  0  0  0  0
  1 13  1  0  0  0  0
  1 12  1  0  0  0  0
  2 14  1  1  0  0  0
  2  1  1  0  0  0  0
  3  4  1  0  0  0  0
  3  2  1  0  0  0  0
  4  5  2  0  0  0  0
  4  9  1  0  0  0  0
  5  6  1  0  0  0  0
  6 18  1  0  0  0  0
  6  7  2  0  0  0  0
  7 19  1  0  0  0  0
  8  7  1  0  0  0  0
  8 20  1  0  0  0  0
  9  8  2  0  0  0  0
 10  2  1  0  0  0  0
 11 10  2  0  0  0  0
 15  3  1  0  0  0  0
 16  3  1  0  0  0  0
 17  5  1  0  0  0  0
 21  9  1  0  0  0  0
 22 10  1  0  0  0  0
 22 31  1  0  0  0  0
 23 32  1  6  0  0  0
 23 22  1  0  0  0  0
 23 28  1  0  0  0  0
 24 23  1  0  0  0  0
 25 26  1  0  0  0  0
 25 24  1  0  0  0  0
 26 30  1  0  0  0  0
 27 26  2  0  0  0  0
 28 43  1  0  0  0  0
 29 28  2  0  0  0  0
 33 24  1  0  0  0  0
 34 24  1  0  0  0  0
 35 25  1  0  0  0  0
 36 25  1  0  0  0  0
 37 30  1  0  0  0  0
 38 49  1  0  0  0  0
 38 39  1  0  0  0  0
 40 39  1  0  0  0  0
 40 51  1  0  0  0  0
 41 53  1  0  0  0  0
 41 40  1  0  0  0  0
 42 54  1  6  0  0  0
 42 41  1  0  0  0  0
 42 44  1  0  0  0  0
 43 55  1  0  0  0  0
 43 42  1  0  0  0  0
 44 45  2  0  0  0  0
 44 46  1  0  0  0  0
 47 38  1  0  0  0  0
 48 38  1  0  0  0  0
 50 40  1  0  0  0  0
 52 41  1  0  0  0  0
M  END
$$$$
