FEN.pdb
 OpenBabel07022418583D

 52 52  0  0  1  0  0  0  0  0999 V2000
    0.3820    0.9000   -2.7260 N   0  0  0  0  0  0  0  0  0  0  0  0
    1.4540   -0.0490   -2.4970 C   0  0  1  0  0  0  0  0  0  0  0  0
    2.7490    0.7380   -2.4370 C   0  0  0  0  0  0  0  0  0  0  0  0
    2.7620    1.7530   -1.3510 C   0  0  0  0  0  0  0  0  0  0  0  0
    3.2100    1.4650   -0.0810 C   0  0  0  0  0  0  0  0  0  0  0  0
    3.2020    2.4480    0.8790 C   0  0  0  0  0  0  0  0  0  0  0  0
    2.7550    3.7230    0.6040 C   0  0  0  0  0  0  0  0  0  0  0  0
    2.3160    3.9750   -0.6770 C   0  0  0  0  0  0  0  0  0  0  0  0
    2.3030    3.0270   -1.6730 C   0  0  0  0  0  0  0  0  0  0  0  0
    1.2890   -0.7570   -1.1940 C   0  0  0  0  0  0  0  0  0  0  0  0
    2.1330   -1.6610   -0.8570 O   0  0  0  0  0  0  0  0  0  0  0  0
    0.3210    1.6360   -2.0140 H   0  0  0  0  0  0  0  0  0  0  0  0
   -0.5350    0.4250   -2.8930 H   0  0  0  0  0  0  0  0  0  0  0  0
    1.4930   -0.8050   -3.3160 H   0  0  0  0  0  0  0  0  0  0  0  0
    2.9150    1.2630   -3.4150 H   0  0  0  0  0  0  0  0  0  0  0  0
    3.6320    0.0620   -2.3250 H   0  0  0  0  0  0  0  0  0  0  0  0
    3.5560    0.4610    0.1060 H   0  0  0  0  0  0  0  0  0  0  0  0
    3.5490    2.2430    1.8850 H   0  0  0  0  0  0  0  0  0  0  0  0
    2.7330    4.5210    1.3270 H   0  0  0  0  0  0  0  0  0  0  0  0
    1.9560    4.9800   -0.9190 H   0  0  0  0  0  0  0  0  0  0  0  0
    1.9460    3.2660   -2.6830 H   0  0  0  0  0  0  0  0  0  0  0  0
    0.2020   -0.4190   -0.3500 N   0  0  0  0  0  0  0  0  0  0  0  0
    0.0080   -1.0860    0.9240 C   0  0  1  0  0  0  0  0  0  0  0  0
    0.2970   -0.2280    2.0880 C   0  0  0  0  0  0  0  0  0  0  0  0
   -0.3990    1.0430    2.2790 C   0  0  0  0  0  0  0  0  0  0  0  0
   -1.8460    0.9980    2.4220 C   0  0  0  0  0  0  0  0  0  0  0  0
   -2.4980   -0.0480    2.4010 O   0  0  0  0  0  0  0  0  0  0  0  0
   -1.1760   -1.9420    0.9500 C   0  0  0  0  0  0  0  0  0  0  0  0
   -2.0100   -1.9280   -0.0040 O   0  0  0  0  0  0  0  0  0  0  0  0
   -2.6010    2.1760    2.5950 O   0  0  0  0  0  0  0  0  0  0  0  0
   -0.4510    0.3230   -0.6780 H   0  0  0  0  0  0  0  0  0  0  0  0
    0.8710   -1.8750    0.9690 H   0  0  0  0  0  0  0  0  0  0  0  0
    1.4120    0.0050    2.1440 H   0  0  0  0  0  0  0  0  0  0  0  0
    0.1830   -0.8900    3.0080 H   0  0  0  0  0  0  0  0  0  0  0  0
   -0.1790    1.8110    1.4900 H   0  0  0  0  0  0  0  0  0  0  0  0
   -0.0290    1.5840    3.2220 H   0  0  0  0  0  0  0  0  0  0  0  0
   -3.6050    2.1550    2.4760 H   0  0  0  0  0  0  0  0  0  0  0  0
   -2.2700   -5.8910   -0.3760 N   0  0  0  0  0  0  0  0  0  0  0  0
   -1.5130   -5.3840    0.7300 C   0  0  0  0  0  0  0  0  0  0  0  0
   -0.2880   -5.1590    0.5440 O   0  0  0  0  0  0  0  0  0  0  0  0
   -2.2160   -5.1600    2.0050 C   0  0  0  0  0  0  0  0  0  0  0  0
   -2.5920   -3.6920    2.1010 C   0  0  2  0  0  0  0  0  0  0  0  0
   -1.4350   -2.8370    2.0570 N   0  0  0  0  0  0  0  0  0  0  0  0
   -3.4570   -3.4580    3.2720 C   0  0  0  0  0  0  0  0  0  0  0  0
   -4.4990   -4.1180    3.4450 O   0  0  0  0  0  0  0  0  0  0  0  0
   -3.1050   -2.4930    4.1880 O   0  0  0  0  0  0  0  0  0  0  0  0
   -2.9520   -6.6840   -0.2430 H   0  0  0  0  0  0  0  0  0  0  0  0
   -2.1770   -5.5060   -1.3210 H   0  0  0  0  0  0  0  0  0  0  0  0
   -1.6070   -5.4820    2.8750 H   0  0  0  0  0  0  0  0  0  0  0  0
   -3.1560   -5.7440    2.0000 H   0  0  0  0  0  0  0  0  0  0  0  0
   -3.2030   -3.4510    1.1860 H   0  0  0  0  0  0  0  0  0  0  0  0
   -0.7080   -2.8010    2.8070 H   0  0  0  0  0  0  0  0  0  0  0  0
  1  2  1  0  0  0  0
  1 12  1  0  0  0  0
  2 14  1  6  0  0  0
  2  3  1  0  0  0  0
  2 10  1  0  0  0  0
  3 16  1  0  0  0  0
  3  4  1  0  0  0  0
  4  5  1  0  0  0  0
  5 17  1  0  0  0  0
  5  6  2  0  0  0  0
  6 18  1  0  0  0  0
  7  6  1  0  0  0  0
  7 19  1  0  0  0  0
  8  7  2  0  0  0  0
  9  4  2  0  0  0  0
  9  8  1  0  0  0  0
 10 11  2  0  0  0  0
 10 22  1  0  0  0  0
 13  1  1  0  0  0  0
 15  3  1  0  0  0  0
 20  8  1  0  0  0  0
 21  9  1  0  0  0  0
 22 23  1  0  0  0  0
 23 28  1  0  0  0  0
 23 32  1  1  0  0  0
 23 24  1  0  0  0  0
 24 33  1  0  0  0  0
 24 25  1  0  0  0  0
 24 34  1  0  0  0  0
 25 26  1  0  0  0  0
 25 36  1  0  0  0  0
 26 30  1  0  0  0  0
 27 26  2  0  0  0  0
 28 43  1  0  0  0  0
 29 28  2  0  0  0  0
 31 22  1  0  0  0  0
 35 25  1  0  0  0  0
 37 30  1  0  0  0  0
 38 47  1  0  0  0  0
 38 39  1  0  0  0  0
 39 41  1  0  0  0  0
 40 39  2  0  0  0  0
 41 42  1  0  0  0  0
 41 49  1  0  0  0  0
 42 51  1  6  0  0  0
 42 44  1  0  0  0  0
 43 42  1  0  0  0  0
 43 52  1  0  0  0  0
 44 45  2  0  0  0  0
 44 46  1  0  0  0  0
 48 38  1  0  0  0  0
 50 41  1  0  0  0  0
M  END
$$$$
