FET.pdb
 OpenBabel07022418583D

 52 52  0  0  1  0  0  0  0  0999 V2000
    0.0230    2.8630    1.9190 N   0  0  0  0  0  0  0  0  0  0  0  0
    0.8990    2.7680    0.7930 C   0  0  1  0  0  0  0  0  0  0  0  0
    2.2890    3.0900    1.2280 C   0  0  0  0  0  0  0  0  0  0  0  0
    2.8220    2.1890    2.2800 C   0  0  0  0  0  0  0  0  0  0  0  0
    3.5040    1.0480    1.9280 C   0  0  0  0  0  0  0  0  0  0  0  0
    3.9980    0.2140    2.9080 C   0  0  0  0  0  0  0  0  0  0  0  0
    3.8410    0.4700    4.2570 C   0  0  0  0  0  0  0  0  0  0  0  0
    3.1560    1.6170    4.5740 C   0  0  0  0  0  0  0  0  0  0  0  0
    2.6510    2.4690    3.6160 C   0  0  0  0  0  0  0  0  0  0  0  0
    0.8450    1.4160    0.1520 C   0  0  0  0  0  0  0  0  0  0  0  0
    1.5500    1.1360   -0.8530 O   0  0  0  0  0  0  0  0  0  0  0  0
   -0.9640    3.0130    1.7070 H   0  0  0  0  0  0  0  0  0  0  0  0
    0.2590    2.2650    2.7080 H   0  0  0  0  0  0  0  0  0  0  0  0
    0.6390    3.4840   -0.0180 H   0  0  0  0  0  0  0  0  0  0  0  0
    3.0210    3.1390    0.3990 H   0  0  0  0  0  0  0  0  0  0  0  0
    2.2700    4.1120    1.6750 H   0  0  0  0  0  0  0  0  0  0  0  0
    3.6640    0.7870    0.8660 H   0  0  0  0  0  0  0  0  0  0  0  0
    4.5400   -0.6940    2.6310 H   0  0  0  0  0  0  0  0  0  0  0  0
    4.2430   -0.2090    5.0150 H   0  0  0  0  0  0  0  0  0  0  0  0
    3.0000    1.8720    5.6140 H   0  0  0  0  0  0  0  0  0  0  0  0
    2.1030    3.3850    3.9060 H   0  0  0  0  0  0  0  0  0  0  0  0
   -0.0080    0.4050    0.6600 N   0  0  0  0  0  0  0  0  0  0  0  0
   -0.0810   -0.8980    0.0670 C   0  0  1  0  0  0  0  0  0  0  0  0
    0.5140   -1.8810    1.0260 C   0  0  0  0  0  0  0  0  0  0  0  0
   -0.0410   -1.9830    2.3800 C   0  0  0  0  0  0  0  0  0  0  0  0
   -1.4150   -2.3880    2.6020 C   0  0  0  0  0  0  0  0  0  0  0  0
   -2.2250   -2.7440    1.7470 O   0  0  0  0  0  0  0  0  0  0  0  0
   -1.3830   -1.2900   -0.4690 C   0  0  0  0  0  0  0  0  0  0  0  0
   -2.4370   -0.6010   -0.3530 O   0  0  0  0  0  0  0  0  0  0  0  0
   -1.9350   -2.3920    3.9300 O   0  0  0  0  0  0  0  0  0  0  0  0
   -0.6110    0.6180    1.5060 H   0  0  0  0  0  0  0  0  0  0  0  0
    0.6740   -0.8850   -0.8040 H   0  0  0  0  0  0  0  0  0  0  0  0
    0.3540   -2.8980    0.5280 H   0  0  0  0  0  0  0  0  0  0  0  0
    1.6280   -1.7470    1.0870 H   0  0  0  0  0  0  0  0  0  0  0  0
    0.6070   -2.7470    2.9300 H   0  0  0  0  0  0  0  0  0  0  0  0
    0.1390   -1.0470    2.9940 H   0  0  0  0  0  0  0  0  0  0  0  0
   -2.9370   -2.3090    4.0700 H   0  0  0  0  0  0  0  0  0  0  0  0
   -2.6270   -1.5660   -3.7930 C   0  0  0  0  0  0  0  0  0  0  0  0
   -2.7760   -2.9620   -3.2440 C   0  0  1  0  0  0  0  0  0  0  0  0
   -1.8460   -3.8320   -3.7550 O   0  0  0  0  0  0  0  0  0  0  0  0
   -2.7840   -2.9310   -1.7280 C   0  0  2  0  0  0  0  0  0  0  0  0
   -1.5180   -2.5250   -1.1850 N   0  0  0  0  0  0  0  0  0  0  0  0
   -3.1230   -4.2820   -1.2300 C   0  0  0  0  0  0  0  0  0  0  0  0
   -2.3140   -4.8680   -0.4740 O   0  0  0  0  0  0  0  0  0  0  0  0
   -4.2970   -4.9520   -1.5530 O   0  0  0  0  0  0  0  0  0  0  0  0
   -3.0150   -1.4840   -4.8360 H   0  0  0  0  0  0  0  0  0  0  0  0
   -3.2240   -0.8470   -3.1950 H   0  0  0  0  0  0  0  0  0  0  0  0
   -1.5570   -1.2950   -3.7920 H   0  0  0  0  0  0  0  0  0  0  0  0
   -3.7870   -3.3130   -3.5530 H   0  0  0  0  0  0  0  0  0  0  0  0
   -2.2400   -4.5030   -4.3680 H   0  0  0  0  0  0  0  0  0  0  0  0
   -3.6110   -2.2500   -1.4540 H   0  0  0  0  0  0  0  0  0  0  0  0
   -0.6560   -3.1010   -1.2860 H   0  0  0  0  0  0  0  0  0  0  0  0
  1 13  1  0  0  0  0
  2 14  1  6  0  0  0
  2  3  1  0  0  0  0
  2  1  1  0  0  0  0
  3 16  1  0  0  0  0
  3  4  1  0  0  0  0
  4  9  1  0  0  0  0
  5  4  2  0  0  0  0
  5  6  1  0  0  0  0
  6  7  2  0  0  0  0
  7  8  1  0  0  0  0
  7 19  1  0  0  0  0
  8 20  1  0  0  0  0
  9 21  1  0  0  0  0
  9  8  2  0  0  0  0
 10 22  1  0  0  0  0
 10  2  1  0  0  0  0
 11 10  2  0  0  0  0
 12  1  1  0  0  0  0
 15  3  1  0  0  0  0
 17  5  1  0  0  0  0
 18  6  1  0  0  0  0
 22 31  1  0  0  0  0
 23 32  1  6  0  0  0
 23 22  1  0  0  0  0
 23 24  1  0  0  0  0
 24 34  1  0  0  0  0
 24 25  1  0  0  0  0
 25 26  1  0  0  0  0
 25 35  1  0  0  0  0
 25 36  1  0  0  0  0
 26 30  1  0  0  0  0
 27 26  2  0  0  0  0
 28 29  2  0  0  0  0
 28 23  1  0  0  0  0
 30 37  1  0  0  0  0
 33 24  1  0  0  0  0
 38 48  1  0  0  0  0
 38 39  1  0  0  0  0
 38 47  1  0  0  0  0
 39 49  1  6  0  0  0
 39 41  1  0  0  0  0
 40 39  1  0  0  0  0
 41 51  1  1  0  0  0
 41 43  1  0  0  0  0
 41 42  1  0  0  0  0
 42 28  1  0  0  0  0
 43 44  1  0  0  0  0
 45 43  2  0  0  0  0
 46 38  1  0  0  0  0
 50 40  1  0  0  0  0
 52 42  1  0  0  0  0
M  END
$$$$
