FEV.pdb
 OpenBabel07022418583D

 54 54  0  0  1  0  0  0  0  0999 V2000
    1.0830    0.6380    3.7880 N   0  0  0  0  0  0  0  0  0  0  0  0
    0.3800    1.6470    3.0220 C   0  0  1  0  0  0  0  0  0  0  0  0
    1.2030    2.8920    2.8580 C   0  0  0  0  0  0  0  0  0  0  0  0
    2.4880    2.6480    2.1570 C   0  0  0  0  0  0  0  0  0  0  0  0
    2.6100    2.7380    0.7890 C   0  0  0  0  0  0  0  0  0  0  0  0
    3.8010    2.5110    0.1410 C   0  0  0  0  0  0  0  0  0  0  0  0
    4.9140    2.1820    0.8820 C   0  0  0  0  0  0  0  0  0  0  0  0
    4.7870    2.0930    2.2550 C   0  0  0  0  0  0  0  0  0  0  0  0
    3.6020    2.3190    2.9000 C   0  0  0  0  0  0  0  0  0  0  0  0
   -0.0960    1.0580    1.7630 C   0  0  0  0  0  0  0  0  0  0  0  0
   -0.7540    1.6880    0.8950 O   0  0  0  0  0  0  0  0  0  0  0  0
    0.4780   -0.1460    4.0630 H   0  0  0  0  0  0  0  0  0  0  0  0
    1.9220    0.3360    3.2810 H   0  0  0  0  0  0  0  0  0  0  0  0
   -0.5000    1.9480    3.6630 H   0  0  0  0  0  0  0  0  0  0  0  0
    0.6020    3.6070    2.2420 H   0  0  0  0  0  0  0  0  0  0  0  0
    1.3490    3.3200    3.8730 H   0  0  0  0  0  0  0  0  0  0  0  0
    1.7330    2.9980    0.1900 H   0  0  0  0  0  0  0  0  0  0  0  0
    3.8960    2.5800   -0.9170 H   0  0  0  0  0  0  0  0  0  0  0  0
    5.8780    1.9950    0.3970 H   0  0  0  0  0  0  0  0  0  0  0  0
    5.6560    1.8330    2.8690 H   0  0  0  0  0  0  0  0  0  0  0  0
    3.5020    2.2480    3.9900 H   0  0  0  0  0  0  0  0  0  0  0  0
    0.1750   -0.2890    1.4610 N   0  0  0  0  0  0  0  0  0  0  0  0
   -0.2300   -0.9860    0.2750 C   0  0  1  0  0  0  0  0  0  0  0  0
    0.8340   -1.5760   -0.5420 C   0  0  0  0  0  0  0  0  0  0  0  0
    1.8250   -0.5810   -1.0530 C   0  0  0  0  0  0  0  0  0  0  0  0
    1.1990    0.4020   -1.9500 C   0  0  0  0  0  0  0  0  0  0  0  0
    0.0070    0.3340   -2.2950 O   0  0  0  0  0  0  0  0  0  0  0  0
   -1.2430   -2.0140    0.7280 C   0  0  0  0  0  0  0  0  0  0  0  0
   -1.5820   -2.1370    1.9290 O   0  0  0  0  0  0  0  0  0  0  0  0
    1.9180    1.4910   -2.4780 O   0  0  0  0  0  0  0  0  0  0  0  0
    0.7300   -0.8730    2.1550 H   0  0  0  0  0  0  0  0  0  0  0  0
   -0.8190   -0.2790   -0.3280 H   0  0  0  0  0  0  0  0  0  0  0  0
    1.3070   -2.4920   -0.1280 H   0  0  0  0  0  0  0  0  0  0  0  0
    0.3240   -1.9720   -1.4780 H   0  0  0  0  0  0  0  0  0  0  0  0
    2.3960   -0.0840   -0.2350 H   0  0  0  0  0  0  0  0  0  0  0  0
    2.5770   -1.1380   -1.6960 H   0  0  0  0  0  0  0  0  0  0  0  0
    1.4970    2.1590   -3.1110 H   0  0  0  0  0  0  0  0  0  0  0  0
   -4.6500   -2.2310   -0.0200 C   0  0  0  0  0  0  0  0  0  0  0  0
   -4.1600   -3.5840   -0.4700 C   0  0  0  0  0  0  0  0  0  0  0  0
   -4.1080   -3.5870   -1.9680 C   0  0  0  0  0  0  0  0  0  0  0  0
   -2.8360   -3.9030    0.1790 C   0  0  2  0  0  0  0  0  0  0  0  0
   -1.8640   -2.9000   -0.1960 N   0  0  0  0  0  0  0  0  0  0  0  0
   -2.3690   -5.2700   -0.1710 C   0  0  0  0  0  0  0  0  0  0  0  0
   -1.2620   -5.4670   -0.7210 O   0  0  0  0  0  0  0  0  0  0  0  0
   -3.1340   -6.4000    0.0940 O   0  0  0  0  0  0  0  0  0  0  0  0
   -4.1350   -1.9150    0.9280 H   0  0  0  0  0  0  0  0  0  0  0  0
   -5.7460   -2.2390    0.1610 H   0  0  0  0  0  0  0  0  0  0  0  0
   -4.4580   -1.4430   -0.7630 H   0  0  0  0  0  0  0  0  0  0  0  0
   -4.8800   -4.3700   -0.1420 H   0  0  0  0  0  0  0  0  0  0  0  0
   -3.5200   -4.4160   -2.4000 H   0  0  0  0  0  0  0  0  0  0  0  0
   -3.7740   -2.5850   -2.3630 H   0  0  0  0  0  0  0  0  0  0  0  0
   -5.1580   -3.6900   -2.3310 H   0  0  0  0  0  0  0  0  0  0  0  0
   -3.0230   -3.8990    1.2800 H   0  0  0  0  0  0  0  0  0  0  0  0
   -1.5880   -2.8030   -1.1960 H   0  0  0  0  0  0  0  0  0  0  0  0
  1 12  1  0  0  0  0
  2 14  1  1  0  0  0
  2  1  1  0  0  0  0
  3  2  1  0  0  0  0
  3 16  1  0  0  0  0
  4  3  1  0  0  0  0
  4  9  1  0  0  0  0
  5  4  2  0  0  0  0
  6  5  1  0  0  0  0
  6  7  2  0  0  0  0
  7  8  1  0  0  0  0
  8 20  1  0  0  0  0
  8  9  2  0  0  0  0
  9 21  1  0  0  0  0
 10  2  1  0  0  0  0
 11 10  2  0  0  0  0
 13  1  1  0  0  0  0
 15  3  1  0  0  0  0
 17  5  1  0  0  0  0
 18  6  1  0  0  0  0
 19  7  1  0  0  0  0
 22 10  1  0  0  0  0
 22 31  1  0  0  0  0
 23 32  1  6  0  0  0
 23 28  1  0  0  0  0
 23 22  1  0  0  0  0
 24 33  1  0  0  0  0
 24 23  1  0  0  0  0
 25 24  1  0  0  0  0
 25 35  1  0  0  0  0
 26 25  1  0  0  0  0
 27 26  2  0  0  0  0
 28 29  2  0  0  0  0
 30 26  1  0  0  0  0
 34 24  1  0  0  0  0
 36 25  1  0  0  0  0
 37 30  1  0  0  0  0
 38 47  1  0  0  0  0
 38 46  1  0  0  0  0
 39 49  1  0  0  0  0
 39 38  1  0  0  0  0
 39 41  1  0  0  0  0
 40 39  1  0  0  0  0
 41 53  1  1  0  0  0
 42 41  1  0  0  0  0
 42 28  1  0  0  0  0
 43 45  1  0  0  0  0
 43 41  1  0  0  0  0
 44 43  2  0  0  0  0
 48 38  1  0  0  0  0
 50 40  1  0  0  0  0
 51 40  1  0  0  0  0
 52 40  1  0  0  0  0
 54 42  1  0  0  0  0
M  END
$$$$
