FEW.pdb
 OpenBabel07022418583D

 62 64  0  0  1  0  0  0  0  0999 V2000
    2.9000   -2.8370    1.1440 N   0  0  0  0  0  0  0  0  0  0  0  0
    2.3810   -1.8190    2.0750 C   0  0  1  0  0  0  0  0  0  0  0  0
    3.5940   -1.0010    2.4990 C   0  0  0  0  0  0  0  0  0  0  0  0
    3.2830    0.0800    3.4350 C   0  0  0  0  0  0  0  0  0  0  0  0
    2.9880    1.3460    2.9780 C   0  0  0  0  0  0  0  0  0  0  0  0
    2.6870    2.3760    3.8490 C   0  0  0  0  0  0  0  0  0  0  0  0
    2.6740    2.1680    5.2090 C   0  0  0  0  0  0  0  0  0  0  0  0
    2.9670    0.9100    5.6730 C   0  0  0  0  0  0  0  0  0  0  0  0
    3.2660   -0.1170    4.8100 C   0  0  0  0  0  0  0  0  0  0  0  0
    1.4710   -0.9670    1.2810 C   0  0  0  0  0  0  0  0  0  0  0  0
    0.8410   -0.0710    1.9150 O   0  0  0  0  0  0  0  0  0  0  0  0
    3.2600   -3.6710    1.6610 H   0  0  0  0  0  0  0  0  0  0  0  0
    3.6870   -2.4580    0.5860 H   0  0  0  0  0  0  0  0  0  0  0  0
    1.8930   -2.3150    2.9130 H   0  0  0  0  0  0  0  0  0  0  0  0
    4.3380   -1.6750    2.9430 H   0  0  0  0  0  0  0  0  0  0  0  0
    4.0280   -0.5450    1.5810 H   0  0  0  0  0  0  0  0  0  0  0  0
    2.9760    1.6180    1.9200 H   0  0  0  0  0  0  0  0  0  0  0  0
    2.4520    3.3800    3.4830 H   0  0  0  0  0  0  0  0  0  0  0  0
    2.4330    2.9980    5.8800 H   0  0  0  0  0  0  0  0  0  0  0  0
    2.9600    0.7350    6.7330 H   0  0  0  0  0  0  0  0  0  0  0  0
    3.5010   -1.1160    5.1510 H   0  0  0  0  0  0  0  0  0  0  0  0
    1.2800   -1.1010   -0.1050 N   0  0  0  0  0  0  0  0  0  0  0  0
    0.3450   -0.2070   -0.8640 C   0  0  1  0  0  0  0  0  0  0  0  0
    1.1620    0.6370   -1.7520 C   0  0  0  0  0  0  0  0  0  0  0  0
    0.6020    1.6220   -2.6670 C   0  0  0  0  0  0  0  0  0  0  0  0
   -0.1950    1.1910   -3.8020 C   0  0  0  0  0  0  0  0  0  0  0  0
   -1.0090    1.9930   -4.3150 O   0  0  0  0  0  0  0  0  0  0  0  0
   -0.6880   -1.0000   -1.4830 C   0  0  0  0  0  0  0  0  0  0  0  0
   -0.4720   -2.2640   -1.5880 O   0  0  0  0  0  0  0  0  0  0  0  0
   -0.0830   -0.0730   -4.3390 O   0  0  0  0  0  0  0  0  0  0  0  0
    1.7980   -1.8370   -0.6230 H   0  0  0  0  0  0  0  0  0  0  0  0
   -0.1070    0.4420   -0.0440 H   0  0  0  0  0  0  0  0  0  0  0  0
    1.9060    0.0000   -2.3380 H   0  0  0  0  0  0  0  0  0  0  0  0
    1.8770    1.2090   -1.0640 H   0  0  0  0  0  0  0  0  0  0  0  0
    1.4850    2.2270   -3.0730 H   0  0  0  0  0  0  0  0  0  0  0  0
    0.0650    2.4320   -2.0620 H   0  0  0  0  0  0  0  0  0  0  0  0
   -0.4340   -0.3120   -5.2770 H   0  0  0  0  0  0  0  0  0  0  0  0
   -1.9520   -0.6020   -2.0000 N   0  0  0  0  0  0  0  0  0  0  0  0
   -2.8730   -1.5520   -2.5660 C   0  0  1  0  0  0  0  0  0  0  0  0
   -4.0760   -1.8180   -1.6410 C   0  0  0  0  0  0  0  0  0  0  0  0
   -3.6140   -2.3570   -0.3240 C   0  0  0  0  0  0  0  0  0  0  0  0
   -3.5740   -3.6750    0.0620 C   0  0  0  0  0  0  0  0  0  0  0  0
   -3.0790   -3.7780    1.2970 N   0  0  0  0  0  0  0  0  0  0  0  0
   -2.7920   -2.5370    1.7300 C   0  0  0  0  0  0  0  0  0  0  0  0
   -2.2710   -2.1240    2.9370 C   0  0  0  0  0  0  0  0  0  0  0  0
   -2.0650   -0.7820    3.1750 C   0  0  0  0  0  0  0  0  0  0  0  0
   -2.3870    0.1360    2.1910 C   0  0  0  0  0  0  0  0  0  0  0  0
   -2.9090   -0.3070    0.9860 C   0  0  0  0  0  0  0  0  0  0  0  0
   -3.1180   -1.6380    0.7360 C   0  0  0  0  0  0  0  0  0  0  0  0
   -3.4140   -1.2020   -3.8860 C   0  0  0  0  0  0  0  0  0  0  0  0
   -3.1410   -0.1470   -4.4890 O   0  0  0  0  0  0  0  0  0  0  0  0
   -4.2980   -2.0660   -4.5640 O   0  0  0  0  0  0  0  0  0  0  0  0
   -2.1810    0.4040   -1.9400 H   0  0  0  0  0  0  0  0  0  0  0  0
   -2.4010   -2.5730   -2.6520 H   0  0  0  0  0  0  0  0  0  0  0  0
   -4.6690   -0.8940   -1.5010 H   0  0  0  0  0  0  0  0  0  0  0  0
   -4.6610   -2.6190   -2.1260 H   0  0  0  0  0  0  0  0  0  0  0  0
   -3.8950   -4.4990   -0.5440 H   0  0  0  0  0  0  0  0  0  0  0  0
   -2.9310   -4.6560    1.8480 H   0  0  0  0  0  0  0  0  0  0  0  0
   -2.0060   -2.8260    3.7380 H   0  0  0  0  0  0  0  0  0  0  0  0
   -1.6510   -0.4460    4.1330 H   0  0  0  0  0  0  0  0  0  0  0  0
   -2.2100    1.1800    2.4160 H   0  0  0  0  0  0  0  0  0  0  0  0
   -3.1560    0.4350    0.2460 H   0  0  0  0  0  0  0  0  0  0  0  0
  1 12  1  0  0  0  0
  1  2  1  0  0  0  0
  2  3  1  0  0  0  0
  2 14  1  1  0  0  0
  3 15  1  0  0  0  0
  3  4  1  0  0  0  0
  4  9  1  0  0  0  0
  5  4  2  0  0  0  0
  5  6  1  0  0  0  0
  6  7  2  0  0  0  0
  7  8  1  0  0  0  0
  7 19  1  0  0  0  0
  8 20  1  0  0  0  0
  9 21  1  0  0  0  0
  9  8  2  0  0  0  0
 10 11  2  0  0  0  0
 10  2  1  0  0  0  0
 13  1  1  0  0  0  0
 16  3  1  0  0  0  0
 17  5  1  0  0  0  0
 18  6  1  0  0  0  0
 22 10  1  0  0  0  0
 23 22  1  0  0  0  0
 23 32  1  1  0  0  0
 24 34  1  0  0  0  0
 24 23  1  0  0  0  0
 25 36  1  0  0  0  0
 25 24  1  0  0  0  0
 26 25  1  0  0  0  0
 27 26  2  0  0  0  0
 28 23  1  0  0  0  0
 29 28  2  0  0  0  0
 30 26  1  0  0  0  0
 31 22  1  0  0  0  0
 33 24  1  0  0  0  0
 35 25  1  0  0  0  0
 37 30  1  0  0  0  0
 38 53  1  0  0  0  0
 38 28  1  0  0  0  0
 39 54  1  6  0  0  0
 39 38  1  0  0  0  0
 39 40  1  0  0  0  0
 40 55  1  0  0  0  0
 40 41  1  0  0  0  0
 41 42  2  0  0  0  0
 41 49  1  0  0  0  0
 42 43  1  0  0  0  0
 43 44  1  0  0  0  0
 43 58  1  0  0  0  0
 44 45  1  0  0  0  0
 45 46  2  0  0  0  0
 45 59  1  0  0  0  0
 46 60  1  0  0  0  0
 47 61  1  0  0  0  0
 47 46  1  0  0  0  0
 48 47  2  0  0  0  0
 49 48  1  0  0  0  0
 49 44  2  0  0  0  0
 50 39  1  0  0  0  0
 51 50  1  0  0  0  0
 52 50  2  0  0  0  0
 56 40  1  0  0  0  0
 57 42  1  0  0  0  0
 62 48  1  0  0  0  0
M  END
$$$$
