FEY.pdb
 OpenBabel07022418583D

 59 60  0  0  1  0  0  0  0  0999 V2000
    4.6330   -0.4810    0.9700 N   0  0  0  0  0  0  0  0  0  0  0  0
    3.4740   -1.2500    0.5490 C   0  0  1  0  0  0  0  0  0  0  0  0
    2.7580   -1.8170    1.7850 C   0  0  0  0  0  0  0  0  0  0  0  0
    2.3430   -0.6740    2.6650 C   0  0  0  0  0  0  0  0  0  0  0  0
    3.1740   -0.2310    3.6880 C   0  0  0  0  0  0  0  0  0  0  0  0
    2.8110    0.8330    4.4810 C   0  0  0  0  0  0  0  0  0  0  0  0
    1.6240    1.5070    4.3080 C   0  0  0  0  0  0  0  0  0  0  0  0
    0.7990    1.0650    3.2900 C   0  0  0  0  0  0  0  0  0  0  0  0
    1.1580   -0.0110    2.4830 C   0  0  0  0  0  0  0  0  0  0  0  0
    2.5270   -0.3690   -0.2060 C   0  0  0  0  0  0  0  0  0  0  0  0
    2.6280    0.8830   -0.1760 O   0  0  0  0  0  0  0  0  0  0  0  0
    5.2440   -0.9880    1.6140 H   0  0  0  0  0  0  0  0  0  0  0  0
    4.2990    0.4480    1.3650 H   0  0  0  0  0  0  0  0  0  0  0  0
    3.8420   -2.0950   -0.0590 H   0  0  0  0  0  0  0  0  0  0  0  0
    3.4070   -2.4660    2.3750 H   0  0  0  0  0  0  0  0  0  0  0  0
    1.8660   -2.3570    1.4650 H   0  0  0  0  0  0  0  0  0  0  0  0
    4.1090   -0.7800    3.8070 H   0  0  0  0  0  0  0  0  0  0  0  0
    3.4660    1.1640    5.2710 H   0  0  0  0  0  0  0  0  0  0  0  0
    1.3340    2.3490    4.9320 H   0  0  0  0  0  0  0  0  0  0  0  0
   -0.1370    1.5990    3.1490 H   0  0  0  0  0  0  0  0  0  0  0  0
    0.4950   -0.3300    1.7000 H   0  0  0  0  0  0  0  0  0  0  0  0
    1.4920   -0.9950   -0.9730 N   0  0  0  0  0  0  0  0  0  0  0  0
    0.5530   -0.1870   -1.7130 C   0  0  1  0  0  0  0  0  0  0  0  0
    1.0410   -0.0960   -3.1570 C   0  0  0  0  0  0  0  0  0  0  0  0
    0.1510    0.7220   -4.0480 C   0  0  0  0  0  0  0  0  0  0  0  0
    0.7300    0.7850   -5.4400 C   0  0  0  0  0  0  0  0  0  0  0  0
    1.7950    0.2060   -5.7200 O   0  0  0  0  0  0  0  0  0  0  0  0
   -0.8500   -0.6120   -1.5970 C   0  0  0  0  0  0  0  0  0  0  0  0
   -1.7290    0.0800   -2.1540 O   0  0  0  0  0  0  0  0  0  0  0  0
    0.0650    1.4950   -6.4120 O   0  0  0  0  0  0  0  0  0  0  0  0
    1.4530   -2.0280   -0.9820 H   0  0  0  0  0  0  0  0  0  0  0  0
    0.6130    0.8840   -1.3560 H   0  0  0  0  0  0  0  0  0  0  0  0
    2.0420    0.4090   -3.0900 H   0  0  0  0  0  0  0  0  0  0  0  0
    1.1810   -1.0770   -3.6230 H   0  0  0  0  0  0  0  0  0  0  0  0
   -0.7940    0.1430   -4.1860 H   0  0  0  0  0  0  0  0  0  0  0  0
   -0.0080    1.7480   -3.7180 H   0  0  0  0  0  0  0  0  0  0  0  0
    0.5080    1.8550   -7.2510 H   0  0  0  0  0  0  0  0  0  0  0  0
   -2.3710   -1.7100    5.7200 O   0  0  0  0  0  0  0  0  0  0  0  0
   -2.6340   -1.6990    4.3640 C   0  0  0  0  0  0  0  0  0  0  0  0
   -2.3070   -0.6230    3.5650 C   0  0  0  0  0  0  0  0  0  0  0  0
   -2.5750   -0.6180    2.1990 C   0  0  0  0  0  0  0  0  0  0  0  0
   -3.1820   -1.7160    1.6300 C   0  0  0  0  0  0  0  0  0  0  0  0
   -3.4810   -1.7340    0.2160 C   0  0  0  0  0  0  0  0  0  0  0  0
   -2.5390   -2.2920   -0.7380 C   0  0  2  0  0  0  0  0  0  0  0  0
   -1.2390   -1.7620   -0.8910 N   0  0  0  0  0  0  0  0  0  0  0  0
   -3.2120   -2.3300   -2.0930 C   0  0  0  0  0  0  0  0  0  0  0  0
   -2.6430   -2.0290   -3.1340 O   0  0  0  0  0  0  0  0  0  0  0  0
   -3.5170   -2.8090    2.4300 C   0  0  0  0  0  0  0  0  0  0  0  0
   -3.2490   -2.8070    3.7810 C   0  0  0  0  0  0  0  0  0  0  0  0
   -4.5600   -2.7320   -2.1600 O   0  0  0  0  0  0  0  0  0  0  0  0
   -2.9630   -1.1920    6.3620 H   0  0  0  0  0  0  0  0  0  0  0  0
   -1.8360    0.2120    4.0780 H   0  0  0  0  0  0  0  0  0  0  0  0
   -2.2850    0.2700    1.6330 H   0  0  0  0  0  0  0  0  0  0  0  0
   -4.4500   -2.3160    0.1030 H   0  0  0  0  0  0  0  0  0  0  0  0
   -3.8020   -0.6960   -0.1060 H   0  0  0  0  0  0  0  0  0  0  0  0
   -2.4360   -3.4080   -0.5300 H   0  0  0  0  0  0  0  0  0  0  0  0
   -0.4270   -2.2760   -0.4180 H   0  0  0  0  0  0  0  0  0  0  0  0
   -3.9870   -3.6290    1.9200 H   0  0  0  0  0  0  0  0  0  0  0  0
   -3.5300   -3.6800    4.3520 H   0  0  0  0  0  0  0  0  0  0  0  0
  1 13  1  0  0  0  0
  1 12  1  0  0  0  0
  2 14  1  6  0  0  0
  2  1  1  0  0  0  0
  2  3  1  0  0  0  0
  3 15  1  0  0  0  0
  3  4  1  0  0  0  0
  4  5  1  0  0  0  0
  5 17  1  0  0  0  0
  5  6  2  0  0  0  0
  6 18  1  0  0  0  0
  7  6  1  0  0  0  0
  7 19  1  0  0  0  0
  8  7  2  0  0  0  0
  9  4  2  0  0  0  0
  9  8  1  0  0  0  0
 10 11  2  0  0  0  0
 10  2  1  0  0  0  0
 16  3  1  0  0  0  0
 20  8  1  0  0  0  0
 21  9  1  0  0  0  0
 22 10  1  0  0  0  0
 23 28  1  0  0  0  0
 23 32  1  1  0  0  0
 23 22  1  0  0  0  0
 24 33  1  0  0  0  0
 24 23  1  0  0  0  0
 25 36  1  0  0  0  0
 25 24  1  0  0  0  0
 26 25  1  0  0  0  0
 27 26  2  0  0  0  0
 28 45  1  0  0  0  0
 29 28  2  0  0  0  0
 30 26  1  0  0  0  0
 31 22  1  0  0  0  0
 34 24  1  0  0  0  0
 35 25  1  0  0  0  0
 37 30  1  0  0  0  0
 38 51  1  0  0  0  0
 39 38  1  0  0  0  0
 40 52  1  0  0  0  0
 40 39  2  0  0  0  0
 41 40  1  0  0  0  0
 42 41  2  0  0  0  0
 42 48  1  0  0  0  0
 43 42  1  0  0  0  0
 44 56  1  1  0  0  0
 44 43  1  0  0  0  0
 45 44  1  0  0  0  0
 45 57  1  0  0  0  0
 46 44  1  0  0  0  0
 47 46  2  0  0  0  0
 48 49  2  0  0  0  0
 49 59  1  0  0  0  0
 49 39  1  0  0  0  0
 50 46  1  0  0  0  0
 53 41  1  0  0  0  0
 54 43  1  0  0  0  0
 55 43  1  0  0  0  0
 58 48  1  0  0  0  0
M  END
$$$$
