FFA.pdb
 OpenBabel07022419003D

 52 53  0  0  1  0  0  0  0  0999 V2000
    3.5940    1.9240    0.4200 N   0  0  0  0  0  0  0  0  0  0  0  0
    2.7600    0.9200   -0.2490 C   0  0  1  0  0  0  0  0  0  0  0  0
    3.4120   -0.4030   -0.3240 C   0  0  0  0  0  0  0  0  0  0  0  0
    3.7800   -1.0240    0.9340 C   0  0  0  0  0  0  0  0  0  0  0  0
    5.0050   -0.8120    1.5160 C   0  0  0  0  0  0  0  0  0  0  0  0
    5.3440   -1.4200    2.7270 C   0  0  0  0  0  0  0  0  0  0  0  0
    4.4320   -2.2450    3.3460 C   0  0  0  0  0  0  0  0  0  0  0  0
    3.2040   -2.4620    2.7710 C   0  0  0  0  0  0  0  0  0  0  0  0
    2.9050   -1.8480    1.5800 C   0  0  0  0  0  0  0  0  0  0  0  0
    1.3680    0.9750    0.1830 C   0  0  0  0  0  0  0  0  0  0  0  0
    1.0990    1.7780    1.1460 O   0  0  0  0  0  0  0  0  0  0  0  0
    4.4920    1.9570   -0.1520 H   0  0  0  0  0  0  0  0  0  0  0  0
    3.1250    2.8480    0.2130 H   0  0  0  0  0  0  0  0  0  0  0  0
    2.7430    1.3040   -1.3220 H   0  0  0  0  0  0  0  0  0  0  0  0
    2.7810   -1.0600   -0.9610 H   0  0  0  0  0  0  0  0  0  0  0  0
    4.3590   -0.2670   -0.9260 H   0  0  0  0  0  0  0  0  0  0  0  0
    5.7550   -0.1840    1.0860 H   0  0  0  0  0  0  0  0  0  0  0  0
    6.3080   -1.2580    3.1940 H   0  0  0  0  0  0  0  0  0  0  0  0
    4.6520   -2.7410    4.2930 H   0  0  0  0  0  0  0  0  0  0  0  0
    2.4730   -3.1250    3.2690 H   0  0  0  0  0  0  0  0  0  0  0  0
    1.9410   -2.0240    1.1330 H   0  0  0  0  0  0  0  0  0  0  0  0
    0.2890    0.2250   -0.3650 N   0  0  0  0  0  0  0  0  0  0  0  0
   -1.0730    0.3590    0.1270 C   0  0  1  0  0  0  0  0  0  0  0  0
   -1.8860    1.2180   -0.8340 C   0  0  0  0  0  0  0  0  0  0  0  0
   -3.2920    1.4060   -0.4070 C   0  0  0  0  0  0  0  0  0  0  0  0
   -4.2910    0.5680   -0.8330 C   0  0  0  0  0  0  0  0  0  0  0  0
   -5.5780    0.7860   -0.4080 C   0  0  0  0  0  0  0  0  0  0  0  0
   -5.9320    1.8160    0.4380 C   0  0  0  0  0  0  0  0  0  0  0  0
   -4.8910    2.6340    0.8410 C   0  0  0  0  0  0  0  0  0  0  0  0
   -3.5880    2.4500    0.4380 C   0  0  0  0  0  0  0  0  0  0  0  0
   -1.7290   -0.8980    0.4710 C   0  0  0  0  0  0  0  0  0  0  0  0
   -2.8950   -0.9500    0.9310 O   0  0  0  0  0  0  0  0  0  0  0  0
    0.5510   -0.4220   -1.1420 H   0  0  0  0  0  0  0  0  0  0  0  0
   -1.0130    0.9830    1.0530 H   0  0  0  0  0  0  0  0  0  0  0  0
   -1.4460    2.2300   -0.9360 H   0  0  0  0  0  0  0  0  0  0  0  0
   -1.8990    0.7740   -1.8500 H   0  0  0  0  0  0  0  0  0  0  0  0
   -4.0480   -0.2700   -1.5130 H   0  0  0  0  0  0  0  0  0  0  0  0
   -6.3680    0.1200   -0.7480 H   0  0  0  0  0  0  0  0  0  0  0  0
   -6.9560    1.9790    0.7680 H   0  0  0  0  0  0  0  0  0  0  0  0
   -5.1270    3.4570    1.5070 H   0  0  0  0  0  0  0  0  0  0  0  0
   -2.7890    3.1350    0.7900 H   0  0  0  0  0  0  0  0  0  0  0  0
   -1.7510   -4.3560   -0.5380 C   0  0  0  0  0  0  0  0  0  0  0  0
   -1.7300   -3.4040    0.6300 C   0  0  2  0  0  0  0  0  0  0  0  0
   -1.0720   -2.1410    0.2970 N   0  0  0  0  0  0  0  0  0  0  0  0
   -1.0450   -3.9990    1.7950 C   0  0  0  0  0  0  0  0  0  0  0  0
   -0.0810   -3.4040    2.3260 O   0  0  0  0  0  0  0  0  0  0  0  0
   -1.4240   -5.2120    2.3420 O   0  0  0  0  0  0  0  0  0  0  0  0
   -2.7580   -4.4040   -1.0080 H   0  0  0  0  0  0  0  0  0  0  0  0
   -1.4040   -5.3590   -0.2550 H   0  0  0  0  0  0  0  0  0  0  0  0
   -1.0720   -3.9800   -1.3480 H   0  0  0  0  0  0  0  0  0  0  0  0
   -2.7890   -3.1490    0.9290 H   0  0  0  0  0  0  0  0  0  0  0  0
   -0.1180   -2.1770   -0.0700 H   0  0  0  0  0  0  0  0  0  0  0  0
  2 14  1  6  0  0  0
  2 10  1  0  0  0  0
  2  1  1  0  0  0  0
  3  2  1  0  0  0  0
  3  4  1  0  0  0  0
  4  5  2  0  0  0  0
  4  9  1  0  0  0  0
  5  6  1  0  0  0  0
  6 18  1  0  0  0  0
  6  7  2  0  0  0  0
  7 19  1  0  0  0  0
  8 20  1  0  0  0  0
  8  7  1  0  0  0  0
  9  8  2  0  0  0  0
 10 11  2  0  0  0  0
 12  1  1  0  0  0  0
 13  1  1  0  0  0  0
 15  3  1  0  0  0  0
 16  3  1  0  0  0  0
 17  5  1  0  0  0  0
 21  9  1  0  0  0  0
 22 23  1  0  0  0  0
 22 10  1  0  0  0  0
 23 31  1  0  0  0  0
 23 34  1  1  0  0  0
 24 25  1  0  0  0  0
 24 23  1  0  0  0  0
 25 30  1  0  0  0  0
 26 27  1  0  0  0  0
 26 25  2  0  0  0  0
 27 28  2  0  0  0  0
 28 39  1  0  0  0  0
 28 29  1  0  0  0  0
 29 40  1  0  0  0  0
 30 41  1  0  0  0  0
 30 29  2  0  0  0  0
 31 32  2  0  0  0  0
 33 22  1  0  0  0  0
 35 24  1  0  0  0  0
 36 24  1  0  0  0  0
 37 26  1  0  0  0  0
 38 27  1  0  0  0  0
 42 49  1  0  0  0  0
 42 43  1  0  0  0  0
 43 51  1  1  0  0  0
 43 45  1  0  0  0  0
 44 31  1  0  0  0  0
 44 43  1  0  0  0  0
 45 46  2  0  0  0  0
 45 47  1  0  0  0  0
 48 42  1  0  0  0  0
 50 42  1  0  0  0  0
 52 44  1  0  0  0  0
M  END
$$$$
