FFD.pdb
 OpenBabel07022419003D

 55 56  0  0  1  0  0  0  0  0999 V2000
    4.9510   -0.0920    0.4040 N   0  0  0  0  0  0  0  0  0  0  0  0
    3.7360   -0.3090    1.2050 C   0  0  1  0  0  0  0  0  0  0  0  0
    4.0140    0.5220    2.4710 C   0  0  0  0  0  0  0  0  0  0  0  0
    2.8980    0.4800    3.4440 C   0  0  0  0  0  0  0  0  0  0  0  0
    2.7990   -0.4680    4.4320 C   0  0  0  0  0  0  0  0  0  0  0  0
    1.7690   -0.4650    5.3290 C   0  0  0  0  0  0  0  0  0  0  0  0
    0.7830    0.5250    5.2540 C   0  0  0  0  0  0  0  0  0  0  0  0
    0.8880    1.4760    4.2620 C   0  0  0  0  0  0  0  0  0  0  0  0
    1.9230    1.4610    3.3680 C   0  0  0  0  0  0  0  0  0  0  0  0
    2.5620    0.1970    0.4850 C   0  0  0  0  0  0  0  0  0  0  0  0
    2.5490    1.3900    0.0360 O   0  0  0  0  0  0  0  0  0  0  0  0
    4.7570    0.5990   -0.3390 H   0  0  0  0  0  0  0  0  0  0  0  0
    5.2840   -1.0070    0.0000 H   0  0  0  0  0  0  0  0  0  0  0  0
    3.6460   -1.3550    1.4480 H   0  0  0  0  0  0  0  0  0  0  0  0
    4.9180    0.0830    2.9490 H   0  0  0  0  0  0  0  0  0  0  0  0
    4.2330    1.5630    2.2060 H   0  0  0  0  0  0  0  0  0  0  0  0
    3.5500   -1.2640    4.5210 H   0  0  0  0  0  0  0  0  0  0  0  0
    1.6780   -1.2100    6.1330 H   0  0  0  0  0  0  0  0  0  0  0  0
   -0.0260    0.5260    5.9680 H   0  0  0  0  0  0  0  0  0  0  0  0
    0.1230    2.2440    4.2060 H   0  0  0  0  0  0  0  0  0  0  0  0
    2.0040    2.2140    2.5820 H   0  0  0  0  0  0  0  0  0  0  0  0
    1.3780   -0.5740    0.2360 N   0  0  0  0  0  0  0  0  0  0  0  0
    0.2220   -0.0660   -0.4460 C   0  0  1  0  0  0  0  0  0  0  0  0
    0.4970   -0.0110   -1.9730 C   0  0  0  0  0  0  0  0  0  0  0  0
   -0.6810    0.4500   -2.7060 C   0  0  0  0  0  0  0  0  0  0  0  0
   -1.0400    1.7640   -2.8750 C   0  0  0  0  0  0  0  0  0  0  0  0
   -2.1300    2.2060   -3.5650 C   0  0  0  0  0  0  0  0  0  0  0  0
   -2.9280    1.2060   -4.1330 C   0  0  0  0  0  0  0  0  0  0  0  0
   -2.6220   -0.1180   -4.0060 C   0  0  0  0  0  0  0  0  0  0  0  0
   -1.5130   -0.5110   -3.3000 C   0  0  0  0  0  0  0  0  0  0  0  0
   -1.0240   -0.7870   -0.2230 C   0  0  0  0  0  0  0  0  0  0  0  0
   -2.0890   -0.2900   -0.7050 O   0  0  0  0  0  0  0  0  0  0  0  0
    1.4330   -1.5630    0.6000 H   0  0  0  0  0  0  0  0  0  0  0  0
    0.1580    1.0250   -0.1810 H   0  0  0  0  0  0  0  0  0  0  0  0
    1.3210    0.7160   -2.1320 H   0  0  0  0  0  0  0  0  0  0  0  0
    0.8230   -1.0150   -2.2960 H   0  0  0  0  0  0  0  0  0  0  0  0
   -0.3870    2.5110   -2.4060 H   0  0  0  0  0  0  0  0  0  0  0  0
   -2.4140    3.2120   -3.6920 H   0  0  0  0  0  0  0  0  0  0  0  0
   -3.8020    1.4720   -4.6960 H   0  0  0  0  0  0  0  0  0  0  0  0
   -3.2510   -0.8870   -4.4530 H   0  0  0  0  0  0  0  0  0  0  0  0
   -1.2850   -1.5740   -3.2030 H   0  0  0  0  0  0  0  0  0  0  0  0
   -1.1870   -2.0020    0.4740 N   0  0  0  0  0  0  0  0  0  0  0  0
   -2.4900   -2.5970    0.5900 C   0  0  1  0  0  0  0  0  0  0  0  0
   -2.4550   -3.8250   -0.3370 C   0  0  0  0  0  0  0  0  0  0  0  0
   -3.7540   -4.5010   -0.2890 C   0  0  0  0  0  0  0  0  0  0  0  0
   -3.9850   -5.4810    0.4610 O   0  0  0  0  0  0  0  0  0  0  0  0
   -2.8860   -3.0270    1.9160 C   0  0  0  0  0  0  0  0  0  0  0  0
   -2.1190   -2.9450    2.9160 O   0  0  0  0  0  0  0  0  0  0  0  0
   -4.7950   -4.0690   -1.0920 O   0  0  0  0  0  0  0  0  0  0  0  0
   -4.1380   -3.5450    2.1470 O   0  0  0  0  0  0  0  0  0  0  0  0
   -0.3770   -2.4730    0.9030 H   0  0  0  0  0  0  0  0  0  0  0  0
   -3.2600   -1.8890    0.1800 H   0  0  0  0  0  0  0  0  0  0  0  0
   -2.2100   -3.4050   -1.3460 H   0  0  0  0  0  0  0  0  0  0  0  0
   -1.6020   -4.4410    0.0240 H   0  0  0  0  0  0  0  0  0  0  0  0
   -5.4520   -4.6980   -1.5340 H   0  0  0  0  0  0  0  0  0  0  0  0
  1  2  1  0  0  0  0
  2 14  1  1  0  0  0
  2  3  1  0  0  0  0
  3 15  1  0  0  0  0
  3  4  1  0  0  0  0
  4  5  1  0  0  0  0
  5 17  1  0  0  0  0
  5  6  2  0  0  0  0
  6 18  1  0  0  0  0
  7  6  1  0  0  0  0
  7 19  1  0  0  0  0
  8  7  2  0  0  0  0
  9  4  2  0  0  0  0
  9  8  1  0  0  0  0
 10  2  1  0  0  0  0
 11 10  2  0  0  0  0
 12  1  1  0  0  0  0
 13  1  1  0  0  0  0
 16  3  1  0  0  0  0
 20  8  1  0  0  0  0
 21  9  1  0  0  0  0
 22 10  1  0  0  0  0
 22 33  1  0  0  0  0
 23 31  1  0  0  0  0
 23 34  1  1  0  0  0
 23 22  1  0  0  0  0
 24 23  1  0  0  0  0
 25 24  1  0  0  0  0
 26 25  1  0  0  0  0
 26 37  1  0  0  0  0
 27 26  2  0  0  0  0
 28 29  2  0  0  0  0
 28 27  1  0  0  0  0
 29 30  1  0  0  0  0
 30 41  1  0  0  0  0
 30 25  2  0  0  0  0
 31 42  1  0  0  0  0
 32 31  2  0  0  0  0
 35 24  1  0  0  0  0
 36 24  1  0  0  0  0
 38 27  1  0  0  0  0
 39 28  1  0  0  0  0
 40 29  1  0  0  0  0
 42 43  1  0  0  0  0
 42 51  1  0  0  0  0
 43 52  1  6  0  0  0
 43 47  1  0  0  0  0
 44 45  1  0  0  0  0
 44 54  1  0  0  0  0
 44 43  1  0  0  0  0
 45 46  2  0  0  0  0
 47 50  2  0  0  0  0
 47 48  1  0  0  0  0
 49 45  1  0  0  0  0
 53 44  1  0  0  0  0
 55 49  1  0  0  0  0
M  END
$$$$
