FFF.pdb
 OpenBabel07022419003D

 62 64  0  0  1  0  0  0  0  0999 V2000
    1.3780    0.4240    5.1680 N   0  0  0  0  0  0  0  0  0  0  0  0
    0.8920    1.2450    4.0750 C   0  0  1  0  0  0  0  0  0  0  0  0
    2.1360    1.7980    3.4020 C   0  0  0  0  0  0  0  0  0  0  0  0
    2.9870    0.6970    2.9130 C   0  0  0  0  0  0  0  0  0  0  0  0
    3.9580    0.1370    3.7180 C   0  0  0  0  0  0  0  0  0  0  0  0
    4.7690   -0.8840    3.2920 C   0  0  0  0  0  0  0  0  0  0  0  0
    4.6160   -1.3730    2.0160 C   0  0  0  0  0  0  0  0  0  0  0  0
    3.6450   -0.8190    1.1990 C   0  0  0  0  0  0  0  0  0  0  0  0
    2.8390    0.2040    1.6390 C   0  0  0  0  0  0  0  0  0  0  0  0
    0.0750    0.3960    3.1870 C   0  0  0  0  0  0  0  0  0  0  0  0
   -0.0120   -0.8250    3.4480 O   0  0  0  0  0  0  0  0  0  0  0  0
    1.9860    0.9240    5.8220 H   0  0  0  0  0  0  0  0  0  0  0  0
    1.7910   -0.4360    4.7430 H   0  0  0  0  0  0  0  0  0  0  0  0
    0.2990    2.1050    4.4830 H   0  0  0  0  0  0  0  0  0  0  0  0
    1.8990    2.5210    2.6040 H   0  0  0  0  0  0  0  0  0  0  0  0
    2.6980    2.3430    4.1760 H   0  0  0  0  0  0  0  0  0  0  0  0
    4.0910    0.5200    4.7430 H   0  0  0  0  0  0  0  0  0  0  0  0
    5.5340   -1.3320    3.9120 H   0  0  0  0  0  0  0  0  0  0  0  0
    5.2450   -2.1760    1.6640 H   0  0  0  0  0  0  0  0  0  0  0  0
    3.5630   -1.2310    0.2160 H   0  0  0  0  0  0  0  0  0  0  0  0
    2.0890    0.6190    0.9820 H   0  0  0  0  0  0  0  0  0  0  0  0
   -0.6140    0.9110    2.0560 N   0  0  0  0  0  0  0  0  0  0  0  0
   -1.4410    0.0420    1.1780 C   0  0  1  0  0  0  0  0  0  0  0  0
   -2.8640    0.4350    1.4840 C   0  0  0  0  0  0  0  0  0  0  0  0
   -3.9070   -0.2850    0.7450 C   0  0  0  0  0  0  0  0  0  0  0  0
   -4.3670   -1.5190    1.2060 C   0  0  0  0  0  0  0  0  0  0  0  0
   -5.3670   -2.2240    0.5730 C   0  0  0  0  0  0  0  0  0  0  0  0
   -5.9550   -1.7140   -0.5630 C   0  0  0  0  0  0  0  0  0  0  0  0
   -5.5210   -0.4970   -1.0440 C   0  0  0  0  0  0  0  0  0  0  0  0
   -4.5160    0.1940   -0.3930 C   0  0  0  0  0  0  0  0  0  0  0  0
   -1.0190    0.2110   -0.2170 C   0  0  0  0  0  0  0  0  0  0  0  0
   -0.1380    1.0850   -0.5350 O   0  0  0  0  0  0  0  0  0  0  0  0
   -0.5300    1.9290    1.8460 H   0  0  0  0  0  0  0  0  0  0  0  0
   -1.3120   -0.9840    1.5740 H   0  0  0  0  0  0  0  0  0  0  0  0
   -2.9900    1.5490    1.3250 H   0  0  0  0  0  0  0  0  0  0  0  0
   -3.0650    0.3160    2.5920 H   0  0  0  0  0  0  0  0  0  0  0  0
   -3.8910   -1.9040    2.1040 H   0  0  0  0  0  0  0  0  0  0  0  0
   -5.6800   -3.1890    0.9920 H   0  0  0  0  0  0  0  0  0  0  0  0
   -6.7520   -2.2760   -1.0680 H   0  0  0  0  0  0  0  0  0  0  0  0
   -5.9910   -0.1000   -1.9440 H   0  0  0  0  0  0  0  0  0  0  0  0
   -4.1830    1.1610   -0.7880 H   0  0  0  0  0  0  0  0  0  0  0  0
   -1.5170   -0.5490   -1.3120 N   0  0  0  0  0  0  0  0  0  0  0  0
   -1.0270   -0.3210   -2.6710 C   0  0  1  0  0  0  0  0  0  0  0  0
   -0.5900   -1.6440   -3.2250 C   0  0  0  0  0  0  0  0  0  0  0  0
    0.4750   -2.3210   -2.4890 C   0  0  0  0  0  0  0  0  0  0  0  0
    1.7890   -2.0850   -2.8310 C   0  0  0  0  0  0  0  0  0  0  0  0
    2.8390   -2.7160   -2.1560 C   0  0  0  0  0  0  0  0  0  0  0  0
    2.5630   -3.5970   -1.1200 C   0  0  0  0  0  0  0  0  0  0  0  0
    1.2420   -3.8220   -0.7900 C   0  0  0  0  0  0  0  0  0  0  0  0
    0.2130   -3.1960   -1.4610 C   0  0  0  0  0  0  0  0  0  0  0  0
   -2.0540    0.2140   -3.5810 C   0  0  0  0  0  0  0  0  0  0  0  0
   -3.2410    0.4720   -3.3000 O   0  0  0  0  0  0  0  0  0  0  0  0
   -1.6920    0.4740   -4.9150 O   0  0  0  0  0  0  0  0  0  0  0  0
   -2.2240   -1.2780   -1.1440 H   0  0  0  0  0  0  0  0  0  0  0  0
   -0.1940    0.4130   -2.6290 H   0  0  0  0  0  0  0  0  0  0  0  0
   -1.4670   -2.3260   -3.2670 H   0  0  0  0  0  0  0  0  0  0  0  0
   -0.3240   -1.4620   -4.3030 H   0  0  0  0  0  0  0  0  0  0  0  0
    2.0900   -1.4130   -3.6260 H   0  0  0  0  0  0  0  0  0  0  0  0
    3.8750   -2.5240   -2.4340 H   0  0  0  0  0  0  0  0  0  0  0  0
    3.3440   -4.1120   -0.5650 H   0  0  0  0  0  0  0  0  0  0  0  0
    1.0420   -4.5230    0.0340 H   0  0  0  0  0  0  0  0  0  0  0  0
   -0.8020   -3.4310   -1.1340 H   0  0  0  0  0  0  0  0  0  0  0  0
  1 12  1  0  0  0  0
  2 14  1  1  0  0  0
  2  1  1  0  0  0  0
  3  2  1  0  0  0  0
  3 16  1  0  0  0  0
  4  3  1  0  0  0  0
  4  5  1  0  0  0  0
  5 17  1  0  0  0  0
  6  5  2  0  0  0  0
  6 18  1  0  0  0  0
  7  6  1  0  0  0  0
  8  9  1  0  0  0  0
  8  7  2  0  0  0  0
  9  4  2  0  0  0  0
 10 11  2  0  0  0  0
 10  2  1  0  0  0  0
 13  1  1  0  0  0  0
 15  3  1  0  0  0  0
 19  7  1  0  0  0  0
 20  8  1  0  0  0  0
 21  9  1  0  0  0  0
 22 10  1  0  0  0  0
 23 24  1  0  0  0  0
 23 34  1  1  0  0  0
 23 22  1  0  0  0  0
 24 36  1  0  0  0  0
 25 26  1  0  0  0  0
 25 24  1  0  0  0  0
 26 37  1  0  0  0  0
 27 38  1  0  0  0  0
 27 26  2  0  0  0  0
 28 27  1  0  0  0  0
 29 28  2  0  0  0  0
 29 30  1  0  0  0  0
 30 25  2  0  0  0  0
 31 23  1  0  0  0  0
 32 31  2  0  0  0  0
 33 22  1  0  0  0  0
 35 24  1  0  0  0  0
 39 28  1  0  0  0  0
 40 29  1  0  0  0  0
 41 30  1  0  0  0  0
 42 54  1  0  0  0  0
 42 31  1  0  0  0  0
 43 55  1  1  0  0  0
 43 42  1  0  0  0  0
 44 43  1  0  0  0  0
 44 45  1  0  0  0  0
 45 50  1  0  0  0  0
 46 45  2  0  0  0  0
 46 47  1  0  0  0  0
 47 48  2  0  0  0  0
 48 49  1  0  0  0  0
 48 60  1  0  0  0  0
 49 61  1  0  0  0  0
 50 62  1  0  0  0  0
 50 49  2  0  0  0  0
 51 52  1  0  0  0  0
 51 43  1  0  0  0  0
 53 51  2  0  0  0  0
 56 44  1  0  0  0  0
 57 44  1  0  0  0  0
 58 46  1  0  0  0  0
 59 47  1  0  0  0  0
M  END
$$$$
