FFG.pdb
 OpenBabel07022419003D

 49 50  0  0  1  0  0  0  0  0999 V2000
    0.9710   -1.7940    4.9490 N   0  0  0  0  0  0  0  0  0  0  0  0
    1.5140   -1.3940    3.6110 C   0  0  1  0  0  0  0  0  0  0  0  0
    2.2010   -2.6080    3.1120 C   0  0  0  0  0  0  0  0  0  0  0  0
    2.8710   -2.5190    1.8040 C   0  0  0  0  0  0  0  0  0  0  0  0
    2.2990   -2.9890    0.6590 C   0  0  0  0  0  0  0  0  0  0  0  0
    2.9540   -2.8710   -0.5380 C   0  0  0  0  0  0  0  0  0  0  0  0
    4.1940   -2.2770   -0.6000 C   0  0  0  0  0  0  0  0  0  0  0  0
    4.7820   -1.8000    0.5410 C   0  0  0  0  0  0  0  0  0  0  0  0
    4.1240   -1.9220    1.7320 C   0  0  0  0  0  0  0  0  0  0  0  0
    0.3930   -0.8430    2.8760 C   0  0  0  0  0  0  0  0  0  0  0  0
   -0.7630   -0.7760    3.4620 O   0  0  0  0  0  0  0  0  0  0  0  0
    1.6930   -1.6580    5.6770 H   0  0  0  0  0  0  0  0  0  0  0  0
    0.0950   -1.3000    5.1440 H   0  0  0  0  0  0  0  0  0  0  0  0
    2.2430   -0.5750    3.8780 H   0  0  0  0  0  0  0  0  0  0  0  0
    1.4360   -3.4520    3.1100 H   0  0  0  0  0  0  0  0  0  0  0  0
    2.9890   -2.9720    3.8290 H   0  0  0  0  0  0  0  0  0  0  0  0
    1.3180   -3.4840    0.6590 H   0  0  0  0  0  0  0  0  0  0  0  0
    2.5080   -3.2460   -1.4790 H   0  0  0  0  0  0  0  0  0  0  0  0
    4.6730   -2.2060   -1.5750 H   0  0  0  0  0  0  0  0  0  0  0  0
    5.7570   -1.3380    0.4690 H   0  0  0  0  0  0  0  0  0  0  0  0
    4.6100   -1.5330    2.6400 H   0  0  0  0  0  0  0  0  0  0  0  0
    0.3650   -0.3310    1.5510 N   0  0  0  0  0  0  0  0  0  0  0  0
   -0.8370    0.2280    0.9830 C   0  0  1  0  0  0  0  0  0  0  0  0
   -0.5190    1.6880    0.7140 C   0  0  0  0  0  0  0  0  0  0  0  0
   -1.6470    2.4430    0.1190 C   0  0  0  0  0  0  0  0  0  0  0  0
   -2.5760    3.0450    0.9480 C   0  0  0  0  0  0  0  0  0  0  0  0
   -3.6210    3.7600    0.4100 C   0  0  0  0  0  0  0  0  0  0  0  0
   -3.8060    3.9200   -0.9480 C   0  0  0  0  0  0  0  0  0  0  0  0
   -2.8640    3.3080   -1.7500 C   0  0  0  0  0  0  0  0  0  0  0  0
   -1.8110    2.5890   -1.2400 C   0  0  0  0  0  0  0  0  0  0  0  0
   -1.4580   -0.4730   -0.1110 C   0  0  0  0  0  0  0  0  0  0  0  0
   -2.5400    0.0560   -0.5770 O   0  0  0  0  0  0  0  0  0  0  0  0
    1.2330   -0.3680    1.0140 H   0  0  0  0  0  0  0  0  0  0  0  0
   -1.6310    0.2800    1.8060 H   0  0  0  0  0  0  0  0  0  0  0  0
   -0.2850    2.1570    1.6860 H   0  0  0  0  0  0  0  0  0  0  0  0
    0.3810    1.7430    0.0970 H   0  0  0  0  0  0  0  0  0  0  0  0
   -2.4550    2.9360    2.0380 H   0  0  0  0  0  0  0  0  0  0  0  0
   -4.3520    4.2330    1.0760 H   0  0  0  0  0  0  0  0  0  0  0  0
   -4.6370    4.4880   -1.3520 H   0  0  0  0  0  0  0  0  0  0  0  0
   -2.9790    3.4140   -2.8400 H   0  0  0  0  0  0  0  0  0  0  0  0
   -1.0730    2.1100   -1.8910 H   0  0  0  0  0  0  0  0  0  0  0  0
   -1.0720   -1.6570   -0.7600 N   0  0  0  0  0  0  0  0  0  0  0  0
   -1.8600   -2.2100   -1.8670 C   0  0  0  0  0  0  0  0  0  0  0  0
   -1.2480   -3.4580   -2.3520 C   0  0  0  0  0  0  0  0  0  0  0  0
   -1.7130   -4.1230   -3.3110 O   0  0  0  0  0  0  0  0  0  0  0  0
   -0.1060   -3.9430   -1.7390 O   0  0  0  0  0  0  0  0  0  0  0  0
   -0.2140   -2.1410   -0.4490 H   0  0  0  0  0  0  0  0  0  0  0  0
   -2.9090   -2.3940   -1.5340 H   0  0  0  0  0  0  0  0  0  0  0  0
   -1.9290   -1.4780   -2.7040 H   0  0  0  0  0  0  0  0  0  0  0  0
  1 13  1  0  0  0  0
  1 12  1  0  0  0  0
  2 14  1  1  0  0  0
  2  1  1  0  0  0  0
  3  2  1  0  0  0  0
  3 16  1  0  0  0  0
  4  3  1  0  0  0  0
  5 17  1  0  0  0  0
  5  4  2  0  0  0  0
  6  5  1  0  0  0  0
  7  6  2  0  0  0  0
  7  8  1  0  0  0  0
  8  9  2  0  0  0  0
  9  4  1  0  0  0  0
  9 21  1  0  0  0  0
 10 11  2  0  0  0  0
 10  2  1  0  0  0  0
 15  3  1  0  0  0  0
 18  6  1  0  0  0  0
 19  7  1  0  0  0  0
 20  8  1  0  0  0  0
 22 10  1  0  0  0  0
 23 22  1  0  0  0  0
 23 34  1  1  0  0  0
 24 23  1  0  0  0  0
 24 35  1  0  0  0  0
 25 24  1  0  0  0  0
 25 26  1  0  0  0  0
 26 37  1  0  0  0  0
 27 26  2  0  0  0  0
 27 38  1  0  0  0  0
 28 27  1  0  0  0  0
 29 30  1  0  0  0  0
 29 28  2  0  0  0  0
 30 25  2  0  0  0  0
 31 23  1  0  0  0  0
 32 31  2  0  0  0  0
 33 22  1  0  0  0  0
 36 24  1  0  0  0  0
 39 28  1  0  0  0  0
 40 29  1  0  0  0  0
 41 30  1  0  0  0  0
 42 47  1  0  0  0  0
 42 31  1  0  0  0  0
 43 48  1  0  0  0  0
 43 42  1  0  0  0  0
 44 43  1  0  0  0  0
 44 46  1  0  0  0  0
 45 44  2  0  0  0  0
 49 43  1  0  0  0  0
M  END
$$$$
