FFI.pdb
 OpenBabel07022419003D

 61 62  0  0  1  0  0  0  0  0999 V2000
    2.6130   -1.6280   -0.0550 N   0  0  0  0  0  0  0  0  0  0  0  0
    2.9380   -0.7760    1.0710 C   0  0  1  0  0  0  0  0  0  0  0  0
    4.1400    0.0480    0.7580 C   0  0  0  0  0  0  0  0  0  0  0  0
    4.5600    0.9620    1.8440 C   0  0  0  0  0  0  0  0  0  0  0  0
    5.4360    0.4820    2.8010 C   0  0  0  0  0  0  0  0  0  0  0  0
    5.8480    1.3100    3.8200 C   0  0  0  0  0  0  0  0  0  0  0  0
    5.4080    2.6190    3.9180 C   0  0  0  0  0  0  0  0  0  0  0  0
    4.5370    3.0990    2.9690 C   0  0  0  0  0  0  0  0  0  0  0  0
    4.1220    2.2790    1.9500 C   0  0  0  0  0  0  0  0  0  0  0  0
    1.7510    0.0460    1.4120 C   0  0  0  0  0  0  0  0  0  0  0  0
    1.7410    0.8520    2.3790 O   0  0  0  0  0  0  0  0  0  0  0  0
    3.4800   -1.7750   -0.6350 H   0  0  0  0  0  0  0  0  0  0  0  0
    2.2280   -2.5300    0.3030 H   0  0  0  0  0  0  0  0  0  0  0  0
    3.1790   -1.4550    1.9320 H   0  0  0  0  0  0  0  0  0  0  0  0
    4.9930   -0.6640    0.5740 H   0  0  0  0  0  0  0  0  0  0  0  0
    4.0310    0.5930   -0.2110 H   0  0  0  0  0  0  0  0  0  0  0  0
    5.8190   -0.5400    2.7790 H   0  0  0  0  0  0  0  0  0  0  0  0
    6.5330    0.9360    4.5680 H   0  0  0  0  0  0  0  0  0  0  0  0
    5.7680    3.2300    4.7480 H   0  0  0  0  0  0  0  0  0  0  0  0
    4.2020    4.1180    3.0550 H   0  0  0  0  0  0  0  0  0  0  0  0
    3.4360    2.6230    1.1770 H   0  0  0  0  0  0  0  0  0  0  0  0
    0.5660   -0.0520    0.6430 N   0  0  0  0  0  0  0  0  0  0  0  0
   -0.5760    0.7570    0.9930 C   0  0  1  0  0  0  0  0  0  0  0  0
   -0.8220    1.6870   -0.1770 C   0  0  0  0  0  0  0  0  0  0  0  0
   -1.0950    0.9090   -1.4370 C   0  0  0  0  0  0  0  0  0  0  0  0
   -2.3730    0.5640   -1.8000 C   0  0  0  0  0  0  0  0  0  0  0  0
   -2.5740   -0.1510   -2.9600 C   0  0  0  0  0  0  0  0  0  0  0  0
   -1.5220   -0.5260   -3.7610 C   0  0  0  0  0  0  0  0  0  0  0  0
   -0.2400   -0.1780   -3.3950 C   0  0  0  0  0  0  0  0  0  0  0  0
   -0.0350    0.5410   -2.2290 C   0  0  0  0  0  0  0  0  0  0  0  0
   -1.8040   -0.0600    1.1740 C   0  0  0  0  0  0  0  0  0  0  0  0
   -2.9000    0.4670    1.5070 O   0  0  0  0  0  0  0  0  0  0  0  0
    0.5040   -0.6970   -0.1680 H   0  0  0  0  0  0  0  0  0  0  0  0
   -0.3680    1.3900    1.8830 H   0  0  0  0  0  0  0  0  0  0  0  0
    0.1160    2.2590   -0.3490 H   0  0  0  0  0  0  0  0  0  0  0  0
   -1.6500    2.3940    0.0320 H   0  0  0  0  0  0  0  0  0  0  0  0
   -3.2330    0.8590   -1.1690 H   0  0  0  0  0  0  0  0  0  0  0  0
   -3.6130   -0.4120   -3.2220 H   0  0  0  0  0  0  0  0  0  0  0  0
   -1.6930   -1.0880   -4.6720 H   0  0  0  0  0  0  0  0  0  0  0  0
    0.5580   -0.4880   -4.0470 H   0  0  0  0  0  0  0  0  0  0  0  0
    1.0030    0.8010   -1.9710 H   0  0  0  0  0  0  0  0  0  0  0  0
   -5.7540   -2.8680    0.3250 C   0  0  0  0  0  0  0  0  0  0  0  0
   -4.6070   -3.6670   -0.1980 C   0  0  0  0  0  0  0  0  0  0  0  0
   -3.3650   -2.8250   -0.1870 C   0  0  2  0  0  0  0  0  0  0  0  0
   -2.2070   -3.6460   -0.7280 C   0  0  0  0  0  0  0  0  0  0  0  0
   -3.0540   -2.2600    1.1750 C   0  0  2  0  0  0  0  0  0  0  0  0
   -1.8260   -1.4680    0.9900 N   0  0  0  0  0  0  0  0  0  0  0  0
   -2.8670   -3.2730    2.2300 C   0  0  0  0  0  0  0  0  0  0  0  0
   -1.7590   -3.3990    2.8570 O   0  0  0  0  0  0  0  0  0  0  0  0
   -3.8540   -4.1590    2.6250 O   0  0  0  0  0  0  0  0  0  0  0  0
   -6.0420   -3.1370    1.3500 H   0  0  0  0  0  0  0  0  0  0  0  0
   -6.6500   -3.0350   -0.3450 H   0  0  0  0  0  0  0  0  0  0  0  0
   -5.5680   -1.7560    0.3160 H   0  0  0  0  0  0  0  0  0  0  0  0
   -4.7580   -3.9600   -1.2810 H   0  0  0  0  0  0  0  0  0  0  0  0
   -4.3870   -4.5890    0.4030 H   0  0  0  0  0  0  0  0  0  0  0  0
   -3.4770   -1.9560   -0.8690 H   0  0  0  0  0  0  0  0  0  0  0  0
   -2.6460   -4.4030   -1.4110 H   0  0  0  0  0  0  0  0  0  0  0  0
   -1.6460   -4.1720    0.0430 H   0  0  0  0  0  0  0  0  0  0  0  0
   -1.5500   -3.0070   -1.3860 H   0  0  0  0  0  0  0  0  0  0  0  0
   -3.8980   -1.6110    1.4640 H   0  0  0  0  0  0  0  0  0  0  0  0
   -0.9370   -1.9350    0.7160 H   0  0  0  0  0  0  0  0  0  0  0  0
  1 13  1  0  0  0  0
  1  2  1  0  0  0  0
  2 10  1  0  0  0  0
  2 14  1  1  0  0  0
  3  2  1  0  0  0  0
  3  4  1  0  0  0  0
  4  9  2  0  0  0  0
  4  5  1  0  0  0  0
  5  6  2  0  0  0  0
  6  7  1  0  0  0  0
  6 18  1  0  0  0  0
  7 19  1  0  0  0  0
  8 20  1  0  0  0  0
  8  7  2  0  0  0  0
  9  8  1  0  0  0  0
 10 11  2  0  0  0  0
 12  1  1  0  0  0  0
 15  3  1  0  0  0  0
 16  3  1  0  0  0  0
 17  5  1  0  0  0  0
 21  9  1  0  0  0  0
 22 23  1  0  0  0  0
 22 10  1  0  0  0  0
 23 31  1  0  0  0  0
 23 34  1  1  0  0  0
 24 36  1  0  0  0  0
 24 23  1  0  0  0  0
 25 24  1  0  0  0  0
 26 25  1  0  0  0  0
 26 37  1  0  0  0  0
 27 26  2  0  0  0  0
 28 29  2  0  0  0  0
 28 27  1  0  0  0  0
 29 30  1  0  0  0  0
 30 41  1  0  0  0  0
 30 25  2  0  0  0  0
 31 32  2  0  0  0  0
 33 22  1  0  0  0  0
 35 24  1  0  0  0  0
 38 27  1  0  0  0  0
 39 28  1  0  0  0  0
 40 29  1  0  0  0  0
 42 51  1  0  0  0  0
 43 44  1  0  0  0  0
 43 42  1  0  0  0  0
 43 55  1  0  0  0  0
 44 56  1  6  0  0  0
 44 46  1  0  0  0  0
 45 44  1  0  0  0  0
 45 58  1  0  0  0  0
 46 60  1  1  0  0  0
 46 48  1  0  0  0  0
 47 31  1  0  0  0  0
 47 46  1  0  0  0  0
 48 50  2  0  0  0  0
 48 49  1  0  0  0  0
 52 42  1  0  0  0  0
 53 42  1  0  0  0  0
 54 43  1  0  0  0  0
 57 45  1  0  0  0  0
 59 45  1  0  0  0  0
 61 47  1  0  0  0  0
M  END
$$$$
