FFK.pdb
 OpenBabel07022419003D

 63 64  0  0  1  0  0  0  0  0999 V2000
    1.4970    1.9250    3.4940 N   0  0  0  0  0  0  0  0  0  0  0  0
    1.9360    1.8180    2.1220 C   0  0  1  0  0  0  0  0  0  0  0  0
    3.0120    0.7310    2.0610 C   0  0  0  0  0  0  0  0  0  0  0  0
    4.1740    1.0370    2.9050 C   0  0  0  0  0  0  0  0  0  0  0  0
    4.2300    0.6300    4.2130 C   0  0  0  0  0  0  0  0  0  0  0  0
    5.3370    0.9350    4.9800 C   0  0  0  0  0  0  0  0  0  0  0  0
    6.3790    1.6370    4.4530 C   0  0  0  0  0  0  0  0  0  0  0  0
    6.3630    2.0690    3.1290 C   0  0  0  0  0  0  0  0  0  0  0  0
    5.2440    1.7450    2.4020 C   0  0  0  0  0  0  0  0  0  0  0  0
    0.8530    1.4130    1.1890 C   0  0  0  0  0  0  0  0  0  0  0  0
    1.1570    1.3000   -0.0040 O   0  0  0  0  0  0  0  0  0  0  0  0
    1.3770    0.9290    3.8430 H   0  0  0  0  0  0  0  0  0  0  0  0
    2.1780    2.4650    4.0370 H   0  0  0  0  0  0  0  0  0  0  0  0
    2.3810    2.7970    1.8230 H   0  0  0  0  0  0  0  0  0  0  0  0
    3.3760    0.6120    1.0030 H   0  0  0  0  0  0  0  0  0  0  0  0
    2.5890   -0.2540    2.3390 H   0  0  0  0  0  0  0  0  0  0  0  0
    3.4450    0.0710    4.7020 H   0  0  0  0  0  0  0  0  0  0  0  0
    5.3860    0.6140    6.0190 H   0  0  0  0  0  0  0  0  0  0  0  0
    7.2670    1.8920    5.0360 H   0  0  0  0  0  0  0  0  0  0  0  0
    7.1870    2.6260    2.7050 H   0  0  0  0  0  0  0  0  0  0  0  0
    5.2030    2.0690    1.3660 H   0  0  0  0  0  0  0  0  0  0  0  0
   -0.4750    1.1590    1.6030 N   0  0  0  0  0  0  0  0  0  0  0  0
   -1.5520    0.7540    0.6890 C   0  0  1  0  0  0  0  0  0  0  0  0
   -2.0050    1.8970   -0.1270 C   0  0  0  0  0  0  0  0  0  0  0  0
   -3.0580    1.6380   -1.0770 C   0  0  0  0  0  0  0  0  0  0  0  0
   -4.4080    1.6500   -0.6980 C   0  0  0  0  0  0  0  0  0  0  0  0
   -5.3820    1.4440   -1.6390 C   0  0  0  0  0  0  0  0  0  0  0  0
   -5.0690    1.2230   -2.9630 C   0  0  0  0  0  0  0  0  0  0  0  0
   -3.7360    1.2080   -3.3510 C   0  0  0  0  0  0  0  0  0  0  0  0
   -2.7430    1.4130   -2.4210 C   0  0  0  0  0  0  0  0  0  0  0  0
   -1.2380   -0.5100    0.0190 C   0  0  0  0  0  0  0  0  0  0  0  0
   -0.0610   -0.9700    0.2240 O   0  0  0  0  0  0  0  0  0  0  0  0
   -0.6530    1.2790    2.6240 H   0  0  0  0  0  0  0  0  0  0  0  0
   -2.4130    0.4820    1.3870 H   0  0  0  0  0  0  0  0  0  0  0  0
   -2.2780    2.7150    0.5930 H   0  0  0  0  0  0  0  0  0  0  0  0
   -1.1120    2.2850   -0.7040 H   0  0  0  0  0  0  0  0  0  0  0  0
   -4.6070    1.8290    0.3600 H   0  0  0  0  0  0  0  0  0  0  0  0
   -6.4300    1.4600   -1.3080 H   0  0  0  0  0  0  0  0  0  0  0  0
   -5.8570    1.0620   -3.6870 H   0  0  0  0  0  0  0  0  0  0  0  0
   -3.5380    1.0310   -4.4000 H   0  0  0  0  0  0  0  0  0  0  0  0
   -1.7040    1.3950   -2.7610 H   0  0  0  0  0  0  0  0  0  0  0  0
   -2.0500   -1.2870   -0.8090 N   0  0  0  0  0  0  0  0  0  0  0  0
   -1.5360   -2.5420   -1.3800 C   0  0  1  0  0  0  0  0  0  0  0  0
   -2.4880   -3.6100   -0.8950 C   0  0  0  0  0  0  0  0  0  0  0  0
   -2.1610   -4.9910   -1.3520 C   0  0  0  0  0  0  0  0  0  0  0  0
   -0.7990   -5.4590   -0.9050 C   0  0  0  0  0  0  0  0  0  0  0  0
   -0.6870   -5.4720    0.6070 C   0  0  0  0  0  0  0  0  0  0  0  0
    0.6060   -5.9170    1.0430 N   0  0  0  0  0  0  0  0  0  0  0  0
   -1.4860   -2.4870   -2.8520 C   0  0  0  0  0  0  0  0  0  0  0  0
   -1.0400   -3.5020   -3.4630 O   0  0  0  0  0  0  0  0  0  0  0  0
   -1.8790   -1.4310   -3.6350 O   0  0  0  0  0  0  0  0  0  0  0  0
   -3.0150   -0.9820   -1.0040 H   0  0  0  0  0  0  0  0  0  0  0  0
   -0.4940   -2.7240   -1.0400 H   0  0  0  0  0  0  0  0  0  0  0  0
   -2.6450   -3.5800    0.1870 H   0  0  0  0  0  0  0  0  0  0  0  0
   -3.4860   -3.3520   -1.3520 H   0  0  0  0  0  0  0  0  0  0  0  0
   -2.8990   -5.6740   -0.8540 H   0  0  0  0  0  0  0  0  0  0  0  0
   -2.2890   -5.1510   -2.4310 H   0  0  0  0  0  0  0  0  0  0  0  0
    0.0240   -4.8870   -1.3430 H   0  0  0  0  0  0  0  0  0  0  0  0
   -0.6780   -6.5120   -1.2470 H   0  0  0  0  0  0  0  0  0  0  0  0
   -0.8870   -4.4590    1.0310 H   0  0  0  0  0  0  0  0  0  0  0  0
   -1.4430   -6.1420    1.0670 H   0  0  0  0  0  0  0  0  0  0  0  0
    0.5470   -6.6150    1.8310 H   0  0  0  0  0  0  0  0  0  0  0  0
    1.2530   -5.1260    1.2850 H   0  0  0  0  0  0  0  0  0  0  0  0
  1 12  1  0  0  0  0
  1 13  1  0  0  0  0
  2 14  1  6  0  0  0
  2  1  1  0  0  0  0
  3  2  1  0  0  0  0
  3 16  1  0  0  0  0
  3  4  1  0  0  0  0
  4  5  1  0  0  0  0
  5 17  1  0  0  0  0
  5  6  2  0  0  0  0
  6 18  1  0  0  0  0
  7  6  1  0  0  0  0
  7 19  1  0  0  0  0
  8  7  2  0  0  0  0
  9  4  2  0  0  0  0
  9  8  1  0  0  0  0
 10 22  1  0  0  0  0
 10  2  1  0  0  0  0
 11 10  2  0  0  0  0
 15  3  1  0  0  0  0
 20  8  1  0  0  0  0
 21  9  1  0  0  0  0
 22 33  1  0  0  0  0
 23 34  1  1  0  0  0
 23 22  1  0  0  0  0
 24 35  1  0  0  0  0
 24 23  1  0  0  0  0
 25 26  1  0  0  0  0
 25 24  1  0  0  0  0
 26 37  1  0  0  0  0
 27 38  1  0  0  0  0
 27 26  2  0  0  0  0
 28 27  1  0  0  0  0
 29 28  2  0  0  0  0
 29 30  1  0  0  0  0
 30 25  2  0  0  0  0
 31 32  2  0  0  0  0
 31 23  1  0  0  0  0
 36 24  1  0  0  0  0
 39 28  1  0  0  0  0
 40 29  1  0  0  0  0
 41 30  1  0  0  0  0
 42 31  1  0  0  0  0
 43 53  1  1  0  0  0
 43 44  1  0  0  0  0
 43 42  1  0  0  0  0
 44 54  1  0  0  0  0
 45 46  1  0  0  0  0
 45 44  1  0  0  0  0
 45 56  1  0  0  0  0
 46 47  1  0  0  0  0
 47 60  1  0  0  0  0
 47 48  1  0  0  0  0
 47 61  1  0  0  0  0
 48 63  1  0  0  0  0
 48 62  1  0  0  0  0
 49 43  1  0  0  0  0
 50 49  1  0  0  0  0
 51 49  2  0  0  0  0
 52 42  1  0  0  0  0
 55 44  1  0  0  0  0
 57 45  1  0  0  0  0
 58 46  1  0  0  0  0
 59 46  1  0  0  0  0
M  END
$$$$
