FFM.pdb
 OpenBabel07022419003D

 59 60  0  0  1  0  0  0  0  0999 V2000
    4.1020    2.8130   -0.4370 N   0  0  0  0  0  0  0  0  0  0  0  0
    3.6410    1.4140   -0.3430 C   0  0  1  0  0  0  0  0  0  0  0  0
    4.3290    0.8490    0.8390 C   0  0  0  0  0  0  0  0  0  0  0  0
    4.0660   -0.5420    1.1990 C   0  0  0  0  0  0  0  0  0  0  0  0
    4.7610   -1.5910    0.6530 C   0  0  0  0  0  0  0  0  0  0  0  0
    4.5060   -2.8750    1.0520 C   0  0  0  0  0  0  0  0  0  0  0  0
    3.5570   -3.1770    2.0040 C   0  0  0  0  0  0  0  0  0  0  0  0
    2.8650   -2.1110    2.5440 C   0  0  0  0  0  0  0  0  0  0  0  0
    3.1060   -0.8230    2.1570 C   0  0  0  0  0  0  0  0  0  0  0  0
    2.1790    1.4580   -0.3190 C   0  0  0  0  0  0  0  0  0  0  0  0
    1.5650    2.5300    0.0190 O   0  0  0  0  0  0  0  0  0  0  0  0
    3.7270    3.2650   -1.2860 H   0  0  0  0  0  0  0  0  0  0  0  0
    5.1560    2.8250   -0.3760 H   0  0  0  0  0  0  0  0  0  0  0  0
    4.0590    0.9220   -1.2570 H   0  0  0  0  0  0  0  0  0  0  0  0
    5.4390    0.9070    0.6150 H   0  0  0  0  0  0  0  0  0  0  0  0
    4.2200    1.4710    1.7570 H   0  0  0  0  0  0  0  0  0  0  0  0
    5.5260   -1.4210   -0.1050 H   0  0  0  0  0  0  0  0  0  0  0  0
    5.0540   -3.7290    0.6270 H   0  0  0  0  0  0  0  0  0  0  0  0
    3.3500   -4.2010    2.3260 H   0  0  0  0  0  0  0  0  0  0  0  0
    2.1030   -2.2930    3.3020 H   0  0  0  0  0  0  0  0  0  0  0  0
    2.5240   -0.0090    2.6190 H   0  0  0  0  0  0  0  0  0  0  0  0
    1.3060    0.3660   -0.6580 N   0  0  0  0  0  0  0  0  0  0  0  0
   -0.1410    0.5240   -0.6060 C   0  0  1  0  0  0  0  0  0  0  0  0
   -0.6930    0.7440   -2.0110 C   0  0  0  0  0  0  0  0  0  0  0  0
   -2.1610    0.9230   -2.0280 C   0  0  0  0  0  0  0  0  0  0  0  0
   -2.7440    2.1820   -1.8540 C   0  0  0  0  0  0  0  0  0  0  0  0
   -4.1040    2.3830   -1.8750 C   0  0  0  0  0  0  0  0  0  0  0  0
   -4.9380    1.3080   -2.0750 C   0  0  0  0  0  0  0  0  0  0  0  0
   -4.4030    0.0410   -2.2530 C   0  0  0  0  0  0  0  0  0  0  0  0
   -3.0360   -0.1240   -2.2260 C   0  0  0  0  0  0  0  0  0  0  0  0
   -0.8110   -0.5780    0.1030 C   0  0  0  0  0  0  0  0  0  0  0  0
   -2.0530   -0.5930    0.2930 O   0  0  0  0  0  0  0  0  0  0  0  0
    1.7810   -0.5160   -0.9390 H   0  0  0  0  0  0  0  0  0  0  0  0
   -0.3540    1.4670   -0.0710 H   0  0  0  0  0  0  0  0  0  0  0  0
   -0.2420    1.6470   -2.4620 H   0  0  0  0  0  0  0  0  0  0  0  0
   -0.4360   -0.1040   -2.6830 H   0  0  0  0  0  0  0  0  0  0  0  0
   -2.1060    3.0590   -1.6910 H   0  0  0  0  0  0  0  0  0  0  0  0
   -4.5260    3.3660   -1.7360 H   0  0  0  0  0  0  0  0  0  0  0  0
   -6.0280    1.4030   -2.1010 H   0  0  0  0  0  0  0  0  0  0  0  0
   -5.1020   -0.7880   -2.4120 H   0  0  0  0  0  0  0  0  0  0  0  0
   -2.6500   -1.1440   -2.3750 H   0  0  0  0  0  0  0  0  0  0  0  0
   -4.7940   -2.8360    2.6090 C   0  0  0  0  0  0  0  0  0  0  0  0
   -3.4490   -4.0070    2.8600 S   0  0  0  0  0  0  0  0  0  0  0  0
   -1.9630   -3.2500    3.4870 C   0  0  0  0  0  0  0  0  0  0  0  0
   -1.2660   -2.2960    2.6010 C   0  0  0  0  0  0  0  0  0  0  0  0
   -0.7080   -2.8030    1.3340 C   0  0  2  0  0  0  0  0  0  0  0  0
   -0.0590   -1.6820    0.6060 N   0  0  0  0  0  0  0  0  0  0  0  0
   -1.5320   -3.5850    0.4330 C   0  0  0  0  0  0  0  0  0  0  0  0
   -1.6870   -3.1130   -0.7530 O   0  0  0  0  0  0  0  0  0  0  0  0
   -2.1720   -4.7720    0.6620 O   0  0  0  0  0  0  0  0  0  0  0  0
   -5.2700   -2.4900    3.5290 H   0  0  0  0  0  0  0  0  0  0  0  0
   -5.5810   -3.3770    2.0100 H   0  0  0  0  0  0  0  0  0  0  0  0
   -4.4520   -2.0090    1.9440 H   0  0  0  0  0  0  0  0  0  0  0  0
   -2.2050   -2.8000    4.4980 H   0  0  0  0  0  0  0  0  0  0  0  0
   -1.2530   -4.0930    3.7610 H   0  0  0  0  0  0  0  0  0  0  0  0
   -0.3770   -1.8620    3.1780 H   0  0  0  0  0  0  0  0  0  0  0  0
   -1.8840   -1.3570    2.4360 H   0  0  0  0  0  0  0  0  0  0  0  0
    0.1710   -3.4790    1.6160 H   0  0  0  0  0  0  0  0  0  0  0  0
    0.9710   -1.7140    0.4540 H   0  0  0  0  0  0  0  0  0  0  0  0
  1 13  1  0  0  0  0
  1  2  1  0  0  0  0
  2 14  1  6  0  0  0
  2 10  1  0  0  0  0
  2  3  1  0  0  0  0
  3  4  1  0  0  0  0
  3 16  1  0  0  0  0
  4  9  1  0  0  0  0
  5  6  1  0  0  0  0
  5  4  2  0  0  0  0
  6  7  2  0  0  0  0
  7 19  1  0  0  0  0
  7  8  1  0  0  0  0
  8 20  1  0  0  0  0
  9  8  2  0  0  0  0
  9 21  1  0  0  0  0
 10 11  2  0  0  0  0
 12  1  1  0  0  0  0
 15  3  1  0  0  0  0
 17  5  1  0  0  0  0
 18  6  1  0  0  0  0
 22 23  1  0  0  0  0
 22 10  1  0  0  0  0
 23 34  1  1  0  0  0
 23 31  1  0  0  0  0
 24 23  1  0  0  0  0
 25 24  1  0  0  0  0
 25 26  1  0  0  0  0
 26 37  1  0  0  0  0
 27 26  2  0  0  0  0
 27 38  1  0  0  0  0
 28 27  1  0  0  0  0
 29 30  1  0  0  0  0
 29 28  2  0  0  0  0
 30 25  2  0  0  0  0
 31 32  2  0  0  0  0
 31 47  1  0  0  0  0
 33 22  1  0  0  0  0
 35 24  1  0  0  0  0
 36 24  1  0  0  0  0
 39 28  1  0  0  0  0
 40 29  1  0  0  0  0
 41 30  1  0  0  0  0
 42 43  1  0  0  0  0
 42 51  1  0  0  0  0
 43 44  1  0  0  0  0
 44 55  1  0  0  0  0
 44 54  1  0  0  0  0
 45 56  1  0  0  0  0
 45 44  1  0  0  0  0
 46 58  1  1  0  0  0
 46 45  1  0  0  0  0
 47 46  1  0  0  0  0
 48 50  1  0  0  0  0
 48 46  1  0  0  0  0
 49 48  2  0  0  0  0
 52 42  1  0  0  0  0
 53 42  1  0  0  0  0
 57 45  1  0  0  0  0
 59 47  1  0  0  0  0
M  END
$$$$
