FFQ.pdb
 OpenBabel07022419003D

 59 60  0  0  1  0  0  0  0  0999 V2000
    2.4890    1.9630    3.0230 N   0  0  0  0  0  0  0  0  0  0  0  0
    1.9750    1.2370    1.8800 C   0  0  1  0  0  0  0  0  0  0  0  0
    2.4530   -0.2070    2.0510 C   0  0  0  0  0  0  0  0  0  0  0  0
    3.9380   -0.1780    2.0770 C   0  0  0  0  0  0  0  0  0  0  0  0
    4.6280   -0.0330    3.2620 C   0  0  0  0  0  0  0  0  0  0  0  0
    6.0220   -0.0020    3.3140 C   0  0  0  0  0  0  0  0  0  0  0  0
    6.7510   -0.1190    2.1640 C   0  0  0  0  0  0  0  0  0  0  0  0
    6.0700   -0.2640    0.9760 C   0  0  0  0  0  0  0  0  0  0  0  0
    4.6880   -0.2940    0.9240 C   0  0  0  0  0  0  0  0  0  0  0  0
    0.5010    1.3040    1.9060 C   0  0  0  0  0  0  0  0  0  0  0  0
   -0.0740    1.9180    2.8300 O   0  0  0  0  0  0  0  0  0  0  0  0
    1.8980    1.7370    3.8540 H   0  0  0  0  0  0  0  0  0  0  0  0
    2.4300    3.0030    2.8760 H   0  0  0  0  0  0  0  0  0  0  0  0
    2.4110    1.6790    0.9570 H   0  0  0  0  0  0  0  0  0  0  0  0
    2.1290   -0.8010    1.1840 H   0  0  0  0  0  0  0  0  0  0  0  0
    2.0440   -0.5510    3.0080 H   0  0  0  0  0  0  0  0  0  0  0  0
    4.0380    0.0590    4.1690 H   0  0  0  0  0  0  0  0  0  0  0  0
    6.5170    0.1120    4.2570 H   0  0  0  0  0  0  0  0  0  0  0  0
    7.8420   -0.1010    2.1500 H   0  0  0  0  0  0  0  0  0  0  0  0
    6.6410   -0.3580    0.0500 H   0  0  0  0  0  0  0  0  0  0  0  0
    4.1490   -0.4080   -0.0030 H   0  0  0  0  0  0  0  0  0  0  0  0
   -0.3060    0.6890    0.9060 N   0  0  0  0  0  0  0  0  0  0  0  0
   -1.7670    0.7560    0.9320 C   0  0  1  0  0  0  0  0  0  0  0  0
   -2.2970    1.5000   -0.2600 C   0  0  0  0  0  0  0  0  0  0  0  0
   -1.9290    0.9210   -1.5640 C   0  0  0  0  0  0  0  0  0  0  0  0
   -2.6610    0.0130   -2.2710 C   0  0  0  0  0  0  0  0  0  0  0  0
   -2.2310   -0.4710   -3.4920 C   0  0  0  0  0  0  0  0  0  0  0  0
   -1.0310   -0.0300   -4.0160 C   0  0  0  0  0  0  0  0  0  0  0  0
   -0.2760    0.8810   -3.3260 C   0  0  0  0  0  0  0  0  0  0  0  0
   -0.7210    1.3490   -2.1180 C   0  0  0  0  0  0  0  0  0  0  0  0
   -2.4230   -0.5430    1.0640 C   0  0  0  0  0  0  0  0  0  0  0  0
   -3.6900   -0.5790    1.0910 O   0  0  0  0  0  0  0  0  0  0  0  0
    0.1990    0.1840    0.1470 H   0  0  0  0  0  0  0  0  0  0  0  0
   -2.0340    1.3540    1.8680 H   0  0  0  0  0  0  0  0  0  0  0  0
   -1.9750    2.5780   -0.2500 H   0  0  0  0  0  0  0  0  0  0  0  0
   -3.4090    1.4440   -0.1910 H   0  0  0  0  0  0  0  0  0  0  0  0
   -3.5970   -0.3230   -1.8520 H   0  0  0  0  0  0  0  0  0  0  0  0
   -2.8480   -1.1880   -4.0180 H   0  0  0  0  0  0  0  0  0  0  0  0
   -0.7320   -0.4280   -4.9630 H   0  0  0  0  0  0  0  0  0  0  0  0
    0.6600    1.2040   -3.7690 H   0  0  0  0  0  0  0  0  0  0  0  0
   -0.0990    2.0800   -1.5810 H   0  0  0  0  0  0  0  0  0  0  0  0
   -4.4050   -2.9150   -2.5090 N   0  0  0  0  0  0  0  0  0  0  0  0
   -3.8260   -3.4450   -1.3020 C   0  0  0  0  0  0  0  0  0  0  0  0
   -4.6310   -3.7830   -0.4110 O   0  0  0  0  0  0  0  0  0  0  0  0
   -2.3640   -3.5760   -1.1450 C   0  0  0  0  0  0  0  0  0  0  0  0
   -2.0250   -4.0140    0.2370 C   0  0  0  0  0  0  0  0  0  0  0  0
   -2.4240   -3.0650    1.3210 C   0  0  2  0  0  0  0  0  0  0  0  0
   -1.7720   -1.7850    1.1700 N   0  0  0  0  0  0  0  0  0  0  0  0
   -2.0470   -3.7230    2.6080 C   0  0  0  0  0  0  0  0  0  0  0  0
   -1.2670   -3.2450    3.4530 O   0  0  0  0  0  0  0  0  0  0  0  0
   -2.6190   -4.9550    2.8600 O   0  0  0  0  0  0  0  0  0  0  0  0
   -3.9910   -3.2060   -3.4000 H   0  0  0  0  0  0  0  0  0  0  0  0
   -5.1950   -2.2770   -2.4680 H   0  0  0  0  0  0  0  0  0  0  0  0
   -2.0000   -4.3640   -1.8530 H   0  0  0  0  0  0  0  0  0  0  0  0
   -1.8590   -2.6000   -1.3510 H   0  0  0  0  0  0  0  0  0  0  0  0
   -2.4470   -5.0320    0.3960 H   0  0  0  0  0  0  0  0  0  0  0  0
   -0.9060   -4.1600    0.2710 H   0  0  0  0  0  0  0  0  0  0  0  0
   -3.5270   -2.9660    1.3680 H   0  0  0  0  0  0  0  0  0  0  0  0
   -0.7270   -1.7840    1.1370 H   0  0  0  0  0  0  0  0  0  0  0  0
  1 12  1  0  0  0  0
  2 14  1  6  0  0  0
  2 10  1  0  0  0  0
  2  3  1  0  0  0  0
  2  1  1  0  0  0  0
  3  4  1  0  0  0  0
  3 16  1  0  0  0  0
  4  5  1  0  0  0  0
  5  6  2  0  0  0  0
  5 17  1  0  0  0  0
  6 18  1  0  0  0  0
  7  6  1  0  0  0  0
  8  7  2  0  0  0  0
  9  8  1  0  0  0  0
  9  4  2  0  0  0  0
 10 11  2  0  0  0  0
 13  1  1  0  0  0  0
 15  3  1  0  0  0  0
 19  7  1  0  0  0  0
 20  8  1  0  0  0  0
 21  9  1  0  0  0  0
 22 23  1  0  0  0  0
 22 10  1  0  0  0  0
 23 31  1  0  0  0  0
 23 34  1  1  0  0  0
 24 35  1  0  0  0  0
 24 36  1  0  0  0  0
 24 23  1  0  0  0  0
 25 24  1  0  0  0  0
 26 37  1  0  0  0  0
 26 25  2  0  0  0  0
 27 26  1  0  0  0  0
 28 27  2  0  0  0  0
 28 29  1  0  0  0  0
 29 30  2  0  0  0  0
 30 41  1  0  0  0  0
 30 25  1  0  0  0  0
 31 32  2  0  0  0  0
 31 48  1  0  0  0  0
 33 22  1  0  0  0  0
 38 27  1  0  0  0  0
 39 28  1  0  0  0  0
 40 29  1  0  0  0  0
 42 53  1  0  0  0  0
 42 43  1  0  0  0  0
 43 45  1  0  0  0  0
 43 44  2  0  0  0  0
 45 46  1  0  0  0  0
 46 57  1  0  0  0  0
 46 56  1  0  0  0  0
 46 47  1  0  0  0  0
 47 58  1  6  0  0  0
 47 49  1  0  0  0  0
 48 47  1  0  0  0  0
 49 51  2  0  0  0  0
 49 50  1  0  0  0  0
 52 42  1  0  0  0  0
 54 45  1  0  0  0  0
 55 45  1  0  0  0  0
 59 48  1  0  0  0  0
M  END
$$$$
