FFR.pdb
 OpenBabel07022419003D

 65 66  0  0  1  0  0  0  0  0999 V2000
   -0.2250   -0.5670    5.6650 N   0  0  0  0  0  0  0  0  0  0  0  0
   -0.2470    0.5140    4.6960 C   0  0  1  0  0  0  0  0  0  0  0  0
    1.0860    1.1940    4.6350 C   0  0  0  0  0  0  0  0  0  0  0  0
    2.2000    0.3060    4.2580 C   0  0  0  0  0  0  0  0  0  0  0  0
    2.8890   -0.3750    5.2470 C   0  0  0  0  0  0  0  0  0  0  0  0
    3.9420   -1.2220    4.9810 C   0  0  0  0  0  0  0  0  0  0  0  0
    4.2900   -1.3680    3.6580 C   0  0  0  0  0  0  0  0  0  0  0  0
    3.6300   -0.7090    2.6530 C   0  0  0  0  0  0  0  0  0  0  0  0
    2.5910    0.1220    2.9590 C   0  0  0  0  0  0  0  0  0  0  0  0
   -0.7580    0.0160    3.4200 C   0  0  0  0  0  0  0  0  0  0  0  0
   -1.0060   -1.2120    3.2790 O   0  0  0  0  0  0  0  0  0  0  0  0
   -0.0720   -0.2150    6.6180 H   0  0  0  0  0  0  0  0  0  0  0  0
    0.5410   -1.2160    5.3900 H   0  0  0  0  0  0  0  0  0  0  0  0
   -0.9750    1.2810    5.0810 H   0  0  0  0  0  0  0  0  0  0  0  0
    0.9980    2.0940    3.9800 H   0  0  0  0  0  0  0  0  0  0  0  0
    1.2750    1.6100    5.6620 H   0  0  0  0  0  0  0  0  0  0  0  0
    2.6200   -0.2650    6.2950 H   0  0  0  0  0  0  0  0  0  0  0  0
    4.4620   -1.7410    5.7760 H   0  0  0  0  0  0  0  0  0  0  0  0
    5.1180   -2.0280    3.3970 H   0  0  0  0  0  0  0  0  0  0  0  0
    3.9290   -0.8430    1.6010 H   0  0  0  0  0  0  0  0  0  0  0  0
    2.0690    0.6460    2.1430 H   0  0  0  0  0  0  0  0  0  0  0  0
   -1.0000    0.8350    2.3070 N   0  0  0  0  0  0  0  0  0  0  0  0
   -1.5230    0.3110    1.0240 C   0  0  1  0  0  0  0  0  0  0  0  0
   -2.9290    0.8010    0.8680 C   0  0  0  0  0  0  0  0  0  0  0  0
   -3.5660    0.3520   -0.3640 C   0  0  0  0  0  0  0  0  0  0  0  0
   -3.6050    1.1230   -1.4980 C   0  0  0  0  0  0  0  0  0  0  0  0
   -4.2440    0.6480   -2.6530 C   0  0  0  0  0  0  0  0  0  0  0  0
   -4.8400   -0.5970   -2.6670 C   0  0  0  0  0  0  0  0  0  0  0  0
   -4.8070   -1.3800   -1.5310 C   0  0  0  0  0  0  0  0  0  0  0  0
   -4.1710   -0.8890   -0.4070 C   0  0  0  0  0  0  0  0  0  0  0  0
   -0.5880    0.6130   -0.0580 C   0  0  0  0  0  0  0  0  0  0  0  0
    0.4040    1.4220    0.1280 O   0  0  0  0  0  0  0  0  0  0  0  0
   -0.8220    1.8500    2.3370 H   0  0  0  0  0  0  0  0  0  0  0  0
   -1.5810   -0.7850    1.1660 H   0  0  0  0  0  0  0  0  0  0  0  0
   -3.0070    1.9090    1.0090 H   0  0  0  0  0  0  0  0  0  0  0  0
   -3.5050    0.3420    1.7360 H   0  0  0  0  0  0  0  0  0  0  0  0
   -3.1400    2.0980   -1.4950 H   0  0  0  0  0  0  0  0  0  0  0  0
   -4.2800    1.2480   -3.5500 H   0  0  0  0  0  0  0  0  0  0  0  0
   -5.3360   -0.9600   -3.5700 H   0  0  0  0  0  0  0  0  0  0  0  0
   -5.2720   -2.3430   -1.5550 H   0  0  0  0  0  0  0  0  0  0  0  0
   -4.1480   -1.5070    0.4790 H   0  0  0  0  0  0  0  0  0  0  0  0
   -0.8040   -4.4450   -1.9660 N   0  0  0  0  0  0  0  0  0  0  0  0
    0.4740   -4.0930   -1.4710 C   0  0  0  0  0  0  0  0  0  0  0  0
    0.7360   -4.2560   -0.1990 N   0  0  0  0  0  0  0  0  0  0  0  0
    1.5040   -3.5660   -2.2810 N   0  0  0  0  0  0  0  0  0  0  0  0
    2.4900   -2.6440   -1.7610 C   0  0  0  0  0  0  0  0  0  0  0  0
    1.7230   -1.3490   -1.4580 C   0  0  0  0  0  0  0  0  0  0  0  0
    1.0910   -0.8180   -2.7330 C   0  0  0  0  0  0  0  0  0  0  0  0
    0.3540    0.4550   -2.3620 C   0  0  2  0  0  0  0  0  0  0  0  0
   -0.6440    0.0810   -1.3720 N   0  0  0  0  0  0  0  0  0  0  0  0
   -0.1750    1.1010   -3.5590 C   0  0  0  0  0  0  0  0  0  0  0  0
   -1.3510    1.3710   -3.8300 O   0  0  0  0  0  0  0  0  0  0  0  0
    0.7750    1.4660   -4.5360 O   0  0  0  0  0  0  0  0  0  0  0  0
   -0.9110   -4.9030   -2.8910 H   0  0  0  0  0  0  0  0  0  0  0  0
   -1.6420   -4.2370   -1.3900 H   0  0  0  0  0  0  0  0  0  0  0  0
    0.0300   -4.6350    0.4430 H   0  0  0  0  0  0  0  0  0  0  0  0
    1.5360   -3.8640   -3.2840 H   0  0  0  0  0  0  0  0  0  0  0  0
    3.2350   -2.3940   -2.5230 H   0  0  0  0  0  0  0  0  0  0  0  0
    2.9460   -3.0220   -0.8120 H   0  0  0  0  0  0  0  0  0  0  0  0
    0.9630   -1.6270   -0.7090 H   0  0  0  0  0  0  0  0  0  0  0  0
    2.4340   -0.6170   -1.0390 H   0  0  0  0  0  0  0  0  0  0  0  0
    0.3260   -1.5860   -3.0470 H   0  0  0  0  0  0  0  0  0  0  0  0
    1.8530   -0.6640   -3.5090 H   0  0  0  0  0  0  0  0  0  0  0  0
    1.1140    1.1470   -1.9290 H   0  0  0  0  0  0  0  0  0  0  0  0
   -1.4020   -0.5950   -1.6130 H   0  0  0  0  0  0  0  0  0  0  0  0
  1 12  1  0  0  0  0
  2 14  1  1  0  0  0
  2  1  1  0  0  0  0
  3  2  1  0  0  0  0
  3 16  1  0  0  0  0
  4  3  1  0  0  0  0
  4  5  1  0  0  0  0
  5 17  1  0  0  0  0
  6  5  2  0  0  0  0
  6 18  1  0  0  0  0
  7  6  1  0  0  0  0
  8  9  1  0  0  0  0
  8  7  2  0  0  0  0
  9  4  2  0  0  0  0
 10  2  1  0  0  0  0
 11 10  2  0  0  0  0
 13  1  1  0  0  0  0
 15  3  1  0  0  0  0
 19  7  1  0  0  0  0
 20  8  1  0  0  0  0
 21  9  1  0  0  0  0
 22 33  1  0  0  0  0
 22 10  1  0  0  0  0
 23 34  1  1  0  0  0
 23 22  1  0  0  0  0
 24 35  1  0  0  0  0
 24 23  1  0  0  0  0
 24 36  1  0  0  0  0
 25 24  1  0  0  0  0
 26 37  1  0  0  0  0
 26 25  2  0  0  0  0
 27 26  1  0  0  0  0
 28 27  2  0  0  0  0
 28 29  1  0  0  0  0
 29 30  2  0  0  0  0
 30 25  1  0  0  0  0
 30 41  1  0  0  0  0
 31 32  2  0  0  0  0
 31 23  1  0  0  0  0
 38 27  1  0  0  0  0
 39 28  1  0  0  0  0
 40 29  1  0  0  0  0
 42 43  1  0  0  0  0
 42 55  1  0  0  0  0
 43 44  2  0  0  0  0
 44 56  1  0  0  0  0
 45 46  1  0  0  0  0
 45 43  1  0  0  0  0
 46 47  1  0  0  0  0
 46 59  1  0  0  0  0
 47 61  1  0  0  0  0
 47 60  1  0  0  0  0
 48 49  1  0  0  0  0
 48 47  1  0  0  0  0
 49 64  1  1  0  0  0
 49 50  1  0  0  0  0
 50 31  1  0  0  0  0
 51 49  1  0  0  0  0
 52 51  1  0  0  0  0
 53 51  2  0  0  0  0
 54 42  1  0  0  0  0
 57 45  1  0  0  0  0
 58 46  1  0  0  0  0
 62 48  1  0  0  0  0
 63 48  1  0  0  0  0
 65 50  1  0  0  0  0
M  END
$$$$
