FFT.pdb
 OpenBabel07022419003D

 56 57  0  0  1  0  0  0  0  0999 V2000
    2.6660   -0.3660    0.4470 N   0  0  0  0  0  0  0  0  0  0  0  0
    2.1030   -0.0340    1.7420 C   0  0  1  0  0  0  0  0  0  0  0  0
    2.7330    1.2490    2.2360 C   0  0  0  0  0  0  0  0  0  0  0  0
    4.2010    0.9920    2.3360 C   0  0  0  0  0  0  0  0  0  0  0  0
    5.0320    1.2350    1.2620 C   0  0  0  0  0  0  0  0  0  0  0  0
    6.3920    1.0060    1.3260 C   0  0  0  0  0  0  0  0  0  0  0  0
    6.9790    0.5230    2.4770 C   0  0  0  0  0  0  0  0  0  0  0  0
    6.1580    0.2770    3.5580 C   0  0  0  0  0  0  0  0  0  0  0  0
    4.7960    0.5090    3.4840 C   0  0  0  0  0  0  0  0  0  0  0  0
    0.6210    0.0580    1.6710 C   0  0  0  0  0  0  0  0  0  0  0  0
   -0.0210    0.3370    2.7020 O   0  0  0  0  0  0  0  0  0  0  0  0
    2.3070    0.3380   -0.2350 H   0  0  0  0  0  0  0  0  0  0  0  0
    2.3430   -1.2990    0.1090 H   0  0  0  0  0  0  0  0  0  0  0  0
    2.3310   -0.8900    2.4110 H   0  0  0  0  0  0  0  0  0  0  0  0
    2.6100    2.0220    1.4550 H   0  0  0  0  0  0  0  0  0  0  0  0
    2.2950    1.5910    3.1810 H   0  0  0  0  0  0  0  0  0  0  0  0
    4.5780    1.6170    0.3500 H   0  0  0  0  0  0  0  0  0  0  0  0
    7.0520    1.1930    0.4900 H   0  0  0  0  0  0  0  0  0  0  0  0
    8.0520    0.3430    2.5250 H   0  0  0  0  0  0  0  0  0  0  0  0
    6.6230   -0.1040    4.4630 H   0  0  0  0  0  0  0  0  0  0  0  0
    4.1450    0.3170    4.3290 H   0  0  0  0  0  0  0  0  0  0  0  0
   -0.1160   -0.1560    0.4750 N   0  0  0  0  0  0  0  0  0  0  0  0
   -1.5690   -0.0610    0.4270 C   0  0  1  0  0  0  0  0  0  0  0  0
   -2.0060    1.0550   -0.4840 C   0  0  0  0  0  0  0  0  0  0  0  0
   -3.4670    1.1560   -0.5370 C   0  0  0  0  0  0  0  0  0  0  0  0
   -4.1690    1.9070    0.4010 C   0  0  0  0  0  0  0  0  0  0  0  0
   -5.5410    2.0200    0.3430 C   0  0  0  0  0  0  0  0  0  0  0  0
   -6.2770    1.3990   -0.6410 C   0  0  0  0  0  0  0  0  0  0  0  0
   -5.6000    0.6590   -1.5690 C   0  0  0  0  0  0  0  0  0  0  0  0
   -4.2250    0.5450   -1.5120 C   0  0  0  0  0  0  0  0  0  0  0  0
   -2.1780   -1.3550    0.0600 C   0  0  0  0  0  0  0  0  0  0  0  0
   -3.4150   -1.5540   -0.0010 O   0  0  0  0  0  0  0  0  0  0  0  0
    0.4050   -0.3870   -0.3800 H   0  0  0  0  0  0  0  0  0  0  0  0
   -1.9590    0.1980    1.4500 H   0  0  0  0  0  0  0  0  0  0  0  0
   -1.5700    2.0040   -0.0520 H   0  0  0  0  0  0  0  0  0  0  0  0
   -1.6030    0.9370   -1.5110 H   0  0  0  0  0  0  0  0  0  0  0  0
   -3.6020    2.4110    1.1960 H   0  0  0  0  0  0  0  0  0  0  0  0
   -6.0720    2.6050    1.0770 H   0  0  0  0  0  0  0  0  0  0  0  0
   -7.3500    1.4650   -0.7180 H   0  0  0  0  0  0  0  0  0  0  0  0
   -6.1270    0.1510   -2.3630 H   0  0  0  0  0  0  0  0  0  0  0  0
   -3.6980   -0.0500   -2.2660 H   0  0  0  0  0  0  0  0  0  0  0  0
   -0.1420   -4.2120   -2.2580 C   0  0  0  0  0  0  0  0  0  0  0  0
   -1.6260   -4.1320   -2.0720 C   0  0  1  0  0  0  0  0  0  0  0  0
   -2.2030   -5.3510   -2.3940 O   0  0  0  0  0  0  0  0  0  0  0  0
   -1.9650   -3.7760   -0.6210 C   0  0  2  0  0  0  0  0  0  0  0  0
   -1.3730   -2.5040   -0.2600 N   0  0  0  0  0  0  0  0  0  0  0  0
   -1.5940   -4.8540    0.3090 C   0  0  0  0  0  0  0  0  0  0  0  0
   -2.0520   -6.0000    0.0920 O   0  0  0  0  0  0  0  0  0  0  0  0
   -0.7660   -4.6780    1.4160 O   0  0  0  0  0  0  0  0  0  0  0  0
    0.3560   -4.4040   -1.2890 H   0  0  0  0  0  0  0  0  0  0  0  0
    0.2090   -3.2650   -2.7410 H   0  0  0  0  0  0  0  0  0  0  0  0
    0.1120   -5.0580   -2.9540 H   0  0  0  0  0  0  0  0  0  0  0  0
   -2.0540   -3.3300   -2.7110 H   0  0  0  0  0  0  0  0  0  0  0  0
   -3.1830   -5.3130   -2.3730 H   0  0  0  0  0  0  0  0  0  0  0  0
   -3.0750   -3.6600   -0.5930 H   0  0  0  0  0  0  0  0  0  0  0  0
   -0.3520   -2.4330   -0.2350 H   0  0  0  0  0  0  0  0  0  0  0  0
  1  2  1  0  0  0  0
  2  3  1  0  0  0  0
  2 14  1  1  0  0  0
  3  4  1  0  0  0  0
  3 16  1  0  0  0  0
  4  9  1  0  0  0  0
  5  6  1  0  0  0  0
  5  4  2  0  0  0  0
  6  7  2  0  0  0  0
  7 19  1  0  0  0  0
  7  8  1  0  0  0  0
  8 20  1  0  0  0  0
  9  8  2  0  0  0  0
  9 21  1  0  0  0  0
 10  2  1  0  0  0  0
 10 11  2  0  0  0  0
 12  1  1  0  0  0  0
 13  1  1  0  0  0  0
 15  3  1  0  0  0  0
 17  5  1  0  0  0  0
 18  6  1  0  0  0  0
 22 10  1  0  0  0  0
 23 22  1  0  0  0  0
 23 34  1  1  0  0  0
 24 35  1  0  0  0  0
 24 23  1  0  0  0  0
 25 24  1  0  0  0  0
 25 26  1  0  0  0  0
 26 37  1  0  0  0  0
 27 26  2  0  0  0  0
 27 38  1  0  0  0  0
 28 27  1  0  0  0  0
 29 30  1  0  0  0  0
 29 28  2  0  0  0  0
 30 25  2  0  0  0  0
 31 23  1  0  0  0  0
 32 31  2  0  0  0  0
 33 22  1  0  0  0  0
 36 24  1  0  0  0  0
 39 28  1  0  0  0  0
 40 29  1  0  0  0  0
 41 30  1  0  0  0  0
 42 43  1  0  0  0  0
 42 50  1  0  0  0  0
 43 53  1  6  0  0  0
 43 45  1  0  0  0  0
 44 54  1  0  0  0  0
 44 43  1  0  0  0  0
 45 55  1  1  0  0  0
 45 46  1  0  0  0  0
 45 47  1  0  0  0  0
 46 56  1  0  0  0  0
 46 31  1  0  0  0  0
 47 49  1  0  0  0  0
 48 47  2  0  0  0  0
 51 42  1  0  0  0  0
 52 42  1  0  0  0  0
M  END
$$$$
