FFV.pdb
 OpenBabel07022419003D

 58 59  0  0  1  0  0  0  0  0999 V2000
    3.0190   -0.3680    0.2010 N   0  0  0  0  0  0  0  0  0  0  0  0
    2.5160    0.7290    0.9950 C   0  0  1  0  0  0  0  0  0  0  0  0
    3.2220    1.9990    0.6540 C   0  0  0  0  0  0  0  0  0  0  0  0
    4.6700    1.8070    0.9320 C   0  0  0  0  0  0  0  0  0  0  0  0
    5.5340    1.3300   -0.0350 C   0  0  0  0  0  0  0  0  0  0  0  0
    6.8720    1.1580    0.2370 C   0  0  0  0  0  0  0  0  0  0  0  0
    7.4180    1.4460    1.4680 C   0  0  0  0  0  0  0  0  0  0  0  0
    6.5580    1.9230    2.4340 C   0  0  0  0  0  0  0  0  0  0  0  0
    5.2160    2.0990    2.1720 C   0  0  0  0  0  0  0  0  0  0  0  0
    1.0370    0.8440    0.9100 C   0  0  0  0  0  0  0  0  0  0  0  0
    0.4360    1.7500    1.5440 O   0  0  0  0  0  0  0  0  0  0  0  0
    2.5160   -1.2310    0.5360 H   0  0  0  0  0  0  0  0  0  0  0  0
    2.8460   -0.2590   -0.8080 H   0  0  0  0  0  0  0  0  0  0  0  0
    2.7640    0.4880    2.0610 H   0  0  0  0  0  0  0  0  0  0  0  0
    2.7960    2.8100    1.3000 H   0  0  0  0  0  0  0  0  0  0  0  0
    3.1020    2.2930   -0.4060 H   0  0  0  0  0  0  0  0  0  0  0  0
    5.1050    1.1000   -1.0130 H   0  0  0  0  0  0  0  0  0  0  0  0
    7.5400    0.7820   -0.5310 H   0  0  0  0  0  0  0  0  0  0  0  0
    8.4720    1.3170    1.7020 H   0  0  0  0  0  0  0  0  0  0  0  0
    6.9380    2.1630    3.4130 H   0  0  0  0  0  0  0  0  0  0  0  0
    4.5610    2.4770    2.9550 H   0  0  0  0  0  0  0  0  0  0  0  0
    0.2300   -0.0320    0.1330 N   0  0  0  0  0  0  0  0  0  0  0  0
   -1.2230    0.0900    0.0570 C   0  0  1  0  0  0  0  0  0  0  0  0
   -1.6770    0.3750   -1.3360 C   0  0  0  0  0  0  0  0  0  0  0  0
   -3.1430    0.5000   -1.4220 C   0  0  0  0  0  0  0  0  0  0  0  0
   -3.7840    1.7210   -1.1720 C   0  0  0  0  0  0  0  0  0  0  0  0
   -5.1450    1.8430   -1.2770 C   0  0  0  0  0  0  0  0  0  0  0  0
   -5.9120    0.7620   -1.6310 C   0  0  0  0  0  0  0  0  0  0  0  0
   -5.2610   -0.4300   -1.8710 C   0  0  0  0  0  0  0  0  0  0  0  0
   -3.8980   -0.6000   -1.7790 C   0  0  0  0  0  0  0  0  0  0  0  0
   -1.8810   -1.1080    0.6320 C   0  0  0  0  0  0  0  0  0  0  0  0
   -3.1330   -1.1710    0.7220 O   0  0  0  0  0  0  0  0  0  0  0  0
    0.7190   -0.7860   -0.3960 H   0  0  0  0  0  0  0  0  0  0  0  0
   -1.5390    0.9530    0.6930 H   0  0  0  0  0  0  0  0  0  0  0  0
   -1.2740    1.3830   -1.6550 H   0  0  0  0  0  0  0  0  0  0  0  0
   -1.3020   -0.3550   -2.0810 H   0  0  0  0  0  0  0  0  0  0  0  0
   -3.1590    2.5590   -0.8960 H   0  0  0  0  0  0  0  0  0  0  0  0
   -5.6250    2.7850   -1.0830 H   0  0  0  0  0  0  0  0  0  0  0  0
   -7.0080    0.8320   -1.7220 H   0  0  0  0  0  0  0  0  0  0  0  0
   -5.8390   -1.3170   -2.1560 H   0  0  0  0  0  0  0  0  0  0  0  0
   -3.4280   -1.5750   -1.9820 H   0  0  0  0  0  0  0  0  0  0  0  0
   -1.8710   -4.5420   -0.5540 C   0  0  0  0  0  0  0  0  0  0  0  0
   -1.4780   -4.6420    0.9140 C   0  0  0  0  0  0  0  0  0  0  0  0
   -2.2700   -5.7650    1.5260 C   0  0  0  0  0  0  0  0  0  0  0  0
   -1.7960   -3.3560    1.6450 C   0  0  2  0  0  0  0  0  0  0  0  0
   -1.1040   -2.2260    1.1000 N   0  0  0  0  0  0  0  0  0  0  0  0
   -1.4010   -3.5300    3.0610 C   0  0  0  0  0  0  0  0  0  0  0  0
   -1.8960   -4.4840    3.7590 O   0  0  0  0  0  0  0  0  0  0  0  0
   -0.4920   -2.6510    3.6170 O   0  0  0  0  0  0  0  0  0  0  0  0
   -1.1990   -3.8870   -1.1240 H   0  0  0  0  0  0  0  0  0  0  0  0
   -2.9490   -4.2220   -0.6260 H   0  0  0  0  0  0  0  0  0  0  0  0
   -1.8170   -5.5670   -0.9700 H   0  0  0  0  0  0  0  0  0  0  0  0
   -0.4130   -4.8860    0.9670 H   0  0  0  0  0  0  0  0  0  0  0  0
   -1.6120   -6.3170    2.2370 H   0  0  0  0  0  0  0  0  0  0  0  0
   -3.1870   -5.3680    2.0230 H   0  0  0  0  0  0  0  0  0  0  0  0
   -2.5530   -6.4870    0.7140 H   0  0  0  0  0  0  0  0  0  0  0  0
   -2.9070   -3.2180    1.6380 H   0  0  0  0  0  0  0  0  0  0  0  0
   -0.0740   -2.1880    1.0330 H   0  0  0  0  0  0  0  0  0  0  0  0
  1 12  1  0  0  0  0
  1  2  1  0  0  0  0
  2 14  1  1  0  0  0
  3  4  1  0  0  0  0
  3  2  1  0  0  0  0
  3 15  1  0  0  0  0
  4  9  1  0  0  0  0
  5  6  1  0  0  0  0
  5  4  2  0  0  0  0
  6  7  2  0  0  0  0
  7 19  1  0  0  0  0
  7  8  1  0  0  0  0
  8 20  1  0  0  0  0
  9  8  2  0  0  0  0
  9 21  1  0  0  0  0
 10  2  1  0  0  0  0
 10 11  2  0  0  0  0
 13  1  1  0  0  0  0
 16  3  1  0  0  0  0
 17  5  1  0  0  0  0
 18  6  1  0  0  0  0
 22 10  1  0  0  0  0
 23 22  1  0  0  0  0
 23 31  1  0  0  0  0
 23 34  1  1  0  0  0
 24 23  1  0  0  0  0
 25 24  1  0  0  0  0
 25 26  1  0  0  0  0
 26 37  1  0  0  0  0
 27 26  2  0  0  0  0
 27 38  1  0  0  0  0
 28 27  1  0  0  0  0
 29 30  1  0  0  0  0
 29 28  2  0  0  0  0
 30 25  2  0  0  0  0
 31 32  2  0  0  0  0
 31 46  1  0  0  0  0
 33 22  1  0  0  0  0
 35 24  1  0  0  0  0
 36 24  1  0  0  0  0
 39 28  1  0  0  0  0
 40 29  1  0  0  0  0
 41 30  1  0  0  0  0
 42 43  1  0  0  0  0
 43 53  1  0  0  0  0
 43 44  1  0  0  0  0
 43 45  1  0  0  0  0
 44 55  1  0  0  0  0
 44 54  1  0  0  0  0
 45 57  1  6  0  0  0
 45 47  1  0  0  0  0
 46 45  1  0  0  0  0
 47 49  2  0  0  0  0
 47 48  1  0  0  0  0
 50 42  1  0  0  0  0
 51 42  1  0  0  0  0
 52 42  1  0  0  0  0
 56 44  1  0  0  0  0
 58 46  1  0  0  0  0
M  END
$$$$
