FGD.pdb
 OpenBabel07022418593D

 42 42  0  0  1  0  0  0  0  0999 V2000
    2.0160   -2.9900    1.4190 N   0  0  0  0  0  0  0  0  0  0  0  0
    3.0550   -2.3860    0.6410 C   0  0  1  0  0  0  0  0  0  0  0  0
    3.0090   -2.9400   -0.7440 C   0  0  0  0  0  0  0  0  0  0  0  0
    1.7330   -2.7040   -1.4510 C   0  0  0  0  0  0  0  0  0  0  0  0
    1.6030   -1.5640   -2.2040 C   0  0  0  0  0  0  0  0  0  0  0  0
    0.4170   -1.2910   -2.8920 C   0  0  0  0  0  0  0  0  0  0  0  0
   -0.6290   -2.1860   -2.8060 C   0  0  0  0  0  0  0  0  0  0  0  0
   -0.5100   -3.3300   -2.0550 C   0  0  0  0  0  0  0  0  0  0  0  0
    0.6650   -3.5710   -1.3920 C   0  0  0  0  0  0  0  0  0  0  0  0
    2.9710   -0.9170    0.5900 C   0  0  0  0  0  0  0  0  0  0  0  0
    3.8040   -0.2100   -0.0250 O   0  0  0  0  0  0  0  0  0  0  0  0
    1.9400   -2.6200    2.3850 H   0  0  0  0  0  0  0  0  0  0  0  0
    2.2040   -4.0190    1.4520 H   0  0  0  0  0  0  0  0  0  0  0  0
    4.0360   -2.7280    1.0800 H   0  0  0  0  0  0  0  0  0  0  0  0
    3.8210   -2.4740   -1.3380 H   0  0  0  0  0  0  0  0  0  0  0  0
    3.2540   -4.0390   -0.7310 H   0  0  0  0  0  0  0  0  0  0  0  0
    2.4070   -0.8340   -2.2980 H   0  0  0  0  0  0  0  0  0  0  0  0
    0.3100   -0.3910   -3.4880 H   0  0  0  0  0  0  0  0  0  0  0  0
   -1.5750   -2.0200   -3.3230 H   0  0  0  0  0  0  0  0  0  0  0  0
   -1.3480   -4.0150   -2.0060 H   0  0  0  0  0  0  0  0  0  0  0  0
    0.7750   -4.4590   -0.8010 H   0  0  0  0  0  0  0  0  0  0  0  0
    1.8970   -0.2040    1.2660 N   0  0  0  0  0  0  0  0  0  0  0  0
    1.8700    1.2240    1.1800 C   0  0  0  0  0  0  0  0  0  0  0  0
    0.7410    1.8110    1.9010 C   0  0  0  0  0  0  0  0  0  0  0  0
    0.6780    3.1100    1.8490 O   0  0  0  0  0  0  0  0  0  0  0  0
    1.2220   -0.7950    1.7660 H   0  0  0  0  0  0  0  0  0  0  0  0
    2.8330    1.6660    1.5860 H   0  0  0  0  0  0  0  0  0  0  0  0
    1.8850    1.5290    0.1050 H   0  0  0  0  0  0  0  0  0  0  0  0
   -0.2510    1.1100    2.6240 N   0  0  0  0  0  0  0  0  0  0  0  0
   -1.3230    1.8320    3.2960 C   0  0  1  0  0  0  0  0  0  0  0  0
   -2.6800    1.4200    2.7870 C   0  0  0  0  0  0  0  0  0  0  0  0
   -2.8960    1.6440    1.3670 C   0  0  0  0  0  0  0  0  0  0  0  0
   -2.0060    2.1420    0.6530 O   0  0  0  0  0  0  0  0  0  0  0  0
   -1.2990    1.5200    4.7390 C   0  0  0  0  0  0  0  0  0  0  0  0
   -2.1370    2.0370    5.5010 O   0  0  0  0  0  0  0  0  0  0  0  0
   -4.1030    1.3040    0.7990 O   0  0  0  0  0  0  0  0  0  0  0  0
   -0.3530    0.6610    5.2420 O   0  0  0  0  0  0  0  0  0  0  0  0
   -0.2070    0.0790    2.6710 H   0  0  0  0  0  0  0  0  0  0  0  0
   -1.1790    2.9040    3.0880 H   0  0  0  0  0  0  0  0  0  0  0  0
   -2.8390    0.3570    3.0700 H   0  0  0  0  0  0  0  0  0  0  0  0
   -3.4290    2.0030    3.3570 H   0  0  0  0  0  0  0  0  0  0  0  0
   -4.2940    1.3190   -0.1930 H   0  0  0  0  0  0  0  0  0  0  0  0
  1 13  1  0  0  0  0
  1 12  1  0  0  0  0
  2 14  1  1  0  0  0
  2  1  1  0  0  0  0
  3 16  1  0  0  0  0
  3  2  1  0  0  0  0
  4  9  1  0  0  0  0
  4  3  1  0  0  0  0
  5  4  2  0  0  0  0
  6  7  2  0  0  0  0
  6  5  1  0  0  0  0
  7  8  1  0  0  0  0
  8 20  1  0  0  0  0
  8  9  2  0  0  0  0
  9 21  1  0  0  0  0
 10  2  1  0  0  0  0
 10 22  1  0  0  0  0
 11 10  2  0  0  0  0
 15  3  1  0  0  0  0
 17  5  1  0  0  0  0
 18  6  1  0  0  0  0
 19  7  1  0  0  0  0
 22 26  1  0  0  0  0
 23 22  1  0  0  0  0
 23 27  1  0  0  0  0
 23 24  1  0  0  0  0
 24 29  1  0  0  0  0
 25 24  2  0  0  0  0
 28 23  1  0  0  0  0
 29 38  1  0  0  0  0
 29 30  1  0  0  0  0
 30 39  1  6  0  0  0
 30 34  1  0  0  0  0
 31 40  1  0  0  0  0
 31 30  1  0  0  0  0
 31 41  1  0  0  0  0
 32 31  1  0  0  0  0
 33 32  2  0  0  0  0
 34 37  2  0  0  0  0
 34 35  1  0  0  0  0
 36 32  1  0  0  0  0
 42 36  1  0  0  0  0
M  END
$$$$
