FGE.pdb
 OpenBabel07022418593D

 45 45  0  0  1  0  0  0  0  0999 V2000
    3.7040    0.9400    0.1640 N   0  0  0  0  0  0  0  0  0  0  0  0
    2.9240    0.9730    1.3900 C   0  0  1  0  0  0  0  0  0  0  0  0
    1.9040    2.0930    1.2740 C   0  0  0  0  0  0  0  0  0  0  0  0
    2.5330    3.4020    1.0810 C   0  0  0  0  0  0  0  0  0  0  0  0
    2.8020    3.8930   -0.1780 C   0  0  0  0  0  0  0  0  0  0  0  0
    3.3950    5.1290   -0.3240 C   0  0  0  0  0  0  0  0  0  0  0  0
    3.7420    5.9170    0.7570 C   0  0  0  0  0  0  0  0  0  0  0  0
    3.4720    5.4210    2.0150 C   0  0  0  0  0  0  0  0  0  0  0  0
    2.8760    4.1820    2.1670 C   0  0  0  0  0  0  0  0  0  0  0  0
    2.1790   -0.3020    1.4990 C   0  0  0  0  0  0  0  0  0  0  0  0
    1.4360   -0.4870    2.4880 O   0  0  0  0  0  0  0  0  0  0  0  0
    3.1110    0.8830   -0.6810 H   0  0  0  0  0  0  0  0  0  0  0  0
    4.4830    0.2770    0.1930 H   0  0  0  0  0  0  0  0  0  0  0  0
    3.6200    1.1410    2.2390 H   0  0  0  0  0  0  0  0  0  0  0  0
    1.3450    2.1110    2.2510 H   0  0  0  0  0  0  0  0  0  0  0  0
    1.1710    1.8100    0.4970 H   0  0  0  0  0  0  0  0  0  0  0  0
    2.5500    3.3120   -1.0800 H   0  0  0  0  0  0  0  0  0  0  0  0
    3.5800    5.4610   -1.3500 H   0  0  0  0  0  0  0  0  0  0  0  0
    4.2120    6.8940    0.6140 H   0  0  0  0  0  0  0  0  0  0  0  0
    3.7460    6.0420    2.8710 H   0  0  0  0  0  0  0  0  0  0  0  0
    2.6990    3.8670    3.2030 H   0  0  0  0  0  0  0  0  0  0  0  0
    2.2880   -1.3050    0.5190 N   0  0  0  0  0  0  0  0  0  0  0  0
    1.5780   -2.5630    0.5850 C   0  0  0  0  0  0  0  0  0  0  0  0
    0.1130   -2.3690    0.6130 C   0  0  0  0  0  0  0  0  0  0  0  0
   -0.3330   -1.1950    0.5850 O   0  0  0  0  0  0  0  0  0  0  0  0
    2.9250   -1.1320   -0.3140 H   0  0  0  0  0  0  0  0  0  0  0  0
    1.9130   -3.0550    1.5440 H   0  0  0  0  0  0  0  0  0  0  0  0
    1.9160   -3.2520   -0.2100 H   0  0  0  0  0  0  0  0  0  0  0  0
   -0.8140   -3.4340    0.6680 N   0  0  0  0  0  0  0  0  0  0  0  0
   -2.2800   -3.2050    0.6950 C   0  0  1  0  0  0  0  0  0  0  0  0
   -2.8670   -3.7630   -0.5460 C   0  0  0  0  0  0  0  0  0  0  0  0
   -4.3360   -3.6830   -0.6790 C   0  0  0  0  0  0  0  0  0  0  0  0
   -5.1330   -4.5260    0.2190 C   0  0  0  0  0  0  0  0  0  0  0  0
   -6.3330   -4.2130    0.4440 O   0  0  0  0  0  0  0  0  0  0  0  0
   -2.8920   -3.6610    1.9240 C   0  0  0  0  0  0  0  0  0  0  0  0
   -2.3740   -4.4890    2.7270 O   0  0  0  0  0  0  0  0  0  0  0  0
   -4.6350   -5.6850    0.8520 O   0  0  0  0  0  0  0  0  0  0  0  0
   -4.1530   -3.1410    2.2720 O   0  0  0  0  0  0  0  0  0  0  0  0
   -0.5000   -4.4210    0.6920 H   0  0  0  0  0  0  0  0  0  0  0  0
   -2.3580   -2.0670    0.7100 H   0  0  0  0  0  0  0  0  0  0  0  0
   -2.5960   -4.8720   -0.6230 H   0  0  0  0  0  0  0  0  0  0  0  0
   -2.3610   -3.3440   -1.4650 H   0  0  0  0  0  0  0  0  0  0  0  0
   -4.7130   -2.6170   -0.5340 H   0  0  0  0  0  0  0  0  0  0  0  0
   -4.6770   -3.9250   -1.7350 H   0  0  0  0  0  0  0  0  0  0  0  0
   -5.2260   -6.4980    0.9060 H   0  0  0  0  0  0  0  0  0  0  0  0
  1 13  1  0  0  0  0
  1  2  1  0  0  0  0
  2 10  1  0  0  0  0
  2 14  1  1  0  0  0
  3  2  1  0  0  0  0
  3 15  1  0  0  0  0
  4  3  1  0  0  0  0
  4  9  1  0  0  0  0
  5  4  2  0  0  0  0
  6  5  1  0  0  0  0
  6  7  2  0  0  0  0
  7  8  1  0  0  0  0
  8  9  2  0  0  0  0
  8 20  1  0  0  0  0
  9 21  1  0  0  0  0
 10 11  2  0  0  0  0
 12  1  1  0  0  0  0
 16  3  1  0  0  0  0
 17  5  1  0  0  0  0
 18  6  1  0  0  0  0
 19  7  1  0  0  0  0
 22 23  1  0  0  0  0
 22 10  1  0  0  0  0
 23 24  1  0  0  0  0
 23 27  1  0  0  0  0
 24 29  1  0  0  0  0
 25 24  2  0  0  0  0
 26 22  1  0  0  0  0
 28 23  1  0  0  0  0
 29 39  1  0  0  0  0
 29 30  1  0  0  0  0
 30 40  1  6  0  0  0
 30 35  1  0  0  0  0
 31 30  1  0  0  0  0
 32 31  1  0  0  0  0
 32 43  1  0  0  0  0
 32 33  1  0  0  0  0
 33 34  2  0  0  0  0
 33 37  1  0  0  0  0
 35 38  2  0  0  0  0
 35 36  1  0  0  0  0
 37 45  1  0  0  0  0
 41 31  1  0  0  0  0
 42 31  1  0  0  0  0
 44 32  1  0  0  0  0
M  END
$$$$
