FGF.pdb
 OpenBabel07022418593D

 49 50  0  0  1  0  0  0  0  0999 V2000
    3.4690   -3.2050    2.8200 N   0  0  0  0  0  0  0  0  0  0  0  0
    3.3790   -1.7370    2.6080 C   0  0  1  0  0  0  0  0  0  0  0  0
    3.7750   -1.5000    1.1970 C   0  0  0  0  0  0  0  0  0  0  0  0
    3.7740   -0.1180    0.7220 C   0  0  0  0  0  0  0  0  0  0  0  0
    2.7460    0.5210    0.0690 C   0  0  0  0  0  0  0  0  0  0  0  0
    2.8020    1.8340   -0.3530 C   0  0  0  0  0  0  0  0  0  0  0  0
    3.9320    2.5650   -0.1220 C   0  0  0  0  0  0  0  0  0  0  0  0
    4.9810    1.9610    0.5270 C   0  0  0  0  0  0  0  0  0  0  0  0
    4.9220    0.6500    0.9470 C   0  0  0  0  0  0  0  0  0  0  0  0
    2.0200   -1.3450    2.9920 C   0  0  0  0  0  0  0  0  0  0  0  0
    1.1150   -2.1940    3.2730 O   0  0  0  0  0  0  0  0  0  0  0  0
    4.4320   -3.4510    3.0950 H   0  0  0  0  0  0  0  0  0  0  0  0
    2.7930   -3.4980    3.5420 H   0  0  0  0  0  0  0  0  0  0  0  0
    4.0990   -1.3130    3.3290 H   0  0  0  0  0  0  0  0  0  0  0  0
    3.1650   -2.1520    0.5090 H   0  0  0  0  0  0  0  0  0  0  0  0
    4.8290   -1.8850    1.0420 H   0  0  0  0  0  0  0  0  0  0  0  0
    1.8500   -0.0180   -0.1320 H   0  0  0  0  0  0  0  0  0  0  0  0
    1.9670    2.2970   -0.8640 H   0  0  0  0  0  0  0  0  0  0  0  0
    3.9550    3.6020   -0.4640 H   0  0  0  0  0  0  0  0  0  0  0  0
    5.8730    2.5630    0.7000 H   0  0  0  0  0  0  0  0  0  0  0  0
    5.7900    0.2480    1.4510 H   0  0  0  0  0  0  0  0  0  0  0  0
    1.6030    0.0070    3.0870 N   0  0  0  0  0  0  0  0  0  0  0  0
    0.3220    0.4730    3.4440 C   0  0  0  0  0  0  0  0  0  0  0  0
   -0.8180    0.1120    2.6210 C   0  0  0  0  0  0  0  0  0  0  0  0
   -1.9480    0.5600    3.0210 O   0  0  0  0  0  0  0  0  0  0  0  0
    2.3560    0.7300    2.8710 H   0  0  0  0  0  0  0  0  0  0  0  0
    0.1040    0.1320    4.4910 H   0  0  0  0  0  0  0  0  0  0  0  0
    0.3180    1.6010    3.5230 H   0  0  0  0  0  0  0  0  0  0  0  0
   -0.8040   -0.6710    1.4430 N   0  0  0  0  0  0  0  0  0  0  0  0
   -2.0810   -0.9210    0.7580 C   0  0  1  0  0  0  0  0  0  0  0  0
   -2.0130   -0.4620   -0.6660 C   0  0  0  0  0  0  0  0  0  0  0  0
   -3.2530   -0.6790   -1.4420 C   0  0  0  0  0  0  0  0  0  0  0  0
   -4.2830    0.2670   -1.4420 C   0  0  0  0  0  0  0  0  0  0  0  0
   -5.4390    0.0830   -2.1700 C   0  0  0  0  0  0  0  0  0  0  0  0
   -5.6330   -1.0480   -2.9350 C   0  0  0  0  0  0  0  0  0  0  0  0
   -4.6230   -1.9870   -2.9420 C   0  0  0  0  0  0  0  0  0  0  0  0
   -3.4600   -1.8030   -2.2110 C   0  0  0  0  0  0  0  0  0  0  0  0
   -2.3730   -2.3730    0.7980 C   0  0  0  0  0  0  0  0  0  0  0  0
   -1.5270   -3.1680    1.3370 O   0  0  0  0  0  0  0  0  0  0  0  0
   -3.5030   -2.9600    0.2960 O   0  0  0  0  0  0  0  0  0  0  0  0
    0.0890   -1.0550    1.0690 H   0  0  0  0  0  0  0  0  0  0  0  0
   -2.9100   -0.4230    1.3100 H   0  0  0  0  0  0  0  0  0  0  0  0
   -1.8130    0.6480   -0.6330 H   0  0  0  0  0  0  0  0  0  0  0  0
   -1.1270   -0.8930   -1.1680 H   0  0  0  0  0  0  0  0  0  0  0  0
   -4.1270    1.1410   -0.8470 H   0  0  0  0  0  0  0  0  0  0  0  0
   -6.2440    0.8160   -2.1740 H   0  0  0  0  0  0  0  0  0  0  0  0
   -6.5490   -1.1760   -3.5010 H   0  0  0  0  0  0  0  0  0  0  0  0
   -4.7820   -2.8770   -3.5470 H   0  0  0  0  0  0  0  0  0  0  0  0
   -2.6820   -2.5770   -2.2560 H   0  0  0  0  0  0  0  0  0  0  0  0
  1 12  1  0  0  0  0
  1 13  1  0  0  0  0
  2  1  1  0  0  0  0
  2 10  1  0  0  0  0
  2 14  1  1  0  0  0
  3  2  1  0  0  0  0
  4  9  1  0  0  0  0
  4  3  1  0  0  0  0
  5  4  2  0  0  0  0
  6  7  2  0  0  0  0
  6  5  1  0  0  0  0
  7  8  1  0  0  0  0
  8 20  1  0  0  0  0
  8  9  2  0  0  0  0
  9 21  1  0  0  0  0
 10 22  1  0  0  0  0
 10 11  2  0  0  0  0
 15  3  1  0  0  0  0
 16  3  1  0  0  0  0
 17  5  1  0  0  0  0
 18  6  1  0  0  0  0
 19  7  1  0  0  0  0
 22 23  1  0  0  0  0
 23 28  1  0  0  0  0
 23 27  1  0  0  0  0
 24 25  2  0  0  0  0
 24 23  1  0  0  0  0
 26 22  1  0  0  0  0
 29 24  1  0  0  0  0
 30 38  1  0  0  0  0
 30 42  1  1  0  0  0
 30 29  1  0  0  0  0
 31 43  1  0  0  0  0
 31 30  1  0  0  0  0
 32 31  1  0  0  0  0
 33 32  1  0  0  0  0
 33 45  1  0  0  0  0
 34 33  2  0  0  0  0
 35 34  1  0  0  0  0
 36 35  2  0  0  0  0
 36 37  1  0  0  0  0
 37 32  2  0  0  0  0
 38 39  1  0  0  0  0
 40 38  2  0  0  0  0
 41 29  1  0  0  0  0
 44 31  1  0  0  0  0
 46 34  1  0  0  0  0
 47 35  1  0  0  0  0
 48 36  1  0  0  0  0
 49 37  1  0  0  0  0
M  END
$$$$
