FGH.pdb
 OpenBabel07022418593D

 46 47  0  0  1  0  0  0  0  0999 V2000
    3.7670   -2.2510    2.8150 N   0  0  0  0  0  0  0  0  0  0  0  0
    3.5150   -1.3510    1.6940 C   0  0  1  0  0  0  0  0  0  0  0  0
    3.0000   -2.1470    0.5460 C   0  0  0  0  0  0  0  0  0  0  0  0
    2.7080   -1.3790   -0.6760 C   0  0  0  0  0  0  0  0  0  0  0  0
    1.4880   -0.8480   -1.0250 C   0  0  0  0  0  0  0  0  0  0  0  0
    1.2930   -0.1290   -2.1830 C   0  0  0  0  0  0  0  0  0  0  0  0
    2.3190    0.0990   -3.0660 C   0  0  0  0  0  0  0  0  0  0  0  0
    3.5540   -0.4290   -2.7300 C   0  0  0  0  0  0  0  0  0  0  0  0
    3.7560   -1.1480   -1.5750 C   0  0  0  0  0  0  0  0  0  0  0  0
    2.5650   -0.3170    2.1290 C   0  0  0  0  0  0  0  0  0  0  0  0
    2.0700    0.5400    1.3630 O   0  0  0  0  0  0  0  0  0  0  0  0
    4.4230   -3.0080    2.5080 H   0  0  0  0  0  0  0  0  0  0  0  0
    2.8640   -2.6960    3.0880 H   0  0  0  0  0  0  0  0  0  0  0  0
    4.4840   -0.8990    1.3610 H   0  0  0  0  0  0  0  0  0  0  0  0
    3.7250   -2.9770    0.3080 H   0  0  0  0  0  0  0  0  0  0  0  0
    2.0500   -2.6540    0.8910 H   0  0  0  0  0  0  0  0  0  0  0  0
    0.6800   -1.0370   -0.3320 H   0  0  0  0  0  0  0  0  0  0  0  0
    0.3220    0.2640   -2.4090 H   0  0  0  0  0  0  0  0  0  0  0  0
    2.2200    0.6560   -3.9870 H   0  0  0  0  0  0  0  0  0  0  0  0
    4.3880   -0.2650   -3.4090 H   0  0  0  0  0  0  0  0  0  0  0  0
    4.7380   -1.5580   -1.3260 H   0  0  0  0  0  0  0  0  0  0  0  0
    2.1500   -0.2360    3.5030 N   0  0  0  0  0  0  0  0  0  0  0  0
    1.2320    0.7580    3.9570 C   0  0  0  0  0  0  0  0  0  0  0  0
   -0.1190    0.7320    3.4120 C   0  0  0  0  0  0  0  0  0  0  0  0
   -0.9100    1.6580    3.8220 O   0  0  0  0  0  0  0  0  0  0  0  0
    2.5750   -0.9680    4.1490 H   0  0  0  0  0  0  0  0  0  0  0  0
    1.2360    0.8370    5.0800 H   0  0  0  0  0  0  0  0  0  0  0  0
    1.7040    1.7530    3.6510 H   0  0  0  0  0  0  0  0  0  0  0  0
   -0.6750   -0.1760    2.4980 N   0  0  0  0  0  0  0  0  0  0  0  0
   -2.0810   -0.0470    2.0630 C   0  0  1  0  0  0  0  0  0  0  0  0
   -2.1000   -0.0010    0.5710 C   0  0  0  0  0  0  0  0  0  0  0  0
   -3.4610    0.1410    0.0080 C   0  0  0  0  0  0  0  0  0  0  0  0
   -4.1490    1.2960   -0.2800 C   0  0  0  0  0  0  0  0  0  0  0  0
   -5.3560    0.9540   -0.7770 N   0  0  0  0  0  0  0  0  0  0  0  0
   -5.4100   -0.3920   -0.7950 C   0  0  0  0  0  0  0  0  0  0  0  0
   -4.2680   -0.8770   -0.3220 N   0  0  0  0  0  0  0  0  0  0  0  0
   -2.8010   -1.2570    2.5270 C   0  0  0  0  0  0  0  0  0  0  0  0
   -2.1990   -2.1580    3.1460 O   0  0  0  0  0  0  0  0  0  0  0  0
   -4.1470   -1.3970    2.2780 O   0  0  0  0  0  0  0  0  0  0  0  0
   -0.0720   -0.9410    2.1410 H   0  0  0  0  0  0  0  0  0  0  0  0
   -2.5220    0.8690    2.5250 H   0  0  0  0  0  0  0  0  0  0  0  0
   -1.6040   -0.9310    0.1820 H   0  0  0  0  0  0  0  0  0  0  0  0
   -1.4550    0.8380    0.2430 H   0  0  0  0  0  0  0  0  0  0  0  0
   -3.7790    2.3210   -0.1310 H   0  0  0  0  0  0  0  0  0  0  0  0
   -6.0870    1.6320   -1.0820 H   0  0  0  0  0  0  0  0  0  0  0  0
   -6.2750   -0.9280   -1.1500 H   0  0  0  0  0  0  0  0  0  0  0  0
  1 13  1  0  0  0  0
  2 14  1  6  0  0  0
  2 10  1  0  0  0  0
  2  1  1  0  0  0  0
  3 16  1  0  0  0  0
  3  2  1  0  0  0  0
  4  3  1  0  0  0  0
  5  4  1  0  0  0  0
  5 17  1  0  0  0  0
  6  5  2  0  0  0  0
  7  8  2  0  0  0  0
  7  6  1  0  0  0  0
  8  9  1  0  0  0  0
  9 21  1  0  0  0  0
  9  4  2  0  0  0  0
 10 22  1  0  0  0  0
 11 10  2  0  0  0  0
 12  1  1  0  0  0  0
 15  3  1  0  0  0  0
 18  6  1  0  0  0  0
 19  7  1  0  0  0  0
 20  8  1  0  0  0  0
 22 23  1  0  0  0  0
 22 26  1  0  0  0  0
 23 27  1  0  0  0  0
 24 25  2  0  0  0  0
 24 23  1  0  0  0  0
 28 23  1  0  0  0  0
 29 24  1  0  0  0  0
 30 29  1  0  0  0  0
 30 41  1  1  0  0  0
 30 37  1  0  0  0  0
 31 30  1  0  0  0  0
 32 31  1  0  0  0  0
 33 44  1  0  0  0  0
 33 32  2  0  0  0  0
 34 33  1  0  0  0  0
 35 34  1  0  0  0  0
 35 36  2  0  0  0  0
 36 32  1  0  0  0  0
 37 38  1  0  0  0  0
 39 37  2  0  0  0  0
 40 29  1  0  0  0  0
 42 31  1  0  0  0  0
 43 31  1  0  0  0  0
 45 34  1  0  0  0  0
 46 35  1  0  0  0  0
M  END
$$$$
