FGI.pdb
 OpenBabel07022418593D

 48 48  0  0  1  0  0  0  0  0999 V2000
    3.8050   -3.1180    0.2250 N   0  0  0  0  0  0  0  0  0  0  0  0
    3.6670   -1.8900   -0.5320 C   0  0  1  0  0  0  0  0  0  0  0  0
    3.2580   -2.1030   -1.9400 C   0  0  0  0  0  0  0  0  0  0  0  0
    1.9740   -2.7820   -2.1520 C   0  0  0  0  0  0  0  0  0  0  0  0
    0.8430   -1.9900   -2.2540 C   0  0  0  0  0  0  0  0  0  0  0  0
   -0.3840   -2.5830   -2.4530 C   0  0  0  0  0  0  0  0  0  0  0  0
   -0.4490   -3.9680   -2.5450 C   0  0  0  0  0  0  0  0  0  0  0  0
    0.6810   -4.7400   -2.4420 C   0  0  0  0  0  0  0  0  0  0  0  0
    1.9010   -4.1650   -2.2450 C   0  0  0  0  0  0  0  0  0  0  0  0
    2.9050   -0.8840    0.2230 C   0  0  0  0  0  0  0  0  0  0  0  0
    2.6210    0.2530   -0.2060 O   0  0  0  0  0  0  0  0  0  0  0  0
    4.4460   -2.9690    1.0510 H   0  0  0  0  0  0  0  0  0  0  0  0
    4.1730   -3.8890   -0.3420 H   0  0  0  0  0  0  0  0  0  0  0  0
    4.7210   -1.4650   -0.5820 H   0  0  0  0  0  0  0  0  0  0  0  0
    3.2230   -1.1130   -2.4430 H   0  0  0  0  0  0  0  0  0  0  0  0
    4.0410   -2.7220   -2.4290 H   0  0  0  0  0  0  0  0  0  0  0  0
    0.8830   -0.9000   -2.1820 H   0  0  0  0  0  0  0  0  0  0  0  0
   -1.3030   -2.0110   -2.5400 H   0  0  0  0  0  0  0  0  0  0  0  0
   -1.3960   -4.4750   -2.7020 H   0  0  0  0  0  0  0  0  0  0  0  0
    0.6420   -5.8270   -2.5140 H   0  0  0  0  0  0  0  0  0  0  0  0
    2.8290   -4.7230   -2.1560 H   0  0  0  0  0  0  0  0  0  0  0  0
    2.4610   -1.2230    1.5290 N   0  0  0  0  0  0  0  0  0  0  0  0
    1.7130   -0.3030    2.3390 C   0  0  0  0  0  0  0  0  0  0  0  0
    0.4510    0.0410    1.6440 C   0  0  0  0  0  0  0  0  0  0  0  0
    0.2190   -0.4760    0.5350 O   0  0  0  0  0  0  0  0  0  0  0  0
    2.6770   -2.1780    1.9370 H   0  0  0  0  0  0  0  0  0  0  0  0
    2.3280    0.6080    2.5210 H   0  0  0  0  0  0  0  0  0  0  0  0
    1.5190   -0.7300    3.3510 H   0  0  0  0  0  0  0  0  0  0  0  0
   -3.0490    2.8640    3.8360 C   0  0  0  0  0  0  0  0  0  0  0  0
   -3.1220    1.3840    3.6770 C   0  0  0  0  0  0  0  0  0  0  0  0
   -2.9420    0.8560    2.3040 C   0  0  2  0  0  0  0  0  0  0  0  0
   -3.0530   -0.6660    2.3460 C   0  0  0  0  0  0  0  0  0  0  0  0
   -1.7140    1.2980    1.5760 C   0  0  2  0  0  0  0  0  0  0  0  0
   -0.4940    0.9530    2.2280 N   0  0  0  0  0  0  0  0  0  0  0  0
   -1.7760    2.7250    1.1740 C   0  0  0  0  0  0  0  0  0  0  0  0
   -0.8210    3.5160    1.4130 O   0  0  0  0  0  0  0  0  0  0  0  0
   -2.8720    3.2330    0.5290 O   0  0  0  0  0  0  0  0  0  0  0  0
   -3.7110    3.3820    3.1200 H   0  0  0  0  0  0  0  0  0  0  0  0
   -3.4570    3.1520    4.8550 H   0  0  0  0  0  0  0  0  0  0  0  0
   -2.0080    3.2680    3.8610 H   0  0  0  0  0  0  0  0  0  0  0  0
   -2.4500    0.8610    4.4150 H   0  0  0  0  0  0  0  0  0  0  0  0
   -4.1600    1.0790    4.0050 H   0  0  0  0  0  0  0  0  0  0  0  0
   -3.8230    1.1920    1.6850 H   0  0  0  0  0  0  0  0  0  0  0  0
   -3.4410   -1.0580    1.3850 H   0  0  0  0  0  0  0  0  0  0  0  0
   -2.0510   -1.1060    2.6080 H   0  0  0  0  0  0  0  0  0  0  0  0
   -3.7450   -0.9960    3.1410 H   0  0  0  0  0  0  0  0  0  0  0  0
   -1.7530    0.7350    0.5820 H   0  0  0  0  0  0  0  0  0  0  0  0
   -0.2460    1.3500    3.1500 H   0  0  0  0  0  0  0  0  0  0  0  0
  1 12  1  0  0  0  0
  2 14  1  6  0  0  0
  2 10  1  0  0  0  0
  2  1  1  0  0  0  0
  3  2  1  0  0  0  0
  4  3  1  0  0  0  0
  5 17  1  0  0  0  0
  5  4  2  0  0  0  0
  6  5  1  0  0  0  0
  7  6  2  0  0  0  0
  7  8  1  0  0  0  0
  8  9  2  0  0  0  0
  9 21  1  0  0  0  0
  9  4  1  0  0  0  0
 10 22  1  0  0  0  0
 11 10  2  0  0  0  0
 13  1  1  0  0  0  0
 15  3  1  0  0  0  0
 16  3  1  0  0  0  0
 18  6  1  0  0  0  0
 19  7  1  0  0  0  0
 20  8  1  0  0  0  0
 22 26  1  0  0  0  0
 22 23  1  0  0  0  0
 23 27  1  0  0  0  0
 23 28  1  0  0  0  0
 24 34  1  0  0  0  0
 24 23  1  0  0  0  0
 25 24  2  0  0  0  0
 29 40  1  0  0  0  0
 29 39  1  0  0  0  0
 30 29  1  0  0  0  0
 30 42  1  0  0  0  0
 30 41  1  0  0  0  0
 31 43  1  6  0  0  0
 31 32  1  0  0  0  0
 31 30  1  0  0  0  0
 32 45  1  0  0  0  0
 32 46  1  0  0  0  0
 33 47  1  6  0  0  0
 33 34  1  0  0  0  0
 33 31  1  0  0  0  0
 34 48  1  0  0  0  0
 35 36  1  0  0  0  0
 35 33  1  0  0  0  0
 37 35  2  0  0  0  0
 38 29  1  0  0  0  0
 44 32  1  0  0  0  0
M  END
$$$$
