FGN.pdb
 OpenBabel07022418593D

 43 43  0  0  1  0  0  0  0  0999 V2000
   -0.4780   -2.7230    3.8150 N   0  0  0  0  0  0  0  0  0  0  0  0
    0.6480   -2.8690    2.9210 C   0  0  1  0  0  0  0  0  0  0  0  0
    0.4150   -3.7320    1.7540 C   0  0  0  0  0  0  0  0  0  0  0  0
   -0.6590   -3.3750    0.8350 C   0  0  0  0  0  0  0  0  0  0  0  0
   -0.4080   -2.5810   -0.2770 C   0  0  0  0  0  0  0  0  0  0  0  0
   -1.3940   -2.2220   -1.1740 C   0  0  0  0  0  0  0  0  0  0  0  0
   -2.6920   -2.6580   -0.9780 C   0  0  0  0  0  0  0  0  0  0  0  0
   -2.9430   -3.4570    0.1410 C   0  0  0  0  0  0  0  0  0  0  0  0
   -1.9650   -3.8130    1.0290 C   0  0  0  0  0  0  0  0  0  0  0  0
    1.3660   -1.6280    2.6220 C   0  0  0  0  0  0  0  0  0  0  0  0
    2.3390   -1.6570    1.8490 O   0  0  0  0  0  0  0  0  0  0  0  0
   -0.2260   -2.3200    4.7290 H   0  0  0  0  0  0  0  0  0  0  0  0
   -1.0920   -3.5380    3.8450 H   0  0  0  0  0  0  0  0  0  0  0  0
    1.4030   -3.4620    3.5750 H   0  0  0  0  0  0  0  0  0  0  0  0
    1.3680   -3.7190    1.1400 H   0  0  0  0  0  0  0  0  0  0  0  0
    0.3120   -4.7940    2.1020 H   0  0  0  0  0  0  0  0  0  0  0  0
    0.5920   -2.2110   -0.4830 H   0  0  0  0  0  0  0  0  0  0  0  0
   -1.2060   -1.6060   -2.0400 H   0  0  0  0  0  0  0  0  0  0  0  0
   -3.4960   -2.3920   -1.6710 H   0  0  0  0  0  0  0  0  0  0  0  0
   -3.9500   -3.8160    0.3230 H   0  0  0  0  0  0  0  0  0  0  0  0
   -2.1440   -4.4300    1.8960 H   0  0  0  0  0  0  0  0  0  0  0  0
    0.9860   -0.3850    3.1990 N   0  0  0  0  0  0  0  0  0  0  0  0
    1.6320    0.8580    2.9940 C   0  0  0  0  0  0  0  0  0  0  0  0
    1.6650    1.4270    1.6230 C   0  0  0  0  0  0  0  0  0  0  0  0
    2.2730    2.5690    1.4920 O   0  0  0  0  0  0  0  0  0  0  0  0
    0.1250   -0.4230    3.8470 H   0  0  0  0  0  0  0  0  0  0  0  0
    2.7230    0.8120    3.3050 H   0  0  0  0  0  0  0  0  0  0  0  0
    1.2160    1.6290    3.7030 H   0  0  0  0  0  0  0  0  0  0  0  0
    0.8500    5.1070   -0.0490 N   0  0  0  0  0  0  0  0  0  0  0  0
    0.6010    3.7040   -0.1840 C   0  0  0  0  0  0  0  0  0  0  0  0
   -0.4400    3.2370    0.3650 O   0  0  0  0  0  0  0  0  0  0  0  0
    1.5540    2.8940   -0.9400 C   0  0  0  0  0  0  0  0  0  0  0  0
    1.1230    1.4280   -0.8470 C   0  0  2  0  0  0  0  0  0  0  0  0
    1.1190    0.8790    0.4650 N   0  0  0  0  0  0  0  0  0  0  0  0
    1.7080    0.6260   -1.9080 C   0  0  0  0  0  0  0  0  0  0  0  0
    2.2380   -0.4790   -1.7020 O   0  0  0  0  0  0  0  0  0  0  0  0
    1.6870    1.0960   -3.2270 O   0  0  0  0  0  0  0  0  0  0  0  0
    1.3870    5.6070   -0.7720 H   0  0  0  0  0  0  0  0  0  0  0  0
    0.4840    5.6070    0.7780 H   0  0  0  0  0  0  0  0  0  0  0  0
    1.4740    3.1550   -2.0470 H   0  0  0  0  0  0  0  0  0  0  0  0
    2.6020    2.9750   -0.6910 H   0  0  0  0  0  0  0  0  0  0  0  0
   -0.0110    1.5560   -1.0810 H   0  0  0  0  0  0  0  0  0  0  0  0
    0.6230   -0.0640    0.5800 H   0  0  0  0  0  0  0  0  0  0  0  0
  1 13  1  0  0  0  0
  1 12  1  0  0  0  0
  2 14  1  1  0  0  0
  2  1  1  0  0  0  0
  3 16  1  0  0  0  0
  3  2  1  0  0  0  0
  4  9  1  0  0  0  0
  4  3  1  0  0  0  0
  5  4  2  0  0  0  0
  6  7  2  0  0  0  0
  6  5  1  0  0  0  0
  7  8  1  0  0  0  0
  8 20  1  0  0  0  0
  8  9  2  0  0  0  0
  9 21  1  0  0  0  0
 10  2  1  0  0  0  0
 10 22  1  0  0  0  0
 11 10  2  0  0  0  0
 15  3  1  0  0  0  0
 17  5  1  0  0  0  0
 18  6  1  0  0  0  0
 19  7  1  0  0  0  0
 22 26  1  0  0  0  0
 23 22  1  0  0  0  0
 23 27  1  0  0  0  0
 23 28  1  0  0  0  0
 24 23  1  0  0  0  0
 25 24  2  0  0  0  0
 29 39  1  0  0  0  0
 30 29  1  0  0  0  0
 30 31  2  0  0  0  0
 32 33  1  0  0  0  0
 32 41  1  0  0  0  0
 32 30  1  0  0  0  0
 33 42  1  6  0  0  0
 33 34  1  0  0  0  0
 34 43  1  0  0  0  0
 34 24  1  0  0  0  0
 35 36  1  0  0  0  0
 35 33  1  0  0  0  0
 37 35  2  0  0  0  0
 38 29  1  0  0  0  0
 40 32  1  0  0  0  0
M  END
$$$$
