FGP.pdb
 OpenBabel07022418593D

 43 44  0  0  1  0  0  0  0  0999 V2000
   -0.6160   -2.7220    0.5280 N   0  0  0  0  0  0  0  0  0  0  0  0
    0.0840   -2.3050   -0.6940 C   0  0  1  0  0  0  0  0  0  0  0  0
   -0.9530   -2.2270   -1.7760 C   0  0  0  0  0  0  0  0  0  0  0  0
   -0.4320   -1.8210   -3.0840 C   0  0  0  0  0  0  0  0  0  0  0  0
   -0.3610   -0.5020   -3.4870 C   0  0  0  0  0  0  0  0  0  0  0  0
    0.1390   -0.1650   -4.7320 C   0  0  0  0  0  0  0  0  0  0  0  0
    0.5820   -1.1240   -5.6140 C   0  0  0  0  0  0  0  0  0  0  0  0
    0.5170   -2.4540   -5.2240 C   0  0  0  0  0  0  0  0  0  0  0  0
    0.0140   -2.7800   -3.9740 C   0  0  0  0  0  0  0  0  0  0  0  0
    0.7950   -1.0730   -0.4260 C   0  0  0  0  0  0  0  0  0  0  0  0
    1.4830   -0.4840   -1.2940 O   0  0  0  0  0  0  0  0  0  0  0  0
    0.0720   -2.9540    1.2890 H   0  0  0  0  0  0  0  0  0  0  0  0
   -1.2470   -3.5370    0.3180 H   0  0  0  0  0  0  0  0  0  0  0  0
    0.7840   -3.1090   -0.9400 H   0  0  0  0  0  0  0  0  0  0  0  0
   -1.8190   -1.6010   -1.4360 H   0  0  0  0  0  0  0  0  0  0  0  0
   -1.3700   -3.2540   -1.8820 H   0  0  0  0  0  0  0  0  0  0  0  0
   -0.7110    0.2430   -2.7880 H   0  0  0  0  0  0  0  0  0  0  0  0
    0.1750    0.8860   -5.0020 H   0  0  0  0  0  0  0  0  0  0  0  0
    0.9670   -0.8170   -6.5810 H   0  0  0  0  0  0  0  0  0  0  0  0
    0.8660   -3.2020   -5.9190 H   0  0  0  0  0  0  0  0  0  0  0  0
   -0.0100   -3.8520   -3.7270 H   0  0  0  0  0  0  0  0  0  0  0  0
    0.7570   -0.4270    0.8860 N   0  0  0  0  0  0  0  0  0  0  0  0
    1.4890    0.7790    1.0460 C   0  0  0  0  0  0  0  0  0  0  0  0
    1.5390    1.4760    2.2990 C   0  0  0  0  0  0  0  0  0  0  0  0
    2.2160    2.6130    2.2550 O   0  0  0  0  0  0  0  0  0  0  0  0
    0.1690   -0.9330    1.5650 H   0  0  0  0  0  0  0  0  0  0  0  0
    2.5580    0.6500    0.6140 H   0  0  0  0  0  0  0  0  0  0  0  0
    1.0750    1.5150    0.2680 H   0  0  0  0  0  0  0  0  0  0  0  0
    1.0290    1.2340    3.5880 N   0  0  0  0  0  0  0  0  0  0  0  0
    1.1710    2.2240    4.7190 C   0  0  0  0  0  0  0  0  0  0  0  0
    1.7060    1.3120    5.7640 C   0  0  0  0  0  0  0  0  0  0  0  0
    0.9880    0.0050    5.5790 C   0  0  0  0  0  0  0  0  0  0  0  0
    0.3340    0.1480    4.2150 C   0  0  1  0  0  0  0  0  0  0  0  0
   -1.1060    0.3860    4.4150 C   0  0  0  0  0  0  0  0  0  0  0  0
   -1.7930   -0.4770    5.0090 O   0  0  0  0  0  0  0  0  0  0  0  0
   -1.6890    1.5380    3.9550 O   0  0  0  0  0  0  0  0  0  0  0  0
    0.1390    2.5110    4.9590 H   0  0  0  0  0  0  0  0  0  0  0  0
    1.8270    3.0390    4.4270 H   0  0  0  0  0  0  0  0  0  0  0  0
    2.8050    1.1830    5.6020 H   0  0  0  0  0  0  0  0  0  0  0  0
    1.5090    1.6590    6.8020 H   0  0  0  0  0  0  0  0  0  0  0  0
    0.2310   -0.1830    6.3760 H   0  0  0  0  0  0  0  0  0  0  0  0
    1.7310   -0.8300    5.5560 H   0  0  0  0  0  0  0  0  0  0  0  0
    0.4330   -0.8320    3.6760 H   0  0  0  0  0  0  0  0  0  0  0  0
  1 12  1  0  0  0  0
  2 14  1  6  0  0  0
  2 10  1  0  0  0  0
  2  1  1  0  0  0  0
  3 15  1  0  0  0  0
  3  2  1  0  0  0  0
  4  3  1  0  0  0  0
  5  4  1  0  0  0  0
  5 17  1  0  0  0  0
  6  5  2  0  0  0  0
  7  8  2  0  0  0  0
  7  6  1  0  0  0  0
  8  9  1  0  0  0  0
  9 21  1  0  0  0  0
  9  4  2  0  0  0  0
 10 22  1  0  0  0  0
 11 10  2  0  0  0  0
 13  1  1  0  0  0  0
 16  3  1  0  0  0  0
 18  6  1  0  0  0  0
 19  7  1  0  0  0  0
 20  8  1  0  0  0  0
 22 23  1  0  0  0  0
 22 26  1  0  0  0  0
 23 24  1  0  0  0  0
 24 29  1  0  0  0  0
 25 24  2  0  0  0  0
 27 23  1  0  0  0  0
 28 23  1  0  0  0  0
 29 33  1  0  0  0  0
 29 30  1  0  0  0  0
 30 37  1  0  0  0  0
 30 31  1  0  0  0  0
 31 40  1  0  0  0  0
 32 31  1  0  0  0  0
 32 41  1  0  0  0  0
 33 43  1  6  0  0  0
 33 34  1  0  0  0  0
 33 32  1  0  0  0  0
 34 35  1  0  0  0  0
 36 34  2  0  0  0  0
 38 30  1  0  0  0  0
 39 31  1  0  0  0  0
 42 32  1  0  0  0  0
M  END
$$$$
