FGQ.pdb
 OpenBabel07022418593D

 46 46  0  0  1  0  0  0  0  0999 V2000
    2.3690   -2.2680    0.8480 N   0  0  0  0  0  0  0  0  0  0  0  0
    3.3030   -1.5110    1.6410 C   0  0  1  0  0  0  0  0  0  0  0  0
    4.3260   -0.8360    0.7620 C   0  0  0  0  0  0  0  0  0  0  0  0
    3.7370    0.0980   -0.2040 C   0  0  0  0  0  0  0  0  0  0  0  0
    3.3540   -0.3270   -1.4600 C   0  0  0  0  0  0  0  0  0  0  0  0
    2.7950    0.5340   -2.3920 C   0  0  0  0  0  0  0  0  0  0  0  0
    2.6220    1.8580   -2.0350 C   0  0  0  0  0  0  0  0  0  0  0  0
    3.0040    2.2850   -0.7810 C   0  0  0  0  0  0  0  0  0  0  0  0
    3.5570    1.4100    0.1270 C   0  0  0  0  0  0  0  0  0  0  0  0
    2.6210   -0.5960    2.5580 C   0  0  0  0  0  0  0  0  0  0  0  0
    3.1830    0.1810    3.3630 O   0  0  0  0  0  0  0  0  0  0  0  0
    2.8640   -2.8220    0.1220 H   0  0  0  0  0  0  0  0  0  0  0  0
    1.7980   -2.8540    1.5000 H   0  0  0  0  0  0  0  0  0  0  0  0
    3.8670   -2.2540    2.2640 H   0  0  0  0  0  0  0  0  0  0  0  0
    5.1110   -0.3660    1.3920 H   0  0  0  0  0  0  0  0  0  0  0  0
    4.8440   -1.6660    0.2010 H   0  0  0  0  0  0  0  0  0  0  0  0
    3.4690   -1.3590   -1.7900 H   0  0  0  0  0  0  0  0  0  0  0  0
    2.4890    0.2350   -3.3720 H   0  0  0  0  0  0  0  0  0  0  0  0
    2.1910    2.5810   -2.7190 H   0  0  0  0  0  0  0  0  0  0  0  0
    2.8760    3.3360   -0.4730 H   0  0  0  0  0  0  0  0  0  0  0  0
    3.8400    1.8170    1.1120 H   0  0  0  0  0  0  0  0  0  0  0  0
    1.1690   -0.5680    2.5530 N   0  0  0  0  0  0  0  0  0  0  0  0
    0.5240    0.3250    3.4480 C   0  0  0  0  0  0  0  0  0  0  0  0
   -0.9410    0.2610    3.3500 C   0  0  0  0  0  0  0  0  0  0  0  0
   -1.6520    1.0250    4.1120 O   0  0  0  0  0  0  0  0  0  0  0  0
    0.6490   -1.1970    1.9000 H   0  0  0  0  0  0  0  0  0  0  0  0
    0.9110    1.3650    3.3130 H   0  0  0  0  0  0  0  0  0  0  0  0
    0.7730    0.1020    4.5310 H   0  0  0  0  0  0  0  0  0  0  0  0
   -3.4540   -1.3890   -2.4670 N   0  0  0  0  0  0  0  0  0  0  0  0
   -3.7190   -0.6630   -1.2690 C   0  0  0  0  0  0  0  0  0  0  0  0
   -4.4060    0.3780   -1.3360 O   0  0  0  0  0  0  0  0  0  0  0  0
   -3.2110   -1.0960    0.0500 C   0  0  0  0  0  0  0  0  0  0  0  0
   -3.6410   -0.1480    1.1240 C   0  0  0  0  0  0  0  0  0  0  0  0
   -3.1550   -0.5400    2.4820 C   0  0  2  0  0  0  0  0  0  0  0  0
   -1.6870   -0.5750    2.4790 N   0  0  0  0  0  0  0  0  0  0  0  0
   -3.6260   -1.9130    2.7830 C   0  0  0  0  0  0  0  0  0  0  0  0
   -2.8630   -2.8700    2.9860 O   0  0  0  0  0  0  0  0  0  0  0  0
   -4.9980   -2.1610    2.8470 O   0  0  0  0  0  0  0  0  0  0  0  0
   -2.6360   -1.1020   -3.0300 H   0  0  0  0  0  0  0  0  0  0  0  0
   -4.0390   -2.1850   -2.7970 H   0  0  0  0  0  0  0  0  0  0  0  0
   -2.0960   -1.0680   -0.0250 H   0  0  0  0  0  0  0  0  0  0  0  0
   -3.4940   -2.1520    0.2760 H   0  0  0  0  0  0  0  0  0  0  0  0
   -4.7220   -0.0010    1.0720 H   0  0  0  0  0  0  0  0  0  0  0  0
   -3.1840    0.8520    0.8640 H   0  0  0  0  0  0  0  0  0  0  0  0
   -3.5110    0.1920    3.2280 H   0  0  0  0  0  0  0  0  0  0  0  0
   -1.2590   -1.2300    1.8230 H   0  0  0  0  0  0  0  0  0  0  0  0
  1 13  1  0  0  0  0
  1  2  1  0  0  0  0
  2 14  1  1  0  0  0
  2 10  1  0  0  0  0
  3 15  1  0  0  0  0
  3  2  1  0  0  0  0
  4  9  1  0  0  0  0
  4  3  1  0  0  0  0
  5  4  2  0  0  0  0
  6  7  2  0  0  0  0
  6  5  1  0  0  0  0
  7  8  1  0  0  0  0
  8 20  1  0  0  0  0
  8  9  2  0  0  0  0
  9 21  1  0  0  0  0
 10 11  2  0  0  0  0
 12  1  1  0  0  0  0
 16  3  1  0  0  0  0
 17  5  1  0  0  0  0
 18  6  1  0  0  0  0
 19  7  1  0  0  0  0
 22 10  1  0  0  0  0
 22 23  1  0  0  0  0
 23 28  1  0  0  0  0
 24 23  1  0  0  0  0
 24 25  2  0  0  0  0
 26 22  1  0  0  0  0
 27 23  1  0  0  0  0
 29 30  1  0  0  0  0
 30 32  1  0  0  0  0
 31 30  2  0  0  0  0
 32 42  1  0  0  0  0
 32 33  1  0  0  0  0
 33 34  1  0  0  0  0
 34 36  1  0  0  0  0
 34 45  1  1  0  0  0
 35 34  1  0  0  0  0
 35 24  1  0  0  0  0
 36 38  2  0  0  0  0
 36 37  1  0  0  0  0
 39 29  1  0  0  0  0
 40 29  1  0  0  0  0
 41 32  1  0  0  0  0
 43 33  1  0  0  0  0
 44 33  1  0  0  0  0
 46 35  1  0  0  0  0
M  END
$$$$
