FGS.pdb
 OpenBabel07022418593D

 40 40  0  0  1  0  0  0  0  0999 V2000
   -3.0550   -1.7130   -2.4660 N   0  0  0  0  0  0  0  0  0  0  0  0
   -2.0840   -1.6390   -1.3640 C   0  0  1  0  0  0  0  0  0  0  0  0
   -1.1770   -2.8520   -1.4220 C   0  0  0  0  0  0  0  0  0  0  0  0
   -0.1730   -2.8570   -0.3610 C   0  0  0  0  0  0  0  0  0  0  0  0
   -0.4780   -3.4060    0.8830 C   0  0  0  0  0  0  0  0  0  0  0  0
    0.4740   -3.4410    1.8930 C   0  0  0  0  0  0  0  0  0  0  0  0
    1.7340   -2.9310    1.6670 C   0  0  0  0  0  0  0  0  0  0  0  0
    2.0550   -2.3810    0.4370 C   0  0  0  0  0  0  0  0  0  0  0  0
    1.0970   -2.3540   -0.5550 C   0  0  0  0  0  0  0  0  0  0  0  0
   -1.2800   -0.4210   -1.4800 C   0  0  0  0  0  0  0  0  0  0  0  0
   -1.2130    0.2230   -2.5890 O   0  0  0  0  0  0  0  0  0  0  0  0
   -3.7970   -2.3670   -2.1740 H   0  0  0  0  0  0  0  0  0  0  0  0
   -2.5260   -2.1840   -3.2570 H   0  0  0  0  0  0  0  0  0  0  0  0
   -2.6770   -1.7230   -0.4320 H   0  0  0  0  0  0  0  0  0  0  0  0
   -0.7330   -2.9780   -2.4340 H   0  0  0  0  0  0  0  0  0  0  0  0
   -1.8600   -3.7320   -1.2610 H   0  0  0  0  0  0  0  0  0  0  0  0
   -1.4720   -3.8000    1.0390 H   0  0  0  0  0  0  0  0  0  0  0  0
    0.2050   -3.8780    2.8560 H   0  0  0  0  0  0  0  0  0  0  0  0
    2.4820   -2.9520    2.4410 H   0  0  0  0  0  0  0  0  0  0  0  0
    3.0190   -1.9800    0.2360 H   0  0  0  0  0  0  0  0  0  0  0  0
    1.3430   -1.9280   -1.5100 H   0  0  0  0  0  0  0  0  0  0  0  0
   -0.5230    0.1570   -0.4230 N   0  0  0  0  0  0  0  0  0  0  0  0
    0.2400    1.3550   -0.6270 C   0  0  0  0  0  0  0  0  0  0  0  0
    0.9660    1.8410    0.5600 C   0  0  0  0  0  0  0  0  0  0  0  0
    1.6710    2.9130    0.4580 O   0  0  0  0  0  0  0  0  0  0  0  0
   -0.5520   -0.3080    0.4970 H   0  0  0  0  0  0  0  0  0  0  0  0
   -0.4990    2.1690   -0.8960 H   0  0  0  0  0  0  0  0  0  0  0  0
    0.8940    1.3000   -1.5290 H   0  0  0  0  0  0  0  0  0  0  0  0
   -0.0460    3.1720    3.6500 O   0  0  0  0  0  0  0  0  0  0  0  0
    0.8510    2.2110    4.1030 C   0  0  0  0  0  0  0  0  0  0  0  0
    1.7360    1.8170    2.9600 C   0  0  2  0  0  0  0  0  0  0  0  0
    0.9910    1.2630    1.8420 N   0  0  0  0  0  0  0  0  0  0  0  0
    2.8420    0.9490    3.4040 C   0  0  0  0  0  0  0  0  0  0  0  0
    3.5510    1.3280    4.3700 O   0  0  0  0  0  0  0  0  0  0  0  0
    3.1660   -0.2700    2.8300 O   0  0  0  0  0  0  0  0  0  0  0  0
    0.3180    4.0830    3.7710 H   0  0  0  0  0  0  0  0  0  0  0  0
    1.5110    2.7330    4.8470 H   0  0  0  0  0  0  0  0  0  0  0  0
    0.3420    1.3590    4.5790 H   0  0  0  0  0  0  0  0  0  0  0  0
    2.2140    2.7560    2.5780 H   0  0  0  0  0  0  0  0  0  0  0  0
    0.4550    0.3930    2.0230 H   0  0  0  0  0  0  0  0  0  0  0  0
  1 12  1  0  0  0  0
  1  2  1  0  0  0  0
  2 14  1  1  0  0  0
  3  2  1  0  0  0  0
  3 16  1  0  0  0  0
  3  4  1  0  0  0  0
  4  5  1  0  0  0  0
  5 17  1  0  0  0  0
  5  6  2  0  0  0  0
  6 18  1  0  0  0  0
  7  6  1  0  0  0  0
  7 19  1  0  0  0  0
  8  7  2  0  0  0  0
  9  4  2  0  0  0  0
  9  8  1  0  0  0  0
 10  2  1  0  0  0  0
 10 22  1  0  0  0  0
 11 10  2  0  0  0  0
 13  1  1  0  0  0  0
 15  3  1  0  0  0  0
 20  8  1  0  0  0  0
 21  9  1  0  0  0  0
 22 26  1  0  0  0  0
 23 22  1  0  0  0  0
 23 24  1  0  0  0  0
 24 32  1  0  0  0  0
 25 24  2  0  0  0  0
 27 23  1  0  0  0  0
 28 23  1  0  0  0  0
 29 36  1  0  0  0  0
 29 30  1  0  0  0  0
 30 38  1  0  0  0  0
 30 37  1  0  0  0  0
 31 39  1  6  0  0  0
 31 33  1  0  0  0  0
 31 30  1  0  0  0  0
 32 40  1  0  0  0  0
 32 31  1  0  0  0  0
 33 34  1  0  0  0  0
 35 33  2  0  0  0  0
M  END
$$$$
