FGT.pdb
 OpenBabel07022418593D

 43 43  0  0  1  0  0  0  0  0999 V2000
    1.7160   -4.3140   -0.6150 N   0  0  0  0  0  0  0  0  0  0  0  0
    1.8520   -2.9430   -0.1710 C   0  0  1  0  0  0  0  0  0  0  0  0
    1.8730   -2.1050   -1.4530 C   0  0  0  0  0  0  0  0  0  0  0  0
    0.6490   -2.2650   -2.2460 C   0  0  0  0  0  0  0  0  0  0  0  0
   -0.4160   -1.4220   -2.0440 C   0  0  0  0  0  0  0  0  0  0  0  0
   -1.5630   -1.5880   -2.7990 C   0  0  0  0  0  0  0  0  0  0  0  0
   -1.7020   -2.5660   -3.7590 C   0  0  0  0  0  0  0  0  0  0  0  0
   -0.6220   -3.4030   -3.9480 C   0  0  0  0  0  0  0  0  0  0  0  0
    0.5290   -3.2490   -3.2020 C   0  0  0  0  0  0  0  0  0  0  0  0
    0.6800   -2.5740    0.6190 C   0  0  0  0  0  0  0  0  0  0  0  0
   -0.2490   -3.4150    0.7730 O   0  0  0  0  0  0  0  0  0  0  0  0
    2.6090   -4.7100   -0.9830 H   0  0  0  0  0  0  0  0  0  0  0  0
    1.2690   -4.9260    0.0940 H   0  0  0  0  0  0  0  0  0  0  0  0
    2.8060   -2.7860    0.3750 H   0  0  0  0  0  0  0  0  0  0  0  0
    2.7830   -2.3490   -2.0580 H   0  0  0  0  0  0  0  0  0  0  0  0
    1.9900   -1.0400   -1.1530 H   0  0  0  0  0  0  0  0  0  0  0  0
   -0.3910   -0.6170   -1.3050 H   0  0  0  0  0  0  0  0  0  0  0  0
   -2.4110   -0.9280   -2.6480 H   0  0  0  0  0  0  0  0  0  0  0  0
   -2.6000   -2.6960   -4.3490 H   0  0  0  0  0  0  0  0  0  0  0  0
   -0.7120   -4.1900   -4.7090 H   0  0  0  0  0  0  0  0  0  0  0  0
    1.3580   -3.9450   -3.3960 H   0  0  0  0  0  0  0  0  0  0  0  0
    0.5440   -1.2740    1.2360 N   0  0  0  0  0  0  0  0  0  0  0  0
   -0.6450   -1.0380    1.9800 C   0  0  0  0  0  0  0  0  0  0  0  0
   -0.7630    0.2790    2.5940 C   0  0  0  0  0  0  0  0  0  0  0  0
   -1.8330    0.4900    3.2630 O   0  0  0  0  0  0  0  0  0  0  0  0
    1.3340   -0.6160    1.0820 H   0  0  0  0  0  0  0  0  0  0  0  0
   -1.5300   -1.2750    1.3520 H   0  0  0  0  0  0  0  0  0  0  0  0
   -0.6740   -1.7990    2.8130 H   0  0  0  0  0  0  0  0  0  0  0  0
    1.1050    1.8120    5.2400 C   0  0  0  0  0  0  0  0  0  0  0  0
    1.0480    2.8400    4.1390 C   0  0  1  0  0  0  0  0  0  0  0  0
    2.2370    2.9360    3.4320 O   0  0  0  0  0  0  0  0  0  0  0  0
   -0.1180    2.5820    3.2050 C   0  0  2  0  0  0  0  0  0  0  0  0
    0.1700    1.3190    2.5210 N   0  0  0  0  0  0  0  0  0  0  0  0
   -0.1580    3.6630    2.1880 C   0  0  0  0  0  0  0  0  0  0  0  0
    0.0330    3.4540    0.9560 O   0  0  0  0  0  0  0  0  0  0  0  0
   -0.4150    4.9750    2.5630 O   0  0  0  0  0  0  0  0  0  0  0  0
    0.5590    0.8810    5.0000 H   0  0  0  0  0  0  0  0  0  0  0  0
    0.8390    2.2420    6.2240 H   0  0  0  0  0  0  0  0  0  0  0  0
    2.1930    1.5230    5.3360 H   0  0  0  0  0  0  0  0  0  0  0  0
    0.8930    3.8370    4.6300 H   0  0  0  0  0  0  0  0  0  0  0  0
    2.0370    3.2190    2.5050 H   0  0  0  0  0  0  0  0  0  0  0  0
   -1.0770    2.5610    3.7180 H   0  0  0  0  0  0  0  0  0  0  0  0
    1.0350    1.1770    1.9920 H   0  0  0  0  0  0  0  0  0  0  0  0
  1  2  1  0  0  0  0
  1 13  1  0  0  0  0
  2 14  1  1  0  0  0
  2 10  1  0  0  0  0
  3 16  1  0  0  0  0
  3  2  1  0  0  0  0
  4  5  1  0  0  0  0
  4  3  1  0  0  0  0
  5 17  1  0  0  0  0
  6 18  1  0  0  0  0
  6  5  2  0  0  0  0
  7  6  1  0  0  0  0
  8  7  2  0  0  0  0
  8  9  1  0  0  0  0
  9  4  2  0  0  0  0
 10 11  2  0  0  0  0
 10 22  1  0  0  0  0
 12  1  1  0  0  0  0
 15  3  1  0  0  0  0
 19  7  1  0  0  0  0
 20  8  1  0  0  0  0
 21  9  1  0  0  0  0
 22 23  1  0  0  0  0
 23 24  1  0  0  0  0
 23 28  1  0  0  0  0
 24 25  2  0  0  0  0
 26 22  1  0  0  0  0
 27 23  1  0  0  0  0
 29 39  1  0  0  0  0
 29 38  1  0  0  0  0
 30 40  1  1  0  0  0
 30 29  1  0  0  0  0
 31 30  1  0  0  0  0
 32 42  1  1  0  0  0
 32 30  1  0  0  0  0
 33 24  1  0  0  0  0
 33 32  1  0  0  0  0
 34 36  1  0  0  0  0
 34 32  1  0  0  0  0
 35 34  2  0  0  0  0
 37 29  1  0  0  0  0
 41 31  1  0  0  0  0
 43 33  1  0  0  0  0
M  END
$$$$
