FGV.pdb
 OpenBabel07022418593D

 45 45  0  0  1  0  0  0  0  0999 V2000
   -0.3750   -3.4570    0.7670 N   0  0  0  0  0  0  0  0  0  0  0  0
    0.2340   -3.1430   -0.5430 C   0  0  1  0  0  0  0  0  0  0  0  0
   -0.7040   -3.5360   -1.6400 C   0  0  0  0  0  0  0  0  0  0  0  0
   -0.1200   -3.2330   -2.9480 C   0  0  0  0  0  0  0  0  0  0  0  0
   -0.3820   -2.0230   -3.5460 C   0  0  0  0  0  0  0  0  0  0  0  0
    0.1430   -1.7030   -4.7610 C   0  0  0  0  0  0  0  0  0  0  0  0
    0.9580   -2.5980   -5.4220 C   0  0  0  0  0  0  0  0  0  0  0  0
    1.2310   -3.8260   -4.8290 C   0  0  0  0  0  0  0  0  0  0  0  0
    0.7050   -4.1610   -3.5990 C   0  0  0  0  0  0  0  0  0  0  0  0
    0.6670   -1.7450   -0.5600 C   0  0  0  0  0  0  0  0  0  0  0  0
    1.2790   -1.2580   -1.5300 O   0  0  0  0  0  0  0  0  0  0  0  0
    0.3920   -3.3180    1.4580 H   0  0  0  0  0  0  0  0  0  0  0  0
   -0.5550   -4.4990    0.7610 H   0  0  0  0  0  0  0  0  0  0  0  0
    1.1050   -3.8580   -0.6020 H   0  0  0  0  0  0  0  0  0  0  0  0
   -1.6820   -2.9990   -1.5780 H   0  0  0  0  0  0  0  0  0  0  0  0
   -0.9150   -4.6230   -1.5160 H   0  0  0  0  0  0  0  0  0  0  0  0
   -1.0230   -1.3300   -3.0190 H   0  0  0  0  0  0  0  0  0  0  0  0
   -0.0940   -0.7350   -5.1890 H   0  0  0  0  0  0  0  0  0  0  0  0
    1.3840   -2.3760   -6.3750 H   0  0  0  0  0  0  0  0  0  0  0  0
    1.8650   -4.5420   -5.3280 H   0  0  0  0  0  0  0  0  0  0  0  0
    0.9090   -5.1220   -3.1180 H   0  0  0  0  0  0  0  0  0  0  0  0
    0.4100   -0.8430    0.5480 N   0  0  0  0  0  0  0  0  0  0  0  0
    0.8570    0.5170    0.4800 C   0  0  0  0  0  0  0  0  0  0  0  0
    0.5440    1.3350    1.6530 C   0  0  0  0  0  0  0  0  0  0  0  0
    0.8880    2.5630    1.7130 O   0  0  0  0  0  0  0  0  0  0  0  0
   -0.0990   -1.2230    1.3690 H   0  0  0  0  0  0  0  0  0  0  0  0
    1.9390    0.5680    0.1980 H   0  0  0  0  0  0  0  0  0  0  0  0
    0.3240    1.0060   -0.3900 H   0  0  0  0  0  0  0  0  0  0  0  0
    0.1620    2.9960    5.8870 C   0  0  0  0  0  0  0  0  0  0  0  0
    0.6850    2.0820    4.7900 C   0  0  0  0  0  0  0  0  0  0  0  0
    1.1610    0.8270    5.5260 C   0  0  0  0  0  0  0  0  0  0  0  0
   -0.4180    1.7420    3.8990 C   0  0  2  0  0  0  0  0  0  0  0  0
   -0.1380    0.8790    2.7900 N   0  0  0  0  0  0  0  0  0  0  0  0
   -1.1990    2.9150    3.3700 C   0  0  0  0  0  0  0  0  0  0  0  0
   -1.5210    3.8560    4.1390 O   0  0  0  0  0  0  0  0  0  0  0  0
   -1.6020    3.0340    2.0510 O   0  0  0  0  0  0  0  0  0  0  0  0
   -0.8890    2.7290    6.0740 H   0  0  0  0  0  0  0  0  0  0  0  0
    0.2520    4.0650    5.6320 H   0  0  0  0  0  0  0  0  0  0  0  0
    0.7310    2.8200    6.8420 H   0  0  0  0  0  0  0  0  0  0  0  0
    1.5340    2.6300    4.3400 H   0  0  0  0  0  0  0  0  0  0  0  0
    0.2740    0.1620    5.5970 H   0  0  0  0  0  0  0  0  0  0  0  0
    1.9260    0.2810    4.9600 H   0  0  0  0  0  0  0  0  0  0  0  0
    1.5050    1.0810    6.5480 H   0  0  0  0  0  0  0  0  0  0  0  0
   -1.2090    1.2080    4.5180 H   0  0  0  0  0  0  0  0  0  0  0  0
   -0.4690   -0.1140    2.8750 H   0  0  0  0  0  0  0  0  0  0  0  0
  1 12  1  0  0  0  0
  2 14  1  6  0  0  0
  2  1  1  0  0  0  0
  3 15  1  0  0  0  0
  3 16  1  0  0  0  0
  3  2  1  0  0  0  0
  4  3  1  0  0  0  0
  5 17  1  0  0  0  0
  5  4  1  0  0  0  0
  6  5  2  0  0  0  0
  7  8  2  0  0  0  0
  7  6  1  0  0  0  0
  8  9  1  0  0  0  0
  9 21  1  0  0  0  0
  9  4  2  0  0  0  0
 10  2  1  0  0  0  0
 10 22  1  0  0  0  0
 11 10  2  0  0  0  0
 13  1  1  0  0  0  0
 18  6  1  0  0  0  0
 19  7  1  0  0  0  0
 20  8  1  0  0  0  0
 22 26  1  0  0  0  0
 23 22  1  0  0  0  0
 23 24  1  0  0  0  0
 24 25  2  0  0  0  0
 24 33  1  0  0  0  0
 27 23  1  0  0  0  0
 28 23  1  0  0  0  0
 29 37  1  0  0  0  0
 29 39  1  0  0  0  0
 30 31  1  0  0  0  0
 30 29  1  0  0  0  0
 31 41  1  0  0  0  0
 31 43  1  0  0  0  0
 32 44  1  1  0  0  0
 32 30  1  0  0  0  0
 33 45  1  0  0  0  0
 33 32  1  0  0  0  0
 34 32  1  0  0  0  0
 34 35  1  0  0  0  0
 36 34  2  0  0  0  0
 38 29  1  0  0  0  0
 40 30  1  0  0  0  0
 42 31  1  0  0  0  0
M  END
$$$$
