FGW.pdb
 OpenBabel07022418593D

 53 55  0  0  1  0  0  0  0  0999 V2000
    5.8850    0.4770   -1.3960 N   0  0  0  0  0  0  0  0  0  0  0  0
    4.9210    0.4730   -0.2760 C   0  0  1  0  0  0  0  0  0  0  0  0
    4.8750    1.8800    0.3130 C   0  0  0  0  0  0  0  0  0  0  0  0
    3.9340    1.9930    1.4360 C   0  0  0  0  0  0  0  0  0  0  0  0
    4.3710    1.6890    2.7250 C   0  0  0  0  0  0  0  0  0  0  0  0
    3.5120    1.8110    3.7850 C   0  0  0  0  0  0  0  0  0  0  0  0
    2.2050    2.2270    3.6610 C   0  0  0  0  0  0  0  0  0  0  0  0
    1.7770    2.5290    2.3700 C   0  0  0  0  0  0  0  0  0  0  0  0
    2.6270    2.4110    1.2970 C   0  0  0  0  0  0  0  0  0  0  0  0
    3.6260   -0.0300   -0.7220 C   0  0  0  0  0  0  0  0  0  0  0  0
    3.3790   -0.1150   -1.9620 O   0  0  0  0  0  0  0  0  0  0  0  0
    5.5030    0.0770   -2.2570 H   0  0  0  0  0  0  0  0  0  0  0  0
    6.7620    0.0900   -1.0470 H   0  0  0  0  0  0  0  0  0  0  0  0
    5.3170   -0.2210    0.4760 H   0  0  0  0  0  0  0  0  0  0  0  0
    4.5760    2.5410   -0.5330 H   0  0  0  0  0  0  0  0  0  0  0  0
    5.8980    2.1570    0.6070 H   0  0  0  0  0  0  0  0  0  0  0  0
    5.4080    1.3580    2.8290 H   0  0  0  0  0  0  0  0  0  0  0  0
    3.8670    1.5690    4.7990 H   0  0  0  0  0  0  0  0  0  0  0  0
    1.5410    2.3170    4.5130 H   0  0  0  0  0  0  0  0  0  0  0  0
    0.7350    2.8600    2.2690 H   0  0  0  0  0  0  0  0  0  0  0  0
    2.2420    2.6590    0.3200 H   0  0  0  0  0  0  0  0  0  0  0  0
    2.5950   -0.4470    0.1480 N   0  0  0  0  0  0  0  0  0  0  0  0
    1.3140   -0.9400   -0.3490 C   0  0  0  0  0  0  0  0  0  0  0  0
    0.4750   -1.2840    0.8160 C   0  0  0  0  0  0  0  0  0  0  0  0
    0.9140   -1.1300    1.9790 O   0  0  0  0  0  0  0  0  0  0  0  0
    2.7750   -0.4060    1.1750 H   0  0  0  0  0  0  0  0  0  0  0  0
    0.8600   -0.1530   -0.9860 H   0  0  0  0  0  0  0  0  0  0  0  0
    1.5630   -1.8360   -0.9800 H   0  0  0  0  0  0  0  0  0  0  0  0
   -0.8240   -1.7870    0.6240 N   0  0  0  0  0  0  0  0  0  0  0  0
   -1.7300   -2.1540    1.7070 C   0  0  1  0  0  0  0  0  0  0  0  0
   -2.8890   -1.1980    1.5780 C   0  0  0  0  0  0  0  0  0  0  0  0
   -3.5480   -1.2890    0.2630 C   0  0  0  0  0  0  0  0  0  0  0  0
   -3.1770   -0.4550   -0.8090 C   0  0  0  0  0  0  0  0  0  0  0  0
   -3.9260   -0.8410   -1.8380 N   0  0  0  0  0  0  0  0  0  0  0  0
   -4.7390   -1.8530   -1.4950 C   0  0  0  0  0  0  0  0  0  0  0  0
   -5.6800   -2.5510   -2.2220 C   0  0  0  0  0  0  0  0  0  0  0  0
   -6.4170   -3.5540   -1.6500 C   0  0  0  0  0  0  0  0  0  0  0  0
   -6.1800   -3.8350   -0.3230 C   0  0  0  0  0  0  0  0  0  0  0  0
   -5.2590   -3.1710    0.4350 C   0  0  0  0  0  0  0  0  0  0  0  0
   -4.5190   -2.1550   -0.1680 C   0  0  0  0  0  0  0  0  0  0  0  0
   -2.1720   -3.5320    1.6860 C   0  0  0  0  0  0  0  0  0  0  0  0
   -2.8410   -4.1060    2.5670 O   0  0  0  0  0  0  0  0  0  0  0  0
   -1.8230   -4.3150    0.5780 O   0  0  0  0  0  0  0  0  0  0  0  0
   -1.1520   -1.9000   -0.3620 H   0  0  0  0  0  0  0  0  0  0  0  0
   -1.2180   -1.9710    2.6830 H   0  0  0  0  0  0  0  0  0  0  0  0
   -3.6050   -1.4670    2.3870 H   0  0  0  0  0  0  0  0  0  0  0  0
   -2.5630   -0.1430    1.7970 H   0  0  0  0  0  0  0  0  0  0  0  0
   -2.4390    0.3340   -0.7990 H   0  0  0  0  0  0  0  0  0  0  0  0
   -3.9230   -0.4450   -2.8090 H   0  0  0  0  0  0  0  0  0  0  0  0
   -5.8740   -2.3370   -3.2710 H   0  0  0  0  0  0  0  0  0  0  0  0
   -7.1570   -4.1010   -2.2300 H   0  0  0  0  0  0  0  0  0  0  0  0
   -6.7580   -4.6250    0.1430 H   0  0  0  0  0  0  0  0  0  0  0  0
   -5.0780   -3.3640    1.4640 H   0  0  0  0  0  0  0  0  0  0  0  0
  1 13  1  0  0  0  0
  1  2  1  0  0  0  0
  2  3  1  0  0  0  0
  2 14  1  1  0  0  0
  3 16  1  0  0  0  0
  3  4  1  0  0  0  0
  4  5  1  0  0  0  0
  5 17  1  0  0  0  0
  5  6  2  0  0  0  0
  6 18  1  0  0  0  0
  7  6  1  0  0  0  0
  7 19  1  0  0  0  0
  8  7  2  0  0  0  0
  9  4  2  0  0  0  0
  9  8  1  0  0  0  0
 10  2  1  0  0  0  0
 10 22  1  0  0  0  0
 11 10  2  0  0  0  0
 12  1  1  0  0  0  0
 15  3  1  0  0  0  0
 20  8  1  0  0  0  0
 21  9  1  0  0  0  0
 22 26  1  0  0  0  0
 23 22  1  0  0  0  0
 23 24  1  0  0  0  0
 24 25  2  0  0  0  0
 27 23  1  0  0  0  0
 28 23  1  0  0  0  0
 29 24  1  0  0  0  0
 29 30  1  0  0  0  0
 30 45  1  1  0  0  0
 31 30  1  0  0  0  0
 31 47  1  0  0  0  0
 31 46  1  0  0  0  0
 32 31  1  0  0  0  0
 33 48  1  0  0  0  0
 33 32  2  0  0  0  0
 34 35  1  0  0  0  0
 34 33  1  0  0  0  0
 35 40  1  0  0  0  0
 36 37  1  0  0  0  0
 36 35  2  0  0  0  0
 37 38  2  0  0  0  0
 38 52  1  0  0  0  0
 38 39  1  0  0  0  0
 39 53  1  0  0  0  0
 40 32  1  0  0  0  0
 40 39  2  0  0  0  0
 41 30  1  0  0  0  0
 41 42  1  0  0  0  0
 43 41  2  0  0  0  0
 44 29  1  0  0  0  0
 49 34  1  0  0  0  0
 50 36  1  0  0  0  0
 51 37  1  0  0  0  0
M  END
$$$$
