FHE.pdb
 OpenBabel07022418593D

 55 56  0  0  1  0  0  0  0  0999 V2000
    2.7980   -1.2880    2.2940 N   0  0  0  0  0  0  0  0  0  0  0  0
    1.8010   -0.4030    2.8900 C   0  0  1  0  0  0  0  0  0  0  0  0
    2.4640    0.7400    3.6060 C   0  0  0  0  0  0  0  0  0  0  0  0
    1.5350    1.6830    4.2360 C   0  0  0  0  0  0  0  0  0  0  0  0
    1.0870    1.4590    5.5310 C   0  0  0  0  0  0  0  0  0  0  0  0
    0.2210    2.3530    6.1180 C   0  0  0  0  0  0  0  0  0  0  0  0
   -0.2310    3.4840    5.4690 C   0  0  0  0  0  0  0  0  0  0  0  0
    0.2150    3.7060    4.1830 C   0  0  0  0  0  0  0  0  0  0  0  0
    1.0810    2.8150    3.5910 C   0  0  0  0  0  0  0  0  0  0  0  0
    0.8310    0.0680    1.8850 C   0  0  0  0  0  0  0  0  0  0  0  0
   -0.1380    0.8230    2.1400 O   0  0  0  0  0  0  0  0  0  0  0  0
    3.3700   -0.7600    1.5690 H   0  0  0  0  0  0  0  0  0  0  0  0
    2.3360   -2.0720    1.7830 H   0  0  0  0  0  0  0  0  0  0  0  0
    1.3140   -1.0270    3.6980 H   0  0  0  0  0  0  0  0  0  0  0  0
    3.1640    0.3800    4.4000 H   0  0  0  0  0  0  0  0  0  0  0  0
    3.0680    1.2960    2.8490 H   0  0  0  0  0  0  0  0  0  0  0  0
    1.4160    0.5730    6.0930 H   0  0  0  0  0  0  0  0  0  0  0  0
   -0.1460    2.1900    7.1430 H   0  0  0  0  0  0  0  0  0  0  0  0
   -0.9210    4.1840    5.9550 H   0  0  0  0  0  0  0  0  0  0  0  0
   -0.1270    4.5870    3.6590 H   0  0  0  0  0  0  0  0  0  0  0  0
    1.4230    3.0190    2.5690 H   0  0  0  0  0  0  0  0  0  0  0  0
    0.9260   -0.3110    0.5010 N   0  0  0  0  0  0  0  0  0  0  0  0
   -0.0420    0.1650   -0.4970 C   0  0  1  0  0  0  0  0  0  0  0  0
    0.6390    0.8100   -1.6540 C   0  0  0  0  0  0  0  0  0  0  0  0
   -0.3770    1.2860   -2.6260 C   0  0  0  0  0  0  0  0  0  0  0  0
   -0.9740    2.5590   -2.5880 C   0  0  0  0  0  0  0  0  0  0  0  0
   -1.8500    2.6840   -3.5980 N   0  0  0  0  0  0  0  0  0  0  0  0
   -1.8240    1.5290   -4.2720 C   0  0  0  0  0  0  0  0  0  0  0  0
   -0.9420    0.7000   -3.6850 N   0  0  0  0  0  0  0  0  0  0  0  0
   -0.7950   -1.0530   -0.9200 C   0  0  0  0  0  0  0  0  0  0  0  0
   -1.7030   -0.9270   -1.7740 O   0  0  0  0  0  0  0  0  0  0  0  0
    1.7040   -0.9380    0.2120 H   0  0  0  0  0  0  0  0  0  0  0  0
   -0.7490    0.8870   -0.0500 H   0  0  0  0  0  0  0  0  0  0  0  0
    1.3280    0.1300   -2.1980 H   0  0  0  0  0  0  0  0  0  0  0  0
    1.1930    1.7190   -1.3050 H   0  0  0  0  0  0  0  0  0  0  0  0
   -0.7380    3.3140   -1.8330 H   0  0  0  0  0  0  0  0  0  0  0  0
   -2.4280    3.5290   -3.7980 H   0  0  0  0  0  0  0  0  0  0  0  0
   -2.4180    1.3100   -5.1450 H   0  0  0  0  0  0  0  0  0  0  0  0
   -0.5310   -2.3440   -0.4010 N   0  0  0  0  0  0  0  0  0  0  0  0
   -1.2880   -3.5360   -0.8330 C   0  0  1  0  0  0  0  0  0  0  0  0
   -0.2530   -4.4830   -1.3800 C   0  0  0  0  0  0  0  0  0  0  0  0
   -0.7910   -5.7750   -1.8950 C   0  0  0  0  0  0  0  0  0  0  0  0
   -1.7450   -5.6080   -3.0120 C   0  0  0  0  0  0  0  0  0  0  0  0
   -2.9260   -5.2130   -2.9050 O   0  0  0  0  0  0  0  0  0  0  0  0
   -2.0130   -4.1110    0.3330 C   0  0  0  0  0  0  0  0  0  0  0  0
   -1.9230   -3.5970    1.4780 O   0  0  0  0  0  0  0  0  0  0  0  0
   -1.3020   -5.9150   -4.2970 O   0  0  0  0  0  0  0  0  0  0  0  0
   -2.8010   -5.2270    0.1680 O   0  0  0  0  0  0  0  0  0  0  0  0
    0.2280   -2.4330    0.3080 H   0  0  0  0  0  0  0  0  0  0  0  0
   -2.0170   -3.2670   -1.6140 H   0  0  0  0  0  0  0  0  0  0  0  0
    0.3500   -3.9910   -2.1830 H   0  0  0  0  0  0  0  0  0  0  0  0
    0.4360   -4.7260   -0.5260 H   0  0  0  0  0  0  0  0  0  0  0  0
   -1.2370   -6.3920   -1.0850 H   0  0  0  0  0  0  0  0  0  0  0  0
    0.0930   -6.3600   -2.2650 H   0  0  0  0  0  0  0  0  0  0  0  0
   -1.7380   -5.4780   -5.0990 H   0  0  0  0  0  0  0  0  0  0  0  0
  1  2  1  0  0  0  0
  2  3  1  0  0  0  0
  2 14  1  1  0  0  0
  3  4  1  0  0  0  0
  3 15  1  0  0  0  0
  4  5  1  0  0  0  0
  5 17  1  0  0  0  0
  5  6  2  0  0  0  0
  6 18  1  0  0  0  0
  7 19  1  0  0  0  0
  7  6  1  0  0  0  0
  8  7  2  0  0  0  0
  9  8  1  0  0  0  0
  9  4  2  0  0  0  0
 10 11  2  0  0  0  0
 10  2  1  0  0  0  0
 12  1  1  0  0  0  0
 13  1  1  0  0  0  0
 16  3  1  0  0  0  0
 20  8  1  0  0  0  0
 21  9  1  0  0  0  0
 22 10  1  0  0  0  0
 23 33  1  1  0  0  0
 23 22  1  0  0  0  0
 24 35  1  0  0  0  0
 24 23  1  0  0  0  0
 25 26  2  0  0  0  0
 25 24  1  0  0  0  0
 26 36  1  0  0  0  0
 27 26  1  0  0  0  0
 28 29  2  0  0  0  0
 28 27  1  0  0  0  0
 29 25  1  0  0  0  0
 30 23  1  0  0  0  0
 30 39  1  0  0  0  0
 31 30  2  0  0  0  0
 32 22  1  0  0  0  0
 34 24  1  0  0  0  0
 37 27  1  0  0  0  0
 38 28  1  0  0  0  0
 39 49  1  0  0  0  0
 40 50  1  6  0  0  0
 40 39  1  0  0  0  0
 40 45  1  0  0  0  0
 41 40  1  0  0  0  0
 41 52  1  0  0  0  0
 42 41  1  0  0  0  0
 42 53  1  0  0  0  0
 43 44  2  0  0  0  0
 43 42  1  0  0  0  0
 45 46  1  0  0  0  0
 47 43  1  0  0  0  0
 48 45  2  0  0  0  0
 51 41  1  0  0  0  0
 54 42  1  0  0  0  0
 55 47  1  0  0  0  0
M  END
$$$$
