FHF.pdb
 OpenBabel07022418593D

 59 61  0  0  1  0  0  0  0  0999 V2000
    1.7610    2.2600    1.4750 N   0  0  0  0  0  0  0  0  0  0  0  0
    1.8910    0.9170    0.9230 C   0  0  1  0  0  0  0  0  0  0  0  0
    2.0110   -0.0250    2.0970 C   0  0  0  0  0  0  0  0  0  0  0  0
    3.1770    0.2660    2.9430 C   0  0  0  0  0  0  0  0  0  0  0  0
    3.0270    1.1540    4.0020 C   0  0  0  0  0  0  0  0  0  0  0  0
    4.1030    1.4520    4.8200 C   0  0  0  0  0  0  0  0  0  0  0  0
    5.3380    0.8790    4.6030 C   0  0  0  0  0  0  0  0  0  0  0  0
    5.4940   -0.0080    3.5460 C   0  0  0  0  0  0  0  0  0  0  0  0
    4.4250   -0.3060    2.7320 C   0  0  0  0  0  0  0  0  0  0  0  0
    0.6470    0.5870    0.1810 C   0  0  0  0  0  0  0  0  0  0  0  0
    0.5730   -0.5350   -0.3660 O   0  0  0  0  0  0  0  0  0  0  0  0
    0.9830    2.2290    2.1760 H   0  0  0  0  0  0  0  0  0  0  0  0
    2.6430    2.5910    1.8990 H   0  0  0  0  0  0  0  0  0  0  0  0
    2.7310    0.8420    0.2150 H   0  0  0  0  0  0  0  0  0  0  0  0
    2.0610   -1.0850    1.8010 H   0  0  0  0  0  0  0  0  0  0  0  0
    1.0960    0.1010    2.7110 H   0  0  0  0  0  0  0  0  0  0  0  0
    2.0920    1.6370    4.2300 H   0  0  0  0  0  0  0  0  0  0  0  0
    3.9760    2.1460    5.6440 H   0  0  0  0  0  0  0  0  0  0  0  0
    6.1740    1.1250    5.2560 H   0  0  0  0  0  0  0  0  0  0  0  0
    6.4710   -0.4380    3.4030 H   0  0  0  0  0  0  0  0  0  0  0  0
    4.5200   -0.9910    1.9050 H   0  0  0  0  0  0  0  0  0  0  0  0
   -0.4580    1.4850    0.0670 N   0  0  0  0  0  0  0  0  0  0  0  0
   -1.6760    1.2550   -0.6100 C   0  0  1  0  0  0  0  0  0  0  0  0
   -1.6740    1.3640   -2.0920 C   0  0  0  0  0  0  0  0  0  0  0  0
   -0.7880    0.4750   -2.8290 C   0  0  0  0  0  0  0  0  0  0  0  0
   -1.0580   -0.7950   -3.3060 C   0  0  0  0  0  0  0  0  0  0  0  0
    0.0290   -1.2790   -3.9330 N   0  0  0  0  0  0  0  0  0  0  0  0
    0.9710   -0.3340   -3.8560 C   0  0  0  0  0  0  0  0  0  0  0  0
    0.5030    0.7360   -3.1940 N   0  0  0  0  0  0  0  0  0  0  0  0
   -2.4950    0.1110   -0.1840 C   0  0  0  0  0  0  0  0  0  0  0  0
   -3.5450   -0.0840   -0.8950 O   0  0  0  0  0  0  0  0  0  0  0  0
   -0.2720    2.4110    0.5710 H   0  0  0  0  0  0  0  0  0  0  0  0
   -2.3550    2.1450   -0.2740 H   0  0  0  0  0  0  0  0  0  0  0  0
   -1.5490    2.4270   -2.4460 H   0  0  0  0  0  0  0  0  0  0  0  0
   -2.7260    1.1150   -2.4280 H   0  0  0  0  0  0  0  0  0  0  0  0
   -1.9780   -1.3590   -3.2180 H   0  0  0  0  0  0  0  0  0  0  0  0
    0.1370   -2.2230   -4.4040 H   0  0  0  0  0  0  0  0  0  0  0  0
    1.9740   -0.4210   -4.2710 H   0  0  0  0  0  0  0  0  0  0  0  0
   -2.2430   -0.7590    0.9010 N   0  0  0  0  0  0  0  0  0  0  0  0
   -3.1630   -1.8120    1.1720 C   0  0  1  0  0  0  0  0  0  0  0  0
   -2.6390   -3.2010    1.1690 C   0  0  0  0  0  0  0  0  0  0  0  0
   -2.0560   -3.6160   -0.1160 C   0  0  0  0  0  0  0  0  0  0  0  0
   -2.8820   -4.1690   -1.1000 C   0  0  0  0  0  0  0  0  0  0  0  0
   -2.3020   -4.5590   -2.2850 C   0  0  0  0  0  0  0  0  0  0  0  0
   -0.9630   -4.4170   -2.5070 C   0  0  0  0  0  0  0  0  0  0  0  0
   -0.1770   -3.8710   -1.5230 C   0  0  0  0  0  0  0  0  0  0  0  0
   -0.7260   -3.4770   -0.3410 C   0  0  0  0  0  0  0  0  0  0  0  0
   -3.8870   -1.5520    2.4770 C   0  0  0  0  0  0  0  0  0  0  0  0
   -3.6540   -0.5280    3.1670 O   0  0  0  0  0  0  0  0  0  0  0  0
   -4.8340   -2.4460    2.9460 O   0  0  0  0  0  0  0  0  0  0  0  0
   -1.3710   -0.5850    1.4830 H   0  0  0  0  0  0  0  0  0  0  0  0
   -3.9790   -1.7770    0.4010 H   0  0  0  0  0  0  0  0  0  0  0  0
   -1.9540   -3.4190    2.0180 H   0  0  0  0  0  0  0  0  0  0  0  0
   -3.5350   -3.8690    1.3410 H   0  0  0  0  0  0  0  0  0  0  0  0
   -3.9450   -4.2840   -0.9290 H   0  0  0  0  0  0  0  0  0  0  0  0
   -2.9230   -4.9980   -3.0820 H   0  0  0  0  0  0  0  0  0  0  0  0
   -0.5170   -4.7260   -3.4400 H   0  0  0  0  0  0  0  0  0  0  0  0
    0.8990   -3.7500   -1.6840 H   0  0  0  0  0  0  0  0  0  0  0  0
   -0.1170   -3.0400    0.4660 H   0  0  0  0  0  0  0  0  0  0  0  0
  1 13  1  0  0  0  0
  1 12  1  0  0  0  0
  2 14  1  6  0  0  0
  2  1  1  0  0  0  0
  2  3  1  0  0  0  0
  3 16  1  0  0  0  0
  3  4  1  0  0  0  0
  4  5  1  0  0  0  0
  5 17  1  0  0  0  0
  5  6  2  0  0  0  0
  6 18  1  0  0  0  0
  7  6  1  0  0  0  0
  7 19  1  0  0  0  0
  8  7  2  0  0  0  0
  9  4  2  0  0  0  0
  9  8  1  0  0  0  0
 10  2  1  0  0  0  0
 11 10  2  0  0  0  0
 15  3  1  0  0  0  0
 20  8  1  0  0  0  0
 21  9  1  0  0  0  0
 22 10  1  0  0  0  0
 22 32  1  0  0  0  0
 23 33  1  1  0  0  0
 23 30  1  0  0  0  0
 23 22  1  0  0  0  0
 24 23  1  0  0  0  0
 25 24  1  0  0  0  0
 26 36  1  0  0  0  0
 26 25  2  0  0  0  0
 27 28  1  0  0  0  0
 27 26  1  0  0  0  0
 28 29  2  0  0  0  0
 29 25  1  0  0  0  0
 30 39  1  0  0  0  0
 31 30  2  0  0  0  0
 34 24  1  0  0  0  0
 35 24  1  0  0  0  0
 37 27  1  0  0  0  0
 38 28  1  0  0  0  0
 39 40  1  0  0  0  0
 39 51  1  0  0  0  0
 40 52  1  6  0  0  0
 40 48  1  0  0  0  0
 41 40  1  0  0  0  0
 41 54  1  0  0  0  0
 41 53  1  0  0  0  0
 42 41  1  0  0  0  0
 43 55  1  0  0  0  0
 43 42  2  0  0  0  0
 44 43  1  0  0  0  0
 45 44  2  0  0  0  0
 45 46  1  0  0  0  0
 46 47  2  0  0  0  0
 47 42  1  0  0  0  0
 47 59  1  0  0  0  0
 48 50  2  0  0  0  0
 48 49  1  0  0  0  0
 56 44  1  0  0  0  0
 57 45  1  0  0  0  0
 58 46  1  0  0  0  0
M  END
$$$$
