FHG.pdb
 OpenBabel07022418593D

 46 47  0  0  1  0  0  0  0  0999 V2000
    0.3950   -3.5440    0.7400 N   0  0  0  0  0  0  0  0  0  0  0  0
    1.3230   -2.4440    0.4690 C   0  0  1  0  0  0  0  0  0  0  0  0
    1.5790   -2.3310   -1.0040 C   0  0  0  0  0  0  0  0  0  0  0  0
    2.5100   -1.2280   -1.2810 C   0  0  0  0  0  0  0  0  0  0  0  0
    2.1080    0.0640   -1.6160 C   0  0  0  0  0  0  0  0  0  0  0  0
    2.9960    1.0790   -1.8660 C   0  0  0  0  0  0  0  0  0  0  0  0
    4.3430    0.8160   -1.7860 C   0  0  0  0  0  0  0  0  0  0  0  0
    4.7750   -0.4500   -1.4580 C   0  0  0  0  0  0  0  0  0  0  0  0
    3.8740   -1.4540   -1.2100 C   0  0  0  0  0  0  0  0  0  0  0  0
    0.7060   -1.1670    0.9540 C   0  0  0  0  0  0  0  0  0  0  0  0
    1.4260   -0.1580    0.9800 O   0  0  0  0  0  0  0  0  0  0  0  0
    0.8990   -4.4310    0.4830 H   0  0  0  0  0  0  0  0  0  0  0  0
    0.2600   -3.5990    1.7820 H   0  0  0  0  0  0  0  0  0  0  0  0
    2.2830   -2.5630    0.9970 H   0  0  0  0  0  0  0  0  0  0  0  0
    1.9460   -3.2970   -1.4220 H   0  0  0  0  0  0  0  0  0  0  0  0
    0.6220   -2.1000   -1.5540 H   0  0  0  0  0  0  0  0  0  0  0  0
    1.0370    0.2820   -1.6860 H   0  0  0  0  0  0  0  0  0  0  0  0
    2.6860    2.0770   -2.1240 H   0  0  0  0  0  0  0  0  0  0  0  0
    5.0530    1.5910   -1.9760 H   0  0  0  0  0  0  0  0  0  0  0  0
    5.8510   -0.6760   -1.3890 H   0  0  0  0  0  0  0  0  0  0  0  0
    4.2430   -2.4350   -0.9560 H   0  0  0  0  0  0  0  0  0  0  0  0
   -0.6470   -1.1440    1.3590 N   0  0  0  0  0  0  0  0  0  0  0  0
   -1.4030   -0.0570    1.8660 C   0  0  1  0  0  0  0  0  0  0  0  0
   -0.5730    1.2020    2.0920 C   0  0  0  0  0  0  0  0  0  0  0  0
    0.4250    0.8900    3.1620 C   0  0  0  0  0  0  0  0  0  0  0  0
    1.4040    1.7390    3.6620 C   0  0  0  0  0  0  0  0  0  0  0  0
    2.0820    1.0690    4.6070 N   0  0  0  0  0  0  0  0  0  0  0  0
    1.5860   -0.1720    4.7390 C   0  0  0  0  0  0  0  0  0  0  0  0
    0.5790   -0.2630    3.8540 N   0  0  0  0  0  0  0  0  0  0  0  0
   -2.7200    0.1710    1.3050 C   0  0  0  0  0  0  0  0  0  0  0  0
   -3.4110    1.1350    1.7430 O   0  0  0  0  0  0  0  0  0  0  0  0
   -1.1450   -2.0940    1.2570 H   0  0  0  0  0  0  0  0  0  0  0  0
   -1.5740   -0.3580    2.9890 H   0  0  0  0  0  0  0  0  0  0  0  0
   -1.2400    1.9940    2.4880 H   0  0  0  0  0  0  0  0  0  0  0  0
   -0.1050    1.5880    1.1900 H   0  0  0  0  0  0  0  0  0  0  0  0
    1.5800    2.7610    3.3370 H   0  0  0  0  0  0  0  0  0  0  0  0
    2.8890    1.4120    5.1880 H   0  0  0  0  0  0  0  0  0  0  0  0
    1.8980   -0.9630    5.4050 H   0  0  0  0  0  0  0  0  0  0  0  0
   -3.3240   -0.6100    0.2800 N   0  0  0  0  0  0  0  0  0  0  0  0
   -4.6480   -0.3290   -0.2370 C   0  0  0  0  0  0  0  0  0  0  0  0
   -5.6590   -0.4150    0.8440 C   0  0  0  0  0  0  0  0  0  0  0  0
   -5.2720   -0.7060    2.0010 O   0  0  0  0  0  0  0  0  0  0  0  0
   -7.0120   -0.1930    0.6530 O   0  0  0  0  0  0  0  0  0  0  0  0
   -2.7700   -1.4090   -0.0930 H   0  0  0  0  0  0  0  0  0  0  0  0
   -4.6720    0.6620   -0.7380 H   0  0  0  0  0  0  0  0  0  0  0  0
   -4.8970   -1.0990   -1.0060 H   0  0  0  0  0  0  0  0  0  0  0  0
  1 13  1  0  0  0  0
  2  1  1  0  0  0  0
  2 10  1  0  0  0  0
  2 14  1  1  0  0  0
  3  2  1  0  0  0  0
  4  9  1  0  0  0  0
  4  3  1  0  0  0  0
  5  4  2  0  0  0  0
  6  7  2  0  0  0  0
  6  5  1  0  0  0  0
  7  8  1  0  0  0  0
  8 20  1  0  0  0  0
  8  9  2  0  0  0  0
  9 21  1  0  0  0  0
 10 11  2  0  0  0  0
 10 22  1  0  0  0  0
 12  1  1  0  0  0  0
 15  3  1  0  0  0  0
 16  3  1  0  0  0  0
 17  5  1  0  0  0  0
 18  6  1  0  0  0  0
 19  7  1  0  0  0  0
 22 23  1  0  0  0  0
 23 24  1  0  0  0  0
 23 33  1  1  0  0  0
 24 34  1  0  0  0  0
 24 25  1  0  0  0  0
 25 26  2  0  0  0  0
 25 29  1  0  0  0  0
 26 27  1  0  0  0  0
 27 28  1  0  0  0  0
 27 37  1  0  0  0  0
 28 38  1  0  0  0  0
 29 28  2  0  0  0  0
 30 31  2  0  0  0  0
 30 23  1  0  0  0  0
 32 22  1  0  0  0  0
 35 24  1  0  0  0  0
 36 26  1  0  0  0  0
 39 30  1  0  0  0  0
 40 39  1  0  0  0  0
 40 41  1  0  0  0  0
 41 42  1  0  0  0  0
 43 41  2  0  0  0  0
 44 39  1  0  0  0  0
 45 40  1  0  0  0  0
 46 40  1  0  0  0  0
M  END
$$$$
