FHH.pdb
 OpenBabel07022418593D

 56 58  0  0  1  0  0  0  0  0999 V2000
    1.0710   -2.8830    2.9020 N   0  0  0  0  0  0  0  0  0  0  0  0
    0.9790   -1.5450    2.3580 C   0  0  1  0  0  0  0  0  0  0  0  0
    1.9610   -1.4260    1.2130 C   0  0  0  0  0  0  0  0  0  0  0  0
    3.3630   -1.6710    1.6710 C   0  0  0  0  0  0  0  0  0  0  0  0
    4.1470   -0.6400    2.1250 C   0  0  0  0  0  0  0  0  0  0  0  0
    5.4340   -0.9040    2.5370 C   0  0  0  0  0  0  0  0  0  0  0  0
    5.9970   -2.1720    2.5210 C   0  0  0  0  0  0  0  0  0  0  0  0
    5.1650   -3.1750    2.0560 C   0  0  0  0  0  0  0  0  0  0  0  0
    3.8810   -2.9410    1.6400 C   0  0  0  0  0  0  0  0  0  0  0  0
   -0.3850   -1.3500    1.8170 C   0  0  0  0  0  0  0  0  0  0  0  0
   -1.2320   -2.2690    1.9220 O   0  0  0  0  0  0  0  0  0  0  0  0
    0.6280   -3.5580    2.2370 H   0  0  0  0  0  0  0  0  0  0  0  0
    0.6840   -2.9390    3.8600 H   0  0  0  0  0  0  0  0  0  0  0  0
    1.2120   -0.8060    3.1600 H   0  0  0  0  0  0  0  0  0  0  0  0
    1.9130   -0.4190    0.7580 H   0  0  0  0  0  0  0  0  0  0  0  0
    1.7430   -2.1600    0.4180 H   0  0  0  0  0  0  0  0  0  0  0  0
    3.7530    0.3750    2.1570 H   0  0  0  0  0  0  0  0  0  0  0  0
    6.0700   -0.1050    2.8980 H   0  0  0  0  0  0  0  0  0  0  0  0
    7.0150   -2.3630    2.8510 H   0  0  0  0  0  0  0  0  0  0  0  0
    5.5450   -4.2020    2.0160 H   0  0  0  0  0  0  0  0  0  0  0  0
    3.2790   -3.7900    1.2820 H   0  0  0  0  0  0  0  0  0  0  0  0
   -0.8000   -0.1530    1.1710 N   0  0  0  0  0  0  0  0  0  0  0  0
   -2.1360    0.0300    0.6450 C   0  0  1  0  0  0  0  0  0  0  0  0
   -2.7940    1.2550    1.2120 C   0  0  0  0  0  0  0  0  0  0  0  0
   -2.9150    1.1900    2.6890 C   0  0  0  0  0  0  0  0  0  0  0  0
   -3.4700    2.1660    3.4880 C   0  0  0  0  0  0  0  0  0  0  0  0
   -3.4170    1.7880    4.7780 N   0  0  0  0  0  0  0  0  0  0  0  0
   -2.8280    0.5680    4.8040 C   0  0  0  0  0  0  0  0  0  0  0  0
   -2.5300    0.2200    3.5370 N   0  0  0  0  0  0  0  0  0  0  0  0
   -2.0860    0.1650   -0.8580 C   0  0  0  0  0  0  0  0  0  0  0  0
   -3.1380    0.3320   -1.5170 O   0  0  0  0  0  0  0  0  0  0  0  0
   -0.1230    0.6250    1.0660 H   0  0  0  0  0  0  0  0  0  0  0  0
   -2.8010   -0.8360    0.8310 H   0  0  0  0  0  0  0  0  0  0  0  0
   -3.7800    1.4580    0.7980 H   0  0  0  0  0  0  0  0  0  0  0  0
   -2.1700    2.1700    0.9990 H   0  0  0  0  0  0  0  0  0  0  0  0
   -3.8930    3.1020    3.1660 H   0  0  0  0  0  0  0  0  0  0  0  0
   -3.7370    2.2680    5.6450 H   0  0  0  0  0  0  0  0  0  0  0  0
   -2.6140   -0.0520    5.6750 H   0  0  0  0  0  0  0  0  0  0  0  0
   -0.8430    0.1040   -1.5320 N   0  0  0  0  0  0  0  0  0  0  0  0
   -0.6090    0.1920   -2.9280 C   0  0  1  0  0  0  0  0  0  0  0  0
   -1.7390   -0.2900   -3.8250 C   0  0  0  0  0  0  0  0  0  0  0  0
   -2.0100   -1.7430   -3.6080 C   0  0  0  0  0  0  0  0  0  0  0  0
   -1.3680   -2.7740   -4.3200 C   0  0  0  0  0  0  0  0  0  0  0  0
   -1.8530   -3.9350   -3.8660 N   0  0  0  0  0  0  0  0  0  0  0  0
   -2.7580   -3.6810   -2.9130 C   0  0  0  0  0  0  0  0  0  0  0  0
   -2.8240   -2.3620   -2.7870 N   0  0  0  0  0  0  0  0  0  0  0  0
   -0.1370    1.4850   -3.4360 C   0  0  0  0  0  0  0  0  0  0  0  0
    0.0770    1.5920   -4.6690 O   0  0  0  0  0  0  0  0  0  0  0  0
    0.0900    2.6000   -2.6460 O   0  0  0  0  0  0  0  0  0  0  0  0
    0.0080   -0.0260   -0.8800 H   0  0  0  0  0  0  0  0  0  0  0  0
    0.1740   -0.6490   -3.1370 H   0  0  0  0  0  0  0  0  0  0  0  0
   -1.3950   -0.1910   -4.8870 H   0  0  0  0  0  0  0  0  0  0  0  0
   -2.6590    0.2750   -3.7480 H   0  0  0  0  0  0  0  0  0  0  0  0
   -0.6210   -2.5970   -5.0900 H   0  0  0  0  0  0  0  0  0  0  0  0
   -1.5840   -4.8870   -4.1870 H   0  0  0  0  0  0  0  0  0  0  0  0
   -3.3170   -4.4580   -2.3650 H   0  0  0  0  0  0  0  0  0  0  0  0
  1 13  1  0  0  0  0
  2  1  1  0  0  0  0
  2 14  1  1  0  0  0
  3  4  1  0  0  0  0
  3  2  1  0  0  0  0
  4  5  1  0  0  0  0
  5 17  1  0  0  0  0
  5  6  2  0  0  0  0
  6 18  1  0  0  0  0
  7  6  1  0  0  0  0
  7 19  1  0  0  0  0
  8  7  2  0  0  0  0
  9  4  2  0  0  0  0
  9  8  1  0  0  0  0
 10 11  2  0  0  0  0
 10  2  1  0  0  0  0
 12  1  1  0  0  0  0
 15  3  1  0  0  0  0
 16  3  1  0  0  0  0
 20  8  1  0  0  0  0
 21  9  1  0  0  0  0
 22 10  1  0  0  0  0
 23 33  1  1  0  0  0
 23 22  1  0  0  0  0
 23 24  1  0  0  0  0
 24 25  1  0  0  0  0
 25 26  2  0  0  0  0
 25 29  1  0  0  0  0
 26 27  1  0  0  0  0
 27 28  1  0  0  0  0
 27 37  1  0  0  0  0
 28 38  1  0  0  0  0
 29 28  2  0  0  0  0
 30 23  1  0  0  0  0
 31 30  2  0  0  0  0
 32 22  1  0  0  0  0
 34 24  1  0  0  0  0
 35 24  1  0  0  0  0
 36 26  1  0  0  0  0
 39 50  1  0  0  0  0
 39 30  1  0  0  0  0
 40 51  1  6  0  0  0
 40 39  1  0  0  0  0
 41 53  1  0  0  0  0
 41 42  1  0  0  0  0
 41 40  1  0  0  0  0
 42 46  1  0  0  0  0
 43 44  1  0  0  0  0
 43 42  2  0  0  0  0
 44 45  1  0  0  0  0
 45 46  2  0  0  0  0
 45 56  1  0  0  0  0
 47 40  1  0  0  0  0
 47 49  1  0  0  0  0
 48 47  2  0  0  0  0
 52 41  1  0  0  0  0
 54 43  1  0  0  0  0
 55 44  1  0  0  0  0
M  END
$$$$
