FHL.pdb
 OpenBabel07022418593D

 58 59  0  0  1  0  0  0  0  0999 V2000
    1.5320    3.0940   -2.5180 N   0  0  0  0  0  0  0  0  0  0  0  0
    1.5050    1.7420   -1.8500 C   0  0  1  0  0  0  0  0  0  0  0  0
    2.9380    1.5870   -1.4020 C   0  0  0  0  0  0  0  0  0  0  0  0
    3.1930    0.3270   -0.7040 C   0  0  0  0  0  0  0  0  0  0  0  0
    3.5090   -0.8300   -1.3600 C   0  0  0  0  0  0  0  0  0  0  0  0
    3.7960   -1.9930   -0.6820 C   0  0  0  0  0  0  0  0  0  0  0  0
    3.7710   -2.0190    0.7110 C   0  0  0  0  0  0  0  0  0  0  0  0
    3.4570   -0.8730    1.3730 C   0  0  0  0  0  0  0  0  0  0  0  0
    3.1710    0.2840    0.6860 C   0  0  0  0  0  0  0  0  0  0  0  0
    0.5170    1.8220   -0.7770 C   0  0  0  0  0  0  0  0  0  0  0  0
    0.3930    2.9410   -0.1830 O   0  0  0  0  0  0  0  0  0  0  0  0
    2.4300    3.2360   -2.9870 H   0  0  0  0  0  0  0  0  0  0  0  0
    0.7040    3.1510   -3.1530 H   0  0  0  0  0  0  0  0  0  0  0  0
    1.2500    1.0230   -2.6550 H   0  0  0  0  0  0  0  0  0  0  0  0
    3.1450    2.4530   -0.6960 H   0  0  0  0  0  0  0  0  0  0  0  0
    3.6190    1.7160   -2.3000 H   0  0  0  0  0  0  0  0  0  0  0  0
    3.5400   -0.8500   -2.4490 H   0  0  0  0  0  0  0  0  0  0  0  0
    4.0400   -2.8790   -1.2430 H   0  0  0  0  0  0  0  0  0  0  0  0
    3.9930   -2.9180    1.2540 H   0  0  0  0  0  0  0  0  0  0  0  0
    3.4350   -0.8600    2.4730 H   0  0  0  0  0  0  0  0  0  0  0  0
    2.9220    1.1880    1.2280 H   0  0  0  0  0  0  0  0  0  0  0  0
   -0.3370    0.7820   -0.3240 N   0  0  0  0  0  0  0  0  0  0  0  0
   -1.2830    1.0410    0.7550 C   0  0  1  0  0  0  0  0  0  0  0  0
   -2.6240    1.4160    0.1260 C   0  0  0  0  0  0  0  0  0  0  0  0
   -3.6460    1.8200    1.0930 C   0  0  0  0  0  0  0  0  0  0  0  0
   -3.6220    2.0920    2.4260 C   0  0  0  0  0  0  0  0  0  0  0  0
   -4.8600    2.5020    2.7910 N   0  0  0  0  0  0  0  0  0  0  0  0
   -5.6670    2.4990    1.7260 C   0  0  0  0  0  0  0  0  0  0  0  0
   -4.9370    2.0870    0.6910 N   0  0  0  0  0  0  0  0  0  0  0  0
   -1.4490   -0.2230    1.5030 C   0  0  0  0  0  0  0  0  0  0  0  0
   -2.3740   -0.3570    2.3790 O   0  0  0  0  0  0  0  0  0  0  0  0
   -0.2940   -0.1340   -0.7700 H   0  0  0  0  0  0  0  0  0  0  0  0
   -0.9540    1.9150    1.3030 H   0  0  0  0  0  0  0  0  0  0  0  0
   -2.4410    2.2890   -0.5630 H   0  0  0  0  0  0  0  0  0  0  0  0
   -2.9730    0.5230   -0.4260 H   0  0  0  0  0  0  0  0  0  0  0  0
   -2.7490    2.0250    3.0810 H   0  0  0  0  0  0  0  0  0  0  0  0
   -5.1090    2.7740    3.7800 H   0  0  0  0  0  0  0  0  0  0  0  0
   -6.7050    2.7860    1.7540 H   0  0  0  0  0  0  0  0  0  0  0  0
   -0.7940   -5.0860   -0.9270 C   0  0  0  0  0  0  0  0  0  0  0  0
   -0.2410   -3.9780   -0.0090 C   0  0  0  0  0  0  0  0  0  0  0  0
    1.0060   -4.5990    0.6390 C   0  0  0  0  0  0  0  0  0  0  0  0
   -1.2020   -3.6600    1.0790 C   0  0  0  0  0  0  0  0  0  0  0  0
   -0.8180   -2.5980    2.0390 C   0  0  2  0  0  0  0  0  0  0  0  0
   -0.6220   -1.3540    1.3120 N   0  0  0  0  0  0  0  0  0  0  0  0
    0.2240   -2.9150    3.0070 C   0  0  0  0  0  0  0  0  0  0  0  0
    1.2210   -2.2020    3.2900 O   0  0  0  0  0  0  0  0  0  0  0  0
    0.1730   -4.1210    3.7380 O   0  0  0  0  0  0  0  0  0  0  0  0
   -0.7930   -6.0590   -0.4300 H   0  0  0  0  0  0  0  0  0  0  0  0
   -0.1500   -5.0640   -1.8360 H   0  0  0  0  0  0  0  0  0  0  0  0
   -1.8020   -4.7310   -1.2350 H   0  0  0  0  0  0  0  0  0  0  0  0
   -0.0020   -3.1390   -0.6720 H   0  0  0  0  0  0  0  0  0  0  0  0
    0.6420   -5.3720    1.3430 H   0  0  0  0  0  0  0  0  0  0  0  0
    1.5940   -5.1480   -0.1270 H   0  0  0  0  0  0  0  0  0  0  0  0
    1.6120   -3.8600    1.1770 H   0  0  0  0  0  0  0  0  0  0  0  0
   -2.1650   -3.3490    0.5800 H   0  0  0  0  0  0  0  0  0  0  0  0
   -1.4800   -4.6110    1.6230 H   0  0  0  0  0  0  0  0  0  0  0  0
   -1.7610   -2.4120    2.6650 H   0  0  0  0  0  0  0  0  0  0  0  0
    0.1630   -1.3290    0.6510 H   0  0  0  0  0  0  0  0  0  0  0  0
  1  2  1  0  0  0  0
  2 14  1  6  0  0  0
  2  3  1  0  0  0  0
  2 10  1  0  0  0  0
  3  4  1  0  0  0  0
  3 15  1  0  0  0  0
  4  9  1  0  0  0  0
  5  4  2  0  0  0  0
  5  6  1  0  0  0  0
  6  7  2  0  0  0  0
  7 19  1  0  0  0  0
  7  8  1  0  0  0  0
  8 20  1  0  0  0  0
  9 21  1  0  0  0  0
  9  8  2  0  0  0  0
 10 22  1  0  0  0  0
 10 11  2  0  0  0  0
 12  1  1  0  0  0  0
 13  1  1  0  0  0  0
 16  3  1  0  0  0  0
 17  5  1  0  0  0  0
 18  6  1  0  0  0  0
 22 23  1  0  0  0  0
 23 33  1  1  0  0  0
 23 30  1  0  0  0  0
 24 23  1  0  0  0  0
 24 25  1  0  0  0  0
 25 26  2  0  0  0  0
 26 27  1  0  0  0  0
 26 36  1  0  0  0  0
 27 37  1  0  0  0  0
 28 38  1  0  0  0  0
 28 27  1  0  0  0  0
 29 25  1  0  0  0  0
 29 28  2  0  0  0  0
 30 31  2  0  0  0  0
 32 22  1  0  0  0  0
 34 24  1  0  0  0  0
 35 24  1  0  0  0  0
 39 48  1  0  0  0  0
 39 40  1  0  0  0  0
 40 41  1  0  0  0  0
 40 42  1  0  0  0  0
 41 54  1  0  0  0  0
 41 52  1  0  0  0  0
 42 56  1  0  0  0  0
 42 43  1  0  0  0  0
 43 57  1  1  0  0  0
 43 45  1  0  0  0  0
 44 30  1  0  0  0  0
 44 43  1  0  0  0  0
 45 46  2  0  0  0  0
 45 47  1  0  0  0  0
 49 39  1  0  0  0  0
 50 39  1  0  0  0  0
 51 40  1  0  0  0  0
 53 41  1  0  0  0  0
 55 42  1  0  0  0  0
 58 44  1  0  0  0  0
M  END
$$$$
