FHM.pdb
 OpenBabel07022418593D

 56 57  0  0  1  0  0  0  0  0999 V2000
    2.4330   -3.1140    2.2770 N   0  0  0  0  0  0  0  0  0  0  0  0
    1.5720   -2.0930    2.8940 C   0  0  1  0  0  0  0  0  0  0  0  0
    2.4370   -1.1900    3.7250 C   0  0  0  0  0  0  0  0  0  0  0  0
    1.6850   -0.1110    4.4090 C   0  0  0  0  0  0  0  0  0  0  0  0
    1.1540   -0.3610    5.6770 C   0  0  0  0  0  0  0  0  0  0  0  0
    0.4500    0.6020    6.3640 C   0  0  0  0  0  0  0  0  0  0  0  0
    0.2540    1.8470    5.8070 C   0  0  0  0  0  0  0  0  0  0  0  0
    0.7680    2.1160    4.5590 C   0  0  0  0  0  0  0  0  0  0  0  0
    1.4720    1.1410    3.8810 C   0  0  0  0  0  0  0  0  0  0  0  0
    0.8550   -1.4150    1.8020 C   0  0  0  0  0  0  0  0  0  0  0  0
    0.0470   -0.4870    2.0840 O   0  0  0  0  0  0  0  0  0  0  0  0
    3.4320   -2.7790    2.3130 H   0  0  0  0  0  0  0  0  0  0  0  0
    2.3630   -4.0140    2.7980 H   0  0  0  0  0  0  0  0  0  0  0  0
    0.8750   -2.6380    3.5900 H   0  0  0  0  0  0  0  0  0  0  0  0
    3.2550   -0.7420    3.1150 H   0  0  0  0  0  0  0  0  0  0  0  0
    2.9420   -1.7770    4.5180 H   0  0  0  0  0  0  0  0  0  0  0  0
    1.2960   -1.3260    6.1280 H   0  0  0  0  0  0  0  0  0  0  0  0
    0.0410    0.3880    7.3570 H   0  0  0  0  0  0  0  0  0  0  0  0
   -0.3130    2.5850    6.3890 H   0  0  0  0  0  0  0  0  0  0  0  0
    0.5980    3.0960    4.1520 H   0  0  0  0  0  0  0  0  0  0  0  0
    1.8690    1.3780    2.9030 H   0  0  0  0  0  0  0  0  0  0  0  0
    1.0340   -1.7630    0.4270 N   0  0  0  0  0  0  0  0  0  0  0  0
    0.3220   -1.0870   -0.6380 C   0  0  1  0  0  0  0  0  0  0  0  0
    1.3230   -0.3910   -1.5140 C   0  0  0  0  0  0  0  0  0  0  0  0
    2.0640    0.5890   -0.6800 C   0  0  0  0  0  0  0  0  0  0  0  0
    3.2260    0.4230    0.0470 C   0  0  0  0  0  0  0  0  0  0  0  0
    3.5740    1.5610    0.6670 N   0  0  0  0  0  0  0  0  0  0  0  0
    2.6210    2.4640    0.3310 C   0  0  0  0  0  0  0  0  0  0  0  0
    1.7140    1.8880   -0.4760 N   0  0  0  0  0  0  0  0  0  0  0  0
   -0.5260   -2.0390   -1.3940 C   0  0  0  0  0  0  0  0  0  0  0  0
   -0.5200   -3.2430   -1.0370 O   0  0  0  0  0  0  0  0  0  0  0  0
    1.7160   -2.5390    0.2470 H   0  0  0  0  0  0  0  0  0  0  0  0
   -0.2950   -0.2880   -0.1500 H   0  0  0  0  0  0  0  0  0  0  0  0
    2.0700   -1.0920   -1.9480 H   0  0  0  0  0  0  0  0  0  0  0  0
    0.8020    0.1940   -2.3000 H   0  0  0  0  0  0  0  0  0  0  0  0
    3.7680   -0.5090    0.0970 H   0  0  0  0  0  0  0  0  0  0  0  0
    4.4010    1.7470    1.2880 H   0  0  0  0  0  0  0  0  0  0  0  0
    2.6250    3.4900    0.6810 H   0  0  0  0  0  0  0  0  0  0  0  0
   -6.1750   -0.7990   -1.6360 C   0  0  0  0  0  0  0  0  0  0  0  0
   -5.8190   -0.8110   -3.4240 S   0  0  0  0  0  0  0  0  0  0  0  0
   -4.0040   -0.9540   -3.6410 C   0  0  0  0  0  0  0  0  0  0  0  0
   -3.6240   -2.3200   -3.1220 C   0  0  0  0  0  0  0  0  0  0  0  0
   -2.1630   -2.6040   -3.2260 C   0  0  2  0  0  0  0  0  0  0  0  0
   -1.3360   -1.6730   -2.4860 N   0  0  0  0  0  0  0  0  0  0  0  0
   -1.6870   -2.7610   -4.6240 C   0  0  0  0  0  0  0  0  0  0  0  0
   -2.2670   -3.5240   -5.4380 O   0  0  0  0  0  0  0  0  0  0  0  0
   -0.5760   -2.0720   -5.1090 O   0  0  0  0  0  0  0  0  0  0  0  0
   -7.2500   -0.5640   -1.4700 H   0  0  0  0  0  0  0  0  0  0  0  0
   -5.9160   -1.7650   -1.1610 H   0  0  0  0  0  0  0  0  0  0  0  0
   -5.5450   -0.0120   -1.1760 H   0  0  0  0  0  0  0  0  0  0  0  0
   -3.5530   -0.1310   -3.0770 H   0  0  0  0  0  0  0  0  0  0  0  0
   -3.8370   -0.9010   -4.7370 H   0  0  0  0  0  0  0  0  0  0  0  0
   -3.9540   -2.4890   -2.0920 H   0  0  0  0  0  0  0  0  0  0  0  0
   -4.1460   -3.0670   -3.7680 H   0  0  0  0  0  0  0  0  0  0  0  0
   -1.9990   -3.6070   -2.7400 H   0  0  0  0  0  0  0  0  0  0  0  0
   -1.3430   -0.6860   -2.7810 H   0  0  0  0  0  0  0  0  0  0  0  0
  1 12  1  0  0  0  0
  1 13  1  0  0  0  0
  1  2  1  0  0  0  0
  2 14  1  1  0  0  0
  2  3  1  0  0  0  0
  3  4  1  0  0  0  0
  3 16  1  0  0  0  0
  4  5  1  0  0  0  0
  5 17  1  0  0  0  0
  5  6  2  0  0  0  0
  6 18  1  0  0  0  0
  7  6  1  0  0  0  0
  7 19  1  0  0  0  0
  8  7  2  0  0  0  0
  9  4  2  0  0  0  0
  9  8  1  0  0  0  0
 10 11  2  0  0  0  0
 10  2  1  0  0  0  0
 15  3  1  0  0  0  0
 20  8  1  0  0  0  0
 21  9  1  0  0  0  0
 22 10  1  0  0  0  0
 23 33  1  1  0  0  0
 23 22  1  0  0  0  0
 24 25  1  0  0  0  0
 24 23  1  0  0  0  0
 25 29  1  0  0  0  0
 25 26  2  0  0  0  0
 26 36  1  0  0  0  0
 26 27  1  0  0  0  0
 27 37  1  0  0  0  0
 28 27  1  0  0  0  0
 28 38  1  0  0  0  0
 29 28  2  0  0  0  0
 30 31  2  0  0  0  0
 30 23  1  0  0  0  0
 32 22  1  0  0  0  0
 34 24  1  0  0  0  0
 35 24  1  0  0  0  0
 39 48  1  0  0  0  0
 39 50  1  0  0  0  0
 39 49  1  0  0  0  0
 40 39  1  0  0  0  0
 41 40  1  0  0  0  0
 41 42  1  0  0  0  0
 41 51  1  0  0  0  0
 42 53  1  0  0  0  0
 43 42  1  0  0  0  0
 43 55  1  1  0  0  0
 43 44  1  0  0  0  0
 44 30  1  0  0  0  0
 45 43  1  0  0  0  0
 46 45  2  0  0  0  0
 47 45  1  0  0  0  0
 52 41  1  0  0  0  0
 54 42  1  0  0  0  0
 56 44  1  0  0  0  0
M  END
$$$$
