FHP.pdb
 OpenBabel07022418593D

 53 55  0  0  1  0  0  0  0  0999 V2000
    3.7770   -0.8690   -0.2660 N   0  0  0  0  0  0  0  0  0  0  0  0
    3.5800   -1.2580    1.1130 C   0  0  1  0  0  0  0  0  0  0  0  0
    4.2180   -0.1720    1.9680 C   0  0  0  0  0  0  0  0  0  0  0  0
    3.6100    1.1540    1.7450 C   0  0  0  0  0  0  0  0  0  0  0  0
    4.1090    1.9660    0.7650 C   0  0  0  0  0  0  0  0  0  0  0  0
    3.5640    3.2320    0.5150 C   0  0  0  0  0  0  0  0  0  0  0  0
    2.4940    3.6530    1.2880 C   0  0  0  0  0  0  0  0  0  0  0  0
    2.0140    2.8210    2.2610 C   0  0  0  0  0  0  0  0  0  0  0  0
    2.5550    1.5540    2.5160 C   0  0  0  0  0  0  0  0  0  0  0  0
    2.1710   -1.3600    1.4930 C   0  0  0  0  0  0  0  0  0  0  0  0
    1.9240   -1.7130    2.7000 O   0  0  0  0  0  0  0  0  0  0  0  0
    3.3900   -1.5850   -0.9120 H   0  0  0  0  0  0  0  0  0  0  0  0
    3.2890    0.0240   -0.5050 H   0  0  0  0  0  0  0  0  0  0  0  0
    4.1560   -2.1840    1.2950 H   0  0  0  0  0  0  0  0  0  0  0  0
    5.3230   -0.1350    1.7750 H   0  0  0  0  0  0  0  0  0  0  0  0
    4.1070   -0.4100    3.0560 H   0  0  0  0  0  0  0  0  0  0  0  0
    4.9410    1.6610    0.1510 H   0  0  0  0  0  0  0  0  0  0  0  0
    3.9480    3.8840   -0.2550 H   0  0  0  0  0  0  0  0  0  0  0  0
    2.0720    4.6280    1.0920 H   0  0  0  0  0  0  0  0  0  0  0  0
    1.1780    3.1400    2.8710 H   0  0  0  0  0  0  0  0  0  0  0  0
    2.1100    0.9690    3.3070 H   0  0  0  0  0  0  0  0  0  0  0  0
    1.1490   -1.0830    0.5800 N   0  0  0  0  0  0  0  0  0  0  0  0
   -0.3040   -1.1850    0.9630 C   0  0  1  0  0  0  0  0  0  0  0  0
   -0.8030    0.1810    0.9300 C   0  0  0  0  0  0  0  0  0  0  0  0
   -2.1600    0.3880    1.4380 C   0  0  0  0  0  0  0  0  0  0  0  0
   -2.9110   -0.5430    2.1230 C   0  0  0  0  0  0  0  0  0  0  0  0
   -4.0700   -0.0110    2.5480 N   0  0  0  0  0  0  0  0  0  0  0  0
   -4.0420    1.2650    2.1250 C   0  0  0  0  0  0  0  0  0  0  0  0
   -2.9050    1.5120    1.4600 N   0  0  0  0  0  0  0  0  0  0  0  0
   -0.8690   -2.2690    0.1800 C   0  0  0  0  0  0  0  0  0  0  0  0
    0.0490   -3.2270    0.0690 O   0  0  0  0  0  0  0  0  0  0  0  0
    1.3550   -0.8010   -0.3790 H   0  0  0  0  0  0  0  0  0  0  0  0
   -0.2610   -1.5180    2.0260 H   0  0  0  0  0  0  0  0  0  0  0  0
   -0.1440    0.7690    1.6560 H   0  0  0  0  0  0  0  0  0  0  0  0
   -0.6050    0.7400   -0.0220 H   0  0  0  0  0  0  0  0  0  0  0  0
   -2.6660   -1.5920    2.3320 H   0  0  0  0  0  0  0  0  0  0  0  0
   -4.8320   -0.4910    3.0940 H   0  0  0  0  0  0  0  0  0  0  0  0
   -4.8450    1.9670    2.3130 H   0  0  0  0  0  0  0  0  0  0  0  0
   -2.0780   -2.5350   -0.4590 N   0  0  0  0  0  0  0  0  0  0  0  0
   -3.3030   -1.8190   -0.6940 C   0  0  0  0  0  0  0  0  0  0  0  0
   -3.8410   -2.4390   -2.0060 C   0  0  0  0  0  0  0  0  0  0  0  0
   -3.7120   -3.8940   -1.5680 C   0  0  0  0  0  0  0  0  0  0  0  0
   -2.3000   -3.8700   -1.0980 C   0  0  1  0  0  0  0  0  0  0  0  0
   -1.3190   -4.0960   -2.1730 C   0  0  0  0  0  0  0  0  0  0  0  0
   -1.3000   -5.1710   -2.8160 O   0  0  0  0  0  0  0  0  0  0  0  0
   -0.3930   -3.1270   -2.5040 O   0  0  0  0  0  0  0  0  0  0  0  0
   -4.1120   -2.0410    0.0310 H   0  0  0  0  0  0  0  0  0  0  0  0
   -3.1920   -0.7660   -0.9670 H   0  0  0  0  0  0  0  0  0  0  0  0
   -3.1620   -2.2160   -2.8480 H   0  0  0  0  0  0  0  0  0  0  0  0
   -4.8880   -2.2000   -2.1670 H   0  0  0  0  0  0  0  0  0  0  0  0
   -4.4160   -4.0160   -0.7260 H   0  0  0  0  0  0  0  0  0  0  0  0
   -3.8440   -4.5720   -2.4060 H   0  0  0  0  0  0  0  0  0  0  0  0
   -2.1800   -4.6660   -0.3330 H   0  0  0  0  0  0  0  0  0  0  0  0
  1  2  1  0  0  0  0
  2 14  1  1  0  0  0
  2 10  1  0  0  0  0
  2  3  1  0  0  0  0
  3 16  1  0  0  0  0
  4  3  1  0  0  0  0
  4  9  1  0  0  0  0
  5  4  2  0  0  0  0
  6  5  1  0  0  0  0
  6  7  2  0  0  0  0
  7  8  1  0  0  0  0
  8  9  2  0  0  0  0
  8 20  1  0  0  0  0
  9 21  1  0  0  0  0
 10 11  2  0  0  0  0
 12  1  1  0  0  0  0
 13  1  1  0  0  0  0
 15  3  1  0  0  0  0
 17  5  1  0  0  0  0
 18  6  1  0  0  0  0
 19  7  1  0  0  0  0
 22 23  1  0  0  0  0
 22 10  1  0  0  0  0
 23 33  1  1  0  0  0
 24 23  1  0  0  0  0
 24 25  1  0  0  0  0
 24 34  1  0  0  0  0
 25 29  1  0  0  0  0
 25 26  2  0  0  0  0
 26 36  1  0  0  0  0
 26 27  1  0  0  0  0
 27 37  1  0  0  0  0
 28 38  1  0  0  0  0
 28 27  1  0  0  0  0
 29 28  2  0  0  0  0
 30 23  1  0  0  0  0
 31 30  2  0  0  0  0
 32 22  1  0  0  0  0
 35 24  1  0  0  0  0
 39 30  1  0  0  0  0
 40 39  1  0  0  0  0
 40 47  1  0  0  0  0
 41 42  1  0  0  0  0
 41 40  1  0  0  0  0
 42 43  1  0  0  0  0
 42 51  1  0  0  0  0
 43 39  1  0  0  0  0
 43 53  1  1  0  0  0
 44 43  1  0  0  0  0
 45 44  2  0  0  0  0
 46 44  1  0  0  0  0
 48 40  1  0  0  0  0
 49 41  1  0  0  0  0
 50 41  1  0  0  0  0
 52 42  1  0  0  0  0
M  END
$$$$
