FHS.pdb
 OpenBabel07022418593D

 50 51  0  0  1  0  0  0  0  0999 V2000
    2.4620    1.8390   -1.5350 N   0  0  0  0  0  0  0  0  0  0  0  0
    1.9670    1.3210   -0.2770 C   0  0  1  0  0  0  0  0  0  0  0  0
    0.7620    2.0350    0.2430 C   0  0  0  0  0  0  0  0  0  0  0  0
    1.0490    3.4710    0.4470 C   0  0  0  0  0  0  0  0  0  0  0  0
    0.7870    4.3790   -0.5800 C   0  0  0  0  0  0  0  0  0  0  0  0
    1.0410    5.7210   -0.4210 C   0  0  0  0  0  0  0  0  0  0  0  0
    1.5720    6.2020    0.7810 C   0  0  0  0  0  0  0  0  0  0  0  0
    1.8270    5.2970    1.7830 C   0  0  0  0  0  0  0  0  0  0  0  0
    1.5710    3.9340    1.6300 C   0  0  0  0  0  0  0  0  0  0  0  0
    1.7780   -0.1360   -0.4250 C   0  0  0  0  0  0  0  0  0  0  0  0
    2.2110   -0.6900   -1.4570 O   0  0  0  0  0  0  0  0  0  0  0  0
    3.2710    1.2310   -1.8060 H   0  0  0  0  0  0  0  0  0  0  0  0
    2.8660    2.7810   -1.3380 H   0  0  0  0  0  0  0  0  0  0  0  0
    2.8010    1.4490    0.4610 H   0  0  0  0  0  0  0  0  0  0  0  0
    0.3650    1.6520    1.1750 H   0  0  0  0  0  0  0  0  0  0  0  0
   -0.0400    1.9740   -0.5470 H   0  0  0  0  0  0  0  0  0  0  0  0
    0.3800    3.9640   -1.4810 H   0  0  0  0  0  0  0  0  0  0  0  0
    0.8340    6.4220   -1.2260 H   0  0  0  0  0  0  0  0  0  0  0  0
    1.7430    7.2590    0.8320 H   0  0  0  0  0  0  0  0  0  0  0  0
    2.2440    5.6800    2.7220 H   0  0  0  0  0  0  0  0  0  0  0  0
    1.8010    3.2950    2.4690 H   0  0  0  0  0  0  0  0  0  0  0  0
    1.1250   -0.9490    0.5370 N   0  0  0  0  0  0  0  0  0  0  0  0
    0.9490   -2.3850    0.3550 C   0  0  1  0  0  0  0  0  0  0  0  0
    1.3170   -3.0430    1.6640 C   0  0  0  0  0  0  0  0  0  0  0  0
    0.4310   -2.5460    2.7710 C   0  0  0  0  0  0  0  0  0  0  0  0
    0.6240   -1.4830    3.6230 C   0  0  0  0  0  0  0  0  0  0  0  0
   -0.4410   -1.4380    4.4470 N   0  0  0  0  0  0  0  0  0  0  0  0
   -1.3060   -2.4250    4.1600 C   0  0  0  0  0  0  0  0  0  0  0  0
   -0.7420   -3.0960    3.1200 N   0  0  0  0  0  0  0  0  0  0  0  0
   -0.5140   -2.6880    0.1420 C   0  0  0  0  0  0  0  0  0  0  0  0
   -1.3440   -1.7470    0.1990 O   0  0  0  0  0  0  0  0  0  0  0  0
    0.7770   -0.4500    1.3810 H   0  0  0  0  0  0  0  0  0  0  0  0
    1.5030   -2.7280   -0.5120 H   0  0  0  0  0  0  0  0  0  0  0  0
    1.2410   -4.1370    1.5390 H   0  0  0  0  0  0  0  0  0  0  0  0
    2.3650   -2.7900    1.9400 H   0  0  0  0  0  0  0  0  0  0  0  0
    1.4610   -0.8210    3.6330 H   0  0  0  0  0  0  0  0  0  0  0  0
   -0.6430   -0.7570    5.2300 H   0  0  0  0  0  0  0  0  0  0  0  0
   -2.2570   -2.6470    4.6480 H   0  0  0  0  0  0  0  0  0  0  0  0
   -4.0560   -4.9620   -1.8500 O   0  0  0  0  0  0  0  0  0  0  0  0
   -2.6870   -4.7060   -1.7570 C   0  0  0  0  0  0  0  0  0  0  0  0
   -2.4160   -4.2730   -0.3240 C   0  0  2  0  0  0  0  0  0  0  0  0
   -1.0120   -3.9860   -0.1210 N   0  0  0  0  0  0  0  0  0  0  0  0
   -2.7800   -5.4290    0.5240 C   0  0  0  0  0  0  0  0  0  0  0  0
   -1.8480   -5.9450    1.2240 O   0  0  0  0  0  0  0  0  0  0  0  0
   -4.0240   -5.9830    0.6170 O   0  0  0  0  0  0  0  0  0  0  0  0
   -4.5970   -4.1350   -1.9480 H   0  0  0  0  0  0  0  0  0  0  0  0
   -2.4410   -3.8880   -2.4710 H   0  0  0  0  0  0  0  0  0  0  0  0
   -2.1450   -5.6430   -1.9690 H   0  0  0  0  0  0  0  0  0  0  0  0
   -3.0530   -3.3780   -0.1700 H   0  0  0  0  0  0  0  0  0  0  0  0
   -0.3420   -4.7730   -0.1740 H   0  0  0  0  0  0  0  0  0  0  0  0
  1 13  1  0  0  0  0
  1  2  1  0  0  0  0
  2  3  1  0  0  0  0
  2 14  1  1  0  0  0
  3  4  1  0  0  0  0
  3 15  1  0  0  0  0
  4  9  1  0  0  0  0
  5  6  1  0  0  0  0
  5  4  2  0  0  0  0
  6  7  2  0  0  0  0
  7 19  1  0  0  0  0
  7  8  1  0  0  0  0
  8 20  1  0  0  0  0
  9  8  2  0  0  0  0
  9 21  1  0  0  0  0
 10  2  1  0  0  0  0
 10 22  1  0  0  0  0
 11 10  2  0  0  0  0
 12  1  1  0  0  0  0
 16  3  1  0  0  0  0
 17  5  1  0  0  0  0
 18  6  1  0  0  0  0
 22 32  1  0  0  0  0
 23 33  1  6  0  0  0
 23 22  1  0  0  0  0
 23 24  1  0  0  0  0
 24 35  1  0  0  0  0
 24 25  1  0  0  0  0
 25 29  1  0  0  0  0
 25 26  2  0  0  0  0
 26 36  1  0  0  0  0
 26 27  1  0  0  0  0
 27 37  1  0  0  0  0
 28 27  1  0  0  0  0
 28 38  1  0  0  0  0
 29 28  2  0  0  0  0
 30 31  2  0  0  0  0
 30 23  1  0  0  0  0
 34 24  1  0  0  0  0
 39 40  1  0  0  0  0
 40 41  1  0  0  0  0
 41 49  1  1  0  0  0
 41 42  1  0  0  0  0
 41 43  1  0  0  0  0
 42 30  1  0  0  0  0
 43 45  2  0  0  0  0
 43 44  1  0  0  0  0
 46 39  1  0  0  0  0
 47 40  1  0  0  0  0
 48 40  1  0  0  0  0
 50 42  1  0  0  0  0
M  END
$$$$
