FHT.pdb
 OpenBabel07022418593D

 53 54  0  0  1  0  0  0  0  0999 V2000
   -1.1700   -0.8290    4.2880 N   0  0  0  0  0  0  0  0  0  0  0  0
   -0.1270    0.0070    3.7630 C   0  0  1  0  0  0  0  0  0  0  0  0
    1.2050   -0.4920    4.2730 C   0  0  0  0  0  0  0  0  0  0  0  0
    2.3610    0.2790    3.8070 C   0  0  0  0  0  0  0  0  0  0  0  0
    3.0220   -0.0960    2.6590 C   0  0  0  0  0  0  0  0  0  0  0  0
    4.1250    0.6230    2.1860 C   0  0  0  0  0  0  0  0  0  0  0  0
    4.5490    1.7220    2.8870 C   0  0  0  0  0  0  0  0  0  0  0  0
    3.8690    2.0800    4.0380 C   0  0  0  0  0  0  0  0  0  0  0  0
    2.7870    1.3910    4.5200 C   0  0  0  0  0  0  0  0  0  0  0  0
   -0.1890   -0.0260    2.2490 C   0  0  0  0  0  0  0  0  0  0  0  0
    0.6070    0.6800    1.5960 O   0  0  0  0  0  0  0  0  0  0  0  0
   -0.8700   -1.5320    4.9730 H   0  0  0  0  0  0  0  0  0  0  0  0
   -1.9630   -0.2400    4.6170 H   0  0  0  0  0  0  0  0  0  0  0  0
   -0.3280    1.0480    4.0510 H   0  0  0  0  0  0  0  0  0  0  0  0
    1.3370   -1.5450    3.9010 H   0  0  0  0  0  0  0  0  0  0  0  0
    1.1630   -0.5580    5.3720 H   0  0  0  0  0  0  0  0  0  0  0  0
    2.7510   -0.9520    2.0500 H   0  0  0  0  0  0  0  0  0  0  0  0
    4.6370    0.3180    1.2810 H   0  0  0  0  0  0  0  0  0  0  0  0
    5.3850    2.3080    2.5720 H   0  0  0  0  0  0  0  0  0  0  0  0
    4.2270    2.9600    4.5790 H   0  0  0  0  0  0  0  0  0  0  0  0
    2.2770    1.7060    5.4320 H   0  0  0  0  0  0  0  0  0  0  0  0
   -1.1270   -0.8370    1.5840 N   0  0  0  0  0  0  0  0  0  0  0  0
   -1.2880   -0.9340    0.1700 C   0  0  1  0  0  0  0  0  0  0  0  0
   -1.0230    0.3670   -0.5670 C   0  0  0  0  0  0  0  0  0  0  0  0
   -2.0060    1.3520   -0.0730 C   0  0  0  0  0  0  0  0  0  0  0  0
   -3.2860    1.5880   -0.6050 C   0  0  0  0  0  0  0  0  0  0  0  0
   -3.8960    2.5450    0.0900 N   0  0  0  0  0  0  0  0  0  0  0  0
   -3.0560    2.9360    1.0540 C   0  0  0  0  0  0  0  0  0  0  0  0
   -1.9190    2.2060    0.9400 N   0  0  0  0  0  0  0  0  0  0  0  0
   -0.6580   -2.1140   -0.4320 C   0  0  0  0  0  0  0  0  0  0  0  0
   -0.0430   -2.9230    0.3200 O   0  0  0  0  0  0  0  0  0  0  0  0
   -1.7600   -1.4200    2.2460 H   0  0  0  0  0  0  0  0  0  0  0  0
   -2.4470   -0.9850    0.0390 H   0  0  0  0  0  0  0  0  0  0  0  0
   -1.2940    0.2010   -1.6490 H   0  0  0  0  0  0  0  0  0  0  0  0
   -0.0100    0.7350   -0.5260 H   0  0  0  0  0  0  0  0  0  0  0  0
   -3.6970    1.0590   -1.4560 H   0  0  0  0  0  0  0  0  0  0  0  0
   -4.8480    2.9140   -0.0890 H   0  0  0  0  0  0  0  0  0  0  0  0
   -3.2060    3.6910    1.8090 H   0  0  0  0  0  0  0  0  0  0  0  0
   -1.9630   -3.4970   -3.9620 C   0  0  0  0  0  0  0  0  0  0  0  0
   -1.1930   -4.3960   -3.0350 C   0  0  1  0  0  0  0  0  0  0  0  0
   -0.7380   -5.5470   -3.6290 O   0  0  0  0  0  0  0  0  0  0  0  0
   -0.0510   -3.6000   -2.3890 C   0  0  2  0  0  0  0  0  0  0  0  0
   -0.6800   -2.4280   -1.8090 N   0  0  0  0  0  0  0  0  0  0  0  0
    0.9650   -3.2430   -3.4000 C   0  0  0  0  0  0  0  0  0  0  0  0
    1.5880   -4.1560   -3.9830 O   0  0  0  0  0  0  0  0  0  0  0  0
    1.2170   -1.9230   -3.6920 O   0  0  0  0  0  0  0  0  0  0  0  0
   -2.6920   -2.8560   -3.4300 H   0  0  0  0  0  0  0  0  0  0  0  0
   -2.5400   -4.1700   -4.6620 H   0  0  0  0  0  0  0  0  0  0  0  0
   -1.3210   -2.8510   -4.5910 H   0  0  0  0  0  0  0  0  0  0  0  0
   -1.8870   -4.6390   -2.1780 H   0  0  0  0  0  0  0  0  0  0  0  0
    0.0990   -5.8190   -3.1660 H   0  0  0  0  0  0  0  0  0  0  0  0
    0.4550   -4.2220   -1.6240 H   0  0  0  0  0  0  0  0  0  0  0  0
   -1.1770   -1.7820   -2.4530 H   0  0  0  0  0  0  0  0  0  0  0  0
  1 13  1  0  0  0  0
  1 12  1  0  0  0  0
  2 14  1  1  0  0  0
  2  3  1  0  0  0  0
  2  1  1  0  0  0  0
  3 16  1  0  0  0  0
  4  3  1  0  0  0  0
  4  9  1  0  0  0  0
  5  4  2  0  0  0  0
  6  5  1  0  0  0  0
  6  7  2  0  0  0  0
  7  8  1  0  0  0  0
  8  9  2  0  0  0  0
  8 20  1  0  0  0  0
  9 21  1  0  0  0  0
 10  2  1  0  0  0  0
 11 10  2  0  0  0  0
 15  3  1  0  0  0  0
 17  5  1  0  0  0  0
 18  6  1  0  0  0  0
 19  7  1  0  0  0  0
 22 32  1  0  0  0  0
 22 10  1  0  0  0  0
 23 33  1  6  0  0  0
 23 22  1  0  0  0  0
 24 35  1  0  0  0  0
 24 25  1  0  0  0  0
 24 23  1  0  0  0  0
 25 29  1  0  0  0  0
 26 25  2  0  0  0  0
 26 27  1  0  0  0  0
 27 28  1  0  0  0  0
 28 38  1  0  0  0  0
 29 28  2  0  0  0  0
 30 23  1  0  0  0  0
 30 31  2  0  0  0  0
 34 24  1  0  0  0  0
 36 26  1  0  0  0  0
 37 27  1  0  0  0  0
 39 47  1  0  0  0  0
 39 40  1  0  0  0  0
 40 42  1  0  0  0  0
 40 50  1  1  0  0  0
 41 51  1  0  0  0  0
 41 40  1  0  0  0  0
 42 43  1  0  0  0  0
 42 52  1  1  0  0  0
 43 30  1  0  0  0  0
 44 42  1  0  0  0  0
 45 44  2  0  0  0  0
 46 44  1  0  0  0  0
 48 39  1  0  0  0  0
 49 39  1  0  0  0  0
 53 43  1  0  0  0  0
M  END
$$$$
