FHV.pdb
 OpenBabel07022418593D

 55 56  0  0  1  0  0  0  0  0999 V2000
    3.2200    1.4200   -2.2940 N   0  0  0  0  0  0  0  0  0  0  0  0
    2.1220    0.5400   -2.0610 C   0  0  1  0  0  0  0  0  0  0  0  0
    2.5820   -0.8590   -1.6670 C   0  0  0  0  0  0  0  0  0  0  0  0
    3.3980   -0.8250   -0.4360 C   0  0  0  0  0  0  0  0  0  0  0  0
    4.7670   -0.7300   -0.5230 C   0  0  0  0  0  0  0  0  0  0  0  0
    5.5710   -0.6850    0.6060 C   0  0  0  0  0  0  0  0  0  0  0  0
    5.0040   -0.7350    1.8580 C   0  0  0  0  0  0  0  0  0  0  0  0
    3.6410   -0.8300    1.9590 C   0  0  0  0  0  0  0  0  0  0  0  0
    2.8420   -0.8740    0.8180 C   0  0  0  0  0  0  0  0  0  0  0  0
    1.1800    1.0360   -1.0030 C   0  0  0  0  0  0  0  0  0  0  0  0
    1.4010    2.0250   -0.2810 O   0  0  0  0  0  0  0  0  0  0  0  0
    3.8880    1.3520   -1.4970 H   0  0  0  0  0  0  0  0  0  0  0  0
    3.7380    1.1300   -3.1510 H   0  0  0  0  0  0  0  0  0  0  0  0
    1.5190    0.4210   -2.9830 H   0  0  0  0  0  0  0  0  0  0  0  0
    3.0910   -1.3550   -2.5110 H   0  0  0  0  0  0  0  0  0  0  0  0
    1.6400   -1.4450   -1.4970 H   0  0  0  0  0  0  0  0  0  0  0  0
    5.2490   -0.6890   -1.4950 H   0  0  0  0  0  0  0  0  0  0  0  0
    6.6480   -0.6110    0.5510 H   0  0  0  0  0  0  0  0  0  0  0  0
    5.6580   -0.6980    2.7360 H   0  0  0  0  0  0  0  0  0  0  0  0
    3.1790   -0.8700    2.9330 H   0  0  0  0  0  0  0  0  0  0  0  0
    1.7600   -0.9430    0.9620 H   0  0  0  0  0  0  0  0  0  0  0  0
   -0.0540    0.3390   -0.8000 N   0  0  0  0  0  0  0  0  0  0  0  0
   -0.9580    0.8100    0.2150 C   0  0  1  0  0  0  0  0  0  0  0  0
   -2.1610    1.4110   -0.5380 C   0  0  0  0  0  0  0  0  0  0  0  0
   -3.1760    1.9380    0.3890 C   0  0  0  0  0  0  0  0  0  0  0  0
   -3.2600    3.2100    0.9030 C   0  0  0  0  0  0  0  0  0  0  0  0
   -4.3420    3.2250    1.6960 N   0  0  0  0  0  0  0  0  0  0  0  0
   -4.9310    2.0190    1.6940 C   0  0  0  0  0  0  0  0  0  0  0  0
   -4.2010    1.2400    0.8850 N   0  0  0  0  0  0  0  0  0  0  0  0
   -1.3980   -0.3140    1.0610 C   0  0  0  0  0  0  0  0  0  0  0  0
   -2.2110   -0.1330    2.0310 O   0  0  0  0  0  0  0  0  0  0  0  0
   -0.3200   -0.4850   -1.3660 H   0  0  0  0  0  0  0  0  0  0  0  0
   -0.5060    1.6570    0.8060 H   0  0  0  0  0  0  0  0  0  0  0  0
   -2.5670    0.6690   -1.2550 H   0  0  0  0  0  0  0  0  0  0  0  0
   -1.7800    2.2580   -1.1350 H   0  0  0  0  0  0  0  0  0  0  0  0
   -2.5800    4.0570    0.7100 H   0  0  0  0  0  0  0  0  0  0  0  0
   -4.7050    4.0440    2.2520 H   0  0  0  0  0  0  0  0  0  0  0  0
   -5.8320    1.7110    2.2400 H   0  0  0  0  0  0  0  0  0  0  0  0
   -3.4130   -2.7100    0.2570 C   0  0  0  0  0  0  0  0  0  0  0  0
   -2.2730   -3.5850    0.7360 C   0  0  0  0  0  0  0  0  0  0  0  0
   -2.7510   -4.8370    1.4000 C   0  0  0  0  0  0  0  0  0  0  0  0
   -1.3990   -2.7460    1.6850 C   0  0  2  0  0  0  0  0  0  0  0  0
   -0.9480   -1.6270    0.8420 N   0  0  0  0  0  0  0  0  0  0  0  0
   -0.3000   -3.6150    2.1210 C   0  0  0  0  0  0  0  0  0  0  0  0
   -0.5140   -4.6290    2.8690 O   0  0  0  0  0  0  0  0  0  0  0  0
    1.0280   -3.4290    1.7770 O   0  0  0  0  0  0  0  0  0  0  0  0
   -3.0370   -1.9710   -0.4790 H   0  0  0  0  0  0  0  0  0  0  0  0
   -3.8260   -2.1610    1.1120 H   0  0  0  0  0  0  0  0  0  0  0  0
   -4.2030   -3.3340   -0.2030 H   0  0  0  0  0  0  0  0  0  0  0  0
   -1.6330   -3.7990   -0.1440 H   0  0  0  0  0  0  0  0  0  0  0  0
   -2.8770   -4.7340    2.4980 H   0  0  0  0  0  0  0  0  0  0  0  0
   -2.0390   -5.6610    1.1610 H   0  0  0  0  0  0  0  0  0  0  0  0
   -3.7360   -5.1570    0.9780 H   0  0  0  0  0  0  0  0  0  0  0  0
   -2.0610   -2.3860    2.4970 H   0  0  0  0  0  0  0  0  0  0  0  0
   -0.2820   -1.8310    0.0770 H   0  0  0  0  0  0  0  0  0  0  0  0
  1  2  1  0  0  0  0
  1 12  1  0  0  0  0
  2 14  1  6  0  0  0
  2  3  1  0  0  0  0
  2 10  1  0  0  0  0
  3 16  1  0  0  0  0
  3  4  1  0  0  0  0
  4  9  1  0  0  0  0
  5  4  2  0  0  0  0
  5  6  1  0  0  0  0
  6  7  2  0  0  0  0
  7  8  1  0  0  0  0
  7 19  1  0  0  0  0
  8 20  1  0  0  0  0
  9 21  1  0  0  0  0
  9  8  2  0  0  0  0
 10 22  1  0  0  0  0
 10 11  2  0  0  0  0
 13  1  1  0  0  0  0
 15  3  1  0  0  0  0
 17  5  1  0  0  0  0
 18  6  1  0  0  0  0
 22 23  1  0  0  0  0
 23 33  1  1  0  0  0
 23 30  1  0  0  0  0
 24 23  1  0  0  0  0
 24 25  1  0  0  0  0
 25 29  1  0  0  0  0
 25 26  2  0  0  0  0
 26 27  1  0  0  0  0
 27 37  1  0  0  0  0
 28 27  1  0  0  0  0
 28 38  1  0  0  0  0
 29 28  2  0  0  0  0
 30 31  2  0  0  0  0
 32 22  1  0  0  0  0
 34 24  1  0  0  0  0
 35 24  1  0  0  0  0
 36 26  1  0  0  0  0
 39 40  1  0  0  0  0
 39 48  1  0  0  0  0
 40 41  1  0  0  0  0
 40 42  1  0  0  0  0
 41 51  1  0  0  0  0
 42 44  1  0  0  0  0
 42 54  1  1  0  0  0
 43 30  1  0  0  0  0
 43 42  1  0  0  0  0
 44 45  1  0  0  0  0
 46 44  2  0  0  0  0
 47 39  1  0  0  0  0
 49 39  1  0  0  0  0
 50 40  1  0  0  0  0
 52 41  1  0  0  0  0
 53 41  1  0  0  0  0
 55 43  1  0  0  0  0
M  END
$$$$
