FHW.pdb
 OpenBabel07022418593D

 63 66  0  0  1  0  0  0  0  0999 V2000
   -0.6120   -0.3620    4.0570 N   0  0  0  0  0  0  0  0  0  0  0  0
    0.1820    0.2470    3.0100 C   0  0  1  0  0  0  0  0  0  0  0  0
    1.5980   -0.2940    3.0070 C   0  0  0  0  0  0  0  0  0  0  0  0
    2.2090    0.0080    4.3170 C   0  0  0  0  0  0  0  0  0  0  0  0
    2.8980    1.1700    4.5440 C   0  0  0  0  0  0  0  0  0  0  0  0
    3.4600    1.4190    5.7980 C   0  0  0  0  0  0  0  0  0  0  0  0
    3.3430    0.5220    6.8340 C   0  0  0  0  0  0  0  0  0  0  0  0
    2.6510   -0.6360    6.5960 C   0  0  0  0  0  0  0  0  0  0  0  0
    2.0980   -0.8820    5.3600 C   0  0  0  0  0  0  0  0  0  0  0  0
   -0.5080    0.0590    1.7230 C   0  0  0  0  0  0  0  0  0  0  0  0
   -1.5950   -0.5410    1.6740 O   0  0  0  0  0  0  0  0  0  0  0  0
   -1.1340   -1.1670    3.6070 H   0  0  0  0  0  0  0  0  0  0  0  0
   -1.3570    0.3410    4.3180 H   0  0  0  0  0  0  0  0  0  0  0  0
    0.2040    1.3520    3.2040 H   0  0  0  0  0  0  0  0  0  0  0  0
    2.1770    0.0880    2.1500 H   0  0  0  0  0  0  0  0  0  0  0  0
    1.5310   -1.4080    2.9300 H   0  0  0  0  0  0  0  0  0  0  0  0
    3.0040    1.8870    3.7500 H   0  0  0  0  0  0  0  0  0  0  0  0
    4.0050    2.3470    5.9630 H   0  0  0  0  0  0  0  0  0  0  0  0
    3.7970    0.7520    7.8050 H   0  0  0  0  0  0  0  0  0  0  0  0
    2.5380   -1.3600    7.3790 H   0  0  0  0  0  0  0  0  0  0  0  0
    1.5430   -1.8080    5.1650 H   0  0  0  0  0  0  0  0  0  0  0  0
    0.0680    0.5630    0.5380 N   0  0  0  0  0  0  0  0  0  0  0  0
   -0.6090    0.3790   -0.7180 C   0  0  1  0  0  0  0  0  0  0  0  0
   -1.0240    1.7350   -1.2600 C   0  0  0  0  0  0  0  0  0  0  0  0
   -1.9330    2.3480   -0.2540 C   0  0  0  0  0  0  0  0  0  0  0  0
   -1.5650    3.1560    0.8020 C   0  0  0  0  0  0  0  0  0  0  0  0
   -2.6670    3.5170    1.4910 N   0  0  0  0  0  0  0  0  0  0  0  0
   -3.7210    2.9490    0.8850 C   0  0  0  0  0  0  0  0  0  0  0  0
   -3.2790    2.2440   -0.1670 N   0  0  0  0  0  0  0  0  0  0  0  0
    0.1960   -0.3780   -1.6960 C   0  0  0  0  0  0  0  0  0  0  0  0
    1.3480   -0.8300   -1.4890 O   0  0  0  0  0  0  0  0  0  0  0  0
    0.9810    1.0720    0.5420 H   0  0  0  0  0  0  0  0  0  0  0  0
   -1.5530   -0.1670   -0.5270 H   0  0  0  0  0  0  0  0  0  0  0  0
   -1.5110    1.5990   -2.2460 H   0  0  0  0  0  0  0  0  0  0  0  0
   -0.1500    2.3880   -1.4080 H   0  0  0  0  0  0  0  0  0  0  0  0
   -0.5540    3.4660    1.0590 H   0  0  0  0  0  0  0  0  0  0  0  0
   -2.7070    4.1330    2.3510 H   0  0  0  0  0  0  0  0  0  0  0  0
   -4.7370    3.0590    1.2120 H   0  0  0  0  0  0  0  0  0  0  0  0
   -0.3750   -0.6190   -2.9840 N   0  0  0  0  0  0  0  0  0  0  0  0
    0.2860   -1.3280   -4.0290 C   0  0  1  0  0  0  0  0  0  0  0  0
   -0.3920   -2.6460   -4.2810 C   0  0  0  0  0  0  0  0  0  0  0  0
   -0.3540   -3.4660   -3.0580 C   0  0  0  0  0  0  0  0  0  0  0  0
    0.5920   -4.4530   -2.7620 C   0  0  0  0  0  0  0  0  0  0  0  0
    0.3450   -4.9780   -1.5490 N   0  0  0  0  0  0  0  0  0  0  0  0
   -0.7240   -4.3820   -1.0290 C   0  0  0  0  0  0  0  0  0  0  0  0
   -1.3520   -4.5910    0.1770 C   0  0  0  0  0  0  0  0  0  0  0  0
   -2.4680   -3.8560    0.5080 C   0  0  0  0  0  0  0  0  0  0  0  0
   -2.9300   -2.9090   -0.4090 C   0  0  0  0  0  0  0  0  0  0  0  0
   -2.2800   -2.7220   -1.6090 C   0  0  0  0  0  0  0  0  0  0  0  0
   -1.1710   -3.4400   -1.9540 C   0  0  0  0  0  0  0  0  0  0  0  0
    0.4640   -0.5370   -5.2560 C   0  0  0  0  0  0  0  0  0  0  0  0
    0.0550    0.6370   -5.3080 O   0  0  0  0  0  0  0  0  0  0  0  0
    1.0840   -1.0870   -6.3540 O   0  0  0  0  0  0  0  0  0  0  0  0
   -1.3420   -0.2500   -3.1930 H   0  0  0  0  0  0  0  0  0  0  0  0
    1.3030   -1.6140   -3.6000 H   0  0  0  0  0  0  0  0  0  0  0  0
   -1.4540   -2.4300   -4.5430 H   0  0  0  0  0  0  0  0  0  0  0  0
    0.0710   -3.1770   -5.1510 H   0  0  0  0  0  0  0  0  0  0  0  0
    1.3960   -4.7250   -3.4440 H   0  0  0  0  0  0  0  0  0  0  0  0
    0.9140   -5.7360   -1.0990 H   0  0  0  0  0  0  0  0  0  0  0  0
   -0.9930   -5.3330    0.8990 H   0  0  0  0  0  0  0  0  0  0  0  0
   -2.9810   -3.9970    1.4440 H   0  0  0  0  0  0  0  0  0  0  0  0
   -3.8070   -2.3490   -0.1220 H   0  0  0  0  0  0  0  0  0  0  0  0
   -2.6670   -1.9940   -2.2940 H   0  0  0  0  0  0  0  0  0  0  0  0
  1 13  1  0  0  0  0
  2 14  1  1  0  0  0
  2  1  1  0  0  0  0
  3  2  1  0  0  0  0
  3  4  1  0  0  0  0
  4  5  2  0  0  0  0
  4  9  1  0  0  0  0
  5  6  1  0  0  0  0
  6 18  1  0  0  0  0
  6  7  2  0  0  0  0
  7 19  1  0  0  0  0
  8  7  1  0  0  0  0
  8 20  1  0  0  0  0
  9  8  2  0  0  0  0
 10  2  1  0  0  0  0
 11 10  2  0  0  0  0
 12  1  1  0  0  0  0
 15  3  1  0  0  0  0
 16  3  1  0  0  0  0
 17  5  1  0  0  0  0
 21  9  1  0  0  0  0
 22 32  1  0  0  0  0
 22 10  1  0  0  0  0
 23 33  1  1  0  0  0
 23 22  1  0  0  0  0
 24 23  1  0  0  0  0
 24 25  1  0  0  0  0
 25 29  1  0  0  0  0
 25 26  2  0  0  0  0
 26 36  1  0  0  0  0
 26 27  1  0  0  0  0
 27 37  1  0  0  0  0
 28 38  1  0  0  0  0
 28 27  1  0  0  0  0
 29 28  2  0  0  0  0
 30 31  2  0  0  0  0
 30 23  1  0  0  0  0
 34 24  1  0  0  0  0
 35 24  1  0  0  0  0
 39 30  1  0  0  0  0
 40 55  1  1  0  0  0
 40 39  1  0  0  0  0
 41 40  1  0  0  0  0
 41 42  1  0  0  0  0
 42 43  2  0  0  0  0
 42 50  1  0  0  0  0
 43 44  1  0  0  0  0
 44 59  1  0  0  0  0
 44 45  1  0  0  0  0
 45 46  1  0  0  0  0
 46 47  2  0  0  0  0
 46 60  1  0  0  0  0
 47 61  1  0  0  0  0
 48 62  1  0  0  0  0
 48 47  1  0  0  0  0
 49 48  2  0  0  0  0
 50 49  1  0  0  0  0
 50 45  2  0  0  0  0
 51 40  1  0  0  0  0
 52 51  1  0  0  0  0
 53 51  2  0  0  0  0
 54 39  1  0  0  0  0
 56 41  1  0  0  0  0
 57 41  1  0  0  0  0
 58 43  1  0  0  0  0
 63 49  1  0  0  0  0
M  END
$$$$
