FIF.pdb
 OpenBabel07022419003D

 61 62  0  0  1  0  0  0  0  0999 V2000
    1.6810   -2.6920    0.5880 N   0  0  0  0  0  0  0  0  0  0  0  0
    2.1270   -1.5220    1.3300 C   0  0  1  0  0  0  0  0  0  0  0  0
    3.6150   -1.3400    1.2240 C   0  0  0  0  0  0  0  0  0  0  0  0
    4.0650   -0.1530    1.9770 C   0  0  0  0  0  0  0  0  0  0  0  0
    4.3910   -0.2590    3.3340 C   0  0  0  0  0  0  0  0  0  0  0  0
    4.8280    0.8270    4.0640 C   0  0  0  0  0  0  0  0  0  0  0  0
    4.9620    2.0650    3.4750 C   0  0  0  0  0  0  0  0  0  0  0  0
    4.6440    2.1800    2.1380 C   0  0  0  0  0  0  0  0  0  0  0  0
    4.2090    1.0980    1.4170 C   0  0  0  0  0  0  0  0  0  0  0  0
    1.3380   -0.3240    0.9780 C   0  0  0  0  0  0  0  0  0  0  0  0
    1.5250    0.7490    1.5690 O   0  0  0  0  0  0  0  0  0  0  0  0
    0.8640   -3.1610    1.0410 H   0  0  0  0  0  0  0  0  0  0  0  0
    2.4440   -3.4050    0.5530 H   0  0  0  0  0  0  0  0  0  0  0  0
    1.8900   -1.7420    2.4110 H   0  0  0  0  0  0  0  0  0  0  0  0
    4.1160   -2.2500    1.6560 H   0  0  0  0  0  0  0  0  0  0  0  0
    3.9010   -1.2060    0.1590 H   0  0  0  0  0  0  0  0  0  0  0  0
    4.2750   -1.2460    3.7660 H   0  0  0  0  0  0  0  0  0  0  0  0
    5.0770    0.7330    5.1110 H   0  0  0  0  0  0  0  0  0  0  0  0
    5.3040    2.9390    4.0230 H   0  0  0  0  0  0  0  0  0  0  0  0
    4.7600    3.1790    1.6970 H   0  0  0  0  0  0  0  0  0  0  0  0
    3.9700    1.2300    0.3710 H   0  0  0  0  0  0  0  0  0  0  0  0
   -0.6390    3.6600   -1.2540 C   0  0  0  0  0  0  0  0  0  0  0  0
   -0.9470    2.5190   -2.1970 C   0  0  0  0  0  0  0  0  0  0  0  0
   -0.1760    1.2800   -1.8100 C   0  0  2  0  0  0  0  0  0  0  0  0
   -0.5070    0.1580   -2.7740 C   0  0  0  0  0  0  0  0  0  0  0  0
   -0.4400    0.8740   -0.3780 C   0  0  2  0  0  0  0  0  0  0  0  0
    0.3350   -0.3330   -0.0430 N   0  0  0  0  0  0  0  0  0  0  0  0
   -1.8730    0.5890   -0.1180 C   0  0  0  0  0  0  0  0  0  0  0  0
   -2.7980    1.4160   -0.2920 O   0  0  0  0  0  0  0  0  0  0  0  0
   -1.5330    3.8260   -0.6250 H   0  0  0  0  0  0  0  0  0  0  0  0
    0.2410    3.4950   -0.6280 H   0  0  0  0  0  0  0  0  0  0  0  0
   -0.4680    4.6260   -1.8130 H   0  0  0  0  0  0  0  0  0  0  0  0
   -0.5680    2.8550   -3.1990 H   0  0  0  0  0  0  0  0  0  0  0  0
   -2.0340    2.3620   -2.2630 H   0  0  0  0  0  0  0  0  0  0  0  0
    0.8970    1.5140   -1.9620 H   0  0  0  0  0  0  0  0  0  0  0  0
    0.3490   -0.5370   -2.8880 H   0  0  0  0  0  0  0  0  0  0  0  0
   -1.4300   -0.3840   -2.4730 H   0  0  0  0  0  0  0  0  0  0  0  0
   -0.6960    0.5820   -3.7940 H   0  0  0  0  0  0  0  0  0  0  0  0
   -0.1050    1.7020    0.2710 H   0  0  0  0  0  0  0  0  0  0  0  0
    0.1760   -1.2230   -0.5380 H   0  0  0  0  0  0  0  0  0  0  0  0
   -2.2880   -0.7050    0.3670 N   0  0  0  0  0  0  0  0  0  0  0  0
   -3.6720   -1.0120    0.6300 C   0  0  1  0  0  0  0  0  0  0  0  0
   -4.1970   -2.1350   -0.2360 C   0  0  0  0  0  0  0  0  0  0  0  0
   -3.4430   -3.3930   -0.0300 C   0  0  0  0  0  0  0  0  0  0  0  0
   -2.3350   -3.6320   -0.8220 C   0  0  0  0  0  0  0  0  0  0  0  0
   -1.6510   -4.8100   -0.6090 C   0  0  0  0  0  0  0  0  0  0  0  0
   -2.0370   -5.7270    0.3470 C   0  0  0  0  0  0  0  0  0  0  0  0
   -3.1430   -5.4900    1.1370 C   0  0  0  0  0  0  0  0  0  0  0  0
   -3.8290   -4.3110    0.9270 C   0  0  0  0  0  0  0  0  0  0  0  0
   -3.8800   -1.2900    2.0800 C   0  0  0  0  0  0  0  0  0  0  0  0
   -2.9250   -1.2400    2.8910 O   0  0  0  0  0  0  0  0  0  0  0  0
   -5.1360   -1.6080    2.5570 O   0  0  0  0  0  0  0  0  0  0  0  0
   -1.5930   -1.4670    0.5460 H   0  0  0  0  0  0  0  0  0  0  0  0
   -4.2690   -0.1080    0.3920 H   0  0  0  0  0  0  0  0  0  0  0  0
   -5.2630   -2.2650    0.0190 H   0  0  0  0  0  0  0  0  0  0  0  0
   -4.0990   -1.8380   -1.2810 H   0  0  0  0  0  0  0  0  0  0  0  0
   -2.0120   -2.9250   -1.5800 H   0  0  0  0  0  0  0  0  0  0  0  0
   -0.7740   -4.9860   -1.2450 H   0  0  0  0  0  0  0  0  0  0  0  0
   -1.4670   -6.6540    0.4860 H   0  0  0  0  0  0  0  0  0  0  0  0
   -3.4610   -6.2020    1.8950 H   0  0  0  0  0  0  0  0  0  0  0  0
   -4.7010   -4.1420    1.5620 H   0  0  0  0  0  0  0  0  0  0  0  0
  1 12  1  0  0  0  0
  1  2  1  0  0  0  0
  2 14  1  1  0  0  0
  3  2  1  0  0  0  0
  3 15  1  0  0  0  0
  3  4  1  0  0  0  0
  4  5  1  0  0  0  0
  5 17  1  0  0  0  0
  5  6  2  0  0  0  0
  6 18  1  0  0  0  0
  7 19  1  0  0  0  0
  7  6  1  0  0  0  0
  8  7  2  0  0  0  0
  9  4  2  0  0  0  0
  9  8  1  0  0  0  0
 10  2  1  0  0  0  0
 10 11  2  0  0  0  0
 13  1  1  0  0  0  0
 16  3  1  0  0  0  0
 20  8  1  0  0  0  0
 21  9  1  0  0  0  0
 22 31  1  0  0  0  0
 22 30  1  0  0  0  0
 23 24  1  0  0  0  0
 23 22  1  0  0  0  0
 24 35  1  6  0  0  0
 24 26  1  0  0  0  0
 25 37  1  0  0  0  0
 25 24  1  0  0  0  0
 26 28  1  0  0  0  0
 26 27  1  0  0  0  0
 26 39  1  1  0  0  0
 27 10  1  0  0  0  0
 28 41  1  0  0  0  0
 29 28  2  0  0  0  0
 32 22  1  0  0  0  0
 33 23  1  0  0  0  0
 34 23  1  0  0  0  0
 36 25  1  0  0  0  0
 38 25  1  0  0  0  0
 40 27  1  0  0  0  0
 41 53  1  0  0  0  0
 41 42  1  0  0  0  0
 42 54  1  6  0  0  0
 42 50  1  0  0  0  0
 43 44  1  0  0  0  0
 43 55  1  0  0  0  0
 43 42  1  0  0  0  0
 44 49  1  0  0  0  0
 45 46  1  0  0  0  0
 45 44  2  0  0  0  0
 46 47  2  0  0  0  0
 47 59  1  0  0  0  0
 47 48  1  0  0  0  0
 48 60  1  0  0  0  0
 49 48  2  0  0  0  0
 49 61  1  0  0  0  0
 50 52  2  0  0  0  0
 50 51  1  0  0  0  0
 56 43  1  0  0  0  0
 57 45  1  0  0  0  0
 58 46  1  0  0  0  0
M  END
$$$$
