FIH.pdb
 OpenBabel07022418593D

 58 59  0  0  1  0  0  0  0  0999 V2000
    1.8180    3.7920    1.1340 N   0  0  0  0  0  0  0  0  0  0  0  0
    1.1050    2.8650    0.3170 C   0  0  1  0  0  0  0  0  0  0  0  0
    2.1680    2.1170   -0.5010 C   0  0  0  0  0  0  0  0  0  0  0  0
    3.1130    1.4230    0.3980 C   0  0  0  0  0  0  0  0  0  0  0  0
    2.8480    0.1550    0.8690 C   0  0  0  0  0  0  0  0  0  0  0  0
    3.7100   -0.5340    1.7050 C   0  0  0  0  0  0  0  0  0  0  0  0
    4.8860    0.0680    2.0880 C   0  0  0  0  0  0  0  0  0  0  0  0
    5.1530    1.3370    1.6180 C   0  0  0  0  0  0  0  0  0  0  0  0
    4.2890    2.0220    0.7830 C   0  0  0  0  0  0  0  0  0  0  0  0
    0.3690    1.9060    1.1820 C   0  0  0  0  0  0  0  0  0  0  0  0
    0.5720    1.9150    2.4220 O   0  0  0  0  0  0  0  0  0  0  0  0
    1.7850    3.6260    2.1440 H   0  0  0  0  0  0  0  0  0  0  0  0
    1.8010    4.7700    0.8290 H   0  0  0  0  0  0  0  0  0  0  0  0
    0.4080    3.4010   -0.3440 H   0  0  0  0  0  0  0  0  0  0  0  0
    1.5980    1.3880   -1.1210 H   0  0  0  0  0  0  0  0  0  0  0  0
    2.6800    2.8090   -1.1920 H   0  0  0  0  0  0  0  0  0  0  0  0
    1.9200   -0.3690    0.6010 H   0  0  0  0  0  0  0  0  0  0  0  0
    3.4890   -1.5390    2.0730 H   0  0  0  0  0  0  0  0  0  0  0  0
    5.5880   -0.4540    2.7510 H   0  0  0  0  0  0  0  0  0  0  0  0
    6.0970    1.8000    1.9360 H   0  0  0  0  0  0  0  0  0  0  0  0
    4.5760    3.0150    0.4590 H   0  0  0  0  0  0  0  0  0  0  0  0
   -2.5740   -0.3930    4.1220 C   0  0  0  0  0  0  0  0  0  0  0  0
   -3.3500   -0.3150    2.8180 C   0  0  0  0  0  0  0  0  0  0  0  0
   -2.6540    0.5600    1.8360 C   0  0  2  0  0  0  0  0  0  0  0  0
   -3.4500    0.6110    0.5610 C   0  0  0  0  0  0  0  0  0  0  0  0
   -1.2330    0.0690    1.6190 C   0  0  2  0  0  0  0  0  0  0  0  0
   -0.5630    0.9730    0.6650 N   0  0  0  0  0  0  0  0  0  0  0  0
   -1.1350   -1.2880    1.0890 C   0  0  0  0  0  0  0  0  0  0  0  0
   -1.6220   -2.2770    1.7060 O   0  0  0  0  0  0  0  0  0  0  0  0
   -3.2950   -0.4680    4.9870 H   0  0  0  0  0  0  0  0  0  0  0  0
   -1.9310   -1.2750    4.2080 H   0  0  0  0  0  0  0  0  0  0  0  0
   -1.9980    0.5440    4.3140 H   0  0  0  0  0  0  0  0  0  0  0  0
   -3.5140   -1.3270    2.4460 H   0  0  0  0  0  0  0  0  0  0  0  0
   -4.3700    0.0900    3.0850 H   0  0  0  0  0  0  0  0  0  0  0  0
   -2.5730    1.5940    2.2240 H   0  0  0  0  0  0  0  0  0  0  0  0
   -3.3100    1.5760    0.0190 H   0  0  0  0  0  0  0  0  0  0  0  0
   -3.3180   -0.2740   -0.0760 H   0  0  0  0  0  0  0  0  0  0  0  0
   -4.5390    0.6030    0.8630 H   0  0  0  0  0  0  0  0  0  0  0  0
   -0.7530    0.1820    2.6120 H   0  0  0  0  0  0  0  0  0  0  0  0
   -0.7630    0.9450   -0.3440 H   0  0  0  0  0  0  0  0  0  0  0  0
   -0.4930   -1.5870   -0.1430 N   0  0  0  0  0  0  0  0  0  0  0  0
   -0.4490   -2.9590   -0.6150 C   0  0  1  0  0  0  0  0  0  0  0  0
   -1.3020   -3.0670   -1.8800 C   0  0  0  0  0  0  0  0  0  0  0  0
   -1.3170   -4.4290   -2.4360 C   0  0  0  0  0  0  0  0  0  0  0  0
   -2.2390   -5.4290   -2.1040 C   0  0  0  0  0  0  0  0  0  0  0  0
   -1.9590   -6.5490   -2.8020 N   0  0  0  0  0  0  0  0  0  0  0  0
   -0.8880   -6.2590   -3.5540 C   0  0  0  0  0  0  0  0  0  0  0  0
   -0.5010   -4.9960   -3.3400 N   0  0  0  0  0  0  0  0  0  0  0  0
    0.9170   -3.4780   -0.8230 C   0  0  0  0  0  0  0  0  0  0  0  0
    1.0830   -4.6820   -1.2250 O   0  0  0  0  0  0  0  0  0  0  0  0
    2.0780   -2.7700   -0.6210 O   0  0  0  0  0  0  0  0  0  0  0  0
   -0.0360   -0.8490   -0.7420 H   0  0  0  0  0  0  0  0  0  0  0  0
   -0.9640   -3.6210    0.1220 H   0  0  0  0  0  0  0  0  0  0  0  0
   -2.3170   -2.7050   -1.6460 H   0  0  0  0  0  0  0  0  0  0  0  0
   -0.8760   -2.3660   -2.6450 H   0  0  0  0  0  0  0  0  0  0  0  0
   -3.0280   -5.2870   -1.4000 H   0  0  0  0  0  0  0  0  0  0  0  0
   -2.4610   -7.4670   -2.7780 H   0  0  0  0  0  0  0  0  0  0  0  0
   -0.4310   -6.9650   -4.2220 H   0  0  0  0  0  0  0  0  0  0  0  0
  1 12  1  0  0  0  0
  2 14  1  6  0  0  0
  2  1  1  0  0  0  0
  2 10  1  0  0  0  0
  3  2  1  0  0  0  0
  3  4  1  0  0  0  0
  4  9  2  0  0  0  0
  4  5  1  0  0  0  0
  5  6  2  0  0  0  0
  6 18  1  0  0  0  0
  6  7  1  0  0  0  0
  7 19  1  0  0  0  0
  8 20  1  0  0  0  0
  8  7  2  0  0  0  0
  9  8  1  0  0  0  0
 10 11  2  0  0  0  0
 13  1  1  0  0  0  0
 15  3  1  0  0  0  0
 16  3  1  0  0  0  0
 17  5  1  0  0  0  0
 21  9  1  0  0  0  0
 22 31  1  0  0  0  0
 22 32  1  0  0  0  0
 22 30  1  0  0  0  0
 23 34  1  0  0  0  0
 23 22  1  0  0  0  0
 24 35  1  1  0  0  0
 24 23  1  0  0  0  0
 25 38  1  0  0  0  0
 25 24  1  0  0  0  0
 26 24  1  0  0  0  0
 26 39  1  1  0  0  0
 27 10  1  0  0  0  0
 27 26  1  0  0  0  0
 28 26  1  0  0  0  0
 28 29  2  0  0  0  0
 33 23  1  0  0  0  0
 36 25  1  0  0  0  0
 37 25  1  0  0  0  0
 40 27  1  0  0  0  0
 41 28  1  0  0  0  0
 42 41  1  0  0  0  0
 42 53  1  1  0  0  0
 43 54  1  0  0  0  0
 43 42  1  0  0  0  0
 44 45  2  0  0  0  0
 44 43  1  0  0  0  0
 45 56  1  0  0  0  0
 46 57  1  0  0  0  0
 46 45  1  0  0  0  0
 47 48  2  0  0  0  0
 47 46  1  0  0  0  0
 48 44  1  0  0  0  0
 49 51  1  0  0  0  0
 49 42  1  0  0  0  0
 50 49  2  0  0  0  0
 52 41  1  0  0  0  0
 55 43  1  0  0  0  0
 58 47  1  0  0  0  0
M  END
$$$$
