FII.pdb
 OpenBabel07022418593D

 60 60  0  0  1  0  0  0  0  0999 V2000
   -1.8270    3.0030    3.2950 N   0  0  0  0  0  0  0  0  0  0  0  0
   -0.9860    2.3250    2.2550 C   0  0  1  0  0  0  0  0  0  0  0  0
    0.3590    2.2910    2.8580 C   0  0  0  0  0  0  0  0  0  0  0  0
    1.4580    1.7050    2.1170 C   0  0  0  0  0  0  0  0  0  0  0  0
    2.1690    2.4330    1.1830 C   0  0  0  0  0  0  0  0  0  0  0  0
    3.2370    1.8930    0.5040 C   0  0  0  0  0  0  0  0  0  0  0  0
    3.6120    0.5800    0.7630 C   0  0  0  0  0  0  0  0  0  0  0  0
    2.9090   -0.1640    1.6960 C   0  0  0  0  0  0  0  0  0  0  0  0
    1.8430    0.4040    2.3610 C   0  0  0  0  0  0  0  0  0  0  0  0
   -1.6820    1.0900    1.9540 C   0  0  0  0  0  0  0  0  0  0  0  0
   -2.6380    0.7070    2.7270 O   0  0  0  0  0  0  0  0  0  0  0  0
   -1.2660    3.7560    3.7530 H   0  0  0  0  0  0  0  0  0  0  0  0
   -2.0600    2.2220    3.9590 H   0  0  0  0  0  0  0  0  0  0  0  0
   -1.0580    3.0710    1.4000 H   0  0  0  0  0  0  0  0  0  0  0  0
    0.2630    1.8140    3.8650 H   0  0  0  0  0  0  0  0  0  0  0  0
    0.6340    3.3620    3.1100 H   0  0  0  0  0  0  0  0  0  0  0  0
    1.8670    3.4640    0.9860 H   0  0  0  0  0  0  0  0  0  0  0  0
    3.8060    2.4610   -0.2360 H   0  0  0  0  0  0  0  0  0  0  0  0
    4.4560    0.1410    0.2310 H   0  0  0  0  0  0  0  0  0  0  0  0
    3.2210   -1.1780    1.8800 H   0  0  0  0  0  0  0  0  0  0  0  0
    1.3050   -0.2030    3.0950 H   0  0  0  0  0  0  0  0  0  0  0  0
   -3.4570    1.6100   -0.6240 C   0  0  0  0  0  0  0  0  0  0  0  0
   -4.0990    0.2770   -0.5370 C   0  0  0  0  0  0  0  0  0  0  0  0
   -3.1440   -0.8690   -0.5670 C   0  0  2  0  0  0  0  0  0  0  0  0
   -3.9690   -2.1770   -0.5270 C   0  0  0  0  0  0  0  0  0  0  0  0
   -2.2350   -0.9610    0.6680 C   0  0  2  0  0  0  0  0  0  0  0  0
   -1.4250    0.2100    0.8390 N   0  0  0  0  0  0  0  0  0  0  0  0
   -1.4460   -2.1990    0.5360 C   0  0  0  0  0  0  0  0  0  0  0  0
   -1.9750   -3.3610    0.4660 O   0  0  0  0  0  0  0  0  0  0  0  0
   -3.6750    2.1830    0.3080 H   0  0  0  0  0  0  0  0  0  0  0  0
   -3.9530    2.2400   -1.4410 H   0  0  0  0  0  0  0  0  0  0  0  0
   -2.3730    1.6030   -0.7980 H   0  0  0  0  0  0  0  0  0  0  0  0
   -4.7470    0.1580   -1.4610 H   0  0  0  0  0  0  0  0  0  0  0  0
   -4.7670    0.2290    0.3690 H   0  0  0  0  0  0  0  0  0  0  0  0
   -2.5280   -0.9210   -1.4740 H   0  0  0  0  0  0  0  0  0  0  0  0
   -4.0660   -2.5140    0.4980 H   0  0  0  0  0  0  0  0  0  0  0  0
   -3.4840   -2.9330   -1.1480 H   0  0  0  0  0  0  0  0  0  0  0  0
   -5.0010   -1.9330   -0.9030 H   0  0  0  0  0  0  0  0  0  0  0  0
   -2.9330   -1.0760    1.5240 H   0  0  0  0  0  0  0  0  0  0  0  0
   -0.6380    0.4810    0.2220 H   0  0  0  0  0  0  0  0  0  0  0  0
    2.0960   -2.9990   -3.2130 C   0  0  0  0  0  0  0  0  0  0  0  0
    1.0820   -3.0490   -2.1020 C   0  0  0  0  0  0  0  0  0  0  0  0
    1.7780   -3.2780   -0.7770 C   0  0  2  0  0  0  0  0  0  0  0  0
    2.5100   -4.5870   -0.8720 C   0  0  0  0  0  0  0  0  0  0  0  0
    0.7720   -3.3430    0.3420 C   0  0  2  0  0  0  0  0  0  0  0  0
   -0.0100   -2.1290    0.4780 N   0  0  0  0  0  0  0  0  0  0  0  0
    1.4330   -3.6280    1.6520 C   0  0  0  0  0  0  0  0  0  0  0  0
    1.2330   -2.8880    2.6330 O   0  0  0  0  0  0  0  0  0  0  0  0
    2.2770   -4.7210    1.7900 O   0  0  0  0  0  0  0  0  0  0  0  0
    3.1220   -2.7820   -2.8470 H   0  0  0  0  0  0  0  0  0  0  0  0
    1.7690   -2.2510   -3.9810 H   0  0  0  0  0  0  0  0  0  0  0  0
    2.1400   -3.9920   -3.7310 H   0  0  0  0  0  0  0  0  0  0  0  0
    0.5510   -2.0550   -2.0890 H   0  0  0  0  0  0  0  0  0  0  0  0
    0.3710   -3.8620   -2.3400 H   0  0  0  0  0  0  0  0  0  0  0  0
    2.5360   -2.4910   -0.6010 H   0  0  0  0  0  0  0  0  0  0  0  0
    2.6820   -4.8570   -1.9430 H   0  0  0  0  0  0  0  0  0  0  0  0
    1.8620   -5.3710   -0.4170 H   0  0  0  0  0  0  0  0  0  0  0  0
    3.5030   -4.5220   -0.3430 H   0  0  0  0  0  0  0  0  0  0  0  0
    0.0540   -4.1870    0.1270 H   0  0  0  0  0  0  0  0  0  0  0  0
    0.4450   -1.2050    0.5260 H   0  0  0  0  0  0  0  0  0  0  0  0
  1 12  1  0  0  0  0
  1 13  1  0  0  0  0
  2 14  1  6  0  0  0
  2  3  1  0  0  0  0
  2  1  1  0  0  0  0
  3 16  1  0  0  0  0
  3 15  1  0  0  0  0
  4  9  1  0  0  0  0
  4  3  1  0  0  0  0
  5  4  2  0  0  0  0
  6  7  2  0  0  0  0
  6  5  1  0  0  0  0
  7  8  1  0  0  0  0
  8 20  1  0  0  0  0
  8  9  2  0  0  0  0
  9 21  1  0  0  0  0
 10  2  1  0  0  0  0
 10 11  2  0  0  0  0
 17  5  1  0  0  0  0
 18  6  1  0  0  0  0
 19  7  1  0  0  0  0
 22 23  1  0  0  0  0
 22 30  1  0  0  0  0
 23 34  1  0  0  0  0
 24 35  1  6  0  0  0
 24 23  1  0  0  0  0
 24 25  1  0  0  0  0
 24 26  1  0  0  0  0
 25 36  1  0  0  0  0
 26 27  1  0  0  0  0
 26 39  1  1  0  0  0
 27 10  1  0  0  0  0
 28 26  1  0  0  0  0
 29 28  2  0  0  0  0
 31 22  1  0  0  0  0
 32 22  1  0  0  0  0
 33 23  1  0  0  0  0
 37 25  1  0  0  0  0
 38 25  1  0  0  0  0
 40 27  1  0  0  0  0
 41 50  1  0  0  0  0
 41 42  1  0  0  0  0
 42 53  1  0  0  0  0
 42 43  1  0  0  0  0
 43 55  1  1  0  0  0
 43 45  1  0  0  0  0
 44 43  1  0  0  0  0
 44 57  1  0  0  0  0
 44 58  1  0  0  0  0
 45 59  1  6  0  0  0
 45 46  1  0  0  0  0
 45 47  1  0  0  0  0
 46 60  1  0  0  0  0
 46 28  1  0  0  0  0
 47 49  2  0  0  0  0
 47 48  1  0  0  0  0
 51 41  1  0  0  0  0
 52 41  1  0  0  0  0
 54 42  1  0  0  0  0
 56 44  1  0  0  0  0
M  END
$$$$
