FIM.pdb
 OpenBabel07022419003D

 58 58  0  0  1  0  0  0  0  0999 V2000
    1.5600    2.3700   -1.6980 N   0  0  0  0  0  0  0  0  0  0  0  0
    1.8930    1.2720   -0.7680 C   0  0  1  0  0  0  0  0  0  0  0  0
    3.0510    1.7300    0.0770 C   0  0  0  0  0  0  0  0  0  0  0  0
    3.4270    0.6850    1.0360 C   0  0  0  0  0  0  0  0  0  0  0  0
    4.3170   -0.2980    0.6730 C   0  0  0  0  0  0  0  0  0  0  0  0
    4.6950   -1.2810    1.5810 C   0  0  0  0  0  0  0  0  0  0  0  0
    4.1740   -1.2720    2.8660 C   0  0  0  0  0  0  0  0  0  0  0  0
    3.2840   -0.2940    3.2390 C   0  0  0  0  0  0  0  0  0  0  0  0
    2.9260    0.6660    2.3220 C   0  0  0  0  0  0  0  0  0  0  0  0
    0.6500    1.0130    0.0310 C   0  0  0  0  0  0  0  0  0  0  0  0
   -0.2220    1.8860    0.0460 O   0  0  0  0  0  0  0  0  0  0  0  0
    0.6500    2.0660   -2.1500 H   0  0  0  0  0  0  0  0  0  0  0  0
    2.2570    2.3810   -2.5000 H   0  0  0  0  0  0  0  0  0  0  0  0
    2.1800    0.4140   -1.4010 H   0  0  0  0  0  0  0  0  0  0  0  0
    3.8900    1.9800   -0.6120 H   0  0  0  0  0  0  0  0  0  0  0  0
    2.7940    2.6900    0.6090 H   0  0  0  0  0  0  0  0  0  0  0  0
    4.7470   -0.3400   -0.3200 H   0  0  0  0  0  0  0  0  0  0  0  0
    5.4020   -2.0640    1.2980 H   0  0  0  0  0  0  0  0  0  0  0  0
    4.4510   -2.0280    3.5990 H   0  0  0  0  0  0  0  0  0  0  0  0
    2.8960   -0.3110    4.2390 H   0  0  0  0  0  0  0  0  0  0  0  0
    2.2270    1.4490    2.5890 H   0  0  0  0  0  0  0  0  0  0  0  0
   -0.4650    0.8900    4.2440 C   0  0  0  0  0  0  0  0  0  0  0  0
   -0.9110    1.5400    2.9420 C   0  0  0  0  0  0  0  0  0  0  0  0
   -1.5320    0.5210    2.0590 C   0  0  2  0  0  0  0  0  0  0  0  0
   -2.7180   -0.0480    2.8220 C   0  0  0  0  0  0  0  0  0  0  0  0
   -0.6380   -0.5760    1.5730 C   0  0  2  0  0  0  0  0  0  0  0  0
    0.4670   -0.1930    0.7500 N   0  0  0  0  0  0  0  0  0  0  0  0
   -1.3530   -1.7550    1.1090 C   0  0  0  0  0  0  0  0  0  0  0  0
   -2.3310   -2.2750    1.7030 O   0  0  0  0  0  0  0  0  0  0  0  0
   -1.3060    0.3580    4.7210 H   0  0  0  0  0  0  0  0  0  0  0  0
   -0.2270    1.7390    4.9520 H   0  0  0  0  0  0  0  0  0  0  0  0
    0.4420    0.3030    4.1240 H   0  0  0  0  0  0  0  0  0  0  0  0
   -0.1480    2.1930    2.5630 H   0  0  0  0  0  0  0  0  0  0  0  0
   -1.7590    2.2260    3.2550 H   0  0  0  0  0  0  0  0  0  0  0  0
   -2.0180    1.0130    1.1560 H   0  0  0  0  0  0  0  0  0  0  0  0
   -2.3600   -0.8480    3.4940 H   0  0  0  0  0  0  0  0  0  0  0  0
   -3.5410   -0.3730    2.1540 H   0  0  0  0  0  0  0  0  0  0  0  0
   -3.0810    0.7570    3.5280 H   0  0  0  0  0  0  0  0  0  0  0  0
   -0.1070   -0.8650    2.5750 H   0  0  0  0  0  0  0  0  0  0  0  0
    1.2900   -0.8800    0.6130 H   0  0  0  0  0  0  0  0  0  0  0  0
   -2.9850   -1.7190   -4.8590 C   0  0  0  0  0  0  0  0  0  0  0  0
   -4.1110   -2.2630   -3.5860 S   0  0  0  0  0  0  0  0  0  0  0  0
   -3.3760   -2.3820   -1.9580 C   0  0  0  0  0  0  0  0  0  0  0  0
   -2.3310   -3.4730   -1.9250 C   0  0  0  0  0  0  0  0  0  0  0  0
   -1.6860   -3.6140   -0.5790 C   0  0  2  0  0  0  0  0  0  0  0  0
   -1.0120   -2.4650   -0.0990 N   0  0  0  0  0  0  0  0  0  0  0  0
   -0.7600   -4.7740   -0.6330 C   0  0  0  0  0  0  0  0  0  0  0  0
   -1.1870   -5.8860   -1.0370 O   0  0  0  0  0  0  0  0  0  0  0  0
    0.5780   -4.6750   -0.2480 O   0  0  0  0  0  0  0  0  0  0  0  0
   -1.9320   -1.9470   -4.6740 H   0  0  0  0  0  0  0  0  0  0  0  0
   -3.0710   -0.6450   -5.1100 H   0  0  0  0  0  0  0  0  0  0  0  0
   -3.2580   -2.2700   -5.8060 H   0  0  0  0  0  0  0  0  0  0  0  0
   -2.9960   -1.4100   -1.5780 H   0  0  0  0  0  0  0  0  0  0  0  0
   -4.1750   -2.6920   -1.2480 H   0  0  0  0  0  0  0  0  0  0  0  0
   -1.5990   -3.3800   -2.7590 H   0  0  0  0  0  0  0  0  0  0  0  0
   -2.8690   -4.4280   -2.1170 H   0  0  0  0  0  0  0  0  0  0  0  0
   -2.4970   -3.8790    0.1350 H   0  0  0  0  0  0  0  0  0  0  0  0
   -0.2050   -2.0770   -0.6360 H   0  0  0  0  0  0  0  0  0  0  0  0
  1  2  1  0  0  0  0
  2 14  1  6  0  0  0
  2 10  1  0  0  0  0
  2  3  1  0  0  0  0
  3 16  1  0  0  0  0
  3  4  1  0  0  0  0
  4  9  1  0  0  0  0
  5  4  2  0  0  0  0
  5  6  1  0  0  0  0
  6  7  2  0  0  0  0
  7  8  1  0  0  0  0
  7 19  1  0  0  0  0
  8 20  1  0  0  0  0
  9 21  1  0  0  0  0
  9  8  2  0  0  0  0
 10 11  2  0  0  0  0
 10 27  1  0  0  0  0
 12  1  1  0  0  0  0
 13  1  1  0  0  0  0
 15  3  1  0  0  0  0
 17  5  1  0  0  0  0
 18  6  1  0  0  0  0
 22 30  1  0  0  0  0
 22 31  1  0  0  0  0
 23 34  1  0  0  0  0
 23 22  1  0  0  0  0
 24 35  1  6  0  0  0
 24 25  1  0  0  0  0
 24 23  1  0  0  0  0
 25 36  1  0  0  0  0
 25 38  1  0  0  0  0
 26 24  1  0  0  0  0
 26 39  1  1  0  0  0
 27 26  1  0  0  0  0
 28 26  1  0  0  0  0
 28 29  2  0  0  0  0
 32 22  1  0  0  0  0
 33 23  1  0  0  0  0
 37 25  1  0  0  0  0
 40 27  1  0  0  0  0
 41 50  1  0  0  0  0
 41 42  1  0  0  0  0
 42 43  1  0  0  0  0
 43 44  1  0  0  0  0
 43 53  1  0  0  0  0
 43 54  1  0  0  0  0
 44 45  1  0  0  0  0
 45 46  1  0  0  0  0
 45 57  1  1  0  0  0
 46 28  1  0  0  0  0
 47 45  1  0  0  0  0
 47 49  1  0  0  0  0
 48 47  2  0  0  0  0
 51 41  1  0  0  0  0
 52 41  1  0  0  0  0
 55 44  1  0  0  0  0
 56 44  1  0  0  0  0
 58 46  1  0  0  0  0
M  END
$$$$
