FIN.pdb
 OpenBabel07022418593D

 55 55  0  0  1  0  0  0  0  0999 V2000
   -1.9010   -1.4310    3.1870 N   0  0  0  0  0  0  0  0  0  0  0  0
   -2.3250   -0.0600    2.8960 C   0  0  1  0  0  0  0  0  0  0  0  0
   -1.4830    0.8740    3.6840 C   0  0  0  0  0  0  0  0  0  0  0  0
   -0.0230    0.7560    3.4480 C   0  0  0  0  0  0  0  0  0  0  0  0
    0.7240    1.5110    2.5890 C   0  0  0  0  0  0  0  0  0  0  0  0
    2.0970    1.3600    2.4350 C   0  0  0  0  0  0  0  0  0  0  0  0
    2.7090    0.3920    3.2000 C   0  0  0  0  0  0  0  0  0  0  0  0
    2.0080   -0.3950    4.0800 C   0  0  0  0  0  0  0  0  0  0  0  0
    0.6520   -0.2100    4.1990 C   0  0  0  0  0  0  0  0  0  0  0  0
   -2.3840    0.2740    1.4610 C   0  0  0  0  0  0  0  0  0  0  0  0
   -3.2010    1.1750    1.0520 O   0  0  0  0  0  0  0  0  0  0  0  0
   -2.5580   -2.1210    2.7030 H   0  0  0  0  0  0  0  0  0  0  0  0
   -0.9190   -1.6490    2.8780 H   0  0  0  0  0  0  0  0  0  0  0  0
   -3.3810   -0.0200    3.3380 H   0  0  0  0  0  0  0  0  0  0  0  0
   -1.7630    1.9320    3.3580 H   0  0  0  0  0  0  0  0  0  0  0  0
   -1.7120    0.8600    4.7880 H   0  0  0  0  0  0  0  0  0  0  0  0
    0.2120    2.2650    2.0140 H   0  0  0  0  0  0  0  0  0  0  0  0
    2.6450    1.9850    1.7500 H   0  0  0  0  0  0  0  0  0  0  0  0
    3.7680    0.2830    3.0700 H   0  0  0  0  0  0  0  0  0  0  0  0
    2.5630   -1.1460    4.6650 H   0  0  0  0  0  0  0  0  0  0  0  0
    0.0930   -0.8320    4.8800 H   0  0  0  0  0  0  0  0  0  0  0  0
    1.0650    1.1810   -1.1280 C   0  0  0  0  0  0  0  0  0  0  0  0
   -0.2400    1.9580   -1.1680 C   0  0  0  0  0  0  0  0  0  0  0  0
   -1.4100    1.1550   -1.5580 C   0  0  2  0  0  0  0  0  0  0  0  0
   -2.6960    1.9050   -1.6070 C   0  0  0  0  0  0  0  0  0  0  0  0
   -1.5670   -0.2020   -0.9260 C   0  0  2  0  0  0  0  0  0  0  0  0
   -1.5880   -0.3480    0.4650 N   0  0  0  0  0  0  0  0  0  0  0  0
   -0.8640   -1.2480   -1.7060 C   0  0  0  0  0  0  0  0  0  0  0  0
   -0.8330   -1.1770   -2.9850 O   0  0  0  0  0  0  0  0  0  0  0  0
    0.9440    0.1530   -0.7250 H   0  0  0  0  0  0  0  0  0  0  0  0
    1.7880    1.6890   -0.4290 H   0  0  0  0  0  0  0  0  0  0  0  0
    1.5920    1.2110   -2.1130 H   0  0  0  0  0  0  0  0  0  0  0  0
   -0.0750    2.7670   -1.9480 H   0  0  0  0  0  0  0  0  0  0  0  0
   -0.4060    2.5330   -0.2280 H   0  0  0  0  0  0  0  0  0  0  0  0
   -1.1940    0.8500   -2.6920 H   0  0  0  0  0  0  0  0  0  0  0  0
   -3.5920    1.2440   -1.4620 H   0  0  0  0  0  0  0  0  0  0  0  0
   -2.8020    2.3650   -2.6690 H   0  0  0  0  0  0  0  0  0  0  0  0
   -2.6720    2.7930   -0.9710 H   0  0  0  0  0  0  0  0  0  0  0  0
   -2.6980   -0.4140   -1.2050 H   0  0  0  0  0  0  0  0  0  0  0  0
   -0.8760   -1.0540    0.9060 H   0  0  0  0  0  0  0  0  0  0  0  0
    1.5640   -3.9710    0.6150 N   0  0  0  0  0  0  0  0  0  0  0  0
    2.3800   -3.5100   -0.4320 C   0  0  0  0  0  0  0  0  0  0  0  0
    3.6060   -3.2820   -0.1990 O   0  0  0  0  0  0  0  0  0  0  0  0
    1.9480   -3.2540   -1.8290 C   0  0  0  0  0  0  0  0  0  0  0  0
    0.4730   -3.3450   -2.0380 C   0  0  2  0  0  0  0  0  0  0  0  0
   -0.1870   -2.3770   -1.1730 N   0  0  0  0  0  0  0  0  0  0  0  0
   -0.0330   -4.7110   -1.9310 C   0  0  0  0  0  0  0  0  0  0  0  0
   -0.9650   -5.0660   -1.1760 O   0  0  0  0  0  0  0  0  0  0  0  0
    0.5490   -5.7060   -2.7180 O   0  0  0  0  0  0  0  0  0  0  0  0
    1.1050   -4.9060    0.5870 H   0  0  0  0  0  0  0  0  0  0  0  0
    1.4040   -3.3600    1.4660 H   0  0  0  0  0  0  0  0  0  0  0  0
    2.4460   -4.0420   -2.4490 H   0  0  0  0  0  0  0  0  0  0  0  0
    2.3670   -2.2790   -2.1430 H   0  0  0  0  0  0  0  0  0  0  0  0
    0.3160   -3.0240   -3.1320 H   0  0  0  0  0  0  0  0  0  0  0  0
   -0.1680   -2.5080   -0.1360 H   0  0  0  0  0  0  0  0  0  0  0  0
  2  1  1  0  0  0  0
  2 14  1  1  0  0  0
  2  3  1  0  0  0  0
  3 16  1  0  0  0  0
  4  3  1  0  0  0  0
  4  9  1  0  0  0  0
  5  4  2  0  0  0  0
  6  5  1  0  0  0  0
  6  7  2  0  0  0  0
  7  8  1  0  0  0  0
  8  9  2  0  0  0  0
  8 20  1  0  0  0  0
  9 21  1  0  0  0  0
 10  2  1  0  0  0  0
 11 10  2  0  0  0  0
 12  1  1  0  0  0  0
 13  1  1  0  0  0  0
 15  3  1  0  0  0  0
 17  5  1  0  0  0  0
 18  6  1  0  0  0  0
 19  7  1  0  0  0  0
 22 30  1  0  0  0  0
 22 31  1  0  0  0  0
 23 22  1  0  0  0  0
 23 34  1  0  0  0  0
 24 35  1  6  0  0  0
 24 23  1  0  0  0  0
 24 26  1  0  0  0  0
 25 24  1  0  0  0  0
 25 36  1  0  0  0  0
 25 38  1  0  0  0  0
 26 39  1  6  0  0  0
 26 27  1  0  0  0  0
 27 40  1  0  0  0  0
 27 10  1  0  0  0  0
 28 46  1  0  0  0  0
 28 26  1  0  0  0  0
 29 28  2  0  0  0  0
 32 22  1  0  0  0  0
 33 23  1  0  0  0  0
 37 25  1  0  0  0  0
 41 51  1  0  0  0  0
 42 43  2  0  0  0  0
 42 41  1  0  0  0  0
 44 42  1  0  0  0  0
 45 54  1  6  0  0  0
 45 47  1  0  0  0  0
 45 44  1  0  0  0  0
 45 46  1  0  0  0  0
 46 55  1  0  0  0  0
 47 48  1  0  0  0  0
 49 47  2  0  0  0  0
 50 41  1  0  0  0  0
 52 44  1  0  0  0  0
 53 44  1  0  0  0  0
M  END
$$$$
