FIP.pdb
 OpenBabel07022419003D

 55 56  0  0  1  0  0  0  0  0999 V2000
    0.9820   -3.1820    4.2930 N   0  0  0  0  0  0  0  0  0  0  0  0
    1.3750   -2.1010    3.3420 C   0  0  1  0  0  0  0  0  0  0  0  0
    2.6360   -2.5840    2.7320 C   0  0  0  0  0  0  0  0  0  0  0  0
    3.2900   -1.7270    1.7520 C   0  0  0  0  0  0  0  0  0  0  0  0
    4.1950   -0.7270    2.1190 C   0  0  0  0  0  0  0  0  0  0  0  0
    4.8190    0.0360    1.1660 C   0  0  0  0  0  0  0  0  0  0  0  0
    4.5680   -0.1670   -0.1710 C   0  0  0  0  0  0  0  0  0  0  0  0
    3.6820   -1.1460   -0.5410 C   0  0  0  0  0  0  0  0  0  0  0  0
    3.0570   -1.9100    0.4160 C   0  0  0  0  0  0  0  0  0  0  0  0
    0.2710   -1.9650    2.4060 C   0  0  0  0  0  0  0  0  0  0  0  0
   -0.6720   -2.8370    2.3850 O   0  0  0  0  0  0  0  0  0  0  0  0
    1.7020   -3.1480    5.0630 H   0  0  0  0  0  0  0  0  0  0  0  0
    0.0560   -2.9580    4.7130 H   0  0  0  0  0  0  0  0  0  0  0  0
    1.5220   -1.2140    3.9990 H   0  0  0  0  0  0  0  0  0  0  0  0
    2.3900   -3.5730    2.2360 H   0  0  0  0  0  0  0  0  0  0  0  0
    3.3570   -2.8800    3.5340 H   0  0  0  0  0  0  0  0  0  0  0  0
    4.3650   -0.5970    3.1790 H   0  0  0  0  0  0  0  0  0  0  0  0
    5.5170    0.8060    1.4720 H   0  0  0  0  0  0  0  0  0  0  0  0
    5.0590    0.4320   -0.9220 H   0  0  0  0  0  0  0  0  0  0  0  0
    3.4690   -1.3240   -1.5990 H   0  0  0  0  0  0  0  0  0  0  0  0
    2.3660   -2.6680    0.0570 H   0  0  0  0  0  0  0  0  0  0  0  0
   -2.0110    2.6250    1.8510 C   0  0  0  0  0  0  0  0  0  0  0  0
   -1.1360    1.5980    1.1710 C   0  0  0  0  0  0  0  0  0  0  0  0
   -1.8730    0.2830    1.1570 C   0  0  2  0  0  0  0  0  0  0  0  0
   -2.1380   -0.0920    2.6130 C   0  0  0  0  0  0  0  0  0  0  0  0
   -1.0220   -0.8420    0.5830 C   0  0  2  0  0  0  0  0  0  0  0  0
    0.1370   -0.9030    1.4770 N   0  0  0  0  0  0  0  0  0  0  0  0
   -0.5910   -0.5720   -0.7920 C   0  0  0  0  0  0  0  0  0  0  0  0
    0.6440   -0.2910   -1.0120 O   0  0  0  0  0  0  0  0  0  0  0  0
   -3.0770    2.5260    1.5460 H   0  0  0  0  0  0  0  0  0  0  0  0
   -1.8990    2.5980    2.9550 H   0  0  0  0  0  0  0  0  0  0  0  0
   -1.7210    3.6710    1.5530 H   0  0  0  0  0  0  0  0  0  0  0  0
   -0.1920    1.5400    1.7410 H   0  0  0  0  0  0  0  0  0  0  0  0
   -0.9450    1.9810    0.1410 H   0  0  0  0  0  0  0  0  0  0  0  0
   -2.8370    0.3960    0.6870 H   0  0  0  0  0  0  0  0  0  0  0  0
   -2.7660    0.7040    3.1070 H   0  0  0  0  0  0  0  0  0  0  0  0
   -1.2160   -0.1720    3.2060 H   0  0  0  0  0  0  0  0  0  0  0  0
   -2.7130   -1.0250    2.7060 H   0  0  0  0  0  0  0  0  0  0  0  0
   -1.5930   -1.7580    0.7060 H   0  0  0  0  0  0  0  0  0  0  0  0
    0.8700   -0.1730    1.4390 H   0  0  0  0  0  0  0  0  0  0  0  0
   -1.4200   -0.5890   -1.9430 N   0  0  0  0  0  0  0  0  0  0  0  0
   -0.9360   -0.2980   -3.2860 C   0  0  0  0  0  0  0  0  0  0  0  0
   -2.1180    0.4660   -3.8450 C   0  0  0  0  0  0  0  0  0  0  0  0
   -3.2160   -0.5550   -3.5070 C   0  0  0  0  0  0  0  0  0  0  0  0
   -2.8270   -0.8930   -2.0820 C   0  0  1  0  0  0  0  0  0  0  0  0
   -2.9660   -2.3750   -1.8780 C   0  0  0  0  0  0  0  0  0  0  0  0
   -4.1010   -2.9050   -1.9440 O   0  0  0  0  0  0  0  0  0  0  0  0
   -1.8830   -3.1970   -1.6160 O   0  0  0  0  0  0  0  0  0  0  0  0
   -0.8860   -1.2630   -3.8310 H   0  0  0  0  0  0  0  0  0  0  0  0
   -0.0050    0.2630   -3.2950 H   0  0  0  0  0  0  0  0  0  0  0  0
   -2.0490    0.6470   -4.9150 H   0  0  0  0  0  0  0  0  0  0  0  0
   -2.2760    1.3420   -3.2150 H   0  0  0  0  0  0  0  0  0  0  0  0
   -4.2140   -0.1320   -3.6000 H   0  0  0  0  0  0  0  0  0  0  0  0
   -3.0220   -1.4400   -4.1470 H   0  0  0  0  0  0  0  0  0  0  0  0
   -3.4940   -0.3410   -1.4190 H   0  0  0  0  0  0  0  0  0  0  0  0
  1 13  1  0  0  0  0
  1 12  1  0  0  0  0
  2 14  1  1  0  0  0
  2  1  1  0  0  0  0
  3  2  1  0  0  0  0
  3 16  1  0  0  0  0
  4  5  1  0  0  0  0
  4  3  1  0  0  0  0
  5 17  1  0  0  0  0
  6 18  1  0  0  0  0
  6  5  2  0  0  0  0
  7  6  1  0  0  0  0
  8  7  2  0  0  0  0
  8  9  1  0  0  0  0
  9  4  2  0  0  0  0
 10  2  1  0  0  0  0
 11 10  2  0  0  0  0
 15  3  1  0  0  0  0
 19  7  1  0  0  0  0
 20  8  1  0  0  0  0
 21  9  1  0  0  0  0
 22 31  1  0  0  0  0
 23 33  1  0  0  0  0
 23 22  1  0  0  0  0
 24 35  1  6  0  0  0
 24 23  1  0  0  0  0
 24 25  1  0  0  0  0
 25 38  1  0  0  0  0
 25 36  1  0  0  0  0
 25 37  1  0  0  0  0
 26 39  1  1  0  0  0
 26 24  1  0  0  0  0
 26 27  1  0  0  0  0
 27 10  1  0  0  0  0
 28 26  1  0  0  0  0
 29 28  2  0  0  0  0
 30 22  1  0  0  0  0
 32 22  1  0  0  0  0
 34 23  1  0  0  0  0
 40 27  1  0  0  0  0
 41 28  1  0  0  0  0
 42 41  1  0  0  0  0
 43 44  1  0  0  0  0
 43 42  1  0  0  0  0
 43 52  1  0  0  0  0
 44 45  1  0  0  0  0
 45 41  1  0  0  0  0
 45 46  1  0  0  0  0
 45 55  1  1  0  0  0
 46 48  1  0  0  0  0
 47 46  2  0  0  0  0
 49 42  1  0  0  0  0
 50 42  1  0  0  0  0
 51 43  1  0  0  0  0
 53 44  1  0  0  0  0
 54 44  1  0  0  0  0
M  END
$$$$
