FIQ.pdb
 OpenBabel07022418593D

 58 58  0  0  1  0  0  0  0  0999 V2000
    1.7730   -2.4460    3.0870 N   0  0  0  0  0  0  0  0  0  0  0  0
    1.3030   -1.1180    3.4210 C   0  0  1  0  0  0  0  0  0  0  0  0
    2.3290   -0.3360    4.1930 C   0  0  0  0  0  0  0  0  0  0  0  0
    1.8230    1.0280    4.4840 C   0  0  0  0  0  0  0  0  0  0  0  0
    2.1810    2.1100    3.6970 C   0  0  0  0  0  0  0  0  0  0  0  0
    1.6510    3.3580    3.9800 C   0  0  0  0  0  0  0  0  0  0  0  0
    0.7800    3.5240    5.0300 C   0  0  0  0  0  0  0  0  0  0  0  0
    0.4170    2.4490    5.8230 C   0  0  0  0  0  0  0  0  0  0  0  0
    0.9420    1.1990    5.5450 C   0  0  0  0  0  0  0  0  0  0  0  0
    0.7270   -0.3800    2.3040 C   0  0  0  0  0  0  0  0  0  0  0  0
    0.2060    0.7550    2.4820 O   0  0  0  0  0  0  0  0  0  0  0  0
    2.2200   -2.9320    3.8910 H   0  0  0  0  0  0  0  0  0  0  0  0
    1.0460   -3.0250    2.6190 H   0  0  0  0  0  0  0  0  0  0  0  0
    0.4230   -1.3330    4.1470 H   0  0  0  0  0  0  0  0  0  0  0  0
    3.2870   -0.2610    3.6540 H   0  0  0  0  0  0  0  0  0  0  0  0
    2.5630   -0.8450    5.1700 H   0  0  0  0  0  0  0  0  0  0  0  0
    2.8610    2.0010    2.8750 H   0  0  0  0  0  0  0  0  0  0  0  0
    1.9280    4.2120    3.3690 H   0  0  0  0  0  0  0  0  0  0  0  0
    0.3600    4.5010    5.2510 H   0  0  0  0  0  0  0  0  0  0  0  0
   -0.2680    2.6180    6.6380 H   0  0  0  0  0  0  0  0  0  0  0  0
    0.6760    0.3550    6.1430 H   0  0  0  0  0  0  0  0  0  0  0  0
    2.0810   -0.8460   -3.2710 C   0  0  0  0  0  0  0  0  0  0  0  0
    1.3600   -1.1410   -1.9600 C   0  0  0  0  0  0  0  0  0  0  0  0
    0.9450    0.1720   -1.2760 C   0  0  2  0  0  0  0  0  0  0  0  0
    2.1880    0.9940   -0.9910 C   0  0  0  0  0  0  0  0  0  0  0  0
    0.0950   -0.0740   -0.0910 C   0  0  2  0  0  0  0  0  0  0  0  0
    0.6920   -0.8440    0.9640 N   0  0  0  0  0  0  0  0  0  0  0  0
   -1.1380   -0.7710   -0.6250 C   0  0  0  0  0  0  0  0  0  0  0  0
   -1.9890   -0.1190   -1.2170 O   0  0  0  0  0  0  0  0  0  0  0  0
    3.0430   -0.3110   -3.1060 H   0  0  0  0  0  0  0  0  0  0  0  0
    2.3210   -1.7590   -3.8200 H   0  0  0  0  0  0  0  0  0  0  0  0
    1.3750   -0.2720   -3.8950 H   0  0  0  0  0  0  0  0  0  0  0  0
    2.1160   -1.6710   -1.3230 H   0  0  0  0  0  0  0  0  0  0  0  0
    0.4960   -1.7660   -2.2100 H   0  0  0  0  0  0  0  0  0  0  0  0
    0.3600    0.7240   -2.0200 H   0  0  0  0  0  0  0  0  0  0  0  0
    2.1460    1.5750   -0.0570 H   0  0  0  0  0  0  0  0  0  0  0  0
    3.0840    0.2910   -0.9900 H   0  0  0  0  0  0  0  0  0  0  0  0
    2.4400    1.7090   -1.7980 H   0  0  0  0  0  0  0  0  0  0  0  0
   -0.2570    0.8660    0.3340 H   0  0  0  0  0  0  0  0  0  0  0  0
    1.1040   -1.7490    0.7270 H   0  0  0  0  0  0  0  0  0  0  0  0
   -4.0150   -0.7550   -4.0230 N   0  0  0  0  0  0  0  0  0  0  0  0
   -3.6660   -1.9390   -3.3450 C   0  0  0  0  0  0  0  0  0  0  0  0
   -4.5840   -2.5100   -2.6770 O   0  0  0  0  0  0  0  0  0  0  0  0
   -2.3280   -2.5850   -3.3380 C   0  0  0  0  0  0  0  0  0  0  0  0
   -2.2660   -3.5800   -2.2320 C   0  0  0  0  0  0  0  0  0  0  0  0
   -2.3600   -3.0050   -0.8500 C   0  0  2  0  0  0  0  0  0  0  0  0
   -1.3100   -2.1420   -0.4590 N   0  0  0  0  0  0  0  0  0  0  0  0
   -2.6140   -4.0480    0.1520 C   0  0  0  0  0  0  0  0  0  0  0  0
   -3.5180   -4.9190    0.0130 O   0  0  0  0  0  0  0  0  0  0  0  0
   -1.8290   -4.0820    1.2990 O   0  0  0  0  0  0  0  0  0  0  0  0
   -4.9060   -0.7090   -4.5610 H   0  0  0  0  0  0  0  0  0  0  0  0
   -3.4220    0.0850   -4.0120 H   0  0  0  0  0  0  0  0  0  0  0  0
   -1.5620   -1.7820   -3.3190 H   0  0  0  0  0  0  0  0  0  0  0  0
   -2.2410   -3.1720   -4.3020 H   0  0  0  0  0  0  0  0  0  0  0  0
   -1.4270   -4.3140   -2.3510 H   0  0  0  0  0  0  0  0  0  0  0  0
   -3.1930   -4.2270   -2.3470 H   0  0  0  0  0  0  0  0  0  0  0  0
   -3.2790   -2.3440   -0.8880 H   0  0  0  0  0  0  0  0  0  0  0  0
   -0.5170   -2.6490    0.0530 H   0  0  0  0  0  0  0  0  0  0  0  0
  1  2  1  0  0  0  0
  1 12  1  0  0  0  0
  2 14  1  1  0  0  0
  2  3  1  0  0  0  0
  3  4  1  0  0  0  0
  3 16  1  0  0  0  0
  4  9  1  0  0  0  0
  5  6  1  0  0  0  0
  5  4  2  0  0  0  0
  6  7  2  0  0  0  0
  7 19  1  0  0  0  0
  7  8  1  0  0  0  0
  8 20  1  0  0  0  0
  9  8  2  0  0  0  0
  9 21  1  0  0  0  0
 10 11  2  0  0  0  0
 10  2  1  0  0  0  0
 13  1  1  0  0  0  0
 15  3  1  0  0  0  0
 17  5  1  0  0  0  0
 18  6  1  0  0  0  0
 22 30  1  0  0  0  0
 22 23  1  0  0  0  0
 23 33  1  0  0  0  0
 23 24  1  0  0  0  0
 24 35  1  6  0  0  0
 24 25  1  0  0  0  0
 24 26  1  0  0  0  0
 25 37  1  0  0  0  0
 25 36  1  0  0  0  0
 26 39  1  1  0  0  0
 26 27  1  0  0  0  0
 27 10  1  0  0  0  0
 28 47  1  0  0  0  0
 28 26  1  0  0  0  0
 29 28  2  0  0  0  0
 31 22  1  0  0  0  0
 32 22  1  0  0  0  0
 34 23  1  0  0  0  0
 38 25  1  0  0  0  0
 40 27  1  0  0  0  0
 41 52  1  0  0  0  0
 41 42  1  0  0  0  0
 42 44  1  0  0  0  0
 42 43  2  0  0  0  0
 44 53  1  0  0  0  0
 44 45  1  0  0  0  0
 45 46  1  0  0  0  0
 46 57  1  6  0  0  0
 46 47  1  0  0  0  0
 46 48  1  0  0  0  0
 47 58  1  0  0  0  0
 48 50  1  0  0  0  0
 49 48  2  0  0  0  0
 51 41  1  0  0  0  0
 54 44  1  0  0  0  0
 55 45  1  0  0  0  0
 56 45  1  0  0  0  0
M  END
$$$$
