FIS.pdb
 OpenBabel07022419003D

 52 52  0  0  1  0  0  0  0  0999 V2000
    1.2520   -2.2880    3.7610 N   0  0  0  0  0  0  0  0  0  0  0  0
    2.0650   -1.5040    2.8590 C   0  0  1  0  0  0  0  0  0  0  0  0
    2.9580   -2.4240    2.1020 C   0  0  0  0  0  0  0  0  0  0  0  0
    3.8540   -1.7880    1.1320 C   0  0  0  0  0  0  0  0  0  0  0  0
    5.1120   -1.3300    1.5250 C   0  0  0  0  0  0  0  0  0  0  0  0
    5.9550   -0.7410    0.6220 C   0  0  0  0  0  0  0  0  0  0  0  0
    5.5680   -0.5940   -0.6890 C   0  0  0  0  0  0  0  0  0  0  0  0
    4.3430   -1.0380   -1.0800 C   0  0  0  0  0  0  0  0  0  0  0  0
    3.4880   -1.6300   -0.1850 C   0  0  0  0  0  0  0  0  0  0  0  0
    1.1260   -0.7640    1.9370 C   0  0  0  0  0  0  0  0  0  0  0  0
    1.6460    0.0280    1.1090 O   0  0  0  0  0  0  0  0  0  0  0  0
    0.7810   -3.0850    3.3170 H   0  0  0  0  0  0  0  0  0  0  0  0
    0.6760   -1.6880    4.3590 H   0  0  0  0  0  0  0  0  0  0  0  0
    2.6390   -0.7810    3.4790 H   0  0  0  0  0  0  0  0  0  0  0  0
    3.6030   -2.9720    2.8320 H   0  0  0  0  0  0  0  0  0  0  0  0
    2.3720   -3.2110    1.5820 H   0  0  0  0  0  0  0  0  0  0  0  0
    5.4000   -1.4510    2.5500 H   0  0  0  0  0  0  0  0  0  0  0  0
    6.9290   -0.3820    0.9080 H   0  0  0  0  0  0  0  0  0  0  0  0
    6.2430   -0.1250   -1.4000 H   0  0  0  0  0  0  0  0  0  0  0  0
    3.9890   -0.9440   -2.1100 H   0  0  0  0  0  0  0  0  0  0  0  0
    2.5000   -1.9910   -0.5090 H   0  0  0  0  0  0  0  0  0  0  0  0
   -1.7650    2.3340    2.6730 C   0  0  0  0  0  0  0  0  0  0  0  0
   -0.5640    2.0060    1.8110 C   0  0  0  0  0  0  0  0  0  0  0  0
   -0.8830    1.0150    0.7120 C   0  0  2  0  0  0  0  0  0  0  0  0
   -1.9710    1.6790   -0.1190 C   0  0  0  0  0  0  0  0  0  0  0  0
   -1.2900   -0.3200    1.2210 C   0  0  2  0  0  0  0  0  0  0  0  0
   -0.2410   -0.9610    2.0160 N   0  0  0  0  0  0  0  0  0  0  0  0
   -1.8020   -1.2630    0.2160 C   0  0  0  0  0  0  0  0  0  0  0  0
   -1.1310   -2.3540   -0.0160 O   0  0  0  0  0  0  0  0  0  0  0  0
   -1.5290    2.1700    3.7670 H   0  0  0  0  0  0  0  0  0  0  0  0
   -2.6820    1.8050    2.3930 H   0  0  0  0  0  0  0  0  0  0  0  0
   -1.9970    3.4170    2.6100 H   0  0  0  0  0  0  0  0  0  0  0  0
   -0.2590    2.9420    1.2940 H   0  0  0  0  0  0  0  0  0  0  0  0
    0.2590    1.7370    2.4730 H   0  0  0  0  0  0  0  0  0  0  0  0
    0.0090    0.9840    0.0220 H   0  0  0  0  0  0  0  0  0  0  0  0
   -1.7260    2.7920   -0.2180 H   0  0  0  0  0  0  0  0  0  0  0  0
   -2.0890    1.2500   -1.1190 H   0  0  0  0  0  0  0  0  0  0  0  0
   -2.9440    1.6900    0.3970 H   0  0  0  0  0  0  0  0  0  0  0  0
   -2.1220   -0.0860    1.9640 H   0  0  0  0  0  0  0  0  0  0  0  0
   -0.5750   -1.6700    2.7470 H   0  0  0  0  0  0  0  0  0  0  0  0
   -5.6440   -1.9110   -0.8540 O   0  0  0  0  0  0  0  0  0  0  0  0
   -4.6240   -2.8380   -0.9950 C   0  0  0  0  0  0  0  0  0  0  0  0
   -3.3500   -2.1860   -1.5440 C   0  0  2  0  0  0  0  0  0  0  0  0
   -2.9710   -1.1500   -0.5620 N   0  0  0  0  0  0  0  0  0  0  0  0
   -3.5650   -1.6070   -2.8710 C   0  0  0  0  0  0  0  0  0  0  0  0
   -3.8930   -2.3470   -3.8270 O   0  0  0  0  0  0  0  0  0  0  0  0
   -3.4210   -0.2550   -3.1250 O   0  0  0  0  0  0  0  0  0  0  0  0
   -5.4650   -1.0600   -1.3400 H   0  0  0  0  0  0  0  0  0  0  0  0
   -4.3560   -3.3330   -0.0350 H   0  0  0  0  0  0  0  0  0  0  0  0
   -4.9780   -3.5950   -1.7360 H   0  0  0  0  0  0  0  0  0  0  0  0
   -2.5820   -2.9820   -1.5260 H   0  0  0  0  0  0  0  0  0  0  0  0
   -3.6030   -0.3330   -0.4330 H   0  0  0  0  0  0  0  0  0  0  0  0
  1 13  1  0  0  0  0
  2 14  1  1  0  0  0
  2  1  1  0  0  0  0
  3 15  1  0  0  0  0
  3  2  1  0  0  0  0
  4  5  1  0  0  0  0
  4  3  1  0  0  0  0
  5 17  1  0  0  0  0
  6 18  1  0  0  0  0
  6  5  2  0  0  0  0
  7  6  1  0  0  0  0
  8  7  2  0  0  0  0
  8  9  1  0  0  0  0
  9  4  2  0  0  0  0
 10 27  1  0  0  0  0
 10  2  1  0  0  0  0
 11 10  2  0  0  0  0
 12  1  1  0  0  0  0
 16  3  1  0  0  0  0
 19  7  1  0  0  0  0
 20  8  1  0  0  0  0
 21  9  1  0  0  0  0
 22 30  1  0  0  0  0
 23 34  1  0  0  0  0
 23 22  1  0  0  0  0
 24 35  1  6  0  0  0
 24 26  1  0  0  0  0
 24 23  1  0  0  0  0
 25 38  1  0  0  0  0
 25 24  1  0  0  0  0
 26 39  1  1  0  0  0
 26 27  1  0  0  0  0
 27 40  1  0  0  0  0
 28 26  1  0  0  0  0
 29 28  2  0  0  0  0
 31 22  1  0  0  0  0
 32 22  1  0  0  0  0
 33 23  1  0  0  0  0
 36 25  1  0  0  0  0
 37 25  1  0  0  0  0
 42 41  1  0  0  0  0
 42 49  1  0  0  0  0
 43 51  1  6  0  0  0
 43 42  1  0  0  0  0
 43 44  1  0  0  0  0
 44 52  1  0  0  0  0
 44 28  1  0  0  0  0
 45 43  1  0  0  0  0
 46 45  2  0  0  0  0
 47 45  1  0  0  0  0
 48 41  1  0  0  0  0
 50 42  1  0  0  0  0
M  END
$$$$
