FIV.pdb
 OpenBabel07022419003D

 57 57  0  0  1  0  0  0  0  0999 V2000
   -0.2960   -1.1280    4.2590 N   0  0  0  0  0  0  0  0  0  0  0  0
    0.6940   -1.0920    3.1720 C   0  0  1  0  0  0  0  0  0  0  0  0
    1.1640   -2.4600    2.8580 C   0  0  0  0  0  0  0  0  0  0  0  0
    2.1610   -2.5530    1.7990 C   0  0  0  0  0  0  0  0  0  0  0  0
    3.5330   -2.4280    2.0340 C   0  0  0  0  0  0  0  0  0  0  0  0
    4.4810   -2.5300    1.0510 C   0  0  0  0  0  0  0  0  0  0  0  0
    4.1070   -2.7660   -0.2410 C   0  0  0  0  0  0  0  0  0  0  0  0
    2.7670   -2.8950   -0.5070 C   0  0  0  0  0  0  0  0  0  0  0  0
    1.7970   -2.7920    0.4940 C   0  0  0  0  0  0  0  0  0  0  0  0
    0.1400   -0.4060    1.9890 C   0  0  0  0  0  0  0  0  0  0  0  0
    0.7270   -0.2800    0.8990 O   0  0  0  0  0  0  0  0  0  0  0  0
    0.0850   -1.8040    4.9620 H   0  0  0  0  0  0  0  0  0  0  0  0
   -0.2830   -0.1920    4.7290 H   0  0  0  0  0  0  0  0  0  0  0  0
    1.5510   -0.5370    3.6190 H   0  0  0  0  0  0  0  0  0  0  0  0
    0.2620   -3.0610    2.5320 H   0  0  0  0  0  0  0  0  0  0  0  0
    1.5030   -3.0110    3.7810 H   0  0  0  0  0  0  0  0  0  0  0  0
    3.8500   -2.2420    3.0390 H   0  0  0  0  0  0  0  0  0  0  0  0
    5.5480   -2.4230    1.2880 H   0  0  0  0  0  0  0  0  0  0  0  0
    4.8760   -2.8420   -1.0000 H   0  0  0  0  0  0  0  0  0  0  0  0
    2.4720   -3.0830   -1.5370 H   0  0  0  0  0  0  0  0  0  0  0  0
    0.7880   -2.9140    0.1740 H   0  0  0  0  0  0  0  0  0  0  0  0
    0.5940    2.7570    2.0210 C   0  0  0  0  0  0  0  0  0  0  0  0
   -0.3060    2.8390    0.8360 C   0  0  0  0  0  0  0  0  0  0  0  0
   -1.6930    2.3340    1.0350 C   0  0  2  0  0  0  0  0  0  0  0  0
   -2.4440    3.0330    2.1230 C   0  0  0  0  0  0  0  0  0  0  0  0
   -1.8840    0.8610    1.0870 C   0  0  2  0  0  0  0  0  0  0  0  0
   -1.1780    0.1630    2.1040 N   0  0  0  0  0  0  0  0  0  0  0  0
   -1.9590    0.2160   -0.2480 C   0  0  0  0  0  0  0  0  0  0  0  0
   -2.3950    0.9330   -1.2280 O   0  0  0  0  0  0  0  0  0  0  0  0
    1.4930    2.1700    1.7660 H   0  0  0  0  0  0  0  0  0  0  0  0
    0.1340    2.3030    2.9230 H   0  0  0  0  0  0  0  0  0  0  0  0
    1.0160    3.7800    2.2830 H   0  0  0  0  0  0  0  0  0  0  0  0
    0.2020    2.3250   -0.0240 H   0  0  0  0  0  0  0  0  0  0  0  0
   -0.3260    3.9220    0.5050 H   0  0  0  0  0  0  0  0  0  0  0  0
   -2.2500    2.6510    0.0700 H   0  0  0  0  0  0  0  0  0  0  0  0
   -3.5000    3.2250    1.8500 H   0  0  0  0  0  0  0  0  0  0  0  0
   -1.9910    3.9940    2.4250 H   0  0  0  0  0  0  0  0  0  0  0  0
   -2.5000    2.3850    3.0450 H   0  0  0  0  0  0  0  0  0  0  0  0
   -3.0130    0.7730    1.4710 H   0  0  0  0  0  0  0  0  0  0  0  0
   -1.6770    0.0550    3.0550 H   0  0  0  0  0  0  0  0  0  0  0  0
    0.5700   -0.9920   -2.6670 C   0  0  0  0  0  0  0  0  0  0  0  0
   -0.4610   -2.0780   -2.5510 C   0  0  0  0  0  0  0  0  0  0  0  0
   -0.7610   -2.5500   -3.9770 C   0  0  0  0  0  0  0  0  0  0  0  0
   -1.7420   -1.6230   -1.9410 C   0  0  2  0  0  0  0  0  0  0  0  0
   -1.6200   -1.0970   -0.5920 N   0  0  0  0  0  0  0  0  0  0  0  0
   -2.6810   -2.7680   -1.8760 C   0  0  0  0  0  0  0  0  0  0  0  0
   -2.9740   -3.4100   -2.9160 O   0  0  0  0  0  0  0  0  0  0  0  0
   -3.2800   -3.1910   -0.6900 O   0  0  0  0  0  0  0  0  0  0  0  0
    1.3180   -1.3470   -3.4360 H   0  0  0  0  0  0  0  0  0  0  0  0
    0.1370   -0.0710   -3.0900 H   0  0  0  0  0  0  0  0  0  0  0  0
    1.1350   -0.8570   -1.7430 H   0  0  0  0  0  0  0  0  0  0  0  0
   -0.0240   -2.9580   -2.0470 H   0  0  0  0  0  0  0  0  0  0  0  0
   -0.9190   -3.6420   -3.9820 H   0  0  0  0  0  0  0  0  0  0  0  0
    0.1040   -2.2930   -4.6210 H   0  0  0  0  0  0  0  0  0  0  0  0
   -1.6990   -2.0660   -4.3420 H   0  0  0  0  0  0  0  0  0  0  0  0
   -2.2220   -0.8220   -2.5440 H   0  0  0  0  0  0  0  0  0  0  0  0
   -1.2870   -1.7470    0.1450 H   0  0  0  0  0  0  0  0  0  0  0  0
  1 13  1  0  0  0  0
  1 12  1  0  0  0  0
  2 14  1  1  0  0  0
  2  1  1  0  0  0  0
  3  2  1  0  0  0  0
  3 16  1  0  0  0  0
  4  5  1  0  0  0  0
  4  3  1  0  0  0  0
  5 17  1  0  0  0  0
  6 18  1  0  0  0  0
  6  5  2  0  0  0  0
  7  6  1  0  0  0  0
  8  7  2  0  0  0  0
  8  9  1  0  0  0  0
  9  4  2  0  0  0  0
 10 27  1  0  0  0  0
 10  2  1  0  0  0  0
 11 10  2  0  0  0  0
 15  3  1  0  0  0  0
 19  7  1  0  0  0  0
 20  8  1  0  0  0  0
 21  9  1  0  0  0  0
 22 32  1  0  0  0  0
 22 31  1  0  0  0  0
 23 24  1  0  0  0  0
 23 22  1  0  0  0  0
 24 35  1  6  0  0  0
 24 26  1  0  0  0  0
 24 25  1  0  0  0  0
 25 37  1  0  0  0  0
 25 38  1  0  0  0  0
 26 39  1  1  0  0  0
 26 27  1  0  0  0  0
 27 40  1  0  0  0  0
 28 26  1  0  0  0  0
 29 28  2  0  0  0  0
 30 22  1  0  0  0  0
 33 23  1  0  0  0  0
 34 23  1  0  0  0  0
 36 25  1  0  0  0  0
 41 42  1  0  0  0  0
 41 51  1  0  0  0  0
 42 52  1  0  0  0  0
 42 44  1  0  0  0  0
 43 42  1  0  0  0  0
 44 56  1  6  0  0  0
 44 46  1  0  0  0  0
 44 45  1  0  0  0  0
 45 28  1  0  0  0  0
 45 57  1  0  0  0  0
 46 48  1  0  0  0  0
 47 46  2  0  0  0  0
 49 41  1  0  0  0  0
 50 41  1  0  0  0  0
 53 43  1  0  0  0  0
 54 43  1  0  0  0  0
 55 43  1  0  0  0  0
M  END
$$$$
