FIY.pdb
 OpenBabel07022419003D

 62 63  0  0  1  0  0  0  0  0999 V2000
    1.2560    1.1620    2.3730 N   0  0  0  0  0  0  0  0  0  0  0  0
    0.7000    1.1380    1.0410 C   0  0  1  0  0  0  0  0  0  0  0  0
    1.6120    0.3190    0.1480 C   0  0  0  0  0  0  0  0  0  0  0  0
    2.9740    0.8660    0.0690 C   0  0  0  0  0  0  0  0  0  0  0  0
    3.9980    0.4760    0.9350 C   0  0  0  0  0  0  0  0  0  0  0  0
    5.2580    1.0180    0.8260 C   0  0  0  0  0  0  0  0  0  0  0  0
    5.5690    1.9600   -0.1290 C   0  0  0  0  0  0  0  0  0  0  0  0
    4.5420    2.3410   -0.9850 C   0  0  0  0  0  0  0  0  0  0  0  0
    3.2770    1.8120   -0.8940 C   0  0  0  0  0  0  0  0  0  0  0  0
   -0.6450    0.5560    0.9860 C   0  0  0  0  0  0  0  0  0  0  0  0
   -1.3180    0.4380   -0.0580 O   0  0  0  0  0  0  0  0  0  0  0  0
    2.2610    1.4380    2.3840 H   0  0  0  0  0  0  0  0  0  0  0  0
    0.6780    1.7210    3.0380 H   0  0  0  0  0  0  0  0  0  0  0  0
    0.6330    2.1770    0.6910 H   0  0  0  0  0  0  0  0  0  0  0  0
    1.1660    0.3610   -0.8890 H   0  0  0  0  0  0  0  0  0  0  0  0
    1.6340   -0.7410    0.4380 H   0  0  0  0  0  0  0  0  0  0  0  0
    3.7990   -0.2610    1.6970 H   0  0  0  0  0  0  0  0  0  0  0  0
    6.0380    0.7010    1.5070 H   0  0  0  0  0  0  0  0  0  0  0  0
    6.5530    2.4080   -0.2420 H   0  0  0  0  0  0  0  0  0  0  0  0
    4.7650    3.0720   -1.7330 H   0  0  0  0  0  0  0  0  0  0  0  0
    2.4900    2.1380   -1.5880 H   0  0  0  0  0  0  0  0  0  0  0  0
   -3.0330    2.6300    1.7260 C   0  0  0  0  0  0  0  0  0  0  0  0
   -3.9960    1.4690    1.6930 C   0  0  0  0  0  0  0  0  0  0  0  0
   -3.6760    0.3630    2.6300 C   0  0  2  0  0  0  0  0  0  0  0  0
   -3.6420    0.8380    4.0660 C   0  0  0  0  0  0  0  0  0  0  0  0
   -2.5230   -0.5070    2.3130 C   0  0  2  0  0  0  0  0  0  0  0  0
   -1.2470    0.0880    2.1960 N   0  0  0  0  0  0  0  0  0  0  0  0
   -2.8760   -1.5840    1.3820 C   0  0  0  0  0  0  0  0  0  0  0  0
   -4.0880   -1.9080    1.3350 O   0  0  0  0  0  0  0  0  0  0  0  0
   -2.2200    2.4300    2.4840 H   0  0  0  0  0  0  0  0  0  0  0  0
   -2.5430    2.7320    0.7380 H   0  0  0  0  0  0  0  0  0  0  0  0
   -3.5620    3.5830    1.9900 H   0  0  0  0  0  0  0  0  0  0  0  0
   -4.0910    1.1460    0.6350 H   0  0  0  0  0  0  0  0  0  0  0  0
   -5.0150    1.8960    1.9350 H   0  0  0  0  0  0  0  0  0  0  0  0
   -4.5890   -0.3390    2.6080 H   0  0  0  0  0  0  0  0  0  0  0  0
   -3.0590    1.7600    4.2110 H   0  0  0  0  0  0  0  0  0  0  0  0
   -3.1410    0.0570    4.7070 H   0  0  0  0  0  0  0  0  0  0  0  0
   -4.6900    0.9570    4.4540 H   0  0  0  0  0  0  0  0  0  0  0  0
   -2.4110   -1.1440    3.3080 H   0  0  0  0  0  0  0  0  0  0  0  0
   -0.6740    0.2070    3.0890 H   0  0  0  0  0  0  0  0  0  0  0  0
    3.4580   -3.2410   -2.9490 O   0  0  0  0  0  0  0  0  0  0  0  0
    2.0880   -3.2980   -2.6470 C   0  0  0  0  0  0  0  0  0  0  0  0
    1.4190   -4.5000   -2.5410 C   0  0  0  0  0  0  0  0  0  0  0  0
    0.0730   -4.4890   -2.2420 C   0  0  0  0  0  0  0  0  0  0  0  0
   -0.6070   -3.3080   -2.0480 C   0  0  0  0  0  0  0  0  0  0  0  0
   -2.0360   -3.2730   -1.7390 C   0  0  0  0  0  0  0  0  0  0  0  0
   -2.4400   -3.3300   -0.3280 C   0  0  2  0  0  0  0  0  0  0  0  0
   -1.9800   -2.2900    0.5450 N   0  0  0  0  0  0  0  0  0  0  0  0
   -2.0840   -4.6560    0.2630 C   0  0  0  0  0  0  0  0  0  0  0  0
   -2.4080   -5.7270   -0.3070 O   0  0  0  0  0  0  0  0  0  0  0  0
    0.0920   -2.1330   -2.1620 C   0  0  0  0  0  0  0  0  0  0  0  0
    1.4290   -2.1020   -2.4580 C   0  0  0  0  0  0  0  0  0  0  0  0
   -1.3830   -4.7730    1.4620 O   0  0  0  0  0  0  0  0  0  0  0  0
    3.6860   -2.8620   -3.8710 H   0  0  0  0  0  0  0  0  0  0  0  0
    1.9950   -5.4010   -2.7010 H   0  0  0  0  0  0  0  0  0  0  0  0
   -0.4400   -5.4660   -2.1650 H   0  0  0  0  0  0  0  0  0  0  0  0
   -2.4900   -4.1680   -2.2590 H   0  0  0  0  0  0  0  0  0  0  0  0
   -2.5410   -2.4070   -2.2430 H   0  0  0  0  0  0  0  0  0  0  0  0
   -3.5710   -3.3180   -0.2860 H   0  0  0  0  0  0  0  0  0  0  0  0
   -0.9500   -2.0940    0.5440 H   0  0  0  0  0  0  0  0  0  0  0  0
   -0.4100   -1.1890   -2.0230 H   0  0  0  0  0  0  0  0  0  0  0  0
    1.9850   -1.1560   -2.5500 H   0  0  0  0  0  0  0  0  0  0  0  0
  1 12  1  0  0  0  0
  1 13  1  0  0  0  0
  2 14  1  6  0  0  0
  2  1  1  0  0  0  0
  3 16  1  0  0  0  0
  3  2  1  0  0  0  0
  4  3  1  0  0  0  0
  4  5  1  0  0  0  0
  5 17  1  0  0  0  0
  6  5  2  0  0  0  0
  6 18  1  0  0  0  0
  7  6  1  0  0  0  0
  8  9  1  0  0  0  0
  8  7  2  0  0  0  0
  9  4  2  0  0  0  0
 10  2  1  0  0  0  0
 10 27  1  0  0  0  0
 11 10  2  0  0  0  0
 15  3  1  0  0  0  0
 19  7  1  0  0  0  0
 20  8  1  0  0  0  0
 21  9  1  0  0  0  0
 22 32  1  0  0  0  0
 22 30  1  0  0  0  0
 23 22  1  0  0  0  0
 23 34  1  0  0  0  0
 23 24  1  0  0  0  0
 24 35  1  6  0  0  0
 24 25  1  0  0  0  0
 25 36  1  0  0  0  0
 25 38  1  0  0  0  0
 25 37  1  0  0  0  0
 26 24  1  0  0  0  0
 26 39  1  1  0  0  0
 27 26  1  0  0  0  0
 27 40  1  0  0  0  0
 28 26  1  0  0  0  0
 29 28  2  0  0  0  0
 31 22  1  0  0  0  0
 33 23  1  0  0  0  0
 41 42  1  0  0  0  0
 42 43  2  0  0  0  0
 42 52  1  0  0  0  0
 43 44  1  0  0  0  0
 44 56  1  0  0  0  0
 44 45  2  0  0  0  0
 45 46  1  0  0  0  0
 46 47  1  0  0  0  0
 47 59  1  1  0  0  0
 47 49  1  0  0  0  0
 47 48  1  0  0  0  0
 48 28  1  0  0  0  0
 49 53  1  0  0  0  0
 50 49  2  0  0  0  0
 51 45  1  0  0  0  0
 51 61  1  0  0  0  0
 52 51  2  0  0  0  0
 54 41  1  0  0  0  0
 55 43  1  0  0  0  0
 57 46  1  0  0  0  0
 58 46  1  0  0  0  0
 60 48  1  0  0  0  0
 62 52  1  0  0  0  0
M  END
$$$$
