FKA.pdb
 OpenBabel07022419003D

 53 53  0  0  1  0  0  0  0  0999 V2000
    2.7070   -4.5780    2.2600 N   0  0  0  0  0  0  0  0  0  0  0  0
    2.6710   -3.1960    1.7030 C   0  0  1  0  0  0  0  0  0  0  0  0
    3.2270   -3.3420    0.3260 C   0  0  0  0  0  0  0  0  0  0  0  0
    3.3220   -2.1240   -0.4800 C   0  0  0  0  0  0  0  0  0  0  0  0
    2.3280   -1.7330   -1.3320 C   0  0  0  0  0  0  0  0  0  0  0  0
    2.4450   -0.6010   -2.0820 C   0  0  0  0  0  0  0  0  0  0  0  0
    3.5720    0.1920   -2.0070 C   0  0  0  0  0  0  0  0  0  0  0  0
    4.5670   -0.2150   -1.1420 C   0  0  0  0  0  0  0  0  0  0  0  0
    4.4610   -1.3570   -0.3790 C   0  0  0  0  0  0  0  0  0  0  0  0
    1.2670   -2.7820    1.7900 C   0  0  0  0  0  0  0  0  0  0  0  0
    0.3420   -3.6540    2.0190 O   0  0  0  0  0  0  0  0  0  0  0  0
    2.3550   -5.1890    1.4870 H   0  0  0  0  0  0  0  0  0  0  0  0
    2.0020   -4.6540    3.0410 H   0  0  0  0  0  0  0  0  0  0  0  0
    3.3550   -2.6220    2.3560 H   0  0  0  0  0  0  0  0  0  0  0  0
    2.6290   -4.1020   -0.2390 H   0  0  0  0  0  0  0  0  0  0  0  0
    4.2460   -3.8300    0.4000 H   0  0  0  0  0  0  0  0  0  0  0  0
    1.4410   -2.3380   -1.4060 H   0  0  0  0  0  0  0  0  0  0  0  0
    1.6690   -0.2650   -2.7700 H   0  0  0  0  0  0  0  0  0  0  0  0
    3.6530    1.0980   -2.6130 H   0  0  0  0  0  0  0  0  0  0  0  0
    5.4650    0.3910   -1.0630 H   0  0  0  0  0  0  0  0  0  0  0  0
    5.2820   -1.6480    0.3010 H   0  0  0  0  0  0  0  0  0  0  0  0
    0.9030   -1.4300    1.6320 N   0  0  0  0  0  0  0  0  0  0  0  0
   -0.6040   -1.0860    1.7520 C   0  0  1  0  0  0  0  0  0  0  0  0
   -0.6420   -0.2700    2.9820 C   0  0  0  0  0  0  0  0  0  0  0  0
   -1.8360    0.1890    3.6630 C   0  0  0  0  0  0  0  0  0  0  0  0
   -2.9780    0.8340    2.9950 C   0  0  0  0  0  0  0  0  0  0  0  0
   -3.8080   -0.2100    2.2240 C   0  0  0  0  0  0  0  0  0  0  0  0
   -4.8720    0.3830    1.5010 N   0  0  0  0  0  0  0  0  0  0  0  0
   -0.7290   -0.2880    0.5000 C   0  0  0  0  0  0  0  0  0  0  0  0
    0.3720    0.3360    0.1840 O   0  0  0  0  0  0  0  0  0  0  0  0
    1.5370   -0.6610    1.4490 H   0  0  0  0  0  0  0  0  0  0  0  0
   -1.0970   -2.0110    1.7910 H   0  0  0  0  0  0  0  0  0  0  0  0
   -0.0840   -0.9310    3.7670 H   0  0  0  0  0  0  0  0  0  0  0  0
    0.1490    0.5740    2.9140 H   0  0  0  0  0  0  0  0  0  0  0  0
   -2.2950   -0.7100    4.2510 H   0  0  0  0  0  0  0  0  0  0  0  0
   -1.5490    0.8360    4.5910 H   0  0  0  0  0  0  0  0  0  0  0  0
   -3.6680    1.2230    3.7730 H   0  0  0  0  0  0  0  0  0  0  0  0
   -2.7260    1.6850    2.3480 H   0  0  0  0  0  0  0  0  0  0  0  0
   -4.3750   -0.8150    3.0650 H   0  0  0  0  0  0  0  0  0  0  0  0
   -3.2460   -0.9740    1.7430 H   0  0  0  0  0  0  0  0  0  0  0  0
   -4.9150    1.4080    1.5310 H   0  0  0  0  0  0  0  0  0  0  0  0
   -4.9550    0.0490    0.5190 H   0  0  0  0  0  0  0  0  0  0  0  0
   -1.8260   -0.0180   -2.8340 C   0  0  0  0  0  0  0  0  0  0  0  0
   -1.6130    0.7620   -1.5550 C   0  0  2  0  0  0  0  0  0  0  0  0
   -1.7580   -0.0880   -0.3820 N   0  0  0  0  0  0  0  0  0  0  0  0
   -2.5620    1.8940   -1.5790 C   0  0  0  0  0  0  0  0  0  0  0  0
   -3.3830    2.0690   -0.6550 O   0  0  0  0  0  0  0  0  0  0  0  0
   -2.5220    2.7630   -2.6540 O   0  0  0  0  0  0  0  0  0  0  0  0
   -0.9350   -0.6610   -3.0080 H   0  0  0  0  0  0  0  0  0  0  0  0
   -1.8300    0.7280   -3.6610 H   0  0  0  0  0  0  0  0  0  0  0  0
   -2.7770   -0.5500   -2.8750 H   0  0  0  0  0  0  0  0  0  0  0  0
   -0.5650    1.1130   -1.5810 H   0  0  0  0  0  0  0  0  0  0  0  0
   -2.6670   -0.5420   -0.2940 H   0  0  0  0  0  0  0  0  0  0  0  0
  1 13  1  0  0  0  0
  2 10  1  0  0  0  0
  2  1  1  0  0  0  0
  2 14  1  1  0  0  0
  3 16  1  0  0  0  0
  3  2  1  0  0  0  0
  4  9  1  0  0  0  0
  4  3  1  0  0  0  0
  5  4  2  0  0  0  0
  6  7  2  0  0  0  0
  6  5  1  0  0  0  0
  7  8  1  0  0  0  0
  8 20  1  0  0  0  0
  8  9  2  0  0  0  0
  9 21  1  0  0  0  0
 10 11  2  0  0  0  0
 12  1  1  0  0  0  0
 15  3  1  0  0  0  0
 17  5  1  0  0  0  0
 18  6  1  0  0  0  0
 19  7  1  0  0  0  0
 22 23  1  0  0  0  0
 22 10  1  0  0  0  0
 23 32  1  1  0  0  0
 23 24  1  0  0  0  0
 24 25  1  0  0  0  0
 24 33  1  0  0  0  0
 25 35  1  0  0  0  0
 25 36  1  0  0  0  0
 26 25  1  0  0  0  0
 26 37  1  0  0  0  0
 27 26  1  0  0  0  0
 27 39  1  0  0  0  0
 28 41  1  0  0  0  0
 28 27  1  0  0  0  0
 29 23  1  0  0  0  0
 30 29  2  0  0  0  0
 31 22  1  0  0  0  0
 34 24  1  0  0  0  0
 38 26  1  0  0  0  0
 40 27  1  0  0  0  0
 42 28  1  0  0  0  0
 43 44  1  0  0  0  0
 44 52  1  6  0  0  0
 44 45  1  0  0  0  0
 45 53  1  0  0  0  0
 45 29  1  0  0  0  0
 46 44  1  0  0  0  0
 46 47  1  0  0  0  0
 48 46  2  0  0  0  0
 49 43  1  0  0  0  0
 50 43  1  0  0  0  0
 51 43  1  0  0  0  0
M  END
$$$$
