FKC.pdb
 OpenBabel07022419003D

 54 54  0  0  1  0  0  0  0  0999 V2000
    2.4530   -1.5770    0.4850 N   0  0  0  0  0  0  0  0  0  0  0  0
    2.3790   -0.1870    0.8100 C   0  0  1  0  0  0  0  0  0  0  0  0
    3.2640    0.5610   -0.1960 C   0  0  0  0  0  0  0  0  0  0  0  0
    4.6420    0.0270   -0.0350 C   0  0  0  0  0  0  0  0  0  0  0  0
    5.4620    0.6620    0.8810 C   0  0  0  0  0  0  0  0  0  0  0  0
    6.7470    0.1850    1.0500 C   0  0  0  0  0  0  0  0  0  0  0  0
    7.2110   -0.8860    0.3380 C   0  0  0  0  0  0  0  0  0  0  0  0
    6.3740   -1.5060   -0.5740 C   0  0  0  0  0  0  0  0  0  0  0  0
    5.1040   -1.0530   -0.7550 C   0  0  0  0  0  0  0  0  0  0  0  0
    0.9860    0.3340    0.7830 C   0  0  0  0  0  0  0  0  0  0  0  0
    0.7510    1.5420    1.0470 O   0  0  0  0  0  0  0  0  0  0  0  0
    1.9500   -1.8420   -0.3890 H   0  0  0  0  0  0  0  0  0  0  0  0
    2.0140   -2.1220    1.2620 H   0  0  0  0  0  0  0  0  0  0  0  0
    2.7630   -0.0460    1.8350 H   0  0  0  0  0  0  0  0  0  0  0  0
    3.2550    1.6370    0.0260 H   0  0  0  0  0  0  0  0  0  0  0  0
    2.9550    0.3410   -1.2290 H   0  0  0  0  0  0  0  0  0  0  0  0
    5.1130    1.5120    1.4540 H   0  0  0  0  0  0  0  0  0  0  0  0
    7.3660    0.7080    1.7780 H   0  0  0  0  0  0  0  0  0  0  0  0
    8.2300   -1.2370    0.4950 H   0  0  0  0  0  0  0  0  0  0  0  0
    6.7930   -2.3470   -1.1070 H   0  0  0  0  0  0  0  0  0  0  0  0
    4.4460   -1.5240   -1.4570 H   0  0  0  0  0  0  0  0  0  0  0  0
   -0.1300   -0.4850    0.4660 N   0  0  0  0  0  0  0  0  0  0  0  0
   -1.4970    0.0680    0.4500 C   0  0  1  0  0  0  0  0  0  0  0  0
   -2.0980   -0.0270   -0.9030 C   0  0  0  0  0  0  0  0  0  0  0  0
   -3.4880    0.5410   -0.9260 C   0  0  0  0  0  0  0  0  0  0  0  0
   -4.0660    0.4570   -2.3370 C   0  0  0  0  0  0  0  0  0  0  0  0
   -5.4740    1.0370   -2.3410 C   0  0  0  0  0  0  0  0  0  0  0  0
   -6.0580    0.9790   -3.6460 N   0  0  0  0  0  0  0  0  0  0  0  0
   -2.3000   -0.5460    1.5310 C   0  0  0  0  0  0  0  0  0  0  0  0
   -3.4850   -0.2390    1.8080 O   0  0  0  0  0  0  0  0  0  0  0  0
    0.0430   -1.4900    0.2450 H   0  0  0  0  0  0  0  0  0  0  0  0
   -1.3900    1.1390    0.7180 H   0  0  0  0  0  0  0  0  0  0  0  0
   -2.1580   -1.0960   -1.2600 H   0  0  0  0  0  0  0  0  0  0  0  0
   -1.4970    0.5540   -1.6300 H   0  0  0  0  0  0  0  0  0  0  0  0
   -4.2160   -0.0600   -0.3030 H   0  0  0  0  0  0  0  0  0  0  0  0
   -3.5470    1.5750   -0.5390 H   0  0  0  0  0  0  0  0  0  0  0  0
   -3.4390    1.0900   -2.9910 H   0  0  0  0  0  0  0  0  0  0  0  0
   -4.0660   -0.5710   -2.7030 H   0  0  0  0  0  0  0  0  0  0  0  0
   -6.1330    0.4420   -1.6570 H   0  0  0  0  0  0  0  0  0  0  0  0
   -5.4620    2.0610   -1.9320 H   0  0  0  0  0  0  0  0  0  0  0  0
   -5.4140    0.6490   -4.3870 H   0  0  0  0  0  0  0  0  0  0  0  0
   -6.9720    0.5180   -3.6980 H   0  0  0  0  0  0  0  0  0  0  0  0
   -1.6920   -1.5690    2.3280 N   0  0  0  0  0  0  0  0  0  0  0  0
   -2.3880   -2.2350    3.4080 C   0  0  1  0  0  0  0  0  0  0  0  0
   -2.4330   -3.7190    3.0480 C   0  0  0  0  0  0  0  0  0  0  0  0
   -0.7410   -4.3250    2.8860 S   0  0  0  0  0  0  0  0  0  0  0  0
   -1.6380   -2.1100    4.6590 C   0  0  0  0  0  0  0  0  0  0  0  0
   -2.0550   -2.6120    5.7230 O   0  0  0  0  0  0  0  0  0  0  0  0
   -0.4360   -1.4230    4.6790 O   0  0  0  0  0  0  0  0  0  0  0  0
   -0.7180   -1.8510    2.1310 H   0  0  0  0  0  0  0  0  0  0  0  0
   -3.4160   -1.8260    3.4950 H   0  0  0  0  0  0  0  0  0  0  0  0
   -2.9410   -3.8750    2.0750 H   0  0  0  0  0  0  0  0  0  0  0  0
   -2.9100   -4.2300    3.8920 H   0  0  0  0  0  0  0  0  0  0  0  0
   -0.0950   -3.7870    1.7600 H   0  0  0  0  0  0  0  0  0  0  0  0
  1  2  1  0  0  0  0
  1 13  1  0  0  0  0
  2 14  1  1  0  0  0
  3  4  1  0  0  0  0
  3 15  1  0  0  0  0
  3  2  1  0  0  0  0
  4  5  1  0  0  0  0
  5  6  2  0  0  0  0
  5 17  1  0  0  0  0
  6 18  1  0  0  0  0
  7 19  1  0  0  0  0
  7  6  1  0  0  0  0
  8  7  2  0  0  0  0
  9  8  1  0  0  0  0
  9  4  2  0  0  0  0
 10  2  1  0  0  0  0
 10 11  2  0  0  0  0
 12  1  1  0  0  0  0
 16  3  1  0  0  0  0
 20  8  1  0  0  0  0
 21  9  1  0  0  0  0
 22 10  1  0  0  0  0
 23 22  1  0  0  0  0
 23 32  1  1  0  0  0
 23 29  1  0  0  0  0
 24 23  1  0  0  0  0
 25 24  1  0  0  0  0
 25 36  1  0  0  0  0
 25 35  1  0  0  0  0
 26 25  1  0  0  0  0
 27 26  1  0  0  0  0
 27 40  1  0  0  0  0
 27 39  1  0  0  0  0
 28 27  1  0  0  0  0
 29 30  2  0  0  0  0
 29 43  1  0  0  0  0
 31 22  1  0  0  0  0
 33 24  1  0  0  0  0
 34 24  1  0  0  0  0
 37 26  1  0  0  0  0
 38 26  1  0  0  0  0
 41 28  1  0  0  0  0
 42 28  1  0  0  0  0
 43 44  1  0  0  0  0
 44 51  1  1  0  0  0
 44 47  1  0  0  0  0
 45 44  1  0  0  0  0
 45 53  1  0  0  0  0
 46 45  1  0  0  0  0
 47 49  2  0  0  0  0
 47 48  1  0  0  0  0
 50 43  1  0  0  0  0
 52 45  1  0  0  0  0
 54 46  1  0  0  0  0
M  END
$$$$
