FKE.pdb
 OpenBabel07022419003D

 59 59  0  0  1  0  0  0  0  0999 V2000
    1.6390   -0.0190   -1.1370 N   0  0  0  0  0  0  0  0  0  0  0  0
    1.9520    0.6570    0.1340 C   0  0  1  0  0  0  0  0  0  0  0  0
    2.1380    2.1160   -0.0990 C   0  0  0  0  0  0  0  0  0  0  0  0
    2.4520    2.7970    1.1730 C   0  0  0  0  0  0  0  0  0  0  0  0
    3.7780    2.9080    1.6040 C   0  0  0  0  0  0  0  0  0  0  0  0
    4.1100    3.5440    2.7760 C   0  0  0  0  0  0  0  0  0  0  0  0
    3.1420    4.1000    3.5760 C   0  0  0  0  0  0  0  0  0  0  0  0
    1.8330    3.9950    3.1570 C   0  0  0  0  0  0  0  0  0  0  0  0
    1.5000    3.3640    1.9950 C   0  0  0  0  0  0  0  0  0  0  0  0
    0.9720    0.2940    1.1660 C   0  0  0  0  0  0  0  0  0  0  0  0
    1.0830    0.7000    2.3550 O   0  0  0  0  0  0  0  0  0  0  0  0
    1.2120    0.7340   -1.7510 H   0  0  0  0  0  0  0  0  0  0  0  0
    2.5240   -0.2790   -1.6180 H   0  0  0  0  0  0  0  0  0  0  0  0
    2.9550    0.2430    0.4370 H   0  0  0  0  0  0  0  0  0  0  0  0
    1.2600    2.6090   -0.5640 H   0  0  0  0  0  0  0  0  0  0  0  0
    2.9700    2.2270   -0.8360 H   0  0  0  0  0  0  0  0  0  0  0  0
    4.5250    2.4550    0.9470 H   0  0  0  0  0  0  0  0  0  0  0  0
    5.1360    3.6150    3.0840 H   0  0  0  0  0  0  0  0  0  0  0  0
    3.3810    4.6120    4.5140 H   0  0  0  0  0  0  0  0  0  0  0  0
    1.0620    4.4360    3.7920 H   0  0  0  0  0  0  0  0  0  0  0  0
    0.4480    3.2880    1.6740 H   0  0  0  0  0  0  0  0  0  0  0  0
   -0.1310   -0.5410    0.7980 N   0  0  0  0  0  0  0  0  0  0  0  0
   -1.1180   -0.9390    1.7210 C   0  0  1  0  0  0  0  0  0  0  0  0
   -2.3370   -0.1340    1.9010 C   0  0  0  0  0  0  0  0  0  0  0  0
   -3.3230    0.1720    0.8930 C   0  0  0  0  0  0  0  0  0  0  0  0
   -3.1300    1.0270   -0.2820 C   0  0  0  0  0  0  0  0  0  0  0  0
   -2.1410    0.7390   -1.3300 C   0  0  0  0  0  0  0  0  0  0  0  0
   -2.2870   -0.5490   -1.9540 N   0  0  0  0  0  0  0  0  0  0  0  0
   -1.4020   -2.4110    1.6720 C   0  0  0  0  0  0  0  0  0  0  0  0
   -2.2640   -2.8860    2.4320 O   0  0  0  0  0  0  0  0  0  0  0  0
   -0.1560   -0.8800   -0.1930 H   0  0  0  0  0  0  0  0  0  0  0  0
   -0.5830   -0.8220    2.7610 H   0  0  0  0  0  0  0  0  0  0  0  0
   -2.8500   -0.4630    2.8950 H   0  0  0  0  0  0  0  0  0  0  0  0
   -1.9300    0.9060    2.2570 H   0  0  0  0  0  0  0  0  0  0  0  0
   -4.2120    0.6670    1.4730 H   0  0  0  0  0  0  0  0  0  0  0  0
   -3.8920   -0.7920    0.5670 H   0  0  0  0  0  0  0  0  0  0  0  0
   -2.9150    2.0800    0.1120 H   0  0  0  0  0  0  0  0  0  0  0  0
   -4.1400    1.1650   -0.8390 H   0  0  0  0  0  0  0  0  0  0  0  0
   -2.4160    1.4850   -2.1990 H   0  0  0  0  0  0  0  0  0  0  0  0
   -1.0990    0.9700   -1.1530 H   0  0  0  0  0  0  0  0  0  0  0  0
   -2.8360   -1.1800   -1.2990 H   0  0  0  0  0  0  0  0  0  0  0  0
   -2.7290   -0.5240   -2.8980 H   0  0  0  0  0  0  0  0  0  0  0  0
   -0.7250   -3.2630    0.7960 N   0  0  0  0  0  0  0  0  0  0  0  0
   -0.9300   -4.6930    0.6760 C   0  0  1  0  0  0  0  0  0  0  0  0
   -1.5680   -5.0830   -0.6040 C   0  0  0  0  0  0  0  0  0  0  0  0
   -0.9080   -4.7120   -1.8680 C   0  0  0  0  0  0  0  0  0  0  0  0
    0.4140   -5.1880   -2.1720 C   0  0  0  0  0  0  0  0  0  0  0  0
    1.0850   -5.9290   -1.4480 O   0  0  0  0  0  0  0  0  0  0  0  0
    0.1820   -5.5240    1.1310 C   0  0  0  0  0  0  0  0  0  0  0  0
    1.2740   -5.0380    1.4960 O   0  0  0  0  0  0  0  0  0  0  0  0
    0.9920   -4.7850   -3.3800 O   0  0  0  0  0  0  0  0  0  0  0  0
    0.0310   -6.8980    1.1670 O   0  0  0  0  0  0  0  0  0  0  0  0
    0.0030   -2.8630    0.1560 H   0  0  0  0  0  0  0  0  0  0  0  0
   -1.7540   -4.8900    1.4640 H   0  0  0  0  0  0  0  0  0  0  0  0
   -2.5840   -4.5840   -0.6150 H   0  0  0  0  0  0  0  0  0  0  0  0
   -1.8140   -6.1700   -0.5410 H   0  0  0  0  0  0  0  0  0  0  0  0
   -1.5950   -5.1040   -2.6960 H   0  0  0  0  0  0  0  0  0  0  0  0
   -1.0160   -3.5980   -2.0030 H   0  0  0  0  0  0  0  0  0  0  0  0
    1.9690   -4.9900   -3.5540 H   0  0  0  0  0  0  0  0  0  0  0  0
  1  2  1  0  0  0  0
  2 14  1  1  0  0  0
  2 10  1  0  0  0  0
  3  2  1  0  0  0  0
  3  4  1  0  0  0  0
  4  5  2  0  0  0  0
  4  9  1  0  0  0  0
  5  6  1  0  0  0  0
  6 18  1  0  0  0  0
  6  7  2  0  0  0  0
  7 19  1  0  0  0  0
  8  7  1  0  0  0  0
  8 20  1  0  0  0  0
  9  8  2  0  0  0  0
 10 11  2  0  0  0  0
 12  1  1  0  0  0  0
 13  1  1  0  0  0  0
 15  3  1  0  0  0  0
 16  3  1  0  0  0  0
 17  5  1  0  0  0  0
 21  9  1  0  0  0  0
 22 10  1  0  0  0  0
 22 23  1  0  0  0  0
 23 24  1  0  0  0  0
 23 32  1  1  0  0  0
 24 34  1  0  0  0  0
 24 33  1  0  0  0  0
 25 35  1  0  0  0  0
 25 24  1  0  0  0  0
 26 37  1  0  0  0  0
 26 25  1  0  0  0  0
 27 40  1  0  0  0  0
 27 26  1  0  0  0  0
 28 27  1  0  0  0  0
 28 41  1  0  0  0  0
 29 23  1  0  0  0  0
 29 30  2  0  0  0  0
 31 22  1  0  0  0  0
 36 25  1  0  0  0  0
 38 26  1  0  0  0  0
 39 27  1  0  0  0  0
 42 28  1  0  0  0  0
 43 29  1  0  0  0  0
 44 43  1  0  0  0  0
 44 49  1  0  0  0  0
 44 54  1  1  0  0  0
 45 56  1  0  0  0  0
 45 44  1  0  0  0  0
 46 45  1  0  0  0  0
 47 46  1  0  0  0  0
 47 48  2  0  0  0  0
 49 52  2  0  0  0  0
 49 50  1  0  0  0  0
 51 47  1  0  0  0  0
 53 43  1  0  0  0  0
 55 45  1  0  0  0  0
 57 46  1  0  0  0  0
 58 46  1  0  0  0  0
 59 51  1  0  0  0  0
M  END
$$$$
