FKF.pdb
 OpenBabel07022419003D

 63 64  0  0  1  0  0  0  0  0999 V2000
    5.0390    0.8010   -1.5290 N   0  0  0  0  0  0  0  0  0  0  0  0
    3.9350   -0.1140   -1.3480 C   0  0  1  0  0  0  0  0  0  0  0  0
    4.2210   -1.1090   -0.2750 C   0  0  0  0  0  0  0  0  0  0  0  0
    4.4970   -0.5400    1.0520 C   0  0  0  0  0  0  0  0  0  0  0  0
    3.4670   -0.3230    1.9400 C   0  0  0  0  0  0  0  0  0  0  0  0
    3.6690    0.2110    3.2130 C   0  0  0  0  0  0  0  0  0  0  0  0
    4.9490    0.5390    3.6130 C   0  0  0  0  0  0  0  0  0  0  0  0
    5.9780    0.3200    2.7200 C   0  0  0  0  0  0  0  0  0  0  0  0
    5.7660   -0.2020    1.4800 C   0  0  0  0  0  0  0  0  0  0  0  0
    2.6200    0.5510   -1.2340 C   0  0  0  0  0  0  0  0  0  0  0  0
    2.4850    1.8060   -1.1690 O   0  0  0  0  0  0  0  0  0  0  0  0
    5.8890    0.2140   -1.6870 H   0  0  0  0  0  0  0  0  0  0  0  0
    4.9210    1.3520   -2.4200 H   0  0  0  0  0  0  0  0  0  0  0  0
    3.9020   -0.7100   -2.3130 H   0  0  0  0  0  0  0  0  0  0  0  0
    3.3840   -1.8260   -0.1630 H   0  0  0  0  0  0  0  0  0  0  0  0
    5.1220   -1.6900   -0.5940 H   0  0  0  0  0  0  0  0  0  0  0  0
    2.4380   -0.5610    1.6840 H   0  0  0  0  0  0  0  0  0  0  0  0
    2.8500    0.3760    3.8990 H   0  0  0  0  0  0  0  0  0  0  0  0
    5.1200    0.9530    4.5960 H   0  0  0  0  0  0  0  0  0  0  0  0
    6.9740    0.5800    3.0430 H   0  0  0  0  0  0  0  0  0  0  0  0
    6.5660   -0.3750    0.7800 H   0  0  0  0  0  0  0  0  0  0  0  0
    1.4270   -0.2090   -1.1930 N   0  0  0  0  0  0  0  0  0  0  0  0
    0.0980    0.4520   -1.0860 C   0  0  1  0  0  0  0  0  0  0  0  0
   -0.6690    0.1290   -2.3600 C   0  0  0  0  0  0  0  0  0  0  0  0
   -2.0230    0.7030   -2.4180 C   0  0  0  0  0  0  0  0  0  0  0  0
   -2.6350    0.3360   -3.7850 C   0  0  0  0  0  0  0  0  0  0  0  0
   -2.7340   -1.1370   -3.9830 C   0  0  0  0  0  0  0  0  0  0  0  0
   -3.3330   -1.3770   -5.2880 N   0  0  0  0  0  0  0  0  0  0  0  0
   -0.5280   -0.0900    0.1270 C   0  0  0  0  0  0  0  0  0  0  0  0
   -0.0130   -1.1100    0.6700 O   0  0  0  0  0  0  0  0  0  0  0  0
    1.5010   -1.2460   -1.2410 H   0  0  0  0  0  0  0  0  0  0  0  0
    0.2330    1.5350   -0.9640 H   0  0  0  0  0  0  0  0  0  0  0  0
   -0.0890    0.4660   -3.2290 H   0  0  0  0  0  0  0  0  0  0  0  0
   -0.6920   -0.9910   -2.4330 H   0  0  0  0  0  0  0  0  0  0  0  0
   -2.7110    0.3240   -1.6200 H   0  0  0  0  0  0  0  0  0  0  0  0
   -1.9980    1.8040   -2.3640 H   0  0  0  0  0  0  0  0  0  0  0  0
   -1.9070    0.7380   -4.5510 H   0  0  0  0  0  0  0  0  0  0  0  0
   -3.5860    0.8390   -3.9460 H   0  0  0  0  0  0  0  0  0  0  0  0
   -3.3170   -1.5920   -3.1590 H   0  0  0  0  0  0  0  0  0  0  0  0
   -1.7180   -1.6170   -4.0290 H   0  0  0  0  0  0  0  0  0  0  0  0
   -4.1520   -0.7090   -5.4180 H   0  0  0  0  0  0  0  0  0  0  0  0
   -3.7670   -2.3330   -5.3390 H   0  0  0  0  0  0  0  0  0  0  0  0
   -1.6790    0.4230    0.7770 N   0  0  0  0  0  0  0  0  0  0  0  0
   -2.2800   -0.1280    1.9780 C   0  0  1  0  0  0  0  0  0  0  0  0
   -3.0630   -1.3370    1.6230 C   0  0  0  0  0  0  0  0  0  0  0  0
   -3.7430   -2.0320    2.7100 C   0  0  0  0  0  0  0  0  0  0  0  0
   -5.0200   -1.7320    3.1490 C   0  0  0  0  0  0  0  0  0  0  0  0
   -5.6280   -2.4270    4.1750 C   0  0  0  0  0  0  0  0  0  0  0  0
   -4.9760   -3.4630    4.8130 C   0  0  0  0  0  0  0  0  0  0  0  0
   -3.7030   -3.7740    4.3870 C   0  0  0  0  0  0  0  0  0  0  0  0
   -3.1020   -3.0700    3.3550 C   0  0  0  0  0  0  0  0  0  0  0  0
   -1.3310   -0.3680    3.0710 C   0  0  0  0  0  0  0  0  0  0  0  0
   -1.7550   -0.8510    4.1490 O   0  0  0  0  0  0  0  0  0  0  0  0
    0.0290   -0.1040    3.0300 O   0  0  0  0  0  0  0  0  0  0  0  0
   -2.0970    1.2780    0.3500 H   0  0  0  0  0  0  0  0  0  0  0  0
   -2.9740    0.6750    2.3790 H   0  0  0  0  0  0  0  0  0  0  0  0
   -3.8150   -1.0220    0.8390 H   0  0  0  0  0  0  0  0  0  0  0  0
   -2.3710   -2.0120    1.0440 H   0  0  0  0  0  0  0  0  0  0  0  0
   -5.5700   -0.9210    2.6710 H   0  0  0  0  0  0  0  0  0  0  0  0
   -6.6260   -2.1920    4.5180 H   0  0  0  0  0  0  0  0  0  0  0  0
   -5.4590   -4.0170    5.6300 H   0  0  0  0  0  0  0  0  0  0  0  0
   -3.1700   -4.5810    4.8680 H   0  0  0  0  0  0  0  0  0  0  0  0
   -2.0880   -3.3670    3.0650 H   0  0  0  0  0  0  0  0  0  0  0  0
  1  2  1  0  0  0  0
  2 14  1  6  0  0  0
  2 10  1  0  0  0  0
  2  3  1  0  0  0  0
  3 15  1  0  0  0  0
  3  4  1  0  0  0  0
  4  9  2  0  0  0  0
  4  5  1  0  0  0  0
  5  6  2  0  0  0  0
  6  7  1  0  0  0  0
  6 18  1  0  0  0  0
  7 19  1  0  0  0  0
  8 20  1  0  0  0  0
  8  7  2  0  0  0  0
  9  8  1  0  0  0  0
 10 22  1  0  0  0  0
 10 11  2  0  0  0  0
 12  1  1  0  0  0  0
 13  1  1  0  0  0  0
 16  3  1  0  0  0  0
 17  5  1  0  0  0  0
 21  9  1  0  0  0  0
 22 23  1  0  0  0  0
 23 32  1  1  0  0  0
 23 29  1  0  0  0  0
 24 23  1  0  0  0  0
 25 36  1  0  0  0  0
 25 24  1  0  0  0  0
 25 35  1  0  0  0  0
 26 25  1  0  0  0  0
 27 26  1  0  0  0  0
 27 39  1  0  0  0  0
 28 27  1  0  0  0  0
 29 30  2  0  0  0  0
 29 43  1  0  0  0  0
 31 22  1  0  0  0  0
 33 24  1  0  0  0  0
 34 24  1  0  0  0  0
 37 26  1  0  0  0  0
 38 26  1  0  0  0  0
 40 27  1  0  0  0  0
 41 28  1  0  0  0  0
 42 28  1  0  0  0  0
 43 44  1  0  0  0  0
 44 56  1  1  0  0  0
 44 52  1  0  0  0  0
 45 44  1  0  0  0  0
 45 46  1  0  0  0  0
 46 47  2  0  0  0  0
 46 51  1  0  0  0  0
 47 48  1  0  0  0  0
 48 60  1  0  0  0  0
 48 49  2  0  0  0  0
 49 61  1  0  0  0  0
 50 49  1  0  0  0  0
 50 62  1  0  0  0  0
 51 50  2  0  0  0  0
 52 53  1  0  0  0  0
 54 52  2  0  0  0  0
 55 43  1  0  0  0  0
 57 45  1  0  0  0  0
 58 45  1  0  0  0  0
 59 47  1  0  0  0  0
 63 51  1  0  0  0  0
M  END
$$$$
