FKG.pdb
 OpenBabel07022419003D

 50 50  0  0  1  0  0  0  0  0999 V2000
    2.9230   -2.7810    2.7110 N   0  0  0  0  0  0  0  0  0  0  0  0
    2.3440   -1.5540    2.1020 C   0  0  1  0  0  0  0  0  0  0  0  0
    3.3780   -1.0770    1.1400 C   0  0  0  0  0  0  0  0  0  0  0  0
    3.0600    0.1440    0.3990 C   0  0  0  0  0  0  0  0  0  0  0  0
    2.5380    0.1020   -0.8710 C   0  0  0  0  0  0  0  0  0  0  0  0
    2.2460    1.2870   -1.5150 C   0  0  0  0  0  0  0  0  0  0  0  0
    2.4880    2.4940   -0.8670 C   0  0  0  0  0  0  0  0  0  0  0  0
    3.0150    2.5310    0.4100 C   0  0  0  0  0  0  0  0  0  0  0  0
    3.3000    1.3610    1.0430 C   0  0  0  0  0  0  0  0  0  0  0  0
    1.0430   -1.9370    1.5750 C   0  0  0  0  0  0  0  0  0  0  0  0
    0.7270   -3.1810    1.5870 O   0  0  0  0  0  0  0  0  0  0  0  0
    2.1590   -3.3450    3.1610 H   0  0  0  0  0  0  0  0  0  0  0  0
    3.3270   -3.3850    1.9620 H   0  0  0  0  0  0  0  0  0  0  0  0
    2.2540   -0.7890    2.9350 H   0  0  0  0  0  0  0  0  0  0  0  0
    4.3470   -0.9060    1.7070 H   0  0  0  0  0  0  0  0  0  0  0  0
    3.6830   -1.9060    0.4220 H   0  0  0  0  0  0  0  0  0  0  0  0
    2.3550   -0.8570   -1.3840 H   0  0  0  0  0  0  0  0  0  0  0  0
    1.8300    1.3110   -2.5220 H   0  0  0  0  0  0  0  0  0  0  0  0
    2.2620    3.4270   -1.3670 H   0  0  0  0  0  0  0  0  0  0  0  0
    3.2100    3.4550    0.9310 H   0  0  0  0  0  0  0  0  0  0  0  0
    3.7120    1.3790    2.0410 H   0  0  0  0  0  0  0  0  0  0  0  0
    0.0690   -1.0130    1.0430 N   0  0  0  0  0  0  0  0  0  0  0  0
   -1.2060   -1.4910    0.5790 C   0  0  1  0  0  0  0  0  0  0  0  0
   -2.3970   -0.8220    1.1720 C   0  0  0  0  0  0  0  0  0  0  0  0
   -2.5930   -0.8860    2.6230 C   0  0  0  0  0  0  0  0  0  0  0  0
   -1.5970   -0.2940    3.5280 C   0  0  0  0  0  0  0  0  0  0  0  0
   -1.3770    1.1900    3.3490 C   0  0  0  0  0  0  0  0  0  0  0  0
   -2.6040    1.9320    3.5780 N   0  0  0  0  0  0  0  0  0  0  0  0
   -1.2750   -1.4670   -0.9200 C   0  0  0  0  0  0  0  0  0  0  0  0
   -0.3320   -1.0560   -1.5970 O   0  0  0  0  0  0  0  0  0  0  0  0
    0.3670   -0.0160    1.0290 H   0  0  0  0  0  0  0  0  0  0  0  0
   -1.2520   -2.6020    0.8230 H   0  0  0  0  0  0  0  0  0  0  0  0
   -2.4910    0.2260    0.8020 H   0  0  0  0  0  0  0  0  0  0  0  0
   -3.2950   -1.3280    0.6970 H   0  0  0  0  0  0  0  0  0  0  0  0
   -3.6090   -0.4830    2.9250 H   0  0  0  0  0  0  0  0  0  0  0  0
   -2.6910   -1.9830    2.9020 H   0  0  0  0  0  0  0  0  0  0  0  0
   -0.6090   -0.7810    3.5530 H   0  0  0  0  0  0  0  0  0  0  0  0
   -1.9580   -0.3840    4.6040 H   0  0  0  0  0  0  0  0  0  0  0  0
   -0.8870    1.4680    2.4040 H   0  0  0  0  0  0  0  0  0  0  0  0
   -0.6780    1.4990    4.1650 H   0  0  0  0  0  0  0  0  0  0  0  0
   -2.9620    2.4000    2.7260 H   0  0  0  0  0  0  0  0  0  0  0  0
   -3.3170    1.3650    4.0860 H   0  0  0  0  0  0  0  0  0  0  0  0
   -2.4280   -1.9160   -1.6180 N   0  0  0  0  0  0  0  0  0  0  0  0
   -2.5120   -1.9000   -3.0640 C   0  0  0  0  0  0  0  0  0  0  0  0
   -1.4310   -2.7490   -3.6080 C   0  0  0  0  0  0  0  0  0  0  0  0
   -1.3210   -2.8750   -4.8450 O   0  0  0  0  0  0  0  0  0  0  0  0
   -0.5460   -3.4020   -2.7790 O   0  0  0  0  0  0  0  0  0  0  0  0
   -3.2530   -2.2740   -1.1000 H   0  0  0  0  0  0  0  0  0  0  0  0
   -3.4690   -2.3290   -3.4150 H   0  0  0  0  0  0  0  0  0  0  0  0
   -2.4490   -0.8520   -3.4270 H   0  0  0  0  0  0  0  0  0  0  0  0
  1 12  1  0  0  0  0
  2  1  1  0  0  0  0
  2 14  1  1  0  0  0
  3 15  1  0  0  0  0
  3  2  1  0  0  0  0
  4  9  1  0  0  0  0
  4  3  1  0  0  0  0
  5  4  2  0  0  0  0
  6  5  1  0  0  0  0
  6  7  2  0  0  0  0
  7  8  1  0  0  0  0
  8 20  1  0  0  0  0
  8  9  2  0  0  0  0
  9 21  1  0  0  0  0
 10 11  2  0  0  0  0
 10  2  1  0  0  0  0
 13  1  1  0  0  0  0
 16  3  1  0  0  0  0
 17  5  1  0  0  0  0
 18  6  1  0  0  0  0
 19  7  1  0  0  0  0
 22 10  1  0  0  0  0
 23 32  1  1  0  0  0
 23 22  1  0  0  0  0
 23 24  1  0  0  0  0
 24 25  1  0  0  0  0
 25 36  1  0  0  0  0
 25 35  1  0  0  0  0
 25 26  1  0  0  0  0
 26 37  1  0  0  0  0
 26 38  1  0  0  0  0
 27 26  1  0  0  0  0
 27 28  1  0  0  0  0
 27 40  1  0  0  0  0
 28 42  1  0  0  0  0
 29 23  1  0  0  0  0
 30 29  2  0  0  0  0
 31 22  1  0  0  0  0
 33 24  1  0  0  0  0
 34 24  1  0  0  0  0
 39 27  1  0  0  0  0
 41 28  1  0  0  0  0
 43 48  1  0  0  0  0
 43 29  1  0  0  0  0
 44 43  1  0  0  0  0
 45 44  1  0  0  0  0
 45 47  1  0  0  0  0
 46 45  2  0  0  0  0
 49 44  1  0  0  0  0
 50 44  1  0  0  0  0
M  END
$$$$
