FKH.pdb
 OpenBabel07022419003D

 60 61  0  0  1  0  0  0  0  0999 V2000
    1.3480   -0.0210    4.3860 N   0  0  0  0  0  0  0  0  0  0  0  0
    1.1840    0.5340    3.0750 C   0  0  1  0  0  0  0  0  0  0  0  0
    2.4940    0.9390    2.4430 C   0  0  0  0  0  0  0  0  0  0  0  0
    3.1940    1.9640    3.2560 C   0  0  0  0  0  0  0  0  0  0  0  0
    4.0800    1.5710    4.2360 C   0  0  0  0  0  0  0  0  0  0  0  0
    4.7650    2.4690    5.0310 C   0  0  0  0  0  0  0  0  0  0  0  0
    4.5630    3.8380    4.8490 C   0  0  0  0  0  0  0  0  0  0  0  0
    3.6740    4.2150    3.8660 C   0  0  0  0  0  0  0  0  0  0  0  0
    2.9930    3.3260    3.0760 C   0  0  0  0  0  0  0  0  0  0  0  0
    0.4300   -0.4260    2.2520 C   0  0  0  0  0  0  0  0  0  0  0  0
    0.0030   -1.5280    2.6810 O   0  0  0  0  0  0  0  0  0  0  0  0
    1.1870   -1.0720    4.4000 H   0  0  0  0  0  0  0  0  0  0  0  0
    0.6340    0.4010    5.0170 H   0  0  0  0  0  0  0  0  0  0  0  0
    0.5740    1.4560    3.1550 H   0  0  0  0  0  0  0  0  0  0  0  0
    3.1380    0.0240    2.4380 H   0  0  0  0  0  0  0  0  0  0  0  0
    2.3950    1.2590    1.4080 H   0  0  0  0  0  0  0  0  0  0  0  0
    4.2370    0.4950    4.3760 H   0  0  0  0  0  0  0  0  0  0  0  0
    5.4540    2.1640    5.7910 H   0  0  0  0  0  0  0  0  0  0  0  0
    5.0770    4.5690    5.4480 H   0  0  0  0  0  0  0  0  0  0  0  0
    3.4860    5.2700    3.6910 H   0  0  0  0  0  0  0  0  0  0  0  0
    2.2910    3.6110    2.2990 H   0  0  0  0  0  0  0  0  0  0  0  0
    0.1650   -0.1020    0.8980 N   0  0  0  0  0  0  0  0  0  0  0  0
   -0.5550   -0.9190   -0.0390 C   0  0  1  0  0  0  0  0  0  0  0  0
   -1.7280   -0.1780   -0.6110 C   0  0  0  0  0  0  0  0  0  0  0  0
   -2.6950    0.2410    0.4610 C   0  0  0  0  0  0  0  0  0  0  0  0
   -3.2970   -0.8690    1.2450 C   0  0  0  0  0  0  0  0  0  0  0  0
   -4.2680   -0.3680    2.3050 C   0  0  0  0  0  0  0  0  0  0  0  0
   -4.7680   -1.5600    2.9830 N   0  0  0  0  0  0  0  0  0  0  0  0
    0.3140   -1.3300   -1.1850 C   0  0  0  0  0  0  0  0  0  0  0  0
    1.5050   -0.9400   -1.2090 O   0  0  0  0  0  0  0  0  0  0  0  0
    0.5230    0.8240    0.5290 H   0  0  0  0  0  0  0  0  0  0  0  0
   -0.9390   -1.8090    0.4950 H   0  0  0  0  0  0  0  0  0  0  0  0
   -2.2570   -0.8350   -1.3630 H   0  0  0  0  0  0  0  0  0  0  0  0
   -1.3790    0.7540   -1.1300 H   0  0  0  0  0  0  0  0  0  0  0  0
   -3.5200    0.8630    0.0310 H   0  0  0  0  0  0  0  0  0  0  0  0
   -2.1510    0.9030    1.1930 H   0  0  0  0  0  0  0  0  0  0  0  0
   -2.5350   -1.5340    1.6790 H   0  0  0  0  0  0  0  0  0  0  0  0
   -3.9200   -1.5370    0.5790 H   0  0  0  0  0  0  0  0  0  0  0  0
   -5.1200    0.1610    1.8330 H   0  0  0  0  0  0  0  0  0  0  0  0
   -3.8100    0.3070    3.0290 H   0  0  0  0  0  0  0  0  0  0  0  0
   -5.0050   -2.3140    2.3230 H   0  0  0  0  0  0  0  0  0  0  0  0
   -4.0700   -1.9340    3.6610 H   0  0  0  0  0  0  0  0  0  0  0  0
   -0.1240   -2.1400   -2.2580 N   0  0  0  0  0  0  0  0  0  0  0  0
    0.7130   -2.5420   -3.3710 C   0  0  1  0  0  0  0  0  0  0  0  0
    0.8370   -4.0410   -3.4780 C   0  0  0  0  0  0  0  0  0  0  0  0
   -0.5230   -4.6190   -3.6760 C   0  0  0  0  0  0  0  0  0  0  0  0
   -1.3700   -5.0210   -2.6560 C   0  0  0  0  0  0  0  0  0  0  0  0
   -2.4860   -5.4840   -3.2200 N   0  0  0  0  0  0  0  0  0  0  0  0
   -2.3950   -5.3970   -4.5580 C   0  0  0  0  0  0  0  0  0  0  0  0
   -1.1820   -4.8630   -4.8260 N   0  0  0  0  0  0  0  0  0  0  0  0
    0.0820   -2.0130   -4.6090 C   0  0  0  0  0  0  0  0  0  0  0  0
    0.6320   -2.2350   -5.7210 O   0  0  0  0  0  0  0  0  0  0  0  0
   -1.0950   -1.2780   -4.6200 O   0  0  0  0  0  0  0  0  0  0  0  0
   -1.1180   -2.4810   -2.2640 H   0  0  0  0  0  0  0  0  0  0  0  0
    1.7240   -2.1010   -3.2130 H   0  0  0  0  0  0  0  0  0  0  0  0
    1.4450   -4.2850   -4.3720 H   0  0  0  0  0  0  0  0  0  0  0  0
    1.2890   -4.5060   -2.6070 H   0  0  0  0  0  0  0  0  0  0  0  0
   -1.1080   -4.9450   -1.6060 H   0  0  0  0  0  0  0  0  0  0  0  0
   -3.3020   -5.8560   -2.6720 H   0  0  0  0  0  0  0  0  0  0  0  0
   -3.1820   -5.7140   -5.2230 H   0  0  0  0  0  0  0  0  0  0  0  0
  1 12  1  0  0  0  0
  1 13  1  0  0  0  0
  2 14  1  1  0  0  0
  2  1  1  0  0  0  0
  3  2  1  0  0  0  0
  3  4  1  0  0  0  0
  4  5  1  0  0  0  0
  5 17  1  0  0  0  0
  5  6  2  0  0  0  0
  6 18  1  0  0  0  0
  7  6  1  0  0  0  0
  7 19  1  0  0  0  0
  8  7  2  0  0  0  0
  9  4  2  0  0  0  0
  9  8  1  0  0  0  0
 10 11  2  0  0  0  0
 10  2  1  0  0  0  0
 15  3  1  0  0  0  0
 16  3  1  0  0  0  0
 20  8  1  0  0  0  0
 21  9  1  0  0  0  0
 22 10  1  0  0  0  0
 23 32  1  1  0  0  0
 23 22  1  0  0  0  0
 24 23  1  0  0  0  0
 24 25  1  0  0  0  0
 25 36  1  0  0  0  0
 25 26  1  0  0  0  0
 26 37  1  0  0  0  0
 26 27  1  0  0  0  0
 27 28  1  0  0  0  0
 27 40  1  0  0  0  0
 28 42  1  0  0  0  0
 29 23  1  0  0  0  0
 30 29  2  0  0  0  0
 31 22  1  0  0  0  0
 33 24  1  0  0  0  0
 34 24  1  0  0  0  0
 35 25  1  0  0  0  0
 38 26  1  0  0  0  0
 39 27  1  0  0  0  0
 41 28  1  0  0  0  0
 43 29  1  0  0  0  0
 44 55  1  1  0  0  0
 44 43  1  0  0  0  0
 45 44  1  0  0  0  0
 45 57  1  0  0  0  0
 46 45  1  0  0  0  0
 46 47  2  0  0  0  0
 47 58  1  0  0  0  0
 48 59  1  0  0  0  0
 48 47  1  0  0  0  0
 49 48  1  0  0  0  0
 50 49  2  0  0  0  0
 50 46  1  0  0  0  0
 51 44  1  0  0  0  0
 52 51  2  0  0  0  0
 53 51  1  0  0  0  0
 54 43  1  0  0  0  0
 56 45  1  0  0  0  0
 60 49  1  0  0  0  0
M  END
$$$$
