FKK.pdb
 OpenBabel07022419003D

 64 64  0  0  1  0  0  0  0  0999 V2000
    4.0960    1.3830    0.5780 N   0  0  0  0  0  0  0  0  0  0  0  0
    2.9820    1.1550    1.4930 C   0  0  1  0  0  0  0  0  0  0  0  0
    3.0990    2.1350    2.6670 C   0  0  0  0  0  0  0  0  0  0  0  0
    4.3410    1.9330    3.4190 C   0  0  0  0  0  0  0  0  0  0  0  0
    5.5080    2.5360    2.9840 C   0  0  0  0  0  0  0  0  0  0  0  0
    6.7110    2.4130    3.6600 C   0  0  0  0  0  0  0  0  0  0  0  0
    6.7760    1.6640    4.8130 C   0  0  0  0  0  0  0  0  0  0  0  0
    5.6300    1.0480    5.2760 C   0  0  0  0  0  0  0  0  0  0  0  0
    4.4230    1.1800    4.5830 C   0  0  0  0  0  0  0  0  0  0  0  0
    1.7160    1.4550    0.7420 C   0  0  0  0  0  0  0  0  0  0  0  0
    1.6580    2.4800    0.0040 O   0  0  0  0  0  0  0  0  0  0  0  0
    4.5790    0.4970    0.3120 H   0  0  0  0  0  0  0  0  0  0  0  0
    3.7890    1.9200   -0.2480 H   0  0  0  0  0  0  0  0  0  0  0  0
    3.0480    0.1420    1.8740 H   0  0  0  0  0  0  0  0  0  0  0  0
    3.1680    3.1940    2.2420 H   0  0  0  0  0  0  0  0  0  0  0  0
    2.1840    2.1150    3.2920 H   0  0  0  0  0  0  0  0  0  0  0  0
    5.4880    3.1220    2.0790 H   0  0  0  0  0  0  0  0  0  0  0  0
    7.6270    2.8840    3.3200 H   0  0  0  0  0  0  0  0  0  0  0  0
    7.6900    1.5430    5.3770 H   0  0  0  0  0  0  0  0  0  0  0  0
    5.7110    0.4670    6.1920 H   0  0  0  0  0  0  0  0  0  0  0  0
    3.5350    0.6930    4.9540 H   0  0  0  0  0  0  0  0  0  0  0  0
    0.5840    0.6160    0.8380 N   0  0  0  0  0  0  0  0  0  0  0  0
   -0.6910    0.8020    0.1900 C   0  0  1  0  0  0  0  0  0  0  0  0
   -0.4950    0.9540   -1.3320 C   0  0  0  0  0  0  0  0  0  0  0  0
   -1.8300    1.1190   -1.9900 C   0  0  0  0  0  0  0  0  0  0  0  0
   -1.6930    1.3760   -3.4810 C   0  0  0  0  0  0  0  0  0  0  0  0
   -0.9720    0.2400   -4.1820 C   0  0  0  0  0  0  0  0  0  0  0  0
   -1.7110   -1.0110   -3.9930 N   0  0  0  0  0  0  0  0  0  0  0  0
   -1.6770   -0.2200    0.4360 C   0  0  0  0  0  0  0  0  0  0  0  0
   -2.8980    0.0320    0.1730 O   0  0  0  0  0  0  0  0  0  0  0  0
    0.6970   -0.2460    1.4940 H   0  0  0  0  0  0  0  0  0  0  0  0
   -1.0620    1.8210    0.5100 H   0  0  0  0  0  0  0  0  0  0  0  0
    0.0480    0.0750   -1.7250 H   0  0  0  0  0  0  0  0  0  0  0  0
    0.1050    1.8600   -1.5860 H   0  0  0  0  0  0  0  0  0  0  0  0
   -2.4910    1.8670   -1.5450 H   0  0  0  0  0  0  0  0  0  0  0  0
   -2.3800    0.1180   -1.9590 H   0  0  0  0  0  0  0  0  0  0  0  0
   -1.1870    2.3200   -3.6770 H   0  0  0  0  0  0  0  0  0  0  0  0
   -2.7030    1.4570   -3.8950 H   0  0  0  0  0  0  0  0  0  0  0  0
    0.0520    0.1450   -3.7960 H   0  0  0  0  0  0  0  0  0  0  0  0
   -0.9410    0.4440   -5.2630 H   0  0  0  0  0  0  0  0  0  0  0  0
   -2.7310   -0.8920   -4.2420 H   0  0  0  0  0  0  0  0  0  0  0  0
   -1.3450   -1.7250   -4.6920 H   0  0  0  0  0  0  0  0  0  0  0  0
   -1.4520   -1.5120    0.9470 N   0  0  0  0  0  0  0  0  0  0  0  0
   -2.4500   -2.5000    1.1740 C   0  0  1  0  0  0  0  0  0  0  0  0
   -2.3500   -3.6370    0.1860 C   0  0  0  0  0  0  0  0  0  0  0  0
   -3.3430   -4.7130    0.3730 C   0  0  0  0  0  0  0  0  0  0  0  0
   -4.7850   -4.3200    0.2830 C   0  0  0  0  0  0  0  0  0  0  0  0
   -5.1350   -3.7040   -1.0350 C   0  0  0  0  0  0  0  0  0  0  0  0
   -4.8660   -4.6140   -2.1450 N   0  0  0  0  0  0  0  0  0  0  0  0
   -2.3890   -2.9660    2.5670 C   0  0  0  0  0  0  0  0  0  0  0  0
   -3.1410   -3.8530    3.0770 O   0  0  0  0  0  0  0  0  0  0  0  0
   -1.4500   -2.4410    3.4860 O   0  0  0  0  0  0  0  0  0  0  0  0
   -0.4680   -1.7940    1.1770 H   0  0  0  0  0  0  0  0  0  0  0  0
   -3.4400   -1.9890    0.9700 H   0  0  0  0  0  0  0  0  0  0  0  0
   -1.3320   -4.0430    0.2620 H   0  0  0  0  0  0  0  0  0  0  0  0
   -2.5590   -3.2110   -0.8380 H   0  0  0  0  0  0  0  0  0  0  0  0
   -3.1850   -5.3410    1.2800 H   0  0  0  0  0  0  0  0  0  0  0  0
   -3.1540   -5.4530   -0.4710 H   0  0  0  0  0  0  0  0  0  0  0  0
   -5.3970   -5.2700    0.3690 H   0  0  0  0  0  0  0  0  0  0  0  0
   -5.1430   -3.6650    1.1060 H   0  0  0  0  0  0  0  0  0  0  0  0
   -4.6390   -2.7260   -1.1510 H   0  0  0  0  0  0  0  0  0  0  0  0
   -6.2310   -3.5320   -1.0370 H   0  0  0  0  0  0  0  0  0  0  0  0
   -5.7300   -5.1960   -2.3380 H   0  0  0  0  0  0  0  0  0  0  0  0
   -4.7250   -3.9920   -2.9940 H   0  0  0  0  0  0  0  0  0  0  0  0
  1  2  1  0  0  0  0
  2 14  1  1  0  0  0
  2  3  1  0  0  0  0
  3 16  1  0  0  0  0
  3  4  1  0  0  0  0
  4  9  1  0  0  0  0
  5  4  2  0  0  0  0
  5  6  1  0  0  0  0
  6  7  2  0  0  0  0
  7  8  1  0  0  0  0
  7 19  1  0  0  0  0
  8 20  1  0  0  0  0
  9 21  1  0  0  0  0
  9  8  2  0  0  0  0
 10 22  1  0  0  0  0
 10  2  1  0  0  0  0
 11 10  2  0  0  0  0
 12  1  1  0  0  0  0
 13  1  1  0  0  0  0
 15  3  1  0  0  0  0
 17  5  1  0  0  0  0
 18  6  1  0  0  0  0
 22 31  1  0  0  0  0
 23 29  1  0  0  0  0
 23 32  1  1  0  0  0
 23 22  1  0  0  0  0
 24 23  1  0  0  0  0
 25 36  1  0  0  0  0
 25 35  1  0  0  0  0
 25 24  1  0  0  0  0
 26 25  1  0  0  0  0
 27 28  1  0  0  0  0
 27 39  1  0  0  0  0
 27 26  1  0  0  0  0
 29 43  1  0  0  0  0
 30 29  2  0  0  0  0
 33 24  1  0  0  0  0
 34 24  1  0  0  0  0
 37 26  1  0  0  0  0
 38 26  1  0  0  0  0
 40 27  1  0  0  0  0
 41 28  1  0  0  0  0
 42 28  1  0  0  0  0
 43 44  1  0  0  0  0
 43 53  1  0  0  0  0
 44 54  1  6  0  0  0
 44 50  1  0  0  0  0
 45 55  1  0  0  0  0
 45 46  1  0  0  0  0
 45 44  1  0  0  0  0
 46 57  1  0  0  0  0
 47 59  1  0  0  0  0
 47 46  1  0  0  0  0
 47 60  1  0  0  0  0
 48 47  1  0  0  0  0
 49 48  1  0  0  0  0
 50 51  2  0  0  0  0
 50 52  1  0  0  0  0
 56 45  1  0  0  0  0
 58 46  1  0  0  0  0
 61 48  1  0  0  0  0
 62 48  1  0  0  0  0
 63 49  1  0  0  0  0
 64 49  1  0  0  0  0
M  END
$$$$
