FKL.pdb
 OpenBabel07022419003D

 62 62  0  0  1  0  0  0  0  0999 V2000
    2.2560    3.5940    2.6880 N   0  0  0  0  0  0  0  0  0  0  0  0
    1.0200    3.4740    1.9440 C   0  0  1  0  0  0  0  0  0  0  0  0
    1.2860    4.0350    0.5730 C   0  0  0  0  0  0  0  0  0  0  0  0
    2.3670    3.3160   -0.1410 C   0  0  0  0  0  0  0  0  0  0  0  0
    2.1090    2.2320   -0.9500 C   0  0  0  0  0  0  0  0  0  0  0  0
    3.1260    1.5640   -1.6160 C   0  0  0  0  0  0  0  0  0  0  0  0
    4.4220    2.0040   -1.4580 C   0  0  0  0  0  0  0  0  0  0  0  0
    4.6970    3.0820   -0.6560 C   0  0  0  0  0  0  0  0  0  0  0  0
    3.6650    3.7350    0.0000 C   0  0  0  0  0  0  0  0  0  0  0  0
    0.5660    2.0850    1.9710 C   0  0  0  0  0  0  0  0  0  0  0  0
    1.3010    1.2170    2.5300 O   0  0  0  0  0  0  0  0  0  0  0  0
    2.3410    4.5110    3.1810 H   0  0  0  0  0  0  0  0  0  0  0  0
    2.3180    2.7860    3.3430 H   0  0  0  0  0  0  0  0  0  0  0  0
    0.2880    4.1380    2.4530 H   0  0  0  0  0  0  0  0  0  0  0  0
    1.6340    5.0820    0.7210 H   0  0  0  0  0  0  0  0  0  0  0  0
    0.3630    4.1170   -0.0380 H   0  0  0  0  0  0  0  0  0  0  0  0
    1.1110    1.8470   -1.1080 H   0  0  0  0  0  0  0  0  0  0  0  0
    2.9330    0.7080   -2.2560 H   0  0  0  0  0  0  0  0  0  0  0  0
    5.2370    1.4810   -1.9820 H   0  0  0  0  0  0  0  0  0  0  0  0
    5.7200    3.4200   -0.5390 H   0  0  0  0  0  0  0  0  0  0  0  0
    3.9570    4.5780    0.6150 H   0  0  0  0  0  0  0  0  0  0  0  0
   -0.6360    1.6250    1.4220 N   0  0  0  0  0  0  0  0  0  0  0  0
   -1.0080    0.2010    1.5020 C   0  0  1  0  0  0  0  0  0  0  0  0
   -2.1770    0.0670    2.4430 C   0  0  0  0  0  0  0  0  0  0  0  0
   -2.6450   -1.3360    2.6400 C   0  0  0  0  0  0  0  0  0  0  0  0
   -1.5070   -2.1660    3.2150 C   0  0  0  0  0  0  0  0  0  0  0  0
   -1.9900   -3.5930    3.4110 C   0  0  0  0  0  0  0  0  0  0  0  0
   -0.8920   -4.3660    3.9590 N   0  0  0  0  0  0  0  0  0  0  0  0
   -1.2870   -0.1890    0.1070 C   0  0  0  0  0  0  0  0  0  0  0  0
   -1.3470    0.6940   -0.8050 O   0  0  0  0  0  0  0  0  0  0  0  0
   -1.2790    2.2660    0.9550 H   0  0  0  0  0  0  0  0  0  0  0  0
   -0.1550   -0.3130    1.9710 H   0  0  0  0  0  0  0  0  0  0  0  0
   -1.7820    0.4090    3.4460 H   0  0  0  0  0  0  0  0  0  0  0  0
   -3.0380    0.7010    2.1360 H   0  0  0  0  0  0  0  0  0  0  0  0
   -3.1650   -1.8030    1.8100 H   0  0  0  0  0  0  0  0  0  0  0  0
   -3.4260   -1.3260    3.4800 H   0  0  0  0  0  0  0  0  0  0  0  0
   -1.1780   -1.7720    4.1950 H   0  0  0  0  0  0  0  0  0  0  0  0
   -0.6130   -2.1920    2.5710 H   0  0  0  0  0  0  0  0  0  0  0  0
   -2.2740   -4.0170    2.4360 H   0  0  0  0  0  0  0  0  0  0  0  0
   -2.8760   -3.5930    4.1100 H   0  0  0  0  0  0  0  0  0  0  0  0
   -0.3920   -3.7370    4.6300 H   0  0  0  0  0  0  0  0  0  0  0  0
   -0.2540   -4.6000    3.1550 H   0  0  0  0  0  0  0  0  0  0  0  0
    0.4280   -4.8820   -2.5320 C   0  0  0  0  0  0  0  0  0  0  0  0
   -0.6060   -4.1470   -1.6650 C   0  0  0  0  0  0  0  0  0  0  0  0
   -1.8370   -5.0260   -1.7030 C   0  0  0  0  0  0  0  0  0  0  0  0
   -0.8180   -2.8100   -2.3140 C   0  0  0  0  0  0  0  0  0  0  0  0
   -1.7650   -1.8970   -1.6780 C   0  0  2  0  0  0  0  0  0  0  0  0
   -1.4960   -1.4930   -0.3300 N   0  0  0  0  0  0  0  0  0  0  0  0
   -3.1430   -2.3950   -1.7730 C   0  0  0  0  0  0  0  0  0  0  0  0
   -3.6380   -2.8300   -2.8700 O   0  0  0  0  0  0  0  0  0  0  0  0
   -4.0090   -2.4330   -0.6940 O   0  0  0  0  0  0  0  0  0  0  0  0
   -0.0460   -5.6340   -3.1940 H   0  0  0  0  0  0  0  0  0  0  0  0
    0.9570   -4.1760   -3.2060 H   0  0  0  0  0  0  0  0  0  0  0  0
    1.1450   -5.4260   -1.8850 H   0  0  0  0  0  0  0  0  0  0  0  0
   -0.2730   -4.0910   -0.6180 H   0  0  0  0  0  0  0  0  0  0  0  0
   -2.2180   -5.1710   -2.7400 H   0  0  0  0  0  0  0  0  0  0  0  0
   -2.6060   -4.7630   -0.9820 H   0  0  0  0  0  0  0  0  0  0  0  0
   -1.4680   -6.0450   -1.3760 H   0  0  0  0  0  0  0  0  0  0  0  0
   -1.2430   -3.0490   -3.3400 H   0  0  0  0  0  0  0  0  0  0  0  0
    0.1670   -2.3240   -2.5820 H   0  0  0  0  0  0  0  0  0  0  0  0
   -1.7540   -0.9330   -2.2760 H   0  0  0  0  0  0  0  0  0  0  0  0
   -1.4460   -2.2760    0.3480 H   0  0  0  0  0  0  0  0  0  0  0  0
  1 12  1  0  0  0  0
  1 13  1  0  0  0  0
  2 10  1  0  0  0  0
  2 14  1  1  0  0  0
  2  1  1  0  0  0  0
  3 15  1  0  0  0  0
  3  2  1  0  0  0  0
  4  9  1  0  0  0  0
  4  3  1  0  0  0  0
  5  4  2  0  0  0  0
  6  7  2  0  0  0  0
  6  5  1  0  0  0  0
  7  8  1  0  0  0  0
  8 20  1  0  0  0  0
  8  9  2  0  0  0  0
  9 21  1  0  0  0  0
 10 11  2  0  0  0  0
 16  3  1  0  0  0  0
 17  5  1  0  0  0  0
 18  6  1  0  0  0  0
 19  7  1  0  0  0  0
 22 23  1  0  0  0  0
 22 10  1  0  0  0  0
 23 32  1  1  0  0  0
 23 24  1  0  0  0  0
 24 25  1  0  0  0  0
 24 33  1  0  0  0  0
 25 26  1  0  0  0  0
 25 36  1  0  0  0  0
 26 27  1  0  0  0  0
 26 37  1  0  0  0  0
 27 28  1  0  0  0  0
 27 40  1  0  0  0  0
 28 41  1  0  0  0  0
 29 23  1  0  0  0  0
 30 29  2  0  0  0  0
 31 22  1  0  0  0  0
 34 24  1  0  0  0  0
 35 25  1  0  0  0  0
 38 26  1  0  0  0  0
 39 27  1  0  0  0  0
 42 28  1  0  0  0  0
 43 54  1  0  0  0  0
 43 44  1  0  0  0  0
 44 55  1  0  0  0  0
 45 44  1  0  0  0  0
 45 58  1  0  0  0  0
 45 57  1  0  0  0  0
 46 47  1  0  0  0  0
 46 44  1  0  0  0  0
 47 61  1  6  0  0  0
 47 48  1  0  0  0  0
 48 29  1  0  0  0  0
 48 62  1  0  0  0  0
 49 47  1  0  0  0  0
 49 51  1  0  0  0  0
 50 49  2  0  0  0  0
 52 43  1  0  0  0  0
 53 43  1  0  0  0  0
 56 45  1  0  0  0  0
 59 46  1  0  0  0  0
 60 46  1  0  0  0  0
M  END
$$$$
