FKM.pdb
 OpenBabel07022419003D

 60 60  0  0  1  0  0  0  0  0999 V2000
    2.1500   -0.4510    2.8110 N   0  0  0  0  0  0  0  0  0  0  0  0
    1.9510    0.5000    1.7630 C   0  0  1  0  0  0  0  0  0  0  0  0
    3.1720    0.4040    0.8380 C   0  0  0  0  0  0  0  0  0  0  0  0
    4.4020    0.7190    1.6110 C   0  0  0  0  0  0  0  0  0  0  0  0
    5.1290   -0.2490    2.2700 C   0  0  0  0  0  0  0  0  0  0  0  0
    6.2780    0.0340    2.9930 C   0  0  0  0  0  0  0  0  0  0  0  0
    6.7330    1.3350    3.0720 C   0  0  0  0  0  0  0  0  0  0  0  0
    6.0150    2.3140    2.4170 C   0  0  0  0  0  0  0  0  0  0  0  0
    4.8610    2.0170    1.6930 C   0  0  0  0  0  0  0  0  0  0  0  0
    0.7010    0.2630    0.9870 C   0  0  0  0  0  0  0  0  0  0  0  0
    0.4520    1.0490    0.0660 O   0  0  0  0  0  0  0  0  0  0  0  0
    2.3030   -1.4160    2.4990 H   0  0  0  0  0  0  0  0  0  0  0  0
    1.4890   -0.3470    3.6110 H   0  0  0  0  0  0  0  0  0  0  0  0
    1.8750    1.5100    2.2020 H   0  0  0  0  0  0  0  0  0  0  0  0
    3.2450   -0.5790    0.3790 H   0  0  0  0  0  0  0  0  0  0  0  0
    3.0230    1.2250    0.0850 H   0  0  0  0  0  0  0  0  0  0  0  0
    4.7480   -1.2710    2.1930 H   0  0  0  0  0  0  0  0  0  0  0  0
    6.8150   -0.7770    3.4970 H   0  0  0  0  0  0  0  0  0  0  0  0
    7.6260    1.5240    3.6400 H   0  0  0  0  0  0  0  0  0  0  0  0
    6.3710    3.3320    2.4770 H   0  0  0  0  0  0  0  0  0  0  0  0
    4.3110    2.8050    1.1850 H   0  0  0  0  0  0  0  0  0  0  0  0
   -0.1270   -0.8210    1.3260 N   0  0  0  0  0  0  0  0  0  0  0  0
   -1.3880   -1.1620    0.6620 C   0  0  1  0  0  0  0  0  0  0  0  0
   -2.1080    0.0100    0.0890 C   0  0  0  0  0  0  0  0  0  0  0  0
   -2.5160    1.0270    1.0710 C   0  0  0  0  0  0  0  0  0  0  0  0
   -3.5420    0.7480    2.0720 C   0  0  0  0  0  0  0  0  0  0  0  0
   -3.4060   -0.3070    3.0940 C   0  0  0  0  0  0  0  0  0  0  0  0
   -2.2410   -0.1990    3.9240 N   0  0  0  0  0  0  0  0  0  0  0  0
   -1.1310   -2.2560   -0.3190 C   0  0  0  0  0  0  0  0  0  0  0  0
    0.0280   -2.6860   -0.4320 O   0  0  0  0  0  0  0  0  0  0  0  0
    0.2130   -1.4320    2.1340 H   0  0  0  0  0  0  0  0  0  0  0  0
   -2.0300   -1.5030    1.4940 H   0  0  0  0  0  0  0  0  0  0  0  0
   -3.0480   -0.4300   -0.3770 H   0  0  0  0  0  0  0  0  0  0  0  0
   -1.5870    0.4440   -0.8040 H   0  0  0  0  0  0  0  0  0  0  0  0
   -1.5750    1.3470    1.6640 H   0  0  0  0  0  0  0  0  0  0  0  0
   -2.7950    2.0000    0.5030 H   0  0  0  0  0  0  0  0  0  0  0  0
   -3.6910    1.7240    2.6770 H   0  0  0  0  0  0  0  0  0  0  0  0
   -4.5930    0.6940    1.5870 H   0  0  0  0  0  0  0  0  0  0  0  0
   -3.6380   -1.3400    2.8380 H   0  0  0  0  0  0  0  0  0  0  0  0
   -4.2650   -0.1200    3.9000 H   0  0  0  0  0  0  0  0  0  0  0  0
   -1.9070   -1.1410    4.2740 H   0  0  0  0  0  0  0  0  0  0  0  0
   -2.3400    0.4060    4.7490 H   0  0  0  0  0  0  0  0  0  0  0  0
   -2.2480   -0.1230   -3.6990 C   0  0  0  0  0  0  0  0  0  0  0  0
   -3.5440   -1.2530   -3.1870 S   0  0  0  0  0  0  0  0  0  0  0  0
   -3.3710   -2.8720   -3.9730 C   0  0  0  0  0  0  0  0  0  0  0  0
   -2.1400   -3.5840   -3.5140 C   0  0  0  0  0  0  0  0  0  0  0  0
   -2.0940   -3.8610   -2.0700 C   0  0  2  0  0  0  0  0  0  0  0  0
   -2.1310   -2.8330   -1.1270 N   0  0  0  0  0  0  0  0  0  0  0  0
   -1.1050   -4.9530   -1.7980 C   0  0  0  0  0  0  0  0  0  0  0  0
   -0.8770   -5.8390   -2.6700 O   0  0  0  0  0  0  0  0  0  0  0  0
   -0.4330   -5.0320   -0.6240 O   0  0  0  0  0  0  0  0  0  0  0  0
   -2.3370    0.0880   -4.7910 H   0  0  0  0  0  0  0  0  0  0  0  0
   -2.3730    0.8210   -3.1200 H   0  0  0  0  0  0  0  0  0  0  0  0
   -1.2550   -0.5500   -3.4800 H   0  0  0  0  0  0  0  0  0  0  0  0
   -3.3730   -2.7900   -5.0850 H   0  0  0  0  0  0  0  0  0  0  0  0
   -4.3080   -3.4380   -3.7350 H   0  0  0  0  0  0  0  0  0  0  0  0
   -2.1830   -4.6010   -4.0200 H   0  0  0  0  0  0  0  0  0  0  0  0
   -1.2080   -3.1460   -3.9350 H   0  0  0  0  0  0  0  0  0  0  0  0
   -3.0800   -4.4770   -1.8670 H   0  0  0  0  0  0  0  0  0  0  0  0
   -3.0990   -2.3710   -0.9640 H   0  0  0  0  0  0  0  0  0  0  0  0
  1 13  1  0  0  0  0
  2 14  1  1  0  0  0
  2  1  1  0  0  0  0
  3  4  1  0  0  0  0
  3  2  1  0  0  0  0
  4  9  2  0  0  0  0
  4  5  1  0  0  0  0
  5  6  2  0  0  0  0
  6  7  1  0  0  0  0
  6 18  1  0  0  0  0
  7 19  1  0  0  0  0
  8 20  1  0  0  0  0
  8  7  2  0  0  0  0
  9  8  1  0  0  0  0
 10 22  1  0  0  0  0
 10  2  1  0  0  0  0
 11 10  2  0  0  0  0
 12  1  1  0  0  0  0
 15  3  1  0  0  0  0
 16  3  1  0  0  0  0
 17  5  1  0  0  0  0
 21  9  1  0  0  0  0
 22 31  1  0  0  0  0
 23 22  1  0  0  0  0
 23 32  1  1  0  0  0
 24 23  1  0  0  0  0
 24 25  1  0  0  0  0
 25 35  1  0  0  0  0
 25 26  1  0  0  0  0
 26 37  1  0  0  0  0
 26 27  1  0  0  0  0
 27 40  1  0  0  0  0
 27 28  1  0  0  0  0
 28 41  1  0  0  0  0
 28 42  1  0  0  0  0
 29 23  1  0  0  0  0
 30 29  2  0  0  0  0
 33 24  1  0  0  0  0
 34 24  1  0  0  0  0
 36 25  1  0  0  0  0
 38 26  1  0  0  0  0
 39 27  1  0  0  0  0
 43 54  1  0  0  0  0
 43 44  1  0  0  0  0
 43 53  1  0  0  0  0
 45 56  1  0  0  0  0
 45 46  1  0  0  0  0
 45 44  1  0  0  0  0
 46 47  1  0  0  0  0
 47 59  1  1  0  0  0
 47 49  1  0  0  0  0
 47 48  1  0  0  0  0
 48 60  1  0  0  0  0
 48 29  1  0  0  0  0
 49 51  1  0  0  0  0
 50 49  2  0  0  0  0
 52 43  1  0  0  0  0
 55 45  1  0  0  0  0
 57 46  1  0  0  0  0
 58 46  1  0  0  0  0
M  END
$$$$
