FKN.pdb
 OpenBabel07022419003D

 57 57  0  0  1  0  0  0  0  0999 V2000
    1.1340   -1.3030    2.3560 N   0  0  0  0  0  0  0  0  0  0  0  0
    1.1060   -0.1540    1.4700 C   0  0  1  0  0  0  0  0  0  0  0  0
    2.3530   -0.2280    0.6170 C   0  0  0  0  0  0  0  0  0  0  0  0
    3.5100   -0.1850    1.5550 C   0  0  0  0  0  0  0  0  0  0  0  0
    4.0820   -1.3050    2.1070 C   0  0  0  0  0  0  0  0  0  0  0  0
    5.1590   -1.2350    2.9790 C   0  0  0  0  0  0  0  0  0  0  0  0
    5.6920   -0.0090    3.3190 C   0  0  0  0  0  0  0  0  0  0  0  0
    5.1340    1.1220    2.7780 C   0  0  0  0  0  0  0  0  0  0  0  0
    4.0670    1.0450    1.9140 C   0  0  0  0  0  0  0  0  0  0  0  0
   -0.1380   -0.1230    0.6900 C   0  0  0  0  0  0  0  0  0  0  0  0
   -0.4120    0.7620   -0.1420 O   0  0  0  0  0  0  0  0  0  0  0  0
    0.3980   -1.2460    3.0690 H   0  0  0  0  0  0  0  0  0  0  0  0
    1.1550   -2.1930    1.8310 H   0  0  0  0  0  0  0  0  0  0  0  0
    1.2000    0.7480    2.1420 H   0  0  0  0  0  0  0  0  0  0  0  0
    2.3930    0.5740   -0.1430 H   0  0  0  0  0  0  0  0  0  0  0  0
    2.3670   -1.2200    0.1120 H   0  0  0  0  0  0  0  0  0  0  0  0
    3.6780   -2.2660    1.8520 H   0  0  0  0  0  0  0  0  0  0  0  0
    5.6050   -2.1320    3.4110 H   0  0  0  0  0  0  0  0  0  0  0  0
    6.5450    0.0460    4.0090 H   0  0  0  0  0  0  0  0  0  0  0  0
    5.5410    2.0870    3.0350 H   0  0  0  0  0  0  0  0  0  0  0  0
    3.6080    1.9280    1.4730 H   0  0  0  0  0  0  0  0  0  0  0  0
   -1.1080   -1.1760    0.8920 N   0  0  0  0  0  0  0  0  0  0  0  0
   -2.3400   -1.2380    0.1900 C   0  0  1  0  0  0  0  0  0  0  0  0
   -3.2120   -0.0330    0.2150 C   0  0  0  0  0  0  0  0  0  0  0  0
   -3.7130    0.3900    1.5540 C   0  0  0  0  0  0  0  0  0  0  0  0
   -2.6320    0.7230    2.5110 C   0  0  0  0  0  0  0  0  0  0  0  0
   -3.2460    1.1700    3.8590 C   0  0  0  0  0  0  0  0  0  0  0  0
   -2.1680    1.4940    4.7880 N   0  0  0  0  0  0  0  0  0  0  0  0
   -2.1830   -1.7970   -1.1820 C   0  0  0  0  0  0  0  0  0  0  0  0
   -3.1780   -1.9360   -1.9520 O   0  0  0  0  0  0  0  0  0  0  0  0
   -0.8510   -1.9030    1.5940 H   0  0  0  0  0  0  0  0  0  0  0  0
   -2.9620   -2.0340    0.7430 H   0  0  0  0  0  0  0  0  0  0  0  0
   -4.1220   -0.2840   -0.4040 H   0  0  0  0  0  0  0  0  0  0  0  0
   -2.7420    0.8560   -0.2740 H   0  0  0  0  0  0  0  0  0  0  0  0
   -4.2970   -0.4950    1.9660 H   0  0  0  0  0  0  0  0  0  0  0  0
   -4.4520    1.2180    1.4240 H   0  0  0  0  0  0  0  0  0  0  0  0
   -2.0270   -0.1630    2.7960 H   0  0  0  0  0  0  0  0  0  0  0  0
   -1.9440    1.5140    2.1680 H   0  0  0  0  0  0  0  0  0  0  0  0
   -3.8830    2.0440    3.6350 H   0  0  0  0  0  0  0  0  0  0  0  0
   -3.8730    0.3460    4.2580 H   0  0  0  0  0  0  0  0  0  0  0  0
   -1.2700    1.6660    4.2850 H   0  0  0  0  0  0  0  0  0  0  0  0
   -2.0770    0.7390    5.5110 H   0  0  0  0  0  0  0  0  0  0  0  0
   -1.4390   -0.2490   -5.2270 N   0  0  0  0  0  0  0  0  0  0  0  0
   -0.6160   -0.5820   -4.1070 C   0  0  0  0  0  0  0  0  0  0  0  0
   -0.4400    0.2820   -3.1950 O   0  0  0  0  0  0  0  0  0  0  0  0
    0.0380   -1.8860   -3.9650 C   0  0  0  0  0  0  0  0  0  0  0  0
   -0.7760   -2.7480   -3.0350 C   0  0  2  0  0  0  0  0  0  0  0  0
   -0.9320   -2.2060   -1.7130 N   0  0  0  0  0  0  0  0  0  0  0  0
   -0.2690   -4.1320   -2.9650 C   0  0  0  0  0  0  0  0  0  0  0  0
   -0.0750   -4.7640   -4.0230 O   0  0  0  0  0  0  0  0  0  0  0  0
   -0.0170   -4.7100   -1.7480 O   0  0  0  0  0  0  0  0  0  0  0  0
   -1.9850    0.6300   -5.2230 H   0  0  0  0  0  0  0  0  0  0  0  0
   -1.4720   -0.9120   -6.0410 H   0  0  0  0  0  0  0  0  0  0  0  0
    0.0160   -2.3910   -4.9600 H   0  0  0  0  0  0  0  0  0  0  0  0
    1.1020   -1.7990   -3.6540 H   0  0  0  0  0  0  0  0  0  0  0  0
   -1.8080   -2.7800   -3.4930 H   0  0  0  0  0  0  0  0  0  0  0  0
   -0.0860   -2.1050   -1.1110 H   0  0  0  0  0  0  0  0  0  0  0  0
  1 12  1  0  0  0  0
  2 14  1  1  0  0  0
  2  1  1  0  0  0  0
  3  2  1  0  0  0  0
  3  4  1  0  0  0  0
  4  9  2  0  0  0  0
  4  5  1  0  0  0  0
  5  6  2  0  0  0  0
  6  7  1  0  0  0  0
  6 18  1  0  0  0  0
  7 19  1  0  0  0  0
  8 20  1  0  0  0  0
  8  7  2  0  0  0  0
  9  8  1  0  0  0  0
 10 22  1  0  0  0  0
 10  2  1  0  0  0  0
 11 10  2  0  0  0  0
 13  1  1  0  0  0  0
 15  3  1  0  0  0  0
 16  3  1  0  0  0  0
 17  5  1  0  0  0  0
 21  9  1  0  0  0  0
 22 31  1  0  0  0  0
 23 24  1  0  0  0  0
 23 32  1  1  0  0  0
 23 22  1  0  0  0  0
 24 25  1  0  0  0  0
 25 35  1  0  0  0  0
 25 26  1  0  0  0  0
 26 37  1  0  0  0  0
 26 27  1  0  0  0  0
 27 40  1  0  0  0  0
 27 28  1  0  0  0  0
 28 42  1  0  0  0  0
 29 23  1  0  0  0  0
 30 29  2  0  0  0  0
 33 24  1  0  0  0  0
 34 24  1  0  0  0  0
 36 25  1  0  0  0  0
 38 26  1  0  0  0  0
 39 27  1  0  0  0  0
 41 28  1  0  0  0  0
 43 52  1  0  0  0  0
 43 44  1  0  0  0  0
 44 46  1  0  0  0  0
 44 45  2  0  0  0  0
 46 55  1  0  0  0  0
 46 47  1  0  0  0  0
 47 56  1  6  0  0  0
 47 49  1  0  0  0  0
 47 48  1  0  0  0  0
 48 29  1  0  0  0  0
 48 57  1  0  0  0  0
 49 51  1  0  0  0  0
 50 49  2  0  0  0  0
 53 43  1  0  0  0  0
 54 46  1  0  0  0  0
M  END
$$$$
