FKP.pdb
 OpenBabel07022419003D

 57 58  0  0  1  0  0  0  0  0999 V2000
    1.2800    2.0680    4.1180 N   0  0  0  0  0  0  0  0  0  0  0  0
    0.4640    2.0550    2.8920 C   0  0  1  0  0  0  0  0  0  0  0  0
    1.1470    2.9880    1.9510 C   0  0  0  0  0  0  0  0  0  0  0  0
    2.5430    2.5680    1.6590 C   0  0  0  0  0  0  0  0  0  0  0  0
    2.8270    1.7490    0.5920 C   0  0  0  0  0  0  0  0  0  0  0  0
    4.1250    1.3670    0.3390 C   0  0  0  0  0  0  0  0  0  0  0  0
    5.1880    1.7730    1.1190 C   0  0  0  0  0  0  0  0  0  0  0  0
    4.8700    2.5960    2.1830 C   0  0  0  0  0  0  0  0  0  0  0  0
    3.5820    2.9890    2.4530 C   0  0  0  0  0  0  0  0  0  0  0  0
    0.3600    0.6520    2.4340 C   0  0  0  0  0  0  0  0  0  0  0  0
    1.0620   -0.2320    3.0060 O   0  0  0  0  0  0  0  0  0  0  0  0
    0.7110    2.2610    4.9590 H   0  0  0  0  0  0  0  0  0  0  0  0
    1.7300    1.1230    4.2630 H   0  0  0  0  0  0  0  0  0  0  0  0
   -0.5250    2.4680    3.1870 H   0  0  0  0  0  0  0  0  0  0  0  0
    0.5980    3.1640    1.0040 H   0  0  0  0  0  0  0  0  0  0  0  0
    1.2170    3.9730    2.4580 H   0  0  0  0  0  0  0  0  0  0  0  0
    2.0330    1.4200   -0.0300 H   0  0  0  0  0  0  0  0  0  0  0  0
    4.2960    0.7190   -0.5160 H   0  0  0  0  0  0  0  0  0  0  0  0
    6.1980    1.4560    0.8940 H   0  0  0  0  0  0  0  0  0  0  0  0
    5.6970    2.9210    2.8020 H   0  0  0  0  0  0  0  0  0  0  0  0
    3.3690    3.6380    3.3000 H   0  0  0  0  0  0  0  0  0  0  0  0
   -0.4950    0.2450    1.3800 N   0  0  0  0  0  0  0  0  0  0  0  0
   -0.6150   -1.1640    0.9130 C   0  0  1  0  0  0  0  0  0  0  0  0
   -1.8510   -1.7520    1.4340 C   0  0  0  0  0  0  0  0  0  0  0  0
   -3.1990   -1.3110    1.2360 C   0  0  0  0  0  0  0  0  0  0  0  0
   -4.0350   -1.2020    0.0740 C   0  0  0  0  0  0  0  0  0  0  0  0
   -3.8210   -0.3460   -1.0950 C   0  0  0  0  0  0  0  0  0  0  0  0
   -2.7010   -0.5730   -1.9310 N   0  0  0  0  0  0  0  0  0  0  0  0
   -0.2280   -1.3350   -0.4310 C   0  0  0  0  0  0  0  0  0  0  0  0
    0.2280   -0.2960   -1.0980 O   0  0  0  0  0  0  0  0  0  0  0  0
   -1.0570    1.0000    0.9290 H   0  0  0  0  0  0  0  0  0  0  0  0
    0.2780   -1.6320    1.5430 H   0  0  0  0  0  0  0  0  0  0  0  0
   -1.8270   -2.8930    1.4340 H   0  0  0  0  0  0  0  0  0  0  0  0
   -1.6810   -1.6100    2.6280 H   0  0  0  0  0  0  0  0  0  0  0  0
   -3.8340   -1.9830    1.9870 H   0  0  0  0  0  0  0  0  0  0  0  0
   -3.3800   -0.3060    1.8480 H   0  0  0  0  0  0  0  0  0  0  0  0
   -5.1530   -1.0180    0.3930 H   0  0  0  0  0  0  0  0  0  0  0  0
   -4.1990   -2.2640   -0.3740 H   0  0  0  0  0  0  0  0  0  0  0  0
   -4.7260   -0.3480   -1.7810 H   0  0  0  0  0  0  0  0  0  0  0  0
   -3.7620    0.7540   -0.7860 H   0  0  0  0  0  0  0  0  0  0  0  0
   -2.6460   -1.4930   -2.3830 H   0  0  0  0  0  0  0  0  0  0  0  0
   -2.5010    0.2420   -2.5180 H   0  0  0  0  0  0  0  0  0  0  0  0
   -0.2550   -2.5100   -1.2120 N   0  0  0  0  0  0  0  0  0  0  0  0
    0.1920   -2.5800   -2.6240 C   0  0  0  0  0  0  0  0  0  0  0  0
   -0.5720   -3.7460   -3.1830 C   0  0  0  0  0  0  0  0  0  0  0  0
   -0.6400   -4.7300   -2.0620 C   0  0  0  0  0  0  0  0  0  0  0  0
   -0.6950   -3.8140   -0.8380 C   0  0  1  0  0  0  0  0  0  0  0  0
    0.1670   -4.4830    0.1660 C   0  0  0  0  0  0  0  0  0  0  0  0
    1.2260   -3.9660    0.5660 O   0  0  0  0  0  0  0  0  0  0  0  0
   -0.2200   -5.7090    0.6650 O   0  0  0  0  0  0  0  0  0  0  0  0
   -0.1110   -1.6760   -3.1800 H   0  0  0  0  0  0  0  0  0  0  0  0
    1.2770   -2.7460   -2.6870 H   0  0  0  0  0  0  0  0  0  0  0  0
   -0.0730   -4.1380   -4.0870 H   0  0  0  0  0  0  0  0  0  0  0  0
   -1.6080   -3.4740   -3.4750 H   0  0  0  0  0  0  0  0  0  0  0  0
    0.2990   -5.3270   -2.0820 H   0  0  0  0  0  0  0  0  0  0  0  0
   -1.4820   -5.4310   -2.0990 H   0  0  0  0  0  0  0  0  0  0  0  0
   -1.7840   -3.8290   -0.5660 H   0  0  0  0  0  0  0  0  0  0  0  0
  1 13  1  0  0  0  0
  1 12  1  0  0  0  0
  2 14  1  1  0  0  0
  2  1  1  0  0  0  0
  3 16  1  0  0  0  0
  3  2  1  0  0  0  0
  4  3  1  0  0  0  0
  4  9  1  0  0  0  0
  5  4  2  0  0  0  0
  6  5  1  0  0  0  0
  6  7  2  0  0  0  0
  7  8  1  0  0  0  0
  8  9  2  0  0  0  0
  8 20  1  0  0  0  0
  9 21  1  0  0  0  0
 10  2  1  0  0  0  0
 10 11  2  0  0  0  0
 15  3  1  0  0  0  0
 17  5  1  0  0  0  0
 18  6  1  0  0  0  0
 19  7  1  0  0  0  0
 22 10  1  0  0  0  0
 23 22  1  0  0  0  0
 23 24  1  0  0  0  0
 23 32  1  1  0  0  0
 24 34  1  0  0  0  0
 25 24  1  0  0  0  0
 25 36  1  0  0  0  0
 25 35  1  0  0  0  0
 26 37  1  0  0  0  0
 26 25  1  0  0  0  0
 27 40  1  0  0  0  0
 27 26  1  0  0  0  0
 28 27  1  0  0  0  0
 29 23  1  0  0  0  0
 30 29  2  0  0  0  0
 31 22  1  0  0  0  0
 33 24  1  0  0  0  0
 38 26  1  0  0  0  0
 39 27  1  0  0  0  0
 41 28  1  0  0  0  0
 42 28  1  0  0  0  0
 43 47  1  0  0  0  0
 43 29  1  0  0  0  0
 44 43  1  0  0  0  0
 45 44  1  0  0  0  0
 45 46  1  0  0  0  0
 46 47  1  0  0  0  0
 47 57  1  1  0  0  0
 47 48  1  0  0  0  0
 48 49  2  0  0  0  0
 48 50  1  0  0  0  0
 51 44  1  0  0  0  0
 52 44  1  0  0  0  0
 53 45  1  0  0  0  0
 54 45  1  0  0  0  0
 55 46  1  0  0  0  0
 56 46  1  0  0  0  0
M  END
$$$$
