FKR.pdb
 OpenBabel07022419003D

 66 66  0  0  1  0  0  0  0  0999 V2000
    5.0030    0.0240   -0.4270 N   0  0  0  0  0  0  0  0  0  0  0  0
    3.6000   -0.2660   -0.5670 C   0  0  1  0  0  0  0  0  0  0  0  0
    3.3820   -1.5900    0.1890 C   0  0  0  0  0  0  0  0  0  0  0  0
    3.7690   -1.4270    1.6170 C   0  0  0  0  0  0  0  0  0  0  0  0
    2.8550   -0.9850    2.5540 C   0  0  0  0  0  0  0  0  0  0  0  0
    3.1650   -0.8250    3.8810 C   0  0  0  0  0  0  0  0  0  0  0  0
    4.4500   -1.1180    4.3130 C   0  0  0  0  0  0  0  0  0  0  0  0
    5.3810   -1.5600    3.4070 C   0  0  0  0  0  0  0  0  0  0  0  0
    5.0330   -1.7070    2.0880 C   0  0  0  0  0  0  0  0  0  0  0  0
    2.7440    0.7710    0.0430 C   0  0  0  0  0  0  0  0  0  0  0  0
    3.2590    1.7220    0.6740 O   0  0  0  0  0  0  0  0  0  0  0  0
    5.3170    0.8510   -0.9790 H   0  0  0  0  0  0  0  0  0  0  0  0
    5.6120   -0.7750   -0.6990 H   0  0  0  0  0  0  0  0  0  0  0  0
    3.3870   -0.4790   -1.6190 H   0  0  0  0  0  0  0  0  0  0  0  0
    2.3210   -1.9080    0.1340 H   0  0  0  0  0  0  0  0  0  0  0  0
    4.0360   -2.3720   -0.2490 H   0  0  0  0  0  0  0  0  0  0  0  0
    1.8380   -0.7390    2.2700 H   0  0  0  0  0  0  0  0  0  0  0  0
    2.4510   -0.4790    4.6190 H   0  0  0  0  0  0  0  0  0  0  0  0
    4.7260   -1.0020    5.3640 H   0  0  0  0  0  0  0  0  0  0  0  0
    6.3730   -1.7820    3.7610 H   0  0  0  0  0  0  0  0  0  0  0  0
    5.7940   -2.0560    1.4120 H   0  0  0  0  0  0  0  0  0  0  0  0
    1.3150    0.7510   -0.0490 N   0  0  0  0  0  0  0  0  0  0  0  0
    0.4950    1.7630    0.5500 C   0  0  1  0  0  0  0  0  0  0  0  0
    0.0110    2.8570   -0.3080 C   0  0  0  0  0  0  0  0  0  0  0  0
   -0.8400    2.6310   -1.4680 C   0  0  0  0  0  0  0  0  0  0  0  0
   -0.3360    1.7880   -2.5950 C   0  0  0  0  0  0  0  0  0  0  0  0
   -1.4630    1.8010   -3.6630 C   0  0  0  0  0  0  0  0  0  0  0  0
   -1.0570    1.0000   -4.8010 N   0  0  0  0  0  0  0  0  0  0  0  0
   -0.5630    1.0940    1.3360 C   0  0  0  0  0  0  0  0  0  0  0  0
   -1.3370    1.8960    1.9700 O   0  0  0  0  0  0  0  0  0  0  0  0
    0.8930   -0.0370   -0.5510 H   0  0  0  0  0  0  0  0  0  0  0  0
    1.1760    2.2980    1.3110 H   0  0  0  0  0  0  0  0  0  0  0  0
    0.9080    3.4700   -0.5920 H   0  0  0  0  0  0  0  0  0  0  0  0
   -0.5490    3.5600    0.3870 H   0  0  0  0  0  0  0  0  0  0  0  0
   -1.8660    2.2520   -1.2270 H   0  0  0  0  0  0  0  0  0  0  0  0
   -1.0690    3.6420   -1.9440 H   0  0  0  0  0  0  0  0  0  0  0  0
    0.6190    2.0870   -3.0240 H   0  0  0  0  0  0  0  0  0  0  0  0
   -0.3530    0.7100   -2.2630 H   0  0  0  0  0  0  0  0  0  0  0  0
   -1.7270    2.8360   -3.9330 H   0  0  0  0  0  0  0  0  0  0  0  0
   -2.3550    1.3170   -3.2130 H   0  0  0  0  0  0  0  0  0  0  0  0
   -1.9380    0.7100   -5.3060 H   0  0  0  0  0  0  0  0  0  0  0  0
   -0.6810    0.1000   -4.4000 H   0  0  0  0  0  0  0  0  0  0  0  0
   -3.0940   -5.3630   -0.3970 N   0  0  0  0  0  0  0  0  0  0  0  0
   -4.0770   -4.6150    0.2860 C   0  0  0  0  0  0  0  0  0  0  0  0
   -4.7370   -5.0680    1.2930 N   0  0  0  0  0  0  0  0  0  0  0  0
   -4.3440   -3.2890   -0.1740 N   0  0  0  0  0  0  0  0  0  0  0  0
   -5.0180   -2.3160    0.6540 C   0  0  0  0  0  0  0  0  0  0  0  0
   -4.1440   -1.8930    1.8440 C   0  0  0  0  0  0  0  0  0  0  0  0
   -2.9100   -1.3090    1.2750 C   0  0  0  0  0  0  0  0  0  0  0  0
   -1.8950   -0.8010    2.2750 C   0  0  2  0  0  0  0  0  0  0  0  0
   -0.7880   -0.2840    1.4440 N   0  0  0  0  0  0  0  0  0  0  0  0
   -1.4410   -1.9090    3.1170 C   0  0  0  0  0  0  0  0  0  0  0  0
   -2.2270   -2.4380    3.9330 O   0  0  0  0  0  0  0  0  0  0  0  0
   -0.1520   -2.4350    3.0730 O   0  0  0  0  0  0  0  0  0  0  0  0
   -2.2100   -4.9280   -0.7030 H   0  0  0  0  0  0  0  0  0  0  0  0
   -3.2640   -6.3630   -0.5940 H   0  0  0  0  0  0  0  0  0  0  0  0
   -5.4440   -4.4670    1.7490 H   0  0  0  0  0  0  0  0  0  0  0  0
   -4.0200   -3.0530   -1.1590 H   0  0  0  0  0  0  0  0  0  0  0  0
   -6.0190   -2.6590    1.0060 H   0  0  0  0  0  0  0  0  0  0  0  0
   -5.2340   -1.4320    0.0090 H   0  0  0  0  0  0  0  0  0  0  0  0
   -4.7240   -1.0830    2.3530 H   0  0  0  0  0  0  0  0  0  0  0  0
   -4.0440   -2.7040    2.5550 H   0  0  0  0  0  0  0  0  0  0  0  0
   -3.1620   -0.5370    0.5250 H   0  0  0  0  0  0  0  0  0  0  0  0
   -2.3820   -2.1250    0.6990 H   0  0  0  0  0  0  0  0  0  0  0  0
   -2.3210    0.0630    2.7970 H   0  0  0  0  0  0  0  0  0  0  0  0
   -0.1590   -0.9240    0.9290 H   0  0  0  0  0  0  0  0  0  0  0  0
  2 14  1  6  0  0  0
  2  1  1  0  0  0  0
  2 10  1  0  0  0  0
  2  3  1  0  0  0  0
  3  4  1  0  0  0  0
  4  9  2  0  0  0  0
  4  5  1  0  0  0  0
  5  6  2  0  0  0  0
  6  7  1  0  0  0  0
  6 18  1  0  0  0  0
  7 19  1  0  0  0  0
  8 20  1  0  0  0  0
  8  7  2  0  0  0  0
  9  8  1  0  0  0  0
 10 11  2  0  0  0  0
 12  1  1  0  0  0  0
 13  1  1  0  0  0  0
 15  3  1  0  0  0  0
 16  3  1  0  0  0  0
 17  5  1  0  0  0  0
 21  9  1  0  0  0  0
 22 10  1  0  0  0  0
 22 23  1  0  0  0  0
 23 32  1  1  0  0  0
 23 29  1  0  0  0  0
 24 34  1  0  0  0  0
 24 23  1  0  0  0  0
 25 35  1  0  0  0  0
 25 24  1  0  0  0  0
 26 38  1  0  0  0  0
 26 25  1  0  0  0  0
 27 40  1  0  0  0  0
 27 26  1  0  0  0  0
 28 42  1  0  0  0  0
 28 27  1  0  0  0  0
 29 51  1  0  0  0  0
 29 30  2  0  0  0  0
 31 22  1  0  0  0  0
 33 24  1  0  0  0  0
 36 25  1  0  0  0  0
 37 26  1  0  0  0  0
 39 27  1  0  0  0  0
 41 28  1  0  0  0  0
 43 44  1  0  0  0  0
 44 45  2  0  0  0  0
 45 57  1  0  0  0  0
 46 44  1  0  0  0  0
 46 47  1  0  0  0  0
 47 59  1  0  0  0  0
 47 48  1  0  0  0  0
 48 61  1  0  0  0  0
 48 62  1  0  0  0  0
 49 48  1  0  0  0  0
 49 50  1  0  0  0  0
 50 65  1  1  0  0  0
 50 52  1  0  0  0  0
 51 50  1  0  0  0  0
 52 53  1  0  0  0  0
 54 52  2  0  0  0  0
 55 43  1  0  0  0  0
 56 43  1  0  0  0  0
 58 46  1  0  0  0  0
 60 47  1  0  0  0  0
 63 49  1  0  0  0  0
 64 49  1  0  0  0  0
 66 51  1  0  0  0  0
M  END
$$$$
