FKS.pdb
 OpenBabel07022419003D

 54 54  0  0  1  0  0  0  0  0999 V2000
   -2.0630   -1.0950    3.5450 N   0  0  0  0  0  0  0  0  0  0  0  0
   -2.1060   -0.0700    2.5200 C   0  0  1  0  0  0  0  0  0  0  0  0
   -1.4360    1.1480    3.1230 C   0  0  0  0  0  0  0  0  0  0  0  0
   -1.3930    2.2910    2.2050 C   0  0  0  0  0  0  0  0  0  0  0  0
   -2.4080    3.2140    2.1240 C   0  0  0  0  0  0  0  0  0  0  0  0
   -2.3340    4.2770    1.2600 C   0  0  0  0  0  0  0  0  0  0  0  0
   -1.2440    4.4620    0.4410 C   0  0  0  0  0  0  0  0  0  0  0  0
   -0.2290    3.5330    0.5250 C   0  0  0  0  0  0  0  0  0  0  0  0
   -0.2950    2.4610    1.3920 C   0  0  0  0  0  0  0  0  0  0  0  0
   -1.4130   -0.5210    1.2610 C   0  0  0  0  0  0  0  0  0  0  0  0
   -1.3970    0.2130    0.2640 O   0  0  0  0  0  0  0  0  0  0  0  0
   -1.1150   -1.2520    3.9000 H   0  0  0  0  0  0  0  0  0  0  0  0
   -2.5510   -1.9640    3.2600 H   0  0  0  0  0  0  0  0  0  0  0  0
   -3.1370    0.1930    2.2650 H   0  0  0  0  0  0  0  0  0  0  0  0
   -1.9250    1.4450    4.0680 H   0  0  0  0  0  0  0  0  0  0  0  0
   -0.3760    0.9050    3.4080 H   0  0  0  0  0  0  0  0  0  0  0  0
   -3.2970    3.1150    2.7530 H   0  0  0  0  0  0  0  0  0  0  0  0
   -3.1270    4.9940    1.2000 H   0  0  0  0  0  0  0  0  0  0  0  0
   -1.1560    5.2880   -0.2500 H   0  0  0  0  0  0  0  0  0  0  0  0
    0.6450    3.6370   -0.0970 H   0  0  0  0  0  0  0  0  0  0  0  0
    0.5510    1.7620    1.4080 H   0  0  0  0  0  0  0  0  0  0  0  0
   -0.7870   -1.7860    1.2350 N   0  0  0  0  0  0  0  0  0  0  0  0
   -0.1000   -2.4050    0.1460 C   0  0  1  0  0  0  0  0  0  0  0  0
   -0.5090   -1.8860   -1.2390 C   0  0  0  0  0  0  0  0  0  0  0  0
   -1.9440   -2.1580   -1.5600 C   0  0  0  0  0  0  0  0  0  0  0  0
   -2.2500   -1.5750   -2.9240 C   0  0  0  0  0  0  0  0  0  0  0  0
   -1.4250   -2.1460   -4.0290 C   0  0  0  0  0  0  0  0  0  0  0  0
   -1.8630   -1.4690   -5.2600 N   0  0  0  0  0  0  0  0  0  0  0  0
    1.3220   -2.6190    0.2950 C   0  0  0  0  0  0  0  0  0  0  0  0
    1.9720   -3.1590   -0.6250 O   0  0  0  0  0  0  0  0  0  0  0  0
   -0.8610   -2.3160    2.1720 H   0  0  0  0  0  0  0  0  0  0  0  0
   -0.6080   -3.4580    0.0850 H   0  0  0  0  0  0  0  0  0  0  0  0
   -0.1750   -0.8630   -1.3370 H   0  0  0  0  0  0  0  0  0  0  0  0
    0.1250   -2.4730   -1.9820 H   0  0  0  0  0  0  0  0  0  0  0  0
   -2.0750   -3.2810   -1.6670 H   0  0  0  0  0  0  0  0  0  0  0  0
   -2.6120   -1.7420   -0.8320 H   0  0  0  0  0  0  0  0  0  0  0  0
   -2.0450   -0.4710   -2.8950 H   0  0  0  0  0  0  0  0  0  0  0  0
   -3.3260   -1.6890   -3.1730 H   0  0  0  0  0  0  0  0  0  0  0  0
   -0.3410   -1.9440   -3.8760 H   0  0  0  0  0  0  0  0  0  0  0  0
   -1.6250   -3.2160   -4.1890 H   0  0  0  0  0  0  0  0  0  0  0  0
   -2.8900   -1.6340   -5.3620 H   0  0  0  0  0  0  0  0  0  0  0  0
   -1.3770   -1.9410   -6.0550 H   0  0  0  0  0  0  0  0  0  0  0  0
    5.5330   -1.4270    2.0500 O   0  0  0  0  0  0  0  0  0  0  0  0
    4.1830   -1.1400    1.8940 C   0  0  0  0  0  0  0  0  0  0  0  0
    3.4420   -2.4340    1.6400 C   0  0  2  0  0  0  0  0  0  0  0  0
    2.0300   -2.2340    1.4660 N   0  0  0  0  0  0  0  0  0  0  0  0
    3.7240   -3.3340    2.7810 C   0  0  0  0  0  0  0  0  0  0  0  0
    2.7580   -3.7990    3.4340 O   0  0  0  0  0  0  0  0  0  0  0  0
    4.9980   -3.6760    3.1480 O   0  0  0  0  0  0  0  0  0  0  0  0
    6.0960   -0.9430    1.3880 H   0  0  0  0  0  0  0  0  0  0  0  0
    3.7900   -0.6290    2.7730 H   0  0  0  0  0  0  0  0  0  0  0  0
    4.0450   -0.5250    0.9590 H   0  0  0  0  0  0  0  0  0  0  0  0
    3.8270   -2.9240    0.7250 H   0  0  0  0  0  0  0  0  0  0  0  0
    1.4610   -1.7820    2.2250 H   0  0  0  0  0  0  0  0  0  0  0  0
  1 12  1  0  0  0  0
  2 14  1  6  0  0  0
  2  3  1  0  0  0  0
  2  1  1  0  0  0  0
  3 16  1  0  0  0  0
  3 15  1  0  0  0  0
  4  3  1  0  0  0  0
  5  4  1  0  0  0  0
  5 17  1  0  0  0  0
  6  5  2  0  0  0  0
  7  8  2  0  0  0  0
  7  6  1  0  0  0  0
  8  9  1  0  0  0  0
  9 21  1  0  0  0  0
  9  4  2  0  0  0  0
 10  2  1  0  0  0  0
 11 10  2  0  0  0  0
 13  1  1  0  0  0  0
 18  6  1  0  0  0  0
 19  7  1  0  0  0  0
 20  8  1  0  0  0  0
 22 10  1  0  0  0  0
 22 31  1  0  0  0  0
 23 32  1  1  0  0  0
 23 29  1  0  0  0  0
 23 22  1  0  0  0  0
 24 23  1  0  0  0  0
 25 24  1  0  0  0  0
 25 36  1  0  0  0  0
 26 37  1  0  0  0  0
 26 25  1  0  0  0  0
 27 39  1  0  0  0  0
 27 26  1  0  0  0  0
 28 27  1  0  0  0  0
 29 46  1  0  0  0  0
 30 29  2  0  0  0  0
 33 24  1  0  0  0  0
 34 24  1  0  0  0  0
 35 25  1  0  0  0  0
 38 26  1  0  0  0  0
 40 27  1  0  0  0  0
 41 28  1  0  0  0  0
 42 28  1  0  0  0  0
 44 43  1  0  0  0  0
 44 51  1  0  0  0  0
 45 53  1  6  0  0  0
 45 44  1  0  0  0  0
 45 47  1  0  0  0  0
 46 45  1  0  0  0  0
 46 54  1  0  0  0  0
 47 49  2  0  0  0  0
 47 48  1  0  0  0  0
 50 43  1  0  0  0  0
 52 44  1  0  0  0  0
M  END
$$$$
