FKT.pdb
 OpenBabel07022419003D

 57 57  0  0  1  0  0  0  0  0999 V2000
    3.6600    0.0350   -0.1160 N   0  0  0  0  0  0  0  0  0  0  0  0
    3.6930   -1.2860    0.5090 C   0  0  1  0  0  0  0  0  0  0  0  0
    4.4410   -1.2430    1.8200 C   0  0  0  0  0  0  0  0  0  0  0  0
    3.8430   -0.3420    2.8190 C   0  0  0  0  0  0  0  0  0  0  0  0
    4.1380    1.0060    2.8270 C   0  0  0  0  0  0  0  0  0  0  0  0
    3.6010    1.8570    3.7850 C   0  0  0  0  0  0  0  0  0  0  0  0
    2.7560    1.3640    4.7550 C   0  0  0  0  0  0  0  0  0  0  0  0
    2.4420    0.0450    4.7820 C   0  0  0  0  0  0  0  0  0  0  0  0
    2.9930   -0.8110    3.8040 C   0  0  0  0  0  0  0  0  0  0  0  0
    2.2910   -1.7530    0.7560 C   0  0  0  0  0  0  0  0  0  0  0  0
    2.1100   -2.8270    1.3860 O   0  0  0  0  0  0  0  0  0  0  0  0
    3.1590    0.7420    0.4290 H   0  0  0  0  0  0  0  0  0  0  0  0
    3.3430   -0.0230   -1.1100 H   0  0  0  0  0  0  0  0  0  0  0  0
    4.2510   -1.9500   -0.1750 H   0  0  0  0  0  0  0  0  0  0  0  0
    4.4740   -2.2680    2.2850 H   0  0  0  0  0  0  0  0  0  0  0  0
    5.5180   -0.9730    1.6750 H   0  0  0  0  0  0  0  0  0  0  0  0
    4.7870    1.4280    2.0870 H   0  0  0  0  0  0  0  0  0  0  0  0
    3.8270    2.9170    3.7970 H   0  0  0  0  0  0  0  0  0  0  0  0
    2.3550    2.0860    5.4970 H   0  0  0  0  0  0  0  0  0  0  0  0
    1.7790   -0.3400    5.5470 H   0  0  0  0  0  0  0  0  0  0  0  0
    2.7230   -1.8440    3.8620 H   0  0  0  0  0  0  0  0  0  0  0  0
    1.1640   -0.9970    0.2840 N   0  0  0  0  0  0  0  0  0  0  0  0
   -0.1950   -1.3760    0.4870 C   0  0  1  0  0  0  0  0  0  0  0  0
   -1.0200   -0.4220    1.2280 C   0  0  0  0  0  0  0  0  0  0  0  0
   -1.1960    0.9590    0.7190 C   0  0  0  0  0  0  0  0  0  0  0  0
   -1.7670    1.1490   -0.6310 C   0  0  0  0  0  0  0  0  0  0  0  0
   -1.8950    2.6540   -0.8740 C   0  0  0  0  0  0  0  0  0  0  0  0
   -0.6130    3.3230   -0.7960 N   0  0  0  0  0  0  0  0  0  0  0  0
   -0.7940   -2.0810   -0.6530 C   0  0  0  0  0  0  0  0  0  0  0  0
   -0.0120   -2.4260   -1.6110 O   0  0  0  0  0  0  0  0  0  0  0  0
    1.4550   -0.1140   -0.2470 H   0  0  0  0  0  0  0  0  0  0  0  0
   -0.0830   -2.2680    1.2550 H   0  0  0  0  0  0  0  0  0  0  0  0
   -2.0230   -0.8380    1.4690 H   0  0  0  0  0  0  0  0  0  0  0  0
   -0.5520   -0.3020    2.2570 H   0  0  0  0  0  0  0  0  0  0  0  0
   -1.9150    1.4590    1.4330 H   0  0  0  0  0  0  0  0  0  0  0  0
   -0.2650    1.5940    0.8430 H   0  0  0  0  0  0  0  0  0  0  0  0
   -2.7610    0.6970   -0.7690 H   0  0  0  0  0  0  0  0  0  0  0  0
   -1.1250    0.7820   -1.4570 H   0  0  0  0  0  0  0  0  0  0  0  0
   -2.4010    2.8440   -1.8400 H   0  0  0  0  0  0  0  0  0  0  0  0
   -2.5360    3.1040   -0.0640 H   0  0  0  0  0  0  0  0  0  0  0  0
    0.0310    2.8650   -1.5090 H   0  0  0  0  0  0  0  0  0  0  0  0
   -0.6880    4.3200   -1.1460 H   0  0  0  0  0  0  0  0  0  0  0  0
   -3.9210   -4.8910   -0.4720 C   0  0  0  0  0  0  0  0  0  0  0  0
   -4.0040   -3.8380   -1.5210 C   0  0  1  0  0  0  0  0  0  0  0  0
   -4.9160   -2.8130   -1.1080 O   0  0  0  0  0  0  0  0  0  0  0  0
   -2.7440   -3.1300   -1.8670 C   0  0  2  0  0  0  0  0  0  0  0  0
   -2.1410   -2.4050   -0.7730 N   0  0  0  0  0  0  0  0  0  0  0  0
   -3.0690   -2.2070   -3.0210 C   0  0  0  0  0  0  0  0  0  0  0  0
   -3.6310   -2.6000   -4.0590 O   0  0  0  0  0  0  0  0  0  0  0  0
   -2.7430   -0.8390   -2.9810 O   0  0  0  0  0  0  0  0  0  0  0  0
   -2.9290   -5.0500   -0.0350 H   0  0  0  0  0  0  0  0  0  0  0  0
   -4.6760   -4.6300    0.3190 H   0  0  0  0  0  0  0  0  0  0  0  0
   -4.2550   -5.8770   -0.9060 H   0  0  0  0  0  0  0  0  0  0  0  0
   -4.4290   -4.2510   -2.4670 H   0  0  0  0  0  0  0  0  0  0  0  0
   -4.6840   -1.9460   -1.4950 H   0  0  0  0  0  0  0  0  0  0  0  0
   -1.9630   -3.7970   -2.3100 H   0  0  0  0  0  0  0  0  0  0  0  0
   -2.7820   -2.0850    0.0190 H   0  0  0  0  0  0  0  0  0  0  0  0
  1 12  1  0  0  0  0
  1  2  1  0  0  0  0
  2 14  1  6  0  0  0
  2 10  1  0  0  0  0
  2  3  1  0  0  0  0
  3 15  1  0  0  0  0
  3  4  1  0  0  0  0
  4  5  2  0  0  0  0
  4  9  1  0  0  0  0
  5  6  1  0  0  0  0
  6 18  1  0  0  0  0
  6  7  2  0  0  0  0
  7  8  1  0  0  0  0
  7 19  1  0  0  0  0
  8 20  1  0  0  0  0
  9 21  1  0  0  0  0
  9  8  2  0  0  0  0
 10 11  2  0  0  0  0
 13  1  1  0  0  0  0
 16  3  1  0  0  0  0
 17  5  1  0  0  0  0
 22 23  1  0  0  0  0
 22 10  1  0  0  0  0
 23 24  1  0  0  0  0
 23 32  1  1  0  0  0
 24 33  1  0  0  0  0
 24 34  1  0  0  0  0
 25 36  1  0  0  0  0
 25 24  1  0  0  0  0
 25 35  1  0  0  0  0
 26 25  1  0  0  0  0
 27 28  1  0  0  0  0
 27 26  1  0  0  0  0
 27 40  1  0  0  0  0
 29 23  1  0  0  0  0
 30 29  2  0  0  0  0
 31 22  1  0  0  0  0
 37 26  1  0  0  0  0
 38 26  1  0  0  0  0
 39 27  1  0  0  0  0
 41 28  1  0  0  0  0
 42 28  1  0  0  0  0
 43 51  1  0  0  0  0
 43 52  1  0  0  0  0
 44 54  1  6  0  0  0
 44 45  1  0  0  0  0
 44 43  1  0  0  0  0
 46 56  1  6  0  0  0
 46 44  1  0  0  0  0
 46 47  1  0  0  0  0
 47 29  1  0  0  0  0
 47 57  1  0  0  0  0
 48 50  1  0  0  0  0
 48 46  1  0  0  0  0
 49 48  2  0  0  0  0
 53 43  1  0  0  0  0
 55 45  1  0  0  0  0
M  END
$$$$
