FKV.pdb
 OpenBabel07022419003D

 59 59  0  0  1  0  0  0  0  0999 V2000
    2.5970   -0.3480    3.6760 N   0  0  0  0  0  0  0  0  0  0  0  0
    2.0820    0.4130    2.5560 C   0  0  1  0  0  0  0  0  0  0  0  0
    3.1400    0.6370    1.5020 C   0  0  0  0  0  0  0  0  0  0  0  0
    4.2670    1.3880    2.1380 C   0  0  0  0  0  0  0  0  0  0  0  0
    5.3190    0.7200    2.7440 C   0  0  0  0  0  0  0  0  0  0  0  0
    6.3260    1.4780    3.3100 C   0  0  0  0  0  0  0  0  0  0  0  0
    6.3110    2.8510    3.2870 C   0  0  0  0  0  0  0  0  0  0  0  0
    5.2660    3.5200    2.6850 C   0  0  0  0  0  0  0  0  0  0  0  0
    4.2680    2.7640    2.1240 C   0  0  0  0  0  0  0  0  0  0  0  0
    0.8980   -0.2940    2.0100 C   0  0  0  0  0  0  0  0  0  0  0  0
    0.4610   -1.3230    2.5790 O   0  0  0  0  0  0  0  0  0  0  0  0
    2.8530    0.3240    4.4500 H   0  0  0  0  0  0  0  0  0  0  0  0
    1.9260   -1.0690    4.0060 H   0  0  0  0  0  0  0  0  0  0  0  0
    1.7010    1.4100    2.9070 H   0  0  0  0  0  0  0  0  0  0  0  0
    3.5370   -0.3000    1.0830 H   0  0  0  0  0  0  0  0  0  0  0  0
    2.7530    1.2850    0.6950 H   0  0  0  0  0  0  0  0  0  0  0  0
    5.3290   -0.3450    2.7620 H   0  0  0  0  0  0  0  0  0  0  0  0
    7.1680    0.9710    3.7970 H   0  0  0  0  0  0  0  0  0  0  0  0
    7.1210    3.4140    3.7410 H   0  0  0  0  0  0  0  0  0  0  0  0
    5.2710    4.5830    2.6770 H   0  0  0  0  0  0  0  0  0  0  0  0
    3.4350    3.2750    1.6420 H   0  0  0  0  0  0  0  0  0  0  0  0
    0.2300    0.1730    0.8300 N   0  0  0  0  0  0  0  0  0  0  0  0
   -0.9270   -0.5050    0.2980 C   0  0  1  0  0  0  0  0  0  0  0  0
   -2.1550    0.3400    0.1960 C   0  0  0  0  0  0  0  0  0  0  0  0
   -2.6210    0.8850    1.4930 C   0  0  0  0  0  0  0  0  0  0  0  0
   -2.9960   -0.0750    2.5520 C   0  0  0  0  0  0  0  0  0  0  0  0
   -4.1430   -0.9960    2.2160 C   0  0  0  0  0  0  0  0  0  0  0  0
   -3.8950   -1.8330    1.0670 N   0  0  0  0  0  0  0  0  0  0  0  0
   -0.6160   -1.2180   -0.9690 C   0  0  0  0  0  0  0  0  0  0  0  0
    0.5620   -1.2170   -1.4610 O   0  0  0  0  0  0  0  0  0  0  0  0
    0.6480    1.0280    0.3980 H   0  0  0  0  0  0  0  0  0  0  0  0
   -1.1640   -1.3390    1.0280 H   0  0  0  0  0  0  0  0  0  0  0  0
   -1.9500    1.2350   -0.4630 H   0  0  0  0  0  0  0  0  0  0  0  0
   -2.9230   -0.2270   -0.3610 H   0  0  0  0  0  0  0  0  0  0  0  0
   -1.8820    1.6520    1.8350 H   0  0  0  0  0  0  0  0  0  0  0  0
   -3.5440    1.5020    1.2750 H   0  0  0  0  0  0  0  0  0  0  0  0
   -3.3120    0.5300    3.4460 H   0  0  0  0  0  0  0  0  0  0  0  0
   -2.1730   -0.7280    2.8980 H   0  0  0  0  0  0  0  0  0  0  0  0
   -4.3300   -1.6950    3.0840 H   0  0  0  0  0  0  0  0  0  0  0  0
   -5.0960   -0.4390    2.0790 H   0  0  0  0  0  0  0  0  0  0  0  0
   -3.5140   -2.7580    1.3800 H   0  0  0  0  0  0  0  0  0  0  0  0
   -4.7190   -2.0130    0.4720 H   0  0  0  0  0  0  0  0  0  0  0  0
   -2.8910   -4.3920   -2.3620 C   0  0  0  0  0  0  0  0  0  0  0  0
   -1.4750   -4.1140   -2.7150 C   0  0  0  0  0  0  0  0  0  0  0  0
   -1.0440   -4.9990   -3.8580 C   0  0  0  0  0  0  0  0  0  0  0  0
   -1.2480   -2.6510   -2.9610 C   0  0  2  0  0  0  0  0  0  0  0  0
   -1.5830   -1.9440   -1.7160 N   0  0  0  0  0  0  0  0  0  0  0  0
   -2.2140   -2.1930   -3.9830 C   0  0  0  0  0  0  0  0  0  0  0  0
   -2.1500   -2.6370   -5.1550 O   0  0  0  0  0  0  0  0  0  0  0  0
   -3.2190   -1.2730   -3.7110 O   0  0  0  0  0  0  0  0  0  0  0  0
   -2.9260   -5.4260   -1.9150 H   0  0  0  0  0  0  0  0  0  0  0  0
   -3.3340   -3.7410   -1.6160 H   0  0  0  0  0  0  0  0  0  0  0  0
   -3.4760   -4.4620   -3.3040 H   0  0  0  0  0  0  0  0  0  0  0  0
   -0.8640   -4.3590   -1.7960 H   0  0  0  0  0  0  0  0  0  0  0  0
    0.0090   -4.7610   -4.0980 H   0  0  0  0  0  0  0  0  0  0  0  0
   -1.7210   -4.9260   -4.7050 H   0  0  0  0  0  0  0  0  0  0  0  0
   -1.0410   -6.0580   -3.4790 H   0  0  0  0  0  0  0  0  0  0  0  0
   -0.1970   -2.4420   -3.2520 H   0  0  0  0  0  0  0  0  0  0  0  0
   -2.5580   -1.9540   -1.3600 H   0  0  0  0  0  0  0  0  0  0  0  0
  1 13  1  0  0  0  0
  1 12  1  0  0  0  0
  2 14  1  1  0  0  0
  2  1  1  0  0  0  0
  3  4  1  0  0  0  0
  3  2  1  0  0  0  0
  4  5  1  0  0  0  0
  5 17  1  0  0  0  0
  5  6  2  0  0  0  0
  6 18  1  0  0  0  0
  7  6  1  0  0  0  0
  7 19  1  0  0  0  0
  8  7  2  0  0  0  0
  9  4  2  0  0  0  0
  9  8  1  0  0  0  0
 10  2  1  0  0  0  0
 10 11  2  0  0  0  0
 15  3  1  0  0  0  0
 16  3  1  0  0  0  0
 20  8  1  0  0  0  0
 21  9  1  0  0  0  0
 22 10  1  0  0  0  0
 23 22  1  0  0  0  0
 23 32  1  1  0  0  0
 24 23  1  0  0  0  0
 24 25  1  0  0  0  0
 25 35  1  0  0  0  0
 25 26  1  0  0  0  0
 26 38  1  0  0  0  0
 26 37  1  0  0  0  0
 27 26  1  0  0  0  0
 27 39  1  0  0  0  0
 28 41  1  0  0  0  0
 28 27  1  0  0  0  0
 29 23  1  0  0  0  0
 30 29  2  0  0  0  0
 31 22  1  0  0  0  0
 33 24  1  0  0  0  0
 34 24  1  0  0  0  0
 36 25  1  0  0  0  0
 40 27  1  0  0  0  0
 42 28  1  0  0  0  0
 43 51  1  0  0  0  0
 43 52  1  0  0  0  0
 44 43  1  0  0  0  0
 44 54  1  0  0  0  0
 45 57  1  0  0  0  0
 45 44  1  0  0  0  0
 46 58  1  6  0  0  0
 46 44  1  0  0  0  0
 46 47  1  0  0  0  0
 47 59  1  0  0  0  0
 47 29  1  0  0  0  0
 48 50  1  0  0  0  0
 48 46  1  0  0  0  0
 49 48  2  0  0  0  0
 53 43  1  0  0  0  0
 55 45  1  0  0  0  0
 56 45  1  0  0  0  0
M  END
$$$$
