FKW.pdb
 OpenBabel07022419003D

 67 69  0  0  1  0  0  0  0  0999 V2000
    4.5750   -1.5240    2.1050 N   0  0  0  0  0  0  0  0  0  0  0  0
    3.1240   -1.5230    2.0580 C   0  0  1  0  0  0  0  0  0  0  0  0
    2.6810   -0.8980    3.3750 C   0  0  0  0  0  0  0  0  0  0  0  0
    3.2400    0.4800    3.5030 C   0  0  0  0  0  0  0  0  0  0  0  0
    4.4230    0.6920    4.1500 C   0  0  0  0  0  0  0  0  0  0  0  0
    4.9540    1.9740    4.2580 C   0  0  0  0  0  0  0  0  0  0  0  0
    4.2780    3.0480    3.7030 C   0  0  0  0  0  0  0  0  0  0  0  0
    3.0900    2.8100    3.0560 C   0  0  0  0  0  0  0  0  0  0  0  0
    2.5700    1.5400    2.9520 C   0  0  0  0  0  0  0  0  0  0  0  0
    2.5840   -0.7700    0.9030 C   0  0  0  0  0  0  0  0  0  0  0  0
    3.3500    0.0620    0.3510 O   0  0  0  0  0  0  0  0  0  0  0  0
    4.8410   -2.1470    2.9000 H   0  0  0  0  0  0  0  0  0  0  0  0
    4.8930   -2.0080    1.2260 H   0  0  0  0  0  0  0  0  0  0  0  0
    2.7650   -2.5520    2.0170 H   0  0  0  0  0  0  0  0  0  0  0  0
    1.5820   -0.8620    3.4540 H   0  0  0  0  0  0  0  0  0  0  0  0
    3.0640   -1.4840    4.2290 H   0  0  0  0  0  0  0  0  0  0  0  0
    4.9660   -0.1570    4.5940 H   0  0  0  0  0  0  0  0  0  0  0  0
    5.8840    2.1470    4.7670 H   0  0  0  0  0  0  0  0  0  0  0  0
    4.7180    4.0510    3.8010 H   0  0  0  0  0  0  0  0  0  0  0  0
    2.5500    3.6590    2.6140 H   0  0  0  0  0  0  0  0  0  0  0  0
    1.6380    1.3670    2.4330 H   0  0  0  0  0  0  0  0  0  0  0  0
    1.2790   -0.9530    0.4140 N   0  0  0  0  0  0  0  0  0  0  0  0
    0.7380   -0.1910   -0.7470 C   0  0  1  0  0  0  0  0  0  0  0  0
    0.9320   -0.9870   -1.9560 C   0  0  0  0  0  0  0  0  0  0  0  0
    0.5900   -0.6410   -3.3100 C   0  0  0  0  0  0  0  0  0  0  0  0
   -0.8200   -0.4330   -3.7470 C   0  0  0  0  0  0  0  0  0  0  0  0
   -1.6300   -1.7080   -3.4640 C   0  0  0  0  0  0  0  0  0  0  0  0
   -2.9900   -1.4780   -3.8880 N   0  0  0  0  0  0  0  0  0  0  0  0
   -0.5240    0.3990   -0.3630 C   0  0  0  0  0  0  0  0  0  0  0  0
   -1.2410    1.1590   -1.0590 O   0  0  0  0  0  0  0  0  0  0  0  0
    0.6440   -1.6410    0.8340 H   0  0  0  0  0  0  0  0  0  0  0  0
    1.4910    0.6710   -0.8370 H   0  0  0  0  0  0  0  0  0  0  0  0
    0.5530   -2.0750   -1.8030 H   0  0  0  0  0  0  0  0  0  0  0  0
    2.0700   -1.2360   -1.9670 H   0  0  0  0  0  0  0  0  0  0  0  0
    1.2620    0.1710   -3.7590 H   0  0  0  0  0  0  0  0  0  0  0  0
    0.9390   -1.5270   -3.9680 H   0  0  0  0  0  0  0  0  0  0  0  0
   -0.7870   -0.4380   -4.9010 H   0  0  0  0  0  0  0  0  0  0  0  0
   -1.3720    0.4090   -3.4040 H   0  0  0  0  0  0  0  0  0  0  0  0
   -1.2400   -2.5610   -4.0520 H   0  0  0  0  0  0  0  0  0  0  0  0
   -1.6250   -1.9480   -2.4000 H   0  0  0  0  0  0  0  0  0  0  0  0
   -3.1380   -1.5930   -4.9110 H   0  0  0  0  0  0  0  0  0  0  0  0
   -3.3110   -0.5490   -3.5810 H   0  0  0  0  0  0  0  0  0  0  0  0
   -1.1380    0.1670    0.9400 N   0  0  0  0  0  0  0  0  0  0  0  0
   -2.4060    0.7580    1.3060 C   0  0  1  0  0  0  0  0  0  0  0  0
   -3.4640   -0.2030    1.7160 C   0  0  0  0  0  0  0  0  0  0  0  0
   -3.7960   -1.1410    0.6300 C   0  0  0  0  0  0  0  0  0  0  0  0
   -4.8890   -0.9980   -0.2460 C   0  0  0  0  0  0  0  0  0  0  0  0
   -4.8890   -2.0140   -1.1130 N   0  0  0  0  0  0  0  0  0  0  0  0
   -3.8580   -2.8370   -0.8740 C   0  0  0  0  0  0  0  0  0  0  0  0
   -3.4470   -4.0150   -1.4950 C   0  0  0  0  0  0  0  0  0  0  0  0
   -2.3300   -4.6630   -1.0160 C   0  0  0  0  0  0  0  0  0  0  0  0
   -1.6590   -4.1250    0.0580 C   0  0  0  0  0  0  0  0  0  0  0  0
   -2.0650   -2.9550    0.6770 C   0  0  0  0  0  0  0  0  0  0  0  0
   -3.1720   -2.2930    0.2180 C   0  0  0  0  0  0  0  0  0  0  0  0
   -2.1420    1.6740    2.4730 C   0  0  0  0  0  0  0  0  0  0  0  0
   -3.1550    2.2850    2.9070 O   0  0  0  0  0  0  0  0  0  0  0  0
   -0.9230    1.8660    3.0550 O   0  0  0  0  0  0  0  0  0  0  0  0
   -0.6340   -0.4190    1.6160 H   0  0  0  0  0  0  0  0  0  0  0  0
   -2.8110    1.3690    0.4520 H   0  0  0  0  0  0  0  0  0  0  0  0
   -3.0640   -0.7910    2.5770 H   0  0  0  0  0  0  0  0  0  0  0  0
   -4.3660    0.3790    2.0190 H   0  0  0  0  0  0  0  0  0  0  0  0
   -5.5680   -0.1640   -0.1530 H   0  0  0  0  0  0  0  0  0  0  0  0
   -5.5840   -2.1520   -1.8660 H   0  0  0  0  0  0  0  0  0  0  0  0
   -4.0010   -4.4070   -2.3370 H   0  0  0  0  0  0  0  0  0  0  0  0
   -1.9510   -5.5780   -1.4430 H   0  0  0  0  0  0  0  0  0  0  0  0
   -0.7740   -4.6020    0.4680 H   0  0  0  0  0  0  0  0  0  0  0  0
   -1.5370   -2.5490    1.5270 H   0  0  0  0  0  0  0  0  0  0  0  0
  1 12  1  0  0  0  0
  2 14  1  6  0  0  0
  2  1  1  0  0  0  0
  2  3  1  0  0  0  0
  3 15  1  0  0  0  0
  3  4  1  0  0  0  0
  3 16  1  0  0  0  0
  4  5  1  0  0  0  0
  5  6  2  0  0  0  0
  5 17  1  0  0  0  0
  6 18  1  0  0  0  0
  7 19  1  0  0  0  0
  7  6  1  0  0  0  0
  8  7  2  0  0  0  0
  9  8  1  0  0  0  0
  9  4  2  0  0  0  0
 10  2  1  0  0  0  0
 11 10  2  0  0  0  0
 13  1  1  0  0  0  0
 20  8  1  0  0  0  0
 21  9  1  0  0  0  0
 22 31  1  0  0  0  0
 22 10  1  0  0  0  0
 23 32  1  6  0  0  0
 23 29  1  0  0  0  0
 23 22  1  0  0  0  0
 24 33  1  0  0  0  0
 24 23  1  0  0  0  0
 25 24  1  0  0  0  0
 26 27  1  0  0  0  0
 26 38  1  0  0  0  0
 26 25  1  0  0  0  0
 27 40  1  0  0  0  0
 28 42  1  0  0  0  0
 28 27  1  0  0  0  0
 29 43  1  0  0  0  0
 30 29  2  0  0  0  0
 34 24  1  0  0  0  0
 35 25  1  0  0  0  0
 36 25  1  0  0  0  0
 37 26  1  0  0  0  0
 39 27  1  0  0  0  0
 41 28  1  0  0  0  0
 43 44  1  0  0  0  0
 43 58  1  0  0  0  0
 44 59  1  6  0  0  0
 44 45  1  0  0  0  0
 44 55  1  0  0  0  0
 45 61  1  0  0  0  0
 45 60  1  0  0  0  0
 46 45  1  0  0  0  0
 47 62  1  0  0  0  0
 47 46  2  0  0  0  0
 48 49  1  0  0  0  0
 48 47  1  0  0  0  0
 49 54  1  0  0  0  0
 50 51  1  0  0  0  0
 50 49  2  0  0  0  0
 51 52  2  0  0  0  0
 52 66  1  0  0  0  0
 52 53  1  0  0  0  0
 53 67  1  0  0  0  0
 54 46  1  0  0  0  0
 54 53  2  0  0  0  0
 55 56  2  0  0  0  0
 55 57  1  0  0  0  0
 63 48  1  0  0  0  0
 64 50  1  0  0  0  0
 65 51  1  0  0  0  0
M  END
$$$$
