FKY.pdb
 OpenBabel07022419003D

 64 65  0  0  1  0  0  0  0  0999 V2000
    2.0480    0.8640    1.4200 N   0  0  0  0  0  0  0  0  0  0  0  0
    2.2080    0.9750   -0.0360 C   0  0  1  0  0  0  0  0  0  0  0  0
    2.9280   -0.3000   -0.5150 C   0  0  0  0  0  0  0  0  0  0  0  0
    4.2600   -0.4050    0.1180 C   0  0  0  0  0  0  0  0  0  0  0  0
    5.3550    0.0860   -0.6090 C   0  0  0  0  0  0  0  0  0  0  0  0
    6.6200    0.0430   -0.0910 C   0  0  0  0  0  0  0  0  0  0  0  0
    6.8520   -0.4950    1.1800 C   0  0  0  0  0  0  0  0  0  0  0  0
    5.7850   -0.9730    1.8850 C   0  0  0  0  0  0  0  0  0  0  0  0
    4.5100   -0.9260    1.3580 C   0  0  0  0  0  0  0  0  0  0  0  0
    0.9200    1.0290   -0.7240 C   0  0  0  0  0  0  0  0  0  0  0  0
    0.7450    1.9570   -1.6020 O   0  0  0  0  0  0  0  0  0  0  0  0
    1.0690    0.5640    1.6510 H   0  0  0  0  0  0  0  0  0  0  0  0
    2.3320    1.7390    1.9160 H   0  0  0  0  0  0  0  0  0  0  0  0
    2.8110    1.8770   -0.2250 H   0  0  0  0  0  0  0  0  0  0  0  0
    3.0380   -0.3200   -1.6050 H   0  0  0  0  0  0  0  0  0  0  0  0
    2.2450   -1.1410   -0.2250 H   0  0  0  0  0  0  0  0  0  0  0  0
    5.2040    0.5080   -1.5980 H   0  0  0  0  0  0  0  0  0  0  0  0
    7.4690    0.4080   -0.6280 H   0  0  0  0  0  0  0  0  0  0  0  0
    7.8680   -0.5320    1.5910 H   0  0  0  0  0  0  0  0  0  0  0  0
    5.9610   -1.3990    2.8870 H   0  0  0  0  0  0  0  0  0  0  0  0
    3.6560   -1.3090    1.9310 H   0  0  0  0  0  0  0  0  0  0  0  0
   -0.1260    0.1480   -0.4960 N   0  0  0  0  0  0  0  0  0  0  0  0
   -1.3740    0.2820   -1.2020 C   0  0  1  0  0  0  0  0  0  0  0  0
   -1.5350   -0.7720   -2.2730 C   0  0  0  0  0  0  0  0  0  0  0  0
   -2.7950   -0.6830   -3.0590 C   0  0  0  0  0  0  0  0  0  0  0  0
   -2.7750   -1.8080   -4.1080 C   0  0  0  0  0  0  0  0  0  0  0  0
   -4.0540   -1.7080   -4.9080 C   0  0  0  0  0  0  0  0  0  0  0  0
   -4.0860   -2.7500   -5.9180 N   0  0  0  0  0  0  0  0  0  0  0  0
   -2.4960    0.3780   -0.2620 C   0  0  0  0  0  0  0  0  0  0  0  0
   -3.6950    0.5520   -0.5860 O   0  0  0  0  0  0  0  0  0  0  0  0
   -0.0580   -0.6710    0.1910 H   0  0  0  0  0  0  0  0  0  0  0  0
   -1.3250    1.2720   -1.7500 H   0  0  0  0  0  0  0  0  0  0  0  0
   -0.6780   -0.7080   -2.9700 H   0  0  0  0  0  0  0  0  0  0  0  0
   -1.4550   -1.7920   -1.7930 H   0  0  0  0  0  0  0  0  0  0  0  0
   -3.7320   -0.7390   -2.4910 H   0  0  0  0  0  0  0  0  0  0  0  0
   -2.8080    0.2670   -3.6390 H   0  0  0  0  0  0  0  0  0  0  0  0
   -1.8780   -1.6670   -4.7470 H   0  0  0  0  0  0  0  0  0  0  0  0
   -2.6940   -2.7870   -3.6410 H   0  0  0  0  0  0  0  0  0  0  0  0
   -4.1630   -0.7220   -5.3930 H   0  0  0  0  0  0  0  0  0  0  0  0
   -4.9300   -1.9100   -4.2340 H   0  0  0  0  0  0  0  0  0  0  0  0
   -3.7800   -3.6750   -5.5640 H   0  0  0  0  0  0  0  0  0  0  0  0
   -3.4480   -2.5110   -6.7210 H   0  0  0  0  0  0  0  0  0  0  0  0
    1.1970   -2.6510    5.5880 O   0  0  0  0  0  0  0  0  0  0  0  0
    0.0500   -2.2120    4.9470 C   0  0  0  0  0  0  0  0  0  0  0  0
   -0.8510   -1.3870    5.5620 C   0  0  0  0  0  0  0  0  0  0  0  0
   -1.9990   -0.9480    4.9180 C   0  0  0  0  0  0  0  0  0  0  0  0
   -2.2760   -1.3230    3.6390 C   0  0  0  0  0  0  0  0  0  0  0  0
   -3.4830   -0.9010    2.8950 C   0  0  0  0  0  0  0  0  0  0  0  0
   -3.2940    0.3650    2.1210 C   0  0  2  0  0  0  0  0  0  0  0  0
   -2.2390    0.2730    1.1310 N   0  0  0  0  0  0  0  0  0  0  0  0
   -2.9460    1.4440    3.0740 C   0  0  0  0  0  0  0  0  0  0  0  0
   -3.7120    1.7960    4.0310 O   0  0  0  0  0  0  0  0  0  0  0  0
   -1.3760   -2.1640    2.9890 C   0  0  0  0  0  0  0  0  0  0  0  0
   -0.2560   -2.5830    3.6410 C   0  0  0  0  0  0  0  0  0  0  0  0
   -1.7340    2.1510    2.9790 O   0  0  0  0  0  0  0  0  0  0  0  0
    1.9040   -1.9400    5.7730 H   0  0  0  0  0  0  0  0  0  0  0  0
   -0.6670   -1.0650    6.5880 H   0  0  0  0  0  0  0  0  0  0  0  0
   -2.7080   -0.2880    5.4240 H   0  0  0  0  0  0  0  0  0  0  0  0
   -4.2890   -0.7000    3.6580 H   0  0  0  0  0  0  0  0  0  0  0  0
   -3.7960   -1.7620    2.2670 H   0  0  0  0  0  0  0  0  0  0  0  0
   -4.2700    0.6700    1.6340 H   0  0  0  0  0  0  0  0  0  0  0  0
   -1.2710    0.1230    1.5400 H   0  0  0  0  0  0  0  0  0  0  0  0
   -1.6120   -2.4630    1.9590 H   0  0  0  0  0  0  0  0  0  0  0  0
    0.4590   -3.2380    3.1560 H   0  0  0  0  0  0  0  0  0  0  0  0
  1 12  1  0  0  0  0
  1 13  1  0  0  0  0
  2 14  1  6  0  0  0
  2  1  1  0  0  0  0
  3 16  1  0  0  0  0
  3  2  1  0  0  0  0
  3  4  1  0  0  0  0
  4  9  1  0  0  0  0
  5  6  1  0  0  0  0
  5  4  2  0  0  0  0
  6  7  2  0  0  0  0
  7 19  1  0  0  0  0
  7  8  1  0  0  0  0
  8 20  1  0  0  0  0
  9  8  2  0  0  0  0
  9 21  1  0  0  0  0
 10 22  1  0  0  0  0
 10  2  1  0  0  0  0
 11 10  2  0  0  0  0
 15  3  1  0  0  0  0
 17  5  1  0  0  0  0
 18  6  1  0  0  0  0
 22 31  1  0  0  0  0
 23 32  1  6  0  0  0
 23 22  1  0  0  0  0
 23 29  1  0  0  0  0
 24 34  1  0  0  0  0
 24 23  1  0  0  0  0
 25 35  1  0  0  0  0
 25 24  1  0  0  0  0
 26 38  1  0  0  0  0
 26 25  1  0  0  0  0
 27 40  1  0  0  0  0
 27 26  1  0  0  0  0
 28 41  1  0  0  0  0
 28 27  1  0  0  0  0
 29 50  1  0  0  0  0
 30 29  2  0  0  0  0
 33 24  1  0  0  0  0
 36 25  1  0  0  0  0
 37 26  1  0  0  0  0
 39 27  1  0  0  0  0
 42 28  1  0  0  0  0
 43 56  1  0  0  0  0
 44 45  1  0  0  0  0
 44 43  1  0  0  0  0
 45 57  1  0  0  0  0
 46 58  1  0  0  0  0
 46 45  2  0  0  0  0
 47 46  1  0  0  0  0
 48 47  1  0  0  0  0
 48 59  1  0  0  0  0
 49 61  1  6  0  0  0
 49 48  1  0  0  0  0
 49 51  1  0  0  0  0
 50 62  1  0  0  0  0
 50 49  1  0  0  0  0
 51 52  1  0  0  0  0
 53 47  2  0  0  0  0
 53 54  1  0  0  0  0
 54 44  2  0  0  0  0
 55 51  2  0  0  0  0
 60 48  1  0  0  0  0
 63 53  1  0  0  0  0
 64 54  1  0  0  0  0
M  END
$$$$
