FLA.pdb
 OpenBabel07022419003D

 51 51  0  0  1  0  0  0  0  0999 V2000
    3.4970   -2.8240    2.4500 N   0  0  0  0  0  0  0  0  0  0  0  0
    2.9610   -1.8250    1.4730 C   0  0  1  0  0  0  0  0  0  0  0  0
    3.3580   -2.2790    0.0980 C   0  0  0  0  0  0  0  0  0  0  0  0
    2.9520   -1.4470   -1.0200 C   0  0  0  0  0  0  0  0  0  0  0  0
    1.8020   -1.6540   -1.7470 C   0  0  0  0  0  0  0  0  0  0  0  0
    1.5030   -0.8160   -2.7960 C   0  0  0  0  0  0  0  0  0  0  0  0
    2.2930    0.2410   -3.1760 C   0  0  0  0  0  0  0  0  0  0  0  0
    3.4500    0.4490   -2.4420 C   0  0  0  0  0  0  0  0  0  0  0  0
    3.7690   -0.3820   -1.3860 C   0  0  0  0  0  0  0  0  0  0  0  0
    1.5230   -1.6920    1.6780 C   0  0  0  0  0  0  0  0  0  0  0  0
    0.9360   -2.5510    2.4320 O   0  0  0  0  0  0  0  0  0  0  0  0
    2.6890   -3.2150    3.0080 H   0  0  0  0  0  0  0  0  0  0  0  0
    3.9610   -3.6000    1.9450 H   0  0  0  0  0  0  0  0  0  0  0  0
    3.4940   -0.8940    1.7430 H   0  0  0  0  0  0  0  0  0  0  0  0
    4.4820   -2.4230    0.1460 H   0  0  0  0  0  0  0  0  0  0  0  0
    2.9930   -3.3360   -0.0960 H   0  0  0  0  0  0  0  0  0  0  0  0
    1.1120   -2.4570   -1.5310 H   0  0  0  0  0  0  0  0  0  0  0  0
    0.5970   -1.0010   -3.3480 H   0  0  0  0  0  0  0  0  0  0  0  0
    2.0300    0.8880   -4.0100 H   0  0  0  0  0  0  0  0  0  0  0  0
    4.0660    1.2790   -2.7440 H   0  0  0  0  0  0  0  0  0  0  0  0
    4.6710   -0.1840   -0.8490 H   0  0  0  0  0  0  0  0  0  0  0  0
   -0.6670   -0.3140    4.4360 C   0  0  0  0  0  0  0  0  0  0  0  0
   -0.4010    0.8150    3.4620 C   0  0  0  0  0  0  0  0  0  0  0  0
    1.0540    1.1860    3.3790 C   0  0  0  0  0  0  0  0  0  0  0  0
   -1.0730    0.6200    2.1460 C   0  0  0  0  0  0  0  0  0  0  0  0
   -0.6710   -0.6360    1.3990 C   0  0  2  0  0  0  0  0  0  0  0  0
    0.7280   -0.6720    1.1040 N   0  0  0  0  0  0  0  0  0  0  0  0
   -1.5630   -0.7030    0.2140 C   0  0  0  0  0  0  0  0  0  0  0  0
   -1.1580   -0.7500   -0.9730 O   0  0  0  0  0  0  0  0  0  0  0  0
   -0.8660    0.0640    5.4680 H   0  0  0  0  0  0  0  0  0  0  0  0
   -1.5210   -0.9380    4.1620 H   0  0  0  0  0  0  0  0  0  0  0  0
    0.2860   -0.9110    4.5410 H   0  0  0  0  0  0  0  0  0  0  0  0
   -0.9260    1.7070    3.9260 H   0  0  0  0  0  0  0  0  0  0  0  0
    1.2400    2.0690    4.0240 H   0  0  0  0  0  0  0  0  0  0  0  0
    1.7230    0.3590    3.6960 H   0  0  0  0  0  0  0  0  0  0  0  0
    1.2500    1.5370    2.3440 H   0  0  0  0  0  0  0  0  0  0  0  0
   -2.1630    0.6320    2.2240 H   0  0  0  0  0  0  0  0  0  0  0  0
   -0.7860    1.4720    1.4840 H   0  0  0  0  0  0  0  0  0  0  0  0
   -0.9550   -1.5070    2.0440 H   0  0  0  0  0  0  0  0  0  0  0  0
    1.1670    0.0450    0.4760 H   0  0  0  0  0  0  0  0  0  0  0  0
   -4.6890   -2.0420   -0.8090 C   0  0  0  0  0  0  0  0  0  0  0  0
   -3.8530   -0.7840   -0.7910 C   0  0  2  0  0  0  0  0  0  0  0  0
   -2.9930   -0.7190    0.3660 N   0  0  0  0  0  0  0  0  0  0  0  0
   -4.6970    0.4360   -0.9160 C   0  0  0  0  0  0  0  0  0  0  0  0
   -4.6120    1.3650   -0.0740 O   0  0  0  0  0  0  0  0  0  0  0  0
   -5.6020    0.5960   -1.9540 O   0  0  0  0  0  0  0  0  0  0  0  0
   -5.7160   -1.8610   -0.4280 H   0  0  0  0  0  0  0  0  0  0  0  0
   -4.1570   -2.8010   -0.1980 H   0  0  0  0  0  0  0  0  0  0  0  0
   -4.7610   -2.4510   -1.8370 H   0  0  0  0  0  0  0  0  0  0  0  0
   -3.2160   -0.8140   -1.6950 H   0  0  0  0  0  0  0  0  0  0  0  0
   -3.4090   -0.6850    1.3260 H   0  0  0  0  0  0  0  0  0  0  0  0
  1 12  1  0  0  0  0
  2 10  1  0  0  0  0
  2 14  1  1  0  0  0
  2  1  1  0  0  0  0
  3 15  1  0  0  0  0
  3  2  1  0  0  0  0
  4  3  1  0  0  0  0
  5 17  1  0  0  0  0
  5  4  2  0  0  0  0
  6  5  1  0  0  0  0
  7  6  2  0  0  0  0
  7  8  1  0  0  0  0
  8  9  2  0  0  0  0
  9  4  1  0  0  0  0
  9 21  1  0  0  0  0
 10 11  2  0  0  0  0
 13  1  1  0  0  0  0
 16  3  1  0  0  0  0
 18  6  1  0  0  0  0
 19  7  1  0  0  0  0
 20  8  1  0  0  0  0
 22 32  1  0  0  0  0
 22 30  1  0  0  0  0
 23 33  1  0  0  0  0
 23 22  1  0  0  0  0
 24 23  1  0  0  0  0
 24 35  1  0  0  0  0
 24 34  1  0  0  0  0
 25 37  1  0  0  0  0
 25 23  1  0  0  0  0
 26 39  1  1  0  0  0
 26 25  1  0  0  0  0
 27 26  1  0  0  0  0
 27 10  1  0  0  0  0
 28 43  1  0  0  0  0
 28 26  1  0  0  0  0
 29 28  2  0  0  0  0
 31 22  1  0  0  0  0
 36 24  1  0  0  0  0
 38 25  1  0  0  0  0
 40 27  1  0  0  0  0
 41 42  1  0  0  0  0
 41 47  1  0  0  0  0
 41 48  1  0  0  0  0
 42 50  1  6  0  0  0
 42 43  1  0  0  0  0
 43 51  1  0  0  0  0
 44 42  1  0  0  0  0
 44 45  1  0  0  0  0
 46 44  2  0  0  0  0
 49 41  1  0  0  0  0
M  END
$$$$
