FLC.pdb
 OpenBabel07022419003D

 52 52  0  0  1  0  0  0  0  0999 V2000
    1.2910   -2.8620    2.8650 N   0  0  0  0  0  0  0  0  0  0  0  0
    1.7320   -1.8670    1.8990 C   0  0  1  0  0  0  0  0  0  0  0  0
    2.1760   -2.6230    0.6790 C   0  0  0  0  0  0  0  0  0  0  0  0
    2.6650   -1.7520   -0.4150 C   0  0  0  0  0  0  0  0  0  0  0  0
    1.8680   -1.2760   -1.4370 C   0  0  0  0  0  0  0  0  0  0  0  0
    2.3340   -0.4610   -2.4470 C   0  0  0  0  0  0  0  0  0  0  0  0
    3.6600   -0.1070   -2.4310 C   0  0  0  0  0  0  0  0  0  0  0  0
    4.4920   -0.5620   -1.4250 C   0  0  0  0  0  0  0  0  0  0  0  0
    4.0140   -1.3750   -0.4230 C   0  0  0  0  0  0  0  0  0  0  0  0
    0.6710   -0.8870    1.6010 C   0  0  0  0  0  0  0  0  0  0  0  0
    0.9040    0.0220    0.7830 O   0  0  0  0  0  0  0  0  0  0  0  0
    1.6620   -3.7990    2.6770 H   0  0  0  0  0  0  0  0  0  0  0  0
    1.3880   -2.5490    3.8430 H   0  0  0  0  0  0  0  0  0  0  0  0
    2.5980   -1.3290    2.3560 H   0  0  0  0  0  0  0  0  0  0  0  0
    3.0290   -3.3080    0.9360 H   0  0  0  0  0  0  0  0  0  0  0  0
    1.3530   -3.2600    0.2890 H   0  0  0  0  0  0  0  0  0  0  0  0
    0.8330   -1.5900   -1.4030 H   0  0  0  0  0  0  0  0  0  0  0  0
    1.6390   -0.1200   -3.2290 H   0  0  0  0  0  0  0  0  0  0  0  0
    4.0670    0.5300   -3.2020 H   0  0  0  0  0  0  0  0  0  0  0  0
    5.5500   -0.2610   -1.4390 H   0  0  0  0  0  0  0  0  0  0  0  0
    4.6520   -1.7460    0.3800 H   0  0  0  0  0  0  0  0  0  0  0  0
   -1.8860    1.6440    4.5660 C   0  0  0  0  0  0  0  0  0  0  0  0
   -0.8790    1.8720    3.4630 C   0  0  0  0  0  0  0  0  0  0  0  0
    0.4860    1.3970    3.8070 C   0  0  0  0  0  0  0  0  0  0  0  0
   -1.3300    1.4200    2.1340 C   0  0  0  0  0  0  0  0  0  0  0  0
   -1.6660   -0.0290    1.9750 C   0  0  2  0  0  0  0  0  0  0  0  0
   -0.5960   -0.9530    2.2170 N   0  0  0  0  0  0  0  0  0  0  0  0
   -2.2950   -0.2060    0.6430 C   0  0  0  0  0  0  0  0  0  0  0  0
   -3.2530    0.5610    0.2710 O   0  0  0  0  0  0  0  0  0  0  0  0
   -2.1440    0.5960    4.7250 H   0  0  0  0  0  0  0  0  0  0  0  0
   -2.7530    2.3120    4.4180 H   0  0  0  0  0  0  0  0  0  0  0  0
   -1.3920    1.9960    5.5110 H   0  0  0  0  0  0  0  0  0  0  0  0
   -0.8030    3.0030    3.3970 H   0  0  0  0  0  0  0  0  0  0  0  0
    1.2040    1.5880    2.9890 H   0  0  0  0  0  0  0  0  0  0  0  0
    0.9290    1.9870    4.6750 H   0  0  0  0  0  0  0  0  0  0  0  0
    0.5170    0.3530    4.1760 H   0  0  0  0  0  0  0  0  0  0  0  0
   -0.5630    1.7160    1.3870 H   0  0  0  0  0  0  0  0  0  0  0  0
   -2.2520    1.9850    1.8690 H   0  0  0  0  0  0  0  0  0  0  0  0
   -2.5280   -0.2640    2.7080 H   0  0  0  0  0  0  0  0  0  0  0  0
   -0.7350   -1.7500    2.8990 H   0  0  0  0  0  0  0  0  0  0  0  0
   -1.9100   -1.2010   -0.3000 N   0  0  0  0  0  0  0  0  0  0  0  0
   -2.5930   -1.2910   -1.5710 C   0  0  1  0  0  0  0  0  0  0  0  0
   -1.6980   -1.2420   -2.7640 C   0  0  0  0  0  0  0  0  0  0  0  0
   -2.7190   -1.3620   -4.2770 S   0  0  0  0  0  0  0  0  0  0  0  0
   -3.3300   -2.5990   -1.6450 C   0  0  0  0  0  0  0  0  0  0  0  0
   -3.2890   -3.4040   -0.7000 O   0  0  0  0  0  0  0  0  0  0  0  0
   -4.0640   -2.9180   -2.7720 O   0  0  0  0  0  0  0  0  0  0  0  0
   -1.1490   -1.8450   -0.0680 H   0  0  0  0  0  0  0  0  0  0  0  0
   -3.3740   -0.4890   -1.6620 H   0  0  0  0  0  0  0  0  0  0  0  0
   -1.0730   -0.3580   -2.8620 H   0  0  0  0  0  0  0  0  0  0  0  0
   -1.0260   -2.1440   -2.7780 H   0  0  0  0  0  0  0  0  0  0  0  0
   -3.9480   -0.6900   -4.1080 H   0  0  0  0  0  0  0  0  0  0  0  0
  1 13  1  0  0  0  0
  2 14  1  1  0  0  0
  2  1  1  0  0  0  0
  3 15  1  0  0  0  0
  3  2  1  0  0  0  0
  4  3  1  0  0  0  0
  5 17  1  0  0  0  0
  5  4  2  0  0  0  0
  6  7  2  0  0  0  0
  6  5  1  0  0  0  0
  7  8  1  0  0  0  0
  8  9  2  0  0  0  0
  9  4  1  0  0  0  0
  9 21  1  0  0  0  0
 10  2  1  0  0  0  0
 10 27  1  0  0  0  0
 11 10  2  0  0  0  0
 12  1  1  0  0  0  0
 16  3  1  0  0  0  0
 18  6  1  0  0  0  0
 19  7  1  0  0  0  0
 20  8  1  0  0  0  0
 22 30  1  0  0  0  0
 22 32  1  0  0  0  0
 23 24  1  0  0  0  0
 23 22  1  0  0  0  0
 24 36  1  0  0  0  0
 24 35  1  0  0  0  0
 25 23  1  0  0  0  0
 26 25  1  0  0  0  0
 26 27  1  0  0  0  0
 26 39  1  1  0  0  0
 27 40  1  0  0  0  0
 28 26  1  0  0  0  0
 29 28  2  0  0  0  0
 31 22  1  0  0  0  0
 33 23  1  0  0  0  0
 34 24  1  0  0  0  0
 37 25  1  0  0  0  0
 38 25  1  0  0  0  0
 41 48  1  0  0  0  0
 41 28  1  0  0  0  0
 42 49  1  6  0  0  0
 42 41  1  0  0  0  0
 43 42  1  0  0  0  0
 44 52  1  0  0  0  0
 44 43  1  0  0  0  0
 45 42  1  0  0  0  0
 45 46  1  0  0  0  0
 47 45  2  0  0  0  0
 50 43  1  0  0  0  0
 51 43  1  0  0  0  0
M  END
$$$$
