FLE.pdb
 OpenBabel07022419003D

 57 57  0  0  1  0  0  0  0  0999 V2000
    2.3050   -0.7070   -0.1660 N   0  0  0  0  0  0  0  0  0  0  0  0
    2.1080   -0.0190    1.0900 C   0  0  1  0  0  0  0  0  0  0  0  0
    3.0090    1.1810    1.1490 C   0  0  0  0  0  0  0  0  0  0  0  0
    4.4160    0.7240    1.0390 C   0  0  0  0  0  0  0  0  0  0  0  0
    5.0470    0.6000   -0.1790 C   0  0  0  0  0  0  0  0  0  0  0  0
    6.3620    0.1730   -0.2730 C   0  0  0  0  0  0  0  0  0  0  0  0
    7.0890   -0.1460    0.8590 C   0  0  0  0  0  0  0  0  0  0  0  0
    6.4550   -0.0210    2.0740 C   0  0  0  0  0  0  0  0  0  0  0  0
    5.1490    0.4030    2.1660 C   0  0  0  0  0  0  0  0  0  0  0  0
    0.6830    0.3340    1.2730 C   0  0  0  0  0  0  0  0  0  0  0  0
    0.2710    0.9440    2.2890 O   0  0  0  0  0  0  0  0  0  0  0  0
    1.9490   -0.0870   -0.9270 H   0  0  0  0  0  0  0  0  0  0  0  0
    1.6930   -1.5520   -0.1580 H   0  0  0  0  0  0  0  0  0  0  0  0
    2.4630   -0.7230    1.8890 H   0  0  0  0  0  0  0  0  0  0  0  0
    2.8150    1.6960    2.1140 H   0  0  0  0  0  0  0  0  0  0  0  0
    2.7840    1.8610    0.2920 H   0  0  0  0  0  0  0  0  0  0  0  0
    4.4560    0.8570   -1.0600 H   0  0  0  0  0  0  0  0  0  0  0  0
    6.8380    0.0840   -1.2440 H   0  0  0  0  0  0  0  0  0  0  0  0
    8.1290   -0.4840    0.7820 H   0  0  0  0  0  0  0  0  0  0  0  0
    6.9920   -0.2610    2.9730 H   0  0  0  0  0  0  0  0  0  0  0  0
    4.6400    0.5050    3.1220 H   0  0  0  0  0  0  0  0  0  0  0  0
   -1.5250    3.4170    0.4660 C   0  0  0  0  0  0  0  0  0  0  0  0
   -1.5310    2.5410   -0.7210 C   0  0  0  0  0  0  0  0  0  0  0  0
   -2.0550    3.3110   -1.9120 C   0  0  0  0  0  0  0  0  0  0  0  0
   -2.2560    1.2420   -0.5650 C   0  0  0  0  0  0  0  0  0  0  0  0
   -1.7110    0.3650    0.5170 C   0  0  2  0  0  0  0  0  0  0  0  0
   -0.3190    0.0010    0.3010 N   0  0  0  0  0  0  0  0  0  0  0  0
   -2.4850   -0.8950    0.6680 C   0  0  0  0  0  0  0  0  0  0  0  0
   -3.7470   -0.8730    0.8690 O   0  0  0  0  0  0  0  0  0  0  0  0
   -1.8300    4.4410    0.1720 H   0  0  0  0  0  0  0  0  0  0  0  0
   -0.5500    3.5220    0.9740 H   0  0  0  0  0  0  0  0  0  0  0  0
   -2.3120    3.0790    1.1950 H   0  0  0  0  0  0  0  0  0  0  0  0
   -0.4620    2.2880   -0.9700 H   0  0  0  0  0  0  0  0  0  0  0  0
   -2.0740    2.7010   -2.8370 H   0  0  0  0  0  0  0  0  0  0  0  0
   -1.3190    4.1310   -2.0980 H   0  0  0  0  0  0  0  0  0  0  0  0
   -3.0200    3.8000   -1.6970 H   0  0  0  0  0  0  0  0  0  0  0  0
   -2.2650    0.6710   -1.5150 H   0  0  0  0  0  0  0  0  0  0  0  0
   -3.3160    1.4540   -0.3150 H   0  0  0  0  0  0  0  0  0  0  0  0
   -1.7880    0.8960    1.4890 H   0  0  0  0  0  0  0  0  0  0  0  0
   -0.0110   -0.5080   -0.5580 H   0  0  0  0  0  0  0  0  0  0  0  0
   -1.8980   -2.1800    0.6030 N   0  0  0  0  0  0  0  0  0  0  0  0
   -2.6960   -3.4180    0.7580 C   0  0  1  0  0  0  0  0  0  0  0  0
   -2.4250   -4.3540   -0.3660 C   0  0  0  0  0  0  0  0  0  0  0  0
   -3.2270   -5.6060   -0.2400 C   0  0  0  0  0  0  0  0  0  0  0  0
   -4.6990   -5.3910   -0.2460 C   0  0  0  0  0  0  0  0  0  0  0  0
   -5.2600   -4.2800   -0.3870 O   0  0  0  0  0  0  0  0  0  0  0  0
   -2.1980   -4.0180    2.0240 C   0  0  0  0  0  0  0  0  0  0  0  0
   -2.6560   -5.0690    2.5410 O   0  0  0  0  0  0  0  0  0  0  0  0
   -5.5790   -6.4780   -0.0880 O   0  0  0  0  0  0  0  0  0  0  0  0
   -1.1430   -3.4370    2.7630 O   0  0  0  0  0  0  0  0  0  0  0  0
   -0.8760   -2.2530    0.4410 H   0  0  0  0  0  0  0  0  0  0  0  0
   -3.7460   -3.1810    0.9200 H   0  0  0  0  0  0  0  0  0  0  0  0
   -1.3490   -4.6600   -0.3310 H   0  0  0  0  0  0  0  0  0  0  0  0
   -2.5710   -3.8530   -1.3460 H   0  0  0  0  0  0  0  0  0  0  0  0
   -2.9690   -6.2360    0.6330 H   0  0  0  0  0  0  0  0  0  0  0  0
   -2.9760   -6.2640   -1.1350 H   0  0  0  0  0  0  0  0  0  0  0  0
   -6.4760   -6.3000    0.3650 H   0  0  0  0  0  0  0  0  0  0  0  0
  1 13  1  0  0  0  0
  1  2  1  0  0  0  0
  2  3  1  0  0  0  0
  2 10  1  0  0  0  0
  2 14  1  1  0  0  0
  3 15  1  0  0  0  0
  4  3  1  0  0  0  0
  4  9  1  0  0  0  0
  5  4  2  0  0  0  0
  6  5  1  0  0  0  0
  6  7  2  0  0  0  0
  7  8  1  0  0  0  0
  8  9  2  0  0  0  0
  8 20  1  0  0  0  0
  9 21  1  0  0  0  0
 10 11  2  0  0  0  0
 12  1  1  0  0  0  0
 16  3  1  0  0  0  0
 17  5  1  0  0  0  0
 18  6  1  0  0  0  0
 19  7  1  0  0  0  0
 22 31  1  0  0  0  0
 22 32  1  0  0  0  0
 23 25  1  0  0  0  0
 23 22  1  0  0  0  0
 24 36  1  0  0  0  0
 24 23  1  0  0  0  0
 25 38  1  0  0  0  0
 25 26  1  0  0  0  0
 26 28  1  0  0  0  0
 26 39  1  1  0  0  0
 27 26  1  0  0  0  0
 27 10  1  0  0  0  0
 28 29  2  0  0  0  0
 30 22  1  0  0  0  0
 33 23  1  0  0  0  0
 34 24  1  0  0  0  0
 35 24  1  0  0  0  0
 37 25  1  0  0  0  0
 40 27  1  0  0  0  0
 41 28  1  0  0  0  0
 41 42  1  0  0  0  0
 42 52  1  1  0  0  0
 42 47  1  0  0  0  0
 43 53  1  0  0  0  0
 43 44  1  0  0  0  0
 43 42  1  0  0  0  0
 44 55  1  0  0  0  0
 45 44  1  0  0  0  0
 45 49  1  0  0  0  0
 46 45  2  0  0  0  0
 47 48  2  0  0  0  0
 47 50  1  0  0  0  0
 49 57  1  0  0  0  0
 51 41  1  0  0  0  0
 54 43  1  0  0  0  0
 56 44  1  0  0  0  0
M  END
$$$$
