FLF.pdb
 OpenBabel07022419003D

 61 62  0  0  1  0  0  0  0  0999 V2000
    1.3730   -1.1570    4.4830 N   0  0  0  0  0  0  0  0  0  0  0  0
    1.3660   -0.3150    3.3320 C   0  0  1  0  0  0  0  0  0  0  0  0
    2.5550   -0.5600    2.4070 C   0  0  0  0  0  0  0  0  0  0  0  0
    3.8380   -0.3120    3.1150 C   0  0  0  0  0  0  0  0  0  0  0  0
    4.4730   -1.3390    3.7900 C   0  0  0  0  0  0  0  0  0  0  0  0
    5.6660   -1.1440    4.4580 C   0  0  0  0  0  0  0  0  0  0  0  0
    6.2800    0.0910    4.4810 C   0  0  0  0  0  0  0  0  0  0  0  0
    5.6550    1.1210    3.8110 C   0  0  0  0  0  0  0  0  0  0  0  0
    4.4590    0.9200    3.1430 C   0  0  0  0  0  0  0  0  0  0  0  0
    0.1120   -0.4280    2.5380 C   0  0  0  0  0  0  0  0  0  0  0  0
   -0.8100   -1.2050    2.8970 O   0  0  0  0  0  0  0  0  0  0  0  0
    0.9480   -0.7560    5.3240 H   0  0  0  0  0  0  0  0  0  0  0  0
    1.2170   -2.1530    4.3120 H   0  0  0  0  0  0  0  0  0  0  0  0
    1.4690    0.7430    3.6920 H   0  0  0  0  0  0  0  0  0  0  0  0
    2.4630   -1.5740    2.0230 H   0  0  0  0  0  0  0  0  0  0  0  0
    2.4890    0.1380    1.5640 H   0  0  0  0  0  0  0  0  0  0  0  0
    3.9850   -2.3190    3.7710 H   0  0  0  0  0  0  0  0  0  0  0  0
    6.1620   -1.9480    4.9860 H   0  0  0  0  0  0  0  0  0  0  0  0
    7.2140    0.2680    4.9970 H   0  0  0  0  0  0  0  0  0  0  0  0
    6.1410    2.1050    3.8270 H   0  0  0  0  0  0  0  0  0  0  0  0
    3.9900    1.7570    2.6210 H   0  0  0  0  0  0  0  0  0  0  0  0
   -3.5610    3.2680    0.0040 C   0  0  0  0  0  0  0  0  0  0  0  0
   -3.2230    1.7700   -0.1580 C   0  0  0  0  0  0  0  0  0  0  0  0
   -4.3960    0.9970    0.3900 C   0  0  0  0  0  0  0  0  0  0  0  0
   -1.9460    1.5590    0.5530 C   0  0  0  0  0  0  0  0  0  0  0  0
   -1.3740    0.1840    0.5800 C   0  0  2  0  0  0  0  0  0  0  0  0
   -0.1100    0.3200    1.3510 N   0  0  0  0  0  0  0  0  0  0  0  0
   -1.0430   -0.3080   -0.7810 C   0  0  0  0  0  0  0  0  0  0  0  0
    0.1930   -0.3850   -1.1170 O   0  0  0  0  0  0  0  0  0  0  0  0
   -2.6480    3.8830   -0.1030 H   0  0  0  0  0  0  0  0  0  0  0  0
   -3.9700    3.4650    1.0110 H   0  0  0  0  0  0  0  0  0  0  0  0
   -4.2570    3.5780   -0.8040 H   0  0  0  0  0  0  0  0  0  0  0  0
   -3.0720    1.6220   -1.2610 H   0  0  0  0  0  0  0  0  0  0  0  0
   -4.0460    0.2530    1.1600 H   0  0  0  0  0  0  0  0  0  0  0  0
   -5.1820    1.6590    0.8150 H   0  0  0  0  0  0  0  0  0  0  0  0
   -4.8450    0.4050   -0.4360 H   0  0  0  0  0  0  0  0  0  0  0  0
   -2.0980    1.9180    1.6150 H   0  0  0  0  0  0  0  0  0  0  0  0
   -1.1850    2.2520    0.1240 H   0  0  0  0  0  0  0  0  0  0  0  0
   -1.9830   -0.5510    1.1190 H   0  0  0  0  0  0  0  0  0  0  0  0
    0.6410    0.9700    1.0350 H   0  0  0  0  0  0  0  0  0  0  0  0
   -1.9740   -0.7090   -1.7530 N   0  0  0  0  0  0  0  0  0  0  0  0
   -1.5230   -1.1720   -3.0640 C   0  0  1  0  0  0  0  0  0  0  0  0
   -2.0000   -2.5890   -3.3160 C   0  0  0  0  0  0  0  0  0  0  0  0
   -1.4690   -3.5060   -2.2900 C   0  0  0  0  0  0  0  0  0  0  0  0
   -0.2580   -4.1230   -2.5150 C   0  0  0  0  0  0  0  0  0  0  0  0
    0.2140   -4.9810   -1.5280 C   0  0  0  0  0  0  0  0  0  0  0  0
   -0.4960   -5.2030   -0.3810 C   0  0  0  0  0  0  0  0  0  0  0  0
   -1.6940   -4.5870   -0.1700 C   0  0  0  0  0  0  0  0  0  0  0  0
   -2.1970   -3.7290   -1.1230 C   0  0  0  0  0  0  0  0  0  0  0  0
   -2.1220   -0.2990   -4.0970 C   0  0  0  0  0  0  0  0  0  0  0  0
   -2.8830    0.6640   -3.8360 O   0  0  0  0  0  0  0  0  0  0  0  0
   -1.8180   -0.5700   -5.4210 O   0  0  0  0  0  0  0  0  0  0  0  0
   -2.9940   -0.6810   -1.5130 H   0  0  0  0  0  0  0  0  0  0  0  0
   -0.4330   -1.1320   -3.0890 H   0  0  0  0  0  0  0  0  0  0  0  0
   -3.0990   -2.6480   -3.3990 H   0  0  0  0  0  0  0  0  0  0  0  0
   -1.5970   -2.8990   -4.3020 H   0  0  0  0  0  0  0  0  0  0  0  0
    0.3030   -3.9460   -3.4250 H   0  0  0  0  0  0  0  0  0  0  0  0
    1.1660   -5.4610   -1.7130 H   0  0  0  0  0  0  0  0  0  0  0  0
   -0.1020   -5.8720    0.3610 H   0  0  0  0  0  0  0  0  0  0  0  0
   -2.2530   -4.7710    0.7500 H   0  0  0  0  0  0  0  0  0  0  0  0
   -3.1420   -3.2250   -0.9860 H   0  0  0  0  0  0  0  0  0  0  0  0
  1 12  1  0  0  0  0
  2 14  1  1  0  0  0
  2  1  1  0  0  0  0
  3  4  1  0  0  0  0
  3  2  1  0  0  0  0
  4  9  2  0  0  0  0
  4  5  1  0  0  0  0
  5  6  2  0  0  0  0
  6  7  1  0  0  0  0
  6 18  1  0  0  0  0
  7 19  1  0  0  0  0
  8 20  1  0  0  0  0
  8  7  2  0  0  0  0
  9  8  1  0  0  0  0
 10 11  2  0  0  0  0
 10  2  1  0  0  0  0
 13  1  1  0  0  0  0
 15  3  1  0  0  0  0
 16  3  1  0  0  0  0
 17  5  1  0  0  0  0
 21  9  1  0  0  0  0
 22 31  1  0  0  0  0
 23 22  1  0  0  0  0
 23 24  1  0  0  0  0
 23 25  1  0  0  0  0
 24 35  1  0  0  0  0
 24 34  1  0  0  0  0
 25 26  1  0  0  0  0
 25 37  1  0  0  0  0
 26 39  1  1  0  0  0
 26 27  1  0  0  0  0
 27 10  1  0  0  0  0
 28 26  1  0  0  0  0
 29 28  2  0  0  0  0
 30 22  1  0  0  0  0
 32 22  1  0  0  0  0
 33 23  1  0  0  0  0
 36 24  1  0  0  0  0
 38 25  1  0  0  0  0
 40 27  1  0  0  0  0
 41 53  1  0  0  0  0
 41 28  1  0  0  0  0
 42 54  1  6  0  0  0
 42 41  1  0  0  0  0
 43 42  1  0  0  0  0
 43 44  1  0  0  0  0
 44 49  1  0  0  0  0
 45 44  2  0  0  0  0
 45 46  1  0  0  0  0
 46 47  2  0  0  0  0
 47 48  1  0  0  0  0
 47 59  1  0  0  0  0
 48 60  1  0  0  0  0
 49 61  1  0  0  0  0
 49 48  2  0  0  0  0
 50 51  1  0  0  0  0
 50 42  1  0  0  0  0
 52 50  2  0  0  0  0
 55 43  1  0  0  0  0
 56 43  1  0  0  0  0
 57 45  1  0  0  0  0
 58 46  1  0  0  0  0
M  END
$$$$
