FLG.pdb
 OpenBabel07022419003D

 48 48  0  0  1  0  0  0  0  0999 V2000
   -0.8580   -3.6680    1.2700 N   0  0  0  0  0  0  0  0  0  0  0  0
   -0.4670   -2.4930    2.0440 C   0  0  1  0  0  0  0  0  0  0  0  0
    0.9730   -2.6420    2.4980 C   0  0  0  0  0  0  0  0  0  0  0  0
    1.9110   -2.8170    1.3930 C   0  0  0  0  0  0  0  0  0  0  0  0
    2.1980   -4.0960    0.9630 C   0  0  0  0  0  0  0  0  0  0  0  0
    3.0670   -4.3590   -0.0700 C   0  0  0  0  0  0  0  0  0  0  0  0
    3.6710   -3.2750   -0.6900 C   0  0  0  0  0  0  0  0  0  0  0  0
    3.3910   -2.0010   -0.2680 C   0  0  0  0  0  0  0  0  0  0  0  0
    2.5080   -1.7590    0.7780 C   0  0  0  0  0  0  0  0  0  0  0  0
   -0.7690   -1.2720    1.3100 C   0  0  0  0  0  0  0  0  0  0  0  0
   -0.7280   -1.2690    0.0580 O   0  0  0  0  0  0  0  0  0  0  0  0
   -1.8280   -3.5750    0.9510 H   0  0  0  0  0  0  0  0  0  0  0  0
   -0.6650   -4.5450    1.7840 H   0  0  0  0  0  0  0  0  0  0  0  0
   -1.0940   -2.5240    2.9680 H   0  0  0  0  0  0  0  0  0  0  0  0
    0.9900   -3.5420    3.1750 H   0  0  0  0  0  0  0  0  0  0  0  0
    1.2690   -1.8010    3.1410 H   0  0  0  0  0  0  0  0  0  0  0  0
    1.7400   -4.9830    1.4290 H   0  0  0  0  0  0  0  0  0  0  0  0
    3.3050   -5.3550   -0.4210 H   0  0  0  0  0  0  0  0  0  0  0  0
    4.3750   -3.4270   -1.5220 H   0  0  0  0  0  0  0  0  0  0  0  0
    3.8510   -1.1170   -0.7360 H   0  0  0  0  0  0  0  0  0  0  0  0
    2.3170   -0.7170    1.0790 H   0  0  0  0  0  0  0  0  0  0  0  0
    1.7430    3.1300    0.7070 C   0  0  0  0  0  0  0  0  0  0  0  0
    0.7140    2.4270    1.6140 C   0  0  0  0  0  0  0  0  0  0  0  0
    1.4380    1.5570    2.5530 C   0  0  0  0  0  0  0  0  0  0  0  0
   -0.3150    1.8630    0.7260 C   0  0  0  0  0  0  0  0  0  0  0  0
   -1.4450    1.1250    1.2740 C   0  0  2  0  0  0  0  0  0  0  0  0
   -1.1200   -0.0710    1.9840 N   0  0  0  0  0  0  0  0  0  0  0  0
   -2.4630    0.8470    0.2040 C   0  0  0  0  0  0  0  0  0  0  0  0
   -2.6400    1.7410   -0.6960 O   0  0  0  0  0  0  0  0  0  0  0  0
    2.3010    3.8720    1.2930 H   0  0  0  0  0  0  0  0  0  0  0  0
    1.1640    3.5810   -0.1240 H   0  0  0  0  0  0  0  0  0  0  0  0
    2.4130    2.3220    0.3370 H   0  0  0  0  0  0  0  0  0  0  0  0
    0.2960    3.2930    2.2200 H   0  0  0  0  0  0  0  0  0  0  0  0
    1.6210    2.0240    3.5580 H   0  0  0  0  0  0  0  0  0  0  0  0
    2.4940    1.4170    2.1630 H   0  0  0  0  0  0  0  0  0  0  0  0
    1.0690    0.5190    2.6600 H   0  0  0  0  0  0  0  0  0  0  0  0
    0.1350    1.2300   -0.1030 H   0  0  0  0  0  0  0  0  0  0  0  0
   -0.7320    2.7410    0.1310 H   0  0  0  0  0  0  0  0  0  0  0  0
   -2.0880    1.7820    1.9790 H   0  0  0  0  0  0  0  0  0  0  0  0
   -1.1570   -0.0500    3.0430 H   0  0  0  0  0  0  0  0  0  0  0  0
   -3.2430   -0.3060    0.1070 N   0  0  0  0  0  0  0  0  0  0  0  0
   -4.1960   -0.4630   -0.9840 C   0  0  0  0  0  0  0  0  0  0  0  0
   -3.5450   -0.4180   -2.3120 C   0  0  0  0  0  0  0  0  0  0  0  0
   -4.2300   -0.5460   -3.3750 O   0  0  0  0  0  0  0  0  0  0  0  0
   -2.1840   -0.2370   -2.4590 O   0  0  0  0  0  0  0  0  0  0  0  0
   -3.1830   -1.0570    0.8150 H   0  0  0  0  0  0  0  0  0  0  0  0
   -4.7540   -1.4110   -0.8920 H   0  0  0  0  0  0  0  0  0  0  0  0
   -4.9510    0.3540   -0.9710 H   0  0  0  0  0  0  0  0  0  0  0  0
  1 13  1  0  0  0  0
  1  2  1  0  0  0  0
  2  3  1  0  0  0  0
  2 14  1  1  0  0  0
  3 16  1  0  0  0  0
  3 15  1  0  0  0  0
  4  3  1  0  0  0  0
  5  4  1  0  0  0  0
  5 17  1  0  0  0  0
  6  5  2  0  0  0  0
  7  8  2  0  0  0  0
  7  6  1  0  0  0  0
  8  9  1  0  0  0  0
  9 21  1  0  0  0  0
  9  4  2  0  0  0  0
 10 27  1  0  0  0  0
 10  2  1  0  0  0  0
 11 10  2  0  0  0  0
 12  1  1  0  0  0  0
 18  6  1  0  0  0  0
 19  7  1  0  0  0  0
 20  8  1  0  0  0  0
 22 30  1  0  0  0  0
 22 23  1  0  0  0  0
 23 33  1  0  0  0  0
 23 24  1  0  0  0  0
 24 36  1  0  0  0  0
 24 34  1  0  0  0  0
 25 26  1  0  0  0  0
 25 23  1  0  0  0  0
 26 39  1  1  0  0  0
 26 27  1  0  0  0  0
 27 40  1  0  0  0  0
 28 26  1  0  0  0  0
 29 28  2  0  0  0  0
 31 22  1  0  0  0  0
 32 22  1  0  0  0  0
 35 24  1  0  0  0  0
 37 25  1  0  0  0  0
 38 25  1  0  0  0  0
 41 28  1  0  0  0  0
 41 46  1  0  0  0  0
 42 48  1  0  0  0  0
 42 47  1  0  0  0  0
 42 41  1  0  0  0  0
 43 42  1  0  0  0  0
 44 43  2  0  0  0  0
 45 43  1  0  0  0  0
M  END
$$$$
