FLH.pdb
 OpenBabel07022419003D

 58 59  0  0  1  0  0  0  0  0999 V2000
    1.7750    3.3370   -0.5040 N   0  0  0  0  0  0  0  0  0  0  0  0
    2.5050    2.3150   -1.2080 C   0  0  1  0  0  0  0  0  0  0  0  0
    3.8810    2.2430   -0.5500 C   0  0  0  0  0  0  0  0  0  0  0  0
    3.7680    1.8990    0.8950 C   0  0  0  0  0  0  0  0  0  0  0  0
    3.7920    0.6000    1.3540 C   0  0  0  0  0  0  0  0  0  0  0  0
    3.6830    0.3220    2.7080 C   0  0  0  0  0  0  0  0  0  0  0  0
    3.5470    1.3170    3.6460 C   0  0  0  0  0  0  0  0  0  0  0  0
    3.5220    2.6100    3.2010 C   0  0  0  0  0  0  0  0  0  0  0  0
    3.6300    2.8990    1.8590 C   0  0  0  0  0  0  0  0  0  0  0  0
    1.8650    0.9740   -1.0490 C   0  0  0  0  0  0  0  0  0  0  0  0
    2.3320   -0.0530   -1.6080 O   0  0  0  0  0  0  0  0  0  0  0  0
    0.9010    3.6240   -0.9980 H   0  0  0  0  0  0  0  0  0  0  0  0
    1.6040    3.1260    0.4810 H   0  0  0  0  0  0  0  0  0  0  0  0
    2.5960    2.5680   -2.2830 H   0  0  0  0  0  0  0  0  0  0  0  0
    4.3790    3.2370   -0.6800 H   0  0  0  0  0  0  0  0  0  0  0  0
    4.5160    1.4870   -1.0350 H   0  0  0  0  0  0  0  0  0  0  0  0
    3.9010   -0.1970    0.6270 H   0  0  0  0  0  0  0  0  0  0  0  0
    3.7020   -0.7070    3.0620 H   0  0  0  0  0  0  0  0  0  0  0  0
    3.4630    1.0580    4.7000 H   0  0  0  0  0  0  0  0  0  0  0  0
    3.4140    3.4140    3.9430 H   0  0  0  0  0  0  0  0  0  0  0  0
    3.6060    3.9250    1.5550 H   0  0  0  0  0  0  0  0  0  0  0  0
   -0.3520   -0.8940    3.6590 C   0  0  0  0  0  0  0  0  0  0  0  0
   -0.5290   -0.1700    2.3150 C   0  0  0  0  0  0  0  0  0  0  0  0
   -1.9820    0.0980    2.1380 C   0  0  0  0  0  0  0  0  0  0  0  0
    0.1300   -1.0120    1.2890 C   0  0  0  0  0  0  0  0  0  0  0  0
    0.0890   -0.5130   -0.1150 C   0  0  2  0  0  0  0  0  0  0  0  0
    0.6970    0.7850   -0.2600 N   0  0  0  0  0  0  0  0  0  0  0  0
   -1.2700   -0.6230   -0.6770 C   0  0  0  0  0  0  0  0  0  0  0  0
   -1.9100    0.3270   -1.1720 O   0  0  0  0  0  0  0  0  0  0  0  0
   -0.9570   -1.8110    3.7010 H   0  0  0  0  0  0  0  0  0  0  0  0
    0.7470   -1.1140    3.7270 H   0  0  0  0  0  0  0  0  0  0  0  0
   -0.5600   -0.1800    4.4800 H   0  0  0  0  0  0  0  0  0  0  0  0
   -0.0190    0.8110    2.4750 H   0  0  0  0  0  0  0  0  0  0  0  0
   -2.4480    0.4210    3.1080 H   0  0  0  0  0  0  0  0  0  0  0  0
   -2.5890   -0.7100    1.7380 H   0  0  0  0  0  0  0  0  0  0  0  0
   -2.1210    0.9970    1.4690 H   0  0  0  0  0  0  0  0  0  0  0  0
    1.2060   -1.1310    1.6130 H   0  0  0  0  0  0  0  0  0  0  0  0
   -0.2890   -2.0390    1.3500 H   0  0  0  0  0  0  0  0  0  0  0  0
    0.7070   -1.2480   -0.7170 H   0  0  0  0  0  0  0  0  0  0  0  0
    0.2700    1.6080    0.2250 H   0  0  0  0  0  0  0  0  0  0  0  0
   -1.8620   -1.9380   -0.6320 N   0  0  0  0  0  0  0  0  0  0  0  0
   -3.1900   -2.1660   -1.1560 C   0  0  1  0  0  0  0  0  0  0  0  0
   -3.1420   -3.0710   -2.3800 C   0  0  0  0  0  0  0  0  0  0  0  0
   -2.5520   -4.3920   -2.0500 C   0  0  0  0  0  0  0  0  0  0  0  0
   -3.2700   -5.4840   -1.6230 C   0  0  0  0  0  0  0  0  0  0  0  0
   -2.4150   -6.4830   -1.4260 N   0  0  0  0  0  0  0  0  0  0  0  0
   -1.1840   -6.0350   -1.7210 C   0  0  0  0  0  0  0  0  0  0  0  0
   -1.2620   -4.7540   -2.1050 N   0  0  0  0  0  0  0  0  0  0  0  0
   -3.9990   -2.8650   -0.1360 C   0  0  0  0  0  0  0  0  0  0  0  0
   -5.2120   -3.1720   -0.3230 O   0  0  0  0  0  0  0  0  0  0  0  0
   -3.4500   -3.2090    1.0670 O   0  0  0  0  0  0  0  0  0  0  0  0
   -1.3610   -2.7580   -0.2260 H   0  0  0  0  0  0  0  0  0  0  0  0
   -3.6740   -1.2200   -1.4780 H   0  0  0  0  0  0  0  0  0  0  0  0
   -2.5380   -2.5900   -3.1840 H   0  0  0  0  0  0  0  0  0  0  0  0
   -4.1660   -3.2120   -2.7300 H   0  0  0  0  0  0  0  0  0  0  0  0
   -4.3540   -5.5590   -1.4610 H   0  0  0  0  0  0  0  0  0  0  0  0
   -2.6450   -7.4570   -1.0970 H   0  0  0  0  0  0  0  0  0  0  0  0
   -0.2920   -6.6660   -1.6420 H   0  0  0  0  0  0  0  0  0  0  0  0
  1 13  1  0  0  0  0
  2 14  1  6  0  0  0
  2 10  1  0  0  0  0
  2  3  1  0  0  0  0
  2  1  1  0  0  0  0
  3  4  1  0  0  0  0
  4  5  2  0  0  0  0
  4  9  1  0  0  0  0
  5  6  1  0  0  0  0
  6 18  1  0  0  0  0
  6  7  2  0  0  0  0
  7 19  1  0  0  0  0
  8  7  1  0  0  0  0
  8 20  1  0  0  0  0
  9  8  2  0  0  0  0
 10 27  1  0  0  0  0
 11 10  2  0  0  0  0
 12  1  1  0  0  0  0
 15  3  1  0  0  0  0
 16  3  1  0  0  0  0
 17  5  1  0  0  0  0
 21  9  1  0  0  0  0
 22 30  1  0  0  0  0
 22 31  1  0  0  0  0
 22 32  1  0  0  0  0
 23 33  1  0  0  0  0
 23 22  1  0  0  0  0
 24 23  1  0  0  0  0
 24 34  1  0  0  0  0
 25 38  1  0  0  0  0
 25 37  1  0  0  0  0
 25 23  1  0  0  0  0
 26 39  1  6  0  0  0
 26 25  1  0  0  0  0
 27 26  1  0  0  0  0
 27 40  1  0  0  0  0
 28 41  1  0  0  0  0
 28 26  1  0  0  0  0
 29 28  2  0  0  0  0
 35 24  1  0  0  0  0
 36 24  1  0  0  0  0
 41 52  1  0  0  0  0
 42 53  1  6  0  0  0
 42 41  1  0  0  0  0
 42 49  1  0  0  0  0
 43 44  1  0  0  0  0
 43 42  1  0  0  0  0
 44 45  2  0  0  0  0
 45 56  1  0  0  0  0
 45 46  1  0  0  0  0
 46 57  1  0  0  0  0
 47 58  1  0  0  0  0
 47 46  1  0  0  0  0
 48 44  1  0  0  0  0
 48 47  2  0  0  0  0
 49 51  1  0  0  0  0
 50 49  2  0  0  0  0
 54 43  1  0  0  0  0
 55 43  1  0  0  0  0
M  END
$$$$
