FLI.pdb
 OpenBabel07022419003D

 60 60  0  0  1  0  0  0  0  0999 V2000
    1.1000   -0.3430    3.7020 N   0  0  0  0  0  0  0  0  0  0  0  0
    1.3330    0.1760    2.3810 C   0  0  1  0  0  0  0  0  0  0  0  0
    2.3770   -0.5850    1.6200 C   0  0  0  0  0  0  0  0  0  0  0  0
    3.6940   -0.5990    2.2530 C   0  0  0  0  0  0  0  0  0  0  0  0
    4.6210    0.3810    1.9710 C   0  0  0  0  0  0  0  0  0  0  0  0
    5.8850    0.3740    2.5740 C   0  0  0  0  0  0  0  0  0  0  0  0
    6.2330   -0.6180    3.4660 C   0  0  0  0  0  0  0  0  0  0  0  0
    5.3060   -1.5980    3.7480 C   0  0  0  0  0  0  0  0  0  0  0  0
    4.0590   -1.5770    3.1430 C   0  0  0  0  0  0  0  0  0  0  0  0
    0.0410   -0.0070    1.6080 C   0  0  0  0  0  0  0  0  0  0  0  0
    0.0290    0.3850    0.4160 O   0  0  0  0  0  0  0  0  0  0  0  0
    0.9520   -1.3570    3.7180 H   0  0  0  0  0  0  0  0  0  0  0  0
    0.4300    0.2490    4.1960 H   0  0  0  0  0  0  0  0  0  0  0  0
    1.5370    1.2490    2.4120 H   0  0  0  0  0  0  0  0  0  0  0  0
    1.9710   -1.5990    1.4160 H   0  0  0  0  0  0  0  0  0  0  0  0
    2.4810   -0.0970    0.6250 H   0  0  0  0  0  0  0  0  0  0  0  0
    4.4080    1.1750    1.2880 H   0  0  0  0  0  0  0  0  0  0  0  0
    6.6190    1.1370    2.3610 H   0  0  0  0  0  0  0  0  0  0  0  0
    7.2120   -0.6430    3.9470 H   0  0  0  0  0  0  0  0  0  0  0  0
    5.5800   -2.3890    4.4570 H   0  0  0  0  0  0  0  0  0  0  0  0
    3.3530   -2.3420    3.3700 H   0  0  0  0  0  0  0  0  0  0  0  0
   -3.9700    2.6890    1.2960 C   0  0  0  0  0  0  0  0  0  0  0  0
   -2.8730    1.6230    1.0390 C   0  0  0  0  0  0  0  0  0  0  0  0
   -2.8290    1.5430   -0.4870 C   0  0  0  0  0  0  0  0  0  0  0  0
   -3.2910    0.3290    1.6670 C   0  0  0  0  0  0  0  0  0  0  0  0
   -2.3510   -0.8200    1.5740 C   0  0  2  0  0  0  0  0  0  0  0  0
   -1.0880   -0.5870    2.1920 N   0  0  0  0  0  0  0  0  0  0  0  0
   -2.3260   -1.5570    0.3110 C   0  0  0  0  0  0  0  0  0  0  0  0
   -3.3620   -1.6740   -0.4150 O   0  0  0  0  0  0  0  0  0  0  0  0
   -4.9090    2.2780    0.8790 H   0  0  0  0  0  0  0  0  0  0  0  0
   -3.7200    3.5940    0.7090 H   0  0  0  0  0  0  0  0  0  0  0  0
   -4.0850    2.8760    2.3630 H   0  0  0  0  0  0  0  0  0  0  0  0
   -1.9210    2.0110    1.3810 H   0  0  0  0  0  0  0  0  0  0  0  0
   -2.3950    2.5080   -0.8400 H   0  0  0  0  0  0  0  0  0  0  0  0
   -2.2510    0.7090   -0.8720 H   0  0  0  0  0  0  0  0  0  0  0  0
   -3.8870    1.5490   -0.8690 H   0  0  0  0  0  0  0  0  0  0  0  0
   -4.3330    0.0370    1.3070 H   0  0  0  0  0  0  0  0  0  0  0  0
   -3.4950    0.5790    2.7590 H   0  0  0  0  0  0  0  0  0  0  0  0
   -2.8430   -1.5950    2.3530 H   0  0  0  0  0  0  0  0  0  0  0  0
   -0.9580   -0.8690    3.2130 H   0  0  0  0  0  0  0  0  0  0  0  0
   -1.8440   -0.8660   -3.5750 C   0  0  0  0  0  0  0  0  0  0  0  0
   -0.4790   -1.0180   -2.9550 C   0  0  0  0  0  0  0  0  0  0  0  0
   -0.2060   -2.4160   -2.4640 C   0  0  2  0  0  0  0  0  0  0  0  0
   -0.3160   -3.3240   -3.6960 C   0  0  0  0  0  0  0  0  0  0  0  0
   -1.1140   -2.9160   -1.4220 C   0  0  2  0  0  0  0  0  0  0  0  0
   -1.1640   -2.1850   -0.1790 N   0  0  0  0  0  0  0  0  0  0  0  0
   -0.7990   -4.3270   -1.0730 C   0  0  0  0  0  0  0  0  0  0  0  0
   -0.6850   -5.2330   -1.9670 O   0  0  0  0  0  0  0  0  0  0  0  0
   -0.6070   -4.7630    0.2320 O   0  0  0  0  0  0  0  0  0  0  0  0
   -1.7670   -0.6330   -4.6790 H   0  0  0  0  0  0  0  0  0  0  0  0
   -2.4050   -0.0050   -3.1540 H   0  0  0  0  0  0  0  0  0  0  0  0
   -2.4820   -1.7400   -3.5000 H   0  0  0  0  0  0  0  0  0  0  0  0
   -0.3570   -0.2300   -2.2170 H   0  0  0  0  0  0  0  0  0  0  0  0
    0.2800   -0.8020   -3.7600 H   0  0  0  0  0  0  0  0  0  0  0  0
    0.8770   -2.4580   -2.1970 H   0  0  0  0  0  0  0  0  0  0  0  0
   -1.3460   -3.7020   -3.8270 H   0  0  0  0  0  0  0  0  0  0  0  0
   -0.0970   -2.7250   -4.6280 H   0  0  0  0  0  0  0  0  0  0  0  0
    0.4510   -4.1210   -3.6810 H   0  0  0  0  0  0  0  0  0  0  0  0
   -2.1600   -2.8780   -1.8430 H   0  0  0  0  0  0  0  0  0  0  0  0
   -0.2460   -2.1910    0.3440 H   0  0  0  0  0  0  0  0  0  0  0  0
  1 12  1  0  0  0  0
  1 13  1  0  0  0  0
  2 14  1  1  0  0  0
  2  1  1  0  0  0  0
  3  4  1  0  0  0  0
  3  2  1  0  0  0  0
  4  9  1  0  0  0  0
  5  4  2  0  0  0  0
  5  6  1  0  0  0  0
  6  7  2  0  0  0  0
  7  8  1  0  0  0  0
  7 19  1  0  0  0  0
  8 20  1  0  0  0  0
  9 21  1  0  0  0  0
  9  8  2  0  0  0  0
 10 27  1  0  0  0  0
 10  2  1  0  0  0  0
 11 10  2  0  0  0  0
 15  3  1  0  0  0  0
 16  3  1  0  0  0  0
 17  5  1  0  0  0  0
 18  6  1  0  0  0  0
 22 32  1  0  0  0  0
 23 22  1  0  0  0  0
 23 33  1  0  0  0  0
 23 25  1  0  0  0  0
 24 23  1  0  0  0  0
 25 38  1  0  0  0  0
 26 25  1  0  0  0  0
 26 27  1  0  0  0  0
 26 39  1  1  0  0  0
 27 40  1  0  0  0  0
 28 26  1  0  0  0  0
 29 28  2  0  0  0  0
 30 22  1  0  0  0  0
 31 22  1  0  0  0  0
 34 24  1  0  0  0  0
 35 24  1  0  0  0  0
 36 24  1  0  0  0  0
 37 25  1  0  0  0  0
 41 52  1  0  0  0  0
 41 51  1  0  0  0  0
 41 42  1  0  0  0  0
 42 43  1  0  0  0  0
 42 53  1  0  0  0  0
 43 55  1  1  0  0  0
 43 45  1  0  0  0  0
 44 58  1  0  0  0  0
 44 43  1  0  0  0  0
 45 59  1  6  0  0  0
 45 47  1  0  0  0  0
 45 46  1  0  0  0  0
 46 28  1  0  0  0  0
 46 60  1  0  0  0  0
 47 49  1  0  0  0  0
 48 47  2  0  0  0  0
 50 41  1  0  0  0  0
 54 42  1  0  0  0  0
 56 44  1  0  0  0  0
 57 44  1  0  0  0  0
M  END
$$$$
