FLM.pdb
 OpenBabel07022419003D

 58 58  0  0  1  0  0  0  0  0999 V2000
    1.7560   -0.3810    3.6530 N   0  0  0  0  0  0  0  0  0  0  0  0
    1.4220    0.7260    2.7940 C   0  0  1  0  0  0  0  0  0  0  0  0
    2.5460    1.1640    1.9080 C   0  0  0  0  0  0  0  0  0  0  0  0
    2.9940    0.0690    1.0350 C   0  0  0  0  0  0  0  0  0  0  0  0
    2.4950   -0.1350   -0.2210 C   0  0  0  0  0  0  0  0  0  0  0  0
    2.9500   -1.1670   -1.0010 C   0  0  0  0  0  0  0  0  0  0  0  0
    3.9310   -2.0210   -0.5140 C   0  0  0  0  0  0  0  0  0  0  0  0
    4.4330   -1.8180    0.7480 C   0  0  0  0  0  0  0  0  0  0  0  0
    3.9780   -0.7870    1.5250 C   0  0  0  0  0  0  0  0  0  0  0  0
    0.1690    0.5690    2.0390 C   0  0  0  0  0  0  0  0  0  0  0  0
   -0.1100    1.4530    1.1940 O   0  0  0  0  0  0  0  0  0  0  0  0
    1.7920   -1.2900    3.1790 H   0  0  0  0  0  0  0  0  0  0  0  0
    1.2730   -0.3790    4.5650 H   0  0  0  0  0  0  0  0  0  0  0  0
    1.2740    1.5960    3.5230 H   0  0  0  0  0  0  0  0  0  0  0  0
    3.4200    1.5420    2.4880 H   0  0  0  0  0  0  0  0  0  0  0  0
    2.2340    2.0210    1.2410 H   0  0  0  0  0  0  0  0  0  0  0  0
    1.7330    0.5200   -0.6130 H   0  0  0  0  0  0  0  0  0  0  0  0
    2.5770   -1.3450   -1.9940 H   0  0  0  0  0  0  0  0  0  0  0  0
    4.3070   -2.8490   -1.1190 H   0  0  0  0  0  0  0  0  0  0  0  0
    5.2100   -2.4690    1.1740 H   0  0  0  0  0  0  0  0  0  0  0  0
    4.3690   -0.6230    2.5160 H   0  0  0  0  0  0  0  0  0  0  0  0
   -2.4610    2.0240    3.1780 C   0  0  0  0  0  0  0  0  0  0  0  0
   -3.3170    1.2320    2.2840 C   0  0  0  0  0  0  0  0  0  0  0  0
   -4.2870    2.2360    1.6170 C   0  0  0  0  0  0  0  0  0  0  0  0
   -2.7800    0.3280    1.2840 C   0  0  0  0  0  0  0  0  0  0  0  0
   -1.8990   -0.8140    1.6860 C   0  0  2  0  0  0  0  0  0  0  0  0
   -0.6660   -0.5480    2.2900 N   0  0  0  0  0  0  0  0  0  0  0  0
   -1.8480   -1.8080    0.6260 C   0  0  0  0  0  0  0  0  0  0  0  0
   -2.9400   -2.1900    0.0470 O   0  0  0  0  0  0  0  0  0  0  0  0
   -3.1680    2.5750    3.8800 H   0  0  0  0  0  0  0  0  0  0  0  0
   -1.8870    2.8430    2.7170 H   0  0  0  0  0  0  0  0  0  0  0  0
   -1.8850    1.3840    3.8780 H   0  0  0  0  0  0  0  0  0  0  0  0
   -4.0240    0.6600    2.9760 H   0  0  0  0  0  0  0  0  0  0  0  0
   -3.7210    3.0390    1.1310 H   0  0  0  0  0  0  0  0  0  0  0  0
   -4.8210    1.6570    0.8360 H   0  0  0  0  0  0  0  0  0  0  0  0
   -5.0470    2.5830    2.3350 H   0  0  0  0  0  0  0  0  0  0  0  0
   -3.6430   -0.1490    0.7260 H   0  0  0  0  0  0  0  0  0  0  0  0
   -2.2520    0.8970    0.4810 H   0  0  0  0  0  0  0  0  0  0  0  0
   -2.5900   -1.3280    2.5010 H   0  0  0  0  0  0  0  0  0  0  0  0
   -0.3010   -1.2290    3.0040 H   0  0  0  0  0  0  0  0  0  0  0  0
    1.1500   -0.6820   -4.4220 C   0  0  0  0  0  0  0  0  0  0  0  0
   -0.5010   -1.3950   -4.4530 S   0  0  0  0  0  0  0  0  0  0  0  0
   -1.1060   -1.8480   -2.8220 C   0  0  0  0  0  0  0  0  0  0  0  0
   -0.2710   -2.9820   -2.2870 C   0  0  0  0  0  0  0  0  0  0  0  0
   -0.7280   -3.4380   -0.9230 C   0  0  2  0  0  0  0  0  0  0  0  0
   -0.6960   -2.4590    0.1090 N   0  0  0  0  0  0  0  0  0  0  0  0
   -0.0430   -4.6900   -0.5850 C   0  0  0  0  0  0  0  0  0  0  0  0
    0.0180   -5.6510   -1.3780 O   0  0  0  0  0  0  0  0  0  0  0  0
    0.5550   -4.7960    0.6620 O   0  0  0  0  0  0  0  0  0  0  0  0
    1.9410   -1.4350   -4.2950 H   0  0  0  0  0  0  0  0  0  0  0  0
    1.2100    0.1060   -3.6300 H   0  0  0  0  0  0  0  0  0  0  0  0
    1.3290   -0.1850   -5.4030 H   0  0  0  0  0  0  0  0  0  0  0  0
   -1.0840   -0.9560   -2.1600 H   0  0  0  0  0  0  0  0  0  0  0  0
   -2.1510   -2.2150   -2.9310 H   0  0  0  0  0  0  0  0  0  0  0  0
    0.8080   -2.8620   -2.3940 H   0  0  0  0  0  0  0  0  0  0  0  0
   -0.5170   -3.8560   -2.9680 H   0  0  0  0  0  0  0  0  0  0  0  0
   -1.8240   -3.6900   -1.0820 H   0  0  0  0  0  0  0  0  0  0  0  0
    0.2180   -2.1870    0.5270 H   0  0  0  0  0  0  0  0  0  0  0  0
  1 13  1  0  0  0  0
  2 14  1  1  0  0  0
  2  1  1  0  0  0  0
  3 15  1  0  0  0  0
  3  2  1  0  0  0  0
  4  9  1  0  0  0  0
  4  3  1  0  0  0  0
  5  4  2  0  0  0  0
  6  7  2  0  0  0  0
  6  5  1  0  0  0  0
  7  8  1  0  0  0  0
  8 20  1  0  0  0  0
  8  9  2  0  0  0  0
  9 21  1  0  0  0  0
 10 27  1  0  0  0  0
 10  2  1  0  0  0  0
 11 10  2  0  0  0  0
 12  1  1  0  0  0  0
 16  3  1  0  0  0  0
 17  5  1  0  0  0  0
 18  6  1  0  0  0  0
 19  7  1  0  0  0  0
 22 32  1  0  0  0  0
 22 30  1  0  0  0  0
 23 33  1  0  0  0  0
 23 22  1  0  0  0  0
 24 23  1  0  0  0  0
 24 36  1  0  0  0  0
 25 26  1  0  0  0  0
 25 23  1  0  0  0  0
 26 27  1  0  0  0  0
 26 39  1  1  0  0  0
 27 40  1  0  0  0  0
 28 26  1  0  0  0  0
 29 28  2  0  0  0  0
 31 22  1  0  0  0  0
 34 24  1  0  0  0  0
 35 24  1  0  0  0  0
 37 25  1  0  0  0  0
 38 25  1  0  0  0  0
 41 50  1  0  0  0  0
 41 51  1  0  0  0  0
 42 41  1  0  0  0  0
 42 43  1  0  0  0  0
 43 44  1  0  0  0  0
 43 53  1  0  0  0  0
 44 45  1  0  0  0  0
 45 57  1  6  0  0  0
 45 47  1  0  0  0  0
 45 46  1  0  0  0  0
 46 58  1  0  0  0  0
 46 28  1  0  0  0  0
 47 49  1  0  0  0  0
 48 47  2  0  0  0  0
 52 41  1  0  0  0  0
 54 43  1  0  0  0  0
 55 44  1  0  0  0  0
 56 44  1  0  0  0  0
M  END
$$$$
