FLN.pdb
 OpenBabel07022419003D

 55 55  0  0  1  0  0  0  0  0999 V2000
    2.9500   -2.6410    2.8910 N   0  0  0  0  0  0  0  0  0  0  0  0
    2.1930   -1.5310    2.3270 C   0  0  1  0  0  0  0  0  0  0  0  0
    2.9380   -0.9910    1.1010 C   0  0  0  0  0  0  0  0  0  0  0  0
    4.2930   -0.5170    1.4780 C   0  0  0  0  0  0  0  0  0  0  0  0
    5.3240   -1.4540    1.4430 C   0  0  0  0  0  0  0  0  0  0  0  0
    6.6010   -1.0390    1.7890 C   0  0  0  0  0  0  0  0  0  0  0  0
    6.8630    0.2630    2.1610 C   0  0  0  0  0  0  0  0  0  0  0  0
    5.8570    1.2020    2.2020 C   0  0  0  0  0  0  0  0  0  0  0  0
    4.5750    0.7740    1.8510 C   0  0  0  0  0  0  0  0  0  0  0  0
    0.8870   -2.0340    1.7770 C   0  0  0  0  0  0  0  0  0  0  0  0
    0.6110   -3.2590    1.7020 O   0  0  0  0  0  0  0  0  0  0  0  0
    3.4790   -2.2560    3.7070 H   0  0  0  0  0  0  0  0  0  0  0  0
    2.2570   -3.3100    3.2780 H   0  0  0  0  0  0  0  0  0  0  0  0
    2.0880   -0.7240    3.0410 H   0  0  0  0  0  0  0  0  0  0  0  0
    2.9720   -1.8360    0.3840 H   0  0  0  0  0  0  0  0  0  0  0  0
    2.3220   -0.1400    0.7360 H   0  0  0  0  0  0  0  0  0  0  0  0
    5.1440   -2.4810    1.1550 H   0  0  0  0  0  0  0  0  0  0  0  0
    7.4470   -1.7350    1.7760 H   0  0  0  0  0  0  0  0  0  0  0  0
    7.8780    0.5730    2.4320 H   0  0  0  0  0  0  0  0  0  0  0  0
    6.0020    2.2280    2.4820 H   0  0  0  0  0  0  0  0  0  0  0  0
    3.7320    1.4790    1.8650 H   0  0  0  0  0  0  0  0  0  0  0  0
   -3.7190    0.2200    3.2490 C   0  0  0  0  0  0  0  0  0  0  0  0
   -2.6160    0.0930    2.1750 C   0  0  0  0  0  0  0  0  0  0  0  0
   -3.1330    0.8790    0.9980 C   0  0  0  0  0  0  0  0  0  0  0  0
   -2.4160   -1.3300    1.7930 C   0  0  0  0  0  0  0  0  0  0  0  0
   -1.3690   -1.6190    0.7800 C   0  0  2  0  0  0  0  0  0  0  0  0
   -0.1090   -1.1280    1.3120 N   0  0  0  0  0  0  0  0  0  0  0  0
   -1.6440   -1.1390   -0.5940 C   0  0  0  0  0  0  0  0  0  0  0  0
   -0.8520   -0.3680   -1.1440 O   0  0  0  0  0  0  0  0  0  0  0  0
   -4.7150    0.0520    2.8460 H   0  0  0  0  0  0  0  0  0  0  0  0
   -3.6650    1.3020    3.5700 H   0  0  0  0  0  0  0  0  0  0  0  0
   -3.4680   -0.3740    4.1430 H   0  0  0  0  0  0  0  0  0  0  0  0
   -1.7210    0.5600    2.6330 H   0  0  0  0  0  0  0  0  0  0  0  0
   -3.7200    1.7520    1.4360 H   0  0  0  0  0  0  0  0  0  0  0  0
   -3.9030    0.3240    0.4280 H   0  0  0  0  0  0  0  0  0  0  0  0
   -2.3150    1.2920    0.3830 H   0  0  0  0  0  0  0  0  0  0  0  0
   -2.0960   -1.8690    2.7340 H   0  0  0  0  0  0  0  0  0  0  0  0
   -3.3950   -1.8400    1.5420 H   0  0  0  0  0  0  0  0  0  0  0  0
   -1.3020   -2.7500    0.7270 H   0  0  0  0  0  0  0  0  0  0  0  0
    0.0430   -0.1170    1.3420 H   0  0  0  0  0  0  0  0  0  0  0  0
   -0.9730    1.3480   -4.0080 N   0  0  0  0  0  0  0  0  0  0  0  0
   -2.0480    0.7540   -3.3060 C   0  0  0  0  0  0  0  0  0  0  0  0
   -2.6410    1.4240   -2.4060 O   0  0  0  0  0  0  0  0  0  0  0  0
   -2.4950   -0.6280   -3.6010 C   0  0  0  0  0  0  0  0  0  0  0  0
   -3.3350   -1.2590   -2.5270 C   0  0  2  0  0  0  0  0  0  0  0  0
   -2.7800   -1.5410   -1.2740 N   0  0  0  0  0  0  0  0  0  0  0  0
   -4.2200   -2.2630   -3.1170 C   0  0  0  0  0  0  0  0  0  0  0  0
   -4.7900   -2.1230   -4.2200 O   0  0  0  0  0  0  0  0  0  0  0  0
   -4.4660   -3.4610   -2.4370 O   0  0  0  0  0  0  0  0  0  0  0  0
   -0.5030    0.9000   -4.8230 H   0  0  0  0  0  0  0  0  0  0  0  0
   -0.6300    2.2820   -3.6990 H   0  0  0  0  0  0  0  0  0  0  0  0
   -3.1890   -0.5280   -4.4890 H   0  0  0  0  0  0  0  0  0  0  0  0
   -1.6760   -1.2810   -3.9710 H   0  0  0  0  0  0  0  0  0  0  0  0
   -4.0340   -0.3320   -2.2890 H   0  0  0  0  0  0  0  0  0  0  0  0
   -3.3940   -2.2500   -0.7000 H   0  0  0  0  0  0  0  0  0  0  0  0
  1 13  1  0  0  0  0
  1 12  1  0  0  0  0
  2  1  1  0  0  0  0
  2 14  1  1  0  0  0
  3  4  1  0  0  0  0
  3  2  1  0  0  0  0
  4  9  1  0  0  0  0
  5  4  2  0  0  0  0
  5  6  1  0  0  0  0
  6  7  2  0  0  0  0
  7  8  1  0  0  0  0
  7 19  1  0  0  0  0
  8 20  1  0  0  0  0
  9 21  1  0  0  0  0
  9  8  2  0  0  0  0
 10  2  1  0  0  0  0
 11 10  2  0  0  0  0
 15  3  1  0  0  0  0
 16  3  1  0  0  0  0
 17  5  1  0  0  0  0
 18  6  1  0  0  0  0
 22 31  1  0  0  0  0
 22 32  1  0  0  0  0
 23 33  1  0  0  0  0
 23 22  1  0  0  0  0
 24 34  1  0  0  0  0
 24 23  1  0  0  0  0
 25 23  1  0  0  0  0
 25 37  1  0  0  0  0
 26 39  1  6  0  0  0
 26 27  1  0  0  0  0
 26 25  1  0  0  0  0
 27 40  1  0  0  0  0
 27 10  1  0  0  0  0
 28 26  1  0  0  0  0
 29 28  2  0  0  0  0
 30 22  1  0  0  0  0
 35 24  1  0  0  0  0
 36 24  1  0  0  0  0
 38 25  1  0  0  0  0
 41 51  1  0  0  0  0
 41 42  1  0  0  0  0
 42 43  2  0  0  0  0
 44 42  1  0  0  0  0
 44 45  1  0  0  0  0
 45 54  1  1  0  0  0
 45 46  1  0  0  0  0
 46 55  1  0  0  0  0
 46 28  1  0  0  0  0
 47 45  1  0  0  0  0
 47 49  1  0  0  0  0
 48 47  2  0  0  0  0
 50 41  1  0  0  0  0
 52 44  1  0  0  0  0
 53 44  1  0  0  0  0
M  END
$$$$
