FLP.pdb
 OpenBabel07022419003D

 55 56  0  0  1  0  0  0  0  0999 V2000
    2.4010   -1.5570    2.6630 N   0  0  0  0  0  0  0  0  0  0  0  0
    1.8400   -0.6740    1.6290 C   0  0  1  0  0  0  0  0  0  0  0  0
    2.2770   -1.1920    0.3180 C   0  0  0  0  0  0  0  0  0  0  0  0
    3.7340   -1.2480    0.1220 C   0  0  0  0  0  0  0  0  0  0  0  0
    4.4950   -0.2380   -0.3990 C   0  0  0  0  0  0  0  0  0  0  0  0
    5.8620   -0.3330   -0.5660 C   0  0  0  0  0  0  0  0  0  0  0  0
    6.5170   -1.4870   -0.1980 C   0  0  0  0  0  0  0  0  0  0  0  0
    5.7700   -2.5170    0.3300 C   0  0  0  0  0  0  0  0  0  0  0  0
    4.3860   -2.4070    0.4920 C   0  0  0  0  0  0  0  0  0  0  0  0
    0.3710   -0.7160    1.8210 C   0  0  0  0  0  0  0  0  0  0  0  0
   -0.1830   -1.3780    2.7630 O   0  0  0  0  0  0  0  0  0  0  0  0
    2.3350   -1.0670    3.5820 H   0  0  0  0  0  0  0  0  0  0  0  0
    1.7810   -2.4080    2.7040 H   0  0  0  0  0  0  0  0  0  0  0  0
    2.1500    0.3680    1.8440 H   0  0  0  0  0  0  0  0  0  0  0  0
    1.8760   -0.5700   -0.5380 H   0  0  0  0  0  0  0  0  0  0  0  0
    1.8720   -2.2080    0.1620 H   0  0  0  0  0  0  0  0  0  0  0  0
    4.0190    0.6630   -0.6920 H   0  0  0  0  0  0  0  0  0  0  0  0
    6.4270    0.4810   -0.9790 H   0  0  0  0  0  0  0  0  0  0  0  0
    7.5920   -1.5420   -0.3370 H   0  0  0  0  0  0  0  0  0  0  0  0
    6.2950   -3.4200    0.6150 H   0  0  0  0  0  0  0  0  0  0  0  0
    3.8830   -3.2500    0.9080 H   0  0  0  0  0  0  0  0  0  0  0  0
   -2.2290    1.4170    3.6840 C   0  0  0  0  0  0  0  0  0  0  0  0
   -1.8990    2.1370    2.4070 C   0  0  0  0  0  0  0  0  0  0  0  0
   -2.5760    3.4940    2.4720 C   0  0  0  0  0  0  0  0  0  0  0  0
   -2.5140    1.3740    1.2480 C   0  0  0  0  0  0  0  0  0  0  0  0
   -1.9710   -0.0510    1.1670 C   0  0  2  0  0  0  0  0  0  0  0  0
   -0.5640   -0.0240    0.9820 N   0  0  0  0  0  0  0  0  0  0  0  0
   -2.7930   -0.7650    0.1970 C   0  0  0  0  0  0  0  0  0  0  0  0
   -4.0710   -0.6060    0.4270 O   0  0  0  0  0  0  0  0  0  0  0  0
   -1.3970    0.7450    4.0100 H   0  0  0  0  0  0  0  0  0  0  0  0
   -2.5000    2.1130    4.5060 H   0  0  0  0  0  0  0  0  0  0  0  0
   -3.1080    0.7590    3.5090 H   0  0  0  0  0  0  0  0  0  0  0  0
   -0.8200    2.2570    2.2580 H   0  0  0  0  0  0  0  0  0  0  0  0
   -2.3310    3.9660    3.4440 H   0  0  0  0  0  0  0  0  0  0  0  0
   -2.3080    4.1280    1.6010 H   0  0  0  0  0  0  0  0  0  0  0  0
   -3.6820    3.2740    2.4750 H   0  0  0  0  0  0  0  0  0  0  0  0
   -3.6110    1.2910    1.3500 H   0  0  0  0  0  0  0  0  0  0  0  0
   -2.3310    1.9160    0.2970 H   0  0  0  0  0  0  0  0  0  0  0  0
   -2.2440   -0.5150    2.1730 H   0  0  0  0  0  0  0  0  0  0  0  0
   -0.1400    0.5350    0.2100 H   0  0  0  0  0  0  0  0  0  0  0  0
   -2.4320   -1.5580   -0.8900 N   0  0  0  0  0  0  0  0  0  0  0  0
   -1.1480   -1.9400   -1.3840 C   0  0  0  0  0  0  0  0  0  0  0  0
   -1.2820   -1.5040   -2.8560 C   0  0  0  0  0  0  0  0  0  0  0  0
   -2.6820   -2.0620   -3.1480 C   0  0  0  0  0  0  0  0  0  0  0  0
   -3.3690   -2.2090   -1.8210 C   0  0  1  0  0  0  0  0  0  0  0  0
   -3.6000   -3.6170   -1.4310 C   0  0  0  0  0  0  0  0  0  0  0  0
   -4.3850   -4.2850   -2.1510 O   0  0  0  0  0  0  0  0  0  0  0  0
   -3.0180   -4.2270   -0.3490 O   0  0  0  0  0  0  0  0  0  0  0  0
   -1.0100   -3.0510   -1.4050 H   0  0  0  0  0  0  0  0  0  0  0  0
   -0.2840   -1.4160   -1.0080 H   0  0  0  0  0  0  0  0  0  0  0  0
   -0.5150   -1.9650   -3.4840 H   0  0  0  0  0  0  0  0  0  0  0  0
   -1.2820   -0.4010   -2.8680 H   0  0  0  0  0  0  0  0  0  0  0  0
   -3.1950   -1.3650   -3.8370 H   0  0  0  0  0  0  0  0  0  0  0  0
   -2.6090   -3.0310   -3.6980 H   0  0  0  0  0  0  0  0  0  0  0  0
   -4.3330   -1.6880   -1.8650 H   0  0  0  0  0  0  0  0  0  0  0  0
  1 13  1  0  0  0  0
  1 12  1  0  0  0  0
  2 10  1  0  0  0  0
  2 14  1  1  0  0  0
  2  1  1  0  0  0  0
  3  2  1  0  0  0  0
  4  3  1  0  0  0  0
  4  9  1  0  0  0  0
  5  4  2  0  0  0  0
  6  5  1  0  0  0  0
  6  7  2  0  0  0  0
  7  8  1  0  0  0  0
  8  9  2  0  0  0  0
  8 20  1  0  0  0  0
  9 21  1  0  0  0  0
 10 11  2  0  0  0  0
 15  3  1  0  0  0  0
 16  3  1  0  0  0  0
 17  5  1  0  0  0  0
 18  6  1  0  0  0  0
 19  7  1  0  0  0  0
 22 30  1  0  0  0  0
 22 31  1  0  0  0  0
 23 24  1  0  0  0  0
 23 22  1  0  0  0  0
 24 36  1  0  0  0  0
 24 34  1  0  0  0  0
 25 37  1  0  0  0  0
 25 23  1  0  0  0  0
 26 25  1  0  0  0  0
 26 39  1  1  0  0  0
 27 26  1  0  0  0  0
 27 10  1  0  0  0  0
 28 29  2  0  0  0  0
 28 26  1  0  0  0  0
 32 22  1  0  0  0  0
 33 23  1  0  0  0  0
 35 24  1  0  0  0  0
 38 25  1  0  0  0  0
 40 27  1  0  0  0  0
 41 28  1  0  0  0  0
 42 50  1  0  0  0  0
 42 41  1  0  0  0  0
 43 42  1  0  0  0  0
 44 43  1  0  0  0  0
 44 45  1  0  0  0  0
 45 55  1  6  0  0  0
 45 46  1  0  0  0  0
 45 41  1  0  0  0  0
 46 48  1  0  0  0  0
 47 46  2  0  0  0  0
 49 42  1  0  0  0  0
 51 43  1  0  0  0  0
 52 43  1  0  0  0  0
 53 44  1  0  0  0  0
 54 44  1  0  0  0  0
M  END
$$$$
