FLQ.pdb
 OpenBabel07022419003D

 58 58  0  0  1  0  0  0  0  0999 V2000
    1.7930   -0.0360    2.7790 N   0  0  0  0  0  0  0  0  0  0  0  0
    1.7940    0.3540    1.3970 C   0  0  1  0  0  0  0  0  0  0  0  0
    2.7580   -0.5120    0.6160 C   0  0  0  0  0  0  0  0  0  0  0  0
    4.1170   -0.3290    1.1950 C   0  0  0  0  0  0  0  0  0  0  0  0
    4.6030   -1.1160    2.2190 C   0  0  0  0  0  0  0  0  0  0  0  0
    5.8710   -0.9190    2.7330 C   0  0  0  0  0  0  0  0  0  0  0  0
    6.7010    0.0720    2.2430 C   0  0  0  0  0  0  0  0  0  0  0  0
    6.2180    0.8580    1.2220 C   0  0  0  0  0  0  0  0  0  0  0  0
    4.9550    0.6610    0.7100 C   0  0  0  0  0  0  0  0  0  0  0  0
    0.4140    0.2420    0.8650 C   0  0  0  0  0  0  0  0  0  0  0  0
    0.1780    0.5370   -0.3350 O   0  0  0  0  0  0  0  0  0  0  0  0
    1.5310   -1.0210    2.8770 H   0  0  0  0  0  0  0  0  0  0  0  0
    1.2090    0.5960    3.3530 H   0  0  0  0  0  0  0  0  0  0  0  0
    2.0970    1.4180    1.2670 H   0  0  0  0  0  0  0  0  0  0  0  0
    2.7890   -0.1560   -0.4440 H   0  0  0  0  0  0  0  0  0  0  0  0
    2.4660   -1.5630    0.6030 H   0  0  0  0  0  0  0  0  0  0  0  0
    3.9490   -1.8900    2.5990 H   0  0  0  0  0  0  0  0  0  0  0  0
    6.2210   -1.5580    3.5410 H   0  0  0  0  0  0  0  0  0  0  0  0
    7.7020    0.2220    2.6550 H   0  0  0  0  0  0  0  0  0  0  0  0
    6.8590    1.6360    0.8300 H   0  0  0  0  0  0  0  0  0  0  0  0
    4.5800    1.2830   -0.0950 H   0  0  0  0  0  0  0  0  0  0  0  0
   -1.3260    2.7270    1.5000 C   0  0  0  0  0  0  0  0  0  0  0  0
   -2.6060    2.1250    1.0630 C   0  0  0  0  0  0  0  0  0  0  0  0
   -3.1870    3.0900    0.0090 C   0  0  0  0  0  0  0  0  0  0  0  0
   -2.5880    0.7880    0.4370 C   0  0  0  0  0  0  0  0  0  0  0  0
   -2.0250   -0.3340    1.2900 C   0  0  2  0  0  0  0  0  0  0  0  0
   -0.6640   -0.1900    1.6660 N   0  0  0  0  0  0  0  0  0  0  0  0
   -2.3900   -1.6180    0.6690 C   0  0  0  0  0  0  0  0  0  0  0  0
   -3.5770   -1.8060    0.3150 O   0  0  0  0  0  0  0  0  0  0  0  0
   -1.5970    3.7750    1.8700 H   0  0  0  0  0  0  0  0  0  0  0  0
   -0.8690    2.2670    2.4030 H   0  0  0  0  0  0  0  0  0  0  0  0
   -0.6470    2.9150    0.6690 H   0  0  0  0  0  0  0  0  0  0  0  0
   -3.3310    2.1720    1.9140 H   0  0  0  0  0  0  0  0  0  0  0  0
   -2.6740    2.8850   -0.9490 H   0  0  0  0  0  0  0  0  0  0  0  0
   -2.9670    4.1390    0.2860 H   0  0  0  0  0  0  0  0  0  0  0  0
   -4.2620    2.9000   -0.1420 H   0  0  0  0  0  0  0  0  0  0  0  0
   -2.0930    0.7790   -0.5500 H   0  0  0  0  0  0  0  0  0  0  0  0
   -3.6730    0.5320    0.2110 H   0  0  0  0  0  0  0  0  0  0  0  0
   -2.6310   -0.2230    2.2670 H   0  0  0  0  0  0  0  0  0  0  0  0
   -0.3940   -0.4340    2.6680 H   0  0  0  0  0  0  0  0  0  0  0  0
   -3.0360   -1.8590   -3.8820 N   0  0  0  0  0  0  0  0  0  0  0  0
   -2.7600   -2.8980   -2.9510 C   0  0  0  0  0  0  0  0  0  0  0  0
   -3.7410   -3.5630   -2.5460 O   0  0  0  0  0  0  0  0  0  0  0  0
   -1.3710   -3.1430   -2.5160 C   0  0  0  0  0  0  0  0  0  0  0  0
   -1.2130   -4.1860   -1.4640 C   0  0  0  0  0  0  0  0  0  0  0  0
   -1.9200   -3.8830   -0.1690 C   0  0  2  0  0  0  0  0  0  0  0  0
   -1.4650   -2.6650    0.4460 N   0  0  0  0  0  0  0  0  0  0  0  0
   -1.7480   -5.0270    0.7330 C   0  0  0  0  0  0  0  0  0  0  0  0
   -2.0870   -6.1720    0.3730 O   0  0  0  0  0  0  0  0  0  0  0  0
   -1.2090   -4.8370    1.9880 O   0  0  0  0  0  0  0  0  0  0  0  0
   -3.7270   -1.1380   -3.5770 H   0  0  0  0  0  0  0  0  0  0  0  0
   -2.5980   -1.7830   -4.8220 H   0  0  0  0  0  0  0  0  0  0  0  0
   -0.9190   -2.1540   -2.2020 H   0  0  0  0  0  0  0  0  0  0  0  0
   -0.7830   -3.3990   -3.4390 H   0  0  0  0  0  0  0  0  0  0  0  0
   -0.1650   -4.5080   -1.3150 H   0  0  0  0  0  0  0  0  0  0  0  0
   -1.7260   -5.1110   -1.8690 H   0  0  0  0  0  0  0  0  0  0  0  0
   -3.0050   -3.8210   -0.3920 H   0  0  0  0  0  0  0  0  0  0  0  0
   -0.4640   -2.5720    0.7170 H   0  0  0  0  0  0  0  0  0  0  0  0
  1 12  1  0  0  0  0
  1 13  1  0  0  0  0
  2 14  1  6  0  0  0
  2  1  1  0  0  0  0
  3  4  1  0  0  0  0
  3  2  1  0  0  0  0
  4  5  1  0  0  0  0
  5 17  1  0  0  0  0
  5  6  2  0  0  0  0
  6 18  1  0  0  0  0
  7 19  1  0  0  0  0
  7  6  1  0  0  0  0
  8  7  2  0  0  0  0
  9  4  2  0  0  0  0
  9  8  1  0  0  0  0
 10  2  1  0  0  0  0
 10 27  1  0  0  0  0
 11 10  2  0  0  0  0
 15  3  1  0  0  0  0
 16  3  1  0  0  0  0
 20  8  1  0  0  0  0
 21  9  1  0  0  0  0
 22 30  1  0  0  0  0
 22 31  1  0  0  0  0
 23 22  1  0  0  0  0
 23 33  1  0  0  0  0
 24 35  1  0  0  0  0
 24 23  1  0  0  0  0
 25 23  1  0  0  0  0
 25 26  1  0  0  0  0
 26 27  1  0  0  0  0
 26 39  1  1  0  0  0
 27 40  1  0  0  0  0
 28 26  1  0  0  0  0
 29 28  2  0  0  0  0
 32 22  1  0  0  0  0
 34 24  1  0  0  0  0
 36 24  1  0  0  0  0
 37 25  1  0  0  0  0
 38 25  1  0  0  0  0
 41 51  1  0  0  0  0
 41 42  1  0  0  0  0
 42 43  2  0  0  0  0
 42 44  1  0  0  0  0
 44 53  1  0  0  0  0
 44 45  1  0  0  0  0
 45 55  1  0  0  0  0
 45 46  1  0  0  0  0
 46 57  1  6  0  0  0
 46 47  1  0  0  0  0
 46 48  1  0  0  0  0
 47 28  1  0  0  0  0
 47 58  1  0  0  0  0
 48 50  1  0  0  0  0
 49 48  2  0  0  0  0
 52 41  1  0  0  0  0
 54 44  1  0  0  0  0
 56 45  1  0  0  0  0
M  END
$$$$
