FLR.pdb
 OpenBabel07022419003D

 64 64  0  0  1  0  0  0  0  0999 V2000
    1.0670   -2.9470    2.9860 N   0  0  0  0  0  0  0  0  0  0  0  0
    2.1670   -2.0390    2.7140 C   0  0  1  0  0  0  0  0  0  0  0  0
    3.2220   -2.7060    1.9010 C   0  0  0  0  0  0  0  0  0  0  0  0
    4.3280   -1.7710    1.6340 C   0  0  0  0  0  0  0  0  0  0  0  0
    5.4010   -1.5840    2.5280 C   0  0  0  0  0  0  0  0  0  0  0  0
    6.4080   -0.7050    2.2180 C   0  0  0  0  0  0  0  0  0  0  0  0
    6.4600    0.0320    1.0740 C   0  0  0  0  0  0  0  0  0  0  0  0
    5.3900   -0.1440    0.1660 C   0  0  0  0  0  0  0  0  0  0  0  0
    4.3930   -1.0270    0.4910 C   0  0  0  0  0  0  0  0  0  0  0  0
    1.5840   -0.8110    2.1080 C   0  0  0  0  0  0  0  0  0  0  0  0
    2.3310    0.1630    1.8400 O   0  0  0  0  0  0  0  0  0  0  0  0
    0.6720   -3.3450    2.1260 H   0  0  0  0  0  0  0  0  0  0  0  0
    0.3700   -2.5550    3.6470 H   0  0  0  0  0  0  0  0  0  0  0  0
    2.6190   -1.8260    3.7120 H   0  0  0  0  0  0  0  0  0  0  0  0
    2.7690   -3.0020    0.9270 H   0  0  0  0  0  0  0  0  0  0  0  0
    3.5580   -3.6060    2.4700 H   0  0  0  0  0  0  0  0  0  0  0  0
    5.3780   -2.1550    3.4350 H   0  0  0  0  0  0  0  0  0  0  0  0
    7.2540   -0.5480    2.9130 H   0  0  0  0  0  0  0  0  0  0  0  0
    7.2250    0.7280    0.7810 H   0  0  0  0  0  0  0  0  0  0  0  0
    5.3990    0.4220   -0.7480 H   0  0  0  0  0  0  0  0  0  0  0  0
    3.5430   -1.1810   -0.2150 H   0  0  0  0  0  0  0  0  0  0  0  0
    0.4970    3.5680    3.3260 C   0  0  0  0  0  0  0  0  0  0  0  0
   -0.0640    2.1630    3.0690 C   0  0  0  0  0  0  0  0  0  0  0  0
    0.4540    1.2610    4.1120 C   0  0  0  0  0  0  0  0  0  0  0  0
    0.0170    1.7960    1.6450 C   0  0  0  0  0  0  0  0  0  0  0  0
   -0.4860    0.4210    1.2700 C   0  0  2  0  0  0  0  0  0  0  0  0
    0.2120   -0.6840    1.8180 N   0  0  0  0  0  0  0  0  0  0  0  0
   -0.9290    0.2940   -0.1220 C   0  0  0  0  0  0  0  0  0  0  0  0
   -1.5520    1.2650   -0.6780 O   0  0  0  0  0  0  0  0  0  0  0  0
    0.2810    4.2560    2.5100 H   0  0  0  0  0  0  0  0  0  0  0  0
    1.5900    3.4690    3.5520 H   0  0  0  0  0  0  0  0  0  0  0  0
    0.0450    3.9220    4.2790 H   0  0  0  0  0  0  0  0  0  0  0  0
   -1.1830    2.3130    3.3440 H   0  0  0  0  0  0  0  0  0  0  0  0
   -0.0850    0.2710    4.1570 H   0  0  0  0  0  0  0  0  0  0  0  0
    1.5430    1.1810    4.2150 H   0  0  0  0  0  0  0  0  0  0  0  0
    0.1380    1.7260    5.1080 H   0  0  0  0  0  0  0  0  0  0  0  0
   -0.6130    2.5570    1.0810 H   0  0  0  0  0  0  0  0  0  0  0  0
    1.0320    1.9350    1.2380 H   0  0  0  0  0  0  0  0  0  0  0  0
   -1.4880    0.4050    1.8980 H   0  0  0  0  0  0  0  0  0  0  0  0
   -0.3720   -1.5630    2.0440 H   0  0  0  0  0  0  0  0  0  0  0  0
   -7.1860   -3.0020   -3.9910 N   0  0  0  0  0  0  0  0  0  0  0  0
   -6.7060   -2.1120   -3.0150 C   0  0  0  0  0  0  0  0  0  0  0  0
   -7.3680   -1.2610   -2.3330 N   0  0  0  0  0  0  0  0  0  0  0  0
   -5.2780   -2.1780   -2.7710 N   0  0  0  0  0  0  0  0  0  0  0  0
   -4.7460   -2.0710   -1.4420 C   0  0  0  0  0  0  0  0  0  0  0  0
   -3.2230   -2.1010   -1.4570 C   0  0  0  0  0  0  0  0  0  0  0  0
   -2.6920   -0.9360   -2.2710 C   0  0  0  0  0  0  0  0  0  0  0  0
   -1.1810   -0.9410   -2.3030 C   0  0  2  0  0  0  0  0  0  0  0  0
   -0.7180   -0.8470   -0.9190 N   0  0  0  0  0  0  0  0  0  0  0  0
   -0.6660    0.2010   -3.1060 C   0  0  0  0  0  0  0  0  0  0  0  0
   -0.9970    0.2960   -4.3370 O   0  0  0  0  0  0  0  0  0  0  0  0
    0.1590    1.1900   -2.6310 O   0  0  0  0  0  0  0  0  0  0  0  0
   -7.4650   -3.9620   -3.7170 H   0  0  0  0  0  0  0  0  0  0  0  0
   -7.2880   -2.7550   -5.0160 H   0  0  0  0  0  0  0  0  0  0  0  0
   -8.4220   -1.1720   -2.4800 H   0  0  0  0  0  0  0  0  0  0  0  0
   -4.6670   -2.3150   -3.5940 H   0  0  0  0  0  0  0  0  0  0  0  0
   -5.1330   -1.1720   -0.9520 H   0  0  0  0  0  0  0  0  0  0  0  0
   -5.0300   -2.9440   -0.7890 H   0  0  0  0  0  0  0  0  0  0  0  0
   -2.8310   -3.0280   -1.9010 H   0  0  0  0  0  0  0  0  0  0  0  0
   -2.8720   -2.0380   -0.4150 H   0  0  0  0  0  0  0  0  0  0  0  0
   -3.1140   -0.0150   -1.8290 H   0  0  0  0  0  0  0  0  0  0  0  0
   -3.0660   -0.9750   -3.3150 H   0  0  0  0  0  0  0  0  0  0  0  0
   -0.7850   -1.8670   -2.7790 H   0  0  0  0  0  0  0  0  0  0  0  0
   -0.2100   -1.6500   -0.4900 H   0  0  0  0  0  0  0  0  0  0  0  0
  1 13  1  0  0  0  0
  2  1  1  0  0  0  0
  2 14  1  1  0  0  0
  3 16  1  0  0  0  0
  3  2  1  0  0  0  0
  4  3  1  0  0  0  0
  4  5  1  0  0  0  0
  5 17  1  0  0  0  0
  6  5  2  0  0  0  0
  6 18  1  0  0  0  0
  7  6  1  0  0  0  0
  8  9  1  0  0  0  0
  8  7  2  0  0  0  0
  9  4  2  0  0  0  0
 10  2  1  0  0  0  0
 11 10  2  0  0  0  0
 12  1  1  0  0  0  0
 15  3  1  0  0  0  0
 19  7  1  0  0  0  0
 20  8  1  0  0  0  0
 21  9  1  0  0  0  0
 22 31  1  0  0  0  0
 22 32  1  0  0  0  0
 23 22  1  0  0  0  0
 23 33  1  0  0  0  0
 23 24  1  0  0  0  0
 24 34  1  0  0  0  0
 24 35  1  0  0  0  0
 24 36  1  0  0  0  0
 25 23  1  0  0  0  0
 26 25  1  0  0  0  0
 26 27  1  0  0  0  0
 26 39  1  1  0  0  0
 27 40  1  0  0  0  0
 27 10  1  0  0  0  0
 28 26  1  0  0  0  0
 29 28  2  0  0  0  0
 30 22  1  0  0  0  0
 37 25  1  0  0  0  0
 38 25  1  0  0  0  0
 41 53  1  0  0  0  0
 41 42  1  0  0  0  0
 42 44  1  0  0  0  0
 42 43  2  0  0  0  0
 44 45  1  0  0  0  0
 45 57  1  0  0  0  0
 45 58  1  0  0  0  0
 46 45  1  0  0  0  0
 46 60  1  0  0  0  0
 47 61  1  0  0  0  0
 47 46  1  0  0  0  0
 48 63  1  6  0  0  0
 48 47  1  0  0  0  0
 48 49  1  0  0  0  0
 49 64  1  0  0  0  0
 49 28  1  0  0  0  0
 50 52  1  0  0  0  0
 50 48  1  0  0  0  0
 51 50  2  0  0  0  0
 54 41  1  0  0  0  0
 55 43  1  0  0  0  0
 56 44  1  0  0  0  0
 59 46  1  0  0  0  0
 62 47  1  0  0  0  0
M  END
$$$$
