FLS.pdb
 OpenBabel07022419003D

 52 52  0  0  1  0  0  0  0  0999 V2000
    1.4270   -2.7920    2.8250 N   0  0  0  0  0  0  0  0  0  0  0  0
    1.8220   -1.8370    1.7980 C   0  0  1  0  0  0  0  0  0  0  0  0
    2.1680   -2.5860    0.5460 C   0  0  0  0  0  0  0  0  0  0  0  0
    2.5930   -1.7420   -0.5870 C   0  0  0  0  0  0  0  0  0  0  0  0
    1.7430   -1.2670   -1.5640 C   0  0  0  0  0  0  0  0  0  0  0  0
    2.1870   -0.4750   -2.6010 C   0  0  0  0  0  0  0  0  0  0  0  0
    3.5190   -0.1280   -2.6950 C   0  0  0  0  0  0  0  0  0  0  0  0
    4.3720   -0.6020   -1.7190 C   0  0  0  0  0  0  0  0  0  0  0  0
    3.9460   -1.3930   -0.6770 C   0  0  0  0  0  0  0  0  0  0  0  0
    0.7540   -0.8490    1.5420 C   0  0  0  0  0  0  0  0  0  0  0  0
    0.9480    0.0520    0.6970 O   0  0  0  0  0  0  0  0  0  0  0  0
    0.6380   -3.3950    2.5240 H   0  0  0  0  0  0  0  0  0  0  0  0
    1.2110   -2.3100    3.7290 H   0  0  0  0  0  0  0  0  0  0  0  0
    2.7040   -1.2860    2.1890 H   0  0  0  0  0  0  0  0  0  0  0  0
    3.0000   -3.3030    0.7840 H   0  0  0  0  0  0  0  0  0  0  0  0
    1.3050   -3.2150    0.2400 H   0  0  0  0  0  0  0  0  0  0  0  0
    0.7050   -1.5450   -1.4890 H   0  0  0  0  0  0  0  0  0  0  0  0
    1.4930   -0.1050   -3.3720 H   0  0  0  0  0  0  0  0  0  0  0  0
    3.9200    0.4900   -3.4870 H   0  0  0  0  0  0  0  0  0  0  0  0
    5.4350   -0.3250   -1.7940 H   0  0  0  0  0  0  0  0  0  0  0  0
    4.6200   -1.7650    0.0910 H   0  0  0  0  0  0  0  0  0  0  0  0
   -1.5090    1.8190    4.5140 C   0  0  0  0  0  0  0  0  0  0  0  0
   -0.5800    1.9870    3.3230 C   0  0  0  0  0  0  0  0  0  0  0  0
    0.7850    1.4870    3.6390 C   0  0  0  0  0  0  0  0  0  0  0  0
   -1.1820    1.5050    2.0530 C   0  0  0  0  0  0  0  0  0  0  0  0
   -1.5670    0.0490    2.0300 C   0  0  2  0  0  0  0  0  0  0  0  0
   -0.4940   -0.8760    2.2200 N   0  0  0  0  0  0  0  0  0  0  0  0
   -2.3000   -0.2280    0.7790 C   0  0  0  0  0  0  0  0  0  0  0  0
   -3.2880    0.5120    0.4340 O   0  0  0  0  0  0  0  0  0  0  0  0
   -1.6250    0.7780    4.8150 H   0  0  0  0  0  0  0  0  0  0  0  0
   -2.4680    2.3210    4.2620 H   0  0  0  0  0  0  0  0  0  0  0  0
   -1.0590    2.4380    5.3340 H   0  0  0  0  0  0  0  0  0  0  0  0
   -0.4830    3.1110    3.2140 H   0  0  0  0  0  0  0  0  0  0  0  0
    0.7750    0.4700    4.0850 H   0  0  0  0  0  0  0  0  0  0  0  0
    1.4990    1.6380    2.8260 H   0  0  0  0  0  0  0  0  0  0  0  0
    1.1900    2.1320    4.4850 H   0  0  0  0  0  0  0  0  0  0  0  0
   -2.1350    2.0700    1.9070 H   0  0  0  0  0  0  0  0  0  0  0  0
   -0.5090    1.7360    1.2230 H   0  0  0  0  0  0  0  0  0  0  0  0
   -2.3120   -0.1370    2.8710 H   0  0  0  0  0  0  0  0  0  0  0  0
   -0.5770   -1.6830    2.9200 H   0  0  0  0  0  0  0  0  0  0  0  0
   -2.8200   -1.6370   -3.6960 O   0  0  0  0  0  0  0  0  0  0  0  0
   -1.9710   -1.4440   -2.5840 C   0  0  0  0  0  0  0  0  0  0  0  0
   -2.7820   -1.4810   -1.3180 C   0  0  2  0  0  0  0  0  0  0  0  0
   -2.0040   -1.2870   -0.1210 N   0  0  0  0  0  0  0  0  0  0  0  0
   -3.5210   -2.7870   -1.2700 C   0  0  0  0  0  0  0  0  0  0  0  0
   -3.3770   -3.5050   -0.2540 O   0  0  0  0  0  0  0  0  0  0  0  0
   -4.3280   -3.1790   -2.3100 O   0  0  0  0  0  0  0  0  0  0  0  0
   -3.6910   -1.2300   -3.4790 H   0  0  0  0  0  0  0  0  0  0  0  0
   -1.2460   -2.2840   -2.6410 H   0  0  0  0  0  0  0  0  0  0  0  0
   -1.4640   -0.4900   -2.7230 H   0  0  0  0  0  0  0  0  0  0  0  0
   -3.5710   -0.6930   -1.3930 H   0  0  0  0  0  0  0  0  0  0  0  0
   -1.2140   -1.9190    0.1030 H   0  0  0  0  0  0  0  0  0  0  0  0
  1 13  1  0  0  0  0
  2 14  1  1  0  0  0
  2  1  1  0  0  0  0
  3 15  1  0  0  0  0
  3  2  1  0  0  0  0
  4  3  1  0  0  0  0
  5 17  1  0  0  0  0
  5  4  2  0  0  0  0
  6  5  1  0  0  0  0
  7  6  2  0  0  0  0
  7  8  1  0  0  0  0
  8  9  2  0  0  0  0
  9  4  1  0  0  0  0
  9 21  1  0  0  0  0
 10  2  1  0  0  0  0
 10 27  1  0  0  0  0
 11 10  2  0  0  0  0
 12  1  1  0  0  0  0
 16  3  1  0  0  0  0
 18  6  1  0  0  0  0
 19  7  1  0  0  0  0
 20  8  1  0  0  0  0
 22 30  1  0  0  0  0
 22 32  1  0  0  0  0
 23 24  1  0  0  0  0
 23 22  1  0  0  0  0
 24 34  1  0  0  0  0
 24 36  1  0  0  0  0
 25 23  1  0  0  0  0
 26 25  1  0  0  0  0
 26 27  1  0  0  0  0
 26 39  1  1  0  0  0
 27 40  1  0  0  0  0
 28 26  1  0  0  0  0
 29 28  2  0  0  0  0
 31 22  1  0  0  0  0
 33 23  1  0  0  0  0
 35 24  1  0  0  0  0
 37 25  1  0  0  0  0
 38 25  1  0  0  0  0
 41 48  1  0  0  0  0
 41 42  1  0  0  0  0
 42 43  1  0  0  0  0
 43 51  1  6  0  0  0
 43 45  1  0  0  0  0
 43 44  1  0  0  0  0
 44 52  1  0  0  0  0
 44 28  1  0  0  0  0
 45 46  1  0  0  0  0
 47 45  2  0  0  0  0
 49 42  1  0  0  0  0
 50 42  1  0  0  0  0
M  END
$$$$
