FLW.pdb
 OpenBabel07022419003D

 65 67  0  0  1  0  0  0  0  0999 V2000
    0.2990    2.4340    3.8880 N   0  0  0  0  0  0  0  0  0  0  0  0
    0.5190    2.6020    2.4600 C   0  0  1  0  0  0  0  0  0  0  0  0
    1.9900    2.3930    2.2210 C   0  0  0  0  0  0  0  0  0  0  0  0
    2.4250    1.0510    2.6510 C   0  0  0  0  0  0  0  0  0  0  0  0
    2.8060    0.8520    3.9600 C   0  0  0  0  0  0  0  0  0  0  0  0
    3.2410   -0.3900    4.4150 C   0  0  0  0  0  0  0  0  0  0  0  0
    3.2940   -1.4610    3.5430 C   0  0  0  0  0  0  0  0  0  0  0  0
    2.9110   -1.2570    2.2370 C   0  0  0  0  0  0  0  0  0  0  0  0
    2.4780   -0.0090    1.7920 C   0  0  0  0  0  0  0  0  0  0  0  0
   -0.3690    1.7170    1.7050 C   0  0  0  0  0  0  0  0  0  0  0  0
   -1.1790    0.9590    2.3340 O   0  0  0  0  0  0  0  0  0  0  0  0
   -0.6560    2.7130    4.1830 H   0  0  0  0  0  0  0  0  0  0  0  0
    0.4150    1.4180    4.0850 H   0  0  0  0  0  0  0  0  0  0  0  0
    0.2900    3.6940    2.2500 H   0  0  0  0  0  0  0  0  0  0  0  0
    2.2500    2.5820    1.1480 H   0  0  0  0  0  0  0  0  0  0  0  0
    2.5750    3.1440    2.8200 H   0  0  0  0  0  0  0  0  0  0  0  0
    2.7740    1.6800    4.6720 H   0  0  0  0  0  0  0  0  0  0  0  0
    3.5350   -0.5290    5.4400 H   0  0  0  0  0  0  0  0  0  0  0  0
    3.6340   -2.4350    3.8890 H   0  0  0  0  0  0  0  0  0  0  0  0
    2.9320   -2.0480    1.5190 H   0  0  0  0  0  0  0  0  0  0  0  0
    2.1900    0.1430    0.7820 H   0  0  0  0  0  0  0  0  0  0  0  0
   -4.0570    1.9270    0.4130 C   0  0  0  0  0  0  0  0  0  0  0  0
   -3.1510    2.4720   -0.6660 C   0  0  0  0  0  0  0  0  0  0  0  0
   -2.4480    3.6960   -0.1920 C   0  0  0  0  0  0  0  0  0  0  0  0
   -2.2860    1.4360   -1.3050 C   0  0  0  0  0  0  0  0  0  0  0  0
   -1.3580    0.7150   -0.3710 C   0  0  2  0  0  0  0  0  0  0  0  0
   -0.4320    1.6070    0.2890 N   0  0  0  0  0  0  0  0  0  0  0  0
   -0.6700   -0.3370   -1.1920 C   0  0  0  0  0  0  0  0  0  0  0  0
    0.5790   -0.4030   -1.3170 O   0  0  0  0  0  0  0  0  0  0  0  0
   -4.4850    0.9460    0.1160 H   0  0  0  0  0  0  0  0  0  0  0  0
   -3.5820    1.9170    1.4140 H   0  0  0  0  0  0  0  0  0  0  0  0
   -4.9180    2.6260    0.5020 H   0  0  0  0  0  0  0  0  0  0  0  0
   -3.8610    2.8180   -1.4810 H   0  0  0  0  0  0  0  0  0  0  0  0
   -1.4610    3.8440   -0.6610 H   0  0  0  0  0  0  0  0  0  0  0  0
   -2.3140    3.7030    0.9240 H   0  0  0  0  0  0  0  0  0  0  0  0
   -3.0320    4.6290   -0.4370 H   0  0  0  0  0  0  0  0  0  0  0  0
   -2.8690    0.6760   -1.8630 H   0  0  0  0  0  0  0  0  0  0  0  0
   -1.6480    1.9740   -2.0580 H   0  0  0  0  0  0  0  0  0  0  0  0
   -1.9690    0.2070    0.4280 H   0  0  0  0  0  0  0  0  0  0  0  0
    0.2050    2.1810   -0.2740 H   0  0  0  0  0  0  0  0  0  0  0  0
   -1.4600   -1.3110   -1.8640 N   0  0  0  0  0  0  0  0  0  0  0  0
   -0.7730   -2.3250   -2.6500 C   0  0  1  0  0  0  0  0  0  0  0  0
   -1.1500   -3.7070   -2.1830 C   0  0  0  0  0  0  0  0  0  0  0  0
   -0.8110   -3.9790   -0.7720 C   0  0  0  0  0  0  0  0  0  0  0  0
   -1.6700   -3.9840    0.3020 C   0  0  0  0  0  0  0  0  0  0  0  0
   -0.9660   -4.2710    1.3930 N   0  0  0  0  0  0  0  0  0  0  0  0
    0.3330   -4.4600    1.1000 C   0  0  0  0  0  0  0  0  0  0  0  0
    1.3980   -4.7780    1.9370 C   0  0  0  0  0  0  0  0  0  0  0  0
    2.6160   -4.9060    1.3000 C   0  0  0  0  0  0  0  0  0  0  0  0
    2.7790   -4.7340   -0.0580 C   0  0  0  0  0  0  0  0  0  0  0  0
    1.6940   -4.4210   -0.8330 C   0  0  0  0  0  0  0  0  0  0  0  0
    0.4550   -4.2810   -0.2540 C   0  0  0  0  0  0  0  0  0  0  0  0
   -1.1130   -2.2200   -4.0910 C   0  0  0  0  0  0  0  0  0  0  0  0
   -1.8920   -1.3620   -4.5650 O   0  0  0  0  0  0  0  0  0  0  0  0
   -0.5310   -3.1270   -4.9580 O   0  0  0  0  0  0  0  0  0  0  0  0
   -2.5140   -1.3030   -1.7920 H   0  0  0  0  0  0  0  0  0  0  0  0
    0.3250   -2.2260   -2.5790 H   0  0  0  0  0  0  0  0  0  0  0  0
   -0.7450   -4.4900   -2.8540 H   0  0  0  0  0  0  0  0  0  0  0  0
   -2.2730   -3.7890   -2.2850 H   0  0  0  0  0  0  0  0  0  0  0  0
   -2.7320   -3.7930    0.2840 H   0  0  0  0  0  0  0  0  0  0  0  0
   -1.3510   -4.3460    2.3680 H   0  0  0  0  0  0  0  0  0  0  0  0
    1.2530   -4.9080    3.0050 H   0  0  0  0  0  0  0  0  0  0  0  0
    3.4950   -5.1570    1.9100 H   0  0  0  0  0  0  0  0  0  0  0  0
    3.7880   -4.8520   -0.5070 H   0  0  0  0  0  0  0  0  0  0  0  0
    1.7910   -4.2810   -1.8970 H   0  0  0  0  0  0  0  0  0  0  0  0
  1 13  1  0  0  0  0
  1 12  1  0  0  0  0
  2 14  1  6  0  0  0
  2  1  1  0  0  0  0
  3  2  1  0  0  0  0
  3  4  1  0  0  0  0
  3 16  1  0  0  0  0
  4  5  1  0  0  0  0
  5  6  2  0  0  0  0
  5 17  1  0  0  0  0
  6 18  1  0  0  0  0
  7 19  1  0  0  0  0
  7  6  1  0  0  0  0
  8  7  2  0  0  0  0
  9  8  1  0  0  0  0
  9  4  2  0  0  0  0
 10 11  2  0  0  0  0
 10  2  1  0  0  0  0
 15  3  1  0  0  0  0
 20  8  1  0  0  0  0
 21  9  1  0  0  0  0
 22 32  1  0  0  0  0
 22 31  1  0  0  0  0
 23 24  1  0  0  0  0
 23 22  1  0  0  0  0
 24 35  1  0  0  0  0
 25 23  1  0  0  0  0
 25 26  1  0  0  0  0
 26 27  1  0  0  0  0
 26 39  1  1  0  0  0
 27 10  1  0  0  0  0
 28 26  1  0  0  0  0
 29 28  2  0  0  0  0
 30 22  1  0  0  0  0
 33 23  1  0  0  0  0
 34 24  1  0  0  0  0
 36 24  1  0  0  0  0
 37 25  1  0  0  0  0
 38 25  1  0  0  0  0
 40 27  1  0  0  0  0
 41 56  1  0  0  0  0
 41 28  1  0  0  0  0
 42 57  1  1  0  0  0
 42 43  1  0  0  0  0
 42 41  1  0  0  0  0
 43 44  1  0  0  0  0
 44 52  1  0  0  0  0
 44 45  2  0  0  0  0
 45 46  1  0  0  0  0
 46 61  1  0  0  0  0
 47 46  1  0  0  0  0
 47 48  1  0  0  0  0
 48 62  1  0  0  0  0
 49 63  1  0  0  0  0
 49 48  2  0  0  0  0
 50 49  1  0  0  0  0
 51 52  1  0  0  0  0
 51 50  2  0  0  0  0
 52 47  2  0  0  0  0
 53 42  1  0  0  0  0
 54 53  1  0  0  0  0
 55 53  2  0  0  0  0
 58 43  1  0  0  0  0
 59 43  1  0  0  0  0
 60 45  1  0  0  0  0
 64 50  1  0  0  0  0
 65 51  1  0  0  0  0
M  END
$$$$
