FMC.pdb
 OpenBabel07022419003D

 50 50  0  0  1  0  0  0  0  0999 V2000
    1.6230   -3.1990    0.6490 N   0  0  0  0  0  0  0  0  0  0  0  0
    1.8350   -2.0520    1.5440 C   0  0  1  0  0  0  0  0  0  0  0  0
    3.2600   -1.6340    1.3470 C   0  0  0  0  0  0  0  0  0  0  0  0
    3.6790   -0.4830    2.1650 C   0  0  0  0  0  0  0  0  0  0  0  0
    4.2030   -0.6120    3.4350 C   0  0  0  0  0  0  0  0  0  0  0  0
    4.5870    0.5090    4.1660 C   0  0  0  0  0  0  0  0  0  0  0  0
    4.4450    1.7640    3.6220 C   0  0  0  0  0  0  0  0  0  0  0  0
    3.9290    1.8980    2.3700 C   0  0  0  0  0  0  0  0  0  0  0  0
    3.5480    0.7840    1.6450 C   0  0  0  0  0  0  0  0  0  0  0  0
    0.8770   -1.0000    1.1830 C   0  0  0  0  0  0  0  0  0  0  0  0
    0.8740    0.0630    1.8760 O   0  0  0  0  0  0  0  0  0  0  0  0
    2.2530   -3.9780    0.9240 H   0  0  0  0  0  0  0  0  0  0  0  0
    0.6430   -3.4960    0.7820 H   0  0  0  0  0  0  0  0  0  0  0  0
    1.6370   -2.3550    2.5880 H   0  0  0  0  0  0  0  0  0  0  0  0
    3.9460   -2.4930    1.4860 H   0  0  0  0  0  0  0  0  0  0  0  0
    3.3590   -1.3530    0.2610 H   0  0  0  0  0  0  0  0  0  0  0  0
    4.2950   -1.6130    3.8180 H   0  0  0  0  0  0  0  0  0  0  0  0
    4.9910    0.3650    5.1520 H   0  0  0  0  0  0  0  0  0  0  0  0
    4.7430    2.6130    4.1920 H   0  0  0  0  0  0  0  0  0  0  0  0
    3.8070    2.8940    1.9160 H   0  0  0  0  0  0  0  0  0  0  0  0
    3.1410    0.9700    0.6380 H   0  0  0  0  0  0  0  0  0  0  0  0
    0.2080    3.8220   -0.9210 C   0  0  0  0  0  0  0  0  0  0  0  0
   -1.4060    3.0240   -0.9160 S   0  0  0  0  0  0  0  0  0  0  0  0
   -1.4810    1.5970   -2.0170 C   0  0  0  0  0  0  0  0  0  0  0  0
   -0.6050    0.4730   -1.5740 C   0  0  0  0  0  0  0  0  0  0  0  0
   -0.9440   -0.0630   -0.2000 C   0  0  2  0  0  0  0  0  0  0  0  0
   -0.0180   -1.1480    0.1050 N   0  0  0  0  0  0  0  0  0  0  0  0
   -2.3120   -0.5830   -0.0970 C   0  0  0  0  0  0  0  0  0  0  0  0
   -3.3500    0.0980   -0.2950 O   0  0  0  0  0  0  0  0  0  0  0  0
    0.9280    3.3700   -0.2260 H   0  0  0  0  0  0  0  0  0  0  0  0
    0.0790    4.8890   -0.5730 H   0  0  0  0  0  0  0  0  0  0  0  0
    0.6600    3.8970   -1.9310 H   0  0  0  0  0  0  0  0  0  0  0  0
   -2.5220    1.2880   -2.1190 H   0  0  0  0  0  0  0  0  0  0  0  0
   -1.1300    1.9260   -3.0170 H   0  0  0  0  0  0  0  0  0  0  0  0
   -0.6900   -0.3320   -2.3440 H   0  0  0  0  0  0  0  0  0  0  0  0
    0.4620    0.7760   -1.5710 H   0  0  0  0  0  0  0  0  0  0  0  0
   -0.8270    0.7730    0.5050 H   0  0  0  0  0  0  0  0  0  0  0  0
   -0.0510   -2.0030   -0.4920 H   0  0  0  0  0  0  0  0  0  0  0  0
   -2.5680   -1.9600    0.2500 N   0  0  0  0  0  0  0  0  0  0  0  0
   -3.8830   -2.4950    0.3570 C   0  0  1  0  0  0  0  0  0  0  0  0
   -4.1640   -3.6470   -0.5610 C   0  0  0  0  0  0  0  0  0  0  0  0
   -3.9670   -3.1840   -2.3110 S   0  0  0  0  0  0  0  0  0  0  0  0
   -4.0820   -2.9720    1.7490 C   0  0  0  0  0  0  0  0  0  0  0  0
   -3.1710   -2.8690    2.6110 O   0  0  0  0  0  0  0  0  0  0  0  0
   -5.2740   -3.5540    2.1750 O   0  0  0  0  0  0  0  0  0  0  0  0
   -1.7630   -2.6030    0.4340 H   0  0  0  0  0  0  0  0  0  0  0  0
   -4.6310   -1.7110    0.1430 H   0  0  0  0  0  0  0  0  0  0  0  0
   -5.2650   -3.8810   -0.4430 H   0  0  0  0  0  0  0  0  0  0  0  0
   -3.6360   -4.5640   -0.2990 H   0  0  0  0  0  0  0  0  0  0  0  0
   -2.5820   -3.2530   -2.5930 H   0  0  0  0  0  0  0  0  0  0  0  0
  1 13  1  0  0  0  0
  1 12  1  0  0  0  0
  1  2  1  0  0  0  0
  2 14  1  1  0  0  0
  3 15  1  0  0  0  0
  3  2  1  0  0  0  0
  3  4  1  0  0  0  0
  4  5  1  0  0  0  0
  5 17  1  0  0  0  0
  5  6  2  0  0  0  0
  6 18  1  0  0  0  0
  7  6  1  0  0  0  0
  7 19  1  0  0  0  0
  8  7  2  0  0  0  0
  9  4  2  0  0  0  0
  9  8  1  0  0  0  0
 10  2  1  0  0  0  0
 10 11  2  0  0  0  0
 16  3  1  0  0  0  0
 20  8  1  0  0  0  0
 21  9  1  0  0  0  0
 22 23  1  0  0  0  0
 22 31  1  0  0  0  0
 22 30  1  0  0  0  0
 24 25  1  0  0  0  0
 24 23  1  0  0  0  0
 25 36  1  0  0  0  0
 25 26  1  0  0  0  0
 26 28  1  0  0  0  0
 26 27  1  0  0  0  0
 26 37  1  1  0  0  0
 27 10  1  0  0  0  0
 28 39  1  0  0  0  0
 29 28  2  0  0  0  0
 32 22  1  0  0  0  0
 33 24  1  0  0  0  0
 34 24  1  0  0  0  0
 35 25  1  0  0  0  0
 38 27  1  0  0  0  0
 39 40  1  0  0  0  0
 39 46  1  0  0  0  0
 40 47  1  6  0  0  0
 40 43  1  0  0  0  0
 41 48  1  0  0  0  0
 41 49  1  0  0  0  0
 41 40  1  0  0  0  0
 42 41  1  0  0  0  0
 43 45  2  0  0  0  0
 43 44  1  0  0  0  0
 50 42  1  0  0  0  0
M  END
$$$$
