FMD.pdb
 OpenBabel07022419003D

 52 52  0  0  1  0  0  0  0  0999 V2000
   -1.7200    1.0710    3.8800 N   0  0  0  0  0  0  0  0  0  0  0  0
   -0.5960    0.7060    2.9610 C   0  0  1  0  0  0  0  0  0  0  0  0
   -0.0190   -0.5320    3.5360 C   0  0  0  0  0  0  0  0  0  0  0  0
    1.1140   -1.1310    2.8540 C   0  0  0  0  0  0  0  0  0  0  0  0
    2.3600   -0.5540    2.9850 C   0  0  0  0  0  0  0  0  0  0  0  0
    3.4530   -1.1420    2.3930 C   0  0  0  0  0  0  0  0  0  0  0  0
    3.3550   -2.2950    1.6660 C   0  0  0  0  0  0  0  0  0  0  0  0
    2.1130   -2.8740    1.5340 C   0  0  0  0  0  0  0  0  0  0  0  0
    0.9940   -2.2850    2.1330 C   0  0  0  0  0  0  0  0  0  0  0  0
   -1.0950    0.7370    1.5980 C   0  0  0  0  0  0  0  0  0  0  0  0
   -2.3110    1.1020    1.3720 O   0  0  0  0  0  0  0  0  0  0  0  0
   -2.4750    1.5370    3.3670 H   0  0  0  0  0  0  0  0  0  0  0  0
   -1.3440    1.5690    4.7010 H   0  0  0  0  0  0  0  0  0  0  0  0
    0.1550    1.5740    3.1250 H   0  0  0  0  0  0  0  0  0  0  0  0
    0.2080   -0.2940    4.6200 H   0  0  0  0  0  0  0  0  0  0  0  0
   -0.8870   -1.2650    3.6340 H   0  0  0  0  0  0  0  0  0  0  0  0
    2.5120    0.3660    3.5500 H   0  0  0  0  0  0  0  0  0  0  0  0
    4.4330   -0.6700    2.5140 H   0  0  0  0  0  0  0  0  0  0  0  0
    4.2100   -2.7720    1.1910 H   0  0  0  0  0  0  0  0  0  0  0  0
    1.9640   -3.7960    0.9690 H   0  0  0  0  0  0  0  0  0  0  0  0
    0.0510   -2.8060    2.0080 H   0  0  0  0  0  0  0  0  0  0  0  0
    1.2340    4.2920    0.7960 C   0  0  0  0  0  0  0  0  0  0  0  0
    0.9730    2.5840    0.2260 S   0  0  0  0  0  0  0  0  0  0  0  0
    0.1680    2.6330   -1.3850 C   0  0  0  0  0  0  0  0  0  0  0  0
   -0.0580    1.2250   -1.8740 C   0  0  0  0  0  0  0  0  0  0  0  0
   -0.9350    0.5000   -0.9030 C   0  0  2  0  0  0  0  0  0  0  0  0
   -0.3720    0.4050    0.4330 N   0  0  0  0  0  0  0  0  0  0  0  0
   -1.4560   -0.7850   -1.4250 C   0  0  0  0  0  0  0  0  0  0  0  0
   -1.8600   -0.9000   -2.6120 O   0  0  0  0  0  0  0  0  0  0  0  0
    0.3290    4.8870    0.6680 H   0  0  0  0  0  0  0  0  0  0  0  0
    2.0780    4.6880    0.1770 H   0  0  0  0  0  0  0  0  0  0  0  0
    1.5490    4.3010    1.8440 H   0  0  0  0  0  0  0  0  0  0  0  0
    0.7920    3.2230   -2.0880 H   0  0  0  0  0  0  0  0  0  0  0  0
   -0.8060    3.1700   -1.3130 H   0  0  0  0  0  0  0  0  0  0  0  0
    0.8890    0.6920   -2.0780 H   0  0  0  0  0  0  0  0  0  0  0  0
   -0.6030    1.3250   -2.8450 H   0  0  0  0  0  0  0  0  0  0  0  0
   -1.8710    1.1610   -0.7890 H   0  0  0  0  0  0  0  0  0  0  0  0
    0.6260    0.0770    0.5490 H   0  0  0  0  0  0  0  0  0  0  0  0
   -1.5210   -1.9360   -0.6080 N   0  0  0  0  0  0  0  0  0  0  0  0
   -2.0120   -3.2090   -1.0620 C   0  0  1  0  0  0  0  0  0  0  0  0
   -0.9630   -4.3010   -1.0340 C   0  0  0  0  0  0  0  0  0  0  0  0
    0.2010   -3.9810   -1.8900 C   0  0  0  0  0  0  0  0  0  0  0  0
    0.8110   -2.9110   -1.6950 O   0  0  0  0  0  0  0  0  0  0  0  0
   -3.0990   -3.6340   -0.1670 C   0  0  0  0  0  0  0  0  0  0  0  0
   -3.6730   -4.7180   -0.3610 O   0  0  0  0  0  0  0  0  0  0  0  0
    0.6080   -4.8400   -2.8860 O   0  0  0  0  0  0  0  0  0  0  0  0
   -3.4790   -2.8350    0.8840 O   0  0  0  0  0  0  0  0  0  0  0  0
   -1.2030   -1.8120    0.3720 H   0  0  0  0  0  0  0  0  0  0  0  0
   -2.3560   -3.1350   -2.1200 H   0  0  0  0  0  0  0  0  0  0  0  0
   -0.6500   -4.5450    0.0130 H   0  0  0  0  0  0  0  0  0  0  0  0
   -1.4260   -5.2200   -1.4410 H   0  0  0  0  0  0  0  0  0  0  0  0
    1.4150   -4.6280   -3.4590 H   0  0  0  0  0  0  0  0  0  0  0  0
  1 13  1  0  0  0  0
  2 14  1  1  0  0  0
  2  3  1  0  0  0  0
  2  1  1  0  0  0  0
  3 16  1  0  0  0  0
  3 15  1  0  0  0  0
  4  5  1  0  0  0  0
  4  3  1  0  0  0  0
  5 17  1  0  0  0  0
  6 18  1  0  0  0  0
  6  5  2  0  0  0  0
  7  6  1  0  0  0  0
  8  7  2  0  0  0  0
  8  9  1  0  0  0  0
  9  4  2  0  0  0  0
 10  2  1  0  0  0  0
 11 10  2  0  0  0  0
 12  1  1  0  0  0  0
 19  7  1  0  0  0  0
 20  8  1  0  0  0  0
 21  9  1  0  0  0  0
 22 32  1  0  0  0  0
 23 22  1  0  0  0  0
 24 34  1  0  0  0  0
 24 23  1  0  0  0  0
 25 24  1  0  0  0  0
 25 26  1  0  0  0  0
 26 37  1  1  0  0  0
 26 27  1  0  0  0  0
 27 38  1  0  0  0  0
 27 10  1  0  0  0  0
 28 26  1  0  0  0  0
 28 39  1  0  0  0  0
 29 28  2  0  0  0  0
 30 22  1  0  0  0  0
 31 22  1  0  0  0  0
 33 24  1  0  0  0  0
 35 25  1  0  0  0  0
 36 25  1  0  0  0  0
 39 48  1  0  0  0  0
 40 49  1  6  0  0  0
 40 41  1  0  0  0  0
 40 39  1  0  0  0  0
 40 44  1  0  0  0  0
 41 50  1  0  0  0  0
 42 43  2  0  0  0  0
 42 41  1  0  0  0  0
 44 47  1  0  0  0  0
 45 44  2  0  0  0  0
 46 42  1  0  0  0  0
 51 41  1  0  0  0  0
 52 46  1  0  0  0  0
M  END
$$$$
