FME.pdb
 OpenBabel07022419003D

 55 55  0  0  1  0  0  0  0  0999 V2000
    1.7910   -0.2720    1.3340 N   0  0  0  0  0  0  0  0  0  0  0  0
    0.6220    0.3760    1.8170 C   0  0  1  0  0  0  0  0  0  0  0  0
    0.9550    1.6100    2.6230 C   0  0  0  0  0  0  0  0  0  0  0  0
    1.7810    1.2740    3.7970 C   0  0  0  0  0  0  0  0  0  0  0  0
    3.1550    1.2830    3.7920 C   0  0  0  0  0  0  0  0  0  0  0  0
    3.8950    0.9540    4.9220 C   0  0  0  0  0  0  0  0  0  0  0  0
    3.2380    0.6090    6.0810 C   0  0  0  0  0  0  0  0  0  0  0  0
    1.8710    0.5940    6.1050 C   0  0  0  0  0  0  0  0  0  0  0  0
    1.1530    0.9240    4.9710 C   0  0  0  0  0  0  0  0  0  0  0  0
   -0.4330    0.6260    0.8150 C   0  0  0  0  0  0  0  0  0  0  0  0
   -1.5150    1.1190    1.2220 O   0  0  0  0  0  0  0  0  0  0  0  0
    1.6330   -0.9360    0.5520 H   0  0  0  0  0  0  0  0  0  0  0  0
    2.6350    0.2930    1.2180 H   0  0  0  0  0  0  0  0  0  0  0  0
    0.1440   -0.3630    2.5430 H   0  0  0  0  0  0  0  0  0  0  0  0
    1.5640    2.3050    1.9970 H   0  0  0  0  0  0  0  0  0  0  0  0
    0.0290    2.1700    2.9110 H   0  0  0  0  0  0  0  0  0  0  0  0
    3.7070    1.5480    2.9180 H   0  0  0  0  0  0  0  0  0  0  0  0
    4.9770    0.9570    4.9330 H   0  0  0  0  0  0  0  0  0  0  0  0
    3.7990    0.3440    6.9870 H   0  0  0  0  0  0  0  0  0  0  0  0
    1.3640    0.3210    7.0210 H   0  0  0  0  0  0  0  0  0  0  0  0
    0.0780    0.9060    5.0130 H   0  0  0  0  0  0  0  0  0  0  0  0
    1.4410    2.7640   -0.8640 C   0  0  0  0  0  0  0  0  0  0  0  0
    1.2750    2.4540   -2.6080 S   0  0  0  0  0  0  0  0  0  0  0  0
   -0.3800    2.2520   -3.2050 C   0  0  0  0  0  0  0  0  0  0  0  0
   -1.1030    1.0100   -2.8760 C   0  0  0  0  0  0  0  0  0  0  0  0
   -1.4000    0.6070   -1.5030 C   0  0  2  0  0  0  0  0  0  0  0  0
   -0.3360    0.3560   -0.5800 N   0  0  0  0  0  0  0  0  0  0  0  0
   -2.1670   -0.7240   -1.6360 C   0  0  0  0  0  0  0  0  0  0  0  0
   -3.1540   -0.8210   -2.3840 O   0  0  0  0  0  0  0  0  0  0  0  0
    2.0810    3.6720   -0.6590 H   0  0  0  0  0  0  0  0  0  0  0  0
    1.9320    1.9390   -0.3400 H   0  0  0  0  0  0  0  0  0  0  0  0
    0.4360    3.0400   -0.4670 H   0  0  0  0  0  0  0  0  0  0  0  0
   -1.0250    3.1640   -2.9340 H   0  0  0  0  0  0  0  0  0  0  0  0
   -0.3230    2.3170   -4.3510 H   0  0  0  0  0  0  0  0  0  0  0  0
   -0.6310    0.1300   -3.4700 H   0  0  0  0  0  0  0  0  0  0  0  0
   -2.1320    1.0480   -3.4080 H   0  0  0  0  0  0  0  0  0  0  0  0
   -2.1760    1.2980   -1.0640 H   0  0  0  0  0  0  0  0  0  0  0  0
    0.5590   -0.0430   -0.9270 H   0  0  0  0  0  0  0  0  0  0  0  0
   -1.7460   -1.8510   -0.8980 N   0  0  0  0  0  0  0  0  0  0  0  0
   -2.4350   -3.1330   -0.9880 C   0  0  1  0  0  0  0  0  0  0  0  0
   -1.5330   -4.2150   -1.4880 C   0  0  0  0  0  0  0  0  0  0  0  0
   -2.1810   -5.5620   -1.6090 C   0  0  0  0  0  0  0  0  0  0  0  0
   -1.2130   -6.5840   -2.1230 C   0  0  0  0  0  0  0  0  0  0  0  0
   -1.5580   -7.7770   -2.3130 O   0  0  0  0  0  0  0  0  0  0  0  0
   -3.0950   -3.4520    0.3110 C   0  0  0  0  0  0  0  0  0  0  0  0
   -3.7860   -4.4690    0.5350 O   0  0  0  0  0  0  0  0  0  0  0  0
    0.1110   -6.2560   -2.4110 O   0  0  0  0  0  0  0  0  0  0  0  0
   -2.9570   -2.5690    1.3980 O   0  0  0  0  0  0  0  0  0  0  0  0
   -0.9030   -1.7720   -0.2580 H   0  0  0  0  0  0  0  0  0  0  0  0
   -3.2590   -2.9960   -1.7170 H   0  0  0  0  0  0  0  0  0  0  0  0
   -0.5920   -4.2980   -0.8770 H   0  0  0  0  0  0  0  0  0  0  0  0
   -1.1520   -3.9680   -2.5170 H   0  0  0  0  0  0  0  0  0  0  0  0
   -2.5490   -5.9860   -0.6530 H   0  0  0  0  0  0  0  0  0  0  0  0
   -3.0310   -5.5740   -2.3150 H   0  0  0  0  0  0  0  0  0  0  0  0
    0.8820   -6.9110   -2.3090 H   0  0  0  0  0  0  0  0  0  0  0  0
  1  2  1  0  0  0  0
  2 14  1  1  0  0  0
  2  3  1  0  0  0  0
  3 16  1  0  0  0  0
  3  4  1  0  0  0  0
  4  9  1  0  0  0  0
  5  4  2  0  0  0  0
  5  6  1  0  0  0  0
  6 18  1  0  0  0  0
  6  7  2  0  0  0  0
  7  8  1  0  0  0  0
  7 19  1  0  0  0  0
  8 20  1  0  0  0  0
  9 21  1  0  0  0  0
  9  8  2  0  0  0  0
 10 11  2  0  0  0  0
 10  2  1  0  0  0  0
 12  1  1  0  0  0  0
 13  1  1  0  0  0  0
 15  3  1  0  0  0  0
 17  5  1  0  0  0  0
 22 30  1  0  0  0  0
 22 32  1  0  0  0  0
 22 31  1  0  0  0  0
 23 22  1  0  0  0  0
 24 33  1  0  0  0  0
 24 25  1  0  0  0  0
 24 23  1  0  0  0  0
 25 26  1  0  0  0  0
 26 37  1  1  0  0  0
 26 27  1  0  0  0  0
 27 10  1  0  0  0  0
 28 26  1  0  0  0  0
 28 39  1  0  0  0  0
 29 28  2  0  0  0  0
 34 24  1  0  0  0  0
 35 25  1  0  0  0  0
 36 25  1  0  0  0  0
 38 27  1  0  0  0  0
 39 49  1  0  0  0  0
 40 50  1  6  0  0  0
 40 39  1  0  0  0  0
 40 45  1  0  0  0  0
 41 40  1  0  0  0  0
 41 51  1  0  0  0  0
 42 41  1  0  0  0  0
 42 53  1  0  0  0  0
 43 42  1  0  0  0  0
 44 43  2  0  0  0  0
 45 46  2  0  0  0  0
 45 48  1  0  0  0  0
 47 55  1  0  0  0  0
 47 43  1  0  0  0  0
 52 41  1  0  0  0  0
 54 42  1  0  0  0  0
M  END
$$$$
