FMH.pdb
 OpenBabel07022419003D

 56 57  0  0  1  0  0  0  0  0999 V2000
    1.3670   -0.1690    1.5860 N   0  0  0  0  0  0  0  0  0  0  0  0
    1.2980    0.6900    0.4500 C   0  0  1  0  0  0  0  0  0  0  0  0
    2.1560    0.1740   -0.6620 C   0  0  0  0  0  0  0  0  0  0  0  0
    3.5530    0.1190   -0.1500 C   0  0  0  0  0  0  0  0  0  0  0  0
    4.0830   -0.9930    0.4730 C   0  0  0  0  0  0  0  0  0  0  0  0
    5.3810   -1.0250    0.9420 C   0  0  0  0  0  0  0  0  0  0  0  0
    6.2150    0.0720    0.8040 C   0  0  0  0  0  0  0  0  0  0  0  0
    5.6970    1.1860    0.1840 C   0  0  0  0  0  0  0  0  0  0  0  0
    4.4010    1.2110   -0.2810 C   0  0  0  0  0  0  0  0  0  0  0  0
   -0.1070    0.9480    0.0540 C   0  0  0  0  0  0  0  0  0  0  0  0
   -0.3520    1.6850   -0.9520 O   0  0  0  0  0  0  0  0  0  0  0  0
    2.2560   -0.0220    2.1390 H   0  0  0  0  0  0  0  0  0  0  0  0
    1.1890   -1.1590    1.3960 H   0  0  0  0  0  0  0  0  0  0  0  0
    1.7190    1.7020    0.7250 H   0  0  0  0  0  0  0  0  0  0  0  0
    2.0880    0.7950   -1.5750 H   0  0  0  0  0  0  0  0  0  0  0  0
    1.8760   -0.8730   -0.9510 H   0  0  0  0  0  0  0  0  0  0  0  0
    3.4600   -1.8690    0.5970 H   0  0  0  0  0  0  0  0  0  0  0  0
    5.7920   -1.9150    1.4360 H   0  0  0  0  0  0  0  0  0  0  0  0
    7.2390    0.0330    1.1800 H   0  0  0  0  0  0  0  0  0  0  0  0
    6.3360    2.0450    0.0710 H   0  0  0  0  0  0  0  0  0  0  0  0
    3.9750    2.0860   -0.7750 H   0  0  0  0  0  0  0  0  0  0  0  0
   -2.6070    2.5950    3.2910 C   0  0  0  0  0  0  0  0  0  0  0  0
   -3.4680    3.4250    1.9400 S   0  0  0  0  0  0  0  0  0  0  0  0
   -2.7920    3.0040    0.3320 C   0  0  0  0  0  0  0  0  0  0  0  0
   -3.0330    1.6380   -0.1540 C   0  0  0  0  0  0  0  0  0  0  0  0
   -2.5240    0.4840    0.6360 C   0  0  2  0  0  0  0  0  0  0  0  0
   -1.1290    0.3570    0.8200 N   0  0  0  0  0  0  0  0  0  0  0  0
   -3.2200   -0.7750    0.2950 C   0  0  0  0  0  0  0  0  0  0  0  0
   -4.4650   -0.7470    0.1190 O   0  0  0  0  0  0  0  0  0  0  0  0
   -2.3530    3.3360    4.1170 H   0  0  0  0  0  0  0  0  0  0  0  0
   -1.6300    2.1980    2.9620 H   0  0  0  0  0  0  0  0  0  0  0  0
   -3.2900    1.8430    3.7260 H   0  0  0  0  0  0  0  0  0  0  0  0
   -1.7590    3.3880    0.3210 H   0  0  0  0  0  0  0  0  0  0  0  0
   -3.3340    3.6940   -0.4050 H   0  0  0  0  0  0  0  0  0  0  0  0
   -2.6520    1.5530   -1.1960 H   0  0  0  0  0  0  0  0  0  0  0  0
   -4.1510    1.5140   -0.2540 H   0  0  0  0  0  0  0  0  0  0  0  0
   -2.9430    0.7430    1.6960 H   0  0  0  0  0  0  0  0  0  0  0  0
   -0.8280   -0.2630    1.6400 H   0  0  0  0  0  0  0  0  0  0  0  0
   -2.5640   -2.0260    0.1520 N   0  0  0  0  0  0  0  0  0  0  0  0
   -3.2790   -3.2460   -0.1830 C   0  0  1  0  0  0  0  0  0  0  0  0
   -2.7070   -3.9170   -1.4170 C   0  0  0  0  0  0  0  0  0  0  0  0
   -1.2830   -4.2810   -1.2120 C   0  0  0  0  0  0  0  0  0  0  0  0
   -0.2150   -3.4540   -1.5130 C   0  0  0  0  0  0  0  0  0  0  0  0
    0.9420   -4.0920   -1.2070 N   0  0  0  0  0  0  0  0  0  0  0  0
    0.5870   -5.2960   -0.7230 C   0  0  0  0  0  0  0  0  0  0  0  0
   -0.7590   -5.4160   -0.7250 N   0  0  0  0  0  0  0  0  0  0  0  0
   -3.1190   -4.2080    0.9330 C   0  0  0  0  0  0  0  0  0  0  0  0
   -3.6370   -5.3570    0.9210 O   0  0  0  0  0  0  0  0  0  0  0  0
   -2.3790   -3.8780    2.0590 O   0  0  0  0  0  0  0  0  0  0  0  0
   -1.5330   -2.0500    0.2970 H   0  0  0  0  0  0  0  0  0  0  0  0
   -4.3650   -3.0570   -0.2940 H   0  0  0  0  0  0  0  0  0  0  0  0
   -2.7590   -3.2800   -2.3180 H   0  0  0  0  0  0  0  0  0  0  0  0
   -3.3280   -4.8050   -1.6180 H   0  0  0  0  0  0  0  0  0  0  0  0
   -0.2710   -2.4470   -1.9300 H   0  0  0  0  0  0  0  0  0  0  0  0
    1.9090   -3.7390   -1.3160 H   0  0  0  0  0  0  0  0  0  0  0  0
    1.2320   -6.0870   -0.3730 H   0  0  0  0  0  0  0  0  0  0  0  0
  1 12  1  0  0  0  0
  2 14  1  1  0  0  0
  2  1  1  0  0  0  0
  3  4  1  0  0  0  0
  3  2  1  0  0  0  0
  4  5  1  0  0  0  0
  5 17  1  0  0  0  0
  5  6  2  0  0  0  0
  6 18  1  0  0  0  0
  7  6  1  0  0  0  0
  7 19  1  0  0  0  0
  8  7  2  0  0  0  0
  9  4  2  0  0  0  0
  9  8  1  0  0  0  0
 10  2  1  0  0  0  0
 10 27  1  0  0  0  0
 11 10  2  0  0  0  0
 13  1  1  0  0  0  0
 15  3  1  0  0  0  0
 16  3  1  0  0  0  0
 20  8  1  0  0  0  0
 21  9  1  0  0  0  0
 22 32  1  0  0  0  0
 22 30  1  0  0  0  0
 23 22  1  0  0  0  0
 24 23  1  0  0  0  0
 25 24  1  0  0  0  0
 25 26  1  0  0  0  0
 26 27  1  0  0  0  0
 26 37  1  1  0  0  0
 27 38  1  0  0  0  0
 28 26  1  0  0  0  0
 29 28  2  0  0  0  0
 31 22  1  0  0  0  0
 33 24  1  0  0  0  0
 34 24  1  0  0  0  0
 35 25  1  0  0  0  0
 36 25  1  0  0  0  0
 39 28  1  0  0  0  0
 39 50  1  0  0  0  0
 40 51  1  6  0  0  0
 40 39  1  0  0  0  0
 40 47  1  0  0  0  0
 41 42  1  0  0  0  0
 41 40  1  0  0  0  0
 42 46  1  0  0  0  0
 43 42  2  0  0  0  0
 43 44  1  0  0  0  0
 44 45  1  0  0  0  0
 45 56  1  0  0  0  0
 46 45  2  0  0  0  0
 47 49  1  0  0  0  0
 48 47  2  0  0  0  0
 52 41  1  0  0  0  0
 53 41  1  0  0  0  0
 54 43  1  0  0  0  0
 55 44  1  0  0  0  0
M  END
$$$$
