FMN.pdb
 OpenBabel07022419003D

 53 53  0  0  1  0  0  0  0  0999 V2000
   -0.4860    1.9350    3.9790 N   0  0  0  0  0  0  0  0  0  0  0  0
    0.1580    0.9910    3.0030 C   0  0  1  0  0  0  0  0  0  0  0  0
    0.3890   -0.2290    3.8120 C   0  0  0  0  0  0  0  0  0  0  0  0
    1.0000   -1.3840    3.1950 C   0  0  0  0  0  0  0  0  0  0  0  0
    2.3650   -1.4930    3.0950 C   0  0  0  0  0  0  0  0  0  0  0  0
    2.9450   -2.6250    2.5420 C   0  0  0  0  0  0  0  0  0  0  0  0
    2.1470   -3.6580    2.0840 C   0  0  0  0  0  0  0  0  0  0  0  0
    0.7820   -3.5640    2.1770 C   0  0  0  0  0  0  0  0  0  0  0  0
    0.2320   -2.4250    2.7320 C   0  0  0  0  0  0  0  0  0  0  0  0
   -0.6720    0.8860    1.8110 C   0  0  0  0  0  0  0  0  0  0  0  0
   -1.8970    1.1570    1.8950 O   0  0  0  0  0  0  0  0  0  0  0  0
   -0.4750    2.8600    3.5260 H   0  0  0  0  0  0  0  0  0  0  0  0
   -0.0310    1.8740    4.8930 H   0  0  0  0  0  0  0  0  0  0  0  0
    1.1390    1.4750    2.7350 H   0  0  0  0  0  0  0  0  0  0  0  0
    1.0130    0.1070    4.6980 H   0  0  0  0  0  0  0  0  0  0  0  0
   -0.6110   -0.4730    4.3010 H   0  0  0  0  0  0  0  0  0  0  0  0
    3.0540   -0.7290    3.4300 H   0  0  0  0  0  0  0  0  0  0  0  0
    4.0050   -2.7340    2.4520 H   0  0  0  0  0  0  0  0  0  0  0  0
    2.5690   -4.5640    1.6430 H   0  0  0  0  0  0  0  0  0  0  0  0
    0.1140   -4.3370    1.8420 H   0  0  0  0  0  0  0  0  0  0  0  0
   -0.8510   -2.3610    2.8000 H   0  0  0  0  0  0  0  0  0  0  0  0
    0.0630    4.8390    0.8990 C   0  0  0  0  0  0  0  0  0  0  0  0
    0.2650    3.1450    0.2460 S   0  0  0  0  0  0  0  0  0  0  0  0
   -0.9180    2.8780   -1.0690 C   0  0  0  0  0  0  0  0  0  0  0  0
   -0.7930    1.5040   -1.6410 C   0  0  0  0  0  0  0  0  0  0  0  0
   -1.0720    0.4440   -0.5930 C   0  0  2  0  0  0  0  0  0  0  0  0
   -0.1820    0.5000    0.5330 N   0  0  0  0  0  0  0  0  0  0  0  0
   -1.0590   -0.9050   -1.2450 C   0  0  0  0  0  0  0  0  0  0  0  0
   -1.8500   -1.1390   -2.2040 O   0  0  0  0  0  0  0  0  0  0  0  0
   -0.7460    5.3820    0.3680 H   0  0  0  0  0  0  0  0  0  0  0  0
    1.0210    5.3590    0.6760 H   0  0  0  0  0  0  0  0  0  0  0  0
   -0.0940    4.8210    1.9800 H   0  0  0  0  0  0  0  0  0  0  0  0
   -0.7390    3.6540   -1.8710 H   0  0  0  0  0  0  0  0  0  0  0  0
   -1.9770    3.0380   -0.7370 H   0  0  0  0  0  0  0  0  0  0  0  0
    0.1730    1.3410   -2.1600 H   0  0  0  0  0  0  0  0  0  0  0  0
   -1.5750    1.4060   -2.4360 H   0  0  0  0  0  0  0  0  0  0  0  0
   -2.1200    0.6650   -0.2440 H   0  0  0  0  0  0  0  0  0  0  0  0
    0.8200    0.2720    0.4290 H   0  0  0  0  0  0  0  0  0  0  0  0
   -3.4310   -3.8490   -2.7980 N   0  0  0  0  0  0  0  0  0  0  0  0
   -2.3600   -3.6660   -1.8860 C   0  0  0  0  0  0  0  0  0  0  0  0
   -2.6090   -3.5120   -0.6520 O   0  0  0  0  0  0  0  0  0  0  0  0
   -0.9750   -3.6580   -2.3730 C   0  0  0  0  0  0  0  0  0  0  0  0
   -0.0380   -3.2200   -1.2690 C   0  0  2  0  0  0  0  0  0  0  0  0
   -0.1750   -1.8860   -0.7910 N   0  0  0  0  0  0  0  0  0  0  0  0
    1.3340   -3.7230   -1.3960 C   0  0  0  0  0  0  0  0  0  0  0  0
    1.5660   -4.8870   -1.8060 O   0  0  0  0  0  0  0  0  0  0  0  0
    2.4260   -2.9320   -1.0680 O   0  0  0  0  0  0  0  0  0  0  0  0
   -3.5800   -3.2260   -3.6360 H   0  0  0  0  0  0  0  0  0  0  0  0
   -4.1290   -4.6150   -2.6790 H   0  0  0  0  0  0  0  0  0  0  0  0
   -0.6580   -4.6660   -2.6850 H   0  0  0  0  0  0  0  0  0  0  0  0
   -0.9260   -3.0040   -3.2580 H   0  0  0  0  0  0  0  0  0  0  0  0
   -0.5150   -3.8590   -0.3950 H   0  0  0  0  0  0  0  0  0  0  0  0
    0.5140   -1.6400    0.0210 H   0  0  0  0  0  0  0  0  0  0  0  0
  1 13  1  0  0  0  0
  2 14  1  6  0  0  0
  2  3  1  0  0  0  0
  2  1  1  0  0  0  0
  3 16  1  0  0  0  0
  3 15  1  0  0  0  0
  4  3  1  0  0  0  0
  5  4  1  0  0  0  0
  5 17  1  0  0  0  0
  6  5  2  0  0  0  0
  7  8  2  0  0  0  0
  7  6  1  0  0  0  0
  8  9  1  0  0  0  0
  9 21  1  0  0  0  0
  9  4  2  0  0  0  0
 10 11  2  0  0  0  0
 10  2  1  0  0  0  0
 12  1  1  0  0  0  0
 18  6  1  0  0  0  0
 19  7  1  0  0  0  0
 20  8  1  0  0  0  0
 22 32  1  0  0  0  0
 23 22  1  0  0  0  0
 24 34  1  0  0  0  0
 24 23  1  0  0  0  0
 25 24  1  0  0  0  0
 25 26  1  0  0  0  0
 26 37  1  1  0  0  0
 26 27  1  0  0  0  0
 27 10  1  0  0  0  0
 28 44  1  0  0  0  0
 28 26  1  0  0  0  0
 29 28  2  0  0  0  0
 30 22  1  0  0  0  0
 31 22  1  0  0  0  0
 33 24  1  0  0  0  0
 35 25  1  0  0  0  0
 36 25  1  0  0  0  0
 38 27  1  0  0  0  0
 39 49  1  0  0  0  0
 39 40  1  0  0  0  0
 40 41  2  0  0  0  0
 42 40  1  0  0  0  0
 42 43  1  0  0  0  0
 43 44  1  0  0  0  0
 43 52  1  1  0  0  0
 44 53  1  0  0  0  0
 45 43  1  0  0  0  0
 45 47  1  0  0  0  0
 46 45  2  0  0  0  0
 48 39  1  0  0  0  0
 50 42  1  0  0  0  0
 51 42  1  0  0  0  0
M  END
$$$$
