FMP.pdb
 OpenBabel07022419003D

 53 54  0  0  1  0  0  0  0  0999 V2000
    1.4110   -1.8120    3.9270 N   0  0  0  0  0  0  0  0  0  0  0  0
    2.2150   -1.3240    2.7990 C   0  0  1  0  0  0  0  0  0  0  0  0
    2.8640   -2.5520    2.2080 C   0  0  0  0  0  0  0  0  0  0  0  0
    3.7270   -2.2710    1.0420 C   0  0  0  0  0  0  0  0  0  0  0  0
    3.2750   -2.3000   -0.2560 C   0  0  0  0  0  0  0  0  0  0  0  0
    4.1160   -2.0250   -1.3090 C   0  0  0  0  0  0  0  0  0  0  0  0
    5.4390   -1.7130   -1.0830 C   0  0  0  0  0  0  0  0  0  0  0  0
    5.9030   -1.6820    0.2150 C   0  0  0  0  0  0  0  0  0  0  0  0
    5.0520   -1.9580    1.2620 C   0  0  0  0  0  0  0  0  0  0  0  0
    1.2770   -0.6860    1.7980 C   0  0  0  0  0  0  0  0  0  0  0  0
    1.7990   -0.1710    0.7900 O   0  0  0  0  0  0  0  0  0  0  0  0
    1.0080   -1.0560    4.4880 H   0  0  0  0  0  0  0  0  0  0  0  0
    0.7750   -2.5630    3.6340 H   0  0  0  0  0  0  0  0  0  0  0  0
    2.9350   -0.5720    3.1050 H   0  0  0  0  0  0  0  0  0  0  0  0
    2.0810   -3.2800    1.9060 H   0  0  0  0  0  0  0  0  0  0  0  0
    3.4780   -3.0230    2.9840 H   0  0  0  0  0  0  0  0  0  0  0  0
    2.2440   -2.5440   -0.4760 H   0  0  0  0  0  0  0  0  0  0  0  0
    3.7810   -2.0410   -2.3550 H   0  0  0  0  0  0  0  0  0  0  0  0
    6.1400   -1.4880   -1.9000 H   0  0  0  0  0  0  0  0  0  0  0  0
    6.9620   -1.4320    0.3860 H   0  0  0  0  0  0  0  0  0  0  0  0
    5.4600   -1.9230    2.2870 H   0  0  0  0  0  0  0  0  0  0  0  0
   -1.7770    2.0930    3.5290 C   0  0  0  0  0  0  0  0  0  0  0  0
   -1.2920    3.0490    2.1050 S   0  0  0  0  0  0  0  0  0  0  0  0
   -0.0560    2.2580    1.0510 C   0  0  0  0  0  0  0  0  0  0  0  0
   -0.5470    1.0800    0.2920 C   0  0  0  0  0  0  0  0  0  0  0  0
   -1.0570   -0.0810    1.1080 C   0  0  2  0  0  0  0  0  0  0  0  0
   -0.0990   -0.6710    1.9840 N   0  0  0  0  0  0  0  0  0  0  0  0
   -1.6690   -1.0750    0.2060 C   0  0  0  0  0  0  0  0  0  0  0  0
   -1.1010   -2.2400    0.2290 O   0  0  0  0  0  0  0  0  0  0  0  0
   -1.7680    2.7940    4.4090 H   0  0  0  0  0  0  0  0  0  0  0  0
   -1.0570    1.2840    3.7350 H   0  0  0  0  0  0  0  0  0  0  0  0
   -2.8130    1.7270    3.4160 H   0  0  0  0  0  0  0  0  0  0  0  0
    0.8400    2.0770    1.6840 H   0  0  0  0  0  0  0  0  0  0  0  0
    0.2550    3.0770    0.3240 H   0  0  0  0  0  0  0  0  0  0  0  0
   -1.4380    1.4600   -0.2980 H   0  0  0  0  0  0  0  0  0  0  0  0
    0.1800    0.7210   -0.4520 H   0  0  0  0  0  0  0  0  0  0  0  0
   -1.8870    0.3850    1.7340 H   0  0  0  0  0  0  0  0  0  0  0  0
   -0.4790   -1.1470    2.8710 H   0  0  0  0  0  0  0  0  0  0  0  0
   -2.7520   -0.9390   -0.6490 N   0  0  0  0  0  0  0  0  0  0  0  0
   -3.5840    0.2220   -0.8520 C   0  0  0  0  0  0  0  0  0  0  0  0
   -4.9660   -0.2980   -1.1800 C   0  0  0  0  0  0  0  0  0  0  0  0
   -4.7710   -1.7610   -1.4340 C   0  0  0  0  0  0  0  0  0  0  0  0
   -3.2950   -1.9860   -1.5450 C   0  0  1  0  0  0  0  0  0  0  0  0
   -2.8730   -1.7270   -2.9390 C   0  0  0  0  0  0  0  0  0  0  0  0
   -3.2050   -2.4680   -3.8780 O   0  0  0  0  0  0  0  0  0  0  0  0
   -2.0770   -0.6200   -3.2270 O   0  0  0  0  0  0  0  0  0  0  0  0
   -3.1770    0.8300   -1.6890 H   0  0  0  0  0  0  0  0  0  0  0  0
   -3.6440    0.7890    0.0760 H   0  0  0  0  0  0  0  0  0  0  0  0
   -5.6420   -0.1070   -0.3160 H   0  0  0  0  0  0  0  0  0  0  0  0
   -5.3960    0.2030   -2.0730 H   0  0  0  0  0  0  0  0  0  0  0  0
   -5.1900   -2.3930   -0.6210 H   0  0  0  0  0  0  0  0  0  0  0  0
   -5.2840   -2.0420   -2.3890 H   0  0  0  0  0  0  0  0  0  0  0  0
   -2.9700   -2.9770   -1.2260 H   0  0  0  0  0  0  0  0  0  0  0  0
  1 12  1  0  0  0  0
  2 14  1  1  0  0  0
  2  1  1  0  0  0  0
  3  2  1  0  0  0  0
  3 16  1  0  0  0  0
  4  9  1  0  0  0  0
  4  3  1  0  0  0  0
  5  4  2  0  0  0  0
  6  7  2  0  0  0  0
  6  5  1  0  0  0  0
  7  8  1  0  0  0  0
  8 20  1  0  0  0  0
  8  9  2  0  0  0  0
  9 21  1  0  0  0  0
 10 27  1  0  0  0  0
 10  2  1  0  0  0  0
 11 10  2  0  0  0  0
 13  1  1  0  0  0  0
 15  3  1  0  0  0  0
 17  5  1  0  0  0  0
 18  6  1  0  0  0  0
 19  7  1  0  0  0  0
 22 31  1  0  0  0  0
 22 30  1  0  0  0  0
 23 22  1  0  0  0  0
 24 33  1  0  0  0  0
 24 23  1  0  0  0  0
 25 24  1  0  0  0  0
 25 26  1  0  0  0  0
 26 37  1  1  0  0  0
 26 27  1  0  0  0  0
 27 38  1  0  0  0  0
 28 29  2  0  0  0  0
 28 26  1  0  0  0  0
 32 22  1  0  0  0  0
 34 24  1  0  0  0  0
 35 25  1  0  0  0  0
 36 25  1  0  0  0  0
 39 28  1  0  0  0  0
 40 39  1  0  0  0  0
 40 48  1  0  0  0  0
 41 40  1  0  0  0  0
 41 49  1  0  0  0  0
 42 41  1  0  0  0  0
 42 51  1  0  0  0  0
 43 42  1  0  0  0  0
 43 53  1  1  0  0  0
 43 39  1  0  0  0  0
 44 43  1  0  0  0  0
 45 44  2  0  0  0  0
 46 44  1  0  0  0  0
 47 40  1  0  0  0  0
 50 41  1  0  0  0  0
 52 42  1  0  0  0  0
M  END
$$$$
