FMR.pdb
 OpenBabel07022419003D

 62 62  0  0  1  0  0  0  0  0999 V2000
    4.7120    1.0900   -0.6720 N   0  0  0  0  0  0  0  0  0  0  0  0
    3.8260    0.4320    0.3120 C   0  0  1  0  0  0  0  0  0  0  0  0
    4.2920    0.8640    1.6580 C   0  0  0  0  0  0  0  0  0  0  0  0
    3.5230    0.3150    2.7990 C   0  0  0  0  0  0  0  0  0  0  0  0
    3.8270   -0.8950    3.3620 C   0  0  0  0  0  0  0  0  0  0  0  0
    3.1030   -1.3540    4.4250 C   0  0  0  0  0  0  0  0  0  0  0  0
    2.0540   -0.6520    4.9820 C   0  0  0  0  0  0  0  0  0  0  0  0
    1.7630    0.5710    4.3960 C   0  0  0  0  0  0  0  0  0  0  0  0
    2.4820    1.0510    3.3230 C   0  0  0  0  0  0  0  0  0  0  0  0
    2.4220    0.8150   -0.0130 C   0  0  0  0  0  0  0  0  0  0  0  0
    2.2380    1.7460   -0.8290 O   0  0  0  0  0  0  0  0  0  0  0  0
    4.1850    1.9220   -1.0700 H   0  0  0  0  0  0  0  0  0  0  0  0
    4.8490    0.4580   -1.5080 H   0  0  0  0  0  0  0  0  0  0  0  0
    4.0130   -0.6460    0.1960 H   0  0  0  0  0  0  0  0  0  0  0  0
    5.3340    0.4860    1.7750 H   0  0  0  0  0  0  0  0  0  0  0  0
    4.3550    1.9630    1.7810 H   0  0  0  0  0  0  0  0  0  0  0  0
    4.6310   -1.4850    2.9730 H   0  0  0  0  0  0  0  0  0  0  0  0
    3.3110   -2.3190    4.9100 H   0  0  0  0  0  0  0  0  0  0  0  0
    1.4870   -1.0280    5.8270 H   0  0  0  0  0  0  0  0  0  0  0  0
    0.9430    1.1720    4.7940 H   0  0  0  0  0  0  0  0  0  0  0  0
    2.2280    2.0310    2.8760 H   0  0  0  0  0  0  0  0  0  0  0  0
    0.5720    4.6600   -1.5850 C   0  0  0  0  0  0  0  0  0  0  0  0
   -0.4590    4.4770   -0.0940 S   0  0  0  0  0  0  0  0  0  0  0  0
   -0.0200    2.9050    0.7180 C   0  0  0  0  0  0  0  0  0  0  0  0
   -0.4280    1.7750   -0.1890 C   0  0  0  0  0  0  0  0  0  0  0  0
   -0.0730    0.4150    0.3890 C   0  0  2  0  0  0  0  0  0  0  0  0
    1.3100    0.1580    0.5700 N   0  0  0  0  0  0  0  0  0  0  0  0
   -0.8550   -0.6940   -0.1760 C   0  0  0  0  0  0  0  0  0  0  0  0
   -2.0930   -0.5250   -0.3600 O   0  0  0  0  0  0  0  0  0  0  0  0
    0.4870    5.7200   -1.9580 H   0  0  0  0  0  0  0  0  0  0  0  0
    1.6100    4.4010   -1.3090 H   0  0  0  0  0  0  0  0  0  0  0  0
    0.2220    4.0000   -2.4060 H   0  0  0  0  0  0  0  0  0  0  0  0
   -0.6790    2.8990    1.6530 H   0  0  0  0  0  0  0  0  0  0  0  0
    1.0180    2.9510    1.0280 H   0  0  0  0  0  0  0  0  0  0  0  0
   -1.5530    1.8630   -0.2660 H   0  0  0  0  0  0  0  0  0  0  0  0
    0.0260    1.9420   -1.1810 H   0  0  0  0  0  0  0  0  0  0  0  0
   -0.4750    0.5510    1.4780 H   0  0  0  0  0  0  0  0  0  0  0  0
    1.6020   -0.6490    1.2300 H   0  0  0  0  0  0  0  0  0  0  0  0
   -6.7180   -2.5050   -0.2510 N   0  0  0  0  0  0  0  0  0  0  0  0
   -5.7460   -3.5410   -0.1710 C   0  0  0  0  0  0  0  0  0  0  0  0
   -5.7340   -4.3400    0.8520 N   0  0  0  0  0  0  0  0  0  0  0  0
   -4.8040   -3.6730   -1.2260 N   0  0  0  0  0  0  0  0  0  0  0  0
   -3.8330   -4.7170   -1.2490 C   0  0  0  0  0  0  0  0  0  0  0  0
   -2.7740   -4.6690   -0.2300 C   0  0  0  0  0  0  0  0  0  0  0  0
   -1.8990   -3.5310   -0.0330 C   0  0  0  0  0  0  0  0  0  0  0  0
   -1.0090   -3.0360   -1.0760 C   0  0  2  0  0  0  0  0  0  0  0  0
   -0.1930   -1.8980   -0.4890 N   0  0  0  0  0  0  0  0  0  0  0  0
   -1.5720   -2.5050   -2.3360 C   0  0  0  0  0  0  0  0  0  0  0  0
   -2.2770   -3.0950   -3.1690 O   0  0  0  0  0  0  0  0  0  0  0  0
   -1.3150   -1.1490   -2.7150 O   0  0  0  0  0  0  0  0  0  0  0  0
   -7.1400   -2.1570    0.6260 H   0  0  0  0  0  0  0  0  0  0  0  0
   -7.0310   -2.0760   -1.1430 H   0  0  0  0  0  0  0  0  0  0  0  0
   -6.4380   -4.2140    1.6050 H   0  0  0  0  0  0  0  0  0  0  0  0
   -4.8400   -2.9770   -1.9970 H   0  0  0  0  0  0  0  0  0  0  0  0
   -3.5210   -4.9680   -2.2580 H   0  0  0  0  0  0  0  0  0  0  0  0
   -4.4590   -5.6730   -0.9610 H   0  0  0  0  0  0  0  0  0  0  0  0
   -2.0860   -5.5700   -0.4820 H   0  0  0  0  0  0  0  0  0  0  0  0
   -3.1780   -5.0460    0.7820 H   0  0  0  0  0  0  0  0  0  0  0  0
   -1.2110   -3.8060    0.8660 H   0  0  0  0  0  0  0  0  0  0  0  0
   -2.4630   -2.6450    0.4340 H   0  0  0  0  0  0  0  0  0  0  0  0
   -0.2350   -3.7720   -1.3680 H   0  0  0  0  0  0  0  0  0  0  0  0
    0.8220   -2.0280   -0.3310 H   0  0  0  0  0  0  0  0  0  0  0  0
  1  2  1  0  0  0  0
  2 14  1  6  0  0  0
  2  3  1  0  0  0  0
  3 15  1  0  0  0  0
  3 16  1  0  0  0  0
  3  4  1  0  0  0  0
  4  9  2  0  0  0  0
  4  5  1  0  0  0  0
  5  6  2  0  0  0  0
  6 18  1  0  0  0  0
  6  7  1  0  0  0  0
  7 19  1  0  0  0  0
  8 20  1  0  0  0  0
  8  7  2  0  0  0  0
  9  8  1  0  0  0  0
 10  2  1  0  0  0  0
 10 27  1  0  0  0  0
 11 10  2  0  0  0  0
 12  1  1  0  0  0  0
 13  1  1  0  0  0  0
 17  5  1  0  0  0  0
 21  9  1  0  0  0  0
 22 31  1  0  0  0  0
 22 23  1  0  0  0  0
 23 24  1  0  0  0  0
 24 34  1  0  0  0  0
 24 33  1  0  0  0  0
 25 26  1  0  0  0  0
 25 24  1  0  0  0  0
 26 27  1  0  0  0  0
 26 37  1  1  0  0  0
 27 38  1  0  0  0  0
 28 26  1  0  0  0  0
 29 28  2  0  0  0  0
 30 22  1  0  0  0  0
 32 22  1  0  0  0  0
 35 25  1  0  0  0  0
 36 25  1  0  0  0  0
 39 40  1  0  0  0  0
 39 51  1  0  0  0  0
 40 41  2  0  0  0  0
 41 53  1  0  0  0  0
 42 40  1  0  0  0  0
 43 42  1  0  0  0  0
 43 56  1  0  0  0  0
 43 44  1  0  0  0  0
 44 45  1  0  0  0  0
 44 58  1  0  0  0  0
 45 60  1  0  0  0  0
 45 59  1  0  0  0  0
 46 61  1  6  0  0  0
 46 47  1  0  0  0  0
 46 45  1  0  0  0  0
 47 62  1  0  0  0  0
 47 28  1  0  0  0  0
 48 46  1  0  0  0  0
 49 48  2  0  0  0  0
 50 48  1  0  0  0  0
 52 39  1  0  0  0  0
 54 42  1  0  0  0  0
 55 43  1  0  0  0  0
 57 44  1  0  0  0  0
M  END
$$$$
