FMT.pdb
 OpenBabel07022419003D

 53 53  0  0  1  0  0  0  0  0999 V2000
    2.6570   -0.7960   -1.9190 N   0  0  0  0  0  0  0  0  0  0  0  0
    1.9630   -1.2950   -0.7390 C   0  0  1  0  0  0  0  0  0  0  0  0
    2.8890   -1.6590    0.3570 C   0  0  0  0  0  0  0  0  0  0  0  0
    3.7670   -0.5850    0.8510 C   0  0  0  0  0  0  0  0  0  0  0  0
    3.4620    0.2140    1.9130 C   0  0  0  0  0  0  0  0  0  0  0  0
    4.3150    1.2180    2.3400 C   0  0  0  0  0  0  0  0  0  0  0  0
    5.4950    1.4060    1.6720 C   0  0  0  0  0  0  0  0  0  0  0  0
    5.8080    0.6110    0.6080 C   0  0  0  0  0  0  0  0  0  0  0  0
    4.9590   -0.3910    0.1800 C   0  0  0  0  0  0  0  0  0  0  0  0
    0.8600   -0.4340   -0.2960 C   0  0  0  0  0  0  0  0  0  0  0  0
    0.7380    0.6730   -0.8840 O   0  0  0  0  0  0  0  0  0  0  0  0
    1.9450   -0.6460   -2.6610 H   0  0  0  0  0  0  0  0  0  0  0  0
    3.2600   -1.5870   -2.2530 H   0  0  0  0  0  0  0  0  0  0  0  0
    1.5260   -2.2940   -1.1030 H   0  0  0  0  0  0  0  0  0  0  0  0
    2.2410   -2.0130    1.2180 H   0  0  0  0  0  0  0  0  0  0  0  0
    3.4950   -2.5690    0.1150 H   0  0  0  0  0  0  0  0  0  0  0  0
    2.5410    0.0870    2.4620 H   0  0  0  0  0  0  0  0  0  0  0  0
    4.0090    1.8130    3.1880 H   0  0  0  0  0  0  0  0  0  0  0  0
    6.1810    2.1760    1.9770 H   0  0  0  0  0  0  0  0  0  0  0  0
    6.7510    0.7850    0.0990 H   0  0  0  0  0  0  0  0  0  0  0  0
    5.2170   -1.0150   -0.6640 H   0  0  0  0  0  0  0  0  0  0  0  0
    0.0410    0.3840    4.2630 C   0  0  0  0  0  0  0  0  0  0  0  0
   -0.1880    1.9730    3.5360 S   0  0  0  0  0  0  0  0  0  0  0  0
    0.0420    2.1490    1.7710 C   0  0  0  0  0  0  0  0  0  0  0  0
   -1.0350    1.5220    0.9940 C   0  0  0  0  0  0  0  0  0  0  0  0
   -1.1400    0.0590    1.1410 C   0  0  2  0  0  0  0  0  0  0  0  0
   -0.0640   -0.7600    0.7200 N   0  0  0  0  0  0  0  0  0  0  0  0
   -2.4790   -0.4770    0.7310 C   0  0  0  0  0  0  0  0  0  0  0  0
   -3.5450    0.1260    1.0180 O   0  0  0  0  0  0  0  0  0  0  0  0
    0.6020    0.4610    5.2650 H   0  0  0  0  0  0  0  0  0  0  0  0
    0.6100   -0.3640    3.7060 H   0  0  0  0  0  0  0  0  0  0  0  0
   -0.9610   -0.0230    4.6100 H   0  0  0  0  0  0  0  0  0  0  0  0
    1.0240    1.6420    1.5100 H   0  0  0  0  0  0  0  0  0  0  0  0
    0.1390    3.2400    1.4870 H   0  0  0  0  0  0  0  0  0  0  0  0
   -2.0120    1.9380    1.4220 H   0  0  0  0  0  0  0  0  0  0  0  0
   -1.0960    1.8770   -0.0680 H   0  0  0  0  0  0  0  0  0  0  0  0
   -1.1590   -0.0700    2.2760 H   0  0  0  0  0  0  0  0  0  0  0  0
    0.1140   -1.7170    1.1750 H   0  0  0  0  0  0  0  0  0  0  0  0
   -5.4060   -2.8100   -2.1920 C   0  0  0  0  0  0  0  0  0  0  0  0
   -4.0000   -2.3360   -1.8880 C   0  0  1  0  0  0  0  0  0  0  0  0
   -3.8580   -1.0900   -2.5220 O   0  0  0  0  0  0  0  0  0  0  0  0
   -3.8740   -2.2110   -0.3940 C   0  0  2  0  0  0  0  0  0  0  0  0
   -2.5920   -1.6750    0.0100 N   0  0  0  0  0  0  0  0  0  0  0  0
   -4.1620   -3.5060    0.2270 C   0  0  0  0  0  0  0  0  0  0  0  0
   -5.2340   -4.1120    0.0010 O   0  0  0  0  0  0  0  0  0  0  0  0
   -3.2510   -4.0970    1.0870 O   0  0  0  0  0  0  0  0  0  0  0  0
   -5.6710   -2.4220   -3.2000 H   0  0  0  0  0  0  0  0  0  0  0  0
   -5.3930   -3.9170   -2.3100 H   0  0  0  0  0  0  0  0  0  0  0  0
   -6.0900   -2.4570   -1.4070 H   0  0  0  0  0  0  0  0  0  0  0  0
   -3.3080   -3.0870   -2.3190 H   0  0  0  0  0  0  0  0  0  0  0  0
   -4.7350   -0.6330   -2.4990 H   0  0  0  0  0  0  0  0  0  0  0  0
   -4.6540   -1.5030   -0.0490 H   0  0  0  0  0  0  0  0  0  0  0  0
   -1.7490   -2.2140   -0.2550 H   0  0  0  0  0  0  0  0  0  0  0  0
  1  2  1  0  0  0  0
  2 14  1  6  0  0  0
  2 10  1  0  0  0  0
  2  3  1  0  0  0  0
  3  4  1  0  0  0  0
  3 15  1  0  0  0  0
  4  5  1  0  0  0  0
  5  6  2  0  0  0  0
  5 17  1  0  0  0  0
  6 18  1  0  0  0  0
  7 19  1  0  0  0  0
  7  6  1  0  0  0  0
  8  7  2  0  0  0  0
  9  8  1  0  0  0  0
  9  4  2  0  0  0  0
 10 27  1  0  0  0  0
 11 10  2  0  0  0  0
 12  1  1  0  0  0  0
 13  1  1  0  0  0  0
 16  3  1  0  0  0  0
 20  8  1  0  0  0  0
 21  9  1  0  0  0  0
 22 32  1  0  0  0  0
 22 30  1  0  0  0  0
 23 22  1  0  0  0  0
 24 23  1  0  0  0  0
 25 26  1  0  0  0  0
 25 35  1  0  0  0  0
 25 24  1  0  0  0  0
 26 37  1  1  0  0  0
 27 26  1  0  0  0  0
 27 38  1  0  0  0  0
 28 29  2  0  0  0  0
 28 26  1  0  0  0  0
 31 22  1  0  0  0  0
 33 24  1  0  0  0  0
 34 24  1  0  0  0  0
 36 25  1  0  0  0  0
 39 40  1  0  0  0  0
 39 49  1  0  0  0  0
 40 50  1  6  0  0  0
 40 42  1  0  0  0  0
 41 51  1  0  0  0  0
 41 40  1  0  0  0  0
 42 52  1  1  0  0  0
 42 43  1  0  0  0  0
 42 44  1  0  0  0  0
 43 28  1  0  0  0  0
 44 46  1  0  0  0  0
 45 44  2  0  0  0  0
 47 39  1  0  0  0  0
 48 39  1  0  0  0  0
 53 43  1  0  0  0  0
M  END
$$$$
