FMY.pdb
 OpenBabel07022419003D

 60 61  0  0  1  0  0  0  0  0999 V2000
    2.9860   -0.9790    1.1900 N   0  0  0  0  0  0  0  0  0  0  0  0
    2.6390   -1.6470    2.4480 C   0  0  1  0  0  0  0  0  0  0  0  0
    3.5110   -1.0290    3.5220 C   0  0  0  0  0  0  0  0  0  0  0  0
    4.9450   -1.2350    3.2020 C   0  0  0  0  0  0  0  0  0  0  0  0
    5.6530   -0.3250    2.4550 C   0  0  0  0  0  0  0  0  0  0  0  0
    6.9970   -0.5330    2.1630 C   0  0  0  0  0  0  0  0  0  0  0  0
    7.6480   -1.6630    2.6220 C   0  0  0  0  0  0  0  0  0  0  0  0
    6.9380   -2.5820    3.3750 C   0  0  0  0  0  0  0  0  0  0  0  0
    5.5890   -2.3560    3.6570 C   0  0  0  0  0  0  0  0  0  0  0  0
    1.2180   -1.3390    2.8150 C   0  0  0  0  0  0  0  0  0  0  0  0
    0.7760   -1.8270    3.8750 O   0  0  0  0  0  0  0  0  0  0  0  0
    2.8650    0.0430    1.2820 H   0  0  0  0  0  0  0  0  0  0  0  0
    2.4290   -1.3680    0.3990 H   0  0  0  0  0  0  0  0  0  0  0  0
    2.8060   -2.7250    2.3720 H   0  0  0  0  0  0  0  0  0  0  0  0
    3.3330   -1.4620    4.5200 H   0  0  0  0  0  0  0  0  0  0  0  0
    3.3490    0.0670    3.5710 H   0  0  0  0  0  0  0  0  0  0  0  0
    5.1390    0.5710    2.0910 H   0  0  0  0  0  0  0  0  0  0  0  0
    7.5670    0.1890    1.5680 H   0  0  0  0  0  0  0  0  0  0  0  0
    8.6920   -1.8430    2.4060 H   0  0  0  0  0  0  0  0  0  0  0  0
    7.4230   -3.4700    3.7440 H   0  0  0  0  0  0  0  0  0  0  0  0
    5.0380   -3.0740    4.2440 H   0  0  0  0  0  0  0  0  0  0  0  0
   -2.9400    4.0910    2.0460 C   0  0  0  0  0  0  0  0  0  0  0  0
   -1.1960    3.7530    1.7050 S   0  0  0  0  0  0  0  0  0  0  0  0
   -0.9220    2.0020    1.3740 C   0  0  0  0  0  0  0  0  0  0  0  0
   -1.2030    1.2210    2.6350 C   0  0  0  0  0  0  0  0  0  0  0  0
   -0.9920   -0.2670    2.4280 C   0  0  2  0  0  0  0  0  0  0  0  0
    0.3700   -0.5380    2.0350 N   0  0  0  0  0  0  0  0  0  0  0  0
   -1.9600   -0.6910    1.3650 C   0  0  0  0  0  0  0  0  0  0  0  0
   -3.1850   -0.5110    1.5820 O   0  0  0  0  0  0  0  0  0  0  0  0
   -3.1410    4.1030    3.1340 H   0  0  0  0  0  0  0  0  0  0  0  0
   -3.6190    3.3460    1.5660 H   0  0  0  0  0  0  0  0  0  0  0  0
   -3.1980    5.0750    1.5970 H   0  0  0  0  0  0  0  0  0  0  0  0
   -1.6900    1.6910    0.6150 H   0  0  0  0  0  0  0  0  0  0  0  0
    0.1060    1.8760    1.0080 H   0  0  0  0  0  0  0  0  0  0  0  0
   -0.5670    1.6080    3.4600 H   0  0  0  0  0  0  0  0  0  0  0  0
   -2.2550    1.4220    2.9230 H   0  0  0  0  0  0  0  0  0  0  0  0
   -1.2440   -0.7580    3.4030 H   0  0  0  0  0  0  0  0  0  0  0  0
    0.7290   -0.1290    1.1530 H   0  0  0  0  0  0  0  0  0  0  0  0
   -5.8550   -2.4100   -6.3530 O   0  0  0  0  0  0  0  0  0  0  0  0
   -4.9750   -2.0640   -5.3360 C   0  0  0  0  0  0  0  0  0  0  0  0
   -5.2980   -1.0730   -4.4130 C   0  0  0  0  0  0  0  0  0  0  0  0
   -4.4180   -0.7370   -3.4060 C   0  0  0  0  0  0  0  0  0  0  0  0
   -3.1830   -1.3620   -3.2640 C   0  0  0  0  0  0  0  0  0  0  0  0
   -2.2610   -0.9640   -2.1770 C   0  0  0  0  0  0  0  0  0  0  0  0
   -2.4950   -1.6900   -0.8890 C   0  0  2  0  0  0  0  0  0  0  0  0
   -1.5700   -1.2760    0.1470 N   0  0  0  0  0  0  0  0  0  0  0  0
   -2.3700   -3.1530   -1.0660 C   0  0  0  0  0  0  0  0  0  0  0  0
   -3.0540   -3.8380   -1.8670 O   0  0  0  0  0  0  0  0  0  0  0  0
   -2.8650   -2.3420   -4.1780 C   0  0  0  0  0  0  0  0  0  0  0  0
   -3.7510   -2.6840   -5.1960 C   0  0  0  0  0  0  0  0  0  0  0  0
   -1.4370   -3.8960   -0.3150 O   0  0  0  0  0  0  0  0  0  0  0  0
   -6.5260   -3.1770   -6.2110 H   0  0  0  0  0  0  0  0  0  0  0  0
   -6.2600   -0.5800   -4.5160 H   0  0  0  0  0  0  0  0  0  0  0  0
   -4.6480    0.0310   -2.6760 H   0  0  0  0  0  0  0  0  0  0  0  0
   -1.2230   -1.1660   -2.5710 H   0  0  0  0  0  0  0  0  0  0  0  0
   -2.3430    0.1310   -2.0560 H   0  0  0  0  0  0  0  0  0  0  0  0
   -3.5530   -1.4930   -0.5970 H   0  0  0  0  0  0  0  0  0  0  0  0
   -0.5510   -1.4200   -0.0240 H   0  0  0  0  0  0  0  0  0  0  0  0
   -1.9190   -2.8670   -4.1350 H   0  0  0  0  0  0  0  0  0  0  0  0
   -3.5120   -3.4550   -5.9230 H   0  0  0  0  0  0  0  0  0  0  0  0
  1 12  1  0  0  0  0
  1  2  1  0  0  0  0
  2 14  1  6  0  0  0
  2 10  1  0  0  0  0
  2  3  1  0  0  0  0
  3 16  1  0  0  0  0
  3 15  1  0  0  0  0
  4  3  1  0  0  0  0
  4  9  1  0  0  0  0
  5  4  2  0  0  0  0
  6  5  1  0  0  0  0
  6  7  2  0  0  0  0
  7  8  1  0  0  0  0
  8  9  2  0  0  0  0
  8 20  1  0  0  0  0
  9 21  1  0  0  0  0
 10 11  2  0  0  0  0
 13  1  1  0  0  0  0
 17  5  1  0  0  0  0
 18  6  1  0  0  0  0
 19  7  1  0  0  0  0
 22 30  1  0  0  0  0
 23 22  1  0  0  0  0
 24 23  1  0  0  0  0
 24 25  1  0  0  0  0
 25 36  1  0  0  0  0
 25 35  1  0  0  0  0
 26 25  1  0  0  0  0
 26 37  1  1  0  0  0
 27 26  1  0  0  0  0
 27 10  1  0  0  0  0
 28 29  2  0  0  0  0
 28 26  1  0  0  0  0
 31 22  1  0  0  0  0
 32 22  1  0  0  0  0
 33 24  1  0  0  0  0
 34 24  1  0  0  0  0
 38 27  1  0  0  0  0
 39 52  1  0  0  0  0
 39 40  1  0  0  0  0
 40 50  2  0  0  0  0
 40 41  1  0  0  0  0
 41 42  2  0  0  0  0
 42 43  1  0  0  0  0
 42 54  1  0  0  0  0
 43 44  1  0  0  0  0
 44 56  1  0  0  0  0
 44 45  1  0  0  0  0
 45 57  1  1  0  0  0
 45 46  1  0  0  0  0
 46 28  1  0  0  0  0
 47 45  1  0  0  0  0
 47 51  1  0  0  0  0
 48 47  2  0  0  0  0
 49 59  1  0  0  0  0
 49 43  2  0  0  0  0
 50 49  1  0  0  0  0
 53 41  1  0  0  0  0
 55 44  1  0  0  0  0
 58 46  1  0  0  0  0
 60 50  1  0  0  0  0
M  END
$$$$
