FNC.pdb
 OpenBabel07022418583D

 47 47  0  0  1  0  0  0  0  0999 V2000
    2.9020   -1.7430   -1.8250 N   0  0  0  0  0  0  0  0  0  0  0  0
    2.2980   -1.9050   -0.5270 C   0  0  1  0  0  0  0  0  0  0  0  0
    3.2420   -1.6640    0.5990 C   0  0  0  0  0  0  0  0  0  0  0  0
    3.8240   -0.3070    0.6210 C   0  0  0  0  0  0  0  0  0  0  0  0
    3.2500    0.7140    1.3330 C   0  0  0  0  0  0  0  0  0  0  0  0
    3.8030    1.9610    1.3310 C   0  0  0  0  0  0  0  0  0  0  0  0
    4.9620    2.1630    0.5870 C   0  0  0  0  0  0  0  0  0  0  0  0
    5.5380    1.1510   -0.1240 C   0  0  0  0  0  0  0  0  0  0  0  0
    4.9750   -0.1000   -0.1160 C   0  0  0  0  0  0  0  0  0  0  0  0
    1.0500   -1.0810   -0.4780 C   0  0  0  0  0  0  0  0  0  0  0  0
    0.7920   -0.4150   -1.5100 O   0  0  0  0  0  0  0  0  0  0  0  0
    2.1690   -1.5640   -2.5600 H   0  0  0  0  0  0  0  0  0  0  0  0
    3.4020   -2.6200   -2.0950 H   0  0  0  0  0  0  0  0  0  0  0  0
    1.9510   -2.9670   -0.4870 H   0  0  0  0  0  0  0  0  0  0  0  0
    2.6650   -1.8540    1.5510 H   0  0  0  0  0  0  0  0  0  0  0  0
    4.0310   -2.4360    0.5420 H   0  0  0  0  0  0  0  0  0  0  0  0
    2.3630    0.5210    1.8950 H   0  0  0  0  0  0  0  0  0  0  0  0
    3.3590    2.7990    1.8960 H   0  0  0  0  0  0  0  0  0  0  0  0
    5.3800    3.1760    0.6070 H   0  0  0  0  0  0  0  0  0  0  0  0
    6.4430    1.3440   -0.6950 H   0  0  0  0  0  0  0  0  0  0  0  0
    5.4370   -0.8980   -0.6820 H   0  0  0  0  0  0  0  0  0  0  0  0
   -0.1550    2.4160    1.3230 N   0  0  0  0  0  0  0  0  0  0  0  0
   -0.3480    1.8370    0.0080 C   0  0  0  0  0  0  0  0  0  0  0  0
    0.3510    2.3320   -0.8850 O   0  0  0  0  0  0  0  0  0  0  0  0
   -1.3410    0.7580   -0.0600 C   0  0  0  0  0  0  0  0  0  0  0  0
   -0.9750   -0.3470    0.8890 C   0  0  2  0  0  0  0  0  0  0  0  0
    0.2250   -1.0670    0.6620 N   0  0  0  0  0  0  0  0  0  0  0  0
   -2.0730   -1.2660    1.2300 C   0  0  0  0  0  0  0  0  0  0  0  0
   -1.8330   -2.5260    1.2440 O   0  0  0  0  0  0  0  0  0  0  0  0
    0.7400    2.2420    1.8150 H   0  0  0  0  0  0  0  0  0  0  0  0
   -0.8730    2.9930    1.7830 H   0  0  0  0  0  0  0  0  0  0  0  0
   -2.3640    1.0900    0.1830 H   0  0  0  0  0  0  0  0  0  0  0  0
   -1.3850    0.4240   -1.1170 H   0  0  0  0  0  0  0  0  0  0  0  0
   -0.6990    0.3240    1.8210 H   0  0  0  0  0  0  0  0  0  0  0  0
    0.5480   -1.6830    1.4670 H   0  0  0  0  0  0  0  0  0  0  0  0
   -3.4000   -0.8710    1.5500 N   0  0  0  0  0  0  0  0  0  0  0  0
   -4.4840   -1.7390    1.8900 C   0  0  1  0  0  0  0  0  0  0  0  0
   -5.2430   -2.3010    0.7400 C   0  0  0  0  0  0  0  0  0  0  0  0
   -5.9670   -0.9660   -0.2390 S   0  0  0  0  0  0  0  0  0  0  0  0
   -4.1450   -2.7620    2.9320 C   0  0  0  0  0  0  0  0  0  0  0  0
   -3.0250   -2.7370    3.4600 O   0  0  0  0  0  0  0  0  0  0  0  0
   -5.0520   -3.7330    3.3180 O   0  0  0  0  0  0  0  0  0  0  0  0
   -3.5420    0.1900    1.5190 H   0  0  0  0  0  0  0  0  0  0  0  0
   -5.2270   -1.0760    2.4660 H   0  0  0  0  0  0  0  0  0  0  0  0
   -4.6580   -3.0070    0.1180 H   0  0  0  0  0  0  0  0  0  0  0  0
   -6.0880   -2.8990    1.1570 H   0  0  0  0  0  0  0  0  0  0  0  0
   -7.2140   -0.6380    0.3340 H   0  0  0  0  0  0  0  0  0  0  0  0
  1  2  1  0  0  0  0
  2 14  1  1  0  0  0
  2 10  1  0  0  0  0
  2  3  1  0  0  0  0
  3  4  1  0  0  0  0
  3 15  1  0  0  0  0
  4  5  1  0  0  0  0
  5 17  1  0  0  0  0
  6  5  2  0  0  0  0
  6 18  1  0  0  0  0
  7 19  1  0  0  0  0
  7  6  1  0  0  0  0
  8  9  1  0  0  0  0
  8  7  2  0  0  0  0
  9  4  2  0  0  0  0
 10 27  1  0  0  0  0
 11 10  2  0  0  0  0
 12  1  1  0  0  0  0
 13  1  1  0  0  0  0
 16  3  1  0  0  0  0
 20  8  1  0  0  0  0
 21  9  1  0  0  0  0
 22 31  1  0  0  0  0
 22 30  1  0  0  0  0
 23 22  1  0  0  0  0
 24 23  2  0  0  0  0
 25 23  1  0  0  0  0
 25 32  1  0  0  0  0
 25 26  1  0  0  0  0
 26 28  1  0  0  0  0
 26 34  1  1  0  0  0
 27 26  1  0  0  0  0
 27 35  1  0  0  0  0
 28 29  2  0  0  0  0
 28 36  1  0  0  0  0
 33 25  1  0  0  0  0
 36 37  1  0  0  0  0
 37 44  1  1  0  0  0
 37 40  1  0  0  0  0
 38 46  1  0  0  0  0
 38 37  1  0  0  0  0
 39 47  1  0  0  0  0
 39 38  1  0  0  0  0
 40 42  2  0  0  0  0
 40 41  1  0  0  0  0
 43 36  1  0  0  0  0
 45 38  1  0  0  0  0
M  END
$$$$
