FND.pdb
 OpenBabel07022418583D

 49 49  0  0  1  0  0  0  0  0999 V2000
   -1.5300    3.0520    0.1850 N   0  0  0  0  0  0  0  0  0  0  0  0
   -0.8370    2.1480    1.0970 C   0  0  1  0  0  0  0  0  0  0  0  0
   -1.8570    1.5640    2.0010 C   0  0  0  0  0  0  0  0  0  0  0  0
   -1.3570    0.6240    3.0160 C   0  0  0  0  0  0  0  0  0  0  0  0
   -0.9210    1.1200    4.2250 C   0  0  0  0  0  0  0  0  0  0  0  0
   -0.4540    0.2560    5.1980 C   0  0  0  0  0  0  0  0  0  0  0  0
   -0.4080   -1.1120    4.9990 C   0  0  0  0  0  0  0  0  0  0  0  0
   -0.8450   -1.6120    3.7890 C   0  0  0  0  0  0  0  0  0  0  0  0
   -1.3060   -0.7410    2.8310 C   0  0  0  0  0  0  0  0  0  0  0  0
   -0.0620    1.1590    0.2920 C   0  0  0  0  0  0  0  0  0  0  0  0
    0.5090    0.2580    0.9070 O   0  0  0  0  0  0  0  0  0  0  0  0
   -2.2120    2.5100   -0.4020 H   0  0  0  0  0  0  0  0  0  0  0  0
   -1.9470    3.8540    0.6730 H   0  0  0  0  0  0  0  0  0  0  0  0
   -0.0990    2.7940    1.6550 H   0  0  0  0  0  0  0  0  0  0  0  0
   -2.3260    2.4290    2.5590 H   0  0  0  0  0  0  0  0  0  0  0  0
   -2.7270    1.1190    1.4500 H   0  0  0  0  0  0  0  0  0  0  0  0
   -0.9380    2.2040    4.4330 H   0  0  0  0  0  0  0  0  0  0  0  0
   -0.0980    0.6250    6.1730 H   0  0  0  0  0  0  0  0  0  0  0  0
   -0.0300   -1.7690    5.7950 H   0  0  0  0  0  0  0  0  0  0  0  0
   -0.7950   -2.6820    3.6710 H   0  0  0  0  0  0  0  0  0  0  0  0
   -1.6490   -1.1190    1.8940 H   0  0  0  0  0  0  0  0  0  0  0  0
    4.1950    1.9230   -2.2330 N   0  0  0  0  0  0  0  0  0  0  0  0
    2.9850    1.3860   -1.6550 C   0  0  0  0  0  0  0  0  0  0  0  0
    2.9830    1.3020   -0.4170 O   0  0  0  0  0  0  0  0  0  0  0  0
    1.9130    1.0080   -2.5670 C   0  0  0  0  0  0  0  0  0  0  0  0
    0.6730    0.4490   -1.9900 C   0  0  2  0  0  0  0  0  0  0  0  0
   -0.0160    1.2980   -1.0890 N   0  0  0  0  0  0  0  0  0  0  0  0
    0.7970   -0.9680   -1.6090 C   0  0  0  0  0  0  0  0  0  0  0  0
    1.8150   -1.6200   -2.0720 O   0  0  0  0  0  0  0  0  0  0  0  0
    5.0100    1.2770   -2.3630 H   0  0  0  0  0  0  0  0  0  0  0  0
    4.2270    2.9230   -2.5020 H   0  0  0  0  0  0  0  0  0  0  0  0
    2.3730    0.2650   -3.2940 H   0  0  0  0  0  0  0  0  0  0  0  0
    1.6400    1.8710   -3.2650 H   0  0  0  0  0  0  0  0  0  0  0  0
   -0.0520    0.3340   -2.9390 H   0  0  0  0  0  0  0  0  0  0  0  0
   -0.5480    2.1270   -1.5450 H   0  0  0  0  0  0  0  0  0  0  0  0
   -0.0770   -1.7100   -0.8000 N   0  0  0  0  0  0  0  0  0  0  0  0
    0.2380   -3.1350   -0.5370 C   0  0  1  0  0  0  0  0  0  0  0  0
    0.2640   -3.3920    0.9360 C   0  0  0  0  0  0  0  0  0  0  0  0
    0.6390   -4.7780    1.2180 C   0  0  0  0  0  0  0  0  0  0  0  0
    1.0060   -5.5930    0.3610 O   0  0  0  0  0  0  0  0  0  0  0  0
   -0.8860   -3.9230   -1.1360 C   0  0  0  0  0  0  0  0  0  0  0  0
   -1.8180   -3.2620   -1.6850 O   0  0  0  0  0  0  0  0  0  0  0  0
    0.5750   -5.1970    2.5480 O   0  0  0  0  0  0  0  0  0  0  0  0
   -0.9700   -5.2770   -1.1300 O   0  0  0  0  0  0  0  0  0  0  0  0
   -0.9400   -1.3120   -0.4170 H   0  0  0  0  0  0  0  0  0  0  0  0
    1.1990   -3.3960   -0.9930 H   0  0  0  0  0  0  0  0  0  0  0  0
    0.9880   -2.7340    1.4720 H   0  0  0  0  0  0  0  0  0  0  0  0
   -0.7780   -3.2440    1.3590 H   0  0  0  0  0  0  0  0  0  0  0  0
    0.8820   -6.1100    2.8580 H   0  0  0  0  0  0  0  0  0  0  0  0
  1 13  1  0  0  0  0
  1  2  1  0  0  0  0
  2 14  1  1  0  0  0
  2  3  1  0  0  0  0
  3 15  1  0  0  0  0
  3  4  1  0  0  0  0
  4  5  1  0  0  0  0
  5 17  1  0  0  0  0
  5  6  2  0  0  0  0
  6 18  1  0  0  0  0
  7  6  1  0  0  0  0
  7 19  1  0  0  0  0
  8  7  2  0  0  0  0
  9  4  2  0  0  0  0
  9  8  1  0  0  0  0
 10 11  2  0  0  0  0
 10  2  1  0  0  0  0
 12  1  1  0  0  0  0
 16  3  1  0  0  0  0
 20  8  1  0  0  0  0
 21  9  1  0  0  0  0
 22 23  1  0  0  0  0
 23 24  2  0  0  0  0
 25 26  1  0  0  0  0
 25 23  1  0  0  0  0
 26 34  1  6  0  0  0
 26 28  1  0  0  0  0
 26 27  1  0  0  0  0
 27 10  1  0  0  0  0
 28 36  1  0  0  0  0
 29 28  2  0  0  0  0
 30 22  1  0  0  0  0
 31 22  1  0  0  0  0
 32 25  1  0  0  0  0
 33 25  1  0  0  0  0
 35 27  1  0  0  0  0
 36 37  1  0  0  0  0
 36 45  1  0  0  0  0
 37 46  1  6  0  0  0
 37 38  1  0  0  0  0
 38 39  1  0  0  0  0
 38 48  1  0  0  0  0
 38 47  1  0  0  0  0
 39 43  1  0  0  0  0
 40 39  2  0  0  0  0
 41 44  1  0  0  0  0
 41 37  1  0  0  0  0
 42 41  2  0  0  0  0
 43 49  1  0  0  0  0
M  END
$$$$
