FNG.pdb
 OpenBabel07022418583D

 43 43  0  0  1  0  0  0  0  0999 V2000
    2.5360   -4.0690    0.7860 N   0  0  0  0  0  0  0  0  0  0  0  0
    1.8660   -2.8660    0.2380 C   0  0  1  0  0  0  0  0  0  0  0  0
    0.7170   -3.3330   -0.5730 C   0  0  0  0  0  0  0  0  0  0  0  0
   -0.1020   -2.3130   -1.2350 C   0  0  0  0  0  0  0  0  0  0  0  0
    0.3560   -1.8310   -2.4660 C   0  0  0  0  0  0  0  0  0  0  0  0
   -0.3790   -0.9100   -3.1540 C   0  0  0  0  0  0  0  0  0  0  0  0
   -1.5870   -0.4220   -2.6730 C   0  0  0  0  0  0  0  0  0  0  0  0
   -2.0220   -0.9000   -1.4720 C   0  0  0  0  0  0  0  0  0  0  0  0
   -1.2990   -1.8200   -0.7740 C   0  0  0  0  0  0  0  0  0  0  0  0
    1.6770   -1.8740    1.2710 C   0  0  0  0  0  0  0  0  0  0  0  0
    1.9470   -2.1130    2.5080 O   0  0  0  0  0  0  0  0  0  0  0  0
    3.3010   -3.7950    1.4340 H   0  0  0  0  0  0  0  0  0  0  0  0
    2.8920   -4.6020   -0.0440 H   0  0  0  0  0  0  0  0  0  0  0  0
    2.6480   -2.4550   -0.4730 H   0  0  0  0  0  0  0  0  0  0  0  0
    1.0690   -4.0330   -1.3990 H   0  0  0  0  0  0  0  0  0  0  0  0
    0.0280   -3.9980    0.0190 H   0  0  0  0  0  0  0  0  0  0  0  0
    1.2900   -2.1980   -2.8540 H   0  0  0  0  0  0  0  0  0  0  0  0
   -0.0670   -0.5040   -4.1140 H   0  0  0  0  0  0  0  0  0  0  0  0
   -2.1540    0.3140   -3.2440 H   0  0  0  0  0  0  0  0  0  0  0  0
   -2.9740   -0.5320   -1.0670 H   0  0  0  0  0  0  0  0  0  0  0  0
   -1.6700   -2.1920    0.1920 H   0  0  0  0  0  0  0  0  0  0  0  0
    3.9190    0.1860    1.6850 N   0  0  0  0  0  0  0  0  0  0  0  0
    3.2710    1.4330    1.5760 C   0  0  0  0  0  0  0  0  0  0  0  0
    3.9760    2.4370    1.3000 O   0  0  0  0  0  0  0  0  0  0  0  0
    1.8200    1.6590    1.7620 C   0  0  0  0  0  0  0  0  0  0  0  0
    1.0560    0.4050    2.0900 C   0  0  2  0  0  0  0  0  0  0  0  0
    1.1960   -0.5670    1.0310 N   0  0  0  0  0  0  0  0  0  0  0  0
   -0.3460    0.6360    2.4060 C   0  0  0  0  0  0  0  0  0  0  0  0
   -1.2270   -0.0000    1.7810 O   0  0  0  0  0  0  0  0  0  0  0  0
    4.1920   -0.1770    2.6080 H   0  0  0  0  0  0  0  0  0  0  0  0
    4.1210   -0.3670    0.8360 H   0  0  0  0  0  0  0  0  0  0  0  0
    1.7160    2.3530    2.6380 H   0  0  0  0  0  0  0  0  0  0  0  0
    1.4470    2.1940    0.8940 H   0  0  0  0  0  0  0  0  0  0  0  0
    1.5100   -0.0470    3.0210 H   0  0  0  0  0  0  0  0  0  0  0  0
    0.9290   -0.2510    0.0770 H   0  0  0  0  0  0  0  0  0  0  0  0
   -0.7770    1.5660    3.4090 N   0  0  0  0  0  0  0  0  0  0  0  0
   -2.1630    1.7480    3.6730 C   0  0  0  0  0  0  0  0  0  0  0  0
   -2.9220    2.2180    2.4880 C   0  0  0  0  0  0  0  0  0  0  0  0
   -4.1560    2.4100    2.6140 O   0  0  0  0  0  0  0  0  0  0  0  0
   -2.3560    2.4590    1.2470 O   0  0  0  0  0  0  0  0  0  0  0  0
   -0.0490    2.0900    3.9230 H   0  0  0  0  0  0  0  0  0  0  0  0
   -2.3490    2.4600    4.5060 H   0  0  0  0  0  0  0  0  0  0  0  0
   -2.6220    0.7710    3.9880 H   0  0  0  0  0  0  0  0  0  0  0  0
  1 12  1  0  0  0  0
  2 14  1  6  0  0  0
  2  1  1  0  0  0  0
  2 10  1  0  0  0  0
  3 16  1  0  0  0  0
  3  2  1  0  0  0  0
  4  9  1  0  0  0  0
  4  3  1  0  0  0  0
  5  4  2  0  0  0  0
  6  7  2  0  0  0  0
  6  5  1  0  0  0  0
  7  8  1  0  0  0  0
  8 20  1  0  0  0  0
  8  9  2  0  0  0  0
  9 21  1  0  0  0  0
 10 11  2  0  0  0  0
 13  1  1  0  0  0  0
 15  3  1  0  0  0  0
 17  5  1  0  0  0  0
 18  6  1  0  0  0  0
 19  7  1  0  0  0  0
 22 30  1  0  0  0  0
 23 22  1  0  0  0  0
 23 25  1  0  0  0  0
 24 23  2  0  0  0  0
 25 26  1  0  0  0  0
 25 32  1  0  0  0  0
 26 28  1  0  0  0  0
 26 34  1  1  0  0  0
 27 10  1  0  0  0  0
 27 26  1  0  0  0  0
 28 36  1  0  0  0  0
 29 28  2  0  0  0  0
 31 22  1  0  0  0  0
 33 25  1  0  0  0  0
 35 27  1  0  0  0  0
 36 37  1  0  0  0  0
 36 41  1  0  0  0  0
 37 43  1  0  0  0  0
 37 42  1  0  0  0  0
 38 39  1  0  0  0  0
 38 37  1  0  0  0  0
 40 38  2  0  0  0  0
M  END
$$$$
