FNM.pdb
 OpenBabel07022418583D

 53 53  0  0  1  0  0  0  0  0999 V2000
   -1.7020    1.0770    2.0450 N   0  0  0  0  0  0  0  0  0  0  0  0
   -0.2840    1.2280    2.3090 C   0  0  1  0  0  0  0  0  0  0  0  0
    0.0020    0.4260    3.5490 C   0  0  0  0  0  0  0  0  0  0  0  0
    1.3950    0.4370    3.9930 C   0  0  0  0  0  0  0  0  0  0  0  0
    1.9160    1.3930    4.8550 C   0  0  0  0  0  0  0  0  0  0  0  0
    3.2240    1.3800    5.2660 C   0  0  0  0  0  0  0  0  0  0  0  0
    4.0760    0.3930    4.8210 C   0  0  0  0  0  0  0  0  0  0  0  0
    3.6020   -0.5920    3.9520 C   0  0  0  0  0  0  0  0  0  0  0  0
    2.2830   -0.5420    3.5650 C   0  0  0  0  0  0  0  0  0  0  0  0
    0.4980    0.7000    1.1470 C   0  0  0  0  0  0  0  0  0  0  0  0
    1.7260    0.8340    1.2060 O   0  0  0  0  0  0  0  0  0  0  0  0
   -2.0300    1.5480    1.1980 H   0  0  0  0  0  0  0  0  0  0  0  0
   -2.0650    0.1430    2.2470 H   0  0  0  0  0  0  0  0  0  0  0  0
   -0.0050    2.2800    2.5090 H   0  0  0  0  0  0  0  0  0  0  0  0
   -0.6340    0.7980    4.3820 H   0  0  0  0  0  0  0  0  0  0  0  0
   -0.2870   -0.6450    3.3670 H   0  0  0  0  0  0  0  0  0  0  0  0
    1.2310    2.1580    5.1930 H   0  0  0  0  0  0  0  0  0  0  0  0
    3.6120    2.1230    5.9310 H   0  0  0  0  0  0  0  0  0  0  0  0
    5.1190    0.3370    5.1150 H   0  0  0  0  0  0  0  0  0  0  0  0
    4.2520   -1.3680    3.5950 H   0  0  0  0  0  0  0  0  0  0  0  0
    1.9050   -1.3160    2.8850 H   0  0  0  0  0  0  0  0  0  0  0  0
    3.8390    1.1610   -1.2090 N   0  0  0  0  0  0  0  0  0  0  0  0
    2.4420    0.9240   -1.3310 C   0  0  0  0  0  0  0  0  0  0  0  0
    1.7040    1.9400   -1.4870 O   0  0  0  0  0  0  0  0  0  0  0  0
    1.9360   -0.4400   -1.2730 C   0  0  0  0  0  0  0  0  0  0  0  0
    0.4070   -0.4560   -1.1440 C   0  0  2  0  0  0  0  0  0  0  0  0
   -0.1150    0.0870    0.0520 N   0  0  0  0  0  0  0  0  0  0  0  0
   -0.1870   -1.6740   -1.6700 C   0  0  0  0  0  0  0  0  0  0  0  0
    0.2550   -2.1660   -2.7730 O   0  0  0  0  0  0  0  0  0  0  0  0
    4.3990    0.9210   -0.3620 H   0  0  0  0  0  0  0  0  0  0  0  0
    4.3590    1.6020   -2.0040 H   0  0  0  0  0  0  0  0  0  0  0  0
    2.4070   -1.0970   -0.5350 H   0  0  0  0  0  0  0  0  0  0  0  0
    2.1270   -0.9100   -2.2830 H   0  0  0  0  0  0  0  0  0  0  0  0
    0.1850    0.3840   -1.9390 H   0  0  0  0  0  0  0  0  0  0  0  0
   -1.1980    0.0230    0.1310 H   0  0  0  0  0  0  0  0  0  0  0  0
   -4.8550    0.0740   -0.7160 C   0  0  0  0  0  0  0  0  0  0  0  0
   -3.5660   -0.9700   -1.4070 S   0  0  0  0  0  0  0  0  0  0  0  0
   -4.1540   -2.6070   -1.8450 C   0  0  0  0  0  0  0  0  0  0  0  0
   -3.0110   -3.4050   -2.4220 C   0  0  0  0  0  0  0  0  0  0  0  0
   -1.8680   -3.5830   -1.4830 C   0  0  2  0  0  0  0  0  0  0  0  0
   -1.2440   -2.3680   -1.0300 N   0  0  0  0  0  0  0  0  0  0  0  0
   -0.8990   -4.6030   -1.9580 C   0  0  0  0  0  0  0  0  0  0  0  0
   -1.4150   -5.6540   -2.4520 O   0  0  0  0  0  0  0  0  0  0  0  0
    0.4530   -4.5120   -1.9070 O   0  0  0  0  0  0  0  0  0  0  0  0
   -5.2130   -0.2540    0.2790 H   0  0  0  0  0  0  0  0  0  0  0  0
   -5.7470    0.1350   -1.4000 H   0  0  0  0  0  0  0  0  0  0  0  0
   -4.4630    1.1010   -0.6040 H   0  0  0  0  0  0  0  0  0  0  0  0
   -4.9550   -2.4970   -2.6080 H   0  0  0  0  0  0  0  0  0  0  0  0
   -4.6240   -3.1450   -0.9940 H   0  0  0  0  0  0  0  0  0  0  0  0
   -3.4070   -4.4330   -2.6620 H   0  0  0  0  0  0  0  0  0  0  0  0
   -2.6860   -2.9800   -3.3990 H   0  0  0  0  0  0  0  0  0  0  0  0
   -2.2960   -4.0660   -0.5260 H   0  0  0  0  0  0  0  0  0  0  0  0
   -1.5800   -1.9100   -0.1200 H   0  0  0  0  0  0  0  0  0  0  0  0
  1 13  1  0  0  0  0
  1  2  1  0  0  0  0
  2 14  1  1  0  0  0
  2  3  1  0  0  0  0
  3  4  1  0  0  0  0
  3 15  1  0  0  0  0
  4  5  1  0  0  0  0
  5 17  1  0  0  0  0
  5  6  2  0  0  0  0
  6 18  1  0  0  0  0
  7 19  1  0  0  0  0
  7  6  1  0  0  0  0
  8  7  2  0  0  0  0
  9  8  1  0  0  0  0
  9  4  2  0  0  0  0
 10 11  2  0  0  0  0
 10  2  1  0  0  0  0
 12  1  1  0  0  0  0
 16  3  1  0  0  0  0
 20  8  1  0  0  0  0
 21  9  1  0  0  0  0
 22 30  1  0  0  0  0
 23 25  1  0  0  0  0
 23 22  1  0  0  0  0
 24 23  2  0  0  0  0
 25 26  1  0  0  0  0
 25 32  1  0  0  0  0
 26 34  1  6  0  0  0
 26 27  1  0  0  0  0
 27 35  1  0  0  0  0
 27 10  1  0  0  0  0
 28 26  1  0  0  0  0
 28 41  1  0  0  0  0
 29 28  2  0  0  0  0
 31 22  1  0  0  0  0
 33 25  1  0  0  0  0
 36 47  1  0  0  0  0
 36 45  1  0  0  0  0
 37 36  1  0  0  0  0
 38 37  1  0  0  0  0
 38 49  1  0  0  0  0
 39 38  1  0  0  0  0
 39 40  1  0  0  0  0
 40 41  1  0  0  0  0
 40 52  1  1  0  0  0
 41 53  1  0  0  0  0
 42 44  1  0  0  0  0
 42 40  1  0  0  0  0
 43 42  2  0  0  0  0
 46 36  1  0  0  0  0
 48 38  1  0  0  0  0
 50 39  1  0  0  0  0
 51 39  1  0  0  0  0
M  END
$$$$
