FNN.pdb
 OpenBabel07022418583D

 50 50  0  0  1  0  0  0  0  0999 V2000
   -0.2920    4.1630    0.5440 N   0  0  0  0  0  0  0  0  0  0  0  0
    0.4580    3.0090    1.0670 C   0  0  1  0  0  0  0  0  0  0  0  0
   -0.0790    2.8100    2.4600 C   0  0  0  0  0  0  0  0  0  0  0  0
    0.5050    1.7260    3.2310 C   0  0  0  0  0  0  0  0  0  0  0  0
    1.6440    1.9380    3.9770 C   0  0  0  0  0  0  0  0  0  0  0  0
    2.1580    0.8970    4.7240 C   0  0  0  0  0  0  0  0  0  0  0  0
    1.5770   -0.3430    4.7510 C   0  0  0  0  0  0  0  0  0  0  0  0
    0.4470   -0.5530    4.0110 C   0  0  0  0  0  0  0  0  0  0  0  0
   -0.0680    0.4790    3.2670 C   0  0  0  0  0  0  0  0  0  0  0  0
    0.1020    1.8700    0.2230 C   0  0  0  0  0  0  0  0  0  0  0  0
   -0.8620    1.9880   -0.6090 O   0  0  0  0  0  0  0  0  0  0  0  0
   -1.1770    4.3220    1.0450 H   0  0  0  0  0  0  0  0  0  0  0  0
   -0.5540    4.0000   -0.4630 H   0  0  0  0  0  0  0  0  0  0  0  0
    1.5360    3.2710    1.0540 H   0  0  0  0  0  0  0  0  0  0  0  0
   -1.1990    2.6770    2.3120 H   0  0  0  0  0  0  0  0  0  0  0  0
    0.0360    3.7980    2.9740 H   0  0  0  0  0  0  0  0  0  0  0  0
    2.1400    2.9120    3.9850 H   0  0  0  0  0  0  0  0  0  0  0  0
    3.0540    1.0710    5.3080 H   0  0  0  0  0  0  0  0  0  0  0  0
    2.0080   -1.1530    5.3540 H   0  0  0  0  0  0  0  0  0  0  0  0
   -0.0250   -1.5110    4.0140 H   0  0  0  0  0  0  0  0  0  0  0  0
   -0.9730    0.2750    2.6860 H   0  0  0  0  0  0  0  0  0  0  0  0
    2.5730    1.6880   -2.2430 N   0  0  0  0  0  0  0  0  0  0  0  0
    1.5070    0.7740   -2.4630 C   0  0  0  0  0  0  0  0  0  0  0  0
    0.6100    1.0780   -3.3070 O   0  0  0  0  0  0  0  0  0  0  0  0
    1.3750   -0.5170   -1.7660 C   0  0  0  0  0  0  0  0  0  0  0  0
    0.2850   -0.4250   -0.6740 C   0  0  2  0  0  0  0  0  0  0  0  0
    0.7290    0.5950    0.2140 N   0  0  0  0  0  0  0  0  0  0  0  0
    0.0380   -1.7440   -0.0940 C   0  0  0  0  0  0  0  0  0  0  0  0
    0.2280   -1.9390    1.1270 O   0  0  0  0  0  0  0  0  0  0  0  0
    3.4510    1.4200   -1.7480 H   0  0  0  0  0  0  0  0  0  0  0  0
    2.5030    2.6730   -2.5780 H   0  0  0  0  0  0  0  0  0  0  0  0
    1.1410   -1.3610   -2.4270 H   0  0  0  0  0  0  0  0  0  0  0  0
    2.3270   -0.7160   -1.2340 H   0  0  0  0  0  0  0  0  0  0  0  0
   -0.6150   -0.0860   -1.2660 H   0  0  0  0  0  0  0  0  0  0  0  0
    1.5210    0.4350    0.8700 H   0  0  0  0  0  0  0  0  0  0  0  0
   -4.4560   -3.9700    0.0300 N   0  0  0  0  0  0  0  0  0  0  0  0
   -3.0640   -3.7090    0.1060 C   0  0  0  0  0  0  0  0  0  0  0  0
   -2.7460   -2.6020    0.6570 O   0  0  0  0  0  0  0  0  0  0  0  0
   -2.0420   -4.6310   -0.4050 C   0  0  0  0  0  0  0  0  0  0  0  0
   -0.6370   -4.1130   -0.1950 C   0  0  2  0  0  0  0  0  0  0  0  0
   -0.4190   -2.8460   -0.8610 N   0  0  0  0  0  0  0  0  0  0  0  0
    0.3690   -5.1280   -0.6550 C   0  0  0  0  0  0  0  0  0  0  0  0
    1.2170   -4.7950   -1.4980 O   0  0  0  0  0  0  0  0  0  0  0  0
    0.3010   -6.4030   -0.1100 O   0  0  0  0  0  0  0  0  0  0  0  0
   -5.1190   -3.8300    0.8300 H   0  0  0  0  0  0  0  0  0  0  0  0
   -4.8790   -4.3270   -0.8710 H   0  0  0  0  0  0  0  0  0  0  0  0
   -2.2450   -4.8550   -1.4730 H   0  0  0  0  0  0  0  0  0  0  0  0
   -2.1060   -5.5950    0.1600 H   0  0  0  0  0  0  0  0  0  0  0  0
   -0.4670   -4.0120    0.8960 H   0  0  0  0  0  0  0  0  0  0  0  0
   -0.5960   -2.7380   -1.9040 H   0  0  0  0  0  0  0  0  0  0  0  0
  1 12  1  0  0  0  0
  1  2  1  0  0  0  0
  2 14  1  1  0  0  0
  2  3  1  0  0  0  0
  3 16  1  0  0  0  0
  3  4  1  0  0  0  0
  4  9  2  0  0  0  0
  4  5  1  0  0  0  0
  5 17  1  0  0  0  0
  5  6  2  0  0  0  0
  6  7  1  0  0  0  0
  6 18  1  0  0  0  0
  7 19  1  0  0  0  0
  8 20  1  0  0  0  0
  8  7  2  0  0  0  0
  9  8  1  0  0  0  0
 10  2  1  0  0  0  0
 11 10  2  0  0  0  0
 13  1  1  0  0  0  0
 15  3  1  0  0  0  0
 21  9  1  0  0  0  0
 22 30  1  0  0  0  0
 23 22  1  0  0  0  0
 23 25  1  0  0  0  0
 24 23  2  0  0  0  0
 25 33  1  0  0  0  0
 25 26  1  0  0  0  0
 26 34  1  6  0  0  0
 26 28  1  0  0  0  0
 26 27  1  0  0  0  0
 27 10  1  0  0  0  0
 27 35  1  0  0  0  0
 28 29  2  0  0  0  0
 31 22  1  0  0  0  0
 32 25  1  0  0  0  0
 36 37  1  0  0  0  0
 36 45  1  0  0  0  0
 37 38  2  0  0  0  0
 39 40  1  0  0  0  0
 39 37  1  0  0  0  0
 39 48  1  0  0  0  0
 40 49  1  1  0  0  0
 41 40  1  0  0  0  0
 41 28  1  0  0  0  0
 42 40  1  0  0  0  0
 42 44  1  0  0  0  0
 43 42  2  0  0  0  0
 46 36  1  0  0  0  0
 47 39  1  0  0  0  0
 50 41  1  0  0  0  0
M  END
$$$$
