FNP.pdb
 OpenBabel07022418583D

 50 51  0  0  1  0  0  0  0  0999 V2000
    1.2690   -1.9240    4.1890 N   0  0  0  0  0  0  0  0  0  0  0  0
    2.0010   -1.0390    3.3380 C   0  0  1  0  0  0  0  0  0  0  0  0
    3.1290   -1.8320    2.7310 C   0  0  0  0  0  0  0  0  0  0  0  0
    3.9990   -1.0830    1.8200 C   0  0  0  0  0  0  0  0  0  0  0  0
    3.7470   -1.0060    0.4780 C   0  0  0  0  0  0  0  0  0  0  0  0
    4.5850   -0.3060   -0.3540 C   0  0  0  0  0  0  0  0  0  0  0  0
    5.6890    0.3190    0.1870 C   0  0  0  0  0  0  0  0  0  0  0  0
    5.9940    0.2740    1.5440 C   0  0  0  0  0  0  0  0  0  0  0  0
    5.1140   -0.4440    2.3270 C   0  0  0  0  0  0  0  0  0  0  0  0
    1.1490   -0.4290    2.2700 C   0  0  0  0  0  0  0  0  0  0  0  0
    1.7230    0.4570    1.6030 O   0  0  0  0  0  0  0  0  0  0  0  0
    1.5610   -1.9260    5.1750 H   0  0  0  0  0  0  0  0  0  0  0  0
    0.9810   -2.8120    3.7850 H   0  0  0  0  0  0  0  0  0  0  0  0
    2.4280   -0.2220    3.9350 H   0  0  0  0  0  0  0  0  0  0  0  0
    2.6790   -2.7170    2.2060 H   0  0  0  0  0  0  0  0  0  0  0  0
    3.7160   -2.2360    3.6090 H   0  0  0  0  0  0  0  0  0  0  0  0
    2.8780   -1.4910    0.0210 H   0  0  0  0  0  0  0  0  0  0  0  0
    4.3930   -0.2370   -1.4390 H   0  0  0  0  0  0  0  0  0  0  0  0
    6.3670    0.8780   -0.4530 H   0  0  0  0  0  0  0  0  0  0  0  0
    6.8730    0.7770    1.9510 H   0  0  0  0  0  0  0  0  0  0  0  0
    5.3340   -0.4930    3.3910 H   0  0  0  0  0  0  0  0  0  0  0  0
   -0.5400    2.3840    2.1440 N   0  0  0  0  0  0  0  0  0  0  0  0
   -0.1940    2.0100    0.8160 C   0  0  0  0  0  0  0  0  0  0  0  0
    0.5010    2.8490    0.1470 O   0  0  0  0  0  0  0  0  0  0  0  0
   -0.5620    0.7660    0.1490 C   0  0  0  0  0  0  0  0  0  0  0  0
   -1.0860   -0.3030    1.0890 C   0  0  2  0  0  0  0  0  0  0  0  0
   -0.1600   -0.8080    2.0370 N   0  0  0  0  0  0  0  0  0  0  0  0
   -1.8100   -1.3430    0.3630 C   0  0  0  0  0  0  0  0  0  0  0  0
   -1.4230   -2.5630    0.4610 O   0  0  0  0  0  0  0  0  0  0  0  0
   -1.5230    2.3570    2.4990 H   0  0  0  0  0  0  0  0  0  0  0  0
    0.2240    2.6920    2.7760 H   0  0  0  0  0  0  0  0  0  0  0  0
    0.3150    0.3420   -0.4450 H   0  0  0  0  0  0  0  0  0  0  0  0
   -1.3280    0.9640   -0.6100 H   0  0  0  0  0  0  0  0  0  0  0  0
   -1.8690    0.3240    1.6820 H   0  0  0  0  0  0  0  0  0  0  0  0
   -0.4900   -1.6200    2.6990 H   0  0  0  0  0  0  0  0  0  0  0  0
   -2.9390   -1.1140   -0.4630 N   0  0  0  0  0  0  0  0  0  0  0  0
   -3.6270    0.1290   -0.7100 C   0  0  0  0  0  0  0  0  0  0  0  0
   -5.0820   -0.3420   -0.8320 C   0  0  0  0  0  0  0  0  0  0  0  0
   -4.9330   -1.5790   -1.6790 C   0  0  0  0  0  0  0  0  0  0  0  0
   -3.6050   -2.1490   -1.2480 C   0  0  1  0  0  0  0  0  0  0  0  0
   -2.8430   -2.4440   -2.4800 C   0  0  0  0  0  0  0  0  0  0  0  0
   -1.7950   -1.7990   -2.7120 O   0  0  0  0  0  0  0  0  0  0  0  0
   -3.2570   -3.4030   -3.3690 O   0  0  0  0  0  0  0  0  0  0  0  0
   -3.3880    0.5680   -1.6960 H   0  0  0  0  0  0  0  0  0  0  0  0
   -3.5350    0.8430    0.1390 H   0  0  0  0  0  0  0  0  0  0  0  0
   -5.5070   -0.6330    0.1410 H   0  0  0  0  0  0  0  0  0  0  0  0
   -5.6970    0.4370   -1.3300 H   0  0  0  0  0  0  0  0  0  0  0  0
   -4.9120   -1.2360   -2.7460 H   0  0  0  0  0  0  0  0  0  0  0  0
   -5.7650   -2.3000   -1.5210 H   0  0  0  0  0  0  0  0  0  0  0  0
   -3.7690   -3.0700   -0.6400 H   0  0  0  0  0  0  0  0  0  0  0  0
  1 12  1  0  0  0  0
  2 14  1  1  0  0  0
  2  1  1  0  0  0  0
  3  2  1  0  0  0  0
  3 16  1  0  0  0  0
  4  9  1  0  0  0  0
  4  3  1  0  0  0  0
  5  4  2  0  0  0  0
  6  7  2  0  0  0  0
  6  5  1  0  0  0  0
  7  8  1  0  0  0  0
  8 20  1  0  0  0  0
  8  9  2  0  0  0  0
  9 21  1  0  0  0  0
 10  2  1  0  0  0  0
 11 10  2  0  0  0  0
 13  1  1  0  0  0  0
 15  3  1  0  0  0  0
 17  5  1  0  0  0  0
 18  6  1  0  0  0  0
 19  7  1  0  0  0  0
 22 30  1  0  0  0  0
 22 31  1  0  0  0  0
 23 22  1  0  0  0  0
 24 23  2  0  0  0  0
 25 23  1  0  0  0  0
 25 26  1  0  0  0  0
 26 34  1  1  0  0  0
 26 27  1  0  0  0  0
 27 10  1  0  0  0  0
 27 35  1  0  0  0  0
 28 29  2  0  0  0  0
 28 26  1  0  0  0  0
 32 25  1  0  0  0  0
 33 25  1  0  0  0  0
 36 28  1  0  0  0  0
 37 36  1  0  0  0  0
 37 45  1  0  0  0  0
 38 37  1  0  0  0  0
 38 46  1  0  0  0  0
 39 49  1  0  0  0  0
 39 40  1  0  0  0  0
 39 38  1  0  0  0  0
 40 50  1  1  0  0  0
 40 36  1  0  0  0  0
 41 40  1  0  0  0  0
 42 41  1  0  0  0  0
 43 41  2  0  0  0  0
 44 37  1  0  0  0  0
 47 38  1  0  0  0  0
 48 39  1  0  0  0  0
M  END
$$$$
