FNQ.pdb
 OpenBabel07022418583D

 53 53  0  0  1  0  0  0  0  0999 V2000
    2.7860   -1.9020    1.1630 N   0  0  0  0  0  0  0  0  0  0  0  0
    1.7760   -0.9680    1.3780 C   0  0  1  0  0  0  0  0  0  0  0  0
    2.2990    0.3570    1.9540 C   0  0  0  0  0  0  0  0  0  0  0  0
    2.9550    0.0450    3.2550 C   0  0  0  0  0  0  0  0  0  0  0  0
    4.2960   -0.2760    3.3240 C   0  0  0  0  0  0  0  0  0  0  0  0
    4.8640   -0.5560    4.5420 C   0  0  0  0  0  0  0  0  0  0  0  0
    4.0670   -0.5100    5.6850 C   0  0  0  0  0  0  0  0  0  0  0  0
    2.7270   -0.1900    5.6170 C   0  0  0  0  0  0  0  0  0  0  0  0
    2.1550    0.0930    4.3820 C   0  0  0  0  0  0  0  0  0  0  0  0
    1.1660   -0.5890    0.0450 C   0  0  0  0  0  0  0  0  0  0  0  0
    1.6670   -1.1340   -0.9690 O   0  0  0  0  0  0  0  0  0  0  0  0
    3.2230   -1.9920    0.2590 H   0  0  0  0  0  0  0  0  0  0  0  0
    3.0070   -2.5840    1.8850 H   0  0  0  0  0  0  0  0  0  0  0  0
    0.9910   -1.3060    2.0910 H   0  0  0  0  0  0  0  0  0  0  0  0
    3.0750    0.7890    1.2870 H   0  0  0  0  0  0  0  0  0  0  0  0
    1.4550    1.0550    2.0940 H   0  0  0  0  0  0  0  0  0  0  0  0
    4.8880   -0.3050    2.4330 H   0  0  0  0  0  0  0  0  0  0  0  0
    5.9020   -0.8040    4.5940 H   0  0  0  0  0  0  0  0  0  0  0  0
    4.5230   -0.7310    6.6340 H   0  0  0  0  0  0  0  0  0  0  0  0
    2.1270   -0.1580    6.5010 H   0  0  0  0  0  0  0  0  0  0  0  0
    1.1030    0.3450    4.3230 H   0  0  0  0  0  0  0  0  0  0  0  0
    1.0740    2.7390   -0.3420 N   0  0  0  0  0  0  0  0  0  0  0  0
    1.3400    2.2240   -1.6250 C   0  0  0  0  0  0  0  0  0  0  0  0
    2.2780    2.7070   -2.2990 O   0  0  0  0  0  0  0  0  0  0  0  0
    0.5370    1.1210   -2.2030 C   0  0  0  0  0  0  0  0  0  0  0  0
   -0.5190    0.7400   -1.1840 C   0  0  2  0  0  0  0  0  0  0  0  0
    0.0960    0.3310    0.0330 N   0  0  0  0  0  0  0  0  0  0  0  0
   -1.4170   -0.3460   -1.6630 C   0  0  0  0  0  0  0  0  0  0  0  0
   -2.0380   -0.2380   -2.7630 O   0  0  0  0  0  0  0  0  0  0  0  0
    1.8190    2.9030    0.3910 H   0  0  0  0  0  0  0  0  0  0  0  0
    0.1030    2.9830   -0.0680 H   0  0  0  0  0  0  0  0  0  0  0  0
    1.1950    0.3080   -2.4880 H   0  0  0  0  0  0  0  0  0  0  0  0
    0.0230    1.5250   -3.1310 H   0  0  0  0  0  0  0  0  0  0  0  0
   -1.1490    1.6790   -1.0110 H   0  0  0  0  0  0  0  0  0  0  0  0
   -0.2110    0.6910    0.9840 H   0  0  0  0  0  0  0  0  0  0  0  0
   -5.9390   -1.0140    0.5540 N   0  0  0  0  0  0  0  0  0  0  0  0
   -5.2320   -1.9190   -0.2770 C   0  0  0  0  0  0  0  0  0  0  0  0
   -5.1700   -3.1270    0.0130 O   0  0  0  0  0  0  0  0  0  0  0  0
   -4.5530   -1.4290   -1.5180 C   0  0  0  0  0  0  0  0  0  0  0  0
   -3.5840   -2.3830   -2.1010 C   0  0  0  0  0  0  0  0  0  0  0  0
   -2.4140   -2.6420   -1.1750 C   0  0  2  0  0  0  0  0  0  0  0  0
   -1.5900   -1.5170   -0.8900 N   0  0  0  0  0  0  0  0  0  0  0  0
   -1.7130   -3.9000   -1.4550 C   0  0  0  0  0  0  0  0  0  0  0  0
   -0.4350   -3.9300   -1.4350 O   0  0  0  0  0  0  0  0  0  0  0  0
   -2.3390   -5.0890   -1.7490 O   0  0  0  0  0  0  0  0  0  0  0  0
   -6.8670   -1.2400    0.9770 H   0  0  0  0  0  0  0  0  0  0  0  0
   -5.5330   -0.0780    0.7650 H   0  0  0  0  0  0  0  0  0  0  0  0
   -4.1180   -0.4430   -1.2900 H   0  0  0  0  0  0  0  0  0  0  0  0
   -5.4010   -1.2020   -2.2310 H   0  0  0  0  0  0  0  0  0  0  0  0
   -4.1030   -3.3910   -2.1730 H   0  0  0  0  0  0  0  0  0  0  0  0
   -3.3120   -2.1390   -3.1260 H   0  0  0  0  0  0  0  0  0  0  0  0
   -2.9800   -2.8150   -0.1750 H   0  0  0  0  0  0  0  0  0  0  0  0
   -1.0370   -1.5640    0.0250 H   0  0  0  0  0  0  0  0  0  0  0  0
  1  2  1  0  0  0  0
  1 13  1  0  0  0  0
  2  3  1  0  0  0  0
  2 14  1  1  0  0  0
  3 16  1  0  0  0  0
  3  4  1  0  0  0  0
  4  5  2  0  0  0  0
  4  9  1  0  0  0  0
  5  6  1  0  0  0  0
  6 18  1  0  0  0  0
  6  7  2  0  0  0  0
  7 19  1  0  0  0  0
  8  7  1  0  0  0  0
  8 20  1  0  0  0  0
  9  8  2  0  0  0  0
 10  2  1  0  0  0  0
 11 10  2  0  0  0  0
 12  1  1  0  0  0  0
 15  3  1  0  0  0  0
 17  5  1  0  0  0  0
 21  9  1  0  0  0  0
 22 31  1  0  0  0  0
 22 30  1  0  0  0  0
 23 22  1  0  0  0  0
 24 23  2  0  0  0  0
 25 23  1  0  0  0  0
 25 26  1  0  0  0  0
 26 34  1  1  0  0  0
 26 27  1  0  0  0  0
 27 10  1  0  0  0  0
 27 35  1  0  0  0  0
 28 26  1  0  0  0  0
 28 42  1  0  0  0  0
 29 28  2  0  0  0  0
 32 25  1  0  0  0  0
 33 25  1  0  0  0  0
 36 47  1  0  0  0  0
 36 46  1  0  0  0  0
 37 38  2  0  0  0  0
 37 36  1  0  0  0  0
 39 48  1  0  0  0  0
 39 37  1  0  0  0  0
 40 39  1  0  0  0  0
 40 41  1  0  0  0  0
 41 42  1  0  0  0  0
 41 52  1  1  0  0  0
 42 53  1  0  0  0  0
 43 44  1  0  0  0  0
 43 41  1  0  0  0  0
 45 43  2  0  0  0  0
 49 39  1  0  0  0  0
 50 40  1  0  0  0  0
 51 40  1  0  0  0  0
M  END
$$$$
