FNS.pdb
 OpenBabel07022418583D

 47 47  0  0  1  0  0  0  0  0999 V2000
    2.3830   -3.1000   -0.9340 N   0  0  0  0  0  0  0  0  0  0  0  0
    2.7430   -2.1310    0.0930 C   0  0  1  0  0  0  0  0  0  0  0  0
    3.8790   -1.2990   -0.5210 C   0  0  0  0  0  0  0  0  0  0  0  0
    4.3630   -0.2530    0.4040 C   0  0  0  0  0  0  0  0  0  0  0  0
    3.8330    1.0430    0.4170 C   0  0  0  0  0  0  0  0  0  0  0  0
    4.2950    1.9980    1.2880 C   0  0  0  0  0  0  0  0  0  0  0  0
    5.2980    1.7150    2.1820 C   0  0  0  0  0  0  0  0  0  0  0  0
    5.8280    0.4300    2.1730 C   0  0  0  0  0  0  0  0  0  0  0  0
    5.3800   -0.5380    1.3100 C   0  0  0  0  0  0  0  0  0  0  0  0
    1.5880   -1.2890    0.4640 C   0  0  0  0  0  0  0  0  0  0  0  0
    1.7180   -0.4600    1.3780 O   0  0  0  0  0  0  0  0  0  0  0  0
    2.0350   -2.5650   -1.7620 H   0  0  0  0  0  0  0  0  0  0  0  0
    1.6630   -3.7220   -0.5280 H   0  0  0  0  0  0  0  0  0  0  0  0
    3.1810   -2.6370    0.9670 H   0  0  0  0  0  0  0  0  0  0  0  0
    4.6900   -1.9740   -0.7950 H   0  0  0  0  0  0  0  0  0  0  0  0
    3.3980   -0.8080   -1.4140 H   0  0  0  0  0  0  0  0  0  0  0  0
    3.0470    1.2310   -0.3030 H   0  0  0  0  0  0  0  0  0  0  0  0
    3.8810    2.9890    1.2920 H   0  0  0  0  0  0  0  0  0  0  0  0
    5.7050    2.4220    2.8940 H   0  0  0  0  0  0  0  0  0  0  0  0
    6.6290    0.1970    2.8840 H   0  0  0  0  0  0  0  0  0  0  0  0
    5.7980   -1.5470    1.3010 H   0  0  0  0  0  0  0  0  0  0  0  0
   -1.7480    2.7050    0.1530 N   0  0  0  0  0  0  0  0  0  0  0  0
   -2.0060    1.5290   -0.5770 C   0  0  0  0  0  0  0  0  0  0  0  0
   -3.1560    1.3260   -1.0320 O   0  0  0  0  0  0  0  0  0  0  0  0
   -0.9570    0.5360   -0.8170 C   0  0  0  0  0  0  0  0  0  0  0  0
   -0.7750   -0.4880    0.2740 C   0  0  2  0  0  0  0  0  0  0  0  0
    0.3220   -1.3730   -0.1710 N   0  0  0  0  0  0  0  0  0  0  0  0
   -1.9220   -1.3340    0.5540 C   0  0  0  0  0  0  0  0  0  0  0  0
   -1.8590   -2.5850    0.2860 O   0  0  0  0  0  0  0  0  0  0  0  0
   -0.7570    3.0310    0.2270 H   0  0  0  0  0  0  0  0  0  0  0  0
   -2.5450    3.2130    0.5960 H   0  0  0  0  0  0  0  0  0  0  0  0
    0.0060    1.0850   -0.9050 H   0  0  0  0  0  0  0  0  0  0  0  0
   -1.1540    0.0750   -1.8060 H   0  0  0  0  0  0  0  0  0  0  0  0
   -0.4080    0.0810    1.1610 H   0  0  0  0  0  0  0  0  0  0  0  0
    0.1680   -2.0440   -0.9330 H   0  0  0  0  0  0  0  0  0  0  0  0
   -4.8730   -0.9320    3.4900 O   0  0  0  0  0  0  0  0  0  0  0  0
   -4.5440   -2.0930    2.8130 C   0  0  0  0  0  0  0  0  0  0  0  0
   -4.2500   -1.8460    1.3560 C   0  0  2  0  0  0  0  0  0  0  0  0
   -3.1670   -0.9480    1.1140 N   0  0  0  0  0  0  0  0  0  0  0  0
   -5.4690   -1.3720    0.7140 C   0  0  0  0  0  0  0  0  0  0  0  0
   -5.5330   -0.2950    0.0460 O   0  0  0  0  0  0  0  0  0  0  0  0
   -6.6400   -2.1150    0.8210 O   0  0  0  0  0  0  0  0  0  0  0  0
   -5.2750   -1.1160    4.3550 H   0  0  0  0  0  0  0  0  0  0  0  0
   -3.8040   -2.7330    3.3240 H   0  0  0  0  0  0  0  0  0  0  0  0
   -5.4960   -2.7090    2.8060 H   0  0  0  0  0  0  0  0  0  0  0  0
   -3.9520   -2.8400    0.9410 H   0  0  0  0  0  0  0  0  0  0  0  0
   -3.2810    0.0490    1.3640 H   0  0  0  0  0  0  0  0  0  0  0  0
  1 13  1  0  0  0  0
  1  2  1  0  0  0  0
  2 10  1  0  0  0  0
  2 14  1  1  0  0  0
  3  2  1  0  0  0  0
  3  4  1  0  0  0  0
  4  5  2  0  0  0  0
  4  9  1  0  0  0  0
  5  6  1  0  0  0  0
  6 18  1  0  0  0  0
  6  7  2  0  0  0  0
  7 19  1  0  0  0  0
  8  7  1  0  0  0  0
  8 20  1  0  0  0  0
  9  8  2  0  0  0  0
 10 11  2  0  0  0  0
 12  1  1  0  0  0  0
 15  3  1  0  0  0  0
 16  3  1  0  0  0  0
 17  5  1  0  0  0  0
 21  9  1  0  0  0  0
 22 30  1  0  0  0  0
 22 31  1  0  0  0  0
 23 22  1  0  0  0  0
 24 23  2  0  0  0  0
 25 23  1  0  0  0  0
 25 26  1  0  0  0  0
 26 28  1  0  0  0  0
 26 34  1  1  0  0  0
 27 26  1  0  0  0  0
 27 10  1  0  0  0  0
 28 39  1  0  0  0  0
 29 28  2  0  0  0  0
 32 25  1  0  0  0  0
 33 25  1  0  0  0  0
 35 27  1  0  0  0  0
 36 43  1  0  0  0  0
 37 44  1  0  0  0  0
 37 36  1  0  0  0  0
 38 46  1  6  0  0  0
 38 37  1  0  0  0  0
 39 38  1  0  0  0  0
 39 47  1  0  0  0  0
 40 42  1  0  0  0  0
 40 38  1  0  0  0  0
 41 40  2  0  0  0  0
 45 37  1  0  0  0  0
M  END
$$$$
