FNV.pdb
 OpenBabel07022418583D

 52 52  0  0  1  0  0  0  0  0999 V2000
    1.6980   -3.6490    2.5400 N   0  0  0  0  0  0  0  0  0  0  0  0
    2.0670   -2.2480    2.7510 C   0  0  1  0  0  0  0  0  0  0  0  0
    3.5820   -2.1960    2.5250 C   0  0  0  0  0  0  0  0  0  0  0  0
    4.1270   -0.8280    2.7000 C   0  0  0  0  0  0  0  0  0  0  0  0
    4.1930   -0.0040    1.5970 C   0  0  0  0  0  0  0  0  0  0  0  0
    4.6910    1.2570    1.7200 C   0  0  0  0  0  0  0  0  0  0  0  0
    5.1380    1.7220    2.9560 C   0  0  0  0  0  0  0  0  0  0  0  0
    5.0820    0.9110    4.0810 C   0  0  0  0  0  0  0  0  0  0  0  0
    4.5710   -0.3580    3.9150 C   0  0  0  0  0  0  0  0  0  0  0  0
    1.3440   -1.4010    1.7980 C   0  0  0  0  0  0  0  0  0  0  0  0
    1.3810   -0.1440    1.8010 O   0  0  0  0  0  0  0  0  0  0  0  0
    2.2540   -4.3030    3.1030 H   0  0  0  0  0  0  0  0  0  0  0  0
    0.6660   -3.7630    2.6420 H   0  0  0  0  0  0  0  0  0  0  0  0
    1.8500   -2.0220    3.8050 H   0  0  0  0  0  0  0  0  0  0  0  0
    3.7690   -2.5240    1.4690 H   0  0  0  0  0  0  0  0  0  0  0  0
    4.0620   -2.8920    3.2270 H   0  0  0  0  0  0  0  0  0  0  0  0
    3.8470   -0.3560    0.6080 H   0  0  0  0  0  0  0  0  0  0  0  0
    4.7330    1.9020    0.8330 H   0  0  0  0  0  0  0  0  0  0  0  0
    5.5360    2.7220    3.0440 H   0  0  0  0  0  0  0  0  0  0  0  0
    5.4340    1.2700    5.0570 H   0  0  0  0  0  0  0  0  0  0  0  0
    4.5310   -0.9950    4.8110 H   0  0  0  0  0  0  0  0  0  0  0  0
    2.0690    0.6170   -1.9120 N   0  0  0  0  0  0  0  0  0  0  0  0
    1.7010   -0.7560   -1.6780 C   0  0  0  0  0  0  0  0  0  0  0  0
    2.6550   -1.5670   -1.5460 O   0  0  0  0  0  0  0  0  0  0  0  0
    0.2960   -1.1930   -1.5970 C   0  0  0  0  0  0  0  0  0  0  0  0
   -0.2020   -1.1290   -0.1850 C   0  0  2  0  0  0  0  0  0  0  0  0
    0.5070   -1.9340    0.7470 N   0  0  0  0  0  0  0  0  0  0  0  0
   -1.6410   -1.3700   -0.0580 C   0  0  0  0  0  0  0  0  0  0  0  0
   -2.0620   -2.2190    0.7750 O   0  0  0  0  0  0  0  0  0  0  0  0
    2.1650    1.0250   -2.8620 H   0  0  0  0  0  0  0  0  0  0  0  0
    2.2340    1.1860   -1.0300 H   0  0  0  0  0  0  0  0  0  0  0  0
   -0.3000   -0.4070   -2.1550 H   0  0  0  0  0  0  0  0  0  0  0  0
    0.0870   -2.1330   -2.1160 H   0  0  0  0  0  0  0  0  0  0  0  0
   -0.0250   -0.0520    0.1190 H   0  0  0  0  0  0  0  0  0  0  0  0
    0.4270   -2.9670    0.6770 H   0  0  0  0  0  0  0  0  0  0  0  0
   -6.2090   -0.0750    0.1360 C   0  0  0  0  0  0  0  0  0  0  0  0
   -4.7190    0.2060   -0.0680 C   0  0  0  0  0  0  0  0  0  0  0  0
   -4.4940    1.4670   -0.8270 C   0  0  0  0  0  0  0  0  0  0  0  0
   -4.0490   -1.0090   -0.6310 C   0  0  2  0  0  0  0  0  0  0  0  0
   -2.6410   -0.7120   -0.8130 N   0  0  0  0  0  0  0  0  0  0  0  0
   -4.6620   -1.5500   -1.8510 C   0  0  0  0  0  0  0  0  0  0  0  0
   -4.0570   -1.7250   -2.9340 O   0  0  0  0  0  0  0  0  0  0  0  0
   -6.0050   -1.9020   -1.8300 O   0  0  0  0  0  0  0  0  0  0  0  0
   -6.5560    0.6720    0.8980 H   0  0  0  0  0  0  0  0  0  0  0  0
   -6.7250    0.0830   -0.8370 H   0  0  0  0  0  0  0  0  0  0  0  0
   -6.2770   -1.1190    0.5060 H   0  0  0  0  0  0  0  0  0  0  0  0
   -4.3250    0.3380    0.9830 H   0  0  0  0  0  0  0  0  0  0  0  0
   -3.9810    1.2540   -1.7790 H   0  0  0  0  0  0  0  0  0  0  0  0
   -5.4180    2.0700   -0.9330 H   0  0  0  0  0  0  0  0  0  0  0  0
   -3.7800    2.1100   -0.2470 H   0  0  0  0  0  0  0  0  0  0  0  0
   -4.1650   -1.8130    0.1580 H   0  0  0  0  0  0  0  0  0  0  0  0
   -2.3730   -0.0100   -1.4990 H   0  0  0  0  0  0  0  0  0  0  0  0
  1 13  1  0  0  0  0
  1  2  1  0  0  0  0
  1 12  1  0  0  0  0
  2 14  1  1  0  0  0
  3  4  1  0  0  0  0
  3  2  1  0  0  0  0
  3 16  1  0  0  0  0
  4  9  1  0  0  0  0
  5  6  1  0  0  0  0
  5  4  2  0  0  0  0
  6  7  2  0  0  0  0
  7 19  1  0  0  0  0
  7  8  1  0  0  0  0
  8 20  1  0  0  0  0
  9  8  2  0  0  0  0
  9 21  1  0  0  0  0
 10 11  2  0  0  0  0
 10  2  1  0  0  0  0
 15  3  1  0  0  0  0
 17  5  1  0  0  0  0
 18  6  1  0  0  0  0
 22 23  1  0  0  0  0
 22 31  1  0  0  0  0
 23 25  1  0  0  0  0
 23 24  2  0  0  0  0
 25 26  1  0  0  0  0
 26 28  1  0  0  0  0
 26 34  1  1  0  0  0
 26 27  1  0  0  0  0
 27 10  1  0  0  0  0
 28 29  2  0  0  0  0
 30 22  1  0  0  0  0
 32 25  1  0  0  0  0
 33 25  1  0  0  0  0
 35 27  1  0  0  0  0
 36 46  1  0  0  0  0
 36 44  1  0  0  0  0
 37 36  1  0  0  0  0
 37 47  1  0  0  0  0
 38 50  1  0  0  0  0
 38 37  1  0  0  0  0
 39 37  1  0  0  0  0
 39 51  1  1  0  0  0
 40 39  1  0  0  0  0
 40 28  1  0  0  0  0
 41 43  1  0  0  0  0
 41 39  1  0  0  0  0
 42 41  2  0  0  0  0
 45 36  1  0  0  0  0
 48 38  1  0  0  0  0
 49 38  1  0  0  0  0
 52 40  1  0  0  0  0
M  END
$$$$
