FNY.pdb
 OpenBabel07022418583D

 57 58  0  0  1  0  0  0  0  0999 V2000
    2.0850   -0.2040    2.5270 N   0  0  0  0  0  0  0  0  0  0  0  0
    2.2500    0.6120    1.3570 C   0  0  1  0  0  0  0  0  0  0  0  0
    3.0070   -0.1800    0.3120 C   0  0  0  0  0  0  0  0  0  0  0  0
    4.3230   -0.5210    0.9250 C   0  0  0  0  0  0  0  0  0  0  0  0
    4.5200   -1.6770    1.6440 C   0  0  0  0  0  0  0  0  0  0  0  0
    5.7310   -1.9990    2.2140 C   0  0  0  0  0  0  0  0  0  0  0  0
    6.8080   -1.1620    2.0820 C   0  0  0  0  0  0  0  0  0  0  0  0
    6.6080    0.0130    1.3510 C   0  0  0  0  0  0  0  0  0  0  0  0
    5.4000    0.3410    0.7790 C   0  0  0  0  0  0  0  0  0  0  0  0
    0.8980    1.0390    0.8660 C   0  0  0  0  0  0  0  0  0  0  0  0
    0.9290    1.8050   -0.1280 O   0  0  0  0  0  0  0  0  0  0  0  0
    1.6700   -1.1270    2.3530 H   0  0  0  0  0  0  0  0  0  0  0  0
    1.6670    0.3240    3.3290 H   0  0  0  0  0  0  0  0  0  0  0  0
    2.8760    1.4940    1.6310 H   0  0  0  0  0  0  0  0  0  0  0  0
    3.1480    0.3480   -0.6280 H   0  0  0  0  0  0  0  0  0  0  0  0
    2.5070   -1.1520    0.1020 H   0  0  0  0  0  0  0  0  0  0  0  0
    3.6540   -2.3430    1.7450 H   0  0  0  0  0  0  0  0  0  0  0  0
    5.8140   -2.9180    2.7610 H   0  0  0  0  0  0  0  0  0  0  0  0
    7.7790   -1.3560    2.5030 H   0  0  0  0  0  0  0  0  0  0  0  0
    7.4690    0.6920    1.2410 H   0  0  0  0  0  0  0  0  0  0  0  0
    5.2570    1.2640    0.2090 H   0  0  0  0  0  0  0  0  0  0  0  0
   -1.0550    4.2560   -0.6120 N   0  0  0  0  0  0  0  0  0  0  0  0
   -1.2220    3.2170    0.3370 C   0  0  0  0  0  0  0  0  0  0  0  0
   -0.8530    3.4640    1.5170 O   0  0  0  0  0  0  0  0  0  0  0  0
   -1.7920    1.9000    0.0130 C   0  0  0  0  0  0  0  0  0  0  0  0
   -1.6160    0.9180    1.1920 C   0  0  2  0  0  0  0  0  0  0  0  0
   -0.2700    0.5970    1.4970 N   0  0  0  0  0  0  0  0  0  0  0  0
   -2.5780   -0.1640    1.1560 C   0  0  0  0  0  0  0  0  0  0  0  0
   -3.7860    0.1390    0.9040 O   0  0  0  0  0  0  0  0  0  0  0  0
   -1.6100    5.1310   -0.5380 H   0  0  0  0  0  0  0  0  0  0  0  0
   -0.3620    4.1050   -1.3730 H   0  0  0  0  0  0  0  0  0  0  0  0
   -1.3150    1.4890   -0.8940 H   0  0  0  0  0  0  0  0  0  0  0  0
   -2.8730    1.9840   -0.1680 H   0  0  0  0  0  0  0  0  0  0  0  0
   -1.9440    1.6520    2.0450 H   0  0  0  0  0  0  0  0  0  0  0  0
   -0.1020   -0.0750    2.3200 H   0  0  0  0  0  0  0  0  0  0  0  0
   -2.4130   -1.3420   -4.8200 O   0  0  0  0  0  0  0  0  0  0  0  0
   -2.5680   -1.9050   -3.5640 C   0  0  0  0  0  0  0  0  0  0  0  0
   -3.8070   -2.3560   -3.1660 C   0  0  0  0  0  0  0  0  0  0  0  0
   -3.9810   -2.9180   -1.9230 C   0  0  0  0  0  0  0  0  0  0  0  0
   -2.8950   -3.0210   -1.0850 C   0  0  0  0  0  0  0  0  0  0  0  0
   -2.9840   -3.6020    0.2630 C   0  0  0  0  0  0  0  0  0  0  0  0
   -3.3040   -2.5770    1.3250 C   0  0  2  0  0  0  0  0  0  0  0  0
   -2.2810   -1.5360    1.3780 N   0  0  0  0  0  0  0  0  0  0  0  0
   -3.3780   -3.2990    2.6190 C   0  0  0  0  0  0  0  0  0  0  0  0
   -4.2350   -4.2260    2.6980 O   0  0  0  0  0  0  0  0  0  0  0  0
   -1.6610   -2.5650   -1.5000 C   0  0  0  0  0  0  0  0  0  0  0  0
   -1.4410   -1.9940   -2.7390 C   0  0  0  0  0  0  0  0  0  0  0  0
   -2.5690   -2.9990    3.6970 O   0  0  0  0  0  0  0  0  0  0  0  0
   -2.9430   -1.7360   -5.5910 H   0  0  0  0  0  0  0  0  0  0  0  0
   -4.6810   -2.2840   -3.8140 H   0  0  0  0  0  0  0  0  0  0  0  0
   -4.9590   -3.2710   -1.6160 H   0  0  0  0  0  0  0  0  0  0  0  0
   -2.0030   -4.0510    0.5150 H   0  0  0  0  0  0  0  0  0  0  0  0
   -3.7410   -4.4040    0.3360 H   0  0  0  0  0  0  0  0  0  0  0  0
   -4.2750   -2.0880    1.1620 H   0  0  0  0  0  0  0  0  0  0  0  0
   -1.3050   -1.8300    1.5890 H   0  0  0  0  0  0  0  0  0  0  0  0
   -0.7760   -2.6300   -0.8620 H   0  0  0  0  0  0  0  0  0  0  0  0
   -0.4690   -1.6370   -3.0600 H   0  0  0  0  0  0  0  0  0  0  0  0
  1 13  1  0  0  0  0
  2 14  1  1  0  0  0
  2  1  1  0  0  0  0
  3  4  1  0  0  0  0
  3  2  1  0  0  0  0
  4  5  1  0  0  0  0
  5 17  1  0  0  0  0
  5  6  2  0  0  0  0
  6 18  1  0  0  0  0
  7  6  1  0  0  0  0
  7 19  1  0  0  0  0
  8  7  2  0  0  0  0
  9  4  2  0  0  0  0
  9  8  1  0  0  0  0
 10  2  1  0  0  0  0
 10 27  1  0  0  0  0
 11 10  2  0  0  0  0
 12  1  1  0  0  0  0
 15  3  1  0  0  0  0
 16  3  1  0  0  0  0
 20  8  1  0  0  0  0
 21  9  1  0  0  0  0
 22 30  1  0  0  0  0
 22 23  1  0  0  0  0
 23 24  2  0  0  0  0
 25 23  1  0  0  0  0
 25 26  1  0  0  0  0
 26 27  1  0  0  0  0
 26 34  1  1  0  0  0
 27 35  1  0  0  0  0
 28 26  1  0  0  0  0
 28 43  1  0  0  0  0
 29 28  2  0  0  0  0
 31 22  1  0  0  0  0
 32 25  1  0  0  0  0
 33 25  1  0  0  0  0
 36 37  1  0  0  0  0
 37 38  2  0  0  0  0
 37 47  1  0  0  0  0
 38 39  1  0  0  0  0
 39 51  1  0  0  0  0
 39 40  2  0  0  0  0
 40 41  1  0  0  0  0
 41 53  1  0  0  0  0
 41 52  1  0  0  0  0
 41 42  1  0  0  0  0
 42 54  1  6  0  0  0
 42 43  1  0  0  0  0
 42 44  1  0  0  0  0
 43 55  1  0  0  0  0
 44 45  2  0  0  0  0
 44 48  1  0  0  0  0
 46 40  1  0  0  0  0
 46 56  1  0  0  0  0
 47 46  2  0  0  0  0
 49 36  1  0  0  0  0
 50 38  1  0  0  0  0
 57 47  1  0  0  0  0
M  END
$$$$
