FPC.pdb
 OpenBabel07022419013D

 47 48  0  0  1  0  0  0  0  0999 V2000
    1.2100   -4.2810    1.4500 N   0  0  0  0  0  0  0  0  0  0  0  0
    1.9310   -3.0520    1.0830 C   0  0  1  0  0  0  0  0  0  0  0  0
    2.0640   -3.1220   -0.4150 C   0  0  0  0  0  0  0  0  0  0  0  0
    0.7630   -3.1830   -1.1310 C   0  0  0  0  0  0  0  0  0  0  0  0
    0.1270   -4.3840   -1.3680 C   0  0  0  0  0  0  0  0  0  0  0  0
   -1.0670   -4.4720   -2.0370 C   0  0  0  0  0  0  0  0  0  0  0  0
   -1.6720   -3.3280   -2.5000 C   0  0  0  0  0  0  0  0  0  0  0  0
   -1.0310   -2.1240   -2.2600 C   0  0  0  0  0  0  0  0  0  0  0  0
    0.1610   -2.0340   -1.5920 C   0  0  0  0  0  0  0  0  0  0  0  0
    1.1800   -1.9050    1.5780 C   0  0  0  0  0  0  0  0  0  0  0  0
   -0.0110   -2.1110    1.9620 O   0  0  0  0  0  0  0  0  0  0  0  0
    0.6920   -4.1880    2.3270 H   0  0  0  0  0  0  0  0  0  0  0  0
    1.8020   -5.1150    1.3470 H   0  0  0  0  0  0  0  0  0  0  0  0
    2.9700   -3.0880    1.4860 H   0  0  0  0  0  0  0  0  0  0  0  0
    2.6840   -2.3540   -0.8630 H   0  0  0  0  0  0  0  0  0  0  0  0
    2.5930   -4.0980   -0.6550 H   0  0  0  0  0  0  0  0  0  0  0  0
    0.6010   -5.3030   -1.0030 H   0  0  0  0  0  0  0  0  0  0  0  0
   -1.5460   -5.4150   -2.2120 H   0  0  0  0  0  0  0  0  0  0  0  0
   -2.6270   -3.3490   -3.0390 H   0  0  0  0  0  0  0  0  0  0  0  0
   -1.4880   -1.2090   -2.6140 H   0  0  0  0  0  0  0  0  0  0  0  0
    0.6370   -1.0490   -1.4250 H   0  0  0  0  0  0  0  0  0  0  0  0
    1.6340   -0.5730    1.6850 N   0  0  0  0  0  0  0  0  0  0  0  0
    2.9400   -0.1000    1.2860 C   0  0  0  0  0  0  0  0  0  0  0  0
    2.7430    1.4110    1.0930 C   0  0  0  0  0  0  0  0  0  0  0  0
    1.7910    1.7290    2.2220 C   0  0  0  0  0  0  0  0  0  0  0  0
    0.8830    0.5260    2.2430 C   0  0  1  0  0  0  0  0  0  0  0  0
   -0.4040    0.7880    1.5510 C   0  0  0  0  0  0  0  0  0  0  0  0
   -0.8210    0.1010    0.5900 O   0  0  0  0  0  0  0  0  0  0  0  0
    3.3180   -0.4670    0.3420 H   0  0  0  0  0  0  0  0  0  0  0  0
    3.6850   -0.1860    2.1060 H   0  0  0  0  0  0  0  0  0  0  0  0
    2.3400    1.6430    0.0970 H   0  0  0  0  0  0  0  0  0  0  0  0
    3.7080    1.9460    1.2110 H   0  0  0  0  0  0  0  0  0  0  0  0
    2.3620    1.7490    3.1700 H   0  0  0  0  0  0  0  0  0  0  0  0
    1.2230    2.6630    2.0430 H   0  0  0  0  0  0  0  0  0  0  0  0
    0.6240    0.3160    3.3180 H   0  0  0  0  0  0  0  0  0  0  0  0
   -1.2480    1.8810    1.9770 N   0  0  0  0  0  0  0  0  0  0  0  0
   -2.4920    2.1700    1.3420 C   0  0  1  0  0  0  0  0  0  0  0  0
   -3.6750    2.0500    2.2790 C   0  0  0  0  0  0  0  0  0  0  0  0
   -3.7320    0.3640    2.8980 S   0  0  0  0  0  0  0  0  0  0  0  0
   -2.5370    3.4940    0.7020 C   0  0  0  0  0  0  0  0  0  0  0  0
   -3.5630    3.8960    0.1010 O   0  0  0  0  0  0  0  0  0  0  0  0
   -1.4410    4.3500    0.7380 O   0  0  0  0  0  0  0  0  0  0  0  0
   -0.8720    2.4370    2.7820 H   0  0  0  0  0  0  0  0  0  0  0  0
   -2.6500    1.4140    0.5250 H   0  0  0  0  0  0  0  0  0  0  0  0
   -4.6040    2.2870    1.7070 H   0  0  0  0  0  0  0  0  0  0  0  0
   -3.6350    2.7510    3.1140 H   0  0  0  0  0  0  0  0  0  0  0  0
   -3.5840    0.3580    4.2780 H   0  0  0  0  0  0  0  0  0  0  0  0
  1 12  1  0  0  0  0
  2  1  1  0  0  0  0
  2 14  1  1  0  0  0
  2 10  1  0  0  0  0
  3  2  1  0  0  0  0
  4  3  1  0  0  0  0
  5  4  1  0  0  0  0
  5 17  1  0  0  0  0
  6  5  2  0  0  0  0
  7  8  2  0  0  0  0
  7  6  1  0  0  0  0
  8  9  1  0  0  0  0
  9 21  1  0  0  0  0
  9  4  2  0  0  0  0
 10 22  1  0  0  0  0
 10 11  2  0  0  0  0
 13  1  1  0  0  0  0
 15  3  1  0  0  0  0
 16  3  1  0  0  0  0
 18  6  1  0  0  0  0
 19  7  1  0  0  0  0
 20  8  1  0  0  0  0
 22 26  1  0  0  0  0
 23 22  1  0  0  0  0
 23 30  1  0  0  0  0
 24 32  1  0  0  0  0
 24 23  1  0  0  0  0
 24 25  1  0  0  0  0
 25 26  1  0  0  0  0
 25 33  1  0  0  0  0
 26 35  1  1  0  0  0
 27 36  1  0  0  0  0
 27 26  1  0  0  0  0
 28 27  2  0  0  0  0
 29 23  1  0  0  0  0
 31 24  1  0  0  0  0
 34 25  1  0  0  0  0
 36 43  1  0  0  0  0
 37 44  1  6  0  0  0
 37 36  1  0  0  0  0
 37 38  1  0  0  0  0
 38 39  1  0  0  0  0
 38 46  1  0  0  0  0
 39 47  1  0  0  0  0
 40 42  1  0  0  0  0
 40 37  1  0  0  0  0
 41 40  2  0  0  0  0
 45 38  1  0  0  0  0
M  END
$$$$
