FPE.pdb
 OpenBabel07022419013D

 52 53  0  0  1  0  0  0  0  0999 V2000
    1.3030   -0.3870    0.8670 N   0  0  0  0  0  0  0  0  0  0  0  0
    2.1560    0.6810    0.5230 C   0  0  1  0  0  0  0  0  0  0  0  0
    2.6800    0.5150   -0.8810 C   0  0  0  0  0  0  0  0  0  0  0  0
    3.4540   -0.6790   -1.1410 C   0  0  0  0  0  0  0  0  0  0  0  0
    4.8260   -0.6260   -0.8690 C   0  0  0  0  0  0  0  0  0  0  0  0
    5.6430   -1.7130   -1.0980 C   0  0  0  0  0  0  0  0  0  0  0  0
    5.1410   -2.8930   -1.6040 C   0  0  0  0  0  0  0  0  0  0  0  0
    3.7800   -2.9580   -1.8790 C   0  0  0  0  0  0  0  0  0  0  0  0
    2.9760   -1.8570   -1.6430 C   0  0  0  0  0  0  0  0  0  0  0  0
    1.4770    1.9900    0.6520 C   0  0  0  0  0  0  0  0  0  0  0  0
    2.0880    3.0470    0.2310 O   0  0  0  0  0  0  0  0  0  0  0  0
    1.6430   -0.9820    1.6630 H   0  0  0  0  0  0  0  0  0  0  0  0
    1.0320   -0.9640    0.0440 H   0  0  0  0  0  0  0  0  0  0  0  0
    3.0770    0.7280    1.1710 H   0  0  0  0  0  0  0  0  0  0  0  0
    1.7950    0.5150   -1.5810 H   0  0  0  0  0  0  0  0  0  0  0  0
    3.2660    1.4250   -1.1580 H   0  0  0  0  0  0  0  0  0  0  0  0
    5.2850    0.2650   -0.4720 H   0  0  0  0  0  0  0  0  0  0  0  0
    6.7040   -1.6940   -0.8950 H   0  0  0  0  0  0  0  0  0  0  0  0
    5.7710   -3.7620   -1.7920 H   0  0  0  0  0  0  0  0  0  0  0  0
    3.3390   -3.8480   -2.2720 H   0  0  0  0  0  0  0  0  0  0  0  0
    1.9440   -1.9460   -1.8740 H   0  0  0  0  0  0  0  0  0  0  0  0
    0.2070    2.1150    1.2120 N   0  0  0  0  0  0  0  0  0  0  0  0
   -0.5010    3.4030    1.3390 C   0  0  0  0  0  0  0  0  0  0  0  0
   -1.8950    3.0610    1.8150 C   0  0  0  0  0  0  0  0  0  0  0  0
   -1.6090    1.8610    2.6940 C   0  0  0  0  0  0  0  0  0  0  0  0
   -0.6380    1.1120    1.7640 C   0  0  1  0  0  0  0  0  0  0  0  0
   -1.4060    0.3420    0.7540 C   0  0  0  0  0  0  0  0  0  0  0  0
   -1.3630    0.5460   -0.4820 O   0  0  0  0  0  0  0  0  0  0  0  0
   -0.5470    3.9190    0.3570 H   0  0  0  0  0  0  0  0  0  0  0  0
   -0.0420    4.0560    2.0800 H   0  0  0  0  0  0  0  0  0  0  0  0
   -2.2880    3.8960    2.4550 H   0  0  0  0  0  0  0  0  0  0  0  0
   -2.5750    2.8140    0.9800 H   0  0  0  0  0  0  0  0  0  0  0  0
   -1.0600    2.2260    3.5740 H   0  0  0  0  0  0  0  0  0  0  0  0
   -2.5090    1.2830    2.9010 H   0  0  0  0  0  0  0  0  0  0  0  0
   -0.1430    0.3930    2.4440 H   0  0  0  0  0  0  0  0  0  0  0  0
   -2.2550   -0.7040    1.2110 N   0  0  0  0  0  0  0  0  0  0  0  0
   -3.0420   -1.5050    0.2830 C   0  0  1  0  0  0  0  0  0  0  0  0
   -2.7050   -2.9630    0.3580 C   0  0  0  0  0  0  0  0  0  0  0  0
   -2.9690   -3.4880    1.7520 C   0  0  0  0  0  0  0  0  0  0  0  0
   -2.6460   -4.9290    1.8570 C   0  0  0  0  0  0  0  0  0  0  0  0
   -2.7930   -5.5550    2.9280 O   0  0  0  0  0  0  0  0  0  0  0  0
   -4.4720   -1.3380    0.6470 C   0  0  0  0  0  0  0  0  0  0  0  0
   -5.3690   -1.9440   -0.0250 O   0  0  0  0  0  0  0  0  0  0  0  0
   -2.1710   -5.5830    0.7370 O   0  0  0  0  0  0  0  0  0  0  0  0
   -4.9050   -0.5430    1.6990 O   0  0  0  0  0  0  0  0  0  0  0  0
   -2.3250   -0.9120    2.2410 H   0  0  0  0  0  0  0  0  0  0  0  0
   -2.8390   -1.1370   -0.7460 H   0  0  0  0  0  0  0  0  0  0  0  0
   -1.6510   -3.1750    0.0830 H   0  0  0  0  0  0  0  0  0  0  0  0
   -3.3720   -3.4950   -0.3440 H   0  0  0  0  0  0  0  0  0  0  0  0
   -4.0730   -3.4020    1.9540 H   0  0  0  0  0  0  0  0  0  0  0  0
   -2.4030   -2.9300    2.5210 H   0  0  0  0  0  0  0  0  0  0  0  0
   -1.7300   -6.4890    0.7560 H   0  0  0  0  0  0  0  0  0  0  0  0
  1 12  1  0  0  0  0
  2 10  1  0  0  0  0
  2  1  1  0  0  0  0
  2 14  1  1  0  0  0
  3  2  1  0  0  0  0
  4  3  1  0  0  0  0
  4  5  1  0  0  0  0
  5 17  1  0  0  0  0
  6 18  1  0  0  0  0
  6  5  2  0  0  0  0
  7  6  1  0  0  0  0
  8  9  1  0  0  0  0
  8  7  2  0  0  0  0
  9  4  2  0  0  0  0
 10 22  1  0  0  0  0
 11 10  2  0  0  0  0
 13  1  1  0  0  0  0
 15  3  1  0  0  0  0
 16  3  1  0  0  0  0
 19  7  1  0  0  0  0
 20  8  1  0  0  0  0
 21  9  1  0  0  0  0
 22 23  1  0  0  0  0
 22 26  1  0  0  0  0
 23 24  1  0  0  0  0
 23 30  1  0  0  0  0
 24 31  1  0  0  0  0
 24 25  1  0  0  0  0
 25 34  1  0  0  0  0
 25 33  1  0  0  0  0
 26 35  1  1  0  0  0
 26 25  1  0  0  0  0
 27 36  1  0  0  0  0
 27 26  1  0  0  0  0
 28 27  2  0  0  0  0
 29 23  1  0  0  0  0
 32 24  1  0  0  0  0
 36 46  1  0  0  0  0
 37 47  1  6  0  0  0
 37 38  1  0  0  0  0
 37 42  1  0  0  0  0
 37 36  1  0  0  0  0
 38 39  1  0  0  0  0
 39 40  1  0  0  0  0
 39 50  1  0  0  0  0
 39 51  1  0  0  0  0
 40 41  2  0  0  0  0
 42 45  1  0  0  0  0
 43 42  2  0  0  0  0
 44 52  1  0  0  0  0
 44 40  1  0  0  0  0
 48 38  1  0  0  0  0
 49 38  1  0  0  0  0
M  END
$$$$
