FPF.pdb
 OpenBabel07022419013D

 56 58  0  0  1  0  0  0  0  0999 V2000
    3.3180   -0.1630    0.1990 N   0  0  0  0  0  0  0  0  0  0  0  0
    2.1460    0.4050    0.8770 C   0  0  1  0  0  0  0  0  0  0  0  0
    2.5980    0.9870    2.2150 C   0  0  0  0  0  0  0  0  0  0  0  0
    3.1810   -0.1160    3.0140 C   0  0  0  0  0  0  0  0  0  0  0  0
    4.5250   -0.3950    2.9340 C   0  0  0  0  0  0  0  0  0  0  0  0
    5.0960   -1.4320    3.6790 C   0  0  0  0  0  0  0  0  0  0  0  0
    4.3240   -2.2070    4.5170 C   0  0  0  0  0  0  0  0  0  0  0  0
    2.9780   -1.9290    4.5970 C   0  0  0  0  0  0  0  0  0  0  0  0
    2.4180   -0.8960    3.8540 C   0  0  0  0  0  0  0  0  0  0  0  0
    1.4730    1.3970    0.0180 C   0  0  0  0  0  0  0  0  0  0  0  0
    2.1400    1.8260   -0.9770 O   0  0  0  0  0  0  0  0  0  0  0  0
    3.6700   -0.9990    0.7080 H   0  0  0  0  0  0  0  0  0  0  0  0
    4.0920    0.5350    0.1700 H   0  0  0  0  0  0  0  0  0  0  0  0
    1.4500   -0.4170    1.0850 H   0  0  0  0  0  0  0  0  0  0  0  0
    3.4290    1.7260    2.0260 H   0  0  0  0  0  0  0  0  0  0  0  0
    1.8010    1.5180    2.7120 H   0  0  0  0  0  0  0  0  0  0  0  0
    5.1560    0.1940    2.2880 H   0  0  0  0  0  0  0  0  0  0  0  0
    6.1520   -1.6540    3.6180 H   0  0  0  0  0  0  0  0  0  0  0  0
    4.7840   -3.0170    5.0950 H   0  0  0  0  0  0  0  0  0  0  0  0
    2.3760   -2.5370    5.2530 H   0  0  0  0  0  0  0  0  0  0  0  0
    1.3540   -0.6680    3.9110 H   0  0  0  0  0  0  0  0  0  0  0  0
    0.1710    1.9040    0.1990 N   0  0  0  0  0  0  0  0  0  0  0  0
   -0.4250    2.9260   -0.6910 C   0  0  0  0  0  0  0  0  0  0  0  0
   -1.0860    3.7820    0.4010 C   0  0  0  0  0  0  0  0  0  0  0  0
   -1.8590    2.7190    1.1430 C   0  0  0  0  0  0  0  0  0  0  0  0
   -0.8340    1.5760    1.1880 C   0  0  1  0  0  0  0  0  0  0  0  0
   -1.5050    0.2820    0.8790 C   0  0  0  0  0  0  0  0  0  0  0  0
   -2.3730   -0.1440    1.6600 O   0  0  0  0  0  0  0  0  0  0  0  0
   -1.2410    2.4880   -1.2760 H   0  0  0  0  0  0  0  0  0  0  0  0
    0.3300    3.4730   -1.2490 H   0  0  0  0  0  0  0  0  0  0  0  0
   -0.2640    4.1350    1.0500 H   0  0  0  0  0  0  0  0  0  0  0  0
   -1.7020    4.5700   -0.0220 H   0  0  0  0  0  0  0  0  0  0  0  0
   -2.1310    3.0880    2.1300 H   0  0  0  0  0  0  0  0  0  0  0  0
   -2.7260    2.4350    0.5120 H   0  0  0  0  0  0  0  0  0  0  0  0
   -0.4750    1.5710    2.2290 H   0  0  0  0  0  0  0  0  0  0  0  0
   -1.1890   -0.4690   -0.2640 N   0  0  0  0  0  0  0  0  0  0  0  0
   -1.8400   -1.7350   -0.5820 C   0  0  1  0  0  0  0  0  0  0  0  0
   -2.4850   -1.6880   -1.9390 C   0  0  0  0  0  0  0  0  0  0  0  0
   -3.1620   -2.9200   -2.3530 C   0  0  0  0  0  0  0  0  0  0  0  0
   -4.4760   -3.1310   -1.9980 C   0  0  0  0  0  0  0  0  0  0  0  0
   -5.0980   -4.2890   -2.4070 C   0  0  0  0  0  0  0  0  0  0  0  0
   -4.4340   -5.2260   -3.1570 C   0  0  0  0  0  0  0  0  0  0  0  0
   -3.1190   -5.0270   -3.5190 C   0  0  0  0  0  0  0  0  0  0  0  0
   -2.4840   -3.8600   -3.1090 C   0  0  0  0  0  0  0  0  0  0  0  0
   -0.7960   -2.7800   -0.5610 C   0  0  0  0  0  0  0  0  0  0  0  0
    0.4240   -2.5080   -0.3480 O   0  0  0  0  0  0  0  0  0  0  0  0
   -1.0590   -4.1350   -0.7680 O   0  0  0  0  0  0  0  0  0  0  0  0
   -0.4590   -0.1130   -0.9190 H   0  0  0  0  0  0  0  0  0  0  0  0
   -2.5740   -1.9910    0.2200 H   0  0  0  0  0  0  0  0  0  0  0  0
   -1.7110   -1.4630   -2.7140 H   0  0  0  0  0  0  0  0  0  0  0  0
   -3.1780   -0.7950   -1.9880 H   0  0  0  0  0  0  0  0  0  0  0  0
   -4.9550   -2.3660   -1.4090 H   0  0  0  0  0  0  0  0  0  0  0  0
   -6.1320   -4.4520   -2.1260 H   0  0  0  0  0  0  0  0  0  0  0  0
   -4.9660   -6.1320   -3.4600 H   0  0  0  0  0  0  0  0  0  0  0  0
   -2.5870   -5.7790   -4.1200 H   0  0  0  0  0  0  0  0  0  0  0  0
   -1.4510   -3.7450   -3.4250 H   0  0  0  0  0  0  0  0  0  0  0  0
  1 12  1  0  0  0  0
  1  2  1  0  0  0  0
  2 14  1  1  0  0  0
  2  3  1  0  0  0  0
  3 16  1  0  0  0  0
  3  4  1  0  0  0  0
  4  9  1  0  0  0  0
  5  4  2  0  0  0  0
  5  6  1  0  0  0  0
  6  7  2  0  0  0  0
  7  8  1  0  0  0  0
  7 19  1  0  0  0  0
  8 20  1  0  0  0  0
  9 21  1  0  0  0  0
  9  8  2  0  0  0  0
 10 22  1  0  0  0  0
 10  2  1  0  0  0  0
 11 10  2  0  0  0  0
 13  1  1  0  0  0  0
 15  3  1  0  0  0  0
 17  5  1  0  0  0  0
 18  6  1  0  0  0  0
 22 26  1  0  0  0  0
 23 22  1  0  0  0  0
 23 24  1  0  0  0  0
 24 31  1  0  0  0  0
 24 25  1  0  0  0  0
 25 26  1  0  0  0  0
 25 33  1  0  0  0  0
 26 35  1  1  0  0  0
 27 26  1  0  0  0  0
 27 28  2  0  0  0  0
 29 23  1  0  0  0  0
 30 23  1  0  0  0  0
 32 24  1  0  0  0  0
 34 25  1  0  0  0  0
 36 27  1  0  0  0  0
 37 45  1  0  0  0  0
 37 36  1  0  0  0  0
 37 49  1  1  0  0  0
 38 37  1  0  0  0  0
 39 40  1  0  0  0  0
 39 38  1  0  0  0  0
 40 52  1  0  0  0  0
 41 53  1  0  0  0  0
 41 40  2  0  0  0  0
 42 41  1  0  0  0  0
 43 42  2  0  0  0  0
 43 44  1  0  0  0  0
 44 39  2  0  0  0  0
 45 46  1  0  0  0  0
 47 45  2  0  0  0  0
 48 36  1  0  0  0  0
 50 38  1  0  0  0  0
 51 38  1  0  0  0  0
 54 42  1  0  0  0  0
 55 43  1  0  0  0  0
 56 44  1  0  0  0  0
M  END
$$$$
