FPG.pdb
 OpenBabel07022419013D

 43 44  0  0  1  0  0  0  0  0999 V2000
    0.6000   -2.4290    1.3660 N   0  0  0  0  0  0  0  0  0  0  0  0
    1.3090   -1.9580    0.1940 C   0  0  1  0  0  0  0  0  0  0  0  0
    0.3910   -2.1250   -0.9770 C   0  0  0  0  0  0  0  0  0  0  0  0
    0.9210   -1.7030   -2.2660 C   0  0  0  0  0  0  0  0  0  0  0  0
    1.6210   -2.5730   -3.0900 C   0  0  0  0  0  0  0  0  0  0  0  0
    2.1020   -2.1400   -4.2980 C   0  0  0  0  0  0  0  0  0  0  0  0
    1.9220   -0.8470   -4.7510 C   0  0  0  0  0  0  0  0  0  0  0  0
    1.2240    0.0040   -3.9190 C   0  0  0  0  0  0  0  0  0  0  0  0
    0.7250   -0.3960   -2.6970 C   0  0  0  0  0  0  0  0  0  0  0  0
    1.7430   -0.5770    0.4400 C   0  0  0  0  0  0  0  0  0  0  0  0
    2.3950   -0.0460   -0.5280 O   0  0  0  0  0  0  0  0  0  0  0  0
    1.1540   -3.1180    1.9070 H   0  0  0  0  0  0  0  0  0  0  0  0
   -0.3650   -2.7330    1.1630 H   0  0  0  0  0  0  0  0  0  0  0  0
    2.1770   -2.6570    0.0570 H   0  0  0  0  0  0  0  0  0  0  0  0
    0.0790   -3.1890   -1.0130 H   0  0  0  0  0  0  0  0  0  0  0  0
   -0.5280   -1.5430   -0.7680 H   0  0  0  0  0  0  0  0  0  0  0  0
    1.7530   -3.5800   -2.7210 H   0  0  0  0  0  0  0  0  0  0  0  0
    2.6420   -2.8540   -4.9040 H   0  0  0  0  0  0  0  0  0  0  0  0
    2.3130   -0.5250   -5.7120 H   0  0  0  0  0  0  0  0  0  0  0  0
    1.0780    1.0270   -4.2700 H   0  0  0  0  0  0  0  0  0  0  0  0
    0.1900    0.3430   -2.1170 H   0  0  0  0  0  0  0  0  0  0  0  0
    1.5220    0.1940    1.5910 N   0  0  0  0  0  0  0  0  0  0  0  0
    1.9730    1.5560    1.7790 C   0  0  0  0  0  0  0  0  0  0  0  0
    2.2890    1.6610    3.2660 C   0  0  0  0  0  0  0  0  0  0  0  0
    1.1200    0.8930    3.8330 C   0  0  0  0  0  0  0  0  0  0  0  0
    0.8250   -0.1780    2.8000 C   0  0  1  0  0  0  0  0  0  0  0  0
   -0.6570   -0.1510    2.6100 C   0  0  0  0  0  0  0  0  0  0  0  0
   -1.1430    0.1810    1.5050 O   0  0  0  0  0  0  0  0  0  0  0  0
    1.1800    2.2910    1.5320 H   0  0  0  0  0  0  0  0  0  0  0  0
    2.8880    1.7940    1.2370 H   0  0  0  0  0  0  0  0  0  0  0  0
    2.2680    2.7010    3.6010 H   0  0  0  0  0  0  0  0  0  0  0  0
    3.2480    1.1790    3.5110 H   0  0  0  0  0  0  0  0  0  0  0  0
    0.2840    1.6130    3.9490 H   0  0  0  0  0  0  0  0  0  0  0  0
    1.3220    0.4720    4.8240 H   0  0  0  0  0  0  0  0  0  0  0  0
    1.1980   -1.1150    3.2270 H   0  0  0  0  0  0  0  0  0  0  0  0
   -1.5280   -0.5010    3.6770 N   0  0  0  0  0  0  0  0  0  0  0  0
   -2.9860   -0.4830    3.5160 C   0  0  0  0  0  0  0  0  0  0  0  0
   -3.4490    0.8880    3.1540 C   0  0  0  0  0  0  0  0  0  0  0  0
   -2.6380    1.8370    3.0250 O   0  0  0  0  0  0  0  0  0  0  0  0
   -4.8060    1.0640    2.9680 O   0  0  0  0  0  0  0  0  0  0  0  0
   -1.0730   -0.7700    4.5790 H   0  0  0  0  0  0  0  0  0  0  0  0
   -3.4230   -0.8210    4.4690 H   0  0  0  0  0  0  0  0  0  0  0  0
   -3.3170   -1.1910    2.7300 H   0  0  0  0  0  0  0  0  0  0  0  0
  1 12  1  0  0  0  0
  2 14  1  6  0  0  0
  2 10  1  0  0  0  0
  2  1  1  0  0  0  0
  3 16  1  0  0  0  0
  3  2  1  0  0  0  0
  4  3  1  0  0  0  0
  5 17  1  0  0  0  0
  5  4  2  0  0  0  0
  6  5  1  0  0  0  0
  7  6  2  0  0  0  0
  7  8  1  0  0  0  0
  8  9  2  0  0  0  0
  9  4  1  0  0  0  0
  9 21  1  0  0  0  0
 10 22  1  0  0  0  0
 11 10  2  0  0  0  0
 13  1  1  0  0  0  0
 15  3  1  0  0  0  0
 18  6  1  0  0  0  0
 19  7  1  0  0  0  0
 20  8  1  0  0  0  0
 22 23  1  0  0  0  0
 22 26  1  0  0  0  0
 23 24  1  0  0  0  0
 24 32  1  0  0  0  0
 24 31  1  0  0  0  0
 24 25  1  0  0  0  0
 25 33  1  0  0  0  0
 25 34  1  0  0  0  0
 26 35  1  1  0  0  0
 26 25  1  0  0  0  0
 27 26  1  0  0  0  0
 27 36  1  0  0  0  0
 28 27  2  0  0  0  0
 29 23  1  0  0  0  0
 30 23  1  0  0  0  0
 36 41  1  0  0  0  0
 37 36  1  0  0  0  0
 37 42  1  0  0  0  0
 38 37  1  0  0  0  0
 39 38  1  0  0  0  0
 40 38  2  0  0  0  0
 43 37  1  0  0  0  0
M  END
$$$$
