FPH.pdb
 OpenBabel07022419013D

 53 55  0  0  1  0  0  0  0  0999 V2000
    4.4290    0.6040   -0.9470 N   0  0  0  0  0  0  0  0  0  0  0  0
    3.2450    0.2030   -0.1130 C   0  0  1  0  0  0  0  0  0  0  0  0
    3.8720   -0.1520    1.2120 C   0  0  0  0  0  0  0  0  0  0  0  0
    2.9370   -0.5950    2.2550 C   0  0  0  0  0  0  0  0  0  0  0  0
    2.5540   -1.9100    2.4140 C   0  0  0  0  0  0  0  0  0  0  0  0
    1.6870   -2.2960    3.4470 C   0  0  0  0  0  0  0  0  0  0  0  0
    1.2100   -1.3420    4.3170 C   0  0  0  0  0  0  0  0  0  0  0  0
    1.5840   -0.0230    4.1690 C   0  0  0  0  0  0  0  0  0  0  0  0
    2.4360    0.3290    3.1470 C   0  0  0  0  0  0  0  0  0  0  0  0
    2.3290    1.3350   -0.0920 C   0  0  0  0  0  0  0  0  0  0  0  0
    2.8650    2.4990   -0.3480 O   0  0  0  0  0  0  0  0  0  0  0  0
    4.5650    1.6080   -0.6850 H   0  0  0  0  0  0  0  0  0  0  0  0
    4.0800    0.5820   -1.9480 H   0  0  0  0  0  0  0  0  0  0  0  0
    2.8810   -0.6890   -0.5760 H   0  0  0  0  0  0  0  0  0  0  0  0
    4.6280   -0.9680    1.0150 H   0  0  0  0  0  0  0  0  0  0  0  0
    4.5140    0.7110    1.5740 H   0  0  0  0  0  0  0  0  0  0  0  0
    2.9160   -2.6680    1.7440 H   0  0  0  0  0  0  0  0  0  0  0  0
    1.3810   -3.3350    3.5830 H   0  0  0  0  0  0  0  0  0  0  0  0
    0.5310   -1.6670    5.1230 H   0  0  0  0  0  0  0  0  0  0  0  0
    1.2000    0.7150    4.8660 H   0  0  0  0  0  0  0  0  0  0  0  0
    2.7150    1.3710    3.0540 H   0  0  0  0  0  0  0  0  0  0  0  0
    0.9430    1.3610    0.1600 N   0  0  0  0  0  0  0  0  0  0  0  0
    0.2420    2.6880    0.1480 C   0  0  0  0  0  0  0  0  0  0  0  0
   -0.7330    2.5070    1.3030 C   0  0  0  0  0  0  0  0  0  0  0  0
   -1.2640    1.1400    0.9420 C   0  0  0  0  0  0  0  0  0  0  0  0
   -0.0660    0.4050    0.4370 C   0  0  1  0  0  0  0  0  0  0  0  0
   -0.4090   -0.5270   -0.6670 C   0  0  0  0  0  0  0  0  0  0  0  0
    0.4470   -0.9250   -1.4650 O   0  0  0  0  0  0  0  0  0  0  0  0
   -0.3490    2.6650   -0.7860 H   0  0  0  0  0  0  0  0  0  0  0  0
    0.9300    3.5140    0.2710 H   0  0  0  0  0  0  0  0  0  0  0  0
   -1.4880    3.2880    1.3720 H   0  0  0  0  0  0  0  0  0  0  0  0
   -0.0890    2.4310    2.2190 H   0  0  0  0  0  0  0  0  0  0  0  0
   -2.0220    1.3140    0.1310 H   0  0  0  0  0  0  0  0  0  0  0  0
   -1.7440    0.6570    1.8180 H   0  0  0  0  0  0  0  0  0  0  0  0
    0.2540   -0.2530    1.3170 H   0  0  0  0  0  0  0  0  0  0  0  0
   -1.7570   -0.9700   -0.8100 N   0  0  0  0  0  0  0  0  0  0  0  0
   -2.1730   -1.8890   -1.8380 C   0  0  1  0  0  0  0  0  0  0  0  0
   -3.4340   -2.6050   -1.5780 C   0  0  0  0  0  0  0  0  0  0  0  0
   -3.5110   -3.4340   -0.3780 C   0  0  0  0  0  0  0  0  0  0  0  0
   -2.6600   -3.7380    0.6380 C   0  0  0  0  0  0  0  0  0  0  0  0
   -3.2820   -4.5720    1.5100 N   0  0  0  0  0  0  0  0  0  0  0  0
   -4.5220   -4.7800    1.0280 C   0  0  0  0  0  0  0  0  0  0  0  0
   -4.6810   -4.1100   -0.1010 N   0  0  0  0  0  0  0  0  0  0  0  0
   -2.3390   -1.0760   -3.1250 C   0  0  0  0  0  0  0  0  0  0  0  0
   -2.1320    0.1720   -3.1200 O   0  0  0  0  0  0  0  0  0  0  0  0
   -2.7110   -1.6750   -4.2990 O   0  0  0  0  0  0  0  0  0  0  0  0
   -2.4650   -0.6070   -0.1490 H   0  0  0  0  0  0  0  0  0  0  0  0
   -1.3580   -2.5700   -2.0950 H   0  0  0  0  0  0  0  0  0  0  0  0
   -4.3380   -1.9600   -1.6150 H   0  0  0  0  0  0  0  0  0  0  0  0
   -3.5890   -3.3190   -2.4510 H   0  0  0  0  0  0  0  0  0  0  0  0
   -1.6500   -3.3680    0.7190 H   0  0  0  0  0  0  0  0  0  0  0  0
   -2.8830   -4.9760    2.3840 H   0  0  0  0  0  0  0  0  0  0  0  0
   -5.2980   -5.4050    1.4870 H   0  0  0  0  0  0  0  0  0  0  0  0
  1 12  1  0  0  0  0
  1  2  1  0  0  0  0
  2 14  1  6  0  0  0
  2 10  1  0  0  0  0
  2  3  1  0  0  0  0
  3 16  1  0  0  0  0
  3  4  1  0  0  0  0
  4  5  2  0  0  0  0
  4  9  1  0  0  0  0
  5  6  1  0  0  0  0
  6 18  1  0  0  0  0
  6  7  2  0  0  0  0
  7 19  1  0  0  0  0
  8  7  1  0  0  0  0
  8 20  1  0  0  0  0
  9  8  2  0  0  0  0
 10 22  1  0  0  0  0
 11 10  2  0  0  0  0
 13  1  1  0  0  0  0
 15  3  1  0  0  0  0
 17  5  1  0  0  0  0
 21  9  1  0  0  0  0
 22 26  1  0  0  0  0
 23 22  1  0  0  0  0
 23 30  1  0  0  0  0
 23 24  1  0  0  0  0
 24 31  1  0  0  0  0
 24 32  1  0  0  0  0
 25 24  1  0  0  0  0
 25 34  1  0  0  0  0
 26 25  1  0  0  0  0
 26 35  1  1  0  0  0
 27 26  1  0  0  0  0
 28 27  2  0  0  0  0
 29 23  1  0  0  0  0
 33 25  1  0  0  0  0
 36 27  1  0  0  0  0
 36 47  1  0  0  0  0
 37 48  1  6  0  0  0
 37 38  1  0  0  0  0
 37 36  1  0  0  0  0
 38 39  1  0  0  0  0
 39 43  1  0  0  0  0
 39 40  2  0  0  0  0
 40 51  1  0  0  0  0
 40 41  1  0  0  0  0
 41 52  1  0  0  0  0
 42 53  1  0  0  0  0
 42 41  1  0  0  0  0
 43 42  2  0  0  0  0
 44 45  1  0  0  0  0
 44 37  1  0  0  0  0
 46 44  2  0  0  0  0
 49 38  1  0  0  0  0
 50 38  1  0  0  0  0
M  END
$$$$
