FPI.pdb
 OpenBabel07022419013D

 55 56  0  0  1  0  0  0  0  0999 V2000
    1.4330    0.9910    4.0770 N   0  0  0  0  0  0  0  0  0  0  0  0
    1.8110    0.3850    2.8410 C   0  0  1  0  0  0  0  0  0  0  0  0
    2.0440   -1.0740    3.1220 C   0  0  0  0  0  0  0  0  0  0  0  0
    2.4500   -1.8940    1.9820 C   0  0  0  0  0  0  0  0  0  0  0  0
    3.7960   -2.0020    1.6210 C   0  0  0  0  0  0  0  0  0  0  0  0
    4.2260   -2.7810    0.5760 C   0  0  0  0  0  0  0  0  0  0  0  0
    3.3260   -3.5030   -0.1740 C   0  0  0  0  0  0  0  0  0  0  0  0
    1.9930   -3.4100    0.1660 C   0  0  0  0  0  0  0  0  0  0  0  0
    1.5560   -2.6320    1.2110 C   0  0  0  0  0  0  0  0  0  0  0  0
    0.8650    0.5980    1.7130 C   0  0  0  0  0  0  0  0  0  0  0  0
    1.2400   -0.0170    0.6510 O   0  0  0  0  0  0  0  0  0  0  0  0
    2.1990    1.4840    4.5720 H   0  0  0  0  0  0  0  0  0  0  0  0
    0.8180    0.4250    4.6800 H   0  0  0  0  0  0  0  0  0  0  0  0
    2.8420    0.7810    2.5460 H   0  0  0  0  0  0  0  0  0  0  0  0
    1.1120   -1.4770    3.5700 H   0  0  0  0  0  0  0  0  0  0  0  0
    2.8780   -1.1060    3.8830 H   0  0  0  0  0  0  0  0  0  0  0  0
    4.5400   -1.4560    2.1780 H   0  0  0  0  0  0  0  0  0  0  0  0
    5.2810   -2.8530    0.3080 H   0  0  0  0  0  0  0  0  0  0  0  0
    3.6580   -4.1270   -1.0090 H   0  0  0  0  0  0  0  0  0  0  0  0
    1.2540   -3.9800   -0.4180 H   0  0  0  0  0  0  0  0  0  0  0  0
    0.5020   -2.5730    1.4610 H   0  0  0  0  0  0  0  0  0  0  0  0
   -0.2950    1.3600    1.7600 N   0  0  0  0  0  0  0  0  0  0  0  0
   -0.7870    2.1660    2.8540 C   0  0  0  0  0  0  0  0  0  0  0  0
   -1.3260    3.4280    2.1130 C   0  0  0  0  0  0  0  0  0  0  0  0
   -1.1710    3.0760    0.6150 C   0  0  0  0  0  0  0  0  0  0  0  0
   -1.3070    1.5550    0.7600 C   0  0  1  0  0  0  0  0  0  0  0  0
   -1.1700    0.8020   -0.4610 C   0  0  0  0  0  0  0  0  0  0  0  0
   -1.1200    1.3410   -1.6110 O   0  0  0  0  0  0  0  0  0  0  0  0
   -1.6730    1.6340    3.2850 H   0  0  0  0  0  0  0  0  0  0  0  0
   -0.0600    2.4900    3.5910 H   0  0  0  0  0  0  0  0  0  0  0  0
   -2.4140    3.5150    2.2840 H   0  0  0  0  0  0  0  0  0  0  0  0
   -0.7380    4.3070    2.3820 H   0  0  0  0  0  0  0  0  0  0  0  0
   -1.9580    3.5160    0.0100 H   0  0  0  0  0  0  0  0  0  0  0  0
   -0.1430    3.3320    0.3510 H   0  0  0  0  0  0  0  0  0  0  0  0
   -2.3410    1.4070    1.2240 H   0  0  0  0  0  0  0  0  0  0  0  0
   -3.5460   -1.9520    0.0250 C   0  0  0  0  0  0  0  0  0  0  0  0
   -3.0980   -2.7010   -1.1870 C   0  0  0  0  0  0  0  0  0  0  0  0
   -2.2290   -1.9610   -2.1430 C   0  0  2  0  0  0  0  0  0  0  0  0
   -1.9510   -2.9460   -3.2940 C   0  0  0  0  0  0  0  0  0  0  0  0
   -0.9530   -1.5070   -1.5270 C   0  0  2  0  0  0  0  0  0  0  0  0
   -1.0940   -0.6200   -0.4230 N   0  0  0  0  0  0  0  0  0  0  0  0
    0.0580   -1.0910   -2.5410 C   0  0  0  0  0  0  0  0  0  0  0  0
    0.7520   -0.0800   -2.3510 O   0  0  0  0  0  0  0  0  0  0  0  0
    0.2730   -1.7960   -3.7220 O   0  0  0  0  0  0  0  0  0  0  0  0
   -4.6650   -2.1280    0.1920 H   0  0  0  0  0  0  0  0  0  0  0  0
   -3.0880   -2.3090    0.9760 H   0  0  0  0  0  0  0  0  0  0  0  0
   -3.4440   -0.8620   -0.0410 H   0  0  0  0  0  0  0  0  0  0  0  0
   -4.0190   -3.0860   -1.7080 H   0  0  0  0  0  0  0  0  0  0  0  0
   -2.5690   -3.6260   -0.8020 H   0  0  0  0  0  0  0  0  0  0  0  0
   -2.8240   -1.1290   -2.5710 H   0  0  0  0  0  0  0  0  0  0  0  0
   -1.8930   -2.3950   -4.2320 H   0  0  0  0  0  0  0  0  0  0  0  0
   -1.0660   -3.5390   -3.0130 H   0  0  0  0  0  0  0  0  0  0  0  0
   -2.8230   -3.6480   -3.3810 H   0  0  0  0  0  0  0  0  0  0  0  0
   -0.4530   -2.4550   -1.0950 H   0  0  0  0  0  0  0  0  0  0  0  0
   -1.1600   -1.0640    0.5520 H   0  0  0  0  0  0  0  0  0  0  0  0
  1 12  1  0  0  0  0
  1 13  1  0  0  0  0
  2 14  1  6  0  0  0
  2  3  1  0  0  0  0
  2  1  1  0  0  0  0
  3 15  1  0  0  0  0
  3 16  1  0  0  0  0
  4  3  1  0  0  0  0
  5  4  1  0  0  0  0
  5 17  1  0  0  0  0
  6  5  2  0  0  0  0
  7  8  2  0  0  0  0
  7  6  1  0  0  0  0
  8  9  1  0  0  0  0
  9 21  1  0  0  0  0
  9  4  2  0  0  0  0
 10 22  1  0  0  0  0
 10  2  1  0  0  0  0
 11 10  2  0  0  0  0
 18  6  1  0  0  0  0
 19  7  1  0  0  0  0
 20  8  1  0  0  0  0
 22 23  1  0  0  0  0
 23 29  1  0  0  0  0
 23 30  1  0  0  0  0
 24 31  1  0  0  0  0
 24 32  1  0  0  0  0
 24 23  1  0  0  0  0
 25 26  1  0  0  0  0
 25 24  1  0  0  0  0
 26 35  1  1  0  0  0
 26 22  1  0  0  0  0
 27 41  1  0  0  0  0
 27 26  1  0  0  0  0
 28 27  2  0  0  0  0
 33 25  1  0  0  0  0
 34 25  1  0  0  0  0
 36 45  1  0  0  0  0
 36 46  1  0  0  0  0
 37 49  1  0  0  0  0
 37 36  1  0  0  0  0
 38 50  1  6  0  0  0
 38 40  1  0  0  0  0
 38 37  1  0  0  0  0
 39 52  1  0  0  0  0
 39 38  1  0  0  0  0
 40 54  1  1  0  0  0
 40 41  1  0  0  0  0
 41 55  1  0  0  0  0
 42 43  1  0  0  0  0
 42 40  1  0  0  0  0
 44 42  2  0  0  0  0
 47 36  1  0  0  0  0
 48 37  1  0  0  0  0
 51 39  1  0  0  0  0
 53 39  1  0  0  0  0
M  END
$$$$
