FPL.pdb
 OpenBabel07022419013D

 55 56  0  0  1  0  0  0  0  0999 V2000
    0.2230   -0.6720    4.3610 N   0  0  0  0  0  0  0  0  0  0  0  0
    0.8330   -0.1420    3.1620 C   0  0  1  0  0  0  0  0  0  0  0  0
    1.7890   -1.2350    2.6760 C   0  0  0  0  0  0  0  0  0  0  0  0
    2.8120   -1.5260    3.7100 C   0  0  0  0  0  0  0  0  0  0  0  0
    3.9810   -0.7990    3.6730 C   0  0  0  0  0  0  0  0  0  0  0  0
    4.9310   -1.0760    4.6420 C   0  0  0  0  0  0  0  0  0  0  0  0
    4.7160   -2.0420    5.6060 C   0  0  0  0  0  0  0  0  0  0  0  0
    3.5440   -2.7710    5.6420 C   0  0  0  0  0  0  0  0  0  0  0  0
    2.5980   -2.4950    4.6770 C   0  0  0  0  0  0  0  0  0  0  0  0
   -0.2150    0.1300    2.1620 C   0  0  0  0  0  0  0  0  0  0  0  0
   -1.4120   -0.1480    2.4570 O   0  0  0  0  0  0  0  0  0  0  0  0
    0.9060   -0.7440    5.1510 H   0  0  0  0  0  0  0  0  0  0  0  0
   -0.3520   -1.5040    4.2000 H   0  0  0  0  0  0  0  0  0  0  0  0
    1.4020    0.7710    3.4120 H   0  0  0  0  0  0  0  0  0  0  0  0
    2.2970   -0.9480    1.7590 H   0  0  0  0  0  0  0  0  0  0  0  0
    1.2220   -2.1730    2.4850 H   0  0  0  0  0  0  0  0  0  0  0  0
    4.1770   -0.0350    2.9280 H   0  0  0  0  0  0  0  0  0  0  0  0
    5.8500   -0.4960    4.6040 H   0  0  0  0  0  0  0  0  0  0  0  0
    5.5080   -2.2160    6.3470 H   0  0  0  0  0  0  0  0  0  0  0  0
    3.4240   -3.5110    6.4120 H   0  0  0  0  0  0  0  0  0  0  0  0
    1.6720   -3.0730    4.7080 H   0  0  0  0  0  0  0  0  0  0  0  0
    0.0790    0.6950    0.8800 N   0  0  0  0  0  0  0  0  0  0  0  0
    1.3530    1.0960    0.3230 C   0  0  0  0  0  0  0  0  0  0  0  0
    0.9980    2.3490   -0.4720 C   0  0  0  0  0  0  0  0  0  0  0  0
   -0.5060    2.3320   -0.6390 C   0  0  0  0  0  0  0  0  0  0  0  0
   -0.8980    0.9830   -0.1450 C   0  0  1  0  0  0  0  0  0  0  0  0
   -0.9240   -0.0470   -1.2060 C   0  0  0  0  0  0  0  0  0  0  0  0
   -0.1720   -1.0520   -1.2560 O   0  0  0  0  0  0  0  0  0  0  0  0
    2.0060    1.3640    1.1990 H   0  0  0  0  0  0  0  0  0  0  0  0
    1.8070    0.3190   -0.3070 H   0  0  0  0  0  0  0  0  0  0  0  0
    1.2290    3.2240    0.1960 H   0  0  0  0  0  0  0  0  0  0  0  0
    1.5510    2.4190   -1.4190 H   0  0  0  0  0  0  0  0  0  0  0  0
   -1.0070    3.1610   -0.0770 H   0  0  0  0  0  0  0  0  0  0  0  0
   -0.7010    2.4870   -1.7200 H   0  0  0  0  0  0  0  0  0  0  0  0
   -1.8970    1.0750    0.3360 H   0  0  0  0  0  0  0  0  0  0  0  0
   -2.4570   -3.4640   -1.9500 C   0  0  0  0  0  0  0  0  0  0  0  0
   -3.5310   -2.4090   -2.1270 C   0  0  0  0  0  0  0  0  0  0  0  0
   -3.7730   -1.6340   -0.8610 C   0  0  0  0  0  0  0  0  0  0  0  0
   -3.3120   -1.5620   -3.3340 C   0  0  0  0  0  0  0  0  0  0  0  0
   -2.0150   -0.7980   -3.3410 C   0  0  2  0  0  0  0  0  0  0  0  0
   -1.8730    0.1100   -2.2520 N   0  0  0  0  0  0  0  0  0  0  0  0
   -1.8670   -0.1550   -4.6610 C   0  0  0  0  0  0  0  0  0  0  0  0
   -1.6420    1.0730   -4.7180 O   0  0  0  0  0  0  0  0  0  0  0  0
   -1.9690   -0.8640   -5.8390 O   0  0  0  0  0  0  0  0  0  0  0  0
   -2.8910   -4.5040   -1.8910 H   0  0  0  0  0  0  0  0  0  0  0  0
   -1.7480   -3.5040   -2.8020 H   0  0  0  0  0  0  0  0  0  0  0  0
   -1.9260   -3.3430   -0.9630 H   0  0  0  0  0  0  0  0  0  0  0  0
   -4.4870   -2.9820   -2.3200 H   0  0  0  0  0  0  0  0  0  0  0  0
   -3.9570   -0.5530   -1.0340 H   0  0  0  0  0  0  0  0  0  0  0  0
   -4.6900   -1.9950   -0.3070 H   0  0  0  0  0  0  0  0  0  0  0  0
   -2.9460   -1.8010   -0.1090 H   0  0  0  0  0  0  0  0  0  0  0  0
   -3.3840   -2.1960   -4.2330 H   0  0  0  0  0  0  0  0  0  0  0  0
   -4.1440   -0.8340   -3.3940 H   0  0  0  0  0  0  0  0  0  0  0  0
   -1.2140   -1.5850   -3.2030 H   0  0  0  0  0  0  0  0  0  0  0  0
   -2.5160    0.9380   -2.2390 H   0  0  0  0  0  0  0  0  0  0  0  0
  1 12  1  0  0  0  0
  2 14  1  1  0  0  0
  2  1  1  0  0  0  0
  3  2  1  0  0  0  0
  3  4  1  0  0  0  0
  4  9  1  0  0  0  0
  5  4  2  0  0  0  0
  5  6  1  0  0  0  0
  6  7  2  0  0  0  0
  7  8  1  0  0  0  0
  7 19  1  0  0  0  0
  8 20  1  0  0  0  0
  9 21  1  0  0  0  0
  9  8  2  0  0  0  0
 10 11  2  0  0  0  0
 10  2  1  0  0  0  0
 13  1  1  0  0  0  0
 15  3  1  0  0  0  0
 16  3  1  0  0  0  0
 17  5  1  0  0  0  0
 18  6  1  0  0  0  0
 22 10  1  0  0  0  0
 23 22  1  0  0  0  0
 23 29  1  0  0  0  0
 24 31  1  0  0  0  0
 24 23  1  0  0  0  0
 25 24  1  0  0  0  0
 25 26  1  0  0  0  0
 25 33  1  0  0  0  0
 26 35  1  1  0  0  0
 26 22  1  0  0  0  0
 27 26  1  0  0  0  0
 28 27  2  0  0  0  0
 30 23  1  0  0  0  0
 32 24  1  0  0  0  0
 34 25  1  0  0  0  0
 36 45  1  0  0  0  0
 36 47  1  0  0  0  0
 37 36  1  0  0  0  0
 37 38  1  0  0  0  0
 38 50  1  0  0  0  0
 38 51  1  0  0  0  0
 39 37  1  0  0  0  0
 40 39  1  0  0  0  0
 40 54  1  1  0  0  0
 40 41  1  0  0  0  0
 41 55  1  0  0  0  0
 41 27  1  0  0  0  0
 42 40  1  0  0  0  0
 43 42  1  0  0  0  0
 44 42  2  0  0  0  0
 46 36  1  0  0  0  0
 48 37  1  0  0  0  0
 49 38  1  0  0  0  0
 52 39  1  0  0  0  0
 53 39  1  0  0  0  0
M  END
$$$$
