FPN.pdb
 OpenBabel07022419013D

 50 51  0  0  1  0  0  0  0  0999 V2000
   -0.0550   -0.2330    4.7790 N   0  0  0  0  0  0  0  0  0  0  0  0
    0.7750    0.2580    3.6340 C   0  0  1  0  0  0  0  0  0  0  0  0
    1.9190   -0.6730    3.5990 C   0  0  0  0  0  0  0  0  0  0  0  0
    2.9590   -0.5210    2.6150 C   0  0  0  0  0  0  0  0  0  0  0  0
    4.0660    0.2930    2.7630 C   0  0  0  0  0  0  0  0  0  0  0  0
    5.0300    0.3890    1.8020 C   0  0  0  0  0  0  0  0  0  0  0  0
    4.9480   -0.3280    0.6260 C   0  0  0  0  0  0  0  0  0  0  0  0
    3.8690   -1.1450    0.4400 C   0  0  0  0  0  0  0  0  0  0  0  0
    2.8920   -1.2330    1.4300 C   0  0  0  0  0  0  0  0  0  0  0  0
   -0.0860    0.1150    2.4550 C   0  0  0  0  0  0  0  0  0  0  0  0
   -1.0270   -0.7220    2.5110 O   0  0  0  0  0  0  0  0  0  0  0  0
    0.3750    0.0090    5.6710 H   0  0  0  0  0  0  0  0  0  0  0  0
   -1.0500    0.0030    4.6530 H   0  0  0  0  0  0  0  0  0  0  0  0
    1.0150    1.2950    3.8990 H   0  0  0  0  0  0  0  0  0  0  0  0
    1.5290   -1.7360    3.5250 H   0  0  0  0  0  0  0  0  0  0  0  0
    2.4230   -0.6840    4.6170 H   0  0  0  0  0  0  0  0  0  0  0  0
    4.1210    0.8490    3.6830 H   0  0  0  0  0  0  0  0  0  0  0  0
    5.9010    1.0400    1.9380 H   0  0  0  0  0  0  0  0  0  0  0  0
    5.7260   -0.2310   -0.1170 H   0  0  0  0  0  0  0  0  0  0  0  0
    3.7990   -1.7080   -0.4780 H   0  0  0  0  0  0  0  0  0  0  0  0
    2.0750   -1.9020    1.2190 H   0  0  0  0  0  0  0  0  0  0  0  0
    0.0590    0.8690    1.2310 N   0  0  0  0  0  0  0  0  0  0  0  0
    1.0530    1.8890    0.9840 C   0  0  0  0  0  0  0  0  0  0  0  0
    1.3160    1.6370   -0.5060 C   0  0  0  0  0  0  0  0  0  0  0  0
   -0.1240    1.4900   -1.0310 C   0  0  0  0  0  0  0  0  0  0  0  0
   -0.7800    0.7600    0.0880 C   0  0  1  0  0  0  0  0  0  0  0  0
   -1.0600   -0.6650   -0.3030 C   0  0  0  0  0  0  0  0  0  0  0  0
   -0.4210   -1.5840    0.2210 O   0  0  0  0  0  0  0  0  0  0  0  0
    0.5070    2.8670    1.0060 H   0  0  0  0  0  0  0  0  0  0  0  0
    1.9350    1.8760    1.6010 H   0  0  0  0  0  0  0  0  0  0  0  0
    1.8560    2.4670   -0.9630 H   0  0  0  0  0  0  0  0  0  0  0  0
    1.8520    0.6920   -0.5770 H   0  0  0  0  0  0  0  0  0  0  0  0
   -0.1200    0.9210   -1.9850 H   0  0  0  0  0  0  0  0  0  0  0  0
   -0.5350    2.5060   -1.1540 H   0  0  0  0  0  0  0  0  0  0  0  0
   -1.7690    1.2880    0.2600 H   0  0  0  0  0  0  0  0  0  0  0  0
   -4.4270   -3.6160    0.9730 N   0  0  0  0  0  0  0  0  0  0  0  0
   -3.8930   -2.5140    0.2470 C   0  0  0  0  0  0  0  0  0  0  0  0
   -3.5030   -1.5150    0.9050 O   0  0  0  0  0  0  0  0  0  0  0  0
   -3.8200   -2.5930   -1.2310 C   0  0  0  0  0  0  0  0  0  0  0  0
   -2.3880   -2.2970   -1.7080 C   0  0  2  0  0  0  0  0  0  0  0  0
   -2.0470   -0.9880   -1.2660 N   0  0  0  0  0  0  0  0  0  0  0  0
   -2.3940   -2.4430   -3.1770 C   0  0  0  0  0  0  0  0  0  0  0  0
   -2.0930   -1.4330   -3.8670 O   0  0  0  0  0  0  0  0  0  0  0  0
   -2.7090   -3.6110   -3.8500 O   0  0  0  0  0  0  0  0  0  0  0  0
   -5.3160   -3.6050    1.4820 H   0  0  0  0  0  0  0  0  0  0  0  0
   -3.8280   -4.4890    0.9630 H   0  0  0  0  0  0  0  0  0  0  0  0
   -4.1990   -3.5430   -1.6040 H   0  0  0  0  0  0  0  0  0  0  0  0
   -4.5060   -1.7720   -1.5970 H   0  0  0  0  0  0  0  0  0  0  0  0
   -1.7780   -3.1060   -1.2810 H   0  0  0  0  0  0  0  0  0  0  0  0
   -2.5630   -0.1770   -1.6830 H   0  0  0  0  0  0  0  0  0  0  0  0
  1 12  1  0  0  0  0
  2 14  1  1  0  0  0
  2  1  1  0  0  0  0
  3  2  1  0  0  0  0
  3 16  1  0  0  0  0
  4  5  1  0  0  0  0
  4  3  1  0  0  0  0
  5 17  1  0  0  0  0
  6 18  1  0  0  0  0
  6  5  2  0  0  0  0
  7  6  1  0  0  0  0
  8  7  2  0  0  0  0
  8  9  1  0  0  0  0
  9  4  2  0  0  0  0
 10 11  2  0  0  0  0
 10  2  1  0  0  0  0
 13  1  1  0  0  0  0
 15  3  1  0  0  0  0
 19  7  1  0  0  0  0
 20  8  1  0  0  0  0
 21  9  1  0  0  0  0
 22 10  1  0  0  0  0
 23 29  1  0  0  0  0
 23 22  1  0  0  0  0
 23 30  1  0  0  0  0
 24 23  1  0  0  0  0
 25 24  1  0  0  0  0
 25 26  1  0  0  0  0
 26 35  1  1  0  0  0
 26 22  1  0  0  0  0
 27 26  1  0  0  0  0
 27 28  2  0  0  0  0
 31 24  1  0  0  0  0
 32 24  1  0  0  0  0
 33 25  1  0  0  0  0
 34 25  1  0  0  0  0
 36 45  1  0  0  0  0
 37 38  2  0  0  0  0
 37 36  1  0  0  0  0
 39 37  1  0  0  0  0
 40 49  1  1  0  0  0
 40 41  1  0  0  0  0
 40 39  1  0  0  0  0
 41 27  1  0  0  0  0
 42 40  1  0  0  0  0
 43 42  2  0  0  0  0
 44 42  1  0  0  0  0
 46 36  1  0  0  0  0
 47 39  1  0  0  0  0
 48 39  1  0  0  0  0
 50 41  1  0  0  0  0
M  END
$$$$
