FPP.pdb
 OpenBabel07022419013D

 50 52  0  0  1  0  0  0  0  0999 V2000
    2.9610   -0.7320    3.4070 N   0  0  0  0  0  0  0  0  0  0  0  0
    2.8270   -1.1540    2.0300 C   0  0  1  0  0  0  0  0  0  0  0  0
    3.1920   -2.6140    1.9870 C   0  0  0  0  0  0  0  0  0  0  0  0
    3.1110   -3.2270    0.6490 C   0  0  0  0  0  0  0  0  0  0  0  0
    1.9860   -3.8710    0.1800 C   0  0  0  0  0  0  0  0  0  0  0  0
    1.9550   -4.4270   -1.0790 C   0  0  0  0  0  0  0  0  0  0  0  0
    3.0380   -4.3690   -1.9280 C   0  0  0  0  0  0  0  0  0  0  0  0
    4.1630   -3.7210   -1.4480 C   0  0  0  0  0  0  0  0  0  0  0  0
    4.2110   -3.1600   -0.1940 C   0  0  0  0  0  0  0  0  0  0  0  0
    1.4910   -0.8990    1.4520 C   0  0  0  0  0  0  0  0  0  0  0  0
    1.3110   -1.2270    0.2280 O   0  0  0  0  0  0  0  0  0  0  0  0
    3.0630   -1.5490    4.0650 H   0  0  0  0  0  0  0  0  0  0  0  0
    3.7540   -0.0580    3.5310 H   0  0  0  0  0  0  0  0  0  0  0  0
    3.5920   -0.6440    1.3820 H   0  0  0  0  0  0  0  0  0  0  0  0
    4.1510   -2.7900    2.4940 H   0  0  0  0  0  0  0  0  0  0  0  0
    2.4260   -3.1430    2.6190 H   0  0  0  0  0  0  0  0  0  0  0  0
    1.1160   -3.9310    0.8320 H   0  0  0  0  0  0  0  0  0  0  0  0
    1.0720   -4.9350   -1.4550 H   0  0  0  0  0  0  0  0  0  0  0  0
    3.0410   -4.8010   -2.9310 H   0  0  0  0  0  0  0  0  0  0  0  0
    5.0510   -3.6520   -2.0970 H   0  0  0  0  0  0  0  0  0  0  0  0
    5.1120   -2.6570    0.1570 H   0  0  0  0  0  0  0  0  0  0  0  0
    0.4440   -0.3060    2.2330 N   0  0  0  0  0  0  0  0  0  0  0  0
    0.5570    0.0430    3.6130 C   0  0  0  0  0  0  0  0  0  0  0  0
   -0.8780    0.4170    4.0300 C   0  0  0  0  0  0  0  0  0  0  0  0
   -1.4520    0.9630    2.7420 C   0  0  0  0  0  0  0  0  0  0  0  0
   -0.8500    0.0130    1.7330 C   0  0  1  0  0  0  0  0  0  0  0  0
   -0.7890    0.6710    0.3940 C   0  0  0  0  0  0  0  0  0  0  0  0
    0.2580    1.0420   -0.1650 O   0  0  0  0  0  0  0  0  0  0  0  0
    0.7710   -0.9100    4.1830 H   0  0  0  0  0  0  0  0  0  0  0  0
    1.2540    0.8470    3.8280 H   0  0  0  0  0  0  0  0  0  0  0  0
   -0.8930    1.1280    4.8550 H   0  0  0  0  0  0  0  0  0  0  0  0
   -1.4480   -0.5260    4.2420 H   0  0  0  0  0  0  0  0  0  0  0  0
   -2.5480    0.9940    2.7440 H   0  0  0  0  0  0  0  0  0  0  0  0
   -1.0140    1.9970    2.6210 H   0  0  0  0  0  0  0  0  0  0  0  0
   -1.5350   -0.8710    1.7090 H   0  0  0  0  0  0  0  0  0  0  0  0
   -2.0550    0.8740   -0.2660 N   0  0  0  0  0  0  0  0  0  0  0  0
   -3.3730    0.5290    0.2040 C   0  0  0  0  0  0  0  0  0  0  0  0
   -4.0920    0.1270   -1.0580 C   0  0  0  0  0  0  0  0  0  0  0  0
   -3.2820    0.6140   -2.2070 C   0  0  0  0  0  0  0  0  0  0  0  0
   -2.2460    1.4820   -1.5760 C   0  0  1  0  0  0  0  0  0  0  0  0
   -2.7730    2.8470   -1.4410 C   0  0  0  0  0  0  0  0  0  0  0  0
   -2.9240    3.3280   -0.2820 O   0  0  0  0  0  0  0  0  0  0  0  0
   -3.1120    3.6290   -2.5510 O   0  0  0  0  0  0  0  0  0  0  0  0
   -3.8260    1.4160    0.6810 H   0  0  0  0  0  0  0  0  0  0  0  0
   -3.3120   -0.3240    0.9190 H   0  0  0  0  0  0  0  0  0  0  0  0
   -5.1170    0.5540   -1.0180 H   0  0  0  0  0  0  0  0  0  0  0  0
   -4.2200   -0.9750   -1.0320 H   0  0  0  0  0  0  0  0  0  0  0  0
   -3.9790    1.2030   -2.8710 H   0  0  0  0  0  0  0  0  0  0  0  0
   -2.8850   -0.1880   -2.8620 H   0  0  0  0  0  0  0  0  0  0  0  0
   -1.2770    1.4580   -2.1340 H   0  0  0  0  0  0  0  0  0  0  0  0
  1 13  1  0  0  0  0
  1 12  1  0  0  0  0
  2 14  1  6  0  0  0
  2  1  1  0  0  0  0
  3  2  1  0  0  0  0
  3 15  1  0  0  0  0
  3 16  1  0  0  0  0
  4  3  1  0  0  0  0
  5  4  1  0  0  0  0
  5 17  1  0  0  0  0
  6  5  2  0  0  0  0
  7  8  2  0  0  0  0
  7  6  1  0  0  0  0
  8  9  1  0  0  0  0
  9 21  1  0  0  0  0
  9  4  2  0  0  0  0
 10  2  1  0  0  0  0
 10 22  1  0  0  0  0
 11 10  2  0  0  0  0
 18  6  1  0  0  0  0
 19  7  1  0  0  0  0
 20  8  1  0  0  0  0
 22 23  1  0  0  0  0
 23 30  1  0  0  0  0
 23 24  1  0  0  0  0
 23 29  1  0  0  0  0
 24 32  1  0  0  0  0
 24 31  1  0  0  0  0
 25 33  1  0  0  0  0
 25 24  1  0  0  0  0
 26 35  1  6  0  0  0
 26 22  1  0  0  0  0
 26 25  1  0  0  0  0
 27 26  1  0  0  0  0
 28 27  2  0  0  0  0
 34 25  1  0  0  0  0
 36 37  1  0  0  0  0
 36 27  1  0  0  0  0
 37 44  1  0  0  0  0
 37 45  1  0  0  0  0
 38 47  1  0  0  0  0
 38 46  1  0  0  0  0
 38 37  1  0  0  0  0
 39 40  1  0  0  0  0
 39 38  1  0  0  0  0
 40 50  1  6  0  0  0
 40 41  1  0  0  0  0
 40 36  1  0  0  0  0
 41 42  1  0  0  0  0
 43 41  2  0  0  0  0
 48 39  1  0  0  0  0
 49 39  1  0  0  0  0
M  END
$$$$
