FPQ.pdb
 OpenBabel07022419013D

 53 54  0  0  1  0  0  0  0  0999 V2000
   -0.8930   -0.0510    2.5220 N   0  0  0  0  0  0  0  0  0  0  0  0
    0.2680    0.4760    3.1780 C   0  0  1  0  0  0  0  0  0  0  0  0
    1.0520   -0.6010    3.9450 C   0  0  0  0  0  0  0  0  0  0  0  0
    1.4860   -1.6520    3.0190 C   0  0  0  0  0  0  0  0  0  0  0  0
    2.6720   -1.5540    2.3520 C   0  0  0  0  0  0  0  0  0  0  0  0
    3.0620   -2.5780    1.4930 C   0  0  0  0  0  0  0  0  0  0  0  0
    2.2750   -3.6860    1.3030 C   0  0  0  0  0  0  0  0  0  0  0  0
    1.0790   -3.7870    1.9730 C   0  0  0  0  0  0  0  0  0  0  0  0
    0.7020   -2.7610    2.8260 C   0  0  0  0  0  0  0  0  0  0  0  0
    1.1500    1.3150    2.3540 C   0  0  0  0  0  0  0  0  0  0  0  0
    2.2390    1.7200    2.9160 O   0  0  0  0  0  0  0  0  0  0  0  0
   -1.7460   -0.0550    3.1520 H   0  0  0  0  0  0  0  0  0  0  0  0
   -0.7590   -0.9630    2.0560 H   0  0  0  0  0  0  0  0  0  0  0  0
   -0.1650    1.1270    4.0200 H   0  0  0  0  0  0  0  0  0  0  0  0
    1.8950   -0.1340    4.4840 H   0  0  0  0  0  0  0  0  0  0  0  0
    0.3730   -1.0700    4.7040 H   0  0  0  0  0  0  0  0  0  0  0  0
    3.3320   -0.7110    2.4640 H   0  0  0  0  0  0  0  0  0  0  0  0
    3.9980   -2.5090    0.9630 H   0  0  0  0  0  0  0  0  0  0  0  0
    2.5940   -4.4830    0.6240 H   0  0  0  0  0  0  0  0  0  0  0  0
    0.4640   -4.6540    1.8240 H   0  0  0  0  0  0  0  0  0  0  0  0
   -0.2440   -2.8900    3.3350 H   0  0  0  0  0  0  0  0  0  0  0  0
    0.8990    1.7000    1.0280 N   0  0  0  0  0  0  0  0  0  0  0  0
    1.7790    2.5130    0.1710 C   0  0  0  0  0  0  0  0  0  0  0  0
    0.7840    3.4980   -0.3900 C   0  0  0  0  0  0  0  0  0  0  0  0
   -0.3680    2.5870   -0.7590 C   0  0  0  0  0  0  0  0  0  0  0  0
   -0.2360    1.4280    0.2170 C   0  0  1  0  0  0  0  0  0  0  0  0
   -0.1300    0.1370   -0.4890 C   0  0  0  0  0  0  0  0  0  0  0  0
    0.8340   -0.6340   -0.2270 O   0  0  0  0  0  0  0  0  0  0  0  0
    2.2040    1.9340   -0.6530 H   0  0  0  0  0  0  0  0  0  0  0  0
    2.5450    3.0410    0.7540 H   0  0  0  0  0  0  0  0  0  0  0  0
    0.4900    4.2120    0.4170 H   0  0  0  0  0  0  0  0  0  0  0  0
    1.1630    4.0430   -1.2700 H   0  0  0  0  0  0  0  0  0  0  0  0
   -1.2920    3.1690   -0.6170 H   0  0  0  0  0  0  0  0  0  0  0  0
   -0.3260    2.2590   -1.8040 H   0  0  0  0  0  0  0  0  0  0  0  0
   -1.1970    1.4430    0.7950 H   0  0  0  0  0  0  0  0  0  0  0  0
   -2.9080   -2.6930    1.7180 N   0  0  0  0  0  0  0  0  0  0  0  0
   -2.8210   -2.1470    0.3830 C   0  0  0  0  0  0  0  0  0  0  0  0
   -3.0940   -0.9520    0.2160 O   0  0  0  0  0  0  0  0  0  0  0  0
   -2.4180   -3.0290   -0.6890 C   0  0  0  0  0  0  0  0  0  0  0  0
   -2.1550   -2.4500   -2.0310 C   0  0  0  0  0  0  0  0  0  0  0  0
   -1.0620   -1.4740   -2.1830 C   0  0  2  0  0  0  0  0  0  0  0  0
   -1.0940   -0.2590   -1.4670 N   0  0  0  0  0  0  0  0  0  0  0  0
   -0.8420   -1.2720   -3.6540 C   0  0  0  0  0  0  0  0  0  0  0  0
   -0.7010   -0.1050   -4.1230 O   0  0  0  0  0  0  0  0  0  0  0  0
   -0.8010   -2.3900   -4.4650 O   0  0  0  0  0  0  0  0  0  0  0  0
   -2.7740   -3.7040    1.9080 H   0  0  0  0  0  0  0  0  0  0  0  0
   -3.1090   -2.0700    2.5150 H   0  0  0  0  0  0  0  0  0  0  0  0
   -3.1900   -3.8530   -0.8620 H   0  0  0  0  0  0  0  0  0  0  0  0
   -1.5180   -3.6370   -0.3630 H   0  0  0  0  0  0  0  0  0  0  0  0
   -3.1170   -2.1130   -2.5200 H   0  0  0  0  0  0  0  0  0  0  0  0
   -1.8710   -3.3380   -2.6880 H   0  0  0  0  0  0  0  0  0  0  0  0
   -0.1140   -2.0190   -1.8490 H   0  0  0  0  0  0  0  0  0  0  0  0
   -1.8640    0.4350   -1.6630 H   0  0  0  0  0  0  0  0  0  0  0  0
  1 12  1  0  0  0  0
  1  2  1  0  0  0  0
  2  3  1  0  0  0  0
  2 14  1  1  0  0  0
  3 15  1  0  0  0  0
  3 16  1  0  0  0  0
  4  3  1  0  0  0  0
  5 17  1  0  0  0  0
  5  4  2  0  0  0  0
  6  5  1  0  0  0  0
  7  6  2  0  0  0  0
  7  8  1  0  0  0  0
  8  9  2  0  0  0  0
  9  4  1  0  0  0  0
  9 21  1  0  0  0  0
 10 11  2  0  0  0  0
 10  2  1  0  0  0  0
 13  1  1  0  0  0  0
 18  6  1  0  0  0  0
 19  7  1  0  0  0  0
 20  8  1  0  0  0  0
 22 10  1  0  0  0  0
 23 30  1  0  0  0  0
 23 22  1  0  0  0  0
 24 23  1  0  0  0  0
 24 31  1  0  0  0  0
 25 33  1  0  0  0  0
 25 24  1  0  0  0  0
 25 26  1  0  0  0  0
 26 35  1  1  0  0  0
 26 22  1  0  0  0  0
 27 28  2  0  0  0  0
 27 26  1  0  0  0  0
 29 23  1  0  0  0  0
 32 24  1  0  0  0  0
 34 25  1  0  0  0  0
 36 46  1  0  0  0  0
 36 47  1  0  0  0  0
 37 36  1  0  0  0  0
 38 37  2  0  0  0  0
 39 49  1  0  0  0  0
 39 37  1  0  0  0  0
 40 39  1  0  0  0  0
 41 40  1  0  0  0  0
 41 52  1  1  0  0  0
 41 42  1  0  0  0  0
 42 27  1  0  0  0  0
 43 41  1  0  0  0  0
 44 43  1  0  0  0  0
 45 43  2  0  0  0  0
 48 39  1  0  0  0  0
 50 40  1  0  0  0  0
 51 40  1  0  0  0  0
 53 42  1  0  0  0  0
M  END
$$$$
