FPR.pdb
 OpenBabel07022419013D

 59 60  0  0  1  0  0  0  0  0999 V2000
    1.7870    2.5070   -2.0620 N   0  0  0  0  0  0  0  0  0  0  0  0
    1.7850    1.7020   -0.8090 C   0  0  1  0  0  0  0  0  0  0  0  0
    3.2100    1.9180   -0.2690 C   0  0  0  0  0  0  0  0  0  0  0  0
    3.4870    1.2260    0.9770 C   0  0  0  0  0  0  0  0  0  0  0  0
    4.0120   -0.0690    0.9900 C   0  0  0  0  0  0  0  0  0  0  0  0
    4.2580   -0.6860    2.1890 C   0  0  0  0  0  0  0  0  0  0  0  0
    4.0150   -0.0950    3.4080 C   0  0  0  0  0  0  0  0  0  0  0  0
    3.4970    1.1830    3.3950 C   0  0  0  0  0  0  0  0  0  0  0  0
    3.2370    1.8350    2.2080 C   0  0  0  0  0  0  0  0  0  0  0  0
    0.8580    2.2850    0.1670 C   0  0  0  0  0  0  0  0  0  0  0  0
    0.6180    3.5370    0.0040 O   0  0  0  0  0  0  0  0  0  0  0  0
    0.8850    2.2760   -2.5410 H   0  0  0  0  0  0  0  0  0  0  0  0
    2.5370    2.0410   -2.6450 H   0  0  0  0  0  0  0  0  0  0  0  0
    1.6100    0.6800   -1.1050 H   0  0  0  0  0  0  0  0  0  0  0  0
    3.3030    3.0300   -0.1710 H   0  0  0  0  0  0  0  0  0  0  0  0
    3.9210    1.6150   -1.0790 H   0  0  0  0  0  0  0  0  0  0  0  0
    4.2000   -0.5240    0.0250 H   0  0  0  0  0  0  0  0  0  0  0  0
    4.6660   -1.6910    2.1590 H   0  0  0  0  0  0  0  0  0  0  0  0
    4.2230   -0.6150    4.3360 H   0  0  0  0  0  0  0  0  0  0  0  0
    3.2980    1.6670    4.3350 H   0  0  0  0  0  0  0  0  0  0  0  0
    2.8310    2.8360    2.1940 H   0  0  0  0  0  0  0  0  0  0  0  0
    0.2160    1.6510    1.2320 N   0  0  0  0  0  0  0  0  0  0  0  0
   -0.6670    2.3040    2.2070 C   0  0  0  0  0  0  0  0  0  0  0  0
   -0.1770    1.6620    3.4800 C   0  0  0  0  0  0  0  0  0  0  0  0
    0.0350    0.2320    3.1040 C   0  0  0  0  0  0  0  0  0  0  0  0
    0.2440    0.2540    1.5840 C   0  0  1  0  0  0  0  0  0  0  0  0
   -0.9700   -0.4520    1.0110 C   0  0  0  0  0  0  0  0  0  0  0  0
   -1.8260    0.1840    0.3400 O   0  0  0  0  0  0  0  0  0  0  0  0
   -1.7200    2.0220    2.0380 H   0  0  0  0  0  0  0  0  0  0  0  0
   -0.5180    3.3820    2.2500 H   0  0  0  0  0  0  0  0  0  0  0  0
    0.7830    2.1020    3.8200 H   0  0  0  0  0  0  0  0  0  0  0  0
   -0.9370    1.7140    4.2870 H   0  0  0  0  0  0  0  0  0  0  0  0
    0.9140   -0.2230    3.6080 H   0  0  0  0  0  0  0  0  0  0  0  0
   -0.8700   -0.3430    3.3740 H   0  0  0  0  0  0  0  0  0  0  0  0
    1.1500   -0.2900    1.3620 H   0  0  0  0  0  0  0  0  0  0  0  0
   -4.3580   -4.9710   -3.4900 N   0  0  0  0  0  0  0  0  0  0  0  0
   -3.1740   -4.1990   -3.5540 C   0  0  0  0  0  0  0  0  0  0  0  0
   -2.2190   -4.5010   -4.3570 N   0  0  0  0  0  0  0  0  0  0  0  0
   -3.0680   -3.0740   -2.6980 N   0  0  0  0  0  0  0  0  0  0  0  0
   -1.8170   -2.5250   -2.2500 C   0  0  0  0  0  0  0  0  0  0  0  0
   -1.0790   -3.4450   -1.3170 C   0  0  0  0  0  0  0  0  0  0  0  0
   -1.8480   -3.7710   -0.0730 C   0  0  0  0  0  0  0  0  0  0  0  0
   -2.2020   -2.6010    0.7690 C   0  0  2  0  0  0  0  0  0  0  0  0
   -1.0950   -1.8450    1.2620 N   0  0  0  0  0  0  0  0  0  0  0  0
   -3.0170   -3.1020    1.9200 C   0  0  0  0  0  0  0  0  0  0  0  0
   -2.7220   -2.8660    3.1060 O   0  0  0  0  0  0  0  0  0  0  0  0
   -4.1390   -3.8550    1.6130 O   0  0  0  0  0  0  0  0  0  0  0  0
   -5.2090   -4.6230   -3.0170 H   0  0  0  0  0  0  0  0  0  0  0  0
   -4.3770   -5.9100   -3.9250 H   0  0  0  0  0  0  0  0  0  0  0  0
   -1.3710   -3.9090   -4.3720 H   0  0  0  0  0  0  0  0  0  0  0  0
   -3.9690   -2.6350   -2.3890 H   0  0  0  0  0  0  0  0  0  0  0  0
   -1.1750   -2.3490   -3.1320 H   0  0  0  0  0  0  0  0  0  0  0  0
   -1.9850   -1.5190   -1.8090 H   0  0  0  0  0  0  0  0  0  0  0  0
   -0.8650   -4.3820   -1.8620 H   0  0  0  0  0  0  0  0  0  0  0  0
   -0.1250   -2.9840   -1.0430 H   0  0  0  0  0  0  0  0  0  0  0  0
   -2.7910   -4.2810   -0.3640 H   0  0  0  0  0  0  0  0  0  0  0  0
   -1.2670   -4.5040    0.5220 H   0  0  0  0  0  0  0  0  0  0  0  0
   -2.8810   -1.9360    0.1960 H   0  0  0  0  0  0  0  0  0  0  0  0
   -0.3350   -2.3190    1.8350 H   0  0  0  0  0  0  0  0  0  0  0  0
  1  2  1  0  0  0  0
  2 14  1  6  0  0  0
  2  3  1  0  0  0  0
  2 10  1  0  0  0  0
  3 15  1  0  0  0  0
  3  4  1  0  0  0  0
  4  5  2  0  0  0  0
  4  9  1  0  0  0  0
  5  6  1  0  0  0  0
  6  7  2  0  0  0  0
  7 19  1  0  0  0  0
  8  7  1  0  0  0  0
  8 20  1  0  0  0  0
  9  8  2  0  0  0  0
 10 22  1  0  0  0  0
 11 10  2  0  0  0  0
 12  1  1  0  0  0  0
 13  1  1  0  0  0  0
 16  3  1  0  0  0  0
 17  5  1  0  0  0  0
 18  6  1  0  0  0  0
 21  9  1  0  0  0  0
 22 26  1  0  0  0  0
 22 23  1  0  0  0  0
 23 30  1  0  0  0  0
 23 24  1  0  0  0  0
 24 31  1  0  0  0  0
 24 32  1  0  0  0  0
 25 34  1  0  0  0  0
 25 24  1  0  0  0  0
 25 33  1  0  0  0  0
 26 35  1  6  0  0  0
 26 25  1  0  0  0  0
 27 44  1  0  0  0  0
 27 26  1  0  0  0  0
 28 27  2  0  0  0  0
 29 23  1  0  0  0  0
 36 48  1  0  0  0  0
 37 36  1  0  0  0  0
 37 39  1  0  0  0  0
 38 37  2  0  0  0  0
 39 51  1  0  0  0  0
 39 40  1  0  0  0  0
 40 53  1  0  0  0  0
 40 41  1  0  0  0  0
 41 55  1  0  0  0  0
 41 42  1  0  0  0  0
 42 57  1  0  0  0  0
 42 43  1  0  0  0  0
 43 58  1  6  0  0  0
 43 44  1  0  0  0  0
 43 45  1  0  0  0  0
 44 59  1  0  0  0  0
 45 46  1  0  0  0  0
 47 45  2  0  0  0  0
 49 36  1  0  0  0  0
 50 38  1  0  0  0  0
 52 40  1  0  0  0  0
 54 41  1  0  0  0  0
 56 42  1  0  0  0  0
M  END
$$$$
