FPT.pdb
 OpenBabel07022419013D

 50 51  0  0  1  0  0  0  0  0999 V2000
    1.7440   -4.0380    2.0080 N   0  0  0  0  0  0  0  0  0  0  0  0
    2.0140   -2.5880    1.7230 C   0  0  1  0  0  0  0  0  0  0  0  0
    2.5110   -2.5640    0.3050 C   0  0  0  0  0  0  0  0  0  0  0  0
    2.8580   -1.2330   -0.1960 C   0  0  0  0  0  0  0  0  0  0  0  0
    1.9970   -0.3840   -0.8360 C   0  0  0  0  0  0  0  0  0  0  0  0
    2.4360    0.8370   -1.2660 C   0  0  0  0  0  0  0  0  0  0  0  0
    3.7350    1.2670   -1.0830 C   0  0  0  0  0  0  0  0  0  0  0  0
    4.6030    0.4320   -0.4460 C   0  0  0  0  0  0  0  0  0  0  0  0
    4.1670   -0.7960   -0.0120 C   0  0  0  0  0  0  0  0  0  0  0  0
    0.7810   -1.8460    1.9810 C   0  0  0  0  0  0  0  0  0  0  0  0
   -0.3100   -2.5090    1.8870 O   0  0  0  0  0  0  0  0  0  0  0  0
    0.9660   -4.2680    1.3390 H   0  0  0  0  0  0  0  0  0  0  0  0
    1.3430   -4.1070    2.9550 H   0  0  0  0  0  0  0  0  0  0  0  0
    2.8330   -2.3170    2.3960 H   0  0  0  0  0  0  0  0  0  0  0  0
    3.4550   -3.1870    0.3130 H   0  0  0  0  0  0  0  0  0  0  0  0
    1.8420   -3.1260   -0.3870 H   0  0  0  0  0  0  0  0  0  0  0  0
    0.9810   -0.6760   -1.0060 H   0  0  0  0  0  0  0  0  0  0  0  0
    1.7870    1.5470   -1.7820 H   0  0  0  0  0  0  0  0  0  0  0  0
    4.0660    2.2410   -1.4310 H   0  0  0  0  0  0  0  0  0  0  0  0
    5.6370    0.6980   -0.2650 H   0  0  0  0  0  0  0  0  0  0  0  0
    4.8910   -1.4480    0.4980 H   0  0  0  0  0  0  0  0  0  0  0  0
    0.6510   -0.4790    2.3280 N   0  0  0  0  0  0  0  0  0  0  0  0
    1.7240    0.4800    2.5820 C   0  0  0  0  0  0  0  0  0  0  0  0
    1.1760    1.7870    2.0830 C   0  0  0  0  0  0  0  0  0  0  0  0
   -0.2780    1.5670    1.8070 C   0  0  0  0  0  0  0  0  0  0  0  0
   -0.5630    0.2550    2.5370 C   0  0  1  0  0  0  0  0  0  0  0  0
   -1.7720   -0.3670    2.0060 C   0  0  0  0  0  0  0  0  0  0  0  0
   -2.7690   -0.4840    2.7660 O   0  0  0  0  0  0  0  0  0  0  0  0
    1.7530    0.5440    3.7240 H   0  0  0  0  0  0  0  0  0  0  0  0
    2.7000    0.1970    2.2300 H   0  0  0  0  0  0  0  0  0  0  0  0
    1.7330    2.1760    1.2060 H   0  0  0  0  0  0  0  0  0  0  0  0
    1.2420    2.5880    2.8590 H   0  0  0  0  0  0  0  0  0  0  0  0
   -0.9200    2.3860    2.1930 H   0  0  0  0  0  0  0  0  0  0  0  0
   -0.4030    1.4300    0.7090 H   0  0  0  0  0  0  0  0  0  0  0  0
   -0.6790    0.5430    3.6060 H   0  0  0  0  0  0  0  0  0  0  0  0
   -4.2070    0.7800    0.0940 C   0  0  0  0  0  0  0  0  0  0  0  0
   -3.8840   -0.4560   -0.7080 C   0  0  1  0  0  0  0  0  0  0  0  0
   -3.0870   -0.1770   -1.7930 O   0  0  0  0  0  0  0  0  0  0  0  0
   -3.1760   -1.4540    0.2300 C   0  0  2  0  0  0  0  0  0  0  0  0
   -1.9180   -0.8460    0.6840 N   0  0  0  0  0  0  0  0  0  0  0  0
   -2.9890   -2.7290   -0.4740 C   0  0  0  0  0  0  0  0  0  0  0  0
   -1.8420   -3.1820   -0.6630 O   0  0  0  0  0  0  0  0  0  0  0  0
   -4.0860   -3.4180   -0.9220 O   0  0  0  0  0  0  0  0  0  0  0  0
   -3.3250    1.4170    0.2560 H   0  0  0  0  0  0  0  0  0  0  0  0
   -4.9610    1.3610   -0.5100 H   0  0  0  0  0  0  0  0  0  0  0  0
   -4.6640    0.5360    1.0540 H   0  0  0  0  0  0  0  0  0  0  0  0
   -4.8390   -0.9380   -0.9850 H   0  0  0  0  0  0  0  0  0  0  0  0
   -3.6110    0.1150   -2.5740 H   0  0  0  0  0  0  0  0  0  0  0  0
   -3.8900   -1.6040    1.0600 H   0  0  0  0  0  0  0  0  0  0  0  0
   -1.1450   -0.7670    0.0170 H   0  0  0  0  0  0  0  0  0  0  0  0
  1 13  1  0  0  0  0
  2 10  1  0  0  0  0
  2  1  1  0  0  0  0
  2 14  1  1  0  0  0
  3 15  1  0  0  0  0
  3  2  1  0  0  0  0
  4  9  1  0  0  0  0
  4  3  1  0  0  0  0
  5  4  2  0  0  0  0
  6  7  2  0  0  0  0
  6  5  1  0  0  0  0
  7  8  1  0  0  0  0
  8 20  1  0  0  0  0
  8  9  2  0  0  0  0
  9 21  1  0  0  0  0
 10 22  1  0  0  0  0
 11 10  2  0  0  0  0
 12  1  1  0  0  0  0
 16  3  1  0  0  0  0
 17  5  1  0  0  0  0
 18  6  1  0  0  0  0
 19  7  1  0  0  0  0
 22 26  1  0  0  0  0
 22 23  1  0  0  0  0
 23 29  1  0  0  0  0
 24 23  1  0  0  0  0
 24 32  1  0  0  0  0
 25 24  1  0  0  0  0
 25 33  1  0  0  0  0
 25 26  1  0  0  0  0
 26 35  1  1  0  0  0
 27 26  1  0  0  0  0
 27 28  2  0  0  0  0
 30 23  1  0  0  0  0
 31 24  1  0  0  0  0
 34 25  1  0  0  0  0
 36 44  1  0  0  0  0
 36 46  1  0  0  0  0
 37 47  1  6  0  0  0
 37 36  1  0  0  0  0
 37 39  1  0  0  0  0
 38 37  1  0  0  0  0
 39 40  1  0  0  0  0
 39 49  1  1  0  0  0
 40 27  1  0  0  0  0
 41 39  1  0  0  0  0
 42 41  1  0  0  0  0
 43 41  2  0  0  0  0
 45 36  1  0  0  0  0
 48 38  1  0  0  0  0
 50 40  1  0  0  0  0
M  END
$$$$
