FPW.pdb
 OpenBabel07022419013D

 60 63  0  0  1  0  0  0  0  0999 V2000
    3.2780   -1.3680   -0.2500 N   0  0  0  0  0  0  0  0  0  0  0  0
    1.9870   -1.0060    0.3810 C   0  0  1  0  0  0  0  0  0  0  0  0
    2.1270   -1.1850    1.8860 C   0  0  0  0  0  0  0  0  0  0  0  0
    3.2130   -0.3060    2.4280 C   0  0  0  0  0  0  0  0  0  0  0  0
    4.5170   -0.7670    2.4980 C   0  0  0  0  0  0  0  0  0  0  0  0
    5.5320    0.0270    2.9960 C   0  0  0  0  0  0  0  0  0  0  0  0
    5.2880    1.3110    3.4420 C   0  0  0  0  0  0  0  0  0  0  0  0
    3.9890    1.7680    3.3710 C   0  0  0  0  0  0  0  0  0  0  0  0
    2.9740    0.9770    2.8750 C   0  0  0  0  0  0  0  0  0  0  0  0
    1.6520    0.3730   -0.0140 C   0  0  0  0  0  0  0  0  0  0  0  0
    2.5960    1.0860   -0.4930 O   0  0  0  0  0  0  0  0  0  0  0  0
    4.0210   -0.7160    0.0460 H   0  0  0  0  0  0  0  0  0  0  0  0
    3.5000   -2.3480    0.0290 H   0  0  0  0  0  0  0  0  0  0  0  0
    1.2630   -1.7550    0.0280 H   0  0  0  0  0  0  0  0  0  0  0  0
    2.4360   -2.2210    2.1300 H   0  0  0  0  0  0  0  0  0  0  0  0
    1.1950   -0.9470    2.3880 H   0  0  0  0  0  0  0  0  0  0  0  0
    4.7090   -1.7840    2.1450 H   0  0  0  0  0  0  0  0  0  0  0  0
    6.5510   -0.3380    3.0490 H   0  0  0  0  0  0  0  0  0  0  0  0
    6.0970    1.9230    3.8310 H   0  0  0  0  0  0  0  0  0  0  0  0
    3.7840    2.7710    3.7170 H   0  0  0  0  0  0  0  0  0  0  0  0
    1.9570    1.3390    2.8200 H   0  0  0  0  0  0  0  0  0  0  0  0
    0.3770    0.9810    0.0860 N   0  0  0  0  0  0  0  0  0  0  0  0
    0.1260    2.3700   -0.3120 C   0  0  0  0  0  0  0  0  0  0  0  0
   -1.2450    2.7290    0.1560 C   0  0  0  0  0  0  0  0  0  0  0  0
   -1.5960    1.6380    1.1600 C   0  0  0  0  0  0  0  0  0  0  0  0
   -0.8650    0.4500    0.5270 C   0  0  1  0  0  0  0  0  0  0  0  0
   -1.7110   -0.0540   -0.5910 C   0  0  0  0  0  0  0  0  0  0  0  0
   -1.2430   -0.0640   -1.7680 O   0  0  0  0  0  0  0  0  0  0  0  0
    0.2250    2.4440   -1.4080 H   0  0  0  0  0  0  0  0  0  0  0  0
    0.8530    3.0560    0.1680 H   0  0  0  0  0  0  0  0  0  0  0  0
   -1.2890    3.7110    0.6610 H   0  0  0  0  0  0  0  0  0  0  0  0
   -1.9930    2.7390   -0.6750 H   0  0  0  0  0  0  0  0  0  0  0  0
   -1.1340    1.8330    2.1280 H   0  0  0  0  0  0  0  0  0  0  0  0
   -2.6740    1.4360    1.1910 H   0  0  0  0  0  0  0  0  0  0  0  0
   -0.7550   -0.2770    1.3300 H   0  0  0  0  0  0  0  0  0  0  0  0
   -3.0320   -0.5350   -0.4360 N   0  0  0  0  0  0  0  0  0  0  0  0
   -3.8430   -1.0210   -1.5120 C   0  0  1  0  0  0  0  0  0  0  0  0
   -4.0960   -2.4860   -1.3480 C   0  0  0  0  0  0  0  0  0  0  0  0
   -2.7940   -3.2050   -1.3520 C   0  0  0  0  0  0  0  0  0  0  0  0
   -2.1930   -3.8060   -2.4680 C   0  0  0  0  0  0  0  0  0  0  0  0
   -1.0080   -4.3420   -2.1440 N   0  0  0  0  0  0  0  0  0  0  0  0
   -0.8220   -4.1050   -0.8400 C   0  0  0  0  0  0  0  0  0  0  0  0
    0.2520   -4.4710   -0.0310 C   0  0  0  0  0  0  0  0  0  0  0  0
    0.2430   -4.1400    1.2960 C   0  0  0  0  0  0  0  0  0  0  0  0
   -0.8310   -3.4530    1.7990 C   0  0  0  0  0  0  0  0  0  0  0  0
   -1.9130   -3.0760    1.0110 C   0  0  0  0  0  0  0  0  0  0  0  0
   -1.8980   -3.4100   -0.3240 C   0  0  0  0  0  0  0  0  0  0  0  0
   -5.0600   -0.2340   -1.7300 C   0  0  0  0  0  0  0  0  0  0  0  0
   -5.8530   -0.5500   -2.6340 O   0  0  0  0  0  0  0  0  0  0  0  0
   -5.3200    0.8510   -0.9350 O   0  0  0  0  0  0  0  0  0  0  0  0
   -3.4340   -0.5190    0.5200 H   0  0  0  0  0  0  0  0  0  0  0  0
   -3.2100   -0.9360   -2.4550 H   0  0  0  0  0  0  0  0  0  0  0  0
   -4.7840   -2.8930   -2.1290 H   0  0  0  0  0  0  0  0  0  0  0  0
   -4.6020   -2.7020   -0.3830 H   0  0  0  0  0  0  0  0  0  0  0  0
   -2.6690   -3.8050   -3.4280 H   0  0  0  0  0  0  0  0  0  0  0  0
   -0.3360   -4.8490   -2.7530 H   0  0  0  0  0  0  0  0  0  0  0  0
    1.1000   -5.0200   -0.4480 H   0  0  0  0  0  0  0  0  0  0  0  0
    1.0950   -4.4390    1.8970 H   0  0  0  0  0  0  0  0  0  0  0  0
   -0.8370   -3.1900    2.8560 H   0  0  0  0  0  0  0  0  0  0  0  0
   -2.7410   -2.5540    1.4280 H   0  0  0  0  0  0  0  0  0  0  0  0
  1 13  1  0  0  0  0
  1 12  1  0  0  0  0
  1  2  1  0  0  0  0
  2 14  1  6  0  0  0
  2  3  1  0  0  0  0
  3 15  1  0  0  0  0
  3 16  1  0  0  0  0
  3  4  1  0  0  0  0
  4  5  2  0  0  0  0
  4  9  1  0  0  0  0
  5  6  1  0  0  0  0
  6 18  1  0  0  0  0
  6  7  2  0  0  0  0
  7 19  1  0  0  0  0
  8  7  1  0  0  0  0
  8 20  1  0  0  0  0
  9  8  2  0  0  0  0
 10 22  1  0  0  0  0
 10  2  1  0  0  0  0
 11 10  2  0  0  0  0
 17  5  1  0  0  0  0
 21  9  1  0  0  0  0
 22 26  1  0  0  0  0
 23 22  1  0  0  0  0
 23 24  1  0  0  0  0
 23 30  1  0  0  0  0
 24 31  1  0  0  0  0
 24 25  1  0  0  0  0
 25 34  1  0  0  0  0
 25 33  1  0  0  0  0
 26 25  1  0  0  0  0
 26 35  1  1  0  0  0
 27 36  1  0  0  0  0
 27 26  1  0  0  0  0
 28 27  2  0  0  0  0
 29 23  1  0  0  0  0
 32 24  1  0  0  0  0
 36 51  1  0  0  0  0
 37 52  1  6  0  0  0
 37 38  1  0  0  0  0
 37 36  1  0  0  0  0
 38 54  1  0  0  0  0
 39 38  1  0  0  0  0
 39 47  1  0  0  0  0
 40 41  1  0  0  0  0
 40 39  2  0  0  0  0
 41 42  1  0  0  0  0
 42 47  2  0  0  0  0
 42 43  1  0  0  0  0
 43 44  2  0  0  0  0
 44 45  1  0  0  0  0
 44 58  1  0  0  0  0
 45 59  1  0  0  0  0
 46 60  1  0  0  0  0
 46 45  2  0  0  0  0
 47 46  1  0  0  0  0
 48 37  1  0  0  0  0
 48 50  1  0  0  0  0
 49 48  2  0  0  0  0
 53 38  1  0  0  0  0
 55 40  1  0  0  0  0
 56 41  1  0  0  0  0
 57 43  1  0  0  0  0
M  END
$$$$
