FPY.pdb
 OpenBabel07022419013D

 57 59  0  0  1  0  0  0  0  0999 V2000
    1.1520    2.1090    2.1420 N   0  0  0  0  0  0  0  0  0  0  0  0
    0.7940    1.5340    0.8680 C   0  0  1  0  0  0  0  0  0  0  0  0
    1.9100    0.6250    0.3970 C   0  0  0  0  0  0  0  0  0  0  0  0
    3.1510    1.4400    0.2650 C   0  0  0  0  0  0  0  0  0  0  0  0
    4.0280    1.5570    1.3270 C   0  0  0  0  0  0  0  0  0  0  0  0
    5.1960    2.3180    1.2350 C   0  0  0  0  0  0  0  0  0  0  0  0
    5.5100    2.9800    0.0740 C   0  0  0  0  0  0  0  0  0  0  0  0
    4.6350    2.8630   -0.9840 C   0  0  0  0  0  0  0  0  0  0  0  0
    3.4780    2.1120   -0.9000 C   0  0  0  0  0  0  0  0  0  0  0  0
   -0.4780    0.7770    0.9110 C   0  0  0  0  0  0  0  0  0  0  0  0
   -0.7550    0.1190   -0.1530 O   0  0  0  0  0  0  0  0  0  0  0  0
    1.9060    2.8000    2.0170 H   0  0  0  0  0  0  0  0  0  0  0  0
    1.5110    1.3810    2.7950 H   0  0  0  0  0  0  0  0  0  0  0  0
    0.7460    2.3470    0.0820 H   0  0  0  0  0  0  0  0  0  0  0  0
    2.0900   -0.2270    1.0660 H   0  0  0  0  0  0  0  0  0  0  0  0
    1.6330    0.2220   -0.6060 H   0  0  0  0  0  0  0  0  0  0  0  0
    3.8090    1.0450    2.2530 H   0  0  0  0  0  0  0  0  0  0  0  0
    5.8720    2.3990    2.0790 H   0  0  0  0  0  0  0  0  0  0  0  0
    6.4140    3.5670    0.0090 H   0  0  0  0  0  0  0  0  0  0  0  0
    4.8780    3.3890   -1.9180 H   0  0  0  0  0  0  0  0  0  0  0  0
    2.8110    2.0360   -1.7380 H   0  0  0  0  0  0  0  0  0  0  0  0
   -1.3680    0.7210    1.9700 N   0  0  0  0  0  0  0  0  0  0  0  0
   -1.2420    1.4420    3.2440 C   0  0  0  0  0  0  0  0  0  0  0  0
   -2.6450    1.4850    3.8310 C   0  0  0  0  0  0  0  0  0  0  0  0
   -3.5600    0.8880    2.7810 C   0  0  0  0  0  0  0  0  0  0  0  0
   -2.5970   -0.0370    2.0600 C   0  0  1  0  0  0  0  0  0  0  0  0
   -3.0940   -0.6380    0.8450 C   0  0  0  0  0  0  0  0  0  0  0  0
   -4.0850   -0.1920    0.1710 O   0  0  0  0  0  0  0  0  0  0  0  0
   -0.9520    2.4840    3.0560 H   0  0  0  0  0  0  0  0  0  0  0  0
   -0.5400    0.9810    3.9350 H   0  0  0  0  0  0  0  0  0  0  0  0
   -3.0010    2.5470    3.9670 H   0  0  0  0  0  0  0  0  0  0  0  0
   -2.6390    0.9300    4.7720 H   0  0  0  0  0  0  0  0  0  0  0  0
   -4.0070    1.6280    2.1150 H   0  0  0  0  0  0  0  0  0  0  0  0
   -4.3260    0.2810    3.2990 H   0  0  0  0  0  0  0  0  0  0  0  0
   -2.3610   -0.8350    2.8450 H   0  0  0  0  0  0  0  0  0  0  0  0
    2.4650   -6.0250   -1.2050 O   0  0  0  0  0  0  0  0  0  0  0  0
    1.3070   -5.2700   -1.4110 C   0  0  0  0  0  0  0  0  0  0  0  0
    1.4230   -3.9000   -1.2170 C   0  0  0  0  0  0  0  0  0  0  0  0
    0.2970   -3.1390   -1.4150 C   0  0  0  0  0  0  0  0  0  0  0  0
   -0.9260   -3.6440   -1.7900 C   0  0  0  0  0  0  0  0  0  0  0  0
   -2.0380   -2.7550   -1.9730 C   0  0  0  0  0  0  0  0  0  0  0  0
   -2.9630   -2.4310   -0.8970 C   0  0  2  0  0  0  0  0  0  0  0  0
   -2.5060   -1.8100    0.2890 N   0  0  0  0  0  0  0  0  0  0  0  0
   -3.8250   -3.5870   -0.4720 C   0  0  0  0  0  0  0  0  0  0  0  0
   -4.3360   -4.2830   -1.3700 O   0  0  0  0  0  0  0  0  0  0  0  0
   -0.9950   -5.0140   -1.9720 C   0  0  0  0  0  0  0  0  0  0  0  0
    0.1130   -5.8370   -1.7860 C   0  0  0  0  0  0  0  0  0  0  0  0
   -4.0660   -3.8970    0.8440 O   0  0  0  0  0  0  0  0  0  0  0  0
    3.2710   -5.9330   -1.8370 H   0  0  0  0  0  0  0  0  0  0  0  0
    2.3710   -3.4520   -0.9190 H   0  0  0  0  0  0  0  0  0  0  0  0
    0.4480   -2.0590   -1.2490 H   0  0  0  0  0  0  0  0  0  0  0  0
   -1.6490   -1.7840   -2.4060 H   0  0  0  0  0  0  0  0  0  0  0  0
   -2.6620   -3.1650   -2.8280 H   0  0  0  0  0  0  0  0  0  0  0  0
   -3.7450   -1.7320   -1.3380 H   0  0  0  0  0  0  0  0  0  0  0  0
   -1.6740   -2.2800    0.7660 H   0  0  0  0  0  0  0  0  0  0  0  0
   -1.9140   -5.4880   -2.2630 H   0  0  0  0  0  0  0  0  0  0  0  0
    0.0480   -6.9130   -1.9310 H   0  0  0  0  0  0  0  0  0  0  0  0
  1 13  1  0  0  0  0
  2 14  1  6  0  0  0
  2 10  1  0  0  0  0
  2  1  1  0  0  0  0
  3  2  1  0  0  0  0
  3 15  1  0  0  0  0
  4  3  1  0  0  0  0
  4  5  1  0  0  0  0
  5 17  1  0  0  0  0
  6  5  2  0  0  0  0
  6 18  1  0  0  0  0
  7  6  1  0  0  0  0
  8  9  1  0  0  0  0
  8  7  2  0  0  0  0
  9  4  2  0  0  0  0
 10 22  1  0  0  0  0
 11 10  2  0  0  0  0
 12  1  1  0  0  0  0
 16  3  1  0  0  0  0
 19  7  1  0  0  0  0
 20  8  1  0  0  0  0
 21  9  1  0  0  0  0
 22 26  1  0  0  0  0
 22 23  1  0  0  0  0
 23 24  1  0  0  0  0
 23 30  1  0  0  0  0
 24 31  1  0  0  0  0
 24 32  1  0  0  0  0
 25 34  1  0  0  0  0
 25 24  1  0  0  0  0
 26 25  1  0  0  0  0
 26 35  1  1  0  0  0
 27 26  1  0  0  0  0
 28 27  2  0  0  0  0
 29 23  1  0  0  0  0
 33 25  1  0  0  0  0
 37 38  1  0  0  0  0
 37 36  1  0  0  0  0
 38 50  1  0  0  0  0
 39 51  1  0  0  0  0
 39 38  2  0  0  0  0
 40 39  1  0  0  0  0
 41 40  1  0  0  0  0
 41 42  1  0  0  0  0
 42 54  1  6  0  0  0
 42 44  1  0  0  0  0
 42 43  1  0  0  0  0
 43 55  1  0  0  0  0
 43 27  1  0  0  0  0
 44 48  1  0  0  0  0
 45 44  2  0  0  0  0
 46 40  2  0  0  0  0
 46 47  1  0  0  0  0
 47 37  2  0  0  0  0
 49 36  1  0  0  0  0
 52 41  1  0  0  0  0
 53 41  1  0  0  0  0
 56 46  1  0  0  0  0
 57 47  1  0  0  0  0
M  END
$$$$
