FQA.pdb
 OpenBabel07022418593D

 49 49  0  0  1  0  0  0  0  0999 V2000
    1.3390   -3.2720   -0.8940 N   0  0  0  0  0  0  0  0  0  0  0  0
    1.8430   -2.6600    0.3190 C   0  0  1  0  0  0  0  0  0  0  0  0
    3.2800   -2.2620    0.0660 C   0  0  0  0  0  0  0  0  0  0  0  0
    3.9380   -1.6210    1.2070 C   0  0  0  0  0  0  0  0  0  0  0  0
    3.9610   -0.2370    1.4180 C   0  0  0  0  0  0  0  0  0  0  0  0
    4.5890    0.3300    2.4980 C   0  0  0  0  0  0  0  0  0  0  0  0
    5.2290   -0.4530    3.4250 C   0  0  0  0  0  0  0  0  0  0  0  0
    5.2070   -1.8200    3.2170 C   0  0  0  0  0  0  0  0  0  0  0  0
    4.5830   -2.4130    2.1420 C   0  0  0  0  0  0  0  0  0  0  0  0
    1.0790   -1.4920    0.7420 C   0  0  0  0  0  0  0  0  0  0  0  0
    1.3570   -0.9610    1.8410 O   0  0  0  0  0  0  0  0  0  0  0  0
    0.2970   -3.2930   -0.9240 H   0  0  0  0  0  0  0  0  0  0  0  0
    1.7820   -4.1800   -1.0990 H   0  0  0  0  0  0  0  0  0  0  0  0
    1.8180   -3.4100    1.1430 H   0  0  0  0  0  0  0  0  0  0  0  0
    3.3260   -1.6200   -0.8410 H   0  0  0  0  0  0  0  0  0  0  0  0
    3.8220   -3.2320   -0.1430 H   0  0  0  0  0  0  0  0  0  0  0  0
    3.4520    0.3730    0.6750 H   0  0  0  0  0  0  0  0  0  0  0  0
    4.5820    1.3950    2.6200 H   0  0  0  0  0  0  0  0  0  0  0  0
    5.7450   -0.0510    4.3030 H   0  0  0  0  0  0  0  0  0  0  0  0
    5.7180   -2.4400    3.9590 H   0  0  0  0  0  0  0  0  0  0  0  0
    4.5790   -3.5050    2.0000 H   0  0  0  0  0  0  0  0  0  0  0  0
   -1.2780    5.0730   -0.7030 N   0  0  0  0  0  0  0  0  0  0  0  0
   -0.7690    3.7800   -0.9490 C   0  0  0  0  0  0  0  0  0  0  0  0
   -0.0880    3.5430   -1.9560 O   0  0  0  0  0  0  0  0  0  0  0  0
   -1.1040    2.7220    0.0780 C   0  0  0  0  0  0  0  0  0  0  0  0
   -0.4520    1.4630   -0.3770 C   0  0  0  0  0  0  0  0  0  0  0  0
   -0.6660    0.2770    0.5320 C   0  0  2  0  0  0  0  0  0  0  0  0
    0.0260   -0.9030   -0.0150 N   0  0  0  0  0  0  0  0  0  0  0  0
   -2.1110   -0.0400    0.7120 C   0  0  0  0  0  0  0  0  0  0  0  0
   -2.9420    0.7710    1.1820 O   0  0  0  0  0  0  0  0  0  0  0  0
   -1.3950    5.4120    0.2650 H   0  0  0  0  0  0  0  0  0  0  0  0
   -1.5360    5.6900   -1.4910 H   0  0  0  0  0  0  0  0  0  0  0  0
   -2.2190    2.6610    0.0830 H   0  0  0  0  0  0  0  0  0  0  0  0
   -0.7600    3.0970    1.0440 H   0  0  0  0  0  0  0  0  0  0  0  0
    0.6410    1.5850   -0.5000 H   0  0  0  0  0  0  0  0  0  0  0  0
   -0.8380    1.2440   -1.4130 H   0  0  0  0  0  0  0  0  0  0  0  0
   -0.2510    0.5290    1.5130 H   0  0  0  0  0  0  0  0  0  0  0  0
   -0.2250   -1.3140   -0.9270 H   0  0  0  0  0  0  0  0  0  0  0  0
   -4.6250   -1.9950   -0.8380 C   0  0  0  0  0  0  0  0  0  0  0  0
   -4.0050   -1.6370    0.5030 C   0  0  2  0  0  0  0  0  0  0  0  0
   -2.6020   -1.3130    0.3390 N   0  0  0  0  0  0  0  0  0  0  0  0
   -4.2200   -2.7660    1.4310 C   0  0  0  0  0  0  0  0  0  0  0  0
   -3.2910   -3.3640    2.0050 O   0  0  0  0  0  0  0  0  0  0  0  0
   -5.5210   -3.1830    1.6780 O   0  0  0  0  0  0  0  0  0  0  0  0
   -3.8610   -2.5580   -1.4180 H   0  0  0  0  0  0  0  0  0  0  0  0
   -5.4910   -2.6450   -0.7000 H   0  0  0  0  0  0  0  0  0  0  0  0
   -4.8680   -1.0260   -1.3420 H   0  0  0  0  0  0  0  0  0  0  0  0
   -4.5140   -0.7580    0.9440 H   0  0  0  0  0  0  0  0  0  0  0  0
   -1.9120   -2.0040   -0.0550 H   0  0  0  0  0  0  0  0  0  0  0  0
  1  2  1  0  0  0  0
  2 10  1  0  0  0  0
  2 14  1  1  0  0  0
  3  2  1  0  0  0  0
  3  4  1  0  0  0  0
  4  5  2  0  0  0  0
  4  9  1  0  0  0  0
  5  6  1  0  0  0  0
  6 18  1  0  0  0  0
  6  7  2  0  0  0  0
  7 19  1  0  0  0  0
  8  7  1  0  0  0  0
  8 20  1  0  0  0  0
  9  8  2  0  0  0  0
 10 11  2  0  0  0  0
 12  1  1  0  0  0  0
 13  1  1  0  0  0  0
 15  3  1  0  0  0  0
 16  3  1  0  0  0  0
 17  5  1  0  0  0  0
 21  9  1  0  0  0  0
 22 31  1  0  0  0  0
 23 22  1  0  0  0  0
 23 25  1  0  0  0  0
 24 23  2  0  0  0  0
 25 33  1  0  0  0  0
 25 34  1  0  0  0  0
 26 25  1  0  0  0  0
 26 27  1  0  0  0  0
 27 29  1  0  0  0  0
 27 37  1  1  0  0  0
 28 27  1  0  0  0  0
 28 10  1  0  0  0  0
 29 30  2  0  0  0  0
 32 22  1  0  0  0  0
 35 26  1  0  0  0  0
 36 26  1  0  0  0  0
 38 28  1  0  0  0  0
 39 46  1  0  0  0  0
 39 40  1  0  0  0  0
 40 48  1  1  0  0  0
 40 42  1  0  0  0  0
 41 40  1  0  0  0  0
 41 29  1  0  0  0  0
 42 44  2  0  0  0  0
 42 43  1  0  0  0  0
 45 39  1  0  0  0  0
 47 39  1  0  0  0  0
 49 41  1  0  0  0  0
M  END
$$$$
