FQC.pdb
 OpenBabel07022418593D

 50 50  0  0  1  0  0  0  0  0999 V2000
    1.4900   -3.2430    1.3440 N   0  0  0  0  0  0  0  0  0  0  0  0
    0.8750   -2.0990    1.9530 C   0  0  1  0  0  0  0  0  0  0  0  0
    1.9690   -1.3840    2.7350 C   0  0  0  0  0  0  0  0  0  0  0  0
    3.0530   -1.0110    1.8150 C   0  0  0  0  0  0  0  0  0  0  0  0
    3.1080    0.1790    1.1350 C   0  0  0  0  0  0  0  0  0  0  0  0
    4.1630    0.4900    0.2680 C   0  0  0  0  0  0  0  0  0  0  0  0
    5.1840   -0.4300    0.0900 C   0  0  0  0  0  0  0  0  0  0  0  0
    5.1360   -1.6150    0.7630 C   0  0  0  0  0  0  0  0  0  0  0  0
    4.1040   -1.9000    1.6000 C   0  0  0  0  0  0  0  0  0  0  0  0
    0.1880   -1.2080    1.0150 C   0  0  0  0  0  0  0  0  0  0  0  0
    0.4140   -1.2680   -0.2130 O   0  0  0  0  0  0  0  0  0  0  0  0
    1.8040   -3.8750    2.1260 H   0  0  0  0  0  0  0  0  0  0  0  0
    0.7770   -3.8110    0.7990 H   0  0  0  0  0  0  0  0  0  0  0  0
    0.1230   -2.4680    2.6930 H   0  0  0  0  0  0  0  0  0  0  0  0
    2.3650   -2.1210    3.4670 H   0  0  0  0  0  0  0  0  0  0  0  0
    1.5240   -0.5270    3.2510 H   0  0  0  0  0  0  0  0  0  0  0  0
    2.3540    0.9240    1.2310 H   0  0  0  0  0  0  0  0  0  0  0  0
    4.1700    1.4410   -0.2510 H   0  0  0  0  0  0  0  0  0  0  0  0
    5.9770   -0.1530   -0.5850 H   0  0  0  0  0  0  0  0  0  0  0  0
    5.9600   -2.3240    0.6010 H   0  0  0  0  0  0  0  0  0  0  0  0
    4.0620   -2.8390    2.1360 H   0  0  0  0  0  0  0  0  0  0  0  0
   -1.0010    3.7890    3.4110 N   0  0  0  0  0  0  0  0  0  0  0  0
   -1.2550    3.2300    2.1280 C   0  0  0  0  0  0  0  0  0  0  0  0
   -2.4100    3.3030    1.6620 O   0  0  0  0  0  0  0  0  0  0  0  0
   -0.1790    2.5830    1.3660 C   0  0  0  0  0  0  0  0  0  0  0  0
   -0.6480    1.7800    0.1810 C   0  0  0  0  0  0  0  0  0  0  0  0
   -1.4910    0.6500    0.6270 C   0  0  2  0  0  0  0  0  0  0  0  0
   -0.7570   -0.2550    1.4900 N   0  0  0  0  0  0  0  0  0  0  0  0
   -2.2550   -0.0410   -0.4430 C   0  0  0  0  0  0  0  0  0  0  0  0
   -2.7560    0.6810   -1.3730 O   0  0  0  0  0  0  0  0  0  0  0  0
   -1.3790    4.7150    3.6820 H   0  0  0  0  0  0  0  0  0  0  0  0
   -0.4210    3.2900    4.1400 H   0  0  0  0  0  0  0  0  0  0  0  0
    0.4110    1.9210    2.0730 H   0  0  0  0  0  0  0  0  0  0  0  0
    0.5940    3.3270    1.0140 H   0  0  0  0  0  0  0  0  0  0  0  0
   -1.2820    2.4690   -0.4550 H   0  0  0  0  0  0  0  0  0  0  0  0
    0.1990    1.4800   -0.4770 H   0  0  0  0  0  0  0  0  0  0  0  0
   -2.3330    1.1040    1.2720 H   0  0  0  0  0  0  0  0  0  0  0  0
   -0.9080   -0.2310    2.5210 H   0  0  0  0  0  0  0  0  0  0  0  0
   -2.4210   -1.4310   -0.4270 N   0  0  0  0  0  0  0  0  0  0  0  0
   -3.1730   -2.0860   -1.4930 C   0  0  1  0  0  0  0  0  0  0  0  0
   -2.3650   -3.0920   -2.2520 C   0  0  0  0  0  0  0  0  0  0  0  0
   -0.9140   -2.4100   -3.0600 S   0  0  0  0  0  0  0  0  0  0  0  0
   -4.3450   -2.7800   -0.9130 C   0  0  0  0  0  0  0  0  0  0  0  0
   -5.1140   -3.4030   -1.6810 O   0  0  0  0  0  0  0  0  0  0  0  0
   -4.6370   -2.7770    0.4370 O   0  0  0  0  0  0  0  0  0  0  0  0
   -2.0430   -2.0270    0.3330 H   0  0  0  0  0  0  0  0  0  0  0  0
   -3.5460   -1.3420   -2.2300 H   0  0  0  0  0  0  0  0  0  0  0  0
   -2.1170   -3.9940   -1.6330 H   0  0  0  0  0  0  0  0  0  0  0  0
   -3.0360   -3.4850   -3.0570 H   0  0  0  0  0  0  0  0  0  0  0  0
    0.1760   -3.3090   -2.9910 H   0  0  0  0  0  0  0  0  0  0  0  0
  1  2  1  0  0  0  0
  1 12  1  0  0  0  0
  2 14  1  1  0  0  0
  2  3  1  0  0  0  0
  3 16  1  0  0  0  0
  3 15  1  0  0  0  0
  4  3  1  0  0  0  0
  5 17  1  0  0  0  0
  5  4  2  0  0  0  0
  6  5  1  0  0  0  0
  7  6  2  0  0  0  0
  7  8  1  0  0  0  0
  8  9  2  0  0  0  0
  9  4  1  0  0  0  0
  9 21  1  0  0  0  0
 10 28  1  0  0  0  0
 10  2  1  0  0  0  0
 11 10  2  0  0  0  0
 13  1  1  0  0  0  0
 18  6  1  0  0  0  0
 19  7  1  0  0  0  0
 20  8  1  0  0  0  0
 22 31  1  0  0  0  0
 22 32  1  0  0  0  0
 23 22  1  0  0  0  0
 24 23  2  0  0  0  0
 25 33  1  0  0  0  0
 25 23  1  0  0  0  0
 26 27  1  0  0  0  0
 26 25  1  0  0  0  0
 27 37  1  1  0  0  0
 27 28  1  0  0  0  0
 28 38  1  0  0  0  0
 29 39  1  0  0  0  0
 29 27  1  0  0  0  0
 30 29  2  0  0  0  0
 34 25  1  0  0  0  0
 35 26  1  0  0  0  0
 36 26  1  0  0  0  0
 39 46  1  0  0  0  0
 40 47  1  6  0  0  0
 40 43  1  0  0  0  0
 40 39  1  0  0  0  0
 41 48  1  0  0  0  0
 41 40  1  0  0  0  0
 42 50  1  0  0  0  0
 42 41  1  0  0  0  0
 43 45  1  0  0  0  0
 44 43  2  0  0  0  0
 49 41  1  0  0  0  0
M  END
$$$$
