FQF.pdb
 OpenBabel07022418593D

 59 60  0  0  1  0  0  0  0  0999 V2000
    3.2470    1.5500    1.3530 N   0  0  0  0  0  0  0  0  0  0  0  0
    3.2520    0.1410    1.6830 C   0  0  1  0  0  0  0  0  0  0  0  0
    3.8370   -0.0680    3.0490 C   0  0  0  0  0  0  0  0  0  0  0  0
    5.2410    0.4670    3.0080 C   0  0  0  0  0  0  0  0  0  0  0  0
    5.4900    1.7920    3.3260 C   0  0  0  0  0  0  0  0  0  0  0  0
    6.7660    2.3220    3.2990 C   0  0  0  0  0  0  0  0  0  0  0  0
    7.8360    1.5300    2.9500 C   0  0  0  0  0  0  0  0  0  0  0  0
    7.5890    0.2050    2.6310 C   0  0  0  0  0  0  0  0  0  0  0  0
    6.3160   -0.3150    2.6600 C   0  0  0  0  0  0  0  0  0  0  0  0
    1.9530   -0.4980    1.4780 C   0  0  0  0  0  0  0  0  0  0  0  0
    1.8430   -1.7240    1.7390 O   0  0  0  0  0  0  0  0  0  0  0  0
    2.7840    2.1450    2.0560 H   0  0  0  0  0  0  0  0  0  0  0  0
    2.8970    1.7080    0.3850 H   0  0  0  0  0  0  0  0  0  0  0  0
    3.9710   -0.3360    0.9530 H   0  0  0  0  0  0  0  0  0  0  0  0
    3.3230    0.4460    3.8560 H   0  0  0  0  0  0  0  0  0  0  0  0
    3.9260   -1.1370    3.3050 H   0  0  0  0  0  0  0  0  0  0  0  0
    4.6770    2.4590    3.6090 H   0  0  0  0  0  0  0  0  0  0  0  0
    6.9380    3.3680    3.5540 H   0  0  0  0  0  0  0  0  0  0  0  0
    8.8610    1.8920    2.9110 H   0  0  0  0  0  0  0  0  0  0  0  0
    8.4180   -0.4160    2.3580 H   0  0  0  0  0  0  0  0  0  0  0  0
    6.1140   -1.3670    2.4080 H   0  0  0  0  0  0  0  0  0  0  0  0
   -5.0990    0.0830    2.7630 N   0  0  0  0  0  0  0  0  0  0  0  0
   -3.7360    0.4140    2.6920 C   0  0  0  0  0  0  0  0  0  0  0  0
   -3.2390    1.2430    3.4640 O   0  0  0  0  0  0  0  0  0  0  0  0
   -2.8760   -0.2600    1.6540 C   0  0  0  0  0  0  0  0  0  0  0  0
   -1.4670    0.2280    1.7440 C   0  0  0  0  0  0  0  0  0  0  0  0
   -0.4900   -0.4130    0.7860 C   0  0  2  0  0  0  0  0  0  0  0  0
    0.8330    0.2020    1.0040 N   0  0  0  0  0  0  0  0  0  0  0  0
   -0.8690   -0.3270   -0.6310 C   0  0  0  0  0  0  0  0  0  0  0  0
   -0.1760    0.4500   -1.3780 O   0  0  0  0  0  0  0  0  0  0  0  0
   -5.4660   -0.6750    3.4050 H   0  0  0  0  0  0  0  0  0  0  0  0
   -5.7580    0.6230    2.1460 H   0  0  0  0  0  0  0  0  0  0  0  0
   -3.3260   -0.0260    0.6540 H   0  0  0  0  0  0  0  0  0  0  0  0
   -2.8940   -1.3450    1.7780 H   0  0  0  0  0  0  0  0  0  0  0  0
   -1.4880    1.3240    1.5460 H   0  0  0  0  0  0  0  0  0  0  0  0
   -1.1450    0.0290    2.8090 H   0  0  0  0  0  0  0  0  0  0  0  0
   -0.3780   -1.4790    1.0720 H   0  0  0  0  0  0  0  0  0  0  0  0
    0.9320    1.2130    0.7910 H   0  0  0  0  0  0  0  0  0  0  0  0
   -1.9380   -1.0460   -1.2180 N   0  0  0  0  0  0  0  0  0  0  0  0
   -2.2520   -0.9020   -2.6260 C   0  0  1  0  0  0  0  0  0  0  0  0
   -2.0310   -2.1870   -3.3900 C   0  0  0  0  0  0  0  0  0  0  0  0
   -2.8470   -3.3020   -2.9090 C   0  0  0  0  0  0  0  0  0  0  0  0
   -4.1110   -3.5410   -3.4340 C   0  0  0  0  0  0  0  0  0  0  0  0
   -4.8900   -4.5930   -2.9840 C   0  0  0  0  0  0  0  0  0  0  0  0
   -4.4400   -5.4430   -1.9980 C   0  0  0  0  0  0  0  0  0  0  0  0
   -3.1910   -5.2150   -1.4720 C   0  0  0  0  0  0  0  0  0  0  0  0
   -2.4260   -4.1660   -1.9260 C   0  0  0  0  0  0  0  0  0  0  0  0
   -3.6000   -0.3670   -2.8540 C   0  0  0  0  0  0  0  0  0  0  0  0
   -4.0410   -0.1730   -4.0270 O   0  0  0  0  0  0  0  0  0  0  0  0
   -4.4720   -0.0410   -1.8260 O   0  0  0  0  0  0  0  0  0  0  0  0
   -2.4830   -1.7000   -0.6180 H   0  0  0  0  0  0  0  0  0  0  0  0
   -1.5290   -0.1710   -3.0410 H   0  0  0  0  0  0  0  0  0  0  0  0
   -2.3170   -1.9790   -4.4450 H   0  0  0  0  0  0  0  0  0  0  0  0
   -0.9450   -2.3970   -3.3960 H   0  0  0  0  0  0  0  0  0  0  0  0
   -4.4860   -2.8890   -4.2080 H   0  0  0  0  0  0  0  0  0  0  0  0
   -5.8800   -4.7940   -3.3850 H   0  0  0  0  0  0  0  0  0  0  0  0
   -5.0780   -6.2640   -1.6650 H   0  0  0  0  0  0  0  0  0  0  0  0
   -2.8320   -5.8900   -0.6870 H   0  0  0  0  0  0  0  0  0  0  0  0
   -1.4650   -4.0210   -1.4950 H   0  0  0  0  0  0  0  0  0  0  0  0
  1  2  1  0  0  0  0
  1 12  1  0  0  0  0
  2 14  1  6  0  0  0
  2  3  1  0  0  0  0
  3 16  1  0  0  0  0
  3 15  1  0  0  0  0
  4  3  1  0  0  0  0
  4  5  1  0  0  0  0
  5 17  1  0  0  0  0
  6  5  2  0  0  0  0
  6 18  1  0  0  0  0
  7  6  1  0  0  0  0
  8  9  1  0  0  0  0
  8  7  2  0  0  0  0
  9  4  2  0  0  0  0
 10  2  1  0  0  0  0
 10 11  2  0  0  0  0
 13  1  1  0  0  0  0
 19  7  1  0  0  0  0
 20  8  1  0  0  0  0
 21  9  1  0  0  0  0
 22 31  1  0  0  0  0
 23 22  1  0  0  0  0
 23 24  2  0  0  0  0
 25 26  1  0  0  0  0
 25 34  1  0  0  0  0
 25 23  1  0  0  0  0
 26 36  1  0  0  0  0
 27 28  1  0  0  0  0
 27 37  1  1  0  0  0
 27 26  1  0  0  0  0
 28 10  1  0  0  0  0
 29 27  1  0  0  0  0
 30 29  2  0  0  0  0
 32 22  1  0  0  0  0
 33 25  1  0  0  0  0
 35 26  1  0  0  0  0
 38 28  1  0  0  0  0
 39 29  1  0  0  0  0
 39 51  1  0  0  0  0
 40 52  1  6  0  0  0
 40 39  1  0  0  0  0
 41 42  1  0  0  0  0
 41 40  1  0  0  0  0
 42 47  1  0  0  0  0
 43 44  1  0  0  0  0
 43 42  2  0  0  0  0
 44 45  2  0  0  0  0
 45 57  1  0  0  0  0
 45 46  1  0  0  0  0
 46 58  1  0  0  0  0
 47 59  1  0  0  0  0
 47 46  2  0  0  0  0
 48 40  1  0  0  0  0
 48 50  1  0  0  0  0
 49 48  2  0  0  0  0
 53 41  1  0  0  0  0
 54 41  1  0  0  0  0
 55 43  1  0  0  0  0
 56 44  1  0  0  0  0
M  END
$$$$
