FQG.pdb
 OpenBabel07022418593D

 46 46  0  0  1  0  0  0  0  0999 V2000
    0.8500   -3.6080    0.0820 N   0  0  0  0  0  0  0  0  0  0  0  0
    1.6410   -2.5900    0.7520 C   0  0  1  0  0  0  0  0  0  0  0  0
    2.6530   -2.0060   -0.1670 C   0  0  0  0  0  0  0  0  0  0  0  0
    2.1120   -1.4240   -1.4180 C   0  0  0  0  0  0  0  0  0  0  0  0
    1.9010   -2.3240   -2.4850 C   0  0  0  0  0  0  0  0  0  0  0  0
    1.4380   -1.9390   -3.6960 C   0  0  0  0  0  0  0  0  0  0  0  0
    1.1520   -0.6130   -3.9280 C   0  0  0  0  0  0  0  0  0  0  0  0
    1.3490    0.2890   -2.9030 C   0  0  0  0  0  0  0  0  0  0  0  0
    1.8210   -0.1340   -1.6800 C   0  0  0  0  0  0  0  0  0  0  0  0
    0.9360   -1.6380    1.5690 C   0  0  0  0  0  0  0  0  0  0  0  0
    1.1650   -1.6870    2.8430 O   0  0  0  0  0  0  0  0  0  0  0  0
    1.3460   -4.4850   -0.0710 H   0  0  0  0  0  0  0  0  0  0  0  0
   -0.1040   -3.6990    0.4840 H   0  0  0  0  0  0  0  0  0  0  0  0
    2.2780   -3.2520    1.4730 H   0  0  0  0  0  0  0  0  0  0  0  0
    3.2110   -1.1690    0.3310 H   0  0  0  0  0  0  0  0  0  0  0  0
    3.4240   -2.7610   -0.4810 H   0  0  0  0  0  0  0  0  0  0  0  0
    2.1200   -3.3670   -2.3230 H   0  0  0  0  0  0  0  0  0  0  0  0
    1.2980   -2.6750   -4.4720 H   0  0  0  0  0  0  0  0  0  0  0  0
    0.7820   -0.2980   -4.8950 H   0  0  0  0  0  0  0  0  0  0  0  0
    1.1190    1.3250   -3.1010 H   0  0  0  0  0  0  0  0  0  0  0  0
    1.9600    0.6030   -0.9200 H   0  0  0  0  0  0  0  0  0  0  0  0
    3.3400    1.2150    3.6500 N   0  0  0  0  0  0  0  0  0  0  0  0
    2.2000    1.3700    2.7730 C   0  0  0  0  0  0  0  0  0  0  0  0
    2.4430    1.1530    1.5780 O   0  0  0  0  0  0  0  0  0  0  0  0
    0.9220    1.7490    3.3050 C   0  0  0  0  0  0  0  0  0  0  0  0
   -0.3110    1.5830    2.4740 C   0  0  0  0  0  0  0  0  0  0  0  0
   -0.6930    0.2620    2.0730 C   0  0  2  0  0  0  0  0  0  0  0  0
    0.0170   -0.6370    1.2610 N   0  0  0  0  0  0  0  0  0  0  0  0
   -2.1290    0.1500    1.6710 C   0  0  0  0  0  0  0  0  0  0  0  0
   -2.4870   -0.6000    0.7160 O   0  0  0  0  0  0  0  0  0  0  0  0
    4.2160    1.7060    3.3750 H   0  0  0  0  0  0  0  0  0  0  0  0
    3.2990    0.6490    4.5080 H   0  0  0  0  0  0  0  0  0  0  0  0
    1.0030    2.8240    3.6870 H   0  0  0  0  0  0  0  0  0  0  0  0
    0.7550    1.1950    4.2920 H   0  0  0  0  0  0  0  0  0  0  0  0
   -1.1360    1.9920    3.1460 H   0  0  0  0  0  0  0  0  0  0  0  0
   -0.2690    2.3840    1.7010 H   0  0  0  0  0  0  0  0  0  0  0  0
   -0.6950   -0.3150    3.0990 H   0  0  0  0  0  0  0  0  0  0  0  0
   -0.1980   -0.5420    0.2180 H   0  0  0  0  0  0  0  0  0  0  0  0
   -3.1780    0.8590    2.3140 N   0  0  0  0  0  0  0  0  0  0  0  0
   -4.5710    0.6960    1.8590 C   0  0  0  0  0  0  0  0  0  0  0  0
   -4.9630   -0.7200    2.0050 C   0  0  0  0  0  0  0  0  0  0  0  0
   -6.1010   -1.0960    1.6670 O   0  0  0  0  0  0  0  0  0  0  0  0
   -4.0720   -1.6460    2.5180 O   0  0  0  0  0  0  0  0  0  0  0  0
   -3.0100    1.5020    3.1160 H   0  0  0  0  0  0  0  0  0  0  0  0
   -5.2370    1.2950    2.4870 H   0  0  0  0  0  0  0  0  0  0  0  0
   -4.6800    1.0570    0.8170 H   0  0  0  0  0  0  0  0  0  0  0  0
  1 13  1  0  0  0  0
  1  2  1  0  0  0  0
  2 14  1  1  0  0  0
  2 10  1  0  0  0  0
  3 15  1  0  0  0  0
  3  2  1  0  0  0  0
  4  3  1  0  0  0  0
  5 17  1  0  0  0  0
  5  4  2  0  0  0  0
  6  5  1  0  0  0  0
  7  6  2  0  0  0  0
  7  8  1  0  0  0  0
  8  9  2  0  0  0  0
  9  4  1  0  0  0  0
  9 21  1  0  0  0  0
 10 11  2  0  0  0  0
 12  1  1  0  0  0  0
 16  3  1  0  0  0  0
 18  6  1  0  0  0  0
 19  7  1  0  0  0  0
 20  8  1  0  0  0  0
 22 32  1  0  0  0  0
 23 25  1  0  0  0  0
 23 22  1  0  0  0  0
 24 23  2  0  0  0  0
 25 33  1  0  0  0  0
 25 34  1  0  0  0  0
 26 35  1  0  0  0  0
 26 25  1  0  0  0  0
 27 26  1  0  0  0  0
 27 37  1  1  0  0  0
 28 10  1  0  0  0  0
 28 27  1  0  0  0  0
 29 27  1  0  0  0  0
 29 39  1  0  0  0  0
 30 29  2  0  0  0  0
 31 22  1  0  0  0  0
 36 26  1  0  0  0  0
 38 28  1  0  0  0  0
 39 44  1  0  0  0  0
 40 41  1  0  0  0  0
 40 39  1  0  0  0  0
 40 45  1  0  0  0  0
 41 43  1  0  0  0  0
 42 41  2  0  0  0  0
 46 40  1  0  0  0  0
M  END
$$$$
