FQH.pdb
 OpenBabel07022418593D

 56 57  0  0  1  0  0  0  0  0999 V2000
    1.3570    1.6000   -1.4430 N   0  0  0  0  0  0  0  0  0  0  0  0
    1.5300    0.5740   -0.4040 C   0  0  1  0  0  0  0  0  0  0  0  0
    2.6670    0.7900    0.4950 C   0  0  0  0  0  0  0  0  0  0  0  0
    2.7290    2.0070    1.2900 C   0  0  0  0  0  0  0  0  0  0  0  0
    2.2580    2.0090    2.5830 C   0  0  0  0  0  0  0  0  0  0  0  0
    2.2870    3.1250    3.4050 C   0  0  0  0  0  0  0  0  0  0  0  0
    2.8140    4.3120    2.9190 C   0  0  0  0  0  0  0  0  0  0  0  0
    3.2890    4.3220    1.6270 C   0  0  0  0  0  0  0  0  0  0  0  0
    3.2510    3.2030    0.8270 C   0  0  0  0  0  0  0  0  0  0  0  0
    0.2540    0.1080    0.1220 C   0  0  0  0  0  0  0  0  0  0  0  0
   -0.7730    0.3610   -0.6020 O   0  0  0  0  0  0  0  0  0  0  0  0
    0.8620    1.2000   -2.2570 H   0  0  0  0  0  0  0  0  0  0  0  0
    2.2870    1.9220   -1.7600 H   0  0  0  0  0  0  0  0  0  0  0  0
    1.8870   -0.3230   -1.0810 H   0  0  0  0  0  0  0  0  0  0  0  0
    3.6070    0.7250   -0.1440 H   0  0  0  0  0  0  0  0  0  0  0  0
    2.7720   -0.1350    1.1410 H   0  0  0  0  0  0  0  0  0  0  0  0
    1.8290    1.1160    3.0390 H   0  0  0  0  0  0  0  0  0  0  0  0
    1.9120    3.1010    4.4210 H   0  0  0  0  0  0  0  0  0  0  0  0
    2.8640    5.2020    3.5030 H   0  0  0  0  0  0  0  0  0  0  0  0
    3.7130    5.2210    1.1900 H   0  0  0  0  0  0  0  0  0  0  0  0
    3.6230    3.2220   -0.1780 H   0  0  0  0  0  0  0  0  0  0  0  0
   -0.7900    2.4350    4.3440 N   0  0  0  0  0  0  0  0  0  0  0  0
   -1.2770    1.8280    3.1500 C   0  0  0  0  0  0  0  0  0  0  0  0
   -0.8660    2.2730    2.0630 O   0  0  0  0  0  0  0  0  0  0  0  0
   -2.2200    0.7380    3.2730 C   0  0  0  0  0  0  0  0  0  0  0  0
   -2.3980   -0.2040    2.1480 C   0  0  0  0  0  0  0  0  0  0  0  0
   -1.2710   -1.0540    1.7640 C   0  0  2  0  0  0  0  0  0  0  0  0
   -0.0280   -0.5890    1.3130 N   0  0  0  0  0  0  0  0  0  0  0  0
   -1.7660   -2.2160    0.8890 C   0  0  0  0  0  0  0  0  0  0  0  0
   -2.8790   -2.7530    1.1070 O   0  0  0  0  0  0  0  0  0  0  0  0
   -0.4680    3.4160    4.3400 H   0  0  0  0  0  0  0  0  0  0  0  0
   -0.7520    1.9030    5.2370 H   0  0  0  0  0  0  0  0  0  0  0  0
   -3.2420    1.1570    3.5760 H   0  0  0  0  0  0  0  0  0  0  0  0
   -1.9930    0.0830    4.1850 H   0  0  0  0  0  0  0  0  0  0  0  0
   -3.2070   -0.9350    2.5080 H   0  0  0  0  0  0  0  0  0  0  0  0
   -2.9360    0.2650    1.2740 H   0  0  0  0  0  0  0  0  0  0  0  0
   -1.0520   -1.6460    2.7380 H   0  0  0  0  0  0  0  0  0  0  0  0
    0.8530   -0.7530    1.9010 H   0  0  0  0  0  0  0  0  0  0  0  0
   -0.9900   -2.7180   -0.1820 N   0  0  0  0  0  0  0  0  0  0  0  0
   -1.4320   -3.8160   -1.0290 C   0  0  1  0  0  0  0  0  0  0  0  0
   -1.5040   -3.4500   -2.4610 C   0  0  0  0  0  0  0  0  0  0  0  0
   -1.9550   -4.6000   -3.2650 C   0  0  0  0  0  0  0  0  0  0  0  0
   -1.2790   -5.5800   -3.9410 C   0  0  0  0  0  0  0  0  0  0  0  0
   -2.1630   -6.4100   -4.5630 N   0  0  0  0  0  0  0  0  0  0  0  0
   -3.3940   -5.9550   -4.2810 C   0  0  0  0  0  0  0  0  0  0  0  0
   -3.2700   -4.8730   -3.5060 N   0  0  0  0  0  0  0  0  0  0  0  0
   -0.4970   -4.9320   -0.8200 C   0  0  0  0  0  0  0  0  0  0  0  0
   -0.6050   -6.0750   -1.3410 O   0  0  0  0  0  0  0  0  0  0  0  0
    0.6310   -4.7900    0.0140 O   0  0  0  0  0  0  0  0  0  0  0  0
   -0.0650   -2.2720   -0.3550 H   0  0  0  0  0  0  0  0  0  0  0  0
   -2.4400   -4.1820   -0.7180 H   0  0  0  0  0  0  0  0  0  0  0  0
   -0.5250   -3.1400   -2.8950 H   0  0  0  0  0  0  0  0  0  0  0  0
   -2.2060   -2.6120   -2.6780 H   0  0  0  0  0  0  0  0  0  0  0  0
   -0.1960   -5.6550   -3.9680 H   0  0  0  0  0  0  0  0  0  0  0  0
   -1.8660   -7.2270   -5.1360 H   0  0  0  0  0  0  0  0  0  0  0  0
   -4.3150   -6.4010   -4.6310 H   0  0  0  0  0  0  0  0  0  0  0  0
  1  2  1  0  0  0  0
  2 14  1  6  0  0  0
  2 10  1  0  0  0  0
  2  3  1  0  0  0  0
  3 16  1  0  0  0  0
  3  4  1  0  0  0  0
  4  5  1  0  0  0  0
  5 17  1  0  0  0  0
  5  6  2  0  0  0  0
  6 18  1  0  0  0  0
  7  6  1  0  0  0  0
  7 19  1  0  0  0  0
  8  7  2  0  0  0  0
  9  4  2  0  0  0  0
  9  8  1  0  0  0  0
 10 28  1  0  0  0  0
 11 10  2  0  0  0  0
 12  1  1  0  0  0  0
 13  1  1  0  0  0  0
 15  3  1  0  0  0  0
 20  8  1  0  0  0  0
 21  9  1  0  0  0  0
 22 32  1  0  0  0  0
 23 25  1  0  0  0  0
 23 22  1  0  0  0  0
 24 23  2  0  0  0  0
 25 33  1  0  0  0  0
 25 34  1  0  0  0  0
 26 35  1  0  0  0  0
 26 25  1  0  0  0  0
 27 26  1  0  0  0  0
 27 37  1  1  0  0  0
 28 27  1  0  0  0  0
 28 38  1  0  0  0  0
 29 30  2  0  0  0  0
 29 27  1  0  0  0  0
 31 22  1  0  0  0  0
 36 26  1  0  0  0  0
 39 29  1  0  0  0  0
 40 47  1  0  0  0  0
 40 51  1  1  0  0  0
 40 39  1  0  0  0  0
 41 40  1  0  0  0  0
 42 41  1  0  0  0  0
 43 42  2  0  0  0  0
 44 45  1  0  0  0  0
 44 43  1  0  0  0  0
 45 46  2  0  0  0  0
 46 42  1  0  0  0  0
 47 49  1  0  0  0  0
 48 47  2  0  0  0  0
 50 39  1  0  0  0  0
 52 41  1  0  0  0  0
 53 41  1  0  0  0  0
 54 43  1  0  0  0  0
 55 44  1  0  0  0  0
 56 45  1  0  0  0  0
M  END
$$$$
