FQI.pdb
 OpenBabel07022418593D

 58 58  0  0  1  0  0  0  0  0999 V2000
   -0.2730   -0.9180    5.2250 N   0  0  0  0  0  0  0  0  0  0  0  0
   -0.4560    0.1710    4.2980 C   0  0  1  0  0  0  0  0  0  0  0  0
    0.6200    1.2260    4.4670 C   0  0  0  0  0  0  0  0  0  0  0  0
    1.9860    0.6880    4.2490 C   0  0  0  0  0  0  0  0  0  0  0  0
    2.5300    0.7490    2.9860 C   0  0  0  0  0  0  0  0  0  0  0  0
    3.8060    0.2330    2.8140 C   0  0  0  0  0  0  0  0  0  0  0  0
    4.4880   -0.3190    3.8890 C   0  0  0  0  0  0  0  0  0  0  0  0
    3.9340   -0.3750    5.1500 C   0  0  0  0  0  0  0  0  0  0  0  0
    2.6690    0.1330    5.3380 C   0  0  0  0  0  0  0  0  0  0  0  0
   -0.3650   -0.3830    2.9040 C   0  0  0  0  0  0  0  0  0  0  0  0
   -0.0470   -1.5680    2.8040 O   0  0  0  0  0  0  0  0  0  0  0  0
   -1.1620   -1.4960    5.1860 H   0  0  0  0  0  0  0  0  0  0  0  0
    0.4780   -1.5600    4.8410 H   0  0  0  0  0  0  0  0  0  0  0  0
   -1.4620    0.6370    4.4600 H   0  0  0  0  0  0  0  0  0  0  0  0
    0.4730    2.0510    3.7460 H   0  0  0  0  0  0  0  0  0  0  0  0
    0.5360    1.6400    5.5090 H   0  0  0  0  0  0  0  0  0  0  0  0
    2.0130    1.1780    2.1460 H   0  0  0  0  0  0  0  0  0  0  0  0
    4.2530    0.2740    1.8130 H   0  0  0  0  0  0  0  0  0  0  0  0
    5.4930   -0.7120    3.6960 H   0  0  0  0  0  0  0  0  0  0  0  0
    4.5210   -0.8180    5.9400 H   0  0  0  0  0  0  0  0  0  0  0  0
    2.2110    0.0990    6.3290 H   0  0  0  0  0  0  0  0  0  0  0  0
    1.6170    4.2360   -0.9690 N   0  0  0  0  0  0  0  0  0  0  0  0
    1.5260    2.8260   -0.9610 C   0  0  0  0  0  0  0  0  0  0  0  0
    2.3880    2.1600   -1.5730 O   0  0  0  0  0  0  0  0  0  0  0  0
    0.4380    2.1690   -0.2440 C   0  0  0  0  0  0  0  0  0  0  0  0
    0.5290    0.6370   -0.3640 C   0  0  0  0  0  0  0  0  0  0  0  0
   -0.6180    0.0680    0.3890 C   0  0  2  0  0  0  0  0  0  0  0  0
   -0.6320    0.4160    1.7770 N   0  0  0  0  0  0  0  0  0  0  0  0
   -0.9810   -1.3280    0.0550 C   0  0  0  0  0  0  0  0  0  0  0  0
   -1.3650   -2.1620    0.9210 O   0  0  0  0  0  0  0  0  0  0  0  0
    2.4040    4.7580   -1.3980 H   0  0  0  0  0  0  0  0  0  0  0  0
    0.8630    4.8360   -0.5250 H   0  0  0  0  0  0  0  0  0  0  0  0
   -0.5390    2.4780   -0.6530 H   0  0  0  0  0  0  0  0  0  0  0  0
    0.4170    2.3860    0.8360 H   0  0  0  0  0  0  0  0  0  0  0  0
    0.4240    0.4400   -1.4320 H   0  0  0  0  0  0  0  0  0  0  0  0
    1.5170    0.2810   -0.0160 H   0  0  0  0  0  0  0  0  0  0  0  0
   -1.5610    0.6260   -0.0210 H   0  0  0  0  0  0  0  0  0  0  0  0
   -0.8850    1.4360    2.0430 H   0  0  0  0  0  0  0  0  0  0  0  0
   -4.1840   -4.2390   -3.7780 C   0  0  0  0  0  0  0  0  0  0  0  0
   -2.9000   -4.4080   -2.9640 C   0  0  0  0  0  0  0  0  0  0  0  0
   -2.4270   -3.0630   -2.5410 C   0  0  2  0  0  0  0  0  0  0  0  0
   -2.1150   -2.1570   -3.7130 C   0  0  0  0  0  0  0  0  0  0  0  0
   -1.2490   -3.1330   -1.6390 C   0  0  2  0  0  0  0  0  0  0  0  0
   -0.8930   -1.7450   -1.2990 N   0  0  0  0  0  0  0  0  0  0  0  0
   -0.0940   -3.8440   -2.1970 C   0  0  0  0  0  0  0  0  0  0  0  0
   -0.1750   -5.0490   -2.4950 O   0  0  0  0  0  0  0  0  0  0  0  0
    1.1050   -3.1840   -2.4020 O   0  0  0  0  0  0  0  0  0  0  0  0
   -4.7930   -5.1380   -3.6090 H   0  0  0  0  0  0  0  0  0  0  0  0
   -3.8830   -4.1280   -4.8430 H   0  0  0  0  0  0  0  0  0  0  0  0
   -4.6590   -3.3160   -3.4420 H   0  0  0  0  0  0  0  0  0  0  0  0
   -2.1300   -4.9120   -3.6050 H   0  0  0  0  0  0  0  0  0  0  0  0
   -3.1520   -5.0120   -2.0720 H   0  0  0  0  0  0  0  0  0  0  0  0
   -3.2640   -2.5930   -1.9400 H   0  0  0  0  0  0  0  0  0  0  0  0
   -2.5370   -1.1570   -3.5260 H   0  0  0  0  0  0  0  0  0  0  0  0
   -1.0060   -2.0360   -3.8420 H   0  0  0  0  0  0  0  0  0  0  0  0
   -2.5800   -2.5760   -4.6170 H   0  0  0  0  0  0  0  0  0  0  0  0
   -1.5520   -3.6720   -0.7190 H   0  0  0  0  0  0  0  0  0  0  0  0
   -0.5940   -1.0970   -2.0270 H   0  0  0  0  0  0  0  0  0  0  0  0
  2 14  1  1  0  0  0
  2  3  1  0  0  0  0
  2  1  1  0  0  0  0
  3 16  1  0  0  0  0
  4  3  1  0  0  0  0
  4  9  1  0  0  0  0
  5  4  2  0  0  0  0
  6  5  1  0  0  0  0
  6  7  2  0  0  0  0
  7  8  1  0  0  0  0
  8  9  2  0  0  0  0
  8 20  1  0  0  0  0
  9 21  1  0  0  0  0
 10  2  1  0  0  0  0
 11 10  2  0  0  0  0
 12  1  1  0  0  0  0
 13  1  1  0  0  0  0
 15  3  1  0  0  0  0
 17  5  1  0  0  0  0
 18  6  1  0  0  0  0
 19  7  1  0  0  0  0
 22 23  1  0  0  0  0
 22 32  1  0  0  0  0
 23 25  1  0  0  0  0
 24 23  2  0  0  0  0
 25 34  1  0  0  0  0
 26 25  1  0  0  0  0
 26 36  1  0  0  0  0
 26 27  1  0  0  0  0
 27 37  1  6  0  0  0
 27 28  1  0  0  0  0
 28 38  1  0  0  0  0
 28 10  1  0  0  0  0
 29 27  1  0  0  0  0
 29 30  2  0  0  0  0
 31 22  1  0  0  0  0
 33 25  1  0  0  0  0
 35 26  1  0  0  0  0
 39 48  1  0  0  0  0
 39 50  1  0  0  0  0
 39 40  1  0  0  0  0
 40 41  1  0  0  0  0
 40 52  1  0  0  0  0
 41 53  1  1  0  0  0
 41 43  1  0  0  0  0
 42 54  1  0  0  0  0
 42 41  1  0  0  0  0
 43 44  1  0  0  0  0
 43 57  1  1  0  0  0
 44 29  1  0  0  0  0
 45 43  1  0  0  0  0
 46 45  2  0  0  0  0
 47 45  1  0  0  0  0
 49 39  1  0  0  0  0
 51 40  1  0  0  0  0
 55 42  1  0  0  0  0
 56 42  1  0  0  0  0
 58 44  1  0  0  0  0
M  END
$$$$
