FQK.pdb
 OpenBabel07022418593D

 60 60  0  0  1  0  0  0  0  0999 V2000
    2.9360   -2.6080    0.0610 N   0  0  0  0  0  0  0  0  0  0  0  0
    3.1770   -1.6260    1.1180 C   0  0  1  0  0  0  0  0  0  0  0  0
    4.4690   -0.9140    0.9240 C   0  0  0  0  0  0  0  0  0  0  0  0
    4.6910    0.0670    2.0000 C   0  0  0  0  0  0  0  0  0  0  0  0
    5.2980   -0.3010    3.1990 C   0  0  0  0  0  0  0  0  0  0  0  0
    5.5390    0.5920    4.2210 C   0  0  0  0  0  0  0  0  0  0  0  0
    5.1720    1.9090    4.0750 C   0  0  0  0  0  0  0  0  0  0  0  0
    4.5710    2.3170    2.9100 C   0  0  0  0  0  0  0  0  0  0  0  0
    4.3460    1.4040    1.9120 C   0  0  0  0  0  0  0  0  0  0  0  0
    2.0300   -0.7090    1.2580 C   0  0  0  0  0  0  0  0  0  0  0  0
    1.9680    0.1520    2.1690 O   0  0  0  0  0  0  0  0  0  0  0  0
    2.0320   -3.1040    0.3170 H   0  0  0  0  0  0  0  0  0  0  0  0
    2.8520   -2.1590   -0.8790 H   0  0  0  0  0  0  0  0  0  0  0  0
    3.2480   -2.2090    2.0630 H   0  0  0  0  0  0  0  0  0  0  0  0
    4.3860   -0.3400   -0.0430 H   0  0  0  0  0  0  0  0  0  0  0  0
    5.3210   -1.6220    0.8580 H   0  0  0  0  0  0  0  0  0  0  0  0
    5.5890   -1.3290    3.3240 H   0  0  0  0  0  0  0  0  0  0  0  0
    6.0190    0.2540    5.1450 H   0  0  0  0  0  0  0  0  0  0  0  0
    5.3590    2.6240    4.8800 H   0  0  0  0  0  0  0  0  0  0  0  0
    4.3000    3.3620    2.8380 H   0  0  0  0  0  0  0  0  0  0  0  0
    3.8710    1.7440    0.9990 H   0  0  0  0  0  0  0  0  0  0  0  0
   -2.5850    3.8890   -1.9000 N   0  0  0  0  0  0  0  0  0  0  0  0
   -1.5930    2.8850   -1.7680 C   0  0  0  0  0  0  0  0  0  0  0  0
   -0.7560    2.6920   -2.6750 O   0  0  0  0  0  0  0  0  0  0  0  0
   -1.4920    2.0040   -0.5480 C   0  0  0  0  0  0  0  0  0  0  0  0
   -0.3590    1.0410   -0.6780 C   0  0  0  0  0  0  0  0  0  0  0  0
   -0.2130    0.1830    0.5260 C   0  0  2  0  0  0  0  0  0  0  0  0
    0.9190   -0.7430    0.3660 N   0  0  0  0  0  0  0  0  0  0  0  0
   -1.4190   -0.6090    0.8640 C   0  0  0  0  0  0  0  0  0  0  0  0
   -2.5180   -0.1080    1.1320 O   0  0  0  0  0  0  0  0  0  0  0  0
   -2.4000    4.8550   -2.2470 H   0  0  0  0  0  0  0  0  0  0  0  0
   -3.5580    3.6430   -1.6330 H   0  0  0  0  0  0  0  0  0  0  0  0
   -1.3980    2.6830    0.3170 H   0  0  0  0  0  0  0  0  0  0  0  0
   -2.4570    1.4470   -0.4310 H   0  0  0  0  0  0  0  0  0  0  0  0
    0.5820    1.6370   -0.7930 H   0  0  0  0  0  0  0  0  0  0  0  0
   -0.4520    0.4060   -1.6060 H   0  0  0  0  0  0  0  0  0  0  0  0
    0.0160    0.8220    1.3980 H   0  0  0  0  0  0  0  0  0  0  0  0
    0.9060   -1.4290   -0.4070 H   0  0  0  0  0  0  0  0  0  0  0  0
   -1.3720   -2.0530    0.8990 N   0  0  0  0  0  0  0  0  0  0  0  0
   -2.5290   -2.8590    1.2250 C   0  0  1  0  0  0  0  0  0  0  0  0
   -2.7070   -3.8610    0.1280 C   0  0  0  0  0  0  0  0  0  0  0  0
   -2.9260   -3.2530   -1.2180 C   0  0  0  0  0  0  0  0  0  0  0  0
   -4.1670   -2.3960   -1.2130 C   0  0  0  0  0  0  0  0  0  0  0  0
   -4.3590   -1.7900   -2.6090 C   0  0  0  0  0  0  0  0  0  0  0  0
   -4.5000   -2.8810   -3.5620 N   0  0  0  0  0  0  0  0  0  0  0  0
   -2.2630   -3.6400    2.4860 C   0  0  0  0  0  0  0  0  0  0  0  0
   -1.1750   -3.5530    3.1070 O   0  0  0  0  0  0  0  0  0  0  0  0
   -3.2320   -4.4870    2.9990 O   0  0  0  0  0  0  0  0  0  0  0  0
   -0.4730   -2.4990    0.6810 H   0  0  0  0  0  0  0  0  0  0  0  0
   -3.4230   -2.2570    1.4330 H   0  0  0  0  0  0  0  0  0  0  0  0
   -1.7970   -4.5080    0.1150 H   0  0  0  0  0  0  0  0  0  0  0  0
   -3.5530   -4.5350    0.3520 H   0  0  0  0  0  0  0  0  0  0  0  0
   -3.1410   -4.0980   -1.9270 H   0  0  0  0  0  0  0  0  0  0  0  0
   -2.0440   -2.7310   -1.6220 H   0  0  0  0  0  0  0  0  0  0  0  0
   -4.1850   -1.6290   -0.4410 H   0  0  0  0  0  0  0  0  0  0  0  0
   -5.0350   -3.0640   -1.0500 H   0  0  0  0  0  0  0  0  0  0  0  0
   -5.3010   -1.2380   -2.6210 H   0  0  0  0  0  0  0  0  0  0  0  0
   -3.4750   -1.1990   -2.9130 H   0  0  0  0  0  0  0  0  0  0  0  0
   -3.5580   -3.3090   -3.7790 H   0  0  0  0  0  0  0  0  0  0  0  0
   -5.1010   -3.6340   -3.1720 H   0  0  0  0  0  0  0  0  0  0  0  0
  1 12  1  0  0  0  0
  1  2  1  0  0  0  0
  2 10  1  0  0  0  0
  2 14  1  1  0  0  0
  3  2  1  0  0  0  0
  3  4  1  0  0  0  0
  4  5  1  0  0  0  0
  5 17  1  0  0  0  0
  5  6  2  0  0  0  0
  6 18  1  0  0  0  0
  7  6  1  0  0  0  0
  7 19  1  0  0  0  0
  8  7  2  0  0  0  0
  9  4  2  0  0  0  0
  9  8  1  0  0  0  0
 10 11  2  0  0  0  0
 13  1  1  0  0  0  0
 15  3  1  0  0  0  0
 16  3  1  0  0  0  0
 20  8  1  0  0  0  0
 21  9  1  0  0  0  0
 22 23  1  0  0  0  0
 22 32  1  0  0  0  0
 23 25  1  0  0  0  0
 24 23  2  0  0  0  0
 25 34  1  0  0  0  0
 25 33  1  0  0  0  0
 26 25  1  0  0  0  0
 26 27  1  0  0  0  0
 27 29  1  0  0  0  0
 27 37  1  1  0  0  0
 28 27  1  0  0  0  0
 28 10  1  0  0  0  0
 29 39  1  0  0  0  0
 29 30  2  0  0  0  0
 31 22  1  0  0  0  0
 35 26  1  0  0  0  0
 36 26  1  0  0  0  0
 38 28  1  0  0  0  0
 39 40  1  0  0  0  0
 40 50  1  1  0  0  0
 40 46  1  0  0  0  0
 41 52  1  0  0  0  0
 41 40  1  0  0  0  0
 42 43  1  0  0  0  0
 42 41  1  0  0  0  0
 43 56  1  0  0  0  0
 43 55  1  0  0  0  0
 44 43  1  0  0  0  0
 45 60  1  0  0  0  0
 45 44  1  0  0  0  0
 46 48  2  0  0  0  0
 46 47  1  0  0  0  0
 49 39  1  0  0  0  0
 51 41  1  0  0  0  0
 53 42  1  0  0  0  0
 54 42  1  0  0  0  0
 57 44  1  0  0  0  0
 58 44  1  0  0  0  0
 59 45  1  0  0  0  0
M  END
$$$$
