FQL.pdb
 OpenBabel07022418593D

 58 58  0  0  1  0  0  0  0  0999 V2000
    3.3160   -0.1240    0.4700 N   0  0  0  0  0  0  0  0  0  0  0  0
    2.1110   -0.3700    1.2010 C   0  0  1  0  0  0  0  0  0  0  0  0
    2.1670    0.4470    2.4880 C   0  0  0  0  0  0  0  0  0  0  0  0
    3.3540   -0.0000    3.2480 C   0  0  0  0  0  0  0  0  0  0  0  0
    4.5630    0.6550    3.0120 C   0  0  0  0  0  0  0  0  0  0  0  0
    5.6530    0.2240    3.7280 C   0  0  0  0  0  0  0  0  0  0  0  0
    5.5830   -0.7950    4.6360 C   0  0  0  0  0  0  0  0  0  0  0  0
    4.3790   -1.4340    4.8600 C   0  0  0  0  0  0  0  0  0  0  0  0
    3.2740   -1.0180    4.1520 C   0  0  0  0  0  0  0  0  0  0  0  0
    0.8990    0.1430    0.4530 C   0  0  0  0  0  0  0  0  0  0  0  0
    1.0990    0.6820   -0.6370 O   0  0  0  0  0  0  0  0  0  0  0  0
    3.1820    0.0110   -0.5550 H   0  0  0  0  0  0  0  0  0  0  0  0
    4.0570   -0.8280    0.6170 H   0  0  0  0  0  0  0  0  0  0  0  0
    1.9210   -1.4290    1.3980 H   0  0  0  0  0  0  0  0  0  0  0  0
    2.2090    1.5220    2.2180 H   0  0  0  0  0  0  0  0  0  0  0  0
    1.2370    0.2270    3.0600 H   0  0  0  0  0  0  0  0  0  0  0  0
    4.6550    1.4600    2.3060 H   0  0  0  0  0  0  0  0  0  0  0  0
    6.6240    0.7150    3.5700 H   0  0  0  0  0  0  0  0  0  0  0  0
    6.4450   -1.1470    5.2130 H   0  0  0  0  0  0  0  0  0  0  0  0
    4.2730   -2.2440    5.5660 H   0  0  0  0  0  0  0  0  0  0  0  0
    2.3260   -1.5080    4.3160 H   0  0  0  0  0  0  0  0  0  0  0  0
   -0.1960    5.0520   -0.7750 N   0  0  0  0  0  0  0  0  0  0  0  0
   -0.7420    3.7960   -1.1000 C   0  0  0  0  0  0  0  0  0  0  0  0
   -1.0920    3.5460   -2.2790 O   0  0  0  0  0  0  0  0  0  0  0  0
   -0.9040    2.7550   -0.0250 C   0  0  0  0  0  0  0  0  0  0  0  0
   -1.4970    1.5210   -0.6070 C   0  0  0  0  0  0  0  0  0  0  0  0
   -1.6270    0.4330    0.4600 C   0  0  2  0  0  0  0  0  0  0  0  0
   -0.3810    0.0020    0.9940 N   0  0  0  0  0  0  0  0  0  0  0  0
   -2.5490   -0.6450    0.0790 C   0  0  0  0  0  0  0  0  0  0  0  0
   -3.6680   -0.3280   -0.4000 O   0  0  0  0  0  0  0  0  0  0  0  0
    0.6880    5.4280   -1.1510 H   0  0  0  0  0  0  0  0  0  0  0  0
   -0.7200    5.6650   -0.0960 H   0  0  0  0  0  0  0  0  0  0  0  0
   -1.6890    3.1590    0.7060 H   0  0  0  0  0  0  0  0  0  0  0  0
   -0.0110    2.6140    0.5670 H   0  0  0  0  0  0  0  0  0  0  0  0
   -0.9310    1.1420   -1.4520 H   0  0  0  0  0  0  0  0  0  0  0  0
   -2.5700    1.7370   -0.9130 H   0  0  0  0  0  0  0  0  0  0  0  0
   -2.1340    1.0620    1.2950 H   0  0  0  0  0  0  0  0  0  0  0  0
   -0.4050   -0.5040    1.9490 H   0  0  0  0  0  0  0  0  0  0  0  0
   -1.3530   -4.3940   -3.2600 C   0  0  0  0  0  0  0  0  0  0  0  0
   -1.9860   -3.3260   -2.3700 C   0  0  0  0  0  0  0  0  0  0  0  0
   -3.1840   -2.7980   -3.1270 C   0  0  0  0  0  0  0  0  0  0  0  0
   -2.3870   -4.0200   -1.0920 C   0  0  0  0  0  0  0  0  0  0  0  0
   -3.0360   -3.0740   -0.1030 C   0  0  2  0  0  0  0  0  0  0  0  0
   -2.1410   -1.9950    0.2670 N   0  0  0  0  0  0  0  0  0  0  0  0
   -3.3080   -3.8710    1.1260 C   0  0  0  0  0  0  0  0  0  0  0  0
   -4.0670   -4.8710    1.0570 O   0  0  0  0  0  0  0  0  0  0  0  0
   -2.7670   -3.5730    2.3690 O   0  0  0  0  0  0  0  0  0  0  0  0
   -1.5060   -4.1070   -4.3100 H   0  0  0  0  0  0  0  0  0  0  0  0
   -0.2620   -4.4220   -3.0770 H   0  0  0  0  0  0  0  0  0  0  0  0
   -1.8250   -5.3870   -3.0750 H   0  0  0  0  0  0  0  0  0  0  0  0
   -1.2250   -2.5570   -2.2200 H   0  0  0  0  0  0  0  0  0  0  0  0
   -4.1440   -3.1560   -2.7180 H   0  0  0  0  0  0  0  0  0  0  0  0
   -3.1690   -1.6820   -3.1360 H   0  0  0  0  0  0  0  0  0  0  0  0
   -3.1650   -3.1000   -4.2080 H   0  0  0  0  0  0  0  0  0  0  0  0
   -1.5030   -4.5200   -0.6810 H   0  0  0  0  0  0  0  0  0  0  0  0
   -3.1070   -4.8160   -1.3720 H   0  0  0  0  0  0  0  0  0  0  0  0
   -3.9670   -2.6620   -0.5050 H   0  0  0  0  0  0  0  0  0  0  0  0
   -1.1950   -2.1780    0.6710 H   0  0  0  0  0  0  0  0  0  0  0  0
  1 13  1  0  0  0  0
  1  2  1  0  0  0  0
  2 14  1  1  0  0  0
  2  3  1  0  0  0  0
  3 16  1  0  0  0  0
  3  4  1  0  0  0  0
  4  9  1  0  0  0  0
  5  4  2  0  0  0  0
  5  6  1  0  0  0  0
  6  7  2  0  0  0  0
  7  8  1  0  0  0  0
  7 19  1  0  0  0  0
  8 20  1  0  0  0  0
  9 21  1  0  0  0  0
  9  8  2  0  0  0  0
 10 28  1  0  0  0  0
 10  2  1  0  0  0  0
 11 10  2  0  0  0  0
 12  1  1  0  0  0  0
 15  3  1  0  0  0  0
 17  5  1  0  0  0  0
 18  6  1  0  0  0  0
 22 32  1  0  0  0  0
 23 22  1  0  0  0  0
 23 25  1  0  0  0  0
 24 23  2  0  0  0  0
 25 34  1  0  0  0  0
 25 33  1  0  0  0  0
 26 25  1  0  0  0  0
 26 27  1  0  0  0  0
 27 28  1  0  0  0  0
 27 37  1  1  0  0  0
 28 38  1  0  0  0  0
 29 44  1  0  0  0  0
 29 27  1  0  0  0  0
 30 29  2  0  0  0  0
 31 22  1  0  0  0  0
 35 26  1  0  0  0  0
 36 26  1  0  0  0  0
 39 49  1  0  0  0  0
 39 50  1  0  0  0  0
 39 40  1  0  0  0  0
 40 51  1  0  0  0  0
 40 42  1  0  0  0  0
 41 52  1  0  0  0  0
 41 40  1  0  0  0  0
 42 55  1  0  0  0  0
 42 43  1  0  0  0  0
 43 57  1  6  0  0  0
 43 44  1  0  0  0  0
 43 45  1  0  0  0  0
 44 58  1  0  0  0  0
 45 47  1  0  0  0  0
 46 45  2  0  0  0  0
 48 39  1  0  0  0  0
 53 41  1  0  0  0  0
 54 41  1  0  0  0  0
 56 42  1  0  0  0  0
M  END
$$$$
