FQN.pdb
 OpenBabel07022418593D

 53 53  0  0  1  0  0  0  0  0999 V2000
    3.0910   -0.3990   -0.1820 N   0  0  0  0  0  0  0  0  0  0  0  0
    1.9640   -0.5970    0.7030 C   0  0  1  0  0  0  0  0  0  0  0  0
    2.1680    0.1230    2.0260 C   0  0  0  0  0  0  0  0  0  0  0  0
    3.3710   -0.3570    2.7500 C   0  0  0  0  0  0  0  0  0  0  0  0
    4.6150    0.2030    2.5490 C   0  0  0  0  0  0  0  0  0  0  0  0
    5.7080   -0.2610    3.2330 C   0  0  0  0  0  0  0  0  0  0  0  0
    5.6030   -1.2980    4.1420 C   0  0  0  0  0  0  0  0  0  0  0  0
    4.3590   -1.8640    4.3470 C   0  0  0  0  0  0  0  0  0  0  0  0
    3.2680   -1.3900    3.6560 C   0  0  0  0  0  0  0  0  0  0  0  0
    0.7020   -0.0180    0.1200 C   0  0  0  0  0  0  0  0  0  0  0  0
    0.7270    0.6340   -0.9400 O   0  0  0  0  0  0  0  0  0  0  0  0
    3.9360   -0.8180    0.2820 H   0  0  0  0  0  0  0  0  0  0  0  0
    2.9610   -0.9220   -1.0770 H   0  0  0  0  0  0  0  0  0  0  0  0
    1.7830   -1.6780    0.8240 H   0  0  0  0  0  0  0  0  0  0  0  0
    2.2750    1.2160    1.8720 H   0  0  0  0  0  0  0  0  0  0  0  0
    1.2570   -0.0350    2.6390 H   0  0  0  0  0  0  0  0  0  0  0  0
    4.7020    1.0260    1.8280 H   0  0  0  0  0  0  0  0  0  0  0  0
    6.7030    0.1730    3.0850 H   0  0  0  0  0  0  0  0  0  0  0  0
    6.4540   -1.6890    4.7000 H   0  0  0  0  0  0  0  0  0  0  0  0
    4.2250   -2.6850    5.0550 H   0  0  0  0  0  0  0  0  0  0  0  0
    2.2740   -1.8240    3.8020 H   0  0  0  0  0  0  0  0  0  0  0  0
   -0.8330    4.9660   -0.8230 N   0  0  0  0  0  0  0  0  0  0  0  0
   -1.3530    3.6530   -1.0400 C   0  0  0  0  0  0  0  0  0  0  0  0
   -1.8960    3.3910   -2.1370 O   0  0  0  0  0  0  0  0  0  0  0  0
   -1.2550    2.6060    0.0180 C   0  0  0  0  0  0  0  0  0  0  0  0
   -1.8810    1.3420   -0.4790 C   0  0  0  0  0  0  0  0  0  0  0  0
   -1.8050    0.1920    0.5130 C   0  0  2  0  0  0  0  0  0  0  0  0
   -0.4960   -0.2560    0.8350 N   0  0  0  0  0  0  0  0  0  0  0  0
   -2.7110   -0.8640    0.1350 C   0  0  0  0  0  0  0  0  0  0  0  0
   -3.9240   -0.6650   -0.1750 O   0  0  0  0  0  0  0  0  0  0  0  0
   -0.0120    5.2810   -1.3950 H   0  0  0  0  0  0  0  0  0  0  0  0
   -1.2650    5.6100   -0.1000 H   0  0  0  0  0  0  0  0  0  0  0  0
   -1.9070    3.0260    0.8710 H   0  0  0  0  0  0  0  0  0  0  0  0
   -0.2520    2.5630    0.4160 H   0  0  0  0  0  0  0  0  0  0  0  0
   -2.9850    1.5440   -0.5950 H   0  0  0  0  0  0  0  0  0  0  0  0
   -1.4790    1.0510   -1.4600 H   0  0  0  0  0  0  0  0  0  0  0  0
   -2.2360    0.7050    1.4750 H   0  0  0  0  0  0  0  0  0  0  0  0
   -0.4000   -0.8460    1.7260 H   0  0  0  0  0  0  0  0  0  0  0  0
   -3.7870   -3.1460   -3.7840 N   0  0  0  0  0  0  0  0  0  0  0  0
   -2.9560   -2.9300   -2.6460 C   0  0  0  0  0  0  0  0  0  0  0  0
   -2.3270   -1.8350   -2.5040 O   0  0  0  0  0  0  0  0  0  0  0  0
   -2.7980   -3.9530   -1.6000 C   0  0  0  0  0  0  0  0  0  0  0  0
   -3.1000   -3.3190   -0.2680 C   0  0  2  0  0  0  0  0  0  0  0  0
   -2.2710   -2.2170    0.0910 N   0  0  0  0  0  0  0  0  0  0  0  0
   -3.1940   -4.2650    0.8340 C   0  0  0  0  0  0  0  0  0  0  0  0
   -2.6140   -4.0460    1.9110 O   0  0  0  0  0  0  0  0  0  0  0  0
   -3.9350   -5.4660    0.7500 O   0  0  0  0  0  0  0  0  0  0  0  0
   -4.8280   -3.2400   -3.7290 H   0  0  0  0  0  0  0  0  0  0  0  0
   -3.3560   -3.2130   -4.7290 H   0  0  0  0  0  0  0  0  0  0  0  0
   -3.5610   -4.7410   -1.7740 H   0  0  0  0  0  0  0  0  0  0  0  0
   -1.8210   -4.4600   -1.6270 H   0  0  0  0  0  0  0  0  0  0  0  0
   -4.1400   -2.8760   -0.4000 H   0  0  0  0  0  0  0  0  0  0  0  0
   -1.2770   -2.4080    0.3420 H   0  0  0  0  0  0  0  0  0  0  0  0
  1 12  1  0  0  0  0
  1  2  1  0  0  0  0
  2 14  1  1  0  0  0
  2  3  1  0  0  0  0
  3 16  1  0  0  0  0
  3  4  1  0  0  0  0
  4  9  1  0  0  0  0
  5  4  2  0  0  0  0
  5  6  1  0  0  0  0
  6  7  2  0  0  0  0
  7  8  1  0  0  0  0
  7 19  1  0  0  0  0
  8 20  1  0  0  0  0
  9 21  1  0  0  0  0
  9  8  2  0  0  0  0
 10  2  1  0  0  0  0
 10 28  1  0  0  0  0
 11 10  2  0  0  0  0
 13  1  1  0  0  0  0
 15  3  1  0  0  0  0
 17  5  1  0  0  0  0
 18  6  1  0  0  0  0
 22 32  1  0  0  0  0
 23 22  1  0  0  0  0
 23 25  1  0  0  0  0
 24 23  2  0  0  0  0
 25 34  1  0  0  0  0
 25 33  1  0  0  0  0
 26 25  1  0  0  0  0
 26 27  1  0  0  0  0
 27 28  1  0  0  0  0
 27 37  1  1  0  0  0
 28 38  1  0  0  0  0
 29 27  1  0  0  0  0
 30 29  2  0  0  0  0
 31 22  1  0  0  0  0
 35 26  1  0  0  0  0
 36 26  1  0  0  0  0
 39 48  1  0  0  0  0
 39 40  1  0  0  0  0
 40 41  2  0  0  0  0
 40 42  1  0  0  0  0
 42 43  1  0  0  0  0
 43 52  1  6  0  0  0
 43 44  1  0  0  0  0
 43 45  1  0  0  0  0
 44 29  1  0  0  0  0
 44 53  1  0  0  0  0
 45 46  1  0  0  0  0
 47 45  2  0  0  0  0
 49 39  1  0  0  0  0
 50 42  1  0  0  0  0
 51 42  1  0  0  0  0
M  END
$$$$
