FQQ.pdb
 OpenBabel07022418593D

 56 56  0  0  1  0  0  0  0  0999 V2000
   -3.4160   -0.1040    2.8170 N   0  0  0  0  0  0  0  0  0  0  0  0
   -3.2950    0.8090    1.6960 C   0  0  1  0  0  0  0  0  0  0  0  0
   -3.1560    2.2310    2.1150 C   0  0  0  0  0  0  0  0  0  0  0  0
   -2.0020    2.5350    2.9490 C   0  0  0  0  0  0  0  0  0  0  0  0
   -2.0640    2.4590    4.3240 C   0  0  0  0  0  0  0  0  0  0  0  0
   -0.9510    2.7540    5.1160 C   0  0  0  0  0  0  0  0  0  0  0  0
    0.2310    3.1290    4.5130 C   0  0  0  0  0  0  0  0  0  0  0  0
    0.3060    3.2090    3.1410 C   0  0  0  0  0  0  0  0  0  0  0  0
   -0.8130    2.9110    2.3660 C   0  0  0  0  0  0  0  0  0  0  0  0
   -2.2050    0.4450    0.7830 C   0  0  0  0  0  0  0  0  0  0  0  0
   -2.0520    1.1960   -0.2370 O   0  0  0  0  0  0  0  0  0  0  0  0
   -4.0860    0.3610    3.4960 H   0  0  0  0  0  0  0  0  0  0  0  0
   -3.8590   -1.0030    2.5390 H   0  0  0  0  0  0  0  0  0  0  0  0
   -4.2800    0.7320    1.1460 H   0  0  0  0  0  0  0  0  0  0  0  0
   -4.0990    2.5050    2.6700 H   0  0  0  0  0  0  0  0  0  0  0  0
   -3.1520    2.8600    1.2040 H   0  0  0  0  0  0  0  0  0  0  0  0
   -3.0110    2.1610    4.7490 H   0  0  0  0  0  0  0  0  0  0  0  0
   -1.0400    2.6820    6.2030 H   0  0  0  0  0  0  0  0  0  0  0  0
    1.0700    3.3490    5.1600 H   0  0  0  0  0  0  0  0  0  0  0  0
    1.2330    3.5030    2.6700 H   0  0  0  0  0  0  0  0  0  0  0  0
   -0.6770    2.9970    1.3080 H   0  0  0  0  0  0  0  0  0  0  0  0
    3.1080   -2.3450    3.4250 N   0  0  0  0  0  0  0  0  0  0  0  0
    2.6270   -1.5790    2.3310 C   0  0  0  0  0  0  0  0  0  0  0  0
    3.3940   -0.7290    1.8320 O   0  0  0  0  0  0  0  0  0  0  0  0
    1.2700   -1.7480    1.7710 C   0  0  0  0  0  0  0  0  0  0  0  0
    1.0770   -0.7980    0.6360 C   0  0  0  0  0  0  0  0  0  0  0  0
   -0.3090   -0.9300    0.0180 C   0  0  2  0  0  0  0  0  0  0  0  0
   -1.3430   -0.6610    0.9700 N   0  0  0  0  0  0  0  0  0  0  0  0
   -0.4460   -2.2610   -0.6180 C   0  0  0  0  0  0  0  0  0  0  0  0
   -1.3710   -3.0330   -0.3140 O   0  0  0  0  0  0  0  0  0  0  0  0
    3.7570   -3.1290    3.2230 H   0  0  0  0  0  0  0  0  0  0  0  0
    2.7740   -2.0700    4.3740 H   0  0  0  0  0  0  0  0  0  0  0  0
    1.0830   -2.7940    1.4350 H   0  0  0  0  0  0  0  0  0  0  0  0
    0.5550   -1.4560    2.5790 H   0  0  0  0  0  0  0  0  0  0  0  0
    1.8430   -0.9830   -0.1420 H   0  0  0  0  0  0  0  0  0  0  0  0
    1.2560    0.2490    0.9810 H   0  0  0  0  0  0  0  0  0  0  0  0
   -0.3500   -0.1650   -0.7810 H   0  0  0  0  0  0  0  0  0  0  0  0
   -1.4980   -1.2550    1.8170 H   0  0  0  0  0  0  0  0  0  0  0  0
    1.5990   -0.5740   -4.8000 N   0  0  0  0  0  0  0  0  0  0  0  0
    0.5690   -1.4200   -4.2680 C   0  0  0  0  0  0  0  0  0  0  0  0
   -0.3510   -0.9290   -3.5440 O   0  0  0  0  0  0  0  0  0  0  0  0
    0.6270   -2.8550   -4.5990 C   0  0  0  0  0  0  0  0  0  0  0  0
   -0.0500   -3.7780   -3.6630 C   0  0  0  0  0  0  0  0  0  0  0  0
    0.4950   -3.8950   -2.2830 C   0  0  2  0  0  0  0  0  0  0  0  0
    0.4970   -2.6550   -1.5900 N   0  0  0  0  0  0  0  0  0  0  0  0
    1.7590   -4.6300   -2.2040 C   0  0  0  0  0  0  0  0  0  0  0  0
    2.7240   -4.1600   -1.5680 O   0  0  0  0  0  0  0  0  0  0  0  0
    1.8960   -5.8490   -2.8300 O   0  0  0  0  0  0  0  0  0  0  0  0
    1.3320    0.1290   -5.5140 H   0  0  0  0  0  0  0  0  0  0  0  0
    2.5890   -0.6380   -4.5020 H   0  0  0  0  0  0  0  0  0  0  0  0
    1.7270   -3.1100   -4.7290 H   0  0  0  0  0  0  0  0  0  0  0  0
    0.1330   -2.9460   -5.6170 H   0  0  0  0  0  0  0  0  0  0  0  0
   -1.1200   -3.4120   -3.5730 H   0  0  0  0  0  0  0  0  0  0  0  0
   -0.1600   -4.8110   -4.0820 H   0  0  0  0  0  0  0  0  0  0  0  0
   -0.2740   -4.5420   -1.7250 H   0  0  0  0  0  0  0  0  0  0  0  0
    1.2820   -1.9940   -1.8070 H   0  0  0  0  0  0  0  0  0  0  0  0
  1 12  1  0  0  0  0
  2 14  1  6  0  0  0
  2  3  1  0  0  0  0
  2  1  1  0  0  0  0
  3 15  1  0  0  0  0
  3  4  1  0  0  0  0
  4  5  1  0  0  0  0
  5 17  1  0  0  0  0
  5  6  2  0  0  0  0
  6 18  1  0  0  0  0
  7  6  1  0  0  0  0
  7 19  1  0  0  0  0
  8  7  2  0  0  0  0
  9  4  2  0  0  0  0
  9  8  1  0  0  0  0
 10 28  1  0  0  0  0
 10  2  1  0  0  0  0
 11 10  2  0  0  0  0
 13  1  1  0  0  0  0
 16  3  1  0  0  0  0
 20  8  1  0  0  0  0
 21  9  1  0  0  0  0
 22 32  1  0  0  0  0
 23 22  1  0  0  0  0
 24 23  2  0  0  0  0
 25 23  1  0  0  0  0
 25 34  1  0  0  0  0
 26 36  1  0  0  0  0
 26 25  1  0  0  0  0
 27 37  1  6  0  0  0
 27 26  1  0  0  0  0
 27 28  1  0  0  0  0
 28 38  1  0  0  0  0
 29 30  2  0  0  0  0
 29 27  1  0  0  0  0
 31 22  1  0  0  0  0
 33 25  1  0  0  0  0
 35 26  1  0  0  0  0
 39 50  1  0  0  0  0
 39 40  1  0  0  0  0
 40 41  2  0  0  0  0
 42 40  1  0  0  0  0
 42 43  1  0  0  0  0
 43 53  1  0  0  0  0
 43 44  1  0  0  0  0
 44 46  1  0  0  0  0
 44 55  1  1  0  0  0
 44 45  1  0  0  0  0
 45 29  1  0  0  0  0
 46 47  1  0  0  0  0
 48 46  2  0  0  0  0
 49 39  1  0  0  0  0
 51 42  1  0  0  0  0
 52 42  1  0  0  0  0
 54 43  1  0  0  0  0
 56 45  1  0  0  0  0
M  END
$$$$
