FQR.pdb
 OpenBabel07022418593D

 62 62  0  0  1  0  0  0  0  0999 V2000
    0.3650    1.5720    4.0840 N   0  0  0  0  0  0  0  0  0  0  0  0
    0.8840    1.1300    2.8090 C   0  0  1  0  0  0  0  0  0  0  0  0
    0.8270   -0.3830    2.7800 C   0  0  0  0  0  0  0  0  0  0  0  0
    1.6350   -0.9840    3.8590 C   0  0  0  0  0  0  0  0  0  0  0  0
    1.1310   -1.2670    5.1050 C   0  0  0  0  0  0  0  0  0  0  0  0
    1.9470   -1.8360    6.0900 C   0  0  0  0  0  0  0  0  0  0  0  0
    3.2720   -2.1290    5.8450 C   0  0  0  0  0  0  0  0  0  0  0  0
    3.7750   -1.8420    4.5910 C   0  0  0  0  0  0  0  0  0  0  0  0
    2.9690   -1.2770    3.6090 C   0  0  0  0  0  0  0  0  0  0  0  0
    0.0150    1.7180    1.7410 C   0  0  0  0  0  0  0  0  0  0  0  0
   -0.9640    2.4710    2.0220 O   0  0  0  0  0  0  0  0  0  0  0  0
   -0.6770    1.3870    4.0810 H   0  0  0  0  0  0  0  0  0  0  0  0
    0.4670    2.6020    4.2050 H   0  0  0  0  0  0  0  0  0  0  0  0
    1.9430    1.4910    2.6810 H   0  0  0  0  0  0  0  0  0  0  0  0
    1.0560   -0.8000    1.7770 H   0  0  0  0  0  0  0  0  0  0  0  0
   -0.2480   -0.6450    3.0050 H   0  0  0  0  0  0  0  0  0  0  0  0
    0.0990   -1.0470    5.3190 H   0  0  0  0  0  0  0  0  0  0  0  0
    1.5560   -2.0630    7.0750 H   0  0  0  0  0  0  0  0  0  0  0  0
    3.8920   -2.5700    6.6170 H   0  0  0  0  0  0  0  0  0  0  0  0
    4.8140   -2.0650    4.3780 H   0  0  0  0  0  0  0  0  0  0  0  0
    3.3590   -1.0470    2.6170 H   0  0  0  0  0  0  0  0  0  0  0  0
   -2.3670    5.0120   -3.4020 N   0  0  0  0  0  0  0  0  0  0  0  0
   -1.5060    4.4000   -2.4540 C   0  0  0  0  0  0  0  0  0  0  0  0
   -1.5940    4.7500   -1.2570 O   0  0  0  0  0  0  0  0  0  0  0  0
   -0.5180    3.3730   -2.8350 C   0  0  0  0  0  0  0  0  0  0  0  0
    0.2220    2.7520   -1.7050 C   0  0  0  0  0  0  0  0  0  0  0  0
   -0.5930    2.0290   -0.6960 C   0  0  2  0  0  0  0  0  0  0  0  0
    0.2460    1.4610    0.3700 N   0  0  0  0  0  0  0  0  0  0  0  0
   -1.3570    0.8720   -1.2930 C   0  0  0  0  0  0  0  0  0  0  0  0
   -2.1710    1.0700   -2.2380 O   0  0  0  0  0  0  0  0  0  0  0  0
   -3.3920    5.0470   -3.1900 H   0  0  0  0  0  0  0  0  0  0  0  0
   -2.0610    5.4360   -4.3050 H   0  0  0  0  0  0  0  0  0  0  0  0
    0.2360    3.8810   -3.5140 H   0  0  0  0  0  0  0  0  0  0  0  0
   -0.9730    2.5880   -3.5040 H   0  0  0  0  0  0  0  0  0  0  0  0
    0.9560    2.0040   -2.1240 H   0  0  0  0  0  0  0  0  0  0  0  0
    0.8830    3.4810   -1.1670 H   0  0  0  0  0  0  0  0  0  0  0  0
   -1.3660    2.6890   -0.2830 H   0  0  0  0  0  0  0  0  0  0  0  0
    1.0460    0.8430    0.1200 H   0  0  0  0  0  0  0  0  0  0  0  0
    1.3540   -4.4860    0.0920 N   0  0  0  0  0  0  0  0  0  0  0  0
   -0.0460   -4.6950   -0.0360 C   0  0  0  0  0  0  0  0  0  0  0  0
   -0.8940   -4.2580    0.8480 N   0  0  0  0  0  0  0  0  0  0  0  0
   -0.5710   -5.3980   -1.1460 N   0  0  0  0  0  0  0  0  0  0  0  0
   -1.7150   -4.9090   -1.9400 C   0  0  0  0  0  0  0  0  0  0  0  0
   -1.3690   -3.7070   -2.7280 C   0  0  0  0  0  0  0  0  0  0  0  0
   -0.9750   -2.4540   -2.1020 C   0  0  0  0  0  0  0  0  0  0  0  0
   -1.9280   -1.6090   -1.3870 C   0  0  2  0  0  0  0  0  0  0  0  0
   -1.1920   -0.4250   -0.8280 N   0  0  0  0  0  0  0  0  0  0  0  0
   -2.8750   -2.0970   -0.4300 C   0  0  0  0  0  0  0  0  0  0  0  0
   -2.7690   -1.6790    0.7770 O   0  0  0  0  0  0  0  0  0  0  0  0
   -3.9180   -2.9700   -0.6360 O   0  0  0  0  0  0  0  0  0  0  0  0
    1.9640   -5.2880    0.3090 H   0  0  0  0  0  0  0  0  0  0  0  0
    1.7240   -3.5370   -0.0350 H   0  0  0  0  0  0  0  0  0  0  0  0
   -0.5160   -3.7490    1.6530 H   0  0  0  0  0  0  0  0  0  0  0  0
   -0.0830   -6.3140   -1.3860 H   0  0  0  0  0  0  0  0  0  0  0  0
   -1.8290   -5.7480   -2.7230 H   0  0  0  0  0  0  0  0  0  0  0  0
   -2.5950   -4.9270   -1.3280 H   0  0  0  0  0  0  0  0  0  0  0  0
   -2.2470   -3.5660   -3.4610 H   0  0  0  0  0  0  0  0  0  0  0  0
   -0.5660   -4.0660   -3.4790 H   0  0  0  0  0  0  0  0  0  0  0  0
   -0.5320   -1.8030   -2.9520 H   0  0  0  0  0  0  0  0  0  0  0  0
   -0.0220   -2.6360   -1.4850 H   0  0  0  0  0  0  0  0  0  0  0  0
   -2.5510   -1.0880   -2.2130 H   0  0  0  0  0  0  0  0  0  0  0  0
   -0.5420   -0.6630   -0.0560 H   0  0  0  0  0  0  0  0  0  0  0  0
  1 13  1  0  0  0  0
  2 14  1  6  0  0  0
  2  1  1  0  0  0  0
  3  2  1  0  0  0  0
  3 16  1  0  0  0  0
  3  4  1  0  0  0  0
  4  5  1  0  0  0  0
  5 17  1  0  0  0  0
  5  6  2  0  0  0  0
  6 18  1  0  0  0  0
  7  6  1  0  0  0  0
  7 19  1  0  0  0  0
  8  7  2  0  0  0  0
  9  4  2  0  0  0  0
  9  8  1  0  0  0  0
 10 11  2  0  0  0  0
 10  2  1  0  0  0  0
 12  1  1  0  0  0  0
 15  3  1  0  0  0  0
 20  8  1  0  0  0  0
 21  9  1  0  0  0  0
 22 31  1  0  0  0  0
 22 23  1  0  0  0  0
 23 24  2  0  0  0  0
 25 23  1  0  0  0  0
 25 26  1  0  0  0  0
 26 36  1  0  0  0  0
 26 27  1  0  0  0  0
 27 37  1  1  0  0  0
 27 28  1  0  0  0  0
 28 10  1  0  0  0  0
 29 47  1  0  0  0  0
 29 27  1  0  0  0  0
 30 29  2  0  0  0  0
 32 22  1  0  0  0  0
 33 25  1  0  0  0  0
 34 25  1  0  0  0  0
 35 26  1  0  0  0  0
 38 28  1  0  0  0  0
 39 51  1  0  0  0  0
 40 39  1  0  0  0  0
 40 41  2  0  0  0  0
 41 53  1  0  0  0  0
 42 40  1  0  0  0  0
 43 56  1  0  0  0  0
 43 42  1  0  0  0  0
 44 45  1  0  0  0  0
 44 43  1  0  0  0  0
 45 60  1  0  0  0  0
 45 46  1  0  0  0  0
 46 61  1  6  0  0  0
 46 47  1  0  0  0  0
 46 48  1  0  0  0  0
 47 62  1  0  0  0  0
 48 49  1  0  0  0  0
 50 48  2  0  0  0  0
 52 39  1  0  0  0  0
 54 42  1  0  0  0  0
 55 43  1  0  0  0  0
 57 44  1  0  0  0  0
 58 44  1  0  0  0  0
 59 45  1  0  0  0  0
M  END
$$$$
