FQS.pdb
 OpenBabel07022418593D

 50 50  0  0  1  0  0  0  0  0999 V2000
    2.2730   -2.3810    3.8730 N   0  0  0  0  0  0  0  0  0  0  0  0
    2.1060   -1.1170    3.1730 C   0  0  1  0  0  0  0  0  0  0  0  0
    3.2510   -0.8130    2.2640 C   0  0  0  0  0  0  0  0  0  0  0  0
    3.4930   -1.7900    1.2010 C   0  0  0  0  0  0  0  0  0  0  0  0
    2.9590   -1.6250   -0.0330 C   0  0  0  0  0  0  0  0  0  0  0  0
    3.1830   -2.5510   -1.0330 C   0  0  0  0  0  0  0  0  0  0  0  0
    3.9480   -3.6480   -0.7930 C   0  0  0  0  0  0  0  0  0  0  0  0
    4.5060   -3.8390    0.4620 C   0  0  0  0  0  0  0  0  0  0  0  0
    4.2710   -2.9090    1.4440 C   0  0  0  0  0  0  0  0  0  0  0  0
    0.7640   -0.9600    2.6040 C   0  0  0  0  0  0  0  0  0  0  0  0
   -0.1280   -1.7450    3.0590 O   0  0  0  0  0  0  0  0  0  0  0  0
    1.4840   -2.9820    3.5420 H   0  0  0  0  0  0  0  0  0  0  0  0
    2.1390   -2.2250    4.8850 H   0  0  0  0  0  0  0  0  0  0  0  0
    2.1650   -0.3360    3.9990 H   0  0  0  0  0  0  0  0  0  0  0  0
    3.2070    0.2370    1.8900 H   0  0  0  0  0  0  0  0  0  0  0  0
    4.1790   -0.8170    2.9120 H   0  0  0  0  0  0  0  0  0  0  0  0
    2.3480   -0.7710   -0.3130 H   0  0  0  0  0  0  0  0  0  0  0  0
    2.7410   -2.4010   -2.0190 H   0  0  0  0  0  0  0  0  0  0  0  0
    4.1690   -4.4180   -1.5250 H   0  0  0  0  0  0  0  0  0  0  0  0
    5.1190   -4.7010    0.6800 H   0  0  0  0  0  0  0  0  0  0  0  0
    4.7180   -3.0850    2.4040 H   0  0  0  0  0  0  0  0  0  0  0  0
   -1.9330    4.0910    3.8370 N   0  0  0  0  0  0  0  0  0  0  0  0
   -1.9160    3.4650    2.5730 C   0  0  0  0  0  0  0  0  0  0  0  0
   -2.2980    4.1050    1.5630 O   0  0  0  0  0  0  0  0  0  0  0  0
   -1.4430    2.0630    2.4850 C   0  0  0  0  0  0  0  0  0  0  0  0
   -1.4450    1.5480    1.0650 C   0  0  0  0  0  0  0  0  0  0  0  0
   -0.9540    0.1240    1.0850 C   0  0  2  0  0  0  0  0  0  0  0  0
    0.3790   -0.0270    1.6150 N   0  0  0  0  0  0  0  0  0  0  0  0
   -1.1520   -0.5810   -0.2190 C   0  0  0  0  0  0  0  0  0  0  0  0
   -0.2380   -1.3250   -0.6720 O   0  0  0  0  0  0  0  0  0  0  0  0
   -2.4790    4.9580    3.9930 H   0  0  0  0  0  0  0  0  0  0  0  0
   -1.4000    3.6910    4.6290 H   0  0  0  0  0  0  0  0  0  0  0  0
   -2.1390    1.4240    3.0710 H   0  0  0  0  0  0  0  0  0  0  0  0
   -0.4090    2.0160    2.8620 H   0  0  0  0  0  0  0  0  0  0  0  0
   -2.4780    1.5380    0.6660 H   0  0  0  0  0  0  0  0  0  0  0  0
   -0.8420    2.1940    0.3920 H   0  0  0  0  0  0  0  0  0  0  0  0
   -1.6140   -0.4150    1.8480 H   0  0  0  0  0  0  0  0  0  0  0  0
    1.1790    0.5870    1.2680 H   0  0  0  0  0  0  0  0  0  0  0  0
   -3.4520   -3.0810   -1.1790 O   0  0  0  0  0  0  0  0  0  0  0  0
   -3.6300   -2.1440   -2.1700 C   0  0  0  0  0  0  0  0  0  0  0  0
   -2.4660   -1.1820   -2.2770 C   0  0  2  0  0  0  0  0  0  0  0  0
   -2.3180   -0.4720   -1.0110 N   0  0  0  0  0  0  0  0  0  0  0  0
   -2.6180   -0.2650   -3.4290 C   0  0  0  0  0  0  0  0  0  0  0  0
   -2.6020    0.9710   -3.2610 O   0  0  0  0  0  0  0  0  0  0  0  0
   -2.7800   -0.7660   -4.7030 O   0  0  0  0  0  0  0  0  0  0  0  0
   -3.5190   -2.6740   -0.2630 H   0  0  0  0  0  0  0  0  0  0  0  0
   -4.5530   -1.5570   -1.9340 H   0  0  0  0  0  0  0  0  0  0  0  0
   -3.8360   -2.6470   -3.1330 H   0  0  0  0  0  0  0  0  0  0  0  0
   -1.5520   -1.8190   -2.4660 H   0  0  0  0  0  0  0  0  0  0  0  0
   -3.0900    0.1390   -0.6740 H   0  0  0  0  0  0  0  0  0  0  0  0
  1 13  1  0  0  0  0
  2  1  1  0  0  0  0
  2 14  1  1  0  0  0
  3 16  1  0  0  0  0
  3  2  1  0  0  0  0
  4  9  1  0  0  0  0
  4  3  1  0  0  0  0
  5  4  2  0  0  0  0
  6  7  2  0  0  0  0
  6  5  1  0  0  0  0
  7  8  1  0  0  0  0
  8 20  1  0  0  0  0
  8  9  2  0  0  0  0
  9 21  1  0  0  0  0
 10 11  2  0  0  0  0
 10  2  1  0  0  0  0
 12  1  1  0  0  0  0
 15  3  1  0  0  0  0
 17  5  1  0  0  0  0
 18  6  1  0  0  0  0
 19  7  1  0  0  0  0
 22 31  1  0  0  0  0
 22 32  1  0  0  0  0
 23 22  1  0  0  0  0
 24 23  2  0  0  0  0
 25 23  1  0  0  0  0
 25 34  1  0  0  0  0
 25 33  1  0  0  0  0
 26 27  1  0  0  0  0
 26 25  1  0  0  0  0
 27 28  1  0  0  0  0
 27 37  1  1  0  0  0
 28 10  1  0  0  0  0
 29 27  1  0  0  0  0
 30 29  2  0  0  0  0
 35 26  1  0  0  0  0
 36 26  1  0  0  0  0
 38 28  1  0  0  0  0
 39 46  1  0  0  0  0
 40 47  1  0  0  0  0
 40 39  1  0  0  0  0
 41 49  1  6  0  0  0
 41 40  1  0  0  0  0
 41 42  1  0  0  0  0
 42 50  1  0  0  0  0
 42 29  1  0  0  0  0
 43 44  1  0  0  0  0
 43 41  1  0  0  0  0
 45 43  2  0  0  0  0
 48 40  1  0  0  0  0
M  END
$$$$
