FQT.pdb
 OpenBabel07022418593D

 53 53  0  0  1  0  0  0  0  0999 V2000
    3.3360   -1.8300    0.3560 N   0  0  0  0  0  0  0  0  0  0  0  0
    2.3320   -1.3170    1.2570 C   0  0  1  0  0  0  0  0  0  0  0  0
    2.7930    0.0450    1.7390 C   0  0  0  0  0  0  0  0  0  0  0  0
    4.0890   -0.1500    2.4300 C   0  0  0  0  0  0  0  0  0  0  0  0
    5.2810   -0.0770    1.7430 C   0  0  0  0  0  0  0  0  0  0  0  0
    6.4790   -0.2640    2.4150 C   0  0  0  0  0  0  0  0  0  0  0  0
    6.5060   -0.5250    3.7680 C   0  0  0  0  0  0  0  0  0  0  0  0
    5.3150   -0.6000    4.4610 C   0  0  0  0  0  0  0  0  0  0  0  0
    4.1250   -0.4120    3.7800 C   0  0  0  0  0  0  0  0  0  0  0  0
    1.0280   -1.0810    0.5430 C   0  0  0  0  0  0  0  0  0  0  0  0
    1.0010   -1.3510   -0.6780 O   0  0  0  0  0  0  0  0  0  0  0  0
    3.3810   -2.8570    0.3110 H   0  0  0  0  0  0  0  0  0  0  0  0
    3.2250   -1.3520   -0.5590 H   0  0  0  0  0  0  0  0  0  0  0  0
    2.1260   -2.0040    2.1050 H   0  0  0  0  0  0  0  0  0  0  0  0
    2.0300    0.5050    2.4110 H   0  0  0  0  0  0  0  0  0  0  0  0
    2.8860    0.6930    0.8430 H   0  0  0  0  0  0  0  0  0  0  0  0
    5.2990    0.1290    0.6660 H   0  0  0  0  0  0  0  0  0  0  0  0
    7.4210   -0.2090    1.8910 H   0  0  0  0  0  0  0  0  0  0  0  0
    7.4140   -0.6780    4.3350 H   0  0  0  0  0  0  0  0  0  0  0  0
    5.2520   -0.8000    5.5170 H   0  0  0  0  0  0  0  0  0  0  0  0
    3.1960   -0.4700    4.3180 H   0  0  0  0  0  0  0  0  0  0  0  0
   -0.9630    4.5610    0.6690 N   0  0  0  0  0  0  0  0  0  0  0  0
   -1.2160    3.3640   -0.0300 C   0  0  0  0  0  0  0  0  0  0  0  0
   -1.4840    3.4030   -1.2440 O   0  0  0  0  0  0  0  0  0  0  0  0
   -1.1630    2.0800    0.6770 C   0  0  0  0  0  0  0  0  0  0  0  0
   -1.4560    0.8990   -0.2090 C   0  0  0  0  0  0  0  0  0  0  0  0
   -1.3710   -0.3380    0.6190 C   0  0  2  0  0  0  0  0  0  0  0  0
   -0.1010   -0.5780    1.2360 N   0  0  0  0  0  0  0  0  0  0  0  0
   -1.8170   -1.5740   -0.0880 C   0  0  0  0  0  0  0  0  0  0  0  0
   -1.1320   -2.6170   -0.0300 O   0  0  0  0  0  0  0  0  0  0  0  0
   -0.3980    4.5340    1.5510 H   0  0  0  0  0  0  0  0  0  0  0  0
   -1.3050    5.4990    0.3680 H   0  0  0  0  0  0  0  0  0  0  0  0
   -1.8240    2.0500    1.5560 H   0  0  0  0  0  0  0  0  0  0  0  0
   -0.1130    1.9450    1.0470 H   0  0  0  0  0  0  0  0  0  0  0  0
   -2.5300    0.9990   -0.5270 H   0  0  0  0  0  0  0  0  0  0  0  0
   -0.8670    0.8810   -1.1240 H   0  0  0  0  0  0  0  0  0  0  0  0
   -2.1000   -0.1970    1.4870 H   0  0  0  0  0  0  0  0  0  0  0  0
    0.0600   -0.3870    2.2620 H   0  0  0  0  0  0  0  0  0  0  0  0
   -5.3700   -4.4420   -1.5120 C   0  0  0  0  0  0  0  0  0  0  0  0
   -4.8220   -3.1760   -0.8950 C   0  0  1  0  0  0  0  0  0  0  0  0
   -4.5880   -3.4380    0.4460 O   0  0  0  0  0  0  0  0  0  0  0  0
   -3.4850   -2.7920   -1.5430 C   0  0  2  0  0  0  0  0  0  0  0  0
   -3.0170   -1.6200   -0.8450 N   0  0  0  0  0  0  0  0  0  0  0  0
   -3.6800   -2.5380   -2.9930 C   0  0  0  0  0  0  0  0  0  0  0  0
   -4.0850   -3.4580   -3.7440 O   0  0  0  0  0  0  0  0  0  0  0  0
   -3.4180   -1.2870   -3.5300 O   0  0  0  0  0  0  0  0  0  0  0  0
   -6.0670   -4.1980   -2.3430 H   0  0  0  0  0  0  0  0  0  0  0  0
   -5.8840   -5.0490   -0.7320 H   0  0  0  0  0  0  0  0  0  0  0  0
   -4.4950   -4.9970   -1.9270 H   0  0  0  0  0  0  0  0  0  0  0  0
   -5.5620   -2.3600   -0.9820 H   0  0  0  0  0  0  0  0  0  0  0  0
   -4.3220   -2.6500    0.9680 H   0  0  0  0  0  0  0  0  0  0  0  0
   -2.8330   -3.6580   -1.4430 H   0  0  0  0  0  0  0  0  0  0  0  0
   -3.5840   -0.7460   -0.8890 H   0  0  0  0  0  0  0  0  0  0  0  0
  1  2  1  0  0  0  0
  2  3  1  0  0  0  0
  2 14  1  1  0  0  0
  3 15  1  0  0  0  0
  3  4  1  0  0  0  0
  4  9  1  0  0  0  0
  5  6  1  0  0  0  0
  5  4  2  0  0  0  0
  6  7  2  0  0  0  0
  7 19  1  0  0  0  0
  7  8  1  0  0  0  0
  8 20  1  0  0  0  0
  9 21  1  0  0  0  0
  9  8  2  0  0  0  0
 10 28  1  0  0  0  0
 10  2  1  0  0  0  0
 11 10  2  0  0  0  0
 12  1  1  0  0  0  0
 13  1  1  0  0  0  0
 16  3  1  0  0  0  0
 17  5  1  0  0  0  0
 18  6  1  0  0  0  0
 22 31  1  0  0  0  0
 23 22  1  0  0  0  0
 23 25  1  0  0  0  0
 24 23  2  0  0  0  0
 25 34  1  0  0  0  0
 25 33  1  0  0  0  0
 26 27  1  0  0  0  0
 26 25  1  0  0  0  0
 27 28  1  0  0  0  0
 27 37  1  1  0  0  0
 28 38  1  0  0  0  0
 29 30  2  0  0  0  0
 29 27  1  0  0  0  0
 32 22  1  0  0  0  0
 35 26  1  0  0  0  0
 36 26  1  0  0  0  0
 39 40  1  0  0  0  0
 39 48  1  0  0  0  0
 40 50  1  6  0  0  0
 40 41  1  0  0  0  0
 41 51  1  0  0  0  0
 42 52  1  1  0  0  0
 42 40  1  0  0  0  0
 42 43  1  0  0  0  0
 43 29  1  0  0  0  0
 44 42  1  0  0  0  0
 45 44  2  0  0  0  0
 46 44  1  0  0  0  0
 47 39  1  0  0  0  0
 49 39  1  0  0  0  0
 53 43  1  0  0  0  0
M  END
$$$$
