FQV.pdb
 OpenBabel07022418593D

 55 55  0  0  1  0  0  0  0  0999 V2000
    3.8630    0.2350   -0.6180 N   0  0  0  0  0  0  0  0  0  0  0  0
    2.9370   -0.4040    0.2770 C   0  0  1  0  0  0  0  0  0  0  0  0
    3.0760    0.1790    1.6720 C   0  0  0  0  0  0  0  0  0  0  0  0
    4.4320   -0.0140    2.2000 C   0  0  0  0  0  0  0  0  0  0  0  0
    5.3790    0.9800    1.9510 C   0  0  0  0  0  0  0  0  0  0  0  0
    6.6420    0.8080    2.4380 C   0  0  0  0  0  0  0  0  0  0  0  0
    6.9440   -0.3240    3.1520 C   0  0  0  0  0  0  0  0  0  0  0  0
    6.0120   -1.3140    3.4040 C   0  0  0  0  0  0  0  0  0  0  0  0
    4.7470   -1.1320    2.9110 C   0  0  0  0  0  0  0  0  0  0  0  0
    1.5070   -0.1600   -0.1260 C   0  0  0  0  0  0  0  0  0  0  0  0
    1.3160    0.5290   -1.1280 O   0  0  0  0  0  0  0  0  0  0  0  0
    4.6750   -0.3870   -0.8370 H   0  0  0  0  0  0  0  0  0  0  0  0
    3.4110    0.6280   -1.4750 H   0  0  0  0  0  0  0  0  0  0  0  0
    3.1670   -1.4780    0.3320 H   0  0  0  0  0  0  0  0  0  0  0  0
    2.8540    1.2790    1.5600 H   0  0  0  0  0  0  0  0  0  0  0  0
    2.2920   -0.2140    2.3290 H   0  0  0  0  0  0  0  0  0  0  0  0
    5.0790    1.8530    1.3790 H   0  0  0  0  0  0  0  0  0  0  0  0
    7.4010    1.5800    2.2520 H   0  0  0  0  0  0  0  0  0  0  0  0
    7.9430   -0.4650    3.5400 H   0  0  0  0  0  0  0  0  0  0  0  0
    6.2640   -2.2100    3.9740 H   0  0  0  0  0  0  0  0  0  0  0  0
    3.9700   -1.8830    3.0800 H   0  0  0  0  0  0  0  0  0  0  0  0
   -0.7880    4.3610    0.6850 N   0  0  0  0  0  0  0  0  0  0  0  0
   -1.1070    3.1880   -0.0310 C   0  0  0  0  0  0  0  0  0  0  0  0
   -1.6090    3.2820   -1.1660 O   0  0  0  0  0  0  0  0  0  0  0  0
   -0.8370    1.8740    0.5850 C   0  0  0  0  0  0  0  0  0  0  0  0
   -1.2390    0.7280   -0.3180 C   0  0  0  0  0  0  0  0  0  0  0  0
   -0.8870   -0.5600    0.4000 C   0  0  2  0  0  0  0  0  0  0  0  0
    0.5070   -0.7330    0.6670 N   0  0  0  0  0  0  0  0  0  0  0  0
   -1.5020   -1.7620   -0.1270 C   0  0  0  0  0  0  0  0  0  0  0  0
   -0.8020   -2.8170   -0.3040 O   0  0  0  0  0  0  0  0  0  0  0  0
   -1.5490    4.9220    1.1640 H   0  0  0  0  0  0  0  0  0  0  0  0
    0.1820    4.7330    0.7840 H   0  0  0  0  0  0  0  0  0  0  0  0
    0.2220    1.7710    0.8500 H   0  0  0  0  0  0  0  0  0  0  0  0
   -1.4610    1.7890    1.5370 H   0  0  0  0  0  0  0  0  0  0  0  0
   -0.8850    0.8140   -1.3370 H   0  0  0  0  0  0  0  0  0  0  0  0
   -2.3690    0.6920   -0.4020 H   0  0  0  0  0  0  0  0  0  0  0  0
   -1.3460   -0.3290    1.4490 H   0  0  0  0  0  0  0  0  0  0  0  0
    0.7900   -1.3370    1.5280 H   0  0  0  0  0  0  0  0  0  0  0  0
   -5.6420   -2.3890    0.1200 C   0  0  0  0  0  0  0  0  0  0  0  0
   -4.5880   -3.4650   -0.0440 C   0  0  0  0  0  0  0  0  0  0  0  0
   -5.2770   -4.7090   -0.5650 C   0  0  0  0  0  0  0  0  0  0  0  0
   -3.4910   -3.0470   -0.9980 C   0  0  2  0  0  0  0  0  0  0  0  0
   -2.8680   -1.8640   -0.4750 N   0  0  0  0  0  0  0  0  0  0  0  0
   -4.1160   -2.7860   -2.3300 C   0  0  0  0  0  0  0  0  0  0  0  0
   -4.0760   -1.6580   -2.8830 O   0  0  0  0  0  0  0  0  0  0  0  0
   -4.7690   -3.8080   -2.9970 O   0  0  0  0  0  0  0  0  0  0  0  0
   -5.9800   -2.0080   -0.8630 H   0  0  0  0  0  0  0  0  0  0  0  0
   -5.2650   -1.5850    0.7840 H   0  0  0  0  0  0  0  0  0  0  0  0
   -6.5190   -2.8600    0.6020 H   0  0  0  0  0  0  0  0  0  0  0  0
   -4.1990   -3.7090    0.9590 H   0  0  0  0  0  0  0  0  0  0  0  0
   -5.6840   -5.2650    0.2850 H   0  0  0  0  0  0  0  0  0  0  0  0
   -4.5730   -5.3440   -1.1340 H   0  0  0  0  0  0  0  0  0  0  0  0
   -6.1280   -4.3810   -1.1840 H   0  0  0  0  0  0  0  0  0  0  0  0
   -2.8100   -3.8940   -1.1140 H   0  0  0  0  0  0  0  0  0  0  0  0
   -3.4730   -1.0210   -0.3440 H   0  0  0  0  0  0  0  0  0  0  0  0
  1  2  1  0  0  0  0
  2 14  1  1  0  0  0
  2  3  1  0  0  0  0
  3  4  1  0  0  0  0
  3 16  1  0  0  0  0
  4  9  1  0  0  0  0
  5  4  2  0  0  0  0
  5  6  1  0  0  0  0
  6  7  2  0  0  0  0
  7  8  1  0  0  0  0
  7 19  1  0  0  0  0
  8 20  1  0  0  0  0
  9 21  1  0  0  0  0
  9  8  2  0  0  0  0
 10  2  1  0  0  0  0
 10 28  1  0  0  0  0
 11 10  2  0  0  0  0
 12  1  1  0  0  0  0
 13  1  1  0  0  0  0
 15  3  1  0  0  0  0
 17  5  1  0  0  0  0
 18  6  1  0  0  0  0
 22 32  1  0  0  0  0
 22 31  1  0  0  0  0
 23 25  1  0  0  0  0
 23 22  1  0  0  0  0
 24 23  2  0  0  0  0
 25 33  1  0  0  0  0
 25 34  1  0  0  0  0
 26 27  1  0  0  0  0
 26 25  1  0  0  0  0
 27 28  1  0  0  0  0
 27 37  1  1  0  0  0
 28 38  1  0  0  0  0
 29 27  1  0  0  0  0
 30 29  2  0  0  0  0
 35 26  1  0  0  0  0
 36 26  1  0  0  0  0
 39 49  1  0  0  0  0
 39 48  1  0  0  0  0
 40 39  1  0  0  0  0
 40 50  1  0  0  0  0
 41 40  1  0  0  0  0
 41 51  1  0  0  0  0
 42 54  1  6  0  0  0
 42 43  1  0  0  0  0
 42 40  1  0  0  0  0
 43 55  1  0  0  0  0
 43 29  1  0  0  0  0
 44 42  1  0  0  0  0
 45 44  1  0  0  0  0
 46 44  2  0  0  0  0
 47 39  1  0  0  0  0
 52 41  1  0  0  0  0
 53 41  1  0  0  0  0
M  END
$$$$
