FQW.pdb
 OpenBabel07022418593D

 63 65  0  0  1  0  0  0  0  0999 V2000
    0.9620   -4.6790    1.4130 N   0  0  0  0  0  0  0  0  0  0  0  0
   -0.1280   -3.9220    2.0010 C   0  0  1  0  0  0  0  0  0  0  0  0
    0.0430   -3.5760    3.4320 C   0  0  0  0  0  0  0  0  0  0  0  0
    1.2240   -2.7330    3.7630 C   0  0  0  0  0  0  0  0  0  0  0  0
    2.4230   -3.3700    4.0260 C   0  0  0  0  0  0  0  0  0  0  0  0
    3.5690   -2.6390    4.3570 C   0  0  0  0  0  0  0  0  0  0  0  0
    3.4600   -1.2490    4.4110 C   0  0  0  0  0  0  0  0  0  0  0  0
    2.2870   -0.5890    4.1560 C   0  0  0  0  0  0  0  0  0  0  0  0
    1.1770   -1.3700    3.8320 C   0  0  0  0  0  0  0  0  0  0  0  0
   -0.5320   -2.7920    1.1240 C   0  0  0  0  0  0  0  0  0  0  0  0
   -0.1340   -2.8680   -0.0870 O   0  0  0  0  0  0  0  0  0  0  0  0
    0.6950   -5.1090    0.5100 H   0  0  0  0  0  0  0  0  0  0  0  0
    1.3000   -5.4160    2.0730 H   0  0  0  0  0  0  0  0  0  0  0  0
   -1.0060   -4.6450    1.9600 H   0  0  0  0  0  0  0  0  0  0  0  0
    0.1680   -4.5440    3.9850 H   0  0  0  0  0  0  0  0  0  0  0  0
   -0.8930   -3.1090    3.7980 H   0  0  0  0  0  0  0  0  0  0  0  0
    2.5310   -4.4500    3.9810 H   0  0  0  0  0  0  0  0  0  0  0  0
    4.5240   -3.1310    4.5690 H   0  0  0  0  0  0  0  0  0  0  0  0
    4.3810   -0.6950    4.6680 H   0  0  0  0  0  0  0  0  0  0  0  0
    2.2670    0.4910    4.2160 H   0  0  0  0  0  0  0  0  0  0  0  0
    0.2800   -0.8270    3.6550 H   0  0  0  0  0  0  0  0  0  0  0  0
   -4.9660    3.1700    1.3310 N   0  0  0  0  0  0  0  0  0  0  0  0
   -4.4770    1.8860    1.5120 C   0  0  0  0  0  0  0  0  0  0  0  0
   -4.9700    1.1020    2.3690 O   0  0  0  0  0  0  0  0  0  0  0  0
   -3.3240    1.3470    0.7010 C   0  0  0  0  0  0  0  0  0  0  0  0
   -2.7510    0.1340    1.3400 C   0  0  0  0  0  0  0  0  0  0  0  0
   -1.6700   -0.5950    0.6770 C   0  0  2  0  0  0  0  0  0  0  0  0
   -1.2950   -1.7000    1.5880 N   0  0  0  0  0  0  0  0  0  0  0  0
   -0.4130    0.1270    0.3720 C   0  0  0  0  0  0  0  0  0  0  0  0
    0.6830   -0.1820    0.8900 O   0  0  0  0  0  0  0  0  0  0  0  0
   -5.5950    3.6490    2.0620 H   0  0  0  0  0  0  0  0  0  0  0  0
   -4.7930    3.8030    0.4920 H   0  0  0  0  0  0  0  0  0  0  0  0
   -3.6500    1.2680   -0.3250 H   0  0  0  0  0  0  0  0  0  0  0  0
   -2.5480    2.1760    0.8310 H   0  0  0  0  0  0  0  0  0  0  0  0
   -2.4020    0.3690    2.3880 H   0  0  0  0  0  0  0  0  0  0  0  0
   -3.6460   -0.5420    1.5410 H   0  0  0  0  0  0  0  0  0  0  0  0
   -2.0180   -1.0730   -0.2900 H   0  0  0  0  0  0  0  0  0  0  0  0
   -1.6160   -1.6730    2.5920 H   0  0  0  0  0  0  0  0  0  0  0  0
   -0.3770    1.2220   -0.5510 N   0  0  0  0  0  0  0  0  0  0  0  0
    0.8480    1.9190   -0.9030 C   0  0  1  0  0  0  0  0  0  0  0  0
    1.1090    1.8730   -2.3980 C   0  0  0  0  0  0  0  0  0  0  0  0
    1.2160    0.4640   -2.8230 C   0  0  0  0  0  0  0  0  0  0  0  0
    2.4340   -0.2250   -2.9380 C   0  0  0  0  0  0  0  0  0  0  0  0
    2.1770   -1.4930   -3.2920 N   0  0  0  0  0  0  0  0  0  0  0  0
    0.8500   -1.6850   -3.4190 C   0  0  0  0  0  0  0  0  0  0  0  0
    0.0780   -2.7670   -3.7590 C   0  0  0  0  0  0  0  0  0  0  0  0
   -1.2870   -2.6330   -3.8140 C   0  0  0  0  0  0  0  0  0  0  0  0
   -1.8780   -1.4140   -3.5260 C   0  0  0  0  0  0  0  0  0  0  0  0
   -1.1230   -0.3270   -3.1850 C   0  0  0  0  0  0  0  0  0  0  0  0
    0.2570   -0.4540   -3.1250 C   0  0  0  0  0  0  0  0  0  0  0  0
    0.8520    3.2860   -0.3470 C   0  0  0  0  0  0  0  0  0  0  0  0
   -0.1460    3.6470    0.3630 O   0  0  0  0  0  0  0  0  0  0  0  0
    1.8460    4.2240   -0.5290 O   0  0  0  0  0  0  0  0  0  0  0  0
   -1.2950    1.4990   -0.9500 H   0  0  0  0  0  0  0  0  0  0  0  0
    1.7230    1.4030   -0.4120 H   0  0  0  0  0  0  0  0  0  0  0  0
    0.2900    2.3800   -2.9660 H   0  0  0  0  0  0  0  0  0  0  0  0
    2.0580    2.4150   -2.5980 H   0  0  0  0  0  0  0  0  0  0  0  0
    3.3850    0.2460   -2.7620 H   0  0  0  0  0  0  0  0  0  0  0  0
    2.8910   -2.2200   -3.4480 H   0  0  0  0  0  0  0  0  0  0  0  0
    0.5080   -3.7400   -3.9940 H   0  0  0  0  0  0  0  0  0  0  0  0
   -1.9480   -3.4250   -4.0690 H   0  0  0  0  0  0  0  0  0  0  0  0
   -2.9660   -1.2850   -3.5660 H   0  0  0  0  0  0  0  0  0  0  0  0
   -1.6060    0.6260   -2.9850 H   0  0  0  0  0  0  0  0  0  0  0  0
  1  2  1  0  0  0  0
  1 13  1  0  0  0  0
  2 14  1  6  0  0  0
  2  3  1  0  0  0  0
  3  4  1  0  0  0  0
  3 16  1  0  0  0  0
  3 15  1  0  0  0  0
  4  9  2  0  0  0  0
  4  5  1  0  0  0  0
  5  6  2  0  0  0  0
  6  7  1  0  0  0  0
  6 18  1  0  0  0  0
  7 19  1  0  0  0  0
  8 20  1  0  0  0  0
  8  7  2  0  0  0  0
  9  8  1  0  0  0  0
 10 28  1  0  0  0  0
 10  2  1  0  0  0  0
 11 10  2  0  0  0  0
 12  1  1  0  0  0  0
 17  5  1  0  0  0  0
 21  9  1  0  0  0  0
 22 23  1  0  0  0  0
 22 31  1  0  0  0  0
 23 24  2  0  0  0  0
 25 34  1  0  0  0  0
 25 26  1  0  0  0  0
 25 23  1  0  0  0  0
 26 36  1  0  0  0  0
 26 35  1  0  0  0  0
 27 37  1  6  0  0  0
 27 26  1  0  0  0  0
 27 28  1  0  0  0  0
 28 38  1  0  0  0  0
 29 27  1  0  0  0  0
 29 30  2  0  0  0  0
 32 22  1  0  0  0  0
 33 25  1  0  0  0  0
 39 29  1  0  0  0  0
 40 39  1  0  0  0  0
 40 55  1  1  0  0  0
 40 51  1  0  0  0  0
 41 40  1  0  0  0  0
 42 41  1  0  0  0  0
 43 42  2  0  0  0  0
 43 58  1  0  0  0  0
 44 43  1  0  0  0  0
 45 44  1  0  0  0  0
 45 50  1  0  0  0  0
 46 45  2  0  0  0  0
 47 46  1  0  0  0  0
 47 48  2  0  0  0  0
 48 49  1  0  0  0  0
 49 50  2  0  0  0  0
 49 63  1  0  0  0  0
 50 42  1  0  0  0  0
 51 52  1  0  0  0  0
 53 51  2  0  0  0  0
 54 39  1  0  0  0  0
 56 41  1  0  0  0  0
 57 41  1  0  0  0  0
 59 44  1  0  0  0  0
 60 46  1  0  0  0  0
 61 47  1  0  0  0  0
 62 48  1  0  0  0  0
M  END
$$$$
