FQY.pdb
 OpenBabel07022418593D

 60 61  0  0  1  0  0  0  0  0999 V2000
    3.1680   -2.7340    1.4390 N   0  0  0  0  0  0  0  0  0  0  0  0
    2.2580   -2.4080    2.5180 C   0  0  1  0  0  0  0  0  0  0  0  0
    2.9390   -1.7650    3.6780 C   0  0  0  0  0  0  0  0  0  0  0  0
    3.6340   -0.4810    3.3270 C   0  0  0  0  0  0  0  0  0  0  0  0
    4.9340   -0.4750    2.8860 C   0  0  0  0  0  0  0  0  0  0  0  0
    5.5310    0.7200    2.5830 C   0  0  0  0  0  0  0  0  0  0  0  0
    4.8590    1.9270    2.7080 C   0  0  0  0  0  0  0  0  0  0  0  0
    3.5530    1.8860    3.1540 C   0  0  0  0  0  0  0  0  0  0  0  0
    2.9350    0.6930    3.4650 C   0  0  0  0  0  0  0  0  0  0  0  0
    1.1380   -1.5560    2.0600 C   0  0  0  0  0  0  0  0  0  0  0  0
    0.2450   -1.2660    2.8950 O   0  0  0  0  0  0  0  0  0  0  0  0
    3.7970   -1.9740    1.1680 H   0  0  0  0  0  0  0  0  0  0  0  0
    3.7230   -3.5830    1.6350 H   0  0  0  0  0  0  0  0  0  0  0  0
    1.8790   -3.4070    2.8850 H   0  0  0  0  0  0  0  0  0  0  0  0
    3.6620   -2.4490    4.1770 H   0  0  0  0  0  0  0  0  0  0  0  0
    2.1670   -1.5350    4.4410 H   0  0  0  0  0  0  0  0  0  0  0  0
    5.4860   -1.4210    2.7800 H   0  0  0  0  0  0  0  0  0  0  0  0
    6.5500    0.7640    2.2330 H   0  0  0  0  0  0  0  0  0  0  0  0
    5.3370    2.8810    2.4650 H   0  0  0  0  0  0  0  0  0  0  0  0
    2.9810    2.8210    3.2690 H   0  0  0  0  0  0  0  0  0  0  0  0
    1.8860    0.6910    3.8250 H   0  0  0  0  0  0  0  0  0  0  0  0
   -1.1940    4.2410   -1.5640 N   0  0  0  0  0  0  0  0  0  0  0  0
   -0.2440    3.2820   -1.1480 C   0  0  0  0  0  0  0  0  0  0  0  0
    0.9650    3.5270   -1.2300 O   0  0  0  0  0  0  0  0  0  0  0  0
   -0.7800    1.9710   -0.6100 C   0  0  0  0  0  0  0  0  0  0  0  0
    0.3580    1.0760   -0.2170 C   0  0  0  0  0  0  0  0  0  0  0  0
   -0.1110   -0.2200    0.3540 C   0  0  2  0  0  0  0  0  0  0  0  0
    1.0260   -1.0590    0.7410 N   0  0  0  0  0  0  0  0  0  0  0  0
   -0.8960   -0.9690   -0.6600 C   0  0  0  0  0  0  0  0  0  0  0  0
   -1.9690   -0.5220   -1.1230 O   0  0  0  0  0  0  0  0  0  0  0  0
   -1.1970    4.6130   -2.5280 H   0  0  0  0  0  0  0  0  0  0  0  0
   -1.9000    4.5730   -0.8860 H   0  0  0  0  0  0  0  0  0  0  0  0
   -1.4140    1.5870   -1.4290 H   0  0  0  0  0  0  0  0  0  0  0  0
   -1.4090    2.2410    0.2520 H   0  0  0  0  0  0  0  0  0  0  0  0
    1.0630    0.9250   -1.0840 H   0  0  0  0  0  0  0  0  0  0  0  0
    0.9660    1.6710    0.5090 H   0  0  0  0  0  0  0  0  0  0  0  0
   -0.7750   -0.0250    1.2070 H   0  0  0  0  0  0  0  0  0  0  0  0
    1.7760   -1.3050    0.0630 H   0  0  0  0  0  0  0  0  0  0  0  0
   -6.3030   -1.3090    1.2460 O   0  0  0  0  0  0  0  0  0  0  0  0
   -5.2790   -1.9600    0.5410 C   0  0  0  0  0  0  0  0  0  0  0  0
   -4.1760   -2.4010    1.2340 C   0  0  0  0  0  0  0  0  0  0  0  0
   -3.1970   -3.0310    0.5210 C   0  0  0  0  0  0  0  0  0  0  0  0
   -3.2890   -3.2280   -0.8370 C   0  0  0  0  0  0  0  0  0  0  0  0
   -2.2320   -3.9060   -1.5890 C   0  0  0  0  0  0  0  0  0  0  0  0
   -1.1630   -2.9850   -2.1260 C   0  0  2  0  0  0  0  0  0  0  0  0
   -0.4570   -2.2410   -1.1540 N   0  0  0  0  0  0  0  0  0  0  0  0
   -1.6190   -2.2150   -3.3250 C   0  0  0  0  0  0  0  0  0  0  0  0
   -1.3400   -1.0130   -3.5080 O   0  0  0  0  0  0  0  0  0  0  0  0
   -4.4020   -2.7760   -1.5020 C   0  0  0  0  0  0  0  0  0  0  0  0
   -5.4040   -2.1380   -0.8080 C   0  0  0  0  0  0  0  0  0  0  0  0
   -2.3910   -2.8210   -4.3070 O   0  0  0  0  0  0  0  0  0  0  0  0
   -6.0010   -0.4790    1.7680 H   0  0  0  0  0  0  0  0  0  0  0  0
   -4.0850   -2.2540    2.3170 H   0  0  0  0  0  0  0  0  0  0  0  0
   -2.3180   -3.3830    1.0720 H   0  0  0  0  0  0  0  0  0  0  0  0
   -2.6510   -4.5060   -2.4510 H   0  0  0  0  0  0  0  0  0  0  0  0
   -1.7890   -4.6860   -0.9250 H   0  0  0  0  0  0  0  0  0  0  0  0
   -0.3760   -3.7140   -2.5610 H   0  0  0  0  0  0  0  0  0  0  0  0
    0.4550   -2.6020   -0.7320 H   0  0  0  0  0  0  0  0  0  0  0  0
   -4.5190   -2.9110   -2.5810 H   0  0  0  0  0  0  0  0  0  0  0  0
   -6.2950   -1.7780   -1.3500 H   0  0  0  0  0  0  0  0  0  0  0  0
  1 13  1  0  0  0  0
  1  2  1  0  0  0  0
  2 14  1  1  0  0  0
  2  3  1  0  0  0  0
  3 15  1  0  0  0  0
  3 16  1  0  0  0  0
  4  9  1  0  0  0  0
  4  3  1  0  0  0  0
  5  4  2  0  0  0  0
  6  7  2  0  0  0  0
  6  5  1  0  0  0  0
  7  8  1  0  0  0  0
  8 20  1  0  0  0  0
  8  9  2  0  0  0  0
  9 21  1  0  0  0  0
 10  2  1  0  0  0  0
 10 11  2  0  0  0  0
 12  1  1  0  0  0  0
 17  5  1  0  0  0  0
 18  6  1  0  0  0  0
 19  7  1  0  0  0  0
 22 23  1  0  0  0  0
 22 32  1  0  0  0  0
 23 25  1  0  0  0  0
 24 23  2  0  0  0  0
 25 26  1  0  0  0  0
 25 34  1  0  0  0  0
 26 27  1  0  0  0  0
 26 36  1  0  0  0  0
 27 28  1  0  0  0  0
 27 37  1  1  0  0  0
 28 10  1  0  0  0  0
 29 27  1  0  0  0  0
 30 29  2  0  0  0  0
 31 22  1  0  0  0  0
 33 25  1  0  0  0  0
 35 26  1  0  0  0  0
 38 28  1  0  0  0  0
 39 52  1  0  0  0  0
 40 41  1  0  0  0  0
 40 39  1  0  0  0  0
 41 53  1  0  0  0  0
 42 54  1  0  0  0  0
 42 41  2  0  0  0  0
 43 42  1  0  0  0  0
 44 56  1  0  0  0  0
 44 43  1  0  0  0  0
 45 57  1  6  0  0  0
 45 44  1  0  0  0  0
 45 46  1  0  0  0  0
 46 58  1  0  0  0  0
 46 29  1  0  0  0  0
 47 45  1  0  0  0  0
 48 47  1  0  0  0  0
 49 43  2  0  0  0  0
 49 50  1  0  0  0  0
 50 40  2  0  0  0  0
 51 47  2  0  0  0  0
 55 44  1  0  0  0  0
 59 49  1  0  0  0  0
 60 50  1  0  0  0  0
M  END
$$$$
