FRA.pdb
 OpenBabel07022418583D

 55 55  0  0  1  0  0  0  0  0999 V2000
    1.9370   -1.8460   -0.8870 N   0  0  0  0  0  0  0  0  0  0  0  0
    1.6390   -2.7900    0.1610 C   0  0  1  0  0  0  0  0  0  0  0  0
    2.7290   -2.8190    1.1810 C   0  0  0  0  0  0  0  0  0  0  0  0
    2.9940   -1.5560    1.8650 C   0  0  0  0  0  0  0  0  0  0  0  0
    3.9080   -0.6580    1.3510 C   0  0  0  0  0  0  0  0  0  0  0  0
    4.1810    0.5500    1.9910 C   0  0  0  0  0  0  0  0  0  0  0  0
    3.5280    0.8800    3.1780 C   0  0  0  0  0  0  0  0  0  0  0  0
    2.6190   -0.0320    3.6720 C   0  0  0  0  0  0  0  0  0  0  0  0
    2.3490   -1.2270    3.0400 C   0  0  0  0  0  0  0  0  0  0  0  0
    0.3520   -2.5390    0.8090 C   0  0  0  0  0  0  0  0  0  0  0  0
    0.0000   -3.2410    1.7790 O   0  0  0  0  0  0  0  0  0  0  0  0
    1.2290   -1.8490   -1.6360 H   0  0  0  0  0  0  0  0  0  0  0  0
    1.9880   -0.8840   -0.4720 H   0  0  0  0  0  0  0  0  0  0  0  0
    1.5440   -3.7910   -0.3570 H   0  0  0  0  0  0  0  0  0  0  0  0
    2.5300   -3.6090    1.9530 H   0  0  0  0  0  0  0  0  0  0  0  0
    3.6540   -3.1940    0.6510 H   0  0  0  0  0  0  0  0  0  0  0  0
    4.4640   -0.8270    0.4360 H   0  0  0  0  0  0  0  0  0  0  0  0
    4.8850    1.2650    1.6150 H   0  0  0  0  0  0  0  0  0  0  0  0
    3.7240    1.8140    3.6930 H   0  0  0  0  0  0  0  0  0  0  0  0
    2.1010    0.2150    4.6000 H   0  0  0  0  0  0  0  0  0  0  0  0
    1.6200   -1.8680    3.5130 H   0  0  0  0  0  0  0  0  0  0  0  0
    2.2660    3.2090    1.2240 N   0  0  0  0  0  0  0  0  0  0  0  0
    1.3010    2.4640    0.5180 C   0  0  0  0  0  0  0  0  0  0  0  0
    1.4160    2.2200   -0.7650 N   0  0  0  0  0  0  0  0  0  0  0  0
    0.1320    1.9260    1.1490 N   0  0  0  0  0  0  0  0  0  0  0  0
   -1.0710    1.7330    0.3650 C   0  0  0  0  0  0  0  0  0  0  0  0
   -2.2000    1.1750    1.1340 C   0  0  0  0  0  0  0  0  0  0  0  0
   -2.0810   -0.1080    1.8250 C   0  0  0  0  0  0  0  0  0  0  0  0
   -1.8030   -1.3630    1.1150 C   0  0  2  0  0  0  0  0  0  0  0  0
   -0.5760   -1.5030    0.3940 N   0  0  0  0  0  0  0  0  0  0  0  0
   -2.9760   -1.6780    0.2000 C   0  0  0  0  0  0  0  0  0  0  0  0
   -4.1360   -1.6040    0.6670 O   0  0  0  0  0  0  0  0  0  0  0  0
    2.2060    3.2880    2.2510 H   0  0  0  0  0  0  0  0  0  0  0  0
    3.0320    3.6760    0.7140 H   0  0  0  0  0  0  0  0  0  0  0  0
    2.2240    2.5710   -1.2880 H   0  0  0  0  0  0  0  0  0  0  0  0
    0.1660    1.6870    2.1450 H   0  0  0  0  0  0  0  0  0  0  0  0
   -0.8400    1.1900   -0.5350 H   0  0  0  0  0  0  0  0  0  0  0  0
   -1.4050    2.7940    0.0750 H   0  0  0  0  0  0  0  0  0  0  0  0
   -2.4590    1.9560    1.9330 H   0  0  0  0  0  0  0  0  0  0  0  0
   -3.1550    1.1650    0.5170 H   0  0  0  0  0  0  0  0  0  0  0  0
   -1.3730    0.0160    2.7100 H   0  0  0  0  0  0  0  0  0  0  0  0
   -3.0750   -0.2660    2.3820 H   0  0  0  0  0  0  0  0  0  0  0  0
   -1.9020   -2.1920    1.9000 H   0  0  0  0  0  0  0  0  0  0  0  0
   -0.2950   -0.9420   -0.4110 H   0  0  0  0  0  0  0  0  0  0  0  0
   -3.8770   -1.4910   -3.2670 C   0  0  0  0  0  0  0  0  0  0  0  0
   -3.8920   -2.3510   -2.0400 C   0  0  2  0  0  0  0  0  0  0  0  0
   -2.7860   -2.0450   -1.1440 N   0  0  0  0  0  0  0  0  0  0  0  0
   -3.7760   -3.7640   -2.4660 C   0  0  0  0  0  0  0  0  0  0  0  0
   -4.6190   -4.2780   -3.2500 O   0  0  0  0  0  0  0  0  0  0  0  0
   -2.7440   -4.5810   -2.0260 O   0  0  0  0  0  0  0  0  0  0  0  0
   -4.9090   -1.2930   -3.6220 H   0  0  0  0  0  0  0  0  0  0  0  0
   -3.3530   -2.0030   -4.1090 H   0  0  0  0  0  0  0  0  0  0  0  0
   -3.4050   -0.5020   -3.1010 H   0  0  0  0  0  0  0  0  0  0  0  0
   -4.8470   -2.2430   -1.4850 H   0  0  0  0  0  0  0  0  0  0  0  0
   -1.8030   -2.0940   -1.4960 H   0  0  0  0  0  0  0  0  0  0  0  0
  1 13  1  0  0  0  0
  1  2  1  0  0  0  0
  2 14  1  6  0  0  0
  2 10  1  0  0  0  0
  2  3  1  0  0  0  0
  3  4  1  0  0  0  0
  3 15  1  0  0  0  0
  4  9  1  0  0  0  0
  5  4  2  0  0  0  0
  5  6  1  0  0  0  0
  6  7  2  0  0  0  0
  7  8  1  0  0  0  0
  7 19  1  0  0  0  0
  8 20  1  0  0  0  0
  9 21  1  0  0  0  0
  9  8  2  0  0  0  0
 10 11  2  0  0  0  0
 12  1  1  0  0  0  0
 16  3  1  0  0  0  0
 17  5  1  0  0  0  0
 18  6  1  0  0  0  0
 22 33  1  0  0  0  0
 23 25  1  0  0  0  0
 23 22  1  0  0  0  0
 24 23  2  0  0  0  0
 25 36  1  0  0  0  0
 26 27  1  0  0  0  0
 26 25  1  0  0  0  0
 27 28  1  0  0  0  0
 27 39  1  0  0  0  0
 28 42  1  0  0  0  0
 28 41  1  0  0  0  0
 29 28  1  0  0  0  0
 29 43  1  1  0  0  0
 30 10  1  0  0  0  0
 30 29  1  0  0  0  0
 31 32  2  0  0  0  0
 31 29  1  0  0  0  0
 34 22  1  0  0  0  0
 35 24  1  0  0  0  0
 37 26  1  0  0  0  0
 38 26  1  0  0  0  0
 40 27  1  0  0  0  0
 44 30  1  0  0  0  0
 45 53  1  0  0  0  0
 45 46  1  0  0  0  0
 46 54  1  1  0  0  0
 46 47  1  0  0  0  0
 47 31  1  0  0  0  0
 48 46  1  0  0  0  0
 48 50  1  0  0  0  0
 49 48  2  0  0  0  0
 51 45  1  0  0  0  0
 52 45  1  0  0  0  0
 55 47  1  0  0  0  0
M  END
$$$$
