FRC.pdb
 OpenBabel07022418583D

 56 56  0  0  1  0  0  0  0  0999 V2000
    0.6550    0.0070    2.5720 N   0  0  0  0  0  0  0  0  0  0  0  0
    1.5190   -0.0640    1.4330 C   0  0  1  0  0  0  0  0  0  0  0  0
    2.5210   -1.1640    1.6730 C   0  0  0  0  0  0  0  0  0  0  0  0
    3.2920   -0.8300    2.8930 C   0  0  0  0  0  0  0  0  0  0  0  0
    4.4660   -0.0920    2.7670 C   0  0  0  0  0  0  0  0  0  0  0  0
    5.2170    0.2440    3.8610 C   0  0  0  0  0  0  0  0  0  0  0  0
    4.7970   -0.1600    5.1150 C   0  0  0  0  0  0  0  0  0  0  0  0
    3.6260   -0.8940    5.2250 C   0  0  0  0  0  0  0  0  0  0  0  0
    2.8580   -1.2400    4.1200 C   0  0  0  0  0  0  0  0  0  0  0  0
    0.6830   -0.4410    0.2330 C   0  0  0  0  0  0  0  0  0  0  0  0
    1.2730   -0.6280   -0.8470 O   0  0  0  0  0  0  0  0  0  0  0  0
    0.1650   -0.8960    2.7020 H   0  0  0  0  0  0  0  0  0  0  0  0
    0.0870    0.8570    2.6540 H   0  0  0  0  0  0  0  0  0  0  0  0
    2.0340    0.8970    1.2350 H   0  0  0  0  0  0  0  0  0  0  0  0
    3.2050   -1.1880    0.7850 H   0  0  0  0  0  0  0  0  0  0  0  0
    1.9610   -2.1270    1.7740 H   0  0  0  0  0  0  0  0  0  0  0  0
    4.7920    0.2230    1.7800 H   0  0  0  0  0  0  0  0  0  0  0  0
    6.1310    0.8170    3.7670 H   0  0  0  0  0  0  0  0  0  0  0  0
    5.4020    0.1140    5.9720 H   0  0  0  0  0  0  0  0  0  0  0  0
    3.2860   -1.2140    6.1970 H   0  0  0  0  0  0  0  0  0  0  0  0
    1.9500   -1.8100    4.2170 H   0  0  0  0  0  0  0  0  0  0  0  0
   -1.0020    3.6100    2.0140 N   0  0  0  0  0  0  0  0  0  0  0  0
   -0.3960    3.0560    0.8680 C   0  0  0  0  0  0  0  0  0  0  0  0
    0.8300    3.3290    0.6060 N   0  0  0  0  0  0  0  0  0  0  0  0
   -1.0990    2.1920   -0.0270 N   0  0  0  0  0  0  0  0  0  0  0  0
   -0.6630    2.0590   -1.3890 C   0  0  0  0  0  0  0  0  0  0  0  0
   -1.3550    1.0890   -2.2280 C   0  0  0  0  0  0  0  0  0  0  0  0
   -1.2720   -0.3670   -2.0640 C   0  0  0  0  0  0  0  0  0  0  0  0
   -1.6020   -0.9390   -0.7590 C   0  0  2  0  0  0  0  0  0  0  0  0
   -0.7140   -0.5860    0.2990 N   0  0  0  0  0  0  0  0  0  0  0  0
   -1.8270   -2.4010   -0.7640 C   0  0  0  0  0  0  0  0  0  0  0  0
   -1.2400   -3.0960    0.1010 O   0  0  0  0  0  0  0  0  0  0  0  0
   -1.9680    3.9940    1.9870 H   0  0  0  0  0  0  0  0  0  0  0  0
   -0.5170    3.6610    2.9360 H   0  0  0  0  0  0  0  0  0  0  0  0
    1.3620    3.9510    1.2350 H   0  0  0  0  0  0  0  0  0  0  0  0
   -1.9370    1.7170    0.3730 H   0  0  0  0  0  0  0  0  0  0  0  0
    0.4530    1.9300   -1.3650 H   0  0  0  0  0  0  0  0  0  0  0  0
   -0.7950    3.1090   -1.8310 H   0  0  0  0  0  0  0  0  0  0  0  0
   -2.4760    1.4200   -2.2180 H   0  0  0  0  0  0  0  0  0  0  0  0
   -1.1310    1.3610   -3.3380 H   0  0  0  0  0  0  0  0  0  0  0  0
   -0.2620   -0.6860   -2.4510 H   0  0  0  0  0  0  0  0  0  0  0  0
   -2.0140   -0.8120   -2.8480 H   0  0  0  0  0  0  0  0  0  0  0  0
   -2.6480   -0.4860   -0.5070 H   0  0  0  0  0  0  0  0  0  0  0  0
   -1.1690   -0.4140    1.2470 H   0  0  0  0  0  0  0  0  0  0  0  0
   -2.6710   -3.0560   -1.6950 N   0  0  0  0  0  0  0  0  0  0  0  0
   -2.8580   -4.4830   -1.6600 C   0  0  1  0  0  0  0  0  0  0  0  0
   -4.3070   -4.8650   -1.4450 C   0  0  0  0  0  0  0  0  0  0  0  0
   -5.3570   -4.2120   -2.7850 S   0  0  0  0  0  0  0  0  0  0  0  0
   -2.4190   -5.1460   -2.9070 C   0  0  0  0  0  0  0  0  0  0  0  0
   -2.5320   -6.3960   -2.9770 O   0  0  0  0  0  0  0  0  0  0  0  0
   -1.8940   -4.4770   -3.9940 O   0  0  0  0  0  0  0  0  0  0  0  0
   -3.1450   -2.4370   -2.4040 H   0  0  0  0  0  0  0  0  0  0  0  0
   -2.2580   -4.8980   -0.8280 H   0  0  0  0  0  0  0  0  0  0  0  0
   -4.3650   -5.9710   -1.5120 H   0  0  0  0  0  0  0  0  0  0  0  0
   -4.6820   -4.5790   -0.4580 H   0  0  0  0  0  0  0  0  0  0  0  0
   -4.6790   -4.1660   -3.9980 H   0  0  0  0  0  0  0  0  0  0  0  0
  1 13  1  0  0  0  0
  1 12  1  0  0  0  0
  2 14  1  6  0  0  0
  2  3  1  0  0  0  0
  2  1  1  0  0  0  0
  3 16  1  0  0  0  0
  3  4  1  0  0  0  0
  4  9  1  0  0  0  0
  5  4  2  0  0  0  0
  5  6  1  0  0  0  0
  6  7  2  0  0  0  0
  7  8  1  0  0  0  0
  7 19  1  0  0  0  0
  8 20  1  0  0  0  0
  9 21  1  0  0  0  0
  9  8  2  0  0  0  0
 10 30  1  0  0  0  0
 10  2  1  0  0  0  0
 11 10  2  0  0  0  0
 15  3  1  0  0  0  0
 17  5  1  0  0  0  0
 18  6  1  0  0  0  0
 22 34  1  0  0  0  0
 23 22  1  0  0  0  0
 24 23  2  0  0  0  0
 24 35  1  0  0  0  0
 25 36  1  0  0  0  0
 25 23  1  0  0  0  0
 26 37  1  0  0  0  0
 26 25  1  0  0  0  0
 27 39  1  0  0  0  0
 27 28  1  0  0  0  0
 27 26  1  0  0  0  0
 28 29  1  0  0  0  0
 29 43  1  1  0  0  0
 29 30  1  0  0  0  0
 30 44  1  0  0  0  0
 31 29  1  0  0  0  0
 31 32  2  0  0  0  0
 33 22  1  0  0  0  0
 38 26  1  0  0  0  0
 40 27  1  0  0  0  0
 41 28  1  0  0  0  0
 42 28  1  0  0  0  0
 45 46  1  0  0  0  0
 45 31  1  0  0  0  0
 46 47  1  0  0  0  0
 46 53  1  1  0  0  0
 47 55  1  0  0  0  0
 48 47  1  0  0  0  0
 49 46  1  0  0  0  0
 50 49  1  0  0  0  0
 51 49  2  0  0  0  0
 52 45  1  0  0  0  0
 54 47  1  0  0  0  0
 56 48  1  0  0  0  0
M  END
$$$$
