FRD.pdb
 OpenBabel07022418583D

 58 58  0  0  1  0  0  0  0  0999 V2000
    0.4840    1.8210   -2.3680 N   0  0  0  0  0  0  0  0  0  0  0  0
    1.5880    0.8980   -2.4700 C   0  0  1  0  0  0  0  0  0  0  0  0
    2.9160    1.4950   -2.0780 C   0  0  0  0  0  0  0  0  0  0  0  0
    2.9730    1.9940   -0.6930 C   0  0  0  0  0  0  0  0  0  0  0  0
    3.3750    1.2490    0.3940 C   0  0  0  0  0  0  0  0  0  0  0  0
    3.3940    1.8210    1.6540 C   0  0  0  0  0  0  0  0  0  0  0  0
    3.0220    3.1290    1.8730 C   0  0  0  0  0  0  0  0  0  0  0  0
    2.6170    3.8730    0.7720 C   0  0  0  0  0  0  0  0  0  0  0  0
    2.5950    3.3140   -0.4830 C   0  0  0  0  0  0  0  0  0  0  0  0
    1.3700   -0.3270   -1.6640 C   0  0  0  0  0  0  0  0  0  0  0  0
    2.2740   -1.1970   -1.5920 O   0  0  0  0  0  0  0  0  0  0  0  0
    0.6940    2.6200   -3.0040 H   0  0  0  0  0  0  0  0  0  0  0  0
    0.3520    2.2090   -1.4120 H   0  0  0  0  0  0  0  0  0  0  0  0
    1.6790    0.6560   -3.5590 H   0  0  0  0  0  0  0  0  0  0  0  0
    3.6810    0.6680   -2.1410 H   0  0  0  0  0  0  0  0  0  0  0  0
    3.2540    2.2740   -2.7930 H   0  0  0  0  0  0  0  0  0  0  0  0
    3.6770    0.2240    0.2640 H   0  0  0  0  0  0  0  0  0  0  0  0
    3.7200    1.1850    2.4650 H   0  0  0  0  0  0  0  0  0  0  0  0
    3.0490    3.5460    2.8750 H   0  0  0  0  0  0  0  0  0  0  0  0
    2.3280    4.8930    0.9530 H   0  0  0  0  0  0  0  0  0  0  0  0
    2.2720    3.9370   -1.3040 H   0  0  0  0  0  0  0  0  0  0  0  0
    0.1690    2.6250    3.4370 N   0  0  0  0  0  0  0  0  0  0  0  0
   -0.8420    1.8380    2.8040 C   0  0  0  0  0  0  0  0  0  0  0  0
   -1.5180    2.3630    1.8480 N   0  0  0  0  0  0  0  0  0  0  0  0
   -1.0780    0.5100    3.2450 N   0  0  0  0  0  0  0  0  0  0  0  0
   -2.1300   -0.2800    2.6600 C   0  0  0  0  0  0  0  0  0  0  0  0
   -1.7580   -0.6120    1.2370 C   0  0  0  0  0  0  0  0  0  0  0  0
   -0.4660   -1.4000    1.2330 C   0  0  0  0  0  0  0  0  0  0  0  0
   -0.0410   -1.7820   -0.1630 C   0  0  2  0  0  0  0  0  0  0  0  0
    0.1630   -0.5970   -0.9400 N   0  0  0  0  0  0  0  0  0  0  0  0
   -1.1140   -2.6490   -0.7440 C   0  0  0  0  0  0  0  0  0  0  0  0
   -1.7460   -2.3630   -1.7820 O   0  0  0  0  0  0  0  0  0  0  0  0
    0.6450    2.2400    4.2680 H   0  0  0  0  0  0  0  0  0  0  0  0
    0.4220    3.5700    3.0670 H   0  0  0  0  0  0  0  0  0  0  0  0
   -1.3440    3.3210    1.5380 H   0  0  0  0  0  0  0  0  0  0  0  0
   -0.4640    0.1060    4.0160 H   0  0  0  0  0  0  0  0  0  0  0  0
   -3.0270    0.3900    2.5960 H   0  0  0  0  0  0  0  0  0  0  0  0
   -2.3460   -1.1870    3.2620 H   0  0  0  0  0  0  0  0  0  0  0  0
   -2.5170   -1.2900    0.7770 H   0  0  0  0  0  0  0  0  0  0  0  0
   -1.6910    0.3340    0.6740 H   0  0  0  0  0  0  0  0  0  0  0  0
    0.3060   -0.7320    1.6900 H   0  0  0  0  0  0  0  0  0  0  0  0
   -0.5610   -2.2660    1.8860 H   0  0  0  0  0  0  0  0  0  0  0  0
    0.8620   -2.4160   -0.0780 H   0  0  0  0  0  0  0  0  0  0  0  0
   -0.5760    0.1260   -1.0080 H   0  0  0  0  0  0  0  0  0  0  0  0
   -1.4310   -3.8650   -0.0770 N   0  0  0  0  0  0  0  0  0  0  0  0
   -2.4400   -4.7720   -0.5440 C   0  0  1  0  0  0  0  0  0  0  0  0
   -1.7590   -6.1240   -0.7700 C   0  0  0  0  0  0  0  0  0  0  0  0
   -1.1900   -6.5670    0.5290 C   0  0  0  0  0  0  0  0  0  0  0  0
   -1.8830   -7.0620    1.4510 O   0  0  0  0  0  0  0  0  0  0  0  0
   -3.4250   -4.9890    0.5470 C   0  0  0  0  0  0  0  0  0  0  0  0
   -4.4250   -5.7480    0.4090 O   0  0  0  0  0  0  0  0  0  0  0  0
    0.1810   -6.4320    0.7510 O   0  0  0  0  0  0  0  0  0  0  0  0
   -3.2890   -4.3630    1.7690 O   0  0  0  0  0  0  0  0  0  0  0  0
   -0.9120   -4.1190    0.7920 H   0  0  0  0  0  0  0  0  0  0  0  0
   -2.9290   -4.4150   -1.4720 H   0  0  0  0  0  0  0  0  0  0  0  0
   -0.9550   -6.0390   -1.5220 H   0  0  0  0  0  0  0  0  0  0  0  0
   -2.5070   -6.8910   -1.0670 H   0  0  0  0  0  0  0  0  0  0  0  0
    0.7010   -7.0580    1.3710 H   0  0  0  0  0  0  0  0  0  0  0  0
  1 13  1  0  0  0  0
  2 14  1  6  0  0  0
  2  1  1  0  0  0  0
  2  3  1  0  0  0  0
  2 10  1  0  0  0  0
  3  4  1  0  0  0  0
  4  9  2  0  0  0  0
  4  5  1  0  0  0  0
  5  6  2  0  0  0  0
  6  7  1  0  0  0  0
  6 18  1  0  0  0  0
  7 19  1  0  0  0  0
  8 20  1  0  0  0  0
  8  7  2  0  0  0  0
  9  8  1  0  0  0  0
 10 11  2  0  0  0  0
 10 30  1  0  0  0  0
 12  1  1  0  0  0  0
 15  3  1  0  0  0  0
 16  3  1  0  0  0  0
 17  5  1  0  0  0  0
 21  9  1  0  0  0  0
 22 33  1  0  0  0  0
 23 25  1  0  0  0  0
 23 22  1  0  0  0  0
 24 23  2  0  0  0  0
 25 36  1  0  0  0  0
 26 25  1  0  0  0  0
 26 38  1  0  0  0  0
 27 26  1  0  0  0  0
 28 27  1  0  0  0  0
 28 41  1  0  0  0  0
 28 42  1  0  0  0  0
 29 43  1  1  0  0  0
 29 28  1  0  0  0  0
 30 29  1  0  0  0  0
 31 29  1  0  0  0  0
 31 45  1  0  0  0  0
 32 31  2  0  0  0  0
 34 22  1  0  0  0  0
 35 24  1  0  0  0  0
 37 26  1  0  0  0  0
 39 27  1  0  0  0  0
 40 27  1  0  0  0  0
 44 30  1  0  0  0  0
 45 54  1  0  0  0  0
 46 55  1  6  0  0  0
 46 45  1  0  0  0  0
 46 50  1  0  0  0  0
 47 46  1  0  0  0  0
 47 48  1  0  0  0  0
 48 52  1  0  0  0  0
 48 49  2  0  0  0  0
 50 53  1  0  0  0  0
 51 50  2  0  0  0  0
 52 58  1  0  0  0  0
 56 47  1  0  0  0  0
 57 47  1  0  0  0  0
M  END
$$$$
