FRE.pdb
 OpenBabel07022418583D

 61 61  0  0  1  0  0  0  0  0999 V2000
    2.9910    1.6170    1.1890 N   0  0  0  0  0  0  0  0  0  0  0  0
    2.5100    0.3810    0.6060 C   0  0  1  0  0  0  0  0  0  0  0  0
    2.6140   -0.6940    1.6680 C   0  0  0  0  0  0  0  0  0  0  0  0
    4.0060   -0.8820    2.1300 C   0  0  0  0  0  0  0  0  0  0  0  0
    4.5510   -0.1930    3.1880 C   0  0  0  0  0  0  0  0  0  0  0  0
    5.8690   -0.4020    3.5920 C   0  0  0  0  0  0  0  0  0  0  0  0
    6.6570   -1.3130    2.9310 C   0  0  0  0  0  0  0  0  0  0  0  0
    6.1240   -2.0200    1.8580 C   0  0  0  0  0  0  0  0  0  0  0  0
    4.8020   -1.7920    1.4740 C   0  0  0  0  0  0  0  0  0  0  0  0
    1.1050    0.6070    0.1900 C   0  0  0  0  0  0  0  0  0  0  0  0
    0.5550    1.7290    0.3290 O   0  0  0  0  0  0  0  0  0  0  0  0
    2.5020    1.8270    2.0910 H   0  0  0  0  0  0  0  0  0  0  0  0
    2.8960    2.4310    0.5570 H   0  0  0  0  0  0  0  0  0  0  0  0
    3.1680    0.1610   -0.2540 H   0  0  0  0  0  0  0  0  0  0  0  0
    2.1920   -1.6640    1.3180 H   0  0  0  0  0  0  0  0  0  0  0  0
    2.0250   -0.3770    2.5680 H   0  0  0  0  0  0  0  0  0  0  0  0
    3.9640    0.5280    3.7320 H   0  0  0  0  0  0  0  0  0  0  0  0
    6.3120    0.1310    4.4210 H   0  0  0  0  0  0  0  0  0  0  0  0
    7.6940   -1.4890    3.2370 H   0  0  0  0  0  0  0  0  0  0  0  0
    6.7420   -2.7290    1.3470 H   0  0  0  0  0  0  0  0  0  0  0  0
    4.4200   -2.3560    0.6380 H   0  0  0  0  0  0  0  0  0  0  0  0
   -3.7810    4.1200   -0.6660 N   0  0  0  0  0  0  0  0  0  0  0  0
   -3.8020    3.2610   -1.7770 C   0  0  0  0  0  0  0  0  0  0  0  0
   -4.1490    3.6910   -2.9250 N   0  0  0  0  0  0  0  0  0  0  0  0
   -3.4350    1.8580   -1.6760 N   0  0  0  0  0  0  0  0  0  0  0  0
   -3.1870    1.0880   -2.8310 C   0  0  0  0  0  0  0  0  0  0  0  0
   -2.6810   -0.2960   -2.7320 C   0  0  0  0  0  0  0  0  0  0  0  0
   -1.3320   -0.5340   -2.1840 C   0  0  0  0  0  0  0  0  0  0  0  0
   -1.1150   -0.1340   -0.7880 C   0  0  2  0  0  0  0  0  0  0  0  0
    0.2920   -0.4030   -0.3830 N   0  0  0  0  0  0  0  0  0  0  0  0
   -1.9250   -0.9260    0.1650 C   0  0  0  0  0  0  0  0  0  0  0  0
   -3.1930   -0.9440    0.1770 O   0  0  0  0  0  0  0  0  0  0  0  0
   -3.0580    4.0960    0.0940 H   0  0  0  0  0  0  0  0  0  0  0  0
   -4.5420    4.8440   -0.5820 H   0  0  0  0  0  0  0  0  0  0  0  0
   -4.4320    4.6830   -3.1050 H   0  0  0  0  0  0  0  0  0  0  0  0
   -3.4170    1.5290   -0.6950 H   0  0  0  0  0  0  0  0  0  0  0  0
   -2.4430    1.6670   -3.4780 H   0  0  0  0  0  0  0  0  0  0  0  0
   -4.1260    1.0890   -3.4790 H   0  0  0  0  0  0  0  0  0  0  0  0
   -2.8260   -0.8470   -3.7210 H   0  0  0  0  0  0  0  0  0  0  0  0
   -3.4070   -0.8610   -2.0590 H   0  0  0  0  0  0  0  0  0  0  0  0
   -1.1490   -1.6590   -2.3090 H   0  0  0  0  0  0  0  0  0  0  0  0
   -0.5430   -0.1070   -2.8800 H   0  0  0  0  0  0  0  0  0  0  0  0
   -1.3250    0.9290   -0.6330 H   0  0  0  0  0  0  0  0  0  0  0  0
    0.6920   -1.3420   -0.5230 H   0  0  0  0  0  0  0  0  0  0  0  0
   -1.3130   -1.7590    1.1800 N   0  0  0  0  0  0  0  0  0  0  0  0
   -2.0860   -2.5150    2.1090 C   0  0  1  0  0  0  0  0  0  0  0  0
   -1.9830   -3.9860    2.0300 C   0  0  0  0  0  0  0  0  0  0  0  0
   -2.4270   -4.5960    0.7530 C   0  0  0  0  0  0  0  0  0  0  0  0
   -1.6640   -4.2970   -0.4490 C   0  0  0  0  0  0  0  0  0  0  0  0
   -0.5620   -3.7310   -0.4700 O   0  0  0  0  0  0  0  0  0  0  0  0
   -1.7990   -2.0160    3.5080 C   0  0  0  0  0  0  0  0  0  0  0  0
   -0.9950   -1.0930    3.6700 O   0  0  0  0  0  0  0  0  0  0  0  0
   -2.1770   -4.6620   -1.7300 O   0  0  0  0  0  0  0  0  0  0  0  0
   -2.4410   -2.5990    4.5810 O   0  0  0  0  0  0  0  0  0  0  0  0
   -0.2770   -1.7590    1.2160 H   0  0  0  0  0  0  0  0  0  0  0  0
   -3.1900   -2.2360    1.9540 H   0  0  0  0  0  0  0  0  0  0  0  0
   -0.9010   -4.3250    2.1920 H   0  0  0  0  0  0  0  0  0  0  0  0
   -2.5810   -4.3930    2.9010 H   0  0  0  0  0  0  0  0  0  0  0  0
   -3.5230   -4.3660    0.5760 H   0  0  0  0  0  0  0  0  0  0  0  0
   -2.4590   -5.7340    0.8790 H   0  0  0  0  0  0  0  0  0  0  0  0
   -1.5510   -4.9830   -2.4560 H   0  0  0  0  0  0  0  0  0  0  0  0
  1 12  1  0  0  0  0
  2 14  1  6  0  0  0
  2  1  1  0  0  0  0
  2  3  1  0  0  0  0
  3  4  1  0  0  0  0
  3 16  1  0  0  0  0
  4  5  1  0  0  0  0
  5  6  2  0  0  0  0
  5 17  1  0  0  0  0
  6 18  1  0  0  0  0
  7 19  1  0  0  0  0
  7  6  1  0  0  0  0
  8  7  2  0  0  0  0
  9  8  1  0  0  0  0
  9  4  2  0  0  0  0
 10 11  2  0  0  0  0
 10  2  1  0  0  0  0
 13  1  1  0  0  0  0
 15  3  1  0  0  0  0
 20  8  1  0  0  0  0
 21  9  1  0  0  0  0
 22 34  1  0  0  0  0
 22 33  1  0  0  0  0
 23 25  1  0  0  0  0
 23 22  1  0  0  0  0
 24 23  2  0  0  0  0
 25 36  1  0  0  0  0
 26 27  1  0  0  0  0
 26 25  1  0  0  0  0
 27 28  1  0  0  0  0
 27 40  1  0  0  0  0
 28 29  1  0  0  0  0
 29 43  1  1  0  0  0
 29 30  1  0  0  0  0
 29 31  1  0  0  0  0
 30 10  1  0  0  0  0
 31 32  2  0  0  0  0
 31 45  1  0  0  0  0
 35 24  1  0  0  0  0
 37 26  1  0  0  0  0
 38 26  1  0  0  0  0
 39 27  1  0  0  0  0
 41 28  1  0  0  0  0
 42 28  1  0  0  0  0
 44 30  1  0  0  0  0
 45 55  1  0  0  0  0
 45 46  1  0  0  0  0
 46 56  1  6  0  0  0
 46 51  1  0  0  0  0
 47 46  1  0  0  0  0
 47 57  1  0  0  0  0
 47 58  1  0  0  0  0
 48 60  1  0  0  0  0
 48 47  1  0  0  0  0
 49 48  1  0  0  0  0
 50 49  2  0  0  0  0
 51 52  2  0  0  0  0
 51 54  1  0  0  0  0
 53 49  1  0  0  0  0
 59 48  1  0  0  0  0
 61 53  1  0  0  0  0
M  END
$$$$
