FRG.pdb
 OpenBabel07022418583D

 52 52  0  0  1  0  0  0  0  0999 V2000
    1.6700   -3.3630   -0.8500 N   0  0  0  0  0  0  0  0  0  0  0  0
    1.6590   -3.7380    0.5540 C   0  0  1  0  0  0  0  0  0  0  0  0
    3.0310   -3.5650    1.1770 C   0  0  0  0  0  0  0  0  0  0  0  0
    3.5220   -2.1940    1.1170 C   0  0  0  0  0  0  0  0  0  0  0  0
    3.2580   -1.3070    2.1370 C   0  0  0  0  0  0  0  0  0  0  0  0
    3.7220   -0.0040    2.0810 C   0  0  0  0  0  0  0  0  0  0  0  0
    4.4510    0.4430    1.0220 C   0  0  0  0  0  0  0  0  0  0  0  0
    4.7270   -0.4270   -0.0100 C   0  0  0  0  0  0  0  0  0  0  0  0
    4.2590   -1.7410    0.0470 C   0  0  0  0  0  0  0  0  0  0  0  0
    0.6400   -2.9060    1.2410 C   0  0  0  0  0  0  0  0  0  0  0  0
    0.4070   -3.0640    2.4490 O   0  0  0  0  0  0  0  0  0  0  0  0
    2.5130   -3.7320   -1.3420 H   0  0  0  0  0  0  0  0  0  0  0  0
    0.7680   -3.7480   -1.2560 H   0  0  0  0  0  0  0  0  0  0  0  0
    1.4120   -4.8170    0.6170 H   0  0  0  0  0  0  0  0  0  0  0  0
    2.9210   -3.9320    2.2390 H   0  0  0  0  0  0  0  0  0  0  0  0
    3.6980   -4.3110    0.6890 H   0  0  0  0  0  0  0  0  0  0  0  0
    2.6730   -1.6210    3.0150 H   0  0  0  0  0  0  0  0  0  0  0  0
    3.4920    0.6520    2.9000 H   0  0  0  0  0  0  0  0  0  0  0  0
    4.8330    1.4700    0.9490 H   0  0  0  0  0  0  0  0  0  0  0  0
    5.3020   -0.0880   -0.8530 H   0  0  0  0  0  0  0  0  0  0  0  0
    4.4700   -2.4360   -0.7610 H   0  0  0  0  0  0  0  0  0  0  0  0
   -3.2800    3.8940    1.2900 N   0  0  0  0  0  0  0  0  0  0  0  0
   -2.2450    3.4110    0.4660 C   0  0  0  0  0  0  0  0  0  0  0  0
   -2.3820    3.2620   -0.8070 N   0  0  0  0  0  0  0  0  0  0  0  0
   -1.0010    3.0760    1.0560 N   0  0  0  0  0  0  0  0  0  0  0  0
    0.0710    2.4410    0.3310 C   0  0  0  0  0  0  0  0  0  0  0  0
   -0.3790    1.0140   -0.0110 C   0  0  0  0  0  0  0  0  0  0  0  0
   -0.6420    0.3510    1.3160 C   0  0  0  0  0  0  0  0  0  0  0  0
   -1.0950   -1.0870    1.1990 C   0  0  2  0  0  0  0  0  0  0  0  0
   -0.0990   -1.9020    0.5300 N   0  0  0  0  0  0  0  0  0  0  0  0
   -2.4380   -1.2290    0.6050 C   0  0  0  0  0  0  0  0  0  0  0  0
   -3.3790   -0.5680    1.1100 O   0  0  0  0  0  0  0  0  0  0  0  0
   -4.2730    3.6560    1.0100 H   0  0  0  0  0  0  0  0  0  0  0  0
   -3.0790    4.4640    2.1440 H   0  0  0  0  0  0  0  0  0  0  0  0
   -3.3080    3.5170   -1.2190 H   0  0  0  0  0  0  0  0  0  0  0  0
   -0.8590    3.3020    2.0600 H   0  0  0  0  0  0  0  0  0  0  0  0
    0.9460    2.3650    1.0020 H   0  0  0  0  0  0  0  0  0  0  0  0
    0.3530    2.9970   -0.5870 H   0  0  0  0  0  0  0  0  0  0  0  0
   -1.3060    1.1440   -0.6040 H   0  0  0  0  0  0  0  0  0  0  0  0
    0.3590    0.5220   -0.6390 H   0  0  0  0  0  0  0  0  0  0  0  0
    0.2570    0.3450    1.9640 H   0  0  0  0  0  0  0  0  0  0  0  0
   -1.4050    0.9570    1.8430 H   0  0  0  0  0  0  0  0  0  0  0  0
   -1.1550   -1.4520    2.2520 H   0  0  0  0  0  0  0  0  0  0  0  0
    0.1380   -1.8140   -0.4860 H   0  0  0  0  0  0  0  0  0  0  0  0
   -2.7060   -2.0610   -0.4890 N   0  0  0  0  0  0  0  0  0  0  0  0
   -4.0320   -2.2070   -1.0840 C   0  0  0  0  0  0  0  0  0  0  0  0
   -4.9380   -2.7230   -0.0260 C   0  0  0  0  0  0  0  0  0  0  0  0
   -6.1680   -2.9460   -0.2510 O   0  0  0  0  0  0  0  0  0  0  0  0
   -4.4950   -2.9880    1.2610 O   0  0  0  0  0  0  0  0  0  0  0  0
   -1.9010   -2.6060   -0.8970 H   0  0  0  0  0  0  0  0  0  0  0  0
   -4.4300   -1.1900   -1.3710 H   0  0  0  0  0  0  0  0  0  0  0  0
   -4.0220   -2.8790   -1.9470 H   0  0  0  0  0  0  0  0  0  0  0  0
  1  2  1  0  0  0  0
  2 14  1  1  0  0  0
  2  3  1  0  0  0  0
  2 10  1  0  0  0  0
  3 15  1  0  0  0  0
  4  3  1  0  0  0  0
  4  5  1  0  0  0  0
  5 17  1  0  0  0  0
  6  5  2  0  0  0  0
  6 18  1  0  0  0  0
  7  6  1  0  0  0  0
  8  9  1  0  0  0  0
  8  7  2  0  0  0  0
  9  4  2  0  0  0  0
 10 11  2  0  0  0  0
 12  1  1  0  0  0  0
 13  1  1  0  0  0  0
 16  3  1  0  0  0  0
 19  7  1  0  0  0  0
 20  8  1  0  0  0  0
 21  9  1  0  0  0  0
 22 34  1  0  0  0  0
 23 25  1  0  0  0  0
 23 22  1  0  0  0  0
 24 23  2  0  0  0  0
 25 36  1  0  0  0  0
 26 37  1  0  0  0  0
 26 25  1  0  0  0  0
 27 26  1  0  0  0  0
 27 28  1  0  0  0  0
 28 42  1  0  0  0  0
 28 41  1  0  0  0  0
 29 28  1  0  0  0  0
 29 43  1  1  0  0  0
 30 29  1  0  0  0  0
 30 10  1  0  0  0  0
 31 32  2  0  0  0  0
 31 29  1  0  0  0  0
 33 22  1  0  0  0  0
 35 24  1  0  0  0  0
 38 26  1  0  0  0  0
 39 27  1  0  0  0  0
 40 27  1  0  0  0  0
 44 30  1  0  0  0  0
 45 31  1  0  0  0  0
 46 45  1  0  0  0  0
 46 47  1  0  0  0  0
 47 49  1  0  0  0  0
 48 47  2  0  0  0  0
 50 45  1  0  0  0  0
 51 46  1  0  0  0  0
 52 46  1  0  0  0  0
M  END
$$$$
