FRH.pdb
 OpenBabel07022418583D

 62 63  0  0  1  0  0  0  0  0999 V2000
    1.9850    2.6310   -0.2090 N   0  0  0  0  0  0  0  0  0  0  0  0
    2.8670    1.5200    0.1570 C   0  0  1  0  0  0  0  0  0  0  0  0
    3.4430    1.8730    1.5070 C   0  0  0  0  0  0  0  0  0  0  0  0
    4.3690    0.8480    2.0450 C   0  0  0  0  0  0  0  0  0  0  0  0
    3.9400   -0.1750    2.8810 C   0  0  0  0  0  0  0  0  0  0  0  0
    4.8050   -1.1200    3.3650 C   0  0  0  0  0  0  0  0  0  0  0  0
    6.1520   -1.0720    3.0230 C   0  0  0  0  0  0  0  0  0  0  0  0
    6.6040   -0.0730    2.1980 C   0  0  0  0  0  0  0  0  0  0  0  0
    5.7280    0.8580    1.7270 C   0  0  0  0  0  0  0  0  0  0  0  0
    2.0350    0.3050    0.2920 C   0  0  0  0  0  0  0  0  0  0  0  0
    2.5030   -0.8400    0.5390 O   0  0  0  0  0  0  0  0  0  0  0  0
    1.4830    2.9450    0.6510 H   0  0  0  0  0  0  0  0  0  0  0  0
    2.5130    3.4360   -0.5910 H   0  0  0  0  0  0  0  0  0  0  0  0
    3.6660    1.4020   -0.6150 H   0  0  0  0  0  0  0  0  0  0  0  0
    2.5770    1.9180    2.2170 H   0  0  0  0  0  0  0  0  0  0  0  0
    3.8960    2.8870    1.5140 H   0  0  0  0  0  0  0  0  0  0  0  0
    2.8830   -0.2120    3.1570 H   0  0  0  0  0  0  0  0  0  0  0  0
    4.4500   -1.9150    4.0200 H   0  0  0  0  0  0  0  0  0  0  0  0
    6.8290   -1.8180    3.4060 H   0  0  0  0  0  0  0  0  0  0  0  0
    7.6480   -0.0510    1.9440 H   0  0  0  0  0  0  0  0  0  0  0  0
    6.0360    1.6780    1.0660 H   0  0  0  0  0  0  0  0  0  0  0  0
   -4.1490    4.1250    0.9750 N   0  0  0  0  0  0  0  0  0  0  0  0
   -3.3810    3.0070    0.5530 C   0  0  0  0  0  0  0  0  0  0  0  0
   -2.1970    3.1870    0.1010 N   0  0  0  0  0  0  0  0  0  0  0  0
   -3.9080    1.6930    0.6240 N   0  0  0  0  0  0  0  0  0  0  0  0
   -3.0720    0.5320    0.3960 C   0  0  0  0  0  0  0  0  0  0  0  0
   -2.0940    0.4060    1.5100 C   0  0  0  0  0  0  0  0  0  0  0  0
   -1.1520   -0.7390    1.4470 C   0  0  0  0  0  0  0  0  0  0  0  0
   -0.2460   -0.8010    0.2680 C   0  0  2  0  0  0  0  0  0  0  0  0
    0.6090    0.3570    0.1460 N   0  0  0  0  0  0  0  0  0  0  0  0
   -0.9040   -1.1760   -1.0000 C   0  0  0  0  0  0  0  0  0  0  0  0
   -0.7260   -0.5500   -2.0970 O   0  0  0  0  0  0  0  0  0  0  0  0
   -4.4350    4.8440    0.2840 H   0  0  0  0  0  0  0  0  0  0  0  0
   -4.4150    4.2130    1.9600 H   0  0  0  0  0  0  0  0  0  0  0  0
   -1.7970    4.1400    0.0410 H   0  0  0  0  0  0  0  0  0  0  0  0
   -4.9090    1.5570    0.8440 H   0  0  0  0  0  0  0  0  0  0  0  0
   -3.6730   -0.3940    0.3160 H   0  0  0  0  0  0  0  0  0  0  0  0
   -2.5990    0.6950   -0.5960 H   0  0  0  0  0  0  0  0  0  0  0  0
   -1.5660    1.3800    1.6310 H   0  0  0  0  0  0  0  0  0  0  0  0
   -2.7020    0.2640    2.4500 H   0  0  0  0  0  0  0  0  0  0  0  0
   -1.7250   -1.6880    1.5260 H   0  0  0  0  0  0  0  0  0  0  0  0
   -0.5020   -0.6810    2.3590 H   0  0  0  0  0  0  0  0  0  0  0  0
    0.4600   -1.6770    0.4870 H   0  0  0  0  0  0  0  0  0  0  0  0
    0.1660    1.2730   -0.0580 H   0  0  0  0  0  0  0  0  0  0  0  0
   -1.7860   -2.2930   -1.0230 N   0  0  0  0  0  0  0  0  0  0  0  0
   -2.4360   -2.6780   -2.2510 C   0  0  1  0  0  0  0  0  0  0  0  0
   -1.8040   -4.0250   -2.6410 C   0  0  0  0  0  0  0  0  0  0  0  0
   -2.0900   -4.9590   -1.5170 C   0  0  0  0  0  0  0  0  0  0  0  0
   -1.3300   -5.2080   -0.3840 C   0  0  0  0  0  0  0  0  0  0  0  0
   -1.9500   -6.1180    0.3700 N   0  0  0  0  0  0  0  0  0  0  0  0
   -3.0930   -6.4640   -0.2460 C   0  0  0  0  0  0  0  0  0  0  0  0
   -3.1760   -5.7680   -1.3780 N   0  0  0  0  0  0  0  0  0  0  0  0
   -3.8940   -2.8480   -2.1330 C   0  0  0  0  0  0  0  0  0  0  0  0
   -4.5880   -3.1710   -3.1260 O   0  0  0  0  0  0  0  0  0  0  0  0
   -4.5550   -2.6620   -0.9320 O   0  0  0  0  0  0  0  0  0  0  0  0
   -1.9670   -2.8400   -0.1520 H   0  0  0  0  0  0  0  0  0  0  0  0
   -2.2160   -2.0140   -3.0900 H   0  0  0  0  0  0  0  0  0  0  0  0
   -0.7130   -3.8620   -2.6600 H   0  0  0  0  0  0  0  0  0  0  0  0
   -2.2150   -4.3850   -3.5970 H   0  0  0  0  0  0  0  0  0  0  0  0
   -0.3800   -4.7370   -0.1480 H   0  0  0  0  0  0  0  0  0  0  0  0
   -1.6440   -6.5190    1.2800 H   0  0  0  0  0  0  0  0  0  0  0  0
   -3.8510   -7.1850    0.0850 H   0  0  0  0  0  0  0  0  0  0  0  0
  1  2  1  0  0  0  0
  1 12  1  0  0  0  0
  2 14  1  6  0  0  0
  2 10  1  0  0  0  0
  2  3  1  0  0  0  0
  3 16  1  0  0  0  0
  3  4  1  0  0  0  0
  3 15  1  0  0  0  0
  4  5  1  0  0  0  0
  5 17  1  0  0  0  0
  5  6  2  0  0  0  0
  6 18  1  0  0  0  0
  7  6  1  0  0  0  0
  7 19  1  0  0  0  0
  8  7  2  0  0  0  0
  9  4  2  0  0  0  0
  9  8  1  0  0  0  0
 10 11  2  0  0  0  0
 13  1  1  0  0  0  0
 20  8  1  0  0  0  0
 21  9  1  0  0  0  0
 22 34  1  0  0  0  0
 23 25  1  0  0  0  0
 23 22  1  0  0  0  0
 24 23  2  0  0  0  0
 25 36  1  0  0  0  0
 26 25  1  0  0  0  0
 26 27  1  0  0  0  0
 27 39  1  0  0  0  0
 27 40  1  0  0  0  0
 28 27  1  0  0  0  0
 28 41  1  0  0  0  0
 28 42  1  0  0  0  0
 29 43  1  1  0  0  0
 29 28  1  0  0  0  0
 30 29  1  0  0  0  0
 30 10  1  0  0  0  0
 31 29  1  0  0  0  0
 32 31  2  0  0  0  0
 33 22  1  0  0  0  0
 35 24  1  0  0  0  0
 37 26  1  0  0  0  0
 38 26  1  0  0  0  0
 44 30  1  0  0  0  0
 45 31  1  0  0  0  0
 45 56  1  0  0  0  0
 46 57  1  6  0  0  0
 46 53  1  0  0  0  0
 46 45  1  0  0  0  0
 47 46  1  0  0  0  0
 47 48  1  0  0  0  0
 48 52  1  0  0  0  0
 48 49  2  0  0  0  0
 49 60  1  0  0  0  0
 49 50  1  0  0  0  0
 50 61  1  0  0  0  0
 51 62  1  0  0  0  0
 51 50  1  0  0  0  0
 52 51  2  0  0  0  0
 53 55  1  0  0  0  0
 54 53  2  0  0  0  0
 58 47  1  0  0  0  0
 59 47  1  0  0  0  0
M  END
$$$$
