FRI.pdb
 OpenBabel07022418583D

 64 64  0  0  1  0  0  0  0  0999 V2000
    3.2740    2.4700    1.0220 N   0  0  0  0  0  0  0  0  0  0  0  0
    2.2660    1.7440    0.3140 C   0  0  1  0  0  0  0  0  0  0  0  0
    2.8380    0.4760   -0.3290 C   0  0  0  0  0  0  0  0  0  0  0  0
    3.3950   -0.3540    0.7730 C   0  0  0  0  0  0  0  0  0  0  0  0
    2.6880   -1.2830    1.4910 C   0  0  0  0  0  0  0  0  0  0  0  0
    3.3060   -1.9950    2.4850 C   0  0  0  0  0  0  0  0  0  0  0  0
    4.6370   -1.8170    2.8050 C   0  0  0  0  0  0  0  0  0  0  0  0
    5.3420   -0.8810    2.0790 C   0  0  0  0  0  0  0  0  0  0  0  0
    4.7360   -0.1610    1.0810 C   0  0  0  0  0  0  0  0  0  0  0  0
    1.1240    1.2940    1.1470 C   0  0  0  0  0  0  0  0  0  0  0  0
    1.0470    1.3810    2.3800 O   0  0  0  0  0  0  0  0  0  0  0  0
    3.6670    3.2720    0.4820 H   0  0  0  0  0  0  0  0  0  0  0  0
    3.0230    2.7200    2.0030 H   0  0  0  0  0  0  0  0  0  0  0  0
    1.8270    2.3860   -0.5000 H   0  0  0  0  0  0  0  0  0  0  0  0
    1.9780   -0.0730   -0.7440 H   0  0  0  0  0  0  0  0  0  0  0  0
    3.5690    0.7210   -1.1010 H   0  0  0  0  0  0  0  0  0  0  0  0
    1.6500   -1.4100    1.2330 H   0  0  0  0  0  0  0  0  0  0  0  0
    2.7260   -2.7220    3.0350 H   0  0  0  0  0  0  0  0  0  0  0  0
    5.1510   -2.3610    3.5800 H   0  0  0  0  0  0  0  0  0  0  0  0
    6.3950   -0.7110    2.3010 H   0  0  0  0  0  0  0  0  0  0  0  0
    5.3160    0.5740    0.5220 H   0  0  0  0  0  0  0  0  0  0  0  0
   -2.4890    4.9360    1.2810 N   0  0  0  0  0  0  0  0  0  0  0  0
   -3.3320    4.0320    0.5760 C   0  0  0  0  0  0  0  0  0  0  0  0
   -3.1920    3.8740   -0.7100 N   0  0  0  0  0  0  0  0  0  0  0  0
   -4.3430    3.2810    1.2000 N   0  0  0  0  0  0  0  0  0  0  0  0
   -4.6520    1.9370    0.8450 C   0  0  0  0  0  0  0  0  0  0  0  0
   -3.5820    0.9790    1.2780 C   0  0  0  0  0  0  0  0  0  0  0  0
   -2.2530    1.2360    0.6960 C   0  0  0  0  0  0  0  0  0  0  0  0
   -1.1630    0.2300    1.1340 C   0  0  2  0  0  0  0  0  0  0  0  0
    0.0240    0.7130    0.4390 N   0  0  0  0  0  0  0  0  0  0  0  0
   -1.5670   -1.1020    0.6620 C   0  0  0  0  0  0  0  0  0  0  0  0
   -2.5370   -1.7240    1.2170 O   0  0  0  0  0  0  0  0  0  0  0  0
   -2.6030    5.1370    2.2810 H   0  0  0  0  0  0  0  0  0  0  0  0
   -1.7310    5.4080    0.7550 H   0  0  0  0  0  0  0  0  0  0  0  0
   -2.4740    4.3920   -1.2550 H   0  0  0  0  0  0  0  0  0  0  0  0
   -4.9040    3.7320    1.9750 H   0  0  0  0  0  0  0  0  0  0  0  0
   -5.6440    1.6050    1.2440 H   0  0  0  0  0  0  0  0  0  0  0  0
   -4.7790    1.8340   -0.2830 H   0  0  0  0  0  0  0  0  0  0  0  0
   -3.4640    0.9750    2.4000 H   0  0  0  0  0  0  0  0  0  0  0  0
   -3.9640   -0.0510    1.0620 H   0  0  0  0  0  0  0  0  0  0  0  0
   -1.8660    2.2360    1.0630 H   0  0  0  0  0  0  0  0  0  0  0  0
   -2.2740    1.2250   -0.4060 H   0  0  0  0  0  0  0  0  0  0  0  0
   -1.0900    0.3300    2.2190 H   0  0  0  0  0  0  0  0  0  0  0  0
    0.0340    0.6250   -0.5950 H   0  0  0  0  0  0  0  0  0  0  0  0
    1.1500   -4.5830   -1.7860 C   0  0  0  0  0  0  0  0  0  0  0  0
    0.7510   -4.3170   -0.3460 C   0  0  0  0  0  0  0  0  0  0  0  0
   -0.7570   -4.2800   -0.2100 C   0  0  2  0  0  0  0  0  0  0  0  0
   -1.2810   -5.6070   -0.6480 C   0  0  0  0  0  0  0  0  0  0  0  0
   -1.3740   -3.1150   -0.8850 C   0  0  2  0  0  0  0  0  0  0  0  0
   -0.9600   -1.8210   -0.4130 N   0  0  0  0  0  0  0  0  0  0  0  0
   -2.8380   -3.2430   -1.1220 C   0  0  0  0  0  0  0  0  0  0  0  0
   -3.3960   -4.3070   -1.4250 O   0  0  0  0  0  0  0  0  0  0  0  0
   -3.6240   -2.1170   -1.0030 O   0  0  0  0  0  0  0  0  0  0  0  0
    1.8910   -3.8010   -2.0910 H   0  0  0  0  0  0  0  0  0  0  0  0
    0.2790   -4.6460   -2.4430 H   0  0  0  0  0  0  0  0  0  0  0  0
    1.6900   -5.5570   -1.8960 H   0  0  0  0  0  0  0  0  0  0  0  0
    1.1410   -5.1950    0.2480 H   0  0  0  0  0  0  0  0  0  0  0  0
    1.2360   -3.4360    0.0710 H   0  0  0  0  0  0  0  0  0  0  0  0
   -0.9300   -4.2190    0.9100 H   0  0  0  0  0  0  0  0  0  0  0  0
   -1.3550   -5.6600   -1.7600 H   0  0  0  0  0  0  0  0  0  0  0  0
   -2.2200   -5.9140   -0.1450 H   0  0  0  0  0  0  0  0  0  0  0  0
   -0.5220   -6.3770   -0.3740 H   0  0  0  0  0  0  0  0  0  0  0  0
   -0.9830   -3.1280   -1.9740 H   0  0  0  0  0  0  0  0  0  0  0  0
   -0.1360   -1.3220   -0.8680 H   0  0  0  0  0  0  0  0  0  0  0  0
  1 13  1  0  0  0  0
  2 14  1  6  0  0  0
  2  1  1  0  0  0  0
  2 10  1  0  0  0  0
  3  2  1  0  0  0  0
  3  4  1  0  0  0  0
  4  9  2  0  0  0  0
  4  5  1  0  0  0  0
  5  6  2  0  0  0  0
  6  7  1  0  0  0  0
  6 18  1  0  0  0  0
  7 19  1  0  0  0  0
  8 20  1  0  0  0  0
  8  7  2  0  0  0  0
  9  8  1  0  0  0  0
 10 11  2  0  0  0  0
 12  1  1  0  0  0  0
 15  3  1  0  0  0  0
 16  3  1  0  0  0  0
 17  5  1  0  0  0  0
 21  9  1  0  0  0  0
 22 33  1  0  0  0  0
 23 25  1  0  0  0  0
 23 22  1  0  0  0  0
 24 23  2  0  0  0  0
 25 36  1  0  0  0  0
 26 25  1  0  0  0  0
 26 37  1  0  0  0  0
 26 27  1  0  0  0  0
 27 39  1  0  0  0  0
 28 41  1  0  0  0  0
 28 29  1  0  0  0  0
 28 27  1  0  0  0  0
 29 43  1  1  0  0  0
 30 29  1  0  0  0  0
 30 10  1  0  0  0  0
 31 29  1  0  0  0  0
 31 32  2  0  0  0  0
 34 22  1  0  0  0  0
 35 24  1  0  0  0  0
 38 26  1  0  0  0  0
 40 27  1  0  0  0  0
 42 28  1  0  0  0  0
 44 30  1  0  0  0  0
 45 46  1  0  0  0  0
 46 47  1  0  0  0  0
 46 58  1  0  0  0  0
 46 57  1  0  0  0  0
 47 59  1  1  0  0  0
 48 62  1  0  0  0  0
 48 47  1  0  0  0  0
 48 61  1  0  0  0  0
 49 63  1  6  0  0  0
 49 50  1  0  0  0  0
 49 47  1  0  0  0  0
 50 31  1  0  0  0  0
 51 53  1  0  0  0  0
 51 49  1  0  0  0  0
 52 51  2  0  0  0  0
 54 45  1  0  0  0  0
 55 45  1  0  0  0  0
 56 45  1  0  0  0  0
 60 48  1  0  0  0  0
 64 50  1  0  0  0  0
M  END
$$$$
