FRL.pdb
 OpenBabel07022418583D

 64 64  0  0  1  0  0  0  0  0999 V2000
    2.6900    2.1120    1.5010 N   0  0  0  0  0  0  0  0  0  0  0  0
    2.2120    2.1290    0.1490 C   0  0  1  0  0  0  0  0  0  0  0  0
    3.1840    1.4880   -0.7880 C   0  0  0  0  0  0  0  0  0  0  0  0
    3.5260    0.0740   -0.4790 C   0  0  0  0  0  0  0  0  0  0  0  0
    2.8590   -0.9930   -1.0130 C   0  0  0  0  0  0  0  0  0  0  0  0
    3.2420   -2.2840   -0.7130 C   0  0  0  0  0  0  0  0  0  0  0  0
    4.2940   -2.5640    0.1220 C   0  0  0  0  0  0  0  0  0  0  0  0
    4.9640   -1.4610    0.6580 C   0  0  0  0  0  0  0  0  0  0  0  0
    4.6030   -0.1740    0.3780 C   0  0  0  0  0  0  0  0  0  0  0  0
    0.7950    1.6920   -0.0090 C   0  0  0  0  0  0  0  0  0  0  0  0
    0.3150    1.7440   -1.1700 O   0  0  0  0  0  0  0  0  0  0  0  0
    2.2160    2.8440    2.0840 H   0  0  0  0  0  0  0  0  0  0  0  0
    2.6180    1.1680    1.9550 H   0  0  0  0  0  0  0  0  0  0  0  0
    2.2400    3.2570   -0.1280 H   0  0  0  0  0  0  0  0  0  0  0  0
    2.8420    1.5400   -1.8530 H   0  0  0  0  0  0  0  0  0  0  0  0
    4.1600    2.0570   -0.7840 H   0  0  0  0  0  0  0  0  0  0  0  0
    2.0200   -0.7790   -1.6790 H   0  0  0  0  0  0  0  0  0  0  0  0
    2.7120   -3.1280   -1.1400 H   0  0  0  0  0  0  0  0  0  0  0  0
    4.6100   -3.5880    0.3700 H   0  0  0  0  0  0  0  0  0  0  0  0
    5.8030   -1.6330    1.3240 H   0  0  0  0  0  0  0  0  0  0  0  0
    5.1380    0.6830    0.8110 H   0  0  0  0  0  0  0  0  0  0  0  0
   -3.0630    5.1500   -0.6870 N   0  0  0  0  0  0  0  0  0  0  0  0
   -3.3270    3.9570   -1.3860 C   0  0  0  0  0  0  0  0  0  0  0  0
   -2.6040    3.5870   -2.3710 N   0  0  0  0  0  0  0  0  0  0  0  0
   -4.4200    3.1190   -1.0220 N   0  0  0  0  0  0  0  0  0  0  0  0
   -4.4100    1.6870   -1.0360 C   0  0  0  0  0  0  0  0  0  0  0  0
   -3.5570    1.1000    0.0590 C   0  0  0  0  0  0  0  0  0  0  0  0
   -2.1120    1.4820    0.0050 C   0  0  0  0  0  0  0  0  0  0  0  0
   -1.2990    0.8570    1.1380 C   0  0  2  0  0  0  0  0  0  0  0  0
    0.0910    1.2670    1.1130 N   0  0  0  0  0  0  0  0  0  0  0  0
   -1.3860   -0.6120    1.1020 C   0  0  0  0  0  0  0  0  0  0  0  0
   -2.4590   -1.2610    1.1710 O   0  0  0  0  0  0  0  0  0  0  0  0
   -3.7790    5.5600   -0.0560 H   0  0  0  0  0  0  0  0  0  0  0  0
   -2.1570    5.6260   -0.8000 H   0  0  0  0  0  0  0  0  0  0  0  0
   -2.7650    2.7210   -2.9080 H   0  0  0  0  0  0  0  0  0  0  0  0
   -5.3070    3.6100   -0.7050 H   0  0  0  0  0  0  0  0  0  0  0  0
   -5.4640    1.3330   -0.8860 H   0  0  0  0  0  0  0  0  0  0  0  0
   -4.0680    1.3270   -2.0450 H   0  0  0  0  0  0  0  0  0  0  0  0
   -3.9830    1.4560    1.0220 H   0  0  0  0  0  0  0  0  0  0  0  0
   -3.7330   -0.0000   -0.0110 H   0  0  0  0  0  0  0  0  0  0  0  0
   -2.0810    2.5980    0.1290 H   0  0  0  0  0  0  0  0  0  0  0  0
   -1.7430    1.2480   -1.0040 H   0  0  0  0  0  0  0  0  0  0  0  0
   -1.7920    1.2670    2.0600 H   0  0  0  0  0  0  0  0  0  0  0  0
    0.5710    1.2230    2.0860 H   0  0  0  0  0  0  0  0  0  0  0  0
   -1.6970   -5.6730    1.7370 C   0  0  0  0  0  0  0  0  0  0  0  0
   -0.7730   -4.8270    2.5040 C   0  0  0  0  0  0  0  0  0  0  0  0
    0.6320   -5.4980    2.5290 C   0  0  0  0  0  0  0  0  0  0  0  0
   -0.6530   -3.3890    2.2150 C   0  0  0  0  0  0  0  0  0  0  0  0
   -0.1920   -2.8790    0.9320 C   0  0  2  0  0  0  0  0  0  0  0  0
   -0.1850   -1.4090    0.9790 N   0  0  0  0  0  0  0  0  0  0  0  0
   -0.9510   -3.2410   -0.2730 C   0  0  0  0  0  0  0  0  0  0  0  0
   -1.5830   -2.3490   -0.9690 O   0  0  0  0  0  0  0  0  0  0  0  0
   -1.0830   -4.5180   -0.8050 O   0  0  0  0  0  0  0  0  0  0  0  0
   -1.2580   -6.3970    1.0360 H   0  0  0  0  0  0  0  0  0  0  0  0
   -2.5500   -5.1410    1.2810 H   0  0  0  0  0  0  0  0  0  0  0  0
   -2.2110   -6.3620    2.5030 H   0  0  0  0  0  0  0  0  0  0  0  0
   -1.0600   -4.8990    3.6050 H   0  0  0  0  0  0  0  0  0  0  0  0
    1.2430   -4.8750    3.2030 H   0  0  0  0  0  0  0  0  0  0  0  0
    0.4570   -6.4820    3.0040 H   0  0  0  0  0  0  0  0  0  0  0  0
    1.0100   -5.5470    1.5090 H   0  0  0  0  0  0  0  0  0  0  0  0
    0.0340   -2.9540    3.0260 H   0  0  0  0  0  0  0  0  0  0  0  0
   -1.6330   -2.8660    2.4810 H   0  0  0  0  0  0  0  0  0  0  0  0
    0.8920   -3.1230    0.7100 H   0  0  0  0  0  0  0  0  0  0  0  0
    0.7060   -0.8630    0.9270 H   0  0  0  0  0  0  0  0  0  0  0  0
  1 13  1  0  0  0  0
  1 12  1  0  0  0  0
  2 14  1  6  0  0  0
  2  1  1  0  0  0  0
  3 16  1  0  0  0  0
  3  4  1  0  0  0  0
  3  2  1  0  0  0  0
  4  9  1  0  0  0  0
  5  6  1  0  0  0  0
  5  4  2  0  0  0  0
  6  7  2  0  0  0  0
  7 19  1  0  0  0  0
  7  8  1  0  0  0  0
  8 20  1  0  0  0  0
  9  8  2  0  0  0  0
  9 21  1  0  0  0  0
 10  2  1  0  0  0  0
 10 30  1  0  0  0  0
 11 10  2  0  0  0  0
 15  3  1  0  0  0  0
 17  5  1  0  0  0  0
 18  6  1  0  0  0  0
 22 33  1  0  0  0  0
 23 25  1  0  0  0  0
 23 22  1  0  0  0  0
 24 23  2  0  0  0  0
 25 36  1  0  0  0  0
 26 25  1  0  0  0  0
 26 37  1  0  0  0  0
 26 27  1  0  0  0  0
 27 39  1  0  0  0  0
 28 27  1  0  0  0  0
 28 41  1  0  0  0  0
 28 29  1  0  0  0  0
 29 43  1  1  0  0  0
 30 29  1  0  0  0  0
 30 44  1  0  0  0  0
 31 29  1  0  0  0  0
 31 32  2  0  0  0  0
 34 22  1  0  0  0  0
 35 24  1  0  0  0  0
 38 26  1  0  0  0  0
 40 27  1  0  0  0  0
 42 28  1  0  0  0  0
 45 56  1  0  0  0  0
 45 46  1  0  0  0  0
 46 47  1  0  0  0  0
 46 57  1  0  0  0  0
 47 59  1  0  0  0  0
 47 58  1  0  0  0  0
 48 62  1  0  0  0  0
 48 46  1  0  0  0  0
 48 61  1  0  0  0  0
 49 63  1  6  0  0  0
 49 50  1  0  0  0  0
 49 48  1  0  0  0  0
 50 31  1  0  0  0  0
 51 49  1  0  0  0  0
 52 51  2  0  0  0  0
 53 51  1  0  0  0  0
 54 45  1  0  0  0  0
 55 45  1  0  0  0  0
 60 47  1  0  0  0  0
 64 50  1  0  0  0  0
M  END
$$$$
