FRN.pdb
 OpenBabel07022418583D

 59 59  0  0  1  0  0  0  0  0999 V2000
    0.8900    1.0100   -1.5230 N   0  0  0  0  0  0  0  0  0  0  0  0
    2.0930    0.3050   -1.1940 C   0  0  1  0  0  0  0  0  0  0  0  0
    3.1620    1.2580   -0.7180 C   0  0  0  0  0  0  0  0  0  0  0  0
    2.8130    2.0350    0.4660 C   0  0  0  0  0  0  0  0  0  0  0  0
    3.0870    1.6020    1.7430 C   0  0  0  0  0  0  0  0  0  0  0  0
    2.7300    2.4020    2.8290 C   0  0  0  0  0  0  0  0  0  0  0  0
    2.1170    3.6030    2.6520 C   0  0  0  0  0  0  0  0  0  0  0  0
    1.8430    4.0360    1.3600 C   0  0  0  0  0  0  0  0  0  0  0  0
    2.1880    3.2590    0.2750 C   0  0  0  0  0  0  0  0  0  0  0  0
    1.9010   -0.7370   -0.1640 C   0  0  0  0  0  0  0  0  0  0  0  0
    2.8650   -1.3860    0.3060 O   0  0  0  0  0  0  0  0  0  0  0  0
    0.2120    0.3950   -2.0000 H   0  0  0  0  0  0  0  0  0  0  0  0
    0.5070    1.4540   -0.6550 H   0  0  0  0  0  0  0  0  0  0  0  0
    2.4920   -0.1600   -2.1520 H   0  0  0  0  0  0  0  0  0  0  0  0
    3.5340    1.9010   -1.5560 H   0  0  0  0  0  0  0  0  0  0  0  0
    4.0690    0.6420   -0.4420 H   0  0  0  0  0  0  0  0  0  0  0  0
    3.5730    0.6610    1.9580 H   0  0  0  0  0  0  0  0  0  0  0  0
    2.9460    2.0610    3.8530 H   0  0  0  0  0  0  0  0  0  0  0  0
    1.8240    4.2530    3.4720 H   0  0  0  0  0  0  0  0  0  0  0  0
    1.3590    4.9780    1.1690 H   0  0  0  0  0  0  0  0  0  0  0  0
    1.9610    3.6220   -0.7340 H   0  0  0  0  0  0  0  0  0  0  0  0
   -1.1820    3.6560    2.5920 N   0  0  0  0  0  0  0  0  0  0  0  0
   -1.4950    2.4380    1.8710 C   0  0  0  0  0  0  0  0  0  0  0  0
   -2.0480    2.5810    0.7180 N   0  0  0  0  0  0  0  0  0  0  0  0
   -1.1860    1.1820    2.4550 N   0  0  0  0  0  0  0  0  0  0  0  0
   -1.9520    0.0270    2.0510 C   0  0  0  0  0  0  0  0  0  0  0  0
   -1.5730   -1.2230    2.7370 C   0  0  0  0  0  0  0  0  0  0  0  0
   -0.1970   -1.7060    2.6460 C   0  0  0  0  0  0  0  0  0  0  0  0
    0.4160   -2.0660    1.3460 C   0  0  2  0  0  0  0  0  0  0  0  0
    0.5700   -1.0620    0.3570 N   0  0  0  0  0  0  0  0  0  0  0  0
   -0.2830   -3.2840    0.7610 C   0  0  0  0  0  0  0  0  0  0  0  0
   -0.4720   -4.2410    1.5400 O   0  0  0  0  0  0  0  0  0  0  0  0
   -1.1660    3.7130    3.6130 H   0  0  0  0  0  0  0  0  0  0  0  0
   -0.9610    4.5250    2.0490 H   0  0  0  0  0  0  0  0  0  0  0  0
   -2.3120    1.7950    0.1240 H   0  0  0  0  0  0  0  0  0  0  0  0
   -0.4140    1.1610    3.1520 H   0  0  0  0  0  0  0  0  0  0  0  0
   -3.0160    0.2890    2.4440 H   0  0  0  0  0  0  0  0  0  0  0  0
   -2.0160    0.0070    0.9550 H   0  0  0  0  0  0  0  0  0  0  0  0
   -2.3260   -2.0340    2.4320 H   0  0  0  0  0  0  0  0  0  0  0  0
   -1.8310   -1.0970    3.8460 H   0  0  0  0  0  0  0  0  0  0  0  0
    0.4620   -0.8530    3.0590 H   0  0  0  0  0  0  0  0  0  0  0  0
    0.0170   -2.5440    3.3830 H   0  0  0  0  0  0  0  0  0  0  0  0
    1.4370   -2.5170    1.6230 H   0  0  0  0  0  0  0  0  0  0  0  0
   -0.1630   -0.5140   -0.0770 H   0  0  0  0  0  0  0  0  0  0  0  0
   -3.1490   -6.6850   -2.1480 N   0  0  0  0  0  0  0  0  0  0  0  0
   -3.4450   -5.3180   -2.2880 C   0  0  0  0  0  0  0  0  0  0  0  0
   -4.4840   -5.0310   -2.9710 O   0  0  0  0  0  0  0  0  0  0  0  0
   -2.6920   -4.1880   -1.7350 C   0  0  0  0  0  0  0  0  0  0  0  0
   -1.3800   -4.5480   -1.1200 C   0  0  2  0  0  0  0  0  0  0  0  0
   -0.7070   -3.3670   -0.5710 N   0  0  0  0  0  0  0  0  0  0  0  0
   -0.4720   -5.0260   -2.2150 C   0  0  0  0  0  0  0  0  0  0  0  0
    0.6070   -4.3880   -2.4640 O   0  0  0  0  0  0  0  0  0  0  0  0
   -0.7360   -6.1440   -2.9930 O   0  0  0  0  0  0  0  0  0  0  0  0
   -3.2470   -7.3020   -2.9980 H   0  0  0  0  0  0  0  0  0  0  0  0
   -2.8390   -7.1470   -1.2720 H   0  0  0  0  0  0  0  0  0  0  0  0
   -2.6040   -3.4170   -2.5280 H   0  0  0  0  0  0  0  0  0  0  0  0
   -3.3350   -3.7430   -0.9210 H   0  0  0  0  0  0  0  0  0  0  0  0
   -1.5060   -5.3440   -0.3910 H   0  0  0  0  0  0  0  0  0  0  0  0
   -0.5430   -2.5600   -1.2080 H   0  0  0  0  0  0  0  0  0  0  0  0
  1  2  1  0  0  0  0
  1 13  1  0  0  0  0
  2 14  1  6  0  0  0
  2  3  1  0  0  0  0
  2 10  1  0  0  0  0
  3 16  1  0  0  0  0
  3  4  1  0  0  0  0
  4  5  1  0  0  0  0
  5 17  1  0  0  0  0
  5  6  2  0  0  0  0
  6 18  1  0  0  0  0
  7  6  1  0  0  0  0
  7 19  1  0  0  0  0
  8  7  2  0  0  0  0
  9  4  2  0  0  0  0
  9  8  1  0  0  0  0
 10 11  2  0  0  0  0
 10 30  1  0  0  0  0
 12  1  1  0  0  0  0
 15  3  1  0  0  0  0
 20  8  1  0  0  0  0
 21  9  1  0  0  0  0
 22 33  1  0  0  0  0
 23 25  1  0  0  0  0
 23 22  1  0  0  0  0
 24 23  2  0  0  0  0
 25 36  1  0  0  0  0
 26 37  1  0  0  0  0
 26 25  1  0  0  0  0
 26 27  1  0  0  0  0
 27 40  1  0  0  0  0
 28 27  1  0  0  0  0
 28 41  1  0  0  0  0
 28 42  1  0  0  0  0
 29 43  1  1  0  0  0
 29 28  1  0  0  0  0
 30 29  1  0  0  0  0
 31 29  1  0  0  0  0
 31 32  2  0  0  0  0
 34 22  1  0  0  0  0
 35 24  1  0  0  0  0
 38 26  1  0  0  0  0
 39 27  1  0  0  0  0
 44 30  1  0  0  0  0
 45 55  1  0  0  0  0
 46 45  1  0  0  0  0
 46 48  1  0  0  0  0
 47 46  2  0  0  0  0
 48 49  1  0  0  0  0
 48 57  1  0  0  0  0
 49 50  1  0  0  0  0
 49 58  1  1  0  0  0
 50 31  1  0  0  0  0
 51 49  1  0  0  0  0
 52 51  1  0  0  0  0
 53 51  2  0  0  0  0
 54 45  1  0  0  0  0
 56 48  1  0  0  0  0
 59 50  1  0  0  0  0
M  END
$$$$
