FRQ.pdb
 OpenBabel07022418583D

 62 62  0  0  1  0  0  0  0  0999 V2000
    3.3400    3.2030   -0.7260 N   0  0  0  0  0  0  0  0  0  0  0  0
    2.0510    2.6010   -0.9970 C   0  0  1  0  0  0  0  0  0  0  0  0
    2.0450    1.9180   -2.3570 C   0  0  0  0  0  0  0  0  0  0  0  0
    3.0760    0.8460   -2.4110 C   0  0  0  0  0  0  0  0  0  0  0  0
    2.7440   -0.4410   -2.0350 C   0  0  0  0  0  0  0  0  0  0  0  0
    3.7470   -1.4080   -2.0940 C   0  0  0  0  0  0  0  0  0  0  0  0
    5.0410   -1.1030   -2.5150 C   0  0  0  0  0  0  0  0  0  0  0  0
    5.3550    0.1910   -2.8880 C   0  0  0  0  0  0  0  0  0  0  0  0
    4.3580    1.1490   -2.8290 C   0  0  0  0  0  0  0  0  0  0  0  0
    1.7190    1.6110    0.0640 C   0  0  0  0  0  0  0  0  0  0  0  0
    2.5550    1.2870    0.9450 O   0  0  0  0  0  0  0  0  0  0  0  0
    3.3760    3.4790    0.2770 H   0  0  0  0  0  0  0  0  0  0  0  0
    3.4720    4.0840   -1.2720 H   0  0  0  0  0  0  0  0  0  0  0  0
    1.2570    3.3630   -1.0090 H   0  0  0  0  0  0  0  0  0  0  0  0
    2.1850    2.6680   -3.1540 H   0  0  0  0  0  0  0  0  0  0  0  0
    1.0620    1.4330   -2.4950 H   0  0  0  0  0  0  0  0  0  0  0  0
    1.7530   -0.7330   -1.7000 H   0  0  0  0  0  0  0  0  0  0  0  0
    3.4900   -2.4250   -1.7970 H   0  0  0  0  0  0  0  0  0  0  0  0
    5.8090   -1.8880   -2.5480 H   0  0  0  0  0  0  0  0  0  0  0  0
    6.3600    0.4310   -3.2140 H   0  0  0  0  0  0  0  0  0  0  0  0
    4.6020    2.1750   -3.1250 H   0  0  0  0  0  0  0  0  0  0  0  0
   -5.3740    2.8410    3.4260 N   0  0  0  0  0  0  0  0  0  0  0  0
   -4.0260    2.9420    3.0170 C   0  0  0  0  0  0  0  0  0  0  0  0
   -3.1010    3.4020    3.8140 N   0  0  0  0  0  0  0  0  0  0  0  0
   -3.6340    2.5360    1.7050 N   0  0  0  0  0  0  0  0  0  0  0  0
   -2.1840    2.2390    1.5310 C   0  0  0  0  0  0  0  0  0  0  0  0
   -1.9050    1.0090    2.3110 C   0  0  0  0  0  0  0  0  0  0  0  0
   -0.5390    0.4830    2.3740 C   0  0  0  0  0  0  0  0  0  0  0  0
    0.1780    0.0390    1.1640 C   0  0  2  0  0  0  0  0  0  0  0  0
    0.4290    0.9840    0.1270 N   0  0  0  0  0  0  0  0  0  0  0  0
   -0.5630   -1.1230    0.5830 C   0  0  0  0  0  0  0  0  0  0  0  0
   -0.8730   -1.1240   -0.6410 O   0  0  0  0  0  0  0  0  0  0  0  0
   -5.6700    2.0750    4.0500 H   0  0  0  0  0  0  0  0  0  0  0  0
   -6.0650    3.5330    3.1020 H   0  0  0  0  0  0  0  0  0  0  0  0
   -3.3170    3.7140    4.7840 H   0  0  0  0  0  0  0  0  0  0  0  0
   -4.3100    2.4570    0.9390 H   0  0  0  0  0  0  0  0  0  0  0  0
   -1.6850    3.1410    1.8940 H   0  0  0  0  0  0  0  0  0  0  0  0
   -2.0030    2.0530    0.4570 H   0  0  0  0  0  0  0  0  0  0  0  0
   -2.6640    0.2030    2.0190 H   0  0  0  0  0  0  0  0  0  0  0  0
   -2.2210    1.2010    3.3940 H   0  0  0  0  0  0  0  0  0  0  0  0
   -0.5840   -0.4340    3.0580 H   0  0  0  0  0  0  0  0  0  0  0  0
    0.0820    1.1890    3.0050 H   0  0  0  0  0  0  0  0  0  0  0  0
    1.1840   -0.3600    1.5710 H   0  0  0  0  0  0  0  0  0  0  0  0
   -0.2310    1.2580   -0.6220 H   0  0  0  0  0  0  0  0  0  0  0  0
   -1.2720   -8.2600   -0.1230 N   0  0  0  0  0  0  0  0  0  0  0  0
   -0.7310   -7.0420    0.3310 C   0  0  0  0  0  0  0  0  0  0  0  0
    0.4160   -6.9640    0.7760 O   0  0  0  0  0  0  0  0  0  0  0  0
   -1.5970   -5.8090    0.2610 C   0  0  0  0  0  0  0  0  0  0  0  0
   -0.8710   -4.6320    0.8450 C   0  0  0  0  0  0  0  0  0  0  0  0
   -1.6850   -3.3950    0.7590 C   0  0  2  0  0  0  0  0  0  0  0  0
   -0.9520   -2.2490    1.3230 N   0  0  0  0  0  0  0  0  0  0  0  0
   -2.9160   -3.5030    1.5420 C   0  0  0  0  0  0  0  0  0  0  0  0
   -3.1150   -2.7620    2.5270 O   0  0  0  0  0  0  0  0  0  0  0  0
   -3.8940   -4.4160    1.2260 O   0  0  0  0  0  0  0  0  0  0  0  0
   -2.1660   -8.5920    0.3220 H   0  0  0  0  0  0  0  0  0  0  0  0
   -0.7930   -8.7950   -0.8680 H   0  0  0  0  0  0  0  0  0  0  0  0
   -1.9000   -5.6390   -0.8060 H   0  0  0  0  0  0  0  0  0  0  0  0
   -2.5240   -6.0970    0.8080 H   0  0  0  0  0  0  0  0  0  0  0  0
    0.0970   -4.5630    0.2800 H   0  0  0  0  0  0  0  0  0  0  0  0
   -0.6580   -4.9230    1.9190 H   0  0  0  0  0  0  0  0  0  0  0  0
   -1.8890   -3.2070   -0.3280 H   0  0  0  0  0  0  0  0  0  0  0  0
   -0.7240   -2.3140    2.3300 H   0  0  0  0  0  0  0  0  0  0  0  0
  1 12  1  0  0  0  0
  2 14  1  1  0  0  0
  2  1  1  0  0  0  0
  2 10  1  0  0  0  0
  3  2  1  0  0  0  0
  4  3  1  0  0  0  0
  4  5  1  0  0  0  0
  5 17  1  0  0  0  0
  6  5  2  0  0  0  0
  6 18  1  0  0  0  0
  7  6  1  0  0  0  0
  8  9  1  0  0  0  0
  8  7  2  0  0  0  0
  9  4  2  0  0  0  0
 10 30  1  0  0  0  0
 10 11  2  0  0  0  0
 13  1  1  0  0  0  0
 15  3  1  0  0  0  0
 16  3  1  0  0  0  0
 19  7  1  0  0  0  0
 20  8  1  0  0  0  0
 21  9  1  0  0  0  0
 22 33  1  0  0  0  0
 23 22  1  0  0  0  0
 23 24  2  0  0  0  0
 24 35  1  0  0  0  0
 25 23  1  0  0  0  0
 26 25  1  0  0  0  0
 26 37  1  0  0  0  0
 26 27  1  0  0  0  0
 27 28  1  0  0  0  0
 27 40  1  0  0  0  0
 28 42  1  0  0  0  0
 28 41  1  0  0  0  0
 29 43  1  1  0  0  0
 29 28  1  0  0  0  0
 30 29  1  0  0  0  0
 31 29  1  0  0  0  0
 31 51  1  0  0  0  0
 32 31  2  0  0  0  0
 34 22  1  0  0  0  0
 36 25  1  0  0  0  0
 38 26  1  0  0  0  0
 39 27  1  0  0  0  0
 44 30  1  0  0  0  0
 45 55  1  0  0  0  0
 45 46  1  0  0  0  0
 46 47  2  0  0  0  0
 48 46  1  0  0  0  0
 48 58  1  0  0  0  0
 48 49  1  0  0  0  0
 49 60  1  0  0  0  0
 50 61  1  6  0  0  0
 50 49  1  0  0  0  0
 50 51  1  0  0  0  0
 50 52  1  0  0  0  0
 51 62  1  0  0  0  0
 52 53  1  0  0  0  0
 54 52  2  0  0  0  0
 56 45  1  0  0  0  0
 57 48  1  0  0  0  0
 59 49  1  0  0  0  0
M  END
$$$$
