FRR.pdb
 OpenBabel07022418583D

 68 68  0  0  1  0  0  0  0  0999 V2000
    3.0450    1.1210   -2.1960 N   0  0  0  0  0  0  0  0  0  0  0  0
    2.8890   -0.0640   -1.3700 C   0  0  1  0  0  0  0  0  0  0  0  0
    4.1250   -0.1100   -0.4710 C   0  0  0  0  0  0  0  0  0  0  0  0
    5.3650   -0.1930   -1.2620 C   0  0  0  0  0  0  0  0  0  0  0  0
    5.8710   -1.4160   -1.6000 C   0  0  0  0  0  0  0  0  0  0  0  0
    7.0370   -1.5490   -2.3560 C   0  0  0  0  0  0  0  0  0  0  0  0
    7.6970   -0.4240   -2.7730 C   0  0  0  0  0  0  0  0  0  0  0  0
    7.1830    0.8050   -2.4290 C   0  0  0  0  0  0  0  0  0  0  0  0
    6.0180    0.9340   -1.6740 C   0  0  0  0  0  0  0  0  0  0  0  0
    1.7120    0.0650   -0.4730 C   0  0  0  0  0  0  0  0  0  0  0  0
    1.0480    1.1030   -0.5500 O   0  0  0  0  0  0  0  0  0  0  0  0
    3.6210    0.8750   -3.0260 H   0  0  0  0  0  0  0  0  0  0  0  0
    2.1500    1.5110   -2.5350 H   0  0  0  0  0  0  0  0  0  0  0  0
    2.8490   -0.9400   -2.0270 H   0  0  0  0  0  0  0  0  0  0  0  0
    4.1780    0.8180    0.1330 H   0  0  0  0  0  0  0  0  0  0  0  0
    3.9980   -0.9830    0.2050 H   0  0  0  0  0  0  0  0  0  0  0  0
    5.4180   -2.3740   -1.3150 H   0  0  0  0  0  0  0  0  0  0  0  0
    7.4270   -2.5350   -2.6200 H   0  0  0  0  0  0  0  0  0  0  0  0
    8.6110   -0.5230   -3.3670 H   0  0  0  0  0  0  0  0  0  0  0  0
    7.7080    1.7130   -2.7610 H   0  0  0  0  0  0  0  0  0  0  0  0
    5.6750    1.9420   -1.4420 H   0  0  0  0  0  0  0  0  0  0  0  0
   -4.3830    3.2890    4.6290 N   0  0  0  0  0  0  0  0  0  0  0  0
   -3.1710    3.2390    3.9060 C   0  0  0  0  0  0  0  0  0  0  0  0
   -2.8530    4.1650    3.0960 N   0  0  0  0  0  0  0  0  0  0  0  0
   -2.2710    2.1420    4.0730 N   0  0  0  0  0  0  0  0  0  0  0  0
   -1.3580    1.7600    3.0080 C   0  0  0  0  0  0  0  0  0  0  0  0
   -0.4910    0.6200    3.4450 C   0  0  0  0  0  0  0  0  0  0  0  0
    0.4660    0.1090    2.4720 C   0  0  0  0  0  0  0  0  0  0  0  0
    0.1030   -0.6460    1.2690 C   0  0  2  0  0  0  0  0  0  0  0  0
    1.3060   -0.9170    0.4540 N   0  0  0  0  0  0  0  0  0  0  0  0
   -1.0990   -0.4680    0.5180 C   0  0  0  0  0  0  0  0  0  0  0  0
   -1.1530   -0.2040   -0.7400 O   0  0  0  0  0  0  0  0  0  0  0  0
   -5.2650    3.7140    4.2740 H   0  0  0  0  0  0  0  0  0  0  0  0
   -4.4050    2.8740    5.5830 H   0  0  0  0  0  0  0  0  0  0  0  0
   -3.4440    5.0090    2.9060 H   0  0  0  0  0  0  0  0  0  0  0  0
   -2.2450    1.5900    4.9500 H   0  0  0  0  0  0  0  0  0  0  0  0
   -0.6180    2.6460    2.8660 H   0  0  0  0  0  0  0  0  0  0  0  0
   -1.8730    1.7210    2.0840 H   0  0  0  0  0  0  0  0  0  0  0  0
    0.1060    1.0370    4.3210 H   0  0  0  0  0  0  0  0  0  0  0  0
   -1.0860   -0.1890    3.9470 H   0  0  0  0  0  0  0  0  0  0  0  0
    1.0630    1.0200    2.0980 H   0  0  0  0  0  0  0  0  0  0  0  0
    1.3280   -0.4260    3.0400 H   0  0  0  0  0  0  0  0  0  0  0  0
   -0.0460   -1.7400    1.6990 H   0  0  0  0  0  0  0  0  0  0  0  0
    1.8670   -1.7850    0.5260 H   0  0  0  0  0  0  0  0  0  0  0  0
   -1.1490   -6.3470   -1.4360 N   0  0  0  0  0  0  0  0  0  0  0  0
   -2.0890   -5.5150   -0.7840 C   0  0  0  0  0  0  0  0  0  0  0  0
   -1.9310   -5.1750    0.4720 N   0  0  0  0  0  0  0  0  0  0  0  0
   -3.2430   -5.0050   -1.4300 N   0  0  0  0  0  0  0  0  0  0  0  0
   -4.1100   -4.0650   -0.7710 C   0  0  0  0  0  0  0  0  0  0  0  0
   -3.4110   -2.7450   -0.5920 C   0  0  0  0  0  0  0  0  0  0  0  0
   -4.3170   -1.7680    0.0970 C   0  0  0  0  0  0  0  0  0  0  0  0
   -3.6090   -0.4190    0.2810 C   0  0  2  0  0  0  0  0  0  0  0  0
   -2.4170   -0.5790    1.0750 N   0  0  0  0  0  0  0  0  0  0  0  0
   -4.6250    0.4740    0.8700 C   0  0  0  0  0  0  0  0  0  0  0  0
   -4.4900    1.0260    1.9850 O   0  0  0  0  0  0  0  0  0  0  0  0
   -5.8230    0.7650    0.2060 O   0  0  0  0  0  0  0  0  0  0  0  0
   -1.4020   -6.8110   -2.3160 H   0  0  0  0  0  0  0  0  0  0  0  0
   -0.2050   -6.4950   -1.0340 H   0  0  0  0  0  0  0  0  0  0  0  0
   -1.1060   -5.5200    0.9920 H   0  0  0  0  0  0  0  0  0  0  0  0
   -3.4630   -5.3160   -2.3910 H   0  0  0  0  0  0  0  0  0  0  0  0
   -5.0260   -3.8910   -1.3860 H   0  0  0  0  0  0  0  0  0  0  0  0
   -4.4740   -4.4750    0.2100 H   0  0  0  0  0  0  0  0  0  0  0  0
   -3.0810   -2.3940   -1.5770 H   0  0  0  0  0  0  0  0  0  0  0  0
   -2.5340   -2.9130    0.0750 H   0  0  0  0  0  0  0  0  0  0  0  0
   -4.6070   -2.1990    1.0760 H   0  0  0  0  0  0  0  0  0  0  0  0
   -5.2630   -1.6000   -0.4630 H   0  0  0  0  0  0  0  0  0  0  0  0
   -3.3590   -0.0820   -0.7390 H   0  0  0  0  0  0  0  0  0  0  0  0
   -2.5520   -0.7830    2.0930 H   0  0  0  0  0  0  0  0  0  0  0  0
  1  2  1  0  0  0  0
  2 14  1  6  0  0  0
  2 10  1  0  0  0  0
  2  3  1  0  0  0  0
  3 15  1  0  0  0  0
  3 16  1  0  0  0  0
  4  3  1  0  0  0  0
  5 17  1  0  0  0  0
  5  4  1  0  0  0  0
  6  5  2  0  0  0  0
  7  8  2  0  0  0  0
  7  6  1  0  0  0  0
  8  9  1  0  0  0  0
  9 21  1  0  0  0  0
  9  4  2  0  0  0  0
 10 30  1  0  0  0  0
 11 10  2  0  0  0  0
 12  1  1  0  0  0  0
 13  1  1  0  0  0  0
 18  6  1  0  0  0  0
 19  7  1  0  0  0  0
 20  8  1  0  0  0  0
 22 34  1  0  0  0  0
 23 25  1  0  0  0  0
 23 22  1  0  0  0  0
 24 23  2  0  0  0  0
 25 36  1  0  0  0  0
 26 27  1  0  0  0  0
 26 25  1  0  0  0  0
 27 40  1  0  0  0  0
 27 39  1  0  0  0  0
 28 42  1  0  0  0  0
 28 27  1  0  0  0  0
 29 43  1  1  0  0  0
 29 28  1  0  0  0  0
 30 44  1  0  0  0  0
 30 29  1  0  0  0  0
 31 53  1  0  0  0  0
 31 29  1  0  0  0  0
 32 31  2  0  0  0  0
 33 22  1  0  0  0  0
 35 24  1  0  0  0  0
 37 26  1  0  0  0  0
 38 26  1  0  0  0  0
 41 28  1  0  0  0  0
 45 58  1  0  0  0  0
 45 46  1  0  0  0  0
 46 47  2  0  0  0  0
 47 59  1  0  0  0  0
 48 46  1  0  0  0  0
 48 49  1  0  0  0  0
 49 50  1  0  0  0  0
 49 62  1  0  0  0  0
 50 64  1  0  0  0  0
 50 51  1  0  0  0  0
 51 52  1  0  0  0  0
 51 65  1  0  0  0  0
 52 67  1  6  0  0  0
 52 54  1  0  0  0  0
 52 53  1  0  0  0  0
 53 68  1  0  0  0  0
 54 55  1  0  0  0  0
 56 54  2  0  0  0  0
 57 45  1  0  0  0  0
 60 48  1  0  0  0  0
 61 49  1  0  0  0  0
 63 50  1  0  0  0  0
 66 51  1  0  0  0  0
M  END
$$$$
