FRT.pdb
 OpenBabel07022418583D

 59 59  0  0  1  0  0  0  0  0999 V2000
   -0.7360    1.4010   -1.3220 N   0  0  0  0  0  0  0  0  0  0  0  0
    0.4620    0.8860   -1.9730 C   0  0  1  0  0  0  0  0  0  0  0  0
    1.4960    1.9710   -2.0790 C   0  0  0  0  0  0  0  0  0  0  0  0
    1.9040    2.5220   -0.7620 C   0  0  0  0  0  0  0  0  0  0  0  0
    2.9780    1.9910   -0.0920 C   0  0  0  0  0  0  0  0  0  0  0  0
    3.3730    2.4870    1.1260 C   0  0  0  0  0  0  0  0  0  0  0  0
    2.6670    3.5340    1.6640 C   0  0  0  0  0  0  0  0  0  0  0  0
    1.5770    4.1000    1.0220 C   0  0  0  0  0  0  0  0  0  0  0  0
    1.1970    3.5890   -0.1960 C   0  0  0  0  0  0  0  0  0  0  0  0
    1.0050   -0.3010   -1.3130 C   0  0  0  0  0  0  0  0  0  0  0  0
    2.0730   -0.7960   -1.7370 O   0  0  0  0  0  0  0  0  0  0  0  0
   -0.5460    1.7890   -0.3840 H   0  0  0  0  0  0  0  0  0  0  0  0
   -1.1760    2.1450   -1.9050 H   0  0  0  0  0  0  0  0  0  0  0  0
    0.1360    0.6780   -3.0250 H   0  0  0  0  0  0  0  0  0  0  0  0
    1.1060    2.8460   -2.6650 H   0  0  0  0  0  0  0  0  0  0  0  0
    2.3840    1.5680   -2.6070 H   0  0  0  0  0  0  0  0  0  0  0  0
    3.5210    1.1650   -0.5450 H   0  0  0  0  0  0  0  0  0  0  0  0
    4.2380    2.0450    1.6450 H   0  0  0  0  0  0  0  0  0  0  0  0
    2.9590    3.9400    2.6200 H   0  0  0  0  0  0  0  0  0  0  0  0
    1.0190    4.9360    1.4590 H   0  0  0  0  0  0  0  0  0  0  0  0
    0.3480    3.9840   -0.7600 H   0  0  0  0  0  0  0  0  0  0  0  0
    0.4140    2.6680    3.8910 N   0  0  0  0  0  0  0  0  0  0  0  0
   -0.1990    1.6390    3.1420 C   0  0  0  0  0  0  0  0  0  0  0  0
   -1.3100    1.8340    2.4870 N   0  0  0  0  0  0  0  0  0  0  0  0
    0.3610    0.3380    3.0620 N   0  0  0  0  0  0  0  0  0  0  0  0
   -0.4440   -0.8470    2.9040 C   0  0  0  0  0  0  0  0  0  0  0  0
    0.3600   -2.0850    2.8480 C   0  0  0  0  0  0  0  0  0  0  0  0
    1.3730   -2.1530    1.7930 C   0  0  0  0  0  0  0  0  0  0  0  0
    1.0030   -2.0900    0.3620 C   0  0  2  0  0  0  0  0  0  0  0  0
    0.3850   -0.9610   -0.1830 N   0  0  0  0  0  0  0  0  0  0  0  0
    0.1850   -3.3530    0.0710 C   0  0  0  0  0  0  0  0  0  0  0  0
    0.5710   -4.4700    0.4690 O   0  0  0  0  0  0  0  0  0  0  0  0
    0.9900    2.4580    4.7190 H   0  0  0  0  0  0  0  0  0  0  0  0
    0.2860    3.6590    3.6060 H   0  0  0  0  0  0  0  0  0  0  0  0
   -1.7500    2.7890    2.5260 H   0  0  0  0  0  0  0  0  0  0  0  0
    1.4140    0.2550    3.1240 H   0  0  0  0  0  0  0  0  0  0  0  0
   -1.0300   -0.8990    3.9110 H   0  0  0  0  0  0  0  0  0  0  0  0
   -1.2210   -0.7270    2.1640 H   0  0  0  0  0  0  0  0  0  0  0  0
    0.8310   -2.2230    3.8780 H   0  0  0  0  0  0  0  0  0  0  0  0
   -0.3100   -3.0090    2.7970 H   0  0  0  0  0  0  0  0  0  0  0  0
    1.8960   -3.1760    1.9120 H   0  0  0  0  0  0  0  0  0  0  0  0
    2.2620   -1.4640    2.0140 H   0  0  0  0  0  0  0  0  0  0  0  0
    1.9790   -2.3540   -0.1950 H   0  0  0  0  0  0  0  0  0  0  0  0
   -0.4910   -0.5540    0.1350 H   0  0  0  0  0  0  0  0  0  0  0  0
   -3.8760   -5.7280   -0.5660 C   0  0  0  0  0  0  0  0  0  0  0  0
   -3.1790   -4.4140   -0.2990 C   0  0  1  0  0  0  0  0  0  0  0  0
   -3.0610   -4.3240    1.1090 O   0  0  0  0  0  0  0  0  0  0  0  0
   -1.8200   -4.4630   -0.9460 C   0  0  2  0  0  0  0  0  0  0  0  0
   -1.0260   -3.2900   -0.6550 N   0  0  0  0  0  0  0  0  0  0  0  0
   -1.9810   -4.6940   -2.3860 C   0  0  0  0  0  0  0  0  0  0  0  0
   -1.4580   -3.8980   -3.2390 O   0  0  0  0  0  0  0  0  0  0  0  0
   -2.6890   -5.7580   -2.9180 O   0  0  0  0  0  0  0  0  0  0  0  0
   -3.0910   -6.4910   -0.7360 H   0  0  0  0  0  0  0  0  0  0  0  0
   -4.5110   -5.7050   -1.4730 H   0  0  0  0  0  0  0  0  0  0  0  0
   -4.4400   -6.0730    0.3280 H   0  0  0  0  0  0  0  0  0  0  0  0
   -3.8310   -3.6140   -0.6920 H   0  0  0  0  0  0  0  0  0  0  0  0
   -2.7440   -5.2310    1.3900 H   0  0  0  0  0  0  0  0  0  0  0  0
   -1.2860   -5.3310   -0.5080 H   0  0  0  0  0  0  0  0  0  0  0  0
   -1.3620   -2.3790   -0.9930 H   0  0  0  0  0  0  0  0  0  0  0  0
  1 12  1  0  0  0  0
  2 14  1  6  0  0  0
  2  1  1  0  0  0  0
  2 10  1  0  0  0  0
  3  2  1  0  0  0  0
  3  4  1  0  0  0  0
  4  9  2  0  0  0  0
  4  5  1  0  0  0  0
  5  6  2  0  0  0  0
  6 18  1  0  0  0  0
  6  7  1  0  0  0  0
  7 19  1  0  0  0  0
  8 20  1  0  0  0  0
  8  7  2  0  0  0  0
  9  8  1  0  0  0  0
 10 30  1  0  0  0  0
 11 10  2  0  0  0  0
 13  1  1  0  0  0  0
 15  3  1  0  0  0  0
 16  3  1  0  0  0  0
 17  5  1  0  0  0  0
 21  9  1  0  0  0  0
 22 33  1  0  0  0  0
 23 22  1  0  0  0  0
 24 35  1  0  0  0  0
 24 23  2  0  0  0  0
 25 36  1  0  0  0  0
 25 23  1  0  0  0  0
 26 25  1  0  0  0  0
 26 37  1  0  0  0  0
 27 26  1  0  0  0  0
 27 39  1  0  0  0  0
 28 41  1  0  0  0  0
 28 42  1  0  0  0  0
 28 27  1  0  0  0  0
 29 43  1  6  0  0  0
 29 28  1  0  0  0  0
 30 44  1  0  0  0  0
 30 29  1  0  0  0  0
 31 29  1  0  0  0  0
 31 32  2  0  0  0  0
 34 22  1  0  0  0  0
 38 26  1  0  0  0  0
 40 27  1  0  0  0  0
 45 46  1  0  0  0  0
 45 55  1  0  0  0  0
 46 56  1  6  0  0  0
 46 47  1  0  0  0  0
 47 57  1  0  0  0  0
 48 49  1  0  0  0  0
 48 58  1  1  0  0  0
 48 46  1  0  0  0  0
 49 31  1  0  0  0  0
 50 48  1  0  0  0  0
 51 50  2  0  0  0  0
 52 50  1  0  0  0  0
 53 45  1  0  0  0  0
 54 45  1  0  0  0  0
 59 49  1  0  0  0  0
M  END
$$$$
