FRW.pdb
 OpenBabel07022418583D

 69 71  0  0  1  0  0  0  0  0999 V2000
   -0.7120   -3.0180    3.0120 N   0  0  0  0  0  0  0  0  0  0  0  0
    0.3190   -2.1770    3.6110 C   0  0  1  0  0  0  0  0  0  0  0  0
    1.5090   -3.0620    3.9020 C   0  0  0  0  0  0  0  0  0  0  0  0
    2.6510   -2.3610    4.5130 C   0  0  0  0  0  0  0  0  0  0  0  0
    3.6860   -1.8140    3.7900 C   0  0  0  0  0  0  0  0  0  0  0  0
    4.7480   -1.1560    4.4110 C   0  0  0  0  0  0  0  0  0  0  0  0
    4.7560   -1.0540    5.8020 C   0  0  0  0  0  0  0  0  0  0  0  0
    3.7260   -1.5970    6.5370 C   0  0  0  0  0  0  0  0  0  0  0  0
    2.6870   -2.2420    5.8990 C   0  0  0  0  0  0  0  0  0  0  0  0
    0.7370   -1.0880    2.7340 C   0  0  0  0  0  0  0  0  0  0  0  0
    1.5640   -0.2260    3.1320 O   0  0  0  0  0  0  0  0  0  0  0  0
   -1.6160   -2.4700    2.9890 H   0  0  0  0  0  0  0  0  0  0  0  0
   -0.8750   -3.7880    3.7110 H   0  0  0  0  0  0  0  0  0  0  0  0
   -0.0860   -1.8470    4.5900 H   0  0  0  0  0  0  0  0  0  0  0  0
    1.8120   -3.4870    2.9010 H   0  0  0  0  0  0  0  0  0  0  0  0
    1.1670   -3.9190    4.5250 H   0  0  0  0  0  0  0  0  0  0  0  0
    3.6980   -1.8860    2.7200 H   0  0  0  0  0  0  0  0  0  0  0  0
    5.5590   -0.7280    3.8370 H   0  0  0  0  0  0  0  0  0  0  0  0
    5.5840   -0.5410    6.2890 H   0  0  0  0  0  0  0  0  0  0  0  0
    3.7270   -1.5210    7.6080 H   0  0  0  0  0  0  0  0  0  0  0  0
    1.8870   -2.6630    6.4900 H   0  0  0  0  0  0  0  0  0  0  0  0
   -0.1660   -0.4020   -5.1770 N   0  0  0  0  0  0  0  0  0  0  0  0
    0.6760    0.3500   -4.3280 C   0  0  0  0  0  0  0  0  0  0  0  0
    0.5150    1.6330   -4.1460 N   0  0  0  0  0  0  0  0  0  0  0  0
    1.7420   -0.3100   -3.6500 N   0  0  0  0  0  0  0  0  0  0  0  0
    2.5860    0.4420   -2.7560 C   0  0  0  0  0  0  0  0  0  0  0  0
    1.8780    0.8950   -1.4910 C   0  0  0  0  0  0  0  0  0  0  0  0
    1.3790   -0.2650   -0.6780 C   0  0  0  0  0  0  0  0  0  0  0  0
    0.7390    0.2310    0.5630 C   0  0  2  0  0  0  0  0  0  0  0  0
    0.2690   -0.9040    1.4020 N   0  0  0  0  0  0  0  0  0  0  0  0
   -0.4710    1.0430    0.3450 C   0  0  0  0  0  0  0  0  0  0  0  0
   -0.4660    2.0940   -0.3190 O   0  0  0  0  0  0  0  0  0  0  0  0
   -1.1640   -0.1150   -5.2590 H   0  0  0  0  0  0  0  0  0  0  0  0
    0.1500   -1.2200   -5.7210 H   0  0  0  0  0  0  0  0  0  0  0  0
   -0.2680    2.0970   -4.6540 H   0  0  0  0  0  0  0  0  0  0  0  0
    1.8890   -1.3500   -3.8200 H   0  0  0  0  0  0  0  0  0  0  0  0
    3.4060   -0.2600   -2.4210 H   0  0  0  0  0  0  0  0  0  0  0  0
    3.0620    1.3070   -3.2380 H   0  0  0  0  0  0  0  0  0  0  0  0
    2.5430    1.5030   -0.8590 H   0  0  0  0  0  0  0  0  0  0  0  0
    0.9700    1.4620   -1.8370 H   0  0  0  0  0  0  0  0  0  0  0  0
    0.6060   -0.8070   -1.3020 H   0  0  0  0  0  0  0  0  0  0  0  0
    2.2410   -0.9350   -0.4670 H   0  0  0  0  0  0  0  0  0  0  0  0
    1.4640    0.7990    1.1780 H   0  0  0  0  0  0  0  0  0  0  0  0
   -0.4140   -1.6000    1.0450 H   0  0  0  0  0  0  0  0  0  0  0  0
   -1.7550    0.6740    0.8910 N   0  0  0  0  0  0  0  0  0  0  0  0
   -2.9080    1.4850    0.6530 C   0  0  1  0  0  0  0  0  0  0  0  0
   -4.0610    0.7830   -0.0100 C   0  0  0  0  0  0  0  0  0  0  0  0
   -3.7830    0.2180   -1.3270 C   0  0  0  0  0  0  0  0  0  0  0  0
   -4.1200    0.8120   -2.5540 C   0  0  0  0  0  0  0  0  0  0  0  0
   -3.7090    0.0420   -3.5670 N   0  0  0  0  0  0  0  0  0  0  0  0
   -3.1030   -1.0600   -3.0660 C   0  0  0  0  0  0  0  0  0  0  0  0
   -2.5250   -2.1450   -3.6980 C   0  0  0  0  0  0  0  0  0  0  0  0
   -1.9710   -3.1610   -2.9240 C   0  0  0  0  0  0  0  0  0  0  0  0
   -2.0030   -3.0800   -1.5440 C   0  0  0  0  0  0  0  0  0  0  0  0
   -2.5900   -1.9800   -0.9280 C   0  0  0  0  0  0  0  0  0  0  0  0
   -3.1500   -0.9510   -1.6870 C   0  0  0  0  0  0  0  0  0  0  0  0
   -3.3590    2.1830    1.9040 C   0  0  0  0  0  0  0  0  0  0  0  0
   -2.7640    2.0400    3.0010 O   0  0  0  0  0  0  0  0  0  0  0  0
   -4.4690    3.0120    1.8460 O   0  0  0  0  0  0  0  0  0  0  0  0
   -1.8160   -0.1810    1.4660 H   0  0  0  0  0  0  0  0  0  0  0  0
   -2.6390    2.3440   -0.0350 H   0  0  0  0  0  0  0  0  0  0  0  0
   -4.9180    1.4930   -0.0760 H   0  0  0  0  0  0  0  0  0  0  0  0
   -4.4380   -0.0620    0.6400 H   0  0  0  0  0  0  0  0  0  0  0  0
   -4.6430    1.7680   -2.6390 H   0  0  0  0  0  0  0  0  0  0  0  0
   -3.8330    0.2500   -4.5920 H   0  0  0  0  0  0  0  0  0  0  0  0
   -2.5250   -2.1630   -4.7610 H   0  0  0  0  0  0  0  0  0  0  0  0
   -1.5310   -3.9860   -3.4580 H   0  0  0  0  0  0  0  0  0  0  0  0
   -1.5670   -3.8800   -0.9580 H   0  0  0  0  0  0  0  0  0  0  0  0
   -2.6230   -1.9190    0.1400 H   0  0  0  0  0  0  0  0  0  0  0  0
  1  2  1  0  0  0  0
  1 13  1  0  0  0  0
  2  3  1  0  0  0  0
  2 14  1  1  0  0  0
  3  4  1  0  0  0  0
  3 16  1  0  0  0  0
  4  9  1  0  0  0  0
  5  6  1  0  0  0  0
  5  4  2  0  0  0  0
  6  7  2  0  0  0  0
  7 19  1  0  0  0  0
  7  8  1  0  0  0  0
  8 20  1  0  0  0  0
  9 21  1  0  0  0  0
  9  8  2  0  0  0  0
 10 11  2  0  0  0  0
 10  2  1  0  0  0  0
 12  1  1  0  0  0  0
 15  3  1  0  0  0  0
 17  5  1  0  0  0  0
 18  6  1  0  0  0  0
 22 23  1  0  0  0  0
 23 24  2  0  0  0  0
 23 25  1  0  0  0  0
 25 26  1  0  0  0  0
 26 37  1  0  0  0  0
 26 27  1  0  0  0  0
 27 39  1  0  0  0  0
 27 28  1  0  0  0  0
 28 42  1  0  0  0  0
 28 29  1  0  0  0  0
 29 43  1  1  0  0  0
 29 30  1  0  0  0  0
 30 10  1  0  0  0  0
 31 29  1  0  0  0  0
 31 45  1  0  0  0  0
 32 31  2  0  0  0  0
 33 22  1  0  0  0  0
 34 22  1  0  0  0  0
 35 24  1  0  0  0  0
 36 25  1  0  0  0  0
 38 26  1  0  0  0  0
 40 27  1  0  0  0  0
 41 28  1  0  0  0  0
 44 30  1  0  0  0  0
 45 60  1  0  0  0  0
 46 61  1  6  0  0  0
 46 45  1  0  0  0  0
 46 57  1  0  0  0  0
 47 63  1  0  0  0  0
 47 46  1  0  0  0  0
 48 47  1  0  0  0  0
 49 48  2  0  0  0  0
 50 51  1  0  0  0  0
 50 49  1  0  0  0  0
 51 56  1  0  0  0  0
 52 51  2  0  0  0  0
 52 53  1  0  0  0  0
 53 54  2  0  0  0  0
 54 68  1  0  0  0  0
 54 55  1  0  0  0  0
 55 69  1  0  0  0  0
 56 48  1  0  0  0  0
 56 55  2  0  0  0  0
 57 58  1  0  0  0  0
 59 57  2  0  0  0  0
 62 47  1  0  0  0  0
 64 49  1  0  0  0  0
 65 50  1  0  0  0  0
 66 52  1  0  0  0  0
 67 53  1  0  0  0  0
M  END
$$$$
