FRY.pdb
 OpenBabel07022418583D

 66 67  0  0  1  0  0  0  0  0999 V2000
    4.5980   -1.9440    0.3090 N   0  0  0  0  0  0  0  0  0  0  0  0
    3.1790   -2.1430    0.5820 C   0  0  1  0  0  0  0  0  0  0  0  0
    2.9240   -2.0540    2.0840 C   0  0  0  0  0  0  0  0  0  0  0  0
    3.3560   -0.7210    2.5960 C   0  0  0  0  0  0  0  0  0  0  0  0
    4.6210   -0.6020    3.1090 C   0  0  0  0  0  0  0  0  0  0  0  0
    5.0190    0.6310    3.5660 C   0  0  0  0  0  0  0  0  0  0  0  0
    4.2120    1.7480    3.5340 C   0  0  0  0  0  0  0  0  0  0  0  0
    2.9440    1.5810    3.0080 C   0  0  0  0  0  0  0  0  0  0  0  0
    2.5130    0.3620    2.5410 C   0  0  0  0  0  0  0  0  0  0  0  0
    2.3180   -1.1530   -0.1200 C   0  0  0  0  0  0  0  0  0  0  0  0
    2.7970   -0.1220   -0.6740 O   0  0  0  0  0  0  0  0  0  0  0  0
    5.0990   -2.8220    0.5400 H   0  0  0  0  0  0  0  0  0  0  0  0
    4.7520   -1.7610   -0.7070 H   0  0  0  0  0  0  0  0  0  0  0  0
    2.9510   -3.1880    0.2890 H   0  0  0  0  0  0  0  0  0  0  0  0
    3.4610   -2.8890    2.5700 H   0  0  0  0  0  0  0  0  0  0  0  0
    1.8460   -2.1990    2.2530 H   0  0  0  0  0  0  0  0  0  0  0  0
    5.3110   -1.4550    3.1610 H   0  0  0  0  0  0  0  0  0  0  0  0
    6.0150    0.7450    3.9760 H   0  0  0  0  0  0  0  0  0  0  0  0
    4.5370    2.7200    3.9000 H   0  0  0  0  0  0  0  0  0  0  0  0
    2.2930    2.4420    2.9720 H   0  0  0  0  0  0  0  0  0  0  0  0
    1.5150    0.2380    2.1180 H   0  0  0  0  0  0  0  0  0  0  0  0
   -0.7360    3.6680   -1.4250 N   0  0  0  0  0  0  0  0  0  0  0  0
   -1.1560    2.7390   -2.4100 C   0  0  0  0  0  0  0  0  0  0  0  0
   -2.4170    2.6810   -2.7010 N   0  0  0  0  0  0  0  0  0  0  0  0
   -0.1900    1.9250   -3.0230 N   0  0  0  0  0  0  0  0  0  0  0  0
   -0.5390    0.8140   -3.8490 C   0  0  0  0  0  0  0  0  0  0  0  0
   -1.1380   -0.3860   -3.1810 C   0  0  0  0  0  0  0  0  0  0  0  0
   -0.3180   -1.0630   -2.1720 C   0  0  0  0  0  0  0  0  0  0  0  0
    0.0470   -0.3370   -0.9090 C   0  0  2  0  0  0  0  0  0  0  0  0
    0.9100   -1.3130   -0.2100 N   0  0  0  0  0  0  0  0  0  0  0  0
   -1.0830   -0.0770   -0.0340 C   0  0  0  0  0  0  0  0  0  0  0  0
   -2.1140    0.6110   -0.3370 O   0  0  0  0  0  0  0  0  0  0  0  0
   -1.0750    3.5140   -0.4400 H   0  0  0  0  0  0  0  0  0  0  0  0
   -0.1280    4.4720   -1.6210 H   0  0  0  0  0  0  0  0  0  0  0  0
   -3.1100    3.2950   -2.2300 H   0  0  0  0  0  0  0  0  0  0  0  0
    0.8210    2.1500   -2.8650 H   0  0  0  0  0  0  0  0  0  0  0  0
   -1.2580    1.2460   -4.6200 H   0  0  0  0  0  0  0  0  0  0  0  0
    0.3320    0.5050   -4.4960 H   0  0  0  0  0  0  0  0  0  0  0  0
   -1.2680   -1.1410   -4.0180 H   0  0  0  0  0  0  0  0  0  0  0  0
   -2.2000   -0.2070   -2.8680 H   0  0  0  0  0  0  0  0  0  0  0  0
   -0.7870   -2.0220   -1.8920 H   0  0  0  0  0  0  0  0  0  0  0  0
    0.6590   -1.3510   -2.6600 H   0  0  0  0  0  0  0  0  0  0  0  0
    0.6520    0.5570   -1.0870 H   0  0  0  0  0  0  0  0  0  0  0  0
    0.4570   -2.1330    0.2110 H   0  0  0  0  0  0  0  0  0  0  0  0
   -4.2720   -5.4250   -1.0780 O   0  0  0  0  0  0  0  0  0  0  0  0
   -3.8960   -4.4820   -0.1280 C   0  0  0  0  0  0  0  0  0  0  0  0
   -2.5830   -4.4550    0.3190 C   0  0  0  0  0  0  0  0  0  0  0  0
   -2.2590   -3.5020    1.2600 C   0  0  0  0  0  0  0  0  0  0  0  0
   -3.2050   -2.6110    1.7370 C   0  0  0  0  0  0  0  0  0  0  0  0
   -2.7790   -1.6260    2.7410 C   0  0  0  0  0  0  0  0  0  0  0  0
   -2.2810   -0.3450    2.1510 C   0  0  2  0  0  0  0  0  0  0  0  0
   -1.1260   -0.5950    1.2850 N   0  0  0  0  0  0  0  0  0  0  0  0
   -1.9010    0.5560    3.2580 C   0  0  0  0  0  0  0  0  0  0  0  0
   -2.7790    0.8810    4.1290 O   0  0  0  0  0  0  0  0  0  0  0  0
   -4.5110   -2.6390    1.2910 C   0  0  0  0  0  0  0  0  0  0  0  0
   -4.8440   -3.5900    0.3490 C   0  0  0  0  0  0  0  0  0  0  0  0
   -0.6540    1.0940    3.4450 O   0  0  0  0  0  0  0  0  0  0  0  0
   -3.7850   -6.3140   -1.0530 H   0  0  0  0  0  0  0  0  0  0  0  0
   -1.8780   -5.1720   -0.0830 H   0  0  0  0  0  0  0  0  0  0  0  0
   -1.2180   -3.4800    1.6150 H   0  0  0  0  0  0  0  0  0  0  0  0
   -3.6590   -1.3870    3.3740 H   0  0  0  0  0  0  0  0  0  0  0  0
   -1.9790   -2.0110    3.4230 H   0  0  0  0  0  0  0  0  0  0  0  0
   -3.0780    0.1980    1.5870 H   0  0  0  0  0  0  0  0  0  0  0  0
   -0.3780   -1.1660    1.7300 H   0  0  0  0  0  0  0  0  0  0  0  0
   -5.2480   -1.9410    1.6670 H   0  0  0  0  0  0  0  0  0  0  0  0
   -5.8800   -3.6010    0.0040 H   0  0  0  0  0  0  0  0  0  0  0  0
  1 12  1  0  0  0  0
  1  2  1  0  0  0  0
  2 14  1  6  0  0  0
  2  3  1  0  0  0  0
  3 16  1  0  0  0  0
  3 15  1  0  0  0  0
  3  4  1  0  0  0  0
  4  5  1  0  0  0  0
  5 17  1  0  0  0  0
  5  6  2  0  0  0  0
  6 18  1  0  0  0  0
  7  6  1  0  0  0  0
  7 19  1  0  0  0  0
  8  7  2  0  0  0  0
  9  4  2  0  0  0  0
  9  8  1  0  0  0  0
 10  2  1  0  0  0  0
 11 10  2  0  0  0  0
 13  1  1  0  0  0  0
 20  8  1  0  0  0  0
 21  9  1  0  0  0  0
 22 33  1  0  0  0  0
 23 22  1  0  0  0  0
 24 23  2  0  0  0  0
 24 35  1  0  0  0  0
 25 36  1  0  0  0  0
 25 23  1  0  0  0  0
 26 27  1  0  0  0  0
 26 25  1  0  0  0  0
 27 40  1  0  0  0  0
 27 28  1  0  0  0  0
 28 41  1  0  0  0  0
 28 29  1  0  0  0  0
 29 43  1  6  0  0  0
 29 30  1  0  0  0  0
 29 31  1  0  0  0  0
 30 10  1  0  0  0  0
 30 44  1  0  0  0  0
 31 52  1  0  0  0  0
 32 31  2  0  0  0  0
 34 22  1  0  0  0  0
 37 26  1  0  0  0  0
 38 26  1  0  0  0  0
 39 27  1  0  0  0  0
 42 28  1  0  0  0  0
 45 58  1  0  0  0  0
 45 46  1  0  0  0  0
 46 47  2  0  0  0  0
 46 56  1  0  0  0  0
 47 48  1  0  0  0  0
 48 60  1  0  0  0  0
 48 49  2  0  0  0  0
 49 50  1  0  0  0  0
 50 61  1  0  0  0  0
 50 62  1  0  0  0  0
 51 63  1  6  0  0  0
 51 50  1  0  0  0  0
 51 53  1  0  0  0  0
 52 64  1  0  0  0  0
 52 51  1  0  0  0  0
 53 57  2  0  0  0  0
 53 54  1  0  0  0  0
 55 65  1  0  0  0  0
 55 49  1  0  0  0  0
 56 55  2  0  0  0  0
 59 47  1  0  0  0  0
 66 56  1  0  0  0  0
M  END
$$$$
