FSA.pdb
 OpenBabel07022419013D

 43 43  0  0  1  0  0  0  0  0999 V2000
   -0.1340   -4.4590    0.3950 N   0  0  0  0  0  0  0  0  0  0  0  0
    0.6810   -3.3200    0.7820 C   0  0  1  0  0  0  0  0  0  0  0  0
    1.3920   -2.7420   -0.3920 C   0  0  0  0  0  0  0  0  0  0  0  0
    0.5260   -2.2690   -1.4630 C   0  0  0  0  0  0  0  0  0  0  0  0
    0.0640   -0.9780   -1.4590 C   0  0  0  0  0  0  0  0  0  0  0  0
   -0.7570   -0.5470   -2.4870 C   0  0  0  0  0  0  0  0  0  0  0  0
   -1.1300   -1.3780   -3.5230 C   0  0  0  0  0  0  0  0  0  0  0  0
   -0.6670   -2.6770   -3.5300 C   0  0  0  0  0  0  0  0  0  0  0  0
    0.1620   -3.1010   -2.4860 C   0  0  0  0  0  0  0  0  0  0  0  0
   -0.0410   -2.3730    1.6360 C   0  0  0  0  0  0  0  0  0  0  0  0
   -1.2600   -2.6010    1.8490 O   0  0  0  0  0  0  0  0  0  0  0  0
    0.4290   -5.3170    0.2450 H   0  0  0  0  0  0  0  0  0  0  0  0
   -0.9220   -4.5960    1.0640 H   0  0  0  0  0  0  0  0  0  0  0  0
    1.4900   -3.7710    1.4350 H   0  0  0  0  0  0  0  0  0  0  0  0
    2.0670   -1.9000   -0.1080 H   0  0  0  0  0  0  0  0  0  0  0  0
    2.1030   -3.5420   -0.7560 H   0  0  0  0  0  0  0  0  0  0  0  0
    0.3310   -0.2750   -0.6520 H   0  0  0  0  0  0  0  0  0  0  0  0
   -1.1200    0.4910   -2.4710 H   0  0  0  0  0  0  0  0  0  0  0  0
   -1.7750   -0.9850   -4.3010 H   0  0  0  0  0  0  0  0  0  0  0  0
   -0.9580   -3.3240   -4.3380 H   0  0  0  0  0  0  0  0  0  0  0  0
    0.4850   -4.1390   -2.5640 H   0  0  0  0  0  0  0  0  0  0  0  0
    1.3010   -0.4410    4.8590 O   0  0  0  0  0  0  0  0  0  0  0  0
   -0.0220   -0.6910    4.5590 C   0  0  0  0  0  0  0  0  0  0  0  0
   -0.3070   -0.3910    3.0680 C   0  0  2  0  0  0  0  0  0  0  0  0
    0.5250   -1.2260    2.2420 N   0  0  0  0  0  0  0  0  0  0  0  0
   -0.1750    1.0440    2.8050 C   0  0  0  0  0  0  0  0  0  0  0  0
   -0.8570    1.8690    3.5020 O   0  0  0  0  0  0  0  0  0  0  0  0
    1.4220   -0.0230    5.7620 H   0  0  0  0  0  0  0  0  0  0  0  0
   -0.2710   -1.7490    4.7000 H   0  0  0  0  0  0  0  0  0  0  0  0
   -0.7390   -0.0640    5.1170 H   0  0  0  0  0  0  0  0  0  0  0  0
   -1.3960   -0.6860    2.9800 H   0  0  0  0  0  0  0  0  0  0  0  0
    1.5260   -1.0090    2.0780 H   0  0  0  0  0  0  0  0  0  0  0  0
    2.2280    3.4550    1.7600 C   0  0  0  0  0  0  0  0  0  0  0  0
    0.8050    3.0020    1.5750 C   0  0  2  0  0  0  0  0  0  0  0  0
    0.6820    1.5670    1.8070 N   0  0  0  0  0  0  0  0  0  0  0  0
    0.3820    3.3220    0.1970 C   0  0  0  0  0  0  0  0  0  0  0  0
   -0.0150    2.4020   -0.5490 O   0  0  0  0  0  0  0  0  0  0  0  0
    0.4010    4.6060   -0.3240 O   0  0  0  0  0  0  0  0  0  0  0  0
    2.2160    4.5200    2.0530 H   0  0  0  0  0  0  0  0  0  0  0  0
    2.7940    3.4230    0.7870 H   0  0  0  0  0  0  0  0  0  0  0  0
    2.7950    2.8460    2.4820 H   0  0  0  0  0  0  0  0  0  0  0  0
    0.1860    3.5470    2.3300 H   0  0  0  0  0  0  0  0  0  0  0  0
    1.2290    0.8870    1.2380 H   0  0  0  0  0  0  0  0  0  0  0  0
  1  2  1  0  0  0  0
  1 13  1  0  0  0  0
  2 14  1  1  0  0  0
  2 10  1  0  0  0  0
  3 15  1  0  0  0  0
  3  2  1  0  0  0  0
  4  5  1  0  0  0  0
  4  3  1  0  0  0  0
  5 17  1  0  0  0  0
  6 18  1  0  0  0  0
  6  5  2  0  0  0  0
  7  6  1  0  0  0  0
  8  7  2  0  0  0  0
  8  9  1  0  0  0  0
  9  4  2  0  0  0  0
 10 11  2  0  0  0  0
 10 25  1  0  0  0  0
 12  1  1  0  0  0  0
 16  3  1  0  0  0  0
 19  7  1  0  0  0  0
 20  8  1  0  0  0  0
 21  9  1  0  0  0  0
 22 28  1  0  0  0  0
 23 29  1  0  0  0  0
 23 22  1  0  0  0  0
 23 30  1  0  0  0  0
 24 31  1  6  0  0  0
 24 23  1  0  0  0  0
 25 24  1  0  0  0  0
 26 24  1  0  0  0  0
 26 27  2  0  0  0  0
 32 25  1  0  0  0  0
 33 39  1  0  0  0  0
 33 41  1  0  0  0  0
 34 33  1  0  0  0  0
 34 35  1  0  0  0  0
 34 42  1  1  0  0  0
 35 26  1  0  0  0  0
 36 34  1  0  0  0  0
 37 36  2  0  0  0  0
 38 36  1  0  0  0  0
 40 33  1  0  0  0  0
 43 35  1  0  0  0  0
M  END
$$$$
