FSC.pdb
 OpenBabel07022419013D

 44 44  0  0  1  0  0  0  0  0999 V2000
    0.3130   -0.8940   -0.6750 N   0  0  0  0  0  0  0  0  0  0  0  0
    0.2680   -2.1030    0.0950 C   0  0  1  0  0  0  0  0  0  0  0  0
    1.0530   -3.1700   -0.6190 C   0  0  0  0  0  0  0  0  0  0  0  0
    0.4420   -3.3910   -1.9510 C   0  0  0  0  0  0  0  0  0  0  0  0
    0.8600   -2.6870   -3.0600 C   0  0  0  0  0  0  0  0  0  0  0  0
    0.2760   -2.9080   -4.2960 C   0  0  0  0  0  0  0  0  0  0  0  0
   -0.7320   -3.8310   -4.4470 C   0  0  0  0  0  0  0  0  0  0  0  0
   -1.1670   -4.5460   -3.3550 C   0  0  0  0  0  0  0  0  0  0  0  0
   -0.5840   -4.3240   -2.1260 C   0  0  0  0  0  0  0  0  0  0  0  0
    0.7430   -1.8450    1.4530 C   0  0  0  0  0  0  0  0  0  0  0  0
    0.7750   -2.7400    2.3540 O   0  0  0  0  0  0  0  0  0  0  0  0
   -0.1730   -1.0120   -1.6130 H   0  0  0  0  0  0  0  0  0  0  0  0
   -0.2380   -0.1170   -0.2230 H   0  0  0  0  0  0  0  0  0  0  0  0
   -0.7900   -2.4440    0.1340 H   0  0  0  0  0  0  0  0  0  0  0  0
    0.9700   -4.1310   -0.0510 H   0  0  0  0  0  0  0  0  0  0  0  0
    2.1140   -2.8460   -0.7000 H   0  0  0  0  0  0  0  0  0  0  0  0
    1.6630   -1.9380   -2.9920 H   0  0  0  0  0  0  0  0  0  0  0  0
    0.6010   -2.3540   -5.1840 H   0  0  0  0  0  0  0  0  0  0  0  0
   -1.1730   -3.9800   -5.4440 H   0  0  0  0  0  0  0  0  0  0  0  0
   -1.9490   -5.2760   -3.4210 H   0  0  0  0  0  0  0  0  0  0  0  0
   -0.8880   -4.8600   -1.2330 H   0  0  0  0  0  0  0  0  0  0  0  0
    3.0470    1.3580    2.1790 O   0  0  0  0  0  0  0  0  0  0  0  0
    3.1070    0.2170    2.9950 C   0  0  0  0  0  0  0  0  0  0  0  0
    1.6710   -0.2600    3.1570 C   0  0  2  0  0  0  0  0  0  0  0  0
    1.1930   -0.5540    1.8160 N   0  0  0  0  0  0  0  0  0  0  0  0
    0.8550    0.8510    3.7170 C   0  0  0  0  0  0  0  0  0  0  0  0
    1.0720    1.2950    4.8750 O   0  0  0  0  0  0  0  0  0  0  0  0
    3.6690    2.0580    2.4750 H   0  0  0  0  0  0  0  0  0  0  0  0
    3.5760    0.4490    3.9660 H   0  0  0  0  0  0  0  0  0  0  0  0
    3.6550   -0.6080    2.4910 H   0  0  0  0  0  0  0  0  0  0  0  0
    1.6230   -1.1670    3.7940 H   0  0  0  0  0  0  0  0  0  0  0  0
    1.2060    0.2430    1.1450 H   0  0  0  0  0  0  0  0  0  0  0  0
   -0.2030    1.4680    2.9920 N   0  0  0  0  0  0  0  0  0  0  0  0
   -0.9860    2.5640    3.5850 C   0  0  1  0  0  0  0  0  0  0  0  0
   -0.8370    3.7570    2.6580 C   0  0  0  0  0  0  0  0  0  0  0  0
    0.8890    4.2660    2.4830 S   0  0  0  0  0  0  0  0  0  0  0  0
   -2.4200    2.1720    3.5470 C   0  0  0  0  0  0  0  0  0  0  0  0
   -3.2970    2.9520    4.0000 O   0  0  0  0  0  0  0  0  0  0  0  0
   -2.8220    0.9560    3.0180 O   0  0  0  0  0  0  0  0  0  0  0  0
   -0.4060    1.1210    2.0330 H   0  0  0  0  0  0  0  0  0  0  0  0
   -0.6310    2.7900    4.5910 H   0  0  0  0  0  0  0  0  0  0  0  0
   -1.1680    3.4210    1.6320 H   0  0  0  0  0  0  0  0  0  0  0  0
   -1.5100    4.5830    2.9250 H   0  0  0  0  0  0  0  0  0  0  0  0
    0.8830    5.5460    1.8720 H   0  0  0  0  0  0  0  0  0  0  0  0
  1 13  1  0  0  0  0
  1  2  1  0  0  0  0
  2 14  1  1  0  0  0
  2 10  1  0  0  0  0
  3 15  1  0  0  0  0
  3  2  1  0  0  0  0
  4  3  1  0  0  0  0
  5 17  1  0  0  0  0
  5  4  2  0  0  0  0
  6  5  1  0  0  0  0
  7  6  2  0  0  0  0
  7  8  1  0  0  0  0
  8  9  2  0  0  0  0
  9  4  1  0  0  0  0
  9 21  1  0  0  0  0
 10 25  1  0  0  0  0
 10 11  2  0  0  0  0
 12  1  1  0  0  0  0
 16  3  1  0  0  0  0
 18  6  1  0  0  0  0
 19  7  1  0  0  0  0
 20  8  1  0  0  0  0
 22 28  1  0  0  0  0
 22 23  1  0  0  0  0
 23 24  1  0  0  0  0
 23 29  1  0  0  0  0
 24 26  1  0  0  0  0
 24 31  1  1  0  0  0
 25 24  1  0  0  0  0
 26 27  2  0  0  0  0
 30 23  1  0  0  0  0
 32 25  1  0  0  0  0
 33 34  1  0  0  0  0
 33 26  1  0  0  0  0
 34 41  1  1  0  0  0
 35 43  1  0  0  0  0
 35 34  1  0  0  0  0
 36 35  1  0  0  0  0
 37 34  1  0  0  0  0
 37 38  1  0  0  0  0
 39 37  2  0  0  0  0
 40 33  1  0  0  0  0
 42 35  1  0  0  0  0
 44 36  1  0  0  0  0
M  END
$$$$
