FSD.pdb
 OpenBabel07022419013D

 46 46  0  0  1  0  0  0  0  0999 V2000
    4.0840   -2.4000    3.2080 N   0  0  0  0  0  0  0  0  0  0  0  0
    3.4790   -1.2640    2.4760 C   0  0  1  0  0  0  0  0  0  0  0  0
    4.1620   -1.2880    1.1410 C   0  0  0  0  0  0  0  0  0  0  0  0
    3.7350   -0.2290    0.2360 C   0  0  0  0  0  0  0  0  0  0  0  0
    2.7360   -0.4340   -0.6810 C   0  0  0  0  0  0  0  0  0  0  0  0
    2.3440    0.5790   -1.5580 C   0  0  0  0  0  0  0  0  0  0  0  0
    2.9770    1.8010   -1.4920 C   0  0  0  0  0  0  0  0  0  0  0  0
    3.9880    2.0090   -0.5630 C   0  0  0  0  0  0  0  0  0  0  0  0
    4.3810    1.0160    0.3050 C   0  0  0  0  0  0  0  0  0  0  0  0
    2.0320   -1.4110    2.4130 C   0  0  0  0  0  0  0  0  0  0  0  0
    1.5550   -2.5390    2.7790 O   0  0  0  0  0  0  0  0  0  0  0  0
    4.2530   -3.1960    2.5610 H   0  0  0  0  0  0  0  0  0  0  0  0
    3.5490   -2.6330    4.0500 H   0  0  0  0  0  0  0  0  0  0  0  0
    3.7890   -0.3620    3.0710 H   0  0  0  0  0  0  0  0  0  0  0  0
    5.2790   -1.2250    1.2870 H   0  0  0  0  0  0  0  0  0  0  0  0
    3.9690   -2.3050    0.7180 H   0  0  0  0  0  0  0  0  0  0  0  0
    2.2490   -1.3960   -0.7210 H   0  0  0  0  0  0  0  0  0  0  0  0
    1.5440    0.3630   -2.2690 H   0  0  0  0  0  0  0  0  0  0  0  0
    2.6820    2.5940   -2.1660 H   0  0  0  0  0  0  0  0  0  0  0  0
    4.4880    2.9640   -0.5050 H   0  0  0  0  0  0  0  0  0  0  0  0
    5.1700    1.1400    1.0480 H   0  0  0  0  0  0  0  0  0  0  0  0
   -0.5020   -0.2420    4.3380 O   0  0  0  0  0  0  0  0  0  0  0  0
   -1.0250    0.0890    3.1060 C   0  0  0  0  0  0  0  0  0  0  0  0
   -0.3480   -0.7350    2.0020 C   0  0  2  0  0  0  0  0  0  0  0  0
    1.0710   -0.4650    2.0020 N   0  0  0  0  0  0  0  0  0  0  0  0
   -1.0500   -0.4290    0.7640 C   0  0  0  0  0  0  0  0  0  0  0  0
   -0.5140    0.0550   -0.2600 O   0  0  0  0  0  0  0  0  0  0  0  0
    0.1500    0.4050    4.6960 H   0  0  0  0  0  0  0  0  0  0  0  0
   -2.1050   -0.1080    3.0580 H   0  0  0  0  0  0  0  0  0  0  0  0
   -0.8520    1.1740    2.9040 H   0  0  0  0  0  0  0  0  0  0  0  0
   -0.4790   -1.7950    2.3320 H   0  0  0  0  0  0  0  0  0  0  0  0
    1.4020    0.4590    1.6960 H   0  0  0  0  0  0  0  0  0  0  0  0
   -2.4750   -0.6840    0.6500 N   0  0  0  0  0  0  0  0  0  0  0  0
   -3.1620   -0.3780   -0.5760 C   0  0  1  0  0  0  0  0  0  0  0  0
   -3.9270   -1.5360   -1.1300 C   0  0  0  0  0  0  0  0  0  0  0  0
   -4.9560   -1.9700   -0.1780 C   0  0  0  0  0  0  0  0  0  0  0  0
   -5.1280   -1.3620    0.8980 O   0  0  0  0  0  0  0  0  0  0  0  0
   -4.1630    0.7270   -0.3760 C   0  0  0  0  0  0  0  0  0  0  0  0
   -4.8180    1.0740   -1.3900 O   0  0  0  0  0  0  0  0  0  0  0  0
   -5.7460   -3.0580   -0.4630 O   0  0  0  0  0  0  0  0  0  0  0  0
   -4.3890    1.3540    0.8180 O   0  0  0  0  0  0  0  0  0  0  0  0
   -2.9460   -1.0910    1.4910 H   0  0  0  0  0  0  0  0  0  0  0  0
   -2.4380    0.0410   -1.3140 H   0  0  0  0  0  0  0  0  0  0  0  0
   -3.2740   -2.3680   -1.4700 H   0  0  0  0  0  0  0  0  0  0  0  0
   -4.4210   -1.1740   -2.0810 H   0  0  0  0  0  0  0  0  0  0  0  0
   -6.4450   -3.4270    0.1860 H   0  0  0  0  0  0  0  0  0  0  0  0
  1 13  1  0  0  0  0
  2 14  1  1  0  0  0
  2  1  1  0  0  0  0
  3 15  1  0  0  0  0
  3  2  1  0  0  0  0
  4  9  1  0  0  0  0
  4  3  1  0  0  0  0
  5  4  2  0  0  0  0
  6  7  2  0  0  0  0
  6  5  1  0  0  0  0
  7  8  1  0  0  0  0
  8 20  1  0  0  0  0
  8  9  2  0  0  0  0
  9 21  1  0  0  0  0
 10  2  1  0  0  0  0
 10 11  2  0  0  0  0
 12  1  1  0  0  0  0
 16  3  1  0  0  0  0
 17  5  1  0  0  0  0
 18  6  1  0  0  0  0
 19  7  1  0  0  0  0
 22 28  1  0  0  0  0
 23 22  1  0  0  0  0
 24 25  1  0  0  0  0
 24 31  1  1  0  0  0
 24 23  1  0  0  0  0
 25 10  1  0  0  0  0
 26 24  1  0  0  0  0
 27 26  2  0  0  0  0
 29 23  1  0  0  0  0
 30 23  1  0  0  0  0
 32 25  1  0  0  0  0
 33 26  1  0  0  0  0
 33 42  1  0  0  0  0
 34 43  1  6  0  0  0
 34 38  1  0  0  0  0
 34 33  1  0  0  0  0
 35 34  1  0  0  0  0
 35 36  1  0  0  0  0
 36 37  2  0  0  0  0
 38 41  1  0  0  0  0
 39 38  2  0  0  0  0
 40 36  1  0  0  0  0
 40 46  1  0  0  0  0
 44 35  1  0  0  0  0
 45 35  1  0  0  0  0
M  END
$$$$
