FSF.pdb
 OpenBabel07022419013D

 53 54  0  0  1  0  0  0  0  0999 V2000
    3.1370    3.2700   -0.5600 N   0  0  0  0  0  0  0  0  0  0  0  0
    3.1760    1.9280    0.0190 C   0  0  1  0  0  0  0  0  0  0  0  0
    4.1800    1.8330    1.1200 C   0  0  0  0  0  0  0  0  0  0  0  0
    4.2800    0.4680    1.6900 C   0  0  0  0  0  0  0  0  0  0  0  0
    5.0800   -0.4620    1.0270 C   0  0  0  0  0  0  0  0  0  0  0  0
    5.2550   -1.7480    1.4600 C   0  0  0  0  0  0  0  0  0  0  0  0
    4.5910   -2.1300    2.6280 C   0  0  0  0  0  0  0  0  0  0  0  0
    3.7930   -1.2540    3.3220 C   0  0  0  0  0  0  0  0  0  0  0  0
    3.6580    0.0320    2.8330 C   0  0  0  0  0  0  0  0  0  0  0  0
    1.7870    1.5890    0.3870 C   0  0  0  0  0  0  0  0  0  0  0  0
    1.5480    0.8120    1.3040 O   0  0  0  0  0  0  0  0  0  0  0  0
    2.6640    3.2610   -1.4960 H   0  0  0  0  0  0  0  0  0  0  0  0
    4.1480    3.5730   -0.7730 H   0  0  0  0  0  0  0  0  0  0  0  0
    3.4860    1.2410   -0.7980 H   0  0  0  0  0  0  0  0  0  0  0  0
    5.1720    2.1170    0.7320 H   0  0  0  0  0  0  0  0  0  0  0  0
    3.9740    2.5750    1.9370 H   0  0  0  0  0  0  0  0  0  0  0  0
    5.5970   -0.1400    0.1170 H   0  0  0  0  0  0  0  0  0  0  0  0
    5.8880   -2.4700    0.9280 H   0  0  0  0  0  0  0  0  0  0  0  0
    4.7230   -3.1360    2.9580 H   0  0  0  0  0  0  0  0  0  0  0  0
    3.3000   -1.5950    4.2140 H   0  0  0  0  0  0  0  0  0  0  0  0
    3.0460    0.7150    3.4090 H   0  0  0  0  0  0  0  0  0  0  0  0
   -1.3790    3.9840    0.3360 O   0  0  0  0  0  0  0  0  0  0  0  0
   -1.6900    2.7290   -0.2050 C   0  0  0  0  0  0  0  0  0  0  0  0
   -0.6700    1.7650    0.1770 C   0  0  2  0  0  0  0  0  0  0  0  0
    0.6520    2.1410   -0.3010 N   0  0  0  0  0  0  0  0  0  0  0  0
   -0.9000    0.3450   -0.1390 C   0  0  0  0  0  0  0  0  0  0  0  0
    0.0470   -0.3350   -0.6030 O   0  0  0  0  0  0  0  0  0  0  0  0
   -0.5360    3.9930    0.8380 H   0  0  0  0  0  0  0  0  0  0  0  0
   -2.7190    2.5280    0.1020 H   0  0  0  0  0  0  0  0  0  0  0  0
   -1.6870    2.9010   -1.3070 H   0  0  0  0  0  0  0  0  0  0  0  0
   -0.5490    1.7400    1.3250 H   0  0  0  0  0  0  0  0  0  0  0  0
    0.8030    2.7660   -1.0960 H   0  0  0  0  0  0  0  0  0  0  0  0
   -2.1600   -0.2550    0.0730 N   0  0  0  0  0  0  0  0  0  0  0  0
   -2.4310   -1.6630   -0.2000 C   0  0  1  0  0  0  0  0  0  0  0  0
   -3.3930   -2.1930    0.8140 C   0  0  0  0  0  0  0  0  0  0  0  0
   -3.7360   -3.6120    0.6400 C   0  0  0  0  0  0  0  0  0  0  0  0
   -2.9160   -4.5790    1.2580 C   0  0  0  0  0  0  0  0  0  0  0  0
   -3.2110   -5.9170    1.1330 C   0  0  0  0  0  0  0  0  0  0  0  0
   -4.3080   -6.3210    0.4060 C   0  0  0  0  0  0  0  0  0  0  0  0
   -5.1190   -5.4020   -0.2040 C   0  0  0  0  0  0  0  0  0  0  0  0
   -4.8260   -4.0510   -0.0810 C   0  0  0  0  0  0  0  0  0  0  0  0
   -3.0730   -1.7390   -1.5610 C   0  0  0  0  0  0  0  0  0  0  0  0
   -3.3510   -2.8420   -2.0720 O   0  0  0  0  0  0  0  0  0  0  0  0
   -3.3650   -0.5870   -2.2720 O   0  0  0  0  0  0  0  0  0  0  0  0
   -2.9130    0.3690    0.4490 H   0  0  0  0  0  0  0  0  0  0  0  0
   -1.4880   -2.2380   -0.2080 H   0  0  0  0  0  0  0  0  0  0  0  0
   -3.1240   -1.9290    1.8610 H   0  0  0  0  0  0  0  0  0  0  0  0
   -4.3680   -1.6320    0.6230 H   0  0  0  0  0  0  0  0  0  0  0  0
   -2.0720   -4.2220    1.8220 H   0  0  0  0  0  0  0  0  0  0  0  0
   -2.5500   -6.6420    1.6270 H   0  0  0  0  0  0  0  0  0  0  0  0
   -4.5120   -7.3970    0.3230 H   0  0  0  0  0  0  0  0  0  0  0  0
   -5.9840   -5.7500   -0.7730 H   0  0  0  0  0  0  0  0  0  0  0  0
   -5.4960   -3.3240   -0.5670 H   0  0  0  0  0  0  0  0  0  0  0  0
  1  2  1  0  0  0  0
  2 14  1  6  0  0  0
  2 10  1  0  0  0  0
  2  3  1  0  0  0  0
  3  4  1  0  0  0  0
  3 16  1  0  0  0  0
  4  9  1  0  0  0  0
  5  6  1  0  0  0  0
  5  4  2  0  0  0  0
  6  7  2  0  0  0  0
  7 19  1  0  0  0  0
  7  8  1  0  0  0  0
  8 20  1  0  0  0  0
  9  8  2  0  0  0  0
  9 21  1  0  0  0  0
 10 11  2  0  0  0  0
 12  1  1  0  0  0  0
 13  1  1  0  0  0  0
 15  3  1  0  0  0  0
 17  5  1  0  0  0  0
 18  6  1  0  0  0  0
 22 28  1  0  0  0  0
 23 29  1  0  0  0  0
 23 24  1  0  0  0  0
 23 22  1  0  0  0  0
 24 31  1  1  0  0  0
 25 24  1  0  0  0  0
 25 10  1  0  0  0  0
 26 33  1  0  0  0  0
 26 24  1  0  0  0  0
 27 26  2  0  0  0  0
 30 23  1  0  0  0  0
 32 25  1  0  0  0  0
 33 45  1  0  0  0  0
 34 46  1  1  0  0  0
 34 33  1  0  0  0  0
 34 35  1  0  0  0  0
 35 47  1  0  0  0  0
 36 35  1  0  0  0  0
 36 37  1  0  0  0  0
 37 49  1  0  0  0  0
 38 37  2  0  0  0  0
 38 50  1  0  0  0  0
 39 38  1  0  0  0  0
 40 41  1  0  0  0  0
 40 39  2  0  0  0  0
 41 36  2  0  0  0  0
 42 34  1  0  0  0  0
 43 42  1  0  0  0  0
 44 42  2  0  0  0  0
 48 35  1  0  0  0  0
 51 39  1  0  0  0  0
 52 40  1  0  0  0  0
 53 41  1  0  0  0  0
M  END
$$$$
