FSK.pdb
 OpenBabel07022419013D

 54 54  0  0  1  0  0  0  0  0999 V2000
    1.2360   -2.2480    3.1760 N   0  0  0  0  0  0  0  0  0  0  0  0
    2.0840   -1.0740    3.0280 C   0  0  1  0  0  0  0  0  0  0  0  0
    3.5110   -1.5920    3.2420 C   0  0  0  0  0  0  0  0  0  0  0  0
    4.5170   -0.5160    3.1230 C   0  0  0  0  0  0  0  0  0  0  0  0
    5.0950   -0.2450    1.9020 C   0  0  0  0  0  0  0  0  0  0  0  0
    6.0380    0.7600    1.7600 C   0  0  0  0  0  0  0  0  0  0  0  0
    6.3980    1.4990    2.8790 C   0  0  0  0  0  0  0  0  0  0  0  0
    5.8110    1.2210    4.1090 C   0  0  0  0  0  0  0  0  0  0  0  0
    4.8750    0.2250    4.2500 C   0  0  0  0  0  0  0  0  0  0  0  0
    1.9070   -0.4440    1.7070 C   0  0  0  0  0  0  0  0  0  0  0  0
    2.5010    0.6090    1.3700 O   0  0  0  0  0  0  0  0  0  0  0  0
    1.5290   -2.8550    3.9480 H   0  0  0  0  0  0  0  0  0  0  0  0
    0.2280   -2.0200    3.1440 H   0  0  0  0  0  0  0  0  0  0  0  0
    1.8110   -0.3800    3.8530 H   0  0  0  0  0  0  0  0  0  0  0  0
    3.6760   -2.4040    2.5000 H   0  0  0  0  0  0  0  0  0  0  0  0
    3.5580   -2.0460    4.2350 H   0  0  0  0  0  0  0  0  0  0  0  0
    4.8050   -0.8300    1.0420 H   0  0  0  0  0  0  0  0  0  0  0  0
    6.4790    0.9540    0.7850 H   0  0  0  0  0  0  0  0  0  0  0  0
    7.1220    2.2800    2.8060 H   0  0  0  0  0  0  0  0  0  0  0  0
    6.1030    1.8060    4.9720 H   0  0  0  0  0  0  0  0  0  0  0  0
    4.4020   -0.0100    5.2070 H   0  0  0  0  0  0  0  0  0  0  0  0
    1.0940   -0.8300   -2.8320 O   0  0  0  0  0  0  0  0  0  0  0  0
    1.3200   -1.4490   -1.6060 C   0  0  0  0  0  0  0  0  0  0  0  0
    0.8080   -0.4870   -0.5320 C   0  0  2  0  0  0  0  0  0  0  0  0
    1.0140   -1.0710    0.7770 N   0  0  0  0  0  0  0  0  0  0  0  0
   -0.6410   -0.2580   -0.7840 C   0  0  0  0  0  0  0  0  0  0  0  0
   -1.0020    0.2540   -1.8720 O   0  0  0  0  0  0  0  0  0  0  0  0
    1.2180    0.1390   -2.7590 H   0  0  0  0  0  0  0  0  0  0  0  0
    0.6410   -2.3280   -1.5570 H   0  0  0  0  0  0  0  0  0  0  0  0
    2.3760   -1.7170   -1.4370 H   0  0  0  0  0  0  0  0  0  0  0  0
    1.3850    0.4440   -0.6690 H   0  0  0  0  0  0  0  0  0  0  0  0
    0.5130   -1.9410    1.0340 H   0  0  0  0  0  0  0  0  0  0  0  0
   -1.6510   -0.5930    0.1510 N   0  0  0  0  0  0  0  0  0  0  0  0
   -3.0400   -0.3400   -0.1690 C   0  0  1  0  0  0  0  0  0  0  0  0
   -3.7670   -1.6680   -0.3020 C   0  0  0  0  0  0  0  0  0  0  0  0
   -5.2090   -1.5520   -0.6310 C   0  0  0  0  0  0  0  0  0  0  0  0
   -5.4790   -0.8350   -1.9290 C   0  0  0  0  0  0  0  0  0  0  0  0
   -4.8410   -1.5340   -3.1070 C   0  0  0  0  0  0  0  0  0  0  0  0
   -5.1840   -0.7350   -4.2880 N   0  0  0  0  0  0  0  0  0  0  0  0
   -3.5880    0.5110    0.9050 C   0  0  0  0  0  0  0  0  0  0  0  0
   -4.7800    0.8720    0.8420 O   0  0  0  0  0  0  0  0  0  0  0  0
   -2.8440    0.9410    1.9970 O   0  0  0  0  0  0  0  0  0  0  0  0
   -1.3930   -1.0210    1.0700 H   0  0  0  0  0  0  0  0  0  0  0  0
   -3.0830    0.1250   -1.1600 H   0  0  0  0  0  0  0  0  0  0  0  0
   -3.2540   -2.2220   -1.1130 H   0  0  0  0  0  0  0  0  0  0  0  0
   -3.6690   -2.2670    0.6270 H   0  0  0  0  0  0  0  0  0  0  0  0
   -5.6010   -2.6050   -0.7440 H   0  0  0  0  0  0  0  0  0  0  0  0
   -5.7600   -1.1290    0.2090 H   0  0  0  0  0  0  0  0  0  0  0  0
   -5.0380    0.1760   -1.8780 H   0  0  0  0  0  0  0  0  0  0  0  0
   -6.5710   -0.7350   -2.0850 H   0  0  0  0  0  0  0  0  0  0  0  0
   -3.7520   -1.5270   -3.0220 H   0  0  0  0  0  0  0  0  0  0  0  0
   -5.2380   -2.5610   -3.2550 H   0  0  0  0  0  0  0  0  0  0  0  0
   -4.9960   -1.3490   -5.1110 H   0  0  0  0  0  0  0  0  0  0  0  0
   -4.4840    0.0390   -4.3290 H   0  0  0  0  0  0  0  0  0  0  0  0
  1 12  1  0  0  0  0
  2  1  1  0  0  0  0
  2  3  1  0  0  0  0
  2 14  1  1  0  0  0
  3 16  1  0  0  0  0
  4  3  1  0  0  0  0
  4  9  1  0  0  0  0
  5  4  2  0  0  0  0
  6  5  1  0  0  0  0
  6  7  2  0  0  0  0
  7  8  1  0  0  0  0
  8  9  2  0  0  0  0
  8 20  1  0  0  0  0
  9 21  1  0  0  0  0
 10  2  1  0  0  0  0
 11 10  2  0  0  0  0
 13  1  1  0  0  0  0
 15  3  1  0  0  0  0
 17  5  1  0  0  0  0
 18  6  1  0  0  0  0
 19  7  1  0  0  0  0
 22 28  1  0  0  0  0
 22 23  1  0  0  0  0
 23 29  1  0  0  0  0
 23 30  1  0  0  0  0
 23 24  1  0  0  0  0
 24 31  1  6  0  0  0
 24 25  1  0  0  0  0
 25 32  1  0  0  0  0
 25 10  1  0  0  0  0
 26 24  1  0  0  0  0
 26 33  1  0  0  0  0
 27 26  2  0  0  0  0
 33 43  1  0  0  0  0
 34 44  1  6  0  0  0
 34 33  1  0  0  0  0
 34 40  1  0  0  0  0
 35 34  1  0  0  0  0
 35 46  1  0  0  0  0
 36 35  1  0  0  0  0
 36 48  1  0  0  0  0
 37 49  1  0  0  0  0
 37 36  1  0  0  0  0
 38 51  1  0  0  0  0
 38 37  1  0  0  0  0
 39 38  1  0  0  0  0
 40 42  1  0  0  0  0
 41 40  2  0  0  0  0
 45 35  1  0  0  0  0
 47 36  1  0  0  0  0
 50 37  1  0  0  0  0
 52 38  1  0  0  0  0
 53 39  1  0  0  0  0
 54 39  1  0  0  0  0
M  END
$$$$
