FSL.pdb
 OpenBabel07022419013D

 52 52  0  0  1  0  0  0  0  0999 V2000
    2.1730   -2.4460   -0.3220 N   0  0  0  0  0  0  0  0  0  0  0  0
    2.6940   -1.5750    0.7390 C   0  0  1  0  0  0  0  0  0  0  0  0
    4.1220   -1.2820    0.3730 C   0  0  0  0  0  0  0  0  0  0  0  0
    4.8200   -0.4070    1.3350 C   0  0  0  0  0  0  0  0  0  0  0  0
    4.8380    0.9700    1.2280 C   0  0  0  0  0  0  0  0  0  0  0  0
    5.4960    1.7640    2.1380 C   0  0  0  0  0  0  0  0  0  0  0  0
    6.1680    1.1970    3.2000 C   0  0  0  0  0  0  0  0  0  0  0  0
    6.1450   -0.1760    3.2990 C   0  0  0  0  0  0  0  0  0  0  0  0
    5.4910   -0.9830    2.3960 C   0  0  0  0  0  0  0  0  0  0  0  0
    1.8450   -0.3920    0.8850 C   0  0  0  0  0  0  0  0  0  0  0  0
    2.1450    0.4620    1.7640 O   0  0  0  0  0  0  0  0  0  0  0  0
    2.1280   -1.9020   -1.2150 H   0  0  0  0  0  0  0  0  0  0  0  0
    1.2760   -2.8890   -0.0650 H   0  0  0  0  0  0  0  0  0  0  0  0
    2.7110   -2.2110    1.6600 H   0  0  0  0  0  0  0  0  0  0  0  0
    4.1740   -0.8910   -0.6630 H   0  0  0  0  0  0  0  0  0  0  0  0
    4.6540   -2.2610    0.3550 H   0  0  0  0  0  0  0  0  0  0  0  0
    4.3160    1.4470    0.3980 H   0  0  0  0  0  0  0  0  0  0  0  0
    5.4790    2.8490    2.0070 H   0  0  0  0  0  0  0  0  0  0  0  0
    6.7030    1.8070    3.9420 H   0  0  0  0  0  0  0  0  0  0  0  0
    6.6600   -0.6700    4.1180 H   0  0  0  0  0  0  0  0  0  0  0  0
    5.4880   -2.0620    2.4960 H   0  0  0  0  0  0  0  0  0  0  0  0
    1.2610    2.2980   -1.2430 O   0  0  0  0  0  0  0  0  0  0  0  0
   -0.0380    1.9140   -0.9930 C   0  0  0  0  0  0  0  0  0  0  0  0
   -0.1220    1.0340    0.2630 C   0  0  2  0  0  0  0  0  0  0  0  0
    0.6860   -0.1550    0.0760 N   0  0  0  0  0  0  0  0  0  0  0  0
   -1.5360    0.6930    0.5500 C   0  0  0  0  0  0  0  0  0  0  0  0
   -2.4090    1.5550    0.7560 O   0  0  0  0  0  0  0  0  0  0  0  0
    1.4500    3.2090   -0.9180 H   0  0  0  0  0  0  0  0  0  0  0  0
   -0.4600    1.3460   -1.8720 H   0  0  0  0  0  0  0  0  0  0  0  0
   -0.6740    2.8020   -0.8390 H   0  0  0  0  0  0  0  0  0  0  0  0
    0.3070    1.6390    1.0800 H   0  0  0  0  0  0  0  0  0  0  0  0
    0.4610   -0.8750   -0.6400 H   0  0  0  0  0  0  0  0  0  0  0  0
   -5.4790   -2.9730   -1.6230 C   0  0  0  0  0  0  0  0  0  0  0  0
   -5.1530   -2.3260   -0.2690 C   0  0  0  0  0  0  0  0  0  0  0  0
   -6.1620   -1.2480   -0.0390 C   0  0  0  0  0  0  0  0  0  0  0  0
   -3.7530   -1.8000   -0.3820 C   0  0  0  0  0  0  0  0  0  0  0  0
   -3.2540   -1.1240    0.8630 C   0  0  2  0  0  0  0  0  0  0  0  0
   -1.9030   -0.6780    0.5920 N   0  0  0  0  0  0  0  0  0  0  0  0
   -3.2640   -1.9720    2.0470 C   0  0  0  0  0  0  0  0  0  0  0  0
   -2.1880   -2.2040    2.6530 O   0  0  0  0  0  0  0  0  0  0  0  0
   -4.4090   -2.5580    2.5670 O   0  0  0  0  0  0  0  0  0  0  0  0
   -6.4880   -3.3780   -1.6530 H   0  0  0  0  0  0  0  0  0  0  0  0
   -5.3040   -2.1460   -2.3710 H   0  0  0  0  0  0  0  0  0  0  0  0
   -4.6840   -3.7110   -1.8330 H   0  0  0  0  0  0  0  0  0  0  0  0
   -5.2690   -3.1340    0.4720 H   0  0  0  0  0  0  0  0  0  0  0  0
   -6.5900   -1.3470    0.9790 H   0  0  0  0  0  0  0  0  0  0  0  0
   -5.6910   -0.2600   -0.2210 H   0  0  0  0  0  0  0  0  0  0  0  0
   -7.0140   -1.3130   -0.7520 H   0  0  0  0  0  0  0  0  0  0  0  0
   -3.0990   -2.6130   -0.6970 H   0  0  0  0  0  0  0  0  0  0  0  0
   -3.7520   -1.0350   -1.1950 H   0  0  0  0  0  0  0  0  0  0  0  0
   -3.8600   -0.2070    1.0320 H   0  0  0  0  0  0  0  0  0  0  0  0
   -1.1890   -1.4170    0.4230 H   0  0  0  0  0  0  0  0  0  0  0  0
  1 13  1  0  0  0  0
  1  2  1  0  0  0  0
  2 10  1  0  0  0  0
  2 14  1  1  0  0  0
  3  2  1  0  0  0  0
  3  4  1  0  0  0  0
  4  9  1  0  0  0  0
  5  4  2  0  0  0  0
  5  6  1  0  0  0  0
  6  7  2  0  0  0  0
  7  8  1  0  0  0  0
  7 19  1  0  0  0  0
  8 20  1  0  0  0  0
  9 21  1  0  0  0  0
  9  8  2  0  0  0  0
 10 11  2  0  0  0  0
 12  1  1  0  0  0  0
 15  3  1  0  0  0  0
 16  3  1  0  0  0  0
 17  5  1  0  0  0  0
 18  6  1  0  0  0  0
 22 23  1  0  0  0  0
 22 28  1  0  0  0  0
 23 30  1  0  0  0  0
 23 24  1  0  0  0  0
 24 26  1  0  0  0  0
 24 31  1  1  0  0  0
 25 24  1  0  0  0  0
 25 10  1  0  0  0  0
 26 38  1  0  0  0  0
 26 27  2  0  0  0  0
 29 23  1  0  0  0  0
 32 25  1  0  0  0  0
 33 34  1  0  0  0  0
 34 35  1  0  0  0  0
 34 45  1  0  0  0  0
 35 46  1  0  0  0  0
 36 34  1  0  0  0  0
 36 37  1  0  0  0  0
 37 51  1  1  0  0  0
 37 39  1  0  0  0  0
 38 37  1  0  0  0  0
 39 41  2  0  0  0  0
 39 40  1  0  0  0  0
 42 33  1  0  0  0  0
 43 33  1  0  0  0  0
 44 33  1  0  0  0  0
 47 35  1  0  0  0  0
 48 35  1  0  0  0  0
 49 36  1  0  0  0  0
 50 36  1  0  0  0  0
 52 38  1  0  0  0  0
M  END
$$$$
