FSM.pdb
 OpenBabel07022419013D

 50 50  0  0  1  0  0  0  0  0999 V2000
    3.5240   -3.0820    3.7260 N   0  0  0  0  0  0  0  0  0  0  0  0
    3.2810   -1.8590    2.9180 C   0  0  1  0  0  0  0  0  0  0  0  0
    3.8340   -2.1770    1.5600 C   0  0  0  0  0  0  0  0  0  0  0  0
    3.7380   -1.1240    0.5530 C   0  0  0  0  0  0  0  0  0  0  0  0
    2.6820   -1.0500   -0.3270 C   0  0  0  0  0  0  0  0  0  0  0  0
    2.5900   -0.0650   -1.2810 C   0  0  0  0  0  0  0  0  0  0  0  0
    3.5980    0.8850   -1.3530 C   0  0  0  0  0  0  0  0  0  0  0  0
    4.6710    0.8410   -0.4870 C   0  0  0  0  0  0  0  0  0  0  0  0
    4.7370   -0.1550    0.4550 C   0  0  0  0  0  0  0  0  0  0  0  0
    1.8290   -1.6730    2.9260 C   0  0  0  0  0  0  0  0  0  0  0  0
    1.0670   -2.5620    3.3880 O   0  0  0  0  0  0  0  0  0  0  0  0
    3.2820   -3.9260    3.1590 H   0  0  0  0  0  0  0  0  0  0  0  0
    4.5200   -3.0920    4.0610 H   0  0  0  0  0  0  0  0  0  0  0  0
    3.8280   -1.0150    3.4040 H   0  0  0  0  0  0  0  0  0  0  0  0
    4.8770   -2.5900    1.6380 H   0  0  0  0  0  0  0  0  0  0  0  0
    3.2300   -3.0650    1.1960 H   0  0  0  0  0  0  0  0  0  0  0  0
    1.8680   -1.7950   -0.2880 H   0  0  0  0  0  0  0  0  0  0  0  0
    1.7520   -0.0390   -1.9480 H   0  0  0  0  0  0  0  0  0  0  0  0
    3.5780    1.6910   -2.0910 H   0  0  0  0  0  0  0  0  0  0  0  0
    5.4600    1.5940   -0.5540 H   0  0  0  0  0  0  0  0  0  0  0  0
    5.5930   -0.1870    1.1430 H   0  0  0  0  0  0  0  0  0  0  0  0
   -0.0580    0.2790    4.7620 O   0  0  0  0  0  0  0  0  0  0  0  0
   -0.5630    0.7030    3.5310 C   0  0  0  0  0  0  0  0  0  0  0  0
   -0.2460   -0.3720    2.4820 C   0  0  2  0  0  0  0  0  0  0  0  0
    1.1730   -0.5100    2.4350 N   0  0  0  0  0  0  0  0  0  0  0  0
   -0.9270   -0.1140    1.2170 C   0  0  0  0  0  0  0  0  0  0  0  0
   -0.3160   -0.0080    0.1230 O   0  0  0  0  0  0  0  0  0  0  0  0
   -0.3660   -0.6390    4.9980 H   0  0  0  0  0  0  0  0  0  0  0  0
   -1.6450    0.8680    3.6400 H   0  0  0  0  0  0  0  0  0  0  0  0
   -0.0070    1.6460    3.2880 H   0  0  0  0  0  0  0  0  0  0  0  0
   -0.6730   -1.3060    2.9340 H   0  0  0  0  0  0  0  0  0  0  0  0
    1.7240    0.2940    2.0220 H   0  0  0  0  0  0  0  0  0  0  0  0
   -2.8950   -2.4590   -3.1730 C   0  0  0  0  0  0  0  0  0  0  0  0
   -3.6660   -0.8200   -3.0770 S   0  0  0  0  0  0  0  0  0  0  0  0
   -4.7390   -0.7300   -1.6470 C   0  0  0  0  0  0  0  0  0  0  0  0
   -3.9790   -0.8150   -0.3450 C   0  0  0  0  0  0  0  0  0  0  0  0
   -2.9650    0.2970   -0.1740 C   0  0  2  0  0  0  0  0  0  0  0  0
   -2.3460    0.0430    1.1130 N   0  0  0  0  0  0  0  0  0  0  0  0
   -3.6020    1.6430   -0.1750 C   0  0  0  0  0  0  0  0  0  0  0  0
   -3.5440    2.3410    0.8890 O   0  0  0  0  0  0  0  0  0  0  0  0
   -4.2560    2.2160   -1.2280 O   0  0  0  0  0  0  0  0  0  0  0  0
   -3.5810   -3.2330   -3.5400 H   0  0  0  0  0  0  0  0  0  0  0  0
   -2.5610   -2.7110   -2.1270 H   0  0  0  0  0  0  0  0  0  0  0  0
   -1.9680   -2.3540   -3.7770 H   0  0  0  0  0  0  0  0  0  0  0  0
   -5.5100   -1.5400   -1.7060 H   0  0  0  0  0  0  0  0  0  0  0  0
   -5.3250    0.2090   -1.6430 H   0  0  0  0  0  0  0  0  0  0  0  0
   -4.6510   -0.7950    0.5330 H   0  0  0  0  0  0  0  0  0  0  0  0
   -3.4800   -1.8050   -0.3220 H   0  0  0  0  0  0  0  0  0  0  0  0
   -2.2160    0.3240   -0.9920 H   0  0  0  0  0  0  0  0  0  0  0  0
   -2.9460   -0.0250    1.9570 H   0  0  0  0  0  0  0  0  0  0  0  0
  1 13  1  0  0  0  0
  2 10  1  0  0  0  0
  2 14  1  1  0  0  0
  2  1  1  0  0  0  0
  3 15  1  0  0  0  0
  3  2  1  0  0  0  0
  4  3  1  0  0  0  0
  5 17  1  0  0  0  0
  5  4  2  0  0  0  0
  6  5  1  0  0  0  0
  7  6  2  0  0  0  0
  7  8  1  0  0  0  0
  8  9  2  0  0  0  0
  9  4  1  0  0  0  0
  9 21  1  0  0  0  0
 10 11  2  0  0  0  0
 12  1  1  0  0  0  0
 16  3  1  0  0  0  0
 18  6  1  0  0  0  0
 19  7  1  0  0  0  0
 20  8  1  0  0  0  0
 22 28  1  0  0  0  0
 23 29  1  0  0  0  0
 23 22  1  0  0  0  0
 24 31  1  1  0  0  0
 24 23  1  0  0  0  0
 25 24  1  0  0  0  0
 25 10  1  0  0  0  0
 26 24  1  0  0  0  0
 27 26  2  0  0  0  0
 30 23  1  0  0  0  0
 32 25  1  0  0  0  0
 33 34  1  0  0  0  0
 33 43  1  0  0  0  0
 34 35  1  0  0  0  0
 35 46  1  0  0  0  0
 35 36  1  0  0  0  0
 36 48  1  0  0  0  0
 36 37  1  0  0  0  0
 36 47  1  0  0  0  0
 37 49  1  6  0  0  0
 37 38  1  0  0  0  0
 38 26  1  0  0  0  0
 38 50  1  0  0  0  0
 39 37  1  0  0  0  0
 39 40  1  0  0  0  0
 41 39  2  0  0  0  0
 42 33  1  0  0  0  0
 44 33  1  0  0  0  0
 45 35  1  0  0  0  0
M  END
$$$$
