FSN.pdb
 OpenBabel07022419013D

 47 47  0  0  1  0  0  0  0  0999 V2000
    1.1090   -3.9320    4.1230 N   0  0  0  0  0  0  0  0  0  0  0  0
    1.4250   -2.6370    3.4540 C   0  0  1  0  0  0  0  0  0  0  0  0
    2.4800   -2.8950    2.4410 C   0  0  0  0  0  0  0  0  0  0  0  0
    2.9710   -1.7760    1.6620 C   0  0  0  0  0  0  0  0  0  0  0  0
    4.0060   -0.9470    2.0850 C   0  0  0  0  0  0  0  0  0  0  0  0
    4.4950    0.0920    1.3300 C   0  0  0  0  0  0  0  0  0  0  0  0
    3.9480    0.3400    0.0920 C   0  0  0  0  0  0  0  0  0  0  0  0
    2.9320   -0.4540   -0.3530 C   0  0  0  0  0  0  0  0  0  0  0  0
    2.4480   -1.5000    0.4210 C   0  0  0  0  0  0  0  0  0  0  0  0
    0.1680   -2.2230    2.8230 C   0  0  0  0  0  0  0  0  0  0  0  0
   -0.8000   -3.0430    2.7280 O   0  0  0  0  0  0  0  0  0  0  0  0
    1.1960   -4.6590    3.3920 H   0  0  0  0  0  0  0  0  0  0  0  0
    1.7760   -4.0410    4.9140 H   0  0  0  0  0  0  0  0  0  0  0  0
    1.7440   -1.9660    4.2660 H   0  0  0  0  0  0  0  0  0  0  0  0
    2.1650   -3.7280    1.7470 H   0  0  0  0  0  0  0  0  0  0  0  0
    3.3540   -3.3590    2.9920 H   0  0  0  0  0  0  0  0  0  0  0  0
    4.4180   -1.1610    3.0590 H   0  0  0  0  0  0  0  0  0  0  0  0
    5.2960    0.7160    1.6830 H   0  0  0  0  0  0  0  0  0  0  0  0
    4.3000    1.1490   -0.5430 H   0  0  0  0  0  0  0  0  0  0  0  0
    2.5070   -0.2580   -1.3210 H   0  0  0  0  0  0  0  0  0  0  0  0
    1.6440   -2.0790   -0.0030 H   0  0  0  0  0  0  0  0  0  0  0  0
   -1.3770    1.4070    3.0160 O   0  0  0  0  0  0  0  0  0  0  0  0
   -2.0950    0.2630    2.7500 C   0  0  0  0  0  0  0  0  0  0  0  0
   -1.3870   -0.6110    1.6890 C   0  0  2  0  0  0  0  0  0  0  0  0
   -0.0850   -0.9300    2.2870 N   0  0  0  0  0  0  0  0  0  0  0  0
   -1.2640    0.1410    0.4330 C   0  0  0  0  0  0  0  0  0  0  0  0
   -0.1090    0.4410    0.0400 O   0  0  0  0  0  0  0  0  0  0  0  0
   -0.9110    1.3640    3.9010 H   0  0  0  0  0  0  0  0  0  0  0  0
   -3.1050    0.5400    2.4200 H   0  0  0  0  0  0  0  0  0  0  0  0
   -2.2060   -0.3120    3.6920 H   0  0  0  0  0  0  0  0  0  0  0  0
   -1.9610   -1.5390    1.6380 H   0  0  0  0  0  0  0  0  0  0  0  0
    0.6900   -0.2340    2.3410 H   0  0  0  0  0  0  0  0  0  0  0  0
   -1.3980   -1.3850   -2.1660 N   0  0  0  0  0  0  0  0  0  0  0  0
   -2.3770   -0.7630   -2.9750 C   0  0  0  0  0  0  0  0  0  0  0  0
   -2.8260   -1.4630   -3.9300 O   0  0  0  0  0  0  0  0  0  0  0  0
   -2.8680    0.6200   -2.7450 C   0  0  0  0  0  0  0  0  0  0  0  0
   -2.1890    1.2610   -1.5520 C   0  0  2  0  0  0  0  0  0  0  0  0
   -2.4170    0.5280   -0.3350 N   0  0  0  0  0  0  0  0  0  0  0  0
   -2.8120    2.6040   -1.4030 C   0  0  0  0  0  0  0  0  0  0  0  0
   -3.3950    2.8780   -0.3290 O   0  0  0  0  0  0  0  0  0  0  0  0
   -2.7600    3.5540   -2.4210 O   0  0  0  0  0  0  0  0  0  0  0  0
   -1.6310   -2.1410   -1.5020 H   0  0  0  0  0  0  0  0  0  0  0  0
   -0.4140   -1.0710   -2.2430 H   0  0  0  0  0  0  0  0  0  0  0  0
   -2.5620    1.2160   -3.6380 H   0  0  0  0  0  0  0  0  0  0  0  0
   -3.9480    0.6940   -2.6300 H   0  0  0  0  0  0  0  0  0  0  0  0
   -1.0950    1.3630   -1.7070 H   0  0  0  0  0  0  0  0  0  0  0  0
   -3.3600    0.2620    0.0220 H   0  0  0  0  0  0  0  0  0  0  0  0
  1 13  1  0  0  0  0
  2  1  1  0  0  0  0
  2 14  1  1  0  0  0
  3 16  1  0  0  0  0
  3  2  1  0  0  0  0
  4  5  1  0  0  0  0
  4  3  1  0  0  0  0
  5 17  1  0  0  0  0
  6 18  1  0  0  0  0
  6  5  2  0  0  0  0
  7  6  1  0  0  0  0
  8  7  2  0  0  0  0
  8  9  1  0  0  0  0
  9  4  2  0  0  0  0
 10  2  1  0  0  0  0
 11 10  2  0  0  0  0
 12  1  1  0  0  0  0
 15  3  1  0  0  0  0
 19  7  1  0  0  0  0
 20  8  1  0  0  0  0
 21  9  1  0  0  0  0
 22 28  1  0  0  0  0
 23 22  1  0  0  0  0
 23 30  1  0  0  0  0
 24 31  1  6  0  0  0
 24 25  1  0  0  0  0
 24 23  1  0  0  0  0
 25 32  1  0  0  0  0
 25 10  1  0  0  0  0
 26 24  1  0  0  0  0
 27 26  2  0  0  0  0
 29 23  1  0  0  0  0
 33 42  1  0  0  0  0
 34 36  1  0  0  0  0
 34 33  1  0  0  0  0
 35 34  2  0  0  0  0
 36 45  1  0  0  0  0
 36 37  1  0  0  0  0
 37 46  1  6  0  0  0
 37 39  1  0  0  0  0
 37 38  1  0  0  0  0
 38 47  1  0  0  0  0
 38 26  1  0  0  0  0
 39 40  1  0  0  0  0
 41 39  2  0  0  0  0
 43 33  1  0  0  0  0
 44 36  1  0  0  0  0
M  END
$$$$
