FSR.pdb
 OpenBabel07022419013D

 56 56  0  0  1  0  0  0  0  0999 V2000
    2.3340   -0.3500    0.5760 N   0  0  0  0  0  0  0  0  0  0  0  0
    2.2230    0.5580    1.6960 C   0  0  1  0  0  0  0  0  0  0  0  0
    2.9170    1.8540    1.2740 C   0  0  0  0  0  0  0  0  0  0  0  0
    4.3440    1.6080    0.9470 C   0  0  0  0  0  0  0  0  0  0  0  0
    4.7290    1.2860   -0.3260 C   0  0  0  0  0  0  0  0  0  0  0  0
    6.0700    1.0620   -0.6060 C   0  0  0  0  0  0  0  0  0  0  0  0
    7.0130    1.1630    0.3930 C   0  0  0  0  0  0  0  0  0  0  0  0
    6.6420    1.4850    1.6800 C   0  0  0  0  0  0  0  0  0  0  0  0
    5.2940    1.7070    1.9460 C   0  0  0  0  0  0  0  0  0  0  0  0
    0.7780    0.9330    1.9080 C   0  0  0  0  0  0  0  0  0  0  0  0
    0.4270    1.6830    2.8420 O   0  0  0  0  0  0  0  0  0  0  0  0
    3.1950   -0.9060    0.5830 H   0  0  0  0  0  0  0  0  0  0  0  0
    2.0530    0.0820   -0.3120 H   0  0  0  0  0  0  0  0  0  0  0  0
    2.6630    0.1350    2.6060 H   0  0  0  0  0  0  0  0  0  0  0  0
    2.4000    2.1950    0.3450 H   0  0  0  0  0  0  0  0  0  0  0  0
    2.8050    2.6500    2.0090 H   0  0  0  0  0  0  0  0  0  0  0  0
    4.0100    1.2010   -1.1280 H   0  0  0  0  0  0  0  0  0  0  0  0
    6.3980    0.8090   -1.5970 H   0  0  0  0  0  0  0  0  0  0  0  0
    8.0690    0.9820    0.1500 H   0  0  0  0  0  0  0  0  0  0  0  0
    7.3820    1.5630    2.4610 H   0  0  0  0  0  0  0  0  0  0  0  0
    4.9790    1.9610    2.9450 H   0  0  0  0  0  0  0  0  0  0  0  0
   -3.5160    1.9620    0.3480 O   0  0  0  0  0  0  0  0  0  0  0  0
   -2.1680    1.6500    0.1180 C   0  0  0  0  0  0  0  0  0  0  0  0
   -1.6180    0.7830    1.2320 C   0  0  2  0  0  0  0  0  0  0  0  0
   -0.2430    0.4400    1.0440 N   0  0  0  0  0  0  0  0  0  0  0  0
   -2.4730   -0.3990    1.4840 C   0  0  0  0  0  0  0  0  0  0  0  0
   -3.7030   -0.2630    1.6650 O   0  0  0  0  0  0  0  0  0  0  0  0
   -3.9220    2.2700   -0.5040 H   0  0  0  0  0  0  0  0  0  0  0  0
   -2.1710    1.0310   -0.8030 H   0  0  0  0  0  0  0  0  0  0  0  0
   -1.6430    2.6020    0.0200 H   0  0  0  0  0  0  0  0  0  0  0  0
   -1.6870    1.4310    2.1460 H   0  0  0  0  0  0  0  0  0  0  0  0
    0.0800   -0.1840    0.2690 H   0  0  0  0  0  0  0  0  0  0  0  0
   -3.9180   -2.6860   -4.4000 N   0  0  0  0  0  0  0  0  0  0  0  0
   -3.4190   -2.3630   -3.1220 C   0  0  0  0  0  0  0  0  0  0  0  0
   -4.0690   -1.5860   -2.3030 N   0  0  0  0  0  0  0  0  0  0  0  0
   -2.1770   -2.8650   -2.6480 N   0  0  0  0  0  0  0  0  0  0  0  0
   -1.8390   -2.8660   -1.2170 C   0  0  0  0  0  0  0  0  0  0  0  0
   -2.7420   -3.8510   -0.5580 C   0  0  0  0  0  0  0  0  0  0  0  0
   -2.5810   -4.0370    0.9020 C   0  0  0  0  0  0  0  0  0  0  0  0
   -2.8170   -2.8690    1.7820 C   0  0  2  0  0  0  0  0  0  0  0  0
   -1.9620   -1.7390    1.5370 N   0  0  0  0  0  0  0  0  0  0  0  0
   -2.6110   -3.2810    3.2300 C   0  0  0  0  0  0  0  0  0  0  0  0
   -1.8150   -2.6660    3.9570 O   0  0  0  0  0  0  0  0  0  0  0  0
   -3.3140   -4.3520    3.7510 O   0  0  0  0  0  0  0  0  0  0  0  0
   -3.2550   -2.7920   -5.1970 H   0  0  0  0  0  0  0  0  0  0  0  0
   -4.9340   -2.8160   -4.5380 H   0  0  0  0  0  0  0  0  0  0  0  0
   -4.9930   -1.2020   -2.6350 H   0  0  0  0  0  0  0  0  0  0  0  0
   -1.4940   -3.2380   -3.3350 H   0  0  0  0  0  0  0  0  0  0  0  0
   -1.8750   -1.8440   -0.8520 H   0  0  0  0  0  0  0  0  0  0  0  0
   -0.7650   -3.1900   -1.1600 H   0  0  0  0  0  0  0  0  0  0  0  0
   -3.8210   -3.6560   -0.7600 H   0  0  0  0  0  0  0  0  0  0  0  0
   -2.5480   -4.8550   -1.0410 H   0  0  0  0  0  0  0  0  0  0  0  0
   -3.3310   -4.8360    1.2050 H   0  0  0  0  0  0  0  0  0  0  0  0
   -1.5800   -4.5180    1.1430 H   0  0  0  0  0  0  0  0  0  0  0  0
   -3.8850   -2.5270    1.7020 H   0  0  0  0  0  0  0  0  0  0  0  0
   -0.9580   -1.8770    1.3930 H   0  0  0  0  0  0  0  0  0  0  0  0
  1 12  1  0  0  0  0
  1  2  1  0  0  0  0
  2 10  1  0  0  0  0
  2 14  1  1  0  0  0
  3  2  1  0  0  0  0
  3 16  1  0  0  0  0
  4  3  1  0  0  0  0
  4  9  1  0  0  0  0
  5  4  2  0  0  0  0
  6  5  1  0  0  0  0
  6  7  2  0  0  0  0
  7  8  1  0  0  0  0
  8  9  2  0  0  0  0
  8 20  1  0  0  0  0
  9 21  1  0  0  0  0
 10 11  2  0  0  0  0
 13  1  1  0  0  0  0
 15  3  1  0  0  0  0
 17  5  1  0  0  0  0
 18  6  1  0  0  0  0
 19  7  1  0  0  0  0
 23 22  1  0  0  0  0
 23 24  1  0  0  0  0
 24 26  1  0  0  0  0
 24 31  1  1  0  0  0
 25 24  1  0  0  0  0
 25 10  1  0  0  0  0
 26 41  1  0  0  0  0
 26 27  2  0  0  0  0
 28 22  1  0  0  0  0
 29 23  1  0  0  0  0
 30 23  1  0  0  0  0
 32 25  1  0  0  0  0
 33 34  1  0  0  0  0
 34 36  1  0  0  0  0
 34 35  2  0  0  0  0
 36 37  1  0  0  0  0
 37 50  1  0  0  0  0
 37 49  1  0  0  0  0
 37 38  1  0  0  0  0
 38 39  1  0  0  0  0
 39 54  1  0  0  0  0
 39 53  1  0  0  0  0
 39 40  1  0  0  0  0
 40 55  1  6  0  0  0
 40 42  1  0  0  0  0
 41 40  1  0  0  0  0
 42 44  2  0  0  0  0
 42 43  1  0  0  0  0
 45 33  1  0  0  0  0
 46 33  1  0  0  0  0
 47 35  1  0  0  0  0
 48 36  1  0  0  0  0
 51 38  1  0  0  0  0
 52 38  1  0  0  0  0
 56 41  1  0  0  0  0
M  END
$$$$
