FSS.pdb
 OpenBabel07022419013D

 44 44  0  0  1  0  0  0  0  0999 V2000
    0.6190   -2.7680    0.9780 N   0  0  0  0  0  0  0  0  0  0  0  0
    1.0580   -2.0840    2.1800 C   0  0  1  0  0  0  0  0  0  0  0  0
    2.4950   -2.3950    2.5140 C   0  0  0  0  0  0  0  0  0  0  0  0
    3.4400   -2.0110    1.4720 C   0  0  0  0  0  0  0  0  0  0  0  0
    3.7710   -2.9020    0.4790 C   0  0  0  0  0  0  0  0  0  0  0  0
    4.6580   -2.6080   -0.5410 C   0  0  0  0  0  0  0  0  0  0  0  0
    5.2310   -1.3530   -0.5480 C   0  0  0  0  0  0  0  0  0  0  0  0
    4.9110   -0.4460    0.4390 C   0  0  0  0  0  0  0  0  0  0  0  0
    4.0240   -0.7660    1.4440 C   0  0  0  0  0  0  0  0  0  0  0  0
    0.7860   -0.6470    2.0860 C   0  0  0  0  0  0  0  0  0  0  0  0
    1.1010    0.1010    3.0380 O   0  0  0  0  0  0  0  0  0  0  0  0
   -0.4280   -2.6660    0.9400 H   0  0  0  0  0  0  0  0  0  0  0  0
    1.0540   -2.3610    0.1260 H   0  0  0  0  0  0  0  0  0  0  0  0
    0.4430   -2.4910    3.0180 H   0  0  0  0  0  0  0  0  0  0  0  0
    2.7280   -1.8960    3.4700 H   0  0  0  0  0  0  0  0  0  0  0  0
    2.5270   -3.5000    2.7410 H   0  0  0  0  0  0  0  0  0  0  0  0
    3.3420   -3.9160    0.4370 H   0  0  0  0  0  0  0  0  0  0  0  0
    4.9020   -3.3380   -1.3180 H   0  0  0  0  0  0  0  0  0  0  0  0
    5.9290   -1.0820   -1.3270 H   0  0  0  0  0  0  0  0  0  0  0  0
    5.3820    0.5500    0.4120 H   0  0  0  0  0  0  0  0  0  0  0  0
    3.8210   -0.0020    2.1850 H   0  0  0  0  0  0  0  0  0  0  0  0
    0.2950    1.6330   -1.4320 O   0  0  0  0  0  0  0  0  0  0  0  0
    0.6610    2.0820   -0.1780 C   0  0  0  0  0  0  0  0  0  0  0  0
   -0.0560    1.3580    0.9380 C   0  0  2  0  0  0  0  0  0  0  0  0
    0.1780   -0.0430    0.9610 N   0  0  0  0  0  0  0  0  0  0  0  0
   -1.5450    1.5560    0.8240 C   0  0  0  0  0  0  0  0  0  0  0  0
   -2.0150    2.7050    0.7850 O   0  0  0  0  0  0  0  0  0  0  0  0
    1.0640    1.7360   -2.0370 H   0  0  0  0  0  0  0  0  0  0  0  0
    1.7320    2.0650    0.0180 H   0  0  0  0  0  0  0  0  0  0  0  0
    0.3420    3.1560   -0.1200 H   0  0  0  0  0  0  0  0  0  0  0  0
    0.3030    1.8080    1.8840 H   0  0  0  0  0  0  0  0  0  0  0  0
   -0.1180   -0.6140    0.1120 H   0  0  0  0  0  0  0  0  0  0  0  0
   -3.9210    0.4320   -1.7500 O   0  0  0  0  0  0  0  0  0  0  0  0
   -4.4400   -0.0890   -0.5670 C   0  0  0  0  0  0  0  0  0  0  0  0
   -3.8650    0.5910    0.6520 C   0  0  2  0  0  0  0  0  0  0  0  0
   -2.4490    0.4680    0.7600 N   0  0  0  0  0  0  0  0  0  0  0  0
   -4.4880   -0.0420    1.8410 C   0  0  0  0  0  0  0  0  0  0  0  0
   -5.7350   -0.0510    1.9580 O   0  0  0  0  0  0  0  0  0  0  0  0
   -3.7100   -0.6180    2.8170 O   0  0  0  0  0  0  0  0  0  0  0  0
   -2.9520    0.2050   -1.7870 H   0  0  0  0  0  0  0  0  0  0  0  0
   -4.3930   -1.1840   -0.5230 H   0  0  0  0  0  0  0  0  0  0  0  0
   -5.5370    0.1770   -0.5790 H   0  0  0  0  0  0  0  0  0  0  0  0
   -4.2180    1.6460    0.6210 H   0  0  0  0  0  0  0  0  0  0  0  0
   -2.0410   -0.4880    0.7940 H   0  0  0  0  0  0  0  0  0  0  0  0
  1  2  1  0  0  0  0
  2  3  1  0  0  0  0
  2 14  1  1  0  0  0
  3 16  1  0  0  0  0
  3 15  1  0  0  0  0
  4  3  1  0  0  0  0
  5  4  2  0  0  0  0
  6  5  1  0  0  0  0
  7  6  2  0  0  0  0
  7  8  1  0  0  0  0
  8  9  2  0  0  0  0
  9  4  1  0  0  0  0
  9 21  1  0  0  0  0
 10  2  1  0  0  0  0
 10 11  2  0  0  0  0
 12  1  1  0  0  0  0
 13  1  1  0  0  0  0
 17  5  1  0  0  0  0
 18  6  1  0  0  0  0
 19  7  1  0  0  0  0
 20  8  1  0  0  0  0
 22 23  1  0  0  0  0
 23 30  1  0  0  0  0
 23 29  1  0  0  0  0
 23 24  1  0  0  0  0
 24 25  1  0  0  0  0
 24 31  1  1  0  0  0
 25 10  1  0  0  0  0
 26 24  1  0  0  0  0
 27 26  2  0  0  0  0
 28 22  1  0  0  0  0
 32 25  1  0  0  0  0
 33 34  1  0  0  0  0
 34 41  1  0  0  0  0
 34 35  1  0  0  0  0
 35 43  1  6  0  0  0
 35 36  1  0  0  0  0
 35 37  1  0  0  0  0
 36 44  1  0  0  0  0
 36 26  1  0  0  0  0
 37 38  2  0  0  0  0
 37 39  1  0  0  0  0
 40 33  1  0  0  0  0
 42 34  1  0  0  0  0
M  END
$$$$
