FST.pdb
 OpenBabel07022419013D

 47 47  0  0  1  0  0  0  0  0999 V2000
    1.1660   -2.2670   -0.7200 N   0  0  0  0  0  0  0  0  0  0  0  0
    2.0960   -2.0740    0.3760 C   0  0  1  0  0  0  0  0  0  0  0  0
    3.4790   -1.7500   -0.1330 C   0  0  0  0  0  0  0  0  0  0  0  0
    3.5430   -0.5340   -0.9420 C   0  0  0  0  0  0  0  0  0  0  0  0
    3.3730   -0.5230   -2.3050 C   0  0  0  0  0  0  0  0  0  0  0  0
    3.4390    0.6390   -3.0360 C   0  0  0  0  0  0  0  0  0  0  0  0
    3.6850    1.8680   -2.4100 C   0  0  0  0  0  0  0  0  0  0  0  0
    3.8560    1.8620   -1.0440 C   0  0  0  0  0  0  0  0  0  0  0  0
    3.7850    0.6950   -0.3430 C   0  0  0  0  0  0  0  0  0  0  0  0
    1.6020   -1.0610    1.3430 C   0  0  0  0  0  0  0  0  0  0  0  0
    2.2830   -0.7660    2.3580 O   0  0  0  0  0  0  0  0  0  0  0  0
    0.9880   -1.3220   -1.1400 H   0  0  0  0  0  0  0  0  0  0  0  0
    0.2570   -2.5630   -0.2870 H   0  0  0  0  0  0  0  0  0  0  0  0
    2.1730   -3.0480    0.9040 H   0  0  0  0  0  0  0  0  0  0  0  0
    3.7820   -2.6130   -0.7790 H   0  0  0  0  0  0  0  0  0  0  0  0
    4.2230   -1.7210    0.6870 H   0  0  0  0  0  0  0  0  0  0  0  0
    3.1830   -1.4480   -2.8090 H   0  0  0  0  0  0  0  0  0  0  0  0
    3.3090    0.6790   -4.1060 H   0  0  0  0  0  0  0  0  0  0  0  0
    3.7360    2.7830   -2.9900 H   0  0  0  0  0  0  0  0  0  0  0  0
    4.0450    2.8210   -0.5800 H   0  0  0  0  0  0  0  0  0  0  0  0
    3.9290    0.7540    0.7340 H   0  0  0  0  0  0  0  0  0  0  0  0
    0.7560    2.3870    0.7520 O   0  0  0  0  0  0  0  0  0  0  0  0
   -0.3700    1.8980    1.3730 C   0  0  0  0  0  0  0  0  0  0  0  0
   -0.1090    0.6110    2.1410 C   0  0  2  0  0  0  0  0  0  0  0  0
    0.3650   -0.3740    1.1960 N   0  0  0  0  0  0  0  0  0  0  0  0
   -1.4190    0.1600    2.6720 C   0  0  0  0  0  0  0  0  0  0  0  0
   -2.0650    0.8470    3.5210 O   0  0  0  0  0  0  0  0  0  0  0  0
    0.9830    3.2690    1.1390 H   0  0  0  0  0  0  0  0  0  0  0  0
   -1.0920    1.6080    0.5560 H   0  0  0  0  0  0  0  0  0  0  0  0
   -0.8670    2.6340    2.0450 H   0  0  0  0  0  0  0  0  0  0  0  0
    0.6120    0.7680    2.9700 H   0  0  0  0  0  0  0  0  0  0  0  0
   -0.2180   -0.5930    0.3710 H   0  0  0  0  0  0  0  0  0  0  0  0
   -4.5070   -0.4260    0.8680 C   0  0  0  0  0  0  0  0  0  0  0  0
   -4.2400   -1.7210    1.5670 C   0  0  1  0  0  0  0  0  0  0  0  0
   -3.7440   -2.6260    0.6310 O   0  0  0  0  0  0  0  0  0  0  0  0
   -3.2470   -1.5630    2.7040 C   0  0  2  0  0  0  0  0  0  0  0  0
   -1.9720   -1.0700    2.2220 N   0  0  0  0  0  0  0  0  0  0  0  0
   -3.0280   -2.8560    3.3920 C   0  0  0  0  0  0  0  0  0  0  0  0
   -1.8740   -3.3370    3.4750 O   0  0  0  0  0  0  0  0  0  0  0  0
   -4.0660   -3.5780    3.9640 O   0  0  0  0  0  0  0  0  0  0  0  0
   -4.8150    0.3730    1.5720 H   0  0  0  0  0  0  0  0  0  0  0  0
   -5.3740   -0.5840    0.1850 H   0  0  0  0  0  0  0  0  0  0  0  0
   -3.6490   -0.0990    0.2260 H   0  0  0  0  0  0  0  0  0  0  0  0
   -5.1880   -2.0940    1.9750 H   0  0  0  0  0  0  0  0  0  0  0  0
   -3.0280   -2.1530    0.1040 H   0  0  0  0  0  0  0  0  0  0  0  0
   -3.6320   -0.8120    3.4300 H   0  0  0  0  0  0  0  0  0  0  0  0
   -1.4840   -1.6950    1.5140 H   0  0  0  0  0  0  0  0  0  0  0  0
  1 13  1  0  0  0  0
  1  2  1  0  0  0  0
  2 14  1  1  0  0  0
  2 10  1  0  0  0  0
  3  2  1  0  0  0  0
  3 16  1  0  0  0  0
  4  9  1  0  0  0  0
  4  3  1  0  0  0  0
  5  4  2  0  0  0  0
  6  7  2  0  0  0  0
  6  5  1  0  0  0  0
  7  8  1  0  0  0  0
  8 20  1  0  0  0  0
  8  9  2  0  0  0  0
  9 21  1  0  0  0  0
 10 11  2  0  0  0  0
 12  1  1  0  0  0  0
 15  3  1  0  0  0  0
 17  5  1  0  0  0  0
 18  6  1  0  0  0  0
 19  7  1  0  0  0  0
 22 28  1  0  0  0  0
 22 23  1  0  0  0  0
 23 30  1  0  0  0  0
 23 24  1  0  0  0  0
 24 26  1  0  0  0  0
 24 31  1  1  0  0  0
 25 10  1  0  0  0  0
 25 24  1  0  0  0  0
 26 27  2  0  0  0  0
 29 23  1  0  0  0  0
 32 25  1  0  0  0  0
 33 34  1  0  0  0  0
 33 41  1  0  0  0  0
 34 44  1  1  0  0  0
 34 36  1  0  0  0  0
 35 34  1  0  0  0  0
 36 38  1  0  0  0  0
 36 46  1  1  0  0  0
 37 26  1  0  0  0  0
 37 36  1  0  0  0  0
 38 39  2  0  0  0  0
 38 40  1  0  0  0  0
 42 33  1  0  0  0  0
 43 33  1  0  0  0  0
 45 35  1  0  0  0  0
 47 37  1  0  0  0  0
M  END
$$$$
