FSV.pdb
 OpenBabel07022419013D

 49 49  0  0  1  0  0  0  0  0999 V2000
    3.6690   -2.7840    1.8080 N   0  0  0  0  0  0  0  0  0  0  0  0
    3.0960   -1.4330    1.5050 C   0  0  1  0  0  0  0  0  0  0  0  0
    3.1150   -1.3130    0.0540 C   0  0  0  0  0  0  0  0  0  0  0  0
    2.6390   -0.1050   -0.5990 C   0  0  0  0  0  0  0  0  0  0  0  0
    1.3740   -0.0770   -1.1470 C   0  0  0  0  0  0  0  0  0  0  0  0
    0.8240    1.0300   -1.7720 C   0  0  0  0  0  0  0  0  0  0  0  0
    1.5990    2.1700   -1.8460 C   0  0  0  0  0  0  0  0  0  0  0  0
    2.8620    2.1700   -1.3090 C   0  0  0  0  0  0  0  0  0  0  0  0
    3.3820    1.0580   -0.6940 C   0  0  0  0  0  0  0  0  0  0  0  0
    1.9380   -1.2790    2.3200 C   0  0  0  0  0  0  0  0  0  0  0  0
    1.6850   -2.1770    3.2130 O   0  0  0  0  0  0  0  0  0  0  0  0
    2.9800   -3.5180    1.4980 H   0  0  0  0  0  0  0  0  0  0  0  0
    3.7490   -2.8900    2.8470 H   0  0  0  0  0  0  0  0  0  0  0  0
    3.9230   -0.7600    1.9400 H   0  0  0  0  0  0  0  0  0  0  0  0
    2.6200   -2.2330   -0.3890 H   0  0  0  0  0  0  0  0  0  0  0  0
    4.1950   -1.4500   -0.2790 H   0  0  0  0  0  0  0  0  0  0  0  0
    0.7670   -0.9810   -1.1040 H   0  0  0  0  0  0  0  0  0  0  0  0
   -0.1820    1.0270   -2.1990 H   0  0  0  0  0  0  0  0  0  0  0  0
    1.1520    3.0290   -2.3400 H   0  0  0  0  0  0  0  0  0  0  0  0
    3.4560    3.0700   -1.3750 H   0  0  0  0  0  0  0  0  0  0  0  0
    4.3750    1.0320   -0.2630 H   0  0  0  0  0  0  0  0  0  0  0  0
   -0.5140    2.1790    2.7530 O   0  0  0  0  0  0  0  0  0  0  0  0
   -0.2950    1.2380    3.7310 C   0  0  0  0  0  0  0  0  0  0  0  0
   -0.1240   -0.1520    3.1920 C   0  0  2  0  0  0  0  0  0  0  0  0
    1.0050   -0.2370    2.2840 N   0  0  0  0  0  0  0  0  0  0  0  0
   -1.3830   -0.6230    2.5940 C   0  0  0  0  0  0  0  0  0  0  0  0
   -2.4840   -0.5020    3.2610 O   0  0  0  0  0  0  0  0  0  0  0  0
    0.3220    2.3430    2.2390 H   0  0  0  0  0  0  0  0  0  0  0  0
   -1.1190    1.3040    4.4640 H   0  0  0  0  0  0  0  0  0  0  0  0
    0.6300    1.5240    4.3030 H   0  0  0  0  0  0  0  0  0  0  0  0
    0.0640   -0.8610    4.0690 H   0  0  0  0  0  0  0  0  0  0  0  0
    1.1160    0.5190    1.5940 H   0  0  0  0  0  0  0  0  0  0  0  0
   -1.9680   -1.7190   -1.6050 C   0  0  0  0  0  0  0  0  0  0  0  0
   -2.9780   -1.2070   -0.6150 C   0  0  0  0  0  0  0  0  0  0  0  0
   -2.9170    0.3250   -0.7050 C   0  0  0  0  0  0  0  0  0  0  0  0
   -2.6920   -1.6540    0.7860 C   0  0  2  0  0  0  0  0  0  0  0  0
   -1.4120   -1.2110    1.3010 N   0  0  0  0  0  0  0  0  0  0  0  0
   -2.6510   -3.1610    0.7500 C   0  0  0  0  0  0  0  0  0  0  0  0
   -1.6270   -3.7570    1.1300 O   0  0  0  0  0  0  0  0  0  0  0  0
   -3.7310   -3.9030    0.3020 O   0  0  0  0  0  0  0  0  0  0  0  0
   -1.5260   -0.9430   -2.2450 H   0  0  0  0  0  0  0  0  0  0  0  0
   -2.4590   -2.4700   -2.2940 H   0  0  0  0  0  0  0  0  0  0  0  0
   -1.2170   -2.3140   -1.0290 H   0  0  0  0  0  0  0  0  0  0  0  0
   -3.9890   -1.5230   -0.9430 H   0  0  0  0  0  0  0  0  0  0  0  0
   -3.2310    0.6430   -1.7200 H   0  0  0  0  0  0  0  0  0  0  0  0
   -3.6330    0.7810    0.0120 H   0  0  0  0  0  0  0  0  0  0  0  0
   -1.8790    0.6720   -0.5400 H   0  0  0  0  0  0  0  0  0  0  0  0
   -3.5050   -1.3870    1.4920 H   0  0  0  0  0  0  0  0  0  0  0  0
   -0.5060   -1.2900    0.8100 H   0  0  0  0  0  0  0  0  0  0  0  0
  1 13  1  0  0  0  0
  2  1  1  0  0  0  0
  2 14  1  1  0  0  0
  2 10  1  0  0  0  0
  3  2  1  0  0  0  0
  4  3  1  0  0  0  0
  5 17  1  0  0  0  0
  5  4  2  0  0  0  0
  6  5  1  0  0  0  0
  7  6  2  0  0  0  0
  7  8  1  0  0  0  0
  8  9  2  0  0  0  0
  9  4  1  0  0  0  0
  9 21  1  0  0  0  0
 10 11  2  0  0  0  0
 12  1  1  0  0  0  0
 15  3  1  0  0  0  0
 16  3  1  0  0  0  0
 18  6  1  0  0  0  0
 19  7  1  0  0  0  0
 20  8  1  0  0  0  0
 22 23  1  0  0  0  0
 23 30  1  0  0  0  0
 23 29  1  0  0  0  0
 24 23  1  0  0  0  0
 24 31  1  1  0  0  0
 25 10  1  0  0  0  0
 25 24  1  0  0  0  0
 26 24  1  0  0  0  0
 26 27  2  0  0  0  0
 28 22  1  0  0  0  0
 32 25  1  0  0  0  0
 33 43  1  0  0  0  0
 33 34  1  0  0  0  0
 34 36  1  0  0  0  0
 35 34  1  0  0  0  0
 35 47  1  0  0  0  0
 35 46  1  0  0  0  0
 36 37  1  0  0  0  0
 36 48  1  1  0  0  0
 37 26  1  0  0  0  0
 38 36  1  0  0  0  0
 38 39  1  0  0  0  0
 40 38  2  0  0  0  0
 41 33  1  0  0  0  0
 42 33  1  0  0  0  0
 44 34  1  0  0  0  0
 45 35  1  0  0  0  0
 49 37  1  0  0  0  0
M  END
$$$$
