FTA.pdb
 OpenBabel07022419013D

 46 46  0  0  1  0  0  0  0  0999 V2000
    3.3480   -3.0500    1.5690 N   0  0  0  0  0  0  0  0  0  0  0  0
    2.9880   -1.6670    1.6080 C   0  0  1  0  0  0  0  0  0  0  0  0
    3.5060   -1.0170    0.3510 C   0  0  0  0  0  0  0  0  0  0  0  0
    2.9440   -1.6200   -0.8760 C   0  0  0  0  0  0  0  0  0  0  0  0
    3.5620   -2.6840   -1.5000 C   0  0  0  0  0  0  0  0  0  0  0  0
    3.0220   -3.2460   -2.6600 C   0  0  0  0  0  0  0  0  0  0  0  0
    1.8630   -2.7440   -3.1970 C   0  0  0  0  0  0  0  0  0  0  0  0
    1.2360   -1.6880   -2.5910 C   0  0  0  0  0  0  0  0  0  0  0  0
    1.7830   -1.1390   -1.4390 C   0  0  0  0  0  0  0  0  0  0  0  0
    1.5370   -1.5160    1.8110 C   0  0  0  0  0  0  0  0  0  0  0  0
    0.8140   -2.5420    1.8970 O   0  0  0  0  0  0  0  0  0  0  0  0
    4.3310   -3.2310    1.3190 H   0  0  0  0  0  0  0  0  0  0  0  0
    2.7110   -3.5270    0.8630 H   0  0  0  0  0  0  0  0  0  0  0  0
    3.5640   -1.2050    2.4600 H   0  0  0  0  0  0  0  0  0  0  0  0
    4.6060   -1.1520    0.3520 H   0  0  0  0  0  0  0  0  0  0  0  0
    3.3520    0.1000    0.3750 H   0  0  0  0  0  0  0  0  0  0  0  0
    4.4730   -3.0750   -1.0730 H   0  0  0  0  0  0  0  0  0  0  0  0
    3.5040   -4.0760   -3.1460 H   0  0  0  0  0  0  0  0  0  0  0  0
    1.3940   -3.1400   -4.1000 H   0  0  0  0  0  0  0  0  0  0  0  0
    0.3270   -1.2750   -2.9900 H   0  0  0  0  0  0  0  0  0  0  0  0
    1.2720   -0.3220   -0.9960 H   0  0  0  0  0  0  0  0  0  0  0  0
   -0.1910   -0.5720    4.5280 C   0  0  0  0  0  0  0  0  0  0  0  0
   -0.7980    0.3540    3.5260 C   0  0  1  0  0  0  0  0  0  0  0  0
   -0.2250    1.6400    3.6050 O   0  0  0  0  0  0  0  0  0  0  0  0
   -0.5440   -0.1970    2.1200 C   0  0  2  0  0  0  0  0  0  0  0  0
    0.8810   -0.2570    1.9200 N   0  0  0  0  0  0  0  0  0  0  0  0
   -1.2270    0.6470    1.1140 C   0  0  0  0  0  0  0  0  0  0  0  0
   -0.6390    1.2550    0.1830 O   0  0  0  0  0  0  0  0  0  0  0  0
    0.7490   -0.9910    4.1700 H   0  0  0  0  0  0  0  0  0  0  0  0
   -0.8830   -1.3930    4.7880 H   0  0  0  0  0  0  0  0  0  0  0  0
    0.0410   -0.0290    5.4840 H   0  0  0  0  0  0  0  0  0  0  0  0
   -1.8800    0.3940    3.6860 H   0  0  0  0  0  0  0  0  0  0  0  0
    0.7490    1.5680    3.7620 H   0  0  0  0  0  0  0  0  0  0  0  0
   -0.9600   -1.2230    2.1420 H   0  0  0  0  0  0  0  0  0  0  0  0
    1.4690    0.6050    1.8500 H   0  0  0  0  0  0  0  0  0  0  0  0
   -4.4740    0.8380   -0.4520 C   0  0  0  0  0  0  0  0  0  0  0  0
   -3.3970    1.6000    0.2440 C   0  0  2  0  0  0  0  0  0  0  0  0
   -2.6400    0.8010    1.1750 N   0  0  0  0  0  0  0  0  0  0  0  0
   -4.0590    2.7200    1.0020 C   0  0  0  0  0  0  0  0  0  0  0  0
   -4.7820    3.5630    0.4120 O   0  0  0  0  0  0  0  0  0  0  0  0
   -3.8970    2.8640    2.3700 O   0  0  0  0  0  0  0  0  0  0  0  0
   -5.3050    1.5360   -0.6810 H   0  0  0  0  0  0  0  0  0  0  0  0
   -4.8910    0.0360    0.1840 H   0  0  0  0  0  0  0  0  0  0  0  0
   -4.1370    0.4450   -1.4470 H   0  0  0  0  0  0  0  0  0  0  0  0
   -2.7250    2.0670   -0.5130 H   0  0  0  0  0  0  0  0  0  0  0  0
   -3.1970    0.3180    1.9320 H   0  0  0  0  0  0  0  0  0  0  0  0
  1  2  1  0  0  0  0
  2 10  1  0  0  0  0
  2 14  1  1  0  0  0
  3 15  1  0  0  0  0
  3 16  1  0  0  0  0
  3  2  1  0  0  0  0
  4  3  1  0  0  0  0
  5 17  1  0  0  0  0
  5  4  2  0  0  0  0
  6  5  1  0  0  0  0
  7  6  2  0  0  0  0
  7  8  1  0  0  0  0
  8  9  2  0  0  0  0
  9 21  1  0  0  0  0
  9  4  1  0  0  0  0
 10 11  2  0  0  0  0
 10 26  1  0  0  0  0
 12  1  1  0  0  0  0
 13  1  1  0  0  0  0
 18  6  1  0  0  0  0
 19  7  1  0  0  0  0
 20  8  1  0  0  0  0
 22 30  1  0  0  0  0
 22 31  1  0  0  0  0
 23 24  1  0  0  0  0
 23 32  1  1  0  0  0
 23 22  1  0  0  0  0
 24 33  1  0  0  0  0
 25 34  1  6  0  0  0
 25 23  1  0  0  0  0
 26 25  1  0  0  0  0
 27 38  1  0  0  0  0
 27 25  1  0  0  0  0
 28 27  2  0  0  0  0
 29 22  1  0  0  0  0
 35 26  1  0  0  0  0
 36 43  1  0  0  0  0
 36 37  1  0  0  0  0
 37 45  1  6  0  0  0
 37 39  1  0  0  0  0
 37 38  1  0  0  0  0
 38 46  1  0  0  0  0
 39 41  1  0  0  0  0
 40 39  2  0  0  0  0
 42 36  1  0  0  0  0
 44 36  1  0  0  0  0
M  END
$$$$
