FTC.pdb
 OpenBabel07022419013D

 47 47  0  0  1  0  0  0  0  0999 V2000
   -2.5020    1.3130   -0.9390 N   0  0  0  0  0  0  0  0  0  0  0  0
   -1.0820    1.5900   -1.2130 C   0  0  1  0  0  0  0  0  0  0  0  0
   -0.8610    3.0230   -0.8270 C   0  0  0  0  0  0  0  0  0  0  0  0
    0.5150    3.5050   -1.0260 C   0  0  0  0  0  0  0  0  0  0  0  0
    0.8570    4.0670   -2.2620 C   0  0  0  0  0  0  0  0  0  0  0  0
    2.1370    4.5350   -2.4970 C   0  0  0  0  0  0  0  0  0  0  0  0
    3.1210    4.4680   -1.5330 C   0  0  0  0  0  0  0  0  0  0  0  0
    2.7700    3.9100   -0.3180 C   0  0  0  0  0  0  0  0  0  0  0  0
    1.5000    3.4380   -0.0630 C   0  0  0  0  0  0  0  0  0  0  0  0
   -0.3000    0.6330   -0.4100 C   0  0  0  0  0  0  0  0  0  0  0  0
    0.9540    0.6720   -0.4930 O   0  0  0  0  0  0  0  0  0  0  0  0
   -2.7460    0.3380   -1.2150 H   0  0  0  0  0  0  0  0  0  0  0  0
   -3.0330    2.0170   -1.5120 H   0  0  0  0  0  0  0  0  0  0  0  0
   -0.9230    1.3760   -2.2710 H   0  0  0  0  0  0  0  0  0  0  0  0
   -1.5900    3.6670   -1.3600 H   0  0  0  0  0  0  0  0  0  0  0  0
   -1.1540    3.1030    0.2610 H   0  0  0  0  0  0  0  0  0  0  0  0
    0.0790    4.1170   -3.0150 H   0  0  0  0  0  0  0  0  0  0  0  0
    2.3520    4.9670   -3.4860 H   0  0  0  0  0  0  0  0  0  0  0  0
    4.1170    4.8420   -1.7430 H   0  0  0  0  0  0  0  0  0  0  0  0
    3.5740    3.8700    0.4310 H   0  0  0  0  0  0  0  0  0  0  0  0
    1.2760    3.0130    0.9030 H   0  0  0  0  0  0  0  0  0  0  0  0
   -1.8790   -0.7270    2.9310 C   0  0  0  0  0  0  0  0  0  0  0  0
   -0.4000   -0.8680    2.6950 C   0  0  1  0  0  0  0  0  0  0  0  0
    0.2390   -1.6570    3.6140 O   0  0  0  0  0  0  0  0  0  0  0  0
   -0.1150   -1.2710    1.2420 C   0  0  2  0  0  0  0  0  0  0  0  0
   -0.8730   -0.3230    0.4450 N   0  0  0  0  0  0  0  0  0  0  0  0
   -0.5600   -2.6510    1.0670 C   0  0  0  0  0  0  0  0  0  0  0  0
   -1.5190   -3.0090    0.3390 O   0  0  0  0  0  0  0  0  0  0  0  0
   -2.4650   -1.3750    2.2650 H   0  0  0  0  0  0  0  0  0  0  0  0
   -2.0860   -0.9730    3.9960 H   0  0  0  0  0  0  0  0  0  0  0  0
   -2.2150    0.3360    2.7600 H   0  0  0  0  0  0  0  0  0  0  0  0
    0.0330    0.1700    2.7850 H   0  0  0  0  0  0  0  0  0  0  0  0
    0.5450   -1.0940    4.3800 H   0  0  0  0  0  0  0  0  0  0  0  0
    0.9640   -1.1080    1.0580 H   0  0  0  0  0  0  0  0  0  0  0  0
   -1.9130   -0.3760    0.5320 H   0  0  0  0  0  0  0  0  0  0  0  0
    0.1240   -3.6860    1.7590 N   0  0  0  0  0  0  0  0  0  0  0  0
   -0.2680   -5.0830    1.6310 C   0  0  1  0  0  0  0  0  0  0  0  0
    0.8930   -5.8440    0.9960 C   0  0  0  0  0  0  0  0  0  0  0  0
    2.3660   -5.7040    2.0450 S   0  0  0  0  0  0  0  0  0  0  0  0
   -0.4900   -5.6860    2.9670 C   0  0  0  0  0  0  0  0  0  0  0  0
   -0.3280   -4.9750    3.9800 O   0  0  0  0  0  0  0  0  0  0  0  0
   -0.8710   -7.0060    3.1290 O   0  0  0  0  0  0  0  0  0  0  0  0
    0.9380   -3.4860    2.3850 H   0  0  0  0  0  0  0  0  0  0  0  0
   -1.1300   -5.2060    0.9520 H   0  0  0  0  0  0  0  0  0  0  0  0
    0.6290   -6.9050    0.8640 H   0  0  0  0  0  0  0  0  0  0  0  0
    1.1570   -5.3650    0.0200 H   0  0  0  0  0  0  0  0  0  0  0  0
    2.1900   -6.3860    3.2670 H   0  0  0  0  0  0  0  0  0  0  0  0
  2 14  1  6  0  0  0
  2  1  1  0  0  0  0
  2  3  1  0  0  0  0
  2 10  1  0  0  0  0
  3 16  1  0  0  0  0
  4  3  1  0  0  0  0
  4  9  1  0  0  0  0
  5  4  2  0  0  0  0
  6  5  1  0  0  0  0
  6  7  2  0  0  0  0
  7  8  1  0  0  0  0
  8  9  2  0  0  0  0
  8 20  1  0  0  0  0
  9 21  1  0  0  0  0
 10 26  1  0  0  0  0
 11 10  2  0  0  0  0
 12  1  1  0  0  0  0
 13  1  1  0  0  0  0
 15  3  1  0  0  0  0
 17  5  1  0  0  0  0
 18  6  1  0  0  0  0
 19  7  1  0  0  0  0
 22 30  1  0  0  0  0
 23 32  1  1  0  0  0
 23 22  1  0  0  0  0
 23 24  1  0  0  0  0
 24 33  1  0  0  0  0
 25 34  1  6  0  0  0
 25 23  1  0  0  0  0
 26 35  1  0  0  0  0
 26 25  1  0  0  0  0
 27 25  1  0  0  0  0
 27 36  1  0  0  0  0
 28 27  2  0  0  0  0
 29 22  1  0  0  0  0
 31 22  1  0  0  0  0
 36 43  1  0  0  0  0
 37 44  1  6  0  0  0
 37 36  1  0  0  0  0
 37 40  1  0  0  0  0
 38 37  1  0  0  0  0
 38 39  1  0  0  0  0
 39 47  1  0  0  0  0
 40 42  2  0  0  0  0
 40 41  1  0  0  0  0
 45 38  1  0  0  0  0
 46 38  1  0  0  0  0
M  END
$$$$
