FTD.pdb
 OpenBabel07022419013D

 49 49  0  0  1  0  0  0  0  0999 V2000
    3.1060   -1.3080    2.6430 N   0  0  0  0  0  0  0  0  0  0  0  0
    2.3030   -0.4340    1.8110 C   0  0  1  0  0  0  0  0  0  0  0  0
    2.3240   -0.9900    0.4030 C   0  0  0  0  0  0  0  0  0  0  0  0
    3.7550   -1.0060   -0.0320 C   0  0  0  0  0  0  0  0  0  0  0  0
    4.2870    0.1110   -0.6690 C   0  0  0  0  0  0  0  0  0  0  0  0
    5.5960    0.1150   -1.0750 C   0  0  0  0  0  0  0  0  0  0  0  0
    6.4110   -0.9670   -0.8700 C   0  0  0  0  0  0  0  0  0  0  0  0
    5.9040   -2.0810   -0.2430 C   0  0  0  0  0  0  0  0  0  0  0  0
    4.5880   -2.0720    0.1600 C   0  0  0  0  0  0  0  0  0  0  0  0
    0.9390   -0.3840    2.3820 C   0  0  0  0  0  0  0  0  0  0  0  0
    0.6590   -1.0230    3.4330 O   0  0  0  0  0  0  0  0  0  0  0  0
    2.8410   -2.3100    2.5110 H   0  0  0  0  0  0  0  0  0  0  0  0
    3.0810   -1.0050    3.6430 H   0  0  0  0  0  0  0  0  0  0  0  0
    2.7830    0.5630    1.8560 H   0  0  0  0  0  0  0  0  0  0  0  0
    1.7080   -0.4130   -0.3040 H   0  0  0  0  0  0  0  0  0  0  0  0
    1.9860   -2.0460    0.3750 H   0  0  0  0  0  0  0  0  0  0  0  0
    3.6240    0.9730   -0.8270 H   0  0  0  0  0  0  0  0  0  0  0  0
    5.9710    0.9940   -1.5630 H   0  0  0  0  0  0  0  0  0  0  0  0
    7.4360   -0.8870   -1.2200 H   0  0  0  0  0  0  0  0  0  0  0  0
    6.5450   -2.9290   -0.0830 H   0  0  0  0  0  0  0  0  0  0  0  0
    4.2090   -2.9600    0.6520 H   0  0  0  0  0  0  0  0  0  0  0  0
   -3.1900    1.6640    3.5790 C   0  0  0  0  0  0  0  0  0  0  0  0
   -1.8580    1.7780    2.8600 C   0  0  1  0  0  0  0  0  0  0  0  0
   -0.9200    2.1490    3.8270 O   0  0  0  0  0  0  0  0  0  0  0  0
   -1.4680    0.3940    2.3920 C   0  0  2  0  0  0  0  0  0  0  0  0
   -0.1360    0.3590    1.8160 N   0  0  0  0  0  0  0  0  0  0  0  0
   -2.4620   -0.2020    1.4610 C   0  0  0  0  0  0  0  0  0  0  0  0
   -3.6640   -0.2360    1.8290 O   0  0  0  0  0  0  0  0  0  0  0  0
   -4.0400    1.8070    2.9020 H   0  0  0  0  0  0  0  0  0  0  0  0
   -3.2700    0.6850    4.0940 H   0  0  0  0  0  0  0  0  0  0  0  0
   -3.2730    2.4450    4.3860 H   0  0  0  0  0  0  0  0  0  0  0  0
   -1.8880    2.5120    2.0480 H   0  0  0  0  0  0  0  0  0  0  0  0
   -0.0320    1.7380    3.6770 H   0  0  0  0  0  0  0  0  0  0  0  0
   -1.4070   -0.2400    3.3260 H   0  0  0  0  0  0  0  0  0  0  0  0
    0.0630    0.8970    0.9490 H   0  0  0  0  0  0  0  0  0  0  0  0
   -2.0970   -0.7140    0.2160 N   0  0  0  0  0  0  0  0  0  0  0  0
   -3.1140   -1.2930   -0.6680 C   0  0  1  0  0  0  0  0  0  0  0  0
   -3.1690   -0.5660   -1.9720 C   0  0  0  0  0  0  0  0  0  0  0  0
   -4.2180   -1.1290   -2.8410 C   0  0  0  0  0  0  0  0  0  0  0  0
   -4.1910   -0.9500   -4.1080 O   0  0  0  0  0  0  0  0  0  0  0  0
   -2.7450   -2.7170   -0.9470 C   0  0  0  0  0  0  0  0  0  0  0  0
   -3.4230   -3.4540   -1.6750 O   0  0  0  0  0  0  0  0  0  0  0  0
   -5.2780   -1.8670   -2.3600 O   0  0  0  0  0  0  0  0  0  0  0  0
   -1.5990   -3.2310   -0.3660 O   0  0  0  0  0  0  0  0  0  0  0  0
   -1.1170   -0.7060   -0.1290 H   0  0  0  0  0  0  0  0  0  0  0  0
   -4.0820   -1.2120   -0.1490 H   0  0  0  0  0  0  0  0  0  0  0  0
   -3.4660    0.5090   -1.7880 H   0  0  0  0  0  0  0  0  0  0  0  0
   -2.1830   -0.5020   -2.4740 H   0  0  0  0  0  0  0  0  0  0  0  0
   -5.8480   -2.4830   -2.9070 H   0  0  0  0  0  0  0  0  0  0  0  0
  1 13  1  0  0  0  0
  2 14  1  1  0  0  0
  2 10  1  0  0  0  0
  2  1  1  0  0  0  0
  3  2  1  0  0  0  0
  4  9  1  0  0  0  0
  4  3  1  0  0  0  0
  5  4  2  0  0  0  0
  6  7  2  0  0  0  0
  6  5  1  0  0  0  0
  7  8  1  0  0  0  0
  8 20  1  0  0  0  0
  8  9  2  0  0  0  0
  9 21  1  0  0  0  0
 10 11  2  0  0  0  0
 12  1  1  0  0  0  0
 15  3  1  0  0  0  0
 16  3  1  0  0  0  0
 17  5  1  0  0  0  0
 18  6  1  0  0  0  0
 19  7  1  0  0  0  0
 22 30  1  0  0  0  0
 22 31  1  0  0  0  0
 23 32  1  6  0  0  0
 23 22  1  0  0  0  0
 23 24  1  0  0  0  0
 25 23  1  0  0  0  0
 25 34  1  1  0  0  0
 26 10  1  0  0  0  0
 26 25  1  0  0  0  0
 27 28  2  0  0  0  0
 27 25  1  0  0  0  0
 29 22  1  0  0  0  0
 33 24  1  0  0  0  0
 35 26  1  0  0  0  0
 36 27  1  0  0  0  0
 37 46  1  1  0  0  0
 37 36  1  0  0  0  0
 38 47  1  0  0  0  0
 38 37  1  0  0  0  0
 39 43  1  0  0  0  0
 39 38  1  0  0  0  0
 40 39  2  0  0  0  0
 41 37  1  0  0  0  0
 41 44  1  0  0  0  0
 42 41  2  0  0  0  0
 45 36  1  0  0  0  0
 48 38  1  0  0  0  0
 49 43  1  0  0  0  0
M  END
$$$$
