FTE.pdb
 OpenBabel07022419013D

 52 52  0  0  1  0  0  0  0  0999 V2000
    1.7480   -0.9240   -0.7060 N   0  0  0  0  0  0  0  0  0  0  0  0
    1.2200   -0.4810    0.5460 C   0  0  1  0  0  0  0  0  0  0  0  0
    2.1510    0.5090    1.2550 C   0  0  0  0  0  0  0  0  0  0  0  0
    3.4520   -0.1390    1.5110 C   0  0  0  0  0  0  0  0  0  0  0  0
    4.4860   -0.0910    0.6140 C   0  0  0  0  0  0  0  0  0  0  0  0
    5.7070   -0.7160    0.8870 C   0  0  0  0  0  0  0  0  0  0  0  0
    5.8900   -1.3980    2.0780 C   0  0  0  0  0  0  0  0  0  0  0  0
    4.8500   -1.4440    2.9770 C   0  0  0  0  0  0  0  0  0  0  0  0
    3.6420   -0.8190    2.6930 C   0  0  0  0  0  0  0  0  0  0  0  0
   -0.1240    0.1530    0.3370 C   0  0  0  0  0  0  0  0  0  0  0  0
   -0.5820    0.2100   -0.8280 O   0  0  0  0  0  0  0  0  0  0  0  0
    1.9660   -0.1470   -1.3660 H   0  0  0  0  0  0  0  0  0  0  0  0
    2.5790   -1.5350   -0.5630 H   0  0  0  0  0  0  0  0  0  0  0  0
    1.1140   -1.3670    1.2060 H   0  0  0  0  0  0  0  0  0  0  0  0
    2.3060    1.3950    0.5880 H   0  0  0  0  0  0  0  0  0  0  0  0
    1.6530    0.8350    2.1800 H   0  0  0  0  0  0  0  0  0  0  0  0
    4.3610    0.4360   -0.3200 H   0  0  0  0  0  0  0  0  0  0  0  0
    6.5220   -0.6900    0.2020 H   0  0  0  0  0  0  0  0  0  0  0  0
    6.8550   -1.8770    2.2640 H   0  0  0  0  0  0  0  0  0  0  0  0
    5.0040   -1.9770    3.9010 H   0  0  0  0  0  0  0  0  0  0  0  0
    2.8130   -0.8530    3.4040 H   0  0  0  0  0  0  0  0  0  0  0  0
   -1.0550    3.4560    1.4920 C   0  0  0  0  0  0  0  0  0  0  0  0
   -2.0170    2.5910    0.6630 C   0  0  1  0  0  0  0  0  0  0  0  0
   -1.5280    2.5700   -0.6220 O   0  0  0  0  0  0  0  0  0  0  0  0
   -2.0830    1.2700    1.3480 C   0  0  2  0  0  0  0  0  0  0  0  0
   -0.8110    0.6560    1.4660 N   0  0  0  0  0  0  0  0  0  0  0  0
   -3.0740    0.3240    0.8130 C   0  0  0  0  0  0  0  0  0  0  0  0
   -4.2430    0.6800    0.4750 O   0  0  0  0  0  0  0  0  0  0  0  0
   -1.5420    3.7150    2.4440 H   0  0  0  0  0  0  0  0  0  0  0  0
   -0.7020    4.3240    0.9340 H   0  0  0  0  0  0  0  0  0  0  0  0
   -0.1990    2.7870    1.7350 H   0  0  0  0  0  0  0  0  0  0  0  0
   -2.9850    3.1450    0.6950 H   0  0  0  0  0  0  0  0  0  0  0  0
   -0.6520    3.0440   -0.7220 H   0  0  0  0  0  0  0  0  0  0  0  0
   -2.4630    1.5250    2.4060 H   0  0  0  0  0  0  0  0  0  0  0  0
   -0.3590    0.5710    2.4300 H   0  0  0  0  0  0  0  0  0  0  0  0
   -2.7370   -1.0430    0.6620 N   0  0  0  0  0  0  0  0  0  0  0  0
   -3.6850   -2.0160    0.1320 C   0  0  1  0  0  0  0  0  0  0  0  0
   -3.1590   -2.6770   -1.1230 C   0  0  0  0  0  0  0  0  0  0  0  0
   -1.8530   -3.4080   -0.8420 C   0  0  0  0  0  0  0  0  0  0  0  0
   -1.3880   -4.0320   -2.1000 C   0  0  0  0  0  0  0  0  0  0  0  0
   -0.3060   -4.7010   -2.1050 O   0  0  0  0  0  0  0  0  0  0  0  0
   -3.8290   -3.0730    1.1580 C   0  0  0  0  0  0  0  0  0  0  0  0
   -4.6040   -4.0280    0.9200 O   0  0  0  0  0  0  0  0  0  0  0  0
   -2.0660   -3.9360   -3.3000 O   0  0  0  0  0  0  0  0  0  0  0  0
   -3.1530   -3.0580    2.3630 O   0  0  0  0  0  0  0  0  0  0  0  0
   -1.8150   -1.4370    0.9290 H   0  0  0  0  0  0  0  0  0  0  0  0
   -4.6430   -1.5340   -0.1140 H   0  0  0  0  0  0  0  0  0  0  0  0
   -3.0750   -1.9960   -1.9730 H   0  0  0  0  0  0  0  0  0  0  0  0
   -3.8960   -3.4590   -1.4000 H   0  0  0  0  0  0  0  0  0  0  0  0
   -1.0690   -2.7330   -0.4620 H   0  0  0  0  0  0  0  0  0  0  0  0
   -2.0600   -4.2300   -0.1210 H   0  0  0  0  0  0  0  0  0  0  0  0
   -1.5190   -3.8260   -4.1620 H   0  0  0  0  0  0  0  0  0  0  0  0
  1 13  1  0  0  0  0
  1  2  1  0  0  0  0
  2 14  1  1  0  0  0
  2  3  1  0  0  0  0
  3  4  1  0  0  0  0
  3 16  1  0  0  0  0
  4  9  1  0  0  0  0
  5  6  1  0  0  0  0
  5  4  2  0  0  0  0
  6  7  2  0  0  0  0
  7 19  1  0  0  0  0
  7  8  1  0  0  0  0
  8 20  1  0  0  0  0
  9  8  2  0  0  0  0
  9 21  1  0  0  0  0
 10  2  1  0  0  0  0
 10 26  1  0  0  0  0
 11 10  2  0  0  0  0
 12  1  1  0  0  0  0
 15  3  1  0  0  0  0
 17  5  1  0  0  0  0
 18  6  1  0  0  0  0
 22 31  1  0  0  0  0
 22 29  1  0  0  0  0
 23 32  1  1  0  0  0
 23 25  1  0  0  0  0
 23 22  1  0  0  0  0
 24 23  1  0  0  0  0
 25 26  1  0  0  0  0
 25 34  1  1  0  0  0
 26 35  1  0  0  0  0
 27 25  1  0  0  0  0
 28 27  2  0  0  0  0
 30 22  1  0  0  0  0
 33 24  1  0  0  0  0
 36 27  1  0  0  0  0
 36 46  1  0  0  0  0
 37 47  1  6  0  0  0
 37 36  1  0  0  0  0
 37 42  1  0  0  0  0
 38 39  1  0  0  0  0
 38 37  1  0  0  0  0
 39 50  1  0  0  0  0
 39 51  1  0  0  0  0
 40 39  1  0  0  0  0
 41 40  2  0  0  0  0
 42 45  1  0  0  0  0
 43 42  2  0  0  0  0
 44 40  1  0  0  0  0
 48 38  1  0  0  0  0
 49 38  1  0  0  0  0
 52 44  1  0  0  0  0
M  END
$$$$
