FTI.pdb
 OpenBabel07022419013D

 55 55  0  0  1  0  0  0  0  0999 V2000
    2.1710   -2.7420    4.7100 N   0  0  0  0  0  0  0  0  0  0  0  0
    1.2220   -1.7360    4.2820 C   0  0  1  0  0  0  0  0  0  0  0  0
    1.8130   -0.3560    4.3040 C   0  0  0  0  0  0  0  0  0  0  0  0
    2.9930   -0.1780    3.4470 C   0  0  0  0  0  0  0  0  0  0  0  0
    2.8450    0.2300    2.1460 C   0  0  0  0  0  0  0  0  0  0  0  0
    3.9420    0.4110    1.2990 C   0  0  0  0  0  0  0  0  0  0  0  0
    5.2210    0.1790    1.7650 C   0  0  0  0  0  0  0  0  0  0  0  0
    5.3430   -0.2270    3.0660 C   0  0  0  0  0  0  0  0  0  0  0  0
    4.2670   -0.4100    3.9150 C   0  0  0  0  0  0  0  0  0  0  0  0
    0.5690   -2.1270    3.0410 C   0  0  0  0  0  0  0  0  0  0  0  0
    0.9170   -3.1750    2.4370 O   0  0  0  0  0  0  0  0  0  0  0  0
    2.9270   -2.9080    4.0190 H   0  0  0  0  0  0  0  0  0  0  0  0
    1.7290   -3.5940    5.0730 H   0  0  0  0  0  0  0  0  0  0  0  0
    0.4330   -1.7310    5.0950 H   0  0  0  0  0  0  0  0  0  0  0  0
    2.1300   -0.1000    5.3450 H   0  0  0  0  0  0  0  0  0  0  0  0
    1.0090    0.4030    4.0760 H   0  0  0  0  0  0  0  0  0  0  0  0
    1.8780    0.4320    1.7100 H   0  0  0  0  0  0  0  0  0  0  0  0
    3.8170    0.7360    0.2650 H   0  0  0  0  0  0  0  0  0  0  0  0
    6.0660    0.3230    1.1000 H   0  0  0  0  0  0  0  0  0  0  0  0
    6.3580   -0.4120    3.4380 H   0  0  0  0  0  0  0  0  0  0  0  0
    4.4700   -0.7340    4.9290 H   0  0  0  0  0  0  0  0  0  0  0  0
   -3.2270   -1.1470    2.5050 C   0  0  0  0  0  0  0  0  0  0  0  0
   -2.5310   -2.1890    1.6300 C   0  0  1  0  0  0  0  0  0  0  0  0
   -3.3140   -2.5750    0.5700 O   0  0  0  0  0  0  0  0  0  0  0  0
   -1.1460   -1.7280    1.2380 C   0  0  2  0  0  0  0  0  0  0  0  0
   -0.4750   -1.3670    2.4590 N   0  0  0  0  0  0  0  0  0  0  0  0
   -1.1410   -0.7000    0.2030 C   0  0  0  0  0  0  0  0  0  0  0  0
   -0.5640    0.4050    0.5040 O   0  0  0  0  0  0  0  0  0  0  0  0
   -4.3080   -1.3880    2.5560 H   0  0  0  0  0  0  0  0  0  0  0  0
   -2.8430   -1.1820    3.5460 H   0  0  0  0  0  0  0  0  0  0  0  0
   -3.1110   -0.1310    2.0870 H   0  0  0  0  0  0  0  0  0  0  0  0
   -2.3920   -3.0760    2.2840 H   0  0  0  0  0  0  0  0  0  0  0  0
   -4.2430   -2.6200    0.8650 H   0  0  0  0  0  0  0  0  0  0  0  0
   -0.6410   -2.6330    0.8380 H   0  0  0  0  0  0  0  0  0  0  0  0
   -0.7740   -0.4980    2.9420 H   0  0  0  0  0  0  0  0  0  0  0  0
   -1.9150    0.7660   -5.3570 C   0  0  0  0  0  0  0  0  0  0  0  0
   -0.8030    0.7440   -4.3730 C   0  0  0  0  0  0  0  0  0  0  0  0
   -0.8850   -0.2200   -3.2600 C   0  0  2  0  0  0  0  0  0  0  0  0
   -1.0030   -1.6690   -3.6850 C   0  0  0  0  0  0  0  0  0  0  0  0
   -1.7080    0.1880   -2.1050 C   0  0  2  0  0  0  0  0  0  0  0  0
   -1.7210   -0.8610   -1.0670 N   0  0  0  0  0  0  0  0  0  0  0  0
   -3.0570    0.6750   -2.3380 C   0  0  0  0  0  0  0  0  0  0  0  0
   -3.2950    1.6400   -3.0900 O   0  0  0  0  0  0  0  0  0  0  0  0
   -4.1920    0.0940   -1.7340 O   0  0  0  0  0  0  0  0  0  0  0  0
   -1.4470    0.4240   -6.3460 H   0  0  0  0  0  0  0  0  0  0  0  0
   -2.7450    0.0710   -5.1860 H   0  0  0  0  0  0  0  0  0  0  0  0
   -2.3410    1.7640   -5.5850 H   0  0  0  0  0  0  0  0  0  0  0  0
   -0.7770    1.7760   -3.9010 H   0  0  0  0  0  0  0  0  0  0  0  0
    0.2100    0.6870   -4.8700 H   0  0  0  0  0  0  0  0  0  0  0  0
    0.2070   -0.2100   -2.8250 H   0  0  0  0  0  0  0  0  0  0  0  0
   -0.1410   -1.9200   -4.3380 H   0  0  0  0  0  0  0  0  0  0  0  0
   -1.9160   -1.8640   -4.2670 H   0  0  0  0  0  0  0  0  0  0  0  0
   -0.9290   -2.3280   -2.8030 H   0  0  0  0  0  0  0  0  0  0  0  0
   -1.1490    1.0430   -1.6020 H   0  0  0  0  0  0  0  0  0  0  0  0
   -2.1790   -1.7480   -1.2970 H   0  0  0  0  0  0  0  0  0  0  0  0
  1 13  1  0  0  0  0
  2  3  1  0  0  0  0
  2  1  1  0  0  0  0
  2 14  1  1  0  0  0
  3 15  1  0  0  0  0
  4  9  1  0  0  0  0
  4  3  1  0  0  0  0
  5  4  2  0  0  0  0
  6  7  2  0  0  0  0
  6  5  1  0  0  0  0
  7  8  1  0  0  0  0
  8 20  1  0  0  0  0
  8  9  2  0  0  0  0
  9 21  1  0  0  0  0
 10  2  1  0  0  0  0
 11 10  2  0  0  0  0
 12  1  1  0  0  0  0
 16  3  1  0  0  0  0
 17  5  1  0  0  0  0
 18  6  1  0  0  0  0
 19  7  1  0  0  0  0
 22 29  1  0  0  0  0
 22 30  1  0  0  0  0
 23 32  1  1  0  0  0
 23 22  1  0  0  0  0
 24 33  1  0  0  0  0
 24 23  1  0  0  0  0
 25 34  1  6  0  0  0
 25 23  1  0  0  0  0
 25 26  1  0  0  0  0
 26 35  1  0  0  0  0
 26 10  1  0  0  0  0
 27 28  2  0  0  0  0
 27 25  1  0  0  0  0
 31 22  1  0  0  0  0
 36 46  1  0  0  0  0
 36 37  1  0  0  0  0
 37 48  1  0  0  0  0
 37 38  1  0  0  0  0
 38 50  1  1  0  0  0
 38 40  1  0  0  0  0
 39 38  1  0  0  0  0
 39 53  1  0  0  0  0
 40 54  1  1  0  0  0
 40 41  1  0  0  0  0
 41 27  1  0  0  0  0
 42 40  1  0  0  0  0
 42 44  1  0  0  0  0
 43 42  2  0  0  0  0
 45 36  1  0  0  0  0
 47 36  1  0  0  0  0
 49 37  1  0  0  0  0
 51 39  1  0  0  0  0
 52 39  1  0  0  0  0
 55 41  1  0  0  0  0
M  END
$$$$
